drugbank_target|Q9Y5S8 NADPH oxidase 1 (DB09140)
 OpenBabel12092121033D

  0  0  0     0  0            999 V3000
M  V30 BEGIN CTAB
M  V30 COUNTS 9119 9250 0 0 0
M  V30 BEGIN ATOM
M  V30 1 H -0.908 1.98254 -0.117106 0
M  V30 2 N 0 1.576 0 0
M  V30 3 C 0.933 2.03868 1.02534 0
M  V30 4 C 1.911 0.928543 1.3348 0
M  V30 5 O 3.095 1.19667 1.45644 0
M  V30 6 C 0.222 2.43627 2.35294 0
M  V30 7 C -0.732 3.65373 2.2001 0
M  V30 8 S 0.101 5.13292 1.52614 0
M  V30 9 C 1.257 5.56322 2.86805 0
M  V30 10 H 1.49 2.90518 0.631377 0
M  V30 11 H -0.977 1.52953 0.210867 0
M  V30 12 H 0.981 2.67203 3.11629 0
M  V30 13 H -0.358 1.57376 2.7183 0
M  V30 14 H -1.165 3.90944 3.18086 0
M  V30 15 H -1.563 3.418 1.51819 0
M  V30 16 H 0.729 5.58782 3.83104 0
M  V30 17 H 1.672 6.56266 2.65933 0
M  V30 18 H 2.08 4.83886 2.90714 0
M  V30 19 N 1.4781 -0.272755 1.55222 0
M  V30 20 C 2.7261 -1.00234 1.75492 0
M  V30 21 C 3.0471 -1.8681 0.5592 0
M  V30 22 O 2.3171 -1.91215 -0.425882 0
M  V30 23 H 0.8971 -0.373076 0.647166 0
M  V30 24 H 3.5591 -0.296926 1.92625 0
M  V30 25 H 2.6551 -1.63913 2.65592 0
M  V30 26 N 2.9562 -1.48159 -0.537278 0
M  V30 27 C 3.9042 -1.62573 -1.66352 0
M  V30 28 C 4.8982 -0.492366 -1.62087 0
M  V30 29 O 6.1042 -0.670847 -1.67032 0
M  V30 30 H 2.4792 -0.511992 -0.550789 0
M  V30 31 H 4.4502 -2.57176 -1.51337 0
M  V30 32 C 3.1992 -1.67583 -3.04649 0
M  V30 33 H 2.5222 -2.54151 -3.08622 0
M  V30 34 H 3.9622 -1.81713 -3.83088 0
M  V30 35 C 2.4212 -0.413039 -3.34358 0
M  V30 36 O 2.9512 0.477259 -3.98855 0
M  V30 37 N 1.1572 -0.286961 -2.8918 0
M  V30 38 H 0.7042 -1.01241 -2.36871 0
M  V30 39 H 0.6622 0.556963 -3.09427 0
M  V30 40 N 4.4343 0.785586 -1.36625 0
M  V30 41 C 5.6803 1.5452 -1.32269 0
M  V30 42 C 6.0353 1.92159 0.0962266 0
M  V30 43 O 5.3283 1.60158 1.05167 0
M  V30 44 C 5.5223 2.83007 -2.1827 0
M  V30 45 C 5.3513 2.57925 -3.68382 0
M  V30 46 C 4.1213 2.52752 -4.37544 0
M  V30 47 C 6.3193 2.26861 -4.61561 0
M  V30 48 N 4.3013 2.19608 -5.73276 0
M  V30 49 C 5.6723 2.03738 -5.85569 0
M  V30 50 C 7.7273 2.129 -4.50087 0
M  V30 51 C 6.4303 1.68065 -6.9939 0
M  V30 52 C 8.4563 1.78626 -5.63779 0
M  V30 53 C 7.8183 1.56353 -6.86828 0
M  V30 54 H 3.9173 0.566301 -0.539283 0
M  V30 55 H 6.5013 0.917736 -1.71714 0
M  V30 56 H 4.6723 3.43614 -1.81063 0
M  V30 57 H 6.4043 3.48775 -2.05275 0
M  V30 58 H 3.1593 2.6813 -3.90389 0
M  V30 59 H 3.5833 2.05771 -6.44971 0
M  V30 60 H 8.2253 2.28808 -3.55537 0
M  V30 61 H 5.9433 1.50895 -7.93887 0
M  V30 62 H 9.5293 1.68502 -5.56865 0
M  V30 63 H 8.4093 1.30223 -7.73312 0
M  V30 64 N 5.9124 1.20967 1.01018 0
M  V30 65 C 7.1584 1.02526 1.74975 0
M  V30 66 C 7.4914 -0.4408 1.89131 0
M  V30 67 O 6.7664 -1.32718 1.42184 0
M  V30 68 C 7.0494 1.71699 3.1653 0
M  V30 69 C 6.9024 3.25791 3.10129 0
M  V30 70 C 8.2214 1.45531 4.15342 0
M  V30 71 H 5.3404 0.373863 0.635134 0
M  V30 72 H 7.9824 1.49071 1.17805 0
M  V30 73 H 6.1324 1.32128 3.65341 0
M  V30 74 H 7.8044 3.74697 2.69072 0
M  V30 75 H 6.0474 3.56363 2.47362 0
M  V30 76 H 6.7184 3.69353 4.10222 0
M  V30 77 H 9.1944 1.79872 3.75213 0
M  V30 78 H 8.0704 1.96453 5.1254 0
M  V30 79 H 8.3314 0.384237 4.40427 0
M  V30 80 N 7.3905 -1.2043 1.01659 0
M  V30 81 C 8.6365 -1.90079 0.706963 0
M  V30 82 C 8.9695 -1.78648 -0.761474 0
M  V30 83 O 8.2445 -1.17069 -1.55323 0
M  V30 84 C 8.5275 -3.41469 1.14327 0
M  V30 85 C 8.3805 -3.61833 2.67201 0
M  V30 86 C 9.6995 -4.34261 0.714529 0
M  V30 87 H 6.8185 -0.690254 0.2583 0
M  V30 88 H 9.4605 -1.41826 1.26433 0
M  V30 89 H 7.6105 -3.82696 0.669056 0
M  V30 90 H 9.2825 -3.2986 3.22475 0
M  V30 91 H 7.5255 -3.05304 3.08175 0
M  V30 92 H 8.1965 -4.67955 2.92783 0
M  V30 93 H 10.6725 -4.00682 1.12221 0
M  V30 94 H 9.5485 -5.38806 1.04784 0
M  V30 95 H 9.8095 -4.40431 -0.383799 0
M  V30 96 N 8.8686 -0.792821 -1.36206 0
M  V30 97 C 9.8166 -0.181555 -2.3189 0
M  V30 98 C 10.8106 0.661025 -1.55971 0
M  V30 99 O 12.0166 0.555728 -1.71206 0
M  V30 100 H 8.3916 -0.0399382 -0.750939 0
M  V30 101 H 10.3626 -1.00394 -2.81005 0
M  V30 102 C 9.1116 0.666444 -3.41253 0
M  V30 103 H 8.4346 0.0274489 -3.99791 0
M  V30 104 H 9.8746 1.06076 -4.10517 0
M  V30 105 C 8.3336 1.82614 -2.83114 0
M  V30 106 O 8.8636 2.9229 -2.75553 0
M  V30 107 N 7.0696 1.63333 -2.40356 0
M  V30 108 H 6.6166 0.741217 -2.46706 0
M  V30 109 H 6.5746 2.41087 -2.01803 0
M  V30 110 N 10.3467 1.47872 -0.545128 0
M  V30 111 C 11.2967 2.26842 0.229456 0
M  V30 112 C 12.2807 1.33626 0.896267 0
M  V30 113 O 13.4727 1.58063 0.79657 0
M  V30 114 C 10.6017 3.19089 1.26638 0
M  V30 115 C 9.6877 4.19783 0.603598 0
M  V30 116 N 10.0787 5.0479 -0.319405 0
M  V30 117 C 8.3767 4.3765 0.858989 0
M  V30 118 C 9.0777 5.77433 -0.703241 0
M  V30 119 N 8.0537 5.43566 -0.0608309 0
M  V30 120 H 11.8557 2.89947 -0.480391 0
M  V30 121 H 9.3697 1.58263 -0.364209 0
M  V30 122 H 11.3667 3.74337 1.83515 0
M  V30 123 H 10.0267 2.5754 1.97745 0
M  V30 124 H 11.0377 5.13244 -0.692889 0
M  V30 125 H 7.7147 3.87281 1.55948 0
M  V30 126 H 9.1047 6.55824 -1.46098 0
M  V30 127 N 11.8248 0.280983 1.55075 0
M  V30 128 C 13.0708 -0.327573 2.00745 0
M  V30 129 C 13.4258 -1.53045 1.16598 0
M  V30 130 O 12.7188 -1.90221 0.229451 0
M  V30 131 C 12.9128 -0.754656 3.49342 0
M  V30 132 C 12.7418 0.40529 4.4787 0
M  V30 133 C 11.5118 0.890947 4.97383 0
M  V30 134 C 13.7098 1.24371 4.99035 0
M  V30 135 N 11.6918 2.01975 5.79724 0
M  V30 136 C 13.0628 2.22031 5.7888 0
M  V30 137 C 15.1178 1.27638 4.81262 0
M  V30 138 C 13.8208 3.22709 6.42846 0
M  V30 139 C 15.8468 2.27164 5.46031 0
M  V30 140 C 15.2088 3.23556 6.25692 0
M  V30 141 H 11.3078 -0.0848774 0.77738 0
M  V30 142 H 13.8918 0.406342 1.90413 0
M  V30 143 H 12.0628 -1.45778 3.60005 0
M  V30 144 H 13.7948 -1.34105 3.81835 0
M  V30 145 H 10.5498 0.469262 4.71269 0
M  V30 146 H 10.9738 2.58794 6.25584 0
M  V30 147 H 15.6158 0.544936 4.19274 0
M  V30 148 H 13.3338 3.96784 7.0398 0
M  V30 149 H 16.9198 2.30441 5.34217 0
M  V30 150 H 15.7998 3.99309 6.74924 0
M  V30 151 N 13.3029 -1.57598 0.00835791 0
M  V30 152 C 14.5499 -1.90928 -0.674732 0
M  V30 153 C 14.8779 -0.88277 -1.73313 0
M  V30 154 O 14.1329 0.111294 -1.95383 0
M  V30 155 C 14.4319 -3.3101 -1.34787 0
M  V30 156 C 14.0979 -4.48922 -0.421861 0
M  V30 157 C 12.7599 -4.8091 -0.166927 0
M  V30 158 C 15.1119 -5.20755 0.215211 0
M  V30 159 C 12.4399 -5.821 0.733232 0
M  V30 160 C 14.7919 -6.22905 1.1033 0
M  V30 161 C 13.4559 -6.53346 1.36733 0
M  V30 162 H 12.7259 -0.698656 -0.246902 0
M  V30 163 H 15.3729 -1.91387 0.0656779 0
M  V30 164 H 13.6779 -3.26714 -2.16253 0
M  V30 165 H 15.3749 -3.54061 -1.8826 0
M  V30 166 H 11.9649 -4.23934 -0.630729 0
M  V30 167 H 16.1489 -4.9629 0.0312829 0
M  V30 168 H 11.4049 -6.04042 0.945712 0
M  V30 169 H 15.5789 -6.77694 1.60325 0
M  V30 170 H 13.2059 -7.31573 2.06652 0
M  V30 171 N 14.781 0.264519 -1.55364 0
M  V30 172 C 16.006 1.01726 -1.80739 0
M  V30 173 C 16.431 1.78836 -0.583044 0
M  V30 174 O 15.789 1.75167 0.467566 0
M  V30 175 C 15.837 1.94482 -3.03659 0
M  V30 176 O 14.941 3.03386 -2.7934 0
M  V30 177 H 14.282 0.290395 -0.597132 0
M  V30 178 H 16.812 0.290854 -2.02522 0
M  V30 179 H 16.822 2.36278 -3.32621 0
M  V30 180 H 15.497 1.37772 -3.92418 0
M  V30 181 H 14.074 2.65844 -2.61498 0
M  V30 182 N 16.2591 1.48442 0.529413 0
M  V30 183 C 17.5051 1.5672 1.28711 0
M  V30 184 C 17.8381 0.2406 1.92704 0
M  V30 185 O 17.1131 -0.753454 1.79313 0
M  V30 186 C 17.3961 2.70587 2.37603 0
M  V30 187 C 17.2491 4.12953 1.78297 0
M  V30 188 C 18.5681 2.80212 3.39366 0
M  V30 189 H 15.6871 0.570474 0.466613 0
M  V30 190 H 18.3291 1.80617 0.589706 0
M  V30 191 H 16.4791 2.50342 2.97088 0
M  V30 192 H 18.1511 4.44639 1.22858 0
M  V30 193 H 16.3941 4.19927 1.0883 0
M  V30 194 H 17.0651 4.88448 2.57144 0
M  V30 195 H 19.5411 2.98553 2.89836 0
M  V30 196 H 18.4171 3.61611 4.12951 0
M  V30 197 H 18.6781 1.88393 3.99951 0
M  V30 198 N 17.7372 -0.778329 1.37039 0
M  V30 199 C 18.6672 -1.90546 1.34962 0
M  V30 200 C 19.6482 -1.68681 0.219274 0
M  V30 201 O 20.8332 -1.89634 0.418624 0
M  V30 202 C 17.9632 -3.27734 1.14925 0
M  V30 203 C 16.9172 -3.64147 2.24902 0
M  V30 204 C 16.2432 -4.99806 1.89996 0
M  V30 205 C 17.5432 -3.71579 3.67051 0
M  V30 206 H 19.2372 -1.92541 2.29277 0
M  V30 207 H 16.7832 -0.924948 1.10366 0
M  V30 208 H 18.7362 -4.06215 1.12104 0
M  V30 209 H 17.4602 -3.26154 0.170631 0
M  V30 210 H 16.1192 -2.8797 2.26868 0
M  V30 211 H 15.7672 -4.94759 0.906796 0
M  V30 212 H 15.4672 -5.25139 2.63634 0
M  V30 213 H 16.9912 -5.80694 1.88749 0
M  V30 214 H 18.4052 -4.40227 3.67251 0
M  V30 215 H 16.8022 -4.08405 4.39688 0
M  V30 216 H 17.8722 -2.72404 4.01154 0
M  V30 217 N 19.2153 -1.21501 -1.00376 0
M  V30 218 C 20.4623 -1.03299 -1.74171 0
M  V30 219 C 20.7903 0.433326 -1.89612 0
M  V30 220 O 20.0453 1.33779 -1.42834 0
M  V30 221 C 20.3443 -1.67673 -3.15627 0
M  V30 222 C 20.0103 -3.17533 -3.2013 0
M  V30 223 C 18.6723 -3.58427 -3.21067 0
M  V30 224 C 21.0243 -4.13504 -3.17275 0
M  V30 225 C 18.3523 -4.93794 -3.16835 0
M  V30 226 C 20.7043 -5.48834 -3.14585 0
M  V30 227 C 19.3683 -5.89123 -3.13831 0
M  V30 228 H 18.6383 -0.377999 -0.637336 0
M  V30 229 H 21.2853 -1.51111 -1.17634 0
M  V30 230 H 19.5903 -1.12158 -3.75404 0
M  V30 231 H 21.2873 -1.51091 -3.71446 0
M  V30 232 H 17.8773 -2.84965 -3.20145 0
M  V30 233 H 22.0613 -3.82936 -3.15711 0
M  V30 234 H 17.3173 -5.24255 -3.1459 0
M  V30 235 H 21.4913 -6.22934 -3.1133 0
M  V30 236 H 19.1183 -6.93984 -3.10307 0
M  V30 237 N 20.6934 1.19889 -1.02296 0
M  V30 238 C 21.6234 2.25141 -0.619174 0
M  V30 239 C 22.6044 1.66051 0.368915 0
M  V30 240 O 23.7894 1.92546 0.252941 0
M  V30 241 C 20.9194 3.4728 0.0368783 0
M  V30 242 C 19.8734 4.19005 -0.872865 0
M  V30 243 C 19.1994 5.34637 -0.0822402 0
M  V30 244 C 20.4994 4.74452 -2.18387 0
M  V30 245 H 22.1934 2.59171 -1.49903 0
M  V30 246 H 19.7394 1.24579 -0.722222 0
M  V30 247 H 21.6924 4.20098 0.330958 0
M  V30 248 H 20.4164 3.12433 0.95149 0
M  V30 249 H 19.0754 3.48061 -1.15105 0
M  V30 250 H 18.7234 4.96034 0.83422 0
M  V30 251 H 18.4234 5.83557 -0.688149 0
M  V30 252 H 19.9474 6.10255 0.205238 0
M  V30 253 H 21.3614 5.39055 -1.95172 0
M  V30 254 H 19.7584 5.33834 -2.74119 0
M  V30 255 H 20.8284 3.92844 -2.84257 0
M  V30 256 N 22.1715 0.800033 1.35784 0
M  V30 257 C 23.4175 0.377901 1.99248 0
M  V30 258 C 23.7505 -1.05052 1.63333 0
M  V30 259 O 23.0255 -1.72768 0.893385 0
M  V30 260 C 23.3085 0.553922 3.55814 0
M  V30 261 C 23.1615 2.0268 4.01548 0
M  V30 262 C 24.4805 -0.0244802 4.40093 0
M  V30 263 H 21.5995 0.138782 0.723815 0
M  V30 264 H 24.2415 1.00835 1.61035 0
M  V30 265 H 22.3915 0.0172398 3.88496 0
M  V30 266 H 24.0635 2.62536 3.79305 0
M  V30 267 H 22.3065 2.5256 3.52698 0
M  V30 268 H 22.9775 2.10087 5.10458 0
M  V30 269 H 25.4535 0.433775 4.13833 0
M  V30 270 H 24.3295 0.128637 5.48749 0
M  V30 271 H 24.5905 -1.11758 4.27741 0
M  V30 272 N 23.6496 -1.47581 0.552962 0
M  V30 273 C 24.8956 -2.02782 0.0273648 0
M  V30 274 C 25.2286 -1.42687 -1.31734 0
M  V30 275 O 24.5036 -0.580897 -1.85623 0
M  V30 276 C 24.7866 -3.60031 -0.0702371 0
M  V30 277 C 24.6396 -4.30566 1.30126 0
M  V30 278 C 25.9586 -4.33028 -0.785771 0
M  V30 279 H 23.0776 -0.736912 0.0114185 0
M  V30 280 H 25.7196 -1.76056 0.714432 0
M  V30 281 H 23.8696 -3.82932 -0.655382 0
M  V30 282 H 25.5416 -4.19018 1.92929 0
M  V30 283 H 23.7846 -3.91086 1.87709 0
M  V30 284 H 24.4556 -5.39114 1.18573 0
M  V30 285 H 26.9316 -4.15095 -0.288982 0
M  V30 286 H 25.8076 -5.42695 -0.823013 0
M  V30 287 H 26.0686 -4.01945 -1.841 0
M  V30 288 N 25.1277 -0.289203 -1.54924 0
M  V30 289 C 26.3737 0.316922 -2.00916 0
M  V30 290 C 26.7287 1.52424 -1.17408 0
M  V30 291 O 26.0217 1.90097 -0.239536 0
M  V30 292 C 26.2157 0.736119 -3.49737 0
M  V30 293 C 26.0447 -0.429036 -4.47649 0
M  V30 294 C 24.8147 -0.917311 -4.96904 0
M  V30 295 C 27.0127 -1.27016 -4.98369 0
M  V30 296 N 24.9947 -2.05046 -5.78644 0
M  V30 297 C 26.3657 -2.25097 -5.77695 0
M  V30 298 C 28.4207 -1.30188 -4.80578 0
M  V30 299 C 27.1237 -3.26114 -6.41126 0
M  V30 300 C 29.1497 -2.30057 -5.44819 0
M  V30 301 C 28.5117 -3.2687 -6.23968 0
M  V30 302 H 24.6107 0.0807535 -0.777819 0
M  V30 303 H 27.1947 -0.416434 -1.90194 0
M  V30 304 H 25.3657 1.43867 -3.60773 0
M  V30 305 H 27.0977 1.32078 -3.82541 0
M  V30 306 H 23.8527 -0.494248 -4.71014 0
M  V30 307 H 24.2767 -2.62108 -6.24202 0
M  V30 308 H 28.9187 -0.567163 -4.18979 0
M  V30 309 H 26.6367 -4.00512 -7.01866 0
M  V30 310 H 30.2227 -2.33271 -5.32988 0
M  V30 311 H 29.1027 -4.02883 -6.72796 0
M  V30 312 N 26.6058 1.57591 -0.0167156 0
M  V30 313 C 27.5358 2.12496 0.967858 0
M  V30 314 C 28.5168 1.03807 1.34752 0
M  V30 315 O 29.7018 1.31577 1.42833 0
M  V30 316 C 26.8318 2.64194 2.25431 0
M  V30 317 C 25.7858 3.77559 2.01576 0
M  V30 318 C 25.1118 4.15636 3.36379 0
M  V30 319 C 26.4118 5.04151 1.36489 0
M  V30 320 H 28.1058 2.95013 0.510643 0
M  V30 321 H 25.6518 1.41915 0.244181 0
M  V30 322 H 27.6048 3.01236 2.94678 0
M  V30 323 H 26.3288 1.78821 2.73296 0
M  V30 324 H 24.9878 3.40937 1.34751 0
M  V30 325 H 24.6358 3.27263 3.81979 0
M  V30 326 H 24.3358 4.92022 3.21229 0
M  V30 327 H 25.8598 4.5525 4.06915 0
M  V30 328 H 27.2738 5.38857 1.95718 0
M  V30 329 H 25.6708 5.85453 1.31776 0
M  V30 330 H 26.7408 4.83733 0.336219 0
M  V30 331 N 28.0839 -0.256276 1.55502 0
M  V30 332 C 29.3319 -0.983672 1.76545 0
M  V30 333 C 29.6529 -1.86206 0.578982 0
M  V30 334 O 28.9229 -1.91656 -0.405577 0
M  V30 335 H 27.5029 -0.366191 0.651086 0
M  V30 336 H 30.1649 -0.276479 1.92929 0
M  V30 337 H 29.2609 -1.61087 2.67315 0
M  V30 338 N 29.562 -1.4872 -0.521534 0
M  V30 339 C 30.492 -1.66771 -1.63431 0
M  V30 340 C 31.473 -0.516499 -1.62069 0
M  V30 341 O 32.658 -0.750013 -1.79132 0
M  V30 342 C 29.788 -1.71515 -3.01993 0
M  V30 343 C 28.742 -2.86222 -3.18216 0
M  V30 344 C 28.068 -2.76061 -4.57924 0
M  V30 345 C 29.368 -4.27419 -3.00184 0
M  V30 346 H 31.062 -2.59932 -1.48579 0
M  V30 347 H 28.608 -1.25089 -0.713358 0
M  V30 348 H 30.561 -1.82731 -3.7972 0
M  V30 349 H 29.285 -0.749393 -3.17886 0
M  V30 350 H 27.944 -2.74575 -2.42908 0
M  V30 351 H 27.592 -1.77437 -4.70665 0
M  V30 352 H 27.292 -3.53037 -4.69722 0
M  V30 353 H 28.816 -2.89256 -5.37739 0
M  V30 354 H 30.23 -4.39855 -3.67697 0
M  V30 355 H 28.627 -5.05458 -3.2347 0
M  V30 356 H 29.697 -4.43293 -1.96518 0
M  V30 357 N 31.0401 0.771051 -1.3745 0
M  V30 358 C 31.9881 1.90574 -1.33358 0
M  V30 359 C 32.9821 1.67936 -0.22224 0
M  V30 360 O 34.1881 1.75717 -0.390304 0
M  V30 361 H 30.5631 0.626714 -0.415612 0
M  V30 362 H 32.5341 1.91142 -2.29144 0
M  V30 363 C 31.2831 3.27845 -1.15813 0
M  V30 364 H 30.6061 3.45842 -2.00583 0
M  V30 365 H 32.0461 4.07538 -1.17 0
M  V30 366 C 30.5051 3.36625 0.136165 0
M  V30 367 O 31.0351 3.85785 1.11949 0
M  V30 368 N 29.2411 2.89997 0.187099 0
M  V30 369 H 28.7881 2.50182 -0.613753 0
M  V30 370 H 28.7461 2.96252 1.05272 0
M  V30 371 N 32.5182 1.22032 0.997298 0
M  V30 372 C 33.7642 1.04376 1.73878 0
M  V30 373 C 34.0972 -0.420716 1.89588 0
M  V30 374 O 33.3722 -1.31202 1.43583 0
M  V30 375 C 33.6552 1.75047 3.14691 0
M  V30 376 C 33.5082 3.29062 3.06656 0
M  V30 377 C 34.8272 1.49928 4.13775 0
M  V30 378 H 31.9462 0.380578 0.631133 0
M  V30 379 H 34.5882 1.50312 1.16217 0
M  V30 380 H 32.7382 1.35996 3.63919 0
M  V30 381 H 34.4102 3.7753 2.65083 0
M  V30 382 H 32.6532 3.58967 2.43568 0
M  V30 383 H 33.3242 3.73683 4.06282 0
M  V30 384 H 35.8002 1.83842 3.73285 0
M  V30 385 H 34.6762 2.01878 5.10428 0
M  V30 386 H 34.9372 0.430929 4.39995 0
M  V30 387 N 33.9963 -1.19345 1.0293 0
M  V30 388 C 35.2433 -1.89038 0.726008 0
M  V30 389 C 35.5713 -1.79649 -0.745427 0
M  V30 390 O 34.8263 -1.18354 -1.55855 0
M  V30 391 C 35.1253 -3.39292 1.12319 0
M  V30 392 C 34.7913 -3.68885 2.59297 0
M  V30 393 C 33.4533 -3.76671 2.99453 0
M  V30 394 C 35.8053 -3.82178 3.54386 0
M  V30 395 C 33.1333 -3.9522 4.33611 0
M  V30 396 C 35.4853 -4.0224 4.88248 0
M  V30 397 C 34.1493 -4.08259 5.28092 0
M  V30 398 H 33.4193 -0.691739 0.265665 0
M  V30 399 H 36.0663 -1.41328 1.29223 0
M  V30 400 H 34.3713 -3.88903 0.475584 0
M  V30 401 H 36.0683 -3.91536 0.866037 0
M  V30 402 H 32.6583 -3.63433 2.27189 0
M  V30 403 H 36.8423 -3.75505 3.24514 0
M  V30 404 H 32.0983 -3.98119 4.64016 0
M  V30 405 H 36.2723 -4.11468 5.61843 0
M  V30 406 H 33.8993 -4.22384 6.32057 0
M  V30 407 N 35.4744 -0.807222 -1.35358 0
M  V30 408 C 36.4044 -0.232509 -2.3234 0
M  V30 409 C 37.3854 0.642386 -1.57504 0
M  V30 410 O 38.5704 0.572526 -1.85569 0
M  V30 411 C 35.7004 0.619238 -3.41735 0
M  V30 412 C 34.6544 -0.157215 -4.27711 0
M  V30 413 C 33.9804 0.816273 -5.28433 0
M  V30 414 C 35.2804 -1.35656 -5.04376 0
M  V30 415 H 36.9744 -1.04276 -2.80654 0
M  V30 416 H 34.5204 -0.50288 -1.34934 0
M  V30 417 H 36.4734 1.03137 -4.08584 0
M  V30 418 H 35.1974 1.46239 -2.92031 0
M  V30 419 H 33.8564 -0.550525 -3.62443 0
M  V30 420 H 33.5044 1.65494 -4.74996 0
M  V30 421 H 33.2044 0.301067 -5.86828 0
M  V30 422 H 34.7284 1.22659 -5.98153 0
M  V30 423 H 36.1424 -1.01927 -5.64166 0
M  V30 424 H 34.5394 -1.8063 -5.7227 0
M  V30 425 H 35.6094 -2.14288 -4.34981 0
M  V30 426 N 36.9525 1.47285 -0.560781 0
M  V30 427 C 38.1995 2.02464 -0.038062 0
M  V30 428 C 38.5275 1.43474 1.31322 0
M  V30 429 O 37.7825 0.581311 1.86867 0
M  V30 430 C 38.0815 3.57258 0.100784 0
M  V30 431 C 37.7475 4.35184 -1.18007 0
M  V30 432 C 36.4095 4.56194 -1.53103 0
M  V30 433 C 38.7615 4.80098 -2.02867 0
M  V30 434 C 36.0895 5.19367 -2.729 0
M  V30 435 C 38.4415 5.44593 -3.21871 0
M  V30 436 C 37.1055 5.63835 -3.57276 0
M  V30 437 H 36.3755 0.740869 -0.0139279 0
M  V30 438 H 39.0225 1.76916 -0.733012 0
M  V30 439 H 37.3275 3.81819 0.878724 0
M  V30 440 H 39.0245 3.97606 0.520639 0
M  V30 441 H 35.6145 4.19113 -0.8968 0
M  V30 442 H 39.7985 4.63642 -1.7706 0
M  V30 443 H 35.0545 5.32459 -3.00496 0
M  V30 444 H 39.2285 5.78358 -3.87911 0
M  V30 445 H 36.8555 6.12557 -4.50197 0
M  V30 446 N 38.4306 0.297415 1.54768 0
M  V30 447 C 39.6766 -0.313376 2.00364 0
M  V30 448 C 40.0096 -1.53815 1.18553 0
M  V30 449 O 39.2846 -1.92739 0.261103 0
M  V30 450 C 39.5676 -0.673525 3.53745 0
M  V30 451 C 39.4206 0.560133 4.46299 0
M  V30 452 C 40.7396 -1.50143 4.13697 0
M  V30 453 H 37.8586 -0.112428 0.728374 0
M  V30 454 H 40.5006 0.4088 1.8555 0
M  V30 455 H 38.6506 -1.28881 3.665 0
M  V30 456 H 40.3226 1.19863 4.45455 0
M  V30 457 H 38.5656 1.19405 4.17043 0
M  V30 458 H 39.2366 0.26405 5.51368 0
M  V30 459 H 41.7126 -0.981588 4.04356 0
M  V30 460 H 40.5886 -1.72221 5.21182 0
M  V30 461 H 40.8496 -2.48952 3.65343 0
M  V30 462 N 39.9087 -1.5758 0.0250728 0
M  V30 463 C 41.1857 -1.82917 -0.692873 0
M  V30 464 C 41.5657 -0.908137 -1.90568 0
M  V30 465 O 40.9137 0.0372298 -2.2847 0
M  V30 466 C 41.1237 -3.32034 -1.07492 0
M  V30 467 C 42.4717 -3.98406 -1.46826 0
M  V30 468 O 43.4957 -3.36505 -1.16801 0
M  V30 469 O 42.3547 -5.07497 -2.02754 0
M  V30 470 H 39.4487 -0.754079 -0.33955 0
M  V30 471 H 41.9947 -1.69619 0.0524456 0
M  V30 472 H 40.7667 -3.90728 -0.211552 0
M  V30 473 H 40.3897 -3.50424 -1.87854 0
M  V30 474 N 41.3868 0.248026 -1.55636 0
M  V30 475 C 42.3498 1.29044 -1.89421 0
M  V30 476 C 43.3498 1.41134 -0.770581 0
M  V30 477 O 44.5398 1.39854 -1.03858 0
M  V30 478 C 41.6718 2.66831 -2.12165 0
M  V30 479 H 42.8648 1.00305 -2.82629 0
M  V30 480 H 40.4178 0.487265 -1.48511 0
M  V30 481 H 41.1528 3.00711 -1.21422 0
M  V30 482 H 40.9378 2.59438 -2.93997 0
M  V30 483 H 42.4278 3.42103 -2.3949 0
M  V30 484 N 42.8649 1.48995 0.513639 0
M  V30 485 C 44.1119 1.57843 1.26854 0
M  V30 486 C 44.4399 0.259501 1.92761 0
M  V30 487 O 43.6949 -0.75159 1.80692 0
M  V30 488 C 43.9939 2.67756 2.36731 0
M  V30 489 C 43.6599 4.09669 1.88368 0
M  V30 490 C 42.3219 4.48291 1.74896 0
M  V30 491 C 44.6739 4.98537 1.52021 0
M  V30 492 C 42.0019 5.73568 1.23438 0
M  V30 493 C 44.3539 6.24319 1.0202 0
M  V30 494 C 43.0179 6.61783 0.871778 0
M  V30 495 H 42.2879 0.577587 0.464192 0
M  V30 496 H 44.9349 1.82778 0.571366 0
M  V30 497 H 43.2399 2.36743 3.12185 0
M  V30 498 H 44.9369 2.71813 2.9482 0
M  V30 499 H 41.5269 3.79176 1.99808 0
M  V30 500 H 45.7109 4.69363 1.61281 0
M  V30 501 H 40.9669 6.01304 1.10648 0
M  V30 502 H 45.1409 6.92566 0.729722 0
M  V30 503 H 42.7679 7.5874 0.470852 0
M  V30 504 N 44.343 -0.763751 1.37857 0
M  V30 505 C 45.273 -1.89103 1.36975 0
M  V30 506 C 46.254 -1.68439 0.237152 0
M  V30 507 O 47.439 -1.8918 0.438713 0
M  V30 508 C 44.569 -3.26496 1.18395 0
M  V30 509 C 43.523 -3.61741 2.28751 0
M  V30 510 C 42.849 -4.97762 1.95286 0
M  V30 511 C 44.149 -3.67665 3.70972 0
M  V30 512 H 45.843 -1.90099 2.31307 0
M  V30 513 H 43.389 -0.91319 1.11341 0
M  V30 514 H 45.342 -4.05003 1.16406 0
M  V30 515 H 44.066 -3.25955 0.205215 0
M  V30 516 H 42.725 -2.85547 2.29909 0
M  V30 517 H 42.373 -4.93769 0.959221 0
M  V30 518 H 42.073 -5.22313 2.69189 0
M  V30 519 H 43.597 -5.7866 1.94898 0
M  V30 520 H 45.011 -4.36307 3.719 0
M  V30 521 H 43.408 -4.03718 4.43995 0
M  V30 522 H 44.478 -2.68134 4.0402 0
M  V30 523 N 45.8211 -1.22559 -0.990812 0
M  V30 524 C 46.7681 -0.997519 -2.0813 0
M  V30 525 C 47.7381 0.0814702 -1.659 0
M  V30 526 O 48.9231 -0.0685424 -1.90677 0
M  V30 527 C 46.0631 -0.583615 -3.40129 0
M  V30 528 C 45.1761 -1.7336 -3.9569 0
M  V30 529 C 44.3111 -1.26748 -5.15857 0
M  V30 530 C 43.3501 -2.38888 -5.63559 0
M  V30 531 N 42.4871 -1.93308 -6.74964 0
M  V30 532 H 47.3271 -1.93099 -2.26973 0
M  V30 533 H 44.8641 -0.962114 -1.11273 0
M  V30 534 H 46.8221 -0.324801 -4.15934 0
M  V30 535 H 45.4521 0.312845 -3.2128 0
M  V30 536 H 44.5041 -2.10669 -3.16738 0
M  V30 537 H 45.8161 -2.57704 -4.27071 0
M  V30 538 H 44.9701 -0.966173 -5.98957 0
M  V30 539 H 43.7091 -0.394272 -4.86104 0
M  V30 540 H 42.7141 -2.69805 -4.79046 0
M  V30 541 H 43.9391 -3.26728 -5.95336 0
M  V30 542 H 41.8851 -1.08352 -6.4699 0
M  V30 543 H 41.8021 -2.71217 -7.05675 0
M  V30 544 H 43.0701 -1.66252 -7.61564 0
M  V30 545 N 47.2992 1.18797 -1.03562 0
M  V30 546 C 48.5292 1.92319 -0.754773 0
M  V30 547 C 48.9372 1.7612 0.691248 0
M  V30 548 O 48.2802 1.08491 1.48241 0
M  V30 549 C 48.3422 3.44284 -1.03484 0
M  V30 550 C 48.0062 3.84258 -2.47376 0
M  V30 551 C 49.0032 3.88459 -3.45537 0
M  V30 552 C 46.6882 4.15701 -2.81954 0
M  V30 553 C 48.6822 4.23545 -4.76328 0
M  V30 554 C 46.3692 4.50458 -4.12954 0
M  V30 555 C 47.3672 4.54356 -5.09951 0
M  V30 556 O 47.0552 4.88305 -6.38603 0
M  V30 557 H 46.7872 0.617527 -0.275021 0
M  V30 558 H 49.3412 1.51683 -1.38497 0
M  V30 559 H 47.5712 3.85135 -0.347513 0
M  V30 560 H 49.2602 3.99049 -0.7426 0
M  V30 561 H 50.0262 3.6431 -3.20162 0
M  V30 562 H 45.9052 4.11847 -2.0713 0
M  V30 563 H 49.4492 4.26502 -5.52035 0
M  V30 564 H 45.3462 4.74067 -4.38099 0
M  V30 565 H 46.1142 5.06227 -6.43177 0
M  V30 566 N 48.7773 0.814389 1.34928 0
M  V30 567 C 49.6873 0.231978 2.3345 0
M  V30 568 C 50.7033 -0.629139 1.62228 0
M  V30 569 O 51.8793 -0.539052 1.94052 0
M  V30 570 C 48.9443 -0.603482 3.41407 0
M  V30 571 C 48.0053 0.279037 4.28392 0
M  V30 572 C 47.2383 -0.516643 5.31193 0
M  V30 573 O 47.4613 -1.75068 5.4287 0
M  V30 574 O 46.3953 0.0965652 6.01823 0
M  V30 575 H 50.2213 1.04721 2.85074 0
M  V30 576 H 47.8063 0.576343 1.37836 0
M  V30 577 H 49.6883 -1.07908 4.0735 0
M  V30 578 H 48.3633 -1.39618 2.92042 0
M  V30 579 H 47.2703 0.801948 3.65403 0
M  V30 580 H 48.6033 1.03588 4.81176 0
M  V30 581 N 50.2554 -1.46986 0.568584 0
M  V30 582 C 51.2024 -2.30153 -0.172707 0
M  V30 583 C 52.1724 -1.39759 -0.897586 0
M  V30 584 O 53.3574 -1.68716 -0.891044 0
M  V30 585 C 50.4974 -3.23952 -1.1895 0
M  V30 586 C 49.6104 -4.29441 -0.469517 0
M  V30 587 C 48.7454 -5.1038 -1.47259 0
M  V30 588 C 47.7844 -6.07632 -0.738225 0
M  V30 589 N 46.9214 -6.8149 -1.68868 0
M  V30 590 H 51.7614 -2.93019 0.542596 0
M  V30 591 H 49.2984 -1.44422 0.279401 0
M  V30 592 H 51.2564 -3.76767 -1.79173 0
M  V30 593 H 49.8864 -2.62926 -1.87269 0
M  V30 594 H 48.9384 -3.79594 0.247467 0
M  V30 595 H 50.2504 -4.98689 0.105241 0
M  V30 596 H 49.4044 -5.67402 -2.14803 0
M  V30 597 H 48.1434 -4.4106 -2.08128 0
M  V30 598 H 47.1484 -5.49778 -0.0489293 0
M  V30 599 H 48.3734 -6.78966 -0.135129 0
M  V30 600 H 46.3194 -6.14891 -2.28573 0
M  V30 601 H 46.2364 -7.46948 -1.16636 0
M  V30 602 H 47.5044 -7.43078 -2.3549 0
M  V30 603 N 51.7335 -0.305618 -1.54608 0
M  V30 604 C 52.6965 0.555591 -2.22364 0
M  V30 605 C 53.6965 1.05768 -1.21119 0
M  V30 606 O 54.8865 0.952972 -1.45822 0
M  V30 607 C 52.0185 1.76974 -2.91364 0
M  V30 608 H 53.2115 -0.0364572 -2.99878 0
M  V30 609 H 50.7645 -0.0565007 -1.56198 0
M  V30 610 H 51.4995 2.40151 -2.17941 0
M  V30 611 H 51.2845 1.41732 -3.65588 0
M  V30 612 H 52.7745 2.38148 -3.43038 0
M  V30 613 N 53.2116 1.57565 -0.0334293 0
M  V30 614 C 54.4886 1.83282 0.683163 0
M  V30 615 C 54.8686 0.91823 1.90084 0
M  V30 616 O 54.2166 -0.025113 2.28486 0
M  V30 617 C 54.4266 3.32599 1.0573 0
M  V30 618 C 55.7746 3.99179 1.44711 0
M  V30 619 O 56.7986 3.3712 1.15015 0
M  V30 620 O 55.6576 5.08565 2.0006 0
M  V30 621 H 52.7516 0.755869 0.335546 0
M  V30 622 H 55.2976 1.69589 -0.0614402 0
M  V30 623 H 54.0696 3.90834 0.190828 0
M  V30 624 H 53.6926 3.51415 1.85993 0
M  V30 625 N 54.6897 -0.239769 1.55765 0
M  V30 626 C 55.6367 -1.29696 1.90913 0
M  V30 627 C 56.6067 -1.47478 0.764164 0
M  V30 628 O 57.7917 -1.61345 1.01845 0
M  V30 629 C 54.9317 -2.64598 2.21544 0
M  V30 630 C 54.0447 -2.54765 3.48882 0
M  V30 631 C 53.1797 -3.82069 3.69049 0
M  V30 632 C 52.2187 -3.66883 4.89963 0
M  V30 633 N 51.3557 -4.86094 5.06614 0
M  V30 634 H 56.1957 -0.990224 2.81067 0
M  V30 635 H 53.7327 -0.477684 1.39128 0
M  V30 636 H 55.6907 -3.43132 2.3731 0
M  V30 637 H 54.3207 -2.93405 1.34585 0
M  V30 638 H 53.3727 -1.67763 3.41409 0
M  V30 639 H 54.6847 -2.39457 4.37563 0
M  V30 640 H 53.8387 -4.69046 3.84812 0
M  V30 641 H 52.5777 -4.00282 2.78614 0
M  V30 642 H 51.5827 -2.78289 4.74168 0
M  V30 643 H 52.8077 -3.50157 5.81865 0
M  V30 644 H 50.7537 -5.04655 4.19117 0
M  V30 645 H 50.6707 -4.73443 5.89396 0
M  V30 646 H 51.9387 -5.74549 5.26795 0
M  V30 647 N 56.1678 -1.49265 -0.50573 0
M  V30 648 C 57.3978 -1.61979 -1.28243 0
M  V30 649 C 57.8058 -0.288576 -1.86986 0
M  V30 650 O 57.1488 0.735408 -1.68337 0
M  V30 651 C 57.2108 -2.62632 -2.45489 0
M  V30 652 C 56.8748 -4.071 -2.07651 0
M  V30 653 C 57.8718 -4.94049 -1.61901 0
M  V30 654 C 55.5568 -4.52801 -2.17431 0
M  V30 655 C 57.5508 -6.24736 -1.26428 0
M  V30 656 C 55.2378 -5.83503 -1.8157 0
M  V30 657 C 56.2358 -6.69294 -1.36142 0
M  V30 658 O 55.9238 -7.9756 -1.00764 0
M  V30 659 H 55.6558 -0.54834 -0.395347 0
M  V30 660 H 58.2098 -1.96002 -0.614204 0
M  V30 661 H 56.4398 -2.2378 -3.15372 0
M  V30 662 H 58.1288 -2.64925 -3.07522 0
M  V30 663 H 58.8948 -4.5997 -1.53795 0
M  V30 664 H 54.7738 -3.86196 -2.51742 0
M  V30 665 H 58.3178 -6.91652 -0.908992 0
M  V30 666 H 54.2148 -6.17112 -1.89324 0
M  V30 667 H 54.9828 -8.10529 -1.13952 0
M  V30 668 N 57.6459 0.756429 -1.3826 0
M  V30 669 C 58.8759 1.54341 -1.3734 0
M  V30 670 C 59.2839 1.89159 0.0393917 0
M  V30 671 O 58.6269 1.5307 1.01565 0
M  V30 672 C 58.6889 2.87238 -2.16182 0
M  V30 673 C 58.3529 2.74973 -3.65019 0
M  V30 674 C 59.3499 2.44962 -4.58574 0
M  V30 675 C 57.0349 2.92515 -4.08338 0
M  V30 676 C 59.0289 2.32642 -5.93428 0
M  V30 677 C 56.7159 2.79815 -5.43274 0
M  V30 678 C 57.7139 2.49921 -6.35632 0
M  V30 679 O 57.4019 2.37275 -7.68086 0
M  V30 680 H 57.1339 0.484281 -0.471643 0
M  V30 681 H 59.6879 0.944152 -1.82414 0
M  V30 682 H 57.9179 3.49342 -1.65822 0
M  V30 683 H 59.6069 3.48731 -2.07705 0
M  V30 684 H 60.3729 2.31081 -4.26412 0
M  V30 685 H 56.2519 3.14781 -3.368 0
M  V30 686 H 59.7959 2.0923 -6.65484 0
M  V30 687 H 55.6929 2.93269 -5.75034 0
M  V30 688 H 56.4609 2.52509 -7.78577 0
M  V30 689 N 59.124 1.23083 0.984299 0
M  V30 690 C 60.354 1.08556 1.75781 0
M  V30 691 C 60.762 -0.366171 1.85623 0
M  V30 692 O 60.105 -1.26524 1.33182 0
M  V30 693 C 60.167 1.63208 3.20318 0
M  V30 694 C 59.831 3.11922 3.33997 0
M  V30 695 C 60.828 4.09259 3.2063 0
M  V30 696 C 58.513 3.51552 3.58771 0
M  V30 697 C 60.507 5.4421 3.31835 0
M  V30 698 C 58.194 4.86649 3.69616 0
M  V30 699 C 59.192 5.82787 3.56157 0
M  V30 700 O 58.88 7.15431 3.66626 0
M  V30 701 H 58.612 0.380713 0.5586 0
M  V30 702 H 61.166 1.63321 1.2456 0
M  V30 703 H 59.396 1.0286 3.72769 0
M  V30 704 H 61.085 1.44216 3.79416 0
M  V30 705 H 61.851 3.79984 3.01392 0
M  V30 706 H 57.73 2.77239 3.6832 0
M  V30 707 H 61.274 6.1923 3.21247 0
M  V30 708 H 57.171 5.15601 3.88363 0
M  V30 709 H 57.939 7.23127 3.83445 0
M  V30 710 N 60.6021 -1.18246 1.0419 0
M  V30 711 C 61.8301 -1.92195 0.766072 0
M  V30 712 C 62.2451 -1.76247 -0.676933 0
M  V30 713 O 61.6021 -1.09293 -1.46155 0
M  V30 714 C 61.6531 -3.43568 1.12442 0
M  V30 715 O 61.3741 -3.59015 2.51078 0
M  V30 716 C 62.8751 -4.34613 0.873275 0
M  V30 717 H 60.0951 -0.610114 0.279288 0
M  V30 718 H 62.6391 -1.50007 1.38989 0
M  V30 719 H 60.7941 -3.8354 0.545542 0
M  V30 720 H 61.2081 -4.5273 2.64831 0
M  V30 721 H 62.6821 -5.39374 1.17385 0
M  V30 722 H 63.1591 -4.38781 -0.191909 0
M  V30 723 H 63.7651 -4.00341 1.43551 0
M  V30 724 N 62.0802 -0.821533 -1.34494 0
M  V30 725 C 63.4962 -0.507117 -1.51329 0
M  V30 726 C 63.6962 0.968964 -1.76673 0
M  V30 727 O 62.7522 1.75348 -1.81685 0
M  V30 728 C 64.0652 -1.36544 -2.67911 0
M  V30 729 C 65.6132 -1.36242 -2.81793 0
M  V30 730 C 66.0882 -2.2052 -4.01416 0
M  V30 731 N 67.5792 -2.18136 -4.08621 0
M  V30 732 C 68.3142 -2.80095 -5.00334 0
M  V30 733 N 67.8102 -3.51039 -5.9728 0
M  V30 734 N 69.6032 -2.69656 -4.93196 0
M  V30 735 H 61.7542 -1.77729 -1.16302 0
M  V30 736 H 64.0172 -0.757291 -0.570276 0
M  V30 737 H 63.7232 -2.41361 -2.55808 0
M  V30 738 H 63.5972 -1.02917 -3.62888 0
M  V30 739 H 65.9842 -0.322041 -2.93338 0
M  V30 740 H 66.0652 -1.73866 -1.87628 0
M  V30 741 H 65.7092 -3.24607 -3.90631 0
M  V30 742 H 65.6392 -1.80247 -4.94791 0
M  V30 743 H 68.1302 -1.6653 -3.39229 0
M  V30 744 H 68.4432 -3.95565 -6.63889 0
M  V30 745 H 66.7882 -3.55145 -5.97409 0
M  V30 746 H 69.9792 -2.13808 -4.16418 0
M  V30 747 H 70.1522 -3.1823 -5.64476 0
M  V30 748 N 63.5583 1.46682 -0.576371 0
M  V30 749 C 64.5053 2.30241 0.160499 0
M  V30 750 C 65.4753 1.40233 0.890162 0
M  V30 751 O 66.6603 1.69186 0.882084 0
M  V30 752 C 63.8003 3.24578 1.1723 0
M  V30 753 C 62.9133 4.29684 0.446736 0
M  V30 754 C 62.0483 5.11154 1.44551 0
M  V30 755 C 61.0873 6.08015 0.70599 0
M  V30 756 N 60.2243 6.82376 1.65251 0
M  V30 757 H 65.0643 2.92727 -0.558127 0
M  V30 758 H 62.6013 1.44272 -0.287056 0
M  V30 759 H 64.5593 3.77711 1.77172 0
M  V30 760 H 63.1893 2.63916 1.85872 0
M  V30 761 H 62.2413 3.79458 -0.267594 0
M  V30 762 H 63.5533 4.98626 -0.131686 0
M  V30 763 H 62.7073 5.68533 2.11791 0
M  V30 764 H 61.4463 4.42158 2.05786 0
M  V30 765 H 60.4513 5.49796 0.0197725 0
M  V30 766 H 61.6763 6.79028 0.09912 0
M  V30 767 H 59.6223 6.16094 2.25308 0
M  V30 768 H 59.5393 7.47556 1.12673 0
M  V30 769 H 60.8073 7.44316 2.31546 0
M  V30 770 N 65.0364 0.313813 1.54444 0
M  V30 771 C 66.2854 -0.292519 1.99568 0
M  V30 772 C 66.5984 -1.54011 1.20582 0
M  V30 773 O 67.8044 -2.22183 1.56035 0
M  V30 774 C 66.2604 -0.571752 3.55329 0
M  V30 775 C 65.8684 0.658229 4.43138 0
M  V30 776 C 67.6124 -1.13857 4.08946 0
M  V30 777 C 65.5194 0.351439 5.90355 0
M  V30 778 H 64.4494 -0.113079 0.745472 0
M  V30 779 H 67.1004 0.424518 1.78522 0
M  V30 780 H 65.4824 -1.34872 3.72325 0
M  V30 781 H 66.6564 1.43403 4.37918 0
M  V30 782 H 64.9714 1.14458 4.0036 0
M  V30 783 H 67.5684 -1.38257 5.16516 0
M  V30 784 H 67.9114 -2.08489 3.6033 0
M  V30 785 H 68.4444 -0.423015 3.95544 0
M  V30 786 H 65.1834 1.26667 6.43145 0
M  V30 787 H 64.7034 -0.386842 5.98551 0
M  V30 788 H 66.3824 -0.0423134 6.46986 0
M  V30 789 N 66.5145 -1.57545 0.0417849 0
M  V30 790 C 67.4445 -2.14009 -0.933929 0
M  V30 791 C 68.4255 -1.05938 -1.33083 0
M  V30 792 O 69.6105 -1.33833 -1.40721 0
M  V30 793 C 66.7405 -2.67747 -2.21199 0
M  V30 794 C 65.6945 -3.80718 -1.95544 0
M  V30 795 C 65.0205 -4.20935 -3.29724 0
M  V30 796 C 66.3205 -5.06258 -1.28452 0
M  V30 797 H 68.0145 -2.95788 -0.463645 0
M  V30 798 H 65.5605 -1.42285 -0.221573 0
M  V30 799 H 67.5135 -3.05886 -2.89848 0
M  V30 800 H 66.2375 -1.83147 -2.70416 0
M  V30 801 H 64.8965 -3.43037 -1.2931 0
M  V30 802 H 64.5445 -3.33298 -3.76724 0
M  V30 803 H 64.2445 -4.9707 -3.13361 0
M  V30 804 H 65.7685 -4.61666 -3.9962 0
M  V30 805 H 67.1825 -5.41903 -1.8712 0
M  V30 806 H 65.5795 -5.87475 -1.22445 0
M  V30 807 H 66.6495 -4.84207 -0.259219 0
M  V30 808 N 67.9926 0.231505 -1.5589 0
M  V30 809 C 69.2406 0.955461 -1.78088 0
M  V30 810 C 69.5616 1.85262 -0.608533 0
M  V30 811 O 68.8316 1.92277 0.375035 0
M  V30 812 H 67.4116 0.355787 -0.656829 0
M  V30 813 H 70.0736 0.245751 -1.93344 0
M  V30 814 H 69.1696 1.56814 -2.69844 0
M  V30 815 N 69.4707 1.49531 0.497807 0
M  V30 816 C 70.6957 1.63159 1.28039 0
M  V30 817 C 71.1207 0.30418 1.85624 0
M  V30 818 O 70.4787 -0.728618 1.66015 0
M  V30 819 C 70.5267 2.70537 2.38416 0
M  V30 820 O 69.6307 2.29931 3.42353 0
M  V30 821 H 68.9717 0.546001 0.377861 0
M  V30 822 H 71.5017 1.9574 0.59558 0
M  V30 823 H 71.5117 2.92802 2.84132 0
M  V30 824 H 70.1867 3.6689 1.95869 0
M  V30 825 H 68.7637 2.18009 3.02533 0
M  V30 826 N 70.9488 -0.749086 1.3866 0
M  V30 827 C 72.1768 -1.53834 1.38358 0
M  V30 828 C 72.5918 -1.88783 -0.0255219 0
M  V30 829 O 71.9488 -1.53101 -0.993292 0
M  V30 830 C 71.9998 -2.83468 2.2434 0
M  V30 831 O 71.7208 -2.50008 3.5976 0
M  V30 832 C 73.2218 -3.7758 2.32267 0
M  V30 833 H 70.4418 -0.47585 0.473083 0
M  V30 834 H 72.9858 -0.926726 1.82297 0
M  V30 835 H 71.1408 -3.40995 1.83851 0
M  V30 836 H 71.5548 -3.33182 4.05081 0
M  V30 837 H 73.0288 -4.65478 2.96706 0
M  V30 838 H 73.5058 -4.18334 1.33765 0
M  V30 839 H 74.1118 -3.25976 2.73166 0
M  V30 840 N 72.4269 -1.23603 -0.977757 0
M  V30 841 C 73.3569 -1.04401 -2.0886 0
M  V30 842 C 74.3379 0.0399052 -1.70053 0
M  V30 843 O 75.5229 -0.125246 -1.93796 0
M  V30 844 C 72.6529 -0.637269 -3.41403 0
M  V30 845 C 71.6069 -1.66883 -3.94124 0
M  V30 846 C 70.9329 -1.11745 -5.22893 0
M  V30 847 C 72.2329 -3.06247 -4.23096 0
M  V30 848 H 73.9269 -1.97316 -2.25182 0
M  V30 849 H 71.4729 -0.950096 -1.08209 0
M  V30 850 H 73.4259 -0.48998 -4.18542 0
M  V30 851 H 72.1499 0.327557 -3.24953 0
M  V30 852 H 70.8089 -1.80416 -3.19133 0
M  V30 853 H 70.4569 -0.143527 -5.02795 0
M  V30 854 H 70.1569 -1.80672 -5.59134 0
M  V30 855 H 71.6809 -0.982067 -6.02651 0
M  V30 856 H 73.0949 -2.96001 -4.90975 0
M  V30 857 H 71.4919 -3.72436 -4.70544 0
M  V30 858 H 72.5619 -3.55041 -3.30263 0
M  V30 859 N 73.905 1.17692 -1.04816 0
M  V30 860 C 74.868 2.19787 -0.650117 0
M  V30 861 C 75.868 1.58044 0.296427 0
M  V30 862 O 77.058 1.74012 0.0808097 0
M  V30 863 C 74.19 3.40869 0.0456987 0
M  V30 864 H 75.383 2.56516 -1.5537 0
M  V30 865 H 72.936 1.31708 -0.841594 0
M  V30 866 H 73.671 3.09681 0.962726 0
M  V30 867 H 73.456 3.86928 -0.634727 0
M  V30 868 H 74.946 4.16445 0.310432 0
M  V30 869 N 75.3831 0.828654 1.34056 0
M  V30 870 C 76.6231 0.425394 1.99924 0
M  V30 871 C 76.9871 -0.994294 1.64249 0
M  V30 872 O 78.1881 -1.50074 2.23005 0
M  V30 873 C 76.4591 0.628071 3.51838 0
M  V30 874 S 78.0181 0.318511 4.37642 0
M  V30 875 H 74.8361 0.160465 0.692656 0
M  V30 876 H 77.4381 1.07572 1.63244 0
M  V30 877 H 76.1421 1.66089 3.7529 0
M  V30 878 H 75.6731 -0.0367799 3.93383 0
M  V30 879 H 77.6881 -0.865632 4.88591 0
M  V30 880 N 76.8612 -1.46375 0.584142 0
M  V30 881 C 77.8242 -2.28784 -0.138108 0
M  V30 882 C 78.8242 -1.38471 -0.817462 0
M  V30 883 O 80.0142 -1.60833 -0.669199 0
M  V30 884 C 77.1462 -3.18892 -1.20503 0
M  V30 885 H 78.3392 -2.94117 0.586127 0
M  V30 886 H 75.8922 -1.52509 0.342171 0
M  V30 887 H 76.6272 -2.58309 -1.96079 0
M  V30 888 H 76.4122 -3.85388 -0.722384 0
M  V30 889 H 77.9022 -3.80914 -1.71155 0
M  V30 890 N 78.3393 -0.321999 -1.54275 0
M  V30 891 C 79.7553 0.0306999 -1.5957 0
M  V30 892 C 79.9553 1.50614 -1.33857 0
M  V30 893 O 79.0113 2.2619 -1.12223 0
M  V30 894 C 80.3243 -0.386122 -2.98211 0
M  V30 895 C 81.8723 -0.336647 -3.11184 0
M  V30 896 C 82.3473 -0.728607 -4.52167 0
M  V30 897 N 83.8383 -0.681952 -4.58152 0
M  V30 898 C 84.5733 -0.957449 -5.6535 0
M  V30 899 N 84.0693 -1.3 -6.80494 0
M  V30 900 N 85.8623 -0.883113 -5.55119 0
M  V30 901 H 78.0133 -1.28332 -1.69247 0
M  V30 902 H 80.2763 -0.521716 -0.791528 0
M  V30 903 H 79.9823 -1.41404 -3.22022 0
M  V30 904 H 79.8563 0.249662 -3.76373 0
M  V30 905 H 82.2433 0.682058 -2.8711 0
M  V30 906 H 82.3243 -1.00734 -2.3513 0
M  V30 907 H 81.9683 -1.74522 -4.76974 0
M  V30 908 H 81.8983 -0.0356152 -5.26588 0
M  V30 909 H 84.3893 -0.428985 -3.75457 0
M  V30 910 H 84.7023 -1.49563 -7.58189 0
M  V30 911 H 83.0473 -1.33824 -6.81994 0
M  V30 912 H 86.2383 -0.615001 -4.64042 0
M  V30 913 H 86.4113 -1.10118 -6.38575 0
M  V30 914 N 79.8174 1.5752 -0.0501392 0
M  V30 915 C 80.7804 2.1037 0.909786 0
M  V30 916 C 81.7804 1.02308 1.24056 0
M  V30 917 O 82.9704 1.28385 1.17741 0
M  V30 918 C 80.1024 2.58708 2.21998 0
M  V30 919 H 81.2954 2.96479 0.451665 0
M  V30 920 H 78.8484 1.55038 0.198248 0
M  V30 921 H 79.5834 1.75989 2.72394 0
M  V30 922 H 79.3684 3.37675 1.99295 0
M  V30 923 H 80.8584 2.99747 2.9076 0
M  V30 924 N 81.2955 -0.223234 1.56011 0
M  V30 925 C 82.5205 -0.968978 1.83373 0
M  V30 926 C 82.9455 -1.77227 0.630254 0
M  V30 927 O 82.3035 -1.76345 -0.420959 0
M  V30 928 C 82.3515 -1.86363 3.08709 0
M  V30 929 O 81.4555 -2.95873 2.87285 0
M  V30 930 H 80.7965 -0.274461 0.604622 0
M  V30 931 H 83.3265 -0.237056 2.03222 0
M  V30 932 H 83.3365 -2.27376 3.38768 0
M  V30 933 H 82.0115 -1.27319 3.95933 0
M  V30 934 H 80.5885 -2.58818 2.68454 0
M  V30 935 N 82.7736 -1.49793 -0.48987 0
M  V30 936 C 83.7366 -1.66752 -1.57246 0
M  V30 937 C 84.7366 -0.538867 -1.51502 0
M  V30 938 O 85.9266 -0.805545 -1.54456 0
M  V30 939 C 83.0586 -1.67528 -2.96896 0
M  V30 940 H 84.2516 -2.63321 -1.43534 0
M  V30 941 H 81.8046 -1.38992 -0.714914 0
M  V30 942 H 82.5396 -0.725837 -3.16073 0
M  V30 943 H 82.3246 -2.49504 -3.02473 0
M  V30 944 H 83.8146 -1.82667 -3.7553 0
M  V30 945 N 84.2517 0.741722 -1.39055 0
M  V30 946 C 85.1817 1.869 -1.39966 0
M  V30 947 C 86.1627 1.6804 -0.26392 0
M  V30 948 O 87.3477 1.88458 -0.468755 0
M  V30 949 C 84.4777 3.24572 -1.23574 0
M  V30 950 C 83.4317 3.58056 -2.34477 0
M  V30 951 C 82.7577 4.94593 -2.0318 0
M  V30 952 C 84.0577 3.61716 -3.76774 0
M  V30 953 H 85.7517 1.86395 -2.34302 0
M  V30 954 H 83.2977 0.895361 -1.1278 0
M  V30 955 H 85.2507 4.031 -1.22834 0
M  V30 956 H 83.9747 3.25587 -0.257045 0
M  V30 957 H 82.6337 2.81854 -2.34423 0
M  V30 958 H 82.2817 4.92181 -1.03765 0
M  V30 959 H 81.9817 5.17964 -2.77465 0
M  V30 960 H 83.5057 5.75486 -2.04079 0
M  V30 961 H 84.9197 4.30335 -3.78794 0
M  V30 962 H 83.3167 3.96603 -4.50362 0
M  V30 963 H 84.3867 2.61672 -4.08235 0
M  V30 964 N 85.7298 1.2412 0.971189 0
M  V30 965 C 86.9698 1.09066 1.7287 0
M  V30 966 C 87.3338 -0.364794 1.88503 0
M  V30 967 O 88.5348 -0.636748 2.61149 0
M  V30 968 C 86.8058 1.80629 3.08396 0
M  V30 969 S 88.3648 1.81263 3.99611 0
M  V30 970 H 85.1828 0.390145 0.594397 0
M  V30 971 H 87.7848 1.57397 1.15959 0
M  V30 972 H 86.4888 2.85647 2.94676 0
M  V30 973 H 86.0198 1.32617 3.70373 0
M  V30 974 H 88.0348 0.877804 4.88374 0
M  V30 975 N 87.2079 -1.17134 1.05439 0
M  V30 976 C 88.1379 -2.2342 0.678649 0
M  V30 977 C 89.1189 -1.66971 -0.32476 0
M  V30 978 O 90.3039 -1.93149 -0.201802 0
M  V30 979 C 87.4339 -3.47256 0.0552099 0
M  V30 980 C 86.3879 -4.16543 0.98365 0
M  V30 981 C 85.7139 -5.34231 0.223961 0
M  V30 982 C 87.0139 -4.68495 2.3089 0
M  V30 983 H 88.7079 -2.55105 1.56722 0
M  V30 984 H 86.2539 -1.2262 0.754998 0
M  V30 985 H 88.2069 -4.20828 -0.21946 0
M  V30 986 H 86.9309 -3.14846 -0.868319 0
M  V30 987 H 85.5899 -3.44887 1.24293 0
M  V30 988 H 85.2379 -4.98071 -0.702412 0
M  V30 989 H 84.9379 -5.81527 0.842627 0
M  V30 990 H 86.4619 -6.10585 -0.0433671 0
M  V30 991 H 87.8759 -5.33691 2.09396 0
M  V30 992 H 86.2729 -5.26379 2.88176 0
M  V30 993 H 87.3429 -3.85169 2.94572 0
M  V30 994 N 88.686 -0.835752 -1.33615 0
M  V30 995 C 89.634 -0.255238 -2.31195 0
M  V30 996 C 90.628 0.61107 -1.57995 0
M  V30 997 O 91.834 0.500979 -1.72888 0
M  V30 998 H 88.209 -0.0638085 -0.749288 0
M  V30 999 H 90.18 -1.09283 -2.77669 0
M  V30 1000 C 88.929 0.55754 -3.43201 0
M  V30 1001 H 88.252 -0.0997553 -3.99676 0
M  V30 1002 H 89.692 0.929622 -4.13683 0
M  V30 1003 C 88.151 1.73515 -2.88781 0
M  V30 1004 O 88.681 2.83376 -2.84712 0
M  V30 1005 N 86.887 1.55603 -2.4543 0
M  V30 1006 H 86.434 0.662354 -2.48939 0
M  V30 1007 H 86.392 2.34545 -2.09371 0
M  V30 1008 N 90.1641 1.46063 -0.591896 0
M  V30 1009 C 91.4111 2.02338 -0.0809991 0
M  V30 1010 C 91.7391 1.46228 1.28249 0
M  V30 1011 O 90.9941 0.620818 1.85592 0
M  V30 1012 C 91.2931 3.57391 0.0249813 0
M  V30 1013 C 90.9591 4.32583 -1.27211 0
M  V30 1014 C 89.6211 4.52844 -1.62745 0
M  V30 1015 C 91.9731 4.75687 -2.13005 0
M  V30 1016 C 89.3011 5.13462 -2.83855 0
M  V30 1017 C 91.6531 5.37644 -3.3335 0
M  V30 1018 C 90.3171 5.5613 -3.69155 0
M  V30 1019 H 89.5871 0.740407 -0.0296397 0
M  V30 1020 H 92.2341 1.75321 -0.770374 0
M  V30 1021 H 90.5391 3.83597 0.797537 0
M  V30 1022 H 92.2361 3.98621 0.436184 0
M  V30 1023 H 88.8261 4.17116 -0.985499 0
M  V30 1024 H 93.0101 4.59782 -1.86855 0
M  V30 1025 H 88.2661 5.25965 -3.11722 0
M  V30 1026 H 92.4401 5.7 -4.00092 0
M  V30 1027 H 90.0671 6.0287 -4.63089 0
M  V30 1028 N 91.6422 0.330177 1.54103 0
M  V30 1029 C 92.5902 -0.548226 2.26047 0
M  V30 1030 C 93.5842 -1.11309 1.27698 0
M  V30 1031 O 94.7902 -1.06036 1.45452 0
M  V30 1032 H 91.1652 -0.195456 0.726155 0
M  V30 1033 H 93.1362 0.0807567 2.98291 0
M  V30 1034 C 91.8852 -1.69415 3.03634 0
M  V30 1035 H 91.2082 -1.26876 3.79134 0
M  V30 1036 H 92.6482 -2.28423 3.5721 0
M  V30 1037 C 91.1072 -2.61569 2.12328 0
M  V30 1038 O 91.6372 -3.63462 1.7105 0
M  V30 1039 N 89.8432 -2.29952 1.77681 0
M  V30 1040 H 89.3902 -1.47134 2.11446 0
M  V30 1041 H 89.3482 -2.91871 1.16869 0
M  V30 1042 N 93.1203 -1.57491 0.0584922 0
M  V30 1043 C 94.3453 -1.97711 -0.62652 0
M  V30 1044 C 94.7703 -0.936132 -1.63151 0
M  V30 1045 O 94.1283 0.099811 -1.81025 0
M  V30 1046 C 94.1763 -3.36989 -1.28338 0
M  V30 1047 O 93.2803 -3.35433 -2.39913 0
M  V30 1048 H 92.6213 -0.643868 -0.162266 0
M  V30 1049 H 95.1513 -2.04193 0.129064 0
M  V30 1050 H 95.1613 -3.73879 -1.63335 0
M  V30 1051 H 93.8363 -4.12289 -0.546889 0
M  V30 1052 H 92.4133 -3.10298 -2.06809 0
M  V30 1053 N 94.5984 0.214957 -1.56127 0
M  V30 1054 C 95.8264 0.955092 -1.83536 0
M  V30 1055 C 96.2414 1.77677 -0.638472 0
M  V30 1056 O 95.5984 1.78219 0.392968 0
M  V30 1057 C 95.6494 1.86734 -3.09536 0
M  V30 1058 O 95.3704 1.07887 -4.24608 0
M  V30 1059 C 96.8714 2.72082 -3.4998 0
M  V30 1060 H 94.0914 0.279611 -0.609966 0
M  V30 1061 H 96.6354 0.228197 -2.03223 0
M  V30 1062 H 94.7904 2.5481 -2.91806 0
M  V30 1063 H 95.2044 1.69872 -4.9623 0
M  V30 1064 H 96.6784 3.31782 -4.41163 0
M  V30 1065 H 97.1554 3.44806 -2.7204 0
M  V30 1066 H 97.7614 2.09409 -3.70173 0
M  V30 1067 N 96.0765 1.50051 0.48192 0
M  V30 1068 C 97.0065 1.71046 1.58951 0
M  V30 1069 C 97.9875 0.559288 1.60642 0
M  V30 1070 O 99.1725 0.797243 1.77081 0
M  V30 1071 C 96.3025 1.79462 2.97339 0
M  V30 1072 C 95.2565 2.94558 3.10515 0
M  V30 1073 C 94.5825 2.88105 4.50444 0
M  V30 1074 C 95.8825 4.35227 2.88747 0
M  V30 1075 H 97.5765 2.6378 1.41635 0
M  V30 1076 H 95.1225 1.26936 0.679942 0
M  V30 1077 H 97.0755 1.92734 3.74742 0
M  V30 1078 H 95.7995 0.833412 3.15788 0
M  V30 1079 H 94.4585 2.80918 2.35543 0
M  V30 1080 H 94.1065 1.89853 4.65795 0
M  V30 1081 H 93.8065 3.65366 4.60197 0
M  V30 1082 H 95.3305 3.03412 5.29881 0
M  V30 1083 H 96.7445 4.49449 3.55905 0
M  V30 1084 H 95.1415 5.13856 3.09955 0
M  V30 1085 H 96.2115 4.48347 1.84696 0
M  V30 1086 N 97.5546 -0.734337 1.39446 0
M  V30 1087 C 98.8036 -1.48937 1.36017 0
M  V30 1088 C 99.1166 -1.95557 -0.0409005 0
M  V30 1089 O 100.323 -2.70779 -0.19778 0
M  V30 1090 C 98.7786 -2.69125 2.38955 0
M  V30 1091 C 98.3866 -2.29452 3.8478 0
M  V30 1092 C 100.131 -3.46944 2.44603 0
M  V30 1093 C 98.0376 -3.46366 4.79358 0
M  V30 1094 H 96.9676 -0.559296 0.505672 0
M  V30 1095 H 99.6186 -0.800983 1.65095 0
M  V30 1096 H 98.0006 -3.40041 2.02948 0
M  V30 1097 H 99.1746 -1.66077 4.29831 0
M  V30 1098 H 97.4896 -1.64723 3.82433 0
M  V30 1099 H 100.087 -4.33907 3.12456 0
M  V30 1100 H 100.43 -3.89454 1.47076 0
M  V30 1101 H 100.963 -2.83056 2.79507 0
M  V30 1102 H 97.7016 -3.08905 5.78151 0
M  V30 1103 H 97.2216 -4.08719 4.38986 0
M  V30 1104 H 98.9006 -4.12691 4.98292 0
M  V30 1105 N 99.0327 -1.24633 -0.964593 0
M  V30 1106 C 99.9627 -1.06611 -2.07741 0
M  V30 1107 C 100.944 0.0218666 -1.70086 0
M  V30 1108 O 102.129 -0.145793 -1.93652 0
M  V30 1109 C 99.2587 -0.673444 -3.40708 0
M  V30 1110 C 98.2127 -1.71054 -3.92332 0
M  V30 1111 C 97.5387 -1.17285 -5.21678 0
M  V30 1112 C 98.8387 -3.10718 -4.19824 0
M  V30 1113 H 100.533 -1.99693 -2.23076 0
M  V30 1114 H 98.0787 -0.96152 -1.07195 0
M  V30 1115 H 100.032 -0.534345 -4.17998 0
M  V30 1116 H 98.7557 0.293073 -3.25282 0
M  V30 1117 H 97.4147 -1.83791 -3.17201 0
M  V30 1118 H 97.0627 -0.196847 -5.02615 0
M  V30 1119 H 96.7627 -1.86592 -5.57187 0
M  V30 1120 H 98.2867 -1.04593 -6.01575 0
M  V30 1121 H 99.7007 -3.01192 -4.87808 0
M  V30 1122 H 98.0977 -3.77406 -4.66567 0
M  V30 1123 H 99.1677 -3.58524 -3.26479 0
M  V30 1124 N 100.511 1.16574 -1.06058 0
M  V30 1125 C 101.441 2.23057 -0.690488 0
M  V30 1126 C 102.422 1.67141 0.315901 0
M  V30 1127 O 103.607 1.93253 0.191556 0
M  V30 1128 C 100.737 3.47222 -0.073625 0
M  V30 1129 C 99.6908 4.16016 -1.00573 0
M  V30 1130 C 99.0168 5.34104 -0.252289 0
M  V30 1131 C 100.317 4.67264 -2.33371 0
M  V30 1132 H 102.011 2.54271 -1.58072 0
M  V30 1133 H 99.5568 1.22218 -0.76149 0
M  V30 1134 H 101.51 4.20939 0.19714 0
M  V30 1135 H 100.234 3.15302 0.85161 0
M  V30 1136 H 98.8928 3.44223 -1.2612 0
M  V30 1137 H 98.5408 4.98437 0.675988 0
M  V30 1138 H 98.2408 5.81072 -0.873455 0
M  V30 1139 H 99.7648 6.10599 0.0109857 0
M  V30 1140 H 101.179 5.32573 -2.12223 0
M  V30 1141 H 99.5758 5.24843 -2.90963 0
M  V30 1142 H 100.646 3.83602 -2.96611 0
M  V30 1143 N 101.989 0.842826 1.3317 0
M  V30 1144 C 103.4 0.496651 1.79973 0
M  V30 1145 C 103.751 -0.984641 1.69703 0
M  V30 1146 O 102.876 -1.76743 1.24863 0
M  V30 1147 C 103.471 0.894727 3.26772 0
M  V30 1148 C 102.03 0.600629 3.71577 0
M  V30 1149 C 101.177 1.10091 2.5451 0
M  V30 1150 H 104.128 1.03116 1.20635 0
M  V30 1151 H 104.149 0.206347 3.7994 0
M  V30 1152 H 103.661 1.97287 3.34215 0
M  V30 1153 H 101.762 -0.467284 3.69658 0
M  V30 1154 H 101.875 1.15863 4.64879 0
M  V30 1155 H 100.239 0.52162 2.49301 0
M  V30 1156 H 101.022 2.18591 2.64713 0
M  V30 1157 N 103.467 -1.45747 0.599634 0
M  V30 1158 C 104.713 -2.02592 0.0918643 0
M  V30 1159 C 105.046 -1.46806 -1.27128 0
M  V30 1160 O 104.321 -0.639658 -1.83681 0
M  V30 1161 C 104.604 -3.60073 0.0443398 0
M  V30 1162 C 104.457 -4.26208 1.43759 0
M  V30 1163 C 105.776 -4.35309 -0.647608 0
M  V30 1164 H 102.895 -0.736175 0.034857 0
M  V30 1165 H 105.537 -1.73694 0.770081 0
M  V30 1166 H 103.687 -3.84823 -0.533224 0
M  V30 1167 H 105.359 -4.12668 2.06162 0
M  V30 1168 H 103.602 -3.84916 2.00056 0
M  V30 1169 H 104.273 -5.35069 1.35665 0
M  V30 1170 H 106.749 -4.15805 -0.156776 0
M  V30 1171 H 105.625 -5.45038 -0.649942 0
M  V30 1172 H 105.886 -4.07598 -1.71219 0
M  V30 1173 N 104.945 -0.338344 -1.53925 0
M  V30 1174 C 106.185 0.260168 -2.02737 0
M  V30 1175 C 106.549 1.48181 -1.22092 0
M  V30 1176 O 107.75 2.15416 -1.60777 0
M  V30 1177 C 106.021 0.571627 -3.52799 0
M  V30 1178 S 107.58 1.14769 -4.23525 0
M  V30 1179 H 104.398 0.077791 -0.706732 0
M  V30 1180 H 107 -0.474899 -1.89644 0
M  V30 1181 H 105.704 -0.325392 -4.09108 0
M  V30 1182 H 105.235 1.3365 -3.70002 0
M  V30 1183 H 107.25 2.43372 -4.32417 0
M  V30 1184 N 106.423 1.57458 -0.0668435 0
M  V30 1185 C 107.839 1.56947 0.289772 0
M  V30 1186 C 108.039 1.07584 1.70376 0
M  V30 1187 O 107.095 0.739486 2.41429 0
M  V30 1188 C 108.408 3.0052 0.103943 0
M  V30 1189 C 109.956 3.12517 0.173857 0
M  V30 1190 C 110.431 4.57997 0.0163682 0
M  V30 1191 N 111.922 4.63144 0.0721352 0
M  V30 1192 C 112.657 5.73394 -0.0253794 0
M  V30 1193 N 112.153 6.92576 -0.176133 0
M  V30 1194 N 113.946 5.62091 0.0313305 0
M  V30 1195 H 106.097 1.87863 -0.991027 0
M  V30 1196 H 108.36 0.86583 -0.38606 0
M  V30 1197 H 108.066 3.40729 -0.871572 0
M  V30 1198 H 107.94 3.67304 0.858366 0
M  V30 1199 H 110.327 2.72197 1.13985 0
M  V30 1200 H 110.408 2.48381 -0.611586 0
M  V30 1201 H 110.052 4.99005 -0.946374 0
M  V30 1202 H 109.982 5.20158 0.821153 0
M  V30 1203 H 112.473 3.77436 0.187263 0
M  V30 1204 H 112.786 7.72418 -0.242821 0
M  V30 1205 H 111.131 6.94678 -0.211429 0
M  V30 1206 H 114.322 4.67867 0.147773 0
M  V30 1207 H 114.495 6.47982 -0.048121 0
M  V30 1208 N 107.901 -0.206675 1.56239 0
M  V30 1209 C 108.849 -1.27571 1.94495 0
M  V30 1210 C 109.843 -1.47737 0.828862 0
M  V30 1211 O 111.049 -1.48735 1.0138 0
M  V30 1212 H 107.424 -0.428029 0.6183 0
M  V30 1213 H 109.395 -0.925961 2.8367 0
M  V30 1214 C 108.144 -2.61568 2.29079 0
M  V30 1215 H 107.467 -2.46863 3.14482 0
M  V30 1216 H 108.907 -3.35144 2.5972 0
M  V30 1217 C 107.366 -3.17695 1.12123 0
M  V30 1218 O 107.896 -3.99801 0.390153 0
M  V30 1219 N 106.102 -2.76276 0.901097 0
M  V30 1220 H 105.649 -2.09613 1.49733 0
M  V30 1221 H 105.607 -3.1417 0.120319 0
M  V30 1222 N 109.379 -1.50304 -0.473955 0
M  V30 1223 C 110.309 -1.71886 -1.58042 0
M  V30 1224 C 111.29 -0.567799 -1.60344 0
M  V30 1225 O 112.475 -0.806623 -1.76656 0
M  V30 1226 C 109.605 -1.81036 -2.96384 0
M  V30 1227 C 108.559 -2.962 -3.08949 0
M  V30 1228 C 107.885 -2.9049 -4.48909 0
M  V30 1229 C 109.185 -4.36752 -2.86434 0
M  V30 1230 H 110.879 -2.64527 -1.40234 0
M  V30 1231 H 108.425 -1.27295 -0.673201 0
M  V30 1232 H 110.378 -1.94719 -3.73714 0
M  V30 1233 H 109.102 -0.850147 -3.15341 0
M  V30 1234 H 107.761 -2.82164 -2.3405 0
M  V30 1235 H 107.409 -1.92321 -4.64781 0
M  V30 1236 H 107.109 -3.67802 -4.58253 0
M  V30 1237 H 108.633 -3.06218 -5.28264 0
M  V30 1238 H 110.047 -4.5133 -3.53517 0
M  V30 1239 H 108.444 -5.15493 -3.07225 0
M  V30 1240 H 109.514 -4.49321 -1.82316 0
M  V30 1241 N 110.857 0.726932 -1.39834 0
M  V30 1242 C 111.787 1.85405 -1.41941 0
M  V30 1243 C 112.768 1.67751 -0.281728 0
M  V30 1244 O 113.953 1.8795 -0.488717 0
M  V30 1245 C 111.083 3.23243 -1.2701 0
M  V30 1246 C 110.037 3.55549 -2.38262 0
M  V30 1247 C 109.363 4.9241 -2.08415 0
M  V30 1248 C 110.663 3.577 -3.80589 0
M  V30 1249 H 112.357 1.83899 -2.36266 0
M  V30 1250 H 109.903 0.883349 -1.13723 0
M  V30 1251 H 111.856 4.01775 -1.27103 0
M  V30 1252 H 110.58 3.25296 -0.291564 0
M  V30 1253 H 109.239 2.79351 -2.37399 0
M  V30 1254 H 108.887 4.91052 -1.0898 0
M  V30 1255 H 108.587 5.14992 -2.82943 0
M  V30 1256 H 110.111 5.73289 -2.10171 0
M  V30 1257 H 111.525 4.26293 -3.83337 0
M  V30 1258 H 109.922 3.91804 -4.54543 0
M  V30 1259 H 110.992 2.57328 -4.10987 0
M  V30 1260 N 112.336 1.25143 0.95797 0
M  V30 1261 C 113.561 1.12521 1.74223 0
M  V30 1262 C 113.986 -0.317402 1.85403 0
M  V30 1263 O 113.344 -1.2299 1.33204 0
M  V30 1264 C 113.392 1.78062 3.1357 0
M  V30 1265 O 112.496 1.058 3.98598 0
M  V30 1266 H 111.837 0.39304 0.535178 0
M  V30 1267 H 114.367 1.65641 1.201 0
M  V30 1268 H 114.377 1.84213 3.64046 0
M  V30 1269 H 113.052 2.83021 3.04749 0
M  V30 1270 H 111.629 1.07506 3.57067 0
M  V30 1271 N 113.814 -1.1601 1.06675 0
M  V30 1272 C 115.061 -1.86633 0.785781 0
M  V30 1273 C 115.389 -1.81929 -0.687896 0
M  V30 1274 O 114.644 -1.23253 -1.52011 0
M  V30 1275 C 114.943 -3.35547 1.23057 0
M  V30 1276 C 114.609 -3.60448 2.70902 0
M  V30 1277 C 113.271 -3.66954 3.11285 0
M  V30 1278 C 115.623 -3.7071 3.66365 0
M  V30 1279 C 112.951 -3.81225 4.45965 0
M  V30 1280 C 115.303 -3.86503 5.00797 0
M  V30 1281 C 113.967 -3.91252 5.40813 0
M  V30 1282 H 113.237 -0.682937 0.287538 0
M  V30 1283 H 115.884 -1.37146 1.33654 0
M  V30 1284 H 114.189 -3.87193 0.59907 0
M  V30 1285 H 115.886 -3.88583 0.990163 0
M  V30 1286 H 112.476 -3.56021 2.38636 0
M  V30 1287 H 116.66 -3.64991 3.36296 0
M  V30 1288 H 111.916 -3.83155 4.76447 0
M  V30 1289 H 116.09 -3.93385 5.74649 0
M  V30 1290 H 113.717 -4.02062 6.45174 0
M  V30 1291 N 115.292 -0.849877 -1.32721 0
M  V30 1292 C 116.222 -0.306308 -2.31482 0
M  V30 1293 C 117.203 0.591952 -1.59468 0
M  V30 1294 O 118.388 0.513199 -1.87296 0
M  V30 1295 C 115.518 0.510204 -3.43532 0
M  V30 1296 C 114.472 -0.293209 -4.26994 0
M  V30 1297 C 113.798 0.647743 -5.30762 0
M  V30 1298 C 115.098 -1.51634 -4.99804 0
M  V30 1299 H 116.792 -1.13153 -2.77195 0
M  V30 1300 H 114.338 -0.545553 -1.33266 0
M  V30 1301 H 116.291 0.900856 -4.11658 0
M  V30 1302 H 115.015 1.36874 -2.96535 0
M  V30 1303 H 113.674 -0.665555 -3.60508 0
M  V30 1304 H 113.322 1.50299 -4.8002 0
M  V30 1305 H 113.022 0.11422 -5.87489 0
M  V30 1306 H 114.546 1.03567 -6.01753 0
M  V30 1307 H 115.96 -1.19824 -5.60638 0
M  V30 1308 H 114.357 -1.98745 -5.66234 0
M  V30 1309 H 115.427 -2.28018 -4.27943 0
M  V30 1310 N 116.77 1.45427 -0.607355 0
M  V30 1311 C 118.186 1.57283 -0.270985 0
M  V30 1312 C 118.386 1.59875 1.22647 0
M  V30 1313 O 117.442 1.52893 2.00948 0
M  V30 1314 C 118.755 2.85566 -0.941952 0
M  V30 1315 C 120.303 2.9924 -0.917849 0
M  V30 1316 C 120.778 4.30293 -1.56882 0
M  V30 1317 N 122.269 4.37051 -1.5343 0
M  V30 1318 C 123.004 5.37123 -2.00715 0
M  V30 1319 N 122.5 6.43734 -2.56084 0
M  V30 1320 N 124.293 5.28479 -1.91484 0
M  V30 1321 H 116.444 1.41988 -1.57966 0
M  V30 1322 H 118.707 0.67885 -0.661715 0
M  V30 1323 H 118.413 2.8955 -1.99633 0
M  V30 1324 H 118.287 3.74322 -0.465096 0
M  V30 1325 H 120.674 2.94822 0.127984 0
M  V30 1326 H 120.755 2.11895 -1.43297 0
M  V30 1327 H 120.399 4.35469 -2.61398 0
M  V30 1328 H 120.329 5.16454 -1.02873 0
M  V30 1329 H 122.82 3.60615 -1.12982 0
M  V30 1330 H 123.133 7.16341 -2.89958 0
M  V30 1331 H 121.478 6.44485 -2.60122 0
M  V30 1332 H 124.669 4.44098 -1.47967 0
M  V30 1333 H 124.842 6.0632 -2.28648 0
M  V30 1334 N 118.248 0.346503 1.53744 0
M  V30 1335 C 119.496 -0.248612 2.00565 0
M  V30 1336 C 119.817 -1.5083 1.23593 0
M  V30 1337 O 119.087 -1.92858 0.343912 0
M  V30 1338 H 117.667 -0.0948564 0.740953 0
M  V30 1339 H 120.329 0.468341 1.89189 0
M  V30 1340 H 119.425 -0.488994 3.08245 0
M  V30 1341 N 119.726 -1.57421 0.075193 0
M  V30 1342 C 120.954 -1.97946 -0.602076 0
M  V30 1343 C 121.369 -0.953674 -1.62943 0
M  V30 1344 O 120.726 0.0592551 -1.82404 0
M  V30 1345 C 120.777 -3.38546 -1.26762 0
M  V30 1346 O 120.498 -4.37195 -0.281376 0
M  V30 1347 C 121.999 -3.93966 -2.03239 0
M  V30 1348 H 119.219 -0.650918 -0.162931 0
M  V30 1349 H 121.763 -2.03959 0.148601 0
M  V30 1350 H 119.918 -3.33609 -1.96936 0
M  V30 1351 H 120.332 -5.18975 -0.759267 0
M  V30 1352 H 121.806 -4.94555 -2.45193 0
M  V30 1353 H 122.283 -3.30693 -2.8903 0
M  V30 1354 H 122.889 -4.02315 -1.37924 0
M  V30 1355 N 121.204 0.198386 -1.56346 0
M  V30 1356 C 122.444 0.92609 -1.82217 0
M  V30 1357 C 122.808 1.80584 -0.652195 0
M  V30 1358 O 124.009 2.56907 -0.790716 0
M  V30 1359 C 122.28 1.72354 -3.13096 0
M  V30 1360 S 123.839 2.50371 -3.6036 0
M  V30 1361 H 120.657 0.310677 -0.639532 0
M  V30 1362 H 123.259 0.189755 -1.94577 0
M  V30 1363 H 121.963 1.0678 -3.96265 0
M  V30 1364 H 121.494 2.50175 -3.03605 0
M  V30 1365 H 123.509 3.74488 -3.25535 0
M  V30 1366 N 122.682 1.50554 0.465978 0
M  V30 1367 C 123.907 1.65838 1.24549 0
M  V30 1368 C 124.332 0.343486 1.84937 0
M  V30 1369 O 123.69 -0.69324 1.67523 0
M  V30 1370 C 123.738 2.75533 2.32624 0
M  V30 1371 O 122.842 2.37142 3.37398 0
M  V30 1372 H 122.183 0.553893 0.366194 0
M  V30 1373 H 124.713 1.96959 0.553927 0
M  V30 1374 H 124.723 2.98763 2.77857 0
M  V30 1375 H 123.398 3.70962 1.88043 0
M  V30 1376 H 121.975 2.24377 2.97841 0
M  V30 1377 N 124.16 -0.719506 1.40217 0
M  V30 1378 C 125.407 -1.47933 1.38283 0
M  V30 1379 C 125.735 -1.94493 -0.0161536 0
M  V30 1380 O 124.99 -1.68224 -0.999956 0
M  V30 1381 C 125.289 -2.72271 2.31524 0
M  V30 1382 C 124.955 -2.44496 3.78857 0
M  V30 1383 C 123.617 -2.36631 4.18998 0
M  V30 1384 C 125.969 -2.21104 4.71977 0
M  V30 1385 C 123.297 -2.03437 5.503 0
M  V30 1386 C 125.649 -1.89423 6.03574 0
M  V30 1387 C 124.313 -1.80038 6.42762 0
M  V30 1388 H 123.583 -0.541325 0.506012 0
M  V30 1389 H 126.23 -0.824502 1.72842 0
M  V30 1390 H 124.535 -3.42572 1.90137 0
M  V30 1391 H 126.232 -3.30348 2.27313 0
M  V30 1392 H 122.822 -2.51503 3.47051 0
M  V30 1393 H 127.006 -2.26139 4.41786 0
M  V30 1394 H 122.262 -1.94705 5.79569 0
M  V30 1395 H 126.436 -1.70336 6.75247 0
M  V30 1396 H 124.063 -1.54083 7.44421 0
M  V30 1397 N 125.638 -1.25649 -0.95132 0
M  V30 1398 C 126.878 -1.11802 -1.71113 0
M  V30 1399 C 127.242 0.334758 -1.89059 0
M  V30 1400 O 128.443 0.595121 -2.62129 0
M  V30 1401 C 126.714 -1.85512 -3.05483 0
M  V30 1402 S 128.273 -1.87597 -3.96677 0
M  V30 1403 H 125.091 -0.399552 -0.588115 0
M  V30 1404 H 127.693 -1.59222 -1.1344 0
M  V30 1405 H 126.397 -2.90299 -2.90094 0
M  V30 1406 H 125.928 -1.38493 -3.68216 0
M  V30 1407 H 127.943 -0.955389 -4.86916 0
M  V30 1408 N 127.117 1.15442 -1.07289 0
M  V30 1409 C 128.342 1.90638 -0.816828 0
M  V30 1410 C 128.767 1.77445 0.624083 0
M  V30 1411 O 128.125 1.10671 1.43602 0
M  V30 1412 C 128.173 3.39008 -1.22906 0
M  V30 1413 O 127.277 4.10701 -0.373975 0
M  V30 1414 H 126.618 0.593555 -0.297638 0
M  V30 1415 H 129.148 1.46198 -1.43134 0
M  V30 1416 H 129.158 3.89801 -1.20497 0
M  V30 1417 H 127.833 3.47929 -2.27856 0
M  V30 1418 H 126.41 3.70046 -0.460499 0
M  V30 1419 N 128.595 0.856903 1.32268 0
M  V30 1420 C 130.011 0.547061 1.49931 0
M  V30 1421 C 130.211 -0.921781 1.7918 0
M  V30 1422 O 129.267 -1.70469 1.8627 0
M  V30 1423 C 130.58 1.43599 2.64196 0
M  V30 1424 C 132.128 1.43665 2.78081 0
M  V30 1425 C 132.603 2.31085 3.95428 0
M  V30 1426 N 134.094 2.28893 4.02694 0
M  V30 1427 C 134.829 2.93262 4.92732 0
M  V30 1428 N 134.325 3.66751 5.87763 0
M  V30 1429 N 136.118 2.82638 4.85873 0
M  V30 1430 H 128.269 1.8075 1.11549 0
M  V30 1431 H 130.532 0.772144 0.549997 0
M  V30 1432 H 130.238 2.48058 2.49319 0
M  V30 1433 H 130.112 1.12502 3.60032 0
M  V30 1434 H 132.499 0.399701 2.92381 0
M  V30 1435 H 132.58 1.7878 1.82952 0
M  V30 1436 H 132.224 3.34849 3.81888 0
M  V30 1437 H 132.154 1.93302 4.89839 0
M  V30 1438 H 134.645 1.75466 3.34694 0
M  V30 1439 H 134.958 4.13027 6.53168 0
M  V30 1440 H 133.303 3.70859 5.87783 0
M  V30 1441 H 136.494 2.24774 4.10602 0
M  V30 1442 H 136.667 3.33084 5.55841 0
M  V30 1443 N 130.073 -1.45103 0.615059 0
M  V30 1444 C 131.301 -2.06553 0.11977 0
M  V30 1445 C 131.716 -1.45842 -1.19898 0
M  V30 1446 O 131.073 -0.575325 -1.73194 0
M  V30 1447 C 131.124 -3.61495 -0.018364 0
M  V30 1448 O 130.845 -4.19942 1.24822 0
M  V30 1449 C 132.346 -4.39947 -0.544237 0
M  V30 1450 H 129.566 -0.667096 0.0722739 0
M  V30 1451 H 132.11 -1.8623 0.84491 0
M  V30 1452 H 130.265 -3.81135 -0.693865 0
M  V30 1453 H 130.679 -5.13204 1.0827 0
M  V30 1454 H 132.153 -5.48838 -0.589953 0
M  V30 1455 H 132.63 -4.10255 -1.56805 0
M  V30 1456 H 133.236 -4.25188 0.0974703 0
M  V30 1457 N 131.551 -0.354651 -1.53558 0
M  V30 1458 C 132.481 0.489091 -2.2832 0
M  V30 1459 C 133.462 1.09324 -1.30316 0
M  V30 1460 O 134.647 1.11255 -1.59173 0
M  V30 1461 C 131.777 1.63456 -3.0643 0
M  V30 1462 C 130.731 1.1582 -4.12031 0
M  V30 1463 C 130.057 2.39305 -4.7816 0
M  V30 1464 C 131.357 0.250731 -5.21698 0
M  V30 1465 H 133.051 -0.134614 -2.99097 0
M  V30 1466 H 130.597 -0.0661826 -1.43848 0
M  V30 1467 H 132.55 2.23136 -3.57475 0
M  V30 1468 H 131.274 2.28533 -2.33325 0
M  V30 1469 H 129.933 0.584146 -3.61916 0
M  V30 1470 H 129.581 3.02814 -4.01637 0
M  V30 1471 H 129.281 2.08109 -5.49513 0
M  V30 1472 H 130.805 2.99691 -5.31994 0
M  V30 1473 H 132.219 0.754695 -5.68311 0
M  V30 1474 H 130.616 0.0301468 -6.00092 0
M  V30 1475 H 131.686 -0.710125 -4.79672 0
M  V30 1476 N 133.029 1.57378 -0.0835403 0
M  V30 1477 C 134.445 1.57246 0.273109 0
M  V30 1478 C 134.645 1.09385 1.69225 0
M  V30 1479 O 133.701 0.765051 2.40631 0
M  V30 1480 C 135.014 3.00614 0.0720628 0
M  V30 1481 C 136.562 3.12684 0.1407 0
M  V30 1482 C 137.037 4.57989 -0.0322094 0
M  V30 1483 N 138.528 4.63194 0.0230085 0
M  V30 1484 C 139.263 5.73335 -0.0861941 0
M  V30 1485 N 138.759 6.9235 -0.24958 0
M  V30 1486 N 140.552 5.62093 -0.0282886 0
M  V30 1487 H 132.703 1.86801 -1.0109 0
M  V30 1488 H 134.966 0.861687 -0.395222 0
M  V30 1489 H 134.672 3.39786 -0.907662 0
M  V30 1490 H 134.546 3.68193 0.81936 0
M  V30 1491 H 136.933 2.73391 1.11092 0
M  V30 1492 H 137.014 2.47719 -0.637896 0
M  V30 1493 H 136.658 4.97973 -0.999247 0
M  V30 1494 H 136.588 5.21 0.765937 0
M  V30 1495 H 139.079 3.77613 0.14722 0
M  V30 1496 H 139.392 7.72117 -0.324733 0
M  V30 1497 H 137.737 6.94415 -0.285097 0
M  V30 1498 H 140.928 4.67997 0.0981408 0
M  V30 1499 H 141.101 6.47895 -0.116845 0
M  V30 1500 N 134.507 -0.190092 1.56449 0
M  V30 1501 C 135.454 -1.23557 1.94942 0
M  V30 1502 C 136.424 -1.44972 0.810696 0
M  V30 1503 O 137.609 -1.58023 1.06927 0
M  V30 1504 C 134.749 -2.57416 2.2985 0
M  V30 1505 C 133.862 -2.43537 3.5681 0
M  V30 1506 C 132.997 -3.70134 3.81017 0
M  V30 1507 C 132.036 -3.51109 5.01387 0
M  V30 1508 N 131.173 -4.6973 5.21822 0
M  V30 1509 H 136.013 -0.900304 2.84075 0
M  V30 1510 H 133.55 -0.43318 1.40577 0
M  V30 1511 H 135.508 -3.35409 2.48106 0
M  V30 1512 H 134.138 -2.88975 1.43852 0
M  V30 1513 H 133.19 -1.56816 3.46573 0
M  V30 1514 H 134.502 -2.25415 4.4496 0
M  V30 1515 H 133.656 -4.56566 3.9954 0
M  V30 1516 H 132.395 -3.91215 2.91207 0
M  V30 1517 H 131.4 -2.63063 4.82782 0
M  V30 1518 H 132.625 -3.31468 5.9271 0
M  V30 1519 H 130.571 -4.91065 4.34961 0
M  V30 1520 H 130.488 -4.54452 6.0416 0
M  V30 1521 H 131.756 -5.57499 5.44808 0
M  V30 1522 N 135.985 -1.50799 -0.457987 0
M  V30 1523 C 136.917 -1.66786 -1.57211 0
M  V30 1524 C 137.93 -0.548962 -1.53265 0
M  V30 1525 O 139.119 -0.8226 -1.58416 0
M  V30 1526 C 136.219 -1.64834 -2.96113 0
M  V30 1527 C 135.392 -2.92971 -3.24787 0
M  V30 1528 C 134.451 -2.83485 -4.43309 0
M  V30 1529 O 133.477 -3.5744 -4.42973 0
M  V30 1530 N 134.679 -1.97929 -5.45714 0
M  V30 1531 H 137.444 -2.62889 -1.43909 0
M  V30 1532 H 135.005 -1.48427 -0.646617 0
M  V30 1533 H 136.997 -1.56084 -3.7339 0
M  V30 1534 H 135.567 -0.764118 -3.03117 0
M  V30 1535 H 134.787 -3.15749 -2.36 0
M  V30 1536 H 136.075 -3.77834 -3.40762 0
M  V30 1537 H 135.473 -1.37182 -5.48815 0
M  V30 1538 H 134.03 -1.95073 -6.21924 0
M  V30 1539 N 137.463 0.71206 -1.40597 0
M  V30 1540 C 138.393 1.83889 -1.43899 0
M  V30 1541 C 139.374 1.67442 -0.299504 0
M  V30 1542 O 140.559 1.87421 -0.508624 0
M  V30 1543 C 137.689 3.21877 -1.30431 0
M  V30 1544 C 136.643 3.53002 -2.42019 0
M  V30 1545 C 135.969 4.90172 -2.13626 0
M  V30 1546 C 137.269 3.53643 -3.84362 0
M  V30 1547 H 138.963 1.81383 -2.38203 0
M  V30 1548 H 136.509 0.871237 -1.14654 0
M  V30 1549 H 138.462 4.00404 -1.31357 0
M  V30 1550 H 137.186 3.24968 -0.326049 0
M  V30 1551 H 135.845 2.76818 -2.40349 0
M  V30 1552 H 135.493 4.89869 -1.14182 0
M  V30 1553 H 135.193 5.11962 -2.88389 0
M  V30 1554 H 136.717 5.71028 -2.1624 0
M  V30 1555 H 138.131 4.22203 -3.87837 0
M  V30 1556 H 136.528 3.86961 -4.58673 0
M  V30 1557 H 137.598 2.52954 -4.13693 0
M  V30 1558 N 138.941 1.26152 0.944643 0
M  V30 1559 C 140.218 1.02247 1.66748 0
M  V30 1560 C 140.598 -0.448202 2.06287 0
M  V30 1561 O 139.946 -1.42779 1.78399 0
M  V30 1562 C 140.156 1.96788 2.88228 0
M  V30 1563 C 141.504 2.25201 3.59958 0
M  V30 1564 O 142.528 1.94626 2.98327 0
M  V30 1565 O 141.387 2.77242 4.70956 0
M  V30 1566 H 138.481 0.388517 0.730057 0
M  V30 1567 H 141.027 1.37348 0.99668 0
M  V30 1568 H 139.799 2.96047 2.55875 0
M  V30 1569 H 139.422 1.62145 3.63035 0
M  V30 1570 N 140.419 -1.14872 1.07899 0
M  V30 1571 C 141.369 -2.17809 0.674027 0
M  V30 1572 C 142.353 -1.58008 -0.303699 0
M  V30 1573 O 143.545 -1.76616 -0.11654 0
M  V30 1574 C 140.674 -3.43208 0.0793318 0
M  V30 1575 C 139.76 -4.10051 1.08253 0
M  V30 1576 N 140.151 -4.52296 2.2641 0
M  V30 1577 C 138.449 -4.36469 0.917124 0
M  V30 1578 C 139.15 -5.04199 2.901 0
M  V30 1579 N 138.126 -4.98088 2.17736 0
M  V30 1580 H 141.928 -2.48207 1.57386 0
M  V30 1581 H 139.442 -1.315 0.952976 0
M  V30 1582 H 141.439 -4.16272 -0.228719 0
M  V30 1583 H 140.099 -3.14291 -0.815551 0
M  V30 1584 H 141.11 -4.45504 2.64096 0
M  V30 1585 H 137.787 -4.17432 0.0756078 0
M  V30 1586 H 139.177 -5.46802 3.90458 0
M  V30 1587 N 141.898 -0.863906 -1.31812 0
M  V30 1588 C 142.846 -0.30422 -2.30602 0
M  V30 1589 C 143.84 0.577419 -1.59255 0
M  V30 1590 O 145.046 0.464194 -1.73912 0
M  V30 1591 H 141.421 -0.0796877 -0.747766 0
M  V30 1592 H 143.392 -1.15148 -2.75288 0
M  V30 1593 C 142.141 0.484617 -3.44306 0
M  V30 1594 H 141.464 -0.18451 -3.99374 0
M  V30 1595 H 142.904 0.841664 -4.15562 0
M  V30 1596 C 141.363 1.6735 -2.92396 0
M  V30 1597 O 141.893 2.77273 -2.90659 0
M  V30 1598 N 140.099 1.50362 -2.48676 0
M  V30 1599 H 139.646 0.609402 -2.50288 0
M  V30 1600 H 139.604 2.30051 -2.14299 0
M  V30 1601 N 143.376 1.44774 -0.622745 0
M  V30 1602 C 144.306 2.33382 0.0741861 0
M  V30 1603 C 145.287 1.47719 0.843387 0
M  V30 1604 O 146.472 1.76458 0.810934 0
M  V30 1605 C 143.602 3.30663 1.06204 0
M  V30 1606 C 142.556 4.26079 0.405037 0
M  V30 1607 C 141.882 5.13165 1.5022 0
M  V30 1608 C 143.182 5.1781 -0.683414 0
M  V30 1609 H 144.876 2.91905 -0.665713 0
M  V30 1610 H 142.422 1.40363 -0.321587 0
M  V30 1611 H 144.375 3.9153 1.55827 0
M  V30 1612 H 143.099 2.70331 1.83272 0
M  V30 1613 H 141.758 3.66532 -0.0704683 0
M  V30 1614 H 141.406 4.49191 2.26355 0
M  V30 1615 H 141.106 5.77812 1.06803 0
M  V30 1616 H 142.63 5.76902 2.00041 0
M  V30 1617 H 144.044 5.72661 -0.270631 0
M  V30 1618 H 142.441 5.91015 -1.04023 0
M  V30 1619 H 143.511 4.59326 -1.55395 0
M  V30 1620 N 144.854 0.36279 1.53368 0
M  V30 1621 C 146.082 -0.228613 2.05633 0
M  V30 1622 C 146.497 -1.42676 1.23649 0
M  V30 1623 O 145.854 -1.80394 0.27647 0
M  V30 1624 C 145.905 -0.624845 3.56059 0
M  V30 1625 O 145.626 0.525675 4.34935 0
M  V30 1626 C 147.127 -1.27493 4.24571 0
M  V30 1627 H 144.347 -0.0407183 0.669763 0
M  V30 1628 H 146.891 0.520352 1.97769 0
M  V30 1629 H 145.046 -1.32373 3.64083 0
M  V30 1630 H 145.46 0.205969 5.24095 0
M  V30 1631 H 146.934 -1.50277 5.31151 0
M  V30 1632 H 147.411 -2.23439 3.78116 0
M  V30 1633 H 148.017 -0.617558 4.20792 0
M  V30 1634 N 146.332 -1.57332 0.0918853 0
M  V30 1635 C 147.579 -1.94236 -0.572577 0
M  V30 1636 C 147.907 -0.973398 -1.6839 0
M  V30 1637 O 147.162 0.00756912 -1.95699 0
M  V30 1638 C 147.461 -3.37689 -1.17051 0
M  V30 1639 C 147.127 -4.50527 -0.183304 0
M  V30 1640 C 145.789 -4.81119 0.0882276 0
M  V30 1641 C 148.141 -5.18883 0.49095 0
M  V30 1642 C 145.469 -5.77395 1.04076 0
M  V30 1643 C 147.821 -6.1618 1.43193 0
M  V30 1644 C 146.485 -6.45179 1.71173 0
M  V30 1645 H 145.755 -0.710762 -0.209521 0
M  V30 1646 H 148.402 -1.9077 0.167036 0
M  V30 1647 H 146.707 -3.37718 -1.9863 0
M  V30 1648 H 148.404 -3.63543 -1.69227 0
M  V30 1649 H 144.994 -4.26681 -0.405124 0
M  V30 1650 H 149.178 -4.95427 0.294312 0
M  V30 1651 H 144.434 -5.98179 1.26457 0
M  V30 1652 H 148.608 -6.68243 1.96023 0
M  V30 1653 H 146.235 -7.1959 2.4514 0
M  V30 1654 N 147.81 0.181792 -1.56548 0
M  V30 1655 C 148.76 1.22961 -1.92002 0
M  V30 1656 C 149.744 1.40331 -0.787146 0
M  V30 1657 O 150.936 1.42478 -1.05019 0
M  V30 1658 C 148.065 2.57144 -2.27446 0
M  V30 1659 C 147.151 2.43512 -3.47222 0
M  V30 1660 N 147.542 1.99577 -4.64761 0
M  V30 1661 C 145.84 2.74368 -3.51622 0
M  V30 1662 C 146.541 1.98156 -5.46909 0
M  V30 1663 N 145.517 2.40164 -4.8767 0
M  V30 1664 H 149.319 0.881462 -2.8037 0
M  V30 1665 H 146.833 0.390141 -1.57644 0
M  V30 1666 H 148.83 3.32847 -2.51035 0
M  V30 1667 H 147.49 2.92771 -1.40411 0
M  V30 1668 H 148.501 1.70078 -4.89177 0
M  V30 1669 H 145.178 3.14102 -2.75038 0
M  V30 1670 H 146.568 1.65975 -6.51077 0
M  V30 1671 N 149.288 1.51039 0.449983 0
M  V30 1672 C 150.235 1.71439 1.54523 0
M  V30 1673 C 151.205 0.555871 1.56522 0
M  V30 1674 O 152.39 0.788871 1.73728 0
M  V30 1675 C 149.53 1.83384 2.92343 0
M  V30 1676 C 148.643 3.10873 2.9997 0
M  V30 1677 C 147.778 3.13488 4.28834 0
M  V30 1678 C 146.817 4.35343 4.30282 0
M  V30 1679 N 145.954 4.35579 5.5065 0
M  V30 1680 H 150.794 2.64934 1.36433 0
M  V30 1681 H 148.331 1.31312 0.662982 0
M  V30 1682 H 150.289 1.88291 3.72293 0
M  V30 1683 H 148.919 0.933086 3.0902 0
M  V30 1684 H 147.971 3.15336 2.12761 0
M  V30 1685 H 149.283 4.00814 2.96901 0
M  V30 1686 H 148.437 3.17241 5.17149 0
M  V30 1687 H 147.176 2.21414 4.34543 0
M  V30 1688 H 146.181 4.3178 3.40362 0
M  V30 1689 H 147.406 5.28668 4.26248 0
M  V30 1690 H 145.352 3.46369 5.57104 0
M  V30 1691 H 145.269 5.19313 5.49409 0
M  V30 1692 H 146.537 4.43507 6.41032 0
M  V30 1693 N 150.766 -0.704594 1.40972 0
M  V30 1694 C 151.696 -1.83124 1.44872 0
M  V30 1695 C 152.677 -1.67281 0.30838 0
M  V30 1696 O 153.862 -1.87149 0.518556 0
M  V30 1697 C 150.992 -3.21181 1.32136 0
M  V30 1698 C 149.946 -3.51714 2.43888 0
M  V30 1699 C 149.272 -4.89032 2.16222 0
M  V30 1700 C 150.572 -3.516 3.86232 0
M  V30 1701 H 152.266 -1.80117 2.39161 0
M  V30 1702 H 149.812 -0.865145 1.15114 0
M  V30 1703 H 151.765 -3.99702 1.33479 0
M  V30 1704 H 150.489 -3.24791 0.343279 0
M  V30 1705 H 149.148 -2.75539 2.41813 0
M  V30 1706 H 148.796 -4.89256 1.16778 0
M  V30 1707 H 148.496 -5.10426 2.911 0
M  V30 1708 H 150.02 -5.69873 2.19265 0
M  V30 1709 H 151.434 -4.2014 3.9007 0
M  V30 1710 H 149.831 -3.84523 4.60719 0
M  V30 1711 H 150.901 -2.50757 4.15029 0
M  V30 1712 N 152.244 -1.26651 -0.937939 0
M  V30 1713 C 153.49 -1.12553 -1.687 0
M  V30 1714 C 153.823 0.329782 -1.91379 0
M  V30 1715 O 153.098 1.24202 -1.4968 0
M  V30 1716 C 153.381 -1.89862 -3.05981 0
M  V30 1717 C 153.234 -3.43318 -2.90607 0
M  V30 1718 C 154.553 -1.69499 -4.0615 0
M  V30 1719 H 151.672 -0.410257 -0.612257 0
M  V30 1720 H 154.314 -1.55685 -1.08913 0
M  V30 1721 H 152.464 -1.53204 -3.57017 0
M  V30 1722 H 154.136 -3.89747 -2.46769 0
M  V30 1723 H 152.379 -3.70179 -2.26164 0
M  V30 1724 H 153.05 -3.92642 -3.8799 0
M  V30 1725 H 155.526 -2.01442 -3.64088 0
M  V30 1726 H 154.402 -2.26002 -5.00214 0
M  V30 1727 H 154.663 -0.640365 -4.37438 0
M  V30 1728 N 153.722 1.14298 -1.08507 0
M  V30 1729 C 154.685 2.17607 -0.719711 0
M  V30 1730 C 155.685 1.58907 0.245997 0
M  V30 1731 O 156.875 1.74181 0.0254081 0
M  V30 1732 C 154.007 3.40842 -0.0627695 0
M  V30 1733 H 155.2 2.51443 -1.63452 0
M  V30 1734 H 152.753 1.28963 -0.88307 0
M  V30 1735 H 153.488 3.12587 0.863716 0
M  V30 1736 H 153.273 3.84713 -0.757504 0
M  V30 1737 H 154.763 4.17221 0.177786 0
M  V30 1738 N 155.201 0.870884 1.31352 0
M  V30 1739 C 156.431 0.496049 2.00557 0
M  V30 1740 C 156.839 -0.916241 1.65534 0
M  V30 1741 O 156.182 -1.61188 0.881134 0
M  V30 1742 C 156.244 0.574418 3.54881 0
M  V30 1743 C 155.908 1.94849 4.1338 0
M  V30 1744 C 156.905 2.91611 4.30417 0
M  V30 1745 C 154.59 2.25005 4.49086 0
M  V30 1746 C 156.584 4.16672 4.82352 0
M  V30 1747 C 154.271 3.50315 5.00722 0
M  V30 1748 C 155.269 4.45964 5.17306 0
M  V30 1749 O 154.957 5.69052 5.67833 0
M  V30 1750 H 154.689 0.191664 0.64826 0
M  V30 1751 H 157.243 1.17409 1.68536 0
M  V30 1752 H 155.473 -0.160549 3.86367 0
M  V30 1753 H 157.162 0.212879 4.05341 0
M  V30 1754 H 157.928 2.69622 4.03149 0
M  V30 1755 H 153.807 1.51332 4.35453 0
M  V30 1756 H 157.351 4.91336 4.95211 0
M  V30 1757 H 153.248 3.72147 5.27424 0
M  V30 1758 H 154.016 5.71236 5.86201 0
M  V30 1759 N 156.679 -1.44442 0.630414 0
M  V30 1760 C 157.612 -2.27862 -0.124247 0
M  V30 1761 C 158.59 -1.38495 -0.851931 0
M  V30 1762 O 159.774 -1.67935 -0.856166 0
M  V30 1763 C 156.901 -3.17407 -1.18197 0
M  V30 1764 C 155.947 -4.22875 -0.554892 0
M  V30 1765 S 156.78 -5.31485 0.654489 0
M  V30 1766 C 157.936 -6.246 -0.40326 0
M  V30 1767 H 158.169 -2.91519 0.583435 0
M  V30 1768 H 155.702 -1.48618 0.418565 0
M  V30 1769 H 157.66 -3.69549 -1.78728 0
M  V30 1770 H 156.321 -2.52971 -1.86184 0
M  V30 1771 H 155.514 -4.85542 -1.35148 0
M  V30 1772 H 155.116 -3.73992 -0.0242105 0
M  V30 1773 H 157.408 -6.65375 -1.27602 0
M  V30 1774 H 158.351 -7.07851 0.187813 0
M  V30 1775 H 158.759 -5.59775 -0.728837 0
M  V30 1776 N 158.157 -0.370918 -1.53173 0
M  V30 1777 C 159.406 0.218249 -2.00516 0
M  V30 1778 C 159.719 1.49429 -1.26215 0
M  V30 1779 O 160.925 2.16239 -1.64174 0
M  V30 1780 C 159.381 0.43948 -3.57207 0
M  V30 1781 C 158.989 -0.822244 -4.4039 0
M  V30 1782 C 160.733 0.986012 -4.1289 0
M  V30 1783 C 158.64 -0.570304 -5.88644 0
M  V30 1784 H 157.57 0.0853333 -0.749156 0
M  V30 1785 H 160.221 -0.490483 -1.76823 0
M  V30 1786 H 158.603 1.20961 -3.77074 0
M  V30 1787 H 159.777 -1.59557 -4.32294 0
M  V30 1788 H 158.092 -1.29238 -3.95836 0
M  V30 1789 H 160.689 1.18991 -5.21292 0
M  V30 1790 H 161.032 1.94972 -3.6782 0
M  V30 1791 H 161.565 0.27592 -3.96842 0
M  V30 1792 H 158.304 -1.50449 -6.38001 0
M  V30 1793 H 157.824 0.164427 -5.99575 0
M  V30 1794 H 159.503 -0.19784 -6.46697 0
M  V30 1795 N 159.635 1.57281 -0.100228 0
M  V30 1796 C 160.875 1.96419 0.56558 0
M  V30 1797 C 161.239 0.981265 1.65031 0
M  V30 1798 O 162.44 1.26133 2.37369 0
M  V30 1799 C 160.711 3.39996 1.10171 0
M  V30 1800 S 162.27 4.01134 1.77867 0
M  V30 1801 H 159.088 0.68667 0.184406 0
M  V30 1802 H 161.69 1.94662 -0.180851 0
M  V30 1803 H 160.394 4.09296 0.300803 0
M  V30 1804 H 159.925 3.45361 1.88385 0
M  V30 1805 H 161.94 3.90358 3.06326 0
M  V30 1806 N 161.113 -0.173488 1.56642 0
M  V30 1807 C 162.043 -1.2171 1.99271 0
M  V30 1808 C 163.024 -1.46289 0.867959 0
M  V30 1809 O 164.209 -1.5766 1.13388 0
M  V30 1810 C 161.339 -2.55651 2.35074 0
M  V30 1811 C 160.293 -2.45645 3.50489 0
M  V30 1812 C 159.619 -3.84056 3.72028 0
M  V30 1813 C 160.919 -1.96302 4.84007 0
M  V30 1814 H 162.613 -0.86275 2.867 0
M  V30 1815 H 160.159 -0.413571 1.37933 0
M  V30 1816 H 162.112 -3.2886 2.63494 0
M  V30 1817 H 160.836 -2.92869 1.44552 0
M  V30 1818 H 159.495 -1.7489 3.22194 0
M  V30 1819 H 159.143 -4.18664 2.788 0
M  V30 1820 H 158.843 -3.7823 4.49684 0
M  V30 1821 H 160.367 -4.58854 4.02846 0
M  V30 1822 H 161.781 -2.59284 5.11317 0
M  V30 1823 H 160.178 -2.01429 5.65284 0
M  V30 1824 H 161.248 -0.917226 4.76146 0
M  V30 1825 N 162.591 -1.51276 -0.441967 0
M  V30 1826 C 163.541 -1.6864 -1.53442 0
M  V30 1827 C 164.525 -0.540444 -1.51552 0
M  V30 1828 O 165.717 -0.796157 -1.58083 0
M  V30 1829 C 162.846 -1.8106 -2.91672 0
M  V30 1830 C 161.932 -3.01424 -2.98336 0
M  V30 1831 N 162.323 -4.2467 -2.74752 0
M  V30 1832 C 160.621 -3.00584 -3.29493 0
M  V30 1833 C 161.322 -5.05891 -2.87139 0
M  V30 1834 N 160.298 -4.40442 -3.18609 0
M  V30 1835 H 164.1 -2.61598 -1.33954 0
M  V30 1836 H 161.614 -1.4886 -0.6492 0
M  V30 1837 H 163.611 -1.91609 -3.70259 0
M  V30 1838 H 162.271 -0.892795 -3.12185 0
M  V30 1839 H 163.282 -4.53691 -2.49769 0
M  V30 1840 H 159.959 -2.18417 -3.55809 0
M  V30 1841 H 161.349 -6.13983 -2.72899 0
M  V30 1842 N 164.069 0.697108 -1.41344 0
M  V30 1843 C 165.297 1.48593 -1.43972 0
M  V30 1844 C 165.712 1.88747 -0.0445612 0
M  V30 1845 O 165.069 1.56682 0.935785 0
M  V30 1846 C 165.12 2.74946 -2.34706 0
M  V30 1847 O 164.841 2.36484 -3.68791 0
M  V30 1848 C 166.342 3.687 -2.46121 0
M  V30 1849 H 163.562 0.457964 -0.490418 0
M  V30 1850 H 166.106 0.858429 -1.8561 0
M  V30 1851 H 164.261 3.33937 -1.9638 0
M  V30 1852 H 164.675 3.17918 -4.17167 0
M  V30 1853 H 166.149 4.54145 -3.13777 0
M  V30 1854 H 166.626 4.13081 -1.49199 0
M  V30 1855 H 167.232 3.15613 -2.85076 0
M  V30 1856 N 165.547 1.27147 0.931209 0
M  V30 1857 C 166.51 1.09615 2.01289 0
M  V30 1858 C 167.51 0.0412581 1.60747 0
M  V30 1859 O 168.7 0.285545 1.71844 0
M  V30 1860 C 165.832 0.669447 3.34262 0
M  V30 1861 H 167.025 2.05662 2.18273 0
M  V30 1862 H 164.578 1.09885 1.11153 0
M  V30 1863 H 165.313 -0.292572 3.22978 0
M  V30 1864 H 165.098 1.43127 3.65044 0
M  V30 1865 H 166.588 0.568921 4.13706 0
M  V30 1866 N 167.025 -1.13721 1.09112 0
M  V30 1867 C 168.274 -1.84275 0.82009 0
M  V30 1868 C 168.587 -1.84253 -0.656509 0
M  V30 1869 O 169.793 -2.50668 -1.04296 0
M  V30 1870 C 168.249 -3.30825 1.41714 0
M  V30 1871 C 167.857 -3.39244 2.92605 0
M  V30 1872 C 169.601 -4.06443 1.22492 0
M  V30 1873 C 167.508 -4.80047 3.45411 0
M  V30 1874 H 166.438 -0.690387 0.30312 0
M  V30 1875 H 169.089 -1.28146 1.31343 0
M  V30 1876 H 167.471 -3.86737 0.851498 0
M  V30 1877 H 168.645 -2.93344 3.55367 0
M  V30 1878 H 166.96 -2.77088 3.10823 0
M  V30 1879 H 169.557 -5.10387 1.59402 0
M  V30 1880 H 169.9 -4.15972 0.165299 0
M  V30 1881 H 170.433 -3.56852 1.75788 0
M  V30 1882 H 167.172 -4.75709 4.50978 0
M  V30 1883 H 166.692 -5.26455 2.87411 0
M  V30 1884 H 168.371 -5.48957 3.42425 0
M  V30 1885 N 168.503 -0.877838 -1.30888 0
M  V30 1886 C 169.453 -0.310872 -2.25871 0
M  V30 1887 C 170.437 0.556596 -1.50966 0
M  V30 1888 O 171.629 0.402187 -1.7237 0
M  V30 1889 C 168.758 0.479821 -3.3993 0
M  V30 1890 C 167.844 -0.401333 -4.22197 0
M  V30 1891 N 168.235 -1.49848 -4.83093 0
M  V30 1892 C 166.533 -0.195167 -4.45573 0
M  V30 1893 C 167.234 -2.0425 -5.44662 0
M  V30 1894 N 166.21 -1.33843 -5.26865 0
M  V30 1895 H 170.012 -1.1493 -2.70496 0
M  V30 1896 H 167.526 -0.726458 -1.45246 0
M  V30 1897 H 169.523 0.902582 -4.07012 0
M  V30 1898 H 168.183 1.31577 -2.96846 0
M  V30 1899 H 169.194 -1.88137 -4.82519 0
M  V30 1900 H 165.871 0.604192 -4.13105 0
M  V30 1901 H 167.261 -2.96345 -6.03017 0
M  V30 1902 N 169.982 1.44106 -0.638065 0
M  V30 1903 C 171.231 2.01194 -0.142744 0
M  V30 1904 C 171.544 1.50835 1.24532 0
M  V30 1905 O 172.75 2.00096 1.83504 0
M  V30 1906 C 171.206 3.59319 -0.20442 0
M  V30 1907 C 170.814 4.18674 -1.59423 0
M  V30 1908 C 172.558 4.23854 0.234079 0
M  V30 1909 C 170.465 5.69045 -1.61065 0
M  V30 1910 H 169.395 0.752367 -0.0495998 0
M  V30 1911 H 172.046 1.65246 -0.797881 0
M  V30 1912 H 170.428 3.92598 0.517946 0
M  V30 1913 H 171.602 3.96921 -2.34074 0
M  V30 1914 H 169.917 3.66453 -1.97741 0
M  V30 1915 H 172.514 5.34155 0.241443 0
M  V30 1916 H 172.857 3.96688 1.2627 0
M  V30 1917 H 173.39 3.95403 -0.436025 0
M  V30 1918 H 170.129 6.00956 -2.61787 0
M  V30 1919 H 169.649 5.929 -0.90718 0
M  V30 1920 H 171.328 6.32809 -1.34766 0
M  V30 1921 N 171.46 0.379036 1.52974 0
M  V30 1922 C 172.709 -0.207612 2.00629 0
M  V30 1923 C 173.022 -1.48758 1.27006 0
M  V30 1924 O 174.228 -2.15365 1.65318 0
M  V30 1925 C 172.684 -0.42053 3.57435 0
M  V30 1926 C 172.292 0.845587 4.39948 0
M  V30 1927 C 174.036 -0.964102 4.13407 0
M  V30 1928 C 171.943 0.601513 5.88333 0
M  V30 1929 H 170.873 -0.0813591 0.749598 0
M  V30 1930 H 173.524 0.499853 1.76561 0
M  V30 1931 H 171.906 -1.18959 3.7771 0
M  V30 1932 H 173.08 1.61848 4.31442 0
M  V30 1933 H 171.395 1.31336 3.95145 0
M  V30 1934 H 173.992 -1.16225 5.21916 0
M  V30 1935 H 174.335 -1.93019 3.68849 0
M  V30 1936 H 174.868 -0.25487 3.96983 0
M  V30 1937 H 171.607 1.53831 6.37194 0
M  V30 1938 H 171.127 -0.132628 5.99653 0
M  V30 1939 H 172.806 0.232134 6.46583 0
M  V30 1940 N 172.938 -1.57226 0.108567 0
M  V30 1941 C 173.901 -2.13602 -0.831082 0
M  V30 1942 C 174.901 -1.06841 -1.20173 0
M  V30 1943 O 176.091 -1.32666 -1.12895 0
M  V30 1944 C 173.223 -2.66769 -2.12243 0
M  V30 1945 H 174.416 -2.97951 -0.341317 0
M  V30 1946 H 171.969 -1.55667 -0.14057 0
M  V30 1947 H 172.704 -1.85977 -2.65675 0
M  V30 1948 H 172.489 -3.44839 -1.86625 0
M  V30 1949 H 173.979 -3.10332 -2.79435 0
M  V30 1950 N 174.416 0.165178 -1.56732 0
M  V30 1951 C 175.366 1.20917 -1.93295 0
M  V30 1952 C 176.35 1.39488 -0.801985 0
M  V30 1953 O 177.542 1.41356 -1.06525 0
M  V30 1954 C 174.671 2.54718 -2.3016 0
M  V30 1955 C 173.757 2.39815 -3.49785 0
M  V30 1956 N 174.148 1.94637 -4.66851 0
M  V30 1957 C 172.446 2.70623 -3.54513 0
M  V30 1958 C 173.147 1.92344 -5.4898 0
M  V30 1959 N 172.123 2.34978 -4.9019 0
M  V30 1960 H 175.925 0.851675 -2.81289 0
M  V30 1961 H 173.439 0.373399 -1.58049 0
M  V30 1962 H 175.436 3.30165 -2.54552 0
M  V30 1963 H 174.096 2.91265 -1.43508 0
M  V30 1964 H 175.107 1.6488 -4.90953 0
M  V30 1965 H 171.784 3.11167 -2.78354 0
M  V30 1966 H 173.174 1.5906 -6.52801 0
M  V30 1967 N 175.894 1.51508 0.433938 0
M  V30 1968 C 176.824 1.76016 1.53429 0
M  V30 1969 C 177.805 0.610112 1.58782 0
M  V30 1970 O 178.99 0.853177 1.74455 0
M  V30 1971 C 176.12 1.88831 2.9148 0
M  V30 1972 C 175.074 3.04288 3.00987 0
M  V30 1973 C 174.4 3.0229 4.4105 0
M  V30 1974 C 175.7 4.44193 2.74754 0
M  V30 1975 H 177.394 2.68152 1.33171 0
M  V30 1976 H 174.94 1.29035 0.639214 0
M  V30 1977 H 176.893 2.04559 3.6842 0
M  V30 1978 H 175.617 0.933455 3.12976 0
M  V30 1979 H 174.276 2.8827 2.26486 0
M  V30 1980 H 173.924 2.04576 4.59519 0
M  V30 1981 H 173.624 3.79822 4.4834 0
M  V30 1982 H 175.148 3.20116 5.1996 0
M  V30 1983 H 176.562 4.60544 3.41426 0
M  V30 1984 H 174.959 5.23457 2.9345 0
M  V30 1985 H 176.029 4.53996 1.70339 0
M  V30 1986 N 177.372 -0.689602 1.41712 0
M  V30 1987 C 178.619 -1.44966 1.4139 0
M  V30 1988 C 178.947 -1.94484 0.025105 0
M  V30 1989 O 178.202 -1.70307 -0.964048 0
M  V30 1990 C 178.501 -2.67298 2.37247 0
M  V30 1991 C 178.167 -2.36405 3.83958 0
M  V30 1992 C 176.829 -2.27691 4.23923 0
M  V30 1993 C 179.181 -2.11043 4.76561 0
M  V30 1994 C 176.509 -1.91719 5.54492 0
M  V30 1995 C 178.861 -1.76578 6.07456 0
M  V30 1996 C 177.525 -1.66363 6.46436 0
M  V30 1997 H 176.795 -0.53047 0.517381 0
M  V30 1998 H 179.442 -0.787655 1.74552 0
M  V30 1999 H 177.747 -3.38461 1.9736 0
M  V30 2000 H 179.444 -3.25452 2.34269 0
M  V30 2001 H 176.034 -2.44085 3.52308 0
M  V30 2002 H 180.218 -2.16717 4.46483 0
M  V30 2003 H 175.474 -1.82367 5.83568 0
M  V30 2004 H 179.648 -1.55974 6.78708 0
M  V30 2005 H 177.275 -1.38258 7.47522 0
M  V30 2006 N 178.85 -1.27639 -0.924453 0
M  V30 2007 C 179.798 -1.10485 -2.04685 0
M  V30 2008 C 180.792 -0.0270421 -1.69378 0
M  V30 2009 O 181.998 -0.185008 -1.79047 0
M  V30 2010 H 178.373 -0.340546 -0.670472 0
M  V30 2011 H 180.344 -2.05566 -2.16298 0
M  V30 2012 C 179.093 -0.772229 -3.39016 0
M  V30 2013 H 178.416 -1.59351 -3.66671 0
M  V30 2014 H 179.856 -0.692097 -4.18313 0
M  V30 2015 C 178.315 0.523554 -3.32807 0
M  V30 2016 O 178.845 1.55702 -3.70297 0
M  V30 2017 N 177.051 0.520363 -2.85903 0
M  V30 2018 H 176.598 -0.32107 -2.55591 0
M  V30 2019 H 176.556 1.38742 -2.82131 0
M  V30 2020 N 180.328 1.1314 -1.09713 0
M  V30 2021 C 181.575 1.84484 -0.834987 0
M  V30 2022 C 181.903 1.83689 0.639418 0
M  V30 2023 O 181.158 1.2724 1.4869 0
M  V30 2024 C 181.457 3.32167 -1.3191 0
M  V30 2025 C 181.123 3.53139 -2.80363 0
M  V30 2026 C 179.785 3.58571 -3.20905 0
M  V30 2027 C 182.137 3.60866 -3.76065 0
M  V30 2028 C 179.465 3.69267 -4.55916 0
M  V30 2029 C 181.817 3.73089 -5.10869 0
M  V30 2030 C 180.481 3.76775 -5.50996 0
M  V30 2031 H 179.751 0.675073 -0.305544 0
M  V30 2032 H 182.398 1.33554 -1.37243 0
M  V30 2033 H 180.703 3.85469 -0.701517 0
M  V30 2034 H 182.4 3.85821 -1.09284 0
M  V30 2035 H 178.99 3.49569 -2.47991 0
M  V30 2036 H 183.174 3.55946 -3.45855 0
M  V30 2037 H 178.43 3.70388 -4.86438 0
M  V30 2038 H 182.604 3.78011 -5.84877 0
M  V30 2039 H 180.231 3.84815 -6.55608 0
M  V30 2040 N 181.806 0.884767 1.30421 0
M  V30 2041 C 183.083 0.423185 1.90967 0
M  V30 2042 C 183.463 -1.09605 1.80416 0
M  V30 2043 O 182.811 -1.93126 1.22125 0
M  V30 2044 C 183.021 0.921056 3.36627 0
M  V30 2045 C 184.369 0.955903 4.137 0
M  V30 2046 O 185.393 0.867706 3.4547 0
M  V30 2047 O 184.252 1.08614 5.35598 0
M  V30 2048 H 181.346 0.129369 0.816819 0
M  V30 2049 H 183.892 0.973653 1.3899 0
M  V30 2050 H 182.664 1.96489 3.3839 0
M  V30 2051 H 182.287 0.349741 3.96059 0
M  V30 2052 N 183.284 -1.43765 0.645699 0
M  V30 2053 C 184.524 -2.03776 0.159542 0
M  V30 2054 C 184.888 -1.49792 -1.2011 0
M  V30 2055 O 186.089 -2.01398 -1.78023 0
M  V30 2056 C 184.36 -3.57036 0.161251 0
M  V30 2057 S 185.919 -4.3804 -0.258159 0
M  V30 2058 H 182.737 -0.707717 0.0682454 0
M  V30 2059 H 185.339 -1.75941 0.852352 0
M  V30 2060 H 184.043 -3.9383 1.15439 0
M  V30 2061 H 183.574 -3.89503 -0.552339 0
M  V30 2062 H 185.589 -4.7302 -1.49889 0
M  V30 2063 N 184.763 -0.387143 -1.52771 0
M  V30 2064 C 185.993 0.195585 -2.05672 0
M  V30 2065 C 186.401 1.41241 -1.25887 0
M  V30 2066 O 185.744 1.81265 -0.298081 0
M  V30 2067 C 185.806 0.632327 -3.53895 0
M  V30 2068 C 185.47 -0.470739 -4.54569 0
M  V30 2069 C 186.467 -1.32746 -5.02667 0
M  V30 2070 C 184.152 -0.637151 -4.98243 0
M  V30 2071 C 186.146 -2.33574 -5.93061 0
M  V30 2072 C 183.833 -1.64877 -5.88438 0
M  V30 2073 C 184.831 -2.49649 -6.35739 0
M  V30 2074 O 184.519 -3.49082 -7.24153 0
M  V30 2075 H 184.251 0.033658 -0.675162 0
M  V30 2076 H 186.805 -0.550221 -1.97893 0
M  V30 2077 H 185.035 1.43008 -3.59285 0
M  V30 2078 H 186.724 1.14048 -3.89548 0
M  V30 2079 H 187.49 -1.21019 -4.69659 0
M  V30 2080 H 183.369 0.0129567 -4.60998 0
M  V30 2081 H 186.913 -2.99777 -6.29904 0
M  V30 2082 H 182.81 -1.76643 -6.2086 0
M  V30 2083 H 183.578 -3.45065 -7.42208 0
M  V30 2084 N 186.241 1.57166 -0.116904 0
M  V30 2085 C 187.466 1.999 0.55271 0
M  V30 2086 C 187.891 0.996039 1.59564 0
M  V30 2087 O 187.249 -0.032556 1.81271 0
M  V30 2088 C 187.297 3.4152 1.15742 0
M  V30 2089 O 186.401 3.44106 2.27299 0
M  V30 2090 H 185.742 0.649447 0.138258 0
M  V30 2091 H 188.272 2.03573 -0.204759 0
M  V30 2092 H 188.282 3.79684 1.49346 0
M  V30 2093 H 186.957 4.14034 0.393493 0
M  V30 2094 H 185.534 3.17759 1.9515 0
M  V30 2095 N 187.719 -0.156864 1.56817 0
M  V30 2096 C 189.135 -0.50916 1.5126 0
M  V30 2097 C 189.335 -1.83897 0.823658 0
M  V30 2098 O 188.391 -2.49469 0.390055 0
M  V30 2099 C 189.704 -0.52857 2.96018 0
M  V30 2100 C 191.252 -0.614771 3.06903 0
M  V30 2101 C 191.727 -0.664938 4.53147 0
M  V30 2102 N 193.218 -0.727433 4.57452 0
M  V30 2103 C 193.953 -0.787067 5.67973 0
M  V30 2104 N 193.449 -0.806649 6.88088 0
M  V30 2105 N 195.242 -0.827195 5.5598 0
M  V30 2106 H 187.393 0.714935 2.00006 0
M  V30 2107 H 189.656 0.259526 0.911784 0
M  V30 2108 H 189.362 0.380154 3.49639 0
M  V30 2109 H 189.236 -1.36998 3.51442 0
M  V30 2110 H 191.623 -1.51392 2.53307 0
M  V30 2111 H 191.704 0.253597 2.5454 0
M  V30 2112 H 191.348 0.230011 5.07379 0
M  V30 2113 H 191.278 -1.54966 5.03282 0
M  V30 2114 H 193.769 -0.719998 3.70978 0
M  V30 2115 H 194.082 -0.853727 7.6807 0
M  V30 2116 H 192.427 -0.774687 6.90669 0
M  V30 2117 H 195.618 -0.808998 4.61056 0
M  V30 2118 H 195.791 -0.870206 6.4213 0
M  V30 2119 N 189.197 -1.51736 -0.425897 0
M  V30 2120 C 190.422 -1.69082 -1.20108 0
M  V30 2121 C 190.847 -0.392398 -1.83962 0
M  V30 2122 O 190.205 0.64858 -1.69302 0
M  V30 2123 C 190.253 -2.81604 -2.25237 0
M  V30 2124 O 189.357 -2.46004 -3.30992 0
M  V30 2125 H 188.698 -0.563408 -0.35138 0
M  V30 2126 H 191.228 -1.98358 -0.501512 0
M  V30 2127 H 191.238 -3.06025 -2.69838 0
M  V30 2128 H 189.913 -3.75817 -1.78142 0
M  V30 2129 H 188.49 -2.32195 -2.91787 0
M  V30 2130 N 190.675 0.682077 -1.42076 0
M  V30 2131 C 192.091 0.994324 -1.24841 0
M  V30 2132 C 192.291 2.0096 -0.147389 0
M  V30 2133 O 191.347 2.47822 0.483782 0
M  V30 2134 C 192.66 1.50607 -2.60265 0
M  V30 2135 C 194.208 1.62421 -2.6756 0
M  V30 2136 C 194.683 2.16994 -4.03333 0
M  V30 2137 N 196.174 2.24337 -4.0525 0
M  V30 2138 C 196.909 2.67621 -5.07116 0
M  V30 2139 N 196.405 3.1041 -6.19368 0
M  V30 2140 N 198.198 2.67305 -4.94474 0
M  V30 2141 H 190.349 0.00973908 -2.12398 0
M  V30 2142 H 192.612 0.0668593 -0.945639 0
M  V30 2143 H 192.318 0.834583 -3.41654 0
M  V30 2144 H 192.192 2.48602 -2.83684 0
M  V30 2145 H 194.579 2.28678 -1.86521 0
M  V30 2146 H 194.66 0.629352 -2.47937 0
M  V30 2147 H 194.304 1.51349 -4.84826 0
M  V30 2148 H 194.234 3.17258 -4.20304 0
M  V30 2149 H 196.725 1.94158 -3.24209 0
M  V30 2150 H 197.038 3.42103 -6.92954 0
M  V30 2151 H 195.383 3.08286 -6.22884 0
M  V30 2152 H 198.574 2.33233 -4.05857 0
M  V30 2153 H 198.747 3.00718 -5.73997 0
M  V30 2154 N 192.153 1.28127 0.917671 0
M  V30 2155 C 193.085 1.07517 2.02417 0
M  V30 2156 C 194.098 0.0281099 1.62776 0
M  V30 2157 O 195.287 0.270748 1.76435 0
M  V30 2158 C 192.387 0.610957 3.33347 0
M  V30 2159 C 191.56 1.73255 4.01624 0
M  V30 2160 C 190.619 1.26238 5.10833 0
M  V30 2161 O 189.645 1.96389 5.34247 0
M  V30 2162 N 190.847 0.123448 5.80369 0
M  V30 2163 H 193.612 2.02806 2.20658 0
M  V30 2164 H 191.173 1.19827 1.08871 0
M  V30 2165 H 193.165 0.280101 4.0373 0
M  V30 2166 H 191.735 -0.24898 3.11607 0
M  V30 2167 H 190.955 2.23319 3.24842 0
M  V30 2168 H 192.243 2.48503 4.43986 0
M  V30 2169 H 191.641 -0.461847 5.63812 0
M  V30 2170 H 190.198 -0.148158 6.51632 0
M  V30 2171 N 193.631 -1.12557 1.10312 0
M  V30 2172 C 194.594 -2.16434 0.75424 0
M  V30 2173 C 195.594 -1.59278 -0.220685 0
M  V30 2174 O 196.784 -1.742 0.00230591 0
M  V30 2175 C 193.916 -3.40699 0.116987 0
M  V30 2176 H 195.109 -2.48811 1.67431 0
M  V30 2177 H 192.662 -1.27542 0.903475 0
M  V30 2178 H 193.397 -3.13921 -0.813877 0
M  V30 2179 H 193.182 -3.83459 0.818613 0
M  V30 2180 H 194.672 -4.17451 -0.111387 0
M  V30 2181 N 195.109 -0.891671 -1.2995 0
M  V30 2182 C 196.337 -0.52866 -2.00032 0
M  V30 2183 C 196.752 0.884574 -1.66795 0
M  V30 2184 O 196.109 1.5827 -0.908669 0
M  V30 2185 C 196.16 -0.701814 -3.54622 0
M  V30 2186 O 195.881 -2.05942 -3.86678 0
M  V30 2187 C 197.382 -0.342683 -4.41973 0
M  V30 2188 H 194.602 -0.203659 -0.639347 0
M  V30 2189 H 197.146 -1.19881 -1.65677 0
M  V30 2190 H 195.301 -0.0789468 -3.8732 0
M  V30 2191 H 195.715 -2.08291 -4.81368 0
M  V30 2192 H 197.189 -0.514709 -5.49595 0
M  V30 2193 H 197.666 0.71975 -4.33262 0
M  V30 2194 H 198.272 -0.942154 -4.14733 0
M  V30 2195 N 196.587 1.43421 -0.653314 0
M  V30 2196 C 197.864 1.95361 -0.0966581 0
M  V30 2197 C 198.244 1.59461 1.38331 0
M  V30 2198 O 197.592 0.879777 2.10884 0
M  V30 2199 C 197.802 3.47311 -0.342988 0
M  V30 2200 C 199.15 4.23875 -0.24798 0
M  V30 2201 O 200.174 3.55133 -0.275553 0
M  V30 2202 O 199.033 5.4623 -0.171771 0
M  V30 2203 H 196.127 0.826945 0.00956291 0
M  V30 2204 H 198.673 1.5336 -0.726558 0
M  V30 2205 H 197.445 3.66569 -1.36906 0
M  V30 2206 H 197.068 3.9631 0.319975 0
M  V30 2207 N 198.065 0.39524 1.52563 0
M  V30 2208 C 199.313 -0.184678 2.01254 0
M  V30 2209 C 199.634 -1.46822 1.28329 0
M  V30 2210 O 198.904 -1.91666 0.405094 0
M  V30 2211 H 197.484 -0.0712355 0.743596 0
M  V30 2212 H 200.146 0.528293 1.87603 0
M  V30 2213 H 199.242 -0.390681 3.09645 0
M  V30 2214 N 199.544 -1.57102 0.125237 0
M  V30 2215 C 200.769 -2.0019 -0.542101 0
M  V30 2216 C 201.194 -1.00449 -1.59034 0
M  V30 2217 O 200.552 0.0229423 -1.81285 0
M  V30 2218 C 200.6 -3.42129 -1.13929 0
M  V30 2219 O 199.704 -3.45307 -2.2547 0
M  V30 2220 H 199.045 -0.650171 -0.134812 0
M  V30 2221 H 201.575 -2.03461 0.215553 0
M  V30 2222 H 201.585 -3.80471 -1.4733 0
M  V30 2223 H 200.26 -4.14237 -0.371531 0
M  V30 2224 H 198.837 -3.1879 -1.93462 0
M  V30 2225 N 201.022 0.148545 -1.56898 0
M  V30 2226 C 201.952 1.18524 -2.01182 0
M  V30 2227 C 202.933 1.4489 -0.891123 0
M  V30 2228 O 204.118 1.55836 -1.15882 0
M  V30 2229 C 201.248 2.51879 -2.39112 0
M  V30 2230 C 200.202 2.40038 -3.54353 0
M  V30 2231 C 199.528 3.78089 -3.78091 0
M  V30 2232 C 200.828 1.88577 -4.87069 0
M  V30 2233 H 202.522 0.817029 -2.88036 0
M  V30 2234 H 200.068 0.391575 -1.38574 0
M  V30 2235 H 202.021 3.24627 -2.68692 0
M  V30 2236 H 200.745 2.90532 -1.49193 0
M  V30 2237 H 199.404 1.69742 -3.24936 0
M  V30 2238 H 199.052 4.14175 -2.85426 0
M  V30 2239 H 198.752 3.71028 -4.55645 0
M  V30 2240 H 200.276 4.52387 -4.10095 0
M  V30 2241 H 201.69 2.51117 -5.15377 0
M  V30 2242 H 200.087 1.9241 -5.68417 0
M  V30 2243 H 201.157 0.84136 -4.77545 0
M  V30 2244 N 202.5 1.5196 0.417844 0
M  V30 2245 C 203.463 1.74065 1.49111 0
M  V30 2246 C 204.463 0.610537 1.48758 0
M  V30 2247 O 205.653 0.87832 1.50437 0
M  V30 2248 C 202.785 1.81502 2.88565 0
M  V30 2249 H 203.978 2.69869 1.30807 0
M  V30 2250 H 201.531 1.42244 0.647785 0
M  V30 2251 H 202.266 0.875813 3.1225 0
M  V30 2252 H 202.051 2.63651 2.90225 0
M  V30 2253 H 203.541 2.00376 3.66387 0
M  V30 2254 N 203.978 -0.674533 1.42435 0
M  V30 2255 C 205.203 -1.46784 1.46524 0
M  V30 2256 C 205.628 -1.87938 0.078066 0
M  V30 2257 O 204.986 -1.56014 -0.92354 0
M  V30 2258 C 205.034 -2.69307 2.39805 0
M  V30 2259 O 204.138 -3.67587 1.86959 0
M  V30 2260 H 203.479 -0.440959 0.496439 0
M  V30 2261 H 206.009 -0.827326 1.87127 0
M  V30 2262 H 206.019 -3.17374 2.56393 0
M  V30 2263 H 204.694 -2.38692 3.40586 0
M  V30 2264 H 203.271 -3.2662 1.79927 0
M  V30 2265 N 205.456 -1.28612 -0.910864 0
M  V30 2266 C 206.705 -1.15311 -1.65488 0
M  V30 2267 C 207.018 0.296999 -1.93332 0
M  V30 2268 O 208.224 0.551168 -2.65847 0
M  V30 2269 C 206.68 -2.01599 -2.98137 0
M  V30 2270 C 206.288 -3.51367 -2.7793 0
M  V30 2271 C 208.032 -1.96993 -3.76024 0
M  V30 2272 C 205.939 -4.29797 -4.06237 0
M  V30 2273 H 204.869 -0.42796 -0.620779 0
M  V30 2274 H 207.52 -1.53166 -1.01057 0
M  V30 2275 H 205.902 -1.56603 -3.63719 0
M  V30 2276 H 207.076 -4.0434 -2.21011 0
M  V30 2277 H 205.391 -3.57529 -2.13452 0
M  V30 2278 H 207.988 -2.52856 -4.71135 0
M  V30 2279 H 208.331 -0.94733 -4.05378 0
M  V30 2280 H 208.864 -2.39973 -3.17266 0
M  V30 2281 H 205.603 -5.32648 -3.82055 0
M  V30 2282 H 205.123 -3.81596 -4.62757 0
M  V30 2283 H 206.802 -4.39869 -4.74473 0
M  V30 2284 N 206.934 1.1197 -1.10907 0
M  V30 2285 C 207.864 2.19928 -0.784473 0
M  V30 2286 C 208.845 1.6833 0.244726 0
M  V30 2287 O 210.03 1.93892 0.109418 0
M  V30 2288 C 207.16 3.46597 -0.220827 0
M  V30 2289 C 206.114 4.11376 -1.18127 0
M  V30 2290 C 205.44 5.32554 -0.478594 0
M  V30 2291 C 206.74 4.56945 -2.52979 0
M  V30 2292 H 208.434 2.47337 -1.68715 0
M  V30 2293 H 205.98 1.18879 -0.812642 0
M  V30 2294 H 207.933 4.21396 0.0184278 0
M  V30 2295 H 206.657 3.1863 0.717113 0
M  V30 2296 H 205.316 3.38564 -1.40606 0
M  V30 2297 H 204.964 5.00856 0.463976 0
M  V30 2298 H 204.664 5.76844 -1.11912 0
M  V30 2299 H 206.188 6.10096 -0.248 0
M  V30 2300 H 207.602 5.23093 -2.3462 0
M  V30 2301 H 205.999 5.1203 -3.12962 0
M  V30 2302 H 207.069 3.70676 -3.12614 0
M  V30 2303 N 208.412 0.89855 1.29475 0
M  V30 2304 C 209.637 0.538561 2.00285 0
M  V30 2305 C 210.062 -0.869135 1.66816 0
M  V30 2306 O 209.42 -1.57831 0.892145 0
M  V30 2307 C 209.468 0.736475 3.52999 0
M  V30 2308 O 208.572 -0.211537 4.11857 0
M  V30 2309 H 207.913 0.210563 0.62973 0
M  V30 2310 H 210.443 1.20982 1.64998 0
M  V30 2311 H 210.453 0.640685 4.02938 0
M  V30 2312 H 209.128 1.76276 3.76696 0
M  V30 2313 H 207.705 -0.0682991 3.72837 0
M  V30 2314 N 209.89 -1.43072 0.660911 0
M  V30 2315 C 211.115 -2.06584 0.183805 0
M  V30 2316 C 211.54 -1.49257 -1.14472 0
M  V30 2317 O 210.898 -0.605528 -1.70889 0
M  V30 2318 C 210.946 -3.60418 0.114434 0
M  V30 2319 O 210.05 -4.01981 -0.921137 0
M  V30 2320 H 209.391 -0.656669 0.0983994 0
M  V30 2321 H 211.921 -1.83447 0.906006 0
M  V30 2322 H 211.931 -4.07946 -0.0663394 0
M  V30 2323 H 210.606 -4.01519 1.08422 0
M  V30 2324 H 209.183 -3.66029 -0.71253 0
M  V30 2325 N 211.368 -0.403325 -1.52352 0
M  V30 2326 C 212.298 0.416205 -2.29761 0
M  V30 2327 C 213.279 1.05123 -1.33728 0
M  V30 2328 O 214.464 1.06134 -1.62632 0
M  V30 2329 C 211.594 1.53624 -3.11475 0
M  V30 2330 C 210.548 1.02653 -4.15507 0
M  V30 2331 C 209.874 2.23971 -4.85532 0
M  V30 2332 C 211.174 0.08463 -5.22231 0
M  V30 2333 H 212.868 -0.229701 -2.98518 0
M  V30 2334 H 210.414 -0.111913 -1.43564 0
M  V30 2335 H 212.367 2.1165 -3.64393 0
M  V30 2336 H 211.091 2.20994 -2.40477 0
M  V30 2337 H 209.75 0.46871 -3.63591 0
M  V30 2338 H 209.398 2.89883 -4.11068 0
M  V30 2339 H 209.098 1.90521 -5.55856 0
M  V30 2340 H 210.622 2.82614 -5.41259 0
M  V30 2341 H 212.036 0.573509 -5.70424 0
M  V30 2342 H 210.433 -0.160783 -5.99885 0
M  V30 2343 H 211.503 -0.86237 -4.7717 0
M  V30 2344 N 212.846 1.57033 -0.133567 0
M  V30 2345 C 214.071 2.00475 0.531477 0
M  V30 2346 C 214.496 1.01291 1.58499 0
M  V30 2347 O 213.854 -0.0133279 1.81295 0
M  V30 2348 C 213.902 3.42729 1.12113 0
M  V30 2349 O 213.006 3.46498 2.23636 0
M  V30 2350 H 212.347 0.650876 0.131362 0
M  V30 2351 H 214.877 2.03344 -0.22634 0
M  V30 2352 H 214.887 3.81246 1.4531 0
M  V30 2353 H 213.562 4.14428 0.349557 0
M  V30 2354 H 212.139 3.19811 1.91769 0
M  V30 2355 N 214.325 -0.140222 1.56975 0
M  V30 2356 C 215.275 -1.17827 1.95194 0
M  V30 2357 C 216.259 -1.38195 0.824075 0
M  V30 2358 O 217.451 -1.39643 1.0876 0
M  V30 2359 C 214.58 -2.51024 2.34184 0
M  V30 2360 C 213.666 -2.3422 3.53556 0
M  V30 2361 N 214.057 -1.87185 4.69889 0
M  V30 2362 C 212.355 -2.64949 3.58773 0
M  V30 2363 C 213.056 -1.83586 5.5197 0
M  V30 2364 N 212.032 -2.2715 4.93866 0
M  V30 2365 H 215.834 -0.806817 2.82609 0
M  V30 2366 H 213.348 -0.348208 1.58623 0
M  V30 2367 H 215.345 -3.26074 2.59772 0
M  V30 2368 H 214.005 -2.88945 1.48124 0
M  V30 2369 H 215.016 -1.57048 4.93514 0
M  V30 2370 H 211.693 -3.067 2.8327 0
M  V30 2371 H 213.083 -1.48655 6.55249 0
M  V30 2372 N 215.803 -1.52179 -0.40978 0
M  V30 2373 C 217.08 -1.56769 -1.16974 0
M  V30 2374 C 217.46 -0.348322 -2.08206 0
M  V30 2375 O 216.808 0.664862 -2.18613 0
M  V30 2376 C 217.018 -2.89603 -1.9476 0
M  V30 2377 C 218.366 -3.42579 -2.50849 0
M  V30 2378 O 219.39 -2.91338 -2.04941 0
M  V30 2379 O 218.249 -4.32054 -3.34652 0
M  V30 2380 H 215.343 -0.631439 -0.534054 0
M  V30 2381 H 217.889 -1.64507 -0.416613 0
M  V30 2382 H 216.661 -3.698 -1.27921 0
M  V30 2383 H 216.284 -2.85155 -2.77079 0
M  V30 2384 N 217.281 0.66697 -1.42791 0
M  V30 2385 C 218.191 1.80962 -1.49299 0
M  V30 2386 C 219.207 1.69775 -0.381108 0
M  V30 2387 O 220.383 1.91188 -0.633188 0
M  V30 2388 C 217.448 3.17156 -1.40045 0
M  V30 2389 C 216.509 3.40242 -2.6179 0
M  V30 2390 C 215.742 4.69939 -2.52969 0
M  V30 2391 O 215.965 5.48372 -1.56985 0
M  V30 2392 O 214.899 4.94441 -3.43237 0
M  V30 2393 H 218.725 1.78427 -2.45759 0
M  V30 2394 H 216.31 0.823713 -1.24641 0
M  V30 2395 H 218.192 3.98413 -1.37276 0
M  V30 2396 H 216.867 3.20312 -0.467138 0
M  V30 2397 H 215.774 2.58802 -2.70134 0
M  V30 2398 H 217.107 3.41923 -3.54047 0
M  V30 2399 N 218.759 1.29093 0.90403 0
M  V30 2400 C 219.706 1.13853 2.00764 0
M  V30 2401 C 220.676 0.0330084 1.66067 0
M  V30 2402 O 221.861 0.199733 1.89752 0
M  V30 2403 C 219.001 0.816537 3.35301 0
M  V30 2404 C 218.114 2.00206 3.82807 0
M  V30 2405 C 217.249 1.61983 5.059 0
M  V30 2406 C 216.288 2.77143 5.45764 0
M  V30 2407 N 215.425 2.39346 6.60044 0
M  V30 2408 H 220.265 2.08276 2.13132 0
M  V30 2409 H 217.802 1.03648 1.04381 0
M  V30 2410 H 219.76 0.610557 4.12708 0
M  V30 2411 H 218.39 -0.090779 3.22672 0
M  V30 2412 H 217.442 2.31988 3.01473 0
M  V30 2413 H 218.754 2.86512 4.08304 0
M  V30 2414 H 217.908 1.37649 5.90879 0
M  V30 2415 H 216.647 0.728202 4.82233 0
M  V30 2416 H 215.652 3.02165 4.59322 0
M  V30 2417 H 216.877 3.66964 5.71414 0
M  V30 2418 H 214.823 1.52665 6.37989 0
M  V30 2419 H 214.74 3.19185 6.85315 0
M  V30 2420 H 216.008 2.1832 7.48303 0
M  V30 2421 N 220.237 -1.11381 1.11499 0
M  V30 2422 C 221.184 -2.17439 0.773887 0
M  V30 2423 C 222.154 -1.64132 -0.254899 0
M  V30 2424 O 223.339 -1.90345 -0.13168 0
M  V30 2425 C 220.479 -3.44373 0.223917 0
M  V30 2426 C 219.592 -4.1168 1.30934 0
M  V30 2427 C 218.727 -5.263 0.71984 0
M  V30 2428 C 217.766 -5.85493 1.78507 0
M  V30 2429 N 216.903 -6.91507 1.21502 0
M  V30 2430 H 221.743 -2.45962 1.68246 0
M  V30 2431 H 219.28 -1.20744 0.840191 0
M  V30 2432 H 221.238 -4.17047 -0.112921 0
M  V30 2433 H 219.868 -3.16232 -0.647851 0
M  V30 2434 H 218.92 -3.37073 1.76312 0
M  V30 2435 H 220.232 -4.51729 2.11524 0
M  V30 2436 H 219.386 -6.05785 0.333094 0
M  V30 2437 H 218.125 -4.87559 -0.117377 0
M  V30 2438 H 217.13 -5.04686 2.18111 0
M  V30 2439 H 218.355 -6.26301 2.62533 0
M  V30 2440 H 216.301 -6.54783 0.399455 0
M  V30 2441 H 216.218 -7.30214 1.95763 0
M  V30 2442 H 217.486 -7.74795 0.855181 0
M  V30 2443 N 221.715 -0.905404 -1.28997 0
M  V30 2444 C 222.963 -0.533192 -1.9494 0
M  V30 2445 C 223.284 0.924618 -1.71685 0
M  V30 2446 O 222.554 1.65268 -1.05183 0
M  V30 2447 H 221.134 -0.194194 -0.721317 0
M  V30 2448 H 223.796 -1.15294 -1.57141 0
M  V30 2449 H 222.892 -0.72059 -3.03667 0
M  V30 2450 N 223.193 1.4272 -0.668489 0
M  V30 2451 C 224.441 2.01226 -0.187769 0
M  V30 2452 C 224.762 1.53092 1.2078 0
M  V30 2453 O 224.032 0.74993 1.80977 0
M  V30 2454 H 222.612 0.744041 -0.0664272 0
M  V30 2455 H 225.274 1.74723 -0.863583 0
M  V30 2456 H 224.37 3.11556 -0.184166 0
M  V30 2457 N 224.671 0.411399 1.52136 0
M  V30 2458 C 225.896 -0.165538 2.06738 0
M  V30 2459 C 226.321 -1.379 1.27926 0
M  V30 2460 O 225.679 -1.78628 0.310114 0
M  V30 2461 C 225.727 -0.492124 3.57226 0
M  V30 2462 O 224.831 -1.58276 3.80818 0
M  V30 2463 H 224.172 -0.0132132 0.663869 0
M  V30 2464 H 226.702 0.585253 1.96051 0
M  V30 2465 H 226.712 -0.750104 4.01045 0
M  V30 2466 H 225.387 0.394922 4.14021 0
M  V30 2467 H 223.964 -1.31677 3.48877 0
M  V30 2468 N 226.149 -1.5696 0.141893 0
M  V30 2469 C 227.395 -1.97034 -0.504884 0
M  V30 2470 C 227.75 -1.02518 -1.62812 0
M  V30 2471 O 227.043 -0.0592943 -1.91508 0
M  V30 2472 C 227.237 -3.41242 -1.06249 0
M  V30 2473 C 227.066 -4.497 0.00519653 0
M  V30 2474 C 225.836 -5.03338 0.444873 0
M  V30 2475 C 228.034 -5.08122 0.794767 0
M  V30 2476 N 226.016 -5.95395 1.49593 0
M  V30 2477 C 227.387 -5.96339 1.69645 0
M  V30 2478 C 229.442 -4.9071 0.843122 0
M  V30 2479 C 228.145 -6.69009 2.64233 0
M  V30 2480 C 230.171 -5.64077 1.77681 0
M  V30 2481 C 229.533 -6.51999 2.66603 0
M  V30 2482 H 225.632 -0.766745 -0.153707 0
M  V30 2483 H 228.216 -1.93273 0.235313 0
M  V30 2484 H 226.387 -3.45606 -1.77231 0
M  V30 2485 H 228.119 -3.68389 -1.67546 0
M  V30 2486 H 224.874 -4.73576 0.0480959 0
M  V30 2487 H 225.298 -6.46128 2.02107 0
M  V30 2488 H 229.94 -4.22459 0.169732 0
M  V30 2489 H 227.658 -7.36492 3.32575 0
M  V30 2490 H 231.244 -5.52602 1.81996 0
M  V30 2491 H 230.124 -7.07775 3.37675 0
M  V30 2492 N 227.627 0.131896 -1.57047 0
M  V30 2493 C 228.557 1.16384 -2.02428 0
M  V30 2494 C 229.538 1.43936 -0.90644 0
M  V30 2495 O 230.723 1.54599 -1.17528 0
M  V30 2496 C 227.853 2.49328 -2.4177 0
M  V30 2497 C 226.807 2.36266 -3.56879 0
M  V30 2498 C 226.133 3.74057 -3.8208 0
M  V30 2499 C 227.433 1.834 -4.89042 0
M  V30 2500 H 229.127 0.786433 -2.88887 0
M  V30 2501 H 226.673 0.376855 -1.38981 0
M  V30 2502 H 228.626 3.21759 -2.7212 0
M  V30 2503 H 227.35 2.88934 -1.52266 0
M  V30 2504 H 226.009 1.66286 -3.26718 0
M  V30 2505 H 225.657 4.11125 -2.89803 0
M  V30 2506 H 225.357 3.66174 -4.59554 0
M  V30 2507 H 226.881 4.48012 -4.1487 0
M  V30 2508 H 228.295 2.45636 -5.18011 0
M  V30 2509 H 226.692 1.8637 -5.70426 0
M  V30 2510 H 227.762 0.790662 -4.7841 0
M  V30 2511 N 229.106 1.52395 0.401703 0
M  V30 2512 C 230.054 1.7689 1.51039 0
M  V30 2513 C 231.048 0.636298 1.56996 0
M  V30 2514 O 232.254 0.818507 1.60314 0
M  V30 2515 H 228.629 0.559502 0.502456 0
M  V30 2516 H 230.6 2.69757 1.27568 0
M  V30 2517 C 229.349 1.94331 2.88324 0
M  V30 2518 H 228.672 2.80905 2.84486 0
M  V30 2519 H 230.112 2.15466 3.65172 0
M  V30 2520 C 228.571 0.712396 3.29282 0
M  V30 2521 O 229.101 -0.116218 4.01532 0
M  V30 2522 N 227.307 0.546154 2.85422 0
M  V30 2523 H 226.854 1.22156 2.26794 0
M  V30 2524 H 226.812 -0.276113 3.13185 0
M  V30 2525 N 230.584 -0.659388 1.43143 0
M  V30 2526 C 231.995 -1.24041 1.39537 0
M  V30 2527 C 232.346 -1.95963 0.0963364 0
M  V30 2528 O 231.471 -2.00892 -0.804438 0
M  V30 2529 C 232.066 -2.25601 2.52764 0
M  V30 2530 C 230.625 -2.79195 2.52443 0
M  V30 2531 C 229.772 -1.53743 2.30778 0
M  V30 2532 H 232.723 -0.451792 1.52133 0
M  V30 2533 H 232.744 -3.07651 2.23899 0
M  V30 2534 H 232.256 -1.73226 3.47296 0
M  V30 2535 H 230.357 -3.35649 1.61773 0
M  V30 2536 H 230.47 -3.2716 3.50004 0
M  V30 2537 H 228.834 -1.80869 1.79328 0
M  V30 2538 H 229.617 -1.03312 3.27386 0
M  V30 2539 N 232.062 -1.29571 -0.897171 0
M  V30 2540 C 233.311 -1.1706 -1.64256 0
M  V30 2541 C 233.624 0.276476 -1.93636 0
M  V30 2542 O 234.83 0.52294 -2.66416 0
M  V30 2543 C 233.286 -2.0475 -2.95982 0
M  V30 2544 C 232.894 -3.54295 -2.74187 0
M  V30 2545 C 234.638 -2.0097 -3.73914 0
M  V30 2546 C 232.545 -4.34081 -4.01656 0
M  V30 2547 H 231.475 -0.43452 -0.616205 0
M  V30 2548 H 234.126 -1.54229 -0.994268 0
M  V30 2549 H 232.508 -1.60452 -3.62038 0
M  V30 2550 H 233.682 -4.06662 -2.1671 0
M  V30 2551 H 231.997 -3.59773 -2.09648 0
M  V30 2552 H 234.594 -2.57838 -4.68427 0
M  V30 2553 H 234.937 -0.990273 -4.0435 0
M  V30 2554 H 235.47 -2.43325 -3.14703 0
M  V30 2555 H 232.209 -5.36671 -3.76384 0
M  V30 2556 H 231.729 -3.86483 -4.58684 0
M  V30 2557 H 233.408 -4.44877 -4.69781 0
M  V30 2558 N 233.54 1.10788 -1.12088 0
M  V30 2559 C 234.472 2.16816 -0.743213 0
M  V30 2560 C 235.485 1.6119 0.228412 0
M  V30 2561 O 236.674 1.78497 0.0102931 0
M  V30 2562 C 233.774 3.38809 -0.0787313 0
M  V30 2563 C 232.947 4.23885 -1.0789 0
M  V30 2564 C 232.006 5.24334 -0.442713 0
M  V30 2565 O 231.032 5.58497 -1.09864 0
M  V30 2566 N 232.234 5.75079 0.791457 0
M  V30 2567 H 234.999 2.49825 -1.65552 0
M  V30 2568 H 232.56 1.26373 -1.012 0
M  V30 2569 H 234.552 4.03107 0.358766 0
M  V30 2570 H 233.122 3.03805 0.736275 0
M  V30 2571 H 232.342 3.55939 -1.69414 0
M  V30 2572 H 233.63 4.77562 -1.75533 0
M  V30 2573 H 233.028 5.49517 1.3434 0
M  V30 2574 H 231.585 6.4118 1.17183 0
M  V30 2575 N 235.018 0.912232 1.28515 0
M  V30 2576 C 236.243 0.559774 1.99703 0
M  V30 2577 C 236.668 -0.851393 1.67729 0
M  V30 2578 O 236.026 -1.56875 0.908834 0
M  V30 2579 C 236.074 0.773874 3.52198 0
M  V30 2580 O 235.178 -0.167842 4.12058 0
M  V30 2581 H 234.519 0.21723 0.627461 0
M  V30 2582 H 237.049 1.22725 1.63706 0
M  V30 2583 H 237.059 0.683386 4.02236 0
M  V30 2584 H 235.734 1.80261 3.74805 0
M  V30 2585 H 234.311 -0.0287509 3.72889 0
M  V30 2586 N 236.496 -1.42363 0.676048 0
M  V30 2587 C 237.912 -1.55811 0.345718 0
M  V30 2588 C 238.112 -1.65544 -1.14879 0
M  V30 2589 O 237.168 -1.62306 -1.93424 0
M  V30 2590 C 238.481 -2.80746 1.07713 0
M  V30 2591 C 240.029 -2.9452 1.05958 0
M  V30 2592 C 240.504 -4.22318 1.77233 0
M  V30 2593 N 241.995 -4.29233 1.74108 0
M  V30 2594 C 242.73 -5.26935 2.26113 0
M  V30 2595 N 242.226 -6.30783 2.86505 0
M  V30 2596 N 244.019 -5.18741 2.1648 0
M  V30 2597 H 236.17 -1.34289 1.6456 0
M  V30 2598 H 238.433 -0.646506 0.69335 0
M  V30 2599 H 238.139 -2.79696 2.13221 0
M  V30 2600 H 238.013 -3.71676 0.64316 0
M  V30 2601 H 240.4 -2.95097 0.0128255 0
M  V30 2602 H 240.481 -2.04817 1.53244 0
M  V30 2603 H 240.125 -4.22502 2.81877 0
M  V30 2604 H 240.055 -5.10958 1.27396 0
M  V30 2605 H 242.546 -3.54814 1.30059 0
M  V30 2606 H 242.859 -7.01691 3.23805 0
M  V30 2607 H 241.204 -6.31341 2.90575 0
M  V30 2608 H 244.395 -4.36533 1.68987 0
M  V30 2609 H 244.568 -5.94721 2.57316 0
M  V30 2610 N 237.974 -0.419461 -1.51915 0
M  V30 2611 C 238.922 0.415502 -2.28859 0
M  V30 2612 C 239.916 1.03674 -1.3397 0
M  V30 2613 O 241.122 0.973757 -1.51387 0
M  V30 2614 H 237.497 0.152786 -0.736315 0
M  V30 2615 H 239.468 -0.254531 -2.97312 0
M  V30 2616 C 238.217 1.51425 -3.12995 0
M  V30 2617 H 237.54 1.04556 -3.85886 0
M  V30 2618 H 238.98 2.07208 -3.6992 0
M  V30 2619 C 237.439 2.48745 -2.27217 0
M  V30 2620 O 237.969 3.52871 -1.9195 0
M  V30 2621 N 236.175 2.19202 -1.90785 0
M  V30 2622 H 235.722 1.34556 -2.19664 0
M  V30 2623 H 235.68 2.84561 -1.33687 0
M  V30 2624 N 239.452 1.56882 -0.150215 0
M  V30 2625 C 240.68 2.00593 0.506948 0
M  V30 2626 C 241.095 1.03033 1.58208 0
M  V30 2627 O 240.452 0.0278396 1.82479 0
M  V30 2628 C 240.503 3.44209 1.10465 0
M  V30 2629 O 240.224 4.3804 0.0724636 0
M  V30 2630 C 241.725 4.03214 1.84211 0
M  V30 2631 H 238.945 0.65795 0.13169 0
M  V30 2632 H 241.489 2.03018 -0.245743 0
M  V30 2633 H 239.644 3.42625 1.80795 0
M  V30 2634 H 240.058 5.22007 0.510793 0
M  V30 2635 H 241.532 5.0569 2.21318 0
M  V30 2636 H 242.009 3.44107 2.72923 0
M  V30 2637 H 242.615 4.08437 1.18572 0
M  V30 2638 N 240.93 -0.123565 1.57115 0
M  V30 2639 C 242.158 -0.846461 1.88793 0
M  V30 2640 C 242.573 -1.73652 0.740976 0
M  V30 2641 O 241.93 -1.80207 -0.288393 0
M  V30 2642 C 241.981 -1.6837 3.19897 0
M  V30 2643 O 241.702 -0.829477 4.30176 0
M  V30 2644 C 243.203 -2.51214 3.65248 0
M  V30 2645 H 240.423 -0.243573 0.625231 0
M  V30 2646 H 242.967 -0.109324 2.04208 0
M  V30 2647 H 241.122 -2.37364 3.06165 0
M  V30 2648 H 241.536 -1.40651 5.0529 0
M  V30 2649 H 243.01 -3.05497 4.59756 0
M  V30 2650 H 243.487 -3.28359 2.9168 0
M  V30 2651 H 244.093 -1.8747 3.81752 0
M  V30 2652 N 242.408 -1.52605 -0.393616 0
M  V30 2653 C 243.654 -1.67672 -1.14079 0
M  V30 2654 C 243.987 -0.413121 -1.89755 0
M  V30 2655 O 243.262 0.588952 -1.85369 0
M  V30 2656 C 243.545 -2.9088 -2.12276 0
M  V30 2657 C 243.398 -4.27329 -1.40394 0
M  V30 2658 C 244.717 -3.09628 -3.12759 0
M  V30 2659 H 241.836 -0.610168 -0.413356 0
M  V30 2660 H 244.478 -1.85193 -0.424696 0
M  V30 2661 H 242.628 -2.76073 -2.73342 0
M  V30 2662 H 244.3 -4.53894 -0.82327 0
M  V30 2663 H 242.543 -4.2802 -0.705801 0
M  V30 2664 H 243.214 -5.09615 -2.12123 0
M  V30 2665 H 245.69 -3.23436 -2.61779 0
M  V30 2666 H 244.566 -3.97322 -3.78717 0
M  V30 2667 H 244.827 -2.23637 -3.81365 0
M  V30 2668 N 243.887 0.651787 -1.4349 0
M  V30 2669 C 244.797 1.79368 -1.5121 0
M  V30 2670 C 245.813 1.69361 -0.399093 0
M  V30 2671 O 246.989 1.90505 -0.653431 0
M  V30 2672 C 244.054 3.15653 -1.43401 0
M  V30 2673 C 243.115 3.37446 -2.65384 0
M  V30 2674 C 242.348 4.67229 -2.57939 0
M  V30 2675 O 242.571 5.46676 -1.62792 0
M  V30 2676 O 241.505 4.90773 -3.48462 0
M  V30 2677 H 245.331 1.7581 -2.47638 0
M  V30 2678 H 242.916 0.810447 -1.25507 0
M  V30 2679 H 244.798 3.96935 -1.41494 0
M  V30 2680 H 243.473 3.19798 -0.501085 0
M  V30 2681 H 242.38 2.55923 -2.72863 0
M  V30 2682 H 243.713 3.38148 -3.57654 0
M  V30 2683 N 245.365 1.30045 0.890287 0
M  V30 2684 C 246.595 1.21296 1.67245 0
M  V30 2685 C 247.003 -0.227471 1.87828 0
M  V30 2686 O 246.346 -1.16296 1.422 0
M  V30 2687 C 246.408 1.86519 3.07329 0
M  V30 2688 C 246.072 3.35837 3.09939 0
M  V30 2689 C 247.069 4.31915 2.89389 0
M  V30 2690 C 244.754 3.77196 3.31706 0
M  V30 2691 C 246.748 5.67325 2.90552 0
M  V30 2692 C 244.435 5.12725 3.32499 0
M  V30 2693 C 245.433 6.076 3.11947 0
M  V30 2694 O 245.121 7.40655 3.12547 0
M  V30 2695 H 244.853 0.4211 0.528821 0
M  V30 2696 H 247.407 1.72111 1.12103 0
M  V30 2697 H 245.637 1.30228 3.64112 0
M  V30 2698 H 247.326 1.71963 3.67673 0
M  V30 2699 H 248.092 4.01294 2.72375 0
M  V30 2700 H 243.971 3.03796 3.4674 0
M  V30 2701 H 247.515 6.41354 2.74429 0
M  V30 2702 H 243.412 5.42988 3.49047 0
M  V30 2703 H 244.18 7.49577 3.28749 0
M  V30 2704 N 246.843 -1.10192 1.12674 0
M  V30 2705 C 248.089 -1.82475 0.884915 0
M  V30 2706 C 248.422 -1.85093 -0.58773 0
M  V30 2707 O 247.697 -1.3134 -1.43457 0
M  V30 2708 C 247.98 -3.29018 1.46353 0
M  V30 2709 C 247.833 -3.34718 3.00473 0
M  V30 2710 C 249.152 -4.25473 1.12519 0
M  V30 2711 H 246.271 -0.662492 0.322915 0
M  V30 2712 H 248.913 -1.2913 1.39375 0
M  V30 2713 H 247.063 -3.74576 1.03077 0
M  V30 2714 H 248.735 -2.97622 3.52447 0
M  V30 2715 H 246.978 -2.74541 3.35872 0
M  V30 2716 H 247.649 -4.37918 3.36053 0
M  V30 2717 H 250.125 -3.88161 1.499 0
M  V30 2718 H 249.001 -5.26365 1.55663 0
M  V30 2719 H 249.262 -4.42084 0.0377407 0
M  V30 2720 N 248.321 -0.919034 -1.28029 0
M  V30 2721 C 249.549 -0.570971 -1.98866 0
M  V30 2722 C 249.964 0.848996 -1.68634 0
M  V30 2723 O 249.321 1.56307 -0.942036 0
M  V30 2724 C 249.372 -0.776876 -3.53054 0
M  V30 2725 O 249.093 -2.14097 -3.82222 0
M  V30 2726 C 250.594 -0.436356 -4.41147 0
M  V30 2727 H 247.814 -0.217175 -0.634883 0
M  V30 2728 H 250.358 -1.23368 -1.63097 0
M  V30 2729 H 248.513 -0.161085 -3.87065 0
M  V30 2730 H 248.927 -2.18455 -4.76841 0
M  V30 2731 H 250.401 -0.63117 -5.4838 0
M  V30 2732 H 250.878 0.627686 -4.34692 0
M  V30 2733 H 251.484 -1.02991 -4.12641 0
M  V30 2734 N 249.799 1.42003 -0.683588 0
M  V30 2735 C 251.046 2.01413 -0.209514 0
M  V30 2736 C 251.374 1.54088 1.1869 0
M  V30 2737 O 250.629 0.737591 1.81268 0
M  V30 2738 C 250.928 3.56827 -0.202357 0
M  V30 2739 C 250.594 4.23617 -1.54464 0
M  V30 2740 C 249.256 4.41577 -1.91215 0
M  V30 2741 C 251.608 4.61178 -2.42826 0
M  V30 2742 C 248.936 4.9437 -3.15935 0
M  V30 2743 C 251.288 5.15355 -3.66867 0
M  V30 2744 C 249.952 5.31528 -4.03776 0
M  V30 2745 H 249.222 0.737023 -0.0766668 0
M  V30 2746 H 251.869 1.70067 -0.880312 0
M  V30 2747 H 250.174 3.87892 0.551969 0
M  V30 2748 H 251.871 4.00588 0.181793 0
M  V30 2749 H 248.461 4.10004 -1.24877 0
M  V30 2750 H 252.645 4.46968 -2.15717 0
M  V30 2751 H 247.901 5.05076 -3.44541 0
M  V30 2752 H 252.075 5.43402 -4.35531 0
M  V30 2753 H 249.702 5.72199 -5.00492 0
M  V30 2754 N 251.277 0.427512 1.51691 0
M  V30 2755 C 252.505 -0.141191 2.06418 0
M  V30 2756 C 252.92 -1.37303 1.29589 0
M  V30 2757 O 252.277 -1.79059 0.352732 0
M  V30 2758 C 252.328 -0.473266 3.58389 0
M  V30 2759 O 252.049 0.709673 4.32314 0
M  V30 2760 C 253.55 -1.09371 4.29596 0
M  V30 2761 H 250.77 -0.0122747 0.670888 0
M  V30 2762 H 253.314 0.603764 1.95384 0
M  V30 2763 H 251.469 -1.16812 3.69369 0
M  V30 2764 H 251.883 0.42807 5.2275 0
M  V30 2765 H 253.357 -1.27613 5.37046 0
M  V30 2766 H 253.834 -2.072 3.87253 0
M  V30 2767 H 254.44 -0.43853 4.23033 0
M  V30 2768 N 252.755 -1.56801 0.158532 0
M  V30 2769 C 253.98 -2.01295 -0.499516 0
M  V30 2770 C 254.405 -1.03799 -1.56867 0
M  V30 2771 O 253.763 -0.0155162 -1.81293 0
M  V30 2772 C 253.811 -3.44469 -1.06647 0
M  V30 2773 O 252.915 -3.50012 -2.18095 0
M  V30 2774 H 252.256 -0.652884 -0.12099 0
M  V30 2775 H 254.786 -2.02958 0.258661 0
M  V30 2776 H 254.796 -3.8351 -1.39227 0
M  V30 2777 H 253.471 -4.14932 -0.283581 0
M  V30 2778 H 252.048 -3.22822 -1.86656 0
M  V30 2779 N 254.233 0.115231 -1.57178 0
M  V30 2780 C 255.482 0.820945 -1.84237 0
M  V30 2781 C 255.795 1.80866 -0.744761 0
M  V30 2782 O 257.001 2.56083 -0.901871 0
M  V30 2783 C 255.457 1.51072 -3.26658 0
M  V30 2784 C 255.065 0.563795 -4.44438 0
M  V30 2785 C 256.809 2.20134 -3.62962 0
M  V30 2786 C 254.716 1.25701 -5.77887 0
M  V30 2787 H 253.646 0.310328 -0.687177 0
M  V30 2788 H 256.297 0.0737134 -1.83352 0
M  V30 2789 H 254.679 2.30471 -3.22024 0
M  V30 2790 H 255.853 -0.197247 -4.60378 0
M  V30 2791 H 254.168 -0.0200638 -4.16395 0
M  V30 2792 H 256.765 2.72696 -4.59936 0
M  V30 2793 H 257.108 2.98107 -2.90582 0
M  V30 2794 H 257.641 1.47619 -3.69396 0
M  V30 2795 H 254.38 0.518493 -6.53446 0
M  V30 2796 H 253.9 1.98997 -5.65827 0
M  V30 2797 H 255.579 1.78915 -6.2177 0
M  V30 2798 N 255.711 1.52812 0.385517 0
M  V30 2799 C 256.674 1.77188 1.45386 0
M  V30 2800 C 257.674 0.641953 1.4743 0
M  V30 2801 O 258.864 0.910033 1.4854 0
M  V30 2802 C 255.996 1.87582 2.8465 0
M  V30 2803 H 257.189 2.72583 1.25054 0
M  V30 2804 H 254.742 1.43586 0.617467 0
M  V30 2805 H 255.477 0.941849 3.10322 0
M  V30 2806 H 255.262 2.69748 2.84567 0
M  V30 2807 H 256.752 2.08102 3.62054 0
M  V30 2808 N 257.189 -0.644168 1.43834 0
M  V30 2809 C 258.437 -1.40117 1.45642 0
M  V30 2810 C 258.758 -1.94814 0.0852413 0
M  V30 2811 O 258.028 -1.74988 -0.880688 0
M  V30 2812 H 256.608 -0.52005 0.536243 0
M  V30 2813 H 259.27 -0.7591 1.7951 0
M  V30 2814 H 258.366 -2.23902 2.17427 0
M  V30 2815 N 258.668 -1.30515 -0.883378 0
M  V30 2816 C 259.598 -1.19607 -2.00541 0
M  V30 2817 C 260.579 -0.086346 -1.69881 0
M  V30 2818 O 261.764 -0.268654 -1.92333 0
M  V30 2819 C 258.894 -0.888758 -3.35736 0
M  V30 2820 C 257.848 -1.95659 -3.8066 0
M  V30 2821 C 257.174 -1.50224 -5.13164 0
M  V30 2822 C 258.474 -3.36788 -3.99213 0
M  V30 2823 H 260.168 -2.13476 -2.09925 0
M  V30 2824 H 257.714 -1.02775 -1.00863 0
M  V30 2825 H 259.667 -0.799094 -4.13754 0
M  V30 2826 H 258.391 0.0856125 -3.26488 0
M  V30 2827 H 257.05 -2.03591 -3.04871 0
M  V30 2828 H 256.698 -0.516092 -5.00345 0
M  V30 2829 H 256.398 -2.2165 -5.44192 0
M  V30 2830 H 257.922 -1.42639 -5.93706 0
M  V30 2831 H 259.336 -3.31605 -4.67665 0
M  V30 2832 H 257.733 -4.06314 -4.41621 0
M  V30 2833 H 258.803 -3.78561 -3.03017 0
M  V30 2834 N 260.146 1.09593 -1.13257 0
M  V30 2835 C 261.374 1.855 -0.916378 0
M  V30 2836 C 261.789 1.81069 0.534738 0
M  V30 2837 O 261.146 1.20562 1.37007 0
M  V30 2838 C 261.197 3.33546 -1.39388 0
M  V30 2839 O 260.918 3.37927 -2.78813 0
M  V30 2840 C 262.419 4.26299 -1.21588 0
M  V30 2841 H 259.639 0.585991 -0.326887 0
M  V30 2842 H 262.183 1.38488 -1.5047 0
M  V30 2843 H 260.338 3.77992 -0.848597 0
M  V30 2844 H 260.752 4.30254 -2.9997 0
M  V30 2845 H 262.226 5.28341 -1.59876 0
M  V30 2846 H 262.703 4.38918 -0.157376 0
M  V30 2847 H 263.309 3.87668 -1.7491 0
M  V30 2848 N 261.624 0.925811 1.2754 0
M  V30 2849 C 262.872 0.564138 1.94067 0
M  V30 2850 C 263.193 -0.897188 1.73134 0
M  V30 2851 O 262.463 -1.63573 1.07799 0
M  V30 2852 H 261.043 0.205645 0.718136 0
M  V30 2853 H 263.705 1.1778 1.55287 0
M  V30 2854 H 262.801 0.76881 3.02483 0
M  V30 2855 N 263.102 -1.41638 0.69111 0
M  V30 2856 C 264.348 -2.01598 0.220519 0
M  V30 2857 C 264.681 -1.54594 -1.17535 0
M  V30 2858 O 263.956 -0.755177 -1.79241 0
M  V30 2859 C 264.239 -3.59062 0.273243 0
M  V30 2860 C 264.092 -4.16203 1.70573 0
M  V30 2861 C 265.411 -4.38546 -0.369457 0
M  V30 2862 H 262.53 -0.732468 0.0816045 0
M  V30 2863 H 265.172 -1.68445 0.878986 0
M  V30 2864 H 263.322 -3.87435 -0.287411 0
M  V30 2865 H 264.994 -3.98722 2.31989 0
M  V30 2866 H 263.237 -3.71414 2.2413 0
M  V30 2867 H 263.908 -5.25358 1.69419 0
M  V30 2868 H 266.384 -4.1596 0.107977 0
M  V30 2869 H 265.26 -5.48069 -0.302002 0
M  V30 2870 H 265.521 -4.17662 -1.44951 0
M  V30 2871 N 264.58 -0.43555 -1.51462 0
M  V30 2872 C 265.829 0.133007 -2.01261 0
M  V30 2873 C 266.142 1.43942 -1.32439 0
M  V30 2874 O 267.348 2.09081 -1.73198 0
M  V30 2875 C 265.804 0.287581 -3.58749 0
M  V30 2876 C 265.412 -1.00829 -4.36506 0
M  V30 2877 C 267.156 0.810004 -4.167 0
M  V30 2878 C 265.063 -0.819454 -5.85695 0
M  V30 2879 H 263.993 0.0534822 -0.752101 0
M  V30 2880 H 266.644 -0.565038 -1.74584 0
M  V30 2881 H 265.026 1.04859 -3.81865 0
M  V30 2882 H 266.2 -1.77749 -4.25138 0
M  V30 2883 H 264.515 -1.45911 -3.89999 0
M  V30 2884 H 267.112 0.967743 -5.2587 0
M  V30 2885 H 267.455 1.79196 -3.75758 0
M  V30 2886 H 267.988 0.107357 -3.97655 0
M  V30 2887 H 264.727 -1.77374 -6.31046 0
M  V30 2888 H 264.247 -0.0900208 -5.99732 0
M  V30 2889 H 265.926 -0.471949 -6.45276 0
M  V30 2890 N 266.058 1.56714 -0.166846 0
M  V30 2891 C 266.991 2.13577 0.80375 0
M  V30 2892 C 267.969 1.06464 1.22899 0
M  V30 2893 O 269.153 1.34413 1.32157 0
M  V30 2894 C 266.28 2.67168 2.0818 0
M  V30 2895 C 265.326 3.86612 1.80093 0
M  V30 2896 S 266.159 5.26565 0.97416 0
M  V30 2897 C 267.315 5.83558 2.26297 0
M  V30 2898 H 267.548 2.9557 0.320267 0
M  V30 2899 H 265.081 1.54326 0.0477555 0
M  V30 2900 H 267.039 2.98692 2.8159 0
M  V30 2901 H 265.7 1.85269 2.53642 0
M  V30 2902 H 264.893 4.22422 2.7491 0
M  V30 2903 H 264.495 3.55951 1.14781 0
M  V30 2904 H 266.787 5.962 3.21795 0
M  V30 2905 H 267.73 6.80731 1.94962 0
M  V30 2906 H 268.138 5.11944 2.37853 0
M  V30 2907 N 267.536 -0.106894 1.57237 0
M  V30 2908 C 268.764 -0.826389 1.8968 0
M  V30 2909 C 269.179 -1.72856 0.759353 0
M  V30 2910 O 268.536 -1.80503 -0.269263 0
M  V30 2911 C 268.587 -1.64967 3.21665 0
M  V30 2912 O 268.308 -0.783804 4.31031 0
M  V30 2913 C 269.809 -2.47326 3.67892 0
M  V30 2914 H 267.029 -0.236927 0.627779 0
M  V30 2915 H 269.573 -0.0876593 2.04312 0
M  V30 2916 H 267.728 -2.34103 3.08666 0
M  V30 2917 H 268.142 -1.35284 5.06753 0
M  V30 2918 H 269.616 -3.00604 4.6297 0
M  V30 2919 H 270.093 -3.25247 2.95146 0
M  V30 2920 H 270.699 -1.83411 3.83719 0
M  V30 2921 N 269.014 -1.53014 -0.377408 0
M  V30 2922 C 270.263 -1.67845 -1.11853 0
M  V30 2923 C 270.576 -0.430625 -1.90801 0
M  V30 2924 O 271.782 -0.459261 -2.67587 0
M  V30 2925 C 270.238 -2.96668 -2.03756 0
M  V30 2926 C 269.846 -4.28671 -1.30175 0
M  V30 2927 C 271.59 -3.20865 -2.77932 0
M  V30 2928 C 269.497 -5.48591 -2.20911 0
M  V30 2929 H 268.427 -0.625343 -0.421263 0
M  V30 2930 H 271.078 -1.79514 -0.380409 0
M  V30 2931 H 269.46 -2.78773 -2.8125 0
M  V30 2932 H 270.634 -4.57157 -0.578259 0
M  V30 2933 H 268.949 -4.10825 -0.679108 0
M  V30 2934 H 271.546 -4.07642 -3.46024 0
M  V30 2935 H 271.889 -2.36424 -3.4265 0
M  V30 2936 H 272.422 -3.39379 -2.07525 0
M  V30 2937 H 269.161 -6.35474 -1.6079 0
M  V30 2938 H 268.681 -5.244 -2.91144 0
M  V30 2939 H 270.36 -5.8292 -2.80736 0
M  V30 2940 N 270.492 0.636531 -1.44174 0
M  V30 2941 C 271.455 1.73063 -1.50273 0
M  V30 2942 C 272.455 1.56113 -0.385397 0
M  V30 2943 O 273.645 1.61707 -0.64781 0
M  V30 2944 C 270.777 3.12096 -1.37145 0
M  V30 2945 H 271.97 1.69031 -2.47727 0
M  V30 2946 H 269.523 0.849706 -1.31186 0
M  V30 2947 H 270.258 3.21728 -0.407636 0
M  V30 2948 H 270.043 3.25805 -2.18159 0
M  V30 2949 H 271.533 3.91846 -1.44382 0
M  V30 2950 N 271.97 1.30982 0.876444 0
M  V30 2951 C 272.9 1.20668 1.99903 0
M  V30 2952 C 273.881 0.095354 1.69833 0
M  V30 2953 O 275.066 0.27885 1.92188 0
M  V30 2954 C 272.196 0.90655 3.3526 0
M  V30 2955 C 271.15 1.97675 3.79617 0
M  V30 2956 C 270.476 1.52943 5.1236 0
M  V30 2957 C 271.776 3.389 3.97422 0
M  V30 2958 H 273.47 2.14586 2.0879 0
M  V30 2959 H 271.016 1.03308 1.00317 0
M  V30 2960 H 272.969 0.821025 4.13324 0
M  V30 2961 H 271.693 -0.0682969 3.26529 0
M  V30 2962 H 270.352 2.05205 3.03787 0
M  V30 2963 H 270 0.54262 5.00065 0
M  V30 2964 H 269.7 2.24532 5.43009 0
M  V30 2965 H 271.224 1.45786 5.92941 0
M  V30 2966 H 272.638 3.34081 4.659 0
M  V30 2967 H 271.035 4.0865 4.3946 0
M  V30 2968 H 272.105 3.80163 3.01006 0
M  V30 2969 N 273.449 -1.08991 1.13837 0
M  V30 2970 C 274.698 -1.80631 0.897509 0
M  V30 2971 C 275.011 -1.86872 -0.57777 0
M  V30 2972 O 276.217 -2.54866 -0.935701 0
M  V30 2973 C 274.673 -3.24517 1.55618 0
M  V30 2974 C 274.281 -3.26529 3.0673 0
M  V30 2975 C 276.025 -4.00882 1.3962 0
M  V30 2976 C 273.932 -4.64965 3.65461 0
M  V30 2977 H 272.862 -0.67691 0.332129 0
M  V30 2978 H 275.513 -1.2246 1.3666 0
M  V30 2979 H 273.895 -3.82778 1.01476 0
M  V30 2980 H 275.069 -2.78008 3.67489 0
M  V30 2981 H 273.384 -2.63656 3.22296 0
M  V30 2982 H 275.981 -5.03167 1.80906 0
M  V30 2983 H 276.324 -4.14896 0.341578 0
M  V30 2984 H 276.857 -3.49075 1.90766 0
M  V30 2985 H 273.596 -4.56153 4.70749 0
M  V30 2986 H 273.116 -5.13792 3.09481 0
M  V30 2987 H 274.795 -5.3394 3.654 0
M  V30 2988 N 274.927 -0.932562 -1.27047 0
M  V30 2989 C 275.857 -0.452902 -2.29066 0
M  V30 2990 C 276.838 0.489338 -1.62909 0
M  V30 2991 O 278.023 0.393046 -1.90181 0
M  V30 2992 C 275.153 0.290698 -3.46081 0
M  V30 2993 C 274.107 -0.564168 -4.24265 0
M  V30 2994 C 273.433 0.308886 -5.33807 0
M  V30 2995 C 274.733 -1.83112 -4.89149 0
M  V30 2996 H 276.427 -1.30552 -2.69437 0
M  V30 2997 H 273.973 -0.629201 -1.29526 0
M  V30 2998 H 275.926 0.637233 -4.16554 0
M  V30 2999 H 274.65 1.17738 -3.0464 0
M  V30 3000 H 273.309 -0.893477 -3.55545 0
M  V30 3001 H 272.957 1.19467 -4.88607 0
M  V30 3002 H 272.657 -0.259633 -5.87026 0
M  V30 3003 H 274.181 0.650884 -6.07121 0
M  V30 3004 H 275.595 -1.55236 -5.51883 0
M  V30 3005 H 273.992 -2.34353 -5.52448 0
M  V30 3006 H 275.062 -2.54772 -4.12576 0
M  V30 3007 N 276.405 1.4127 -0.698611 0
M  V30 3008 C 277.338 2.28195 0.0153898 0
M  V30 3009 C 278.316 1.42402 0.784883 0
M  V30 3010 O 279.5 1.71828 0.775067 0
M  V30 3011 C 276.627 3.22685 1.02918 0
M  V30 3012 C 275.673 4.25041 0.352501 0
M  V30 3013 S 276.506 5.27757 -0.907322 0
M  V30 3014 C 277.662 6.25812 0.104796 0
M  V30 3015 H 277.895 2.88403 -0.721858 0
M  V30 3016 H 275.428 1.46452 -0.488996 0
M  V30 3017 H 277.386 3.77655 1.60893 0
M  V30 3018 H 276.047 2.61566 1.73902 0
M  V30 3019 H 275.24 4.91437 1.11828 0
M  V30 3020 H 274.842 3.73682 -0.154254 0
M  V30 3021 H 277.134 6.70705 0.957103 0
M  V30 3022 H 278.077 7.06149 -0.525323 0
M  V30 3023 H 278.485 5.62615 0.460931 0
M  V30 3024 N 277.883 0.443576 1.51229 0
M  V30 3025 C 279.129 -0.120975 2.02439 0
M  V30 3026 C 279.462 -1.41815 1.32674 0
M  V30 3027 O 278.737 -1.89373 0.443622 0
M  V30 3028 C 279.02 -0.333291 3.58554 0
M  V30 3029 C 278.873 0.982968 4.38928 0
M  V30 3030 C 280.192 -1.10028 4.26124 0
M  V30 3031 H 277.311 -0.0424923 0.735774 0
M  V30 3032 H 279.953 0.583794 1.80809 0
M  V30 3033 H 278.103 -0.933614 3.77115 0
M  V30 3034 H 279.775 1.61775 4.32003 0
M  V30 3035 H 278.018 1.58611 4.03763 0
M  V30 3036 H 278.689 0.788379 5.46341 0
M  V30 3037 H 281.165 -0.591711 4.11871 0
M  V30 3038 H 280.041 -1.21761 5.35225 0
M  V30 3039 H 280.302 -2.12996 3.87408 0
M  V30 3040 N 279.361 -1.56624 0.175154 0
M  V30 3041 C 280.589 -2.01374 -0.474971 0
M  V30 3042 C 281.004 -1.05537 -1.56548 0
M  V30 3043 O 280.361 -0.0568668 -1.82411 0
M  V30 3044 C 280.412 -3.45923 -1.04975 0
M  V30 3045 O 280.133 -4.381 -0.00276605 0
M  V30 3046 C 281.634 -4.06093 -1.77773 0
M  V30 3047 H 278.854 -0.659962 -0.121206 0
M  V30 3048 H 281.398 -2.02601 0.27801 0
M  V30 3049 H 279.553 -3.45458 -1.75321 0
M  V30 3050 H 279.967 -5.22753 -0.427681 0
M  V30 3051 H 281.441 -5.09147 -2.13245 0
M  V30 3052 H 281.918 -3.48405 -2.67414 0
M  V30 3053 H 282.524 -4.10272 -1.12059 0
M  V30 3054 N 280.839 0.0985539 -1.57292 0
M  V30 3055 C 282.064 0.820196 -1.90493 0
M  V30 3056 C 282.489 1.71658 -0.769094 0
M  V30 3057 O 281.847 1.79133 0.279495 0
M  V30 3058 C 281.895 1.61242 -3.22542 0
M  V30 3059 O 280.999 2.72108 -3.09888 0
M  V30 3060 H 280.34 0.225547 -0.62452 0
M  V30 3061 H 282.87 0.0748159 -2.04463 0
M  V30 3062 H 282.88 1.99737 -3.55766 0
M  V30 3063 H 281.555 0.954535 -4.04798 0
M  V30 3064 H 280.132 2.36667 -2.88172 0
M  V30 3065 N 282.317 1.53212 0.369288 0
M  V30 3066 C 283.28 1.7872 1.43498 0
M  V30 3067 C 284.28 0.657554 1.46741 0
M  V30 3068 O 285.47 0.925736 1.47566 0
M  V30 3069 C 282.602 1.90591 2.82645 0
M  V30 3070 H 283.795 2.73894 1.22156 0
M  V30 3071 H 281.348 1.44233 0.602203 0
M  V30 3072 H 282.083 0.974709 3.09306 0
M  V30 3073 H 281.868 2.72751 2.8169 0
M  V30 3074 H 283.358 2.11931 3.59826 0
M  V30 3075 N 283.795 -0.628877 1.44509 0
M  V30 3076 C 285.023 -1.41554 1.50897 0
M  V30 3077 C 285.438 -1.8832 0.134564 0
M  V30 3078 O 284.795 -1.60969 -0.859965 0
M  V30 3079 C 284.846 -2.63435 2.47556 0
M  V30 3080 O 284.567 -2.18619 3.79654 0
M  V30 3081 C 286.068 -3.56537 2.63431 0
M  V30 3082 H 283.288 -0.434044 0.511709 0
M  V30 3083 H 285.832 -0.768895 1.89495 0
M  V30 3084 H 283.987 -3.24187 2.12089 0
M  V30 3085 H 284.401 -2.97652 4.31861 0
M  V30 3086 H 285.875 -4.38657 3.35088 0
M  V30 3087 H 286.352 -4.05493 1.68738 0
M  V30 3088 H 286.958 -3.01653 2.9981 0
M  V30 3089 N 285.273 -1.31445 -0.869486 0
M  V30 3090 C 286.183 -1.21097 -2.0093 0
M  V30 3091 C 287.199 -0.127584 -1.73532 0
M  V30 3092 O 288.375 -0.345477 -1.98415 0
M  V30 3093 C 285.44 -0.919378 -3.34288 0
M  V30 3094 C 284.501 -2.08971 -3.75006 0
M  V30 3095 C 283.734 -1.81194 -5.02001 0
M  V30 3096 O 283.957 -0.747296 -5.65484 0
M  V30 3097 O 282.891 -2.66883 -5.39497 0
M  V30 3098 H 286.717 -2.16883 -2.12592 0
M  V30 3099 H 284.302 -1.11189 -0.997868 0
M  V30 3100 H 286.184 -0.772625 -4.14257 0
M  V30 3101 H 284.859 0.00844772 -3.23699 0
M  V30 3102 H 283.766 -2.29187 -2.95676 0
M  V30 3103 H 285.099 -2.9998 -3.90221 0
M  V30 3104 N 286.751 1.08385 -1.14413 0
M  V30 3105 C 287.998 1.80776 -0.912482 0
M  V30 3106 C 288.326 1.86236 0.560934 0
M  V30 3107 O 287.581 1.33431 1.43159 0
M  V30 3108 C 287.88 3.26273 -1.45879 0
M  V30 3109 C 287.546 3.4093 -2.95089 0
M  V30 3110 C 286.208 3.44638 -3.35824 0
M  V30 3111 C 288.56 3.44591 -3.91033 0
M  V30 3112 C 285.888 3.49597 -4.71167 0
M  V30 3113 C 288.24 3.51086 -5.26233 0
M  V30 3114 C 286.904 3.53067 -5.6648 0
M  V30 3115 H 286.174 0.661507 -0.333901 0
M  V30 3116 H 288.821 1.27613 -1.42784 0
M  V30 3117 H 287.126 3.82146 -0.864376 0
M  V30 3118 H 288.823 3.80839 -1.2555 0
M  V30 3119 H 285.413 3.38736 -2.62594 0
M  V30 3120 H 289.597 3.40957 -3.60641 0
M  V30 3121 H 284.853 3.49424 -5.0171 0
M  V30 3122 H 289.027 3.52864 -6.00383 0
M  V30 3123 H 286.654 3.56662 -6.71339 0
M  V30 3124 N 288.23 0.939286 1.26551 0
M  V30 3125 C 289.479 0.581601 1.93133 0
M  V30 3126 C 289.792 -0.883224 1.74524 0
M  V30 3127 O 290.998 -1.3502 2.35546 0
M  V30 3128 C 289.454 0.989425 3.46032 0
M  V30 3129 C 289.062 2.47573 3.73379 0
M  V30 3130 C 290.806 0.703544 4.18629 0
M  V30 3131 C 288.713 2.82235 5.19709 0
M  V30 3132 H 287.643 0.213803 0.723052 0
M  V30 3133 H 290.294 1.14167 1.4366 0
M  V30 3134 H 288.676 0.357902 3.94379 0
M  V30 3135 H 289.85 3.15614 3.35744 0
M  V30 3136 H 288.165 2.73471 3.1401 0
M  V30 3137 H 290.762 0.938869 5.26393 0
M  V30 3138 H 291.105 -0.359639 4.14744 0
M  V30 3139 H 291.638 1.2947 3.76141 0
M  V30 3140 H 288.377 3.87509 5.28694 0
M  V30 3141 H 287.897 2.18854 5.58447 0
M  V30 3142 H 289.576 2.70599 5.87695 0
M  V30 3143 N 289.708 -1.40897 0.706093 0
M  V30 3144 C 291.124 -1.55042 0.37869 0
M  V30 3145 C 291.324 -1.67944 -1.11342 0
M  V30 3146 O 290.38 -1.66372 -1.89938 0
M  V30 3147 C 291.693 -2.78398 1.13643 0
M  V30 3148 C 293.241 -2.92206 1.12181 0
M  V30 3149 C 293.716 -4.18463 1.86152 0
M  V30 3150 N 295.207 -4.25443 1.83173 0
M  V30 3151 C 295.942 -5.2202 2.37239 0
M  V30 3152 N 295.438 -6.24563 2.99821 0
M  V30 3153 N 297.231 -5.14033 2.27435 0
M  V30 3154 H 289.382 -1.30769 1.67372 0
M  V30 3155 H 291.645 -0.631653 0.706907 0
M  V30 3156 H 291.351 -2.7511 2.19106 0
M  V30 3157 H 291.225 -3.70228 0.721853 0
M  V30 3158 H 293.612 -2.95004 0.0754171 0
M  V30 3159 H 293.693 -2.01521 1.57554 0
M  V30 3160 H 293.337 -4.16427 2.90776 0
M  V30 3161 H 293.267 -5.08141 1.38206 0
M  V30 3162 H 295.758 -3.51976 1.37556 0
M  V30 3163 H 296.071 -6.94665 3.38616 0
M  V30 3164 H 294.416 -6.25035 3.03902 0
M  V30 3165 H 297.607 -4.3285 1.78208 0
M  V30 3166 H 297.78 -5.89129 2.69873 0
M  V30 3167 N 291.186 -0.45159 -1.50991 0
M  V30 3168 C 292.602 -0.104647 -1.59257 0
M  V30 3169 C 292.802 1.38728 -1.4614 0
M  V30 3170 O 291.858 2.15866 -1.30989 0
M  V30 3171 C 293.171 -0.637468 -2.93865 0
M  V30 3172 C 294.719 -0.599166 -3.07212 0
M  V30 3173 C 295.194 -1.1092 -4.44366 0
M  V30 3174 N 296.685 -1.06778 -4.50725 0
M  V30 3175 C 297.42 -1.43314 -5.55201 0
M  V30 3176 N 296.916 -1.87204 -6.67028 0
M  V30 3177 N 298.709 -1.3504 -5.45638 0
M  V30 3178 H 290.86 -1.42214 -1.57762 0
M  V30 3179 H 293.123 -0.586921 -0.744465 0
M  V30 3180 H 292.829 -1.68187 -3.08879 0
M  V30 3181 H 292.703 -0.0702139 -3.77135 0
M  V30 3182 H 295.09 0.436277 -2.91857 0
M  V30 3183 H 295.171 -1.20299 -2.25747 0
M  V30 3184 H 294.815 -2.14318 -4.60467 0
M  V30 3185 H 294.745 -0.481773 -5.24392 0
M  V30 3186 H 297.236 -0.745643 -3.70471 0
M  V30 3187 H 297.549 -2.13282 -7.42786 0
M  V30 3188 H 295.894 -1.91142 -6.68199 0
M  V30 3189 H 299.085 -1.00607 -4.57161 0
M  V30 3190 H 299.258 -1.63841 -6.26945 0
M  V30 3191 N 292.664 1.56529 -0.183458 0
M  V30 3192 C 293.889 2.02064 0.467428 0
M  V30 3193 C 294.314 1.06282 1.55196 0
M  V30 3194 O 293.672 0.0443565 1.81246 0
M  V30 3195 C 293.72 3.46122 1.01153 0
M  V30 3196 O 292.824 3.53437 2.12499 0
M  V30 3197 H 292.165 0.654726 0.110588 0
M  V30 3198 H 294.695 2.02521 -0.290917 0
M  V30 3199 H 294.705 3.85676 1.33108 0
M  V30 3200 H 293.38 4.15331 0.217533 0
M  V30 3201 H 291.957 3.2575 1.81497 0
M  V30 3202 N 294.142 -0.090211 1.57342 0
M  V30 3203 C 295.372 -0.805055 1.90269 0
M  V30 3204 C 295.78 -1.72561 0.775842 0
M  V30 3205 O 295.123 -1.81839 -0.260843 0
M  V30 3206 C 295.185 -1.66734 3.18497 0
M  V30 3207 C 294.849 -0.918092 4.47683 0
M  V30 3208 C 295.846 -0.245674 5.19319 0
M  V30 3209 C 293.531 -0.890724 4.94339 0
M  V30 3210 C 295.525 0.444088 6.35851 0
M  V30 3211 C 293.212 -0.197179 6.10782 0
M  V30 3212 C 294.21 0.469044 6.81388 0
M  V30 3213 O 293.898 1.15146 7.95611 0
M  V30 3214 H 293.63 -0.235143 0.633785 0
M  V30 3215 H 296.184 -0.0703805 2.05279 0
M  V30 3216 H 294.414 -2.44437 2.99646 0
M  V30 3217 H 296.103 -2.25919 3.37217 0
M  V30 3218 H 296.869 -0.258246 4.84312 0
M  V30 3219 H 292.748 -1.39873 4.39268 0
M  V30 3220 H 296.292 0.964667 6.90898 0
M  V30 3221 H 292.189 -0.18247 6.45242 0
M  V30 3222 H 292.957 1.05885 8.11622 0
M  V30 3223 N 295.62 -1.53406 -0.361157 0
M  V30 3224 C 296.867 -1.69802 -1.10333 0
M  V30 3225 C 297.195 -0.452087 -1.89173 0
M  V30 3226 O 296.45 0.566017 -1.87336 0
M  V30 3227 C 296.749 -2.90211 -2.08596 0
M  V30 3228 C 296.415 -4.26539 -1.46203 0
M  V30 3229 C 295.077 -4.6361 -1.28915 0
M  V30 3230 C 297.429 -5.113 -1.01101 0
M  V30 3231 C 294.757 -5.83075 -0.651157 0
M  V30 3232 C 297.109 -6.31415 -0.387007 0
M  V30 3233 C 295.773 -6.67195 -0.201657 0
M  V30 3234 H 295.043 -0.621351 -0.403737 0
M  V30 3235 H 297.69 -1.87598 -0.384609 0
M  V30 3236 H 295.995 -2.66946 -2.86788 0
M  V30 3237 H 297.692 -3.00091 -2.65982 0
M  V30 3238 H 294.282 -3.97352 -1.60653 0
M  V30 3239 H 298.466 -4.83206 -1.13249 0
M  V30 3240 H 293.722 -6.09385 -0.496006 0
M  V30 3241 H 297.896 -6.96394 -0.0293563 0
M  V30 3242 H 295.523 -7.59628 0.294766 0
M  V30 3243 N 297.098 0.621204 -1.44841 0
M  V30 3244 C 298.008 1.7612 -1.5498 0
M  V30 3245 C 299.024 1.68477 -0.434927 0
M  V30 3246 O 300.2 1.89076 -0.693693 0
M  V30 3247 C 297.265 3.1254 -1.50065 0
M  V30 3248 C 296.326 3.31741 -2.72482 0
M  V30 3249 C 295.559 4.61653 -2.67792 0
M  V30 3250 O 295.782 5.431 -1.74352 0
M  V30 3251 O 294.716 4.83271 -3.58794 0
M  V30 3252 H 298.542 1.70518 -2.51311 0
M  V30 3253 H 296.127 0.783643 -1.27198 0
M  V30 3254 H 298.009 3.93844 -1.49882 0
M  V30 3255 H 296.684 3.18663 -0.568806 0
M  V30 3256 H 295.591 2.50077 -2.7823 0
M  V30 3257 H 296.924 3.30486 -3.64746 0
M  V30 3258 N 298.576 1.31904 0.862503 0
M  V30 3259 C 299.822 1.22197 1.61851 0
M  V30 3260 C 300.155 -0.217641 1.92977 0
M  V30 3261 O 299.43 -1.15264 1.56666 0
M  V30 3262 C 299.713 2.07378 2.94391 0
M  V30 3263 C 299.566 3.59678 2.70096 0
M  V30 3264 C 300.885 1.92891 3.95577 0
M  V30 3265 H 298.004 0.445255 0.587296 0
M  V30 3266 H 300.646 1.6177 0.99651 0
M  V30 3267 H 298.796 1.73758 3.47477 0
M  V30 3268 H 300.468 4.03472 2.23625 0
M  V30 3269 H 298.711 3.82735 2.04197 0
M  V30 3270 H 299.382 4.14595 3.64438 0
M  V30 3271 H 301.858 2.22327 3.51724 0
M  V30 3272 H 300.734 2.54781 4.86187 0
M  V30 3273 H 300.995 0.894315 4.3296 0
M  V30 3274 N 300.054 -1.07777 1.14986 0
M  V30 3275 C 301.301 -1.8029 0.922056 0
M  V30 3276 C 301.629 -1.86531 -0.55105 0
M  V30 3277 O 300.884 -1.34189 -1.42449 0
M  V30 3278 C 301.183 -3.25495 1.47608 0
M  V30 3279 C 300.849 -3.39361 2.96893 0
M  V30 3280 C 299.511 -3.42852 3.37647 0
M  V30 3281 C 301.863 -3.42512 3.92854 0
M  V30 3282 C 299.191 -3.47094 4.73015 0
M  V30 3283 C 301.543 -3.4829 5.28088 0
M  V30 3284 C 300.207 -3.50058 5.68345 0
M  V30 3285 H 299.477 -0.659727 0.337404 0
M  V30 3286 H 302.124 -1.26854 1.43459 0
M  V30 3287 H 300.429 -3.81683 0.88463 0
M  V30 3288 H 302.126 -3.80168 1.27568 0
M  V30 3289 H 298.716 -3.37339 2.64387 0
M  V30 3290 H 302.9 -3.3904 3.62444 0
M  V30 3291 H 298.156 -3.46758 5.03556 0
M  V30 3292 H 302.33 -3.49675 6.02246 0
M  V30 3293 H 299.957 -3.53097 6.73221 0
M  V30 3294 N 301.532 -0.945985 -1.26051 0
M  V30 3295 C 302.778 -0.606539 -1.94146 0
M  V30 3296 C 303.133 0.84586 -1.72809 0
M  V30 3297 O 302.426 1.59781 -1.05738 0
M  V30 3298 C 302.62 -0.890475 -3.46129 0
M  V30 3299 C 302.449 -2.36892 -3.82246 0
M  V30 3300 C 301.219 -3.02494 -4.04753 0
M  V30 3301 C 303.417 -3.34772 -3.90425 0
M  V30 3302 N 301.399 -4.40302 -4.27794 0
M  V30 3303 C 302.77 -4.57855 -4.18054 0
M  V30 3304 C 304.825 -3.2973 -3.73072 0
M  V30 3305 C 303.528 -5.76522 -4.30134 0
M  V30 3306 C 305.554 -4.47727 -3.86386 0
M  V30 3307 C 304.916 -5.69593 -4.14419 0
M  V30 3308 H 301.015 -0.272407 -0.73302 0
M  V30 3309 H 303.599 -1.21638 -1.52027 0
M  V30 3310 H 301.77 -0.309638 -3.87164 0
M  V30 3311 H 303.502 -0.51181 -4.01451 0
M  V30 3312 H 300.257 -2.53095 -4.003 0
M  V30 3313 H 300.681 -5.11646 -4.43337 0
M  V30 3314 H 305.323 -2.36565 -3.50424 0
M  V30 3315 H 303.041 -6.70136 -4.51601 0
M  V30 3316 H 306.627 -4.45363 -3.74356 0
M  V30 3317 H 305.507 -6.59375 -4.24493 0
M  V30 3318 N 303.011 1.40521 -0.713556 0
M  V30 3319 C 304.241 2.0494 -0.261395 0
M  V30 3320 C 304.649 1.53861 1.10107 0
M  V30 3321 O 303.992 0.689321 1.70276 0
M  V30 3322 C 304.054 3.59138 -0.161227 0
M  V30 3323 C 303.718 4.33096 -1.45865 0
M  V30 3324 C 304.715 4.61182 -2.40016 0
M  V30 3325 C 302.4 4.72043 -1.71701 0
M  V30 3326 C 304.394 5.27196 -3.58251 0
M  V30 3327 C 302.081 5.37789 -2.90218 0
M  V30 3328 C 303.079 5.65295 -3.83315 0
M  V30 3329 O 302.767 6.29683 -4.99754 0
M  V30 3330 H 302.499 0.666041 -0.115608 0
M  V30 3331 H 305.053 1.80954 -0.971849 0
M  V30 3332 H 303.283 3.81936 0.605153 0
M  V30 3333 H 304.972 4.05091 0.256105 0
M  V30 3334 H 305.738 4.31559 -2.21318 0
M  V30 3335 H 301.617 4.50003 -1.00092 0
M  V30 3336 H 305.161 5.48582 -4.30934 0
M  V30 3337 H 301.058 5.66831 -3.08825 0
M  V30 3338 H 301.826 6.4818 -4.99805 0
M  V30 3339 N 304.489 0.459591 1.5075 0
M  V30 3340 C 305.717 -0.0973749 2.06671 0
M  V30 3341 C 306.132 -1.34524 1.32472 0
M  V30 3342 O 305.489 -1.7827 0.390634 0
M  V30 3343 C 305.54 -0.39714 3.59312 0
M  V30 3344 O 305.261 0.801214 4.30711 0
M  V30 3345 C 306.762 -1.00234 4.31819 0
M  V30 3346 H 303.982 0.00195854 0.670997 0
M  V30 3347 H 306.526 0.645072 1.94059 0
M  V30 3348 H 304.681 -1.08951 3.71764 0
M  V30 3349 H 305.095 0.538857 5.21725 0
M  V30 3350 H 306.569 -1.16193 5.39632 0
M  V30 3351 H 307.046 -1.98939 3.91561 0
M  V30 3352 H 307.652 -0.348699 4.23868 0
M  V30 3353 N 305.967 -1.56429 0.191757 0
M  V30 3354 C 306.917 -2.15548 -0.743184 0
M  V30 3355 C 307.901 -1.09531 -1.17863 0
M  V30 3356 O 309.093 -1.35602 -1.13759 0
M  V30 3357 C 306.222 -2.81577 -1.96391 0
M  V30 3358 C 305.308 -3.9478 -1.54951 0
M  V30 3359 N 305.699 -4.98677 -0.845876 0
M  V30 3360 C 303.997 -4.06319 -1.83905 0
M  V30 3361 C 304.698 -5.78183 -0.638724 0
M  V30 3362 N 303.674 -5.30495 -1.18643 0
M  V30 3363 H 307.476 -2.9324 -0.196839 0
M  V30 3364 H 304.99 -1.62398 -0.0081603 0
M  V30 3365 H 306.987 -3.22321 -2.64415 0
M  V30 3366 H 305.647 -2.05371 -2.51501 0
M  V30 3367 H 306.658 -5.15464 -0.501704 0
M  V30 3368 H 303.335 -3.41238 -2.40548 0
M  V30 3369 H 304.725 -6.71851 -0.0807929 0
M  V30 3370 N 307.445 0.0818655 -1.57387 0
M  V30 3371 C 308.395 1.10501 -1.99433 0
M  V30 3372 C 309.379 1.35041 -0.874798 0
M  V30 3373 O 310.571 1.35511 -1.13868 0
M  V30 3374 C 307.7 2.42159 -2.43339 0
M  V30 3375 C 306.786 2.20937 -3.62005 0
M  V30 3376 N 307.177 1.69616 -4.76512 0
M  V30 3377 C 305.475 2.51451 -3.68359 0
M  V30 3378 C 306.176 1.62973 -5.58404 0
M  V30 3379 N 305.152 2.08664 -5.01956 0
M  V30 3380 H 308.954 0.701373 -2.85408 0
M  V30 3381 H 306.468 0.289096 -1.59806 0
M  V30 3382 H 308.465 3.16208 -2.71695 0
M  V30 3383 H 307.125 2.83249 -1.58746 0
M  V30 3384 H 308.136 1.38624 -4.99003 0
M  V30 3385 H 304.813 2.95975 -2.94457 0
M  V30 3386 H 306.203 1.24233 -6.60315 0
M  V30 3387 N 308.923 1.53595 0.353017 0
M  V30 3388 C 309.853 1.83902 1.43883 0
M  V30 3389 C 310.834 0.693421 1.55324 0
M  V30 3390 O 312.019 0.944452 1.69687 0
M  V30 3391 C 309.149 2.04016 2.8106 0
M  V30 3392 C 308.103 3.19814 2.84434 0
M  V30 3393 C 307.429 3.25244 4.24406 0
M  V30 3394 C 308.729 4.58133 2.50822 0
M  V30 3395 H 310.423 2.74835 1.1877 0
M  V30 3396 H 307.969 1.32242 0.569917 0
M  V30 3397 H 309.922 2.238 3.57059 0
M  V30 3398 H 308.646 1.09804 3.07588 0
M  V30 3399 H 307.305 2.9987 2.10887 0
M  V30 3400 H 306.953 2.28646 4.48029 0
M  V30 3401 H 306.653 4.03054 4.27576 0
M  V30 3402 H 308.177 3.47228 5.0226 0
M  V30 3403 H 309.591 4.77995 3.16534 0
M  V30 3404 H 307.988 5.38276 2.6529 0
M  V30 3405 H 309.058 4.62387 1.46034 0
M  V30 3406 N 310.401 -0.613514 1.45168 0
M  V30 3407 C 311.648 -1.37268 1.48875 0
M  V30 3408 C 311.976 -1.94077 0.128161 0
M  V30 3409 O 311.231 -1.75178 -0.872416 0
M  V30 3410 C 311.53 -2.54347 2.51083 0
M  V30 3411 C 311.196 -2.1572 3.95949 0
M  V30 3412 C 309.858 -2.04899 4.35396 0
M  V30 3413 C 312.21 -1.85485 4.87078 0
M  V30 3414 C 309.538 -1.62057 5.63875 0
M  V30 3415 C 311.89 -1.4413 6.15962 0
M  V30 3416 C 310.554 -1.31863 6.54346 0
M  V30 3417 H 309.824 -0.502299 0.544773 0
M  V30 3418 H 312.471 -0.694021 1.78481 0
M  V30 3419 H 310.776 -3.27524 2.15024 0
M  V30 3420 H 312.473 -3.12577 2.51191 0
M  V30 3421 H 309.063 -2.25066 3.64751 0
M  V30 3422 H 313.247 -1.92745 4.57343 0
M  V30 3423 H 308.503 -1.51177 5.92415 0
M  V30 3424 H 312.677 -1.19778 6.86022 0
M  V30 3425 H 310.304 -0.984392 7.538 0
M  V30 3426 N 311.879 -1.3236 -0.855495 0
M  V30 3427 C 313.128 -1.22226 -1.60448 0
M  V30 3428 C 313.441 0.214733 -1.94418 0
M  V30 3429 O 314.647 0.437917 -2.67945 0
M  V30 3430 C 313.103 -2.14063 -2.89318 0
M  V30 3431 C 312.711 -3.62839 -2.62777 0
M  V30 3432 C 314.455 -2.12764 -3.67331 0
M  V30 3433 C 312.362 -4.4664 -3.87643 0
M  V30 3434 H 311.292 -0.453904 -0.602069 0
M  V30 3435 H 313.943 -1.57314 -0.944698 0
M  V30 3436 H 312.325 -1.71889 -3.5675 0
M  V30 3437 H 313.499 -4.1335 -2.03662 0
M  V30 3438 H 311.814 -3.66261 -1.98096 0
M  V30 3439 H 314.411 -2.72611 -4.59987 0
M  V30 3440 H 314.754 -1.11841 -4.00995 0
M  V30 3441 H 315.287 -2.53214 -3.06802 0
M  V30 3442 H 312.026 -5.48373 -3.5912 0
M  V30 3443 H 311.546 -4.0088 -4.46156 0
M  V30 3444 H 313.225 -4.59597 -4.55389 0
M  V30 3445 N 313.357 1.07166 -1.15556 0
M  V30 3446 C 314.604 1.79798 -0.931604 0
M  V30 3447 C 314.932 1.8682 0.54115 0
M  V30 3448 O 314.187 1.34942 1.41736 0
M  V30 3449 C 314.486 3.24707 -1.49332 0
M  V30 3450 C 314.152 3.37781 -2.98688 0
M  V30 3451 C 312.814 3.41057 -3.39461 0
M  V30 3452 C 315.166 3.40424 -3.94665 0
M  V30 3453 C 312.494 3.4458 -4.74849 0
M  V30 3454 C 314.846 3.45485 -5.29927 0
M  V30 3455 C 313.51 3.47039 -5.70193 0
M  V30 3456 H 312.78 0.657928 -0.340898 0
M  V30 3457 H 315.427 1.26091 -1.44129 0
M  V30 3458 H 313.732 3.81208 -0.904859 0
M  V30 3459 H 315.429 3.79486 -1.29582 0
M  V30 3460 H 312.019 3.35932 -2.66172 0
M  V30 3461 H 316.203 3.37113 -3.64237 0
M  V30 3462 H 311.459 3.44083 -5.05388 0
M  V30 3463 H 315.633 3.46476 -6.04092 0
M  V30 3464 H 313.26 3.49522 -6.75084 0
M  V30 3465 N 314.835 0.952656 1.25548 0
M  V30 3466 C 316.065 0.622592 1.96996 0
M  V30 3467 C 316.473 -0.809112 1.71026 0
M  V30 3468 O 315.816 -1.55258 0.981861 0
M  V30 3469 C 315.878 0.798946 3.5051 0
M  V30 3470 C 315.542 2.20744 4.00151 0
M  V30 3471 C 316.539 3.18394 4.11001 0
M  V30 3472 C 314.224 2.5311 4.33867 0
M  V30 3473 C 316.218 4.46504 4.54877 0
M  V30 3474 C 313.905 3.8145 4.7743 0
M  V30 3475 C 314.903 4.77959 4.87897 0
M  V30 3476 O 314.591 6.04012 5.30494 0
M  V30 3477 H 314.323 0.232503 0.634758 0
M  V30 3478 H 316.877 1.2789 1.60728 0
M  V30 3479 H 315.107 0.0854903 3.86605 0
M  V30 3480 H 316.796 0.47023 4.03167 0
M  V30 3481 H 317.562 2.94715 3.85186 0
M  V30 3482 H 313.441 1.78719 4.24948 0
M  V30 3483 H 316.985 5.21835 4.62962 0
M  V30 3484 H 312.882 4.04936 5.0269 0
M  V30 3485 H 313.65 6.0736 5.48685 0
M  V30 3486 N 316.313 -1.40141 0.720998 0
M  V30 3487 C 317.562 -2.0002 0.259804 0
M  V30 3488 C 317.875 -1.57839 -1.15526 0
M  V30 3489 O 319.081 -2.10455 -1.71525 0
M  V30 3490 C 317.537 -3.57516 0.413566 0
M  V30 3491 C 317.145 -4.08667 1.83562 0
M  V30 3492 C 318.889 -4.24498 0.0134387 0
M  V30 3493 C 316.796 -5.58686 1.93968 0
M  V30 3494 H 315.726 -0.748195 0.0933806 0
M  V30 3495 H 318.377 -1.60313 0.892866 0
M  V30 3496 H 316.759 -3.9495 -0.288169 0
M  V30 3497 H 317.933 -3.82598 2.56817 0
M  V30 3498 H 316.248 -3.543 2.1877 0
M  V30 3499 H 318.845 -5.34654 0.0703954 0
M  V30 3500 H 319.188 -4.03375 -1.02927 0
M  V30 3501 H 319.721 -3.92188 0.665815 0
M  V30 3502 H 316.46 -5.8467 2.96379 0
M  V30 3503 H 315.98 -5.86602 1.25131 0
M  V30 3504 H 317.659 -6.23875 1.71431 0
M  V30 3505 N 317.792 -0.46758 -1.50504 0
M  V30 3506 C 318.722 0.318381 -2.31319 0
M  V30 3507 C 319.703 0.993564 -1.38066 0
M  V30 3508 O 320.888 0.991411 -1.66987 0
M  V30 3509 C 318.018 1.40275 -3.17711 0
M  V30 3510 C 316.972 0.849373 -4.19487 0
M  V30 3511 C 316.298 2.03177 -4.94594 0
M  V30 3512 C 317.598 -0.136942 -5.2212 0
M  V30 3513 H 319.292 -0.356106 -2.97275 0
M  V30 3514 H 316.838 -0.172703 -1.42961 0
M  V30 3515 H 318.791 1.96004 -3.73042 0
M  V30 3516 H 317.515 2.10596 -2.49634 0
M  V30 3517 H 316.174 0.314076 -3.65252 0
M  V30 3518 H 315.822 2.72187 -4.22993 0
M  V30 3519 H 315.522 1.66774 -5.63436 0
M  V30 3520 H 317.046 2.59403 -5.52759 0
M  V30 3521 H 318.46 0.331056 -5.72343 0
M  V30 3522 H 316.857 -0.41507 -5.98663 0
M  V30 3523 H 317.927 -1.06398 -4.73083 0
M  V30 3524 N 319.27 1.56325 -0.20005 0
M  V30 3525 C 320.518 1.97329 0.436547 0
M  V30 3526 C 320.839 1.08826 1.61808 0
M  V30 3527 O 320.109 0.160604 1.95241 0
M  V30 3528 H 318.689 0.728714 0.164272 0
M  V30 3529 H 321.351 1.92761 -0.287937 0
M  V30 3530 H 320.447 3.02264 0.777353 0
M  V30 3531 N 320.748 -0.0735177 1.57428 0
M  V30 3532 C 321.678 -1.0879 2.06608 0
M  V30 3533 C 322.659 -1.40473 0.959237 0
M  V30 3534 O 323.844 -1.5013 1.23185 0
M  V30 3535 C 320.974 -2.40183 2.50857 0
M  V30 3536 C 319.928 -2.22858 3.65402 0
M  V30 3537 C 319.254 -3.59619 3.957 0
M  V30 3538 C 320.554 -1.65123 4.95511 0
M  V30 3539 H 322.248 -0.678673 2.91607 0
M  V30 3540 H 319.794 -0.325013 1.40284 0
M  V30 3541 H 321.747 -3.11437 2.83874 0
M  V30 3542 H 320.471 -2.83083 1.62885 0
M  V30 3543 H 319.13 -1.54045 3.32664 0
M  V30 3544 H 318.778 -4.00086 3.04861 0
M  V30 3545 H 318.478 -3.48866 4.72828 0
M  V30 3546 H 320.002 -4.32306 4.31212 0
M  V30 3547 H 321.416 -2.26241 5.26771 0
M  V30 3548 H 319.813 -1.65071 5.7695 0
M  V30 3549 H 320.883 -0.612559 4.81015 0
M  V30 3550 N 322.226 -1.5378 -0.344866 0
M  V30 3551 C 323.474 -1.70625 -1.08311 0
M  V30 3552 C 323.795 -0.471447 -1.89215 0
M  V30 3553 O 323.065 0.514616 -1.8902 0
M  V30 3554 H 321.645 -0.629058 -0.402859 0
M  V30 3555 H 324.307 -1.9103 -0.386459 0
M  V30 3556 H 323.403 -2.57656 -1.76124 0
M  V30 3557 N 323.704 0.605807 -1.45491 0
M  V30 3558 C 324.953 1.36086 -1.48874 0
M  V30 3559 C 325.266 1.95131 -0.135333 0
M  V30 3560 O 326.472 2.7146 -0.0468144 0
M  V30 3561 C 324.928 2.46518 -2.62215 0
M  V30 3562 C 324.536 1.93877 -4.03876 0
M  V30 3563 C 326.28 3.23512 -2.74846 0
M  V30 3564 C 324.187 3.01801 -5.08596 0
M  V30 3565 H 323.117 0.511497 -0.553974 0
M  V30 3566 H 325.768 0.649089 -1.71636 0
M  V30 3567 H 324.15 3.20388 -2.32739 0
M  V30 3568 H 325.324 1.26704 -4.43038 0
M  V30 3569 H 323.639 1.29622 -3.95711 0
M  V30 3570 H 326.236 4.04013 -3.50253 0
M  V30 3571 H 326.579 3.74631 -1.81542 0
M  V30 3572 H 327.112 2.56742 -3.03856 0
M  V30 3573 H 323.851 2.55597 -6.03614 0
M  V30 3574 H 323.371 3.67535 -4.74002 0
M  V30 3575 H 325.05 3.66152 -5.33424 0
M  V30 3576 N 325.182 1.32811 0.848464 0
M  V30 3577 C 326.132 1.18842 1.94578 0
M  V30 3578 C 327.116 0.0937517 1.60627 0
M  V30 3579 O 328.308 0.320887 1.74067 0
M  V30 3580 C 325.437 0.91999 3.30743 0
M  V30 3581 C 324.523 2.05665 3.70894 0
M  V30 3582 N 324.914 3.30579 3.8282 0
M  V30 3583 C 323.212 1.9612 4.00566 0
M  V30 3584 C 323.913 4.05067 4.17487 0
M  V30 3585 N 322.889 3.33419 4.2934 0
M  V30 3586 H 326.691 2.13536 2.0194 0
M  V30 3587 H 324.205 1.2468 1.0406 0
M  V30 3588 H 326.202 0.800859 4.09136 0
M  V30 3589 H 324.862 -0.0185076 3.24695 0
M  V30 3590 H 325.873 3.65441 3.66978 0
M  V30 3591 H 322.55 1.09871 4.02784 0
M  V30 3592 H 323.94 5.12815 4.34131 0
M  V30 3593 N 326.66 -1.06551 1.16123 0
M  V30 3594 C 327.908 -1.78947 0.939267 0
M  V30 3595 C 328.229 -1.87532 -0.534476 0
M  V30 3596 O 327.499 -1.38211 -1.38833 0
M  V30 3597 H 326.079 -0.662807 0.344523 0
M  V30 3598 H 328.741 -1.28725 1.46342 0
M  V30 3599 H 327.837 -2.81117 1.35572 0
M  V30 3600 N 328.138 -0.959301 -1.25041 0
M  V30 3601 C 329.387 -0.612254 -1.92183 0
M  V30 3602 C 329.7 0.855347 -1.75907 0
M  V30 3603 O 330.906 1.31256 -2.37664 0
M  V30 3604 C 329.362 -1.04435 -3.44414 0
M  V30 3605 C 328.97 -2.53482 -3.69393 0
M  V30 3606 C 330.714 -0.770055 -4.17457 0
M  V30 3607 C 328.621 -2.90468 -5.15153 0
M  V30 3608 H 327.551 -0.225279 -0.719559 0
M  V30 3609 H 330.202 -1.16438 -1.41825 0
M  V30 3610 H 328.584 -0.4206 -3.9376 0
M  V30 3611 H 329.758 -3.20916 -3.30681 0
M  V30 3612 H 328.073 -2.78432 -3.0962 0
M  V30 3613 H 330.67 -1.02249 -5.24832 0
M  V30 3614 H 331.013 0.293611 -4.15263 0
M  V30 3615 H 331.546 -1.35437 -3.74034 0
M  V30 3616 H 328.285 -3.95871 -5.22462 0
M  V30 3617 H 327.805 -2.27711 -5.54894 0
M  V30 3618 H 329.484 -2.79914 -5.83315 0
M  V30 3619 N 329.616 1.39756 -0.72842 0
M  V30 3620 C 330.864 2.00248 -0.272946 0
M  V30 3621 C 331.185 1.58077 1.14178 0
M  V30 3622 O 330.455 0.826014 1.77634 0
M  V30 3623 H 329.035 0.740554 -0.0979247 0
M  V30 3624 H 331.697 1.70903 -0.936912 0
M  V30 3625 H 330.793 3.10495 -0.316142 0
M  V30 3626 N 331.094 0.475555 1.50254 0
M  V30 3627 C 332.342 -0.077738 2.0195 0
M  V30 3628 C 332.663 -1.39813 1.35931 0
M  V30 3629 O 331.933 -1.89249 0.506123 0
M  V30 3630 H 330.513 -0.031719 0.746326 0
M  V30 3631 H 333.175 0.626995 1.84539 0
M  V30 3632 H 332.271 -0.225995 3.11281 0
M  V30 3633 N 332.573 -1.56217 0.208337 0
M  V30 3634 C 333.822 -1.97124 -0.427204 0
M  V30 3635 C 334.135 -1.09859 -1.61835 0
M  V30 3636 O 335.341 -1.40606 -2.32255 0
M  V30 3637 C 333.797 -3.50633 -0.811442 0
M  V30 3638 C 333.405 -4.46582 0.35615 0
M  V30 3639 C 335.149 -4.00282 -1.41332 0
M  V30 3640 C 333.056 -5.91379 -0.0497852 0
M  V30 3641 H 331.986 -0.736086 -0.163381 0
M  V30 3642 H 334.637 -1.8099 0.302456 0
M  V30 3643 H 333.019 -3.62319 -1.59815 0
M  V30 3644 H 334.193 -4.46636 1.1337 0
M  V30 3645 H 332.508 -4.07202 0.870396 0
M  V30 3646 H 335.105 -5.0595 -1.72972 0
M  V30 3647 H 335.448 -3.45359 -2.32449 0
M  V30 3648 H 335.981 -3.91764 -0.690323 0
M  V30 3649 H 332.72 -6.50255 0.827529 0
M  V30 3650 H 332.24 -5.94549 -0.791926 0
M  V30 3651 H 333.919 -6.45209 -0.481042 0
M  V30 3652 N 334.051 0.0651679 -1.57465 0
M  V30 3653 C 335.297 0.764193 -1.87851 0
M  V30 3654 C 335.63 1.76889 -0.801495 0
M  V30 3655 O 334.905 1.93594 0.187528 0
M  V30 3656 C 335.188 1.46625 -3.28897 0
M  V30 3657 C 335.041 0.477515 -4.47258 0
M  V30 3658 C 336.36 2.4095 -3.68281 0
M  V30 3659 H 333.479 0.276351 -0.683227 0
M  V30 3660 H 336.121 0.0272868 -1.8998 0
M  V30 3661 H 334.271 2.09438 -3.27212 0
M  V30 3662 H 335.943 -0.145922 -4.61069 0
M  V30 3663 H 334.186 -0.206576 -4.33308 0
M  V30 3664 H 334.857 1.0065 -5.42746 0
M  V30 3665 H 337.333 1.88209 -3.71102 0
M  V30 3666 H 336.209 2.87072 -4.67847 0
M  V30 3667 H 336.47 3.26049 -2.98571 0
M  V30 3668 N 335.529 1.53961 0.336706 0
M  V30 3669 C 336.945 1.44378 0.680241 0
M  V30 3670 C 337.145 0.606034 1.9217 0
M  V30 3671 O 336.201 0.099688 2.52303 0
M  V30 3672 C 337.514 2.87945 0.8665 0
M  V30 3673 C 339.062 2.97763 0.964682 0
M  V30 3674 C 339.537 4.42453 1.18321 0
M  V30 3675 N 341.028 4.46008 1.25025 0
M  V30 3676 C 341.763 5.55102 1.43697 0
M  V30 3677 N 341.259 6.7419 1.59498 0
M  V30 3678 N 343.052 5.42727 1.463 0
M  V30 3679 H 335.203 2.06918 -0.479455 0
M  V30 3680 H 337.466 0.935634 -0.152619 0
M  V30 3681 H 337.172 3.51691 0.0256937 0
M  V30 3682 H 337.046 3.33293 1.76623 0
M  V30 3683 H 339.433 2.34153 1.796 0
M  V30 3684 H 339.514 2.55766 0.041708 0
M  V30 3685 H 339.158 5.06645 0.356788 0
M  V30 3686 H 339.088 4.82048 2.11985 0
M  V30 3687 H 341.579 3.60196 1.14312 0
M  V30 3688 H 341.892 7.53095 1.734 0
M  V30 3689 H 340.237 6.77123 1.56621 0
M  V30 3690 H 343.428 4.48647 1.33543 0
M  V30 3691 H 343.601 6.27806 1.6051 0
M  V30 3692 N 337.007 -0.598083 1.45811 0
M  V30 3693 C 338.255 -1.35413 1.50026 0
M  V30 3694 C 338.576 -1.94444 0.147177 0
M  V30 3695 O 337.846 -1.77701 -0.824571 0
M  V30 3696 H 336.426 -0.502727 0.552517 0
M  V30 3697 H 339.088 -0.701606 1.81834 0
M  V30 3698 H 338.184 -2.16871 2.2444 0
M  V30 3699 N 338.485 -1.33259 -0.841409 0
M  V30 3700 C 339.417 -1.19136 -1.95804 0
M  V30 3701 C 340.43 -0.122965 -1.62335 0
M  V30 3702 O 341.619 -0.373154 -1.74556 0
M  V30 3703 C 338.719 -0.804268 -3.29218 0
M  V30 3704 C 337.892 -1.96376 -3.90839 0
M  V30 3705 C 336.951 -1.55806 -5.02604 0
M  V30 3706 O 335.977 -2.27203 -5.21888 0
M  V30 3707 N 337.179 -0.461609 -5.78662 0
M  V30 3708 H 339.944 -2.15326 -2.08458 0
M  V30 3709 H 337.505 -1.25971 -1.017 0
M  V30 3710 H 339.497 -0.51501 -4.0141 0
M  V30 3711 H 338.067 0.0668809 -3.12528 0
M  V30 3712 H 337.287 -2.41879 -3.11269 0
M  V30 3713 H 338.575 -2.73966 -4.28742 0
M  V30 3714 H 337.973 0.132343 -5.65545 0
M  V30 3715 H 336.53 -0.232013 -6.51387 0
M  V30 3716 N 339.963 1.05934 -1.16686 0
M  V30 3717 C 341.191 1.8249 -0.974929 0
M  V30 3718 C 341.606 1.82679 0.476861 0
M  V30 3719 O 340.963 1.2486 1.33103 0
M  V30 3720 C 341.014 3.28943 -1.49929 0
M  V30 3721 O 340.735 3.28886 -2.89423 0
M  V30 3722 C 342.236 4.22215 -1.35089 0
M  V30 3723 H 339.456 0.575295 -0.345365 0
M  V30 3724 H 342 1.33631 -1.548 0
M  V30 3725 H 340.155 3.751 -0.968423 0
M  V30 3726 H 340.569 4.20493 -3.13506 0
M  V30 3727 H 342.043 5.22987 -1.76603 0
M  V30 3728 H 342.52 4.38195 -0.296935 0
M  V30 3729 H 343.126 3.81907 -1.87155 0
M  V30 3730 N 341.441 0.965919 1.2453 0
M  V30 3731 C 342.351 0.502154 2.29163 0
M  V30 3732 C 343.367 -0.436017 1.68448 0
M  V30 3733 O 344.543 -0.309497 1.99008 0
M  V30 3734 C 341.608 -0.201956 3.46111 0
M  V30 3735 C 340.669 0.775821 4.22232 0
M  V30 3736 C 339.902 0.105217 5.33596 0
M  V30 3737 O 340.125 -1.10683 5.59558 0
M  V30 3738 O 339.059 0.796475 5.96607 0
M  V30 3739 H 342.885 1.37194 2.70946 0
M  V30 3740 H 340.47 0.732875 1.30189 0
M  V30 3741 H 342.352 -0.597564 4.17142 0
M  V30 3742 H 341.027 -1.04673 3.06309 0
M  V30 3743 H 339.934 1.22185 3.53584 0
M  V30 3744 H 341.267 1.58896 4.65846 0
M  V30 3745 N 342.919 -1.39368 0.735821 0
M  V30 3746 C 343.829 -2.34395 0.0979693 0
M  V30 3747 C 344.845 -1.58361 -0.720968 0
M  V30 3748 O 346.021 -1.90648 -0.649245 0
M  V30 3749 C 343.086 -3.37393 -0.797916 0
M  V30 3750 C 342.147 -4.29287 0.0333662 0
M  V30 3751 C 341.38 -5.27365 -0.819854 0
M  V30 3752 O 341.603 -5.31959 -2.05855 0
M  V30 3753 O 340.537 -6.01389 -0.248079 0
M  V30 3754 H 344.363 -2.90601 0.882315 0
M  V30 3755 H 341.948 -1.40909 0.4965 0
M  V30 3756 H 343.83 -4.00505 -1.31048 0
M  V30 3757 H 342.505 -2.83571 -1.56106 0
M  V30 3758 H 341.412 -3.69395 0.591475 0
M  V30 3759 H 342.745 -4.86317 0.758752 0
M  V30 3760 N 344.397 -0.483516 -1.5 0
M  V30 3761 C 345.622 0.0667119 -2.07293 0
M  V30 3762 C 346.047 1.3164 -1.3436 0
M  V30 3763 O 345.405 1.76945 -0.394987 0
M  V30 3764 C 345.453 0.321126 -3.59167 0
M  V30 3765 O 344.557 1.39927 -3.87936 0
M  V30 3766 H 343.898 -0.0184758 -0.663743 0
M  V30 3767 H 346.428 -0.678125 -1.93035 0
M  V30 3768 H 346.438 0.557906 -4.04168 0
M  V30 3769 H 345.113 -0.592007 -4.11665 0
M  V30 3770 H 343.69 1.14882 -3.54763 0
M  V30 3771 N 345.875 1.56104 -0.216619 0
M  V30 3772 C 346.808 2.16026 0.735395 0
M  V30 3773 C 347.786 1.1032 1.1945 0
M  V30 3774 O 348.97 1.38549 1.27814 0
M  V30 3775 C 346.097 2.73656 1.99575 0
M  V30 3776 C 345.143 3.92146 1.67702 0
M  V30 3777 S 345.976 5.29397 0.806145 0
M  V30 3778 C 347.132 5.90463 2.07617 0
M  V30 3779 H 347.365 2.96439 0.226072 0
M  V30 3780 H 344.898 1.544 -0.00136639 0
M  V30 3781 H 346.856 3.075 2.71945 0
M  V30 3782 H 345.517 1.93245 2.47619 0
M  V30 3783 H 344.71 4.30954 2.61332 0
M  V30 3784 H 344.312 3.59423 1.03398 0
M  V30 3785 H 346.604 6.06136 3.02664 0
M  V30 3786 H 347.547 6.86589 1.73207 0
M  V30 3787 H 347.955 5.19252 2.21445 0
M  V30 3788 N 347.353 -0.0568162 1.57498 0
M  V30 3789 C 348.301 -1.08452 2.05769 0
M  V30 3790 C 349.295 -1.39164 0.965903 0
M  V30 3791 O 350.501 -1.38395 1.15095 0
M  V30 3792 H 346.876 -0.367148 0.656282 0
M  V30 3793 H 348.847 -0.651368 2.91204 0
M  V30 3794 C 347.596 -2.38543 2.52968 0
M  V30 3795 H 346.919 -2.15765 3.36579 0
M  V30 3796 H 348.359 -3.08863 2.90481 0
M  V30 3797 C 346.818 -3.05562 1.41893 0
M  V30 3798 O 347.348 -3.94262 0.769442 0
M  V30 3799 N 345.554 -2.6643 1.16032 0
M  V30 3800 H 345.101 -1.94387 1.6903 0
M  V30 3801 H 345.059 -3.11593 0.419219 0
M  V30 3802 N 348.832 -1.54138 -0.328536 0
M  V30 3803 C 349.742 -1.86192 -1.42723 0
M  V30 3804 C 350.758 -0.753382 -1.56844 0
M  V30 3805 O 351.934 -1.04718 -1.72035 0
M  V30 3806 C 348.999 -2.07824 -2.77507 0
M  V30 3807 C 348.06 -3.31641 -2.72603 0
M  V30 3808 C 347.293 -3.52232 -4.00959 0
M  V30 3809 O 347.516 -2.7636 -4.9898 0
M  V30 3810 O 346.45 -4.45699 -4.0452 0
M  V30 3811 H 350.276 -2.79608 -1.18547 0
M  V30 3812 H 347.861 -1.3998 -0.522104 0
M  V30 3813 H 349.743 -2.23411 -3.57303 0
M  V30 3814 H 348.418 -1.17596 -3.01584 0
M  V30 3815 H 347.325 -3.21444 -1.91376 0
M  V30 3816 H 348.658 -4.2191 -2.53481 0
M  V30 3817 N 350.31 0.590341 -1.46126 0
M  V30 3818 C 351.535 1.37991 -1.54833 0
M  V30 3819 C 351.96 1.87163 -0.187506 0
M  V30 3820 O 351.318 1.61133 0.831008 0
M  V30 3821 C 351.366 2.54867 -2.55098 0
M  V30 3822 O 350.47 3.56061 -2.08073 0
M  V30 3823 H 349.811 0.411265 -0.521303 0
M  V30 3824 H 352.341 0.716819 -1.91632 0
M  V30 3825 H 352.351 3.01886 -2.74461 0
M  V30 3826 H 351.026 2.18429 -3.53923 0
M  V30 3827 H 349.603 3.15574 -1.98664 0
M  V30 3828 N 351.788 1.33704 0.83433 0
M  V30 3829 C 352.738 1.20899 1.93306 0
M  V30 3830 C 353.722 0.110783 1.60518 0
M  V30 3831 O 354.914 0.339331 1.73717 0
M  V30 3832 C 352.043 0.955018 3.29749 0
M  V30 3833 C 351.129 2.09587 3.68692 0
M  V30 3834 N 351.52 3.34621 3.79292 0
M  V30 3835 C 349.818 2.00358 3.98463 0
M  V30 3836 C 350.519 4.09472 4.13167 0
M  V30 3837 N 349.495 3.37954 4.25779 0
M  V30 3838 H 353.297 2.15665 1.99664 0
M  V30 3839 H 350.811 1.25777 1.02732 0
M  V30 3840 H 352.808 0.844208 4.08263 0
M  V30 3841 H 351.468 0.0159317 3.24696 0
M  V30 3842 H 352.479 3.69313 3.63082 0
M  V30 3843 H 349.156 1.14137 4.01596 0
M  V30 3844 H 350.546 5.17391 4.28668 0
M  V30 3845 N 353.266 -1.05314 1.17247 0
M  V30 3846 C 354.677 -1.59753 0.96623 0
M  V30 3847 C 355.028 -1.9005 -0.487378 0
M  V30 3848 O 354.153 -1.68126 -1.36245 0
M  V30 3849 C 354.748 -2.90249 1.74759 0
M  V30 3850 C 353.307 -3.41352 1.58606 0
M  V30 3851 C 352.454 -2.15103 1.75002 0
M  V30 3852 H 355.405 -0.881406 1.31973 0
M  V30 3853 H 355.426 -3.60097 1.22925 0
M  V30 3854 H 354.938 -2.68166 2.8055 0
M  V30 3855 H 353.039 -3.68474 0.552985 0
M  V30 3856 H 353.152 -4.16019 2.37624 0
M  V30 3857 H 351.516 -2.25804 1.17833 0
M  V30 3858 H 352.299 -1.95491 2.82202 0
M  V30 3859 N 354.744 -0.972509 -1.24016 0
M  V30 3860 C 356.16 -0.679827 -1.44397 0
M  V30 3861 C 356.36 0.756716 -1.86751 0
M  V30 3862 O 355.416 1.53007 -2.00861 0
M  V30 3863 C 356.729 -1.66803 -2.50195 0
M  V30 3864 C 358.277 -1.68119 -2.64017 0
M  V30 3865 C 358.752 -2.65748 -3.73017 0
M  V30 3866 N 360.243 -2.64219 -3.8045 0
M  V30 3867 C 360.978 -3.36433 -4.64328 0
M  V30 3868 N 360.474 -4.1818 -5.52356 0
M  V30 3869 N 362.267 -3.25235 -4.58453 0
M  V30 3870 H 354.418 -1.90059 -0.948228 0
M  V30 3871 H 356.681 -0.818527 -0.478245 0
M  V30 3872 H 356.387 -2.69498 -2.25973 0
M  V30 3873 H 356.261 -1.4446 -3.48441 0
M  V30 3874 H 358.648 -0.661319 -2.87594 0
M  V30 3875 H 358.729 -1.94525 -1.66113 0
M  V30 3876 H 358.373 -3.67872 -3.50189 0
M  V30 3877 H 358.303 -2.36619 -4.70446 0
M  V30 3878 H 360.794 -2.04887 -3.17537 0
M  V30 3879 H 361.107 -4.70157 -6.13329 0
M  V30 3880 H 359.452 -4.22273 -5.52006 0
M  V30 3881 H 362.643 -2.60829 -3.88698 0
M  V30 3882 H 362.816 -3.81776 -5.23594 0
M  V30 3883 N 356.222 1.38976 -0.743202 0
M  V30 3884 C 357.169 2.30544 -0.10861 0
M  V30 3885 C 358.139 1.49642 0.720869 0
M  V30 3886 O 359.324 1.78304 0.679142 0
M  V30 3887 C 356.464 3.36018 0.786496 0
M  V30 3888 C 355.577 4.31963 -0.0564849 0
M  V30 3889 C 354.712 5.24506 0.840657 0
M  V30 3890 C 353.751 6.121 -0.00658363 0
M  V30 3891 N 352.888 6.96973 0.846943 0
M  V30 3892 H 357.728 2.8424 -0.895088 0
M  V30 3893 H 355.265 1.3995 -0.453048 0
M  V30 3894 H 357.223 3.95768 1.31999 0
M  V30 3895 H 355.853 2.83758 1.53887 0
M  V30 3896 H 354.905 3.73763 -0.707492 0
M  V30 3897 H 356.217 4.93703 -0.711229 0
M  V30 3898 H 355.371 5.89322 1.4417 0
M  V30 3899 H 354.11 4.63107 1.52916 0
M  V30 3900 H 353.115 5.46289 -0.620366 0
M  V30 3901 H 354.34 6.75565 -0.691992 0
M  V30 3902 H 352.286 6.38133 1.52059 0
M  V30 3903 H 352.203 7.5559 0.248864 0
M  V30 3904 H 353.471 7.6621 1.43328 0
M  V30 3905 N 357.7 0.491464 1.49741 0
M  V30 3906 C 358.94 -0.0549118 2.04326 0
M  V30 3907 C 359.304 -1.35148 1.36378 0
M  V30 3908 O 360.505 -1.9815 1.81631 0
M  V30 3909 C 358.776 -0.213841 3.5676 0
M  V30 3910 S 360.335 -0.715839 4.32922 0
M  V30 3911 H 357.153 -0.00630513 0.710972 0
M  V30 3912 H 359.755 0.663257 1.83905 0
M  V30 3913 H 358.459 0.73527 4.0376 0
M  V30 3914 H 357.99 -0.957529 3.81569 0
M  V30 3915 H 360.005 -1.9864 4.54705 0
M  V30 3916 N 359.178 -1.55987 0.224894 0
M  V30 3917 C 360.141 -2.19178 -0.670348 0
M  V30 3918 C 361.141 -1.15461 -1.11917 0
M  V30 3919 O 362.331 -1.40675 -1.02743 0
M  V30 3920 C 359.463 -2.81777 -1.9187 0
M  V30 3921 H 360.656 -2.99662 -0.119364 0
M  V30 3922 H 358.209 -1.5628 -0.0247128 0
M  V30 3923 H 358.944 -2.05172 -2.51147 0
M  V30 3924 H 358.729 -3.57732 -1.60531 0
M  V30 3925 H 360.219 -3.30205 -2.55645 0
M  V30 3926 N 360.656 0.0484629 -1.57525 0
M  V30 3927 C 361.566 1.07241 -2.08654 0
M  V30 3928 C 362.582 1.409 -1.02095 0
M  V30 3929 O 363.758 1.50609 -1.33712 0
M  V30 3930 C 360.823 2.36008 -2.5397 0
M  V30 3931 C 359.884 2.09108 -3.7493 0
M  V30 3932 C 359.117 3.31736 -4.18075 0
M  V30 3933 O 359.34 4.41714 -3.60895 0
M  V30 3934 O 358.274 3.18576 -5.10679 0
M  V30 3935 H 362.1 0.667965 -2.96263 0
M  V30 3936 H 359.685 0.26417 -1.47046 0
M  V30 3937 H 361.567 3.11747 -2.83535 0
M  V30 3938 H 360.242 2.75786 -1.69481 0
M  V30 3939 H 359.149 1.31 -3.50414 0
M  V30 3940 H 360.482 1.74198 -4.60343 0
M  V30 3941 N 362.134 1.5431 0.320358 0
M  V30 3942 C 363.359 1.76954 1.08175 0
M  V30 3943 C 363.784 0.518193 1.80821 0
M  V30 3944 O 363.142 -0.530411 1.73368 0
M  V30 3945 C 363.19 2.96451 2.05303 0
M  V30 3946 O 362.294 2.68221 3.13259 0
M  V30 3947 H 361.635 0.586275 0.311733 0
M  V30 3948 H 364.165 2.01342 0.363676 0
M  V30 3949 H 364.175 3.23887 2.48116 0
M  V30 3950 H 362.85 3.87196 1.51829 0
M  V30 3951 H 361.427 2.51744 2.75099 0
M  V30 3952 N 363.613 -0.582584 1.46437 0
M  V30 3953 C 364.86 -1.34079 1.51753 0
M  V30 3954 C 365.188 -1.93762 0.169299 0
M  V30 3955 O 364.443 -1.76989 -0.835062 0
M  V30 3956 C 364.742 -2.48964 2.56421 0
M  V30 3957 C 364.408 -2.07273 4.00436 0
M  V30 3958 C 363.07 -1.95618 4.39644 0
M  V30 3959 C 365.422 -1.75111 4.90903 0
M  V30 3960 C 362.75 -1.5006 5.67185 0
M  V30 3961 C 365.102 -1.31032 6.18881 0
M  V30 3962 C 363.766 -1.17954 6.56996 0
M  V30 3963 H 363.036 -0.49063 0.555304 0
M  V30 3964 H 365.683 -0.656007 1.79913 0
M  V30 3965 H 363.988 -3.22889 2.21923 0
M  V30 3966 H 365.685 -3.07178 2.57765 0
M  V30 3967 H 362.275 -2.17279 3.69443 0
M  V30 3968 H 366.459 -1.83001 4.61329 0
M  V30 3969 H 361.715 -1.38577 5.95488 0
M  V30 3970 H 365.889 -1.052 6.88408 0
M  V30 3971 H 363.516 -0.824279 7.55718 0
M  V30 3972 N 365.091 -1.34144 -0.827227 0
M  V30 3973 C 366.001 -1.27428 -1.96975 0
M  V30 3974 C 367.017 -0.182728 -1.73038 0
M  V30 3975 O 368.193 -0.408426 -1.97215 0
M  V30 3976 C 365.258 -1.02526 -3.31194 0
M  V30 3977 C 364.319 -2.20796 -3.68168 0
M  V30 3978 C 363.552 -1.97073 -4.95982 0
M  V30 3979 O 363.775 -0.926822 -5.6282 0
M  V30 3980 O 362.709 -2.83912 -5.30733 0
M  V30 3981 H 366.535 -2.23537 -2.05584 0
M  V30 3982 H 364.12 -1.14307 -0.961989 0
M  V30 3983 H 366.002 -0.904026 -4.11589 0
M  V30 3984 H 364.677 -0.0945389 -3.23562 0
M  V30 3985 H 363.584 -2.38477 -2.88235 0
M  V30 3986 H 364.917 -3.12243 -3.8048 0
M  V30 3987 N 366.569 1.04691 -1.17803 0
M  V30 3988 C 367.502 2.12068 -0.842765 0
M  V30 3989 C 368.48 1.61455 0.192608 0
M  V30 3990 O 369.664 1.88359 0.072995 0
M  V30 3991 C 366.791 3.37715 -0.258063 0
M  V30 3992 C 365.837 4.07164 -1.26962 0
M  V30 3993 S 366.67 4.55047 -2.82299 0
M  V30 3994 C 367.826 5.83935 -2.25323 0
M  V30 3995 H 368.059 2.4018 -1.75217 0
M  V30 3996 H 365.592 1.17366 -1.00323 0
M  V30 3997 H 367.55 4.10435 0.0727935 0
M  V30 3998 H 366.211 3.0773 0.629357 0
M  V30 3999 H 365.404 4.9746 -0.809263 0
M  V30 4000 H 365.006 3.40533 -1.54639 0
M  V30 4001 H 367.298 6.57552 -1.63192 0
M  V30 4002 H 368.241 6.34725 -3.13894 0
M  V30 4003 H 368.649 5.3874 -1.68582 0
M  V30 4004 N 368.047 0.979072 1.23499 0
M  V30 4005 C 369.293 0.6578 1.9247 0
M  V30 4006 C 369.648 -0.799746 1.74991 0
M  V30 4007 O 368.941 -1.56922 1.09937 0
M  V30 4008 C 369.135 0.981932 3.43646 0
M  V30 4009 C 368.964 2.46944 3.75831 0
M  V30 4010 C 367.734 3.13119 3.96591 0
M  V30 4011 C 369.932 3.45006 3.81412 0
M  V30 4012 N 367.914 4.51489 4.15969 0
M  V30 4013 C 369.285 4.68778 4.05768 0
M  V30 4014 C 371.34 3.39505 3.64198 0
M  V30 4015 C 370.043 5.87723 4.14697 0
M  V30 4016 C 372.069 4.57814 3.7438 0
M  V30 4017 C 371.431 5.80381 3.99171 0
M  V30 4018 H 367.53 0.291746 0.72554 0
M  V30 4019 H 370.114 1.25626 1.48749 0
M  V30 4020 H 368.285 0.412179 3.86207 0
M  V30 4021 H 370.017 0.618068 3.99953 0
M  V30 4022 H 366.772 2.63619 3.93449 0
M  V30 4023 H 367.196 5.23221 4.29615 0
M  V30 4024 H 371.838 2.45773 3.44029 0
M  V30 4025 H 369.556 6.81874 4.33675 0
M  V30 4026 H 373.142 4.55132 3.62417 0
M  V30 4027 H 372.022 6.70398 4.06861 0
M  V30 4028 N 369.525 -1.3858 0.750561 0
M  V30 4029 C 370.802 -1.94231 0.231009 0
M  V30 4030 C 371.182 -1.68611 -1.27018 0
M  V30 4031 O 370.53 -1.02296 -2.04323 0
M  V30 4032 C 370.74 -3.44123 0.581428 0
M  V30 4033 C 372.088 -4.2116 0.539389 0
M  V30 4034 O 373.112 -3.52391 0.519541 0
M  V30 4035 O 371.971 -5.43749 0.54765 0
M  V30 4036 H 369.065 -0.825639 0.0474263 0
M  V30 4037 H 371.611 -1.4799 0.830478 0
M  V30 4038 H 370.383 -3.56267 1.61833 0
M  V30 4039 H 370.006 -3.97573 -0.0462047 0
M  V30 4040 N 371.003 -0.499398 -1.49478 0
M  V30 4041 C 372.28 0.108629 -1.95298 0
M  V30 4042 C 372.66 1.54282 -1.44084 0
M  V30 4043 O 372.008 2.18944 -0.653908 0
M  V30 4044 C 372.218 0.0229111 -3.48992 0
M  V30 4045 C 373.566 0.197643 -4.2414 0
M  V30 4046 O 374.59 0.0981735 -3.56065 0
M  V30 4047 O 373.449 0.401669 -5.45022 0
M  V30 4048 H 370.543 0.096181 -0.821388 0
M  V30 4049 H 373.089 -0.561822 -1.6013 0
M  V30 4050 H 371.861 -0.977321 -3.78899 0
M  V30 4051 H 371.484 0.733579 -3.90774 0
M  V30 4052 N 372.481 1.55866 -0.233164 0
M  V30 4053 C 373.897 1.59133 0.121988 0
M  V30 4054 C 374.097 1.25016 1.58029 0
M  V30 4055 O 373.153 0.990922 2.32243 0
M  V30 4056 C 374.466 2.99932 -0.214792 0
M  V30 4057 C 376.014 3.12601 -0.157971 0
M  V30 4058 C 376.489 4.55597 -0.46859 0
M  V30 4059 N 377.98 4.61305 -0.418585 0
M  V30 4060 C 378.715 5.69903 -0.63227 0
M  V30 4061 N 378.211 6.86819 -0.90835 0
M  V30 4062 N 380.004 5.59264 -0.563913 0
M  V30 4063 H 372.155 1.76315 -1.18434 0
M  V30 4064 H 374.418 0.820093 -0.475553 0
M  V30 4065 H 374.124 3.29588 -1.22739 0
M  V30 4066 H 373.998 3.74327 0.464691 0
M  V30 4067 H 376.385 2.82735 0.845283 0
M  V30 4068 H 376.466 2.40511 -0.871102 0
M  V30 4069 H 376.11 4.86182 -1.46934 0
M  V30 4070 H 376.04 5.25928 0.265865 0
M  V30 4071 H 378.531 3.77297 -0.213368 0
M  V30 4072 H 378.844 7.65507 -1.05919 0
M  V30 4073 H 377.189 6.88536 -0.945673 0
M  V30 4074 H 380.38 4.66802 -0.348372 0
M  V30 4075 H 380.553 6.43831 -0.733847 0
M  V30 4076 N 373.959 -0.0401083 1.57549 0
M  V30 4077 C 375.236 -0.767917 1.79896 0
M  V30 4078 C 375.616 -1.9416 0.82856 0
M  V30 4079 O 374.964 -2.2812 -0.131671 0
M  V30 4080 C 375.174 -1.2113 3.27305 0
M  V30 4081 C 376.522 -1.63175 3.91994 0
M  V30 4082 O 377.546 -1.30616 3.31388 0
M  V30 4083 O 376.405 -2.23565 4.98679 0
M  V30 4084 H 373.499 -0.370441 0.739393 0
M  V30 4085 H 376.045 -0.017737 1.69691 0
M  V30 4086 H 374.817 -0.372937 3.89519 0
M  V30 4087 H 374.44 -2.02183 3.42356 0
M  V30 4088 N 375.437 -1.54477 -0.31217 0
M  V30 4089 C 376.662 -1.77526 -1.07235 0
M  V30 4090 C 377.087 -0.527775 -1.80544 0
M  V30 4091 O 376.445 0.52121 -1.73646 0
M  V30 4092 C 376.493 -2.97535 -2.03728 0
M  V30 4093 O 375.597 -2.69878 -3.11833 0
M  V30 4094 H 374.938 -0.58792 -0.30862 0
M  V30 4095 H 377.468 -2.01532 -0.352993 0
M  V30 4096 H 377.478 -3.25198 -2.46395 0
M  V30 4097 H 376.153 -3.87996 -1.49774 0
M  V30 4098 H 374.73 -2.53199 -2.7376 0
M  V30 4099 N 376.915 0.57481 -1.46744 0
M  V30 4100 C 377.865 1.67838 -1.54319 0
M  V30 4101 C 378.849 1.55759 -0.40346 0
M  V30 4102 O 380.041 1.6454 -0.652347 0
M  V30 4103 C 377.17 3.06624 -1.5439 0
M  V30 4104 C 376.256 3.23971 -2.73685 0
M  V30 4105 N 376.647 3.11447 -3.9854 0
M  V30 4106 C 374.945 3.5493 -2.70075 0
M  V30 4107 C 375.646 3.31011 -4.78337 0
M  V30 4108 N 374.622 3.56533 -4.10348 0
M  V30 4109 H 378.424 1.56698 -2.48642 0
M  V30 4110 H 375.938 0.779071 -1.42493 0
M  V30 4111 H 377.935 3.85839 -1.57905 0
M  V30 4112 H 376.595 3.1889 -0.611493 0
M  V30 4113 H 377.606 2.89145 -4.29669 0
M  V30 4114 H 374.283 3.73832 -1.85893 0
M  V30 4115 H 375.673 3.26445 -5.87268 0
M  V30 4116 N 378.394 1.34581 0.820102 0
M  V30 4117 C 379.634 1.28448 1.58998 0
M  V30 4118 C 379.998 -0.142883 1.91468 0
M  V30 4119 O 381.199 -0.328422 2.66786 0
M  V30 4120 C 379.47 2.153 2.85273 0
M  V30 4121 S 381.029 2.26548 3.75794 0
M  V30 4122 H 377.847 0.456685 0.54494 0
M  V30 4123 H 380.449 1.69825 0.968487 0
M  V30 4124 H 379.153 3.18008 2.59421 0
M  V30 4125 H 378.684 1.7483 3.52417 0
M  V30 4126 H 380.699 1.44034 4.74835 0
M  V30 4127 N 379.872 -1.04064 1.18357 0
M  V30 4128 C 381.288 -1.2947 0.933258 0
M  V30 4129 C 381.488 -1.97466 -0.401169 0
M  V30 4130 O 380.544 -2.25528 -1.13549 0
M  V30 4131 C 381.857 -2.15337 2.09882 0
M  V30 4132 C 383.405 -2.28683 2.13712 0
M  V30 4133 C 383.88 -3.17917 3.29686 0
M  V30 4134 N 385.371 -3.25504 3.29547 0
M  V30 4135 C 386.106 -3.94706 4.15926 0
M  V30 4136 N 385.602 -4.66239 5.12439 0
M  V30 4137 N 387.395 -3.90986 4.0384 0
M  V30 4138 H 379.546 -0.583359 2.04232 0
M  V30 4139 H 381.809 -0.319921 0.892387 0
M  V30 4140 H 381.515 -1.72682 3.06389 0
M  V30 4141 H 381.389 -3.16015 2.05947 0
M  V30 4142 H 383.776 -2.70575 1.17784 0
M  V30 4143 H 383.857 -1.27596 2.21705 0
M  V30 4144 H 383.501 -2.76736 4.25887 0
M  V30 4145 H 383.431 -4.19036 3.1893 0
M  V30 4146 H 385.922 -2.74547 2.59677 0
M  V30 4147 H 386.235 -5.16638 5.74722 0
M  V30 4148 H 384.58 -4.65143 5.16398 0
M  V30 4149 H 387.771 -3.34234 3.27727 0
M  V30 4150 H 387.944 -4.44646 4.71375 0
M  V30 4151 N 381.35 -0.985608 -1.22978 0
M  V30 4152 C 382.766 -0.695104 -1.43668 0
M  V30 4153 C 382.966 0.736866 -1.87543 0
M  V30 4154 O 382.022 1.50868 -2.02473 0
M  V30 4155 C 383.335 -1.69447 -2.48412 0
M  V30 4156 C 384.883 -1.70909 -2.62219 0
M  V30 4157 C 385.358 -2.6969 -3.70178 0
M  V30 4158 N 386.849 -2.6824 -3.77626 0
M  V30 4159 C 387.584 -3.41339 -4.60733 0
M  V30 4160 N 387.08 -4.24015 -5.4789 0
M  V30 4161 N 388.873 -3.30079 -4.54977 0
M  V30 4162 H 381.024 -1.91054 -0.928016 0
M  V30 4163 H 383.287 -0.823553 -0.469536 0
M  V30 4164 H 382.993 -2.7188 -2.23102 0
M  V30 4165 H 382.867 -1.48147 -3.46889 0
M  V30 4166 H 385.254 -0.691785 -2.86877 0
M  V30 4167 H 385.335 -1.96276 -1.6404 0
M  V30 4168 H 384.979 -3.71566 -3.46268 0
M  V30 4169 H 384.909 -2.41595 -4.67909 0
M  V30 4170 H 387.4 -2.08243 -3.15346 0
M  V30 4171 H 387.713 -4.76636 -6.08308 0
M  V30 4172 H 386.058 -4.28104 -5.47496 0
M  V30 4173 H 389.249 -2.64937 -3.85909 0
M  V30 4174 H 389.422 -3.87308 -5.19516 0
M  V30 4175 N 382.828 1.3818 -0.7579 0
M  V30 4176 C 384.239 1.82726 -0.383134 0
M  V30 4177 C 384.59 1.63214 1.08884 0
M  V30 4178 O 383.715 1.13566 1.84205 0
M  V30 4179 C 384.31 3.31728 -0.688631 0
M  V30 4180 C 382.869 3.74606 -0.367091 0
M  V30 4181 C 382.016 2.60896 -0.939599 0
M  V30 4182 H 384.967 1.26847 -0.953699 0
M  V30 4183 H 384.988 3.80487 0.0316492 0
M  V30 4184 H 384.5 3.45898 -1.76001 0
M  V30 4185 H 382.601 3.66013 0.697532 0
M  V30 4186 H 382.714 4.71215 -0.865658 0
M  V30 4187 H 381.078 2.52075 -0.3647 0
M  V30 4188 H 381.861 2.77864 -2.0161 0
M  V30 4189 N 384.306 0.507319 1.49211 0
M  V30 4190 C 385.253 -0.267728 2.29242 0
M  V30 4191 C 386.223 -0.954609 1.35928 0
M  V30 4192 O 387.408 -0.960046 1.64887 0
M  V30 4193 C 384.548 -1.32243 3.18756 0
M  V30 4194 C 383.661 -0.64669 4.27132 0
M  V30 4195 C 382.796 -1.68238 5.03855 0
M  V30 4196 C 381.835 -0.98885 6.0406 0
M  V30 4197 N 380.972 -1.96903 6.73924 0
M  V30 4198 H 385.812 0.420968 2.95012 0
M  V30 4199 H 383.349 0.219443 1.45454 0
M  V30 4200 H 385.307 -1.94599 3.69036 0
M  V30 4201 H 383.937 -1.97981 2.54958 0
M  V30 4202 H 382.989 0.0902926 3.80293 0
M  V30 4203 H 384.301 -0.101058 4.98698 0
M  V30 4204 H 383.455 -2.38081 5.58034 0
M  V30 4205 H 382.194 -2.26187 4.32077 0
M  V30 4206 H 381.199 -0.276222 5.49106 0
M  V30 4207 H 382.424 -0.415767 6.77826 0
M  V30 4208 H 380.37 -2.53803 6.04913 0
M  V30 4209 H 380.287 -1.47423 7.41487 0
M  V30 4210 H 381.555 -2.66015 7.32705 0
M  V30 4211 N 385.784 -1.5574 0.241426 0
M  V30 4212 C 387.031 -1.9881 -0.384836 0
M  V30 4213 C 387.359 -1.12947 -1.58346 0
M  V30 4214 O 386.614 -0.178993 -1.9488 0
M  V30 4215 C 386.913 -3.47308 -0.843317 0
M  V30 4216 C 386.579 -4.50223 0.246946 0
M  V30 4217 C 385.241 -4.78088 0.546399 0
M  V30 4218 C 387.593 -5.11841 0.983282 0
M  V30 4219 C 384.921 -5.64846 1.58636 0
M  V30 4220 C 387.273 -5.99727 2.01272 0
M  V30 4221 C 385.937 -6.25927 2.31888 0
M  V30 4222 H 385.207 -0.727496 -0.140821 0
M  V30 4223 H 387.854 -1.8831 0.348106 0
M  V30 4224 H 386.159 -3.55112 -1.65537 0
M  V30 4225 H 387.856 -3.78017 -1.33806 0
M  V30 4226 H 384.446 -4.286 0.00340639 0
M  V30 4227 H 388.63 -4.90366 0.765182 0
M  V30 4228 H 383.886 -5.83403 1.82896 0
M  V30 4229 H 388.06 -6.46517 2.58823 0
M  V30 4230 H 385.687 -6.92949 3.12611 0
M  V30 4231 N 387.262 0.0317525 -1.57568 0
M  V30 4232 C 388.172 1.05021 -2.0978 0
M  V30 4233 C 389.188 1.39809 -1.03583 0
M  V30 4234 O 390.364 1.49182 -1.35302 0
M  V30 4235 C 387.429 2.33301 -2.56459 0
M  V30 4236 C 386.49 2.0512 -3.77127 0
M  V30 4237 C 385.723 3.27283 -4.2157 0
M  V30 4238 O 385.946 4.37861 -3.65559 0
M  V30 4239 O 384.88 3.13141 -5.14029 0
M  V30 4240 H 388.706 0.636505 -2.96955 0
M  V30 4241 H 386.291 0.248559 -1.47318 0
M  V30 4242 H 388.173 3.08722 -2.86825 0
M  V30 4243 H 386.848 2.73973 -1.72397 0
M  V30 4244 H 385.755 1.27276 -3.51784 0
M  V30 4245 H 387.088 1.69305 -4.62165 0
M  V30 4246 N 388.74 1.54641 0.303973 0
M  V30 4247 C 389.988 1.73437 1.0375 0
M  V30 4248 C 390.309 0.521449 1.87899 0
M  V30 4249 O 389.579 -0.46432 1.90318 0
M  V30 4250 H 388.159 0.639518 0.386039 0
M  V30 4251 H 390.821 1.91988 0.335675 0
M  V30 4252 H 389.917 2.62235 1.69231 0
M  V30 4253 N 390.218 -0.567019 1.47046 0
M  V30 4254 C 391.168 -1.67018 1.55207 0
M  V30 4255 C 392.152 -1.55543 0.411714 0
M  V30 4256 O 393.344 -1.64192 0.661064 0
M  V30 4257 C 390.473 -3.05801 1.56014 0
M  V30 4258 C 389.559 -3.22515 2.75399 0
M  V30 4259 N 389.95 -3.09329 4.00186 0
M  V30 4260 C 388.248 -3.53493 2.71954 0
M  V30 4261 C 388.949 -3.2847 4.80086 0
M  V30 4262 N 387.925 -3.54352 4.12233 0
M  V30 4263 H 391.727 -1.55377 2.4947 0
M  V30 4264 H 389.241 -0.771503 1.42904 0
M  V30 4265 H 391.238 -3.84996 1.59949 0
M  V30 4266 H 389.898 -3.18561 0.628396 0
M  V30 4267 H 390.909 -2.86863 4.31196 0
M  V30 4268 H 387.586 -3.7284 1.87873 0
M  V30 4269 H 388.976 -3.23326 5.88991 0
M  V30 4270 N 391.696 -1.35014 -0.812953 0
M  V30 4271 C 393.107 -1.25035 -1.38648 0
M  V30 4272 C 393.458 0.119967 -1.95833 0
M  V30 4273 O 392.583 1.02069 -1.90816 0
M  V30 4274 C 393.178 -2.26394 -2.52054 0
M  V30 4275 C 391.737 -2.20175 -3.05287 0
M  V30 4276 C 390.884 -2.12451 -1.78213 0
M  V30 4277 H 393.835 -1.46235 -0.616516 0
M  V30 4278 H 393.856 -1.88672 -3.30429 0
M  V30 4279 H 393.368 -3.26116 -2.10404 0
M  V30 4280 H 391.469 -1.23841 -3.51417 0
M  V30 4281 H 391.582 -3.11863 -3.63701 0
M  V30 4282 H 389.946 -1.58328 -1.9951 0
M  V30 4283 H 390.729 -3.14024 -1.38723 0
M  V30 4284 N 393.175 1.03435 -1.18907 0
M  V30 4285 C 394.586 1.58195 -0.991523 0
M  V30 4286 C 394.937 1.90801 0.457081 0
M  V30 4287 O 394.062 1.70272 1.33553 0
M  V30 4288 C 394.657 2.87432 -1.79355 0
M  V30 4289 C 393.216 3.38785 -1.64017 0
M  V30 4290 C 392.363 2.12292 -1.78402 0
M  V30 4291 H 395.314 0.860299 -1.33359 0
M  V30 4292 H 395.335 3.58096 -1.28638 0
M  V30 4293 H 394.847 2.63669 -2.84781 0
M  V30 4294 H 392.948 3.67547 -0.611536 0
M  V30 4295 H 393.061 4.12186 -2.44212 0
M  V30 4296 H 391.425 2.23901 -1.2141 0
M  V30 4297 H 392.208 1.90977 -2.85277 0
M  V30 4298 N 394.653 0.992116 1.22453 0
M  V30 4299 C 395.563 0.55065 2.28046 0
M  V30 4300 C 396.579 -0.400189 1.69335 0
M  V30 4301 O 397.755 -0.267215 1.99619 0
M  V30 4302 C 394.82 -0.128496 3.46462 0
M  V30 4303 C 393.881 0.865208 4.20491 0
M  V30 4304 C 393.114 0.218377 5.33253 0
M  V30 4305 O 393.337 -0.987894 5.6178 0
M  V30 4306 O 392.271 0.922845 5.94783 0
M  V30 4307 H 396.097 1.4291 2.67975 0
M  V30 4308 H 393.682 0.760326 1.28606 0
M  V30 4309 H 395.564 -0.508947 4.18315 0
M  V30 4310 H 394.239 -0.981526 3.0846 0
M  V30 4311 H 393.146 1.29658 3.50913 0
M  V30 4312 H 394.479 1.68741 4.62371 0
M  V30 4313 N 396.131 -1.37776 0.765217 0
M  V30 4314 C 397.356 -2.04651 0.336537 0
M  V30 4315 C 397.781 -1.57337 -1.03086 0
M  V30 4316 O 397.139 -0.730621 -1.65927 0
M  V30 4317 C 397.187 -3.58577 0.381468 0
M  V30 4318 O 396.291 -4.07706 -0.62042 0
M  V30 4319 H 395.632 -0.64756 0.146838 0
M  V30 4320 H 398.162 -1.76221 1.03959 0
M  V30 4321 H 398.172 -4.07314 0.236448 0
M  V30 4322 H 396.847 -3.9237 1.37907 0
M  V30 4323 H 395.424 -3.70306 -0.439056 0
M  V30 4324 N 397.609 -0.515225 -1.4894 0
M  V30 4325 C 398.855 0.016187 -2.03394 0
M  V30 4326 C 399.21 1.33377 -1.38666 0
M  V30 4327 O 398.503 1.84461 -0.518141 0
M  V30 4328 C 398.697 0.210595 -3.56779 0
M  V30 4329 C 398.526 -1.08659 -4.36375 0
M  V30 4330 C 397.296 -1.64237 -4.77864 0
M  V30 4331 C 399.494 -1.9935 -4.74093 0
M  V30 4332 N 397.476 -2.88398 -5.41941 0
M  V30 4333 C 398.847 -3.08088 -5.38035 0
M  V30 4334 C 400.902 -1.99856 -4.56029 0
M  V30 4335 C 399.605 -4.17377 -5.85823 0
M  V30 4336 C 401.631 -3.08129 -5.04787 0
M  V30 4337 C 400.993 -4.15586 -5.68742 0
M  V30 4338 H 397.092 -0.0352107 -0.781207 0
M  V30 4339 H 399.676 -0.693237 -1.8194 0
M  V30 4340 H 397.847 0.889088 -3.78087 0
M  V30 4341 H 399.579 0.740287 -3.97872 0
M  V30 4342 H 396.334 -1.18566 -4.58518 0
M  V30 4343 H 396.758 -3.51572 -5.78555 0
M  V30 4344 H 401.4 -1.18079 -4.05977 0
M  V30 4345 H 399.118 -4.99943 -6.34888 0
M  V30 4346 H 402.704 -3.09557 -4.92611 0
M  V30 4347 H 401.584 -4.97987 -6.05787 0
M  V30 4348 N 399.087 1.5561 -0.249682 0
M  V30 4349 C 400.034 2.21496 0.648694 0
M  V30 4350 C 401.004 1.17977 1.16921 0
M  V30 4351 O 402.189 1.46434 1.22318 0
M  V30 4352 C 399.329 2.92039 1.83868 0
M  V30 4353 C 398.442 4.10219 1.35442 0
M  V30 4354 C 397.577 4.6847 2.50419 0
M  V30 4355 C 396.616 5.78893 1.98869 0
M  V30 4356 N 395.753 6.31315 3.07223 0
M  V30 4357 H 400.593 2.97892 0.0801582 0
M  V30 4358 H 398.13 1.47074 0.0278031 0
M  V30 4359 H 400.088 3.31138 2.53778 0
M  V30 4360 H 398.718 2.18111 2.37965 0
M  V30 4361 H 397.77 3.76413 0.54928 0
M  V30 4362 H 399.082 4.89927 0.936649 0
M  V30 4363 H 398.236 5.10158 3.28366 0
M  V30 4364 H 396.975 3.87984 2.95499 0
M  V30 4365 H 395.98 5.3668 1.19393 0
M  V30 4366 H 397.205 6.61232 1.54755 0
M  V30 4367 H 395.151 5.53733 3.51732 0
M  V30 4368 H 395.068 7.06224 2.69784 0
M  V30 4369 H 396.336 6.77662 3.8522 0
M  V30 4370 N 400.565 -0.0233959 1.57583 0
M  V30 4371 C 401.811 -0.708611 1.90657 0
M  V30 4372 C 402.166 -1.7266 0.848895 0
M  V30 4373 O 401.459 -1.91075 -0.141749 0
M  V30 4374 C 401.653 -1.41428 3.28227 0
M  V30 4375 C 401.482 -0.466155 4.47277 0
M  V30 4376 C 400.252 -0.085117 5.05228 0
M  V30 4377 C 402.45 0.257836 5.13653 0
M  V30 4378 N 400.432 0.863672 6.07794 0
M  V30 4379 C 401.803 1.06209 6.10835 0
M  V30 4380 C 403.858 0.324174 4.96844 0
M  V30 4381 C 402.561 1.9266 6.93018 0
M  V30 4382 C 404.587 1.17583 5.79593 0
M  V30 4383 C 403.949 1.96799 6.7635 0
M  V30 4384 H 400.048 -0.233222 0.746412 0
M  V30 4385 H 402.632 0.0314512 1.94675 0
M  V30 4386 H 400.803 -2.12477 3.25128 0
M  V30 4387 H 402.535 -2.05233 3.488 0
M  V30 4388 H 399.29 -0.448516 4.71471 0
M  V30 4389 H 399.714 1.33274 6.63752 0
M  V30 4390 H 404.356 -0.273975 4.21911 0
M  V30 4391 H 402.074 2.53552 7.67292 0
M  V30 4392 H 405.66 1.23076 5.68633 0
M  V30 4393 H 404.54 2.61635 7.39268 0
M  V30 4394 N 402.043 -1.548 -0.295768 0
M  V30 4395 C 403.292 -1.73538 -1.02798 0
M  V30 4396 C 403.605 -0.531159 -1.8825 0
M  V30 4397 O 404.811 -0.600458 -2.64777 0
M  V30 4398 C 403.267 -3.07051 -1.87744 0
M  V30 4399 C 402.875 -4.34968 -1.07269 0
M  V30 4400 C 404.619 -3.35146 -2.60533 0
M  V30 4401 C 402.526 -5.5953 -1.91521 0
M  V30 4402 H 401.456 -0.646794 -0.387522 0
M  V30 4403 H 404.107 -1.81278 -0.284718 0
M  V30 4404 H 402.489 -2.93289 -2.66078 0
M  V30 4405 H 403.663 -4.5958 -0.335117 0
M  V30 4406 H 401.978 -4.13847 -0.460384 0
M  V30 4407 H 404.575 -4.2541 -3.23929 0
M  V30 4408 H 404.918 -2.54255 -3.29636 0
M  V30 4409 H 405.451 -3.49902 -1.89244 0
M  V30 4410 H 402.19 -6.43103 -1.26878 0
M  V30 4411 H 401.71 -5.39096 -2.62937 0
M  V30 4412 H 403.389 -5.96982 -2.49442 0
M  V30 4413 N 403.521 0.559213 -1.47345 0
M  V30 4414 C 404.451 1.67622 -1.62558 0
M  V30 4415 C 405.432 1.63331 -0.475087 0
M  V30 4416 O 406.617 1.80983 -0.704182 0
M  V30 4417 C 403.747 3.0626 -1.63774 0
M  V30 4418 C 402.701 3.25397 -2.7803 0
M  V30 4419 C 402.027 4.64801 -2.64318 0
M  V30 4420 C 403.327 3.10965 -4.19641 0
M  V30 4421 H 405.021 1.55146 -2.56067 0
M  V30 4422 H 402.567 0.744961 -1.23233 0
M  V30 4423 H 404.52 3.84247 -1.73008 0
M  V30 4424 H 403.244 3.1969 -0.66825 0
M  V30 4425 H 401.903 2.49817 -2.68304 0
M  V30 4426 H 401.551 4.75028 -1.65401 0
M  V30 4427 H 401.251 4.78555 -3.40968 0
M  V30 4428 H 402.775 5.44926 -2.75478 0
M  V30 4429 H 404.189 3.78772 -4.30354 0
M  V30 4430 H 402.586 3.36229 -4.97062 0
M  V30 4431 H 403.656 2.07736 -4.38148 0
M  V30 4432 N 404.999 1.35443 0.805782 0
M  V30 4433 C 405.962 1.28301 1.89925 0
M  V30 4434 C 406.962 0.194285 1.59622 0
M  V30 4435 O 408.152 0.448036 1.6834 0
M  V30 4436 C 405.284 0.984997 3.2636 0
M  V30 4437 H 406.477 2.2553 1.97677 0
M  V30 4438 H 404.03 1.19979 1.00173 0
M  V30 4439 H 404.765 0.016603 3.24296 0
M  V30 4440 H 404.55 1.77269 3.4974 0
M  V30 4441 H 406.04 0.960651 4.064 0
M  V30 4442 N 406.477 -1.02803 1.19454 0
M  V30 4443 C 407.888 -1.57667 0.999899 0
M  V30 4444 C 408.239 -1.91041 -0.446956 0
M  V30 4445 O 407.364 -1.70978 -1.32648 0
M  V30 4446 C 407.959 -2.86477 1.80877 0
M  V30 4447 C 406.518 -3.37911 1.65811 0
M  V30 4448 C 405.665 -2.11343 1.79526 0
M  V30 4449 H 408.616 -0.853214 1.33813 0
M  V30 4450 H 408.637 -3.57408 1.30536 0
M  V30 4451 H 408.149 -2.62155 2.86175 0
M  V30 4452 H 406.25 -3.67218 0.63102 0
M  V30 4453 H 406.363 -4.10885 2.46395 0
M  V30 4454 H 404.727 -2.23254 1.22596 0
M  V30 4455 H 405.51 -1.89461 2.86285 0
M  V30 4456 N 407.956 -0.998596 -1.21925 0
M  V30 4457 C 409.202 -0.678667 -1.91107 0
M  V30 4458 C 409.535 0.78791 -1.77498 0
M  V30 4459 O 408.81 1.57043 -1.1475 0
M  V30 4460 C 409.093 -1.09245 -3.43129 0
M  V30 4461 C 408.946 -2.61801 -3.6576 0
M  V30 4462 C 410.265 -0.649984 -4.35274 0
M  V30 4463 H 407.384 -0.248025 -0.694012 0
M  V30 4464 H 410.026 -1.24314 -1.43688 0
M  V30 4465 H 408.176 -0.612171 -3.83647 0
M  V30 4466 H 409.848 -3.17543 -3.34611 0
M  V30 4467 H 408.091 -3.03609 -3.09845 0
M  V30 4468 H 408.762 -2.85804 -4.7225 0
M  V30 4469 H 411.238 -1.0626 -4.02303 0
M  V30 4470 H 410.114 -0.967743 -5.40302 0
M  V30 4471 H 410.375 0.449139 -4.39813 0
M  V30 4472 N 409.434 1.37368 -0.772513 0
M  V30 4473 C 410.683 1.98918 -0.333861 0
M  V30 4474 C 410.996 1.62017 1.09589 0
M  V30 4475 O 412.202 2.16676 1.63596 0
M  V30 4476 C 410.658 3.55735 -0.545971 0
M  V30 4477 C 410.266 4.01573 -1.98603 0
M  V30 4478 C 412.01 4.24156 -0.170979 0
M  V30 4479 C 409.917 5.51102 -2.1457 0
M  V30 4480 H 408.847 0.744214 -0.121085 0
M  V30 4481 H 411.498 1.56888 -0.95175 0
M  V30 4482 H 409.88 3.95748 0.141387 0
M  V30 4483 H 411.054 3.72803 -2.7084 0
M  V30 4484 H 409.369 3.45937 -2.31769 0
M  V30 4485 H 411.966 5.34024 -0.26878 0
M  V30 4486 H 412.309 4.06917 0.878855 0
M  V30 4487 H 412.842 3.89447 -0.810914 0
M  V30 4488 H 409.581 5.73268 -3.17875 0
M  V30 4489 H 409.101 5.81554 -1.46817 0
M  V30 4490 H 410.78 6.17083 -1.94468 0
M  V30 4491 N 410.912 0.523116 1.48665 0
M  V30 4492 C 411.842 -0.23231 2.32342 0
M  V30 4493 C 412.823 -0.941637 1.41659 0
M  V30 4494 O 414.008 -0.928751 1.70552 0
M  V30 4495 C 411.138 -1.28387 3.22698 0
M  V30 4496 C 410.092 -0.693098 4.22351 0
M  V30 4497 C 409.418 -1.8468 5.01794 0
M  V30 4498 C 410.718 0.33063 5.21252 0
M  V30 4499 H 412.412 0.466192 2.95748 0
M  V30 4500 H 409.958 0.225643 1.42221 0
M  V30 4501 H 411.911 -1.82024 3.80059 0
M  V30 4502 H 410.635 -2.01186 2.57278 0
M  V30 4503 H 409.294 -0.178299 3.66166 0
M  V30 4504 H 408.942 -2.56301 4.32804 0
M  V30 4505 H 408.642 -1.45747 5.69238 0
M  V30 4506 H 410.166 -2.38709 5.62006 0
M  V30 4507 H 411.58 -0.118407 5.73178 0
M  V30 4508 H 409.977 0.636974 5.9671 0
M  V30 4509 H 411.047 1.23883 4.68808 0
M  V30 4510 N 412.39 -1.55475 0.257931 0
M  V30 4511 C 413.62 -2.03314 -0.367026 0
M  V30 4512 C 414.028 -1.13625 -1.51281 0
M  V30 4513 O 413.371 -0.145334 -1.83124 0
M  V30 4514 C 413.433 -3.47362 -0.926284 0
M  V30 4515 C 413.097 -4.56914 0.0886584 0
M  V30 4516 C 414.094 -5.12013 0.902123 0
M  V30 4517 C 411.779 -5.01827 0.217936 0
M  V30 4518 C 413.773 -6.10529 1.83122 0
M  V30 4519 C 411.46 -6.00172 1.15052 0
M  V30 4520 C 412.458 -6.54402 1.95568 0
M  V30 4521 O 412.146 -7.50827 2.87253 0
M  V30 4522 H 411.878 -0.669976 -0.0900443 0
M  V30 4523 H 414.432 -2.01804 0.382673 0
M  V30 4524 H 412.662 -3.46056 -1.72575 0
M  V30 4525 H 414.351 -3.78637 -1.46249 0
M  V30 4526 H 415.117 -4.78139 0.812891 0
M  V30 4527 H 410.996 -4.59272 -0.398721 0
M  V30 4528 H 414.54 -6.52783 2.46008 0
M  V30 4529 H 410.437 -6.33465 1.24064 0
M  V30 4530 H 411.205 -7.68483 2.81739 0
M  V30 4531 N 413.868 0.0150385 -1.57593 0
M  V30 4532 C 415.117 0.702115 -1.89085 0
M  V30 4533 C 415.43 1.75764 -0.858277 0
M  V30 4534 O 416.636 2.49829 -1.0629 0
M  V30 4535 C 415.092 1.29992 -3.35604 0
M  V30 4536 C 414.7 0.280007 -4.47124 0
M  V30 4537 C 416.444 1.96606 -3.76227 0
M  V30 4538 C 414.351 0.886949 -5.84711 0
M  V30 4539 H 413.281 0.265997 -0.705522 0
M  V30 4540 H 415.932 -0.0430408 -1.8345 0
M  V30 4541 H 414.314 2.09525 -3.36029 0
M  V30 4542 H 415.488 -0.489631 -4.58191 0
M  V30 4543 H 413.803 -0.284835 -4.15425 0
M  V30 4544 H 416.4 2.42893 -4.76347 0
M  V30 4545 H 416.743 2.79024 -3.08952 0
M  V30 4546 H 417.276 1.23828 -3.78036 0
M  V30 4547 H 414.015 0.101876 -6.55421 0
M  V30 4548 H 413.535 1.6261 -5.77337 0
M  V30 4549 H 415.214 1.39011 -6.3189 0
M  V30 4550 N 415.346 1.54954 0.287554 0
M  V30 4551 C 416.586 1.76617 1.02887 0
M  V30 4552 C 416.95 0.547759 1.84021 0
M  V30 4553 O 418.151 0.642365 2.61012 0
M  V30 4554 C 416.422 3.02717 1.89993 0
M  V30 4555 S 417.981 3.45438 2.70588 0
M  V30 4556 H 414.799 0.6207 0.346775 0
M  V30 4557 H 417.401 1.93172 0.30082 0
M  V30 4558 H 416.105 3.89503 1.29287 0
M  V30 4559 H 415.636 2.88787 2.67144 0
M  V30 4560 H 417.651 3.03566 3.92508 0
M  V30 4561 N 416.824 -0.551391 1.4764 0
M  V30 4562 C 417.734 -1.68525 1.63207 0
M  V30 4563 C 418.75 -1.6621 0.514815 0
M  V30 4564 O 419.926 -1.85551 0.783113 0
M  V30 4565 C 416.991 -3.05025 1.64805 0
M  V30 4566 C 416.052 -3.18362 2.88 0
M  V30 4567 C 415.285 -4.4835 2.89513 0
M  V30 4568 O 415.508 -5.34163 2.00065 0
M  V30 4569 O 414.442 -4.65602 3.81443 0
M  V30 4570 H 418.268 -1.58333 2.59161 0
M  V30 4571 H 415.853 -0.722063 1.30792 0
M  V30 4572 H 417.735 -3.86245 1.68502 0
M  V30 4573 H 416.41 -3.15587 0.720197 0
M  V30 4574 H 415.317 -2.36518 2.89845 0
M  V30 4575 H 416.65 -3.12707 3.80099 0
M  V30 4576 N 418.302 -1.35869 -0.798587 0
M  V30 4577 C 419.718 -1.16082 -1.09532 0
M  V30 4578 C 419.918 0.0213124 -2.01489 0
M  V30 4579 O 418.974 0.689488 -2.42904 0
M  V30 4580 C 420.287 -2.46748 -1.7186 0
M  V30 4581 C 421.835 -2.53028 -1.84244 0
M  V30 4582 C 422.31 -3.83758 -2.49988 0
M  V30 4583 N 423.801 -3.85053 -2.57465 0
M  V30 4584 C 424.536 -4.8294 -3.09122 0
M  V30 4585 N 424.032 -5.91217 -3.61157 0
M  V30 4586 N 425.825 -4.70369 -3.0775 0
M  V30 4587 H 417.976 -2.11571 -0.187461 0
M  V30 4588 H 420.239 -0.936726 -0.145765 0
M  V30 4589 H 419.945 -3.33471 -1.11759 0
M  V30 4590 H 419.819 -2.61883 -2.71472 0
M  V30 4591 H 422.206 -1.66729 -2.43486 0
M  V30 4592 H 422.287 -2.418 -0.834643 0
M  V30 4593 H 421.931 -4.70459 -1.91393 0
M  V30 4594 H 421.861 -3.92278 -3.5132 0
M  V30 4595 H 424.352 -3.06822 -2.20609 0
M  V30 4596 H 424.665 -6.61892 -3.98896 0
M  V30 4597 H 423.01 -5.94899 -3.59333 0
M  V30 4598 H 426.201 -3.84914 -2.66381 0
M  V30 4599 H 426.374 -5.46816 -3.47701 0
M  V30 4600 N 419.78 1.02168 -1.19998 0
M  V30 4601 C 421.029 1.75091 -1.0013 0
M  V30 4602 C 421.342 1.89923 0.467835 0
M  V30 4603 O 422.548 2.59888 0.785515 0
M  V30 4604 C 421.004 3.14892 -1.74273 0
M  V30 4605 C 420.612 3.0809 -3.25245 0
M  V30 4606 C 422.356 3.9206 -1.62755 0
M  V30 4607 C 420.263 4.42867 -3.91948 0
M  V30 4608 H 419.193 0.656394 -0.37103 0
M  V30 4609 H 421.844 1.14284 -1.43567 0
M  V30 4610 H 420.226 3.7621 -1.2362 0
M  V30 4611 H 421.4 2.5611 -3.83072 0
M  V30 4612 H 419.715 2.44416 -3.3712 0
M  V30 4613 H 422.312 4.91764 -2.09934 0
M  V30 4614 H 422.655 4.12199 -0.582894 0
M  V30 4615 H 423.188 3.37359 -2.10793 0
M  V30 4616 H 419.927 4.27931 -4.96543 0
M  V30 4617 H 419.447 4.94874 -3.3891 0
M  V30 4618 H 421.126 5.11728 -3.95909 0
M  V30 4619 N 421.258 1.00505 1.21394 0
M  V30 4620 C 422.188 0.585684 2.26035 0
M  V30 4621 C 423.169 -0.393525 1.65485 0
M  V30 4622 O 424.354 -0.281497 1.92149 0
M  V30 4623 C 421.484 -0.0884283 3.47187 0
M  V30 4624 C 420.438 0.810567 4.20254 0
M  V30 4625 C 419.764 0.00286382 5.347 0
M  V30 4626 C 421.064 2.1132 4.77641 0
M  V30 4627 H 422.758 1.46039 2.61368 0
M  V30 4628 H 420.304 0.703648 1.25638 0
M  V30 4629 H 422.257 -0.393286 4.19561 0
M  V30 4630 H 420.981 -0.997766 3.10986 0
M  V30 4631 H 419.64 1.09925 3.49731 0
M  V30 4632 H 419.288 -0.907765 4.94741 0
M  V30 4633 H 418.988 0.601444 5.84514 0
M  V30 4634 H 420.512 -0.295808 6.09883 0
M  V30 4635 H 421.926 1.87148 5.41893 0
M  V30 4636 H 420.323 2.66164 5.37845 0
M  V30 4637 H 421.393 2.78393 3.9702 0
M  V30 4638 N 422.737 -1.36956 0.779787 0
M  V30 4639 C 424.153 -1.52817 0.460342 0
M  V30 4640 C 424.353 -1.7361 -1.02283 0
M  V30 4641 O 423.409 -1.76207 -1.80852 0
M  V30 4642 C 424.722 -2.71983 1.28241 0
M  V30 4643 C 426.27 -2.85849 1.27512 0
M  V30 4644 C 426.745 -4.08008 2.08072 0
M  V30 4645 N 428.236 -4.15135 2.05467 0
M  V30 4646 C 428.971 -5.08711 2.64577 0
M  V30 4647 N 428.467 -6.07792 3.32506 0
M  V30 4648 N 430.26 -5.01254 2.54363 0
M  V30 4649 H 422.411 -1.21713 1.74068 0
M  V30 4650 H 424.674 -0.593294 0.739396 0
M  V30 4651 H 424.38 -2.63109 2.33381 0
M  V30 4652 H 424.254 -3.65882 0.917088 0
M  V30 4653 H 426.641 -2.94189 0.231686 0
M  V30 4654 H 426.722 -1.92886 1.68014 0
M  V30 4655 H 426.366 -4.00429 3.12441 0
M  V30 4656 H 426.296 -5.001 1.64947 0
M  V30 4657 H 428.787 -3.44189 1.5602 0
M  V30 4658 H 429.1 -6.75739 3.74963 0
M  V30 4659 H 427.445 -6.08047 3.36606 0
M  V30 4660 H 430.636 -4.22795 2.00902 0
M  V30 4661 H 430.809 -5.73995 3.00722 0
M  V30 4662 N 424.215 -0.530993 -1.48385 0
M  V30 4663 C 425.462 0.0027373 -2.025 0
M  V30 4664 C 425.79 1.34186 -1.40799 0
M  V30 4665 O 425.045 1.88 -0.543544 0
M  V30 4666 C 425.344 0.172742 -3.56982 0
M  V30 4667 C 425.01 -1.09215 -4.37473 0
M  V30 4668 C 423.672 -1.43881 -4.59186 0
M  V30 4669 C 426.024 -1.93153 -4.84088 0
M  V30 4670 C 423.352 -2.62381 -5.2476 0
M  V30 4671 C 425.704 -3.10833 -5.50968 0
M  V30 4672 C 424.368 -3.45843 -5.70919 0
M  V30 4673 H 423.638 0.00100165 -0.740999 0
M  V30 4674 H 426.285 -0.697219 -1.78357 0
M  V30 4675 H 424.59 0.955473 -3.79971 0
M  V30 4676 H 426.287 0.600642 -3.96476 0
M  V30 4677 H 422.877 -0.812177 -4.20834 0
M  V30 4678 H 427.061 -1.67683 -4.67115 0
M  V30 4679 H 422.317 -2.89707 -5.38405 0
M  V30 4680 H 426.491 -3.7618 -5.86056 0
M  V30 4681 H 424.118 -4.37764 -6.21503 0
M  V30 4682 N 425.693 1.55336 -0.266172 0
M  V30 4683 C 426.923 2.03506 0.356239 0
M  V30 4684 C 427.331 1.14426 1.50676 0
M  V30 4685 O 426.674 0.155043 1.83045 0
M  V30 4686 C 426.736 3.47848 0.90785 0
M  V30 4687 C 426.4 4.56861 -0.112888 0
M  V30 4688 C 427.397 5.11528 -0.929264 0
M  V30 4689 C 425.082 5.01704 -0.244546 0
M  V30 4690 C 427.076 6.09549 -1.86357 0
M  V30 4691 C 424.763 5.99553 -1.18234 0
M  V30 4692 C 425.761 6.53356 -1.99036 0
M  V30 4693 O 425.449 7.49293 -2.91231 0
M  V30 4694 H 425.181 0.670444 0.08649 0
M  V30 4695 H 427.735 2.01598 -0.39337 0
M  V30 4696 H 425.965 3.46967 1.70737 0
M  V30 4697 H 427.654 3.79407 1.44239 0
M  V30 4698 H 428.42 4.77701 -0.838237 0
M  V30 4699 H 424.299 4.59477 0.374359 0
M  V30 4700 H 427.843 6.51469 -2.49467 0
M  V30 4701 H 423.74 6.32799 -1.27421 0
M  V30 4702 H 424.508 7.66978 -2.8581 0
M  V30 4703 N 427.171 -0.0066808 1.57599 0
M  V30 4704 C 428.587 -0.36267 1.55425 0
M  V30 4705 C 428.787 -1.75209 0.995187 0
M  V30 4706 O 427.843 -2.44616 0.626058 0
M  V30 4707 C 429.156 -0.244017 2.99708 0
M  V30 4708 C 430.704 -0.319451 3.11366 0
M  V30 4709 C 431.179 -0.229998 4.57422 0
M  V30 4710 N 432.67 -0.288105 4.62303 0
M  V30 4711 C 433.405 -0.242127 5.72889 0
M  V30 4712 N 432.901 -0.147133 6.92644 0
M  V30 4713 N 434.694 -0.293502 5.61333 0
M  V30 4714 H 426.845 0.902314 1.92281 0
M  V30 4715 H 429.108 0.34525 0.882896 0
M  V30 4716 H 428.814 0.711678 3.44424 0
M  V30 4717 H 428.688 -1.02877 3.629 0
M  V30 4718 H 431.075 -1.26559 2.66584 0
M  V30 4719 H 431.156 0.495055 2.50964 0
M  V30 4720 H 430.8 0.712566 5.02877 0
M  V30 4721 H 430.73 -1.0629 5.15761 0
M  V30 4722 H 433.221 -0.363126 3.76151 0
M  V30 4723 H 433.534 -0.117763 7.7271 0
M  V30 4724 H 431.879 -0.112857 6.94908 0
M  V30 4725 H 435.07 -0.365864 4.66668 0
M  V30 4726 H 435.243 -0.254204 6.47501 0
M  V30 4727 N 428.649 -1.55105 -0.279332 0
M  V30 4728 C 429.874 -1.7976 -1.03446 0
M  V30 4729 C 430.299 -0.565952 -1.79384 0
M  V30 4730 O 429.657 0.484259 -1.74713 0
M  V30 4731 C 429.705 -3.0179 -1.97371 0
M  V30 4732 O 428.809 -2.76432 -3.06038 0
M  V30 4733 H 428.15 -0.594334 -0.29608 0
M  V30 4734 H 430.68 -2.02235 -0.310165 0
M  V30 4735 H 430.69 -3.30351 -2.39441 0
M  V30 4736 H 429.365 -3.91085 -1.4151 0
M  V30 4737 H 427.942 -2.58949 -2.68328 0
M  V30 4738 N 430.127 0.543554 -1.4793 0
M  V30 4739 C 431.059 1.665 -1.57513 0
M  V30 4740 C 432.072 1.56156 -0.460333 0
M  V30 4741 O 433.261 1.62865 -0.730573 0
M  V30 4742 C 430.361 3.05063 -1.47614 0
M  V30 4743 C 429.534 3.41024 -2.739 0
M  V30 4744 C 428.593 4.58809 -2.57645 0
M  V30 4745 O 427.619 4.62707 -3.31498 0
M  V30 4746 N 428.821 5.56149 -1.66368 0
M  V30 4747 H 431.586 1.5872 -2.5422 0
M  V30 4748 H 429.147 0.730517 -1.44482 0
M  V30 4749 H 431.139 3.81712 -1.34455 0
M  V30 4750 H 429.709 3.06994 -0.589359 0
M  V30 4751 H 428.929 2.53687 -3.01723 0
M  V30 4752 H 430.217 3.61831 -3.57709 0
M  V30 4753 H 429.615 5.55767 -1.05543 0
M  V30 4754 H 428.172 6.32071 -1.59154 0
M  V30 4755 N 431.605 1.3629 0.791371 0
M  V30 4756 C 432.537 1.26321 1.91248 0
M  V30 4757 C 433.55 0.18313 1.61767 0
M  V30 4758 O 434.739 0.437682 1.73051 0
M  V30 4759 C 431.839 0.925901 3.26007 0
M  V30 4760 C 431.012 2.10746 3.83281 0
M  V30 4761 C 430.071 1.74352 4.96475 0
M  V30 4762 O 429.097 2.46416 5.13096 0
M  V30 4763 N 430.299 0.676058 5.7655 0
M  V30 4764 H 433.064 2.22915 2.00323 0
M  V30 4765 H 430.625 1.29659 0.969546 0
M  V30 4766 H 432.617 0.663636 3.99222 0
M  V30 4767 H 431.187 0.0491581 3.12561 0
M  V30 4768 H 430.407 2.53264 3.02077 0
M  V30 4769 H 431.695 2.8969 4.18279 0
M  V30 4770 H 431.093 0.0776467 5.65647 0
M  V30 4771 H 429.65 0.473612 6.50077 0
M  V30 4772 N 433.083 -1.0153 1.20538 0
M  V30 4773 C 434.03 -2.10098 0.955383 0
M  V30 4774 C 435 -1.65702 -0.114878 0
M  V30 4775 O 436.185 -1.90776 0.0301118 0
M  V30 4776 C 433.325 -3.41236 0.514969 0
M  V30 4777 C 432.438 -3.99102 1.65353 0
M  V30 4778 C 431.573 -5.18306 1.16329 0
M  V30 4779 C 430.612 -5.68258 2.27485 0
M  V30 4780 N 429.749 -6.78722 1.7967 0
M  V30 4781 H 434.589 -2.30818 1.88486 0
M  V30 4782 H 432.126 -1.13189 0.939499 0
M  V30 4783 H 434.084 -4.16504 0.240935 0
M  V30 4784 H 432.714 -3.20585 -0.377512 0
M  V30 4785 H 431.766 -3.20918 2.04245 0
M  V30 4786 H 433.078 -4.32177 2.49047 0
M  V30 4787 H 432.232 -6.00782 0.845302 0
M  V30 4788 H 430.971 -4.86799 0.296254 0
M  V30 4789 H 429.976 -4.84385 2.60099 0
M  V30 4790 H 431.201 -6.01798 3.14667 0
M  V30 4791 H 429.147 -6.49042 0.95295 0
M  V30 4792 H 429.064 -7.10996 2.56944 0
M  V30 4793 H 430.332 -7.64759 1.50875 0
M  V30 4794 N 434.561 -1.01147 -1.20859 0
M  V30 4795 C 435.807 -0.698899 -1.90377 0
M  V30 4796 C 436.14 0.76904 -1.78324 0
M  V30 4797 O 435.415 1.55817 -1.16409 0
M  V30 4798 C 435.698 -1.12878 -3.41951 0
M  V30 4799 C 435.551 -2.65665 -3.62963 0
M  V30 4800 C 436.87 -0.696114 -4.3456 0
M  V30 4801 H 433.989 -0.255372 -0.691342 0
M  V30 4802 H 436.631 -1.25831 -1.42361 0
M  V30 4803 H 434.781 -0.652827 -3.82976 0
M  V30 4804 H 436.453 -3.21074 -3.31224 0
M  V30 4805 H 434.696 -3.06878 -3.06608 0
M  V30 4806 H 435.367 -2.90797 -4.69192 0
M  V30 4807 H 437.843 -1.10521 -4.01154 0
M  V30 4808 H 436.719 -1.025 -5.39245 0
M  V30 4809 H 436.98 0.402465 -4.40264 0
M  V30 4810 N 436.039 1.36541 -0.78704 0
M  V30 4811 C 437.285 1.99599 -0.358872 0
M  V30 4812 C 437.618 1.62323 1.06606 0
M  V30 4813 O 436.893 0.876858 1.73613 0
M  V30 4814 C 437.176 3.56327 -0.519944 0
M  V30 4815 C 437.029 4.03464 -1.98839 0
M  V30 4816 C 438.348 4.4005 0.0664737 0
M  V30 4817 H 435.467 0.725107 -0.131869 0
M  V30 4818 H 438.109 1.6199 -0.992936 0
M  V30 4819 H 436.259 3.88495 0.0198321 0
M  V30 4820 H 437.931 3.81793 -2.58905 0
M  V30 4821 H 436.174 3.55092 -2.49183 0
M  V30 4822 H 436.845 5.12439 -2.05207 0
M  V30 4823 H 439.321 4.14228 -0.394267 0
M  V30 4824 H 438.197 5.48847 -0.0762682 0
M  V30 4825 H 438.458 4.26655 1.15835 0
M  V30 4826 N 437.518 0.538854 1.48102 0
M  V30 4827 C 438.767 0.0059532 2.01699 0
M  V30 4828 C 439.08 -1.34476 1.42041 0
M  V30 4829 O 440.286 -1.96653 1.87189 0
M  V30 4830 C 438.742 -0.0397627 3.59878 0
M  V30 4831 C 438.35 1.30659 4.28523 0
M  V30 4832 C 440.094 -0.521024 4.2129 0
M  V30 4833 C 438.001 1.22098 5.78659 0
M  V30 4834 H 436.931 -0.00154456 0.753998 0
M  V30 4835 H 439.582 0.683963 1.70277 0
M  V30 4836 H 437.964 -0.783037 3.88181 0
M  V30 4837 H 439.138 2.06613 4.11883 0
M  V30 4838 H 437.453 1.7243 3.79021 0
M  V30 4839 H 440.05 -0.603184 5.31287 0
M  V30 4840 H 440.393 -1.52885 3.8721 0
M  V30 4841 H 440.926 0.166834 3.9745 0
M  V30 4842 H 437.665 2.20424 6.17328 0
M  V30 4843 H 437.185 0.50295 5.97688 0
M  V30 4844 H 438.864 0.915345 6.40492 0
M  V30 4845 N 438.996 -1.55193 0.274407 0
M  V30 4846 C 440.224 -2.03987 -0.345943 0
M  V30 4847 C 440.639 -1.15279 -1.4952 0
M  V30 4848 O 439.996 -0.172759 -1.8168 0
M  V30 4849 C 440.047 -3.51898 -0.827631 0
M  V30 4850 O 439.768 -4.37231 0.275855 0
M  V30 4851 C 441.269 -4.16577 -1.51587 0
M  V30 4852 H 438.489 -0.666335 -0.0789892 0
M  V30 4853 H 441.033 -2.00423 0.406294 0
M  V30 4854 H 439.188 -3.55909 -1.52996 0
M  V30 4855 H 439.602 -5.24415 -0.0943638 0
M  V30 4856 H 441.076 -5.21678 -1.80433 0
M  V30 4857 H 441.553 -3.64707 -2.44716 0
M  V30 4858 H 442.159 -4.16568 -0.857409 0
M  V30 4859 N 440.474 -0.00167713 -1.576 0
M  V30 4860 C 441.421 0.989195 -2.08527 0
M  V30 4861 C 442.391 1.34031 -0.981065 0
M  V30 4862 O 443.576 1.43839 -1.2536 0
M  V30 4863 C 440.716 2.27537 -2.59463 0
M  V30 4864 C 439.829 1.98314 -3.83791 0
M  V30 4865 C 438.964 3.21025 -4.23222 0
M  V30 4866 C 438.003 2.87495 -5.40382 0
M  V30 4867 N 437.14 4.02749 -5.75098 0
M  V30 4868 H 441.98 0.547973 -2.92919 0
M  V30 4869 H 439.517 0.258917 -1.44803 0
M  V30 4870 H 441.475 3.02729 -2.87073 0
M  V30 4871 H 440.105 2.69325 -1.77943 0
M  V30 4872 H 439.157 1.13482 -3.63078 0
M  V30 4873 H 440.469 1.69601 -4.69081 0
M  V30 4874 H 439.623 4.04561 -4.52123 0
M  V30 4875 H 438.362 3.52877 -3.36644 0
M  V30 4876 H 437.367 2.02367 -5.11202 0
M  V30 4877 H 438.592 2.56889 -6.28637 0
M  V30 4878 H 436.538 4.34494 -4.91478 0
M  V30 4879 H 436.455 3.77566 -6.54966 0
M  V30 4880 H 437.723 4.87068 -6.08592 0
M  V30 4881 N 441.952 1.55251 0.271103 0
M  V30 4882 C 443.198 1.76207 1.00394 0
M  V30 4883 C 443.531 0.562604 1.85872 0
M  V30 4884 O 442.806 -0.439785 1.89463 0
M  V30 4885 C 443.089 3.06828 1.8849 0
M  V30 4886 C 442.942 4.37134 1.05992 0
M  V30 4887 C 444.261 3.33503 2.87165 0
M  V30 4888 H 441.38 0.641086 0.363562 0
M  V30 4889 H 444.022 1.87982 0.276189 0
M  V30 4890 H 442.172 2.96921 2.5054 0
M  V30 4891 H 443.844 4.59001 0.459978 0
M  V30 4892 H 442.087 4.32275 0.363443 0
M  V30 4893 H 442.758 5.2486 1.70955 0
M  V30 4894 H 445.234 3.43215 2.3525 0
M  V30 4895 H 444.11 4.2616 3.45946 0
M  V30 4896 H 444.371 2.53235 3.62387 0
M  V30 4897 N 443.43 -0.535701 1.48216 0
M  V30 4898 C 444.676 -1.29375 1.56173 0
M  V30 4899 C 445.009 -1.92804 0.232429 0
M  V30 4900 O 444.284 -1.78992 -0.761048 0
M  V30 4901 C 444.567 -2.38747 2.69577 0
M  V30 4902 C 444.42 -1.80046 4.12193 0
M  V30 4903 C 445.739 -3.40551 2.78771 0
M  V30 4904 H 442.858 -0.469027 0.568491 0
M  V30 4905 H 445.5 -0.597358 1.80365 0
M  V30 4906 H 443.65 -2.98147 2.4908 0
M  V30 4907 H 445.322 -1.24742 4.44114 0
M  V30 4908 H 443.565 -1.10609 4.19462 0
M  V30 4909 H 444.236 -2.59212 4.87353 0
M  V30 4910 H 446.712 -2.91099 2.97322 0
M  V30 4911 H 445.588 -4.1448 3.59857 0
M  V30 4912 H 445.849 -4.00746 1.86696 0
M  V30 4913 N 444.908 -1.36708 -0.784132 0
M  V30 4914 C 445.841 -1.25827 -1.90375 0
M  V30 4915 C 446.819 -0.141331 -1.61985 0
M  V30 4916 O 448.003 -0.313389 -1.85877 0
M  V30 4917 C 445.13 -0.942621 -3.25319 0
M  V30 4918 C 444.176 -2.07474 -3.72635 0
M  V30 4919 S 445.009 -3.69317 -3.8777 0
M  V30 4920 C 446.165 -3.39876 -5.25581 0
M  V30 4921 H 446.398 -2.20593 -1.99314 0
M  V30 4922 H 443.931 -1.22186 -0.943926 0
M  V30 4923 H 445.889 -0.767321 -4.03265 0
M  V30 4924 H 444.55 -0.0126566 -3.14097 0
M  V30 4925 H 443.743 -1.80858 -4.70432 0
M  V30 4926 H 443.345 -2.20953 -3.01754 0
M  V30 4927 H 445.637 -2.94097 -6.10339 0
M  V30 4928 H 446.58 -4.36956 -5.57203 0
M  V30 4929 H 446.988 -2.75098 -4.92931 0
M  V30 4930 N 446.386 1.0089 -1.21074 0
M  V30 4931 C 447.336 2.0799 -0.934034 0
M  V30 4932 C 448.32 1.60529 0.10919 0
M  V30 4933 O 449.512 1.76722 -0.0992198 0
M  V30 4934 C 446.641 3.39693 -0.496334 0
M  V30 4935 C 445.727 3.93833 -1.57341 0
M  V30 4936 N 446.118 4.21388 -2.7976 0
M  V30 4937 C 444.416 4.22067 -1.44137 0
M  V30 4938 C 445.117 4.65156 -3.49292 0
M  V30 4939 N 444.093 4.67895 -2.76722 0
M  V30 4940 H 447.895 2.27213 -1.86417 0
M  V30 4941 H 445.409 1.18927 -1.10589 0
M  V30 4942 H 447.406 4.15962 -0.279471 0
M  V30 4943 H 446.066 3.21879 0.427084 0
M  V30 4944 H 447.077 4.10061 -3.1634 0
M  V30 4945 H 443.754 4.1341 -0.582947 0
M  V30 4946 H 445.144 4.95231 -4.54088 0
M  V30 4947 N 447.864 1.01787 1.20321 0
M  V30 4948 C 449.275 0.739307 1.71438 0
M  V30 4949 C 449.626 -0.742041 1.81627 0
M  V30 4950 O 448.751 -1.57903 1.47971 0
M  V30 4951 C 449.346 1.33538 3.11373 0
M  V30 4952 C 447.905 1.10566 3.59795 0
M  V30 4953 C 447.052 1.44028 2.36962 0
M  V30 4954 H 450.003 1.18718 1.05317 0
M  V30 4955 H 450.024 0.726611 3.73498 0
M  V30 4956 H 449.536 2.41352 3.03926 0
M  V30 4957 H 447.637 0.0452405 3.72573 0
M  V30 4958 H 447.75 1.78661 4.44542 0
M  V30 4959 H 446.114 0.85933 2.39766 0
M  V30 4960 H 446.897 2.52901 2.32155 0
M  V30 4961 N 449.342 -1.36122 0.79427 0
M  V30 4962 C 450.567 -2.03891 0.379871 0
M  V30 4963 C 450.992 -1.59488 -0.997251 0
M  V30 4964 O 450.35 -0.765652 -1.64339 0
M  V30 4965 C 450.398 -3.57687 0.457442 0
M  V30 4966 O 449.502 -4.08931 -0.5338 0
M  V30 4967 H 448.843 -0.6443 0.160541 0
M  V30 4968 H 451.373 -1.73976 1.07673 0
M  V30 4969 H 451.383 -4.06721 0.322792 0
M  V30 4970 H 450.058 -3.89357 1.46199 0
M  V30 4971 H 448.635 -3.71154 -0.360409 0
M  V30 4972 N 450.82 -0.546701 -1.47814 0
M  V30 4973 C 451.767 0.206854 -2.29871 0
M  V30 4974 C 452.737 0.918235 -1.38411 0
M  V30 4975 O 453.922 0.915991 -1.67375 0
M  V30 4976 C 451.062 1.23746 -3.22151 0
M  V30 4977 C 450.175 0.533216 -4.28697 0
M  V30 4978 C 449.31 1.5482 -5.08138 0
M  V30 4979 C 448.349 0.828347 -6.06469 0
M  V30 4980 N 447.486 1.78966 -6.78908 0
M  V30 4981 H 452.326 -0.499037 -2.93792 0
M  V30 4982 H 449.863 -0.25793 -1.44821 0
M  V30 4983 H 451.821 1.84746 -3.74065 0
M  V30 4984 H 450.451 1.91151 -2.60117 0
M  V30 4985 H 449.503 -0.191089 -3.7992 0
M  V30 4986 H 450.815 -0.0311987 -4.9879 0
M  V30 4987 H 449.969 2.23202 -5.6415 0
M  V30 4988 H 448.708 2.14652 -4.37922 0
M  V30 4989 H 447.713 0.130539 -5.49645 0
M  V30 4990 H 448.938 0.235907 -6.7869 0
M  V30 4991 H 446.884 2.37675 -6.1143 0
M  V30 4992 H 446.801 1.27712 -7.45135 0
M  V30 4993 H 448.069 2.46496 -7.395 0
M  V30 4994 N 452.299 1.55045 -0.282633 0
M  V30 4995 C 453.545 2.00056 0.332481 0
M  V30 4996 C 453.878 1.1708 1.54939 0
M  V30 4997 O 453.153 0.2427 1.9298 0
M  V30 4998 C 453.436 3.53086 0.70725 0
M  V30 4999 C 453.289 4.46813 -0.517521 0
M  V30 5000 C 454.608 4.12245 1.54084 0
M  V30 5001 H 451.727 0.727268 0.119373 0
M  V30 5002 H 454.369 1.85932 -0.391076 0
M  V30 5003 H 452.519 3.65253 1.32372 0
M  V30 5004 H 454.191 4.46579 -1.15607 0
M  V30 5005 H 452.434 4.18163 -1.1542 0
M  V30 5006 H 453.105 5.51595 -0.211426 0
M  V30 5007 H 455.581 4.03401 1.02013 0
M  V30 5008 H 454.457 5.19515 1.77186 0
M  V30 5009 H 454.718 3.62951 2.52427 0
M  V30 5010 N 453.777 0.010035 1.57597 0
M  V30 5011 C 454.707 -0.976857 2.12084 0
M  V30 5012 C 455.688 -1.35191 1.03235 0
M  V30 5013 O 456.873 -1.43389 1.3097 0
M  V30 5014 C 454.003 -2.26548 2.63236 0
M  V30 5015 C 452.957 -2.03175 3.76701 0
M  V30 5016 C 452.283 -3.38138 4.14206 0
M  V30 5017 C 453.583 -1.38625 5.03568 0
M  V30 5018 H 455.277 -0.523145 2.94794 0
M  V30 5019 H 452.823 -0.250195 1.4181 0
M  V30 5020 H 454.776 -2.95952 2.99984 0
M  V30 5021 H 453.5 -2.74051 1.77661 0
M  V30 5022 H 452.159 -1.36195 3.40362 0
M  V30 5023 H 451.807 -3.83363 3.25641 0
M  V30 5024 H 451.507 -3.23312 4.90656 0
M  V30 5025 H 453.031 -4.08841 4.53521 0
M  V30 5026 H 454.445 -1.98 5.38023 0
M  V30 5027 H 452.842 -1.34256 5.84889 0
M  V30 5028 H 453.912 -0.356722 4.83586 0
M  V30 5029 N 455.255 -1.55392 -0.262866 0
M  V30 5030 C 456.165 -1.92077 -1.34698 0
M  V30 5031 C 457.181 -0.819227 -1.53508 0
M  V30 5032 O 458.357 -1.11921 -1.67439 0
M  V30 5033 C 455.422 -2.19407 -2.68443 0
M  V30 5034 C 454.483 -3.42905 -2.58292 0
M  V30 5035 C 453.716 -3.68921 -3.85659 0
M  V30 5036 O 453.939 -2.97275 -4.8681 0
M  V30 5037 O 452.873 -4.62455 -3.85252 0
M  V30 5038 H 456.699 -2.84384 -1.06581 0
M  V30 5039 H 454.284 -1.42069 -0.462264 0
M  V30 5040 H 456.166 -2.38365 -3.47506 0
M  V30 5041 H 454.841 -1.30282 -2.96325 0
M  V30 5042 H 453.748 -3.29272 -1.7757 0
M  V30 5043 H 455.081 -4.32282 -2.35358 0
M  V30 5044 N 456.733 0.527833 -1.48498 0
M  V30 5045 C 457.663 1.64136 -1.66077 0
M  V30 5046 C 458.644 1.62286 -0.509625 0
M  V30 5047 O 459.829 1.79449 -0.742413 0
M  V30 5048 C 456.959 3.02717 -1.70234 0
M  V30 5049 C 455.913 3.19426 -2.8487 0
M  V30 5050 C 455.239 4.5909 -2.74118 0
M  V30 5051 C 456.539 3.01993 -4.26142 0
M  V30 5052 H 458.233 1.4968 -2.593 0
M  V30 5053 H 455.779 0.718654 -1.24785 0
M  V30 5054 H 457.732 3.80491 -1.8112 0
M  V30 5055 H 456.456 3.18201 -0.735911 0
M  V30 5056 H 455.115 2.4407 -2.73542 0
M  V30 5057 H 454.763 4.71413 -1.7544 0
M  V30 5058 H 454.463 4.71214 -3.51042 0
M  V30 5059 H 455.987 5.3896 -2.86974 0
M  V30 5060 H 457.401 3.69558 -4.38292 0
M  V30 5061 H 455.798 3.2561 -5.04082 0
M  V30 5062 H 456.868 1.98396 -4.42456 0
M  V30 5063 N 458.211 1.37122 0.776871 0
M  V30 5064 C 459.143 1.28342 1.89897 0
M  V30 5065 C 460.156 0.200277 1.61563 0
M  V30 5066 O 461.345 0.456012 1.72577 0
M  V30 5067 C 458.445 0.960427 3.25006 0
M  V30 5068 C 457.618 2.148 3.81025 0
M  V30 5069 C 456.677 1.79608 4.94598 0
M  V30 5070 O 455.703 2.51845 5.10454 0
M  V30 5071 N 456.905 0.737171 5.758 0
M  V30 5072 H 459.67 2.25027 1.97947 0
M  V30 5073 H 457.231 1.3068 0.955739 0
M  V30 5074 H 459.223 0.705942 3.98495 0
M  V30 5075 H 457.793 0.0823066 3.12492 0
M  V30 5076 H 457.013 2.56454 2.99374 0
M  V30 5077 H 458.301 2.9411 4.15183 0
M  V30 5078 H 457.699 0.137637 5.65533 0
M  V30 5079 H 456.256 0.542534 6.49538 0
M  V30 5080 N 459.689 -1.00246 1.21608 0
M  V30 5081 C 460.622 -2.08794 0.920892 0
M  V30 5082 C 461.6 -1.62059 -0.132552 0
M  V30 5083 O 462.784 -1.885 -0.0030366 0
M  V30 5084 C 459.911 -3.36525 0.383226 0
M  V30 5085 C 458.957 -4.02172 1.41987 0
M  V30 5086 S 459.79 -4.44256 2.98994 0
M  V30 5087 C 460.946 -5.7517 2.4684 0
M  V30 5088 H 461.179 -2.33511 1.8401 0
M  V30 5089 H 458.712 -1.13562 1.04609 0
M  V30 5090 H 460.67 -4.10423 0.0795871 0
M  V30 5091 H 459.331 -3.09854 -0.514711 0
M  V30 5092 H 458.524 -4.94114 0.993335 0
M  V30 5093 H 458.126 -3.34559 1.67171 0
M  V30 5094 H 460.418 -6.51042 1.87484 0
M  V30 5095 H 461.361 -6.22638 3.37235 0
M  V30 5096 H 461.769 -5.32112 1.88461 0
M  V30 5097 N 461.167 -1.02423 -1.1978 0
M  V30 5098 C 462.115 -0.594474 -2.24875 0
M  V30 5099 C 463.109 0.370598 -1.65296 0
M  V30 5100 O 464.315 0.239684 -1.78397 0
M  V30 5101 H 460.69 -0.173961 -0.731602 0
M  V30 5102 H 462.661 -1.4916 -2.58445 0
M  V30 5103 C 461.41 0.0436512 -3.47673 0
M  V30 5104 H 460.733 -0.689963 -3.93801 0
M  V30 5105 H 462.173 0.307362 -4.22884 0
M  V30 5106 C 460.632 1.28881 -3.11274 0
M  V30 5107 O 461.162 2.38135 -3.23503 0
M  V30 5108 N 459.368 1.1758 -2.6575 0
M  V30 5109 H 458.915 0.286769 -2.55999 0
M  V30 5110 H 458.873 2.00988 -2.41767 0
M  V30 5111 N 462.645 1.35699 -0.801477 0
M  V30 5112 C 463.592 2.29876 -0.206294 0
M  V30 5113 C 464.562 1.52565 0.656752 0
M  V30 5114 O 465.747 1.81024 0.602906 0
M  V30 5115 C 462.887 3.39052 0.643272 0
M  V30 5116 C 462 4.31335 -0.239644 0
M  V30 5117 C 461.135 5.27599 0.61744 0
M  V30 5118 C 460.174 6.11521 -0.26619 0
M  V30 5119 N 459.311 6.99938 0.550571 0
M  V30 5120 H 464.151 2.80187 -1.01484 0
M  V30 5121 H 461.688 1.37902 -0.511997 0
M  V30 5122 H 463.646 4.0101 1.15094 0
M  V30 5123 H 462.276 2.9003 1.41713 0
M  V30 5124 H 461.328 3.70426 -0.865381 0
M  V30 5125 H 462.64 4.90243 -0.919985 0
M  V30 5126 H 461.794 5.94906 1.19045 0
M  V30 5127 H 460.533 4.69176 1.33137 0
M  V30 5128 H 459.538 5.43166 -0.851507 0
M  V30 5129 H 460.763 6.72022 -0.9779 0
M  V30 5130 H 458.709 6.44008 1.24856 0
M  V30 5131 H 458.626 7.55966 -0.071832 0
M  V30 5132 H 459.894 7.71599 1.10702 0
M  V30 5133 N 464.123 0.554532 1.47522 0
M  V30 5134 C 465.539 0.214107 1.58157 0
M  V30 5135 C 465.739 -1.28331 1.55349 0
M  V30 5136 O 464.795 -2.06329 1.45549 0
M  V30 5137 C 466.108 0.838391 2.88776 0
M  V30 5138 C 467.656 0.809374 3.02354 0
M  V30 5139 C 468.131 1.41268 4.35669 0
M  V30 5140 N 469.622 1.37574 4.42298 0
M  V30 5141 C 470.357 1.8122 5.4401 0
M  V30 5142 N 469.853 2.3271 6.52547 0
M  V30 5143 N 471.646 1.72307 5.35039 0
M  V30 5144 H 463.797 1.52744 1.4759 0
M  V30 5145 H 466.06 0.636812 0.702264 0
M  V30 5146 H 465.766 1.89065 2.96559 0
M  V30 5147 H 465.64 0.329847 3.75755 0
M  V30 5148 H 468.027 -0.234187 2.94169 0
M  V30 5149 H 468.108 1.35565 2.16924 0
M  V30 5150 H 467.752 2.45529 4.4461 0
M  V30 5151 H 467.682 0.841871 5.19827 0
M  V30 5152 H 470.173 0.999081 3.64454 0
M  V30 5153 H 470.486 2.63944 7.26329 0
M  V30 5154 H 468.831 2.36719 6.53444 0
M  V30 5155 H 472.022 1.3186 4.49144 0
M  V30 5156 H 472.195 2.06641 6.14169 0
M  V30 5157 N 465.601 -1.54893 0.290851 0
M  V30 5158 C 466.849 -1.99538 -0.320756 0
M  V30 5159 C 467.17 -1.18075 -1.55188 0
M  V30 5160 O 466.44 -0.274162 -1.93972 0
M  V30 5161 H 465.02 -0.737052 -0.121507 0
M  V30 5162 H 467.682 -1.90755 0.399832 0
M  V30 5163 H 466.778 -3.06282 -0.599802 0
M  V30 5164 N 467.08 -0.0183926 -1.57589 0
M  V30 5165 C 468.327 0.662562 -1.91354 0
M  V30 5166 C 468.655 1.72747 -0.893788 0
M  V30 5167 O 467.91 1.9545 0.0988509 0
M  V30 5168 C 468.209 1.32676 -3.31861 0
M  V30 5169 C 467.875 0.393267 -4.49182 0
M  V30 5170 C 466.537 0.136302 -4.81007 0
M  V30 5171 C 468.889 -0.248366 -5.20608 0
M  V30 5172 C 466.217 -0.770282 -5.81621 0
M  V30 5173 C 468.569 -1.14294 -6.22189 0
M  V30 5174 C 467.233 -1.4089 -6.52462 0
M  V30 5175 H 466.503 0.242448 -0.700214 0
M  V30 5176 H 469.15 -0.0778629 -1.91342 0
M  V30 5177 H 467.455 2.14168 -3.28084 0
M  V30 5178 H 469.152 1.86001 -3.55253 0
M  V30 5179 H 465.742 0.603723 -4.24327 0
M  V30 5180 H 469.926 -0.062883 -4.9626 0
M  V30 5181 H 465.182 -0.984154 -6.03427 0
M  V30 5182 H 469.356 -1.64637 -6.76659 0
M  V30 5183 H 466.983 -2.11306 -7.30242 0
M  V30 5184 N 468.558 1.5553 0.254621 0
M  V30 5185 C 469.783 1.81383 1.00573 0
M  V30 5186 C 470.208 0.594419 1.78461 0
M  V30 5187 O 469.566 -0.456403 1.75461 0
M  V30 5188 C 469.614 3.04892 1.92545 0
M  V30 5189 O 468.718 2.81266 3.01601 0
M  V30 5190 H 468.059 0.598969 0.286587 0
M  V30 5191 H 470.589 2.02703 0.277952 0
M  V30 5192 H 470.599 3.34119 2.34155 0
M  V30 5193 H 469.274 3.93287 1.3527 0
M  V30 5194 H 467.851 2.63185 2.64174 0
M  V30 5195 N 470.036 -0.519951 1.48776 0
M  V30 5196 C 470.969 -1.64053 1.58625 0
M  V30 5197 C 471.947 -1.5664 0.43618 0
M  V30 5198 O 473.131 -1.76969 0.649159 0
M  V30 5199 C 470.258 -3.02497 1.52359 0
M  V30 5200 C 469.304 -3.28235 2.72331 0
M  V30 5201 S 470.137 -3.13414 4.34203 0
M  V30 5202 C 471.293 -4.54287 4.30551 0
M  V30 5203 H 471.526 -1.5545 2.53422 0
M  V30 5204 H 469.059 -0.703681 1.37433 0
M  V30 5205 H 471.017 -3.82336 1.4943 0
M  V30 5206 H 469.678 -3.08531 0.588824 0
M  V30 5207 H 468.871 -4.29256 2.64113 0
M  V30 5208 H 468.473 -2.56085 2.72574 0
M  V30 5209 H 470.765 -5.46006 4.01103 0
M  V30 5210 H 471.708 -4.67558 5.31785 0
M  V30 5211 H 472.116 -4.34079 3.60881 0
M  V30 5212 N 471.514 -1.37532 -0.769588 0
M  V30 5213 C 472.424 -1.35668 -1.91393 0
M  V30 5214 C 473.44 -0.255954 -1.72107 0
M  V30 5215 O 474.616 -0.491704 -1.95305 0
M  V30 5216 C 471.681 -1.16481 -3.26547 0
M  V30 5217 C 470.742 -2.36212 -3.58472 0
M  V30 5218 C 469.975 -2.17932 -4.87177 0
M  V30 5219 O 470.198 -1.1647 -5.58382 0
M  V30 5220 O 469.132 -3.06167 -5.18214 0
M  V30 5221 H 472.958 -2.32055 -1.95918 0
M  V30 5222 H 470.543 -1.18284 -0.912641 0
M  V30 5223 H 472.425 -1.07778 -4.07384 0
M  V30 5224 H 471.1 -0.231687 -3.2287 0
M  V30 5225 H 470.007 -2.50488 -2.77861 0
M  V30 5226 H 471.34 -3.281 -3.66894 0
M  V30 5227 N 472.992 0.995999 -1.22138 0
M  V30 5228 C 474.238 1.73767 -1.04561 0
M  V30 5229 C 474.571 1.89633 0.418698 0
M  V30 5230 O 473.846 1.43723 1.3105 0
M  V30 5231 C 474.129 3.14505 -1.75382 0
M  V30 5232 C 473.982 3.06306 -3.29388 0
M  V30 5233 C 475.301 4.13615 -1.50369 0
M  V30 5234 H 472.42 0.630728 -0.38125 0
M  V30 5235 H 475.062 1.16057 -1.50435 0
M  V30 5236 H 473.212 3.63775 -1.36383 0
M  V30 5237 H 474.884 2.64681 -3.77812 0
M  V30 5238 H 473.127 2.43186 -3.59226 0
M  V30 5239 H 473.798 4.05884 -3.74116 0
M  V30 5240 H 476.274 3.73089 -1.84239 0
M  V30 5241 H 475.15 5.10212 -2.02421 0
M  V30 5242 H 475.411 4.39949 -0.435611 0
M  V30 5243 N 474.47 1.03057 1.19235 0
M  V30 5244 C 475.718 0.726581 1.88587 0
M  V30 5245 C 476.039 -0.747227 1.80115 0
M  V30 5246 O 475.309 -1.53849 1.21274 0
M  V30 5247 H 473.889 0.265768 0.698124 0
M  V30 5248 H 476.551 1.30516 1.44746 0
M  V30 5249 H 475.647 1.0224 2.94879 0
M  V30 5250 N 475.948 -1.35272 0.808662 0
M  V30 5251 C 476.88 -2.28507 0.178149 0
M  V30 5252 C 477.893 -1.50377 -0.623754 0
M  V30 5253 O 479.082 -1.72583 -0.455774 0
M  V30 5254 C 476.182 -3.30038 -0.769959 0
M  V30 5255 C 475.355 -4.37398 -0.0139749 0
M  V30 5256 C 474.414 -5.18775 -0.880875 0
M  V30 5257 O 473.44 -5.68236 -0.331059 0
M  V30 5258 N 474.642 -5.37087 -2.20267 0
M  V30 5259 H 477.407 -2.83255 0.979106 0
M  V30 5260 H 474.968 -1.47643 0.664308 0
M  V30 5261 H 476.96 -3.81371 -1.35418 0
M  V30 5262 H 475.53 -2.75789 -1.47171 0
M  V30 5263 H 474.75 -3.86971 0.751468 0
M  V30 5264 H 476.038 -5.06268 0.506965 0
M  V30 5265 H 475.436 -4.9855 -2.67328 0
M  V30 5266 H 473.993 -5.91593 -2.73608 0
M  V30 5267 N 477.426 -0.562348 -1.47226 0
M  V30 5268 C 478.656 -0.0451619 -2.06551 0
M  V30 5269 C 479.064 1.25626 -1.41473 0
M  V30 5270 O 478.407 1.76563 -0.507061 0
M  V30 5271 C 478.469 0.216068 -3.5885 0
M  V30 5272 C 478.133 -0.996691 -4.45999 0
M  V30 5273 C 479.13 -1.90358 -4.83797 0
M  V30 5274 C 476.815 -1.21281 -4.87438 0
M  V30 5275 C 478.809 -3.01023 -5.6184 0
M  V30 5276 C 476.496 -2.32255 -5.65244 0
M  V30 5277 C 477.494 -3.21956 -6.02356 0
M  V30 5278 O 477.182 -4.31005 -6.78594 0
M  V30 5279 H 476.914 -0.0451646 -0.67449 0
M  V30 5280 H 479.468 -0.776842 -1.90143 0
M  V30 5281 H 477.698 1.00212 -3.7349 0
M  V30 5282 H 479.387 0.679264 -4.00176 0
M  V30 5283 H 480.153 -1.74868 -4.52378 0
M  V30 5284 H 476.032 -0.523767 -4.58015 0
M  V30 5285 H 479.576 -3.71064 -5.90726 0
M  V30 5286 H 475.473 -2.47715 -5.96077 0
M  V30 5287 H 476.241 -4.29118 -6.96994 0
M  V30 5288 N 478.904 1.54736 -0.299062 0
M  V30 5289 C 480.153 1.99279 0.311549 0
M  V30 5290 C 480.466 1.19107 1.55154 0
M  V30 5291 O 481.672 1.53908 2.23662 0
M  V30 5292 C 480.128 3.54768 0.605632 0
M  V30 5293 C 479.736 4.43746 -0.615914 0
M  V30 5294 C 481.48 4.07841 1.17754 0
M  V30 5295 C 479.387 5.90663 -0.29509 0
M  V30 5296 H 478.317 0.744359 0.120187 0
M  V30 5297 H 480.968 1.78919 -0.407464 0
M  V30 5298 H 479.35 3.71021 1.38419 0
M  V30 5299 H 480.524 4.39267 -1.39218 0
M  V30 5300 H 478.839 4.01434 -1.10633 0
M  V30 5301 H 481.436 5.15174 1.43179 0
M  V30 5302 H 481.779 3.58324 2.11918 0
M  V30 5303 H 482.312 3.95123 0.460739 0
M  V30 5304 H 479.051 6.44325 -1.20524 0
M  V30 5305 H 478.571 5.98155 0.44394 0
M  V30 5306 H 480.25 6.46916 0.104048 0
M  V30 5307 N 480.382 0.0267497 1.57577 0
M  V30 5308 C 481.629 -0.652404 1.91703 0
M  V30 5309 C 481.957 -1.72271 0.902936 0
M  V30 5310 O 481.212 -1.955 -0.0884843 0
M  V30 5311 C 481.511 -1.30914 3.3256 0
M  V30 5312 C 481.177 -0.369441 4.49384 0
M  V30 5313 C 479.839 -0.110791 4.81072 0
M  V30 5314 C 482.191 0.275971 5.20469 0
M  V30 5315 C 479.519 0.801116 5.81205 0
M  V30 5316 C 481.871 1.17592 6.21575 0
M  V30 5317 C 480.535 1.44348 6.51705 0
M  V30 5318 H 479.805 -0.238732 0.70149 0
M  V30 5319 H 482.452 0.0880091 1.91298 0
M  V30 5320 H 480.757 -2.12425 3.29216 0
M  V30 5321 H 482.454 -1.84115 3.56234 0
M  V30 5322 H 479.044 -0.581211 4.24641 0
M  V30 5323 H 483.228 0.0892 4.9622 0
M  V30 5324 H 478.484 1.01614 6.02897 0
M  V30 5325 H 482.658 1.68223 6.75777 0
M  V30 5326 H 480.285 2.15176 7.29111 0
M  V30 5327 N 481.861 -1.55662 -0.24637 0
M  V30 5328 C 483.107 -1.77782 -0.975779 0
M  V30 5329 C 483.44 -0.592103 -1.84953 0
M  V30 5330 O 482.715 0.409588 -1.90138 0
M  V30 5331 C 482.998 -3.09788 -1.83584 0
M  V30 5332 C 482.851 -4.38764 -0.990241 0
M  V30 5333 C 484.17 -3.38029 -2.81823 0
M  V30 5334 H 481.289 -0.646789 -0.353317 0
M  V30 5335 H 483.931 -1.88398 -0.246248 0
M  V30 5336 H 482.081 -3.00869 -2.45784 0
M  V30 5337 H 483.753 -4.59675 -0.386897 0
M  V30 5338 H 481.996 -4.32798 -0.294626 0
M  V30 5339 H 482.667 -5.27514 -1.62584 0
M  V30 5340 H 485.143 -3.46915 -2.2976 0
M  V30 5341 H 484.019 -4.3161 -3.39122 0
M  V30 5342 H 484.28 -2.58968 -3.58313 0
M  V30 5343 N 483.339 0.512053 -1.4905 0
M  V30 5344 C 484.287 1.63568 -1.65373 0
M  V30 5345 C 485.281 1.61228 -0.519806 0
M  V30 5346 O 486.487 1.65869 -0.699101 0
M  V30 5347 H 482.862 0.542019 -0.521267 0
M  V30 5348 H 484.833 1.4695 -2.59708 0
M  V30 5349 C 483.582 3.01761 -1.7273 0
M  V30 5350 H 482.905 3.04263 -2.59353 0
M  V30 5351 H 484.345 3.79948 -1.8819 0
M  V30 5352 C 482.804 3.33609 -0.46973 0
M  V30 5353 O 483.334 3.99607 0.409492 0
M  V30 5354 N 481.54 2.88651 -0.336003 0
M  V30 5355 H 481.087 2.35119 -1.05247 0
M  V30 5356 H 481.045 3.10328 0.504363 0
M  V30 5357 N 484.817 1.37938 0.762283 0
M  V30 5358 C 486.057 1.35076 1.53407 0
M  V30 5359 C 486.421 -0.061546 1.91901 0
M  V30 5360 O 487.622 -0.214973 2.67939 0
M  V30 5361 C 485.893 2.27206 2.75884 0
M  V30 5362 S 487.452 2.42283 3.65848 0
M  V30 5363 H 484.27 0.479387 0.52508 0
M  V30 5364 H 486.872 1.7378 0.895586 0
M  V30 5365 H 485.576 3.28724 2.457 0
M  V30 5366 H 485.107 1.8962 3.44685 0
M  V30 5367 H 487.122 1.64044 4.68299 0
M  V30 5368 N 486.295 -0.989507 1.22664 0
M  V30 5369 C 487.706 -1.54406 1.04955 0
M  V30 5370 C 488.057 -1.92366 -0.385951 0
M  V30 5371 O 487.182 -1.75111 -1.27142 0
M  V30 5372 C 487.777 -2.80578 1.89899 0
M  V30 5373 C 486.336 -3.32464 1.76478 0
M  V30 5374 C 485.483 -2.05524 1.86159 0
M  V30 5375 H 488.434 -0.810211 1.3646 0
M  V30 5376 H 488.455 -3.53075 1.4184 0
M  V30 5377 H 487.967 -2.52918 2.94371 0
M  V30 5378 H 486.068 -3.65024 0.747528 0
M  V30 5379 H 486.181 -4.02838 2.59342 0
M  V30 5380 H 484.545 -2.19241 1.29636 0
M  V30 5381 H 485.328 -1.80258 2.92168 0
M  V30 5382 N 487.773 -1.03688 -1.18687 0
M  V30 5383 C 488.998 -0.757819 -1.93059 0
M  V30 5384 C 489.423 0.678353 -1.75442 0
M  V30 5385 O 488.781 1.46938 -1.06203 0
M  V30 5386 C 488.829 -1.12423 -3.42627 0
M  V30 5387 O 487.933 -0.247505 -4.11657 0
M  V30 5388 H 487.274 -0.279245 -0.602427 0
M  V30 5389 H 489.804 -1.3857 -1.5053 0
M  V30 5390 H 489.814 -1.08454 -3.93322 0
M  V30 5391 H 488.489 -2.17049 -3.54771 0
M  V30 5392 H 487.066 -0.34649 -3.71287 0
M  V30 5393 N 489.251 1.34841 -0.815825 0
M  V30 5394 C 490.5 1.97755 -0.396976 0
M  V30 5395 C 490.813 1.65422 1.04379 0
M  V30 5396 O 492.019 2.21771 1.5662 0
M  V30 5397 C 490.475 3.53818 -0.658869 0
M  V30 5398 C 490.083 3.95051 -2.11278 0
M  V30 5399 C 491.827 4.23397 -0.305834 0
M  V30 5400 C 489.734 5.43997 -2.31994 0
M  V30 5401 H 488.664 0.739985 -0.1447 0
M  V30 5402 H 491.315 1.53781 -1.00118 0
M  V30 5403 H 489.697 3.95997 0.0154112 0
M  V30 5404 H 490.871 3.63998 -2.82564 0
M  V30 5405 H 489.186 3.38388 -2.42657 0
M  V30 5406 H 491.783 5.32899 -0.43854 0
M  V30 5407 H 492.126 4.09508 0.748952 0
M  V30 5408 H 492.659 3.8667 -0.934403 0
M  V30 5409 H 489.398 5.62865 -3.35952 0
M  V30 5410 H 488.918 5.76589 -1.65244 0
M  V30 5411 H 490.597 6.10584 -2.14001 0
M  V30 5412 N 490.729 0.570148 1.46925 0
M  V30 5413 C 491.954 0.0542592 2.07329 0
M  V30 5414 C 492.379 -1.23582 1.41806 0
M  V30 5415 O 491.737 -1.74341 0.497479 0
M  V30 5416 C 491.785 -0.111175 3.60429 0
M  V30 5417 O 490.889 -1.17071 3.95434 0
M  V30 5418 H 490.23 0.0571425 0.661537 0
M  V30 5419 H 492.76 0.789516 1.88753 0
M  V30 5420 H 492.77 -0.321315 4.06733 0
M  V30 5421 H 491.445 0.831012 4.07513 0
M  V30 5422 H 490.022 -0.940029 3.60857 0
M  V30 5423 N 492.207 -1.54576 0.307264 0
M  V30 5424 C 493.137 -2.26708 -0.55907 0
M  V30 5425 C 494.118 -1.26893 -1.1328 0
M  V30 5426 O 495.303 -1.55677 -1.16097 0
M  V30 5427 C 492.433 -3.01259 -1.72801 0
M  V30 5428 C 491.387 -4.08275 -1.28435 0
M  V30 5429 C 490.713 -4.70575 -2.53895 0
M  V30 5430 C 492.013 -5.2068 -0.411038 0
M  V30 5431 H 493.707 -2.9937 0.042576 0
M  V30 5432 H 491.253 -1.43983 0.0219173 0
M  V30 5433 H 493.206 -3.50444 -2.34023 0
M  V30 5434 H 491.93 -2.26187 -2.356 0
M  V30 5435 H 490.589 -3.59949 -0.695161 0
M  V30 5436 H 490.237 -3.92136 -3.15021 0
M  V30 5437 H 489.937 -5.42854 -2.24908 0
M  V30 5438 H 491.461 -5.22527 -3.15908 0
M  V30 5439 H 492.875 -5.65721 -0.929097 0
M  V30 5440 H 491.272 -5.99716 -0.214664 0
M  V30 5441 H 492.342 -4.81629 0.562287 0
M  V30 5442 N 493.685 -0.035106 -1.57561 0
M  V30 5443 C 494.615 0.942993 -2.13612 0
M  V30 5444 C 495.596 1.33531 -1.05373 0
M  V30 5445 O 496.781 1.41287 -1.33235 0
M  V30 5446 C 493.911 2.22332 -2.66807 0
M  V30 5447 C 492.865 1.97156 -3.79886 0
M  V30 5448 C 492.191 3.31506 -4.19533 0
M  V30 5449 C 493.491 1.30596 -5.05709 0
M  V30 5450 H 495.185 0.476179 -2.95589 0
M  V30 5451 H 492.731 0.227602 -1.4219 0
M  V30 5452 H 494.684 2.91142 -3.04654 0
M  V30 5453 H 493.408 2.7119 -1.81999 0
M  V30 5454 H 492.067 1.30763 -3.42486 0
M  V30 5455 H 491.715 3.78134 -3.31698 0
M  V30 5456 H 491.415 3.15465 -4.95738 0
M  V30 5457 H 492.939 4.01574 -4.59968 0
M  V30 5458 H 494.353 1.89416 -5.41105 0
M  V30 5459 H 492.75 1.24934 -5.86951 0
M  V30 5460 H 493.82 0.279742 -4.84092 0
M  V30 5461 N 495.163 1.55791 0.238111 0
M  V30 5462 C 496.073 1.94196 1.31625 0
M  V30 5463 C 497.089 0.843545 1.52185 0
M  V30 5464 O 498.265 1.1457 1.65637 0
M  V30 5465 C 495.33 2.2365 2.64918 0
M  V30 5466 C 494.391 3.46971 2.52804 0
M  V30 5467 C 493.624 3.7501 3.79741 0
M  V30 5468 O 493.847 3.04982 4.82019 0
M  V30 5469 O 492.781 4.68525 3.77846 0
M  V30 5470 H 496.607 2.86044 1.02043 0
M  V30 5471 H 494.192 1.42786 0.439603 0
M  V30 5472 H 496.074 2.43863 3.4367 0
M  V30 5473 H 494.749 1.34979 2.94215 0
M  V30 5474 H 493.656 3.32055 1.72309 0
M  V30 5475 H 494.989 4.35971 2.28451 0
M  V30 5476 N 496.642 -0.504142 1.49319 0
M  V30 5477 C 497.888 -1.25767 1.59857 0
M  V30 5478 C 498.243 -1.90348 0.280262 0
M  V30 5479 O 497.536 -1.77588 -0.719241 0
M  V30 5480 C 497.73 -2.35021 2.69258 0
M  V30 5481 C 497.559 -1.81154 4.11598 0
M  V30 5482 C 496.329 -1.62596 4.78425 0
M  V30 5483 C 498.527 -1.3252 4.96934 0
M  V30 5484 N 496.509 -1.03625 6.05091 0
M  V30 5485 C 497.88 -0.856633 6.14054 0
M  V30 5486 C 499.935 -1.21063 4.82958 0
M  V30 5487 C 498.638 -0.284841 7.18736 0
M  V30 5488 C 500.664 -0.652815 5.87786 0
M  V30 5489 C 500.026 -0.194461 7.04132 0
M  V30 5490 H 496.125 -0.450293 0.639343 0
M  V30 5491 H 498.709 -0.565344 1.86311 0
M  V30 5492 H 496.88 -3.01719 2.44581 0
M  V30 5493 H 498.612 -3.02061 2.69335 0
M  V30 5494 H 495.367 -1.86873 4.35173 0
M  V30 5495 H 495.791 -0.76076 6.72712 0
M  V30 5496 H 500.433 -1.551 3.93324 0
M  V30 5497 H 498.151 0.0677979 8.08072 0
M  V30 5498 H 501.737 -0.566994 5.79031 0
M  V30 5499 H 500.617 0.230442 7.83861 0
M  V30 5500 N 498.12 -1.38341 -0.754957 0
M  V30 5501 C 499.07 -1.31964 -1.85929 0
M  V30 5502 C 500.054 -0.204181 -1.59599 0
M  V30 5503 O 501.246 -0.440036 -1.71443 0
M  V30 5504 C 498.375 -1.14565 -3.2362 0
M  V30 5505 C 497.461 -2.30727 -3.55846 0
M  V30 5506 N 497.852 -3.56165 -3.59138 0
M  V30 5507 C 496.15 -2.23249 -3.86104 0
M  V30 5508 C 496.851 -4.32865 -3.88591 0
M  V30 5509 N 495.827 -3.62203 -4.05351 0
M  V30 5510 H 499.629 -2.2694 -1.8675 0
M  V30 5511 H 497.143 -1.31553 -0.952243 0
M  V30 5512 H 499.14 -1.0808 -4.02647 0
M  V30 5513 H 497.8 -0.205212 -3.24051 0
M  V30 5514 H 498.811 -3.89854 -3.40932 0
M  V30 5515 H 495.488 -1.37357 -3.94258 0
M  V30 5516 H 496.878 -5.41504 -3.97773 0
M  V30 5517 N 499.598 0.982988 -1.23187 0
M  V30 5518 C 501.009 1.53847 -1.05773 0
M  V30 5519 C 501.36 1.92568 0.375744 0
M  V30 5520 O 500.485 1.75783 1.26211 0
M  V30 5521 C 501.08 2.79567 -1.91384 0
M  V30 5522 C 499.639 3.31524 -1.78238 0
M  V30 5523 C 498.786 2.04534 -1.87246 0
M  V30 5524 H 501.737 0.802962 -1.36888 0
M  V30 5525 H 501.758 3.52317 -1.43711 0
M  V30 5526 H 501.27 2.51353 -2.95708 0
M  V30 5527 H 499.371 3.64623 -0.766875 0
M  V30 5528 H 499.484 4.01457 -2.61475 0
M  V30 5529 H 497.848 2.1855 -1.30797 0
M  V30 5530 H 498.631 1.78706 -2.9312 0
M  V30 5531 N 501.076 1.04316 1.18135 0
M  V30 5532 C 502.323 0.74802 1.88178 0
M  V30 5533 C 502.651 -0.72441 1.80506 0
M  V30 5534 O 501.906 -1.54463 1.20165 0
M  V30 5535 C 502.205 1.16271 3.37958 0
M  V30 5536 C 501.871 2.63585 3.65833 0
M  V30 5537 C 500.533 3.03829 3.73151 0
M  V30 5538 C 502.885 3.58822 3.78016 0
M  V30 5539 C 500.213 4.38194 3.90132 0
M  V30 5540 C 502.565 4.92909 3.96514 0
M  V30 5541 C 501.229 5.3282 4.02068 0
M  V30 5542 H 500.499 0.27372 0.688592 0
M  V30 5543 H 503.146 1.30863 1.39811 0
M  V30 5544 H 501.451 0.520938 3.88321 0
M  V30 5545 H 503.148 0.911672 3.90499 0
M  V30 5546 H 499.738 2.31414 3.60757 0
M  V30 5547 H 503.922 3.28875 3.71692 0
M  V30 5548 H 499.178 4.68631 3.92677 0
M  V30 5549 H 503.352 5.66606 4.04883 0
M  V30 5550 H 500.979 6.36943 4.14979 0
M  V30 5551 N 502.554 -1.34406 0.822964 0
M  V30 5552 C 503.782 -2.02508 0.424039 0
M  V30 5553 C 504.197 -1.61975 -0.970022 0
M  V30 5554 O 503.554 -0.825228 -1.62777 0
M  V30 5555 C 503.605 -3.57789 0.516657 0
M  V30 5556 O 503.326 -3.96853 1.85577 0
M  V30 5557 C 504.827 -4.43157 0.112637 0
M  V30 5558 H 502.047 -0.649063 0.170173 0
M  V30 5559 H 504.591 -1.7168 1.11113 0
M  V30 5560 H 502.746 -3.87207 -0.122353 0
M  V30 5561 H 503.16 -4.91538 1.83005 0
M  V30 5562 H 504.634 -5.51527 0.228526 0
M  V30 5563 H 505.111 -4.28939 -0.943837 0
M  V30 5564 H 505.717 -4.19067 0.725449 0
M  V30 5565 N 504.032 -0.577932 -1.46621 0
M  V30 5566 C 504.962 0.145917 -2.33044 0
M  V30 5567 C 505.943 0.888412 -1.45056 0
M  V30 5568 O 507.128 0.864812 -1.73881 0
M  V30 5569 C 504.258 1.16322 -3.27241 0
M  V30 5570 C 503.212 0.535868 -4.24632 0
M  V30 5571 C 502.538 1.65929 -5.08303 0
M  V30 5572 C 503.838 -0.523861 -5.19666 0
M  V30 5573 H 505.532 -0.575636 -2.93814 0
M  V30 5574 H 503.078 -0.278272 -1.41286 0
M  V30 5575 H 505.031 1.67793 -3.86553 0
M  V30 5576 H 503.755 1.91498 -2.64567 0
M  V30 5577 H 502.414 0.0422759 -3.66576 0
M  V30 5578 H 502.062 2.40061 -4.42018 0
M  V30 5579 H 501.762 1.2452 -5.74255 0
M  V30 5580 H 503.286 2.17686 -5.70478 0
M  V30 5581 H 504.7 -0.0944059 -5.73222 0
M  V30 5582 H 503.097 -0.858 -5.93935 0
M  V30 5583 H 504.167 -1.41197 -4.63887 0
M  V30 5584 N 505.51 1.54411 -0.315457 0
M  V30 5585 C 506.738 2.04833 0.291738 0
M  V30 5586 C 507.153 1.19203 1.46411 0
M  V30 5587 O 506.51 0.220867 1.81159 0
M  V30 5588 C 506.561 3.53969 0.73404 0
M  V30 5589 O 506.282 4.36346 -0.391682 0
M  V30 5590 C 507.783 4.2045 1.40489 0
M  V30 5591 H 505.003 0.668195 0.0612947 0
M  V30 5592 H 507.547 1.99276 -0.45929 0
M  V30 5593 H 505.702 3.5984 1.43506 0
M  V30 5594 H 506.116 5.24481 -0.0447088 0
M  V30 5595 H 507.59 5.26278 1.66539 0
M  V30 5596 H 508.067 3.71067 2.3496 0
M  V30 5597 H 508.673 4.18694 0.746662 0
M  V30 5598 N 506.988 0.0434614 1.5754 0
M  V30 5599 C 508.213 -0.645358 1.97104 0
M  V30 5600 C 508.638 -1.64037 0.920521 0
M  V30 5601 O 507.996 -1.80922 -0.11708 0
M  V30 5602 C 508.044 -1.31547 3.35749 0
M  V30 5603 O 507.148 -2.43103 3.33129 0
M  V30 5604 H 506.489 -0.168403 0.64229 0
M  V30 5605 H 509.019 0.109573 2.04306 0
M  V30 5606 H 509.029 -1.66895 3.72304 0
M  V30 5607 H 507.704 -0.586205 4.11748 0
M  V30 5608 H 506.281 -2.0976 3.0831 0
M  V30 5609 N 508.466 -1.55915 -0.229846 0
M  V30 5610 C 509.429 -1.90914 -1.26824 0
M  V30 5611 C 510.429 -0.786999 -1.40225 0
M  V30 5612 O 511.619 -1.05484 -1.38632 0
M  V30 5613 C 508.751 -2.15264 -2.64337 0
M  V30 5614 H 509.944 -2.8378 -0.969998 0
M  V30 5615 H 507.497 -1.49069 -0.4699 0
M  V30 5616 H 508.232 -1.24923 -2.99274 0
M  V30 5617 H 508.017 -2.97005 -2.55989 0
M  V30 5618 H 509.507 -2.43467 -3.39284 0
M  V30 5619 N 509.944 0.496216 -1.49584 0
M  V30 5620 C 511.355 1.07765 -1.52459 0
M  V30 5621 C 511.706 1.93679 -0.31353 0
M  V30 5622 O 510.831 2.08588 0.576186 0
M  V30 5623 C 511.426 1.96111 -2.76271 0
M  V30 5624 C 509.985 2.49409 -2.81908 0
M  V30 5625 C 509.132 1.27142 -2.46435 0
M  V30 5626 H 512.083 0.279914 -1.56212 0
M  V30 5627 H 512.104 2.80862 -2.56704 0
M  V30 5628 H 511.616 1.33555 -3.64396 0
M  V30 5629 H 509.717 3.1559 -1.98074 0
M  V30 5630 H 509.83 2.86234 -3.84196 0
M  V30 5631 H 508.194 1.59818 -1.98319 0
M  V30 5632 H 508.977 0.662866 -3.3684 0
M  V30 5633 N 511.423 1.38739 0.74761 0
M  V30 5634 C 512.333 1.38696 1.89211 0
M  V30 5635 C 513.349 0.283303 1.71678 0
M  V30 5636 O 514.525 0.522713 1.94498 0
M  V30 5637 C 511.59 1.21662 3.24653 0
M  V30 5638 C 510.651 2.41886 3.54669 0
M  V30 5639 C 509.884 2.25655 4.83648 0
M  V30 5640 O 510.107 1.25339 5.56459 0
M  V30 5641 O 509.041 3.14372 5.13277 0
M  V30 5642 H 512.867 2.35143 1.92202 0
M  V30 5643 H 510.452 1.19721 0.893708 0
M  V30 5644 H 512.334 1.14246 4.05618 0
M  V30 5645 H 511.009 0.283024 3.2246 0
M  V30 5646 H 509.916 2.54877 2.73841 0
M  V30 5647 H 511.249 3.33895 3.61628 0
M  V30 5648 N 512.901 -0.976442 1.23707 0
M  V30 5649 C 513.811 -2.10359 1.03856 0
M  V30 5650 C 514.827 -1.73991 -0.0180919 0
M  V30 5651 O 516.003 -2.0061 0.178211 0
M  V30 5652 C 513.068 -3.40809 0.636387 0
M  V30 5653 C 512.129 -3.91179 1.76854 0
M  V30 5654 C 511.362 -5.15404 1.38546 0
M  V30 5655 O 511.585 -5.69754 0.27142 0
M  V30 5656 O 510.519 -5.5994 2.20797 0
M  V30 5657 H 514.345 -2.29997 1.98331 0
M  V30 5658 H 511.93 -1.08742 1.02448 0
M  V30 5659 H 513.812 -4.19269 0.423223 0
M  V30 5660 H 512.487 -3.22493 -0.279322 0
M  V30 5661 H 511.394 -3.13819 2.03638 0
M  V30 5662 H 512.727 -4.13958 2.6627 0
M  V30 5663 N 514.379 -1.04941 -1.1758 0
M  V30 5664 C 515.656 -0.671918 -1.83697 0
M  V30 5665 C 516.036 0.847929 -1.93322 0
M  V30 5666 O 515.384 1.75287 -1.46583 0
M  V30 5667 C 515.594 -1.35797 -3.21497 0
M  V30 5668 C 516.942 -1.4944 -3.97433 0
M  V30 5669 O 517.966 -1.31678 -3.30967 0
M  V30 5670 O 516.825 -1.78463 -5.1654 0
M  V30 5671 H 513.919 -0.236212 -0.792548 0
M  V30 5672 H 516.465 -1.14884 -1.24899 0
M  V30 5673 H 515.237 -2.39498 -3.09446 0
M  V30 5674 H 514.86 -0.870236 -3.8796 0
M  V30 5675 N 515.857 1.33968 -0.830081 0
M  V30 5676 C 517.104 1.98063 -0.421566 0
M  V30 5677 C 517.432 1.65787 1.0171 0
M  V30 5678 O 516.687 0.925348 1.72441 0
M  V30 5679 C 516.986 3.52679 -0.57898 0
M  V30 5680 C 516.652 4.04884 -1.98443 0
M  V30 5681 C 515.314 4.18852 -2.36888 0
M  V30 5682 C 517.666 4.32879 -2.90285 0
M  V30 5683 C 514.994 4.58145 -3.66497 0
M  V30 5684 C 517.346 4.7362 -4.19364 0
M  V30 5685 C 516.01 4.85794 -4.57778 0
M  V30 5686 H 515.28 0.724765 -0.154262 0
M  V30 5687 H 517.927 1.59792 -1.05541 0
M  V30 5688 H 516.232 3.91556 0.138219 0
M  V30 5689 H 517.929 4.00261 -0.243317 0
M  V30 5690 H 514.519 3.9448 -1.67581 0
M  V30 5691 H 518.703 4.21619 -2.61823 0
M  V30 5692 H 513.959 4.65762 -3.96075 0
M  V30 5693 H 518.133 4.9424 -4.90612 0
M  V30 5694 H 515.76 5.15998 -5.58256 0
M  V30 5695 N 517.335 0.585699 1.46312 0
M  V30 5696 C 518.582 0.0724211 2.0237 0
M  V30 5697 C 518.91 -1.28868 1.45683 0
M  V30 5698 O 518.165 -1.85853 0.612945 0
M  V30 5699 C 518.464 -0.0401312 3.57377 0
M  V30 5700 C 518.13 1.25376 4.33119 0
M  V30 5701 C 516.792 1.60824 4.5353 0
M  V30 5702 C 519.144 2.10987 4.76586 0
M  V30 5703 C 516.472 2.81676 5.14661 0
M  V30 5704 C 518.824 3.31068 5.39052 0
M  V30 5705 C 517.488 3.66794 5.5769 0
M  V30 5706 H 516.758 0.0265007 0.740526 0
M  V30 5707 H 519.405 0.762935 1.75646 0
M  V30 5708 H 517.71 -0.813791 3.83255 0
M  V30 5709 H 519.407 -0.453078 3.98432 0
M  V30 5710 H 515.997 0.967808 4.1753 0
M  V30 5711 H 520.181 1.84904 4.60569 0
M  V30 5712 H 515.437 3.0949 5.27282 0
M  V30 5713 H 519.611 3.97672 5.71691 0
M  V30 5714 H 517.238 4.60529 6.04828 0
M  V30 5715 N 518.813 -1.54241 0.323641 0
M  V30 5716 C 520.038 -2.05452 -0.283605 0
M  V30 5717 C 520.463 -1.19823 -1.44997 0
M  V30 5718 O 519.821 -0.207358 -1.8011 0
M  V30 5719 C 519.869 -3.53823 -0.695795 0
M  V30 5720 O 518.973 -3.71134 -1.79815 0
M  V30 5721 H 518.314 -0.662024 -0.0511917 0
M  V30 5722 H 520.844 -1.99079 0.472073 0
M  V30 5723 H 520.854 -3.96094 -0.978434 0
M  V30 5724 H 519.529 -4.15602 0.157287 0
M  V30 5725 H 518.106 -3.40768 -1.51431 0
M  V30 5726 N 520.291 -0.0518155 -1.57515 0
M  V30 5727 C 521.54 0.621286 -1.91893 0
M  V30 5728 C 521.853 1.71966 -0.932052 0
M  V30 5729 O 523.059 2.45096 -1.16791 0
M  V30 5730 C 521.515 1.15641 -3.40816 0
M  V30 5731 C 521.123 0.0901146 -4.47909 0
M  V30 5732 C 522.867 1.80472 -3.84227 0
M  V30 5733 C 520.774 0.638154 -5.87947 0
M  V30 5734 H 519.704 0.235835 -0.716169 0
M  V30 5735 H 522.355 -0.120809 -1.83102 0
M  V30 5736 H 520.737 1.95084 -3.44613 0
M  V30 5737 H 521.911 -0.683525 -4.55702 0
M  V30 5738 H 520.226 -0.460774 -4.13843 0
M  V30 5739 H 522.823 2.22471 -4.86221 0
M  V30 5740 H 523.166 2.65669 -3.20508 0
M  V30 5741 H 523.699 1.07683 -3.82948 0
M  V30 5742 H 520.438 -0.176202 -6.55263 0
M  V30 5743 H 519.958 1.37976 -5.83714 0
M  V30 5744 H 521.637 1.12085 -6.37217 0
M  V30 5745 N 521.769 1.56035 0.221574 0
M  V30 5746 C 522.719 1.8881 1.27807 0
M  V30 5747 C 523.703 0.751177 1.42289 0
M  V30 5748 O 524.895 1.01359 1.45104 0
M  V30 5749 C 522.024 2.20828 2.6285 0
M  V30 5750 C 521.11 3.40912 2.52269 0
M  V30 5751 N 521.501 4.59531 2.1134 0
M  V30 5752 C 519.799 3.44526 2.83228 0
M  V30 5753 C 520.5 5.41689 2.1201 0
M  V30 5754 N 519.476 4.814 2.52497 0
M  V30 5755 H 523.278 2.78036 0.952529 0
M  V30 5756 H 520.792 1.566 0.430134 0
M  V30 5757 H 522.789 2.42483 3.39127 0
M  V30 5758 H 521.449 1.32914 2.9625 0
M  V30 5759 H 522.46 4.8469 1.82472 0
M  V30 5760 H 519.137 2.66956 3.21 0
M  V30 5761 H 520.527 6.46643 1.82491 0
M  V30 5762 N 523.247 -0.488276 1.49845 0
M  V30 5763 C 524.496 -1.23826 1.59217 0
M  V30 5764 C 524.809 -1.93439 0.289966 0
M  V30 5765 O 526.015 -2.70229 0.262382 0
M  V30 5766 C 524.471 -2.24902 2.80976 0
M  V30 5767 C 524.079 -1.6117 4.18005 0
M  V30 5768 C 525.823 -3.00648 2.99685 0
M  V30 5769 C 523.73 -2.60431 5.3097 0
M  V30 5770 H 522.66 -0.465858 0.592868 0
M  V30 5771 H 525.311 -0.510645 1.76252 0
M  V30 5772 H 523.693 -3.0088 2.57463 0
M  V30 5773 H 524.867 -0.910968 4.51706 0
M  V30 5774 H 523.182 -0.97767 4.0476 0
M  V30 5775 H 525.779 -3.74903 3.81251 0
M  V30 5776 H 526.122 -3.5902 2.10738 0
M  V30 5777 H 526.655 -2.31784 3.23297 0
M  V30 5778 H 523.394 -2.06823 6.22017 0
M  V30 5779 H 522.914 -3.28707 5.01709 0
M  V30 5780 H 524.593 -3.22606 5.60834 0
M  V30 5781 N 524.725 -1.39134 -0.740242 0
M  V30 5782 C 526.141 -1.20623 -1.0451 0
M  V30 5783 C 526.341 -0.0641651 -2.01398 0
M  V30 5784 O 525.397 0.585843 -2.4561 0
M  V30 5785 C 526.71 -2.53815 -1.6124 0
M  V30 5786 C 528.258 -2.60615 -1.73346 0
M  V30 5787 C 528.733 -3.94015 -2.33486 0
M  V30 5788 N 530.224 -3.95627 -2.40902 0
M  V30 5789 C 530.959 -4.95616 -2.88361 0
M  V30 5790 N 530.455 -6.06003 -3.35756 0
M  V30 5791 N 532.248 -4.82998 -2.87523 0
M  V30 5792 H 524.399 -2.12176 -0.0975576 0
M  V30 5793 H 526.662 -0.942066 -0.105904 0
M  V30 5794 H 526.368 -3.37911 -0.975144 0
M  V30 5795 H 526.242 -2.73162 -2.6012 0
M  V30 5796 H 528.629 -1.76906 -2.36195 0
M  V30 5797 H 528.71 -2.45123 -0.731336 0
M  V30 5798 H 528.354 -4.78153 -1.71267 0
M  V30 5799 H 528.284 -4.06825 -3.34366 0
M  V30 5800 H 530.775 -3.15903 -2.07398 0
M  V30 5801 H 531.088 -6.78215 -3.70464 0
M  V30 5802 H 529.433 -6.09604 -3.33778 0
M  V30 5803 H 532.624 -3.95866 -2.49816 0
M  V30 5804 H 532.797 -5.61072 -3.24196 0
M  V30 5805 N 526.204 0.969867 -1.24223 0
M  V30 5806 C 527.167 2.04564 -1.03373 0
M  V30 5807 C 528.167 1.60798 0.00819206 0
M  V30 5808 O 529.357 1.72641 -0.232567 0
M  V30 5809 C 526.489 3.36163 -0.566343 0
M  V30 5810 H 527.682 2.24494 -1.98853 0
M  V30 5811 H 525.235 1.1448 -1.06415 0
M  V30 5812 H 525.97 3.21925 0.391751 0
M  V30 5813 H 525.755 3.69273 -1.31834 0
M  V30 5814 H 527.245 4.1526 -0.441435 0
M  V30 5815 N 527.682 1.05563 1.17022 0
M  V30 5816 C 528.645 0.664098 2.19368 0
M  V30 5817 C 529.645 -0.286358 1.5823 0
M  V30 5818 O 530.835 -0.069728 1.7406 0
M  V30 5819 C 527.967 -0.0239932 3.40892 0
M  V30 5820 H 529.16 1.57 2.55521 0
M  V30 5821 H 526.713 0.849964 1.31169 0
M  V30 5822 H 527.448 -0.942988 3.10287 0
M  V30 5823 H 527.233 0.659351 3.86516 0
M  V30 5824 H 528.723 -0.283909 4.16634 0
M  V30 5825 N 529.16 -1.33526 0.837174 0
M  V30 5826 C 530.408 -1.97446 0.431211 0
M  V30 5827 C 530.729 -1.6665 -1.01255 0
M  V30 5828 O 529.999 -0.964559 -1.70508 0
M  V30 5829 H 528.579 -0.73043 0.156463 0
M  V30 5830 H 531.241 -1.62918 1.06976 0
M  V30 5831 H 530.337 -3.07001 0.561877 0
M  V30 5832 N 530.638 -0.59345 -1.46 0
M  V30 5833 C 531.915 -0.0157933 -1.95594 0
M  V30 5834 C 532.295 1.44807 -1.53604 0
M  V30 5835 O 531.643 2.14342 -0.791824 0
M  V30 5836 C 531.853 -0.199081 -3.48432 0
M  V30 5837 C 533.201 -0.0724943 -4.24538 0
M  V30 5838 O 534.225 -0.128469 -3.55968 0
M  V30 5839 O 533.084 0.0542426 -5.46473 0
M  V30 5840 H 530.178 0.043749 -0.825842 0
M  V30 5841 H 532.724 -0.662522 -1.56233 0
M  V30 5842 H 531.496 -1.21631 -3.71916 0
M  V30 5843 H 531.119 0.483576 -3.94648 0
M  V30 5844 N 532.116 1.54067 -0.331816 0
M  V30 5845 C 533.362 2.01713 0.261395 0
M  V30 5846 C 533.717 1.21566 1.49129 0
M  V30 5847 O 533.01 0.291867 1.89364 0
M  V30 5848 C 533.204 3.51634 0.639392 0
M  V30 5849 C 533.033 4.46295 -0.552321 0
M  V30 5850 C 531.803 4.94185 -1.05399 0
M  V30 5851 C 534.001 4.94677 -1.40711 0
M  V30 5852 N 531.983 5.7277 -2.20925 0
M  V30 5853 C 533.354 5.71267 -2.40943 0
M  V30 5854 C 535.409 4.76805 -1.43392 0
M  V30 5855 C 534.112 6.31889 -3.4367 0
M  V30 5856 C 536.138 5.38268 -2.44994 0
M  V30 5857 C 535.5 6.14716 -3.43952 0
M  V30 5858 H 531.599 0.77975 0.0592729 0
M  V30 5859 H 534.183 1.88974 -0.468726 0
M  V30 5860 H 532.354 3.64603 1.33863 0
M  V30 5861 H 534.086 3.86038 1.21478 0
M  V30 5862 H 530.841 4.69472 -0.623952 0
M  V30 5863 H 531.265 6.16737 -2.79222 0
M  V30 5864 H 535.907 4.17255 -0.682489 0
M  V30 5865 H 533.625 6.90554 -4.19715 0
M  V30 5866 H 537.211 5.26352 -2.4788 0
M  V30 5867 H 536.091 6.6143 -4.21283 0
M  V30 5868 N 533.594 0.0601682 1.57485 0
M  V30 5869 C 534.822 -0.620937 1.97363 0
M  V30 5870 C 535.237 -1.63846 0.938082 0
M  V30 5871 O 534.594 -1.82339 -0.0766578 0
M  V30 5872 C 534.645 -1.29987 3.37321 0
M  V30 5873 O 534.366 -0.323081 4.36907 0
M  V30 5874 C 535.867 -2.06989 3.92008 0
M  V30 5875 H 533.087 -0.169135 0.649334 0
M  V30 5876 H 535.631 0.129132 2.04092 0
M  V30 5877 H 533.786 -2.0011 3.31715 0
M  V30 5878 H 534.2 -0.808754 5.18227 0
M  V30 5879 H 535.674 -2.49901 4.92192 0
M  V30 5880 H 536.151 -2.92173 3.2792 0
M  V30 5881 H 536.757 -1.41757 4.0098 0
M  V30 5882 N 535.072 -1.5615 -0.213296 0
M  V30 5883 C 535.982 -1.96265 -1.28519 0
M  V30 5884 C 536.998 -0.86765 -1.50824 0
M  V30 5885 O 538.174 -1.17191 -1.63793 0
M  V30 5886 C 535.239 -2.27836 -2.61327 0
M  V30 5887 C 534.3 -3.50949 -2.47252 0
M  V30 5888 C 533.533 -3.81004 -3.73727 0
M  V30 5889 O 533.756 -3.12612 -4.77106 0
M  V30 5890 O 532.69 -4.74477 -3.70344 0
M  V30 5891 H 536.516 -2.87631 -0.974795 0
M  V30 5892 H 534.101 -1.43467 -0.416832 0
M  V30 5893 H 535.983 -2.49299 -3.39747 0
M  V30 5894 H 534.658 -1.39643 -2.9203 0
M  V30 5895 H 533.565 -3.34754 -1.67004 0
M  V30 5896 H 534.898 -4.39551 -2.21486 0
M  V30 5897 N 536.55 0.480323 -1.50102 0
M  V30 5898 C 537.498 1.60024 -1.68805 0
M  V30 5899 C 538.492 1.60089 -0.553888 0
M  V30 5900 O 539.698 1.64349 -0.734127 0
M  V30 5901 H 536.073 0.530841 -0.532646 0
M  V30 5902 H 538.044 1.41408 -2.62767 0
M  V30 5903 C 536.793 2.98029 -1.79092 0
M  V30 5904 H 536.116 2.98694 -2.65748 0
M  V30 5905 H 537.556 3.75871 -1.96206 0
M  V30 5906 C 536.015 3.32538 -0.540388 0
M  V30 5907 O 536.545 4.00386 0.324637 0
M  V30 5908 N 534.751 2.87873 -0.397154 0
M  V30 5909 H 534.298 2.32834 -1.1021 0
M  V30 5910 H 534.256 3.11328 0.438425 0
M  V30 5911 N 538.028 1.39524 0.732853 0
M  V30 5912 C 538.958 1.41153 1.86005 0
M  V30 5913 C 539.939 0.274614 1.67869 0
M  V30 5914 O 541.124 0.480745 1.88155 0
M  V30 5915 C 538.254 1.25638 3.23778 0
M  V30 5916 C 537.208 2.36752 3.56556 0
M  V30 5917 C 536.534 2.06326 4.93289 0
M  V30 5918 C 537.834 3.79069 3.5931 0
M  V30 5919 H 539.528 2.35484 1.84899 0
M  V30 5920 H 537.074 1.13348 0.888162 0
M  V30 5921 H 539.027 1.25398 4.0231 0
M  V30 5922 H 537.751 0.277772 3.25417 0
M  V30 5923 H 536.41 2.36213 2.80355 0
M  V30 5924 H 536.058 1.06897 4.9151 0
M  V30 5925 H 535.758 2.80757 5.16187 0
M  V30 5926 H 537.282 2.07739 5.74175 0
M  V30 5927 H 538.696 3.81526 4.27914 0
M  V30 5928 H 537.093 4.52878 3.93728 0
M  V30 5929 H 538.163 4.09893 2.59068 0
M  V30 5930 N 539.506 -0.963266 1.24736 0
M  V30 5931 C 540.755 -1.70115 1.08369 0
M  V30 5932 C 541.068 -1.91939 -0.376688 0
M  V30 5933 O 542.274 -2.6334 -0.660624 0
M  V30 5934 C 540.73 -3.06218 1.89099 0
M  V30 5935 C 540.338 -2.92221 3.39574 0
M  V30 5936 C 542.082 -3.83848 1.81275 0
M  V30 5937 C 539.989 -4.23662 4.12631 0
M  V30 5938 H 538.919 -0.637944 0.401924 0
M  V30 5939 H 541.57 -1.07304 1.48856 0
M  V30 5940 H 539.952 -3.69884 1.41429 0
M  V30 5941 H 541.126 -2.37541 3.94856 0
M  V30 5942 H 539.441 -2.28054 3.48397 0
M  V30 5943 H 542.038 -4.81188 2.33158 0
M  V30 5944 H 542.381 -4.08949 0.778895 0
M  V30 5945 H 542.914 -3.26918 2.26649 0
M  V30 5946 H 539.653 -4.03753 5.16395 0
M  V30 5947 H 539.173 -4.78141 3.62135 0
M  V30 5948 H 540.852 -4.92256 4.19873 0
M  V30 5949 N 540.985 -1.06182 -1.16461 0
M  V30 5950 C 542.401 -0.785065 -1.38956 0
M  V30 5951 C 542.601 0.616103 -1.9185 0
M  V30 5952 O 541.657 1.37686 -2.11657 0
M  V30 5953 C 542.97 -1.84902 -2.37132 0
M  V30 5954 C 544.518 -1.8724 -2.50819 0
M  V30 5955 C 544.993 -2.92686 -3.52277 0
M  V30 5956 N 546.484 -2.91712 -3.59803 0
M  V30 5957 C 547.219 -3.69949 -4.38093 0
M  V30 5958 N 546.715 -4.58 -5.19815 0
M  V30 5959 N 548.508 -3.58346 -4.33064 0
M  V30 5960 H 540.659 -1.96569 -0.804634 0
M  V30 5961 H 542.922 -0.851747 -0.416211 0
M  V30 5962 H 542.628 -2.85518 -2.0536 0
M  V30 5963 H 542.502 -1.69908 -3.36766 0
M  V30 5964 H 544.889 -0.872827 -2.81897 0
M  V30 5965 H 544.97 -2.06311 -1.51226 0
M  V30 5966 H 544.614 -3.92835 -3.21937 0
M  V30 5967 H 544.544 -2.70864 -4.51598 0
M  V30 5968 H 547.035 -2.27876 -3.01464 0
M  V30 5969 H 547.348 -5.14357 -5.76764 0
M  V30 5970 H 545.693 -4.62056 -5.19162 0
M  V30 5971 H 548.884 -2.88943 -3.68279 0
M  V30 5972 H 549.057 -4.19563 -4.93833 0
M  V30 5973 N 542.463 1.3308 -0.844243 0
M  V30 5974 C 543.426 2.27403 -0.286485 0
M  V30 5975 C 544.426 1.51179 0.547872 0
M  V30 5976 O 545.616 1.70421 0.360886 0
M  V30 5977 C 542.748 3.35653 0.595813 0
M  V30 5978 H 543.941 2.78248 -1.11885 0
M  V30 5979 H 541.494 1.43574 -0.617749 0
M  V30 5980 H 542.229 2.90058 1.4504 0
M  V30 5981 H 542.014 3.921 -0.00125994 0
M  V30 5982 H 543.504 4.05958 0.979168 0
M  V30 5983 N 543.941 0.601185 1.45683 0
M  V30 5984 C 545.188 0.0938811 2.02282 0
M  V30 5985 C 545.516 -1.27315 1.47041 0
M  V30 5986 O 544.771 -1.85193 0.632623 0
M  V30 5987 C 545.07 -0.00222425 3.574 0
M  V30 5988 C 544.736 1.29963 4.31764 0
M  V30 5989 C 543.398 1.65625 4.51798 0
M  V30 5990 C 545.75 2.1603 4.74321 0
M  V30 5991 C 543.078 2.87119 5.11644 0
M  V30 5992 C 545.43 3.36766 5.3551 0
M  V30 5993 C 544.094 3.72689 5.53768 0
M  V30 5994 H 543.364 0.0343535 0.740203 0
M  V30 5995 H 546.011 0.781522 1.74827 0
M  V30 5996 H 544.316 -0.773096 3.84097 0
M  V30 5997 H 546.013 -0.410794 3.9889 0
M  V30 5998 H 542.603 1.01204 4.1648 0
M  V30 5999 H 546.787 1.89778 4.58582 0
M  V30 6000 H 542.043 3.15065 5.2397 0
M  V30 6001 H 546.217 4.03713 5.67441 0
M  V30 6002 H 543.844 4.66918 5.99909 0
M  V30 6003 N 545.419 -1.53889 0.339982 0
M  V30 6004 C 546.329 -2.28604 -0.526988 0
M  V30 6005 C 547.345 -1.33578 -1.11503 0
M  V30 6006 O 548.521 -1.66612 -1.13148 0
M  V30 6007 C 545.586 -3.04164 -1.66389 0
M  V30 6008 C 544.647 -4.14809 -1.10599 0
M  V30 6009 C 543.88 -4.86756 -2.18871 0
M  V30 6010 O 544.103 -4.58343 -3.39526 0
M  V30 6011 O 543.037 -5.73289 -1.83366 0
M  V30 6012 H 546.863 -3.03594 0.0802707 0
M  V30 6013 H 544.448 -1.4903 0.105141 0
M  V30 6014 H 546.33 -3.51427 -2.32544 0
M  V30 6015 H 545.005 -2.32035 -2.25703 0
M  V30 6016 H 543.912 -3.71857 -0.409067 0
M  V30 6017 H 545.245 -4.89029 -0.557771 0
M  V30 6018 N 546.897 -0.0685191 -1.57451 0
M  V30 6019 C 547.829 0.929372 -2.09512 0
M  V30 6020 C 548.842 1.26354 -1.02657 0
M  V30 6021 O 550.031 1.2213 -1.30179 0
M  V30 6022 C 547.131 2.24612 -2.53777 0
M  V30 6023 C 546.304 2.09128 -3.84167 0
M  V30 6024 C 545.363 3.24079 -4.14559 0
M  V30 6025 O 544.389 2.99215 -4.8421 0
M  V30 6026 N 545.591 4.49077 -3.67845 0
M  V30 6027 H 548.356 0.484901 -2.95751 0
M  V30 6028 H 545.917 0.11729 -1.61475 0
M  V30 6029 H 547.909 3.00412 -2.71172 0
M  V30 6030 H 546.479 2.60569 -1.72692 0
M  V30 6031 H 545.699 1.17815 -3.76182 0
M  V30 6032 H 546.987 1.9603 -4.69521 0
M  V30 6033 H 546.385 4.72165 -3.11571 0
M  V30 6034 H 544.942 5.21915 -3.90446 0
M  V30 6035 N 548.375 1.56261 0.205012 0
M  V30 6036 C 549.307 1.90266 1.27795 0
M  V30 6037 C 550.32 0.792397 1.42214 0
M  V30 6038 O 551.509 1.07077 1.42817 0
M  V30 6039 C 548.609 2.11074 2.65143 0
M  V30 6040 C 547.782 3.42176 2.7246 0
M  V30 6041 C 546.841 3.52216 3.90936 0
M  V30 6042 O 545.867 4.25119 3.78501 0
M  V30 6043 N 547.069 2.84573 5.05963 0
M  V30 6044 H 549.834 2.82896 0.989434 0
M  V30 6045 H 547.395 1.57008 0.394981 0
M  V30 6046 H 549.387 2.15089 3.4281 0
M  V30 6047 H 547.957 1.2499 2.86524 0
M  V30 6048 H 547.177 3.50116 1.81142 0
M  V30 6049 H 548.465 4.28509 2.74331 0
M  V30 6050 H 547.863 2.25152 5.18963 0
M  V30 6051 H 546.42 2.94228 5.81613 0
M  V30 6052 N 549.853 -0.472356 1.50355 0
M  V30 6053 C 551.083 -1.24603 1.64796 0
M  V30 6054 C 551.491 -1.86297 0.330156 0
M  V30 6055 O 550.834 -1.69934 -0.697728 0
M  V30 6056 C 550.896 -2.39578 2.68035 0
M  V30 6057 C 550.56 -1.98531 4.11624 0
M  V30 6058 C 551.557 -1.50856 4.97532 0
M  V30 6059 C 549.242 -2.0729 4.57532 0
M  V30 6060 C 551.236 -1.12481 6.27397 0
M  V30 6061 C 548.923 -1.68527 5.87403 0
M  V30 6062 C 549.921 -1.212 6.7216 0
M  V30 6063 O 549.609 -0.829728 7.99607 0
M  V30 6064 H 549.341 -0.383035 0.55701 0
M  V30 6065 H 551.895 -0.570392 1.97321 0
M  V30 6066 H 550.125 -3.10309 2.30749 0
M  V30 6067 H 551.814 -3.01544 2.71709 0
M  V30 6068 H 552.58 -1.43511 4.63281 0
M  V30 6069 H 548.459 -2.43076 3.91708 0
M  V30 6070 H 552.003 -0.754698 6.93506 0
M  V30 6071 H 547.9 -1.7553 6.21176 0
M  V30 6072 H 548.668 -0.958689 8.12866 0
M  V30 6073 N 551.331 -1.39911 -0.725443 0
M  V30 6074 C 552.556 -1.41137 -1.5197 0
M  V30 6075 C 552.981 -0.010262 -1.88097 0
M  V30 6076 O 552.339 0.979184 -1.52583 0
M  V30 6077 C 552.387 -2.2994 -2.77777 0
M  V30 6078 O 551.491 -1.73586 -3.74088 0
M  V30 6079 H 550.832 -0.480219 -0.458569 0
M  V30 6080 H 553.362 -1.84023 -0.894249 0
M  V30 6081 H 553.372 -2.44785 -3.26411 0
M  V30 6082 H 552.047 -3.31759 -2.50816 0
M  V30 6083 H 550.624 -1.68035 -3.32894 0
M  V30 6084 N 552.809 0.956637 -1.25245 0
M  V30 6085 C 554.22 1.51569 -1.09012 0
M  V30 6086 C 554.571 1.93322 0.334813 0
M  V30 6087 O 553.696 1.78421 1.22454 0
M  V30 6088 C 554.291 2.75444 -1.97271 0
M  V30 6089 C 552.85 3.27669 -1.8523 0
M  V30 6090 C 551.997 2.00517 -1.91542 0
M  V30 6091 H 554.948 0.773746 -1.3856 0
M  V30 6092 H 554.969 3.4919 -1.51151 0
M  V30 6093 H 554.481 2.45024 -3.00973 0
M  V30 6094 H 552.582 3.62914 -0.844045 0
M  V30 6095 H 552.695 3.9582 -2.69932 0
M  V30 6096 H 551.059 2.15727 -1.35404 0
M  V30 6097 H 551.842 1.72448 -2.96844 0
M  V30 6098 N 554.287 1.06798 1.15896 0
M  V30 6099 C 555.536 0.782796 1.8589 0
M  V30 6100 C 555.849 -0.693498 1.82893 0
M  V30 6101 O 557.055 -1.09325 2.48516 0
M  V30 6102 C 555.511 1.3502 3.33613 0
M  V30 6103 C 555.119 2.8571 3.45071 0
M  V30 6104 C 556.863 1.14278 4.08829 0
M  V30 6105 C 554.77 3.35669 4.86909 0
M  V30 6106 H 553.7 0.289149 0.696354 0
M  V30 6107 H 556.351 1.28734 1.30766 0
M  V30 6108 H 554.733 0.773407 3.88374 0
M  V30 6109 H 555.907 3.49385 3.00445 0
M  V30 6110 H 554.222 3.05178 2.83294 0
M  V30 6111 H 556.819 1.49087 5.13495 0
M  V30 6112 H 557.162 0.0814575 4.1622 0
M  V30 6113 H 557.695 1.68563 3.60321 0
M  V30 6114 H 554.434 4.41302 4.84698 0
M  V30 6115 H 553.954 2.76745 5.32139 0
M  V30 6116 H 555.633 3.31296 5.55745 0
M  V30 6117 N 555.766 -1.3263 0.851289 0
M  V30 6118 C 557.177 -1.79653 0.5081 0
M  V30 6119 C 557.528 -1.70327 -0.973815 0
M  V30 6120 O 556.653 -1.25986 -1.75944 0
M  V30 6121 C 557.248 -3.26196 0.915515 0
M  V30 6122 C 555.807 -3.71187 0.624277 0
M  V30 6123 C 554.954 -2.53804 1.11709 0
M  V30 6124 H 557.905 -1.19976 1.03882 0
M  V30 6125 H 557.926 -3.79801 0.230535 0
M  V30 6126 H 557.438 -3.32952 1.99411 0
M  V30 6127 H 555.539 -3.69948 -0.443737 0
M  V30 6128 H 555.652 -4.64132 1.18821 0
M  V30 6129 H 554.016 -2.48964 0.537484 0
M  V30 6130 H 554.799 -2.63315 2.20272 0
M  V30 6131 N 557.244 -0.608902 -1.45362 0
M  V30 6132 C 558.66 -0.272659 -1.57254 0
M  V30 6133 C 558.86 1.22477 -1.60005 0
M  V30 6134 O 557.916 2.00785 -1.53106 0
M  V30 6135 C 559.229 -0.944991 -2.85465 0
M  V30 6136 C 560.777 -0.921033 -2.99142 0
M  V30 6137 C 561.252 -1.5734 -4.30126 0
M  V30 6138 N 562.743 -1.53895 -4.36887 0
M  V30 6139 C 563.478 -2.01286 -5.36909 0
M  V30 6140 N 562.974 -2.56768 -6.43461 0
M  V30 6141 N 564.767 -1.92046 -5.28275 0
M  V30 6142 H 556.918 -1.58117 -1.4182 0
M  V30 6143 H 559.181 -0.662437 -0.678146 0
M  V30 6144 H 558.887 -1.99941 -2.89338 0
M  V30 6145 H 558.761 -0.469079 -3.74272 0
M  V30 6146 H 561.148 0.124846 -2.94836 0
M  V30 6147 H 561.229 -1.43522 -2.11743 0
M  V30 6148 H 560.873 -2.61862 -4.35191 0
M  V30 6149 H 560.803 -1.03422 -5.16344 0
M  V30 6150 H 563.294 -1.13366 -3.60495 0
M  V30 6151 H 563.607 -2.9072 -7.16032 0
M  V30 6152 H 561.952 -2.60808 -6.44208 0
M  V30 6153 H 565.143 -1.48439 -4.43941 0
M  V30 6154 H 565.316 -2.29293 -6.06077 0
M  V30 6155 N 558.722 1.53707 -0.348139 0
M  V30 6156 C 559.971 2.0017 0.247992 0
M  V30 6157 C 560.284 1.23983 1.51286 0
M  V30 6158 O 561.49 1.60946 2.18652 0
M  V30 6159 C 559.946 3.56515 0.492459 0
M  V30 6160 C 559.554 4.41562 -0.756777 0
M  V30 6161 C 561.298 4.11381 1.0472 0
M  V30 6162 C 559.205 5.89426 -0.482856 0
M  V30 6163 H 558.135 0.747806 0.0964452 0
M  V30 6164 H 560.786 1.77532 -0.464179 0
M  V30 6165 H 559.168 3.75236 1.26545 0
M  V30 6166 H 560.342 4.34615 -1.53122 0
M  V30 6167 H 558.657 3.97711 -1.23348 0
M  V30 6168 H 561.254 5.19468 1.26717 0
M  V30 6169 H 561.597 3.64885 2.00411 0
M  V30 6170 H 562.13 3.96389 0.334801 0
M  V30 6171 H 558.869 6.40164 -1.40962 0
M  V30 6172 H 558.389 5.99264 0.253416 0
M  V30 6173 H 560.068 6.4692 -0.101816 0
M  V30 6174 N 560.2 0.0768682 1.57412 0
M  V30 6175 C 561.11 -0.903207 2.16516 0
M  V30 6176 C 562.126 -1.32341 1.12968 0
M  V30 6177 O 563.302 -1.39507 1.45258 0
M  V30 6178 C 560.367 -2.1508 2.71922 0
M  V30 6179 C 559.428 -1.78653 3.90361 0
M  V30 6180 C 558.661 -2.97465 4.43114 0
M  V30 6181 O 558.884 -4.11638 3.94854 0
M  V30 6182 O 557.818 -2.76987 5.3438 0
M  V30 6183 H 561.644 -0.430427 3.00634 0
M  V30 6184 H 559.229 -0.146485 1.4868 0
M  V30 6185 H 561.111 -2.8823 3.07411 0
M  V30 6186 H 559.786 -2.61446 1.9086 0
M  V30 6187 H 558.693 -1.0274 3.59716 0
M  V30 6188 H 560.026 -1.37066 4.7273 0
M  V30 6189 N 561.678 -1.56367 -0.196722 0
M  V30 6190 C 562.924 -1.80796 -0.918725 0
M  V30 6191 C 563.257 -0.650645 -1.82976 0
M  V30 6192 O 562.532 0.348889 -1.91345 0
M  V30 6193 C 562.815 -3.15472 -1.73636 0
M  V30 6194 C 562.668 -4.41693 -0.85015 0
M  V30 6195 C 563.987 -3.46824 -2.70927 0
M  V30 6196 H 561.106 -0.657702 -0.332561 0
M  V30 6197 H 563.748 -1.89086 -0.186186 0
M  V30 6198 H 561.898 -3.08536 -2.36088 0
M  V30 6199 H 563.57 -4.60673 -0.240459 0
M  V30 6200 H 561.813 -4.33517 -0.156785 0
M  V30 6201 H 562.484 -5.32419 -1.45719 0
M  V30 6202 H 564.96 -3.54049 -2.18607 0
M  V30 6203 H 563.836 -4.4218 -3.25219 0
M  V30 6204 H 564.097 -2.70236 -3.49893 0
M  V30 6205 N 563.156 0.464375 -1.50603 0
M  V30 6206 C 564.433 1.22549 -1.5245 0
M  V30 6207 C 564.813 2.09327 -0.273035 0
M  V30 6208 O 564.161 2.16074 0.743242 0
M  V30 6209 C 564.371 2.05074 -2.82393 0
M  V30 6210 C 565.719 2.63036 -3.33313 0
M  V30 6211 O 566.743 2.1531 -2.8376 0
M  V30 6212 O 565.602 3.5001 -4.19709 0
M  V30 6213 H 562.696 0.556471 -0.611775 0
M  V30 6214 H 565.242 0.475648 -1.62898 0
M  V30 6215 H 564.014 1.41169 -3.64948 0
M  V30 6216 H 563.637 2.87179 -2.7498 0
M  V30 6217 N 564.634 1.40294 0.718013 0
M  V30 6218 C 565.882 1.38167 1.47494 0
M  V30 6219 C 566.203 -0.01607 1.94993 0
M  V30 6220 O 565.473 -0.970396 1.70177 0
M  V30 6221 H 564.053 0.508505 0.547203 0
M  V30 6222 H 566.715 1.75324 0.851322 0
M  V30 6223 H 565.811 2.05503 2.34894 0
M  V30 6224 N 566.112 -0.949982 1.2575 0
M  V30 6225 C 567.523 -1.50989 1.09815 0
M  V30 6226 C 567.874 -1.93497 -0.324556 0
M  V30 6227 O 566.999 -1.79068 -1.21506 0
M  V30 6228 C 567.594 -2.74394 1.98729 0
M  V30 6229 C 566.153 -3.26682 1.86965 0
M  V30 6230 C 565.3 -1.99498 1.92603 0
M  V30 6231 H 568.251 -0.766387 1.38968 0
M  V30 6232 H 568.272 -3.48383 1.53001 0
M  V30 6233 H 567.784 -2.43425 3.02268 0
M  V30 6234 H 565.885 -3.62461 0.863279 0
M  V30 6235 H 565.998 -3.94383 2.72027 0
M  V30 6236 H 564.362 -2.15005 1.36546 0
M  V30 6237 H 565.145 -1.70871 2.97755 0
M  V30 6238 N 567.59 -1.07411 -1.15328 0
M  V30 6239 C 568.837 -0.797649 -1.86128 0
M  V30 6240 C 569.165 0.676298 -1.82364 0
M  V30 6241 O 568.42 1.51223 -1.24218 0
M  V30 6242 C 568.719 -1.25191 -3.34757 0
M  V30 6243 C 568.385 -2.73191 -3.58716 0
M  V30 6244 C 567.047 -3.13616 -3.64964 0
M  V30 6245 C 569.399 -3.68718 -3.6837 0
M  V30 6246 C 566.727 -4.48383 -3.78377 0
M  V30 6247 C 569.079 -5.03248 -3.83306 0
M  V30 6248 C 567.743 -5.43293 -3.878 0
M  V30 6249 H 567.013 -0.29188 -0.681092 0
M  V30 6250 H 569.66 -1.34524 -1.36292 0
M  V30 6251 H 567.965 -0.623712 -3.86804 0
M  V30 6252 H 569.662 -1.01489 -3.87945 0
M  V30 6253 H 566.252 -2.40898 -3.54494 0
M  V30 6254 H 570.436 -3.38614 -3.62842 0
M  V30 6255 H 565.692 -4.78877 -3.80114 0
M  V30 6256 H 569.866 -5.77142 -3.89718 0
M  V30 6257 H 567.493 -6.47721 -3.97946 0
M  V30 6258 N 569.068 1.32177 -0.85831 0
M  V30 6259 C 570.316 1.96735 -0.462568 0
M  V30 6260 C 570.637 1.6824 0.985911 0
M  V30 6261 O 569.907 0.991564 1.68952 0
M  V30 6262 H 568.487 0.727849 -0.168064 0
M  V30 6263 H 571.149 1.61195 -1.09554 0
M  V30 6264 H 570.245 3.06068 -0.610647 0
M  V30 6265 N 570.547 0.616602 1.45037 0
M  V30 6266 C 571.775 0.121968 2.0654 0
M  V30 6267 C 572.19 -1.19743 1.45969 0
M  V30 6268 O 571.547 -1.73133 0.577168 0
M  V30 6269 C 571.598 -0.0145171 3.61497 0
M  V30 6270 O 571.319 1.25269 4.19809 0
M  V30 6271 C 572.82 -0.539555 4.40004 0
M  V30 6272 H 570.04 0.0729837 0.667019 0
M  V30 6273 H 572.584 0.846891 1.8614 0
M  V30 6274 H 570.739 -0.689809 3.81209 0
M  V30 6275 H 571.153 1.08816 5.13088 0
M  V30 6276 H 572.627 -0.584112 5.48901 0
M  V30 6277 H 573.104 -1.56368 4.10421 0
M  V30 6278 H 573.71 0.101995 4.25178 0
M  V30 6279 N 572.025 -1.5352 0.356285 0
M  V30 6280 C 572.988 -2.24071 -0.482182 0
M  V30 6281 C 573.988 -1.24531 -1.01729 0
M  V30 6282 O 575.178 -1.48876 -0.904513 0
M  V30 6283 C 572.31 -2.97025 -1.67299 0
M  V30 6284 H 573.503 -2.99596 0.135031 0
M  V30 6285 H 571.056 -1.55928 0.107825 0
M  V30 6286 H 571.791 -2.25719 -2.32855 0
M  V30 6287 H 571.576 -3.7005 -1.29636 0
M  V30 6288 H 573.066 -3.50683 -2.26741 0
M  V30 6289 N 573.503 -0.0852151 -1.57369 0
M  V30 6290 C 574.728 0.592872 -1.98746 0
M  V30 6291 C 575.153 1.61538 -0.963689 0
M  V30 6292 O 574.511 1.81168 0.069071 0
M  V30 6293 C 574.559 1.22599 -3.39119 0
M  V30 6294 O 573.663 2.34185 -3.39457 0
M  V30 6295 H 573.004 0.151314 -0.646529 0
M  V30 6296 H 575.534 -0.163703 -2.03944 0
M  V30 6297 H 575.544 1.56965 -3.76598 0
M  V30 6298 H 574.219 0.476831 -4.13158 0
M  V30 6299 H 572.796 2.01512 -3.13763 0
M  V30 6300 N 574.981 1.5647 0.188427 0
M  V30 6301 C 575.891 1.98285 1.2538 0
M  V30 6302 C 576.907 0.891535 1.49424 0
M  V30 6303 O 578.083 1.19782 1.61908 0
M  V30 6304 C 575.148 2.31965 2.57669 0
M  V30 6305 C 574.209 3.54838 2.41638 0
M  V30 6306 C 573.442 3.86901 3.67618 0
M  V30 6307 O 573.665 3.20163 4.72072 0
M  V30 6308 O 572.599 4.80309 3.62749 0
M  V30 6309 H 576.425 2.89145 0.928912 0
M  V30 6310 H 574.01 1.44112 0.393955 0
M  V30 6311 H 575.892 2.54673 3.35737 0
M  V30 6312 H 574.567 1.44271 2.89771 0
M  V30 6313 H 573.474 3.37369 1.61658 0
M  V30 6314 H 574.807 4.43019 2.14465 0
M  V30 6315 N 576.459 -0.456382 1.50847 0
M  V30 6316 C 577.736 -1.21739 1.53098 0
M  V30 6317 C 578.116 -2.09179 0.284132 0
M  V30 6318 O 577.464 -2.16466 -0.731773 0
M  V30 6319 C 577.674 -2.03573 2.83477 0
M  V30 6320 C 579.022 -2.61264 3.34703 0
M  V30 6321 O 580.046 -2.13802 2.84898 0
M  V30 6322 O 578.905 -3.47779 4.21559 0
M  V30 6323 H 575.999 -0.553219 0.614718 0
M  V30 6324 H 578.545 -0.467003 1.63148 0
M  V30 6325 H 577.317 -1.39232 3.65691 0
M  V30 6326 H 576.94 -2.85716 2.76499 0
M  V30 6327 N 577.937 -1.40673 -0.710563 0
M  V30 6328 C 579.183 -1.39428 -1.47267 0
M  V30 6329 C 579.516 0.00182129 -1.942 0
M  V30 6330 O 578.791 0.971387 -1.68506 0
M  V30 6331 C 579.074 -2.38812 -2.6952 0
M  V30 6332 C 578.927 -3.87467 -2.28449 0
M  V30 6333 C 580.246 -2.3566 -3.71689 0
M  V30 6334 H 577.365 -0.507768 -0.534173 0
M  V30 6335 H 580.007 -1.71843 -0.810547 0
M  V30 6336 H 578.157 -2.113 -3.26013 0
M  V30 6337 H 579.829 -4.25825 -1.77399 0
M  V30 6338 H 578.072 -4.03058 -1.60395 0
M  V30 6339 H 578.743 -4.5253 -3.16103 0
M  V30 6340 H 581.219 -2.6004 -3.24836 0
M  V30 6341 H 580.095 -3.07237 -4.54859 0
M  V30 6342 H 580.356 -1.36996 -4.20339 0
M  V30 6343 N 579.415 0.9433 -1.26252 0
M  V30 6344 C 580.662 1.68925 -1.11672 0
M  V30 6345 C 580.99 1.91499 0.340329 0
M  V30 6346 O 580.245 1.49189 1.26653 0
M  V30 6347 C 580.544 3.07073 -1.82868 0
M  V30 6348 C 580.21 3.04262 -3.32769 0
M  V30 6349 C 578.872 3.03203 -3.7366 0
M  V30 6350 C 581.224 2.96729 -4.28487 0
M  V30 6351 C 578.552 2.92373 -5.0866 0
M  V30 6352 C 580.904 2.87442 -5.63525 0
M  V30 6353 C 579.568 2.84724 -6.03729 0
M  V30 6354 H 578.838 0.618141 -0.408635 0
M  V30 6355 H 581.485 1.10124 -1.56668 0
M  V30 6356 H 579.79 3.69486 -1.30335 0
M  V30 6357 H 581.487 3.63635 -1.69029 0
M  V30 6358 H 578.077 3.05865 -3.00241 0
M  V30 6359 H 582.261 2.96658 -3.97879 0
M  V30 6360 H 577.517 2.88645 -5.38975 0
M  V30 6361 H 581.691 2.80576 -6.37377 0
M  V30 6362 H 579.318 2.76089 -7.08293 0
M  V30 6363 N 580.893 1.08022 1.14757 0
M  V30 6364 C 581.825 0.664566 2.19354 0
M  V30 6365 C 582.838 -0.286374 1.60261 0
M  V30 6366 O 584.027 -0.0746362 1.78344 0
M  V30 6367 C 581.127 -0.0434634 3.38872 0
M  V30 6368 C 580.3 0.925381 4.27499 0
M  V30 6369 C 579.359 0.253398 5.2559 0
M  V30 6370 O 578.385 0.896581 5.62094 0
M  V30 6371 N 579.587 -0.998263 5.71852 0
M  V30 6372 H 582.352 1.56438 2.55631 0
M  V30 6373 H 579.913 0.965788 1.29939 0
M  V30 6374 H 581.905 -0.503857 4.01551 0
M  V30 6375 H 580.475 -0.845321 3.00954 0
M  V30 6376 H 579.695 1.56472 3.61815 0
M  V30 6377 H 580.983 1.58203 4.8358 0
M  V30 6378 H 580.381 -1.54063 5.44317 0
M  V30 6379 H 578.938 -1.40222 6.36538 0
M  V30 6380 N 582.371 -1.3172 0.865308 0
M  V30 6381 C 583.601 -2.00765 0.487543 0
M  V30 6382 C 584.009 -1.65145 -0.92325 0
M  V30 6383 O 583.352 -0.874294 -1.61561 0
M  V30 6384 C 583.414 -3.55122 0.559369 0
M  V30 6385 C 583.078 -4.14202 1.93095 0
M  V30 6386 C 584.075 -4.3165 2.89784 0
M  V30 6387 C 581.76 -4.50036 2.23099 0
M  V30 6388 C 583.754 -4.84114 4.14623 0
M  V30 6389 C 581.441 -5.02203 3.48189 0
M  V30 6390 C 582.439 -5.19192 4.43767 0
M  V30 6391 O 582.127 -5.70241 5.6664 0
M  V30 6392 H 581.859 -0.649066 0.188915 0
M  V30 6393 H 584.413 -1.69032 1.16694 0
M  V30 6394 H 582.643 -3.86295 -0.176926 0
M  V30 6395 H 584.332 -4.05428 0.195694 0
M  V30 6396 H 585.098 -4.04288 2.6791 0
M  V30 6397 H 580.977 -4.36091 1.49485 0
M  V30 6398 H 584.521 -4.9729 4.89233 0
M  V30 6399 H 580.418 -5.28997 3.69908 0
M  V30 6400 H 581.186 -5.88617 5.68746 0
M  V30 6401 N 583.85 -0.624285 -1.44708 0
M  V30 6402 C 584.76 0.0861083 -2.34442 0
M  V30 6403 C 585.776 0.84291 -1.5222 0
M  V30 6404 O 586.952 0.796723 -1.84971 0
M  V30 6405 C 584.017 1.05999 -3.30099 0
M  V30 6406 C 583.077 0.303316 -4.28227 0
M  V30 6407 C 582.311 1.23081 -5.19314 0
M  V30 6408 O 582.534 2.46929 -5.14181 0
M  V30 6409 O 581.468 0.71883 -5.97592 0
M  V30 6410 H 585.293 -0.651756 -2.96624 0
M  V30 6411 H 582.879 -0.384493 -1.44368 0
M  V30 6412 H 584.76 1.62046 -3.88997 0
M  V30 6413 H 583.436 1.77859 -2.70459 0
M  V30 6414 H 582.343 -0.300033 -3.72895 0
M  V30 6415 H 583.676 -0.375123 -4.90768 0
M  V30 6416 N 585.328 1.53329 -0.364422 0
M  V30 6417 C 586.574 2.01537 0.225969 0
M  V30 6418 C 586.907 1.25128 1.48515 0
M  V30 6419 O 586.182 0.344653 1.91422 0
M  V30 6420 C 586.465 3.56339 0.519092 0
M  V30 6421 C 586.318 4.43441 -0.753639 0
M  V30 6422 C 587.637 4.19833 1.32015 0
M  V30 6423 H 584.756 0.732573 0.0806548 0
M  V30 6424 H 587.398 1.83597 -0.489084 0
M  V30 6425 H 585.548 3.71756 1.12825 0
M  V30 6426 H 587.22 4.39823 -1.39116 0
M  V30 6427 H 585.463 4.11457 -1.37424 0
M  V30 6428 H 586.134 5.49699 -0.503517 0
M  V30 6429 H 588.61 4.08242 0.804859 0
M  V30 6430 H 587.486 5.28177 1.49399 0
M  V30 6431 H 587.747 3.75821 2.32832 0
M  V30 6432 N 586.806 0.0935595 1.57322 0
M  V30 6433 C 587.769 -0.851426 2.12799 0
M  V30 6434 C 588.769 -1.21187 1.0569 0
M  V30 6435 O 589.959 -1.14156 1.31583 0
M  V30 6436 C 587.091 -2.14779 2.64731 0
M  V30 6437 H 588.284 -0.369733 2.97612 0
M  V30 6438 H 585.837 -0.155417 1.55525 0
M  V30 6439 H 586.572 -2.67437 1.83434 0
M  V30 6440 H 586.357 -1.89907 3.43042 0
M  V30 6441 H 587.847 -2.82383 3.07651 0
M  V30 6442 N 588.284 -1.56567 -0.180126 0
M  V30 6443 C 589.53 -1.81761 -0.899497 0
M  V30 6444 C 589.863 -0.670015 -1.82276 0
M  V30 6445 O 589.138 0.328575 -1.91705 0
M  V30 6446 C 589.421 -3.17296 -1.7028 0
M  V30 6447 C 589.274 -4.4257 -0.803255 0
M  V30 6448 C 590.593 -3.49678 -2.67233 0
M  V30 6449 H 587.712 -0.661192 -0.325567 0
M  V30 6450 H 590.354 -1.89272 -0.16612 0
M  V30 6451 H 588.504 -3.11023 -2.32802 0
M  V30 6452 H 590.176 -4.60902 -0.191585 0
M  V30 6453 H 588.419 -4.33658 -0.110796 0
M  V30 6454 H 589.09 -5.33935 -1.40064 0
M  V30 6455 H 591.566 -3.56347 -2.14839 0
M  V30 6456 H 590.442 -4.45605 -3.20511 0
M  V30 6457 H 590.703 -2.73932 -3.47007 0
M  V30 6458 N 589.762 0.448376 -1.51087 0
M  V30 6459 C 590.692 1.55102 -1.74544 0
M  V30 6460 C 591.673 1.59357 -0.594932 0
M  V30 6461 O 592.858 1.75261 -0.836491 0
M  V30 6462 C 589.988 2.93268 -1.86041 0
M  V30 6463 C 588.942 3.03877 -3.01402 0
M  V30 6464 C 588.268 4.43914 -2.98068 0
M  V30 6465 C 589.568 2.7898 -4.41551 0
M  V30 6466 H 591.262 1.35724 -2.66869 0
M  V30 6467 H 588.808 0.651498 -1.28419 0
M  V30 6468 H 590.761 3.70356 -2.01034 0
M  V30 6469 H 589.485 3.13853 -0.903548 0
M  V30 6470 H 588.144 2.29227 -2.86096 0
M  V30 6471 H 587.792 4.6145 -2.00182 0
M  V30 6472 H 587.492 4.51944 -3.75527 0
M  V30 6473 H 589.016 5.22991 -3.1514 0
M  V30 6474 H 590.43 3.45805 -4.57265 0
M  V30 6475 H 588.827 2.98431 -5.20633 0
M  V30 6476 H 589.897 1.74663 -4.5235 0
M  V30 6477 N 591.24 1.41047 0.703093 0
M  V30 6478 C 592.486 1.40207 1.46526 0
M  V30 6479 C 592.819 0.00847763 1.94198 0
M  V30 6480 O 592.094 -0.962437 1.69019 0
M  V30 6481 C 592.377 2.40238 2.6825 0
M  V30 6482 C 592.23 3.88674 2.26391 0
M  V30 6483 C 593.549 2.37627 3.70434 0
M  V30 6484 H 590.668 0.510594 0.531472 0
M  V30 6485 H 593.31 1.72271 0.801422 0
M  V30 6486 H 591.46 2.13026 3.24888 0
M  V30 6487 H 593.132 4.2676 1.75138 0
M  V30 6488 H 591.375 4.03903 1.58255 0
M  V30 6489 H 592.046 4.542 3.13698 0
M  V30 6490 H 594.522 2.61759 3.23452 0
M  V30 6491 H 593.398 3.09645 4.53223 0
M  V30 6492 H 593.659 1.39223 4.19606 0
M  V30 6493 N 592.718 -0.936591 1.26751 0
M  V30 6494 C 593.966 -1.67998 1.12343 0
M  V30 6495 C 594.287 -1.92137 -0.332938 0
M  V30 6496 O 593.557 -1.52132 -1.23421 0
M  V30 6497 H 592.137 -0.622609 0.412756 0
M  V30 6498 H 594.799 -1.12509 1.59147 0
M  V30 6499 H 593.895 -2.65185 1.64571 0
M  V30 6500 N 594.196 -1.08629 -1.14182 0
M  V30 6501 C 595.159 -0.722027 -2.1753 0
M  V30 6502 C 596.159 0.244305 -1.58933 0
M  V30 6503 O 597.349 0.0235545 -1.74184 0
M  V30 6504 C 594.481 -0.0663966 -3.40835 0
M  V30 6505 H 595.674 -1.63719 -2.51269 0
M  V30 6506 H 593.227 -0.884442 -1.28869 0
M  V30 6507 H 593.962 0.860389 -3.12678 0
M  V30 6508 H 593.747 -0.761598 -3.84632 0
M  V30 6509 H 595.237 0.173346 -4.1724 0
M  V30 6510 N 595.674 1.31259 -0.872281 0
M  V30 6511 C 596.922 1.96233 -0.483409 0
M  V30 6512 C 597.243 1.69276 0.968012 0
M  V30 6513 O 596.513 1.00943 1.67891 0
M  V30 6514 H 595.093 0.726025 -0.175774 0
M  V30 6515 H 597.755 1.60024 -1.11258 0
M  V30 6516 H 596.851 3.05403 -0.643075 0
M  V30 6517 N 597.152 0.631951 1.44375 0
M  V30 6518 C 598.401 0.134214 2.01253 0
M  V30 6519 C 598.714 -1.25171 1.50305 0
M  V30 6520 O 599.92 -1.8435 1.99317 0
M  V30 6521 C 598.376 0.189187 3.59402 0
M  V30 6522 C 597.984 1.57647 4.19346 0
M  V30 6523 C 599.728 -0.252044 4.23751 0
M  V30 6524 C 597.635 1.58651 5.69722 0
M  V30 6525 H 596.565 0.0464101 0.75257 0
M  V30 6526 H 599.216 0.790868 1.65582 0
M  V30 6527 H 597.598 -0.534584 3.92375 0
M  V30 6528 H 598.772 2.32389 3.97909 0
M  V30 6529 H 597.087 1.96186 3.67288 0
M  V30 6530 H 599.684 -0.264084 5.34047 0
M  V30 6531 H 600.027 -1.27951 3.96149 0
M  V30 6532 H 600.56 0.41926 3.95584 0
M  V30 6533 H 597.299 2.59237 6.0206 0
M  V30 6534 H 596.819 0.882039 5.93279 0
M  V30 6535 H 598.498 1.32082 6.33375 0
M  V30 6536 N 598.631 -1.53133 0.372548 0
M  V30 6537 C 599.879 -2.00958 -0.214534 0
M  V30 6538 C 600.2 -1.26135 -1.48711 0
M  V30 6539 O 599.47 -0.376597 -1.92246 0
M  V30 6540 H 598.05 -0.742456 -0.0822664 0
M  V30 6541 H 600.712 -1.88367 0.500385 0
M  V30 6542 H 599.808 -3.09031 -0.436605 0
M  V30 6543 N 600.109 -0.101901 -1.5727 0
M  V30 6544 C 601.355 0.561027 -1.94885 0
M  V30 6545 C 601.688 1.6741 -0.984258 0
M  V30 6546 O 600.963 1.94491 -0.0184767 0
M  V30 6547 C 601.246 1.10982 -3.42571 0
M  V30 6548 C 601.099 0.00133418 -4.498 0
M  V30 6549 C 602.418 2.00608 -3.9172 0
M  V30 6550 H 599.537 0.202467 -0.708644 0
M  V30 6551 H 602.179 -0.173992 -1.89202 0
M  V30 6552 H 600.329 1.73621 -3.47546 0
M  V30 6553 H 602.001 -0.63322 -4.56933 0
M  V30 6554 H 600.244 -0.664143 -4.28686 0
M  V30 6555 H 600.915 0.426253 -5.50352 0
M  V30 6556 H 603.391 1.47864 -3.88941 0
M  V30 6557 H 602.267 2.3593 -4.95609 0
M  V30 6558 H 602.528 2.92608 -3.3141 0
M  V30 6559 N 601.587 1.56661 0.17182 0
M  V30 6560 C 602.815 1.861 0.904115 0
M  V30 6561 C 603.23 0.687227 1.75848 0
M  V30 6562 O 602.587 -0.343671 1.79235 0
M  V30 6563 C 602.638 3.14568 1.78127 0
M  V30 6564 O 602.359 4.27422 0.961366 0
M  V30 6565 C 603.86 3.5735 2.62327 0
M  V30 6566 H 601.08 0.617445 0.262684 0
M  V30 6567 H 603.624 2.03775 0.172068 0
M  V30 6568 H 601.779 2.98721 2.46666 0
M  V30 6569 H 602.193 5.00725 1.56123 0
M  V30 6570 H 603.667 4.50144 3.1949 0
M  V30 6571 H 604.144 2.81445 3.37173 0
M  V30 6572 H 604.75 3.75807 1.99121 0
M  V30 6573 N 603.065 -0.440357 1.51323 0
M  V30 6574 C 604.476 -1.02032 1.56353 0
M  V30 6575 C 604.827 -1.92382 0.385197 0
M  V30 6576 O 603.952 -2.10583 -0.498373 0
M  V30 6577 C 604.547 -1.85723 2.83359 0
M  V30 6578 C 603.106 -2.38774 2.90971 0
M  V30 6579 C 602.253 -1.17908 2.50984 0
M  V30 6580 H 605.204 -0.221744 1.57143 0
M  V30 6581 H 605.225 -2.71141 2.66951 0
M  V30 6582 H 604.737 -1.19939 3.69102 0
M  V30 6583 H 602.838 -3.08021 2.09651 0
M  V30 6584 H 602.951 -2.71778 3.94555 0
M  V30 6585 H 601.315 -1.52347 2.04114 0
M  V30 6586 H 602.098 -0.537393 3.39068 0
M  V30 6587 N 604.543 -1.41418 -0.695603 0
M  V30 6588 C 605.79 -1.40774 -1.45564 0
M  V30 6589 C 606.118 -0.0168604 -1.94493 0
M  V30 6590 O 605.373 0.971259 -1.69897 0
M  V30 6591 C 605.672 -2.36112 -2.68302 0
M  V30 6592 C 605.338 -3.82952 -2.38031 0
M  V30 6593 C 604 -4.22954 -2.29486 0
M  V30 6594 C 606.352 -4.75662 -2.13061 0
M  V30 6595 C 603.68 -5.53674 -1.94067 0
M  V30 6596 C 606.032 -6.06702 -1.79151 0
M  V30 6597 C 604.696 -6.45725 -1.69102 0
M  V30 6598 H 603.966 -0.515128 -0.532658 0
M  V30 6599 H 606.613 -1.74216 -0.795047 0
M  V30 6600 H 604.918 -1.95924 -3.39295 0
M  V30 6601 H 606.615 -2.32887 -3.26442 0
M  V30 6602 H 603.205 -3.5127 -2.45576 0
M  V30 6603 H 607.389 -4.45561 -2.18608 0
M  V30 6604 H 602.645 -5.8279 -1.8484 0
M  V30 6605 H 606.819 -6.78041 -1.5885 0
M  V30 6606 H 604.446 -7.46929 -1.41426 0
M  V30 6607 N 606.021 0.929856 -1.27246 0
M  V30 6608 C 606.984 2.01172 -1.09829 0
M  V30 6609 C 607.984 1.60743 -0.0429687 0
M  V30 6610 O 609.174 1.71813 -0.287373 0
M  V30 6611 C 606.306 3.34191 -0.673003 0
M  V30 6612 H 607.499 2.18054 -2.05895 0
M  V30 6613 H 605.052 1.11036 -1.10003 0
M  V30 6614 H 605.787 3.23009 0.289134 0
M  V30 6615 H 605.572 3.64892 -1.43515 0
M  V30 6616 H 607.062 4.13646 -0.573323 0
M  V30 6617 N 607.499 1.09233 1.13605 0
M  V30 6618 C 608.724 0.849067 1.89224 0
M  V30 6619 C 609.149 -0.593875 1.78479 0
M  V30 6620 O 608.507 -1.41703 1.13092 0
M  V30 6621 C 608.555 1.28642 3.36873 0
M  V30 6622 O 607.659 0.44363 4.10007 0
M  V30 6623 H 607 0.30767 0.588417 0
M  V30 6624 H 609.53 1.45595 1.43748 0
M  V30 6625 H 609.54 1.27096 3.87699 0
M  V30 6626 H 608.215 2.33729 3.44011 0
M  V30 6627 H 606.792 0.523241 3.69211 0
M  V30 6628 N 608.977 -1.30795 0.87923 0
M  V30 6629 C 610.226 -1.95636 0.490875 0
M  V30 6630 C 610.539 -1.70214 -0.963674 0
M  V30 6631 O 611.745 -2.28991 -1.45861 0
M  V30 6632 C 610.201 -3.50271 0.826929 0
M  V30 6633 C 609.809 -3.84521 2.29886 0
M  V30 6634 C 611.553 -4.21456 0.507494 0
M  V30 6635 C 609.46 -5.32309 2.57685 0
M  V30 6636 H 608.39 -0.732238 0.179841 0
M  V30 6637 H 611.041 -1.48829 1.07341 0
M  V30 6638 H 609.423 -3.9562 0.173542 0
M  V30 6639 H 610.597 -3.50102 2.99609 0
M  V30 6640 H 608.912 -3.26425 2.58526 0
M  V30 6641 H 611.509 -5.30199 0.692293 0
M  V30 6642 H 611.852 -4.12614 -0.552718 0
M  V30 6643 H 612.385 -3.81772 1.11782 0
M  V30 6644 H 609.124 -5.46195 3.62424 0
M  V30 6645 H 608.644 -5.68048 1.92566 0
M  V30 6646 H 610.323 -5.99678 2.42889 0
M  V30 6647 N 610.455 -0.639598 -1.44038 0
M  V30 6648 C 611.385 0.0469443 -2.33453 0
M  V30 6649 C 612.366 0.82609 -1.48694 0
M  V30 6650 O 613.551 0.790285 -1.77393 0
M  V30 6651 C 610.681 1.02338 -3.3188 0
M  V30 6652 C 609.635 0.355284 -4.26523 0
M  V30 6653 C 608.961 1.44221 -5.14883 0
M  V30 6654 C 610.261 -0.743798 -5.16977 0
M  V30 6655 H 611.955 -0.699735 -2.91108 0
M  V30 6656 H 609.501 -0.337946 -1.39978 0
M  V30 6657 H 611.454 1.51247 -3.93322 0
M  V30 6658 H 610.178 1.80105 -2.72451 0
M  V30 6659 H 608.837 -0.113239 -3.66425 0
M  V30 6660 H 608.485 2.21097 -4.51802 0
M  V30 6661 H 608.185 1.00052 -5.79019 0
M  V30 6662 H 609.709 1.93295 -5.79197 0
M  V30 6663 H 611.123 -0.337444 -5.72306 0
M  V30 6664 H 609.52 -1.10914 -5.89761 0
M  V30 6665 H 610.59 -1.60745 -4.57481 0
M  V30 6666 N 611.933 1.52934 -0.380664 0
M  V30 6667 C 612.88 2.26197 0.458641 0
M  V30 6668 C 613.85 1.27462 1.06502 0
M  V30 6669 O 615.035 1.56274 1.09467 0
M  V30 6670 C 612.175 3.06571 1.58456 0
M  V30 6671 C 611.288 4.20222 1.00189 0
M  V30 6672 C 610.423 4.88007 2.09815 0
M  V30 6673 C 609.462 5.93665 1.49092 0
M  V30 6674 N 608.599 6.55081 2.52613 0
M  V30 6675 H 613.439 2.975 -0.172595 0
M  V30 6676 H 610.976 1.4678 -0.0969426 0
M  V30 6677 H 612.934 3.51455 2.24801 0
M  V30 6678 H 611.564 2.37494 2.18624 0
M  V30 6679 H 610.616 3.79714 0.228292 0
M  V30 6680 H 611.928 4.96102 0.518064 0
M  V30 6681 H 611.082 5.36151 2.83948 0
M  V30 6682 H 609.821 4.11632 2.61555 0
M  V30 6683 H 608.826 5.44868 0.7348 0
M  V30 6684 H 610.051 6.71969 0.981582 0
M  V30 6685 H 607.997 5.8155 3.03538 0
M  V30 6686 H 607.914 7.26548 2.08961 0
M  V30 6687 H 609.182 7.07871 3.26402 0
M  V30 6688 N 613.412 0.11024 1.57214 0
M  V30 6689 C 614.637 -0.561179 1.99664 0
M  V30 6690 C 615.062 -1.59985 0.989266 0
M  V30 6691 O 614.42 -1.81255 -0.0402399 0
M  V30 6692 C 614.468 -1.17189 3.41027 0
M  V30 6693 O 613.572 -2.28755 3.4314 0
M  V30 6694 H 612.913 -0.14101 0.648855 0
M  V30 6695 H 615.443 0.196128 2.03658 0
M  V30 6696 H 615.453 -1.50954 3.79047 0
M  V30 6697 H 614.128 -0.411041 4.13864 0
M  V30 6698 H 612.705 -1.96495 3.16929 0
M  V30 6699 N 614.89 -1.56749 -0.16351 0
M  V30 6700 C 616.139 -1.81626 -0.877211 0
M  V30 6701 C 616.452 -0.688791 -1.83071 0
M  V30 6702 O 617.658 -0.822697 -2.58735 0
M  V30 6703 C 616.114 -3.21858 -1.61045 0
M  V30 6704 C 615.722 -4.42494 -0.700195 0
M  V30 6705 C 617.466 -3.56021 -2.31192 0
M  V30 6706 C 615.373 -5.73748 -1.43412 0
M  V30 6707 H 614.303 -0.67731 -0.331312 0
M  V30 6708 H 616.954 -1.83039 -0.13006 0
M  V30 6709 H 615.336 -3.14784 -2.40264 0
M  V30 6710 H 616.51 -4.60766 0.0555849 0
M  V30 6711 H 614.825 -4.1626 -0.10799 0
M  V30 6712 H 617.422 -4.51333 -2.8671 0
M  V30 6713 H 617.765 -2.81277 -3.06902 0
M  V30 6714 H 618.298 -3.64682 -1.58909 0
M  V30 6715 H 615.037 -6.51543 -0.719186 0
M  V30 6716 H 614.557 -5.5944 -2.16302 0
M  V30 6717 H 616.236 -6.15975 -1.9795 0
M  V30 6718 N 616.368 0.432326 -1.51554 0
M  V30 6719 C 617.614 1.17997 -1.65675 0
M  V30 6720 C 617.969 1.88794 -0.37076 0
M  V30 6721 O 617.262 1.80817 0.633692 0
M  V30 6722 C 617.456 2.21907 -2.80164 0
M  V30 6723 C 617.285 1.6131 -4.19773 0
M  V30 6724 C 616.055 1.39585 -4.85638 0
M  V30 6725 C 618.253 1.08659 -5.0269 0
M  V30 6726 N 616.235 0.746374 -6.09346 0
M  V30 6727 C 617.606 0.562685 -6.17441 0
M  V30 6728 C 619.661 0.978831 -4.88184 0
M  V30 6729 C 618.364 -0.0584015 -7.19276 0
M  V30 6730 C 620.39 0.371631 -5.90231 0
M  V30 6731 C 619.752 -0.141711 -7.04257 0
M  V30 6732 H 615.851 0.419277 -0.660099 0
M  V30 6733 H 618.435 0.475809 -1.88797 0
M  V30 6734 H 616.606 2.89706 -2.58698 0
M  V30 6735 H 618.338 2.88867 -2.8344 0
M  V30 6736 H 615.093 1.65897 -4.43593 0
M  V30 6737 H 615.517 0.438934 -6.75576 0
M  V30 6738 H 620.159 1.36157 -4.00276 0
M  V30 6739 H 617.877 -0.453262 -8.06828 0
M  V30 6740 H 621.463 0.290086 -5.81076 0
M  V30 6741 H 620.343 -0.60417 -7.81869 0
M  V30 6742 N 617.846 1.41785 0.688094 0
M  V30 6743 C 619.076 1.44705 1.47459 0
M  V30 6744 C 619.484 0.052916 1.89126 0
M  V30 6745 O 618.827 -0.939781 1.57841 0
M  V30 6746 C 618.889 2.29935 2.76352 0
M  V30 6747 C 618.553 3.77996 2.56843 0
M  V30 6748 C 619.55 4.69976 2.22304 0
M  V30 6749 C 617.235 4.2212 2.7225 0
M  V30 6750 C 619.229 6.04068 2.03421 0
M  V30 6751 C 616.916 5.56275 2.52985 0
M  V30 6752 C 617.914 6.47065 2.18621 0
M  V30 6753 O 617.602 7.78744 1.9953 0
M  V30 6754 H 617.334 0.494703 0.460701 0
M  V30 6755 H 619.888 1.86802 0.854057 0
M  V30 6756 H 618.118 1.82664 3.40839 0
M  V30 6757 H 619.807 2.24467 3.38186 0
M  V30 6758 H 620.573 4.37175 2.10008 0
M  V30 6759 H 616.452 3.51752 2.97979 0
M  V30 6760 H 619.996 6.74897 1.76523 0
M  V30 6761 H 615.893 5.88653 2.64873 0
M  V30 6762 H 616.661 7.89966 2.14234 0
M  V30 6763 N 619.324 -0.923095 1.27737 0
M  V30 6764 C 620.271 -2.02432 1.1086 0
M  V30 6765 C 621.241 -1.66098 0.00835195 0
M  V30 6766 O 622.426 -1.90027 0.171542 0
M  V30 6767 C 619.566 -3.36476 0.766671 0
M  V30 6768 C 618.679 -3.85737 1.94501 0
M  V30 6769 C 617.814 -5.08249 1.54455 0
M  V30 6770 C 616.853 -5.49818 2.6901 0
M  V30 6771 N 615.99 -6.63524 2.29521 0
M  V30 6772 H 620.83 -2.16201 2.05089 0
M  V30 6773 H 618.367 -1.05909 1.02087 0
M  V30 6774 H 620.325 -4.13569 0.549223 0
M  V30 6775 H 618.955 -3.22502 -0.13867 0
M  V30 6776 H 618.007 -3.04883 2.27487 0
M  V30 6777 H 619.319 -4.12513 2.80419 0
M  V30 6778 H 618.473 -5.92857 1.28862 0
M  V30 6779 H 617.212 -4.83261 0.656534 0
M  V30 6780 H 616.217 -4.63757 2.95313 0
M  V30 6781 H 617.442 -5.76799 3.5844 0
M  V30 6782 H 615.388 -6.40185 1.43177 0
M  V30 6783 H 615.305 -6.89978 3.08977 0
M  V30 6784 H 616.573 -7.51461 2.07187 0
M  V30 6785 N 620.802 -1.09834 -1.13024 0
M  V30 6786 C 622.049 -0.83695 -1.84395 0
M  V30 6787 C 622.377 0.637463 -1.83757 0
M  V30 6788 O 621.632 1.48554 -1.27398 0
M  V30 6789 C 621.931 -1.32263 -3.32026 0
M  V30 6790 C 621.597 -2.80739 -3.52841 0
M  V30 6791 C 620.259 -3.21286 -3.5823 0
M  V30 6792 C 622.611 -3.76449 -3.60466 0
M  V30 6793 C 619.939 -4.56308 -3.68781 0
M  V30 6794 C 622.291 -5.11266 -3.72546 0
M  V30 6795 C 620.955 -5.51397 -3.76189 0
M  V30 6796 H 620.225 -0.306262 -0.674748 0
M  V30 6797 H 622.872 -1.37385 -1.33408 0
M  V30 6798 H 621.177 -0.705618 -3.85394 0
M  V30 6799 H 622.874 -1.09695 -3.85705 0
M  V30 6800 H 619.464 -2.48363 -3.49305 0
M  V30 6801 H 623.648 -3.46234 -3.55578 0
M  V30 6802 H 618.904 -4.86832 -3.69871 0
M  V30 6803 H 623.078 -5.85279 -3.77388 0
M  V30 6804 H 620.705 -6.56017 -3.84117 0
M  V30 6805 N 622.28 1.30327 -0.886154 0
M  V30 6806 C 623.212 2.27079 -0.311072 0
M  V30 6807 C 624.225 1.53758 0.53502 0
M  V30 6808 O 625.414 1.74947 0.354378 0
M  V30 6809 C 622.514 3.33965 0.576228 0
M  V30 6810 C 621.687 4.36735 -0.241064 0
M  V30 6811 C 620.746 5.23028 0.576916 0
M  V30 6812 O 619.772 5.692 -0.000802231 0
M  V30 6813 N 620.974 5.49016 1.88579 0
M  V30 6814 H 623.739 2.77065 -1.14259 0
M  V30 6815 H 621.3 1.43519 -0.749258 0
M  V30 6816 H 623.292 3.88618 1.12953 0
M  V30 6817 H 621.862 2.839 1.30842 0
M  V30 6818 H 621.082 3.81932 -0.975805 0
M  V30 6819 H 622.37 5.02451 -0.801272 0
M  V30 6820 H 621.768 5.13288 2.37806 0
M  V30 6821 H 620.325 6.06539 2.38651 0
M  V30 6822 N 623.758 0.647228 1.43697 0
M  V30 6823 C 624.998 0.16171 2.03759 0
M  V30 6824 C 625.362 -1.19951 1.49919 0
M  V30 6825 O 626.563 -1.77808 2.01588 0
M  V30 6826 C 624.834 0.16505 3.57019 0
M  V30 6827 S 626.393 -0.253497 4.38067 0
M  V30 6828 H 623.211 0.0689985 0.707644 0
M  V30 6829 H 625.813 0.854224 1.7585 0
M  V30 6830 H 624.517 1.15858 3.93707 0
M  V30 6831 H 624.048 -0.548194 3.89562 0
M  V30 6832 H 626.063 -1.49385 4.73179 0
M  V30 6833 N 625.236 -1.5273 0.388769 0
M  V30 6834 C 626.199 -2.25043 -0.434544 0
M  V30 6835 C 627.199 -1.26661 -0.990644 0
M  V30 6836 O 628.389 -1.50762 -0.872731 0
M  V30 6837 C 625.521 -3.00507 -1.60961 0
M  V30 6838 H 626.714 -2.99242 0.198549 0
M  V30 6839 H 624.267 -1.55664 0.140875 0
M  V30 6840 H 625.002 -2.30607 -2.28015 0
M  V30 6841 H 624.787 -3.72716 -1.21757 0
M  V30 6842 H 626.277 -3.55413 -2.19251 0
M  V30 6843 N 626.714 -0.118576 -1.57153 0
M  V30 6844 C 627.991 0.583062 -1.86708 0
M  V30 6845 C 628.371 1.84841 -1.01967 0
M  V30 6846 O 627.719 2.28288 -0.0984673 0
M  V30 6847 C 627.929 0.875912 -3.3783 0
M  V30 6848 C 629.277 1.22916 -4.0642 0
M  V30 6849 O 630.301 0.966188 -3.42846 0
M  V30 6850 O 629.16 1.72269 -5.18638 0
M  V30 6851 H 626.254 0.294185 -0.772906 0
M  V30 6852 H 628.8 -0.153048 -1.69008 0
M  V30 6853 H 627.572 -0.0207776 -3.91294 0
M  V30 6854 H 627.195 1.66719 -3.60958 0
M  V30 6855 N 628.193 1.56834 0.155195 0
M  V30 6856 C 629.143 1.94061 1.19684 0
M  V30 6857 C 630.127 0.810851 1.38975 0
M  V30 6858 O 631.319 1.07422 1.40675 0
M  V30 6859 C 628.448 2.31778 2.53247 0
M  V30 6860 C 627.534 3.51305 2.37583 0
M  V30 6861 N 627.925 4.68081 1.9166 0
M  V30 6862 C 626.223 3.56228 2.6836 0
M  V30 6863 C 626.924 5.50193 1.88845 0
M  V30 6864 N 625.9 4.91676 2.31852 0
M  V30 6865 H 629.702 2.81826 0.833747 0
M  V30 6866 H 627.216 1.58284 0.363328 0
M  V30 6867 H 629.213 2.56649 3.28538 0
M  V30 6868 H 627.873 1.4536 2.90346 0
M  V30 6869 H 628.884 4.91993 1.6175 0
M  V30 6870 H 625.561 2.8033 3.09389 0
M  V30 6871 H 626.951 6.53801 1.54901 0
M  V30 6872 N 629.671 -0.424282 1.51781 0
M  V30 6873 C 630.619 -1.53649 1.74628 0
M  V30 6874 C 631.613 -1.57923 0.612922 0
M  V30 6875 O 632.819 -1.61511 0.794618 0
M  V30 6876 H 629.194 -0.510706 0.551981 0
M  V30 6877 H 631.165 -1.31558 2.67834 0
M  V30 6878 C 629.914 -2.91177 1.9003 0
M  V30 6879 H 629.237 -2.88625 2.76651 0
M  V30 6880 H 630.677 -3.6833 2.10021 0
M  V30 6881 C 629.136 -3.30303 0.663435 0
M  V30 6882 O 629.666 -4.01315 -0.175812 0
M  V30 6883 N 627.872 -2.86201 0.503723 0
M  V30 6884 H 627.419 -2.28583 1.18776 0
M  V30 6885 H 627.377 -3.12741 -0.322575 0
M  V30 6886 N 631.149 -1.42148 -0.680565 0
M  V30 6887 C 632.079 -1.4796 -1.80638 0
M  V30 6888 C 633.06 -0.336728 -1.66734 0
M  V30 6889 O 634.245 -0.550247 -1.86242 0
M  V30 6890 C 631.375 -1.37569 -3.18892 0
M  V30 6891 C 630.329 -2.49823 -3.47524 0
M  V30 6892 C 629.655 -2.24491 -4.85291 0
M  V30 6893 C 630.955 -3.92144 -3.44994 0
M  V30 6894 H 632.649 -2.42184 -1.76032 0
M  V30 6895 H 630.195 -1.16566 -0.845481 0
M  V30 6896 H 632.148 -1.40243 -3.97379 0
M  V30 6897 H 630.872 -0.398357 -3.24162 0
M  V30 6898 H 629.531 -2.46455 -2.71395 0
M  V30 6899 H 629.179 -1.25066 -4.87204 0
M  V30 6900 H 628.879 -2.99722 -5.05411 0
M  V30 6901 H 630.403 -2.28906 -5.66069 0
M  V30 6902 H 631.817 -3.97145 -4.13459 0
M  V30 6903 H 630.214 -4.67179 -3.76648 0
M  V30 6904 H 631.284 -4.19225 -2.43676 0
M  V30 6905 N 632.627 0.916307 -1.28225 0
M  V30 6906 C 633.574 2.01841 -1.11932 0
M  V30 6907 C 634.544 1.66091 -0.0171604 0
M  V30 6908 O 635.729 1.89934 -0.181617 0
M  V30 6909 C 632.869 3.36065 -0.784504 0
M  V30 6910 C 631.982 3.847 -1.96544 0
M  V30 6911 C 631.117 5.07423 -1.57149 0
M  V30 6912 C 630.156 5.48384 -2.71922 0
M  V30 6913 N 629.293 6.62298 -2.33037 0
M  V30 6914 H 634.133 2.1511 -2.06232 0
M  V30 6915 H 631.67 1.05366 -1.02647 0
M  V30 6916 H 633.628 4.13272 -0.571148 0
M  V30 6917 H 632.258 3.22571 0.121565 0
M  V30 6918 H 631.31 3.03673 -2.291 0
M  V30 6919 H 632.622 4.1102 -2.82603 0
M  V30 6920 H 631.776 5.92165 -1.32004 0
M  V30 6921 H 630.515 4.82906 -0.682153 0
M  V30 6922 H 629.52 4.62184 -2.97768 0
M  V30 6923 H 630.745 5.7489 -3.61494 0
M  V30 6924 H 628.691 6.39416 -1.4657 0
M  V30 6925 H 628.608 6.8833 -3.12631 0
M  V30 6926 H 629.876 7.50352 -2.11169 0
M  V30 6927 N 634.105 1.10431 1.1244 0
M  V30 6928 C 635.333 0.868872 1.87772 0
M  V30 6929 C 635.748 -0.580645 1.7965 0
M  V30 6930 O 635.105 -1.40031 1.17036 0
M  V30 6931 C 635.156 1.30855 3.36986 0
M  V30 6932 O 634.877 2.70123 3.44914 0
M  V30 6933 C 636.378 1.107 4.29256 0
M  V30 6934 H 633.598 0.311868 0.59412 0
M  V30 6935 H 636.142 1.46897 1.42273 0
M  V30 6936 H 634.297 0.752126 3.80029 0
M  V30 6937 H 634.711 2.88923 4.37748 0
M  V30 6938 H 636.185 1.46378 5.32238 0
M  V30 6939 H 636.662 0.0456228 4.39176 0
M  V30 6940 H 637.268 1.64988 3.91994 0
M  V30 6941 N 635.583 -1.29855 0.893053 0
M  V30 6942 C 636.53 -2.27909 0.364161 0
M  V30 6943 C 637.5 -1.56726 -0.550093 0
M  V30 6944 O 638.685 -1.84747 -0.47677 0
M  V30 6945 C 635.825 -3.42678 -0.408178 0
M  V30 6946 C 634.938 -4.28659 0.536212 0
M  V30 6947 C 634.073 -5.30599 -0.252521 0
M  V30 6948 C 633.112 -6.08234 0.686822 0
M  V30 6949 N 632.249 -7.02068 -0.0670902 0
M  V30 6950 H 637.089 -2.72531 1.20544 0
M  V30 6951 H 634.626 -1.34047 0.605779 0
M  V30 6952 H 636.584 -4.07986 -0.871962 0
M  V30 6953 H 635.214 -2.99103 -1.21397 0
M  V30 6954 H 634.266 -3.63584 1.1185 0
M  V30 6955 H 635.578 -4.8274 1.25552 0
M  V30 6956 H 634.732 -6.01694 -0.777801 0
M  V30 6957 H 633.471 -4.77233 -1.005 0
M  V30 6958 H 632.476 -5.3601 1.22366 0
M  V30 6959 H 633.701 -6.63689 1.43852 0
M  V30 6960 H 631.647 -6.5108 -0.801955 0
M  V30 6961 H 631.564 -7.53675 0.59243 0
M  V30 6962 H 632.832 -7.77392 -0.572851 0
M  V30 6963 N 637.061 -0.65484 -1.43351 0
M  V30 6964 C 638.008 0.0357713 -2.30772 0
M  V30 6965 C 638.978 0.813035 -1.44841 0
M  V30 6966 O 640.163 0.789314 -1.73708 0
M  V30 6967 C 637.303 0.995084 -3.30442 0
M  V30 6968 C 636.416 0.21375 -4.31471 0
M  V30 6969 C 635.551 1.16701 -5.18222 0
M  V30 6970 C 634.59 0.376201 -6.10943 0
M  V30 6971 N 633.727 1.28113 -6.90313 0
M  V30 6972 H 638.567 -0.71559 -2.89281 0
M  V30 6973 H 636.104 -0.364645 -1.42509 0
M  V30 6974 H 638.062 1.5649 -3.86739 0
M  V30 6975 H 636.692 1.7133 -2.7358 0
M  V30 6976 H 635.744 -0.472377 -3.77456 0
M  V30 6977 H 637.056 -0.401103 -4.97185 0
M  V30 6978 H 636.21 1.8074 -5.79153 0
M  V30 6979 H 634.949 1.81577 -4.52638 0
M  V30 6980 H 633.954 -0.277534 -5.49099 0
M  V30 6981 H 635.179 -0.268178 -6.7857 0
M  V30 6982 H 633.125 1.91666 -6.27376 0
M  V30 6983 H 633.042 0.720879 -7.52555 0
M  V30 6984 H 634.31 1.90962 -7.55747 0
M  V30 6985 N 638.539 1.52521 -0.396863 0
M  V30 6986 C 639.788 2.00857 0.184184 0
M  V30 6987 C 640.101 1.28733 1.47265 0
M  V30 6988 O 641.307 1.67821 2.13421 0
M  V30 6989 C 639.763 3.57901 0.378787 0
M  V30 6990 C 639.371 4.38931 -0.896873 0
M  V30 6991 C 641.115 4.14504 0.915789 0
M  V30 6992 C 639.022 5.87591 -0.670133 0
M  V30 6993 H 637.952 0.750496 0.0726055 0
M  V30 6994 H 640.603 1.75965 -0.520425 0
M  V30 6995 H 638.985 3.79072 1.14543 0
M  V30 6996 H 640.159 4.29524 -1.66872 0
M  V30 6997 H 638.474 3.93586 -1.35938 0
M  V30 6998 H 641.071 5.23236 1.10126 0
M  V30 6999 H 641.414 3.71076 1.88701 0
M  V30 7000 H 641.947 3.97253 0.208523 0
M  V30 7001 H 638.686 6.35355 -1.61257 0
M  V30 7002 H 638.206 5.99767 0.0626368 0
M  V30 7003 H 639.885 6.46268 -0.307577 0
M  V30 7004 N 640.017 0.126909 1.57088 0
M  V30 7005 C 641.247 -0.535892 1.99529 0
M  V30 7006 C 641.655 -1.60259 1.00566 0
M  V30 7007 O 640.998 -1.83698 -0.00843269 0
M  V30 7008 C 641.06 -1.21374 3.38391 0
M  V30 7009 C 640.724 -0.294044 4.56053 0
M  V30 7010 C 641.721 0.470454 5.17767 0
M  V30 7011 C 639.406 -0.202808 5.0189 0
M  V30 7012 C 641.4 1.31384 6.23712 0
M  V30 7013 C 639.087 0.644203 6.07695 0
M  V30 7014 C 640.085 1.40115 6.68473 0
M  V30 7015 O 639.773 2.23408 7.72233 0
M  V30 7016 H 639.505 -0.145799 0.66009 0
M  V30 7017 H 642.059 0.212441 2.04298 0
M  V30 7018 H 640.289 -2.00931 3.30399 0
M  V30 7019 H 641.978 -1.77424 3.65069 0
M  V30 7020 H 642.744 0.409884 4.83265 0
M  V30 7021 H 638.623 -0.781688 4.54324 0
M  V30 7022 H 642.167 1.90514 6.71081 0
M  V30 7023 H 638.064 0.706137 6.41626 0
M  V30 7024 H 638.832 2.16436 7.89365 0
M  V30 7025 N 641.495 -1.56914 -0.146875 0
M  V30 7026 C 642.742 -1.83356 -0.859467 0
M  V30 7027 C 643.07 -0.707811 -1.81164 0
M  V30 7028 O 642.325 0.303155 -1.93338 0
M  V30 7029 C 642.624 -3.16128 -1.66727 0
M  V30 7030 C 642.29 -4.42586 -0.861881 0
M  V30 7031 C 640.952 -4.76929 -0.639687 0
M  V30 7032 C 643.304 -5.20344 -0.298643 0
M  V30 7033 C 640.632 -5.86491 0.156451 0
M  V30 7034 C 642.984 -6.30742 0.484536 0
M  V30 7035 C 641.648 -6.63635 0.717306 0
M  V30 7036 H 640.918 -0.670947 -0.314501 0
M  V30 7037 H 643.565 -1.91104 -0.123108 0
M  V30 7038 H 641.87 -3.03831 -2.47374 0
M  V30 7039 H 643.567 -3.33802 -2.2221 0
M  V30 7040 H 640.157 -4.15662 -1.04513 0
M  V30 7041 H 644.341 -4.94186 -0.457585 0
M  V30 7042 H 639.597 -6.10419 0.346292 0
M  V30 7043 H 643.771 -6.90188 0.928105 0
M  V30 7044 H 641.398 -7.48367 1.33607 0
M  V30 7045 N 642.974 0.416227 -1.52004 0
M  V30 7046 C 644.204 1.18401 -1.69307 0
M  V30 7047 C 644.612 1.84943 -0.399072 0
M  V30 7048 O 643.955 1.72406 0.634177 0
M  V30 7049 C 644.017 2.29465 -2.76742 0
M  V30 7050 C 643.681 1.83117 -4.18709 0
M  V30 7051 C 644.678 1.32286 -5.02789 0
M  V30 7052 C 642.363 1.90167 -4.64911 0
M  V30 7053 C 644.357 0.891178 -6.31139 0
M  V30 7054 C 642.044 1.4661 -5.93253 0
M  V30 7055 C 643.042 0.961696 -6.76196 0
M  V30 7056 O 642.73 0.532388 -8.02135 0
M  V30 7057 H 642.462 0.362098 -0.570843 0
M  V30 7058 H 645.016 0.496764 -1.99302 0
M  V30 7059 H 643.246 3.01531 -2.42107 0
M  V30 7060 H 644.935 2.91252 -2.82713 0
M  V30 7061 H 645.701 1.26218 -4.68288 0
M  V30 7062 H 641.58 2.28371 -4.00459 0
M  V30 7063 H 645.124 0.496788 -6.95829 0
M  V30 7064 H 641.021 1.52355 -6.27263 0
M  V30 7065 H 641.789 0.656339 -8.15864 0
M  V30 7066 N 644.452 1.42507 0.673017 0
M  V30 7067 C 645.698 1.44282 1.43367 0
M  V30 7068 C 646.053 0.0588239 1.9231 0
M  V30 7069 O 645.346 -0.919288 1.68106 0
M  V30 7070 C 645.54 2.40351 2.64511 0
M  V30 7071 C 645.369 3.87955 2.27423 0
M  V30 7072 C 644.139 4.56476 2.16697 0
M  V30 7073 C 646.337 4.7833 1.88957 0
M  V30 7074 N 644.319 5.89099 1.72731 0
M  V30 7075 C 645.69 6.00073 1.55923 0
M  V30 7076 C 647.745 4.65769 1.75965 0
M  V30 7077 C 646.448 7.10652 1.112 0
M  V30 7078 C 648.474 5.76332 1.32647 0
M  V30 7079 C 647.836 6.97188 1.00538 0
M  V30 7080 H 643.935 0.583134 0.521036 0
M  V30 7081 H 646.519 1.78547 0.776481 0
M  V30 7082 H 644.69 2.08145 3.27918 0
M  V30 7083 H 646.422 2.32694 3.31113 0
M  V30 7084 H 643.177 4.10712 2.35823 0
M  V30 7085 H 643.601 6.59446 1.53166 0
M  V30 7086 H 648.243 3.72808 1.99435 0
M  V30 7087 H 645.961 8.0346 0.864768 0
M  V30 7088 H 649.547 5.68625 1.23112 0
M  V30 7089 H 648.427 7.81287 0.675283 0
M  V30 7090 N 645.93 -0.909495 1.28709 0
M  V30 7091 C 647.179 -1.65365 1.15487 0
M  V30 7092 C 647.492 -1.93364 -0.294941 0
M  V30 7093 O 648.698 -2.65905 -0.548338 0
M  V30 7094 C 647.154 -2.97923 2.01916 0
M  V30 7095 C 646.762 -2.77556 3.51663 0
M  V30 7096 C 648.506 -3.75814 1.97393 0
M  V30 7097 C 646.413 -4.0578 4.30229 0
M  V30 7098 H 645.343 -0.620323 0.42862 0
M  V30 7099 H 647.994 -1.00894 1.53273 0
M  V30 7100 H 646.376 -3.63552 1.5699 0
M  V30 7101 H 647.55 -2.2058 4.04575 0
M  V30 7102 H 645.865 -2.13072 3.57756 0
M  V30 7103 H 648.462 -4.70866 2.53357 0
M  V30 7104 H 648.805 -4.05277 0.951643 0
M  V30 7105 H 649.338 -3.1701 2.40311 0
M  V30 7106 H 646.077 -3.81488 5.33055 0
M  V30 7107 H 645.597 -4.62351 3.82089 0
M  V30 7108 H 647.276 -4.74004 4.40374 0
M  V30 7109 N 647.408 -1.11026 -1.11852 0
M  V30 7110 C 648.648 -0.866348 -1.85132 0
M  V30 7111 C 649.012 0.597236 -1.82475 0
M  V30 7112 O 650.213 0.957744 -2.51159 0
M  V30 7113 C 648.484 -1.40721 -3.28531 0
M  V30 7114 S 650.043 -1.29964 -4.19112 0
M  V30 7115 H 646.861 -0.312899 -0.638447 0
M  V30 7116 H 649.463 -1.41691 -1.34699 0
M  V30 7117 H 648.167 -2.46631 -3.28027 0
M  V30 7118 H 647.698 -0.85349 -3.8403 0
M  V30 7119 H 649.713 -0.261333 -4.95511 0
M  V30 7120 N 648.886 1.2938 -0.899927 0
M  V30 7121 C 650.302 1.48052 -0.596059 0
M  V30 7122 C 650.502 1.82114 0.862372 0
M  V30 7123 O 649.558 1.91774 1.64253 0
M  V30 7124 C 650.871 2.59332 -1.52208 0
M  V30 7125 C 652.419 2.73208 -1.5273 0
M  V30 7126 C 652.894 3.87617 -2.43961 0
M  V30 7127 N 654.385 3.9495 -2.42009 0
M  V30 7128 C 655.12 4.82824 -3.09303 0
M  V30 7129 N 654.616 5.75387 -3.85877 0
M  V30 7130 N 656.409 4.76317 -2.98459 0
M  V30 7131 H 648.56 1.05546 -1.8432 0
M  V30 7132 H 650.823 0.524314 -0.78981 0
M  V30 7133 H 650.529 2.41029 -2.56121 0
M  V30 7134 H 650.403 3.56139 -1.24278 0
M  V30 7135 H 652.79 2.90908 -0.495614 0
M  V30 7136 H 652.871 1.76975 -1.84698 0
M  V30 7137 H 652.515 3.70672 -3.47224 0
M  V30 7138 H 652.445 4.83218 -2.09303 0
M  V30 7139 H 654.936 3.28744 -1.86375 0
M  V30 7140 H 655.249 6.39235 -4.34279 0
M  V30 7141 H 653.594 5.75272 -3.89984 0
M  V30 7142 H 656.785 4.0299 -2.38152 0
M  V30 7143 H 656.958 5.44589 -3.51179 0
M  V30 7144 N 650.364 0.662433 1.43002 0
M  V30 7145 C 651.274 -0.0239199 2.34588 0
M  V30 7146 C 652.29 -0.802255 1.54402 0
M  V30 7147 O 653.466 -0.747401 1.87018 0
M  V30 7148 C 650.531 -0.972098 3.32793 0
M  V30 7149 C 649.592 -0.189673 4.28881 0
M  V30 7150 C 648.825 -1.09269 5.22395 0
M  V30 7151 O 649.048 -2.33209 5.20547 0
M  V30 7152 O 647.982 -0.560136 5.99288 0
M  V30 7153 H 651.808 0.730171 2.94792 0
M  V30 7154 H 649.393 0.422635 1.43297 0
M  V30 7155 H 651.275 -1.51676 3.93157 0
M  V30 7156 H 649.95 -1.70626 2.75079 0
M  V30 7157 H 648.857 0.398794 3.71968 0
M  V30 7158 H 650.19 0.50511 4.89601 0
M  V30 7159 N 651.842 -1.52309 0.404946 0
M  V30 7160 C 653.07 -2.06185 -0.171818 0
M  V30 7161 C 653.485 -1.27536 -1.39212 0
M  V30 7162 O 652.842 -0.326112 -1.79563 0
M  V30 7163 C 652.893 -3.57647 -0.526417 0
M  V30 7164 O 652.614 -4.3332 0.645417 0
M  V30 7165 C 654.115 -4.27925 -1.15736 0
M  V30 7166 H 651.335 -0.670632 -0.0222328 0
M  V30 7167 H 653.879 -1.96259 0.574692 0
M  V30 7168 H 652.034 -3.67595 -1.22282 0
M  V30 7169 H 652.448 -5.23328 0.35042 0
M  V30 7170 H 653.922 -5.35093 -1.35572 0
M  V30 7171 H 654.399 -3.84134 -2.12926 0
M  V30 7172 H 655.005 -4.22335 -0.501281 0
M  V30 7173 N 653.32 -0.135238 -1.57019 0
M  V30 7174 C 654.568 0.51777 -1.95355 0
M  V30 7175 C 654.889 1.6617 -1.02042 0
M  V30 7176 O 654.159 1.95738 -0.0797343 0
M  V30 7177 H 652.739 0.194264 -0.721298 0
M  V30 7178 H 655.401 -0.207983 -1.93787 0
M  V30 7179 H 654.497 0.901675 -2.98791 0
M  V30 7180 N 654.798 1.5699 0.138552 0
M  V30 7181 C 655.761 1.97984 1.15478 0
M  V30 7182 C 656.761 0.867416 1.35398 0
M  V30 7183 O 657.951 1.13387 1.32246 0
M  V30 7184 C 655.083 2.3031 2.51337 0
M  V30 7185 H 656.276 2.88953 0.802896 0
M  V30 7186 H 653.829 1.51555 0.382189 0
M  V30 7187 H 654.564 1.42159 2.91481 0
M  V30 7188 H 654.349 3.11425 2.38237 0
M  V30 7189 H 655.839 2.62834 3.24512 0
M  V30 7190 N 656.276 -0.40816 1.52223 0
M  V30 7191 C 657.523 -1.15502 1.66329 0
M  V30 7192 C 657.851 -1.90474 0.393701 0
M  V30 7193 O 657.106 -1.85507 -0.623356 0
M  V30 7194 C 657.405 -2.17422 2.83659 0
M  V30 7195 C 657.071 -1.5925 4.21841 0
M  V30 7196 C 655.733 -1.4311 4.59427 0
M  V30 7197 C 658.085 -1.16776 5.0795 0
M  V30 7198 C 655.413 -0.830148 5.80797 0
M  V30 7199 C 657.765 -0.580988 6.29926 0
M  V30 7200 C 656.429 -0.406729 6.6626 0
M  V30 7201 H 655.699 -0.422653 0.608642 0
M  V30 7202 H 658.346 -0.442114 1.86327 0
M  V30 7203 H 656.651 -2.94861 2.58001 0
M  V30 7204 H 658.348 -2.75084 2.9177 0
M  V30 7205 H 654.938 -1.72796 3.92224 0
M  V30 7206 H 659.122 -1.28055 4.79495 0
M  V30 7207 H 654.378 -0.68316 6.07571 0
M  V30 7208 H 658.552 -0.243488 6.95974 0
M  V30 7209 H 656.179 0.0610366 7.60175 0
M  V30 7210 N 657.755 -1.42862 -0.66545 0
M  V30 7211 C 658.98 -1.47456 -1.45848 0
M  V30 7212 C 659.405 -0.0900312 -1.87884 0
M  V30 7213 O 658.763 0.913587 -1.56599 0
M  V30 7214 C 658.811 -2.41514 -2.67774 0
M  V30 7215 O 657.915 -1.89296 -3.66389 0
M  V30 7216 H 657.256 -0.499236 -0.437789 0
M  V30 7217 H 659.786 -1.8765 -0.815394 0
M  V30 7218 H 659.796 -2.58409 -3.15735 0
M  V30 7219 H 658.471 -3.42099 -2.36519 0
M  V30 7220 H 657.048 -1.82003 -3.25468 0
M  V30 7221 N 659.233 0.902656 -1.29189 0
M  V30 7222 C 660.479 1.6555 -1.18172 0
M  V30 7223 C 660.834 1.90569 0.264788 0
M  V30 7224 O 660.127 1.50292 1.1884 0
M  V30 7225 C 660.321 3.011 -1.92545 0
M  V30 7226 C 660.15 2.89312 -3.4428 0
M  V30 7227 C 658.92 2.90239 -4.1363 0
M  V30 7228 C 661.118 2.6656 -4.3983 0
M  V30 7229 N 659.1 2.69156 -5.5175 0
M  V30 7230 C 660.471 2.54429 -5.6539 0
M  V30 7231 C 662.526 2.51644 -4.29627 0
M  V30 7232 C 661.229 2.289 -6.81907 0
M  V30 7233 C 663.255 2.27498 -5.45892 0
M  V30 7234 C 662.617 2.16129 -6.70423 0
M  V30 7235 H 658.716 0.611519 -0.48741 0
M  V30 7236 H 661.3 1.06514 -1.62981 0
M  V30 7237 H 659.471 3.58202 -1.50154 0
M  V30 7238 H 661.203 3.65471 -1.73818 0
M  V30 7239 H 657.958 3.01412 -3.65305 0
M  V30 7240 H 658.382 2.61676 -6.24383 0
M  V30 7241 H 663.024 2.59178 -3.34045 0
M  V30 7242 H 660.742 2.20104 -7.77547 0
M  V30 7243 H 664.328 2.16805 -5.39895 0
M  V30 7244 H 663.208 1.97703 -7.5887 0
M  V30 7245 N 660.711 1.11618 1.11262 0
M  V30 7246 C 661.958 0.86618 1.8304 0
M  V30 7247 C 662.286 -0.608149 1.84748 0
M  V30 7248 O 661.541 -1.46508 1.29745 0
M  V30 7249 C 661.84 1.37529 3.2988 0
M  V30 7250 C 661.506 2.86317 3.4833 0
M  V30 7251 C 660.168 3.26945 3.53073 0
M  V30 7252 C 662.52 3.82136 3.54431 0
M  V30 7253 C 659.848 4.62117 3.61475 0
M  V30 7254 C 662.2 5.17128 3.64365 0
M  V30 7255 C 660.864 5.57312 3.67369 0
M  V30 7256 H 660.134 0.316958 0.66979 0
M  V30 7257 H 662.781 1.3949 1.31205 0
M  V30 7258 H 661.086 0.766842 3.84222 0
M  V30 7259 H 662.783 1.15817 3.83911 0
M  V30 7260 H 659.373 2.53889 3.45309 0
M  V30 7261 H 663.557 3.51847 3.50025 0
M  V30 7262 H 658.813 4.92655 3.62079 0
M  V30 7263 H 662.987 5.91208 3.68029 0
M  V30 7264 H 660.614 6.62045 3.73632 0
M  V30 7265 N 662.189 -1.289 0.906776 0
M  V30 7266 C 663.137 -2.29477 0.379873 0
M  V30 7267 C 664.131 -1.61068 -0.524747 0
M  V30 7268 O 665.337 -1.75344 -0.406765 0
M  V30 7269 H 661.712 -0.744742 0.10423 0
M  V30 7270 H 663.683 -2.71353 1.24137 0
M  V30 7271 C 662.432 -3.45713 -0.371154 0
M  V30 7272 H 661.755 -3.98551 0.315716 0
M  V30 7273 H 663.195 -4.18105 -0.704581 0
M  V30 7274 C 661.654 -2.9774 -1.57646 0
M  V30 7275 O 662.184 -2.99618 -2.67567 0
M  V30 7276 N 660.39 -2.53485 -1.42105 0
M  V30 7277 H 659.937 -2.52156 -0.526783 0
M  V30 7278 H 659.895 -2.21747 -2.22881 0
M  V30 7279 N 663.667 -0.670007 -1.42649 0
M  V30 7280 C 664.615 0.0230106 -2.32589 0
M  V30 7281 C 665.609 0.795585 -1.49555 0
M  V30 7282 O 666.815 0.70409 -1.65658 0
M  V30 7283 H 663.19 0.0262342 -0.751542 0
M  V30 7284 H 665.161 -0.753009 -2.88743 0
M  V30 7285 C 663.91 0.963872 -3.34073 0
M  V30 7286 H 663.233 0.378813 -3.98001 0
M  V30 7287 H 664.673 1.41755 -3.99602 0
M  V30 7288 C 663.132 2.06797 -2.65964 0
M  V30 7289 O 663.662 3.15383 -2.48789 0
M  V30 7290 N 661.868 1.83831 -2.25066 0
M  V30 7291 H 661.415 0.955235 -2.39234 0
M  V30 7292 H 661.373 2.57895 -1.79827 0
M  V30 7293 N 665.145 1.52092 -0.413018 0
M  V30 7294 C 666.075 2.30021 0.401567 0
M  V30 7295 C 667.056 1.34395 1.04269 0
M  V30 7296 O 668.241 1.63304 1.05097 0
M  V30 7297 C 665.371 3.12447 1.51638 0
M  V30 7298 C 664.325 4.16153 1.00005 0
M  V30 7299 C 663.651 4.86948 2.20875 0
M  V30 7300 C 664.951 5.22275 0.0513757 0
M  V30 7301 H 666.645 2.98365 -0.248704 0
M  V30 7302 H 664.191 1.4349 -0.121052 0
M  V30 7303 H 666.144 3.65733 2.09326 0
M  V30 7304 H 664.868 2.41879 2.19458 0
M  V30 7305 H 663.527 3.63882 0.445549 0
M  V30 7306 H 663.175 4.12905 2.8726 0
M  V30 7307 H 662.875 5.57057 1.86978 0
M  V30 7308 H 664.399 5.43048 2.79162 0
M  V30 7309 H 665.813 5.70778 0.537176 0
M  V30 7310 H 664.21 5.9977 -0.198977 0
M  V30 7311 H 665.28 4.76611 -0.892736 0
M  V30 7312 N 666.623 0.143563 1.56945 0
M  V30 7313 C 667.553 -0.7936 2.196 0
M  V30 7314 C 668.534 -1.25955 1.14321 0
M  V30 7315 O 669.719 -1.31773 1.42651 0
M  V30 7316 C 666.849 -2.03424 2.81489 0
M  V30 7317 C 665.803 -1.70519 3.92565 0
M  V30 7318 C 665.129 -3.01817 4.41373 0
M  V30 7319 C 666.429 -0.95449 5.13504 0
M  V30 7320 H 668.123 -0.271423 2.98167 0
M  V30 7321 H 665.669 -0.12911 1.4342 0
M  V30 7322 H 667.622 -2.69463 3.23987 0
M  V30 7323 H 666.346 -2.58008 2.00248 0
M  V30 7324 H 665.005 -1.06859 3.5068 0
M  V30 7325 H 664.653 -3.54386 3.56959 0
M  V30 7326 H 664.353 -2.80565 5.16292 0
M  V30 7327 H 665.877 -3.68934 4.86539 0
M  V30 7328 H 667.291 -1.5169 5.52868 0
M  V30 7329 H 665.688 -0.842035 5.94163 0
M  V30 7330 H 666.758 0.0544033 4.84869 0
M  V30 7331 N 668.101 -1.57061 -0.130224 0
M  V30 7332 C 669.329 -1.88432 -0.854456 0
M  V30 7333 C 669.744 -0.733608 -1.73964 0
M  V30 7334 O 669.101 0.296029 -1.80083 0
M  V30 7335 C 669.152 -3.1918 -1.69724 0
M  V30 7336 O 668.873 -4.2982 -0.847705 0
M  V30 7337 C 670.374 -3.6418 -2.5276 0
M  V30 7338 H 667.594 -0.624193 -0.246221 0
M  V30 7339 H 670.138 -2.04159 -0.11798 0
M  V30 7340 H 668.293 -3.05156 -2.3866 0
M  V30 7341 H 668.707 -5.04689 -1.42792 0
M  V30 7342 H 670.181 -4.58457 -3.07443 0
M  V30 7343 H 670.658 -2.90285 -3.29592 0
M  V30 7344 H 671.264 -3.80954 -1.89087 0
M  V30 7345 N 669.579 0.400081 -1.52437 0
M  V30 7346 C 670.804 1.17221 -1.71096 0
M  V30 7347 C 671.229 1.83269 -0.423565 0
M  V30 7348 O 670.587 1.70378 0.619751 0
M  V30 7349 C 670.635 2.20425 -2.85386 0
M  V30 7350 O 669.739 3.26769 -2.51586 0
M  V30 7351 H 669.08 0.341766 -0.569291 0
M  V30 7352 H 671.61 0.467772 -1.99181 0
M  V30 7353 H 671.62 2.64605 -3.10561 0
M  V30 7354 H 670.295 1.71737 -3.78786 0
M  V30 7355 H 668.872 2.87804 -2.37114 0
M  V30 7356 N 671.057 1.43213 0.657864 0
M  V30 7357 C 671.987 1.50815 1.78262 0
M  V30 7358 C 672.968 0.363211 1.66177 0
M  V30 7359 O 674.153 0.579806 1.85343 0
M  V30 7360 C 671.283 1.42625 3.16663 0
M  V30 7361 C 670.237 2.5532 3.43505 0
M  V30 7362 C 669.563 2.32184 4.81658 0
M  V30 7363 C 670.863 3.97583 3.38711 0
M  V30 7364 H 672.557 2.44954 1.72157 0
M  V30 7365 H 670.103 1.17896 0.82683 0
M  V30 7366 H 672.056 1.46548 3.95097 0
M  V30 7367 H 670.78 0.449877 3.23487 0
M  V30 7368 H 669.439 2.50742 2.6744 0
M  V30 7369 H 669.087 1.32801 4.85153 0
M  V30 7370 H 668.787 3.07724 5.00579 0
M  V30 7371 H 670.311 2.37883 5.62356 0
M  V30 7372 H 671.725 4.03673 4.07089 0
M  V30 7373 H 670.122 4.73112 3.69168 0
M  V30 7374 H 671.192 4.23049 2.36976 0
M  V30 7375 N 672.536 -0.895792 1.29666 0
M  V30 7376 C 673.446 -2.03329 1.17024 0
M  V30 7377 C 674.462 -1.73753 0.0925962 0
M  V30 7378 O 675.638 -1.99071 0.305431 0
M  V30 7379 C 672.703 -3.36072 0.851841 0
M  V30 7380 C 671.764 -3.7914 2.01373 0
M  V30 7381 C 670.997 -5.05549 1.71043 0
M  V30 7382 O 671.22 -5.66874 0.633213 0
M  V30 7383 O 670.154 -5.44764 2.5596 0
M  V30 7384 H 673.98 -2.16918 2.12556 0
M  V30 7385 H 671.565 -1.02007 1.09156 0
M  V30 7386 H 673.447 -4.15729 0.689006 0
M  V30 7387 H 672.122 -3.23616 -0.0736634 0
M  V30 7388 H 671.029 -3.00233 2.23183 0
M  V30 7389 H 672.362 -3.96186 2.92058 0
M  V30 7390 N 674.014 -1.12206 -1.10668 0
M  V30 7391 C 674.946 -0.74552 -2.16736 0
M  V30 7392 C 675.959 0.226696 -1.61214 0
M  V30 7393 O 677.148 0.0083936 -1.78498 0
M  V30 7394 C 674.248 -0.0823368 -3.388 0
M  V30 7395 C 673.421 -1.08341 -4.2377 0
M  V30 7396 C 672.48 -0.448292 -5.24287 0
M  V30 7397 O 671.506 -1.10458 -5.58379 0
M  V30 7398 N 672.708 0.785336 -5.75163 0
M  V30 7399 H 675.473 -1.65818 -2.49649 0
M  V30 7400 H 673.034 -1.01335 -1.26265 0
M  V30 7401 H 675.026 0.354476 -4.03145 0
M  V30 7402 H 673.596 0.733041 -3.03884 0
M  V30 7403 H 672.816 -1.69792 -3.55759 0
M  V30 7404 H 674.104 -1.76042 -4.77375 0
M  V30 7405 H 673.502 1.33755 -5.4966 0
M  V30 7406 H 672.059 1.16501 -6.41304 0
M  V30 7407 N 675.492 1.28418 -0.913599 0
M  V30 7408 C 676.402 2.31043 -0.406965 0
M  V30 7409 C 677.418 1.66501 0.505298 0
M  V30 7410 O 678.594 1.97558 0.391522 0
M  V30 7411 C 675.659 3.4498 0.344901 0
M  V30 7412 C 674.72 4.25078 -0.600563 0
M  V30 7413 C 673.953 5.33575 0.115516 0
M  V30 7414 O 674.176 5.54503 1.33727 0
M  V30 7415 O 673.11 5.9939 -0.549095 0
M  V30 7416 H 676.936 2.76387 -1.25873 0
M  V30 7417 H 674.521 1.33109 -0.678415 0
M  V30 7418 H 676.403 4.14314 0.769542 0
M  V30 7419 H 675.078 3.01719 1.1725 0
M  V30 7420 H 673.985 3.58334 -1.0746 0
M  V30 7421 H 675.318 4.72018 -1.39497 0
M  V30 7422 N 676.97 0.677563 1.42291 0
M  V30 7423 C 677.903 -0.0492638 2.28147 0
M  V30 7424 C 678.881 -0.805936 1.41221 0
M  V30 7425 O 680.065 -0.80049 1.70659 0
M  V30 7426 C 677.192 -1.07697 3.21122 0
M  V30 7427 C 676.238 -0.41556 4.24471 0
M  V30 7428 S 677.071 0.828876 5.29046 0
M  V30 7429 C 678.227 -0.197687 6.25588 0
M  V30 7430 H 678.46 0.678965 2.89443 0
M  V30 7431 H 675.993 0.467201 1.47162 0
M  V30 7432 H 677.951 -1.66482 3.75225 0
M  V30 7433 H 676.612 -1.77766 2.58956 0
M  V30 7434 H 675.805 -1.19112 4.89723 0
M  V30 7435 H 675.407 0.0987632 3.7387 0
M  V30 7436 H 677.699 -1.05656 6.69211 0
M  V30 7437 H 678.642 0.420437 7.06851 0
M  V30 7438 H 679.05 -0.544401 5.61869 0
M  V30 7439 N 678.448 -1.51871 0.421078 0
M  V30 7440 C 679.358 -2.31077 -0.405069 0
M  V30 7441 C 680.374 -1.39301 -1.04265 0
M  V30 7442 O 681.55 -1.72376 -1.04157 0
M  V30 7443 C 678.615 -3.12556 -1.50032 0
M  V30 7444 C 677.676 -4.20088 -0.884559 0
M  V30 7445 C 676.909 -4.97673 -1.92762 0
M  V30 7446 O 677.132 -4.75696 -3.14753 0
M  V30 7447 O 676.066 -5.82203 -1.52719 0
M  V30 7448 H 679.892 -3.02742 0.241086 0
M  V30 7449 H 677.477 -1.48263 0.183991 0
M  V30 7450 H 679.359 -3.6326 -2.13589 0
M  V30 7451 H 678.034 -2.43672 -2.13086 0
M  V30 7452 H 676.941 -3.73502 -0.211379 0
M  V30 7453 H 678.274 -4.91298 -0.297763 0
M  V30 7454 N 679.926 -0.151884 -1.56866 0
M  V30 7455 C 680.836 0.798876 -2.20579 0
M  V30 7456 C 681.852 1.268 -1.19154 0
M  V30 7457 O 683.028 1.32418 -1.51748 0
M  V30 7458 C 680.093 2.01861 -2.81874 0
M  V30 7459 C 679.154 1.59825 -3.9844 0
M  V30 7460 C 678.387 2.75984 -4.56802 0
M  V30 7461 O 678.61 3.92331 -4.14044 0
M  V30 7462 O 677.544 2.51175 -5.46987 0
M  V30 7463 H 681.37 0.2865 -3.02346 0
M  V30 7464 H 678.955 0.0753806 -1.4921 0
M  V30 7465 H 680.837 2.73235 -3.20813 0
M  V30 7466 H 679.512 2.52042 -2.03117 0
M  V30 7467 H 678.419 0.854601 -3.64208 0
M  V30 7468 H 679.752 1.14355 -4.78731 0
M  V30 7469 N 681.404 1.57128 0.121893 0
M  V30 7470 C 682.334 2.03165 1.15092 0
M  V30 7471 C 683.315 0.915587 1.43356 0
M  V30 7472 O 684.5 1.1851 1.53847 0
M  V30 7473 C 681.63 2.43352 2.47784 0
M  V30 7474 C 680.584 3.58376 2.33989 0
M  V30 7475 C 679.91 3.84454 3.71617 0
M  V30 7476 C 681.21 4.90199 1.80283 0
M  V30 7477 H 682.904 2.89382 0.768023 0
M  V30 7478 H 680.45 1.39218 0.367998 0
M  V30 7479 H 682.403 2.74163 3.20019 0
M  V30 7480 H 681.127 1.54103 2.87958 0
M  V30 7481 H 679.786 3.2777 1.64202 0
M  V30 7482 H 679.434 2.92414 4.09271 0
M  V30 7483 H 679.134 4.61877 3.6324 0
M  V30 7484 H 680.658 4.17714 4.45362 0
M  V30 7485 H 682.072 5.19565 2.42333 0
M  V30 7486 H 680.469 5.71601 1.82735 0
M  V30 7487 H 681.539 4.78904 0.760184 0
M  V30 7488 N 682.882 -0.391992 1.52647 0
M  V30 7489 C 684.13 -1.13507 1.67214 0
M  V30 7490 C 684.451 -1.90575 0.41304 0
M  V30 7491 O 683.721 -1.87348 -0.572498 0
M  V30 7492 H 682.301 -0.422013 0.616372 0
M  V30 7493 H 684.963 -0.44502 1.89751 0
M  V30 7494 H 684.059 -1.83964 2.52118 0
M  V30 7495 N 684.36 -1.4356 -0.65026 0
M  V30 7496 C 685.307 -1.48948 -1.76304 0
M  V30 7497 C 686.277 -0.338919 -1.62605 0
M  V30 7498 O 687.462 -0.54649 -1.82806 0
M  V30 7499 C 684.602 -1.42131 -3.14472 0
M  V30 7500 C 683.715 -2.67415 -3.39284 0
M  V30 7501 C 682.85 -2.52565 -4.67316 0
M  V30 7502 C 681.889 -3.73103 -4.85243 0
M  V30 7503 N 681.026 -3.57046 -6.04535 0
M  V30 7504 H 685.866 -2.44032 -1.71034 0
M  V30 7505 H 683.403 -1.21131 -0.834601 0
M  V30 7506 H 685.361 -1.36172 -3.94351 0
M  V30 7507 H 683.991 -0.506273 -3.18805 0
M  V30 7508 H 683.043 -2.8364 -2.53481 0
M  V30 7509 H 684.355 -3.56943 -3.48415 0
M  V30 7510 H 683.509 -2.44331 -5.55326 0
M  V30 7511 H 682.248 -1.60566 -4.60511 0
M  V30 7512 H 681.253 -3.81743 -3.95667 0
M  V30 7513 H 682.478 -4.66115 -4.93876 0
M  V30 7514 H 680.424 -2.67783 -5.98856 0
M  V30 7515 H 680.341 -4.40178 -6.14638 0
M  V30 7516 H 681.609 -3.52669 -6.95158 0
M  V30 7517 N 685.838 0.888903 -1.30139 0
M  V30 7518 C 687.084 1.6428 -1.18912 0
M  V30 7519 C 687.417 1.92499 0.256477 0
M  V30 7520 O 686.692 1.54312 1.18397 0
M  V30 7521 C 686.975 2.9851 -2.01405 0
M  V30 7522 C 686.828 2.77288 -3.54163 0
M  V30 7523 C 688.147 3.99383 -1.84882 0
M  V30 7524 H 685.266 0.596148 -0.433333 0
M  V30 7525 H 687.908 1.0289 -1.5973 0
M  V30 7526 H 686.058 3.50907 -1.66722 0
M  V30 7527 H 687.73 2.31709 -3.98884 0
M  V30 7528 H 685.973 2.11867 -3.78543 0
M  V30 7529 H 686.644 3.72717 -4.07168 0
M  V30 7530 H 689.12 3.56132 -2.15196 0
M  V30 7531 H 687.996 4.91222 -2.44934 0
M  V30 7532 H 688.257 4.34674 -0.806902 0
M  V30 7533 N 687.317 1.12792 1.10072 0
M  V30 7534 C 688.565 0.883796 1.81751 0
M  V30 7535 C 688.886 -0.591891 1.858 0
M  V30 7536 O 688.156 -1.43017 1.33876 0
M  V30 7537 H 686.736 0.323978 0.673088 0
M  V30 7538 H 689.398 1.42314 1.33164 0
M  V30 7539 H 688.494 1.26863 2.85153 0
M  V30 7540 N 688.795 -1.27931 0.920396 0
M  V30 7541 C 690.042 -1.94689 0.557007 0
M  V30 7542 C 690.37 -1.724 -0.900476 0
M  V30 7543 O 689.625 -1.04194 -1.65657 0
M  V30 7544 C 689.924 -3.47853 0.820558 0
M  V30 7545 C 689.59 -3.90252 2.25863 0
M  V30 7546 C 688.252 -4.01539 2.65179 0
M  V30 7547 C 690.604 -4.11853 3.19415 0
M  V30 7548 C 687.932 -4.3181 3.97187 0
M  V30 7549 C 690.284 -4.43606 4.50995 0
M  V30 7550 C 688.948 -4.53105 4.90155 0
M  V30 7551 H 688.218 -0.712416 0.203823 0
M  V30 7552 H 690.865 -1.52142 1.16298 0
M  V30 7553 H 689.17 -3.91578 0.131844 0
M  V30 7554 H 690.867 -3.97634 0.51847 0
M  V30 7555 H 687.457 -3.81999 1.94358 0
M  V30 7556 H 691.641 -4.0258 2.90246 0
M  V30 7557 H 686.897 -4.37371 4.2722 0
M  V30 7558 H 691.071 -4.59268 5.23494 0
M  V30 7559 H 688.698 -4.76315 5.92476 0
M  V30 7560 N 690.273 -0.685099 -1.4193 0
M  V30 7561 C 691.203 -0.0273506 -2.33484 0
M  V30 7562 C 692.184 0.778366 -1.51246 0
M  V30 7563 O 693.369 0.733449 -1.79817 0
M  V30 7564 C 690.499 0.917272 -3.34968 0
M  V30 7565 C 689.453 0.21941 -4.27437 0
M  V30 7566 C 688.779 1.27768 -5.1921 0
M  V30 7567 C 690.079 -0.907894 -5.14349 0
M  V30 7568 H 691.773 -0.791994 -2.88735 0
M  V30 7569 H 689.319 -0.382308 -1.38832 0
M  V30 7570 H 691.272 1.38657 -3.97935 0
M  V30 7571 H 689.996 1.71346 -2.78043 0
M  V30 7572 H 688.655 -0.229757 -3.65879 0
M  V30 7573 H 688.303 2.06612 -4.58607 0
M  V30 7574 H 688.003 0.815803 -5.81909 0
M  V30 7575 H 689.527 1.7477 -5.85054 0
M  V30 7576 H 690.941 -0.519348 -5.70943 0
M  V30 7577 H 689.338 -1.2962 -5.85934 0
M  V30 7578 H 690.408 -1.75218 -4.52136 0
M  V30 7579 N 691.751 1.51645 -0.429126 0
M  V30 7580 C 692.699 2.29119 0.400921 0
M  V30 7581 C 693.693 1.34628 1.02819 0
M  V30 7582 O 694.899 1.52004 0.964098 0
M  V30 7583 H 691.274 0.737273 0.148095 0
M  V30 7584 H 693.245 2.97144 -0.273457 0
M  V30 7585 C 691.994 3.13953 1.49429 0
M  V30 7586 H 691.317 3.86544 1.02097 0
M  V30 7587 H 692.757 3.71232 2.04849 0
M  V30 7588 C 691.216 2.28796 2.47293 0
M  V30 7589 O 691.746 1.94193 3.51642 0
M  V30 7590 N 689.952 1.92177 2.17982 0
M  V30 7591 H 689.499 2.20517 1.33154 0
M  V30 7592 H 689.457 1.35497 2.83704 0
M  V30 7593 N 693.229 0.160201 1.56784 0
M  V30 7594 C 694.459 -0.493449 2.00621 0
M  V30 7595 C 694.867 -1.5809 1.03943 0
M  V30 7596 O 694.21 -1.83675 0.0305343 0
M  V30 7597 C 694.272 -1.14169 3.4089 0
M  V30 7598 C 693.936 -0.197243 4.56574 0
M  V30 7599 C 694.933 0.580174 5.16653 0
M  V30 7600 C 692.618 -0.0963038 5.02208 0
M  V30 7601 C 694.612 1.44584 6.20785 0
M  V30 7602 C 692.299 0.772959 6.06192 0
M  V30 7603 C 693.297 1.54263 6.65351 0
M  V30 7604 O 692.985 2.39738 7.67321 0
M  V30 7605 H 692.717 -0.131764 0.663034 0
M  V30 7606 H 695.271 0.255728 2.03802 0
M  V30 7607 H 693.501 -1.93877 3.34587 0
M  V30 7608 H 695.19 -1.69641 3.6875 0
M  V30 7609 H 695.956 0.5123 4.82287 0
M  V30 7610 H 691.835 -0.685143 4.5588 0
M  V30 7611 H 695.379 2.04706 6.66889 0
M  V30 7612 H 691.276 0.842077 6.39984 0
M  V30 7613 H 692.044 2.33131 7.84597 0
M  V30 7614 N 694.707 -1.5719 -0.113559 0
M  V30 7615 C 696.123 -1.52607 -0.467253 0
M  V30 7616 C 696.323 -0.874058 -1.81556 0
M  V30 7617 O 695.379 -0.458703 -2.48299 0
M  V30 7618 C 696.692 -2.97363 -0.446736 0
M  V30 7619 C 698.24 -3.08482 -0.529903 0
M  V30 7620 C 698.715 -4.54809 -0.539721 0
M  V30 7621 N 700.206 -4.59284 -0.601005 0
M  V30 7622 C 700.941 -5.69927 -0.630138 0
M  V30 7623 N 700.437 -6.90051 -0.616589 0
M  V30 7624 N 702.23 -5.5805 -0.673558 0
M  V30 7625 H 694.381 -1.97958 0.769819 0
M  V30 7626 H 696.644 -0.90428 0.284572 0
M  V30 7627 H 696.35 -3.48458 0.47643 0
M  V30 7628 H 696.224 -3.55086 -1.27254 0
M  V30 7629 H 698.611 -2.57386 -1.44349 0
M  V30 7630 H 698.692 -2.53744 0.323695 0
M  V30 7631 H 698.336 -5.06552 0.369843 0
M  V30 7632 H 698.266 -5.07364 -1.41028 0
M  V30 7633 H 700.757 -3.72822 -0.617419 0
M  V30 7634 H 701.07 -7.70132 -0.641592 0
M  V30 7635 H 699.415 -6.92543 -0.583927 0
M  V30 7636 H 702.606 -4.63112 -0.681544 0
M  V30 7637 H 702.779 -6.44286 -0.692794 0
M  V30 7638 N 696.185 0.383891 -1.52853 0
M  V30 7639 C 697.115 1.47559 -1.80965 0
M  V30 7640 C 698.096 1.5669 -0.661986 0
M  V30 7641 O 699.281 1.71556 -0.910072 0
M  V30 7642 C 696.411 2.85114 -1.98312 0
M  V30 7643 C 695.365 2.9082 -3.14019 0
M  V30 7644 C 694.691 4.30873 -3.16627 0
M  V30 7645 C 695.991 2.60001 -4.52986 0
M  V30 7646 H 697.685 1.24283 -2.72386 0
M  V30 7647 H 695.231 0.596445 -1.31067 0
M  V30 7648 H 697.184 3.61496 -2.16561 0
M  V30 7649 H 695.908 3.09738 -1.03585 0
M  V30 7650 H 694.567 2.16886 -2.9556 0
M  V30 7651 H 694.215 4.52545 -2.19573 0
M  V30 7652 H 693.915 4.3561 -3.94357 0
M  V30 7653 H 695.439 5.09154 -3.37038 0
M  V30 7654 H 696.853 3.261 -4.71521 0
M  V30 7655 H 695.25 2.76081 -5.32822 0
M  V30 7656 H 696.32 1.5532 -4.59351 0
M  V30 7657 N 697.663 1.43903 0.642637 0
M  V30 7658 C 698.91 1.46079 1.40239 0
M  V30 7659 C 699.238 0.0890335 1.94296 0
M  V30 7660 O 698.493 -0.907533 1.73385 0
M  V30 7661 C 698.792 2.45907 2.59354 0
M  V30 7662 C 698.458 3.91522 2.23654 0
M  V30 7663 C 697.12 4.31179 2.1363 0
M  V30 7664 C 699.472 4.83242 1.95261 0
M  V30 7665 C 696.8 5.60495 1.73384 0
M  V30 7666 C 699.152 6.12933 1.56511 0
M  V30 7667 C 697.816 6.51556 1.4502 0
M  V30 7668 H 697.086 0.534542 0.513172 0
M  V30 7669 H 699.733 1.77047 0.72984 0
M  V30 7670 H 698.038 2.08381 3.3179 0
M  V30 7671 H 699.735 2.44842 3.17574 0
M  V30 7672 H 696.325 3.60142 2.32369 0
M  V30 7673 H 700.509 4.53367 2.0192 0
M  V30 7674 H 695.765 5.89249 1.63082 0
M  V30 7675 H 699.939 6.83469 1.33576 0
M  V30 7676 H 697.566 7.51663 1.13606 0
M  V30 7677 N 699.141 -0.881989 1.30609 0
M  V30 7678 C 700.071 -2.00413 1.1982 0
M  V30 7679 C 701.052 -1.69871 0.0881538 0
M  V30 7680 O 702.237 -1.92304 0.2707 0
M  V30 7681 C 699.367 -3.35641 0.89233 0
M  V30 7682 C 698.321 -3.80451 1.96064 0
M  V30 7683 C 697.647 -5.13003 1.5077 0
M  V30 7684 C 698.947 -3.98855 3.37213 0
M  V30 7685 H 700.641 -2.09698 2.13699 0
M  V30 7686 H 698.187 -1.00754 1.02882 0
M  V30 7687 H 700.14 -4.13669 0.803497 0
M  V30 7688 H 698.864 -3.26497 -0.0821381 0
M  V30 7689 H 697.523 -3.04654 2.03916 0
M  V30 7690 H 697.171 -5.0029 0.521417 0
M  V30 7691 H 696.871 -5.43956 2.22229 0
M  V30 7692 H 698.395 -5.93554 1.43271 0
M  V30 7693 H 699.809 -4.67312 3.32103 0
M  V30 7694 H 698.206 -4.41188 4.06784 0
M  V30 7695 H 699.276 -3.02614 3.78883 0
M  V30 7696 N 700.619 -1.13374 -1.09472 0
M  V30 7697 C 701.847 -0.918351 -1.85402 0
M  V30 7698 C 702.262 0.53281 -1.81126 0
M  V30 7699 O 701.619 1.36879 -1.20708 0
M  V30 7700 C 701.67 -1.39743 -3.33398 0
M  V30 7701 O 701.391 -2.79172 -3.37631 0
M  V30 7702 C 702.892 -1.22042 -4.2617 0
M  V30 7703 H 700.112 -0.327511 -0.585643 0
M  V30 7704 H 702.656 -1.50617 -1.38328 0
M  V30 7705 H 700.811 -0.852619 -3.77901 0
M  V30 7706 H 701.225 -3.00428 -4.29934 0
M  V30 7707 H 702.699 -1.60438 -5.2817 0
M  V30 7708 H 703.176 -0.162047 -4.38901 0
M  V30 7709 H 703.782 -1.75323 -3.87482 0
M  V30 7710 N 702.098 1.27442 -0.927168 0
M  V30 7711 C 703.346 1.94007 -0.566203 0
M  V30 7712 C 703.667 1.7323 0.895345 0
M  V30 7713 O 702.937 1.07973 1.63459 0
M  V30 7714 H 701.517 0.717917 -0.206409 0
M  V30 7715 H 704.179 1.55161 -1.17945 0
M  V30 7716 H 703.275 3.02401 -0.772028 0
M  V30 7717 N 703.576 0.692616 1.41565 0
M  V30 7718 C 704.822 0.231408 2.02079 0
M  V30 7719 C 705.177 -1.15514 1.53864 0
M  V30 7720 O 704.47 -1.76786 0.73873 0
M  V30 7721 C 704.664 0.225073 3.56691 0
M  V30 7722 C 704.493 1.60947 4.19912 0
M  V30 7723 C 703.263 2.2116 4.54331 0
M  V30 7724 C 705.461 2.55553 4.46315 0
M  V30 7725 N 703.443 3.52195 5.02824 0
M  V30 7726 C 704.814 3.71263 4.96552 0
M  V30 7727 C 706.869 2.53857 4.28323 0
M  V30 7728 C 705.572 4.85555 5.30687 0
M  V30 7729 C 707.598 3.67259 4.63546 0
M  V30 7730 C 706.96 4.81699 5.13951 0
M  V30 7731 H 703.059 0.130001 0.771119 0
M  V30 7732 H 705.643 0.909459 1.72154 0
M  V30 7733 H 703.814 -0.422453 3.86096 0
M  V30 7734 H 705.546 -0.250685 4.03923 0
M  V30 7735 H 702.301 1.73474 4.40685 0
M  V30 7736 H 702.725 4.19354 5.3148 0
M  V30 7737 H 707.367 1.66598 3.88594 0
M  V30 7738 H 705.085 5.73477 5.69341 0
M  V30 7739 H 708.671 3.67195 4.51286 0
M  V30 7740 H 707.551 5.67995 5.40695 0
M  V30 7741 N 705.054 -1.51416 0.437162 0
M  V30 7742 C 706.331 -1.94682 -0.189292 0
M  V30 7743 C 706.711 -1.37581 -1.60108 0
M  V30 7744 O 706.059 -0.562815 -2.2146 0
M  V30 7745 C 706.269 -3.48599 -0.167201 0
M  V30 7746 C 707.617 -4.2296 -0.372856 0
M  V30 7747 O 708.641 -3.55354 -0.245323 0
M  V30 7748 O 707.5 -5.42895 -0.626693 0
M  V30 7749 H 704.594 -0.816708 -0.130063 0
M  V30 7750 H 707.14 -1.62316 0.495128 0
M  V30 7751 H 705.912 -3.82616 0.81981 0
M  V30 7752 H 705.535 -3.87406 -0.894537 0
M  V30 7753 N 706.532 -0.168513 -1.56696 0
M  V30 7754 C 707.757 0.486688 -2.01609 0
M  V30 7755 C 708.182 1.56203 -1.04796 0
M  V30 7756 O 707.54 1.8128 -0.0270596 0
M  V30 7757 C 707.588 1.04451 -3.45141 0
M  V30 7758 O 706.692 2.15862 -3.51393 0
M  V30 7759 H 706.033 0.116831 -0.653641 0
M  V30 7760 H 708.563 -0.271579 -2.0279 0
M  V30 7761 H 708.573 1.36782 -3.84389 0
M  V30 7762 H 707.248 0.257155 -4.15104 0
M  V30 7763 H 705.825 1.84597 -3.24004 0
M  V30 7764 N 708.01 1.57248 0.105221 0
M  V30 7765 C 708.958 2.02337 1.14728 0
M  V30 7766 C 709.952 0.922652 1.42069 0
M  V30 7767 O 711.158 1.10785 1.41869 0
M  V30 7768 H 707.533 0.644682 0.387155 0
M  V30 7769 H 709.504 2.89063 0.740607 0
M  V30 7770 C 708.253 2.45513 2.46209 0
M  V30 7771 H 707.576 3.29785 2.26013 0
M  V30 7772 H 709.016 2.80846 3.1765 0
M  V30 7773 C 707.475 1.3243 3.09781 0
M  V30 7774 O 708.005 0.647841 3.96442 0
M  V30 7775 N 706.211 1.07785 2.69872 0
M  V30 7776 H 705.758 1.62973 1.99493 0
M  V30 7777 H 705.716 0.323204 3.12734 0
M  V30 7778 N 709.488 -0.375779 1.53054 0
M  V30 7779 C 710.737 -1.11674 1.67964 0
M  V30 7780 C 711.05 -1.90755 0.432655 0
M  V30 7781 O 712.256 -2.67538 0.462109 0
M  V30 7782 C 710.712 -2.0344 2.96884 0
M  V30 7783 C 710.32 -1.29719 4.28809 0
M  V30 7784 C 712.064 -2.7759 3.2116 0
M  V30 7785 C 709.971 -2.20327 5.48826 0
M  V30 7786 H 708.901 -0.420597 0.625791 0
M  V30 7787 H 711.552 -0.378499 1.79554 0
M  V30 7788 H 709.934 -2.80953 2.79072 0
M  V30 7789 H 711.108 -0.573394 4.57219 0
M  V30 7790 H 709.423 -0.674735 4.10897 0
M  V30 7791 H 712.02 -3.4559 4.0801 0
M  V30 7792 H 712.363 -3.42399 2.36789 0
M  V30 7793 H 712.896 -2.07164 3.396 0
M  V30 7794 H 709.635 -1.60113 6.35645 0
M  V30 7795 H 709.155 -2.90585 5.2471 0
M  V30 7796 H 710.834 -2.80116 5.83219 0
M  V30 7797 N 710.966 -1.44241 -0.634997 0
M  V30 7798 C 712.212 -1.47038 -1.39669 0
M  V30 7799 C 712.545 -0.101122 -1.93937 0
M  V30 7800 O 711.82 0.880699 -1.73418 0
M  V30 7801 C 712.103 -2.52763 -2.56482 0
M  V30 7802 C 711.956 -3.99032 -2.07589 0
M  V30 7803 C 713.275 -2.55031 -3.58674 0
M  V30 7804 H 710.394 -0.53537 -0.506506 0
M  V30 7805 H 713.036 -1.75898 -0.718317 0
M  V30 7806 H 711.186 -2.28284 -3.14354 0
M  V30 7807 H 712.858 -4.3463 -1.54577 0
M  V30 7808 H 711.101 -4.10994 -1.38804 0
M  V30 7809 H 711.772 -4.68649 -2.91671 0
M  V30 7810 H 714.248 -2.76893 -3.10595 0
M  V30 7811 H 713.124 -3.30916 -4.37934 0
M  V30 7812 H 713.385 -1.59085 -4.12486 0
M  V30 7813 N 712.444 0.87505 -1.31075 0
M  V30 7814 C 713.692 1.62447 -1.20231 0
M  V30 7815 C 714.013 1.93506 0.240888 0
M  V30 7816 O 713.283 1.57847 1.16022 0
M  V30 7817 H 711.863 0.602207 -0.441991 0
M  V30 7818 H 714.525 1.04788 -1.64334 0
M  V30 7819 H 713.621 2.57031 -1.77036 0
M  V30 7820 N 713.922 1.13953 1.08869 0
M  V30 7821 C 714.872 0.790812 2.13846 0
M  V30 7822 C 715.856 -0.217819 1.59419 0
M  V30 7823 O 717.048 -0.0208723 1.76988 0
M  V30 7824 C 714.177 0.26479 3.42277 0
M  V30 7825 C 713.263 1.30267 4.03598 0
M  V30 7826 N 713.654 2.50535 4.39393 0
M  V30 7827 C 711.952 1.15178 4.30871 0
M  V30 7828 C 712.653 3.16938 4.87776 0
M  V30 7829 N 711.629 2.44349 4.85587 0
M  V30 7830 H 715.431 1.70577 2.39334 0
M  V30 7831 H 712.945 1.02268 1.26154 0
M  V30 7832 H 714.942 -0.00330398 4.169 0
M  V30 7833 H 713.602 -0.644419 3.18241 0
M  V30 7834 H 714.613 2.87798 4.30572 0
M  V30 7835 H 711.29 0.301204 4.16412 0
M  V30 7836 H 712.68 4.19453 5.2489 0
M  V30 7837 N 715.4 -1.26948 0.933913 0
M  V30 7838 C 716.363 -2.24889 0.442457 0
M  V30 7839 C 717.363 -1.54594 -0.442426 0
M  V30 7840 O 718.553 -1.72502 -0.242629 0
M  V30 7841 C 715.685 -3.3896 -0.363173 0
M  V30 7842 H 716.878 -2.69879 1.30787 0
M  V30 7843 H 714.431 -1.38978 0.715187 0
M  V30 7844 H 715.166 -2.99361 -1.24714 0
M  V30 7845 H 714.951 -3.9116 0.271366 0
M  V30 7846 H 716.441 -4.11739 -0.697186 0
M  V30 7847 N 716.879 -0.700114 -1.41195 0
M  V30 7848 C 717.842 -0.0465706 -2.29153 0
M  V30 7849 C 718.842 0.703302 -1.44604 0
M  V30 7850 O 720.032 0.537513 -1.657 0
M  V30 7851 C 717.164 0.944324 -3.2756 0
M  V30 7852 H 718.357 -0.821064 -2.88442 0
M  V30 7853 H 715.91 -0.463869 -1.49258 0
M  V30 7854 H 716.645 1.74642 -2.73259 0
M  V30 7855 H 716.43 0.409701 -3.89954 0
M  V30 7856 H 717.92 1.39925 -3.9346 0
M  V30 7857 N 718.357 1.51182 -0.445186 0
M  V30 7858 C 719.287 2.30821 0.352686 0
M  V30 7859 C 720.268 1.36576 1.01395 0
M  V30 7860 O 721.453 1.65497 1.01609 0
M  V30 7861 C 718.583 3.15593 1.44976 0
M  V30 7862 C 717.537 4.1818 0.911553 0
M  V30 7863 C 716.863 4.91523 2.10497 0
M  V30 7864 C 718.163 5.22266 -0.059418 0
M  V30 7865 H 719.857 2.97771 -0.311936 0
M  V30 7866 H 717.403 1.43201 -0.151461 0
M  V30 7867 H 719.356 3.70091 2.01521 0
M  V30 7868 H 718.08 2.4648 2.14278 0
M  V30 7869 H 716.739 3.64746 0.368264 0
M  V30 7870 H 716.387 4.18906 2.78437 0
M  V30 7871 H 716.087 5.60898 1.7512 0
M  V30 7872 H 717.611 5.48847 2.6758 0
M  V30 7873 H 719.025 5.71789 0.415985 0
M  V30 7874 H 717.422 5.99213 -0.326152 0
M  V30 7875 H 718.492 4.7461 -0.993631 0
M  V30 7876 N 719.835 0.176821 1.56605 0
M  V30 7877 C 720.783 -0.768159 2.1955 0
M  V30 7878 C 721.777 -1.23343 1.16116 0
M  V30 7879 O 722.983 -1.19844 1.34303 0
M  V30 7880 H 719.358 -0.266013 0.703378 0
M  V30 7881 H 721.329 -0.213374 2.97636 0
M  V30 7882 C 720.078 -1.98492 2.85475 0
M  V30 7883 H 719.401 -1.63595 3.64797 0
M  V30 7884 H 720.841 -2.62489 3.3298 0
M  V30 7885 C 719.3 -2.81207 1.85538 0
M  V30 7886 O 719.83 -3.7854 1.34427 0
M  V30 7887 N 718.036 -2.46331 1.54173 0
M  V30 7888 H 717.583 -1.67241 1.95929 0
M  V30 7889 H 717.541 -3.01961 0.875595 0
M  V30 7890 N 721.313 -1.57302 -0.09688 0
M  V30 7891 C 722.56 -1.85997 -0.800699 0
M  V30 7892 C 722.888 -0.765089 -1.7882 0
M  V30 7893 O 722.143 0.241492 -1.94204 0
M  V30 7894 C 722.442 -3.21272 -1.56586 0
M  V30 7895 C 722.108 -4.45104 -0.72064 0
M  V30 7896 C 720.77 -4.78723 -0.487632 0
M  V30 7897 C 723.122 -5.2103 -0.132948 0
M  V30 7898 C 720.45 -5.85697 0.34296 0
M  V30 7899 C 722.802 -6.28881 0.684957 0
M  V30 7900 C 721.466 -6.61017 0.928073 0
M  V30 7901 H 720.736 -0.680613 -0.292997 0
M  V30 7902 H 723.383 -1.91399 -0.0622474 0
M  V30 7903 H 721.688 -3.11547 -2.37583 0
M  V30 7904 H 723.385 -3.40702 -2.11478 0
M  V30 7905 H 719.975 -4.18777 -0.912359 0
M  V30 7906 H 724.159 -4.95392 -0.300132 0
M  V30 7907 H 719.415 -6.09008 0.540317 0
M  V30 7908 H 723.589 -6.86886 1.14721 0
M  V30 7909 H 721.216 -7.43738 1.57348 0
M  V30 7910 N 722.791 0.367657 -1.53252 0
M  V30 7911 C 724.068 1.12606 -1.59935 0
M  V30 7912 C 724.448 2.07167 -0.405606 0
M  V30 7913 O 723.796 2.20364 0.604323 0
M  V30 7914 C 724.006 1.86699 -2.94863 0
M  V30 7915 C 725.354 2.41306 -3.49366 0
M  V30 7916 O 726.378 1.96828 -2.96879 0
M  V30 7917 O 725.237 3.2261 -4.41118 0
M  V30 7918 H 722.331 0.516438 -0.645926 0
M  V30 7919 H 724.877 0.371088 -1.65593 0
M  V30 7920 H 723.649 1.17674 -3.73187 0
M  V30 7921 H 723.272 2.6911 -2.92687 0
M  V30 7922 N 724.269 1.44576 0.627338 0
M  V30 7923 C 725.216 1.51734 1.73912 0
M  V30 7924 C 726.186 0.364745 1.62046 0
M  V30 7925 O 727.371 0.575503 1.81914 0
M  V30 7926 C 724.511 1.47116 3.12171 0
M  V30 7927 C 723.624 2.72778 3.34986 0
M  V30 7928 C 722.759 2.59968 4.63239 0
M  V30 7929 C 721.798 3.80776 4.79245 0
M  V30 7930 N 720.935 3.66618 5.98778 0
M  V30 7931 H 725.775 2.46722 1.6713 0
M  V30 7932 H 723.312 1.22444 0.815224 0
M  V30 7933 H 725.27 1.42429 3.92135 0
M  V30 7934 H 723.9 0.556928 3.17959 0
M  V30 7935 H 722.952 2.87637 2.48936 0
M  V30 7936 H 724.264 3.62441 3.42692 0
M  V30 7937 H 723.418 2.53135 5.51369 0
M  V30 7938 H 722.157 1.67872 4.57898 0
M  V30 7939 H 721.162 3.87989 3.89544 0
M  V30 7940 H 722.387 4.73913 4.86398 0
M  V30 7941 H 720.333 2.77277 5.9452 0
M  V30 7942 H 720.25 4.499 6.07557 0
M  V30 7943 H 721.518 3.63684 6.89459 0
M  V30 7944 N 725.747 -0.868086 1.31537 0
M  V30 7945 C 726.71 -1.95703 1.19302 0
M  V30 7946 C 727.71 -1.60355 0.119612 0
M  V30 7947 O 728.9 -1.70247 0.36902 0
M  V30 7948 C 726.032 -3.30599 0.831684 0
M  V30 7949 H 727.225 -2.07982 2.16064 0
M  V30 7950 H 724.778 -1.05661 1.15176 0
M  V30 7951 H 725.513 -3.2402 -0.134694 0
M  V30 7952 H 725.298 -3.57629 1.60761 0
M  V30 7953 H 726.788 -4.10439 0.770026 0
M  V30 7954 N 727.225 -1.14528 -1.08264 0
M  V30 7955 C 728.453 -0.937964 -1.84418 0
M  V30 7956 C 728.868 0.51357 -1.81681 0
M  V30 7957 O 728.225 1.35591 -1.22153 0
M  V30 7958 C 728.276 -1.43272 -3.31897 0
M  V30 7959 O 727.997 -2.82738 -3.34651 0
M  V30 7960 C 729.498 -1.26555 -4.24851 0
M  V30 7961 H 726.718 -0.333704 -0.582136 0
M  V30 7962 H 729.262 -1.52076 -1.36723 0
M  V30 7963 H 727.417 -0.892653 -3.76975 0
M  V30 7964 H 727.831 -3.04971 -4.26724 0
M  V30 7965 H 729.305 -1.66031 -5.26439 0
M  V30 7966 H 729.782 -0.208589 -4.38704 0
M  V30 7967 H 730.388 -1.79423 -3.856 0
M  V30 7968 N 728.703 1.26451 -0.940633 0
M  V30 7969 C 729.98 1.88947 -0.505811 0
M  V30 7970 C 730.36 1.85011 1.01657 0
M  V30 7971 O 729.708 1.30406 1.87634 0
M  V30 7972 C 729.918 3.32304 -1.06654 0
M  V30 7973 C 731.266 4.09153 -1.13486 0
M  V30 7974 O 732.29 3.41371 -1.01708 0
M  V30 7975 O 731.149 5.30369 -1.31797 0
M  V30 7976 H 728.243 0.810422 -0.164759 0
M  V30 7977 H 730.789 1.34625 -1.03316 0
M  V30 7978 H 729.561 3.29527 -2.11015 0
M  V30 7979 H 729.184 3.94164 -0.521603 0
M  V30 7980 N 730.181 0.707592 1.40822 0
M  V30 7981 C 731.43 0.240705 2.00259 0
M  V30 7982 C 731.743 -1.17027 1.56729 0
M  V30 7983 O 732.949 -1.73526 2.08809 0
M  V30 7984 C 731.405 0.379432 3.57894 0
M  V30 7985 C 731.013 1.79654 4.104 0
M  V30 7986 C 732.757 -0.0270684 4.24491 0
M  V30 7987 C 730.664 1.88628 5.60512 0
M  V30 7988 H 729.594 0.0862369 0.749052 0
M  V30 7989 H 732.245 0.877528 1.61157 0
M  V30 7990 H 730.627 -0.325842 3.94657 0
M  V30 7991 H 731.801 2.53155 3.85032 0
M  V30 7992 H 730.116 2.15379 3.56372 0
M  V30 7993 H 732.713 0.0193743 5.34696 0
M  V30 7994 H 733.056 -1.06772 4.02375 0
M  V30 7995 H 733.589 0.628361 3.92806 0
M  V30 7996 H 730.328 2.90787 5.87472 0
M  V30 7997 H 729.848 1.19528 5.8777 0
M  V30 7998 H 731.527 1.6547 6.25483 0
M  V30 7999 N 731.66 -1.50943 0.453197 0
M  V30 8000 C 732.906 -2.02512 -0.108082 0
M  V30 8001 C 733.239 -1.33574 -1.40967 0
M  V30 8002 O 732.514 -0.455671 -1.89087 0
M  V30 8003 C 732.797 -3.58759 -0.310453 0
M  V30 8004 C 732.65 -4.38293 1.0109 0
M  V30 8005 C 733.969 -4.26816 -1.07313 0
M  V30 8006 H 731.088 -0.73603 -0.0378064 0
M  V30 8007 H 733.73 -1.80433 0.595295 0
M  V30 8008 H 731.88 -3.77702 -0.909582 0
M  V30 8009 H 733.552 -4.30964 1.64523 0
M  V30 8010 H 731.795 -4.02745 1.61179 0
M  V30 8011 H 732.466 -5.45828 0.82315 0
M  V30 8012 H 734.942 -4.1224 -0.565473 0
M  V30 8013 H 733.818 -5.35989 -1.1835 0
M  V30 8014 H 734.079 -3.88757 -2.10525 0
M  V30 8015 N 733.138 -0.185124 -1.56509 0
M  V30 8016 C 734.366 0.462139 -2.01673 0
M  V30 8017 C 734.781 1.55873 -1.06532 0
M  V30 8018 O 734.138 1.82371 -0.0684805 0
M  V30 8019 C 734.189 1.0277 -3.46584 0
M  V30 8020 O 733.91 -0.0251296 -4.38093 0
M  V30 8021 C 735.411 1.75183 -4.07217 0
M  V30 8022 H 732.631 0.117001 -0.660721 0
M  V30 8023 H 735.175 -0.290905 -2.0242 0
M  V30 8024 H 733.33 1.73118 -3.46568 0
M  V30 8025 H 733.744 0.394387 -5.23015 0
M  V30 8026 H 735.218 2.09999 -5.10494 0
M  V30 8027 H 735.695 2.6519 -3.50101 0
M  V30 8028 H 736.301 1.09445 -4.10977 0
M  V30 8029 N 734.616 1.57351 0.0885366 0
M  V30 8030 C 735.864 1.86051 0.789262 0
M  V30 8031 C 736.185 0.774763 1.78948 0
M  V30 8032 O 735.455 -0.198324 1.94894 0
M  V30 8033 H 734.035 0.686508 0.294475 0
M  V30 8034 H 736.697 1.94779 0.0686055 0
M  V30 8035 H 735.793 2.83007 1.31581 0
M  V30 8036 N 736.094 -0.359525 1.53444 0
M  V30 8037 C 737.024 -1.44662 1.8329 0
M  V30 8038 C 738.005 -1.55617 0.68683 0
M  V30 8039 O 739.19 -1.70086 0.93725 0
M  V30 8040 C 736.32 -2.81923 2.02822 0
M  V30 8041 C 735.274 -2.85787 3.18606 0
M  V30 8042 C 734.6 -4.25781 3.23442 0
M  V30 8043 C 735.9 -2.52762 4.57065 0
M  V30 8044 H 737.594 -1.19934 2.74329 0
M  V30 8045 H 735.14 -0.575517 1.31999 0
M  V30 8046 H 737.093 -3.58005 2.22285 0
M  V30 8047 H 735.817 -3.08051 1.085 0
M  V30 8048 H 734.476 -2.12157 2.98973 0
M  V30 8049 H 734.124 -4.48994 2.26745 0
M  V30 8050 H 733.824 -4.29281 4.01238 0
M  V30 8051 H 735.348 -5.03727 3.45096 0
M  V30 8052 H 736.762 -3.18557 4.76649 0
M  V30 8053 H 735.159 -2.67569 5.37147 0
M  V30 8054 H 736.229 -1.47993 4.61764 0
M  V30 8055 N 737.572 -1.44907 -0.619662 0
M  V30 8056 C 738.519 -1.52654 -1.73105 0
M  V30 8057 C 739.489 -0.373334 -1.6185 0
M  V30 8058 O 740.674 -0.585143 -1.81606 0
M  V30 8059 C 737.814 -1.48769 -3.11387 0
M  V30 8060 C 736.927 -2.74551 -3.33535 0
M  V30 8061 C 736.062 -2.62421 -4.61854 0
M  V30 8062 C 735.101 -3.83312 -4.77219 0
M  V30 8063 N 734.238 -3.69789 -5.96826 0
M  V30 8064 H 739.078 -2.47605 -1.65819 0
M  V30 8065 H 736.615 -1.22875 -0.808719 0
M  V30 8066 H 738.573 -1.44507 -3.91374 0
M  V30 8067 H 737.203 -0.573783 -3.1766 0
M  V30 8068 H 736.255 -2.88953 -2.47408 0
M  V30 8069 H 737.567 -3.64253 -3.40765 0
M  V30 8070 H 736.721 -2.56056 -5.50019 0
M  V30 8071 H 735.46 -1.70298 -4.57001 0
M  V30 8072 H 734.465 -3.90049 -3.87481 0
M  V30 8073 H 735.69 -4.76486 -4.83878 0
M  V30 8074 H 733.636 -2.80426 -5.93041 0
M  V30 8075 H 733.553 -4.53116 -6.05163 0
M  V30 8076 H 734.821 -3.67335 -6.87521 0
M  V30 8077 N 739.05 0.861098 -1.31996 0
M  V30 8078 C 739.982 1.97551 -1.16216 0
M  V30 8079 C 740.995 1.625 -0.0988527 0
M  V30 8080 O 742.184 1.75091 -0.3472 0
M  V30 8081 C 739.284 3.30376 -0.755307 0
M  V30 8082 C 738.457 3.93711 -1.90552 0
M  V30 8083 C 737.516 5.04862 -1.48328 0
M  V30 8084 O 736.542 5.25204 -2.19431 0
M  V30 8085 N 737.744 5.79283 -0.375656 0
M  V30 8086 H 740.509 2.11632 -2.12208 0
M  V30 8087 H 738.07 1.03559 -1.24448 0
M  V30 8088 H 740.062 4.0213 -0.455364 0
M  V30 8089 H 738.632 3.12395 0.113269 0
M  V30 8090 H 737.852 3.14825 -2.37231 0
M  V30 8091 H 739.14 4.32762 -2.67571 0
M  V30 8092 H 738.538 5.65286 0.216284 0
M  V30 8093 H 737.095 6.5166 -0.135289 0
M  V30 8094 N 740.528 1.15101 1.07655 0
M  V30 8095 C 741.475 0.844958 2.14777 0
M  V30 8096 C 742.445 -0.200798 1.64882 0
M  V30 8097 O 743.63 -0.0690278 1.90675 0
M  V30 8098 C 740.77 0.337018 3.4345 0
M  V30 8099 C 739.883 1.44398 4.07153 0
M  V30 8100 C 739.018 0.892487 5.23649 0
M  V30 8101 C 738.057 1.9766 5.79307 0
M  V30 8102 N 737.194 1.44171 6.87138 0
M  V30 8103 H 742.034 1.76242 2.40297 0
M  V30 8104 H 739.571 0.879435 1.17917 0
M  V30 8105 H 741.529 0.024256 4.17193 0
M  V30 8106 H 740.159 -0.543531 3.18191 0
M  V30 8107 H 739.211 1.87299 3.31094 0
M  V30 8108 H 740.523 2.26262 4.4453 0
M  V30 8109 H 739.677 0.532083 6.04362 0
M  V30 8110 H 738.416 0.0429854 4.87681 0
M  V30 8111 H 737.421 2.34586 4.97242 0
M  V30 8112 H 738.646 2.82982 6.17331 0
M  V30 8113 H 736.592 0.614518 6.53115 0
M  V30 8114 H 736.509 2.19665 7.23383 0
M  V30 8115 H 737.777 1.10945 7.71564 0
M  V30 8116 N 742.006 -1.2595 0.947325 0
M  V30 8117 C 743.234 -1.97544 0.615127 0
M  V30 8118 C 743.649 -1.70484 -0.811221 0
M  V30 8119 O 743.006 -0.97662 -1.5417 0
M  V30 8120 C 743.057 -3.51236 0.855328 0
M  V30 8121 O 742.778 -3.77359 2.22558 0
M  V30 8122 C 744.279 -4.40066 0.534515 0
M  V30 8123 H 741.499 -0.629888 0.231263 0
M  V30 8124 H 744.043 -1.60308 1.26971 0
M  V30 8125 H 742.198 -3.8661 0.247266 0
M  V30 8126 H 742.612 -4.71857 2.29022 0
M  V30 8127 H 744.086 -5.46838 0.753168 0
M  V30 8128 H 744.563 -4.35982 -0.530701 0
M  V30 8129 H 745.169 -4.10245 1.12158 0
M  V30 8130 N 743.484 -0.715051 -1.40445 0
M  V30 8131 C 744.709 -0.26254 -2.05732 0
M  V30 8132 C 745.134 1.08691 -1.53519 0
M  V30 8133 O 744.492 1.68453 -0.670328 0
M  V30 8134 C 744.54 -0.25195 -3.59719 0
M  V30 8135 O 743.644 0.766998 -4.05205 0
M  V30 8136 H 742.985 -0.123398 -0.652433 0
M  V30 8137 H 745.515 -0.975382 -1.79854 0
M  V30 8138 H 745.525 -0.0894537 -4.07902 0
M  V30 8139 H 744.2 -1.23672 -3.97087 0
M  V30 8140 H 742.777 0.572269 -3.68483 0
M  V30 8141 N 744.962 1.50701 -0.461195 0
M  V30 8142 C 746.209 2.02267 0.0971971 0
M  V30 8143 C 746.537 1.34387 1.40608 0
M  V30 8144 O 745.792 0.455254 1.90331 0
M  V30 8145 C 746.091 3.55788 0.33908 0
M  V30 8146 C 745.757 4.42092 -0.886885 0
M  V30 8147 C 744.419 4.65398 -1.22304 0
M  V30 8148 C 746.771 4.92571 -1.70361 0
M  V30 8149 C 744.099 5.36429 -2.37616 0
M  V30 8150 C 746.451 5.64868 -2.84793 0
M  V30 8151 C 745.115 5.86431 -3.18834 0
M  V30 8152 H 744.385 0.740146 0.0355669 0
M  V30 8153 H 747.032 1.81415 -0.61326 0
M  V30 8154 H 745.337 3.751 1.13168 0
M  V30 8155 H 747.034 3.93243 0.784937 0
M  V30 8156 H 743.624 4.24165 -0.614981 0
M  V30 8157 H 747.808 4.74428 -1.4571 0
M  V30 8158 H 743.064 5.51333 -2.64276 0
M  V30 8159 H 747.238 6.02966 -3.48432 0
M  V30 8160 H 744.865 6.41248 -4.08296 0
M  V30 8161 N 746.441 0.193421 1.56409 0
M  V30 8162 C 747.689 -0.444908 1.97142 0
M  V30 8163 C 748.01 -1.62268 1.08139 0
M  V30 8164 O 747.28 -1.95307 0.152326 0
M  V30 8165 H 745.86 -0.16736 0.728011 0
M  V30 8166 H 748.522 0.279763 1.92882 0
M  V30 8167 H 747.618 -0.790159 3.01932 0
M  V30 8168 N 747.919 -1.57396 -0.0801906 0
M  V30 8169 C 749.335 -1.53564 -0.434778 0
M  V30 8170 C 749.535 -0.912372 -1.79661 0
M  V30 8171 O 748.591 -0.511268 -2.4727 0
M  V30 8172 C 749.904 -2.98244 -0.383561 0
M  V30 8173 C 751.452 -3.09536 -0.46435 0
M  V30 8174 C 751.927 -4.55851 -0.443128 0
M  V30 8175 N 753.418 -4.60456 -0.503448 0
M  V30 8176 C 754.153 -5.71135 -0.509106 0
M  V30 8177 N 753.649 -6.91203 -0.47008 0
M  V30 8178 N 755.442 -5.59353 -0.555035 0
M  V30 8179 H 747.593 -1.96281 0.811635 0
M  V30 8180 H 749.856 -0.898041 0.303689 0
M  V30 8181 H 749.562 -3.47369 0.550236 0
M  V30 8182 H 749.436 -3.57705 -1.19694 0
M  V30 8183 H 751.823 -2.6039 -1.38857 0
M  V30 8184 H 751.904 -2.53 0.377445 0
M  V30 8185 H 751.548 -5.05653 0.477207 0
M  V30 8186 H 751.478 -5.10242 -1.30234 0
M  V30 8187 H 753.969 -3.74048 -0.538199 0
M  V30 8188 H 754.282 -7.7132 -0.478091 0
M  V30 8189 H 752.627 -6.93625 -0.436897 0
M  V30 8190 H 755.818 -4.64453 -0.583158 0
M  V30 8191 H 755.991 -6.4561 -0.555976 0
M  V30 8192 N 749.397 0.351382 -1.53633 0
M  V30 8193 C 750.808 0.927429 -1.62036 0
M  V30 8194 C 751.159 1.89809 -0.496706 0
M  V30 8195 O 750.284 2.1313 0.374749 0
M  V30 8196 C 750.879 1.68886 -2.93706 0
M  V30 8197 C 749.438 2.21404 -3.04397 0
M  V30 8198 C 748.585 1.03075 -2.57431 0
M  V30 8199 H 751.536 0.129748 -1.58169 0
M  V30 8200 H 751.557 2.55116 -2.82305 0
M  V30 8201 H 751.069 0.982149 -3.75467 0
M  V30 8202 H 749.17 2.95274 -2.27253 0
M  V30 8203 H 749.283 2.48312 -4.09729 0
M  V30 8204 H 747.647 1.40188 -2.12649 0
M  V30 8205 H 748.43 0.338793 -3.41624 0
M  V30 8206 N 750.875 1.45233 0.611969 0
M  V30 8207 C 751.808 1.48056 1.73651 0
M  V30 8208 C 752.786 0.337373 1.59061 0
M  V30 8209 O 753.97 0.537222 1.80683 0
M  V30 8210 C 751.097 1.33144 3.11433 0
M  V30 8211 C 750.143 2.51272 3.44623 0
M  V30 8212 S 750.976 4.13754 3.39953 0
M  V30 8213 C 752.132 4.013 4.80322 0
M  V30 8214 H 752.365 2.43205 1.70993 0
M  V30 8215 H 749.898 1.32763 0.788246 0
M  V30 8216 H 751.856 1.25228 3.90932 0
M  V30 8217 H 750.517 0.394734 3.1161 0
M  V30 8218 H 749.71 2.36753 4.44932 0
M  V30 8219 H 749.312 2.56027 2.72629 0
M  V30 8220 H 751.604 3.66174 5.7002 0
M  V30 8221 H 752.547 5.01506 4.99897 0
M  V30 8222 H 752.955 3.3303 4.55797 0
M  V30 8223 N 752.353 -0.854086 1.3245 0
M  V30 8224 C 753.599 -1.6105 1.24235 0
M  V30 8225 C 753.954 -1.91421 -0.193877 0
M  V30 8226 O 753.247 -1.54599 -1.1318 0
M  V30 8227 C 753.441 -2.93746 2.03587 0
M  V30 8228 C 753.27 -2.76335 3.54781 0
M  V30 8229 C 752.04 -2.74687 4.24117 0
M  V30 8230 C 754.238 -2.50052 4.4942 0
M  V30 8231 N 752.22 -2.48493 5.6136 0
M  V30 8232 C 753.591 -2.33269 5.74444 0
M  V30 8233 C 755.646 -2.35525 4.38671 0
M  V30 8234 C 754.349 -2.03434 6.89933 0
M  V30 8235 C 756.375 -2.07081 5.5396 0
M  V30 8236 C 755.737 -1.91098 6.77983 0
M  V30 8237 H 751.836 -0.593008 0.50977 0
M  V30 8238 H 754.42 -1.00392 1.66822 0
M  V30 8239 H 752.591 -3.52382 1.63345 0
M  V30 8240 H 754.323 -3.58768 1.87263 0
M  V30 8241 H 751.078 -2.87647 3.7624 0
M  V30 8242 H 751.502 -2.38322 6.33665 0
M  V30 8243 H 756.144 -2.46602 3.43435 0
M  V30 8244 H 753.862 -1.91095 7.85181 0
M  V30 8245 H 757.448 -1.96618 5.4757 0
M  V30 8246 H 756.328 -1.69402 7.65684 0
M  V30 8247 N 753.831 -1.1567 -1.07043 0
M  V30 8248 C 755.108 -0.843948 -1.76456 0
M  V30 8249 C 755.488 0.659806 -2.00524 0
M  V30 8250 O 754.836 1.60518 -1.62623 0
M  V30 8251 C 755.046 -1.65822 -3.0709 0
M  V30 8252 C 756.394 -1.8664 -3.8138 0
M  V30 8253 O 757.418 -1.62624 -3.1691 0
M  V30 8254 O 756.277 -2.26884 -4.97178 0
M  V30 8255 H 753.371 -0.310677 -0.766426 0
M  V30 8256 H 755.917 -1.26266 -1.1338 0
M  V30 8257 H 754.689 -2.67902 -2.85209 0
M  V30 8258 H 754.312 -1.23605 -3.77899 0
M  V30 8259 N 755.309 1.25446 -0.953992 0
M  V30 8260 C 756.257 2.27909 -0.46478 0
M  V30 8261 C 757.251 1.62904 0.464607 0
M  V30 8262 O 758.457 1.76733 0.341407 0
M  V30 8263 H 754.832 0.74036 -0.131798 0
M  V30 8264 H 756.803 2.66559 -1.34122 0
M  V30 8265 C 755.552 3.46853 0.242589 0
M  V30 8266 H 754.875 3.97105 -0.463418 0
M  V30 8267 H 756.315 4.20432 0.548919 0
M  V30 8268 C 754.774 3.03386 1.46487 0
M  V30 8269 O 755.304 3.09342 2.56262 0
M  V30 8270 N 753.51 2.58584 1.32599 0
M  V30 8271 H 753.057 2.53938 0.432834 0
M  V30 8272 H 753.015 2.29866 2.14497 0
M  V30 8273 N 756.787 0.722489 1.40064 0
M  V30 8274 C 757.697 0.0755984 2.34478 0
M  V30 8275 C 758.713 -0.736046 1.57665 0
M  V30 8276 O 759.889 -0.667407 1.9002 0
M  V30 8277 C 756.954 -0.830075 3.36616 0
M  V30 8278 C 756.015 -0.00759884 4.29299 0
M  V30 8279 C 755.248 -0.870139 5.26559 0
M  V30 8280 O 755.471 -2.10921 5.2997 0
M  V30 8281 O 754.405 -0.305454 6.01124 0
M  V30 8282 H 758.231 0.854545 2.9143 0
M  V30 8283 H 755.816 0.483032 1.41376 0
M  V30 8284 H 757.698 -1.34864 3.99236 0
M  V30 8285 H 756.373 -1.58805 2.82069 0
M  V30 8286 H 755.28 0.556199 3.69942 0
M  V30 8287 H 756.613 0.712312 4.87018 0
M  V30 8288 N 758.265 -1.50454 0.469181 0
M  V30 8289 C 759.512 -2.02315 -0.086469 0
M  V30 8290 C 759.84 -1.3513 -1.39893 0
M  V30 8291 O 759.095 -0.465341 -1.90087 0
M  V30 8292 C 759.394 -3.55963 -0.320207 0
M  V30 8293 C 759.06 -4.41615 0.910318 0
M  V30 8294 C 757.722 -4.64743 1.2477 0
M  V30 8295 C 760.074 -4.91661 1.72971 0
M  V30 8296 C 757.402 -5.35161 2.40457 0
M  V30 8297 C 759.754 -5.6335 2.87785 0
M  V30 8298 C 758.418 -5.84732 3.2194 0
M  V30 8299 H 757.688 -0.740324 -0.0316412 0
M  V30 8300 H 760.335 -1.81087 0.622872 0
M  V30 8301 H 758.64 -3.75695 -1.11177 0
M  V30 8302 H 760.337 -3.93653 -0.764071 0
M  V30 8303 H 756.927 -4.23833 0.637467 0
M  V30 8304 H 761.111 -4.73649 1.48224 0
M  V30 8305 H 756.367 -5.49924 2.67196 0
M  V30 8306 H 760.541 -6.0111 3.51624 0
M  V30 8307 H 758.168 -6.39074 4.1169 0
M  V30 8308 N 759.743 -0.201713 -1.56304 0
M  V30 8309 C 760.968 0.443815 -2.02596 0
M  V30 8310 C 761.393 1.53945 -1.08086 0
M  V30 8311 O 760.751 1.81182 -0.0655056 0
M  V30 8312 C 760.799 0.971066 -3.47279 0
M  V30 8313 O 759.903 2.0836 -3.55893 0
M  V30 8314 H 759.244 0.10294 -0.655972 0
M  V30 8315 H 761.774 -0.314533 -2.02168 0
M  V30 8316 H 761.784 1.28598 -3.87204 0
M  V30 8317 H 760.459 0.169048 -4.15556 0
M  V30 8318 H 759.036 1.77683 -3.27846 0
M  V30 8319 N 761.222 1.57436 0.0718424 0
M  V30 8320 C 762.45 1.91474 0.783932 0
M  V30 8321 C 762.865 0.797669 1.71122 0
M  V30 8322 O 762.222 -0.228989 1.81058 0
M  V30 8323 C 762.273 3.25259 1.57761 0
M  V30 8324 O 761.994 4.3267 0.687596 0
M  V30 8325 C 763.495 3.7331 2.3907 0
M  V30 8326 H 760.715 0.632901 0.222885 0
M  V30 8327 H 763.259 2.04457 0.0421262 0
M  V30 8328 H 761.414 3.13804 2.27169 0
M  V30 8329 H 761.828 5.09641 1.23962 0
M  V30 8330 H 763.302 4.69551 2.90216 0
M  V30 8331 H 763.779 3.02318 3.18591 0
M  V30 8332 H 764.385 3.8771 1.74818 0
M  V30 8333 N 762.7 -0.34323 1.53817 0
M  V30 8334 C 763.949 -1.08086 1.70295 0
M  V30 8335 C 764.262 -1.89794 0.47302 0
M  V30 8336 O 765.468 -2.66498 0.518754 0
M  V30 8337 C 763.924 -1.97097 3.01133 0
M  V30 8338 C 763.532 -1.20594 4.31464 0
M  V30 8339 C 765.276 -2.70715 3.26976 0
M  V30 8340 C 763.183 -2.08636 5.53376 0
M  V30 8341 H 762.113 -0.407228 0.634572 0
M  V30 8342 H 764.764 -0.340328 1.80316 0
M  V30 8343 H 763.146 -2.74971 2.84969 0
M  V30 8344 H 764.32 -0.476282 4.58332 0
M  V30 8345 H 762.635 -0.587426 4.12236 0
M  V30 8346 H 765.232 -3.36857 4.15248 0
M  V30 8347 H 765.575 -3.37299 2.43998 0
M  V30 8348 H 766.108 -1.99914 3.43917 0
M  V30 8349 H 762.847 -1.46594 6.38898 0
M  V30 8350 H 762.367 -2.7939 5.30755 0
M  V30 8351 H 764.046 -2.67682 5.89029 0
M  V30 8352 N 764.178 -1.45556 -0.604258 0
M  V30 8353 C 765.141 -1.54091 -1.69672 0
M  V30 8354 C 766.141 -0.420076 -1.55216 0
M  V30 8355 O 767.331 -0.683671 -1.60224 0
M  V30 8356 C 764.463 -1.44063 -3.08964 0
M  V30 8357 H 765.656 -2.51431 -1.6347 0
M  V30 8358 H 763.209 -1.33046 -0.820273 0
M  V30 8359 H 763.944 -0.479201 -3.2074 0
M  V30 8360 H 763.729 -2.25362 -3.20865 0
M  V30 8361 H 765.219 -1.53075 -3.88533 0
M  V30 8362 N 765.656 0.84705 -1.32902 0
M  V30 8363 C 766.884 1.63403 -1.26913 0
M  V30 8364 C 767.299 1.88108 0.161483 0
M  V30 8365 O 766.656 1.45546 1.10103 0
M  V30 8366 C 766.707 2.98896 -2.03331 0
M  V30 8367 O 766.428 2.75281 -3.40811 0
M  V30 8368 C 767.929 3.93335 -2.04457 0
M  V30 8369 H 765.149 0.508701 -0.437566 0
M  V30 8370 H 767.693 1.05567 -1.75145 0
M  V30 8371 H 765.848 3.53356 -1.58802 0
M  V30 8372 H 766.262 3.61504 -3.8002 0
M  V30 8373 H 767.736 4.85647 -2.62394 0
M  V30 8374 H 768.213 4.26885 -1.03274 0
M  V30 8375 H 768.819 3.44812 -2.48967 0
M  V30 8376 N 767.134 1.16236 1.06428 0
M  V30 8377 C 768.359 0.967688 1.83441 0
M  V30 8378 C 768.784 -0.479167 1.81894 0
M  V30 8379 O 768.142 -1.34224 1.21875 0
M  V30 8380 C 768.19 1.49806 3.2801 0
M  V30 8381 O 767.294 0.703481 4.06356 0
M  V30 8382 H 766.635 0.344468 0.56766 0
M  V30 8383 H 769.165 1.54442 1.34197 0
M  V30 8384 H 769.175 1.51495 3.78831 0
M  V30 8385 H 767.85 2.55133 3.2845 0
M  V30 8386 H 766.427 0.756986 3.65136 0
M  V30 8387 N 768.612 -1.24939 0.960631 0
M  V30 8388 C 769.562 -2.23388 0.456266 0
M  V30 8389 C 770.546 -1.54249 -0.45782 0
M  V30 8390 O 771.738 -1.7461 -0.289894 0
M  V30 8391 C 768.867 -3.42321 -0.259024 0
M  V30 8392 C 767.953 -4.18718 0.673478 0
M  V30 8393 N 768.344 -4.72394 1.8077 0
M  V30 8394 C 766.642 -4.43378 0.482859 0
M  V30 8395 C 767.343 -5.30316 2.3904 0
M  V30 8396 N 766.319 -5.17109 1.67629 0
M  V30 8397 H 770.121 -2.62499 1.32179 0
M  V30 8398 H 767.635 -1.40245 0.818851 0
M  V30 8399 H 769.632 -4.11997 -0.637527 0
M  V30 8400 H 768.292 -3.04732 -1.12108 0
M  V30 8401 H 769.303 -4.69345 2.18942 0
M  V30 8402 H 765.98 -4.16147 -0.335821 0
M  V30 8403 H 767.37 -5.82594 3.34715 0
M  V30 8404 N 770.09 -0.729906 -1.39679 0
M  V30 8405 C 771.501 -0.346241 -1.83461 0
M  V30 8406 C 771.852 1.1215 -1.60987 0
M  V30 8407 O 770.977 1.86456 -1.09832 0
M  V30 8408 C 771.572 -0.621656 -3.33048 0
M  V30 8409 C 770.131 -0.291543 -3.75269 0
M  V30 8410 C 769.278 -0.886844 -2.62736 0
M  V30 8411 H 772.229 -0.927949 -1.28743 0
M  V30 8412 H 772.25 0.108301 -3.80346 0
M  V30 8413 H 771.762 -1.68996 -3.49373 0
M  V30 8414 H 769.863 0.771133 -3.64533 0
M  V30 8415 H 769.976 -0.770544 -4.72863 0
M  V30 8416 H 768.34 -0.313839 -2.52759 0
M  V30 8417 H 769.123 -1.95971 -2.81869 0
M  V30 8418 N 771.568 1.50203 -0.477153 0
M  V30 8419 C 772.515 2.28656 0.31386 0
M  V30 8420 C 773.485 1.33977 0.981802 0
M  V30 8421 O 774.67 1.62919 0.993072 0
M  V30 8422 C 771.81 3.16027 1.38639 0
M  V30 8423 C 770.923 4.25743 0.732615 0
M  V30 8424 C 770.058 5.00363 1.78355 0
M  V30 8425 C 769.097 6.01945 1.11035 0
M  V30 8426 N 768.234 6.6982 2.10441 0
M  V30 8427 H 773.074 2.958 -0.361445 0
M  V30 8428 H 770.611 1.45867 -0.190093 0
M  V30 8429 H 772.569 3.6504 2.01994 0
M  V30 8430 H 771.199 2.50917 2.03077 0
M  V30 8431 H 770.251 3.80398 -0.0136546 0
M  V30 8432 H 771.563 4.98393 0.201513 0
M  V30 8433 H 770.717 5.53124 2.49276 0
M  V30 8434 H 769.456 4.27432 2.34847 0
M  V30 8435 H 768.461 5.48438 0.386797 0
M  V30 8436 H 769.686 6.76851 0.552248 0
M  V30 8437 H 767.632 5.99677 2.65939 0
M  V30 8438 H 767.549 7.38366 1.62332 0
M  V30 8439 H 768.817 7.27196 2.80724 0
M  V30 8440 N 773.046 0.209999 1.56195 0
M  V30 8441 C 774.271 -0.433064 2.02828 0
M  V30 8442 C 774.696 -1.5337 1.08901 0
M  V30 8443 O 774.054 -1.81144 0.0751132 0
M  V30 8444 C 774.102 -0.952635 3.47789 0
M  V30 8445 O 773.206 -2.0647 3.56993 0
M  V30 8446 H 772.547 -0.0994594 0.656509 0
M  V30 8447 H 775.077 0.32525 2.01998 0
M  V30 8448 H 775.087 -1.26542 3.8788 0
M  V30 8449 H 773.762 -0.147007 4.1564 0
M  V30 8450 H 772.339 -1.75942 3.28784 0
M  V30 8451 N 774.524 -1.57472 -0.0634922 0
M  V30 8452 C 775.77 -1.87932 -0.762194 0
M  V30 8453 C 776.103 -0.803377 -1.76804 0
M  V30 8454 O 775.378 0.185468 -1.93614 0
M  V30 8455 C 775.661 -3.29053 -1.46275 0
M  V30 8456 C 775.514 -4.47309 -0.472755 0
M  V30 8457 C 776.833 -3.68537 -2.40558 0
M  V30 8458 H 773.952 -0.683521 -0.275624 0
M  V30 8459 H 776.594 -1.89983 -0.0252651 0
M  V30 8460 H 774.744 -3.27435 -2.0909 0
M  V30 8461 H 776.416 -4.61053 0.150828 0
M  V30 8462 H 774.659 -4.33286 0.211187 0
M  V30 8463 H 775.33 -5.42853 -1.00072 0
M  V30 8464 H 777.806 -3.71302 -1.87814 0
M  V30 8465 H 776.682 -4.68152 -2.86574 0
M  V30 8466 H 776.943 -2.98917 -3.25731 0
M  V30 8467 N 776.003 0.335068 -1.53997 0
M  V30 8468 C 777.249 1.07594 -1.71905 0
M  V30 8469 C 777.582 1.88039 -0.485264 0
M  V30 8470 O 776.857 1.87482 0.517752 0
M  V30 8471 C 777.14 2.01016 -2.98772 0
M  V30 8472 C 776.993 1.23977 -4.32377 0
M  V30 8473 C 778.312 3.0071 -3.21343 0
M  V30 8474 H 775.431 0.38976 -0.625505 0
M  V30 8475 H 778.073 0.353684 -1.86679 0
M  V30 8476 H 776.223 2.62603 -2.86307 0
M  V30 8477 H 777.895 0.649383 -4.56706 0
M  V30 8478 H 776.138 0.541878 -4.30402 0
M  V30 8479 H 776.809 1.92512 -5.17342 0
M  V30 8480 H 779.285 2.4924 -3.33194 0
M  V30 8481 H 778.161 3.63272 -4.11491 0
M  V30 8482 H 778.422 3.72549 -2.38033 0
M  V30 8483 N 777.481 1.45874 0.596531 0
M  V30 8484 C 778.729 1.5017 1.35253 0
M  V30 8485 C 779.05 0.149246 1.94428 0
M  V30 8486 O 778.32 -0.82268 1.77789 0
M  V30 8487 H 776.9 0.553052 0.502138 0
M  V30 8488 H 779.562 1.81908 0.699671 0
M  V30 8489 H 778.658 2.24671 2.16632 0
M  V30 8490 N 778.959 -0.83999 1.33349 0
M  V30 8491 C 780.205 -1.59753 1.24927 0
M  V30 8492 C 780.538 -1.93318 -0.184855 0
M  V30 8493 O 779.813 -1.586 -1.12589 0
M  V30 8494 C 780.096 -2.90829 2.12345 0
M  V30 8495 C 779.949 -2.63953 3.6421 0
M  V30 8496 C 781.268 -3.92246 1.99577 0
M  V30 8497 H 778.387 -0.579654 0.45516 0
M  V30 8498 H 781.029 -0.968909 1.63439 0
M  V30 8499 H 779.179 -3.44478 1.79631 0
M  V30 8500 H 780.851 -2.16745 4.07209 0
M  V30 8501 H 779.094 -1.97671 3.86146 0
M  V30 8502 H 779.765 -3.57348 4.20721 0
M  V30 8503 H 782.241 -3.479 2.28265 0
M  V30 8504 H 781.117 -4.81793 2.62996 0
M  V30 8505 H 781.378 -4.3138 0.967673 0
M  V30 8506 N 780.437 -1.16799 -1.0581 0
M  V30 8507 C 781.684 -0.952524 -1.78699 0
M  V30 8508 C 782.012 0.51931 -1.87439 0
M  V30 8509 O 781.267 1.40151 -1.36587 0
M  V30 8510 C 781.566 -1.53111 -3.22942 0
M  V30 8511 C 781.232 -3.0261 -3.34273 0
M  V30 8512 C 779.894 -3.43418 -3.37072 0
M  V30 8513 C 782.246 -3.98611 -3.35795 0
M  V30 8514 C 779.574 -4.78838 -3.39015 0
M  V30 8515 C 781.926 -5.33923 -3.39277 0
M  V30 8516 C 780.59 -5.74205 -3.40361 0
M  V30 8517 H 779.86 -0.348553 -0.653905 0
M  V30 8518 H 782.507 -1.45591 -1.244 0
M  V30 8519 H 780.812 -0.949286 -3.80126 0
M  V30 8520 H 782.509 -1.34002 -3.77948 0
M  V30 8521 H 779.099 -2.70075 -3.32803 0
M  V30 8522 H 783.283 -3.68146 -3.32839 0
M  V30 8523 H 778.539 -5.09369 -3.38161 0
M  V30 8524 H 782.713 -6.08094 -3.39403 0
M  V30 8525 H 780.34 -6.79117 -3.4162 0
M  V30 8526 N 781.915 1.24427 -0.967243 0
M  V30 8527 C 782.845 2.2773 -0.515899 0
M  V30 8528 C 783.826 1.64197 0.444227 0
M  V30 8529 O 785.011 1.91193 0.340451 0
M  V30 8530 C 782.141 3.46751 0.195149 0
M  V30 8531 C 781.095 4.22548 -0.680953 0
M  V30 8532 C 780.421 5.34456 0.161561 0
M  V30 8533 C 781.721 4.83914 -1.96532 0
M  V30 8534 H 783.415 2.65735 -1.37933 0
M  V30 8535 H 780.961 1.27742 -0.664681 0
M  V30 8536 H 782.914 4.18153 0.522117 0
M  V30 8537 H 781.638 3.07771 1.09292 0
M  V30 8538 H 780.297 3.52946 -0.991186 0
M  V30 8539 H 779.945 4.91716 1.05947 0
M  V30 8540 H 779.645 5.86087 -0.421418 0
M  V30 8541 H 781.169 6.08685 0.483211 0
M  V30 8542 H 782.583 5.47392 -1.70396 0
M  V30 8543 H 780.98 5.45775 -2.49499 0
M  V30 8544 H 782.05 4.05393 -2.66053 0
M  V30 8545 N 783.393 0.737304 1.3929 0
M  V30 8546 C 784.633 0.290966 2.02318 0
M  V30 8547 C 784.997 -1.10174 1.57244 0
M  V30 8548 O 786.198 -1.64628 2.12488 0
M  V30 8549 C 784.469 0.391767 3.55246 0
M  V30 8550 S 786.028 0.0256103 4.38793 0
M  V30 8551 H 782.846 0.113862 0.701824 0
M  V30 8552 H 785.448 0.964329 1.70062 0
M  V30 8553 H 784.152 1.40662 3.85542 0
M  V30 8554 H 783.683 -0.299338 3.9226 0
M  V30 8555 H 785.698 -1.18991 4.81722 0
M  V30 8556 N 784.871 -1.49948 0.485112 0
M  V30 8557 C 786.119 -2.01996 -0.0648775 0
M  V30 8558 C 786.44 -1.36819 -1.38945 0
M  V30 8559 O 785.71 -0.518163 -1.88923 0
M  V30 8560 H 784.29 -0.746513 -0.0269662 0
M  V30 8561 H 786.952 -1.84136 0.638733 0
M  V30 8562 H 786.048 -3.11418 -0.20617 0
M  V30 8563 N 786.349 -0.21828 -1.56081 0
M  V30 8564 C 787.76 0.290166 -1.84431 0
M  V30 8565 C 788.111 1.59712 -1.13958 0
M  V30 8566 O 787.236 2.12516 -0.40815 0
M  V30 8567 C 787.831 0.53325 -3.34577 0
M  V30 8568 C 786.39 0.986011 -3.63256 0
M  V30 8569 C 785.537 0.0472798 -2.7726 0
M  V30 8570 H 788.488 -0.441548 -1.52434 0
M  V30 8571 H 788.509 1.37967 -3.54606 0
M  V30 8572 H 788.021 -0.418137 -3.85841 0
M  V30 8573 H 786.122 1.95087 -3.17446 0
M  V30 8574 H 786.235 0.862684 -4.71269 0
M  V30 8575 H 784.599 0.553471 -2.48614 0
M  V30 8576 H 785.382 -0.898966 -3.31321 0
M  V30 8577 N 787.827 1.57504 0.0551401 0
M  V30 8578 C 789.243 1.54236 0.410292 0
M  V30 8579 C 789.443 0.940839 1.78187 0
M  V30 8580 O 788.499 0.550541 2.46425 0
M  V30 8581 C 789.812 2.98816 0.336064 0
M  V30 8582 C 791.36 3.10236 0.415047 0
M  V30 8583 C 791.835 4.56499 0.37055 0
M  V30 8584 N 793.326 4.61199 0.43013 0
M  V30 8585 C 794.061 5.71873 0.418179 0
M  V30 8586 N 793.557 6.91864 0.360056 0
M  V30 8587 N 795.35 5.60165 0.465977 0
M  V30 8588 H 787.501 1.94965 -0.842759 0
M  V30 8589 H 789.764 0.893096 -0.317937 0
M  V30 8590 H 789.47 3.4645 -0.605429 0
M  V30 8591 H 789.344 3.59564 1.13988 0
M  V30 8592 H 791.731 2.62566 1.34697 0
M  V30 8593 H 791.812 2.52367 -0.417648 0
M  V30 8594 H 791.456 5.0483 -0.557592 0
M  V30 8595 H 791.386 5.12249 1.221 0
M  V30 8596 H 793.877 3.74857 0.478623 0
M  V30 8597 H 794.19 7.71983 0.35532 0
M  V30 8598 H 792.535 6.94233 0.326492 0
M  V30 8599 H 795.726 4.65322 0.509194 0
M  V30 8600 H 795.899 6.46413 0.453194 0
M  V30 8601 N 789.305 -0.326896 1.54172 0
M  V30 8602 C 790.533 -1.08486 1.76177 0
M  V30 8603 C 790.948 -1.81815 0.508788 0
M  V30 8604 O 790.305 -1.74924 -0.520362 0
M  V30 8605 C 790.356 -2.08552 2.95276 0
M  V30 8606 O 790.077 -1.38202 4.15731 0
M  V30 8607 C 791.578 -2.96593 3.29466 0
M  V30 8608 H 788.798 -0.322835 0.588233 0
M  V30 8609 H 791.342 -0.374036 2.0105 0
M  V30 8610 H 789.497 -2.75174 2.72687 0
M  V30 8611 H 789.911 -2.05186 4.827 0
M  V30 8612 H 791.385 -3.62708 4.16109 0
M  V30 8613 H 791.862 -3.63511 2.46487 0
M  V30 8614 H 792.468 -2.35537 3.54122 0
M  V30 8615 N 790.784 -1.46188 -0.588786 0
M  V30 8616 C 791.714 -1.59148 -1.70863 0
M  V30 8617 C 792.695 -0.442083 -1.64255 0
M  V30 8618 O 793.88 -0.667575 -1.82365 0
M  V30 8619 C 791.01 -1.5757 -3.09498 0
M  V30 8620 C 789.964 -2.71418 -3.30932 0
M  V30 8621 C 789.29 -2.549 -4.70032 0
M  V30 8622 C 790.59 -4.1329 -3.19356 0
M  V30 8623 H 792.284 -2.52889 -1.60274 0
M  V30 8624 H 789.83 -1.21707 -0.769638 0
M  V30 8625 H 791.783 -1.65231 -3.87655 0
M  V30 8626 H 790.507 -0.603705 -3.20972 0
M  V30 8627 H 789.166 -2.63216 -2.55172 0
M  V30 8628 H 788.814 -1.55797 -4.78264 0
M  V30 8629 H 788.514 -3.31257 -4.85327 0
M  V30 8630 H 790.038 -2.64443 -5.50366 0
M  V30 8631 H 791.452 -4.22636 -3.87365 0
M  V30 8632 H 789.849 -4.90187 -3.46175 0
M  V30 8633 H 790.919 -4.33874 -2.16522 0
M  V30 8634 N 792.262 0.832906 -1.33792 0
M  V30 8635 C 793.225 1.92471 -1.24449 0
M  V30 8636 C 794.225 1.59981 -0.162085 0
M  V30 8637 O 795.415 1.69208 -0.414029 0
M  V30 8638 C 792.547 3.28278 -0.919044 0
M  V30 8639 H 793.74 2.0218 -2.21502 0
M  V30 8640 H 791.293 1.0257 -1.17936 0
M  V30 8641 H 792.028 3.24263 0.048738 0
M  V30 8642 H 791.813 3.53241 -1.70187 0
M  V30 8643 H 793.303 4.08253 -0.878576 0
M  V30 8644 N 793.74 1.17359 1.05189 0
M  V30 8645 C 794.687 0.890325 2.12936 0
M  V30 8646 C 795.657 -0.165779 1.65271 0
M  V30 8647 O 796.842 -0.0285672 1.90779 0
M  V30 8648 C 793.982 0.409793 3.42658 0
M  V30 8649 C 793.095 1.53002 4.03998 0
M  V30 8650 C 792.23 1.00336 5.21638 0
M  V30 8651 C 791.269 2.09903 5.74984 0
M  V30 8652 N 790.406 1.58714 6.83926 0
M  V30 8653 H 795.246 1.81299 2.36505 0
M  V30 8654 H 792.783 0.904249 1.16025 0
M  V30 8655 H 794.741 0.112743 4.17048 0
M  V30 8656 H 793.371 -0.475915 3.19272 0
M  V30 8657 H 792.423 1.9428 3.27047 0
M  V30 8658 H 793.735 2.3564 4.39631 0
M  V30 8659 H 792.889 0.660158 6.03098 0
M  V30 8660 H 791.628 0.14642 4.8748 0
M  V30 8661 H 790.633 2.45081 4.92154 0
M  V30 8662 H 791.858 2.96013 6.1119 0
M  V30 8663 H 789.804 0.752915 6.51665 0
M  V30 8664 H 789.721 2.34959 7.18561 0
M  V30 8665 H 790.989 1.27287 7.69037 0
M  V30 8666 N 795.218 -1.23913 0.973828 0
M  V30 8667 C 796.443 -1.96735 0.656511 0
M  V30 8668 C 796.868 -1.71682 -0.768571 0
M  V30 8669 O 796.226 -0.984267 -1.52256 0
M  V30 8670 C 796.274 -3.48004 0.944735 0
M  V30 8671 O 795.378 -4.12387 0.0333357 0
M  V30 8672 H 794.719 -0.616119 0.247575 0
M  V30 8673 H 797.249 -1.57525 1.30564 0
M  V30 8674 H 797.259 -3.98424 0.87876 0
M  V30 8675 H 795.934 -3.65567 1.98328 0
M  V30 8676 H 794.511 -3.72585 0.153157 0
M  V30 8677 N 796.696 -0.74468 -1.38897 0
M  V30 8678 C 797.626 -0.126355 -2.33158 0
M  V30 8679 C 798.607 0.713517 -1.54412 0
M  V30 8680 O 799.792 0.656523 -1.82766 0
M  V30 8681 C 796.922 0.774375 -3.38557 0
M  V30 8682 C 795.876 0.0379214 -4.27983 0
M  V30 8683 C 795.202 1.05631 -5.24162 0
M  V30 8684 C 796.502 -1.12523 -5.10035 0
M  V30 8685 H 798.196 -0.913744 -2.85116 0
M  V30 8686 H 795.742 -0.440847 -1.37086 0
M  V30 8687 H 797.695 1.21655 -4.03458 0
M  V30 8688 H 796.419 1.59399 -2.85061 0
M  V30 8689 H 795.078 -0.384733 -3.64576 0
M  V30 8690 H 794.726 1.86975 -4.66958 0
M  V30 8691 H 794.426 0.568261 -5.84846 0
M  V30 8692 H 795.95 1.49799 -5.9194 0
M  V30 8693 H 797.364 -0.761037 -5.68226 0
M  V30 8694 H 795.761 -1.54355 -5.79909 0
M  V30 8695 H 796.831 -1.94237 -4.44297 0
M  V30 8696 N 798.174 1.49689 -0.493057 0
M  V30 8697 C 799.59 1.58907 -0.148526 0
M  V30 8698 C 799.79 1.4991 1.34645 0
M  V30 8699 O 798.846 1.36893 2.12171 0
M  V30 8700 C 800.159 2.91996 -0.718265 0
M  V30 8701 C 801.707 3.05443 -0.683658 0
M  V30 8702 C 802.182 4.41138 -1.23132 0
M  V30 8703 N 803.673 4.47608 -1.19167 0
M  V30 8704 C 804.408 5.51038 -1.5857 0
M  V30 8705 N 803.904 6.61612 -2.05528 0
M  V30 8706 N 805.697 5.41706 -1.50036 0
M  V30 8707 H 797.848 1.5378 -1.46511 0
M  V30 8708 H 800.111 0.727996 -0.607228 0
M  V30 8709 H 799.817 3.04123 -1.7664 0
M  V30 8710 H 799.691 3.76798 -0.17419 0
M  V30 8711 H 802.078 2.92949 0.355626 0
M  V30 8712 H 802.159 2.22344 -1.26479 0
M  V30 8713 H 801.803 4.54382 -2.26935 0
M  V30 8714 H 801.733 5.22864 -0.626201 0
M  V30 8715 H 804.224 3.68274 -0.847524 0
M  V30 8716 H 804.537 7.36622 -2.33685 0
M  V30 8717 H 802.882 6.62674 -2.09497 0
M  V30 8718 H 806.073 4.54212 -1.13176 0
M  V30 8719 H 806.246 6.22188 -1.81068 0
M  V30 8720 N 799.652 0.226554 1.55963 0
M  V30 8721 C 800.599 -0.681504 2.20509 0
M  V30 8722 C 801.569 -1.1866 1.16229 0
M  V30 8723 O 802.754 -1.24478 1.44602 0
M  V30 8724 C 799.894 -1.88183 2.89277 0
M  V30 8725 C 799.007 -1.41517 4.08163 0
M  V30 8726 C 798.142 -2.57346 4.647 0
M  V30 8727 C 797.181 -2.07441 5.75877 0
M  V30 8728 N 796.318 -3.16561 6.26685 0
M  V30 8729 H 801.158 -0.124372 2.9774 0
M  V30 8730 H 798.695 -0.0496333 1.47016 0
M  V30 8731 H 800.653 -2.58666 3.27335 0
M  V30 8732 H 799.283 -2.41177 2.14555 0
M  V30 8733 H 798.335 -0.605099 3.75557 0
M  V30 8734 H 799.647 -1.00928 4.88482 0
M  V30 8735 H 798.801 -3.35903 5.05227 0
M  V30 8736 H 797.54 -3.01227 3.83554 0
M  V30 8737 H 796.545 -1.27347 5.34848 0
M  V30 8738 H 797.77 -1.64554 6.58862 0
M  V30 8739 H 795.716 -3.59914 5.48451 0
M  V30 8740 H 795.633 -2.80239 7.02141 0
M  V30 8741 H 796.901 -3.95238 6.71868 0
M  V30 8742 N 801.13 -1.57531 -0.0467866 0
M  V30 8743 C 802.37 -1.90294 -0.746171 0
M  V30 8744 C 802.734 -0.823194 -1.73458 0
M  V30 8745 O 803.935 -1.03463 -2.48091 0
M  V30 8746 C 802.206 -3.28249 -1.41378 0
M  V30 8747 S 803.765 -3.82812 -2.14477 0
M  V30 8748 H 800.583 -0.666496 -0.247598 0
M  V30 8749 H 803.185 -1.955 -0.00135143 0
M  V30 8750 H 801.889 -4.04712 -0.680937 0
M  V30 8751 H 801.42 -3.26302 -2.19751 0
M  V30 8752 H 803.435 -3.60111 -3.41372 0
M  V30 8753 N 802.608 0.318715 -1.54344 0
M  V30 8754 C 803.848 1.06425 -1.74508 0
M  V30 8755 C 804.212 1.85087 -0.510572 0
M  V30 8756 O 805.413 2.62253 -0.589647 0
M  V30 8757 C 803.684 1.96054 -2.98827 0
M  V30 8758 S 805.243 2.77493 -3.39916 0
M  V30 8759 H 802.061 0.35921 -0.613587 0
M  V30 8760 H 804.663 0.339679 -1.92526 0
M  V30 8761 H 803.367 1.37109 -3.8682 0
M  V30 8762 H 802.898 2.72908 -2.83346 0
M  V30 8763 H 804.913 3.98544 -2.95596 0
M  V30 8764 N 804.086 1.46499 0.581025 0
M  V30 8765 C 805.036 1.53606 1.68491 0
M  V30 8766 C 806.02 0.396853 1.55929 0
M  V30 8767 O 807.212 0.645366 1.64815 0
M  V30 8768 C 804.341 1.53089 3.07276 0
M  V30 8769 C 803.427 2.72309 3.25128 0
M  V30 8770 N 803.818 3.97216 3.13134 0
M  V30 8771 C 802.116 2.68568 3.56072 0
M  V30 8772 C 802.817 4.7693 3.33036 0
M  V30 8773 N 801.793 4.08833 3.58269 0
M  V30 8774 H 805.595 2.47976 1.5775 0
M  V30 8775 H 803.109 1.42161 0.785104 0
M  V30 8776 H 805.106 1.56268 3.86505 0
M  V30 8777 H 803.766 0.597969 3.19146 0
M  V30 8778 H 804.777 4.28439 2.90964 0
M  V30 8779 H 801.454 1.84307 3.74616 0
M  V30 8780 H 802.844 5.85879 3.28932 0
M  V30 8781 N 805.565 -0.825799 1.34232 0
M  V30 8782 C 806.981 -1.11848 1.13851 0
M  V30 8783 C 807.181 -2.01405 -0.0619031 0
M  V30 8784 O 806.237 -2.41465 -0.738287 0
M  V30 8785 C 807.55 -1.76797 2.43235 0
M  V30 8786 C 809.098 -1.89304 2.49265 0
M  V30 8787 C 809.573 -2.57669 3.78643 0
M  V30 8788 N 811.064 -2.65171 3.79788 0
M  V30 8789 C 811.799 -3.1879 4.76614 0
M  V30 8790 N 811.295 -3.72995 5.83821 0
M  V30 8791 N 813.088 -3.17164 4.64073 0
M  V30 8792 H 805.239 -0.230049 2.11151 0
M  V30 8793 H 807.502 -0.164609 0.9336 0
M  V30 8794 H 807.208 -1.18455 3.31152 0
M  V30 8795 H 807.082 -2.76693 2.56361 0
M  V30 8796 H 809.469 -2.46796 1.6179 0
M  V30 8797 H 809.55 -0.883191 2.4007 0
M  V30 8798 H 809.194 -2.00833 4.66507 0
M  V30 8799 H 809.124 -3.59152 3.8512 0
M  V30 8800 H 811.615 -2.26746 3.02315 0
M  V30 8801 H 811.928 -4.12151 6.53721 0
M  V30 8802 H 810.273 -3.71246 5.87538 0
M  V30 8803 H 813.464 -2.74082 3.79469 0
M  V30 8804 H 813.637 -3.58647 5.397 0
M  V30 8805 N 807.043 -1.17915 -1.04565 0
M  V30 8806 C 808.273 -0.994716 -1.81077 0
M  V30 8807 C 808.681 0.460146 -1.83519 0
M  V30 8808 O 808.024 1.33136 -1.26572 0
M  V30 8809 C 808.086 -1.46698 -3.28207 0
M  V30 8810 C 807.75 -2.94523 -3.49436 0
M  V30 8811 C 808.747 -3.92414 -3.41038 0
M  V30 8812 C 806.432 -3.32841 -3.76194 0
M  V30 8813 C 808.426 -5.2662 -3.59096 0
M  V30 8814 C 806.113 -4.67212 -3.93899 0
M  V30 8815 C 807.111 -5.6391 -3.8535 0
M  V30 8816 O 806.799 -6.95849 -4.02554 0
M  V30 8817 H 806.531 -0.351797 -0.577248 0
M  V30 8818 H 809.085 -1.56772 -1.32709 0
M  V30 8819 H 807.315 -0.837592 -3.7752 0
M  V30 8820 H 809.004 -1.24724 -3.86263 0
M  V30 8821 H 809.77 -3.64157 -3.20336 0
M  V30 8822 H 805.649 -2.58139 -3.81949 0
M  V30 8823 H 809.193 -6.02082 -3.52339 0
M  V30 8824 H 805.09 -4.95172 -4.14095 0
M  V30 8825 H 805.858 -7.02679 -4.19743 0
M  V30 8826 N 808.521 1.23394 -0.980386 0
M  V30 8827 C 809.746 1.96384 -0.666935 0
M  V30 8828 C 810.171 1.72087 0.759456 0
M  V30 8829 O 809.529 0.992328 1.51732 0
M  V30 8830 C 809.577 3.47499 -0.963177 0
M  V30 8831 O 808.681 4.12363 -0.0552051 0
M  V30 8832 H 808.022 0.614797 -0.250839 0
M  V30 8833 H 810.552 1.56831 -1.31398 0
M  V30 8834 H 810.562 3.97953 -0.899877 0
M  V30 8835 H 809.237 3.6451 -2.00264 0
M  V30 8836 H 807.814 3.72499 -0.172914 0
M  V30 8837 N 809.999 0.752036 1.385 0
M  V30 8838 C 811.224 0.316993 2.04963 0
M  V30 8839 C 811.649 -1.04582 1.56346 0
M  V30 8840 O 811.007 -1.66616 0.714755 0
M  V30 8841 C 811.055 0.347235 3.58924 0
M  V30 8842 O 810.159 -0.659296 4.07096 0
M  V30 8843 H 809.5 0.140652 0.648932 0
M  V30 8844 H 812.03 1.02272 1.77205 0
M  V30 8845 H 812.04 0.19757 4.07521 0
M  V30 8846 H 810.715 1.34157 3.93668 0
M  V30 8847 H 809.292 -0.474371 3.6987 0
M  V30 8848 N 811.477 -1.49425 0.500989 0
M  V30 8849 C 812.407 -2.31971 -0.266775 0
M  V30 8850 C 813.388 -1.40245 -0.962563 0
M  V30 8851 O 814.573 -1.69154 -0.953968 0
M  V30 8852 C 811.703 -3.20757 -1.33163 0
M  V30 8853 C 810.657 -4.21275 -0.75572 0
M  V30 8854 C 809.983 -4.98997 -1.92109 0
M  V30 8855 C 811.283 -5.21686 0.253213 0
M  V30 8856 H 812.977 -2.96408 0.422237 0
M  V30 8857 H 810.523 -1.4254 0.204505 0
M  V30 8858 H 812.476 -3.77315 -1.87646 0
M  V30 8859 H 811.2 -2.54263 -2.04983 0
M  V30 8860 H 809.859 -3.65861 -0.232637 0
M  V30 8861 H 809.507 -4.28951 -2.62698 0
M  V30 8862 H 809.207 -5.67011 -1.54182 0
M  V30 8863 H 810.731 -5.584 -2.47026 0
M  V30 8864 H 812.145 -5.72939 -0.203483 0
M  V30 8865 H 810.542 -5.9759 0.548322 0
M  V30 8866 H 811.612 -4.70596 1.16909 0
M  V30 8867 N 812.955 -0.234822 -1.55841 0
M  V30 8868 C 814.232 0.442961 -1.90518 0
M  V30 8869 C 814.612 1.76768 -1.15397 0
M  V30 8870 O 813.96 2.26928 -0.267534 0
M  V30 8871 C 814.17 0.622905 -3.43396 0
M  V30 8872 C 815.518 0.9243 -4.14417 0
M  V30 8873 O 816.542 0.709211 -3.49068 0
M  V30 8874 O 815.401 1.33323 -5.29988 0
M  V30 8875 H 812.495 0.236042 -0.792599 0
M  V30 8876 H 815.041 -0.277992 -1.67408 0
M  V30 8877 H 813.813 -0.310973 -3.90062 0
M  V30 8878 H 813.436 1.39485 -3.7233 0
M  V30 8879 N 814.433 1.57553 0.0384317 0
M  V30 8880 C 815.844 1.77258 0.586211 0
M  V30 8881 C 816.195 0.864706 1.76117 0
M  V30 8882 O 815.32 0.057141 2.16325 0
M  V30 8883 C 815.915 3.21453 1.07021 0
M  V30 8884 C 814.474 3.42387 1.56358 0
M  V30 8885 C 813.621 2.72801 0.497508 0
M  V30 8886 H 816.572 1.57585 -0.187796 0
M  V30 8887 H 816.593 3.27451 1.93794 0
M  V30 8888 H 816.105 3.87505 0.214851 0
M  V30 8889 H 814.206 2.81497 2.44111 0
M  V30 8890 H 814.319 4.50968 1.61754 0
M  V30 8891 H 812.683 2.36305 0.95038 0
M  V30 8892 H 813.466 3.41529 -0.348234 0
M  V30 8893 N 815.911 -0.310526 1.54511 0
M  V30 8894 C 817.327 -0.655637 1.45511 0
M  V30 8895 C 817.527 -1.91114 0.638564 0
M  V30 8896 O 816.583 -2.52098 0.142497 0
M  V30 8897 C 817.896 -0.817501 2.89374 0
M  V30 8898 C 819.444 -0.914003 2.99358 0
M  V30 8899 C 819.919 -1.10794 4.44397 0
M  V30 8900 N 821.41 -1.17437 4.48066 0
M  V30 8901 C 822.145 -1.34255 5.57461 0
M  V30 8902 N 821.641 -1.48032 6.768 0
M  V30 8903 N 823.434 -1.37067 5.45132 0
M  V30 8904 H 815.585 0.514506 2.06074 0
M  V30 8905 H 817.848 0.168478 0.932909 0
M  V30 8906 H 817.554 0.034003 3.51684 0
M  V30 8907 H 817.428 -1.7094 3.36243 0
M  V30 8908 H 819.815 -1.756 2.37168 0
M  V30 8909 H 819.896 0.00170958 2.558 0
M  V30 8910 H 819.54 -0.270743 5.07178 0
M  V30 8911 H 819.47 -2.03773 4.85576 0
M  V30 8912 H 821.961 -1.08181 3.62084 0
M  V30 8913 H 822.274 -1.60593 7.5593 0
M  V30 8914 H 820.619 -1.45105 6.79683 0
M  V30 8915 H 823.81 -1.25909 4.50849 0
M  V30 8916 H 823.983 -1.49831 6.3044 0
M  V30 8917 N 817.389 -1.46805 -0.573248 0
M  V30 8918 C 818.336 -1.58084 -1.68161 0
M  V30 8919 C 819.306 -0.424636 -1.6058 0
M  V30 8920 O 820.491 -0.642623 -1.79652 0
M  V30 8921 C 817.631 -1.58601 -3.06496 0
M  V30 8922 C 816.744 -2.85023 -3.24632 0
M  V30 8923 C 815.879 -2.76981 -4.53271 0
M  V30 8924 C 814.918 -3.983 -4.64783 0
M  V30 8925 N 814.055 -3.88589 -5.84759 0
M  V30 8926 H 818.895 -2.52755 -1.57858 0
M  V30 8927 H 816.432 -1.25385 -0.769218 0
M  V30 8928 H 818.39 -1.56885 -3.86579 0
M  V30 8929 H 817.02 -0.674553 -3.15673 0
M  V30 8930 H 816.072 -2.96678 -2.38089 0
M  V30 8931 H 817.384 -3.7491 -3.29004 0
M  V30 8932 H 816.538 -2.73424 -5.41594 0
M  V30 8933 H 815.277 -1.84751 -4.51352 0
M  V30 8934 H 814.282 -4.02179 -3.74876 0
M  V30 8935 H 815.507 -4.91639 -4.68474 0
M  V30 8936 H 813.453 -2.99151 -5.83819 0
M  V30 8937 H 813.37 -4.7214 -5.90441 0
M  V30 8938 H 814.638 -3.89022 -6.75486 0
M  V30 8939 N 818.867 0.818669 -1.34668 0
M  V30 8940 C 820.113 1.57746 -1.27453 0
M  V30 8941 C 820.446 1.93588 0.154077 0
M  V30 8942 O 819.721 1.60371 1.10051 0
M  V30 8943 C 820.004 2.87414 -2.16945 0
M  V30 8944 C 819.857 2.58125 -3.68363 0
M  V30 8945 C 821.176 3.89021 -2.05792 0
M  V30 8946 H 818.295 0.572339 -0.464324 0
M  V30 8947 H 820.937 0.942784 -1.64959 0
M  V30 8948 H 819.087 3.41576 -1.85089 0
M  V30 8949 H 820.759 2.10239 -4.10606 0
M  V30 8950 H 819.002 1.91503 -3.89242 0
M  V30 8951 H 819.673 3.5061 -4.26353 0
M  V30 8952 H 822.149 3.44224 -2.33771 0
M  V30 8953 H 821.025 4.77548 -2.70628 0
M  V30 8954 H 821.286 4.29786 -1.03618 0
M  V30 8955 N 820.346 1.18468 1.03938 0
M  V30 8956 C 821.278 0.870615 2.12021 0
M  V30 8957 C 822.291 -0.132318 1.62261 0
M  V30 8958 O 823.48 0.0956901 1.78243 0
M  V30 8959 C 820.58 0.279727 3.37744 0
M  V30 8960 C 819.753 1.32863 4.16733 0
M  V30 8961 C 818.812 0.753204 5.20781 0
M  V30 8962 O 817.838 1.42825 5.5099 0
M  V30 8963 N 819.04 -0.448664 5.78764 0
M  V30 8964 H 821.805 1.80091 2.39556 0
M  V30 8965 H 819.366 1.08524 1.20142 0
M  V30 8966 H 821.358 -0.118829 4.04526 0
M  V30 8967 H 819.928 -0.554621 3.07641 0
M  V30 8968 H 819.148 1.90245 3.45254 0
M  V30 8969 H 820.436 2.03574 4.66299 0
M  V30 8970 H 819.834 -1.01481 5.56523 0
M  V30 8971 H 818.391 -0.789125 6.47005 0
M  V30 8972 N 821.824 -1.22873 0.986916 0
M  V30 8973 C 823.071 -1.91462 0.659424 0
M  V30 8974 C 823.399 -1.76931 -0.807825 0
M  V30 8975 O 822.654 -1.12829 -1.59901 0
M  V30 8976 C 822.953 -3.43014 1.00379 0
M  V30 8977 C 822.619 -3.77731 2.46232 0
M  V30 8978 C 821.281 -3.86918 2.86091 0
M  V30 8979 C 823.633 -3.94343 3.40798 0
M  V30 8980 C 820.961 -4.10149 4.19518 0
M  V30 8981 C 823.313 -4.19076 4.73875 0
M  V30 8982 C 821.977 -4.26486 5.13484 0
M  V30 8983 H 821.247 -0.700611 0.2413 0
M  V30 8984 H 823.894 -1.45763 1.24199 0
M  V30 8985 H 822.199 -3.90329 0.339226 0
M  V30 8986 H 823.896 -3.94327 0.728518 0
M  V30 8987 H 820.486 -3.71159 2.14334 0
M  V30 8988 H 824.67 -3.86629 3.11178 0
M  V30 8989 H 819.926 -4.1411 4.49803 0
M  V30 8990 H 824.1 -4.30873 5.47102 0
M  V30 8991 H 821.727 -4.4424 6.16891 0
M  V30 8992 N 823.302 -0.75937 -1.38099 0
M  V30 8993 C 824.532 -0.328634 -2.0397 0
M  V30 8994 C 824.94 1.04989 -1.57398 0
M  V30 8995 O 824.283 1.67918 -0.744932 0
M  V30 8996 C 824.345 -0.279216 -3.58414 0
M  V30 8997 C 824.009 -1.60025 -4.28067 0
M  V30 8998 C 825.006 -2.55048 -4.53041 0
M  V30 8999 C 822.691 -1.87128 -4.66142 0
M  V30 9000 C 824.685 -3.7539 -5.15132 0
M  V30 9001 C 822.372 -3.07742 -5.27956 0
M  V30 9002 C 823.37 -4.01694 -5.52387 0
M  V30 9003 O 823.058 -5.20186 -6.12912 0
M  V30 9004 H 822.79 -0.137443 -0.66188 0
M  V30 9005 H 825.344 -1.03082 -1.77661 0
M  V30 9006 H 823.574 0.479254 -3.83719 0
M  V30 9007 H 825.263 0.122781 -4.05714 0
M  V30 9008 H 826.029 -2.35387 -4.24049 0
M  V30 9009 H 821.908 -1.14833 -4.46469 0
M  V30 9010 H 825.452 -4.48737 -5.34117 0
M  V30 9011 H 821.349 -3.27294 -5.56371 0
M  V30 9012 H 822.117 -5.20846 -6.31397 0
M  V30 9013 N 824.78 1.49157 -0.508906 0
M  V30 9014 C 826.027 2.02473 0.0327983 0
M  V30 9015 C 826.355 1.38792 1.36261 0
M  V30 9016 O 825.61 0.515576 1.88786 0
M  V30 9017 C 825.909 3.56687 0.225717 0
M  V30 9018 C 825.575 4.39046 -1.02708 0
M  V30 9019 C 824.237 4.61271 -1.37048 0
M  V30 9020 C 826.589 4.86902 -1.85946 0
M  V30 9021 C 823.917 5.28598 -2.54562 0
M  V30 9022 C 826.269 5.55521 -3.0262 0
M  V30 9023 C 824.933 5.7599 -3.3733 0
M  V30 9024 H 824.203 0.740903 0.0120017 0
M  V30 9025 H 826.85 1.79372 -0.670665 0
M  V30 9026 H 825.155 3.78511 1.01177 0
M  V30 9027 H 826.852 3.95541 0.659433 0
M  V30 9028 H 823.442 4.21994 -0.749615 0
M  V30 9029 H 827.626 4.69553 -1.6073 0
M  V30 9030 H 822.882 5.42646 -2.81682 0
M  V30 9031 H 827.056 5.91576 -3.67438 0
M  V30 9032 H 824.683 6.27934 -4.2849 0
M  V30 9033 N 826.258 0.243083 1.55714 0
M  V30 9034 C 827.206 -0.674349 2.2261 0
M  V30 9035 C 828.2 -1.18307 1.21243 0
M  V30 9036 O 829.406 -1.1404 1.39265 0
M  V30 9037 H 825.781 -0.235941 0.714028 0
M  V30 9038 H 827.752 -0.0869446 2.98273 0
M  V30 9039 C 826.501 -1.86206 2.93637 0
M  V30 9040 H 825.824 -1.47975 3.71407 0
M  V30 9041 H 827.264 -2.4813 3.43813 0
M  V30 9042 C 825.723 -2.73084 1.97298 0
M  V30 9043 O 826.253 -3.72497 1.50361 0
M  V30 9044 N 824.459 -2.39571 1.64482 0
M  V30 9045 H 824.006 -1.5878 2.02846 0
M  V30 9046 H 823.964 -2.97976 1.00288 0
M  V30 9047 N 827.736 -1.57571 -0.0300757 0
M  V30 9048 C 828.683 -2.06492 -1.03101 0
M  V30 9049 C 829.653 -0.953862 -1.3598 0
M  V30 9050 O 830.838 -1.22436 -1.46335 0
M  V30 9051 C 827.978 -2.54826 -2.32718 0
M  V30 9052 C 827.091 -3.79718 -2.06006 0
M  V30 9053 C 826.226 -4.16668 -3.29487 0
M  V30 9054 C 825.265 -5.3448 -2.98324 0
M  V30 9055 N 824.402 -5.66867 -4.14254 0
M  V30 9056 H 829.242 -2.91755 -0.606877 0
M  V30 9057 H 826.779 -1.44252 -0.288038 0
M  V30 9058 H 828.737 -2.80916 -3.08451 0
M  V30 9059 H 827.367 -1.72481 -2.72856 0
M  V30 9060 H 826.419 -3.60718 -1.20774 0
M  V30 9061 H 827.731 -4.65569 -1.79017 0
M  V30 9062 H 826.885 -4.43881 -4.13588 0
M  V30 9063 H 825.624 -3.29466 -3.59588 0
M  V30 9064 H 824.629 -5.07021 -2.12625 0
M  V30 9065 H 825.854 -6.23334 -2.69502 0
M  V30 9066 H 823.8 -4.82625 -4.44308 0
M  V30 9067 H 823.717 -6.47226 -3.90685 0
M  V30 9068 H 824.985 -5.98656 -4.99231 0
M  V30 9069 N 829.214 0.302327 -1.54673 0
M  V30 9070 C 830.124 1.39542 -1.88587 0
M  V30 9071 C 831.14 1.55543 -0.779895 0
M  V30 9072 O 832.316 1.70233 -1.07623 0
M  V30 9073 C 829.381 2.7394 -2.12504 0
M  V30 9074 C 828.442 2.66935 -3.3622 0
M  V30 9075 C 827.675 3.94923 -3.58987 0
M  V30 9076 O 827.898 4.94218 -2.84789 0
M  V30 9077 O 826.832 3.96896 -4.52501 0
M  V30 9078 H 830.658 1.13784 -2.81579 0
M  V30 9079 H 828.243 0.49827 -1.40846 0
M  V30 9080 H 830.125 3.5346 -2.29443 0
M  V30 9081 H 828.8 2.99544 -1.22698 0
M  V30 9082 H 827.707 1.85892 -3.24646 0
M  V30 9083 H 829.04 2.46283 -4.26152 0
M  V30 9084 N 830.692 1.47107 0.565454 0
M  V30 9085 C 831.64 1.59368 1.69424 0
M  V30 9086 C 832.634 0.461344 1.62997 0
M  V30 9087 O 833.84 0.638849 1.68282 0
M  V30 9088 H 830.215 0.501387 0.560459 0
M  V30 9089 H 832.186 2.54242 1.56217 0
M  V30 9090 C 830.935 1.61739 3.07792 0
M  V30 9091 H 830.258 2.48215 3.13416 0
M  V30 9092 H 831.698 1.7437 3.86486 0
M  V30 9093 C 830.157 0.349156 3.35086 0
M  V30 9094 O 830.687 -0.553287 3.97871 0
M  V30 9095 N 828.893 0.231723 2.89675 0
M  V30 9096 H 828.44 0.967021 2.3876 0
M  V30 9097 H 828.398 -0.615911 3.08308 0
M  V30 9098 N 832.17 -0.811516 1.35101 0
M  V30 9099 C 833.417 -1.56835 1.28098 0
M  V30 9100 C 833.745 -1.93951 -0.14597 0
M  V30 9101 O 833 -1.61173 -1.11004 0
M  V30 9102 C 833.299 -2.87121 2.1283 0
M  V30 9103 C 832.965 -2.69245 3.61688 0
M  V30 9104 C 831.627 -2.64078 4.02264 0
M  V30 9105 C 833.979 -2.52122 4.56162 0
M  V30 9106 C 831.307 -2.39724 5.3549 0
M  V30 9107 C 833.659 -2.29298 5.89581 0
M  V30 9108 C 832.323 -2.2255 6.29307 0
M  V30 9109 H 831.593 -0.5739 0.468742 0
M  V30 9110 H 834.24 -0.93806 1.66951 0
M  V30 9111 H 832.545 -3.54502 1.66841 0
M  V30 9112 H 834.242 -3.44788 2.0475 0
M  V30 9113 H 830.832 -2.74112 3.29485 0
M  V30 9114 H 835.016 -2.5513 4.25702 0
M  V30 9115 H 830.272 -2.32965 5.65276 0
M  V30 9116 H 834.446 -2.15038 6.62368 0
M  V30 9117 H 832.073 -2.0344 7.32473 0
M  V30 9118 O 833.687 -1.3058 -0.950319 0
M  V30 9119 H 834.378 -1.1218 -1.57909 0
M  V30 END ATOM
M  V30 BEGIN BOND
M  V30 END BOND
M  V30 END CTAB
M  END
$$$$
