drugbank_target|Q9Y5R8 Trafficking protein particle complex subunit 1 (DB08342)
 OpenBabel12092120503D

  0  0  0     0  0            999 V3000
M  V30 BEGIN CTAB
M  V30 COUNTS 2375 2407 0 0 0
M  V30 BEGIN ATOM
M  V30 1 H -0.908 1.98254 -0.117106 0
M  V30 2 N 0 1.576 0 0
M  V30 3 C 0.933 2.03868 1.02534 0
M  V30 4 C 1.911 0.928543 1.3348 0
M  V30 5 O 3.095 1.19667 1.45644 0
M  V30 6 C 0.222 2.43627 2.35294 0
M  V30 7 C -0.732 3.65373 2.2001 0
M  V30 8 S 0.101 5.13292 1.52614 0
M  V30 9 C 1.257 5.56322 2.86805 0
M  V30 10 H 1.49 2.90518 0.631377 0
M  V30 11 H -0.977 1.52953 0.210867 0
M  V30 12 H 0.981 2.67203 3.11629 0
M  V30 13 H -0.358 1.57376 2.7183 0
M  V30 14 H -1.165 3.90944 3.18086 0
M  V30 15 H -1.563 3.418 1.51819 0
M  V30 16 H 0.729 5.58782 3.83104 0
M  V30 17 H 1.672 6.56266 2.65933 0
M  V30 18 H 2.08 4.83886 2.90714 0
M  V30 19 N 1.4781 -0.272755 1.55222 0
M  V30 20 C 2.7061 -1.02255 1.79865 0
M  V30 21 C 3.1211 -1.79924 0.572088 0
M  V30 22 O 2.4781 -1.76638 -0.458842 0
M  V30 23 C 2.5291 -1.98094 3.02392 0
M  V30 24 O 2.2501 -1.23572 4.20311 0
M  V30 25 C 3.7511 -2.84884 3.39641 0
M  V30 26 H 0.9711 -0.302057 0.599168 0
M  V30 27 H 3.5151 -0.303465 2.02236 0
M  V30 28 H 1.6701 -2.65465 2.82147 0
M  V30 29 H 2.0841 -1.88172 4.89583 0
M  V30 30 H 3.5581 -3.47927 4.28545 0
M  V30 31 H 4.0351 -3.54665 2.59055 0
M  V30 32 H 4.6411 -2.23003 3.62146 0
M  V30 33 N 2.9562 -1.48159 -0.537278 0
M  V30 34 C 4.2022 -1.56035 -1.29541 0
M  V30 35 C 4.5352 -0.230377 -1.92829 0
M  V30 36 O 3.8102 0.762952 -1.78911 0
M  V30 37 C 4.0932 -2.69323 -2.39034 0
M  V30 38 C 3.9462 -4.12002 -1.80485 0
M  V30 39 C 5.2652 -2.78408 -3.40847 0
M  V30 40 H 2.3842 -0.567992 -0.469632 0
M  V30 41 H 5.0262 -1.80302 -0.599277 0
M  V30 42 H 3.1762 -2.48763 -2.98412 0
M  V30 43 H 4.8482 -4.43981 -1.25215 0
M  V30 44 H 3.0912 -4.19344 -1.11055 0
M  V30 45 H 3.7622 -4.87077 -2.59731 0
M  V30 46 H 6.2382 -2.97012 -2.91416 0
M  V30 47 H 5.1142 -3.59416 -4.14863 0
M  V30 48 H 5.3752 -1.86269 -4.00944 0
M  V30 49 N 4.4343 0.785586 -1.36625 0
M  V30 50 C 5.3843 1.88822 -1.27789 0
M  V30 51 C 6.3683 1.60014 -0.168579 0
M  V30 52 O 7.5603 1.72381 -0.401737 0
M  V30 53 C 4.6893 3.26092 -1.07327 0
M  V30 54 C 3.7753 3.60897 -2.22743 0
M  V30 55 N 4.1663 3.66982 -3.48077 0
M  V30 56 C 2.4643 3.90981 -2.14593 0
M  V30 57 C 3.1653 3.98137 -4.24101 0
M  V30 58 N 2.1413 4.13319 -3.53084 0
M  V30 59 H 5.9433 1.91759 -2.22723 0
M  V30 60 H 3.4573 0.981311 -1.29399 0
M  V30 61 H 5.4543 4.04954 -0.990842 0
M  V30 62 H 4.1143 3.24428 -0.132977 0
M  V30 63 H 5.1253 3.49531 -3.82163 0
M  V30 64 H 1.8023 3.9722 -1.2854 0
M  V30 65 H 3.1923 4.09737 -5.32509 0
M  V30 66 N 5.9124 1.20967 1.01018 0
M  V30 67 C 6.8604 0.961223 2.1181 0
M  V30 68 C 7.8544 -0.0897034 1.69162 0
M  V30 69 O 9.0604 0.0612271 1.79896 0
M  V30 70 H 5.4354 0.29355 0.692338 0
M  V30 71 H 7.4064 1.90178 2.29946 0
M  V30 72 C 6.1554 0.536854 3.4353 0
M  V30 73 H 5.4784 1.33713 3.76777 0
M  V30 74 H 6.9184 0.402286 4.22087 0
M  V30 75 C 5.3774 -0.751574 3.2841 0
M  V30 76 O 5.9074 -1.80841 3.58691 0
M  V30 77 N 4.1134 -0.716079 2.81639 0
M  V30 78 H 3.6604 0.144236 2.57196 0
M  V30 79 H 3.6184 -1.57847 2.71904 0
M  V30 80 N 7.3905 -1.2043 1.01659 0
M  V30 81 C 8.3205 -2.25466 0.607226 0
M  V30 82 C 9.3015 -1.65853 -0.377716 0
M  V30 83 O 10.4865 -1.92409 -0.263149 0
M  V30 84 C 7.6165 -3.47256 -0.0552949 0
M  V30 85 C 6.5705 -4.19462 0.850632 0
M  V30 86 C 5.8965 -5.34673 0.0538859 0
M  V30 87 C 7.1965 -4.75603 2.15868 0
M  V30 88 H 8.8905 -2.59962 1.48526 0
M  V30 89 H 6.4365 -1.2496 0.715605 0
M  V30 90 H 8.3895 -4.19917 -0.353233 0
M  V30 91 H 7.1135 -3.11924 -0.968045 0
M  V30 92 H 5.7725 -3.48667 1.13257 0
M  V30 93 H 5.4205 -4.95585 -0.860514 0
M  V30 94 H 5.1205 -5.83913 0.657192 0
M  V30 95 H 6.6445 -6.10138 -0.237598 0
M  V30 96 H 8.0585 -5.40083 1.92311 0
M  V30 97 H 6.4555 -5.3528 2.71284 0
M  V30 98 H 7.5255 -3.94346 2.82169 0
M  V30 99 N 8.8686 -0.792821 -1.36206 0
M  V30 100 C 10.0986 -0.378275 -2.03107 0
M  V30 101 C 10.5066 1.01119 -1.59911 0
M  V30 102 O 9.8496 1.66052 -0.785658 0
M  V30 103 C 9.9116 -0.366535 -3.57627 0
M  V30 104 C 9.5756 -1.70416 -4.24037 0
M  V30 105 C 10.5726 -2.6602 -4.46687 0
M  V30 106 C 8.2576 -1.98439 -4.6144 0
M  V30 107 C 10.2516 -3.8784 -5.05825 0
M  V30 108 C 7.9386 -3.20525 -5.20295 0
M  V30 109 C 8.9366 -4.15044 -5.42427 0
M  V30 110 O 8.6246 -5.34978 -6.00045 0
M  V30 111 H 8.3566 -0.153543 -0.658332 0
M  V30 112 H 10.9106 -1.07383 -1.75094 0
M  V30 113 H 9.1406 0.385539 -3.84773 0
M  V30 114 H 10.8296 0.0238088 -4.05893 0
M  V30 115 H 11.5956 -2.45658 -4.18183 0
M  V30 116 H 7.4746 -1.25686 -4.43536 0
M  V30 117 H 11.0186 -4.61628 -5.23015 0
M  V30 118 H 6.9156 -3.40764 -5.48225 0
M  V30 119 H 7.6836 -5.36088 -6.18508 0
M  V30 120 N 10.3467 1.47872 -0.545128 0
M  V30 121 C 11.2767 2.32661 0.197793 0
M  V30 122 C 12.2577 1.43041 0.920504 0
M  V30 123 O 13.4427 1.71912 0.90333 0
M  V30 124 C 10.5727 3.24569 1.23582 0
M  V30 125 C 9.5267 4.23333 0.630323 0
M  V30 126 C 8.8527 5.0448 1.77211 0
M  V30 127 C 10.1527 5.20704 -0.407974 0
M  V30 128 H 11.8467 2.95024 -0.510045 0
M  V30 129 H 9.3927 1.4187 -0.246731 0
M  V30 130 H 11.3457 3.8272 1.76362 0
M  V30 131 H 10.0697 2.60236 1.97344 0
M  V30 132 H 8.7287 3.6639 0.123922 0
M  V30 133 H 8.3767 4.36561 2.49847 0
M  V30 134 H 8.0767 5.71339 1.37281 0
M  V30 135 H 9.6007 5.65487 2.3034 0
M  V30 136 H 11.0147 5.7329 0.033305 0
M  V30 137 H 9.4117 5.95699 -0.725486 0
M  V30 138 H 10.4817 4.66917 -1.30828 0
M  V30 139 N 11.8248 0.280983 1.55075 0
M  V30 140 C 13.0718 -0.334115 1.99725 0
M  V30 141 C 13.3998 -1.5542 1.1694 0
M  V30 142 O 12.6548 -1.94361 0.228531 0
M  V30 143 C 12.9538 -0.754656 3.49342 0
M  V30 144 C 12.6198 0.361445 4.49449 0
M  V30 145 C 11.2818 0.667893 4.76542 0
M  V30 146 C 13.6338 1.11322 5.09173 0
M  V30 147 C 10.9618 1.7296 5.60626 0
M  V30 148 C 13.3138 2.1647 5.9441 0
M  V30 149 C 11.9778 2.47742 6.19822 0
M  V30 150 H 11.2478 -0.122261 0.730844 0
M  V30 151 H 13.8948 0.395917 1.87363 0
M  V30 152 H 12.1998 -1.56446 3.5921 0
M  V30 153 H 13.8968 -1.24142 3.813 0
M  V30 154 H 10.4868 0.112481 4.28452 0
M  V30 155 H 14.6708 0.88973 4.8826 0
M  V30 156 H 9.9268 1.97684 5.78559 0
M  V30 157 H 14.1008 2.75193 6.3972 0
M  V30 158 H 11.7278 3.30145 6.84769 0
M  V30 159 N 13.3029 -1.57598 0.00835791 0
M  V30 160 C 14.5799 -1.82172 -0.712235 0
M  V30 161 C 14.9599 -0.887873 -1.9152 0
M  V30 162 O 14.3079 0.06146 -2.28417 0
M  V30 163 C 14.5179 -3.30875 -1.11008 0
M  V30 164 C 15.8659 -3.96826 -1.51044 0
M  V30 165 O 16.8899 -3.35248 -1.20364 0
M  V30 166 O 15.7489 -5.05318 -2.08125 0
M  V30 167 H 12.8429 -0.750435 -0.347529 0
M  V30 168 H 15.3889 -1.69665 0.0344523 0
M  V30 169 H 14.1609 -3.90481 -0.252982 0
M  V30 170 H 13.7839 -3.48412 -1.9156 0
M  V30 171 N 14.781 0.264519 -1.55364 0
M  V30 172 C 16.197 0.61215 -1.47394 0
M  V30 173 C 16.397 1.89134 -0.695018 0
M  V30 174 O 15.453 2.51563 -0.217275 0
M  V30 175 C 16.766 0.731235 -2.91674 0
M  V30 176 C 18.314 0.82473 -3.01939 0
M  V30 177 C 18.789 0.975522 -4.4749 0
M  V30 178 N 20.28 1.04083 -4.51354 0
M  V30 179 C 21.015 1.17646 -5.61201 0
M  V30 180 N 20.511 1.27874 -6.80896 0
M  V30 181 N 22.304 1.20823 -5.48961 0
M  V30 182 H 14.455 -0.575456 -2.04456 0
M  V30 183 H 16.718 -0.196099 -0.927496 0
M  V30 184 H 16.424 -0.138392 -3.51428 0
M  V30 185 H 16.298 1.60883 -3.41169 0
M  V30 186 H 18.685 1.68482 -2.42276 0
M  V30 187 H 18.766 -0.0776479 -2.55682 0
M  V30 188 H 18.41 0.120058 -5.07758 0
M  V30 189 H 18.34 1.89268 -4.91412 0
M  V30 190 H 20.831 0.973846 -3.65136 0
M  V30 191 H 21.144 1.38081 -7.60364 0
M  V30 192 H 19.489 1.24863 -6.83692 0
M  V30 193 H 22.68 1.12469 -4.54388 0
M  V30 194 H 22.853 1.31049 -6.3461 0
M  V30 195 N 16.2591 1.48442 0.529413 0
M  V30 196 C 17.2071 1.63452 1.65487 0
M  V30 197 C 18.2011 0.500955 1.61823 0
M  V30 198 O 19.4071 0.679695 1.66674 0
M  V30 199 H 15.7821 0.514905 0.548066 0
M  V30 200 H 17.7531 2.57975 1.49971 0
M  V30 201 C 16.5021 1.69196 3.03756 0
M  V30 202 H 15.8251 2.55784 3.07269 0
M  V30 203 H 17.2651 1.83743 3.82119 0
M  V30 204 C 15.7241 0.430765 3.34135 0
M  V30 205 O 16.2541 -0.4561 3.99102 0
M  V30 206 N 14.4601 0.302293 2.89023 0
M  V30 207 H 14.0071 1.02496 2.36331 0
M  V30 208 H 13.9651 -0.540546 3.09718 0
M  V30 209 N 17.7372 -0.778329 1.37039 0
M  V30 210 C 18.9852 -1.53361 1.31623 0
M  V30 211 C 19.3062 -1.94739 -0.100831 0
M  V30 212 O 18.5762 -1.65797 -1.04347 0
M  V30 213 H 17.1562 -0.568794 0.484234 0
M  V30 214 H 19.8182 -0.926742 1.71457 0
M  V30 215 H 18.9142 -2.43606 1.95096 0
M  V30 216 N 19.2153 -1.21501 -1.00376 0
M  V30 217 C 20.4613 -1.03452 -1.74429 0
M  V30 218 C 20.7943 0.430764 -1.89362 0
M  V30 219 O 20.0693 1.31962 -1.42886 0
M  V30 220 C 20.3523 -1.73375 -3.15615 0
M  V30 221 C 20.2053 -3.27431 -3.08397 0
M  V30 222 C 21.5243 -1.47732 -4.14564 0
M  V30 223 H 18.6433 -0.377226 -0.633143 0
M  V30 224 H 21.2853 -1.49693 -1.17013 0
M  V30 225 H 19.4353 -1.34064 -3.64636 0
M  V30 226 H 21.1073 -3.76119 -2.67081 0
M  V30 227 H 19.3503 -3.5767 -2.45468 0
M  V30 228 H 20.0213 -3.71524 -4.08258 0
M  V30 229 H 22.4973 -1.8186 -3.74254 0
M  V30 230 H 21.3733 -1.99169 -5.11491 0
M  V30 231 H 21.6343 -0.407589 -4.40217 0
M  V30 232 N 20.6934 1.19889 -1.02296 0
M  V30 233 C 21.9334 1.91125 -0.724602 0
M  V30 234 C 22.2974 1.77464 0.732835 0
M  V30 235 O 23.4984 2.43241 1.144 0
M  V30 236 C 21.7694 3.38187 -1.15604 0
M  V30 237 S 23.3284 4.27702 -0.980621 0
M  V30 238 H 20.1464 0.66018 -0.263976 0
M  V30 239 H 22.7484 1.44978 -1.31155 0
M  V30 240 H 21.4524 3.45653 -2.21251 0
M  V30 241 H 20.9834 3.89363 -0.562131 0
M  V30 242 H 22.9984 4.96073 0.112225 0
M  V30 243 N 22.1715 0.800033 1.35784 0
M  V30 244 C 23.1015 0.220184 2.3246 0
M  V30 245 C 24.0825 -0.65073 1.57161 0
M  V30 246 O 25.2675 -0.582359 1.85263 0
M  V30 247 C 22.3975 -0.637353 3.41402 0
M  V30 248 C 21.3515 0.134531 4.27789 0
M  V30 249 C 20.6775 -0.844285 5.27992 0
M  V30 250 C 21.9775 1.32979 5.05088 0
M  V30 251 H 23.6715 1.02787 2.81203 0
M  V30 252 H 21.2175 0.495717 1.35199 0
M  V30 253 H 23.1705 -1.05302 4.08031 0
M  V30 254 H 21.8945 -1.47785 2.91251 0
M  V30 255 H 20.5535 0.531296 3.6273 0
M  V30 256 H 20.2015 -1.68011 4.74111 0
M  V30 257 H 19.9015 -0.332184 5.8666 0
M  V30 258 H 21.4255 -1.2583 5.97494 0
M  V30 259 H 22.8395 0.98934 5.64699 0
M  V30 260 H 21.2365 1.77593 5.7322 0
M  V30 261 H 22.3065 2.11978 4.36111 0
M  V30 262 N 23.6496 -1.47581 0.552962 0
M  V30 263 C 24.5996 -2.26961 -0.217423 0
M  V30 264 C 25.5836 -1.34099 -0.889168 0
M  V30 265 O 26.7756 -1.58483 -0.788176 0
M  V30 266 C 23.9046 -3.19756 -1.24944 0
M  V30 267 C 22.9906 -4.20097 -0.581327 0
M  V30 268 N 23.3816 -5.04614 0.346171 0
M  V30 269 C 21.6796 -4.38099 -0.835767 0
M  V30 270 C 22.3806 -5.77052 0.733854 0
M  V30 271 N 21.3566 -5.43526 0.0896567 0
M  V30 272 H 25.1586 -2.89688 0.495761 0
M  V30 273 H 22.6726 -1.58068 0.372597 0
M  V30 274 H 24.6696 -3.75305 -1.81527 0
M  V30 275 H 23.3296 -2.58585 -1.96376 0
M  V30 276 H 24.3406 -5.12869 0.720098 0
M  V30 277 H 21.0176 -3.88102 -1.53892 0
M  V30 278 H 22.4076 -6.5504 1.49574 0
M  V30 279 N 25.1277 -0.289203 -1.54924 0
M  V30 280 C 26.3577 0.325989 -2.04012 0
M  V30 281 C 26.7657 1.48961 -1.1665 0
M  V30 282 O 26.1087 1.82794 -0.1822 0
M  V30 283 C 26.1707 0.856112 -3.49158 0
M  V30 284 C 25.8347 -0.180697 -4.56643 0
M  V30 285 C 26.8317 -1.0051 -5.10092 0
M  V30 286 C 24.5167 -0.318998 -5.01286 0
M  V30 287 C 26.5107 -1.95385 -6.06715 0
M  V30 288 C 24.1977 -1.27121 -5.97732 0
M  V30 289 C 25.1957 -2.08713 -6.50329 0
M  V30 290 O 24.8837 -3.02322 -7.44887 0
M  V30 291 H 24.6157 0.0765276 -0.671654 0
M  V30 292 H 27.1697 -0.423254 -2.00992 0
M  V30 293 H 25.3997 1.65567 -3.49463 0
M  V30 294 H 27.0887 1.38591 -3.81507 0
M  V30 295 H 27.8547 -0.90906 -4.76404 0
M  V30 296 H 23.7337 0.306108 -4.59983 0
M  V30 297 H 27.2777 -2.59111 -6.47694 0
M  V30 298 H 23.1747 -1.36801 -6.30837 0
M  V30 299 H 23.9427 -2.97165 -7.6265 0
M  V30 300 N 26.6058 1.57591 -0.0167156 0
M  V30 301 C 27.8308 1.9598 0.67872 0
M  V30 302 C 28.2558 0.892546 1.65575 0
M  V30 303 O 27.6138 -0.147772 1.80697 0
M  V30 304 C 27.6618 3.33468 1.37227 0
M  V30 305 O 26.7658 3.28954 2.48722 0
M  V30 306 H 26.1068 0.639339 0.17928 0
M  V30 307 H 28.6368 2.04463 -0.0748802 0
M  V30 308 H 28.6468 3.69417 1.7319 0
M  V30 309 H 27.3218 4.10694 0.656007 0
M  V30 310 H 25.8988 3.04705 2.14963 0
M  V30 311 N 28.0839 -0.256276 1.55502 0
M  V30 312 C 28.9939 -1.33882 1.92647 0
M  V30 313 C 30.0099 -1.53159 0.825727 0
M  V30 314 O 31.1859 -1.66963 1.12629 0
M  V30 315 C 28.2509 -2.6751 2.20543 0
M  V30 316 C 27.3119 -2.56836 3.43997 0
M  V30 317 C 26.5449 -3.84092 3.70553 0
M  V30 318 O 26.7679 -4.85545 2.99336 0
M  V30 319 O 25.7019 -3.83288 4.64084 0
M  V30 320 H 29.5279 -1.05374 2.84833 0
M  V30 321 H 27.1129 -0.456237 1.42263 0
M  V30 322 H 28.9949 -3.46492 2.39835 0
M  V30 323 H 27.6699 -2.9577 1.31536 0
M  V30 324 H 26.5769 -1.76172 3.30021 0
M  V30 325 H 27.9099 -2.33523 4.33275 0
M  V30 326 N 29.562 -1.4872 -0.521534 0
M  V30 327 C 30.808 -1.58378 -1.27624 0
M  V30 328 C 31.163 -0.258028 -1.90662 0
M  V30 329 O 30.456 0.739917 -1.76736 0
M  V30 330 C 30.65 -2.66497 -2.38148 0
M  V30 331 C 30.479 -4.09456 -1.85945 0
M  V30 332 C 29.249 -4.76495 -1.68168 0
M  V30 333 C 31.447 -4.95353 -1.3831 0
M  V30 334 N 29.429 -6.0384 -1.1068 0
M  V30 335 C 30.8 -6.13012 -0.928238 0
M  V30 336 C 32.855 -4.81512 -1.26692 0
M  V30 337 C 31.558 -7.18354 -0.368701 0
M  V30 338 C 33.584 -5.86984 -0.721368 0
M  V30 339 C 32.946 -7.03857 -0.276623 0
M  V30 340 H 29.045 -0.634045 -0.457724 0
M  V30 341 H 31.629 -1.85639 -0.587049 0
M  V30 342 H 29.8 -2.41043 -3.04553 0
M  V30 343 H 31.532 -2.65791 -3.05184 0
M  V30 344 H 28.287 -4.32962 -1.91939 0
M  V30 345 H 28.711 -6.71778 -0.839217 0
M  V30 346 H 33.353 -3.91487 -1.5968 0
M  V30 347 H 31.071 -8.08096 -0.0265122 0
M  V30 348 H 34.657 -5.78329 -0.634531 0
M  V30 349 H 33.537 -7.84077 0.138947 0
M  V30 350 N 31.0401 0.771051 -1.3745 0
M  V30 351 C 31.9901 1.87456 -1.29785 0
M  V30 352 C 32.9741 1.59827 -0.185541 0
M  V30 353 O 34.1661 1.71945 -0.419997 0
M  V30 354 C 31.2951 3.24935 -1.1078 0
M  V30 355 C 30.3811 3.58514 -2.26558 0
M  V30 356 N 30.7721 3.6327 -3.5195 0
M  V30 357 C 29.0701 3.88683 -2.18727 0
M  V30 358 C 29.7711 3.93616 -4.283 0
M  V30 359 N 28.7471 4.09551 -3.57448 0
M  V30 360 H 32.5491 1.89386 -2.24745 0
M  V30 361 H 30.0631 0.967531 -1.30432 0
M  V30 362 H 32.0601 4.03881 -1.03374 0
M  V30 363 H 30.7201 3.24268 -0.16738 0
M  V30 364 H 31.7311 3.45458 -3.85848 0
M  V30 365 H 28.4081 3.95834 -1.32746 0
M  V30 366 H 29.7981 4.04066 -5.36824 0
M  V30 367 N 32.5182 1.22032 0.997298 0
M  V30 368 C 33.9342 0.979326 1.26021 0
M  V30 369 C 34.1342 -0.32972 1.98784 0
M  V30 370 O 33.1902 -1.05345 2.29475 0
M  V30 371 C 34.5032 2.17509 2.07631 0
M  V30 372 C 36.0512 2.21817 2.2083 0
M  V30 373 C 36.5262 3.40933 3.05825 0
M  V30 374 N 38.0172 3.41067 3.13412 0
M  V30 375 C 38.7522 4.29885 3.79455 0
M  V30 376 N 38.2482 5.28914 4.47462 0
M  V30 377 N 40.0412 4.17673 3.76173 0
M  V30 378 H 32.1922 2.06202 0.509352 0
M  V30 379 H 34.4552 0.90334 0.287541 0
M  V30 380 H 34.1612 3.12415 1.61524 0
M  V30 381 H 34.0352 2.17206 3.08385 0
M  V30 382 H 36.4222 1.27462 2.66153 0
M  V30 383 H 36.5032 2.2616 1.1952 0
M  V30 384 H 36.1472 4.35586 2.61203 0
M  V30 385 H 36.0772 3.33829 4.07266 0
M  V30 386 H 38.5682 2.69406 2.65007 0
M  V30 387 H 38.8812 5.92973 4.95583 0
M  V30 388 H 37.2262 5.32831 4.46224 0
M  V30 389 H 40.4172 3.39564 3.22202 0
M  V30 390 H 40.5902 4.87098 4.27363 0
M  V30 391 N 33.9963 -1.19345 1.0293 0
M  V30 392 C 34.9433 -2.2258 0.610464 0
M  V30 393 C 35.9133 -1.6179 -0.375946 0
M  V30 394 O 37.0983 -1.88844 -0.272511 0
M  V30 395 C 34.2383 -3.45085 -0.0321473 0
M  V30 396 C 33.3513 -4.20258 1.00035 0
M  V30 397 C 32.4863 -5.3019 0.32746 0
M  V30 398 C 31.5253 -5.97121 1.34584 0
M  V30 399 N 30.6623 -6.98615 0.698726 0
M  V30 400 H 35.5023 -2.57764 1.49538 0
M  V30 401 H 33.0393 -1.26644 0.748311 0
M  V30 402 H 34.9973 -4.15061 -0.421966 0
M  V30 403 H 33.6273 -3.10555 -0.88064 0
M  V30 404 H 32.6793 -3.49223 1.50823 0
M  V30 405 H 33.9913 -4.66175 1.77433 0
M  V30 406 H 33.1453 -6.06587 -0.11718 0
M  V30 407 H 31.8843 -4.85345 -0.478713 0
M  V30 408 H 30.8893 -5.19474 1.80074 0
M  V30 409 H 32.1143 -6.4405 2.15352 0
M  V30 410 H 30.0603 -6.55942 -0.0873471 0
M  V30 411 H 29.9773 -7.42724 1.41058 0
M  V30 412 H 31.2453 -7.79004 0.278102 0
M  V30 413 N 35.4744 -0.807222 -1.35358 0
M  V30 414 C 36.4214 -0.216037 -2.29787 0
M  V30 415 C 37.3914 0.650278 -1.52842 0
M  V30 416 O 38.5764 0.595227 -1.81278 0
M  V30 417 C 35.7164 0.628893 -3.39321 0
M  V30 418 C 34.8294 -0.257927 -4.31229 0
M  V30 419 C 33.9644 0.595069 -5.27856 0
M  V30 420 C 33.0034 -0.292111 -6.11403 0
M  V30 421 N 32.1404 0.520895 -7.00165 0
M  V30 422 H 36.9804 -1.02671 -2.79755 0
M  V30 423 H 34.5174 -0.517839 -1.37684 0
M  V30 424 H 36.4754 1.13393 -4.01494 0
M  V30 425 H 35.1054 1.40482 -2.90628 0
M  V30 426 H 34.1574 -0.881076 -3.70056 0
M  V30 427 H 35.4694 -0.940759 -4.89848 0
M  V30 428 H 34.6234 1.16522 -5.95405 0
M  V30 429 H 33.3624 1.31146 -4.69736 0
M  V30 430 H 32.3674 -0.874525 -5.428 0
M  V30 431 H 33.5924 -1.00638 -6.71602 0
M  V30 432 H 31.5384 1.22125 -6.44532 0
M  V30 433 H 31.4554 -0.103877 -7.55929 0
M  V30 434 H 32.7234 1.0743 -7.72062 0
M  V30 435 N 36.9525 1.47285 -0.560781 0
M  V30 436 C 37.8845 2.28118 0.222438 0
M  V30 437 C 38.8975 1.37219 0.876056 0
M  V30 438 O 40.0865 1.62011 0.749307 0
M  V30 439 C 37.1865 3.1159 1.33285 0
M  V30 440 C 36.3595 4.30473 0.77534 0
M  V30 441 C 35.4185 4.95513 1.77069 0
M  V30 442 O 34.4445 5.53792 1.31539 0
M  V30 443 N 35.6465 4.90531 3.10418 0
M  V30 444 H 38.4115 2.95976 -0.470958 0
M  V30 445 H 35.9725 1.56955 -0.39709 0
M  V30 446 H 37.9645 3.51967 1.99752 0
M  V30 447 H 36.5345 2.45951 1.92943 0
M  V30 448 H 35.7545 3.94144 -0.0662113 0
M  V30 449 H 37.0425 5.07362 0.382272 0
M  V30 450 H 36.4405 4.44389 3.5005 0
M  V30 451 H 34.9975 5.34917 3.72434 0
M  V30 452 N 38.4306 0.297415 1.54768 0
M  V30 453 C 39.3936 -0.567375 2.22066 0
M  V30 454 C 40.3936 -1.06409 1.20556 0
M  V30 455 O 41.5836 -0.960691 1.45315 0
M  V30 456 C 38.7156 -1.78517 2.90421 0
M  V30 457 H 39.9086 0.0205534 2.99893 0
M  V30 458 H 37.4616 0.0482163 1.56226 0
M  V30 459 H 38.1966 -2.41303 2.16664 0
M  V30 460 H 37.9816 -1.43669 3.64831 0
M  V30 461 H 39.4716 -2.39964 3.41771 0
M  V30 462 N 39.9087 -1.5758 0.0250728 0
M  V30 463 C 41.1567 -1.91255 -0.653151 0
M  V30 464 C 41.4777 -0.901691 -1.729 0
M  V30 465 O 40.7477 0.0573785 -1.95816 0
M  V30 466 H 39.3277 -0.705942 -0.244243 0
M  V30 467 H 41.9897 -1.94767 0.0719209 0
M  V30 468 H 41.0857 -2.91752 -1.10847 0
M  V30 469 N 41.3868 0.248026 -1.55636 0
M  V30 470 C 42.6358 0.974134 -1.76617 0
M  V30 471 C 42.9488 1.86528 -0.588796 0
M  V30 472 O 44.1548 2.62805 -0.681594 0
M  V30 473 C 42.6108 1.78213 -3.12679 0
M  V30 474 C 42.2188 0.93843 -4.38061 0
M  V30 475 C 43.9628 2.50104 -3.42999 0
M  V30 476 C 41.8698 1.74225 -5.65155 0
M  V30 477 H 40.7998 0.36745 -0.658405 0
M  V30 478 H 43.4508 0.22884 -1.82067 0
M  V30 479 H 41.8328 2.56933 -3.01333 0
M  V30 480 H 43.0068 0.193635 -4.60393 0
M  V30 481 H 41.3218 0.332905 -4.15067 0
M  V30 482 H 43.9188 3.10694 -4.3517 0
M  V30 483 H 44.2618 3.21662 -2.64271 0
M  V30 484 H 44.7948 1.78395 -3.55556 0
M  V30 485 H 41.5338 1.07043 -6.46701 0
M  V30 486 H 41.0538 2.46235 -5.46926 0
M  V30 487 H 42.7328 2.30967 -6.0437 0
M  V30 488 N 42.8649 1.48995 0.513639 0
M  V30 489 C 44.2759 1.5119 1.09537 0
M  V30 490 C 44.6269 0.290906 1.94031 0
M  V30 491 O 43.7519 -0.60049 2.07902 0
M  V30 492 C 44.3469 2.73964 1.99322 0
M  V30 493 C 42.9059 2.78978 2.52682 0
M  V30 494 C 42.0529 2.44934 1.30009 0
M  V30 495 H 45.0039 1.55875 0.298125 0
M  V30 496 H 45.0249 2.53409 2.83838 0
M  V30 497 H 44.5369 3.62813 1.37799 0
M  V30 498 H 42.6379 1.94378 3.1788 0
M  V30 499 H 42.7509 3.8083 2.90698 0
M  V30 500 H 41.1149 1.9644 1.62122 0
M  V30 501 H 41.8979 3.36043 0.702131 0
M  V30 502 N 44.343 -0.763751 1.37857 0
M  V30 503 C 45.29 -1.87726 1.34267 0
M  V30 504 C 46.26 -1.64807 0.206879 0
M  V30 505 O 47.445 -1.86613 0.397508 0
M  V30 506 C 44.585 -3.24896 1.16346 0
M  V30 507 C 43.698 -3.59716 2.39225 0
M  V30 508 C 42.833 -4.86137 2.14114 0
M  V30 509 C 41.872 -5.13711 3.32817 0
M  V30 510 N 41.009 -6.31323 3.07206 0
M  V30 511 H 45.849 -1.90129 2.29466 0
M  V30 512 H 43.386 -0.929433 1.14017 0
M  V30 513 H 45.344 -4.04036 1.03975 0
M  V30 514 H 43.974 -3.21847 0.247909 0
M  V30 515 H 43.026 -2.75498 2.62307 0
M  V30 516 H 44.338 -3.76027 3.27728 0
M  V30 517 H 43.492 -5.73198 1.9882 0
M  V30 518 H 42.231 -4.71945 1.22961 0
M  V30 519 H 41.236 -4.25123 3.48641 0
M  V30 520 H 42.461 -5.29807 4.24832 0
M  V30 521 H 40.407 -6.18474 2.1869 0
M  V30 522 H 40.324 -6.48087 3.89254 0
M  V30 523 H 41.592 -7.213 2.95546 0
M  V30 524 N 45.8211 -1.22559 -0.990812 0
M  V30 525 C 46.7311 -1.01394 -2.11557 0
M  V30 526 C 47.7471 0.0383962 -1.73958 0
M  V30 527 O 48.9231 -0.154787 -2.00804 0
M  V30 528 C 45.9881 -0.596569 -3.41529 0
M  V30 529 C 45.0491 -1.72276 -3.93217 0
M  V30 530 C 44.2821 -1.32521 -5.16985 0
M  V30 531 O 44.5051 -0.204909 -5.70032 0
M  V30 532 O 43.4391 -2.14247 -5.62478 0
M  V30 533 H 47.2651 -1.95633 -2.32296 0
M  V30 534 H 44.8501 -1.01172 -1.0993 0
M  V30 535 H 46.7321 -0.374263 -4.19735 0
M  V30 536 H 45.4071 0.316939 -3.22145 0
M  V30 537 H 44.3141 -1.99961 -3.16174 0
M  V30 538 H 45.6471 -2.61421 -4.17037 0
M  V30 539 N 47.2992 1.18797 -1.03562 0
M  V30 540 C 48.2092 2.25913 -0.632505 0
M  V30 541 C 49.2252 1.70668 0.338882 0
M  V30 542 O 50.4012 2.00453 0.195076 0
M  V30 543 C 47.4662 3.467 0.00350942 0
M  V30 544 C 46.5272 4.17098 -1.01624 0
M  V30 545 C 45.7602 5.32119 -0.410478 0
M  V30 546 O 45.9832 5.64976 0.784725 0
M  V30 547 O 44.9172 5.9107 -1.13667 0
M  V30 548 H 48.7432 2.62648 -1.52478 0
M  V30 549 H 46.3282 1.25781 -0.806195 0
M  V30 550 H 48.2102 4.19878 0.35781 0
M  V30 551 H 46.8852 3.11798 0.869686 0
M  V30 552 H 45.7922 3.4601 -1.42224 0
M  V30 553 H 47.1252 4.55987 -1.85301 0
M  V30 554 N 48.7773 0.814389 1.34928 0
M  V30 555 C 49.6873 0.231978 2.3345 0
M  V30 556 C 50.7033 -0.629139 1.62228 0
M  V30 557 O 51.8793 -0.539052 1.94052 0
M  V30 558 C 48.9443 -0.603482 3.41407 0
M  V30 559 C 48.0053 0.279037 4.28392 0
M  V30 560 C 47.2383 -0.516643 5.31193 0
M  V30 561 O 47.4613 -1.75068 5.4287 0
M  V30 562 O 46.3953 0.0965652 6.01823 0
M  V30 563 H 50.2213 1.04721 2.85074 0
M  V30 564 H 47.8063 0.576343 1.37836 0
M  V30 565 H 49.6883 -1.07908 4.0735 0
M  V30 566 H 48.3633 -1.39618 2.92042 0
M  V30 567 H 47.2703 0.801948 3.65403 0
M  V30 568 H 48.6033 1.03588 4.81176 0
M  V30 569 N 50.2554 -1.46986 0.568584 0
M  V30 570 C 51.4854 -2.0653 0.0539173 0
M  V30 571 C 51.8934 -1.42004 -1.25026 0
M  V30 572 O 51.2364 -0.514541 -1.76347 0
M  V30 573 C 51.2984 -3.58938 -0.200854 0
M  V30 574 C 50.9624 -4.45572 1.01559 0
M  V30 575 C 51.9594 -4.82986 1.92407 0
M  V30 576 C 49.6444 -4.8692 1.23346 0
M  V30 577 C 51.6384 -5.60559 3.03402 0
M  V30 578 C 49.3254 -5.64255 2.34649 0
M  V30 579 C 50.3234 -6.00986 3.24507 0
M  V30 580 O 50.0114 -6.76761 4.33878 0
M  V30 581 H 49.7434 -0.674292 0.0480234 0
M  V30 582 H 52.2974 -1.89812 0.784896 0
M  V30 583 H 50.5274 -3.73911 -0.986279 0
M  V30 584 H 52.2164 -4.0046 -0.662294 0
M  V30 585 H 52.9824 -4.51633 1.76785 0
M  V30 586 H 48.8614 -4.57789 0.543178 0
M  V30 587 H 52.4054 -5.89147 3.73565 0
M  V30 588 H 48.3024 -5.95021 2.5024 0
M  V30 589 H 49.0704 -6.95168 4.32068 0
M  V30 590 N 51.7335 -0.305618 -1.54608 0
M  V30 591 C 52.6805 0.568421 -2.23691 0
M  V30 592 C 53.6505 1.12592 -1.22116 0
M  V30 593 O 54.8355 1.16959 -1.50749 0
M  V30 594 C 51.9755 1.7322 -2.98477 0
M  V30 595 C 51.0885 1.20566 -4.14835 0
M  V30 596 C 50.2235 2.33368 -4.77193 0
M  V30 597 C 49.2625 1.7787 -5.85686 0
M  V30 598 N 48.3995 2.84263 -6.4198 0
M  V30 599 H 53.2395 -0.0272867 -2.97988 0
M  V30 600 H 50.7765 -0.0252363 -1.47078 0
M  V30 601 H 52.7345 2.41675 -3.40072 0
M  V30 602 H 51.3645 2.29947 -2.26548 0
M  V30 603 H 50.4165 0.413223 -3.78149 0
M  V30 604 H 51.7285 0.759417 -4.92985 0
M  V30 605 H 50.8825 3.09761 -5.21664 0
M  V30 606 H 49.6215 2.8132 -3.98385 0
M  V30 607 H 48.6265 0.99968 -5.40635 0
M  V30 608 H 49.8515 1.30816 -6.66381 0
M  V30 609 H 47.7975 3.31541 -5.66053 0
M  V30 610 H 47.7145 2.44149 -7.15491 0
M  V30 611 H 48.9825 3.6054 -6.91109 0
M  V30 612 N 53.2116 1.57565 -0.0334293 0
M  V30 613 C 54.1416 2.13511 0.945265 0
M  V30 614 C 55.1226 1.05231 1.33643 0
M  V30 615 O 56.3076 1.33084 1.41429 0
M  V30 616 C 53.4376 2.6657 2.22616 0
M  V30 617 C 52.3916 3.79676 1.97561 0
M  V30 618 C 51.7176 4.1918 3.31952 0
M  V30 619 C 53.0176 5.0557 1.31135 0
M  V30 620 H 54.7116 2.95538 0.479325 0
M  V30 621 H 52.2576 1.42166 0.229115 0
M  V30 622 H 54.2106 3.04344 2.91466 0
M  V30 623 H 52.9346 1.8171 2.71384 0
M  V30 624 H 51.5936 3.42347 1.31127 0
M  V30 625 H 51.2416 3.31296 3.78487 0
M  V30 626 H 50.9416 4.95402 3.15992 0
M  V30 627 H 52.4656 4.59541 4.02063 0
M  V30 628 H 53.8796 5.40903 1.89992 0
M  V30 629 H 52.2766 5.86818 1.25559 0
M  V30 630 H 53.3466 4.84062 0.284894 0
M  V30 631 N 54.6897 -0.239769 1.55765 0
M  V30 632 C 55.6227 -1.32356 1.85895 0
M  V30 633 C 56.6007 -1.46053 0.714662 0
M  V30 634 O 57.7847 -1.62154 0.961157 0
M  V30 635 C 54.9117 -2.6962 2.04994 0
M  V30 636 C 53.9577 -2.73036 3.27648 0
M  V30 637 S 54.7907 -2.28929 4.84099 0
M  V30 638 C 55.9467 -3.68103 5.06212 0
M  V30 639 H 56.1797 -1.06601 2.77531 0
M  V30 640 H 53.7127 -0.441112 1.47965 0
M  V30 641 H 55.6707 -3.48653 2.16682 0
M  V30 642 H 54.3317 -2.92609 1.14188 0
M  V30 643 H 53.5247 -3.7386 3.38 0
M  V30 644 H 53.1267 -2.02052 3.14723 0
M  V30 645 H 55.4187 -4.63656 4.93993 0
M  V30 646 H 56.3617 -3.6268 6.08168 0
M  V30 647 H 56.7697 -3.60947 4.34025 0
M  V30 648 N 56.1678 -1.49265 -0.50573 0
M  V30 649 C 57.3978 -1.61979 -1.28243 0
M  V30 650 C 57.8058 -0.288576 -1.86986 0
M  V30 651 O 57.1488 0.735408 -1.68337 0
M  V30 652 C 57.2108 -2.62632 -2.45489 0
M  V30 653 C 56.8748 -4.071 -2.07651 0
M  V30 654 C 57.8718 -4.94049 -1.61901 0
M  V30 655 C 55.5568 -4.52801 -2.17431 0
M  V30 656 C 57.5508 -6.24736 -1.26428 0
M  V30 657 C 55.2378 -5.83503 -1.8157 0
M  V30 658 C 56.2358 -6.69294 -1.36142 0
M  V30 659 O 55.9238 -7.9756 -1.00764 0
M  V30 660 H 55.6558 -0.54834 -0.395347 0
M  V30 661 H 58.2098 -1.96002 -0.614204 0
M  V30 662 H 56.4398 -2.2378 -3.15372 0
M  V30 663 H 58.1288 -2.64925 -3.07522 0
M  V30 664 H 58.8948 -4.5997 -1.53795 0
M  V30 665 H 54.7738 -3.86196 -2.51742 0
M  V30 666 H 58.3178 -6.91652 -0.908992 0
M  V30 667 H 54.2148 -6.17112 -1.89324 0
M  V30 668 H 54.9828 -8.10529 -1.13952 0
M  V30 669 N 57.6459 0.756429 -1.3826 0
M  V30 670 C 58.8939 1.51248 -1.34047 0
M  V30 671 C 59.2149 1.94875 0.0698372 0
M  V30 672 O 58.4849 1.67436 1.01696 0
M  V30 673 H 57.0649 0.561018 -0.493222 0
M  V30 674 H 59.7269 0.899347 -1.7291 0
M  V30 675 H 58.8229 2.40472 -1.98947 0
M  V30 676 N 59.124 1.23083 0.984299 0
M  V30 677 C 60.057 0.951786 2.07404 0
M  V30 678 C 61.035 -0.10848 1.62238 0
M  V30 679 O 62.219 0.0249467 1.88483 0
M  V30 680 C 59.346 0.433142 3.35919 0
M  V30 681 C 58.392 1.47941 4.0002 0
M  V30 682 S 59.225 3.05556 4.39768 0
M  V30 683 C 60.381 2.55351 5.71442 0
M  V30 684 H 60.614 1.87456 2.30754 0
M  V30 685 H 58.147 1.06284 1.11996 0
M  V30 686 H 60.105 0.140506 4.10259 0
M  V30 687 H 58.766 -0.468656 3.10584 0
M  V30 688 H 57.959 1.06658 4.92585 0
M  V30 689 H 57.561 1.7212 3.3204 0
M  V30 690 H 59.853 1.97128 6.48187 0
M  V30 691 H 60.796 3.46441 6.17563 0
M  V30 692 H 61.204 1.96339 5.29255 0
M  V30 693 N 60.6021 -1.18246 1.0419 0
M  V30 694 C 61.5321 -2.24127 0.654914 0
M  V30 695 C 62.5131 -1.66617 -0.342451 0
M  V30 696 O 63.6981 -1.92924 -0.222277 0
M  V30 697 C 60.8281 -3.47295 0.0183757 0
M  V30 698 C 59.7821 -4.17563 0.939414 0
M  V30 699 C 59.1081 -5.34438 0.167286 0
M  V30 700 C 60.4081 -4.70917 2.25908 0
M  V30 701 H 62.1021 -2.56753 1.54007 0
M  V30 702 H 59.6481 -1.23414 0.74195 0
M  V30 703 H 61.6011 -4.20572 -0.264082 0
M  V30 704 H 60.3251 -3.13907 -0.901664 0
M  V30 705 H 58.9841 -3.46186 1.20628 0
M  V30 706 H 58.6321 -4.97298 -0.7552 0
M  V30 707 H 58.3321 -5.82388 0.780901 0
M  V30 708 H 59.8561 -6.10504 -0.108125 0
M  V30 709 H 61.2701 -5.35882 2.03724 0
M  V30 710 H 59.6671 -5.29406 2.82577 0
M  V30 711 H 60.7371 -3.88272 2.9047 0
M  V30 712 N 62.0802 -0.821533 -1.34494 0
M  V30 713 C 63.3272 -0.408946 -1.98328 0
M  V30 714 C 63.6552 1.02764 -1.65136 0
M  V30 715 O 62.9102 1.73026 -0.914349 0
M  V30 716 C 63.2092 -0.556512 -3.53041 0
M  V30 717 C 62.8752 -1.95861 -4.0614 0
M  V30 718 C 61.5372 -2.34217 -4.20352 0
M  V30 719 C 63.8892 -2.87523 -4.34718 0
M  V30 720 C 61.2172 -3.63572 -4.6047 0
M  V30 721 C 63.5692 -4.1634 -4.76281 0
M  V30 722 C 62.2332 -4.54675 -4.88699 0
M  V30 723 H 61.5032 -0.149644 -0.725732 0
M  V30 724 H 64.1502 -1.04521 -1.6046 0
M  V30 725 H 62.4552 0.163148 -3.9146 0
M  V30 726 H 64.1522 -0.217826 -4.00408 0
M  V30 727 H 60.7422 -1.65066 -3.95539 0
M  V30 728 H 64.9262 -2.59133 -4.23277 0
M  V30 729 H 60.1822 -3.93101 -4.68275 0
M  V30 730 H 64.3562 -4.87455 -4.97354 0
M  V30 731 H 61.9832 -5.54959 -5.19542 0
M  V30 732 N 63.5583 1.46682 -0.576371 0
M  V30 733 C 64.7833 2.07304 -0.0630475 0
M  V30 734 C 65.2083 1.42329 1.2298 0
M  V30 735 O 64.5663 0.504865 1.74129 0
M  V30 736 C 64.6143 3.60472 0.095895 0
M  V30 737 O 63.7183 3.95927 1.15394 0
M  V30 738 H 63.0593 0.661288 -0.0599463 0
M  V30 739 H 65.5893 1.88417 -0.797511 0
M  V30 740 H 65.5993 4.06865 0.304071 0
M  V30 741 H 64.2743 4.07157 -0.84828 0
M  V30 742 H 62.8513 3.61252 0.924724 0
M  V30 743 N 65.0364 0.313813 1.54444 0
M  V30 744 C 66.2854 -0.292519 1.99568 0
M  V30 745 C 66.5984 -1.54011 1.20582 0
M  V30 746 O 67.8044 -2.22183 1.56035 0
M  V30 747 C 66.2604 -0.571752 3.55329 0
M  V30 748 C 65.8684 0.658229 4.43138 0
M  V30 749 C 67.6124 -1.13857 4.08946 0
M  V30 750 C 65.5194 0.351439 5.90355 0
M  V30 751 H 64.4494 -0.113079 0.745472 0
M  V30 752 H 67.1004 0.424518 1.78522 0
M  V30 753 H 65.4824 -1.34872 3.72325 0
M  V30 754 H 66.6564 1.43403 4.37918 0
M  V30 755 H 64.9714 1.14458 4.0036 0
M  V30 756 H 67.5684 -1.38257 5.16516 0
M  V30 757 H 67.9114 -2.08489 3.6033 0
M  V30 758 H 68.4444 -0.423015 3.95544 0
M  V30 759 H 65.1834 1.26667 6.43145 0
M  V30 760 H 64.7034 -0.386842 5.98551 0
M  V30 761 H 66.3824 -0.0423134 6.46986 0
M  V30 762 N 66.5145 -1.57545 0.0417849 0
M  V30 763 C 67.9305 -1.56467 -0.314704 0
M  V30 764 C 68.1305 -1.04859 -1.72066 0
M  V30 765 O 67.1865 -0.700983 -2.42575 0
M  V30 766 C 68.4995 -3.00317 -0.15174 0
M  V30 767 C 70.0475 -3.12201 -0.223553 0
M  V30 768 C 70.5225 -4.57913 -0.0892295 0
M  V30 769 N 72.0135 -4.6297 -0.145808 0
M  V30 770 C 72.7485 -5.73362 -0.0658459 0
M  V30 771 N 72.2445 -6.92769 0.0659282 0
M  V30 772 N 74.0375 -5.6197 -0.12075 0
M  V30 773 H 66.1885 -1.89416 0.961014 0
M  V30 774 H 68.4515 -0.871862 0.372237 0
M  V30 775 H 68.1575 -3.42073 0.817254 0
M  V30 776 H 68.0315 -3.65892 -0.916692 0
M  V30 777 H 70.4185 -2.70349 -1.18301 0
M  V30 778 H 70.4995 -2.49323 0.571994 0
M  V30 779 H 70.1435 -5.00448 0.866867 0
M  V30 780 H 70.0735 -5.18786 -0.903802 0
M  V30 781 H 72.5645 -3.7709 -0.247286 0
M  V30 782 H 72.8775 -7.72707 0.119905 0
M  V30 783 H 71.2225 -6.94927 0.100885 0
M  V30 784 H 74.4135 -4.67572 -0.222187 0
M  V30 785 H 74.5865 -6.47977 -0.0549735 0
M  V30 786 N 67.9926 0.231505 -1.5589 0
M  V30 787 C 69.2176 0.978689 -1.82856 0
M  V30 788 C 69.6426 1.77559 -0.620846 0
M  V30 789 O 69.0006 1.76119 0.430305 0
M  V30 790 C 69.0486 1.87997 -3.07716 0
M  V30 791 O 68.1526 2.97393 -2.85712 0
M  V30 792 H 67.4936 0.277663 -0.603158 0
M  V30 793 H 70.0236 0.24783 -2.03093 0
M  V30 794 H 70.0336 2.2917 -3.37558 0
M  V30 795 H 68.7086 1.29417 -3.95252 0
M  V30 796 H 67.2856 2.60238 -2.67078 0
M  V30 797 N 69.4707 1.49531 0.497807 0
M  V30 798 C 70.7177 1.59179 1.25173 0
M  V30 799 C 71.0457 0.279932 1.92475 0
M  V30 800 O 70.3007 -0.732383 1.81479 0
M  V30 801 C 70.5997 2.70252 2.33878 0
M  V30 802 C 70.2657 4.11644 1.84012 0
M  V30 803 C 68.9277 4.50121 1.70132 0
M  V30 804 C 71.2797 5.00121 1.46725 0
M  V30 805 C 68.6077 5.74845 1.17348 0
M  V30 806 C 70.9597 6.25366 0.95392 0
M  V30 807 C 69.6237 6.6267 0.801538 0
M  V30 808 H 68.8937 0.582478 0.45804 0
M  V30 809 H 71.5407 1.83373 0.551948 0
M  V30 810 H 69.8457 2.40041 3.09657 0
M  V30 811 H 71.5427 2.74925 2.9192 0
M  V30 812 H 68.1327 3.81274 1.95775 0
M  V30 813 H 72.3167 4.71048 1.56294 0
M  V30 814 H 67.5727 6.02444 1.04264 0
M  V30 815 H 71.7467 6.93301 0.656225 0
M  V30 816 H 69.3737 7.59197 0.390351 0
M  V30 817 N 70.9488 -0.749086 1.3866 0
M  V30 818 C 72.1948 -1.51056 1.35314 0
M  V30 819 C 72.5278 -1.94121 -0.0553751 0
M  V30 820 O 71.8028 -1.65763 -1.01749 0
M  V30 821 C 72.0858 -2.76003 2.31288 0
M  V30 822 C 71.9388 -2.39047 3.8102 0
M  V30 823 C 73.2578 -3.78046 2.2532 0
M  V30 824 H 70.3768 -0.547972 0.492844 0
M  V30 825 H 73.0188 -0.857628 1.69543 0
M  V30 826 H 71.1688 -3.31716 2.02229 0
M  V30 827 H 72.8408 -1.89074 4.20771 0
M  V30 828 H 71.0838 -1.71449 3.98482 0
M  V30 829 H 71.7548 -3.28462 4.4364 0
M  V30 830 H 74.2308 -3.31884 2.50983 0
M  V30 831 H 73.1068 -4.63159 2.94576 0
M  V30 832 H 73.3678 -4.23957 1.25352 0
M  V30 833 N 72.4269 -1.23603 -0.977757 0
M  V30 834 C 73.6519 -1.09735 -1.75991 0
M  V30 835 C 74.0769 0.346858 -1.84874 0
M  V30 836 O 73.4349 1.25093 -1.3123 0
M  V30 837 C 73.4829 -1.73051 -3.16363 0
M  V30 838 O 72.5869 -0.994452 -4.0023 0
M  V30 839 H 71.9279 -0.384476 -0.541364 0
M  V30 840 H 74.4579 -1.6371 -1.2272 0
M  V30 841 H 74.4679 -1.78398 -3.66931 0
M  V30 842 H 73.1429 -2.78137 -3.09213 0
M  V30 843 H 71.7199 -1.01812 -3.58732 0
M  V30 844 N 73.905 1.17692 -1.04816 0
M  V30 845 C 74.852 2.21581 -0.645797 0
M  V30 846 C 75.822 1.62367 0.350159 0
M  V30 847 O 77.007 1.89254 0.242433 0
M  V30 848 C 74.147 3.45092 -0.0227568 0
M  V30 849 C 73.26 4.18613 -1.06709 0
M  V30 850 C 72.395 5.29602 -0.411767 0
M  V30 851 C 71.434 5.94904 -1.44067 0
M  V30 852 N 70.571 6.97414 -0.809781 0
M  V30 853 H 75.411 2.55353 -1.5362 0
M  V30 854 H 72.948 1.25438 -0.768364 0
M  V30 855 H 74.906 4.15679 0.35588 0
M  V30 856 H 73.536 3.11917 0.831122 0
M  V30 857 H 72.588 3.46779 -1.5636 0
M  V30 858 H 73.9 4.63293 -1.84827 0
M  V30 859 H 73.054 6.06696 0.0206623 0
M  V30 860 H 71.793 4.86045 0.401438 0
M  V30 861 H 70.798 5.16544 -1.88316 0
M  V30 862 H 72.023 6.40542 -2.25571 0
M  V30 863 H 69.969 6.55998 -0.0170186 0
M  V30 864 H 69.886 7.40386 -1.52856 0
M  V30 865 H 71.154 7.78463 -0.401999 0
M  V30 866 N 75.3831 0.828654 1.34056 0
M  V30 867 C 76.3161 0.199763 2.27324 0
M  V30 868 C 77.2941 -0.647168 1.49166 0
M  V30 869 O 78.4781 -0.609661 1.78369 0
M  V30 870 C 75.6051 -0.720455 3.30949 0
M  V30 871 C 74.6511 0.0496888 4.26471 0
M  V30 872 S 75.4841 1.40072 5.16856 0
M  V30 873 C 76.6401 0.485527 6.24014 0
M  V30 874 H 76.8731 0.990478 2.80316 0
M  V30 875 H 74.4061 0.624857 1.41191 0
M  V30 876 H 76.3641 -1.24581 3.91139 0
M  V30 877 H 75.0251 -1.48474 2.76793 0
M  V30 878 H 74.2181 -0.650104 4.9979 0
M  V30 879 H 73.8201 0.505779 3.70564 0
M  V30 880 H 76.1121 -0.320672 6.76741 0
M  V30 881 H 77.0551 1.18856 6.98054 0
M  V30 882 H 77.4631 0.0714109 5.64455 0
M  V30 883 N 76.8612 -1.46375 0.584142 0
M  V30 884 C 78.0862 -2.07268 0.0740405 0
M  V30 885 C 78.5112 -1.42979 -1.22223 0
M  V30 886 O 77.8692 -0.514092 -1.73859 0
M  V30 887 C 77.9172 -3.60518 -0.0767769 0
M  V30 888 O 77.0212 -3.96533 -1.13292 0
M  V30 889 H 76.3622 -0.660961 0.0634524 0
M  V30 890 H 78.8922 -1.87991 0.807492 0
M  V30 891 H 78.9022 -4.07021 -0.282489 0
M  V30 892 H 77.5772 -4.06702 0.86986 0
M  V30 893 H 76.1542 -3.61738 -0.905553 0
M  V30 894 N 78.3393 -0.321999 -1.54275 0
M  V30 895 C 79.7503 0.166384 -1.85957 0
M  V30 896 C 80.1013 1.51747 -1.24367 0
M  V30 897 O 79.2263 2.09317 -0.549124 0
M  V30 898 C 79.8213 0.308681 -3.37391 0
M  V30 899 C 78.3803 0.741286 -3.69028 0
M  V30 900 C 77.5273 -0.137937 -2.76957 0
M  V30 901 H 80.4783 -0.542335 -1.49146 0
M  V30 902 H 80.4993 1.13984 -3.63026 0
M  V30 903 H 80.0113 -0.674809 -3.82188 0
M  V30 904 H 78.1123 1.73458 -3.29762 0
M  V30 905 H 78.2253 0.546118 -4.75977 0
M  V30 906 H 76.5893 0.386251 -2.51754 0
M  V30 907 H 77.3723 -1.11816 -3.2458 0
M  V30 908 N 79.8174 1.5752 -0.0501392 0
M  V30 909 C 80.7474 2.14502 0.922566 0
M  V30 910 C 81.7284 1.06642 1.3252 0
M  V30 911 O 82.9134 1.34577 1.4001 0
M  V30 912 C 80.0434 2.68916 2.19776 0
M  V30 913 C 78.9974 3.8175 1.93523 0
M  V30 914 C 78.3234 4.22677 3.27487 0
M  V30 915 C 79.6234 5.06932 1.25765 0
M  V30 916 H 81.3174 2.9603 0.447952 0
M  V30 917 H 78.8634 1.42401 0.214024 0
M  V30 918 H 80.8164 3.07419 2.88222 0
M  V30 919 H 79.5404 1.84578 2.69441 0
M  V30 920 H 78.1994 3.43718 1.27489 0
M  V30 921 H 77.8474 3.35291 3.74952 0
M  V30 922 H 77.5474 4.98725 3.1072 0
M  V30 923 H 79.0714 4.63779 3.97166 0
M  V30 924 H 80.4854 5.42888 1.84244 0
M  V30 925 H 78.8824 5.88116 1.19328 0
M  V30 926 H 79.9524 4.84337 0.233536 0
M  V30 927 N 81.2955 -0.223234 1.56011 0
M  V30 928 C 82.5725 -0.972108 1.69733 0
M  V30 929 C 82.9525 -2.02485 0.59691 0
M  V30 930 O 82.3005 -2.25037 -0.396324 0
M  V30 931 C 82.5105 -1.58407 3.10979 0
M  V30 932 C 83.8585 -2.07696 3.70334 0
M  V30 933 O 84.8825 -1.68304 3.1393 0
M  V30 934 O 83.7415 -2.80096 4.69264 0
M  V30 935 H 80.8355 -0.453993 0.691245 0
M  V30 936 H 83.3815 -0.215149 1.68331 0
M  V30 937 H 82.1535 -0.823831 3.82529 0
M  V30 938 H 81.7765 -2.40661 3.16493 0
M  V30 939 N 82.7736 -1.49793 -0.48987 0
M  V30 940 C 83.7066 -1.61898 -1.60823 0
M  V30 941 C 84.6846 -0.467651 -1.5573 0
M  V30 942 O 85.8686 -0.684682 -1.75626 0
M  V30 943 C 82.9956 -1.58422 -2.99366 0
M  V30 944 C 82.0416 -2.78889 -3.22682 0
M  V30 945 S 82.8746 -4.40429 -3.04602 0
M  V30 946 C 84.0306 -4.39617 -4.4552 0
M  V30 947 H 84.2636 -2.56502 -1.50312 0
M  V30 948 H 81.7966 -1.38822 -0.675849 0
M  V30 949 H 83.7546 -1.57103 -3.79248 0
M  V30 950 H 82.4156 -0.650866 -3.07283 0
M  V30 951 H 81.6086 -2.72708 -4.23847 0
M  V30 952 H 81.2106 -2.77678 -2.50541 0
M  V30 953 H 83.5026 -4.12022 -5.37814 0
M  V30 954 H 84.4456 -5.41097 -4.56749 0
M  V30 955 H 84.8536 -3.69554 -4.2672 0
M  V30 956 N 84.2517 0.741722 -1.39055 0
M  V30 957 C 85.1987 1.85566 -1.37237 0
M  V30 958 C 86.1687 1.64457 -0.233072 0
M  V30 959 O 87.3537 1.85957 -0.427147 0
M  V30 960 C 84.4937 3.23004 -1.215 0
M  V30 961 C 83.6067 3.55864 -2.44918 0
M  V30 962 C 82.7417 4.82669 -2.21821 0
M  V30 963 C 81.7807 5.08351 -3.40948 0
M  V30 964 N 80.9177 6.26356 -3.17211 0
M  V30 965 H 85.7577 1.86455 -2.32462 0
M  V30 966 H 83.2947 0.911176 -1.15482 0
M  V30 967 H 85.2527 4.02331 -1.10389 0
M  V30 968 H 83.8827 3.21411 -0.29908 0
M  V30 969 H 82.9347 2.7129 -2.66657 0
M  V30 970 H 84.2467 3.70765 -3.33668 0
M  V30 971 H 83.4007 5.69962 -2.07914 0
M  V30 972 H 82.1397 4.69929 -1.30454 0
M  V30 973 H 81.1447 4.19522 -3.55361 0
M  V30 974 H 82.3697 5.22981 -4.33207 0
M  V30 975 H 80.3157 6.14917 -2.28502 0
M  V30 976 H 80.2327 6.41813 -3.99515 0
M  V30 977 H 81.5007 7.16506 -3.06984 0
M  V30 978 N 85.7298 1.2412 0.971189 0
M  V30 979 C 87.0068 0.986867 1.6888 0
M  V30 980 C 87.3868 -0.491857 2.0529 0
M  V30 981 O 86.7348 -1.46531 1.75331 0
M  V30 982 C 86.9448 1.9063 2.92338 0
M  V30 983 C 88.2928 2.17515 3.64654 0
M  V30 984 O 89.3168 1.88254 3.02388 0
M  V30 985 O 88.1758 2.6719 4.7673 0
M  V30 986 H 85.2698 0.372944 0.738134 0
M  V30 987 H 87.8158 1.35203 1.02559 0
M  V30 988 H 86.5878 2.90552 2.62097 0
M  V30 989 H 86.2108 1.54408 3.66393 0
M  V30 990 N 87.2079 -1.17134 1.05439 0
M  V30 991 C 88.4559 -1.87085 0.764429 0
M  V30 992 C 88.7769 -1.81584 -0.710787 0
M  V30 993 O 88.0469 -1.24349 -1.51374 0
M  V30 994 H 86.6269 -0.692627 0.279779 0
M  V30 995 H 89.2889 -1.42087 1.33406 0
M  V30 996 H 88.3849 -2.92759 1.0816 0
M  V30 997 N 88.686 -0.835752 -1.33615 0
M  V30 998 C 89.933 -0.429959 -1.97883 0
M  V30 999 C 90.261 1.01006 -1.66217 0
M  V30 1000 O 89.516 1.72047 -0.93265 0
M  V30 1001 C 89.815 -0.593925 -3.52431 0
M  V30 1002 C 89.481 -2.00158 -4.04039 0
M  V30 1003 C 88.143 -2.38662 -4.17844 0
M  V30 1004 C 90.495 -2.92117 -4.31644 0
M  V30 1005 C 87.823 -3.68435 -4.56588 0
M  V30 1006 C 90.175 -4.21368 -4.71838 0
M  V30 1007 C 88.839 -4.59833 -4.83849 0
M  V30 1008 H 88.109 -0.157333 -0.724104 0
M  V30 1009 H 90.756 -1.06217 -1.59343 0
M  V30 1010 H 89.061 0.121619 -3.91611 0
M  V30 1011 H 90.758 -0.260282 -4.00154 0
M  V30 1012 H 87.348 -1.69252 -3.93766 0
M  V30 1013 H 91.532 -2.63608 -4.20505 0
M  V30 1014 H 86.788 -3.98046 -4.64079 0
M  V30 1015 H 90.962 -4.92703 -4.92155 0
M  V30 1016 H 88.589 -5.60438 -5.13627 0
M  V30 1017 N 90.1641 1.46063 -0.591896 0
M  V30 1018 C 91.0941 2.33172 0.123673 0
M  V30 1019 C 92.0751 1.45897 0.87453 0
M  V30 1020 O 93.2601 1.74698 0.848181 0
M  V30 1021 C 90.3901 3.28336 1.13194 0
M  V30 1022 C 89.3441 4.25124 0.495324 0
M  V30 1023 C 88.6701 5.09863 1.61071 0
M  V30 1024 C 89.9701 5.19143 -0.573425 0
M  V30 1025 H 91.6641 2.93252 -0.603646 0
M  V30 1026 H 89.2101 1.41014 -0.291741 0
M  V30 1027 H 91.1631 3.88137 1.64097 0
M  V30 1028 H 89.8871 2.66383 1.88965 0
M  V30 1029 H 88.5461 3.66599 0.00729452 0
M  V30 1030 H 88.1941 4.44288 2.35832 0
M  V30 1031 H 87.8941 5.75417 1.19035 0
M  V30 1032 H 89.4181 5.72529 2.12233 0
M  V30 1033 H 90.8321 5.73106 -0.1491 0
M  V30 1034 H 89.2291 5.93089 -0.914636 0
M  V30 1035 H 90.2991 4.62519 -1.45617 0
M  V30 1036 N 91.6422 0.330177 1.54103 0
M  V30 1037 C 92.6052 -0.520144 2.2322 0
M  V30 1038 C 93.6052 -1.03828 1.22786 0
M  V30 1039 O 94.7952 -0.929652 1.4732 0
M  V30 1040 C 91.9272 -1.72317 2.94142 0
M  V30 1041 H 93.1202 0.0841605 2.99782 0
M  V30 1042 H 90.6732 0.0813433 1.56088 0
M  V30 1043 H 91.4082 -2.36653 2.21734 0
M  V30 1044 H 91.1932 -1.35898 3.67796 0
M  V30 1045 H 92.6832 -2.3266 3.46784 0
M  V30 1046 N 93.1203 -1.57491 0.0584922 0
M  V30 1047 C 94.3673 -1.92978 -0.613648 0
M  V30 1048 C 94.6953 -0.937461 -1.70417 0
M  V30 1049 O 93.9503 0.049078 -1.95638 0
M  V30 1050 C 94.2493 -3.3513 -1.24188 0
M  V30 1051 C 93.9153 -4.50037 -0.278826 0
M  V30 1052 C 92.5773 -4.81198 -0.0138447 0
M  V30 1053 C 94.9293 -5.19807 0.380777 0
M  V30 1054 C 92.2573 -5.79473 0.918052 0
M  V30 1055 C 94.6093 -6.19079 1.30091 0
M  V30 1056 C 93.2733 -6.48665 1.57449 0
M  V30 1057 H 92.5433 -0.706157 -0.22455 0
M  V30 1058 H 95.1903 -1.91082 0.126533 0
M  V30 1059 H 93.4953 -3.33429 -2.05749 0
M  V30 1060 H 95.1923 -3.59871 -1.769 0
M  V30 1061 H 91.7823 -4.25726 -0.495539 0
M  V30 1062 H 95.9663 -4.95939 0.189158 0
M  V30 1063 H 91.2223 -6.00727 1.1374 0
M  V30 1064 H 95.3963 -6.7225 1.81804 0
M  V30 1065 H 93.0233 -7.24628 2.29822 0
M  V30 1066 N 94.5984 0.214957 -1.56127 0
M  V30 1067 C 95.5304 1.29004 -1.89448 0
M  V30 1068 C 96.5434 1.42716 -0.783326 0
M  V30 1069 O 97.7324 1.43496 -1.06166 0
M  V30 1070 C 94.8324 2.66482 -2.09381 0
M  V30 1071 C 94.0054 2.74633 -3.40434 0
M  V30 1072 C 93.0644 3.9317 -3.49719 0
M  V30 1073 O 92.0904 3.812 -4.227 0
M  V30 1074 N 93.2924 5.07765 -2.81346 0
M  V30 1075 H 96.0574 1.00743 -2.82261 0
M  V30 1076 H 93.6184 0.40497 -1.56753 0
M  V30 1077 H 95.6104 3.44173 -2.12901 0
M  V30 1078 H 94.1804 2.87314 -1.23163 0
M  V30 1079 H 93.4004 1.83368 -3.48955 0
M  V30 1080 H 94.6884 2.77054 -4.26754 0
M  V30 1081 H 94.0864 5.20386 -2.21843 0
M  V30 1082 H 92.6434 5.83474 -2.90519 0
M  V30 1083 N 96.0765 1.50051 0.48192 0
M  V30 1084 C 97.3045 1.64237 1.25832 0
M  V30 1085 C 97.7195 0.321336 1.86045 0
M  V30 1086 O 97.0765 -0.695478 1.68729 0
M  V30 1087 C 97.1275 2.72548 2.37487 0
M  V30 1088 O 96.8485 3.99529 1.79745 0
M  V30 1089 C 98.3495 2.9761 3.28547 0
M  V30 1090 H 95.5695 0.55237 0.380957 0
M  V30 1091 H 98.1135 1.96207 0.576467 0
M  V30 1092 H 96.2685 2.43303 3.01467 0
M  V30 1093 H 96.6825 4.59342 2.5319 0
M  V30 1094 H 98.1565 3.77084 4.03127 0
M  V30 1095 H 98.6335 2.0826 3.86684 0
M  V30 1096 H 99.2395 3.28345 2.70314 0
M  V30 1097 N 97.5546 -0.734337 1.39446 0
M  V30 1098 C 98.7796 -1.52866 1.40167 0
M  V30 1099 C 99.2046 -1.881 -0.00171513 0
M  V30 1100 O 98.5626 -1.51957 -0.988879 0
M  V30 1101 C 98.6106 -2.79235 2.28167 0
M  V30 1102 O 97.7146 -3.75185 1.71201 0
M  V30 1103 H 97.0556 -0.461618 0.477289 0
M  V30 1104 H 99.5856 -0.905949 1.8345 0
M  V30 1105 H 99.5956 -3.27963 2.42702 0
M  V30 1106 H 98.2706 -2.52923 3.30156 0
M  V30 1107 H 96.8476 -3.33958 1.65912 0
M  V30 1108 N 99.0327 -1.24633 -0.964593 0
M  V30 1109 C 100.449 -1.01239 -1.2338 0
M  V30 1110 C 100.649 0.2769 -1.99588 0
M  V30 1111 O 99.7047 0.992241 -2.32187 0
M  V30 1112 C 101.018 -2.22937 -2.01791 0
M  V30 1113 C 102.566 -2.27594 -2.14872 0
M  V30 1114 C 103.041 -3.48921 -2.96678 0
M  V30 1115 N 104.532 -3.49257 -3.04259 0
M  V30 1116 C 105.267 -4.39795 -3.67924 0
M  V30 1117 N 104.763 -5.40591 -4.33281 0
M  V30 1118 N 106.556 -4.275 -3.64966 0
M  V30 1119 H 98.7067 -2.0748 -0.454502 0
M  V30 1120 H 100.97 -0.910647 -0.26349 0
M  V30 1121 H 100.676 -3.16587 -1.53184 0
M  V30 1122 H 100.55 -2.25306 -3.02518 0
M  V30 1123 H 102.937 -1.34473 -2.6268 0
M  V30 1124 H 103.018 -2.2925 -1.13482 0
M  V30 1125 H 102.662 -4.42359 -2.49562 0
M  V30 1126 H 102.592 -3.4451 -3.98272 0
M  V30 1127 H 105.083 -2.76337 -2.57771 0
M  V30 1128 H 105.396 -6.05904 -4.79687 0
M  V30 1129 H 103.741 -5.44475 -4.3194 0
M  V30 1130 H 106.932 -3.47987 -3.13086 0
M  V30 1131 H 107.105 -4.98258 -4.14298 0
M  V30 1132 N 100.511 1.16574 -1.06058 0
M  V30 1133 C 101.741 1.90675 -0.795397 0
M  V30 1134 C 102.149 1.77547 0.653735 0
M  V30 1135 O 101.492 1.11611 1.45907 0
M  V30 1136 C 101.554 3.42011 -1.10764 0
M  V30 1137 C 101.218 3.78924 -2.55471 0
M  V30 1138 C 102.215 3.81042 -3.53699 0
M  V30 1139 C 99.8998 4.09626 -2.90708 0
M  V30 1140 C 101.894 4.13346 -4.85205 0
M  V30 1141 C 99.5808 4.41597 -4.22416 0
M  V30 1142 C 100.579 4.43436 -5.19474 0
M  V30 1143 O 100.267 4.74649 -6.48817 0
M  V30 1144 H 99.9988 0.611554 -0.288058 0
M  V30 1145 H 102.553 1.48711 -1.41683 0
M  V30 1146 H 100.783 3.84312 -0.429128 0
M  V30 1147 H 102.472 3.97384 -0.827077 0
M  V30 1148 H 103.238 3.57437 -3.27817 0
M  V30 1149 H 99.1168 4.07361 -2.15819 0
M  V30 1150 H 102.661 4.14696 -5.60957 0
M  V30 1151 H 98.5578 4.64667 -4.48056 0
M  V30 1152 H 99.3258 4.9247 -6.5377 0
M  V30 1153 N 101.989 0.842826 1.3317 0
M  V30 1154 C 102.936 0.276885 2.29133 0
M  V30 1155 C 103.906 -0.609527 1.54512 0
M  V30 1156 O 105.091 -0.546955 1.82792 0
M  V30 1157 C 102.231 -0.538707 3.40869 0
M  V30 1158 C 101.344 0.372169 4.30394 0
M  V30 1159 C 100.479 -0.454908 5.29249 0
M  V30 1160 C 99.5179 0.45411 6.10413 0
M  V30 1161 N 98.6549 -0.335075 7.013 0
M  V30 1162 H 103.495 1.10052 2.76934 0
M  V30 1163 H 101.032 0.554161 1.36262 0
M  V30 1164 H 102.99 -1.02709 4.0436 0
M  V30 1165 H 101.62 -1.32727 2.9425 0
M  V30 1166 H 100.672 0.97888 3.6759 0
M  V30 1167 H 101.984 1.0703 4.87182 0
M  V30 1168 H 101.138 -1.00695 5.98285 0
M  V30 1169 H 99.8769 -1.18646 4.73048 0
M  V30 1170 H 98.8819 1.01813 5.40291 0
M  V30 1171 H 100.107 1.18409 6.68697 0
M  V30 1172 H 98.0529 -1.04994 6.47543 0
M  V30 1173 H 97.9699 0.304262 7.55387 0
M  V30 1174 H 99.2379 -0.869224 7.74638 0
M  V30 1175 N 103.467 -1.45747 0.599634 0
M  V30 1176 C 104.397 -2.33235 -0.111306 0
M  V30 1177 C 105.378 -1.46359 -0.866781 0
M  V30 1178 O 106.563 -1.75146 -0.838904 0
M  V30 1179 C 103.693 -3.28932 -1.11451 0
M  V30 1180 C 102.647 -4.25381 -0.472772 0
M  V30 1181 C 101.973 -5.1071 -1.58365 0
M  V30 1182 C 103.273 -5.18831 0.600948 0
M  V30 1183 H 104.967 -2.92927 0.61919 0
M  V30 1184 H 102.513 -1.40857 0.299215 0
M  V30 1185 H 104.466 -3.89002 -1.62036 0
M  V30 1186 H 103.19 -2.67381 -1.8755 0
M  V30 1187 H 101.849 -3.66598 0.0121472 0
M  V30 1188 H 101.497 -4.45533 -2.33473 0
M  V30 1189 H 101.197 -5.7604 -1.15982 0
M  V30 1190 H 102.721 -5.73647 -2.09194 0
M  V30 1191 H 104.135 -5.73019 0.179491 0
M  V30 1192 H 102.532 -5.92595 0.946076 0
M  V30 1193 H 103.602 -4.6174 1.48068 0
M  V30 1194 N 104.945 -0.338344 -1.53925 0
M  V30 1195 C 105.895 0.536712 -2.21593 0
M  V30 1196 C 106.879 1.07015 -1.20153 0
M  V30 1197 O 108.071 1.00471 -1.45721 0
M  V30 1198 C 105.2 1.68977 -2.98834 0
M  V30 1199 C 104.286 1.17052 -4.07627 0
M  V30 1200 N 104.677 0.372085 -5.0443 0
M  V30 1201 C 102.975 1.44789 -4.21844 0
M  V30 1202 C 103.676 0.0909171 -5.81629 0
M  V30 1203 N 102.652 0.681131 -5.39316 0
M  V30 1204 H 106.454 -0.0804298 -2.9379 0
M  V30 1205 H 103.968 -0.144943 -1.61752 0
M  V30 1206 H 105.965 2.32857 -3.45808 0
M  V30 1207 H 104.625 2.31024 -2.28162 0
M  V30 1208 H 105.636 0.0136217 -5.17898 0
M  V30 1209 H 102.313 2.07313 -3.62391 0
M  V30 1210 H 103.703 -0.552817 -6.69622 0
M  V30 1211 N 106.423 1.57458 -0.0668435 0
M  V30 1212 C 107.653 1.97337 0.611677 0
M  V30 1213 C 108.061 0.943744 1.63982 0
M  V30 1214 O 107.404 -0.0785584 1.83532 0
M  V30 1215 C 107.466 3.33511 1.34205 0
M  V30 1216 C 107.13 4.54598 0.467941 0
M  V30 1217 C 108.127 5.19186 -0.272439 0
M  V30 1218 C 105.812 5.0075 0.39427 0
M  V30 1219 C 107.806 6.28274 -1.07476 0
M  V30 1220 C 105.493 6.09711 -0.411729 0
M  V30 1221 C 106.491 6.73335 -1.14492 0
M  V30 1222 O 106.179 7.80199 -1.93763 0
M  V30 1223 H 105.911 0.654042 0.170893 0
M  V30 1224 H 108.465 2.04961 -0.134289 0
M  V30 1225 H 106.695 3.22487 2.13398 0
M  V30 1226 H 108.384 3.58029 1.91233 0
M  V30 1227 H 109.15 4.84477 -0.225086 0
M  V30 1228 H 105.029 4.51009 0.954569 0
M  V30 1229 H 108.573 6.77866 -1.64755 0
M  V30 1230 H 104.47 6.43854 -0.460664 0
M  V30 1231 H 105.238 7.97053 -1.86142 0
M  V30 1232 N 107.901 -0.206675 1.56239 0
M  V30 1233 C 109.131 -0.943975 1.83773 0
M  V30 1234 C 109.539 -1.77841 0.645703 0
M  V30 1235 O 108.882 -1.79403 -0.395008 0
M  V30 1236 C 108.944 -1.899 3.05251 0
M  V30 1237 C 108.608 -1.24764 4.39639 0
M  V30 1238 C 109.605 -0.630216 5.16066 0
M  V30 1239 C 107.29 -1.25496 4.8637 0
M  V30 1240 C 109.284 -0.0287946 6.37393 0
M  V30 1241 C 106.971 -0.649698 6.07637 0
M  V30 1242 C 107.969 -0.0376845 6.8299 0
M  V30 1243 O 107.657 0.55812 8.0196 0
M  V30 1244 H 107.389 -0.281508 0.614597 0
M  V30 1245 H 109.943 -0.222458 2.04192 0
M  V30 1246 H 108.173 -2.6599 2.80689 0
M  V30 1247 H 109.862 -2.5031 3.1953 0
M  V30 1248 H 110.628 -0.616785 4.81062 0
M  V30 1249 H 106.507 -1.72072 4.27683 0
M  V30 1250 H 110.051 0.449518 6.9615 0
M  V30 1251 H 105.948 -0.660592 6.42111 0
M  V30 1252 H 106.716 0.453891 8.17241 0
M  V30 1253 N 109.379 -1.50304 -0.473955 0
M  V30 1254 C 110.289 -1.7174 -1.5982 0
M  V30 1255 C 111.305 -0.600457 -1.63311 0
M  V30 1256 O 112.481 -0.878441 -1.81233 0
M  V30 1257 C 109.546 -1.80427 -2.96052 0
M  V30 1258 C 108.607 -3.04148 -3.02972 0
M  V30 1259 C 107.84 -3.12411 -4.32706 0
M  V30 1260 O 108.063 -2.27542 -5.23049 0
M  V30 1261 O 106.997 -4.05113 -4.45159 0
M  V30 1262 H 110.823 -2.67035 -1.44657 0
M  V30 1263 H 108.408 -1.34366 -0.653148 0
M  V30 1264 H 110.29 -1.88338 -3.7697 0
M  V30 1265 H 108.965 -0.883156 -3.11419 0
M  V30 1266 H 107.872 -3.0174 -2.21142 0
M  V30 1267 H 109.205 -3.95829 -2.92541 0
M  V30 1268 N 110.857 0.726932 -1.39834 0
M  V30 1269 C 112.085 1.51613 -1.40787 0
M  V30 1270 C 112.5 1.88799 -0.00451505 0
M  V30 1271 O 111.857 1.54662 0.968809 0
M  V30 1272 C 111.908 2.79863 -2.28821 0
M  V30 1273 O 111.629 2.44253 -3.63692 0
M  V30 1274 C 113.13 3.73837 -2.38245 0
M  V30 1275 H 110.35 0.468264 -0.480593 0
M  V30 1276 H 112.894 0.897607 -1.83748 0
M  V30 1277 H 111.049 3.38027 -1.89252 0
M  V30 1278 H 111.463 3.26695 -4.1033 0
M  V30 1279 H 112.937 4.60699 -3.04073 0
M  V30 1280 H 113.414 4.16153 -1.40403 0
M  V30 1281 H 114.02 3.21589 -2.78317 0
M  V30 1282 N 112.336 1.25143 0.95797 0
M  V30 1283 C 113.747 1.08851 1.51685 0
M  V30 1284 C 114.098 -0.33687 1.93286 0
M  V30 1285 O 113.223 -1.22644 1.7829 0
M  V30 1286 C 113.818 1.96978 2.75654 0
M  V30 1287 C 112.377 1.84881 3.27866 0
M  V30 1288 C 111.524 1.91329 2.0072 0
M  V30 1289 H 114.475 1.38478 0.77522 0
M  V30 1290 H 114.496 1.5078 3.4935 0
M  V30 1291 H 114.008 3.00712 2.45345 0
M  V30 1292 H 112.109 0.840182 3.63004 0
M  V30 1293 H 112.222 2.6951 3.96107 0
M  V30 1294 H 110.586 1.35174 2.15871 0
M  V30 1295 H 111.369 2.96661 1.72764 0
M  V30 1296 N 113.814 -1.1601 1.06675 0
M  V30 1297 C 115.042 -1.90527 0.806667 0
M  V30 1298 C 115.457 -1.77643 -0.639396 0
M  V30 1299 O 114.814 -1.12369 -1.43803 0
M  V30 1300 C 114.865 -3.41106 1.19705 0
M  V30 1301 O 114.586 -3.53608 2.58636 0
M  V30 1302 C 116.087 -4.32663 0.965266 0
M  V30 1303 H 113.307 -0.604053 0.292166 0
M  V30 1304 H 115.851 -1.47026 1.4214 0
M  V30 1305 H 114.006 -3.82296 0.626774 0
M  V30 1306 H 114.42 -4.47011 2.74375 0
M  V30 1307 H 115.894 -5.36763 1.288 0
M  V30 1308 H 116.371 -4.39089 -0.0987936 0
M  V30 1309 H 116.977 -3.97206 1.52011 0
M  V30 1310 N 115.292 -0.849877 -1.32721 0
M  V30 1311 C 116.54 -0.450032 -1.97026 0
M  V30 1312 C 116.861 0.996604 -1.67609 0
M  V30 1313 O 116.131 1.6958 -0.980786 0
M  V30 1314 H 114.711 -0.163426 -0.728904 0
M  V30 1315 H 117.373 -1.08526 -1.6189 0
M  V30 1316 H 116.469 -0.591146 -3.0645 0
M  V30 1317 N 116.77 1.45427 -0.607355 0
M  V30 1318 C 118.019 2.01452 -0.100036 0
M  V30 1319 C 118.332 1.48159 1.27704 0
M  V30 1320 O 119.538 1.96159 1.87707 0
M  V30 1321 C 117.994 3.59672 -0.128158 0
M  V30 1322 C 117.602 4.21962 -1.50507 0
M  V30 1323 C 119.346 4.23262 0.323932 0
M  V30 1324 C 117.253 5.72333 -1.48959 0
M  V30 1325 H 116.183 0.75325 -0.0336299 0
M  V30 1326 H 118.834 1.66901 -0.76265 0
M  V30 1327 H 117.216 3.91411 0.601105 0
M  V30 1328 H 118.39 4.01796 -2.25602 0
M  V30 1329 H 116.705 3.70565 -1.89923 0
M  V30 1330 H 119.302 5.33522 0.354691 0
M  V30 1331 H 119.645 3.93921 1.34656 0
M  V30 1332 H 120.178 3.96239 -0.352056 0
M  V30 1333 H 116.917 6.06373 -2.48981 0
M  V30 1334 H 116.437 5.94691 -0.781214 0
M  V30 1335 H 118.116 6.35525 -1.21313 0
M  V30 1336 N 118.248 0.346503 1.53744 0
M  V30 1337 C 119.195 -0.508914 2.25119 0
M  V30 1338 C 120.165 -1.09315 1.25058 0
M  V30 1339 O 121.35 -1.12921 1.53797 0
M  V30 1340 C 118.49 -1.65246 3.02965 0
M  V30 1341 C 117.603 -1.09525 4.17886 0
M  V30 1342 C 116.738 -2.20634 4.83212 0
M  V30 1343 C 115.777 -1.62279 5.90196 0
M  V30 1344 N 114.914 -2.67143 6.49291 0
M  V30 1345 H 119.754 0.106283 2.9781 0
M  V30 1346 H 117.291 0.0642227 1.4696 0
M  V30 1347 H 119.249 -2.32574 3.4636 0
M  V30 1348 H 117.879 -2.2386 2.32565 0
M  V30 1349 H 116.931 -0.312818 3.79112 0
M  V30 1350 H 118.243 -0.628444 4.94825 0
M  V30 1351 H 117.397 -2.95821 5.29693 0
M  V30 1352 H 116.136 -2.70659 4.05703 0
M  V30 1353 H 115.141 -0.855989 5.43096 0
M  V30 1354 H 116.366 -1.13102 6.69615 0
M  V30 1355 H 114.312 -3.16417 5.74645 0
M  V30 1356 H 114.229 -2.25093 7.21713 0
M  V30 1357 H 115.497 -3.4209 7.00425 0
M  V30 1358 N 119.726 -1.57421 0.075193 0
M  V30 1359 C 120.972 -1.93905 -0.594025 0
M  V30 1360 C 121.305 -0.955701 -1.69056 0
M  V30 1361 O 120.58 0.0145373 -1.94495 0
M  V30 1362 C 120.863 -3.40638 -1.1678 0
M  V30 1363 C 120.716 -4.49733 -0.0776792 0
M  V30 1364 C 122.035 -3.88259 -2.07228 0
M  V30 1365 H 119.154 -0.705105 -0.214466 0
M  V30 1366 H 121.796 -1.8947 0.141854 0
M  V30 1367 H 119.946 -3.44549 -1.79494 0
M  V30 1368 H 121.618 -4.57942 0.555573 0
M  V30 1369 H 119.861 -4.29751 0.591286 0
M  V30 1370 H 120.532 -5.49549 -0.519603 0
M  V30 1371 H 123.008 -3.86376 -1.54445 0
M  V30 1372 H 121.884 -4.91533 -2.44308 0
M  V30 1373 H 122.145 -3.26396 -2.98191 0
M  V30 1374 N 121.204 0.198386 -1.56346 0
M  V30 1375 C 122.45 0.920648 -1.80698 0
M  V30 1376 C 122.783 1.83045 -0.648697 0
M  V30 1377 O 122.058 1.91308 0.350925 0
M  V30 1378 C 122.341 1.73971 -3.15287 0
M  V30 1379 C 122.194 0.85485 -4.41602 0
M  V30 1380 C 123.513 2.71296 -3.46535 0
M  V30 1381 H 120.632 0.333261 -0.657348 0
M  V30 1382 H 123.274 0.188198 -1.89066 0
M  V30 1383 H 121.424 2.36416 -3.08285 0
M  V30 1384 H 123.096 0.245362 -4.60647 0
M  V30 1385 H 121.339 0.161398 -4.335 0
M  V30 1386 H 122.01 1.46286 -5.32264 0
M  V30 1387 H 124.486 2.18983 -3.53816 0
M  V30 1388 H 123.362 3.2569 -4.41834 0
M  V30 1389 H 123.623 3.5018 -2.69864 0
M  V30 1390 N 122.682 1.50554 0.465978 0
M  V30 1391 C 123.615 1.64436 1.58227 0
M  V30 1392 C 124.593 0.492367 1.54966 0
M  V30 1393 O 125.777 0.712536 1.74514 0
M  V30 1394 C 122.904 1.63165 2.96808 0
M  V30 1395 C 121.95 2.83987 3.18204 0
M  V30 1396 S 122.783 4.45219 2.97557 0
M  V30 1397 C 123.939 4.46649 4.3847 0
M  V30 1398 H 124.172 2.58861 1.46213 0
M  V30 1399 H 121.705 1.3988 0.653678 0
M  V30 1400 H 123.663 1.63116 3.76701 0
M  V30 1401 H 122.324 0.69967 3.06208 0
M  V30 1402 H 121.517 2.79416 4.19455 0
M  V30 1403 H 121.119 2.81629 2.46092 0
M  V30 1404 H 123.411 4.20526 5.31191 0
M  V30 1405 H 124.354 5.48295 4.48082 0
M  V30 1406 H 124.762 3.76296 4.20787 0
M  V30 1407 N 124.16 -0.719506 1.40217 0
M  V30 1408 C 125.108 -1.85493 1.40339 0
M  V30 1409 C 126.102 -1.66995 0.284415 0
M  V30 1410 O 127.308 -1.74148 0.455252 0
M  V30 1411 H 123.683 -0.610857 0.438586 0
M  V30 1412 H 125.654 -1.82506 2.36081 0
M  V30 1413 C 124.403 -3.23321 1.27901 0
M  V30 1414 H 123.726 -3.38159 2.1328 0
M  V30 1415 H 125.166 -4.02914 1.32045 0
M  V30 1416 C 123.625 -3.36898 -0.0111355 0
M  V30 1417 O 124.155 -3.89674 -0.975538 0
M  V30 1418 N 122.361 -2.90492 -0.0793393 0
M  V30 1419 H 121.908 -2.47731 0.706183 0
M  V30 1420 H 121.866 -2.99955 -0.942038 0
M  V30 1421 N 125.638 -1.25649 -0.95132 0
M  V30 1422 C 126.866 -1.13343 -1.73092 0
M  V30 1423 C 127.281 0.312434 -1.86197 0
M  V30 1424 O 126.638 1.21465 -1.36207 0
M  V30 1425 C 126.689 -1.78602 -3.14299 0
M  V30 1426 O 126.41 -3.17537 -3.01831 0
M  V30 1427 C 127.911 -1.72119 -4.08522 0
M  V30 1428 H 125.131 -0.395181 -0.542285 0
M  V30 1429 H 127.675 -1.66076 -1.19328 0
M  V30 1430 H 125.83 -1.29832 -3.64996 0
M  V30 1431 H 126.244 -3.49676 -3.90931 0
M  V30 1432 H 127.718 -2.22435 -5.052 0
M  V30 1433 H 128.195 -0.685635 -4.33815 0
M  V30 1434 H 128.801 -2.20393 -3.63741 0
M  V30 1435 N 127.117 1.15442 -1.07289 0
M  V30 1436 C 128.394 1.82306 -0.708792 0
M  V30 1437 C 128.774 1.94991 0.808807 0
M  V30 1438 O 128.122 1.50085 1.72298 0
M  V30 1439 C 128.332 3.18695 -1.42247 0
M  V30 1440 C 129.68 3.94341 -1.57417 0
M  V30 1441 O 130.704 3.28247 -1.38319 0
M  V30 1442 O 129.563 5.12839 -1.88834 0
M  V30 1443 H 126.657 0.787628 -0.252132 0
M  V30 1444 H 129.203 1.22559 -1.17377 0
M  V30 1445 H 127.975 3.04557 -2.45684 0
M  V30 1446 H 127.598 3.86128 -0.948223 0
M  V30 1447 N 128.595 0.856903 1.32268 0
M  V30 1448 C 129.525 0.31858 2.31316 0
M  V30 1449 C 130.506 -0.583487 1.59779 0
M  V30 1450 O 131.691 -0.503259 1.87566 0
M  V30 1451 C 128.821 -0.491979 3.43798 0
M  V30 1452 C 127.775 0.315849 4.26833 0
M  V30 1453 C 127.101 -0.619586 5.31098 0
M  V30 1454 C 128.401 1.54282 4.98993 0
M  V30 1455 H 130.095 1.14621 2.76591 0
M  V30 1456 H 127.641 0.552613 1.32974 0
M  V30 1457 H 129.594 -0.879012 4.1213 0
M  V30 1458 H 128.318 -1.35299 2.97257 0
M  V30 1459 H 126.977 0.684664 3.6015 0
M  V30 1460 H 126.625 -1.47751 4.8081 0
M  V30 1461 H 126.325 -0.0830621 5.87541 0
M  V30 1462 H 127.849 -1.00375 6.02293 0
M  V30 1463 H 129.263 1.22796 5.59995 0
M  V30 1464 H 127.66 2.01745 5.65172 0
M  V30 1465 H 128.73 2.30285 4.26728 0
M  V30 1466 N 130.073 -1.45103 0.615059 0
M  V30 1467 C 131.321 -2.01784 0.112955 0
M  V30 1468 C 131.642 -1.48504 -1.26378 0
M  V30 1469 O 130.912 -0.682245 -1.83636 0
M  V30 1470 H 129.492 -0.745993 0.0387668 0
M  V30 1471 H 132.154 -1.77808 0.798141 0
M  V30 1472 H 131.25 -3.12025 0.0684069 0
M  V30 1473 N 131.551 -0.354651 -1.53558 0
M  V30 1474 C 132.797 0.238797 -2.01389 0
M  V30 1475 C 133.13 1.49309 -1.2418 0
M  V30 1476 O 132.405 1.91638 -0.332457 0
M  V30 1477 C 132.688 0.541771 -3.56001 0
M  V30 1478 C 132.541 -0.725388 -4.43912 0
M  V30 1479 C 133.86 1.34685 -4.18984 0
M  V30 1480 H 130.979 0.0853177 -0.732045 0
M  V30 1481 H 133.621 -0.477384 -1.83905 0
M  V30 1482 H 131.771 1.15189 -3.71031 0
M  V30 1483 H 133.443 -1.36313 -4.407 0
M  V30 1484 H 131.686 -1.34801 -4.12324 0
M  V30 1485 H 132.357 -0.468505 -5.50008 0
M  V30 1486 H 134.833 0.830837 -4.07721 0
M  V30 1487 H 133.709 1.52759 -5.27215 0
M  V30 1488 H 133.97 2.35221 -3.74331 0
M  V30 1489 N 133.029 1.57378 -0.0835403 0
M  V30 1490 C 134.277 1.93547 0.581718 0
M  V30 1491 C 134.598 0.96524 1.69435 0
M  V30 1492 O 133.868 0.0153369 1.95894 0
M  V30 1493 H 132.448 0.714521 0.217874 0
M  V30 1494 H 135.11 1.94366 -0.144158 0
M  V30 1495 H 134.206 2.95665 0.999423 0
M  V30 1496 N 134.507 -0.190092 1.56449 0
M  V30 1497 C 135.918 -0.754312 1.70784 0
M  V30 1498 C 136.269 -1.83631 0.690951 0
M  V30 1499 O 135.394 -2.15868 -0.151604 0
M  V30 1500 C 135.989 -1.37503 3.09642 0
M  V30 1501 C 134.548 -1.88628 3.25725 0
M  V30 1502 C 133.695 -0.758098 2.66736 0
M  V30 1503 H 136.646 0.0350524 1.58661 0
M  V30 1504 H 136.667 -2.2445 3.0725 0
M  V30 1505 H 136.179 -0.587302 3.83631 0
M  V30 1506 H 134.28 -2.70103 2.56661 0
M  V30 1507 H 134.393 -2.04462 4.3328 0
M  V30 1508 H 132.757 -1.17369 2.26046 0
M  V30 1509 H 133.54 0.0174705 3.43296 0
M  V30 1510 N 135.985 -1.50799 -0.457987 0
M  V30 1511 C 137.234 -1.6168 -1.20593 0
M  V30 1512 C 137.547 -0.32888 -1.92815 0
M  V30 1513 O 138.753 -0.316773 -2.69646 0
M  V30 1514 C 137.209 -2.8545 -2.19195 0
M  V30 1515 C 136.817 -4.21168 -1.52715 0
M  V30 1516 C 138.561 -3.05681 -2.94549 0
M  V30 1517 C 136.468 -5.3611 -2.4968 0
M  V30 1518 H 135.398 -0.602134 -0.453818 0
M  V30 1519 H 138.049 -1.77245 -0.475031 0
M  V30 1520 H 136.431 -2.63472 -2.95632 0
M  V30 1521 H 137.605 -4.53449 -0.819775 0
M  V30 1522 H 135.92 -4.06648 -0.895922 0
M  V30 1523 H 138.517 -3.88727 -3.67145 0
M  V30 1524 H 138.86 -2.17929 -3.54701 0
M  V30 1525 H 139.393 -3.27901 -2.25223 0
M  V30 1526 H 136.132 -6.26057 -1.94249 0
M  V30 1527 H 135.652 -5.0823 -3.18532 0
M  V30 1528 H 137.331 -5.6722 -3.11241 0
M  V30 1529 N 137.463 0.71206 -1.40597 0
M  V30 1530 C 138.879 1.02058 -1.22704 0
M  V30 1531 C 139.079 2.01228 -0.104729 0
M  V30 1532 O 138.135 2.4674 0.53624 0
M  V30 1533 C 139.448 1.56094 -2.57012 0
M  V30 1534 C 140.996 1.6806 -2.64054 0
M  V30 1535 C 141.471 2.25501 -3.9864 0
M  V30 1536 N 142.962 2.32882 -4.004 0
M  V30 1537 C 143.697 2.78317 -5.01325 0
M  V30 1538 N 143.193 3.23478 -6.12645 0
M  V30 1539 N 144.986 2.77733 -4.88693 0
M  V30 1540 H 137.137 0.0547896 -2.12329 0
M  V30 1541 H 139.4 0.0869027 -0.944008 0
M  V30 1542 H 139.106 0.906865 -3.39807 0
M  V30 1543 H 138.98 2.54564 -2.78347 0
M  V30 1544 H 141.367 2.32583 -1.81629 0
M  V30 1545 H 141.448 0.681802 -2.46546 0
M  V30 1546 H 141.092 1.61598 -4.81506 0
M  V30 1547 H 141.022 3.26102 -4.13479 0
M  V30 1548 H 143.513 2.00991 -3.20017 0
M  V30 1549 H 143.826 3.56725 -6.85542 0
M  V30 1550 H 142.171 3.21429 -6.16205 0
M  V30 1551 H 145.362 2.4179 -4.00818 0
M  V30 1552 H 145.535 3.12826 -5.67489 0
M  V30 1553 N 138.941 1.26152 0.944643 0
M  V30 1554 C 140.218 1.02247 1.66748 0
M  V30 1555 C 140.598 -0.448202 2.06287 0
M  V30 1556 O 139.946 -1.42779 1.78399 0
M  V30 1557 C 140.156 1.96788 2.88228 0
M  V30 1558 C 141.504 2.25201 3.59958 0
M  V30 1559 O 142.528 1.94626 2.98327 0
M  V30 1560 O 141.387 2.77242 4.70956 0
M  V30 1561 H 138.481 0.388517 0.730057 0
M  V30 1562 H 141.027 1.37348 0.99668 0
M  V30 1563 H 139.799 2.96047 2.55875 0
M  V30 1564 H 139.422 1.62145 3.63035 0
M  V30 1565 N 140.419 -1.14872 1.07899 0
M  V30 1566 C 141.665 -1.86064 0.806725 0
M  V30 1567 C 141.998 -1.82434 -0.665706 0
M  V30 1568 O 141.273 -1.25138 -1.48899 0
M  V30 1569 C 141.556 -3.34929 1.32267 0
M  V30 1570 C 141.409 -3.47161 2.86006 0
M  V30 1571 C 142.728 -4.29863 0.943717 0
M  V30 1572 H 139.847 -0.675591 0.294526 0
M  V30 1573 H 142.489 -1.34925 1.33773 0
M  V30 1574 H 140.639 -3.78611 0.870974 0
M  V30 1575 H 142.311 -3.12302 3.39507 0
M  V30 1576 H 140.554 -2.88539 3.23925 0
M  V30 1577 H 141.225 -4.51777 3.17177 0
M  V30 1578 H 143.701 -3.9417 1.33302 0
M  V30 1579 H 142.577 -5.32494 1.33198 0
M  V30 1580 H 142.838 -4.41846 -0.149796 0
M  V30 1581 N 141.898 -0.863906 -1.31812 0
M  V30 1582 C 142.828 -0.330843 -2.31144 0
M  V30 1583 C 143.809 0.575005 -1.60087 0
M  V30 1584 O 144.994 0.493304 -1.8783 0
M  V30 1585 C 142.124 0.47374 -3.44054 0
M  V30 1586 C 141.078 -0.338481 -4.26659 0
M  V30 1587 C 140.404 0.591412 -5.31419 0
M  V30 1588 C 141.704 -1.56926 -4.98168 0
M  V30 1589 H 143.398 -1.16086 -2.75979 0
M  V30 1590 H 140.944 -0.559657 -1.32679 0
M  V30 1591 H 142.897 0.857143 -4.12591 0
M  V30 1592 H 141.621 1.33721 -2.9797 0
M  V30 1593 H 140.28 -0.703754 -3.59782 0
M  V30 1594 H 139.928 1.45199 -4.81587 0
M  V30 1595 H 139.628 0.0519022 -5.87577 0
M  V30 1596 H 141.152 0.97179 -6.02817 0
M  V30 1597 H 142.566 -1.25764 -5.59336 0
M  V30 1598 H 140.963 -2.04739 -5.64094 0
M  V30 1599 H 142.033 -2.32544 -4.25501 0
M  V30 1600 N 143.376 1.44774 -0.622745 0
M  V30 1601 C 144.326 2.2774 0.108889 0
M  V30 1602 C 145.31 1.38189 0.824175 0
M  V30 1603 O 146.502 1.62063 0.711664 0
M  V30 1604 C 143.631 3.25353 1.09546 0
M  V30 1605 C 142.717 4.22392 0.380232 0
M  V30 1606 N 143.108 5.02388 -0.586535 0
M  V30 1607 C 141.406 4.41588 0.625792 0
M  V30 1608 C 142.107 5.72894 -1.00834 0
M  V30 1609 N 141.083 5.42479 -0.348878 0
M  V30 1610 H 144.885 2.86993 -0.63341 0
M  V30 1611 H 142.399 1.5611 -0.447589 0
M  V30 1612 H 144.396 3.83538 1.63414 0
M  V30 1613 H 143.056 2.6766 1.83815 0
M  V30 1614 H 144.067 5.0885 -0.963975 0
M  V30 1615 H 140.744 3.95003 1.352 0
M  V30 1616 H 142.134 6.47158 -1.80656 0
M  V30 1617 N 144.854 0.36279 1.53368 0
M  V30 1618 C 145.804 -0.501391 2.22419 0
M  V30 1619 C 146.788 -1.0509 1.2184 0
M  V30 1620 O 147.98 -0.981404 1.47301 0
M  V30 1621 C 145.109 -1.64201 3.01484 0
M  V30 1622 C 144.195 -1.10552 4.09438 0
M  V30 1623 N 144.586 -0.291788 5.04958 0
M  V30 1624 C 142.884 -1.3806 4.24094 0
M  V30 1625 C 143.585 0.00162655 5.817 0
M  V30 1626 N 142.561 -0.595244 5.40331 0
M  V30 1627 H 146.363 0.127159 2.93625 0
M  V30 1628 H 143.877 0.170658 1.61501 0
M  V30 1629 H 145.874 -2.27326 3.49469 0
M  V30 1630 H 144.534 -2.27365 2.31809 0
M  V30 1631 H 145.545 0.0687731 5.17854 0
M  V30 1632 H 142.222 -2.01522 3.65644 0
M  V30 1633 H 143.612 0.659278 6.68658 0
M  V30 1634 N 146.332 -1.57332 0.0918853 0
M  V30 1635 C 147.581 -1.93412 -0.572249 0
M  V30 1636 C 147.894 -0.975515 -1.69538 0
M  V30 1637 O 149.1 -1.22991 -2.42045 0
M  V30 1638 C 147.556 -3.43648 -1.0693 0
M  V30 1639 C 147.164 -4.47994 0.0239049 0
M  V30 1640 C 148.908 -3.88695 -1.70635 0
M  V30 1641 C 146.815 -5.89381 -0.488319 0
M  V30 1642 H 145.745 -0.721939 -0.217532 0
M  V30 1643 H 148.396 -1.82735 0.167369 0
M  V30 1644 H 146.778 -3.49466 -1.8625 0
M  V30 1645 H 147.952 -4.53815 0.799277 0
M  V30 1646 H 146.267 -4.12536 0.565946 0
M  V30 1647 H 148.864 -4.91725 -2.10025 0
M  V30 1648 H 149.207 -3.27166 -2.57426 0
M  V30 1649 H 149.74 -3.85564 -0.979023 0
M  V30 1650 H 146.479 -6.54602 0.342906 0
M  V30 1651 H 145.999 -5.87037 -1.23077 0
M  V30 1652 H 147.678 -6.39863 -0.958317 0
M  V30 1653 N 147.81 0.181792 -1.56548 0
M  V30 1654 C 149.04 0.914618 -1.85252 0
M  V30 1655 C 149.448 1.76791 -0.673914 0
M  V30 1656 O 148.791 1.80009 0.366416 0
M  V30 1657 C 148.853 1.85019 -3.08234 0
M  V30 1658 C 148.517 1.17754 -4.41569 0
M  V30 1659 C 149.514 0.548035 -5.17003 0
M  V30 1660 C 147.199 1.17742 -4.88305 0
M  V30 1661 C 149.193 -0.0726128 -6.37359 0
M  V30 1662 C 146.88 0.552946 -6.08593 0
M  V30 1663 C 147.878 -0.070978 -6.82963 0
M  V30 1664 O 147.566 -0.685635 -8.00971 0
M  V30 1665 H 147.298 0.271695 -0.618998 0
M  V30 1666 H 149.852 0.189944 -2.0452 0
M  V30 1667 H 148.082 2.61491 -2.84885 0
M  V30 1668 H 149.771 2.45195 -3.23472 0
M  V30 1669 H 150.537 0.540174 -4.81982 0
M  V30 1670 H 146.416 1.65246 -4.30366 0
M  V30 1671 H 149.96 -0.560213 -6.95347 0
M  V30 1672 H 145.857 0.558354 -6.43081 0
M  V30 1673 H 146.625 -0.58385 -8.16415 0
M  V30 1674 N 149.288 1.51039 0.449983 0
M  V30 1675 C 150.513 1.6715 1.22783 0
M  V30 1676 C 150.938 0.363081 1.84563 0
M  V30 1677 O 150.296 -0.675433 1.68249 0
M  V30 1678 C 150.344 2.77985 2.29689 0
M  V30 1679 O 149.448 2.40707 3.34864 0
M  V30 1680 H 148.789 0.557746 0.360299 0
M  V30 1681 H 151.319 1.97535 0.533005 0
M  V30 1682 H 151.329 3.01693 2.74673 0
M  V30 1683 H 150.004 3.72935 1.84098 0
M  V30 1684 H 148.581 2.27523 2.95445 0
M  V30 1685 N 150.766 -0.704594 1.40972 0
M  V30 1686 C 151.729 -1.80035 1.41845 0
M  V30 1687 C 152.729 -1.57774 0.310474 0
M  V30 1688 O 153.919 -1.64613 0.56992 0
M  V30 1689 C 151.051 -3.18284 1.22098 0
M  V30 1690 H 152.244 -1.80658 2.3938 0
M  V30 1691 H 149.797 -0.911329 1.26982 0
M  V30 1692 H 150.532 -3.23306 0.253672 0
M  V30 1693 H 150.317 -3.35843 2.02366 0
M  V30 1694 H 151.807 -3.98289 1.25522 0
M  V30 1695 N 152.244 -1.26651 -0.937939 0
M  V30 1696 C 153.174 -1.10993 -2.05433 0
M  V30 1697 C 154.155 -0.0142161 -1.70094 0
M  V30 1698 O 155.34 -0.186837 -1.93299 0
M  V30 1699 C 152.47 -0.745561 -3.39203 0
M  V30 1700 C 151.424 -1.79337 -3.88616 0
M  V30 1701 C 150.75 -1.28324 -5.19073 0
M  V30 1702 C 152.05 -3.19553 -4.13138 0
M  V30 1703 H 153.744 -2.0438 -2.1879 0
M  V30 1704 H 151.29 -0.984041 -1.05131 0
M  V30 1705 H 153.243 -0.622888 -4.16771 0
M  V30 1706 H 151.967 0.22401 -3.25831 0
M  V30 1707 H 150.626 -1.90477 -3.13231 0
M  V30 1708 H 150.274 -0.303414 -5.02084 0
M  V30 1709 H 149.974 -1.98369 -5.53103 0
M  V30 1710 H 151.498 -1.1733 -5.99221 0
M  V30 1711 H 152.912 -3.11471 -4.81309 0
M  V30 1712 H 151.309 -3.87218 -4.58457 0
M  V30 1713 H 152.379 -3.65368 -3.18801 0
M  V30 1714 N 153.722 1.14298 -1.08507 0
M  V30 1715 C 154.952 1.88945 -0.835663 0
M  V30 1716 C 155.36 1.78894 0.615928 0
M  V30 1717 O 154.703 1.1468 1.43506 0
M  V30 1718 C 154.765 3.39585 -1.17994 0
M  V30 1719 C 154.429 3.7342 -2.63451 0
M  V30 1720 C 155.426 3.73454 -3.61702 0
M  V30 1721 C 153.111 4.03368 -2.99332 0
M  V30 1722 C 155.105 4.02961 -4.93864 0
M  V30 1723 C 152.792 4.32538 -4.31687 0
M  V30 1724 C 153.79 4.32318 -5.28763 0
M  V30 1725 O 153.478 4.6078 -6.58739 0
M  V30 1726 H 153.21 0.605307 -0.300965 0
M  V30 1727 H 155.764 1.45673 -1.44806 0
M  V30 1728 H 153.994 3.83315 -0.51055 0
M  V30 1729 H 155.683 3.9554 -0.911182 0
M  V30 1730 H 156.449 3.50403 -3.35325 0
M  V30 1731 H 152.328 4.02692 -2.24411 0
M  V30 1732 H 155.872 4.02704 -5.69627 0
M  V30 1733 H 151.769 4.55059 -4.57812 0
M  V30 1734 H 152.537 4.78492 -6.64069 0
M  V30 1735 N 155.201 0.870884 1.31352 0
M  V30 1736 C 156.447 0.482987 1.96965 0
M  V30 1737 C 156.78 -0.962462 1.68672 0
M  V30 1738 O 156.055 -1.6779 0.98371 0
M  V30 1739 C 156.338 0.741752 3.52378 0
M  V30 1740 C 156.191 2.2368 3.9024 0
M  V30 1741 C 157.51 0.208838 4.39604 0
M  V30 1742 H 154.629 0.176955 0.715441 0
M  V30 1743 H 157.271 1.09229 1.55464 0
M  V30 1744 H 155.421 0.223149 3.87859 0
M  V30 1745 H 157.093 2.82273 3.64856 0
M  V30 1746 H 155.336 2.70901 3.38814 0
M  V30 1747 H 156.007 2.3685 4.98604 0
M  V30 1748 H 158.483 0.652529 4.10952 0
M  V30 1749 H 157.359 0.419336 5.47296 0
M  V30 1750 H 157.62 -0.889275 4.33064 0
M  V30 1751 N 156.679 -1.44442 0.630414 0
M  V30 1752 C 157.589 -2.34476 -0.0761693 0
M  V30 1753 C 158.605 -1.52576 -0.836449 0
M  V30 1754 O 159.781 -1.85307 -0.788874 0
M  V30 1755 C 156.846 -3.30545 -1.04599 0
M  V30 1756 C 155.907 -4.28352 -0.28516 0
M  V30 1757 C 155.14 -5.19831 -1.20878 0
M  V30 1758 O 155.363 -5.15223 -2.44747 0
M  V30 1759 O 154.297 -5.97892 -0.693491 0
M  V30 1760 H 158.123 -2.96345 0.664324 0
M  V30 1761 H 155.708 -1.44203 0.39061 0
M  V30 1762 H 157.59 -3.89681 -1.60396 0
M  V30 1763 H 156.265 -2.7121 -1.76711 0
M  V30 1764 H 155.172 -3.72764 0.315837 0
M  V30 1765 H 156.505 -4.90605 0.395924 0
M  V30 1766 N 158.157 -0.370918 -1.53173 0
M  V30 1767 C 159.087 0.464847 -2.28826 0
M  V30 1768 C 160.068 1.07936 -1.31468 0
M  V30 1769 O 161.253 1.0956 -1.60344 0
M  V30 1770 C 158.383 1.60196 -3.08147 0
M  V30 1771 C 157.337 1.11443 -4.13237 0
M  V30 1772 C 156.663 2.3422 -4.80672 0
M  V30 1773 C 157.963 0.195384 -5.21934 0
M  V30 1774 H 159.657 -0.166329 -2.98938 0
M  V30 1775 H 157.203 -0.0814359 -1.4377 0
M  V30 1776 H 159.156 2.19332 -3.59822 0
M  V30 1777 H 157.88 2.26045 -2.35735 0
M  V30 1778 H 156.539 0.545727 -3.62515 0
M  V30 1779 H 156.187 2.98537 -4.04827 0
M  V30 1780 H 155.887 2.02269 -5.51689 0
M  V30 1781 H 157.411 2.94032 -5.35143 0
M  V30 1782 H 158.825 0.694375 -5.69079 0
M  V30 1783 H 157.222 -0.0335027 -6.00091 0
M  V30 1784 H 158.292 -0.760961 -4.78892 0
M  V30 1785 N 159.635 1.57281 -0.100228 0
M  V30 1786 C 160.881 1.94826 0.563101 0
M  V30 1787 C 161.214 0.982475 1.67514 0
M  V30 1788 O 160.489 0.0164069 1.94493 0
M  V30 1789 C 160.772 3.42453 1.11346 0
M  V30 1790 C 160.625 4.498 0.00612081 0
M  V30 1791 C 161.944 3.91506 2.01024 0
M  V30 1792 H 159.063 0.708428 0.203221 0
M  V30 1793 H 161.705 1.8922 -0.171979 0
M  V30 1794 H 159.855 3.47361 1.7399 0
M  V30 1795 H 161.527 4.57 -0.628357 0
M  V30 1796 H 159.77 4.28756 -0.659581 0
M  V30 1797 H 160.441 5.50306 0.432109 0
M  V30 1798 H 162.917 3.88784 1.48278 0
M  V30 1799 H 161.793 4.95358 2.36457 0
M  V30 1800 H 162.054 3.31099 2.92961 0
M  V30 1801 N 161.113 -0.173488 1.56642 0
M  V30 1802 C 162.359 -0.891784 1.8214 0
M  V30 1803 C 162.692 -1.8199 0.677736 0
M  V30 1804 O 161.967 -1.91842 -0.320446 0
M  V30 1805 C 162.25 -1.68933 3.18015 0
M  V30 1806 C 162.103 -0.784487 4.42906 0
M  V30 1807 C 163.422 -2.65748 3.50808 0
M  V30 1808 H 160.541 -0.322761 0.662567 0
M  V30 1809 H 163.183 -0.158095 1.89341 0
M  V30 1810 H 161.333 -2.31482 3.12007 0
M  V30 1811 H 163.005 -0.172046 4.60979 0
M  V30 1812 H 161.248 -0.0924117 4.33702 0
M  V30 1813 H 161.919 -1.37799 5.34524 0
M  V30 1814 H 164.395 -2.13327 3.57255 0
M  V30 1815 H 163.271 -3.18619 4.4696 0
M  V30 1816 H 163.532 -3.45842 2.75401 0
M  V30 1817 N 162.591 -1.51276 -0.441967 0
M  V30 1818 C 163.538 -1.72256 -1.53612 0
M  V30 1819 C 164.508 -0.564164 -1.56225 0
M  V30 1820 O 165.693 -0.798074 -1.73307 0
M  V30 1821 C 162.833 -1.84932 -2.91366 0
M  V30 1822 C 161.946 -3.12459 -2.98317 0
M  V30 1823 C 161.081 -3.15758 -4.27166 0
M  V30 1824 C 160.12 -4.37619 -4.27967 0
M  V30 1825 N 159.257 -4.38493 -5.48333 0
M  V30 1826 H 164.097 -2.65654 -1.35026 0
M  V30 1827 H 161.634 -1.31662 -0.656009 0
M  V30 1828 H 163.592 -1.90263 -3.7129 0
M  V30 1829 H 162.222 -0.949461 -3.08521 0
M  V30 1830 H 161.274 -3.1646 -2.11086 0
M  V30 1831 H 162.586 -4.02382 -2.94771 0
M  V30 1832 H 161.74 -3.19979 -5.15459 0
M  V30 1833 H 160.479 -2.23715 -4.33362 0
M  V30 1834 H 159.484 -4.33579 -3.38067 0
M  V30 1835 H 160.709 -5.30921 -4.23438 0
M  V30 1836 H 158.655 -3.49318 -5.55259 0
M  V30 1837 H 158.572 -5.22219 -5.46647 0
M  V30 1838 H 159.84 -4.469 -6.38671 0
M  V30 1839 N 164.069 0.697108 -1.41344 0
M  V30 1840 C 165.017 1.83237 -1.43272 0
M  V30 1841 C 166.011 1.66522 -0.310947 0
M  V30 1842 O 167.217 1.73402 -0.482899 0
M  V30 1843 H 163.592 0.603802 -0.448249 0
M  V30 1844 H 165.563 1.78727 -2.38954 0
M  V30 1845 C 164.312 3.21245 -1.33029 0
M  V30 1846 H 163.635 3.34723 -2.18633 0
M  V30 1847 H 165.075 4.00763 -1.38439 0
M  V30 1848 C 163.534 3.36873 -0.0424635 0
M  V30 1849 O 164.064 3.91177 0.913421 0
M  V30 1850 N 162.27 2.90581 0.0331145 0
M  V30 1851 H 161.817 2.46577 -0.745506 0
M  V30 1852 H 161.775 3.01416 0.894199 0
M  V30 1853 N 165.547 1.27147 0.931209 0
M  V30 1854 C 166.958 1.12044 1.49342 0
M  V30 1855 C 167.309 -0.295795 1.93957 0
M  V30 1856 O 166.434 -1.18835 1.80852 0
M  V30 1857 C 167.029 2.02781 2.71414 0
M  V30 1858 C 165.588 1.91794 3.2387 0
M  V30 1859 C 164.735 1.95543 1.96617 0
M  V30 1860 H 167.686 1.40091 0.745672 0
M  V30 1861 H 167.707 1.58156 3.46074 0
M  V30 1862 H 167.219 3.05848 2.38911 0
M  V30 1863 H 165.32 0.916992 3.6114 0
M  V30 1864 H 165.433 2.77852 3.90302 0
M  V30 1865 H 163.797 1.39722 2.12955 0
M  V30 1866 H 164.58 3.00259 1.66432 0
M  V30 1867 N 167.025 -1.13721 1.09112 0
M  V30 1868 C 167.955 -2.21148 0.749385 0
M  V30 1869 C 168.936 -1.6792 -0.271475 0
M  V30 1870 O 170.121 -1.93693 -0.140251 0
M  V30 1871 C 167.251 -3.46905 0.165659 0
M  V30 1872 C 166.205 -4.13203 1.11567 0
M  V30 1873 C 165.531 -5.33248 0.393809 0
M  V30 1874 C 166.831 -4.60912 2.45678 0
M  V30 1875 H 168.525 -2.4999 1.64758 0
M  V30 1876 H 166.071 -1.20156 0.793626 0
M  V30 1877 H 168.024 -4.21313 -0.085466 0
M  V30 1878 H 166.748 -3.17449 -0.767714 0
M  V30 1879 H 165.407 -3.40758 1.35202 0
M  V30 1880 H 165.055 -5.00054 -0.543599 0
M  V30 1881 H 164.755 -5.78552 1.02721 0
M  V30 1882 H 166.279 -6.10413 0.150908 0
M  V30 1883 H 167.693 -5.26759 2.26269 0
M  V30 1884 H 166.09 -5.16944 3.04776 0
M  V30 1885 H 167.16 -3.75603 3.06677 0
M  V30 1886 N 168.503 -0.877838 -1.30888 0
M  V30 1887 C 169.743 -0.499301 -1.98208 0
M  V30 1888 C 170.107 0.932649 -1.67826 0
M  V30 1889 O 171.308 1.41694 -2.28421 0
M  V30 1890 C 169.579 -0.758221 -3.49265 0
M  V30 1891 S 171.138 -0.480719 -4.36159 0
M  V30 1892 H 167.956 -0.186062 -0.686223 0
M  V30 1893 H 170.558 -1.13556 -1.59139 0
M  V30 1894 H 169.262 -1.79903 -3.68867 0
M  V30 1895 H 168.793 -0.109247 -3.93248 0
M  V30 1896 H 170.808 0.683698 -4.91467 0
M  V30 1897 N 169.982 1.44106 -0.638065 0
M  V30 1898 C 171.393 1.85316 -0.226894 0
M  V30 1899 C 171.744 1.53399 1.22324 0
M  V30 1900 O 170.869 0.975463 1.93167 0
M  V30 1901 C 171.464 3.3637 -0.405013 0
M  V30 1902 C 170.023 3.76369 -0.0482902 0
M  V30 1903 C 169.17 2.67921 -0.715108 0
M  V30 1904 H 172.121 1.34474 -0.842764 0
M  V30 1905 H 172.142 3.7885 0.354 0
M  V30 1906 H 171.654 3.59569 -1.46053 0
M  V30 1907 H 169.755 3.58784 1.00522 0
M  V30 1908 H 169.868 4.76856 -0.463187 0
M  V30 1909 H 168.232 2.54259 -0.149753 0
M  V30 1910 H 169.015 2.93951 -1.77335 0
M  V30 1911 N 171.46 0.379036 1.52974 0
M  V30 1912 C 172.39 -0.452706 2.29069 0
M  V30 1913 C 173.371 -1.07237 1.32039 0
M  V30 1914 O 174.556 -1.08708 1.60923 0
M  V30 1915 C 171.686 -1.5856 3.08992 0
M  V30 1916 C 170.64 -1.0925 4.13822 0
M  V30 1917 C 169.966 -2.31668 4.81907 0
M  V30 1918 C 171.266 -0.167702 5.22031 0
M  V30 1919 H 172.96 0.182181 2.98845 0
M  V30 1920 H 170.506 0.0890592 1.43724 0
M  V30 1921 H 172.459 -2.1742 3.6098 0
M  V30 1922 H 171.183 -2.24792 2.36931 0
M  V30 1923 H 169.842 -0.526494 3.628 0
M  V30 1924 H 169.49 -2.96386 4.06404 0
M  V30 1925 H 169.19 -1.9934 5.52754 0
M  V30 1926 H 170.714 -2.91189 5.36695 0
M  V30 1927 H 172.128 -0.664186 5.6944 0
M  V30 1928 H 170.525 0.0653265 6.00064 0
M  V30 1929 H 171.595 0.786347 4.78482 0
M  V30 1930 N 172.938 -1.57226 0.108567 0
M  V30 1931 C 174.186 -1.94448 -0.550853 0
M  V30 1932 C 174.507 -0.992074 -1.67878 0
M  V30 1933 O 173.777 -0.0465 -1.95845 0
M  V30 1934 H 172.357 -0.717897 -0.206479 0
M  V30 1935 H 175.019 -1.94112 0.175062 0
M  V30 1936 H 174.115 -2.97218 -0.952259 0
M  V30 1937 N 174.416 0.165178 -1.56732 0
M  V30 1938 C 175.348 1.22911 -1.93457 0
M  V30 1939 C 176.361 1.40152 -0.828333 0
M  V30 1940 O 177.55 1.40046 -1.10677 0
M  V30 1941 C 174.65 2.59686 -2.17753 0
M  V30 1942 C 173.823 2.63663 -3.48999 0
M  V30 1943 C 172.882 3.81845 -3.62051 0
M  V30 1944 O 171.908 3.67559 -4.34613 0
M  V30 1945 N 173.11 4.98557 -2.97357 0
M  V30 1946 H 175.875 0.917118 -2.85323 0
M  V30 1947 H 173.436 0.354895 -1.57962 0
M  V30 1948 H 175.428 3.37225 -2.23743 0
M  V30 1949 H 173.998 2.83251 -1.32242 0
M  V30 1950 H 173.218 1.72173 -3.54612 0
M  V30 1951 H 174.506 2.63336 -4.35352 0
M  V30 1952 H 173.904 5.13065 -2.38287 0
M  V30 1953 H 172.461 5.73936 -3.08934 0
M  V30 1954 N 175.894 1.51508 0.433938 0
M  V30 1955 C 177.122 1.68157 1.20543 0
M  V30 1956 C 177.537 0.380362 1.84929 0
M  V30 1957 O 176.894 -0.641446 1.70856 0
M  V30 1958 C 176.945 2.79965 2.28696 0
M  V30 1959 O 176.666 4.05045 1.66943 0
M  V30 1960 C 178.167 3.07912 3.18912 0
M  V30 1961 H 175.387 0.56421 0.363191 0
M  V30 1962 H 177.931 1.97941 0.513754 0
M  V30 1963 H 176.086 2.5277 2.93574 0
M  V30 1964 H 176.5 4.67165 2.38448 0
M  V30 1965 H 177.974 3.89719 3.90926 0
M  V30 1966 H 178.451 2.20456 3.79863 0
M  V30 1967 H 179.057 3.36779 2.59731 0
M  V30 1968 N 177.372 -0.689602 1.41712 0
M  V30 1969 C 178.618 -1.45181 1.41599 0
M  V30 1970 C 178.951 -1.94181 0.0270081 0
M  V30 1971 O 178.226 -1.6993 -0.946265 0
M  V30 1972 C 178.509 -2.65945 2.42787 0
M  V30 1973 C 178.362 -2.22672 3.90816 0
M  V30 1974 C 179.681 -3.68149 2.41151 0
M  V30 1975 H 176.8 -0.526576 0.515642 0
M  V30 1976 H 179.442 -0.784947 1.73028 0
M  V30 1977 H 177.592 -3.2284 2.16116 0
M  V30 1978 H 179.264 -1.71058 4.28412 0
M  V30 1979 H 177.507 -1.54394 4.05395 0
M  V30 1980 H 178.178 -3.0935 4.57172 0
M  V30 1981 H 180.654 -3.2094 2.64834 0
M  V30 1982 H 179.53 -4.50248 3.13955 0
M  V30 1983 H 179.791 -4.18259 1.43221 0
M  V30 1984 N 178.85 -1.27639 -0.924453 0
M  V30 1985 C 179.782 -1.06442 -2.02985 0
M  V30 1986 C 180.795 -0.0194771 -1.62788 0
M  V30 1987 O 181.984 -0.261388 -1.76576 0
M  V30 1988 C 179.084 -0.59327 -3.33667 0
M  V30 1989 C 178.257 -1.71123 -4.02537 0
M  V30 1990 C 177.316 -1.23527 -5.11495 0
M  V30 1991 O 176.342 -1.93553 -5.35281 0
M  V30 1992 N 177.544 -0.0926678 -5.80426 0
M  V30 1993 H 180.309 -2.01633 -2.2173 0
M  V30 1994 H 177.87 -1.19248 -1.09505 0
M  V30 1995 H 179.862 -0.258686 -4.03872 0
M  V30 1996 H 178.432 0.265502 -3.1147 0
M  V30 1997 H 177.652 -2.21593 -3.26022 0
M  V30 1998 H 178.94 -2.46145 -4.45298 0
M  V30 1999 H 178.338 0.491741 -5.63559 0
M  V30 2000 H 176.895 0.182714 -6.51544 0
M  V30 2001 N 180.328 1.1314 -1.09713 0
M  V30 2002 C 181.553 1.88862 -0.857081 0
M  V30 2003 C 181.978 1.78729 0.586304 0
M  V30 2004 O 181.336 1.13692 1.41222 0
M  V30 2005 C 181.384 3.36325 -1.30069 0
M  V30 2006 O 180.488 4.09815 -0.461007 0
M  V30 2007 H 179.829 0.587108 -0.310162 0
M  V30 2008 H 182.359 1.43129 -1.46203 0
M  V30 2009 H 182.369 3.87157 -1.28738 0
M  V30 2010 H 181.044 3.43017 -2.35185 0
M  V30 2011 H 179.621 3.68986 -0.538888 0
M  V30 2012 N 181.806 0.884767 1.30421 0
M  V30 2013 C 182.716 0.355398 2.31892 0
M  V30 2014 C 183.732 -0.542261 1.65335 0
M  V30 2015 O 184.908 -0.435432 1.96637 0
M  V30 2016 C 181.973 -0.421661 3.44126 0
M  V30 2017 C 181.034 0.505727 4.26311 0
M  V30 2018 C 180.267 -0.234343 5.33185 0
M  V30 2019 O 180.49 -1.46045 5.51386 0
M  V30 2020 O 179.424 0.415443 6.00465 0
M  V30 2021 H 183.25 1.19685 2.79122 0
M  V30 2022 H 180.835 0.648596 1.34587 0
M  V30 2023 H 182.717 -0.861641 4.12497 0
M  V30 2024 H 181.392 -1.23942 2.99032 0
M  V30 2025 H 180.299 0.994513 3.60639 0
M  V30 2026 H 181.632 1.28948 4.75009 0
M  V30 2027 N 183.284 -1.43765 0.645699 0
M  V30 2028 C 184.214 -2.33471 -0.0370477 0
M  V30 2029 C 185.195 -1.49042 -0.819779 0
M  V30 2030 O 186.38 -1.77726 -0.782758 0
M  V30 2031 C 183.51 -3.32311 -1.0093 0
M  V30 2032 C 182.464 -4.2667 -0.337201 0
M  V30 2033 C 181.79 -5.1549 -1.42037 0
M  V30 2034 C 183.09 -5.16657 0.765706 0
M  V30 2035 H 184.784 -2.90809 0.712069 0
M  V30 2036 H 182.33 -1.39834 0.343876 0
M  V30 2037 H 184.283 -3.9396 -1.49578 0
M  V30 2038 H 183.007 -2.73213 -1.78948 0
M  V30 2039 H 181.666 -3.66374 0.128771 0
M  V30 2040 H 181.314 -4.52735 -2.1918 0
M  V30 2041 H 181.014 -5.79438 -0.975966 0
M  V30 2042 H 182.538 -5.80012 -1.90838 0
M  V30 2043 H 183.952 -5.72158 0.361702 0
M  V30 2044 H 182.349 -5.89286 1.13413 0
M  V30 2045 H 183.419 -4.56796 1.62683 0
M  V30 2046 N 184.763 -0.387143 -1.52771 0
M  V30 2047 C 186.01 0.195735 -2.01552 0
M  V30 2048 C 186.338 1.46995 -1.27369 0
M  V30 2049 O 185.593 1.92325 -0.361879 0
M  V30 2050 C 185.892 0.512209 -3.53711 0
M  V30 2051 C 185.558 -0.670202 -4.45891 0
M  V30 2052 C 184.22 -0.994586 -4.70809 0
M  V30 2053 C 186.572 -1.46134 -5.00294 0
M  V30 2054 C 183.9 -2.11169 -5.4738 0
M  V30 2055 C 186.252 -2.56903 -5.78086 0
M  V30 2056 C 184.916 -2.89852 -6.01284 0
M  V30 2057 H 184.186 0.0716246 -0.73753 0
M  V30 2058 H 186.833 -0.524046 -1.8419 0
M  V30 2059 H 185.138 1.31329 -3.69134 0
M  V30 2060 H 186.835 0.975804 -3.88946 0
M  V30 2061 H 183.425 -0.407366 -4.2666 0
M  V30 2062 H 187.609 -1.22397 -4.80971 0
M  V30 2063 H 182.865 -2.3707 -5.63567 0
M  V30 2064 H 187.039 -3.18608 -6.19243 0
M  V30 2065 H 184.666 -3.76533 -6.60399 0
M  V30 2066 N 186.241 1.57166 -0.116904 0
M  V30 2067 C 187.657 1.5779 0.239693 0
M  V30 2068 C 187.857 1.1295 1.66867 0
M  V30 2069 O 186.913 0.81592 2.38954 0
M  V30 2070 C 188.226 3.00699 0.00828202 0
M  V30 2071 C 189.774 3.12912 0.0743438 0
M  V30 2072 C 190.249 4.57817 -0.129348 0
M  V30 2073 N 191.74 4.63139 -0.075247 0
M  V30 2074 C 192.475 5.73023 -0.207788 0
M  V30 2075 N 191.971 6.91665 -0.396382 0
M  V30 2076 N 193.764 5.61906 -0.14751 0
M  V30 2077 H 185.915 1.84615 -1.05029 0
M  V30 2078 H 188.178 0.85311 -0.41341 0
M  V30 2079 H 187.884 3.37784 -0.979531 0
M  V30 2080 H 187.758 3.69848 0.741077 0
M  V30 2081 H 190.145 2.75686 1.05268 0
M  V30 2082 H 190.226 2.4631 -0.690297 0
M  V30 2083 H 189.87 4.95742 -1.10465 0
M  V30 2084 H 189.8 5.22507 0.655253 0
M  V30 2085 H 192.291 3.7784 0.0670898 0
M  V30 2086 H 192.604 7.71255 -0.488437 0
M  V30 2087 H 190.949 6.93654 -0.432329 0
M  V30 2088 H 194.14 4.681 -0.00115036 0
M  V30 2089 H 194.313 6.47501 -0.254247 0
M  V30 2090 N 187.719 -0.156864 1.56817 0
M  V30 2091 C 188.944 -0.890331 1.87318 0
M  V30 2092 C 189.369 -1.74394 0.704855 0
M  V30 2093 O 188.727 -1.77972 -0.345786 0
M  V30 2094 C 188.775 -1.73102 3.16336 0
M  V30 2095 O 187.879 -2.83422 2.99576 0
M  V30 2096 H 187.22 -0.24857 0.615718 0
M  V30 2097 H 189.75 -0.150649 2.04045 0
M  V30 2098 H 189.76 -2.12803 3.48107 0
M  V30 2099 H 188.435 -1.10412 4.00976 0
M  V30 2100 H 187.012 -2.47199 2.7919 0
M  V30 2101 N 189.197 -1.51736 -0.425897 0
M  V30 2102 C 190.613 -1.40166 -0.76326 0
M  V30 2103 C 190.813 -0.492962 -1.95377 0
M  V30 2104 O 189.869 0.0475815 -2.52455 0
M  V30 2105 C 191.182 -2.82403 -1.03291 0
M  V30 2106 C 192.73 -2.91632 -1.13665 0
M  V30 2107 C 193.205 -4.34801 -1.43916 0
M  V30 2108 N 194.696 -4.3796 -1.50816 0
M  V30 2109 C 195.431 -5.4578 -1.75817 0
M  V30 2110 N 194.927 -6.63744 -1.98534 0
M  V30 2111 N 196.72 -5.33274 -1.77694 0
M  V30 2112 H 188.871 -2.09361 0.358 0
M  V30 2113 H 191.134 -0.942941 0.0978094 0
M  V30 2114 H 190.84 -3.50943 -0.230696 0
M  V30 2115 H 190.714 -3.22428 -1.95754 0
M  V30 2116 H 193.101 -2.23284 -1.92947 0
M  V30 2117 H 193.182 -2.55088 -0.190756 0
M  V30 2118 H 192.826 -5.03703 -0.65157 0
M  V30 2119 H 192.756 -4.68868 -2.39729 0
M  V30 2120 H 195.247 -3.52919 -1.35118 0
M  V30 2121 H 195.56 -7.41704 -2.17013 0
M  V30 2122 H 193.905 -6.66839 -1.95832 0
M  V30 2123 H 197.096 -4.40098 -1.59473 0
M  V30 2124 H 197.269 -6.1738 -1.9684 0
M  V30 2125 N 190.675 0.682077 -1.42076 0
M  V30 2126 C 191.605 1.80796 -1.47767 0
M  V30 2127 C 192.586 1.6677 -0.334954 0
M  V30 2128 O 193.771 1.863 -0.548264 0
M  V30 2129 C 190.901 3.19038 -1.37229 0
M  V30 2130 C 189.855 3.47789 -2.49453 0
M  V30 2131 C 189.181 4.8553 -2.23975 0
M  V30 2132 C 190.481 3.45411 -3.91776 0
M  V30 2133 H 192.175 1.7629 -2.41997 0
M  V30 2134 H 189.721 0.846721 -1.16476 0
M  V30 2135 H 191.674 3.97528 -1.39821 0
M  V30 2136 H 190.398 3.24204 -0.394907 0
M  V30 2137 H 189.057 2.71657 -2.46166 0
M  V30 2138 H 188.705 4.87337 -1.24547 0
M  V30 2139 H 188.405 5.0573 -2.99184 0
M  V30 2140 H 189.929 5.66312 -2.28304 0
M  V30 2141 H 191.343 4.13882 -3.96705 0
M  V30 2142 H 189.74 3.77145 -4.66778 0
M  V30 2143 H 190.81 2.44122 -4.18966 0
M  V30 2144 N 192.153 1.28127 0.917671 0
M  V30 2145 C 193.43 1.05761 1.64542 0
M  V30 2146 C 193.81 -0.404344 2.07191 0
M  V30 2147 O 193.158 -1.38963 1.81388 0
M  V30 2148 C 193.368 2.02857 2.83989 0
M  V30 2149 C 194.716 2.32786 3.551 0
M  V30 2150 O 195.74 2.0091 2.94132 0
M  V30 2151 O 194.599 2.87169 4.64969 0
M  V30 2152 H 191.693 0.403916 0.721652 0
M  V30 2153 H 194.239 1.39431 0.967322 0
M  V30 2154 H 193.011 3.01407 2.49538 0
M  V30 2155 H 192.634 1.69809 3.59514 0
M  V30 2156 N 193.631 -1.12557 1.10312 0
M  V30 2157 C 194.856 -1.88405 0.867085 0
M  V30 2158 C 195.281 -1.79038 -0.576817 0
M  V30 2159 O 194.639 -1.14439 -1.40618 0
M  V30 2160 C 194.687 -3.3563 1.31851 0
M  V30 2161 O 193.791 -4.09565 0.482734 0
M  V30 2162 H 193.132 -0.585455 0.313271 0
M  V30 2163 H 195.662 -1.42352 1.4696 0
M  V30 2164 H 195.672 -3.86469 1.3079 0
M  V30 2165 H 194.347 -3.41765 2.37001 0
M  V30 2166 H 192.924 -3.68695 0.558448 0
M  V30 2167 N 195.109 -0.891671 -1.2995 0
M  V30 2168 C 196.339 -0.527893 -1.99742 0
M  V30 2169 C 196.747 0.88979 -1.66971 0
M  V30 2170 O 196.09 1.59766 -0.906667 0
M  V30 2171 C 196.152 -0.630804 -3.53922 0
M  V30 2172 C 195.816 -2.01401 -4.10228 0
M  V30 2173 C 196.813 -2.98422 -4.25724 0
M  V30 2174 C 194.498 -2.32121 -4.45449 0
M  V30 2175 C 196.492 -4.24293 -4.75662 0
M  V30 2176 C 194.179 -3.58237 -4.95086 0
M  V30 2177 C 195.177 -4.54137 -5.10146 0
M  V30 2178 O 194.865 -5.78014 -5.58708 0
M  V30 2179 H 194.597 -0.201953 -0.645129 0
M  V30 2180 H 197.151 -1.20076 -1.66646 0
M  V30 2181 H 195.381 0.0990616 -3.86573 0
M  V30 2182 H 197.07 -0.277338 -4.04951 0
M  V30 2183 H 197.836 -2.76001 -3.98809 0
M  V30 2184 H 193.715 -1.5824 -4.32991 0
M  V30 2185 H 197.259 -4.99153 -4.87332 0
M  V30 2186 H 193.156 -3.80491 -5.21437 0
M  V30 2187 H 193.924 -5.8049 -5.77039 0
M  V30 2188 N 196.587 1.43421 -0.653314 0
M  V30 2189 C 197.833 2.02111 -0.166992 0
M  V30 2190 C 198.166 1.51423 1.21592 0
M  V30 2191 O 197.441 0.707389 1.8118 0
M  V30 2192 C 197.724 3.5966 -0.177948 0
M  V30 2193 C 197.577 4.20579 -1.59478 0
M  V30 2194 C 198.896 4.37413 0.4856 0
M  V30 2195 H 196.015 0.734374 -0.0621557 0
M  V30 2196 H 198.657 1.70717 -0.834016 0
M  V30 2197 H 196.807 3.86537 0.390032 0
M  V30 2198 H 198.479 4.04732 -2.21336 0
M  V30 2199 H 196.722 3.77226 -2.14204 0
M  V30 2200 H 197.393 5.29665 -1.5543 0
M  V30 2201 H 199.869 4.161 0.00234528 0
M  V30 2202 H 198.745 5.47075 0.447207 0
M  V30 2203 H 199.006 4.13672 1.55974 0
M  V30 2204 N 198.065 0.39524 1.52563 0
M  V30 2205 C 199.481 0.0454682 1.59535 0
M  V30 2206 C 199.681 -1.44056 1.4089 0
M  V30 2207 O 198.737 -2.20579 1.22888 0
M  V30 2208 C 200.05 0.527963 2.96029 0
M  V30 2209 C 201.598 0.484733 3.09224 0
M  V30 2210 C 202.073 0.943512 4.48176 0
M  V30 2211 N 203.564 0.899765 4.54377 0
M  V30 2212 C 204.299 1.22609 5.60138 0
M  V30 2213 N 203.795 1.62319 6.73516 0
M  V30 2214 N 205.588 1.14696 5.50274 0
M  V30 2215 H 197.739 1.36261 1.62931 0
M  V30 2216 H 200.002 0.558887 0.765735 0
M  V30 2217 H 199.708 1.56607 3.14908 0
M  V30 2218 H 199.582 -0.0698056 3.77135 0
M  V30 2219 H 201.969 -0.544298 2.90037 0
M  V30 2220 H 202.05 1.11838 2.30056 0
M  V30 2221 H 201.694 1.9708 4.68104 0
M  V30 2222 H 201.624 0.286817 5.25818 0
M  V30 2223 H 204.115 0.607632 3.72983 0
M  V30 2224 H 204.428 1.85567 7.5019 0
M  V30 2225 H 202.773 1.66211 6.74833 0
M  V30 2226 H 205.964 0.835701 4.6058 0
M  V30 2227 H 206.137 1.40459 6.32594 0
M  V30 2228 N 199.544 -1.57102 0.125237 0
M  V30 2229 C 200.769 -2.0019 -0.542101 0
M  V30 2230 C 201.194 -1.00449 -1.59034 0
M  V30 2231 O 200.552 0.0229423 -1.81285 0
M  V30 2232 C 200.6 -3.42129 -1.13929 0
M  V30 2233 O 199.704 -3.45307 -2.2547 0
M  V30 2234 H 199.045 -0.650171 -0.134812 0
M  V30 2235 H 201.575 -2.03461 0.215553 0
M  V30 2236 H 201.585 -3.80471 -1.4733 0
M  V30 2237 H 200.26 -4.14237 -0.371531 0
M  V30 2238 H 198.837 -3.1879 -1.93462 0
M  V30 2239 N 201.022 0.148545 -1.56898 0
M  V30 2240 C 201.952 1.18524 -2.01182 0
M  V30 2241 C 202.933 1.4489 -0.891123 0
M  V30 2242 O 204.118 1.55836 -1.15882 0
M  V30 2243 C 201.248 2.51879 -2.39112 0
M  V30 2244 C 200.202 2.40038 -3.54353 0
M  V30 2245 C 199.528 3.78089 -3.78091 0
M  V30 2246 C 200.828 1.88577 -4.87069 0
M  V30 2247 H 202.522 0.817029 -2.88036 0
M  V30 2248 H 200.068 0.391575 -1.38574 0
M  V30 2249 H 202.021 3.24627 -2.68692 0
M  V30 2250 H 200.745 2.90532 -1.49193 0
M  V30 2251 H 199.404 1.69742 -3.24936 0
M  V30 2252 H 199.052 4.14175 -2.85426 0
M  V30 2253 H 198.752 3.71028 -4.55645 0
M  V30 2254 H 200.276 4.52387 -4.10095 0
M  V30 2255 H 201.69 2.51117 -5.15377 0
M  V30 2256 H 200.087 1.9241 -5.68417 0
M  V30 2257 H 201.157 0.84136 -4.77545 0
M  V30 2258 N 202.5 1.5196 0.417844 0
M  V30 2259 C 203.911 1.57851 0.997 0
M  V30 2260 C 204.262 0.413714 1.91789 0
M  V30 2261 O 203.387 -0.467057 2.113 0
M  V30 2262 C 203.982 2.86085 1.81496 0
M  V30 2263 C 202.541 2.94483 2.34428 0
M  V30 2264 C 201.688 2.52707 1.14169 0
M  V30 2265 H 204.639 1.57455 0.198392 0
M  V30 2266 H 204.66 2.70947 2.67148 0
M  V30 2267 H 204.172 3.70842 1.14446 0
M  V30 2268 H 202.273 2.142 3.04875 0
M  V30 2269 H 202.386 3.98546 2.65891 0
M  V30 2270 H 200.75 2.06353 1.49301 0
M  V30 2271 H 201.533 3.39828 0.486999 0
M  V30 2272 N 203.978 -0.674533 1.42435 0
M  V30 2273 C 205.225 -1.43459 1.42919 0
M  V30 2274 C 205.553 -1.94446 0.0457312 0
M  V30 2275 O 204.808 -1.7132 -0.94593 0
M  V30 2276 C 205.107 -2.64767 2.40069 0
M  V30 2277 C 204.773 -2.3232 3.86443 0
M  V30 2278 C 203.435 -2.23182 4.26314 0
M  V30 2279 C 205.787 -2.05977 4.78773 0
M  V30 2280 C 203.115 -1.85827 5.56494 0
M  V30 2281 C 205.467 -1.70125 6.09295 0
M  V30 2282 C 204.131 -1.59498 6.48164 0
M  V30 2283 H 203.401 -0.524952 0.522978 0
M  V30 2284 H 206.048 -0.769097 1.75377 0
M  V30 2285 H 204.353 -3.36349 2.00939 0
M  V30 2286 H 206.05 -3.22949 2.37707 0
M  V30 2287 H 202.64 -2.40334 3.54877 0
M  V30 2288 H 206.824 -2.11969 4.48757 0
M  V30 2289 H 202.08 -1.76168 5.8547 0
M  V30 2290 H 206.254 -1.48767 6.80324 0
M  V30 2291 H 203.881 -1.30322 7.48946 0
M  V30 2292 N 205.456 -1.28612 -0.910864 0
M  V30 2293 C 206.703 -1.15934 -1.66029 0
M  V30 2294 C 207.031 0.291483 -1.92303 0
M  V30 2295 O 206.286 1.22816 -1.52364 0
M  V30 2296 C 206.585 -1.90624 -3.0232 0
M  V30 2297 C 206.251 -3.40405 -2.95695 0
M  V30 2298 C 204.913 -3.81255 -2.93595 0
M  V30 2299 C 207.265 -4.359 -2.85728 0
M  V30 2300 C 204.593 -5.15936 -2.79334 0
M  V30 2301 C 206.945 -5.70657 -2.73007 0
M  V30 2302 C 205.609 -6.10779 -2.69267 0
M  V30 2303 H 204.879 -0.424234 -0.607541 0
M  V30 2304 H 207.526 -1.5942 -1.06101 0
M  V30 2305 H 205.831 -1.39696 -3.6605 0
M  V30 2306 H 207.528 -1.78228 -3.59215 0
M  V30 2307 H 204.118 -3.07927 -2.98125 0
M  V30 2308 H 208.302 -4.053 -2.86436 0
M  V30 2309 H 203.558 -5.46146 -2.74835 0
M  V30 2310 H 207.732 -6.44311 -2.64264 0
M  V30 2311 H 205.359 -7.1509 -2.57974 0
M  V30 2312 N 206.934 1.1197 -1.10907 0
M  V30 2313 C 208.159 1.87942 -0.877064 0
M  V30 2314 C 208.584 1.79341 0.567314 0
M  V30 2315 O 207.942 1.15184 1.40009 0
M  V30 2316 C 207.99 3.34926 -1.33629 0
M  V30 2317 O 207.094 4.09303 -0.504447 0
M  V30 2318 H 206.435 0.583785 -0.316371 0
M  V30 2319 H 208.965 1.4157 -1.47712 0
M  V30 2320 H 208.975 3.8577 -1.32837 0
M  V30 2321 H 207.65 3.40504 -2.3881 0
M  V30 2322 H 206.227 3.68393 -0.577993 0
M  V30 2323 N 208.412 0.89855 1.29475 0
M  V30 2324 C 209.375 0.380272 2.26023 0
M  V30 2325 C 210.375 -0.484891 1.53315 0
M  V30 2326 O 211.565 -0.290108 1.71767 0
M  V30 2327 C 208.697 -0.45651 3.3783 0
M  V30 2328 H 209.89 1.23295 2.73383 0
M  V30 2329 H 207.443 0.676589 1.40897 0
M  V30 2330 H 208.178 -1.32922 2.95808 0
M  V30 2331 H 207.963 0.163393 3.91759 0
M  V30 2332 H 209.453 -0.810466 4.0966 0
M  V30 2333 N 209.89 -1.43072 0.660911 0
M  V30 2334 C 211.306 -1.56169 0.329173 0
M  V30 2335 C 211.506 -1.64317 -1.16629 0
M  V30 2336 O 210.562 -1.60245 -1.95135 0
M  V30 2337 C 211.875 -2.81873 1.04729 0
M  V30 2338 C 213.423 -2.95627 1.02828 0
M  V30 2339 C 213.898 -4.24174 1.72744 0
M  V30 2340 N 215.389 -4.31055 1.69545 0
M  V30 2341 C 216.124 -5.29304 2.20511 0
M  V30 2342 N 215.62 -6.33786 2.79799 0
M  V30 2343 N 217.413 -5.21008 2.10966 0
M  V30 2344 H 209.564 -1.36027 1.63127 0
M  V30 2345 H 211.827 -0.653823 0.686454 0
M  V30 2346 H 211.533 -2.81942 2.10242 0
M  V30 2347 H 211.407 -3.72338 0.603702 0
M  V30 2348 H 213.794 -2.95094 -0.0184742 0
M  V30 2349 H 213.875 -2.06431 1.51063 0
M  V30 2350 H 213.519 -4.25467 2.7738 0
M  V30 2351 H 213.449 -5.1228 1.2197 0
M  V30 2352 H 215.94 -3.56174 1.26288 0
M  V30 2353 H 216.253 -7.05086 3.16344 0
M  V30 2354 H 214.598 -6.34387 2.83863 0
M  V30 2355 H 217.789 -4.38301 1.64347 0
M  V30 2356 H 217.962 -5.97416 2.50993 0
M  V30 2357 N 211.368 -0.403325 -1.52352 0
M  V30 2358 C 212.331 0.413051 -2.25447 0
M  V30 2359 C 213.331 0.978513 -1.276 0
M  V30 2360 O 214.521 0.858305 -1.51587 0
M  V30 2361 C 211.653 1.58087 -3.02029 0
M  V30 2362 H 212.846 -0.227094 -2.99039 0
M  V30 2363 H 210.399 -0.155722 -1.55522 0
M  V30 2364 H 211.134 2.25804 -2.32772 0
M  V30 2365 H 210.919 1.18195 -3.73861 0
M  V30 2366 H 212.409 2.1585 -3.57489 0
M  V30 2367 N 212.846 1.57033 -0.133567 0
M  V30 2368 C 214.094 1.953 0.519848 0
M  V30 2369 C 214.415 1.01866 1.66278 0
M  V30 2370 O 213.685 0.0776513 1.95746 0
M  V30 2371 H 212.265 0.721091 0.195032 0
M  V30 2372 H 214.927 1.93809 -0.205921 0
M  V30 2373 H 214.023 2.98695 0.904854 0
M  V30 2374 O 214.363 -0.00541248 1.61499 0
M  V30 2375 H 215.054 -0.622816 1.83414 0
M  V30 END ATOM
M  V30 BEGIN BOND
M  V30 END BOND
M  V30 END CTAB
M  END
$$$$
