drugbank_target|Q9Y678 Coatomer subunit gamma-1 (DB03963)
 OpenBabel12092119563D

  0  0  0     0  0            999 V3000
M  V30 BEGIN CTAB
M  V30 COUNTS 13724 13841 0 0 0
M  V30 BEGIN ATOM
M  V30 1 H -0.908 1.98254 -0.117106 0
M  V30 2 N 0 1.576 0 0
M  V30 3 C 0.933 2.03868 1.02534 0
M  V30 4 C 1.911 0.928543 1.3348 0
M  V30 5 O 3.095 1.19667 1.45644 0
M  V30 6 C 0.222 2.43627 2.35294 0
M  V30 7 C -0.732 3.65373 2.2001 0
M  V30 8 S 0.101 5.13292 1.52614 0
M  V30 9 C 1.257 5.56322 2.86805 0
M  V30 10 H 1.49 2.90518 0.631377 0
M  V30 11 H -0.977 1.52953 0.210867 0
M  V30 12 H 0.981 2.67203 3.11629 0
M  V30 13 H -0.358 1.57376 2.7183 0
M  V30 14 H -1.165 3.90944 3.18086 0
M  V30 15 H -1.563 3.418 1.51819 0
M  V30 16 H 0.729 5.58782 3.83104 0
M  V30 17 H 1.672 6.56266 2.65933 0
M  V30 18 H 2.08 4.83886 2.90714 0
M  V30 19 N 1.4781 -0.272755 1.55222 0
M  V30 20 C 2.4081 -1.34136 1.91127 0
M  V30 21 C 3.3891 -1.51513 0.773168 0
M  V30 22 O 4.5741 -1.64552 1.03132 0
M  V30 23 C 1.7041 -2.70083 2.1834 0
M  V30 24 C 0.6581 -2.67437 3.34158 0
M  V30 25 C -0.0159 -4.06938 3.46851 0
M  V30 26 C 1.2841 -2.26686 4.70543 0
M  V30 27 H 2.9781 -1.04333 2.80633 0
M  V30 28 H 0.5241 -0.500454 1.35024 0
M  V30 29 H 2.4771 -3.44952 2.42046 0
M  V30 30 H 1.2011 -3.01469 1.25634 0
M  V30 31 H -0.1399 -1.95026 3.1042 0
M  V30 32 H -0.4919 -4.35547 2.51611 0
M  V30 33 H -0.7919 -4.06062 4.2472 0
M  V30 34 H 0.7321 -4.83545 3.72849 0
M  V30 35 H 2.1461 -2.91277 4.93792 0
M  V30 36 H 0.5431 -2.36971 5.5133 0
M  V30 37 H 1.6131 -1.21818 4.69349 0
M  V30 38 N 2.9562 -1.48159 -0.537278 0
M  V30 39 C 3.9032 -1.62138 -1.64256 0
M  V30 40 C 4.8732 -0.463668 -1.59497 0
M  V30 41 O 6.0582 -0.686241 -1.78032 0
M  V30 42 C 3.1982 -1.66028 -3.02537 0
M  V30 43 C 2.3112 -2.92855 -3.17585 0
M  V30 44 C 1.4462 -2.87952 -4.46382 0
M  V30 45 C 0.4852 -4.09516 -4.54932 0
M  V30 46 N -0.3778 -4.02733 -5.75109 0
M  V30 47 H 4.4622 -2.56529 -1.51647 0
M  V30 48 H 1.9992 -1.27224 -0.738414 0
M  V30 49 H 3.9572 -1.66265 -3.82638 0
M  V30 50 H 2.5872 -0.751331 -3.13934 0
M  V30 51 H 1.6392 -3.02395 -2.30784 0
M  V30 52 H 2.9512 -3.82822 -3.19764 0
M  V30 53 H 2.1052 -2.8655 -5.34765 0
M  V30 54 H 0.8442 -1.95702 -4.46712 0
M  V30 55 H -0.1508 -4.11201 -3.64957 0
M  V30 56 H 1.0742 -5.02917 -4.56346 0
M  V30 57 H -0.9798 -3.13299 -5.76351 0
M  V30 58 H -1.0628 -4.86397 -5.78752 0
M  V30 59 H 0.2052 -4.05379 -6.65799 0
M  V30 60 N 4.4343 0.785586 -1.36625 0
M  V30 61 C 5.3813 1.89838 -1.31264 0
M  V30 62 C 6.3513 1.65115 -0.180633 0
M  V30 63 O 7.5363 1.87222 -0.36777 0
M  V30 64 C 4.6763 3.26706 -1.11163 0
M  V30 65 C 3.7893 3.63476 -2.33472 0
M  V30 66 C 2.9243 4.89481 -2.06353 0
M  V30 67 C 1.9633 5.18941 -3.24602 0
M  V30 68 N 1.1003 6.36131 -2.97123 0
M  V30 69 H 5.9403 1.93756 -2.26413 0
M  V30 70 H 3.4773 0.947454 -1.12524 0
M  V30 71 H 5.4353 4.05639 -0.975337 0
M  V30 72 H 4.0653 3.222 -0.196674 0
M  V30 73 H 3.1173 2.79636 -2.57891 0
M  V30 74 H 4.4293 3.81193 -3.21704 0
M  V30 75 H 3.5833 5.76288 -1.89675 0
M  V30 76 H 2.3223 4.73841 -1.15437 0
M  V30 77 H 1.3273 4.30615 -3.41834 0
M  V30 78 H 2.5523 5.36498 -4.16349 0
M  V30 79 H 0.4983 6.21875 -2.08823 0
M  V30 80 H 0.4153 6.54198 -3.78894 0
M  V30 81 H 1.6833 7.2591 -2.84033 0
M  V30 82 N 5.9124 1.20967 1.01018 0
M  V30 83 C 7.1594 1.02374 1.74716 0
M  V30 84 C 7.4874 -0.443375 1.89379 0
M  V30 85 O 6.7424 -1.34535 1.42123 0
M  V30 86 C 7.0414 1.65997 3.16512 0
M  V30 87 C 6.7074 3.15831 3.2181 0
M  V30 88 C 5.3694 3.56719 3.22963 0
M  V30 89 C 7.7214 4.11816 3.19464 0
M  V30 90 C 5.0494 4.92107 3.19449 0
M  V30 91 C 7.4014 5.47158 3.17491 0
M  V30 92 C 6.0654 5.87451 3.16951 0
M  V30 93 H 5.3354 0.374614 0.639332 0
M  V30 94 H 7.9824 1.50485 1.18434 0
M  V30 95 H 6.2874 1.10166 3.75993 0
M  V30 96 H 7.9844 1.49119 3.72242 0
M  V30 97 H 4.5744 2.83263 3.21652 0
M  V30 98 H 8.7584 3.81257 3.17737 0
M  V30 99 H 4.0144 5.22579 3.17366 0
M  V30 100 H 8.1884 6.21274 3.14629 0
M  V30 101 H 5.8154 6.92329 3.13983 0
M  V30 102 N 7.3905 -1.2043 1.01659 0
M  V30 103 C 8.6675 -1.8548 0.621004 0
M  V30 104 C 9.0475 -1.9091 -0.900919 0
M  V30 105 O 8.3955 -1.41694 -1.79263 0
M  V30 106 C 8.6055 -3.25119 1.2688 0
M  V30 107 C 9.9535 -4.01403 1.38423 0
M  V30 108 O 10.9775 -3.34473 1.22501 0
M  V30 109 O 9.8365 -5.21265 1.64151 0
M  V30 110 H 6.9305 -0.798761 0.214266 0
M  V30 111 H 9.4765 -1.28019 1.11396 0
M  V30 112 H 8.2485 -3.15932 2.30873 0
M  V30 113 H 7.8715 -3.90212 0.762917 0
M  V30 114 N 8.8686 -0.792821 -1.36206 0
M  V30 115 C 9.8156 -0.191653 -2.30003 0
M  V30 116 C 10.7856 0.666453 -1.52143 0
M  V30 117 O 11.9706 0.61442 -1.80636 0
M  V30 118 C 9.1106 0.664848 -3.38635 0
M  V30 119 C 8.2236 -0.212175 -4.31479 0
M  V30 120 C 7.3586 0.651022 -5.27196 0
M  V30 121 C 6.3976 -0.227247 -6.11678 0
M  V30 122 N 5.5346 0.595127 -6.99573 0
M  V30 123 H 10.3746 -0.996978 -2.80828 0
M  V30 124 H 7.9116 -0.503206 -1.38225 0
M  V30 125 H 9.8696 1.17645 -4.00269 0
M  V30 126 H 8.4996 1.43557 -2.89122 0
M  V30 127 H 7.5516 -0.841777 -3.70969 0
M  V30 128 H 8.8636 -0.888751 -4.90818 0
M  V30 129 H 8.0176 1.2283 -5.94136 0
M  V30 130 H 6.7566 1.36121 -4.68319 0
M  V30 131 H 5.7616 -0.816904 -5.43697 0
M  V30 132 H 6.9866 -0.93509 -6.72631 0
M  V30 133 H 4.9326 1.28955 -6.432 0
M  V30 134 H 4.8496 -0.0236952 -7.55996 0
M  V30 135 H 6.1176 1.15613 -7.70879 0
M  V30 136 N 10.3467 1.47872 -0.545128 0
M  V30 137 C 11.2937 2.29849 0.2093 0
M  V30 138 C 12.2637 1.38313 0.919707 0
M  V30 139 O 13.4487 1.67277 0.917772 0
M  V30 140 C 10.5887 3.22019 1.24088 0
M  V30 141 C 9.7017 4.2864 0.537778 0
M  V30 142 C 8.8367 5.07973 1.5536 0
M  V30 143 C 7.8757 6.06381 0.8348 0
M  V30 144 N 7.0127 6.78717 1.79688 0
M  V30 145 H 11.8527 2.93845 -0.49591 0
M  V30 146 H 9.3897 1.44848 -0.256389 0
M  V30 147 H 11.3477 3.73868 1.85144 0
M  V30 148 H 9.9777 2.59914 1.91428 0
M  V30 149 H 9.0297 3.7994 -0.187046 0
M  V30 150 H 10.3417 4.98793 -0.0258907 0
M  V30 151 H 9.4957 5.63912 2.23803 0
M  V30 152 H 8.2347 4.37693 2.15118 0
M  V30 153 H 7.2397 5.49631 0.136388 0
M  V30 154 H 8.4647 6.78665 0.24313 0
M  V30 155 H 6.4107 6.11177 2.38326 0
M  V30 156 H 6.3277 7.44998 1.28505 0
M  V30 157 H 7.5957 7.39237 2.47282 0
M  V30 158 N 11.8248 0.280983 1.55075 0
M  V30 159 C 13.1018 -0.386207 1.91749 0
M  V30 160 C 13.4818 -1.73264 1.20594 0
M  V30 161 O 12.8298 -2.26034 0.334784 0
M  V30 162 C 13.0398 -0.520687 3.45094 0
M  V30 163 C 14.3878 -0.800865 4.16979 0
M  V30 164 O 15.4118 -0.605271 3.5102 0
M  V30 165 O 14.2708 -1.1753 5.33712 0
M  V30 166 H 11.3648 -0.212408 0.799257 0
M  V30 167 H 13.9108 0.327568 1.66509 0
M  V30 168 H 12.6828 0.426633 3.88967 0
M  V30 169 H 12.3058 -1.2837 3.76307 0
M  V30 170 N 13.3029 -1.57598 0.00835791 0
M  V30 171 C 14.2129 -2.12385 -0.996487 0
M  V30 172 C 15.2289 -1.07108 -1.37127 0
M  V30 173 O 16.4049 -1.39055 -1.4569 0
M  V30 174 C 13.4699 -2.62314 -2.26699 0
M  V30 175 C 12.5309 -3.82225 -1.95456 0
M  V30 176 C 11.7639 -4.29763 -3.16449 0
M  V30 177 O 11.9869 -3.76584 -4.28416 0
M  V30 178 O 10.9209 -5.21832 -2.99958 0
M  V30 179 H 14.7469 -2.98479 -0.560725 0
M  V30 180 H 12.3319 -1.47903 -0.210987 0
M  V30 181 H 14.2139 -2.94589 -3.01322 0
M  V30 182 H 12.8889 -1.79313 -2.69497 0
M  V30 183 H 11.7959 -3.54909 -1.18282 0
M  V30 184 H 13.1289 -4.66324 -1.57489 0
M  V30 185 N 14.781 0.264519 -1.55364 0
M  V30 186 C 15.691 1.34902 -1.91934 0
M  V30 187 C 16.707 1.53595 -0.817593 0
M  V30 188 O 17.883 1.67558 -1.11742 0
M  V30 189 C 14.948 2.68676 -2.19121 0
M  V30 190 C 14.009 2.58657 -3.4263 0
M  V30 191 C 13.242 3.86051 -3.68511 0
M  V30 192 O 13.465 4.87126 -2.96757 0
M  V30 193 O 12.399 3.85744 -4.62045 0
M  V30 194 H 16.225 1.06883 -2.8427 0
M  V30 195 H 13.81 0.463775 -1.42019 0
M  V30 196 H 15.692 3.47759 -2.37995 0
M  V30 197 H 14.367 2.96463 -1.29966 0
M  V30 198 H 13.274 1.7792 -3.29082 0
M  V30 199 H 14.607 2.35818 -4.32031 0
M  V30 200 N 16.2591 1.48442 0.529413 0
M  V30 201 C 17.4841 1.60406 1.31471 0
M  V30 202 C 17.9091 0.264738 1.86228 0
M  V30 203 O 17.2671 -0.763668 1.64432 0
M  V30 204 C 17.3151 2.65419 2.44101 0
M  V30 205 O 16.4191 2.22618 3.47153 0
M  V30 206 H 15.7601 0.537863 0.389357 0
M  V30 207 H 18.2901 1.94432 0.636965 0
M  V30 208 H 18.3001 2.86709 2.90279 0
M  V30 209 H 16.9751 3.62652 2.03608 0
M  V30 210 H 15.5521 2.11543 3.0709 0
M  V30 211 N 17.7372 -0.778329 1.37039 0
M  V30 212 C 18.9852 -1.53361 1.31623 0
M  V30 213 C 19.3062 -1.94739 -0.100831 0
M  V30 214 O 18.5762 -1.65797 -1.04347 0
M  V30 215 H 17.1562 -0.568794 0.484234 0
M  V30 216 H 19.8182 -0.926742 1.71457 0
M  V30 217 H 18.9142 -2.43606 1.95096 0
M  V30 218 N 19.2153 -1.21501 -1.00376 0
M  V30 219 C 20.4633 -1.03095 -1.73827 0
M  V30 220 C 20.7843 0.436341 -1.90055 0
M  V30 221 O 20.0543 1.31466 -1.45236 0
M  V30 222 H 18.6343 -0.378487 -0.644016 0
M  V30 223 H 21.2963 -1.52831 -1.20949 0
M  V30 224 H 20.3923 -1.49991 -2.73695 0
M  V30 225 N 20.6934 1.19889 -1.02296 0
M  V30 226 C 21.9414 1.89046 -0.714558 0
M  V30 227 C 22.2624 1.79636 0.758681 0
M  V30 228 O 21.5324 1.20292 1.54618 0
M  V30 229 H 20.1124 0.699802 -0.261317 0
M  V30 230 H 22.7744 1.45574 -1.29592 0
M  V30 231 H 21.8704 2.95524 -1.0036 0
M  V30 232 N 22.1715 0.800033 1.35784 0
M  V30 233 C 23.3965 0.388511 2.03729 0
M  V30 234 C 23.8215 -0.990481 1.5991 0
M  V30 235 O 23.1795 -1.64013 0.772612 0
M  V30 236 C 23.2275 0.4726 3.5749 0
M  V30 237 O 22.3315 -0.51646 4.09153 0
M  V30 238 H 21.6725 0.163271 0.643614 0
M  V30 239 H 24.2025 1.0841 1.73518 0
M  V30 240 H 24.2125 0.34003 4.06581 0
M  V30 241 H 22.8875 1.47848 3.88734 0
M  V30 242 H 21.4645 -0.344673 3.71304 0
M  V30 243 N 23.6496 -1.47581 0.552962 0
M  V30 244 C 24.5976 -2.31648 -0.21023 0
M  V30 245 C 25.5916 -1.42663 -0.913432 0
M  V30 246 O 26.7976 -1.5945 -0.835201 0
M  V30 247 H 23.1726 -0.746989 -0.0866676 0
M  V30 248 H 25.1436 -2.93869 0.518051 0
M  V30 249 C 23.8926 -3.25226 -1.22976 0
M  V30 250 H 23.2156 -3.93658 -0.698077 0
M  V30 251 H 24.6556 -3.86889 -1.73473 0
M  V30 252 C 23.1146 -2.48448 -2.27542 0
M  V30 253 O 23.6446 -2.22585 -3.34393 0
M  V30 254 N 21.8506 -2.09532 -2.01357 0
M  V30 255 H 21.3976 -2.30765 -1.14478 0
M  V30 256 H 21.3556 -1.58476 -2.71538 0
M  V30 257 N 25.1277 -0.289203 -1.54924 0
M  V30 258 C 26.5387 0.205791 -1.85562 0
M  V30 259 C 26.8897 1.54351 -1.2112 0
M  V30 260 O 26.0147 2.10435 -0.504601 0
M  V30 261 C 26.6097 0.380177 -3.3666 0
M  V30 262 C 25.1687 0.819395 -3.67373 0
M  V30 263 C 24.3157 -0.079159 -2.77187 0
M  V30 264 H 27.2667 -0.510577 -1.50262 0
M  V30 265 H 27.2877 1.21659 -3.60526 0
M  V30 266 H 26.7997 -0.593589 -3.83534 0
M  V30 267 H 24.9007 1.80413 -3.26009 0
M  V30 268 H 25.0137 0.646957 -4.74712 0
M  V30 269 H 23.3777 0.439565 -2.50878 0
M  V30 270 H 24.1607 -1.04906 -3.26878 0
M  V30 271 N 26.6058 1.57591 -0.0167156 0
M  V30 272 C 27.8528 1.91283 0.664597 0
M  V30 273 C 28.1808 0.891949 1.72842 0
M  V30 274 O 27.4358 -0.100931 1.9544 0
M  V30 275 C 27.7348 3.3172 1.33029 0
M  V30 276 C 27.4008 4.4914 0.398047 0
M  V30 277 C 26.0628 4.80992 0.141421 0
M  V30 278 C 28.4148 5.20634 -0.242825 0
M  V30 279 C 25.7428 5.81703 -0.764092 0
M  V30 280 C 28.0948 6.22311 -1.13632 0
M  V30 281 C 26.7588 6.52611 -1.40196 0
M  V30 282 H 26.0288 0.699956 0.243193 0
M  V30 283 H 28.6758 1.9135 -0.0758267 0
M  V30 284 H 26.9808 3.27856 2.14517 0
M  V30 285 H 28.6778 3.55055 1.86379 0
M  V30 286 H 25.2678 4.24262 0.608238 0
M  V30 287 H 29.4518 4.96267 -0.0576019 0
M  V30 288 H 24.7078 6.03532 -0.977732 0
M  V30 289 H 28.8818 6.76834 -1.63917 0
M  V30 290 H 26.5088 7.30467 -2.10529 0
M  V30 291 N 28.0839 -0.256276 1.55502 0
M  V30 292 C 29.0159 -1.33981 1.85962 0
M  V30 293 C 30.0289 -1.44743 0.745212 0
M  V30 294 O 31.2179 -1.4626 1.02324 0
M  V30 295 C 28.3179 -2.7194 2.02242 0
M  V30 296 C 27.4909 -2.83562 3.33033 0
M  V30 297 C 26.5499 -4.02304 3.39172 0
M  V30 298 O 25.5759 -3.92273 4.12444 0
M  V30 299 N 26.7779 -5.15045 2.67784 0
M  V30 300 H 29.5429 -1.08191 2.7949 0
M  V30 301 H 27.1039 -0.446388 1.55624 0
M  V30 302 H 29.0959 -3.49697 2.03701 0
M  V30 303 H 27.6659 -2.90479 1.15502 0
M  V30 304 H 26.8859 -1.92555 3.43971 0
M  V30 305 H 28.1739 -2.88271 4.19258 0
M  V30 306 H 27.5719 -5.26085 2.07968 0
M  V30 307 H 26.1289 -5.90972 2.74947 0
M  V30 308 N 29.562 -1.4872 -0.521534 0
M  V30 309 C 30.512 -1.60269 -1.62166 0
M  V30 310 C 31.496 -0.45935 -1.54204 0
M  V30 311 O 32.688 -0.711241 -1.62081 0
M  V30 312 C 29.817 -1.65344 -3.00859 0
M  V30 313 C 28.903 -2.85187 -3.13894 0
M  V30 314 N 29.294 -4.09509 -2.96877 0
M  V30 315 C 27.592 -2.82695 -3.44963 0
M  V30 316 C 28.293 -4.89959 -3.13552 0
M  V30 317 N 27.269 -4.22934 -3.41508 0
M  V30 318 H 31.071 -2.5413 -1.47632 0
M  V30 319 H 28.585 -1.45209 -0.727194 0
M  V30 320 H 30.582 -1.71713 -3.79895 0
M  V30 321 H 29.242 -0.726058 -3.16478 0
M  V30 322 H 30.253 -4.39814 -2.73467 0
M  V30 323 H 26.93 -1.99249 -3.66887 0
M  V30 324 H 28.32 -5.98654 -3.05061 0
M  V30 325 N 31.0401 0.771051 -1.3745 0
M  V30 326 C 31.9701 1.89827 -1.3597 0
M  V30 327 C 32.9511 1.68562 -0.228216 0
M  V30 328 O 34.1361 1.8941 -0.428675 0
M  V30 329 C 31.2661 3.2712 -1.16662 0
M  V30 330 C 30.2201 3.6295 -2.2683 0
M  V30 331 C 29.5461 4.98791 -1.92644 0
M  V30 332 C 30.8461 3.69627 -3.69017 0
M  V30 333 H 32.5401 1.91323 -2.30295 0
M  V30 334 H 30.0861 0.919082 -1.10855 0
M  V30 335 H 32.0391 4.05615 -1.14256 0
M  V30 336 H 30.7631 3.26059 -0.187926 0
M  V30 337 H 29.4221 2.86763 -2.28392 0
M  V30 338 H 29.0701 4.94271 -0.933021 0
M  V30 339 H 28.7701 5.23733 -2.66416 0
M  V30 340 H 30.2941 5.79685 -1.91826 0
M  V30 341 H 31.7081 4.38273 -3.69581 0
M  V30 342 H 30.1051 4.06067 -4.41848 0
M  V30 343 H 31.1751 2.70273 -4.02592 0
M  V30 344 N 32.5182 1.22032 0.997298 0
M  V30 345 C 33.4282 1.00271 2.12092 0
M  V30 346 C 34.4442 -0.047621 1.73935 0
M  V30 347 O 35.6202 0.144136 2.00884 0
M  V30 348 C 32.6852 0.578449 3.4184 0
M  V30 349 C 31.7462 1.70189 3.94125 0
M  V30 350 C 30.9792 1.29778 5.17681 0
M  V30 351 O 31.2022 0.174676 5.70132 0
M  V30 352 O 30.1362 2.11261 5.63607 0
M  V30 353 H 33.9622 1.94398 2.3333 0
M  V30 354 H 31.5472 1.00587 1.10465 0
M  V30 355 H 33.4292 0.351998 4.19927 0
M  V30 356 H 32.1042 -0.334019 3.21972 0
M  V30 357 H 31.0112 1.98282 3.1723 0
M  V30 358 H 32.3442 2.59206 4.18417 0
M  V30 359 N 33.9963 -1.19345 1.0293 0
M  V30 360 C 34.9433 -2.2258 0.610464 0
M  V30 361 C 35.9133 -1.6179 -0.375946 0
M  V30 362 O 37.0983 -1.88844 -0.272511 0
M  V30 363 C 34.2383 -3.45085 -0.0321473 0
M  V30 364 C 33.3513 -4.20258 1.00035 0
M  V30 365 C 32.4863 -5.3019 0.32746 0
M  V30 366 C 31.5253 -5.97121 1.34584 0
M  V30 367 N 30.6623 -6.98615 0.698726 0
M  V30 368 H 35.5023 -2.57764 1.49538 0
M  V30 369 H 33.0393 -1.26644 0.748311 0
M  V30 370 H 34.9973 -4.15061 -0.421966 0
M  V30 371 H 33.6273 -3.10555 -0.88064 0
M  V30 372 H 32.6793 -3.49223 1.50823 0
M  V30 373 H 33.9913 -4.66175 1.77433 0
M  V30 374 H 33.1453 -6.06587 -0.11718 0
M  V30 375 H 31.8843 -4.85345 -0.478713 0
M  V30 376 H 30.8893 -5.19474 1.80074 0
M  V30 377 H 32.1143 -6.4405 2.15352 0
M  V30 378 H 30.0603 -6.55942 -0.0873471 0
M  V30 379 H 29.9773 -7.42724 1.41058 0
M  V30 380 H 31.2453 -7.79004 0.278102 0
M  V30 381 N 35.4744 -0.807222 -1.35358 0
M  V30 382 C 36.6994 -0.399309 -2.0352 0
M  V30 383 C 37.1244 0.981986 -1.60433 0
M  V30 384 O 36.4824 1.63601 -0.781299 0
M  V30 385 C 36.5304 -0.491552 -3.57234 0
M  V30 386 O 35.6344 0.494754 -4.09421 0
M  V30 387 H 34.9754 -0.166682 -0.642739 0
M  V30 388 H 37.5054 -1.09328 -1.72941 0
M  V30 389 H 37.5154 -0.361588 -4.06395 0
M  V30 390 H 36.1904 -1.49907 -3.87944 0
M  V30 391 H 34.7674 0.324977 -3.71481 0
M  V30 392 N 36.9525 1.47285 -0.560781 0
M  V30 393 C 37.9155 2.28535 0.174488 0
M  V30 394 C 38.9155 1.37153 0.839388 0
M  V30 395 O 40.1055 1.59748 0.694702 0
M  V30 396 C 37.2375 3.16934 1.25561 0
M  V30 397 H 38.4305 2.95012 -0.539262 0
M  V30 398 H 35.9835 1.53034 -0.317865 0
M  V30 399 H 36.7185 2.55157 2.00164 0
M  V30 400 H 36.5035 3.8419 0.783604 0
M  V30 401 H 37.9935 3.78143 1.77193 0
M  V30 402 N 38.4306 0.297415 1.54768 0
M  V30 403 C 39.6766 -0.313376 2.00364 0
M  V30 404 C 40.0096 -1.53815 1.18553 0
M  V30 405 O 39.2846 -1.92739 0.261103 0
M  V30 406 C 39.5676 -0.673525 3.53745 0
M  V30 407 C 39.4206 0.560133 4.46299 0
M  V30 408 C 40.7396 -1.50143 4.13697 0
M  V30 409 H 37.8586 -0.112428 0.728374 0
M  V30 410 H 40.5006 0.4088 1.8555 0
M  V30 411 H 38.6506 -1.28881 3.665 0
M  V30 412 H 40.3226 1.19863 4.45455 0
M  V30 413 H 38.5656 1.19405 4.17043 0
M  V30 414 H 39.2366 0.26405 5.51368 0
M  V30 415 H 41.7126 -0.981588 4.04356 0
M  V30 416 H 40.5886 -1.72221 5.21182 0
M  V30 417 H 40.8496 -2.48952 3.65343 0
M  V30 418 N 39.9087 -1.5758 0.0250728 0
M  V30 419 C 40.8387 -2.13007 -0.956575 0
M  V30 420 C 41.8197 -1.0452 -1.342 0
M  V30 421 O 43.0047 -1.32332 -1.42133 0
M  V30 422 C 40.1347 -2.65386 -2.24026 0
M  V30 423 C 39.0887 -3.78623 -1.99571 0
M  V30 424 C 38.4147 -4.17414 -3.3417 0
M  V30 425 C 39.7147 -5.04867 -1.33814 0
M  V30 426 H 41.4087 -2.9528 -0.494991 0
M  V30 427 H 38.9547 -1.42042 -0.236651 0
M  V30 428 H 40.9077 -3.02794 -2.93076 0
M  V30 429 H 39.6317 -1.80268 -2.72343 0
M  V30 430 H 38.2907 -3.41646 -1.32941 0
M  V30 431 H 37.9387 -3.29284 -3.80238 0
M  V30 432 H 37.6387 -4.93719 -3.18615 0
M  V30 433 H 39.1627 -4.57402 -4.04495 0
M  V30 434 H 40.5767 -5.39888 -1.92857 0
M  V30 435 H 38.9737 -5.86144 -1.28669 0
M  V30 436 H 40.0437 -4.83904 -0.310561 0
M  V30 437 N 41.3868 0.248026 -1.55636 0
M  V30 438 C 42.3188 1.32993 -1.8667 0
M  V30 439 C 43.3318 1.44345 -0.752877 0
M  V30 440 O 44.5208 1.45715 -1.03098 0
M  V30 441 C 41.6208 2.70863 -2.03682 0
M  V30 442 C 40.7938 2.81792 -3.34532 0
M  V30 443 C 39.8528 4.005 -3.41301 0
M  V30 444 O 38.8788 3.9008 -4.14519 0
M  V30 445 N 40.0808 5.13618 -2.70512 0
M  V30 446 H 42.8458 1.06707 -2.8006 0
M  V30 447 H 40.4068 0.438129 -1.55859 0
M  V30 448 H 42.3988 3.48612 -2.05553 0
M  V30 449 H 40.9688 2.89862 -1.17041 0
M  V30 450 H 40.1888 1.90729 -3.44987 0
M  V30 451 H 41.4768 2.86043 -4.20781 0
M  V30 452 H 40.8748 5.24975 -2.10755 0
M  V30 453 H 39.4318 5.89505 -2.78077 0
M  V30 454 N 42.8649 1.48995 0.513639 0
M  V30 455 C 43.7749 1.67443 1.64317 0
M  V30 456 C 44.7909 0.556947 1.64846 0
M  V30 457 O 45.9669 0.830082 1.83498 0
M  V30 458 C 43.0319 1.72515 3.00732 0
M  V30 459 C 42.0929 2.96009 3.1093 0
M  V30 460 C 41.3259 3.00829 4.40837 0
M  V30 461 O 41.5489 2.13594 5.28898 0
M  V30 462 O 40.4829 3.93168 4.55744 0
M  V30 463 H 44.3089 2.63106 1.51687 0
M  V30 464 H 41.8939 1.32588 0.688543 0
M  V30 465 H 43.7759 1.78277 3.81831 0
M  V30 466 H 42.4509 0.800278 3.13651 0
M  V30 467 H 41.3579 2.9577 2.29065 0
M  V30 468 H 42.6909 3.87934 3.02933 0
M  V30 469 N 44.343 -0.763751 1.37857 0
M  V30 470 C 45.306 -1.85889 1.34081 0
M  V30 471 C 46.306 -1.58949 0.243277 0
M  V30 472 O 47.496 -1.66882 0.499589 0
M  V30 473 C 44.628 -3.23176 1.08489 0
M  V30 474 H 45.821 -1.90648 2.31502 0
M  V30 475 H 43.374 -0.964367 1.23003 0
M  V30 476 H 44.109 -3.24091 0.116318 0
M  V30 477 H 43.894 -3.44124 1.8794 0
M  V30 478 H 45.384 -4.03254 1.08517 0
M  V30 479 N 45.8211 -1.22559 -0.990812 0
M  V30 480 C 47.2371 -0.985996 -1.255 0
M  V30 481 C 47.4371 0.319173 -1.98956 0
M  V30 482 O 46.4931 1.04127 -2.3003 0
M  V30 483 C 47.8061 -2.18607 -2.06474 0
M  V30 484 C 49.3541 -2.22985 -2.19651 0
M  V30 485 C 49.8291 -3.4255 -3.04012 0
M  V30 486 N 51.3201 -3.42725 -3.11599 0
M  V30 487 C 52.0551 -4.31892 -3.7717 0
M  V30 488 N 51.5511 -5.31279 -4.44651 0
M  V30 489 N 53.3441 -4.19662 -3.73952 0
M  V30 490 H 45.4951 -2.06469 -0.49841 0
M  V30 491 H 47.7581 -0.904853 -0.282747 0
M  V30 492 H 47.4641 -3.13267 -1.59865 0
M  V30 493 H 47.3381 -2.18838 -3.07229 0
M  V30 494 H 49.7251 -1.28871 -2.65474 0
M  V30 495 H 49.8061 -2.26791 -1.18319 0
M  V30 496 H 49.4501 -4.36965 -2.58889 0
M  V30 497 H 49.3801 -3.35984 -4.0549 0
M  V30 498 H 51.8711 -2.70807 -2.63575 0
M  V30 499 H 52.1841 -5.95593 -4.92431 0
M  V30 500 H 50.5291 -5.3519 -4.43392 0
M  V30 501 H 53.7201 -3.41268 -3.20396 0
M  V30 502 H 53.8931 -4.89358 -4.24774 0
M  V30 503 N 47.2992 1.18797 -1.03562 0
M  V30 504 C 48.5452 1.8893 -0.737113 0
M  V30 505 C 48.8782 1.79837 0.732956 0
M  V30 506 O 48.1532 1.19525 1.5344 0
M  V30 507 C 48.4362 3.39607 -1.19745 0
M  V30 508 C 48.2892 3.57537 -2.72924 0
M  V30 509 C 49.6082 4.33069 -0.783526 0
M  V30 510 H 46.7272 0.686057 -0.269249 0
M  V30 511 H 49.3692 1.39797 -1.28673 0
M  V30 512 H 47.5192 3.81583 -0.729855 0
M  V30 513 H 49.1912 3.24688 -3.27682 0
M  V30 514 H 47.4342 3.00363 -3.12993 0
M  V30 515 H 48.1052 4.63238 -3.00191 0
M  V30 516 H 50.5812 3.98846 -1.18581 0
M  V30 517 H 49.4572 5.3707 -1.13343 0
M  V30 518 H 49.7182 4.40986 0.313681 0
M  V30 519 N 48.7773 0.814389 1.34928 0
M  V30 520 C 50.0243 0.398423 1.98542 0
M  V30 521 C 50.3523 -1.03638 1.64589 0
M  V30 522 O 49.6073 -1.73509 0.90516 0
M  V30 523 C 49.9063 0.537781 3.53331 0
M  V30 524 C 49.5723 1.93704 4.07172 0
M  V30 525 C 48.2343 2.31984 4.21589 0
M  V30 526 C 50.5863 2.85213 4.36237 0
M  V30 527 C 47.9143 3.61125 4.62391 0
M  V30 528 C 50.2663 4.13809 4.78482 0
M  V30 529 C 48.9303 4.52077 4.91104 0
M  V30 530 H 48.2003 0.145793 0.726516 0
M  V30 531 H 50.8473 1.03669 1.61012 0
M  V30 532 H 49.1523 -0.183906 3.91368 0
M  V30 533 H 50.8493 0.196588 4.00518 0
M  V30 534 H 47.4393 1.62966 3.96409 0
M  V30 535 H 51.6233 2.56885 4.24645 0
M  V30 536 H 46.8793 3.90612 4.70353 0
M  V30 537 H 51.0533 4.84811 4.99932 0
M  V30 538 H 48.6803 5.52196 5.22478 0
M  V30 539 N 50.2554 -1.46986 0.568584 0
M  V30 540 C 51.2034 -2.31858 -0.185649 0
M  V30 541 C 52.1974 -1.43624 -0.898249 0
M  V30 542 O 53.4034 -1.60327 -0.818242 0
M  V30 543 H 49.7784 -0.747866 -0.0787399 0
M  V30 544 H 51.7494 -2.93303 0.549191 0
M  V30 545 C 50.4984 -3.26513 -1.19519 0
M  V30 546 H 49.8214 -3.94377 -0.656285 0
M  V30 547 H 51.2614 -3.88707 -1.6936 0
M  V30 548 C 49.7204 -2.50847 -2.24894 0
M  V30 549 O 50.2504 -2.26119 -3.32014 0
M  V30 550 N 48.4564 -2.11656 -1.99124 0
M  V30 551 H 48.0034 -2.31966 -1.12024 0
M  V30 552 H 47.9614 -1.61347 -2.69842 0
M  V30 553 N 51.7335 -0.305618 -1.54608 0
M  V30 554 C 52.6435 0.57778 -2.27374 0
M  V30 555 C 53.6595 1.14451 -1.31061 0
M  V30 556 O 54.8355 1.16831 -1.6405 0
M  V30 557 C 51.9005 1.73123 -3.00382 0
M  V30 558 C 50.9615 1.19812 -4.12242 0
M  V30 559 C 50.1945 2.2966 -4.81759 0
M  V30 560 O 50.4175 3.49651 -4.50666 0
M  V30 561 O 49.3515 1.96091 -5.69062 0
M  V30 562 H 53.1775 -0.012624 -3.03697 0
M  V30 563 H 50.7625 -0.0719184 -1.49227 0
M  V30 564 H 52.6445 2.40315 -3.4616 0
M  V30 565 H 51.3195 2.30815 -2.26949 0
M  V30 566 H 50.2265 0.491798 -3.70853 0
M  V30 567 H 51.5595 0.666566 -4.87666 0
M  V30 568 N 53.2116 1.57565 -0.0334293 0
M  V30 569 C 54.4396 1.9628 0.654347 0
M  V30 570 C 54.8546 0.910138 1.65414 0
M  V30 571 O 54.2116 -0.107595 1.82183 0
M  V30 572 C 54.2626 3.35067 1.35693 0
M  V30 573 O 53.9836 4.36296 0.397191 0
M  V30 574 C 55.4846 3.88439 2.13613 0
M  V30 575 H 52.7046 0.646369 0.180132 0
M  V30 576 H 55.2486 2.04282 -0.0944721 0
M  V30 577 H 53.4036 3.2827 2.05712 0
M  V30 578 H 53.8176 5.1678 0.896597 0
M  V30 579 H 55.2916 4.8788 2.58219 0
M  V30 580 H 55.7686 3.22914 2.97696 0
M  V30 581 H 56.3746 3.98516 1.48543 0
M  V30 582 N 54.6897 -0.239769 1.55765 0
M  V30 583 C 56.1007 -0.808263 1.68297 0
M  V30 584 C 56.4517 -1.85736 0.632181 0
M  V30 585 O 55.5767 -2.15277 -0.220204 0
M  V30 586 C 56.1717 -1.47284 3.05111 0
M  V30 587 C 54.7307 -1.98895 3.19559 0
M  V30 588 C 53.8777 -0.842575 2.64189 0
M  V30 589 H 56.8287 -0.0154422 1.58692 0
M  V30 590 H 56.8497 -2.34111 2.99954 0
M  V30 591 H 56.3617 -0.709053 3.81568 0
M  V30 592 H 54.4627 -2.78132 2.47938 0
M  V30 593 H 54.5757 -2.18143 4.26556 0
M  V30 594 H 52.9397 -1.24501 2.22197 0
M  V30 595 H 53.7227 -0.0917552 3.43177 0
M  V30 596 N 56.1678 -1.49265 -0.50573 0
M  V30 597 C 57.4168 -1.57761 -1.25675 0
M  V30 598 C 57.7298 -0.267371 -1.93764 0
M  V30 599 O 58.9358 -0.230827 -2.70517 0
M  V30 600 C 57.3918 -2.78332 -2.28165 0
M  V30 601 C 56.9998 -4.16096 -1.66037 0
M  V30 602 C 58.7438 -2.96155 -3.04125 0
M  V30 603 C 56.6508 -5.27895 -2.6661 0
M  V30 604 H 55.5808 -0.587391 -0.472745 0
M  V30 605 H 58.2318 -1.75644 -0.53118 0
M  V30 606 H 56.6138 -2.53934 -3.03865 0
M  V30 607 H 57.7878 -4.50612 -0.963622 0
M  V30 608 H 56.1028 -4.03591 -1.02484 0
M  V30 609 H 58.6998 -3.76849 -3.79327 0
M  V30 610 H 59.0428 -2.06534 -3.61455 0
M  V30 611 H 59.5758 -3.2057 -2.35541 0
M  V30 612 H 56.3148 -6.1956 -2.14068 0
M  V30 613 H 55.8348 -4.97839 -3.34539 0
M  V30 614 H 57.5138 -5.57031 -3.29129 0
M  V30 615 N 57.6459 0.756429 -1.3826 0
M  V30 616 C 58.5939 1.89149 -1.35372 0
M  V30 617 C 59.5879 1.67691 -0.24004 0
M  V30 618 O 60.7939 1.75294 -0.408919 0
M  V30 619 H 57.1689 0.622271 -0.422236 0
M  V30 620 H 59.1399 1.88701 -2.31159 0
M  V30 621 C 57.8889 3.26599 -1.19284 0
M  V30 622 H 57.2119 3.43695 -2.0424 0
M  V30 623 H 58.6519 4.06274 -1.21316 0
M  V30 624 C 57.1109 3.3675 0.100454 0
M  V30 625 O 57.6409 3.86951 1.07851 0
M  V30 626 N 55.8469 2.90179 0.15633 0
M  V30 627 H 55.3939 2.49517 -0.640253 0
M  V30 628 H 55.3519 2.97352 1.02123 0
M  V30 629 N 59.124 1.23083 0.984299 0
M  V30 630 C 60.535 1.05609 1.5396 0
M  V30 631 C 60.886 -0.377793 1.92528 0
M  V30 632 O 60.011 -1.26398 1.75649 0
M  V30 633 C 60.606 1.91087 2.7977 0
M  V30 634 C 59.165 1.77885 3.31713 0
M  V30 635 C 58.312 1.87028 2.04733 0
M  V30 636 H 61.263 1.36802 0.804419 0
M  V30 637 H 61.284 1.43336 3.5247 0
M  V30 638 H 60.796 2.9544 2.51668 0
M  V30 639 H 58.897 0.762995 3.64704 0
M  V30 640 H 59.01 2.61047 4.01735 0
M  V30 641 H 57.374 1.30565 2.18689 0
M  V30 642 H 58.157 2.92929 1.79017 0
M  V30 643 N 60.6021 -1.18246 1.0419 0
M  V30 644 C 62.0181 -1.40269 0.761366 0
M  V30 645 C 62.2181 -1.90777 -0.648578 0
M  V30 646 O 61.2741 -2.0929 -1.41258 0
M  V30 647 C 62.5871 -2.40237 1.8085 0
M  V30 648 C 64.1351 -2.53961 1.82955 0
M  V30 649 C 64.6101 -3.57194 2.86664 0
M  V30 650 N 66.1011 -3.64702 2.85563 0
M  V30 651 C 66.8361 -4.44309 3.6246 0
M  V30 652 N 66.3321 -5.27514 4.49111 0
M  V30 653 N 68.1251 -4.39084 3.50944 0
M  V30 654 H 60.2761 -0.837882 1.95175 0
M  V30 655 H 62.5391 -0.430608 0.84456 0
M  V30 656 H 62.2451 -2.10176 2.81991 0
M  V30 657 H 62.1191 -3.39601 1.64168 0
M  V30 658 H 64.5061 -2.83338 0.824855 0
M  V30 659 H 64.5871 -1.54706 2.03715 0
M  V30 660 H 64.2311 -3.28558 3.87314 0
M  V30 661 H 64.1611 -4.5613 2.6316 0
M  V30 662 H 66.6521 -3.05289 2.22727 0
M  V30 663 H 66.9651 -5.85411 5.04493 0
M  V30 664 H 65.3101 -5.2693 4.53178 0
M  V30 665 H 68.5011 -3.7313 2.82651 0
M  V30 666 H 68.6741 -5.00883 4.11121 0
M  V30 667 N 62.0802 -0.821533 -1.34494 0
M  V30 668 C 63.0272 -0.240397 -2.29545 0
M  V30 669 C 63.9972 0.634031 -1.53523 0
M  V30 670 O 65.1822 0.575966 -1.81899 0
M  V30 671 C 62.3222 0.592869 -3.39969 0
M  V30 672 C 61.4352 -0.30365 -4.30932 0
M  V30 673 C 60.5702 0.539049 -5.28458 0
M  V30 674 C 59.6092 -0.356942 -6.11058 0
M  V30 675 N 58.7462 0.446603 -7.00678 0
M  V30 676 H 63.5862 -1.05632 -2.7865 0
M  V30 677 H 61.1232 -0.532413 -1.37127 0
M  V30 678 H 63.0812 1.09129 -4.02675 0
M  V30 679 H 61.7112 1.37392 -2.92102 0
M  V30 680 H 60.7632 -0.920276 -3.691 0
M  V30 681 H 62.0752 -0.992661 -4.88823 0
M  V30 682 H 61.2292 1.102 -5.96608 0
M  V30 683 H 59.9682 1.26157 -4.71101 0
M  V30 684 H 58.9732 -0.932047 -5.41842 0
M  V30 685 H 60.1982 -1.07755 -6.70497 0
M  V30 686 H 58.1442 1.15282 -6.45791 0
M  V30 687 H 58.0612 -0.184048 -7.55776 0
M  V30 688 H 59.3292 0.992352 -7.73158 0
M  V30 689 N 63.5583 1.46682 -0.576371 0
M  V30 690 C 64.7983 2.04306 -0.0621356 0
M  V30 691 C 65.1623 1.4389 1.2712 0
M  V30 692 O 66.3633 1.92675 1.87429 0
M  V30 693 C 64.6343 3.57399 0.00927922 0
M  V30 694 S 66.1933 4.36309 0.466859 0
M  V30 695 H 63.0113 0.710167 -0.0344016 0
M  V30 696 H 65.6133 1.79807 -0.767437 0
M  V30 697 H 64.3173 3.98889 -0.965178 0
M  V30 698 H 63.8483 3.86424 0.737547 0
M  V30 699 H 65.8633 4.6533 1.72287 0
M  V30 700 N 65.0364 0.313813 1.54444 0
M  V30 701 C 65.9994 -0.54379 2.22656 0
M  V30 702 C 66.9994 -1.05124 1.21678 0
M  V30 703 O 68.1894 -0.945225 1.46325 0
M  V30 704 C 65.3214 -1.75427 2.92298 0
M  V30 705 H 66.5144 0.0523599 2.99854 0
M  V30 706 H 64.0674 0.0647834 1.56166 0
M  V30 707 H 64.8024 -2.38991 2.19211 0
M  V30 708 H 64.5874 -1.39791 3.66334 0
M  V30 709 H 66.0774 -2.36325 3.44297 0
M  V30 710 N 66.5145 -1.57545 0.0417849 0
M  V30 711 C 67.4645 -2.07483 -0.945247 0
M  V30 712 C 68.4485 -0.977983 -1.27767 0
M  V30 713 O 69.6405 -1.24142 -1.26166 0
M  V30 714 C 66.7695 -2.61576 -2.22335 0
M  V30 715 C 65.8555 -3.78213 -1.91874 0
M  V30 716 N 66.2465 -4.88344 -1.31733 0
M  V30 717 C 64.5445 -3.8694 -2.21796 0
M  V30 718 C 65.2455 -5.69462 -1.1869 0
M  V30 719 N 64.2215 -5.16771 -1.68666 0
M  V30 720 H 68.0235 -2.90029 -0.475441 0
M  V30 721 H 65.5375 -1.61581 -0.162911 0
M  V30 722 H 67.5345 -2.95651 -2.93932 0
M  V30 723 H 66.1945 -1.80465 -2.69931 0
M  V30 724 H 67.2055 -5.08335 -0.990729 0
M  V30 725 H 63.8825 -3.16757 -2.71977 0
M  V30 726 H 65.2725 -6.68023 -0.720793 0
M  V30 727 N 67.9926 0.231505 -1.5589 0
M  V30 728 C 69.2416 0.955346 -1.7764 0
M  V30 729 C 69.5546 1.85893 -0.608546 0
M  V30 730 O 70.7606 2.62067 -0.70943 0
M  V30 731 C 69.2166 1.74886 -3.14552 0
M  V30 732 C 68.8246 0.891915 -4.39032 0
M  V30 733 C 70.5686 2.46452 -3.45633 0
M  V30 734 C 68.4756 1.68221 -5.66971 0
M  V30 735 H 67.4056 0.360446 -0.662265 0
M  V30 736 H 70.0566 0.209516 -1.823 0
M  V30 737 H 68.4386 2.53723 -3.04041 0
M  V30 738 H 69.6126 0.144793 -4.60572 0
M  V30 739 H 67.9276 0.288863 -4.15397 0
M  V30 740 H 70.5246 3.06061 -4.38441 0
M  V30 741 H 70.8676 3.18841 -2.67668 0
M  V30 742 H 71.4006 1.74613 -3.57428 0
M  V30 743 H 68.1396 1.00178 -6.478 0
M  V30 744 H 67.6596 2.4042 -5.49507 0
M  V30 745 H 69.3386 2.24544 -6.06786 0
M  V30 746 N 69.4707 1.49531 0.497807 0
M  V30 747 C 70.4007 1.6935 1.60757 0
M  V30 748 C 71.3817 0.542218 1.61227 0
M  V30 749 O 72.5667 0.778417 1.77917 0
M  V30 750 C 69.6967 1.76298 2.99226 0
M  V30 751 C 68.6507 2.91248 3.13622 0
M  V30 752 C 67.9767 2.83312 4.53474 0
M  V30 753 C 69.2767 4.3214 2.93346 0
M  V30 754 H 70.9707 2.62263 1.44425 0
M  V30 755 H 68.5167 1.26208 0.693367 0
M  V30 756 H 70.4697 1.88749 3.76765 0
M  V30 757 H 69.1937 0.799871 3.16654 0
M  V30 758 H 67.8527 2.78404 2.38509 0
M  V30 759 H 67.5007 1.84902 4.67782 0
M  V30 760 H 67.2007 3.60465 4.64046 0
M  V30 761 H 68.7247 2.97775 5.33069 0
M  V30 762 H 70.1387 4.45649 3.60652 0
M  V30 763 H 68.5357 5.1054 3.15387 0
M  V30 764 H 69.6057 4.46363 1.89441 0
M  V30 765 N 70.9488 -0.749086 1.3866 0
M  V30 766 C 72.1768 -1.53834 1.38358 0
M  V30 767 C 72.5918 -1.88783 -0.0255219 0
M  V30 768 O 71.9488 -1.53101 -0.993292 0
M  V30 769 C 71.9998 -2.83468 2.2434 0
M  V30 770 O 71.7208 -2.50008 3.5976 0
M  V30 771 C 73.2218 -3.7758 2.32267 0
M  V30 772 H 70.4418 -0.47585 0.473083 0
M  V30 773 H 72.9858 -0.926726 1.82297 0
M  V30 774 H 71.1408 -3.40995 1.83851 0
M  V30 775 H 71.5548 -3.33182 4.05081 0
M  V30 776 H 73.0288 -4.65478 2.96706 0
M  V30 777 H 73.5058 -4.18334 1.33765 0
M  V30 778 H 74.1118 -3.25976 2.73166 0
M  V30 779 N 72.4269 -1.23603 -0.977757 0
M  V30 780 C 73.3739 -1.01954 -2.07061 0
M  V30 781 C 74.3439 0.0638697 -1.65977 0
M  V30 782 O 75.5289 -0.0887624 -1.90593 0
M  V30 783 C 72.6689 -0.619658 -3.39491 0
M  V30 784 C 71.7819 -1.77547 -3.93829 0
M  V30 785 C 70.9169 -1.32212 -5.14484 0
M  V30 786 C 69.9559 -2.44852 -5.60994 0
M  V30 787 N 69.0929 -2.00456 -6.72876 0
M  V30 788 H 73.9329 -1.95495 -2.24913 0
M  V30 789 H 71.4699 -0.973861 -1.10247 0
M  V30 790 H 73.4279 -0.368898 -4.15566 0
M  V30 791 H 72.0579 0.278752 -3.21594 0
M  V30 792 H 71.1099 -2.14016 -3.14486 0
M  V30 793 H 72.4219 -2.62219 -4.24314 0
M  V30 794 H 71.5759 -1.02965 -5.97899 0
M  V30 795 H 70.3149 -0.445808 -4.85658 0
M  V30 796 H 69.3199 -2.74871 -4.76157 0
M  V30 797 H 70.5449 -3.33024 -5.91837 0
M  V30 798 H 68.4909 -1.15208 -6.45804 0
M  V30 799 H 68.4079 -2.78687 -7.02759 0
M  V30 800 H 69.6759 -1.7432 -7.59758 0
M  V30 801 N 73.905 1.17692 -1.04816 0
M  V30 802 C 75.154 1.87192 -0.751132 0
M  V30 803 C 75.467 1.8169 0.724441 0
M  V30 804 O 76.673 2.46625 1.13527 0
M  V30 805 C 75.129 3.35857 -1.29338 0
M  V30 806 C 74.737 3.4987 -2.79812 0
M  V30 807 C 76.481 4.10709 -1.07322 0
M  V30 808 C 74.388 4.92536 -3.27356 0
M  V30 809 H 73.318 0.701162 -0.277288 0
M  V30 810 H 75.969 1.32932 -1.26496 0
M  V30 811 H 74.351 3.89631 -0.707376 0
M  V30 812 H 75.525 3.06332 -3.44235 0
M  V30 813 H 73.84 2.88433 -3.00325 0
M  V30 814 H 76.437 5.15952 -1.4035 0
M  V30 815 H 76.78 4.16299 -0.0108001 0
M  V30 816 H 77.313 3.6313 -1.62423 0
M  V30 817 H 74.052 4.92119 -4.33012 0
M  V30 818 H 73.572 5.3676 -2.67673 0
M  V30 819 H 75.251 5.61288 -3.21815 0
M  V30 820 N 75.3831 0.828654 1.34056 0
M  V30 821 C 76.3131 0.269443 2.3194 0
M  V30 822 C 77.2941 -0.617247 1.58506 0
M  V30 823 O 78.4791 -0.542931 1.86456 0
M  V30 824 C 75.6091 -0.564793 3.42677 0
M  V30 825 C 74.5631 0.225241 4.27407 0
M  V30 826 C 73.8891 -0.7321 5.29664 0
M  V30 827 C 75.1891 1.43663 5.02154 0
M  V30 828 H 76.8831 1.08728 2.7896 0
M  V30 829 H 74.4291 0.524283 1.34117 0
M  V30 830 H 76.3821 -0.966233 4.10173 0
M  V30 831 H 75.1061 -1.41574 2.9432 0
M  V30 832 H 73.7651 0.608117 3.61521 0
M  V30 833 H 73.4131 -1.57916 4.77568 0
M  V30 834 H 73.1131 -0.20767 5.87233 0
M  V30 835 H 74.6371 -1.13128 6.00029 0
M  V30 836 H 76.0511 1.1089 5.62473 0
M  V30 837 H 74.4481 1.89711 5.69324 0
M  V30 838 H 75.5181 2.21181 4.31517 0
M  V30 839 N 76.8612 -1.46375 0.584142 0
M  V30 840 C 78.0912 -2.06461 0.0758195 0
M  V30 841 C 78.4992 -1.43322 -1.23512 0
M  V30 842 O 77.8422 -0.533216 -1.75791 0
M  V30 843 C 77.9042 -3.59131 -0.162773 0
M  V30 844 C 77.5682 -4.4447 1.06279 0
M  V30 845 C 78.5652 -4.80918 1.97519 0
M  V30 846 C 76.2502 -4.85584 1.28504 0
M  V30 847 C 78.2442 -5.57309 3.09331 0
M  V30 848 C 75.9312 -5.61734 2.4062 0
M  V30 849 C 76.9292 -5.9751 3.30863 0
M  V30 850 O 76.6172 -6.72121 4.41032 0
M  V30 851 H 76.3492 -0.673745 0.0551725 0
M  V30 852 H 78.9032 -1.88969 0.804984 0
M  V30 853 H 77.1332 -3.74936 -0.946565 0
M  V30 854 H 78.8222 -4.0114 -0.619782 0
M  V30 855 H 79.5882 -4.49732 1.81565 0
M  V30 856 H 75.4672 -4.57187 0.591702 0
M  V30 857 H 79.0112 -5.85152 3.79793 0
M  V30 858 H 74.9082 -5.92334 2.56537 0
M  V30 859 H 75.6762 -6.90547 4.39417 0
M  V30 860 N 78.3393 -0.321999 -1.54275 0
M  V30 861 C 79.2693 0.537411 -2.27231 0
M  V30 862 C 80.2503 1.12064 -1.27968 0
M  V30 863 O 81.4353 1.14606 -1.56777 0
M  V30 864 C 78.5653 1.69919 -3.02894 0
M  V30 865 C 77.5193 1.24534 -4.09482 0
M  V30 866 C 76.8453 2.49394 -4.72977 0
M  V30 867 C 78.1453 0.361335 -5.21049 0
M  V30 868 H 79.8393 -0.0711406 -2.99315 0
M  V30 869 H 77.3853 -0.0356555 -1.43956 0
M  V30 870 H 79.3383 2.30668 -3.52662 0
M  V30 871 H 78.0623 2.33431 -2.28424 0
M  V30 872 H 76.7213 0.660782 -3.60596 0
M  V30 873 H 76.3693 3.11265 -3.95124 0
M  V30 874 H 76.0693 2.19718 -5.44975 0
M  V30 875 H 77.5933 3.10908 -5.25517 0
M  V30 876 H 79.0073 0.875072 -5.66582 0
M  V30 877 H 77.4043 0.157428 -5.99893 0
M  V30 878 H 78.4743 -0.60822 -4.8107 0
M  V30 879 N 79.8174 1.5752 -0.0501392 0
M  V30 880 C 81.0664 1.91827 0.623328 0
M  V30 881 C 81.3794 0.930222 1.72065 0
M  V30 882 O 82.5854 1.1653 2.4522 0
M  V30 883 C 81.0414 3.40692 1.16003 0
M  V30 884 C 80.6494 4.479 0.0948811 0
M  V30 885 C 82.3934 3.84034 1.80881 0
M  V30 886 C 80.3004 5.87879 0.644411 0
M  V30 887 H 79.2304 0.715918 0.236596 0
M  V30 888 H 81.8814 1.83115 -0.118861 0
M  V30 889 H 80.2634 3.44405 1.9545 0
M  V30 890 H 81.4374 4.55775 -0.678675 0
M  V30 891 H 79.7524 4.13892 -0.45637 0
M  V30 892 H 82.3494 4.85984 2.22988 0
M  V30 893 H 82.6924 3.20225 2.6601 0
M  V30 894 H 83.2254 3.82833 1.0809 0
M  V30 895 H 79.9644 6.55282 -0.169229 0
M  V30 896 H 79.4844 5.83567 1.38598 0
M  V30 897 H 81.1634 6.37098 1.12763 0
M  V30 898 N 81.2955 -0.223234 1.56011 0
M  V30 899 C 82.2435 -1.29627 1.93131 0
M  V30 900 C 83.2375 -1.48608 0.813146 0
M  V30 901 O 84.4435 -1.49802 0.997966 0
M  V30 902 H 80.8185 -0.434563 0.613726 0
M  V30 903 H 82.7895 -0.955995 2.82672 0
M  V30 904 C 81.5385 -2.63983 2.26292 0
M  V30 905 H 80.8615 -2.50185 3.11846 0
M  V30 906 H 82.3015 -3.3788 2.56151 0
M  V30 907 C 80.7605 -3.18866 1.08747 0
M  V30 908 O 81.2905 -4.00192 0.347727 0
M  V30 909 N 79.4965 -2.77217 0.871743 0
M  V30 910 H 79.0435 -2.1119 1.47501 0
M  V30 911 H 79.0015 -3.1428 0.0869905 0
M  V30 912 N 82.7736 -1.49793 -0.48987 0
M  V30 913 C 83.7056 -1.63413 -1.60713 0
M  V30 914 C 84.7186 -0.516329 -1.54395 0
M  V30 915 O 85.9076 -0.788812 -1.60125 0
M  V30 916 C 83.0076 -1.58516 -2.99543 0
M  V30 917 C 82.1806 -2.86016 -3.30928 0
M  V30 918 C 81.2396 -2.74018 -4.49222 0
M  V30 919 O 80.2656 -3.47964 -4.50455 0
M  V30 920 N 81.4676 -1.86309 -5.4979 0
M  V30 921 H 84.2326 -2.59777 -1.49452 0
M  V30 922 H 81.7936 -1.47022 -0.677955 0
M  V30 923 H 83.7856 -1.48128 -3.76617 0
M  V30 924 H 82.3556 -0.69965 -3.0467 0
M  V30 925 H 81.5756 -3.10672 -2.42645 0
M  V30 926 H 82.8636 -3.70521 -3.487 0
M  V30 927 H 82.2616 -1.2551 -5.51601 0
M  V30 928 H 80.8186 -1.81837 -6.25922 0
M  V30 929 N 84.2517 0.741722 -1.39055 0
M  V30 930 C 85.4997 1.49818 -1.35643 0
M  V30 931 C 85.8207 1.94938 0.0491642 0
M  V30 932 O 85.0907 1.68505 0.999141 0
M  V30 933 H 83.6707 0.555755 -0.499144 0
M  V30 934 H 86.3327 0.880957 -1.73854 0
M  V30 935 H 85.4287 2.38348 -2.01486 0
M  V30 936 N 85.7298 1.2412 0.971189 0
M  V30 937 C 86.6398 1.04747 2.09917 0
M  V30 938 C 87.6558 -0.0107162 1.73997 0
M  V30 939 O 88.8318 0.186714 2.00533 0
M  V30 940 C 85.8968 0.650828 3.40537 0
M  V30 941 C 84.9578 1.7851 3.90426 0
M  V30 942 C 84.1908 1.40729 5.14812 0
M  V30 943 O 84.4138 0.29557 5.69634 0
M  V30 944 O 83.3478 2.23168 5.58999 0
M  V30 945 H 87.1738 1.99304 2.29154 0
M  V30 946 H 84.7588 1.02908 1.08307 0
M  V30 947 H 86.6408 0.440992 4.19086 0
M  V30 948 H 85.3158 -0.265649 3.22608 0
M  V30 949 H 84.2228 2.04966 3.12953 0
M  V30 950 H 85.5558 2.68023 4.12825 0
M  V30 951 N 87.2079 -1.17134 1.05439 0
M  V30 952 C 88.1579 -2.1919 0.627675 0
M  V30 953 C 89.1419 -1.57328 -0.337147 0
M  V30 954 O 90.3339 -1.76329 -0.153976 0
M  V30 955 C 87.4629 -3.43299 0.00651435 0
M  V30 956 C 86.5489 -4.12255 0.995312 0
M  V30 957 N 86.9399 -4.56997 2.16765 0
M  V30 958 C 85.2379 -4.38316 0.824336 0
M  V30 959 C 85.9389 -5.10239 2.7934 0
M  V30 960 N 84.9149 -5.02595 2.07122 0
M  V30 961 H 88.7169 -2.5149 1.52086 0
M  V30 962 H 86.2309 -1.33491 0.924868 0
M  V30 963 H 88.2279 -4.15693 -0.316965 0
M  V30 964 H 86.8879 -3.1249 -0.882033 0
M  V30 965 H 87.8989 -4.51006 2.54587 0
M  V30 966 H 84.5759 -4.17498 -0.0129526 0
M  V30 967 H 85.9659 -5.54961 3.78772 0
M  V30 968 N 88.686 -0.835752 -1.33615 0
M  V30 969 C 89.616 -0.281739 -2.31794 0
M  V30 970 C 90.597 0.608833 -1.58831 0
M  V30 971 O 91.782 0.533035 -1.86741 0
M  V30 972 C 88.912 0.546612 -3.42971 0
M  V30 973 C 87.866 -0.247904 -4.27281 0
M  V30 974 C 87.192 0.704001 -5.30045 0
M  V30 975 C 88.492 -1.46324 -5.01385 0
M  V30 976 H 90.186 -1.10206 -2.78379 0
M  V30 977 H 87.732 -0.531388 -1.33837 0
M  V30 978 H 89.685 0.944467 -4.1068 0
M  V30 979 H 88.409 1.40011 -2.95067 0
M  V30 980 H 87.068 -0.627281 -3.61194 0
M  V30 981 H 86.716 1.55381 -4.78399 0
M  V30 982 H 86.416 0.176524 -5.87335 0
M  V30 983 H 87.94 1.09944 -6.0062 0
M  V30 984 H 89.354 -1.13871 -5.61877 0
M  V30 985 H 87.751 -1.92728 -5.6831 0
M  V30 986 H 88.821 -2.23467 -4.30338 0
M  V30 987 N 90.1641 1.46063 -0.591896 0
M  V30 988 C 91.4121 2.01938 -0.0808391 0
M  V30 989 C 91.7331 1.46475 1.28725 0
M  V30 990 O 91.0031 0.652944 1.84698 0
M  V30 991 H 89.5831 0.746516 -0.0268938 0
M  V30 992 H 92.2451 1.79055 -0.769752 0
M  V30 993 H 91.3411 3.12094 -0.0187578 0
M  V30 994 N 91.6422 0.330177 1.54103 0
M  V30 995 C 92.8702 -0.272179 2.05102 0
M  V30 996 C 93.2852 -1.45267 1.20595 0
M  V30 997 O 92.6422 -1.8094 0.238144 0
M  V30 998 C 92.6932 -0.70023 3.54653 0
M  V30 999 O 92.4142 0.433301 4.35952 0
M  V30 1000 C 93.9152 -1.3647 4.21771 0
M  V30 1001 H 91.1352 -0.0549159 0.668749 0
M  V30 1002 H 93.6792 0.478285 1.98828 0
M  V30 1003 H 91.8342 -1.40066 3.61193 0
M  V30 1004 H 92.2482 0.0947539 5.24414 0
M  V30 1005 H 93.7222 -1.61509 5.27843 0
M  V30 1006 H 94.1992 -2.31409 3.73292 0
M  V30 1007 H 94.8052 -0.706675 4.19388 0
M  V30 1008 N 93.1203 -1.57491 0.0584922 0
M  V30 1009 C 94.3483 -1.97296 -0.623037 0
M  V30 1010 C 94.7633 -0.936338 -1.63946 0
M  V30 1011 O 94.1203 0.0785981 -1.82331 0
M  V30 1012 C 94.1713 -3.37183 -1.30345 0
M  V30 1013 O 93.8923 -4.36872 -0.32773 0
M  V30 1014 C 95.3933 -3.91788 -2.07406 0
M  V30 1015 H 92.6133 -0.649153 -0.169826 0
M  V30 1016 H 95.1573 -2.04106 0.12696 0
M  V30 1017 H 93.3123 -3.31502 -2.00463 0
M  V30 1018 H 93.7263 -5.18141 -0.814269 0
M  V30 1019 H 95.2003 -4.91926 -2.50425 0
M  V30 1020 H 95.6773 -3.27609 -2.92521 0
M  V30 1021 H 96.2833 -4.00829 -1.42184 0
M  V30 1022 N 94.5984 0.214957 -1.56127 0
M  V30 1023 C 95.5084 1.28727 -1.96129 0
M  V30 1024 C 96.5244 1.50916 -0.866044 0
M  V30 1025 O 97.7004 1.63918 -1.17016 0
M  V30 1026 C 94.7654 2.61569 -2.27558 0
M  V30 1027 C 93.8264 2.47625 -3.50685 0
M  V30 1028 C 93.0594 3.74132 -3.80606 0
M  V30 1029 O 93.2824 4.77438 -3.12104 0
M  V30 1030 O 92.2164 3.70849 -4.74083 0
M  V30 1031 H 96.0424 0.977855 -2.87527 0
M  V30 1032 H 93.6274 0.418358 -1.43423 0
M  V30 1033 H 95.5094 3.40012 -2.48938 0
M  V30 1034 H 94.1844 2.92178 -1.39332 0
M  V30 1035 H 93.0914 1.67361 -3.34576 0
M  V30 1036 H 94.4244 2.21954 -4.39315 0
M  V30 1037 N 96.0765 1.50051 0.48192 0
M  V30 1038 C 97.0395 1.67584 1.5636 0
M  V30 1039 C 98.0395 0.546894 1.51214 0
M  V30 1040 O 99.2295 0.813725 1.54026 0
M  V30 1041 C 96.3615 1.691 2.96003 0
M  V30 1042 H 97.5545 2.64078 1.42136 0
M  V30 1043 H 95.1075 1.39369 0.707533 0
M  V30 1044 H 95.8425 0.742589 3.15684 0
M  V30 1045 H 95.6275 2.51105 3.01146 0
M  V30 1046 H 97.1175 1.84656 3.74556 0
M  V30 1047 N 97.5546 -0.734337 1.39446 0
M  V30 1048 C 98.7826 -1.52358 1.39981 0
M  V30 1049 C 99.1976 -1.88799 -0.0054975 0
M  V30 1050 O 98.5546 -1.54146 -0.976998 0
M  V30 1051 C 98.6056 -2.81072 2.27333 0
M  V30 1052 O 98.3266 -2.46178 3.62392 0
M  V30 1053 C 99.8276 -3.75096 2.36259 0
M  V30 1054 H 97.0476 -0.470806 0.478103 0
M  V30 1055 H 99.5916 -0.907339 1.83269 0
M  V30 1056 H 97.7466 -3.39026 1.87457 0
M  V30 1057 H 98.1606 -3.28866 4.08592 0
M  V30 1058 H 99.6346 -4.62305 3.01626 0
M  V30 1059 H 100.112 -4.16892 1.38194 0
M  V30 1060 H 100.718 -3.23061 2.76608 0
M  V30 1061 N 99.0327 -1.24633 -0.964593 0
M  V30 1062 C 99.9427 -1.05859 -2.09359 0
M  V30 1063 C 100.959 0.00148855 -1.74 0
M  V30 1064 O 102.135 -0.197346 -2.00431 0
M  V30 1065 C 99.1997 -0.668879 -3.40187 0
M  V30 1066 C 98.2607 -1.80578 -3.89474 0
M  V30 1067 C 97.4937 -1.43457 -5.14058 0
M  V30 1068 O 97.7167 -0.325775 -5.69469 0
M  V30 1069 O 96.6507 -2.2613 -5.57807 0
M  V30 1070 H 100.477 -2.00516 -2.28094 0
M  V30 1071 H 98.0617 -1.03481 -1.0776 0
M  V30 1072 H 99.9437 -0.463211 -4.18846 0
M  V30 1073 H 98.6187 0.248536 -3.22744 0
M  V30 1074 H 97.5257 -2.06623 -3.11862 0
M  V30 1075 H 98.8587 -2.70208 -4.11398 0
M  V30 1076 N 100.511 1.16574 -1.06058 0
M  V30 1077 C 101.474 2.19085 -0.673392 0
M  V30 1078 C 102.474 1.5835 0.279648 0
M  V30 1079 O 103.664 1.74088 0.0623488 0
M  V30 1080 C 100.796 3.40899 0.00954234 0
M  V30 1081 H 101.989 2.54853 -1.58081 0
M  V30 1082 H 99.5418 1.30808 -0.855516 0
M  V30 1083 H 100.277 3.10684 0.929826 0
M  V30 1084 H 100.062 3.86233 -0.67573 0
M  V30 1085 H 101.552 4.1675 0.266245 0
M  V30 1086 N 101.989 0.842826 1.3317 0
M  V30 1087 C 103.236 0.440447 1.97652 0
M  V30 1088 C 103.564 -1.00123 1.6675 0
M  V30 1089 O 102.819 -1.7155 0.941761 0
M  V30 1090 C 103.118 0.612607 3.52111 0
M  V30 1091 C 102.784 2.02297 4.02972 0
M  V30 1092 C 101.446 2.40874 4.16573 0
M  V30 1093 C 103.798 2.94402 4.30089 0
M  V30 1094 C 101.126 3.70852 4.54627 0
M  V30 1095 C 103.478 4.23865 4.69597 0
M  V30 1096 C 102.142 4.62392 4.81404 0
M  V30 1097 H 101.412 0.161171 0.72326 0
M  V30 1098 H 104.059 1.07061 1.58777 0
M  V30 1099 H 102.364 -0.100849 3.9167 0
M  V30 1100 H 104.061 0.2815 4.00011 0
M  V30 1101 H 100.651 1.71338 3.92863 0
M  V30 1102 H 104.835 2.65835 4.19101 0
M  V30 1103 H 100.091 4.00501 4.61962 0
M  V30 1104 H 104.265 4.95306 4.89536 0
M  V30 1105 H 101.892 5.63154 5.10648 0
M  V30 1106 N 103.467 -1.45747 0.599634 0
M  V30 1107 C 104.714 -2.02292 0.0917284 0
M  V30 1108 C 105.042 -1.46906 -1.27472 0
M  V30 1109 O 104.297 -0.630652 -1.8526 0
M  V30 1110 C 104.596 -3.57399 -0.00602758 0
M  V30 1111 C 104.262 -4.31902 1.29503 0
M  V30 1112 C 102.924 -4.51974 1.65144 0
M  V30 1113 C 105.276 -4.74551 2.15525 0
M  V30 1114 C 102.604 -5.11949 2.86574 0
M  V30 1115 C 104.956 -5.35868 3.36196 0
M  V30 1116 C 103.62 -5.54165 3.72099 0
M  V30 1117 H 102.89 -0.740239 0.0335658 0
M  V30 1118 H 105.537 -1.7491 0.779661 0
M  V30 1119 H 103.842 -3.84014 -0.777183 0
M  V30 1120 H 105.539 -3.98846 -0.415038 0
M  V30 1121 H 102.129 -4.16588 1.00761 0
M  V30 1122 H 106.313 -4.58784 1.8929 0
M  V30 1123 H 101.569 -5.24305 3.14507 0
M  V30 1124 H 105.743 -5.6787 4.03109 0
M  V30 1125 H 103.37 -6.00406 4.6628 0
M  V30 1126 N 104.945 -0.338344 -1.53925 0
M  V30 1127 C 105.908 0.508299 -2.23493 0
M  V30 1128 C 106.908 1.03175 -1.23335 0
M  V30 1129 O 108.098 0.921826 -1.47811 0
M  V30 1130 C 105.23 1.70754 -2.95052 0
M  V30 1131 H 106.423 -0.100058 -2.99733 0
M  V30 1132 H 103.976 -0.0896198 -1.56043 0
M  V30 1133 H 104.711 2.35474 -2.22986 0
M  V30 1134 H 104.496 1.33946 -3.68512 0
M  V30 1135 H 105.986 2.30818 -3.48013 0
M  V30 1136 N 106.423 1.57458 -0.0668435 0
M  V30 1137 C 107.356 2.08033 0.93795 0
M  V30 1138 C 108.334 0.984321 1.29421 0
M  V30 1139 O 109.518 1.25736 1.40437 0
M  V30 1140 C 106.645 2.53388 2.24749 0
M  V30 1141 C 105.691 3.74376 2.04315 0
M  V30 1142 S 106.524 5.19303 1.30706 0
M  V30 1143 C 107.68 5.67986 2.62951 0
M  V30 1144 H 107.913 2.92935 0.50759 0
M  V30 1145 H 105.446 1.5371 0.145804 0
M  V30 1146 H 107.404 2.8018 3.00016 0
M  V30 1147 H 106.065 1.68763 2.64911 0
M  V30 1148 H 105.258 4.04083 3.01218 0
M  V30 1149 H 104.86 3.47931 1.37186 0
M  V30 1150 H 107.152 5.74528 3.5906 0
M  V30 1151 H 108.095 6.66955 2.3786 0
M  V30 1152 H 108.503 4.95781 2.69929 0
M  V30 1153 N 107.901 -0.206675 1.56239 0
M  V30 1154 C 109.129 -0.945345 1.8404 0
M  V30 1155 C 109.544 -1.77336 0.647885 0
M  V30 1156 O 108.901 -1.78425 -0.383511 0
M  V30 1157 C 108.952 -1.8509 3.10522 0
M  V30 1158 O 108.673 -1.05634 4.25174 0
M  V30 1159 C 110.174 -2.70222 3.51418 0
M  V30 1160 H 107.394 -0.276372 0.61144 0
M  V30 1161 H 109.938 -0.217417 2.03341 0
M  V30 1162 H 108.093 -2.53259 2.93153 0
M  V30 1163 H 108.507 -1.67238 4.97124 0
M  V30 1164 H 109.981 -3.29438 4.42916 0
M  V30 1165 H 110.458 -3.43358 2.73864 0
M  V30 1166 H 111.064 -2.07443 3.71278 0
M  V30 1167 N 109.379 -1.50304 -0.473955 0
M  V30 1168 C 110.326 -1.68959 -1.57231 0
M  V30 1169 C 111.296 -0.530899 -1.57387 0
M  V30 1170 O 112.481 -0.761133 -1.74961 0
M  V30 1171 C 109.621 -1.7871 -2.95223 0
M  V30 1172 C 108.734 -3.06061 -3.04878 0
M  V30 1173 C 107.869 -3.06626 -4.33767 0
M  V30 1174 C 106.908 -4.28443 -4.37154 0
M  V30 1175 N 106.045 -4.26763 -5.5751 0
M  V30 1176 H 110.885 -2.6273 -1.40631 0
M  V30 1177 H 108.422 -1.30241 -0.683789 0
M  V30 1178 H 110.38 -1.82344 -3.75242 0
M  V30 1179 H 109.01 -0.883806 -3.10465 0
M  V30 1180 H 108.062 -3.11911 -2.17751 0
M  V30 1181 H 109.374 -3.96039 -3.0324 0
M  V30 1182 H 108.528 -3.08973 -5.22131 0
M  V30 1183 H 107.267 -2.14473 -4.3801 0
M  V30 1184 H 106.272 -4.2631 -3.47188 0
M  V30 1185 H 107.497 -5.2182 -4.34605 0
M  V30 1186 H 105.443 -3.37462 -5.62544 0
M  V30 1187 H 105.36 -5.10507 -5.57601 0
M  V30 1188 H 106.628 -4.33253 -6.48006 0
M  V30 1189 N 110.857 0.726932 -1.39834 0
M  V30 1190 C 111.787 1.85405 -1.41941 0
M  V30 1191 C 112.768 1.67751 -0.281728 0
M  V30 1192 O 113.953 1.8795 -0.488717 0
M  V30 1193 C 111.083 3.23243 -1.2701 0
M  V30 1194 C 110.037 3.55549 -2.38262 0
M  V30 1195 C 109.363 4.9241 -2.08415 0
M  V30 1196 C 110.663 3.577 -3.80589 0
M  V30 1197 H 112.357 1.83899 -2.36266 0
M  V30 1198 H 109.903 0.883349 -1.13723 0
M  V30 1199 H 111.856 4.01775 -1.27103 0
M  V30 1200 H 110.58 3.25296 -0.291564 0
M  V30 1201 H 109.239 2.79351 -2.37399 0
M  V30 1202 H 108.887 4.91052 -1.0898 0
M  V30 1203 H 108.587 5.14992 -2.82943 0
M  V30 1204 H 110.111 5.73289 -2.10171 0
M  V30 1205 H 111.525 4.26293 -3.83337 0
M  V30 1206 H 109.922 3.91804 -4.54543 0
M  V30 1207 H 110.992 2.57328 -4.10987 0
M  V30 1208 N 112.336 1.25143 0.95797 0
M  V30 1209 C 113.583 1.09692 1.70217 0
M  V30 1210 C 113.911 -0.362654 1.91089 0
M  V30 1211 O 113.166 -1.28386 1.47701 0
M  V30 1212 C 113.465 1.79272 3.09187 0
M  V30 1213 C 113.131 3.29196 3.08125 0
M  V30 1214 C 111.793 3.70096 3.07543 0
M  V30 1215 C 114.145 4.24995 3.0171 0
M  V30 1216 C 111.473 5.05213 2.9829 0
M  V30 1217 C 113.825 5.60132 2.93999 0
M  V30 1218 C 112.489 6.00365 2.9175 0
M  V30 1219 H 111.759 0.401393 0.622868 0
M  V30 1220 H 114.406 1.55372 1.11945 0
M  V30 1221 H 112.711 1.26014 3.70982 0
M  V30 1222 H 114.408 1.64773 3.65583 0
M  V30 1223 H 110.998 2.96651 3.09348 0
M  V30 1224 H 115.182 3.9439 3.01281 0
M  V30 1225 H 110.438 5.35569 2.94916 0
M  V30 1226 H 114.612 6.3406 2.87996 0
M  V30 1227 H 112.239 7.05023 2.84336 0
M  V30 1228 N 113.814 -1.1601 1.06675 0
M  V30 1229 C 114.746 -2.20115 0.638921 0
M  V30 1230 C 115.759 -1.59916 -0.305057 0
M  V30 1231 O 116.948 -1.78245 -0.0954446 0
M  V30 1232 C 114.048 -3.38798 -0.0830083 0
M  V30 1233 C 113.221 -4.2855 0.875426 0
M  V30 1234 C 112.28 -5.25849 0.192042 0
M  V30 1235 O 111.306 -5.63102 0.830921 0
M  V30 1236 N 112.508 -5.70648 -1.06493 0
M  V30 1237 H 115.273 -2.57439 1.53444 0
M  V30 1238 H 112.834 -1.31057 0.950557 0
M  V30 1239 H 114.826 -4.00936 -0.550685 0
M  V30 1240 H 113.396 -2.99947 -0.880386 0
M  V30 1241 H 112.616 -3.63617 1.52238 0
M  V30 1242 H 113.904 -4.85393 1.52548 0
M  V30 1243 H 113.302 -5.42482 -1.60405 0
M  V30 1244 H 111.859 -6.34859 -1.47641 0
M  V30 1245 N 115.292 -0.849877 -1.32721 0
M  V30 1246 C 116.517 -0.463856 -2.02146 0
M  V30 1247 C 116.942 0.930449 -1.63476 0
M  V30 1248 O 116.3 1.61033 -0.832952 0
M  V30 1249 C 116.348 -0.604955 -3.55489 0
M  V30 1250 O 115.452 0.36425 -4.10788 0
M  V30 1251 H 114.793 -0.187046 -0.637111 0
M  V30 1252 H 117.323 -1.14775 -1.69375 0
M  V30 1253 H 117.333 -0.490696 -4.05038 0
M  V30 1254 H 116.008 -1.62174 -3.82978 0
M  V30 1255 H 114.585 0.206628 -3.72327 0
M  V30 1256 N 116.77 1.45427 -0.607355 0
M  V30 1257 C 117.718 2.32269 0.12411 0
M  V30 1258 C 118.712 1.45955 0.859854 0
M  V30 1259 O 119.918 1.6244 0.775447 0
M  V30 1260 H 116.293 0.749691 0.0588839 0
M  V30 1261 H 118.264 2.91743 -0.626762 0
M  V30 1262 C 117.013 3.29567 1.1082 0
M  V30 1263 H 116.336 3.95978 0.551492 0
M  V30 1264 H 117.776 3.93061 1.58995 0
M  V30 1265 C 116.235 2.56722 2.18164 0
M  V30 1266 O 116.765 2.34842 3.25902 0
M  V30 1267 N 114.971 2.16861 1.93442 0
M  V30 1268 H 114.518 2.34855 1.05834 0
M  V30 1269 H 114.476 1.68444 2.65469 0
M  V30 1270 N 118.248 0.346503 1.53744 0
M  V30 1271 C 119.525 -0.304532 1.93215 0
M  V30 1272 C 119.905 -1.67993 1.27834 0
M  V30 1273 O 119.253 -2.24411 0.430352 0
M  V30 1274 C 119.463 -0.373852 3.46992 0
M  V30 1275 C 120.811 -0.62329 4.2 0
M  V30 1276 O 121.835 -0.455847 3.53271 0
M  V30 1277 O 120.694 -0.947879 5.38217 0
M  V30 1278 H 117.788 -0.178318 0.807547 0
M  V30 1279 H 120.334 0.397895 1.64969 0
M  V30 1280 H 119.106 0.591224 3.86808 0
M  V30 1281 H 118.729 -1.12294 3.81413 0
M  V30 1282 N 119.726 -1.57421 0.075193 0
M  V30 1283 C 121.137 -1.81021 -0.456964 0
M  V30 1284 C 121.488 -0.98936 -1.69429 0
M  V30 1285 O 120.613 -0.212865 -2.15351 0
M  V30 1286 C 121.208 -3.28329 -0.83581 0
M  V30 1287 C 119.767 -3.52764 -1.31281 0
M  V30 1288 C 118.914 -2.75676 -0.299648 0
M  V30 1289 H 121.865 -1.55822 0.300856 0
M  V30 1290 H 121.886 -3.40564 -1.69696 0
M  V30 1291 H 121.398 -3.88046 0.0649238 0
M  V30 1292 H 119.499 -2.98355 -2.23193 0
M  V30 1293 H 119.612 -4.61451 -1.28839 0
M  V30 1294 H 117.976 -2.42538 -0.777641 0
M  V30 1295 H 118.759 -3.38132 0.593417 0
M  V30 1296 N 121.204 0.198386 -1.56346 0
M  V30 1297 C 122.432 0.935572 -1.84539 0
M  V30 1298 C 122.847 1.76989 -0.657281 0
M  V30 1299 O 122.204 1.78626 0.374043 0
M  V30 1300 C 122.255 1.8344 -3.11499 0
M  V30 1301 O 121.976 1.03377 -4.25728 0
M  V30 1302 C 123.477 2.68355 -3.52846 0
M  V30 1303 H 120.697 0.273126 -0.612897 0
M  V30 1304 H 123.241 0.20663 -2.03453 0
M  V30 1305 H 121.396 2.51701 -2.94492 0
M  V30 1306 H 121.81 1.64599 -4.98003 0
M  V30 1307 H 123.284 3.27085 -4.44657 0
M  V30 1308 H 123.761 3.41901 -2.75681 0
M  V30 1309 H 124.367 2.05471 -3.72373 0
M  V30 1310 N 122.682 1.50554 0.465978 0
M  V30 1311 C 123.612 1.72722 1.57128 0
M  V30 1312 C 124.593 0.576294 1.6004 0
M  V30 1313 O 125.778 0.81598 1.76225 0
M  V30 1314 C 122.908 1.82605 2.95419 0
M  V30 1315 C 121.862 2.97835 3.07373 0
M  V30 1316 C 121.188 2.92867 4.47363 0
M  V30 1317 C 122.488 4.38265 2.84114 0
M  V30 1318 H 124.182 2.65267 1.38829 0
M  V30 1319 H 121.728 1.2765 0.666441 0
M  V30 1320 H 123.681 1.96698 3.72677 0
M  V30 1321 H 122.405 0.866858 3.14886 0
M  V30 1322 H 121.064 2.83401 2.3255 0
M  V30 1323 H 120.712 1.94783 4.63755 0
M  V30 1324 H 120.412 3.70227 4.56296 0
M  V30 1325 H 121.936 3.09015 5.26633 0
M  V30 1326 H 123.35 4.53198 3.51118 0
M  V30 1327 H 121.747 5.17115 3.04487 0
M  V30 1328 H 122.817 4.50281 1.7993 0
M  V30 1329 N 124.16 -0.719506 1.40217 0
M  V30 1330 C 125.576 -1.02707 1.22161 0
M  V30 1331 C 125.776 -2.0128 0.0940557 0
M  V30 1332 O 124.832 -2.46452 -0.549318 0
M  V30 1333 C 126.145 -1.57454 2.56181 0
M  V30 1334 C 127.693 -1.69458 2.63159 0
M  V30 1335 C 128.168 -2.27611 3.97438 0
M  V30 1336 N 129.659 -2.35002 3.99159 0
M  V30 1337 C 130.394 -2.80972 4.99842 0
M  V30 1338 N 129.89 -3.26723 6.10921 0
M  V30 1339 N 131.683 -2.80321 4.87213 0
M  V30 1340 H 123.834 -0.0660492 2.12297 0
M  V30 1341 H 126.097 -0.0919077 0.943534 0
M  V30 1342 H 125.803 -0.924873 3.39321 0
M  V30 1343 H 125.677 -2.56036 2.76993 0
M  V30 1344 H 128.064 -2.33543 1.80393 0
M  V30 1345 H 128.145 -0.694867 2.46181 0
M  V30 1346 H 127.789 -1.6415 4.80643 0
M  V30 1347 H 127.719 -3.2829 4.11744 0
M  V30 1348 H 130.21 -2.02685 3.18947 0
M  V30 1349 H 130.523 -3.60355 6.8364 0
M  V30 1350 H 128.868 -3.24692 6.14492 0
M  V30 1351 H 132.059 -2.43912 3.9953 0
M  V30 1352 H 132.232 -3.15831 5.65822 0
M  V30 1353 N 125.638 -1.25649 -0.95132 0
M  V30 1354 C 127.054 -1.02542 -1.223 0
M  V30 1355 C 127.254 0.255715 -1.99871 0
M  V30 1356 O 126.31 0.967558 -2.33226 0
M  V30 1357 C 127.623 -2.25065 -1.99415 0
M  V30 1358 C 129.171 -2.29861 -2.12446 0
M  V30 1359 C 129.646 -3.52048 -2.92961 0
M  V30 1360 N 131.137 -3.52465 -3.00538 0
M  V30 1361 C 131.872 -4.43672 -3.63239 0
M  V30 1362 N 131.368 -5.45157 -4.27523 0
M  V30 1363 N 133.161 -4.31346 -3.60412 0
M  V30 1364 H 125.312 -2.07951 -0.432471 0
M  V30 1365 H 127.575 -0.91339 -0.253816 0
M  V30 1366 H 127.281 -3.18194 -1.49817 0
M  V30 1367 H 127.155 -2.28502 -3.00111 0
M  V30 1368 H 129.542 -1.37252 -2.61239 0
M  V30 1369 H 129.623 -2.3044 -1.11044 0
M  V30 1370 H 129.267 -4.44981 -2.44856 0
M  V30 1371 H 129.197 -3.48715 -3.94596 0
M  V30 1372 H 131.688 -2.79056 -2.54826 0
M  V30 1373 H 132.001 -6.10958 -4.73234 0
M  V30 1374 H 130.346 -5.49025 -4.26141 0
M  V30 1375 H 133.537 -3.51288 -3.09377 0
M  V30 1376 H 133.71 -5.02624 -4.0899 0
M  V30 1377 N 127.117 1.15442 -1.07289 0
M  V30 1378 C 128.05 2.19135 -0.636798 0
M  V30 1379 C 129.028 1.58884 0.34562 0
M  V30 1380 O 130.212 1.86805 0.252195 0
M  V30 1381 C 127.339 3.38638 0.0650014 0
M  V30 1382 C 126.385 4.17412 -0.87576 0
M  V30 1383 S 127.218 4.79882 -2.37642 0
M  V30 1384 C 128.374 6.02753 -1.6864 0
M  V30 1385 H 128.607 2.55787 -1.51526 0
M  V30 1386 H 126.14 1.26394 -0.886793 0
M  V30 1387 H 128.098 4.07873 0.463664 0
M  V30 1388 H 126.759 3.00331 0.919801 0
M  V30 1389 H 125.952 5.02909 -0.33143 0
M  V30 1390 H 125.554 3.53722 -1.21478 0
M  V30 1391 H 127.846 6.70113 -0.997753 0
M  V30 1392 H 128.789 6.61754 -2.51967 0
M  V30 1393 H 129.197 5.52355 -1.16465 0
M  V30 1394 N 128.595 0.856903 1.32268 0
M  V30 1395 C 129.835 0.467705 1.98977 0
M  V30 1396 C 130.199 -0.959231 1.66321 0
M  V30 1397 O 131.4 -1.4531 2.26138 0
M  V30 1398 C 129.671 0.70256 3.50427 0
M  V30 1399 S 131.23 0.411269 4.36868 0
M  V30 1400 H 128.048 0.175121 0.689096 0
M  V30 1401 H 130.65 1.1101 1.60925 0
M  V30 1402 H 129.354 1.74012 3.71683 0
M  V30 1403 H 128.885 0.0466707 3.93372 0
M  V30 1404 H 130.9 -0.761799 4.90317 0
M  V30 1405 N 130.073 -1.45103 0.615059 0
M  V30 1406 C 131.303 -2.06254 0.119596 0
M  V30 1407 C 131.711 -1.4591 -1.20445 0
M  V30 1408 O 131.054 -0.570384 -1.7462 0
M  V30 1409 C 131.116 -3.59396 -0.0865591 0
M  V30 1410 C 130.78 -4.42116 1.15683 0
M  V30 1411 C 131.777 -4.7662 2.07676 0
M  V30 1412 C 129.462 -4.82749 1.38775 0
M  V30 1413 C 131.456 -5.50622 3.21082 0
M  V30 1414 C 129.143 -5.56504 2.52481 0
M  V30 1415 C 130.141 -5.90358 3.43463 0
M  V30 1416 O 129.829 -6.62615 4.55189 0
M  V30 1417 H 129.561 -0.672423 0.0694512 0
M  V30 1418 H 132.115 -1.87219 0.844885 0
M  V30 1419 H 130.345 -3.76859 -0.866823 0
M  V30 1420 H 132.034 -4.02365 -0.534555 0
M  V30 1421 H 132.8 -4.4578 1.91063 0
M  V30 1422 H 128.679 -4.55829 0.688545 0
M  V30 1423 H 132.223 -5.76965 3.92119 0
M  V30 1424 H 128.12 -5.86759 2.69043 0
M  V30 1425 H 128.888 -6.81071 4.53966 0
M  V30 1426 N 131.551 -0.354651 -1.53558 0
M  V30 1427 C 132.481 0.489091 -2.2832 0
M  V30 1428 C 133.462 1.09324 -1.30316 0
M  V30 1429 O 134.647 1.11255 -1.59173 0
M  V30 1430 C 131.777 1.63456 -3.0643 0
M  V30 1431 C 130.731 1.1582 -4.12031 0
M  V30 1432 C 130.057 2.39305 -4.7816 0
M  V30 1433 C 131.357 0.250731 -5.21698 0
M  V30 1434 H 133.051 -0.134614 -2.99097 0
M  V30 1435 H 130.597 -0.0661826 -1.43848 0
M  V30 1436 H 132.55 2.23136 -3.57475 0
M  V30 1437 H 131.274 2.28533 -2.33325 0
M  V30 1438 H 129.933 0.584146 -3.61916 0
M  V30 1439 H 129.581 3.02814 -4.01637 0
M  V30 1440 H 129.281 2.08109 -5.49513 0
M  V30 1441 H 130.805 2.99691 -5.31994 0
M  V30 1442 H 132.219 0.754695 -5.68311 0
M  V30 1443 H 130.616 0.0301468 -6.00092 0
M  V30 1444 H 131.686 -0.710125 -4.79672 0
M  V30 1445 N 133.029 1.57378 -0.0835403 0
M  V30 1446 C 134.257 1.98263 0.59157 0
M  V30 1447 C 134.672 0.962302 1.62435 0
M  V30 1448 O 134.029 -0.049581 1.82433 0
M  V30 1449 C 134.08 3.39214 1.24965 0
M  V30 1450 O 133.801 4.37339 0.258186 0
M  V30 1451 C 135.302 3.95038 2.01147 0
M  V30 1452 H 132.522 0.651773 0.159477 0
M  V30 1453 H 135.066 2.03878 -0.159415 0
M  V30 1454 H 133.221 3.34649 1.95164 0
M  V30 1455 H 133.635 5.19371 0.731734 0
M  V30 1456 H 135.109 4.95848 2.42567 0
M  V30 1457 H 135.586 3.32222 2.87272 0
M  V30 1458 H 136.192 4.0304 1.35789 0
M  V30 1459 N 134.507 -0.190092 1.56449 0
M  V30 1460 C 135.756 -0.907912 1.80111 0
M  V30 1461 C 136.069 -1.84214 0.657619 0
M  V30 1462 O 137.275 -2.60094 0.778663 0
M  V30 1463 C 135.731 -1.66485 3.19078 0
M  V30 1464 C 135.339 -0.7752 4.41242 0
M  V30 1465 C 137.083 -2.37201 3.52045 0
M  V30 1466 C 134.99 -1.53129 5.71231 0
M  V30 1467 H 133.92 -0.34276 0.671589 0
M  V30 1468 H 136.571 -0.161109 1.82791 0
M  V30 1469 H 134.953 -2.45572 3.10661 0
M  V30 1470 H 136.127 -0.0226298 4.60794 0
M  V30 1471 H 134.442 -0.178627 4.16017 0
M  V30 1472 H 137.039 -2.94329 4.46402 0
M  V30 1473 H 137.382 -3.11632 2.76028 0
M  V30 1474 H 137.915 -1.65075 3.61932 0
M  V30 1475 H 134.654 -0.82967 6.50228 0
M  V30 1476 H 134.174 -2.25767 5.55688 0
M  V30 1477 H 135.853 -2.08377 6.12526 0
M  V30 1478 N 135.985 -1.50799 -0.457987 0
M  V30 1479 C 136.932 -1.70617 -1.5543 0
M  V30 1480 C 137.902 -0.547562 -1.56815 0
M  V30 1481 O 139.087 -0.779647 -1.74144 0
M  V30 1482 C 136.227 -1.81831 -2.93311 0
M  V30 1483 C 135.34 -3.09278 -3.01615 0
M  V30 1484 C 134.475 -3.11209 -4.30491 0
M  V30 1485 C 133.514 -4.33055 -4.32585 0
M  V30 1486 N 132.651 -4.32652 -5.52952 0
M  V30 1487 H 137.491 -2.64207 -1.37836 0
M  V30 1488 H 135.028 -1.30959 -0.669937 0
M  V30 1489 H 136.986 -1.86314 -3.73287 0
M  V30 1490 H 135.616 -0.916685 -3.0951 0
M  V30 1491 H 134.668 -3.14203 -2.1443 0
M  V30 1492 H 135.98 -3.99233 -2.99022 0
M  V30 1493 H 135.134 -3.14494 -5.18824 0
M  V30 1494 H 133.873 -2.19106 -4.35711 0
M  V30 1495 H 132.878 -4.29969 -3.42647 0
M  V30 1496 H 134.103 -5.264 -4.29046 0
M  V30 1497 H 132.049 -3.43409 -5.58933 0
M  V30 1498 H 131.966 -5.16392 -5.52155 0
M  V30 1499 H 133.234 -4.40101 -6.43375 0
M  V30 1500 N 137.463 0.71206 -1.40597 0
M  V30 1501 C 138.373 1.8562 -1.43466 0
M  V30 1502 C 139.389 1.70902 -0.326902 0
M  V30 1503 O 140.565 1.93105 -0.572043 0
M  V30 1504 C 137.63 3.21451 -1.29884 0
M  V30 1505 C 136.691 3.48398 -2.50833 0
M  V30 1506 C 135.924 4.77749 -2.3789 0
M  V30 1507 O 136.147 5.53089 -1.39459 0
M  V30 1508 O 135.081 5.05111 -3.27333 0
M  V30 1509 H 138.907 1.86155 -2.39958 0
M  V30 1510 H 136.492 0.86295 -1.21957 0
M  V30 1511 H 138.374 4.02579 -1.24531 0
M  V30 1512 H 137.049 3.21636 -0.364997 0
M  V30 1513 H 135.956 2.67265 -2.61763 0
M  V30 1514 H 137.289 3.53014 -3.4299 0
M  V30 1515 N 138.941 1.26152 0.944643 0
M  V30 1516 C 139.874 1.01729 2.04271 0
M  V30 1517 C 140.852 -0.0568101 1.62501 0
M  V30 1518 O 142.036 0.0848987 1.88309 0
M  V30 1519 C 139.163 0.539792 3.34371 0
M  V30 1520 C 138.209 1.60593 3.9511 0
M  V30 1521 S 139.042 3.19392 4.29825 0
M  V30 1522 C 140.198 2.73402 5.63029 0
M  V30 1523 H 140.431 1.94703 2.24673 0
M  V30 1524 H 137.964 1.09793 1.08558 0
M  V30 1525 H 139.922 0.270956 4.09605 0
M  V30 1526 H 138.583 -0.369609 3.11918 0
M  V30 1527 H 137.776 1.22275 4.88943 0
M  V30 1528 H 137.378 1.82596 3.26397 0
M  V30 1529 H 139.67 2.1765 6.41588 0
M  V30 1530 H 140.613 3.65913 6.06229 0
M  V30 1531 H 141.021 2.13077 5.22741 0
M  V30 1532 N 140.419 -1.14872 1.07899 0
M  V30 1533 C 141.644 -1.90202 0.826926 0
M  V30 1534 C 142.069 -1.77774 -0.614664 0
M  V30 1535 O 141.427 -1.11431 -1.43013 0
M  V30 1536 C 141.475 -3.38352 1.24702 0
M  V30 1537 O 140.579 -4.10497 0.39575 0
M  V30 1538 H 139.92 -0.591968 0.300782 0
M  V30 1539 H 142.45 -1.45437 1.43907 0
M  V30 1540 H 142.46 -3.89156 1.22563 0
M  V30 1541 H 141.135 -3.46715 2.29698 0
M  V30 1542 H 139.712 -3.69796 0.480117 0
M  V30 1543 N 141.898 -0.863906 -1.31812 0
M  V30 1544 C 143.138 -0.47825 -1.98726 0
M  V30 1545 C 143.502 0.950397 -1.66828 0
M  V30 1546 O 144.703 1.44109 -2.26905 0
M  V30 1547 C 142.974 -0.721134 -3.50049 0
M  V30 1548 S 144.533 -0.434432 -4.36644 0
M  V30 1549 H 141.351 -0.178773 -0.688158 0
M  V30 1550 H 143.953 -1.11862 -1.60334 0
M  V30 1551 H 142.657 -1.75981 -3.70755 0
M  V30 1552 H 142.188 -0.0675315 -3.93342 0
M  V30 1553 H 144.203 0.735786 -4.90714 0
M  V30 1554 N 143.376 1.44774 -0.622745 0
M  V30 1555 C 144.625 2.01334 -0.121397 0
M  V30 1556 C 144.938 1.49505 1.26125 0
M  V30 1557 O 146.144 1.98139 1.85616 0
M  V30 1558 C 144.6 3.59516 -0.166298 0
M  V30 1559 C 144.208 4.20342 -1.54974 0
M  V30 1560 C 145.952 4.23582 0.279021 0
M  V30 1561 C 143.859 5.70721 -1.55021 0
M  V30 1562 H 142.789 0.752851 -0.0416172 0
M  V30 1563 H 145.44 1.66083 -0.780309 0
M  V30 1564 H 143.822 3.92027 0.559557 0
M  V30 1565 H 144.996 3.99381 -2.29851 0
M  V30 1566 H 143.311 3.68529 -1.93843 0
M  V30 1567 H 145.908 5.33868 0.298083 0
M  V30 1568 H 146.251 3.95327 1.30471 0
M  V30 1569 H 146.784 3.95843 -0.394063 0
M  V30 1570 H 143.523 6.03698 -2.55399 0
M  V30 1571 H 143.043 5.93829 -0.844245 0
M  V30 1572 H 144.722 6.34203 -1.28047 0
M  V30 1573 N 144.854 0.36279 1.53368 0
M  V30 1574 C 145.817 -0.472679 2.24273 0
M  V30 1575 C 146.817 -1.012 1.24961 0
M  V30 1576 O 148.007 -0.898194 1.49259 0
M  V30 1577 C 145.139 -1.66039 2.97731 0
M  V30 1578 H 146.332 0.14773 2.99536 0
M  V30 1579 H 143.885 0.114434 1.55881 0
M  V30 1580 H 144.62 -2.31896 2.26704 0
M  V30 1581 H 144.405 -1.28066 3.70596 0
M  V30 1582 H 145.895 -2.25252 3.51641 0
M  V30 1583 N 146.332 -1.57332 0.0918853 0
M  V30 1584 C 147.242 -2.17368 -0.882505 0
M  V30 1585 C 148.258 -1.14226 -1.31257 0
M  V30 1586 O 149.434 -1.46582 -1.38115 0
M  V30 1587 C 146.499 -2.73962 -2.12476 0
M  V30 1588 C 145.56 -3.92048 -1.7492 0
M  V30 1589 C 144.793 -4.45933 -2.93223 0
M  V30 1590 O 145.016 -3.98764 -4.07852 0
M  V30 1591 O 143.95 -5.36999 -2.71875 0
M  V30 1592 H 147.776 -3.01031 -0.40172 0
M  V30 1593 H 145.361 -1.48813 -0.132291 0
M  V30 1594 H 147.243 -3.10147 -2.85283 0
M  V30 1595 H 145.918 -1.93347 -2.59613 0
M  V30 1596 H 144.825 -3.6068 -0.993025 0
M  V30 1597 H 146.158 -4.74017 -1.32548 0
M  V30 1598 N 147.81 0.181792 -1.56548 0
M  V30 1599 C 149.087 0.926765 -1.72251 0
M  V30 1600 C 149.467 2.00831 -0.650386 0
M  V30 1601 O 148.815 2.26008 0.336521 0
M  V30 1602 C 149.025 1.50106 -3.1507 0
M  V30 1603 C 150.373 1.97805 -3.75711 0
M  V30 1604 O 151.397 1.59922 -3.18282 0
M  V30 1605 O 150.256 2.67555 -4.76525 0
M  V30 1606 H 147.35 0.435506 -0.703039 0
M  V30 1607 H 149.896 0.170443 -1.68842 0
M  V30 1608 H 148.668 0.72212 -3.84579 0
M  V30 1609 H 148.291 2.32186 -3.22763 0
M  V30 1610 N 149.288 1.51039 0.449983 0
M  V30 1611 C 150.534 1.63322 1.20223 0
M  V30 1612 C 150.867 0.34241 1.91158 0
M  V30 1613 O 150.142 -0.657344 1.83055 0
M  V30 1614 C 150.425 2.82801 2.22925 0
M  V30 1615 C 150.278 4.21823 1.56157 0
M  V30 1616 C 151.597 2.97807 3.24035 0
M  V30 1617 H 148.716 0.594407 0.435718 0
M  V30 1618 H 151.358 1.83489 0.493136 0
M  V30 1619 H 149.508 2.65738 2.834 0
M  V30 1620 H 151.18 4.50526 0.991162 0
M  V30 1621 H 149.423 4.25105 0.864172 0
M  V30 1622 H 150.094 5.01391 2.30891 0
M  V30 1623 H 152.57 3.13497 2.73603 0
M  V30 1624 H 151.446 3.82992 3.93202 0
M  V30 1625 H 151.707 2.09328 3.89402 0
M  V30 1626 N 150.766 -0.704594 1.40972 0
M  V30 1627 C 152.015 -1.46018 1.39146 0
M  V30 1628 C 152.328 -1.956 0.000589254 0
M  V30 1629 O 153.534 -2.71137 -0.1403 0
M  V30 1630 C 151.99 -2.63996 2.4461 0
M  V30 1631 C 151.598 -2.21238 3.89561 0
M  V30 1632 C 153.342 -3.41677 2.51907 0
M  V30 1633 C 151.249 -3.3612 4.86598 0
M  V30 1634 H 150.179 -0.548444 0.517422 0
M  V30 1635 H 152.83 -0.765784 1.66757 0
M  V30 1636 H 151.212 -3.3566 2.10115 0
M  V30 1637 H 152.386 -1.56923 4.33257 0
M  V30 1638 H 150.701 -1.56574 3.85841 0
M  V30 1639 H 153.298 -4.27182 3.2159 0
M  V30 1640 H 153.641 -3.86247 1.55303 0
M  V30 1641 H 154.174 -2.77064 2.85448 0
M  V30 1642 H 150.913 -2.96572 5.84573 0
M  V30 1643 H 150.433 -3.99315 4.47557 0
M  V30 1644 H 152.112 -4.02029 5.06934 0
M  V30 1645 N 152.244 -1.26651 -0.937939 0
M  V30 1646 C 153.493 -1.11775 -1.67897 0
M  V30 1647 C 153.806 0.33794 -1.92659 0
M  V30 1648 O 155.012 0.607434 -2.64618 0
M  V30 1649 C 153.468 -1.9523 -3.02346 0
M  V30 1650 C 153.076 -3.45393 -2.8532 0
M  V30 1651 C 154.82 -1.88972 -3.80118 0
M  V30 1652 C 152.727 -4.21083 -4.15263 0
M  V30 1653 H 151.657 -0.414696 -0.629717 0
M  V30 1654 H 154.308 -1.50988 -1.04283 0
M  V30 1655 H 152.69 -1.48853 -3.66959 0
M  V30 1656 H 153.864 -3.99561 -2.29537 0
M  V30 1657 H 152.179 -3.52921 -2.20988 0
M  V30 1658 H 154.776 -2.42805 -4.76392 0
M  V30 1659 H 155.119 -0.86113 -4.07296 0
M  V30 1660 H 155.652 -2.33189 -3.22285 0
M  V30 1661 H 152.391 -5.24425 -3.93267 0
M  V30 1662 H 151.911 -3.71695 -4.70747 0
M  V30 1663 H 153.59 -4.29706 -4.83696 0
M  V30 1664 N 153.722 1.14298 -1.08507 0
M  V30 1665 C 154.968 1.85633 -0.816581 0
M  V30 1666 C 155.301 1.82784 0.656021 0
M  V30 1667 O 154.576 1.25926 1.48233 0
M  V30 1668 C 154.859 3.34223 -1.34041 0
M  V30 1669 C 154.712 3.45639 -2.87843 0
M  V30 1670 C 156.031 4.29356 -0.9665 0
M  V30 1671 H 153.15 0.67402 -0.298104 0
M  V30 1672 H 155.792 1.34214 -1.34487 0
M  V30 1673 H 153.942 3.78144 -0.89104 0
M  V30 1674 H 155.614 3.10498 -3.41158 0
M  V30 1675 H 153.857 2.86817 -3.25451 0
M  V30 1676 H 154.528 4.50089 -3.19569 0
M  V30 1677 H 157.004 3.93457 -1.35391 0
M  V30 1678 H 155.88 5.3178 -1.3602 0
M  V30 1679 H 156.141 4.41919 0.126362 0
M  V30 1680 N 155.201 0.870884 1.31352 0
M  V30 1681 C 156.429 0.49677 2.00848 0
M  V30 1682 C 156.844 -0.910998 1.65367 0
M  V30 1683 O 156.201 -1.59696 0.883374 0
M  V30 1684 C 156.252 0.645308 3.55694 0
M  V30 1685 O 155.973 1.99764 3.89905 0
M  V30 1686 C 157.474 0.272326 4.42463 0
M  V30 1687 H 154.694 0.193462 0.642506 0
M  V30 1688 H 157.238 1.1723 1.67563 0
M  V30 1689 H 155.393 0.0173176 3.87396 0
M  V30 1690 H 155.807 2.00607 4.84621 0
M  V30 1691 H 157.281 0.427208 5.50344 0
M  V30 1692 H 157.758 -0.788587 4.32062 0
M  V30 1693 H 158.364 0.876054 4.1618 0
M  V30 1694 N 156.679 -1.44442 0.630414 0
M  V30 1695 C 157.904 -2.06927 0.139944 0
M  V30 1696 C 158.329 -1.46795 -1.17613 0
M  V30 1697 O 157.687 -0.569144 -1.72135 0
M  V30 1698 C 157.735 -3.6058 0.0379581 0
M  V30 1699 O 156.839 -3.99937 -1.0062 0
M  V30 1700 H 156.18 -0.658608 0.0844483 0
M  V30 1701 H 158.71 -1.85327 0.866891 0
M  V30 1702 H 158.72 -4.07714 -0.152856 0
M  V30 1703 H 157.395 -4.03728 0.998809 0
M  V30 1704 H 155.972 -3.64436 -0.79001 0
M  V30 1705 N 158.157 -0.370918 -1.53173 0
M  V30 1706 C 159.382 0.220293 -2.06227 0
M  V30 1707 C 159.807 1.41243 -1.24225 0
M  V30 1708 O 159.165 1.79387 -0.262645 0
M  V30 1709 C 159.213 0.586663 -3.55796 0
M  V30 1710 O 158.317 1.68317 -3.76488 0
M  V30 1711 H 157.658 0.0308099 -0.663285 0
M  V30 1712 H 160.188 -0.533068 -1.97534 0
M  V30 1713 H 160.198 0.85617 -3.98916 0
M  V30 1714 H 158.873 -0.285013 -4.14922 0
M  V30 1715 H 157.45 1.40881 -3.45264 0
M  V30 1716 N 159.635 1.57281 -0.100228 0
M  V30 1717 C 160.565 2.17328 0.853857 0
M  V30 1718 C 161.546 1.10804 1.2906 0
M  V30 1719 O 162.731 1.38963 1.35657 0
M  V30 1720 C 159.861 2.75772 2.11109 0
M  V30 1721 C 158.815 3.87713 1.81279 0
M  V30 1722 C 158.141 4.32882 3.13874 0
M  V30 1723 C 159.441 5.10677 1.09574 0
M  V30 1724 H 161.135 2.97305 0.353545 0
M  V30 1725 H 158.681 1.43009 0.168612 0
M  V30 1726 H 160.634 3.16433 2.78296 0
M  V30 1727 H 159.358 1.93057 2.63432 0
M  V30 1728 H 158.017 3.476 1.16489 0
M  V30 1729 H 157.665 3.47051 3.64095 0
M  V30 1730 H 157.365 5.08358 2.94696 0
M  V30 1731 H 158.889 4.7618 3.82211 0
M  V30 1732 H 160.303 5.48474 1.66879 0
M  V30 1733 H 158.7 5.91615 1.00557 0
M  V30 1734 H 159.77 4.84835 0.0793299 0
M  V30 1735 N 161.113 -0.173488 1.56642 0
M  V30 1736 C 162.341 -0.906095 1.86004 0
M  V30 1737 C 162.756 -1.75921 0.685355 0
M  V30 1738 O 162.113 -1.79198 -0.345578 0
M  V30 1739 C 162.164 -1.78462 3.14378 0
M  V30 1740 O 161.885 -0.965914 4.27319 0
M  V30 1741 C 163.386 -2.62707 3.57071 0
M  V30 1742 H 160.606 -0.263341 0.617165 0
M  V30 1743 H 163.15 -0.174236 2.03756 0
M  V30 1744 H 161.305 -2.46984 2.98459 0
M  V30 1745 H 161.719 -1.56655 5.00559 0
M  V30 1746 H 163.193 -3.19969 4.49804 0
M  V30 1747 H 163.67 -3.37472 2.81086 0
M  V30 1748 H 164.276 -1.99521 3.75595 0
M  V30 1749 N 162.591 -1.51276 -0.441967 0
M  V30 1750 C 163.538 -1.72256 -1.53612 0
M  V30 1751 C 164.508 -0.564164 -1.56225 0
M  V30 1752 O 165.693 -0.798074 -1.73307 0
M  V30 1753 C 162.833 -1.84932 -2.91366 0
M  V30 1754 C 161.946 -3.12459 -2.98317 0
M  V30 1755 C 161.081 -3.15758 -4.27166 0
M  V30 1756 C 160.12 -4.37619 -4.27967 0
M  V30 1757 N 159.257 -4.38493 -5.48333 0
M  V30 1758 H 164.097 -2.65654 -1.35026 0
M  V30 1759 H 161.634 -1.31662 -0.656009 0
M  V30 1760 H 163.592 -1.90263 -3.7129 0
M  V30 1761 H 162.222 -0.949461 -3.08521 0
M  V30 1762 H 161.274 -3.1646 -2.11086 0
M  V30 1763 H 162.586 -4.02382 -2.94771 0
M  V30 1764 H 161.74 -3.19979 -5.15459 0
M  V30 1765 H 160.479 -2.23715 -4.33362 0
M  V30 1766 H 159.484 -4.33579 -3.38067 0
M  V30 1767 H 160.709 -5.30921 -4.23438 0
M  V30 1768 H 158.655 -3.49318 -5.55259 0
M  V30 1769 H 158.572 -5.22219 -5.46647 0
M  V30 1770 H 159.84 -4.469 -6.38671 0
M  V30 1771 N 164.069 0.697108 -1.41344 0
M  V30 1772 C 165.346 1.45154 -1.31109 0
M  V30 1773 C 165.726 2.11009 0.0620449 0
M  V30 1774 O 165.074 2.01571 1.07618 0
M  V30 1775 C 165.284 2.47223 -2.46337 0
M  V30 1776 C 166.632 3.1252 -2.87431 0
M  V30 1777 O 167.656 2.57547 -2.46065 0
M  V30 1778 O 166.515 4.12083 -3.58957 0
M  V30 1779 H 163.609 0.646365 -0.515889 0
M  V30 1780 H 166.155 0.727716 -1.53305 0
M  V30 1781 H 164.927 1.97204 -3.37974 0
M  V30 1782 H 164.55 3.27116 -2.2601 0
M  V30 1783 N 165.547 1.27147 0.931209 0
M  V30 1784 C 166.48 1.0389 2.0318 0
M  V30 1785 C 167.458 -0.0395716 1.62552 0
M  V30 1786 O 168.642 0.104867 1.88208 0
M  V30 1787 C 165.769 0.575227 3.3378 0
M  V30 1788 C 164.815 1.64774 3.93385 0
M  V30 1789 S 165.648 3.23933 4.26413 0
M  V30 1790 C 166.804 2.79358 5.60098 0
M  V30 1791 H 167.037 1.97075 2.22596 0
M  V30 1792 H 164.57 1.10938 1.07387 0
M  V30 1793 H 166.528 0.314385 4.09294 0
M  V30 1794 H 165.189 -0.336505 3.12292 0
M  V30 1795 H 164.382 1.27454 4.87618 0
M  V30 1796 H 163.984 1.86048 3.24441 0
M  V30 1797 H 166.276 2.24443 6.39243 0
M  V30 1798 H 167.219 3.72322 6.02314 0
M  V30 1799 H 167.627 2.1861 5.20452 0
M  V30 1800 N 167.025 -1.13721 1.09112 0
M  V30 1801 C 168.253 -1.88773 0.846899 0
M  V30 1802 C 168.668 -1.7896 -0.601572 0
M  V30 1803 O 168.025 -1.15394 -1.41388 0
M  V30 1804 C 168.076 -3.3849 1.26913 0
M  V30 1805 O 167.797 -3.48043 2.66079 0
M  V30 1806 C 169.298 -4.30518 1.05682 0
M  V30 1807 H 166.518 -0.59772 0.304914 0
M  V30 1808 H 169.062 -1.43977 1.45227 0
M  V30 1809 H 167.217 -3.80881 0.707723 0
M  V30 1810 H 167.631 -4.4109 2.83795 0
M  V30 1811 H 169.105 -5.3391 1.40156 0
M  V30 1812 H 169.582 -4.392 -0.00563416 0
M  V30 1813 H 170.188 -3.93893 1.60402 0
M  V30 1814 N 168.503 -0.877838 -1.30888 0
M  V30 1815 C 169.751 -0.491723 -1.96027 0
M  V30 1816 C 170.072 0.960827 -1.69685 0
M  V30 1817 O 169.342 1.67462 -1.01654 0
M  V30 1818 H 167.922 -0.17885 -0.725273 0
M  V30 1819 H 170.584 -1.11935 -1.59551 0
M  V30 1820 H 169.68 -0.656016 -3.05128 0
M  V30 1821 N 169.982 1.44106 -0.638065 0
M  V30 1822 C 170.929 2.30715 0.062701 0
M  V30 1823 C 171.899 1.43882 0.829883 0
M  V30 1824 O 173.084 1.72775 0.809532 0
M  V30 1825 C 170.224 3.29258 1.03358 0
M  V30 1826 C 169.337 4.31192 0.26409 0
M  V30 1827 C 168.472 5.16825 1.22741 0
M  V30 1828 C 167.511 6.10462 0.447475 0
M  V30 1829 N 166.648 6.8877 1.36161 0
M  V30 1830 H 171.488 2.90096 -0.681781 0
M  V30 1831 H 169.025 1.42925 -0.347988 0
M  V30 1832 H 170.983 3.84886 1.60992 0
M  V30 1833 H 169.613 2.71562 1.74511 0
M  V30 1834 H 168.665 3.77981 -0.428295 0
M  V30 1835 H 169.977 4.97619 -0.343052 0
M  V30 1836 H 169.131 5.77004 1.87487 0
M  V30 1837 H 167.87 4.50488 1.86847 0
M  V30 1838 H 166.875 5.49386 -0.213433 0
M  V30 1839 H 168.1 6.78837 -0.188968 0
M  V30 1840 H 166.046 6.25096 1.98975 0
M  V30 1841 H 165.963 7.51663 0.808656 0
M  V30 1842 H 167.231 7.53467 1.99769 0
M  V30 1843 N 171.46 0.379036 1.52974 0
M  V30 1844 C 172.37 -0.468639 2.29872 0
M  V30 1845 C 173.386 -1.08067 1.36373 0
M  V30 1846 O 174.562 -1.08871 1.69438 0
M  V30 1847 C 171.627 -1.58594 3.083 0
M  V30 1848 C 170.688 -1.00007 4.17489 0
M  V30 1849 C 169.921 -2.06413 4.92168 0
M  V30 1850 O 170.144 -3.27751 4.66835 0
M  V30 1851 O 169.078 -1.68717 5.7777 0
M  V30 1852 H 172.904 0.157508 3.03291 0
M  V30 1853 H 170.489 0.143035 1.48714 0
M  V30 1854 H 172.371 -2.23525 3.57232 0
M  V30 1855 H 171.046 -2.19724 2.37703 0
M  V30 1856 H 169.953 -0.314299 3.72777 0
M  V30 1857 H 171.286 -0.433135 4.90291 0
M  V30 1858 N 172.938 -1.57226 0.108567 0
M  V30 1859 C 174.215 -1.86333 -0.594939 0
M  V30 1860 C 174.595 -1.00788 -1.85486 0
M  V30 1861 O 173.943 -0.0839293 -2.28346 0
M  V30 1862 C 174.153 -3.37265 -0.897405 0
M  V30 1863 C 175.501 -4.05629 -1.25501 0
M  V30 1864 O 176.525 -3.42224 -0.987998 0
M  V30 1865 O 175.384 -5.17531 -1.75567 0
M  V30 1866 H 172.478 -0.771018 -0.2991 0
M  V30 1867 H 175.024 -1.69102 0.142283 0
M  V30 1868 H 173.796 -3.913 -0.00413806 0
M  V30 1869 H 173.419 -3.59889 -1.69014 0
M  V30 1870 N 174.416 0.165178 -1.56732 0
M  V30 1871 C 175.364 1.22369 -1.97809 0
M  V30 1872 C 176.358 1.45488 -0.867741 0
M  V30 1873 O 177.564 1.45995 -1.05288 0
M  V30 1874 H 173.939 0.411486 -0.629431 0
M  V30 1875 H 175.91 0.850425 -2.86025 0
M  V30 1876 C 174.659 2.55403 -2.35934 0
M  V30 1877 H 173.982 2.38438 -3.20916 0
M  V30 1878 H 175.422 3.2814 -2.68514 0
M  V30 1879 C 173.881 3.14611 -1.20506 0
M  V30 1880 O 174.411 3.98626 -0.496016 0
M  V30 1881 N 172.617 2.7379 -0.97403 0
M  V30 1882 H 172.164 2.0557 -1.55238 0
M  V30 1883 H 172.122 3.1374 -0.203573 0
M  V30 1884 N 175.894 1.51508 0.433938 0
M  V30 1885 C 177.124 1.67914 1.20369 0
M  V30 1886 C 177.532 0.377461 1.85397 0
M  V30 1887 O 176.875 -0.654255 1.71654 0
M  V30 1888 C 176.937 2.74045 2.32679 0
M  V30 1889 C 176.601 4.16543 1.87991 0
M  V30 1890 C 177.598 5.01211 1.38145 0
M  V30 1891 C 175.283 4.6266 1.95579 0
M  V30 1892 C 177.277 6.30056 0.964774 0
M  V30 1893 C 174.964 5.91501 1.53523 0
M  V30 1894 C 175.962 6.75027 1.04055 0
M  V30 1895 O 175.65 8.01459 0.625964 0
M  V30 1896 H 175.382 0.566578 0.368735 0
M  V30 1897 H 177.936 1.98709 0.51999 0
M  V30 1898 H 176.166 2.38572 3.04336 0
M  V30 1899 H 177.855 2.79295 2.94532 0
M  V30 1900 H 178.621 4.66783 1.31675 0
M  V30 1901 H 174.5 3.97767 2.33029 0
M  V30 1902 H 178.044 6.95202 0.57796 0
M  V30 1903 H 173.941 6.25442 1.59665 0
M  V30 1904 H 174.709 8.15043 0.751509 0
M  V30 1905 N 177.372 -0.689602 1.41712 0
M  V30 1906 C 178.788 -1.00093 1.24312 0
M  V30 1907 C 178.988 -2.01036 0.136729 0
M  V30 1908 O 178.044 -2.47562 -0.496918 0
M  V30 1909 C 179.357 -1.51985 2.59463 0
M  V30 1910 C 180.905 -1.63838 2.66695 0
M  V30 1911 C 181.38 -2.1913 4.02177 0
M  V30 1912 N 182.871 -2.26483 4.04054 0
M  V30 1913 C 183.606 -2.70306 5.0569 0
M  V30 1914 N 183.102 -3.13691 6.17713 0
M  V30 1915 N 184.895 -2.69923 4.9305 0
M  V30 1916 H 177.046 -0.0210029 2.1239 0
M  V30 1917 H 179.309 -0.0718733 0.945272 0
M  V30 1918 H 179.015 -0.85269 3.41207 0
M  V30 1919 H 178.889 -2.50103 2.82362 0
M  V30 1920 H 181.276 -2.29664 1.85306 0
M  V30 1921 H 181.357 -0.642492 2.476 0
M  V30 1922 H 181.001 -1.53918 4.84016 0
M  V30 1923 H 180.931 -3.19482 4.18615 0
M  V30 1924 H 183.422 -1.95874 3.23174 0
M  V30 1925 H 183.735 -3.45773 6.9113 0
M  V30 1926 H 182.08 -3.11585 6.21241 0
M  V30 1927 H 185.271 -2.35382 4.04614 0
M  V30 1928 H 185.444 -3.03758 5.72394 0
M  V30 1929 N 178.85 -1.27639 -0.924453 0
M  V30 1930 C 180.098 -1.13941 -1.66918 0
M  V30 1931 C 180.419 0.314589 -1.92446 0
M  V30 1932 O 179.689 1.21964 -1.53303 0
M  V30 1933 H 178.269 -0.418678 -0.618642 0
M  V30 1934 H 180.931 -1.60213 -1.10985 0
M  V30 1935 H 180.027 -1.67094 -2.63602 0
M  V30 1936 N 180.328 1.1314 -1.09713 0
M  V30 1937 C 181.739 1.66029 -0.853885 0
M  V30 1938 C 182.09 1.86241 0.617142 0
M  V30 1939 O 181.215 1.5834 1.47503 0
M  V30 1940 C 181.81 3.01599 -1.5435 0
M  V30 1941 C 180.369 3.51467 -1.34714 0
M  V30 1942 C 179.516 2.26648 -1.59769 0
M  V30 1943 H 182.467 0.970226 -1.25588 0
M  V30 1944 H 182.488 3.67709 -0.978267 0
M  V30 1945 H 182 2.86856 -2.6141 0
M  V30 1946 H 180.101 3.71408 -0.297838 0
M  V30 1947 H 180.214 4.314 -2.08401 0
M  V30 1948 H 178.578 2.33385 -1.01998 0
M  V30 1949 H 179.361 2.14467 -2.68065 0
M  V30 1950 N 181.806 0.884767 1.30421 0
M  V30 1951 C 182.769 0.356277 2.26414 0
M  V30 1952 C 183.769 -0.501124 1.52792 0
M  V30 1953 O 184.959 -0.30831 1.7145 0
M  V30 1954 C 182.091 -0.492316 3.37326 0
M  V30 1955 H 183.284 1.20389 2.74675 0
M  V30 1956 H 180.837 0.661607 1.41607 0
M  V30 1957 H 181.572 -1.36052 2.94381 0
M  V30 1958 H 181.357 0.121832 3.91911 0
M  V30 1959 H 182.847 -0.853871 4.08777 0
M  V30 1960 N 183.284 -1.43765 0.645699 0
M  V30 1961 C 184.53 -2.02197 0.156271 0
M  V30 1962 C 184.863 -1.50776 -1.22393 0
M  V30 1963 O 184.138 -0.697771 -1.81553 0
M  V30 1964 C 184.421 -3.59749 0.158872 0
M  V30 1965 C 184.274 -4.21419 1.57245 0
M  V30 1966 C 185.593 -4.37149 -0.50879 0
M  V30 1967 H 182.712 -0.734694 0.0582602 0
M  V30 1968 H 185.354 -1.71157 0.824951 0
M  V30 1969 H 183.504 -3.86325 -0.410525 0
M  V30 1970 H 185.176 -4.059 2.19186 0
M  V30 1971 H 183.419 -3.78356 2.122 0
M  V30 1972 H 184.09 -5.30482 1.52619 0
M  V30 1973 H 186.566 -4.16093 -0.024412 0
M  V30 1974 H 185.442 -5.4683 -0.476213 0
M  V30 1975 H 185.703 -4.12839 -1.58165 0
M  V30 1976 N 184.763 -0.387143 -1.52771 0
M  V30 1977 C 186.179 -0.037007 -1.59557 0
M  V30 1978 C 186.379 1.44801 -1.40124 0
M  V30 1979 O 185.435 2.21227 -1.21716 0
M  V30 1980 C 186.748 -0.512256 -2.96305 0
M  V30 1981 C 188.296 -0.468328 -3.09476 0
M  V30 1982 C 188.771 -0.919731 -4.4867 0
M  V30 1983 N 190.262 -0.875656 -4.54848 0
M  V30 1984 C 190.997 -1.19637 -5.6078 0
M  V30 1985 N 190.493 -1.58745 -6.74368 0
M  V30 1986 N 192.286 -1.11776 -5.50874 0
M  V30 1987 H 184.437 -1.35395 -1.63652 0
M  V30 1988 H 186.7 -0.554818 -0.768688 0
M  V30 1989 H 186.406 -1.54935 -3.15734 0
M  V30 1990 H 186.28 0.089805 -3.77093 0
M  V30 1991 H 188.667 0.559671 -2.89744 0
M  V30 1992 H 188.748 -1.10616 -2.30646 0
M  V30 1993 H 188.392 -1.94595 -4.69143 0
M  V30 1994 H 188.322 -0.258927 -5.25963 0
M  V30 1995 H 190.813 -0.587843 -3.733 0
M  V30 1996 H 191.126 -1.81586 -7.51163 0
M  V30 1997 H 189.471 -1.6263 -6.75705 0
M  V30 1998 H 192.662 -0.811264 -4.61016 0
M  V30 1999 H 192.835 -1.37103 -6.3333 0
M  V30 2000 N 186.241 1.57166 -0.116904 0
M  V30 2001 C 187.204 2.14039 0.819742 0
M  V30 2002 C 188.204 1.07477 1.19605 0
M  V30 2003 O 189.394 1.33263 1.1219 0
M  V30 2004 C 186.526 2.67891 2.10826 0
M  V30 2005 H 187.719 2.98128 0.325511 0
M  V30 2006 H 185.272 1.55739 0.132312 0
M  V30 2007 H 186.007 1.87384 2.64685 0
M  V30 2008 H 185.792 3.45823 1.84793 0
M  V30 2009 H 187.282 3.11809 2.77785 0
M  V30 2010 N 187.719 -0.156864 1.56817 0
M  V30 2011 C 188.649 -1.19589 2.00551 0
M  V30 2012 C 189.63 -1.4536 0.883426 0
M  V30 2013 O 190.815 -1.56449 1.15054 0
M  V30 2014 C 187.945 -2.53143 2.37773 0
M  V30 2015 C 186.899 -2.41913 3.53075 0
M  V30 2016 C 186.225 -3.80088 3.76081 0
M  V30 2017 C 187.525 -1.91157 4.86062 0
M  V30 2018 H 189.219 -0.832293 2.87599 0
M  V30 2019 H 186.765 -0.398918 1.38364 0
M  V30 2020 H 188.718 -3.26047 2.66967 0
M  V30 2021 H 187.442 -2.91319 1.4765 0
M  V30 2022 H 186.101 -1.71462 3.24031 0
M  V30 2023 H 185.749 -4.15683 2.83225 0
M  V30 2024 H 185.449 -3.73439 4.53671 0
M  V30 2025 H 186.973 -4.54556 4.0769 0
M  V30 2026 H 188.387 -2.53846 5.14038 0
M  V30 2027 H 186.784 -1.95422 5.67389 0
M  V30 2028 H 187.854 -0.866673 4.77092 0
M  V30 2029 N 189.197 -1.51736 -0.425897 0
M  V30 2030 C 190.437 -1.66636 -1.18371 0
M  V30 2031 C 190.801 -0.379854 -1.88205 0
M  V30 2032 O 192.002 -0.404758 -2.65735 0
M  V30 2033 C 190.273 -2.84382 -2.16476 0
M  V30 2034 S 191.832 -3.19673 -3.0059 0
M  V30 2035 H 188.65 -0.586957 -0.40125 0
M  V30 2036 H 191.252 -1.89679 -0.473518 0
M  V30 2037 H 189.956 -3.76281 -1.63831 0
M  V30 2038 H 189.487 -2.63562 -2.92059 0
M  V30 2039 H 191.502 -2.66994 -4.18245 0
M  V30 2040 N 190.675 0.682077 -1.42076 0
M  V30 2041 C 191.607 1.80755 -1.40926 0
M  V30 2042 C 192.62 1.59833 -0.309398 0
M  V30 2043 O 193.809 1.69087 -0.572014 0
M  V30 2044 C 190.909 3.17744 -1.17865 0
M  V30 2045 C 190.082 3.65578 -2.40149 0
M  V30 2046 C 189.141 4.81277 -2.12742 0
M  V30 2047 O 188.167 4.92197 -2.85887 0
M  V30 2048 N 189.369 5.69474 -1.12602 0
M  V30 2049 H 192.134 1.82229 -2.37935 0
M  V30 2050 H 189.695 0.864903 -1.36861 0
M  V30 2051 H 191.687 3.9279 -0.9746 0
M  V30 2052 H 190.257 3.11214 -0.294068 0
M  V30 2053 H 189.477 2.81291 -2.76169 0
M  V30 2054 H 190.765 3.94278 -3.21593 0
M  V30 2055 H 190.163 5.63297 -0.520899 0
M  V30 2056 H 188.72 6.44363 -0.981842 0
M  V30 2057 N 192.153 1.28127 0.917671 0
M  V30 2058 C 193.402 1.14432 1.66097 0
M  V30 2059 C 193.715 -0.307247 1.93172 0
M  V30 2060 O 194.921 -0.565259 2.65551 0
M  V30 2061 C 193.377 2.00015 2.99202 0
M  V30 2062 C 192.985 3.49889 2.79789 0
M  V30 2063 C 194.729 1.94996 3.77064 0
M  V30 2064 C 192.636 4.27636 4.08511 0
M  V30 2065 H 191.566 0.424662 0.62304 0
M  V30 2066 H 194.217 1.52628 1.01868 0
M  V30 2067 H 192.599 1.54672 3.64544 0
M  V30 2068 H 193.773 4.03162 2.23152 0
M  V30 2069 H 192.088 3.56392 2.15345 0
M  V30 2070 H 194.685 2.50354 4.72469 0
M  V30 2071 H 195.028 0.925819 4.05875 0
M  V30 2072 H 195.561 2.38287 3.18534 0
M  V30 2073 H 192.3 5.30615 3.84874 0
M  V30 2074 H 191.82 3.79137 4.64774 0
M  V30 2075 H 193.499 4.37346 4.76799 0
M  V30 2076 N 193.631 -1.12557 1.10312 0
M  V30 2077 C 194.859 -1.87864 0.866873 0
M  V30 2078 C 195.274 -1.79588 -0.582557 0
M  V30 2079 O 194.631 -1.16887 -1.40156 0
M  V30 2080 C 194.682 -3.37125 1.30496 0
M  V30 2081 O 194.403 -3.45201 2.69755 0
M  V30 2082 C 195.904 -4.29373 1.10243 0
M  V30 2083 H 193.124 -0.594452 0.311236 0
M  V30 2084 H 195.668 -1.42429 1.46745 0
M  V30 2085 H 193.823 -3.80109 0.748081 0
M  V30 2086 H 194.237 -4.38056 2.88457 0
M  V30 2087 H 195.711 -5.32394 1.45811 0
M  V30 2088 H 196.188 -4.39181 0.0409492 0
M  V30 2089 H 196.794 -3.92169 1.64571 0
M  V30 2090 N 195.109 -0.891671 -1.2995 0
M  V30 2091 C 196.386 -0.433307 -1.9074 0
M  V30 2092 C 196.766 1.08646 -1.80995 0
M  V30 2093 O 196.114 1.92476 -1.23147 0
M  V30 2094 C 196.324 -0.938895 -3.36134 0
M  V30 2095 C 197.672 -0.977829 -4.13187 0
M  V30 2096 O 198.696 -0.886015 -3.45005 0
M  V30 2097 O 197.555 -1.11453 -5.35015 0
M  V30 2098 H 194.649 -0.133699 -0.816121 0
M  V30 2099 H 197.195 -0.981011 -1.38471 0
M  V30 2100 H 195.967 -1.98281 -3.37343 0
M  V30 2101 H 195.59 -0.37074 -3.95868 0
M  V30 2102 N 196.587 1.43421 -0.653314 0
M  V30 2103 C 197.812 2.06678 -0.172846 0
M  V30 2104 C 198.237 1.48648 1.15262 0
M  V30 2105 O 197.595 0.596457 1.71208 0
M  V30 2106 C 197.643 3.60474 -0.0953184 0
M  V30 2107 O 196.747 4.01487 0.942442 0
M  V30 2108 H 196.088 0.657181 -0.0949155 0
M  V30 2109 H 198.618 1.83925 -0.896265 0
M  V30 2110 H 198.628 4.07905 0.0879728 0
M  V30 2111 H 197.303 4.02088 -1.06291 0
M  V30 2112 H 195.88 3.65646 0.731932 0
M  V30 2113 N 198.065 0.39524 1.52563 0
M  V30 2114 C 199.293 -0.184943 2.06072 0
M  V30 2115 C 199.708 -1.40021 1.26647 0
M  V30 2116 O 199.065 -1.79767 0.314672 0
M  V30 2117 C 199.116 -0.549179 3.57304 0
M  V30 2118 O 198.837 0.617813 4.33722 0
M  V30 2119 C 200.338 -1.18459 4.2718 0
M  V30 2120 H 197.558 -0.0265025 0.670476 0
M  V30 2121 H 200.102 0.562184 1.96621 0
M  V30 2122 H 198.257 -1.2462 3.66809 0
M  V30 2123 H 198.671 0.317091 5.23541 0
M  V30 2124 H 200.145 -1.38976 5.34219 0
M  V30 2125 H 200.622 -2.15368 3.82771 0
M  V30 2126 H 201.228 -0.528163 4.22008 0
M  V30 2127 N 199.544 -1.57102 0.125237 0
M  V30 2128 C 200.477 -2.11371 -0.860094 0
M  V30 2129 C 201.455 -1.03168 -1.25679 0
M  V30 2130 O 202.639 -1.30862 -1.35674 0
M  V30 2131 C 199.766 -2.61555 -2.1519 0
M  V30 2132 C 198.812 -3.81701 -1.9028 0
M  V30 2133 S 199.645 -5.23797 -1.11343 0
M  V30 2134 C 200.801 -5.77353 -2.41689 0
M  V30 2135 H 201.034 -2.94617 -0.39852 0
M  V30 2136 H 198.567 -1.54145 -0.0886555 0
M  V30 2137 H 200.525 -2.91122 -2.89411 0
M  V30 2138 H 199.186 -1.78479 -2.58465 0
M  V30 2139 H 198.379 -4.14985 -2.86014 0
M  V30 2140 H 197.981 -3.52783 -1.24178 0
M  V30 2141 H 200.273 -5.87458 -3.37489 0
M  V30 2142 H 201.216 -6.75323 -2.12942 0
M  V30 2143 H 201.624 -5.05457 -2.51342 0
M  V30 2144 N 201.022 0.148545 -1.56898 0
M  V30 2145 C 201.952 1.18524 -2.01182 0
M  V30 2146 C 202.933 1.4489 -0.891123 0
M  V30 2147 O 204.118 1.55836 -1.15882 0
M  V30 2148 C 201.248 2.51879 -2.39112 0
M  V30 2149 C 200.202 2.40038 -3.54353 0
M  V30 2150 C 199.528 3.78089 -3.78091 0
M  V30 2151 C 200.828 1.88577 -4.87069 0
M  V30 2152 H 202.522 0.817029 -2.88036 0
M  V30 2153 H 200.068 0.391575 -1.38574 0
M  V30 2154 H 202.021 3.24627 -2.68692 0
M  V30 2155 H 200.745 2.90532 -1.49193 0
M  V30 2156 H 199.404 1.69742 -3.24936 0
M  V30 2157 H 199.052 4.14175 -2.85426 0
M  V30 2158 H 198.752 3.71028 -4.55645 0
M  V30 2159 H 200.276 4.52387 -4.10095 0
M  V30 2160 H 201.69 2.51117 -5.15377 0
M  V30 2161 H 200.087 1.9241 -5.68417 0
M  V30 2162 H 201.157 0.84136 -4.77545 0
M  V30 2163 N 202.5 1.5196 0.417844 0
M  V30 2164 C 203.432 1.70895 1.52733 0
M  V30 2165 C 204.445 0.589405 1.51756 0
M  V30 2166 O 205.634 0.864312 1.56179 0
M  V30 2167 C 202.734 1.72627 2.91639 0
M  V30 2168 C 201.907 3.01479 3.16905 0
M  V30 2169 C 200.966 2.95139 4.35637 0
M  V30 2170 O 199.992 3.69059 4.3334 0
M  V30 2171 N 201.194 2.12328 5.40275 0
M  V30 2172 H 203.959 2.66612 1.36888 0
M  V30 2173 H 201.52 1.50089 0.607037 0
M  V30 2174 H 203.512 1.65928 3.6912 0
M  V30 2175 H 202.082 0.844216 3.00985 0
M  V30 2176 H 201.302 3.21895 2.27546 0
M  V30 2177 H 202.59 3.86736 3.30625 0
M  V30 2178 H 201.988 1.51685 5.44985 0
M  V30 2179 H 200.545 2.11494 6.16534 0
M  V30 2180 N 203.978 -0.674533 1.42435 0
M  V30 2181 C 204.941 -1.76986 1.45632 0
M  V30 2182 C 205.941 -1.5708 0.343871 0
M  V30 2183 O 207.131 -1.63367 0.604709 0
M  V30 2184 C 204.263 -3.15623 1.28822 0
M  V30 2185 H 205.456 -1.75539 2.43158 0
M  V30 2186 H 203.009 -0.884189 1.28887 0
M  V30 2187 H 203.744 -3.22696 0.322193 0
M  V30 2188 H 203.529 -3.31475 2.09444 0
M  V30 2189 H 205.019 -3.95537 1.33942 0
M  V30 2190 N 205.456 -1.28612 -0.910864 0
M  V30 2191 C 206.705 -1.15311 -1.65488 0
M  V30 2192 C 207.018 0.296999 -1.93332 0
M  V30 2193 O 208.224 0.551168 -2.65847 0
M  V30 2194 C 206.68 -2.01599 -2.98137 0
M  V30 2195 C 206.288 -3.51367 -2.7793 0
M  V30 2196 C 208.032 -1.96993 -3.76024 0
M  V30 2197 C 205.939 -4.29797 -4.06237 0
M  V30 2198 H 204.869 -0.42796 -0.620779 0
M  V30 2199 H 207.52 -1.53166 -1.01057 0
M  V30 2200 H 205.902 -1.56603 -3.63719 0
M  V30 2201 H 207.076 -4.0434 -2.21011 0
M  V30 2202 H 205.391 -3.57529 -2.13452 0
M  V30 2203 H 207.988 -2.52856 -4.71135 0
M  V30 2204 H 208.331 -0.94733 -4.05378 0
M  V30 2205 H 208.864 -2.39973 -3.17266 0
M  V30 2206 H 205.603 -5.32648 -3.82055 0
M  V30 2207 H 205.123 -3.81596 -4.62757 0
M  V30 2208 H 206.802 -4.39869 -4.74473 0
M  V30 2209 N 206.934 1.1197 -1.10907 0
M  V30 2210 C 207.844 2.21433 -0.774896 0
M  V30 2211 C 208.86 1.72478 0.229657 0
M  V30 2212 O 210.036 2.01288 0.0672008 0
M  V30 2213 C 207.101 3.4602 -0.216986 0
M  V30 2214 C 206.162 4.09791 -1.27944 0
M  V30 2215 C 205.395 5.28431 -0.748055 0
M  V30 2216 O 205.618 5.68823 0.423833 0
M  V30 2217 O 204.552 5.82644 -1.51027 0
M  V30 2218 H 208.378 2.5242 -1.68873 0
M  V30 2219 H 205.963 1.20399 -0.884555 0
M  V30 2220 H 207.845 4.21304 0.090059 0
M  V30 2221 H 206.52 3.16698 0.669633 0
M  V30 2222 H 205.427 3.36265 -1.63941 0
M  V30 2223 H 206.76 4.4328 -2.13925 0
M  V30 2224 N 208.412 0.89855 1.29475 0
M  V30 2225 C 209.828 0.594483 1.48115 0
M  V30 2226 C 210.028 -0.86431 1.82022 0
M  V30 2227 O 209.084 -1.64457 1.91599 0
M  V30 2228 C 210.397 1.51932 2.59494 0
M  V30 2229 C 211.945 1.5244 2.7337 0
M  V30 2230 C 212.42 2.43548 3.87877 0
M  V30 2231 N 213.911 2.41589 3.95208 0
M  V30 2232 C 214.646 3.08789 4.83153 0
M  V30 2233 N 214.142 3.85265 5.75798 0
M  V30 2234 N 215.935 2.97952 4.76635 0
M  V30 2235 H 208.086 1.84207 1.05742 0
M  V30 2236 H 210.349 0.789251 0.525154 0
M  V30 2237 H 210.055 2.55865 2.41301 0
M  V30 2238 H 209.929 1.23899 3.56271 0
M  V30 2239 H 212.316 0.492518 2.90961 0
M  V30 2240 H 212.397 1.8451 1.77172 0
M  V30 2241 H 212.041 3.46829 3.71041 0
M  V30 2242 H 211.971 2.08788 4.83441 0
M  V30 2243 H 214.462 1.86025 3.28943 0
M  V30 2244 H 214.775 4.33598 6.39697 0
M  V30 2245 H 213.12 3.89371 5.75687 0
M  V30 2246 H 216.311 2.37723 4.03244 0
M  V30 2247 H 216.484 3.50599 5.44962 0
M  V30 2248 N 209.89 -1.43072 0.660911 0
M  V30 2249 C 211.12 -2.05769 0.185153 0
M  V30 2250 C 211.528 -1.49668 -1.15742 0
M  V30 2251 O 210.871 -0.625649 -1.72717 0
M  V30 2252 C 210.933 -3.59489 0.0278237 0
M  V30 2253 C 210.597 -4.38212 1.2969 0
M  V30 2254 C 211.594 -4.69772 2.22734 0
M  V30 2255 C 209.279 -4.7809 1.54063 0
M  V30 2256 C 211.273 -5.40129 3.38437 0
M  V30 2257 C 208.96 -5.4819 2.70058 0
M  V30 2258 C 209.958 -5.79132 3.62071 0
M  V30 2259 O 209.646 -6.47798 4.76039 0
M  V30 2260 H 209.378 -0.669873 0.0908086 0
M  V30 2261 H 211.932 -1.84436 0.90402 0
M  V30 2262 H 210.162 -3.79426 -0.746489 0
M  V30 2263 H 211.851 -4.03862 -0.406275 0
M  V30 2264 H 212.617 -4.39476 2.05149 0
M  V30 2265 H 208.496 -4.53408 0.833215 0
M  V30 2266 H 212.04 -5.64198 4.10277 0
M  V30 2267 H 207.937 -5.77902 2.87574 0
M  V30 2268 H 208.705 -6.66283 4.75404 0
M  V30 2269 N 211.368 -0.403325 -1.52352 0
M  V30 2270 C 212.301 0.469463 -2.23319 0
M  V30 2271 C 213.279 1.05272 -1.23922 0
M  V30 2272 O 214.463 1.10169 -1.52954 0
M  V30 2273 C 211.59 1.6511 -2.9573 0
M  V30 2274 C 210.636 1.19178 -4.0951 0
M  V30 2275 S 211.469 0.161718 -5.35256 0
M  V30 2276 C 212.625 1.34882 -6.11194 0
M  V30 2277 H 212.858 -0.133134 -2.97002 0
M  V30 2278 H 210.391 -0.187588 -1.53256 0
M  V30 2279 H 212.349 2.3287 -3.38056 0
M  V30 2280 H 211.01 2.22503 -2.21701 0
M  V30 2281 H 210.203 2.07444 -4.59329 0
M  V30 2282 H 209.805 0.592911 -3.6927 0
M  V30 2283 H 212.097 2.27345 -6.38217 0
M  V30 2284 H 213.04 0.89128 -7.02468 0
M  V30 2285 H 213.448 1.57198 -5.42171 0
M  V30 2286 N 212.846 1.57033 -0.133567 0
M  V30 2287 C 213.793 2.16074 0.811208 0
M  V30 2288 C 214.763 1.08979 1.2535 0
M  V30 2289 O 215.948 1.36958 1.32843 0
M  V30 2290 C 213.088 2.77595 2.05024 0
M  V30 2291 C 212.201 3.99042 1.65498 0
M  V30 2292 C 211.336 4.48603 2.84479 0
M  V30 2293 C 210.375 5.62547 2.41262 0
M  V30 2294 N 209.512 6.06787 3.53206 0
M  V30 2295 H 214.352 2.96477 0.300906 0
M  V30 2296 H 211.889 1.46462 0.136822 0
M  V30 2297 H 213.847 3.11402 2.77642 0
M  V30 2298 H 212.477 1.99859 2.53488 0
M  V30 2299 H 211.529 3.71302 0.826981 0
M  V30 2300 H 212.841 4.81629 1.29748 0
M  V30 2301 H 211.995 4.84395 3.65303 0
M  V30 2302 H 210.734 3.64995 3.23465 0
M  V30 2303 H 209.739 5.26345 1.58874 0
M  V30 2304 H 210.964 6.47931 2.03377 0
M  V30 2305 H 208.91 5.26117 3.91838 0
M  V30 2306 H 208.827 6.84266 3.21427 0
M  V30 2307 H 210.095 6.4722 4.34427 0
M  V30 2308 N 214.325 -0.140222 1.56975 0
M  V30 2309 C 215.257 -1.19818 1.95388 0
M  V30 2310 C 216.27 -1.38816 0.850525 0
M  V30 2311 O 217.459 -1.38267 1.12891 0
M  V30 2312 C 214.559 -2.56189 2.21857 0
M  V30 2313 C 213.732 -2.58077 3.5315 0
M  V30 2314 C 212.791 -3.76037 3.6808 0
M  V30 2315 O 211.817 -3.60598 4.40406 0
M  V30 2316 N 213.019 -4.93763 3.05251 0
M  V30 2317 H 215.784 -0.871609 2.86746 0
M  V30 2318 H 213.345 -0.32972 1.58507 0
M  V30 2319 H 215.337 -3.33623 2.2908 0
M  V30 2320 H 213.907 -2.81111 1.36731 0
M  V30 2321 H 213.127 -1.6651 3.57307 0
M  V30 2322 H 214.415 -2.56377 4.39486 0
M  V30 2323 H 213.813 -5.09209 2.46419 0
M  V30 2324 H 212.37 -5.68949 3.18026 0
M  V30 2325 N 215.803 -1.52179 -0.40978 0
M  V30 2326 C 216.766 -1.74853 -1.48186 0
M  V30 2327 C 217.766 -0.618417 -1.48433 0
M  V30 2328 O 218.956 -0.886286 -1.49969 0
M  V30 2329 C 216.088 -1.8303 -2.87598 0
M  V30 2330 H 217.281 -2.70559 -1.29374 0
M  V30 2331 H 214.834 -1.42586 -0.640233 0
M  V30 2332 H 215.569 -0.89236 -3.11781 0
M  V30 2333 H 215.354 -2.65187 -2.88822 0
M  V30 2334 H 216.844 -2.02316 -3.65319 0
M  V30 2335 N 217.281 0.66697 -1.42791 0
M  V30 2336 C 218.53 1.42278 -1.42968 0
M  V30 2337 C 218.843 1.9553 -0.0524489 0
M  V30 2338 O 220.049 2.71414 0.068363 0
M  V30 2339 C 218.505 2.57418 -2.51524 0
M  V30 2340 C 218.113 2.10832 -3.9529 0
M  V30 2341 C 219.857 3.34878 -2.60877 0
M  V30 2342 C 217.764 3.23101 -4.95338 0
M  V30 2343 H 216.694 0.534533 -0.531781 0
M  V30 2344 H 219.345 0.721302 -1.68729 0
M  V30 2345 H 217.727 3.29971 -2.18941 0
M  V30 2346 H 218.901 1.4538 -4.37266 0
M  V30 2347 H 217.216 1.46289 -3.89857 0
M  V30 2348 H 219.813 4.18505 -3.32802 0
M  V30 2349 H 220.156 3.81993 -1.6549 0
M  V30 2350 H 220.689 2.69398 -2.92693 0
M  V30 2351 H 217.428 2.80969 -5.9223 0
M  V30 2352 H 216.948 3.87309 -4.57987 0
M  V30 2353 H 218.627 3.88447 -5.17415 0
M  V30 2354 N 218.759 1.29093 0.90403 0
M  V30 2355 C 220.005 1.16986 1.65656 0
M  V30 2356 C 220.338 -0.278925 1.92186 0
M  V30 2357 O 219.613 -1.2019 1.5292 0
M  V30 2358 C 219.896 1.97908 3.0084 0
M  V30 2359 C 219.749 3.50903 2.81403 0
M  V30 2360 C 221.068 1.80208 4.01513 0
M  V30 2361 H 218.187 0.426346 0.601164 0
M  V30 2362 H 220.829 1.58518 1.04747 0
M  V30 2363 H 218.979 1.62616 3.52829 0
M  V30 2364 H 220.651 3.96153 2.36348 0
M  V30 2365 H 218.894 3.76045 2.1627 0
M  V30 2366 H 219.565 4.02791 3.77443 0
M  V30 2367 H 222.041 2.11025 3.58619 0
M  V30 2368 H 220.917 2.39184 4.94047 0
M  V30 2369 H 221.178 0.756119 4.35586 0
M  V30 2370 N 220.237 -1.11381 1.11499 0
M  V30 2371 C 221.514 -1.7955 0.775965 0
M  V30 2372 C 221.894 -1.97859 -0.73588 0
M  V30 2373 O 221.242 -1.56376 -1.66609 0
M  V30 2374 C 221.452 -3.13196 1.53977 0
M  V30 2375 C 222.8 -3.88227 1.71944 0
M  V30 2376 O 223.824 -3.22887 1.50407 0
M  V30 2377 O 222.683 -5.05477 2.07738 0
M  V30 2378 H 219.777 -0.777728 0.28119 0
M  V30 2379 H 222.323 -1.18118 1.21845 0
M  V30 2380 H 221.095 -2.95229 2.56818 0
M  V30 2381 H 220.718 -3.82342 1.09088 0
M  V30 2382 N 221.715 -0.905404 -1.28997 0
M  V30 2383 C 222.662 -0.385892 -2.27551 0
M  V30 2384 C 223.632 0.535113 -1.57244 0
M  V30 2385 O 224.817 0.459119 -1.85194 0
M  V30 2386 C 221.957 0.375461 -3.43051 0
M  V30 2387 C 221.07 -0.577092 -4.28128 0
M  V30 2388 C 220.205 0.201879 -5.30816 0
M  V30 2389 C 219.244 -0.744829 -6.07551 0
M  V30 2390 N 218.381 9.42587e-05 -7.021 0
M  V30 2391 H 223.221 -1.23139 -2.71368 0
M  V30 2392 H 220.758 -0.618542 -1.33463 0
M  V30 2393 H 222.716 0.832992 -4.088 0
M  V30 2394 H 221.346 1.18537 -3.00248 0
M  V30 2395 H 220.398 -1.15315 -3.62501 0
M  V30 2396 H 221.71 -1.30152 -4.8152 0
M  V30 2397 H 220.864 0.720351 -6.02408 0
M  V30 2398 H 219.603 0.959413 -4.7817 0
M  V30 2399 H 218.608 -1.27475 -5.34818 0
M  V30 2400 H 219.833 -1.50178 -6.62286 0
M  V30 2401 H 217.779 0.739791 -6.51815 0
M  V30 2402 H 217.696 -0.664321 -7.53076 0
M  V30 2403 H 218.964 0.498644 -7.77903 0
M  V30 2404 N 223.193 1.4272 -0.668489 0
M  V30 2405 C 224.439 2.01923 -0.188419 0
M  V30 2406 C 224.772 1.52704 1.19979 0
M  V30 2407 O 224.047 0.726566 1.8042 0
M  V30 2408 C 224.33 3.59451 -0.216085 0
M  V30 2409 C 224.183 4.18864 -1.6393 0
M  V30 2410 C 225.502 4.37903 0.439179 0
M  V30 2411 H 222.621 0.733674 -0.0699412 0
M  V30 2412 H 225.263 1.69822 -0.852076 0
M  V30 2413 H 223.413 3.86929 0.349012 0
M  V30 2414 H 225.085 4.02362 -2.25616 0
M  V30 2415 H 223.328 3.74933 -2.18193 0
M  V30 2416 H 223.999 5.27987 -1.61039 0
M  V30 2417 H 226.475 4.16079 -0.0417878 0
M  V30 2418 H 225.351 5.47519 0.389157 0
M  V30 2419 H 225.612 4.15303 1.51577 0
M  V30 2420 N 224.671 0.411399 1.52136 0
M  V30 2421 C 226.082 -0.0576826 1.86611 0
M  V30 2422 C 226.433 -1.44238 1.33003 0
M  V30 2423 O 225.558 -2.05759 0.670228 0
M  V30 2424 C 226.153 -0.111448 3.38617 0
M  V30 2425 C 224.712 -0.52487 3.72723 0
M  V30 2426 C 223.859 0.299176 2.75681 0
M  V30 2427 H 226.81 0.628368 1.4573 0
M  V30 2428 H 226.831 -0.926252 3.69054 0
M  V30 2429 H 226.343 0.896488 3.77604 0
M  V30 2430 H 224.444 -1.53936 3.39315 0
M  V30 2431 H 224.557 -0.267681 4.78352 0
M  V30 2432 H 222.921 -0.238814 2.53578 0
M  V30 2433 H 223.704 1.3055 3.17508 0
M  V30 2434 N 226.149 -1.5696 0.141893 0
M  V30 2435 C 227.374 -2.00754 -0.520838 0
M  V30 2436 C 227.799 -1.0213 -1.57959 0
M  V30 2437 O 227.157 0.00371324 -1.813 0
M  V30 2438 C 227.205 -3.43318 -1.10294 0
M  V30 2439 O 226.309 -3.47679 -2.21795 0
M  V30 2440 H 225.65 -0.651564 -0.127908 0
M  V30 2441 H 228.18 -2.03221 0.23712 0
M  V30 2442 H 228.19 -3.82012 -1.43287 0
M  V30 2443 H 226.865 -4.14608 -0.327574 0
M  V30 2444 H 225.442 -3.20824 -1.9007 0
M  V30 2445 N 227.627 0.131896 -1.57047 0
M  V30 2446 C 228.873 0.843179 -1.84441 0
M  V30 2447 C 229.206 1.80129 -0.725749 0
M  V30 2448 O 228.481 1.92624 0.269469 0
M  V30 2449 C 228.764 1.60442 -3.22382 0
M  V30 2450 C 228.617 0.666782 -4.4483 0
M  V30 2451 C 229.936 2.56354 -3.5773 0
M  V30 2452 H 227.055 0.305081 -0.670891 0
M  V30 2453 H 229.697 0.107839 -1.89694 0
M  V30 2454 H 227.847 2.23128 -3.18035 0
M  V30 2455 H 229.519 0.0497646 -4.61273 0
M  V30 2456 H 227.762 -0.022609 -4.33794 0
M  V30 2457 H 228.433 1.23579 -5.37989 0
M  V30 2458 H 230.909 2.0378 -3.62785 0
M  V30 2459 H 229.785 3.06657 -4.5525 0
M  V30 2460 H 230.046 3.38419 -2.84473 0
M  V30 2461 N 229.106 1.52395 0.401703 0
M  V30 2462 C 230.331 1.70972 1.17403 0
M  V30 2463 C 230.756 0.421615 1.83314 0
M  V30 2464 O 230.114 -0.621564 1.70312 0
M  V30 2465 C 230.162 2.85151 2.20728 0
M  V30 2466 O 229.266 2.51238 3.27037 0
M  V30 2467 H 228.607 0.568927 0.342372 0
M  V30 2468 H 231.137 1.99131 0.469891 0
M  V30 2469 H 231.147 3.10279 2.64936 0
M  V30 2470 H 229.822 3.78603 1.7214 0
M  V30 2471 H 228.399 2.36808 2.88057 0
M  V30 2472 N 230.584 -0.659388 1.43143 0
M  V30 2473 C 231.809 -1.45221 1.48073 0
M  V30 2474 C 232.234 -1.87845 0.097995 0
M  V30 2475 O 231.592 -1.56985 -0.90694 0
M  V30 2476 C 231.64 -2.66748 2.42647 0
M  V30 2477 O 230.744 -3.65583 1.90848 0
M  V30 2478 H 230.085 -0.435669 0.501088 0
M  V30 2479 H 232.615 -0.807432 1.87994 0
M  V30 2480 H 232.625 -3.14637 2.59745 0
M  V30 2481 H 231.3 -2.35067 3.43098 0
M  V30 2482 H 229.877 -3.24693 1.83381 0
M  V30 2483 N 232.062 -1.29571 -0.897171 0
M  V30 2484 C 233.287 -1.20705 -1.68656 0
M  V30 2485 C 233.712 0.228582 -1.86706 0
M  V30 2486 O 233.07 1.16494 -1.3892 0
M  V30 2487 C 233.118 -1.9282 -3.04717 0
M  V30 2488 O 232.222 -1.24697 -3.93096 0
M  V30 2489 H 231.563 -0.418126 -0.515816 0
M  V30 2490 H 234.093 -1.71183 -1.12061 0
M  V30 2491 H 234.103 -2.01372 -3.54843 0
M  V30 2492 H 232.778 -2.97239 -2.90899 0
M  V30 2493 H 231.355 -1.2442 -3.51531 0
M  V30 2494 N 233.54 1.10788 -1.12088 0
M  V30 2495 C 234.503 2.15207 -0.788577 0
M  V30 2496 C 235.503 1.59609 0.195317 0
M  V30 2497 O 236.693 1.74174 -0.0300193 0
M  V30 2498 C 233.825 3.4047 -0.171174 0
M  V30 2499 H 235.018 2.46116 -1.71368 0
M  V30 2500 H 232.571 1.26089 -0.923652 0
M  V30 2501 H 233.306 3.15176 0.763832 0
M  V30 2502 H 233.091 3.82109 -0.879514 0
M  V30 2503 H 234.581 4.17576 0.04496 0
M  V30 2504 N 235.018 0.912232 1.28515 0
M  V30 2505 C 235.948 0.416403 2.29757 0
M  V30 2506 C 236.929 -0.515194 1.6211 0
M  V30 2507 O 238.114 -0.423253 1.89532 0
M  V30 2508 C 235.244 -0.34572 3.45575 0
M  V30 2509 C 234.198 0.496599 4.25109 0
M  V30 2510 C 233.524 -0.393771 5.33248 0
M  V30 2511 C 234.824 1.75307 4.92001 0
M  V30 2512 H 236.518 1.26249 2.7148 0
M  V30 2513 H 234.064 0.608515 1.30511 0
M  V30 2514 H 236.017 -0.703422 4.15488 0
M  V30 2515 H 234.741 -1.2257 3.02728 0
M  V30 2516 H 233.4 0.8368 3.56922 0
M  V30 2517 H 233.048 -1.27225 4.86644 0
M  V30 2518 H 232.748 0.166209 5.87365 0
M  V30 2519 H 234.272 -0.747389 6.06009 0
M  V30 2520 H 235.686 1.46437 5.54283 0
M  V30 2521 H 234.083 2.25534 5.56106 0
M  V30 2522 H 235.153 2.48176 4.16577 0
M  V30 2523 N 236.496 -1.42363 0.676048 0
M  V30 2524 C 237.742 -2.0182 0.199125 0
M  V30 2525 C 238.075 -1.53339 -1.19168 0
M  V30 2526 O 237.35 -0.736124 -1.80032 0
M  V30 2527 C 237.633 -3.59331 0.235144 0
M  V30 2528 C 237.486 -4.17989 1.66149 0
M  V30 2529 C 238.805 -4.3813 -0.41595 0
M  V30 2530 H 235.924 -0.733293 0.0738311 0
M  V30 2531 H 238.566 -1.69368 0.86107 0
M  V30 2532 H 236.716 -3.87109 -0.328487 0
M  V30 2533 H 238.388 -4.0116 2.27747 0
M  V30 2534 H 236.631 -3.7377 2.20178 0
M  V30 2535 H 237.302 -5.27126 1.63837 0
M  V30 2536 H 239.778 -4.16051 0.0638529 0
M  V30 2537 H 238.654 -5.47717 -0.360115 0
M  V30 2538 H 238.915 -4.16101 -1.49373 0
M  V30 2539 N 237.974 -0.419461 -1.51915 0
M  V30 2540 C 239.199 0.154572 -2.06823 0
M  V30 2541 C 239.624 1.3722 -1.28656 0
M  V30 2542 O 238.982 1.78461 -0.319583 0
M  V30 2543 C 239.03 0.473172 -3.57482 0
M  V30 2544 O 238.134 1.56255 -3.81652 0
M  V30 2545 H 237.475 0.0096924 -0.663929 0
M  V30 2546 H 240.005 -0.595642 -1.95738 0
M  V30 2547 H 240.015 0.728825 -4.01438 0
M  V30 2548 H 238.69 -0.416873 -4.13805 0
M  V30 2549 H 237.267 1.29825 -3.49571 0
M  V30 2550 N 239.452 1.56882 -0.150215 0
M  V30 2551 C 240.677 2.01027 0.510184 0
M  V30 2552 C 241.102 1.02966 1.57415 0
M  V30 2553 O 240.46 0.00590158 1.81299 0
M  V30 2554 C 240.508 3.43899 1.08472 0
M  V30 2555 O 239.612 3.4885 2.19948 0
M  V30 2556 H 238.953 0.652233 0.124451 0
M  V30 2557 H 241.483 2.03093 -0.247894 0
M  V30 2558 H 241.493 3.82766 1.41259 0
M  V30 2559 H 240.168 4.14776 0.305582 0
M  V30 2560 H 238.745 3.21827 1.88366 0
M  V30 2561 N 240.93 -0.123565 1.57115 0
M  V30 2562 C 241.86 -1.15309 2.03042 0
M  V30 2563 C 242.841 -1.43454 0.914061 0
M  V30 2564 O 244.026 -1.53973 1.18347 0
M  V30 2565 C 241.156 -2.48043 2.43089 0
M  V30 2566 C 240.11 -2.3437 3.58127 0
M  V30 2567 C 239.436 -3.72026 3.84059 0
M  V30 2568 C 240.736 -1.80804 4.90007 0
M  V30 2569 H 242.43 -0.771102 2.893 0
M  V30 2570 H 239.976 -0.369479 1.39179 0
M  V30 2571 H 241.929 -3.20311 2.73823 0
M  V30 2572 H 240.653 -2.88122 1.53796 0
M  V30 2573 H 239.312 -1.64551 3.27595 0
M  V30 2574 H 238.96 -4.09582 2.91979 0
M  V30 2575 H 238.66 -3.63732 4.6149 0
M  V30 2576 H 240.184 -4.45806 4.1724 0
M  V30 2577 H 241.598 -2.42886 5.19307 0
M  V30 2578 H 239.995 -1.83343 5.71407 0
M  V30 2579 H 241.065 -0.76528 4.78823 0
M  V30 2580 N 242.408 -1.52605 -0.393616 0
M  V30 2581 C 243.358 -1.73436 -1.48 0
M  V30 2582 C 244.342 -0.588386 -1.49756 0
M  V30 2583 O 245.534 -0.846047 -1.5547 0
M  V30 2584 C 242.663 -1.90247 -2.85764 0
M  V30 2585 C 241.749 -3.10763 -2.88595 0
M  V30 2586 N 242.14 -4.33196 -2.61103 0
M  V30 2587 C 240.438 -3.10914 -3.19763 0
M  V30 2588 C 241.139 -5.1477 -2.70899 0
M  V30 2589 N 240.115 -4.50356 -3.04435 0
M  V30 2590 H 243.917 -2.65727 -1.25563 0
M  V30 2591 H 241.431 -1.5085 -0.601513 0
M  V30 2592 H 243.428 -2.03291 -3.63976 0
M  V30 2593 H 242.088 -0.991663 -3.09186 0
M  V30 2594 H 243.099 -4.61408 -2.35209 0
M  V30 2595 H 239.776 -2.29626 -3.4868 0
M  V30 2596 H 241.166 -6.22355 -2.53227 0
M  V30 2597 N 243.887 0.651787 -1.4349 0
M  V30 2598 C 244.817 1.77621 -1.51569 0
M  V30 2599 C 245.798 1.66022 -0.370253 0
M  V30 2600 O 246.983 1.85095 -0.587658 0
M  V30 2601 C 244.113 3.16056 -1.43966 0
M  V30 2602 C 243.067 3.4242 -2.56774 0
M  V30 2603 C 242.393 4.8067 -2.34223 0
M  V30 2604 C 243.693 3.37023 -3.99015 0
M  V30 2605 H 245.387 1.71117 -2.45681 0
M  V30 2606 H 242.933 0.821825 -1.18246 0
M  V30 2607 H 244.886 3.94472 -1.48221 0
M  V30 2608 H 243.61 3.23293 -0.463586 0
M  V30 2609 H 242.269 2.66375 -2.51873 0
M  V30 2610 H 241.917 4.84585 -1.34856 0
M  V30 2611 H 241.617 4.9927 -3.09844 0
M  V30 2612 H 243.141 5.61342 -2.40265 0
M  V30 2613 H 244.555 4.05374 -4.05395 0
M  V30 2614 H 242.952 3.67159 -4.74673 0
M  V30 2615 H 244.022 2.3518 -4.2405 0
M  V30 2616 N 245.365 1.30045 0.890287 0
M  V30 2617 C 246.295 1.18541 2.01172 0
M  V30 2618 C 247.276 0.0773356 1.69924 0
M  V30 2619 O 248.461 0.25845 1.92473 0
M  V30 2620 C 245.591 0.870941 3.36202 0
M  V30 2621 C 244.545 1.93637 3.81692 0
M  V30 2622 C 243.871 1.475 5.13953 0
M  V30 2623 C 245.171 3.34666 4.00994 0
M  V30 2624 H 246.865 2.12359 2.11054 0
M  V30 2625 H 244.411 1.02238 1.01407 0
M  V30 2626 H 246.364 0.777141 4.14172 0
M  V30 2627 H 245.088 -0.102926 3.26438 0
M  V30 2628 H 243.747 2.01972 3.05946 0
M  V30 2629 H 243.395 0.489551 5.00612 0
M  V30 2630 H 243.095 2.1876 5.4536 0
M  V30 2631 H 244.619 1.39489 5.94454 0
M  V30 2632 H 246.033 3.2912 4.69417 0
M  V30 2633 H 244.43 4.03966 4.43769 0
M  V30 2634 H 245.5 3.76949 3.05021 0
M  V30 2635 N 246.843 -1.10192 1.12674 0
M  V30 2636 C 247.79 -2.16606 0.796906 0
M  V30 2637 C 248.76 -1.64394 -0.237476 0
M  V30 2638 O 249.945 -1.90474 -0.111484 0
M  V30 2639 C 247.085 -3.44116 0.26043 0
M  V30 2640 C 246.198 -4.10268 1.35293 0
M  V30 2641 C 245.333 -5.25507 0.775621 0
M  V30 2642 C 244.372 -5.83567 1.84706 0
M  V30 2643 N 243.509 -6.90179 1.28829 0
M  V30 2644 H 248.349 -2.44163 1.70846 0
M  V30 2645 H 245.886 -1.19846 0.85295 0
M  V30 2646 H 247.844 -4.17143 -0.0686814 0
M  V30 2647 H 246.474 -3.16901 -0.614274 0
M  V30 2648 H 245.526 -3.35184 1.79877 0
M  V30 2649 H 246.838 -4.4946 2.16303 0
M  V30 2650 H 245.992 -6.05398 0.397327 0
M  V30 2651 H 244.731 -4.87656 -0.0656581 0
M  V30 2652 H 243.736 -5.02344 2.23452 0
M  V30 2653 H 244.961 -6.23482 2.69161 0
M  V30 2654 H 242.907 -6.54322 0.468881 0
M  V30 2655 H 242.824 -7.28097 2.03497 0
M  V30 2656 H 244.092 -7.73844 0.937311 0
M  V30 2657 N 248.321 -0.919034 -1.28029 0
M  V30 2658 C 249.561 -0.562107 -1.96519 0
M  V30 2659 C 249.925 0.878784 -1.70708 0
M  V30 2660 O 251.126 1.34355 -2.32813 0
M  V30 2661 C 249.397 -0.868953 -3.46676 0
M  V30 2662 S 250.956 -0.619237 -4.34409 0
M  V30 2663 H 247.774 -0.2078 -0.679956 0
M  V30 2664 H 250.376 -1.18562 -1.55446 0
M  V30 2665 H 249.08 -1.91547 -3.62957 0
M  V30 2666 H 248.611 -0.234301 -3.92702 0
M  V30 2667 H 250.626 0.526995 -4.93394 0
M  V30 2668 N 249.799 1.42003 -0.683588 0
M  V30 2669 C 251.024 2.06265 -0.216647 0
M  V30 2670 C 251.449 1.51059 1.12083 0
M  V30 2671 O 250.807 0.632638 1.69904 0
M  V30 2672 C 250.855 3.60191 -0.171759 0
M  V30 2673 O 249.959 4.03396 0.857069 0
M  V30 2674 H 249.3 0.65502 -0.108834 0
M  V30 2675 H 251.83 1.81982 -0.935077 0
M  V30 2676 H 251.84 4.08 0.0014303 0
M  V30 2677 H 250.515 3.99743 -1.14796 0
M  V30 2678 H 249.092 3.67117 0.654208 0
M  V30 2679 N 251.277 0.427512 1.51691 0
M  V30 2680 C 252.524 -0.142229 2.02 0
M  V30 2681 C 252.852 -1.43566 1.31221 0
M  V30 2682 O 252.107 -1.91298 0.412744 0
M  V30 2683 C 252.406 -0.418249 3.54944 0
M  V30 2684 C 252.072 0.788187 4.43958 0
M  V30 2685 C 250.734 1.11906 4.68007 0
M  V30 2686 C 253.086 1.59347 4.96244 0
M  V30 2687 C 250.414 2.25608 5.41588 0
M  V30 2688 C 252.766 2.7214 5.71072 0
M  V30 2689 C 251.43 3.05692 5.93387 0
M  V30 2690 H 250.7 -0.0520451 0.73917 0
M  V30 2691 H 253.347 0.572697 1.82736 0
M  V30 2692 H 251.652 -1.21496 3.72486 0
M  V30 2693 H 253.349 -0.872339 3.91397 0
M  V30 2694 H 249.939 0.520344 4.2543 0
M  V30 2695 H 254.123 1.35106 4.77556 0
M  V30 2696 H 249.379 2.51929 5.57083 0
M  V30 2697 H 253.553 3.34914 6.10578 0
M  V30 2698 H 251.18 3.9391 6.50184 0
M  V30 2699 N 252.755 -1.56801 0.158532 0
M  V30 2700 C 254.032 -1.88131 -0.535357 0
M  V30 2701 C 254.412 -1.06638 -1.82186 0
M  V30 2702 O 253.76 -0.156533 -2.27963 0
M  V30 2703 C 253.97 -3.39949 -0.789653 0
M  V30 2704 C 255.318 -4.09416 -1.12533 0
M  V30 2705 O 256.342 -3.45194 -0.878622 0
M  V30 2706 O 255.201 -5.22855 -1.59014 0
M  V30 2707 H 252.295 -0.780143 -0.27442 0
M  V30 2708 H 254.841 -1.68564 0.19601 0
M  V30 2709 H 253.613 -3.91115 0.120353 0
M  V30 2710 H 253.236 -3.65084 -1.57479 0
M  V30 2711 N 254.233 0.115231 -1.57178 0
M  V30 2712 C 255.479 0.82357 -1.85325 0
M  V30 2713 C 255.812 1.79349 -0.744814 0
M  V30 2714 O 255.087 1.92899 0.249024 0
M  V30 2715 C 255.37 1.57014 -3.24066 0
M  V30 2716 C 255.223 0.619565 -4.45513 0
M  V30 2717 C 256.542 2.52545 -3.60429 0
M  V30 2718 H 253.661 0.297948 -0.674089 0
M  V30 2719 H 256.303 0.0877138 -1.89797 0
M  V30 2720 H 254.453 2.19742 -3.20383 0
M  V30 2721 H 256.125 0.000837639 -4.613 0
M  V30 2722 H 254.368 -0.0686174 -4.33746 0
M  V30 2723 H 255.039 1.17866 -5.3927 0
M  V30 2724 H 257.515 1.9992 -3.64926 0
M  V30 2725 H 256.391 3.01811 -4.58477 0
M  V30 2726 H 256.652 3.35383 -2.88047 0
M  V30 2727 N 255.711 1.52812 0.385517 0
M  V30 2728 C 256.957 1.68275 1.13188 0
M  V30 2729 C 257.29 0.423179 1.89533 0
M  V30 2730 O 256.565 -0.579113 1.85679 0
M  V30 2731 C 256.848 2.92001 2.1073 0
M  V30 2732 C 256.701 4.28067 1.38125 0
M  V30 2733 C 258.02 3.11283 3.11113 0
M  V30 2734 H 255.139 0.612352 0.410115 0
M  V30 2735 H 257.781 1.85415 0.414869 0
M  V30 2736 H 255.931 2.77519 2.71874 0
M  V30 2737 H 257.603 4.54324 0.799187 0
M  V30 2738 H 255.846 4.28388 0.683092 0
M  V30 2739 H 256.517 5.10733 2.09417 0
M  V30 2740 H 258.993 3.2482 2.6006 0
M  V30 2741 H 257.869 3.99325 3.76605 0
M  V30 2742 H 258.13 2.25656 3.80173 0
M  V30 2743 N 257.189 -0.644168 1.43834 0
M  V30 2744 C 258.136 -1.75671 1.49694 0
M  V30 2745 C 259.106 -1.6246 0.345809 0
M  V30 2746 O 260.291 -1.82573 0.554234 0
M  V30 2747 C 257.431 -3.13867 1.43463 0
M  V30 2748 C 256.544 -3.38147 2.6885 0
M  V30 2749 C 255.679 -4.66241 2.54544 0
M  V30 2750 C 254.718 -4.83657 3.75157 0
M  V30 2751 N 253.855 -6.03016 3.59605 0
M  V30 2752 H 258.695 -1.69998 2.44754 0
M  V30 2753 H 256.232 -0.829458 1.21484 0
M  V30 2754 H 258.19 -3.9377 1.37843 0
M  V30 2755 H 256.82 -3.18588 0.519783 0
M  V30 2756 H 255.872 -2.52276 2.84712 0
M  V30 2757 H 257.184 -3.46899 3.58417 0
M  V30 2758 H 256.338 -5.54285 2.46683 0
M  V30 2759 H 255.077 -4.59826 1.62516 0
M  V30 2760 H 254.082 -3.94046 3.83416 0
M  V30 2761 H 255.307 -4.91896 4.68204 0
M  V30 2762 H 253.253 -5.97715 2.7032 0
M  V30 2763 H 253.17 -6.12766 4.42779 0
M  V30 2764 H 254.438 -6.93657 3.55613 0
M  V30 2765 N 258.668 -1.30515 -0.883378 0
M  V30 2766 C 260.084 -1.08881 -1.16692 0
M  V30 2767 C 260.284 0.149409 -2.00945 0
M  V30 2768 O 259.34 0.84257 -2.38027 0
M  V30 2769 C 260.653 -2.35319 -1.87204 0
M  V30 2770 C 262.201 -2.40799 -1.99962 0
M  V30 2771 C 262.676 -3.67083 -2.73887 0
M  V30 2772 N 264.167 -3.679 -2.81432 0
M  V30 2773 C 264.902 -4.62303 -3.3921 0
M  V30 2774 N 264.398 -5.67052 -3.98025 0
M  V30 2775 N 266.191 -4.49845 -3.3704 0
M  V30 2776 H 258.342 -2.09951 -0.321633 0
M  V30 2777 H 260.605 -0.92556 -0.205043 0
M  V30 2778 H 260.311 -3.25689 -1.3274 0
M  V30 2779 H 260.185 -2.44089 -2.87577 0
M  V30 2780 H 262.572 -1.50907 -2.53597 0
M  V30 2781 H 262.653 -2.36003 -0.98673 0
M  V30 2782 H 262.297 -4.57334 -2.20925 0
M  V30 2783 H 262.227 -3.69141 -3.75556 0
M  V30 2784 H 264.718 -2.92171 -2.39676 0
M  V30 2785 H 265.031 -6.35184 -4.40183 0
M  V30 2786 H 263.376 -5.70842 -3.96439 0
M  V30 2787 H 266.567 -3.67194 -2.90321 0
M  V30 2788 H 266.74 -5.23597 -3.81772 0
M  V30 2789 N 260.146 1.09593 -1.13257 0
M  V30 2790 C 261.392 1.82181 -0.904521 0
M  V30 2791 C 261.747 1.83967 0.563358 0
M  V30 2792 O 261.04 1.29566 1.41149 0
M  V30 2793 C 261.234 3.27802 -1.42411 0
M  V30 2794 C 261.063 3.40201 -2.94097 0
M  V30 2795 C 259.833 3.52104 -3.62424 0
M  V30 2796 C 262.031 3.32875 -3.92044 0
M  V30 2797 N 260.013 3.53169 -5.0214 0
M  V30 2798 C 261.384 3.40789 -5.17941 0
M  V30 2799 C 263.439 3.16531 -3.84334 0
M  V30 2800 C 262.142 3.34042 -6.37031 0
M  V30 2801 C 264.168 3.11109 -5.02956 0
M  V30 2802 C 263.53 3.19614 -6.27715 0
M  V30 2803 H 259.629 0.681015 -0.384373 0
M  V30 2804 H 262.213 1.3099 -1.44048 0
M  V30 2805 H 260.384 3.77466 -0.915086 0
M  V30 2806 H 262.116 3.88393 -1.13722 0
M  V30 2807 H 258.871 3.5548 -3.12939 0
M  V30 2808 H 259.295 3.57291 -5.75041 0
M  V30 2809 H 263.937 3.08827 -2.88766 0
M  V30 2810 H 261.655 3.4051 -7.32857 0
M  V30 2811 H 265.241 2.99601 -4.98729 0
M  V30 2812 H 264.121 3.15432 -7.17964 0
M  V30 2813 N 261.624 0.925811 1.2754 0
M  V30 2814 C 262.87 0.566092 1.94739 0
M  V30 2815 C 263.203 -0.890057 1.72603 0
M  V30 2816 O 262.478 -1.63467 1.05399 0
M  V30 2817 C 262.761 0.89054 3.48915 0
M  V30 2818 C 262.614 2.4003 3.80402 0
M  V30 2819 C 263.933 0.395101 4.38323 0
M  V30 2820 H 261.052 0.20714 0.707292 0
M  V30 2821 H 263.694 1.15725 1.50691 0
M  V30 2822 H 261.844 0.387452 3.86563 0
M  V30 2823 H 263.516 2.97494 3.52555 0
M  V30 2824 H 261.759 2.85028 3.2702 0
M  V30 2825 H 262.43 2.57785 4.8811 0
M  V30 2826 H 264.906 0.826241 4.07814 0
M  V30 2827 H 263.782 0.651086 5.45025 0
M  V30 2828 H 264.043 -0.704798 4.36446 0
M  V30 2829 N 263.102 -1.41638 0.69111 0
M  V30 2830 C 264.05 -2.32597 0.0115199 0
M  V30 2831 C 265.044 -1.5072 -0.773296 0
M  V30 2832 O 266.25 -1.66685 -0.67942 0
M  V30 2833 H 262.625 -0.751849 -0.0150746 0
M  V30 2834 H 264.596 -2.87593 0.795791 0
M  V30 2835 C 263.345 -3.35467 -0.914172 0
M  V30 2836 H 262.668 -3.9852 -0.319687 0
M  V30 2837 H 264.108 -4.01662 -1.35808 0
M  V30 2838 C 262.567 -2.69004 -2.02826 0
M  V30 2839 O 263.097 -2.53444 -3.11655 0
M  V30 2840 N 261.303 -2.2777 -1.80469 0
M  V30 2841 H 260.85 -2.40626 -0.919615 0
M  V30 2842 H 260.808 -1.83635 -2.55197 0
M  V30 2843 N 264.58 -0.43555 -1.51462 0
M  V30 2844 C 265.49 0.383001 -2.31453 0
M  V30 2845 C 266.506 1.02931 -1.4029 0
M  V30 2846 O 267.682 1.02507 -1.73362 0
M  V30 2847 C 264.747 1.47043 -3.13973 0
M  V30 2848 C 263.808 0.844433 -4.20913 0
M  V30 2849 C 263.041 1.88004 -4.9949 0
M  V30 2850 O 263.264 3.10199 -4.78678 0
M  V30 2851 O 262.198 1.47157 -5.83634 0
M  V30 2852 H 266.024 -0.269964 -3.02498 0
M  V30 2853 H 263.609 -0.19813 -1.4808 0
M  V30 2854 H 265.491 2.10113 -3.65281 0
M  V30 2855 H 264.166 2.10751 -2.45695 0
M  V30 2856 H 263.073 0.175729 -3.73687 0
M  V30 2857 H 264.406 0.250869 -4.9156 0
M  V30 2858 N 266.058 1.56714 -0.166846 0
M  V30 2859 C 267.021 2.16539 0.751232 0
M  V30 2860 C 268.021 1.11228 1.16125 0
M  V30 2861 O 269.211 1.36765 1.07894 0
M  V30 2862 C 266.343 2.74462 2.02196 0
M  V30 2863 H 267.536 2.99013 0.230499 0
M  V30 2864 H 265.089 1.56081 0.0826982 0
M  V30 2865 H 265.824 1.95709 2.58589 0
M  V30 2866 H 265.609 3.51527 1.73698 0
M  V30 2867 H 267.099 3.20489 2.67725 0
M  V30 2868 N 267.536 -0.106894 1.57237 0
M  V30 2869 C 268.468 -1.15646 1.97885 0
M  V30 2870 C 269.481 -1.36981 0.879779 0
M  V30 2871 O 270.67 -1.35841 1.15799 0
M  V30 2872 C 267.77 -2.51425 2.27241 0
M  V30 2873 C 266.943 -2.50529 3.58545 0
M  V30 2874 C 266.002 -3.68145 3.75973 0
M  V30 2875 O 265.028 -3.51176 4.47956 0
M  V30 2876 N 266.23 -4.87177 3.15656 0
M  V30 2877 H 268.995 -0.81059 2.8853 0
M  V30 2878 H 266.556 -0.296024 1.59171 0
M  V30 2879 H 268.548 -3.28689 2.36105 0
M  V30 2880 H 267.118 -2.78147 1.42663 0
M  V30 2881 H 266.338 -1.58894 3.60758 0
M  V30 2882 H 267.626 -2.46997 4.44826 0
M  V30 2883 H 267.024 -5.03868 2.57165 0
M  V30 2884 H 265.581 -5.62075 3.30023 0
M  V30 2885 N 269.014 -1.53014 -0.377408 0
M  V30 2886 C 269.924 -1.81557 -1.48574 0
M  V30 2887 C 270.94 -0.703102 -1.59162 0
M  V30 2888 O 272.116 -0.99192 -1.75279 0
M  V30 2889 C 269.181 -1.9889 -2.83978 0
M  V30 2890 C 268.242 -3.22801 -2.83016 0
M  V30 2891 C 267.475 -3.39298 -4.11962 0
M  V30 2892 O 267.698 -2.60345 -5.0752 0
M  V30 2893 O 266.632 -4.32604 -4.18494 0
M  V30 2894 H 270.458 -2.75695 -1.27382 0
M  V30 2895 H 268.043 -1.38248 -0.566373 0
M  V30 2896 H 269.925 -2.11931 -3.6423 0
M  V30 2897 H 268.6 -1.07942 -3.05172 0
M  V30 2898 H 267.507 -3.15193 -2.01505 0
M  V30 2899 H 268.84 -4.13632 -2.66775 0
M  V30 2900 N 270.492 0.636531 -1.44174 0
M  V30 2901 C 271.455 1.73063 -1.50273 0
M  V30 2902 C 272.455 1.56113 -0.385397 0
M  V30 2903 O 273.645 1.61707 -0.64781 0
M  V30 2904 C 270.777 3.12096 -1.37145 0
M  V30 2905 H 271.97 1.69031 -2.47727 0
M  V30 2906 H 269.523 0.849706 -1.31186 0
M  V30 2907 H 270.258 3.21728 -0.407636 0
M  V30 2908 H 270.043 3.25805 -2.18159 0
M  V30 2909 H 271.533 3.91846 -1.44382 0
M  V30 2910 N 271.97 1.30982 0.876444 0
M  V30 2911 C 272.933 1.18054 1.96459 0
M  V30 2912 C 273.933 0.109399 1.60427 0
M  V30 2913 O 275.123 0.358173 1.70478 0
M  V30 2914 C 272.255 0.810616 3.31122 0
M  V30 2915 H 273.448 2.14735 2.09354 0
M  V30 2916 H 271.001 1.145 1.06392 0
M  V30 2917 H 271.736 -0.155322 3.23928 0
M  V30 2918 H 271.521 1.58481 3.58645 0
M  V30 2919 H 273.011 0.743876 4.10921 0
M  V30 2920 N 273.449 -1.08991 1.13837 0
M  V30 2921 C 274.674 -1.85551 0.926585 0
M  V30 2922 C 275.099 -1.80782 -0.519566 0
M  V30 2923 O 274.457 -1.18855 -1.36906 0
M  V30 2924 C 274.505 -3.31266 1.42462 0
M  V30 2925 O 273.609 -4.07822 0.612789 0
M  V30 2926 H 272.95 -0.575192 0.331738 0
M  V30 2927 H 275.48 -1.37604 1.51414 0
M  V30 2928 H 275.49 -3.82112 1.43019 0
M  V30 2929 H 274.165 -3.34052 2.47754 0
M  V30 2930 H 272.742 -3.66731 0.675463 0
M  V30 2931 N 274.927 -0.932562 -1.27047 0
M  V30 2932 C 276.152 -0.591474 -1.98787 0
M  V30 2933 C 276.577 0.824601 -1.69062 0
M  V30 2934 O 275.935 1.5541 -0.933677 0
M  V30 2935 C 275.983 -0.829808 -3.50922 0
M  V30 2936 O 275.087 0.102266 -4.12273 0
M  V30 2937 H 274.428 -0.227185 -0.623926 0
M  V30 2938 H 276.958 -1.25314 -1.61733 0
M  V30 2939 H 276.968 -0.747292 -4.01098 0
M  V30 2940 H 275.643 -1.86201 -3.7189 0
M  V30 2941 H 274.22 -0.0305761 -3.72887 0
M  V30 2942 N 276.405 1.4127 -0.698611 0
M  V30 2943 C 277.682 1.94955 -0.158762 0
M  V30 2944 C 278.062 1.63781 1.33188 0
M  V30 2945 O 277.41 0.946423 2.07979 0
M  V30 2946 C 277.62 3.46044 -0.453309 0
M  V30 2947 C 278.968 4.22872 -0.382707 0
M  V30 2948 O 279.992 3.54076 -0.388396 0
M  V30 2949 O 278.851 5.45407 -0.345463 0
M  V30 2950 H 275.945 0.82683 -0.0167505 0
M  V30 2951 H 278.491 1.50971 -0.77498 0
M  V30 2952 H 277.263 3.62028 -1.48498 0
M  V30 2953 H 276.886 3.97128 0.19373 0
M  V30 2954 N 277.883 0.443576 1.51229 0
M  V30 2955 C 278.831 -0.37904 2.29491 0
M  V30 2956 C 279.825 -1.0153 1.35603 0
M  V30 2957 O 281.031 -0.94955 1.52917 0
M  V30 2958 H 277.406 -0.141053 0.738653 0
M  V30 2959 H 279.377 0.301799 2.9687 0
M  V30 2960 C 278.126 -1.46426 3.15364 0
M  V30 2961 H 277.449 -0.984037 3.87501 0
M  V30 2962 H 278.889 -2.01297 3.7317 0
M  V30 2963 C 277.348 -2.45099 2.31146 0
M  V30 2964 O 277.878 -3.49773 1.9754 0
M  V30 2965 N 276.084 -2.16139 1.94249 0
M  V30 2966 H 275.631 -1.31044 2.21777 0
M  V30 2967 H 275.589 -2.82398 1.38198 0
M  V30 2968 N 279.361 -1.56624 0.175154 0
M  V30 2969 C 280.61 -1.96173 -0.468921 0
M  V30 2970 C 280.923 -1.06401 -1.64128 0
M  V30 2971 O 282.129 -1.35648 -2.35185 0
M  V30 2972 C 280.585 -3.48833 -0.885633 0
M  V30 2973 C 280.193 -4.47237 0.261343 0
M  V30 2974 C 281.937 -3.97194 -1.49791 0
M  V30 2975 C 279.844 -5.9114 -0.175214 0
M  V30 2976 H 278.774 -0.732455 -0.178958 0
M  V30 2977 H 281.425 -1.81591 0.263997 0
M  V30 2978 H 279.807 -3.58848 -1.67464 0
M  V30 2979 H 280.981 -4.4894 1.03871 0
M  V30 2980 H 279.296 -4.08956 0.783827 0
M  V30 2981 H 281.893 -5.02167 -1.83665 0
M  V30 2982 H 282.236 -3.40351 -2.39722 0
M  V30 2983 H 282.769 -3.90212 -0.773267 0
M  V30 2984 H 279.508 -6.51865 0.689414 0
M  V30 2985 H 279.028 -5.92735 -0.91786 0
M  V30 2986 H 280.707 -6.44044 -0.617792 0
M  V30 2987 N 280.839 0.0985539 -1.57292 0
M  V30 2988 C 281.772 1.15082 -1.97057 0
M  V30 2989 C 282.75 1.39025 -0.843255 0
M  V30 2990 O 283.934 1.52842 -1.10325 0
M  V30 2991 C 281.061 2.50069 -2.28437 0
M  V30 2992 C 280.107 2.42428 -3.509 0
M  V30 2993 S 280.94 1.84414 -5.02744 0
M  V30 2994 C 282.096 3.21032 -5.37298 0
M  V30 2995 H 282.329 0.811815 -2.86002 0
M  V30 2996 H 279.862 0.306102 -1.51335 0
M  V30 2997 H 281.82 3.27729 -2.47192 0
M  V30 2998 H 280.481 2.8114 -1.40069 0
M  V30 2999 H 279.674 3.41911 -3.70288 0
M  V30 3000 H 279.276 1.72896 -3.31637 0
M  V30 3001 H 281.568 4.17297 -5.33731 0
M  V30 3002 H 282.511 3.06452 -6.38352 0
M  V30 3003 H 282.919 3.20404 -4.64759 0
M  V30 3004 N 282.317 1.53212 0.369288 0
M  V30 3005 C 283.563 1.69466 1.11397 0
M  V30 3006 C 283.896 0.443257 1.89074 0
M  V30 3007 O 283.171 -0.559386 1.86282 0
M  V30 3008 C 283.454 2.9422 2.07621 0
M  V30 3009 C 283.307 4.29508 1.33577 0
M  V30 3010 C 284.626 3.14565 3.07794 0
M  V30 3011 H 281.745 0.616667 0.403597 0
M  V30 3012 H 284.387 1.85845 0.395179 0
M  V30 3013 H 282.537 2.80387 2.68916 0
M  V30 3014 H 284.209 4.55147 0.750955 0
M  V30 3015 H 282.452 4.29088 0.637618 0
M  V30 3016 H 283.123 5.12926 2.03989 0
M  V30 3017 H 285.599 3.2756 2.56601 0
M  V30 3018 H 284.475 4.03297 3.72348 0
M  V30 3019 H 284.736 2.29675 3.77759 0
M  V30 3020 N 283.795 -0.628877 1.44509 0
M  V30 3021 C 284.727 -1.754 1.47538 0
M  V30 3022 C 285.74 -1.58575 0.368506 0
M  V30 3023 O 286.929 -1.66847 0.634376 0
M  V30 3024 C 284.029 -3.1315 1.29577 0
M  V30 3025 C 283.202 -3.56413 2.53551 0
M  V30 3026 C 282.261 -4.7305 2.30457 0
M  V30 3027 O 281.287 -4.81247 3.03957 0
M  V30 3028 N 282.489 -5.64903 1.3366 0
M  V30 3029 H 285.254 -1.73272 2.44534 0
M  V30 3030 H 282.815 -0.813512 1.39977 0
M  V30 3031 H 284.807 -3.88902 1.11971 0
M  V30 3032 H 283.377 -3.09908 0.409371 0
M  V30 3033 H 282.597 -2.70847 2.86419 0
M  V30 3034 H 283.885 -3.82071 3.36005 0
M  V30 3035 H 283.283 -5.60975 0.729604 0
M  V30 3036 H 281.84 -6.40275 1.22032 0
M  V30 3037 N 285.273 -1.31445 -0.869486 0
M  V30 3038 C 286.503 -1.23942 -1.65294 0
M  V30 3039 C 286.911 0.197561 -1.88166 0
M  V30 3040 O 286.254 1.14019 -1.44033 0
M  V30 3041 C 286.316 -1.91385 -3.04322 0
M  V30 3042 C 285.98 -3.40726 -3.04557 0
M  V30 3043 C 286.977 -4.36464 -2.82481 0
M  V30 3044 C 284.662 -3.82425 -3.25663 0
M  V30 3045 C 286.656 -5.71876 -2.8149 0
M  V30 3046 C 284.343 -5.1795 -3.243 0
M  V30 3047 C 285.341 -6.12486 -3.02241 0
M  V30 3048 O 285.029 -7.45534 -3.00724 0
M  V30 3049 H 284.761 -0.429459 -0.522054 0
M  V30 3050 H 287.315 -1.73873 -1.0935 0
M  V30 3051 H 285.545 -1.36004 -3.61994 0
M  V30 3052 H 287.234 -1.77791 -3.64891 0
M  V30 3053 H 288 -4.05576 -2.65956 0
M  V30 3054 H 283.879 -3.09274 -3.41863 0
M  V30 3055 H 287.423 -6.45638 -2.64191 0
M  V30 3056 H 283.32 -5.48473 -3.40365 0
M  V30 3057 H 284.088 -7.54713 -3.16782 0
M  V30 3058 N 286.751 1.08385 -1.14413 0
M  V30 3059 C 287.701 2.13509 -0.79987 0
M  V30 3060 C 288.685 1.5951 0.211059 0
M  V30 3061 O 289.877 1.76995 0.0133694 0
M  V30 3062 C 287.006 3.42162 -0.279297 0
M  V30 3063 C 286.092 4.03042 -1.31976 0
M  V30 3064 N 286.483 4.38327 -2.52395 0
M  V30 3065 C 284.781 4.30379 -1.17004 0
M  V30 3066 C 285.482 4.86428 -3.19003 0
M  V30 3067 N 284.458 4.84547 -2.46405 0
M  V30 3068 H 288.26 2.38609 -1.7159 0
M  V30 3069 H 285.774 1.2572 -1.02802 0
M  V30 3070 H 287.771 4.16898 -0.0143688 0
M  V30 3071 H 286.431 3.18511 0.630923 0
M  V30 3072 H 287.442 4.29349 -2.89621 0
M  V30 3073 H 284.119 4.16281 -0.318854 0
M  V30 3074 H 285.509 5.23107 -4.21674 0
M  V30 3075 N 288.23 0.939286 1.26551 0
M  V30 3076 C 289.193 0.451987 2.24699 0
M  V30 3077 C 290.193 -0.435869 1.5478 0
M  V30 3078 O 291.383 -0.235314 1.72603 0
M  V30 3079 C 288.515 -0.348801 3.39111 0
M  V30 3080 H 289.708 1.3193 2.69322 0
M  V30 3081 H 287.261 0.721072 1.38673 0
M  V30 3082 H 287.996 -1.23444 2.99887 0
M  V30 3083 H 287.781 0.287945 3.91041 0
M  V30 3084 H 289.271 -0.679726 4.12031 0
M  V30 3085 N 289.708 -1.40897 0.706093 0
M  V30 3086 C 290.638 -2.33418 0.0620085 0
M  V30 3087 C 291.619 -1.52385 -0.755827 0
M  V30 3088 O 292.804 -1.80886 -0.706674 0
M  V30 3089 C 289.934 -3.36293 -0.867445 0
M  V30 3090 C 288.888 -4.27716 -0.155932 0
M  V30 3091 C 288.214 -5.2105 -1.20046 0
M  V30 3092 C 289.514 -5.12944 0.984149 0
M  V30 3093 H 291.208 -2.87527 0.83477 0
M  V30 3094 H 288.754 -1.38249 0.402875 0
M  V30 3095 H 290.707 -3.99949 -1.32735 0
M  V30 3096 H 289.431 -2.80556 -1.67199 0
M  V30 3097 H 288.09 -3.65498 0.284047 0
M  V30 3098 H 287.738 -4.61624 -1.99781 0
M  V30 3099 H 287.438 -5.83056 -0.729328 0
M  V30 3100 H 288.962 -5.87584 -1.66066 0
M  V30 3101 H 290.376 -5.70109 0.604048 0
M  V30 3102 H 288.773 -5.83945 1.38304 0
M  V30 3103 H 289.843 -4.49485 1.81911 0
M  V30 3104 N 291.186 -0.45159 -1.50991 0
M  V30 3105 C 292.434 0.109857 -2.01801 0
M  V30 3106 C 292.755 1.41958 -1.3369 0
M  V30 3107 O 292.025 1.9003 -0.475951 0
M  V30 3108 H 290.605 0.0435884 -0.745727 0
M  V30 3109 H 293.267 -0.597557 -1.85514 0
M  V30 3110 H 292.363 0.275489 -3.10882 0
M  V30 3111 N 292.664 1.56529 -0.183458 0
M  V30 3112 C 293.594 2.21549 0.737456 0
M  V30 3113 C 294.575 1.17489 1.23005 0
M  V30 3114 O 295.76 1.45959 1.281 0
M  V30 3115 C 292.89 2.86575 1.96194 0
M  V30 3116 C 291.844 3.96778 1.60473 0
M  V30 3117 C 291.17 4.48911 2.90487 0
M  V30 3118 C 292.47 5.15767 0.823497 0
M  V30 3119 H 294.164 2.98761 0.195453 0
M  V30 3120 H 291.71 1.43702 0.0925686 0
M  V30 3121 H 293.663 3.30739 2.61131 0
M  V30 3122 H 292.387 2.06749 2.52828 0
M  V30 3123 H 291.046 3.53286 0.978997 0
M  V30 3124 H 290.694 3.65862 3.45186 0
M  V30 3125 H 290.394 5.23265 2.67335 0
M  V30 3126 H 291.918 4.95771 3.56432 0
M  V30 3127 H 293.332 5.56549 1.37571 0
M  V30 3128 H 291.729 5.96114 0.690551 0
M  V30 3129 H 292.799 4.84574 -0.177782 0
M  V30 3130 N 294.142 -0.090211 1.57342 0
M  V30 3131 C 295.072 -1.10976 2.05443 0
M  V30 3132 C 296.053 -1.41482 0.944284 0
M  V30 3133 O 297.238 -1.51428 1.21586 0
M  V30 3134 C 294.368 -2.42831 2.48295 0
M  V30 3135 C 293.322 -2.26721 3.63018 0
M  V30 3136 C 292.648 -3.63796 3.91863 0
M  V30 3137 C 293.948 -1.7037 4.93732 0
M  V30 3138 H 295.642 -0.709564 2.9087 0
M  V30 3139 H 293.188 -0.339874 1.39932 0
M  V30 3140 H 295.141 -3.14431 2.80555 0
M  V30 3141 H 293.865 -2.84795 1.59873 0
M  V30 3142 H 292.524 -1.57565 3.31012 0
M  V30 3143 H 292.172 -4.03297 3.00601 0
M  V30 3144 H 291.872 -3.53861 4.69101 0
M  V30 3145 H 293.396 -4.36855 4.26603 0
M  V30 3146 H 294.81 -2.31816 5.24342 0
M  V30 3147 H 293.207 -1.71181 5.75167 0
M  V30 3148 H 294.277 -0.663542 4.80339 0
M  V30 3149 N 295.62 -1.53406 -0.361157 0
M  V30 3150 C 296.85 -1.73465 -1.1222 0
M  V30 3151 C 297.258 -0.465486 -1.83384 0
M  V30 3152 O 296.601 0.571611 -1.7458 0
M  V30 3153 C 296.663 -2.84834 -2.19339 0
M  V30 3154 C 296.327 -4.25038 -1.67903 0
M  V30 3155 C 297.324 -5.07231 -1.14074 0
M  V30 3156 C 295.009 -4.71464 -1.73282 0
M  V30 3157 C 297.003 -6.33942 -0.663068 0
M  V30 3158 C 294.69 -5.98153 -1.25127 0
M  V30 3159 C 295.688 -6.79223 -0.717296 0
M  V30 3160 O 295.376 -8.03533 -0.242865 0
M  V30 3161 H 295.108 -0.583526 -0.341283 0
M  V30 3162 H 297.662 -2.00964 -0.424591 0
M  V30 3163 H 295.892 -2.5282 -2.92607 0
M  V30 3164 H 297.581 -2.9303 -2.80871 0
M  V30 3165 H 298.347 -4.72534 -1.09254 0
M  V30 3166 H 294.226 -4.08432 -2.13786 0
M  V30 3167 H 297.77 -6.97167 -0.245612 0
M  V30 3168 H 293.667 -6.32347 -1.29642 0
M  V30 3169 H 294.435 -8.177 -0.361786 0
M  V30 3170 N 297.098 0.621204 -1.44841 0
M  V30 3171 C 298.048 1.72663 -1.48901 0
M  V30 3172 C 299.032 1.56964 -0.353702 0
M  V30 3173 O 300.224 1.66532 -0.599669 0
M  V30 3174 C 297.353 3.11381 -1.44557 0
M  V30 3175 C 296.439 3.32514 -2.6324 0
M  V30 3176 N 296.83 3.23969 -3.8843 0
M  V30 3177 C 295.128 3.63343 -2.58647 0
M  V30 3178 C 295.829 3.46062 -4.67564 0
M  V30 3179 N 294.805 3.69407 -3.98797 0
M  V30 3180 H 298.607 1.64529 -2.43531 0
M  V30 3181 H 296.121 0.82401 -1.39942 0
M  V30 3182 H 298.118 3.90667 -1.4555 0
M  V30 3183 H 296.778 3.20674 -0.509731 0
M  V30 3184 H 297.789 3.02669 -4.20252 0
M  V30 3185 H 294.466 3.79556 -1.73906 0
M  V30 3186 H 295.856 3.44963 -5.76585 0
M  V30 3187 N 298.576 1.31904 0.862503 0
M  V30 3188 C 299.822 1.22197 1.61851 0
M  V30 3189 C 300.155 -0.217641 1.92977 0
M  V30 3190 O 299.43 -1.15264 1.56666 0
M  V30 3191 C 299.713 2.07378 2.94391 0
M  V30 3192 C 299.566 3.59678 2.70096 0
M  V30 3193 C 300.885 1.92891 3.95577 0
M  V30 3194 H 298.004 0.445255 0.587296 0
M  V30 3195 H 300.646 1.6177 0.99651 0
M  V30 3196 H 298.796 1.73758 3.47477 0
M  V30 3197 H 300.468 4.03472 2.23625 0
M  V30 3198 H 298.711 3.82735 2.04197 0
M  V30 3199 H 299.382 4.14595 3.64438 0
M  V30 3200 H 301.858 2.22327 3.51724 0
M  V30 3201 H 300.734 2.54781 4.86187 0
M  V30 3202 H 300.995 0.894315 4.3296 0
M  V30 3203 N 300.054 -1.07777 1.14986 0
M  V30 3204 C 301.47 -1.32373 0.891596 0
M  V30 3205 C 301.67 -1.9609 -0.463788 0
M  V30 3206 O 300.726 -2.21801 -1.20667 0
M  V30 3207 C 302.039 -2.21905 2.02925 0
M  V30 3208 C 303.587 -2.35367 2.06329 0
M  V30 3209 C 304.062 -3.28245 3.19405 0
M  V30 3210 N 305.553 -3.35824 3.19024 0
M  V30 3211 C 306.288 -4.07739 4.03158 0
M  V30 3212 N 305.784 -4.82306 4.97346 0
M  V30 3213 N 307.577 -4.03635 3.91197 0
M  V30 3214 H 299.728 -0.648039 2.02273 0
M  V30 3215 H 301.991 -0.348149 0.881757 0
M  V30 3216 H 301.697 -1.82342 3.0074 0
M  V30 3217 H 301.571 -3.22407 1.95789 0
M  V30 3218 H 303.958 -2.74186 1.09116 0
M  V30 3219 H 304.039 -1.34585 2.17533 0
M  V30 3220 H 303.683 -2.90146 4.16867 0
M  V30 3221 H 303.613 -4.28971 3.05437 0
M  V30 3222 H 306.104 -2.8267 2.50811 0
M  V30 3223 H 306.417 -5.34661 5.57994 0
M  V30 3224 H 304.762 -4.81337 5.01338 0
M  V30 3225 H 307.953 -3.44491 3.16928 0
M  V30 3226 H 308.126 -4.59417 4.5699 0
M  V30 3227 N 301.532 -0.945985 -1.26051 0
M  V30 3228 C 302.479 -0.45809 -2.26208 0
M  V30 3229 C 303.449 0.484816 -1.58867 0
M  V30 3230 O 304.634 0.399969 -1.86561 0
M  V30 3231 C 301.774 0.266131 -3.44072 0
M  V30 3232 C 300.887 -0.713005 -4.26075 0
M  V30 3233 C 300.022 0.0329013 -5.3119 0
M  V30 3234 C 299.061 -0.93774 -6.04874 0
M  V30 3235 N 298.198 -0.223274 -7.01745 0
M  V30 3236 H 303.038 -1.3171 -2.67313 0
M  V30 3237 H 300.575 -0.66069 -1.31428 0
M  V30 3238 H 302.533 0.702514 -4.11243 0
M  V30 3239 H 301.163 1.08925 -3.03867 0
M  V30 3240 H 300.215 -1.26789 -3.58648 0
M  V30 3241 H 301.527 -1.45406 -4.77136 0
M  V30 3242 H 300.681 0.528335 -6.04395 0
M  V30 3243 H 299.42 0.806801 -4.8098 0
M  V30 3244 H 298.425 -1.44425 -5.30492 0
M  V30 3245 H 299.65 -1.71172 -6.57173 0
M  V30 3246 H 297.596 0.532046 -6.53839 0
M  V30 3247 H 297.513 -0.90357 -7.50581 0
M  V30 3248 H 298.781 0.250907 -7.79096 0
M  V30 3249 N 303.011 1.40521 -0.713556 0
M  V30 3250 C 303.959 2.32549 -0.0485227 0
M  V30 3251 C 304.953 1.51931 0.74922 0
M  V30 3252 O 306.159 1.67745 0.652816 0
M  V30 3253 H 302.534 0.751994 0.00311138 0
M  V30 3254 H 304.505 2.86291 -0.841443 0
M  V30 3255 C 303.254 3.36879 0.860687 0
M  V30 3256 H 302.577 3.98978 0.256246 0
M  V30 3257 H 304.017 4.03772 1.294 0
M  V30 3258 C 302.476 2.72197 1.9852 0
M  V30 3259 O 303.006 2.5837 3.07584 0
M  V30 3260 N 301.212 2.30612 1.76823 0
M  V30 3261 H 300.759 2.42059 0.881217 0
M  V30 3262 H 300.717 1.87672 2.52243 0
M  V30 3263 N 304.489 0.459591 1.5075 0
M  V30 3264 C 305.766 -0.160371 1.94941 0
M  V30 3265 C 306.146 -1.58048 1.39943 0
M  V30 3266 O 305.494 -2.206 0.595629 0
M  V30 3267 C 305.704 -0.115432 3.48809 0
M  V30 3268 C 307.052 -0.310026 4.23467 0
M  V30 3269 O 308.076 -0.192543 3.55679 0
M  V30 3270 O 306.935 -0.546031 5.43765 0
M  V30 3271 H 304.029 -0.117925 0.818549 0
M  V30 3272 H 306.575 0.519169 1.61563 0
M  V30 3273 H 305.347 0.87652 3.81357 0
M  V30 3274 H 304.97 -0.836928 3.88692 0
M  V30 3275 N 305.967 -1.56429 0.191757 0
M  V30 3276 C 307.383 -1.58754 -0.164137 0
M  V30 3277 C 307.583 -1.20782 -1.61288 0
M  V30 3278 O 306.639 -0.928999 -2.34789 0
M  V30 3279 C 307.952 -3.00396 0.135195 0
M  V30 3280 C 309.5 -3.1291 0.0750351 0
M  V30 3281 C 309.975 -4.56679 0.347632 0
M  V30 3282 N 311.466 -4.62252 0.296131 0
M  V30 3283 C 312.201 -5.71379 0.480948 0
M  V30 3284 N 311.697 -6.88986 0.725933 0
M  V30 3285 N 313.49 -5.60563 0.415435 0
M  V30 3286 H 305.641 -1.79393 1.13718 0
M  V30 3287 H 307.904 -0.832414 0.453643 0
M  V30 3288 H 307.61 -3.32726 1.13958 0
M  V30 3289 H 307.484 -3.72963 -0.563773 0
M  V30 3290 H 309.871 -2.80394 -0.919948 0
M  V30 3291 H 309.952 -2.42736 0.807029 0
M  V30 3292 H 309.596 -4.89907 1.33992 0
M  V30 3293 H 309.526 -5.25039 -0.405212 0
M  V30 3294 H 312.017 -3.7773 0.113259 0
M  V30 3295 H 312.33 -7.68046 0.855857 0
M  V30 3296 H 310.675 -6.90801 0.762788 0
M  V30 3297 H 313.866 -4.67561 0.224486 0
M  V30 3298 H 314.039 -6.45551 0.562889 0
M  V30 3299 N 307.445 0.0818655 -1.57387 0
M  V30 3300 C 308.375 1.09885 -2.06028 0
M  V30 3301 C 309.356 1.4098 -0.951774 0
M  V30 3302 O 310.541 1.50781 -1.22387 0
M  V30 3303 C 307.671 2.4151 -2.4958 0
M  V30 3304 C 306.625 2.24792 -3.64215 0
M  V30 3305 C 305.951 3.61712 -3.93787 0
M  V30 3306 C 307.251 1.67749 -4.94629 0
M  V30 3307 H 308.945 0.694128 -2.91243 0
M  V30 3308 H 306.491 0.332448 -1.4011 0
M  V30 3309 H 308.444 3.12939 -2.82219 0
M  V30 3310 H 307.168 2.83943 -1.61381 0
M  V30 3311 H 305.827 1.55807 -3.31843 0
M  V30 3312 H 305.475 4.01697 -3.02735 0
M  V30 3313 H 305.175 3.51368 -4.70971 0
M  V30 3314 H 306.699 4.34587 -4.28913 0
M  V30 3315 H 308.113 2.29032 -5.25564 0
M  V30 3316 H 306.51 1.68128 -5.76067 0
M  V30 3317 H 307.58 0.638059 -4.80684 0
M  V30 3318 N 308.923 1.53595 0.353017 0
M  V30 3319 C 309.886 1.80232 1.41594 0
M  V30 3320 C 310.886 0.673081 1.46035 0
M  V30 3321 O 312.076 0.941335 1.46576 0
M  V30 3322 C 309.208 1.93578 2.80607 0
M  V30 3323 H 310.401 2.75174 1.19244 0
M  V30 3324 H 307.954 1.44864 0.586872 0
M  V30 3325 H 308.689 1.00746 3.08254 0
M  V30 3326 H 308.474 2.75724 2.78781 0
M  V30 3327 H 309.964 2.15735 3.57558 0
M  V30 3328 N 310.401 -0.613514 1.45168 0
M  V30 3329 C 311.647 -1.37471 1.49096 0
M  V30 3330 C 311.98 -1.93765 0.129901 0
M  V30 3331 O 311.255 -1.74707 -0.854858 0
M  V30 3332 C 311.538 -2.52701 2.56542 0
M  V30 3333 C 311.391 -2.01643 4.0207 0
M  V30 3334 C 312.71 -3.54849 2.60327 0
M  V30 3335 H 309.829 -0.498502 0.54283 0
M  V30 3336 H 312.471 -0.692125 1.76945 0
M  V30 3337 H 310.621 -3.10931 2.32926 0
M  V30 3338 H 312.293 -1.48108 4.36877 0
M  V30 3339 H 310.536 -1.32688 4.13009 0
M  V30 3340 H 311.207 -2.84681 4.72928 0
M  V30 3341 H 313.683 -3.0645 2.81474 0
M  V30 3342 H 312.559 -4.32973 3.37381 0
M  V30 3343 H 312.82 -4.10079 1.6519 0
M  V30 3344 N 311.879 -1.3236 -0.855495 0
M  V30 3345 C 312.827 -1.2118 -1.9854 0
M  V30 3346 C 313.821 -0.116788 -1.68997 0
M  V30 3347 O 315.027 -0.279657 -1.77814 0
M  V30 3348 H 311.402 -0.375608 -0.651477 0
M  V30 3349 H 313.373 -2.16743 -2.05098 0
M  V30 3350 C 312.122 -0.950849 -3.34446 0
M  V30 3351 H 311.445 -1.78563 -3.57708 0
M  V30 3352 H 312.885 -0.912863 -4.14057 0
M  V30 3353 C 311.344 0.346404 -3.35114 0
M  V30 3354 O 311.874 1.35855 -3.7803 0
M  V30 3355 N 310.08 0.36808 -2.88259 0
M  V30 3356 H 309.627 -0.456102 -2.5353 0
M  V30 3357 H 309.585 1.23591 -2.89089 0
M  V30 3358 N 313.357 1.07166 -1.15556 0
M  V30 3359 C 314.304 2.14417 -0.854055 0
M  V30 3360 C 315.274 1.64965 0.193806 0
M  V30 3361 O 316.459 1.90703 0.0609443 0
M  V30 3362 C 313.599 3.43304 -0.351574 0
M  V30 3363 C 312.712 4.06537 -1.46123 0
M  V30 3364 C 311.847 5.23266 -0.914677 0
M  V30 3365 C 310.886 5.78464 -2.00114 0
M  V30 3366 N 310.023 6.86521 -1.47083 0
M  V30 3367 H 314.863 2.39548 -1.77259 0
M  V30 3368 H 312.4 1.17543 -0.884425 0
M  V30 3369 H 314.358 4.17179 -0.0419409 0
M  V30 3370 H 312.988 3.18419 0.530037 0
M  V30 3371 H 312.04 3.30297 -1.88701 0
M  V30 3372 H 313.352 4.43567 -2.28144 0
M  V30 3373 H 312.506 6.04131 -0.557698 0
M  V30 3374 H 311.245 4.87658 -0.0636583 0
M  V30 3375 H 310.25 4.96243 -2.36692 0
M  V30 3376 H 311.475 6.16126 -2.85597 0
M  V30 3377 H 309.421 6.52849 -0.642198 0
M  V30 3378 H 309.338 7.22446 -2.22729 0
M  V30 3379 H 310.606 7.71087 -1.14215 0
M  V30 3380 N 314.835 0.952656 1.25548 0
M  V30 3381 C 315.768 0.415525 2.24385 0
M  V30 3382 C 316.746 -0.502046 1.54655 0
M  V30 3383 O 317.93 -0.436875 1.83368 0
M  V30 3384 C 315.057 -0.401734 3.36309 0
M  V30 3385 C 314.103 0.455949 4.24056 0
M  V30 3386 S 314.936 1.88698 5.01152 0
M  V30 3387 C 316.092 1.07809 6.16545 0
M  V30 3388 H 316.325 1.25315 2.69599 0
M  V30 3389 H 313.858 0.756587 1.34592 0
M  V30 3390 H 315.816 -0.867329 4.01233 0
M  V30 3391 H 314.477 -1.21416 2.89684 0
M  V30 3392 H 313.67 -0.170776 5.03711 0
M  V30 3393 H 313.272 0.856675 3.64056 0
M  V30 3394 H 315.564 0.325816 6.76716 0
M  V30 3395 H 316.507 1.84849 6.83547 0
M  V30 3396 H 316.915 0.60909 5.61204 0
M  V30 3397 N 316.313 -1.40141 0.720998 0
M  V30 3398 C 317.562 -2.0002 0.259804 0
M  V30 3399 C 317.875 -1.57839 -1.15526 0
M  V30 3400 O 319.081 -2.10455 -1.71525 0
M  V30 3401 C 317.537 -3.57516 0.413566 0
M  V30 3402 C 317.145 -4.08667 1.83562 0
M  V30 3403 C 318.889 -4.24498 0.0134387 0
M  V30 3404 C 316.796 -5.58686 1.93968 0
M  V30 3405 H 315.726 -0.748195 0.0933806 0
M  V30 3406 H 318.377 -1.60313 0.892866 0
M  V30 3407 H 316.759 -3.9495 -0.288169 0
M  V30 3408 H 317.933 -3.82598 2.56817 0
M  V30 3409 H 316.248 -3.543 2.1877 0
M  V30 3410 H 318.845 -5.34654 0.0703954 0
M  V30 3411 H 319.188 -4.03375 -1.02927 0
M  V30 3412 H 319.721 -3.92188 0.665815 0
M  V30 3413 H 316.46 -5.8467 2.96379 0
M  V30 3414 H 315.98 -5.86602 1.25131 0
M  V30 3415 H 317.659 -6.23875 1.71431 0
M  V30 3416 N 317.792 -0.46758 -1.50504 0
M  V30 3417 C 319.017 0.0886943 -2.0721 0
M  V30 3418 C 319.442 1.33057 -1.32956 0
M  V30 3419 O 318.8 1.77354 -0.376197 0
M  V30 3420 C 318.848 0.359202 -3.58806 0
M  V30 3421 O 317.952 1.44034 -3.8643 0
M  V30 3422 H 317.293 -0.0114349 -0.663902 0
M  V30 3423 H 319.823 -0.657613 -1.93744 0
M  V30 3424 H 319.833 0.600742 -4.03553 0
M  V30 3425 H 318.508 -0.548311 -4.1227 0
M  V30 3426 H 317.085 1.18638 -3.53524 0
M  V30 3427 N 319.27 1.56325 -0.20005 0
M  V30 3428 C 320.217 2.1932 0.718833 0
M  V30 3429 C 321.187 1.14198 1.20615 0
M  V30 3430 O 322.372 1.42469 1.26914 0
M  V30 3431 C 319.512 2.86041 1.93066 0
M  V30 3432 C 318.625 4.05702 1.48425 0
M  V30 3433 C 317.76 4.60266 2.65196 0
M  V30 3434 C 316.799 5.72273 2.17185 0
M  V30 3435 N 315.936 6.21221 3.27152 0
M  V30 3436 H 320.776 2.97486 0.17489 0
M  V30 3437 H 318.313 1.46911 0.0745794 0
M  V30 3438 H 320.271 3.22897 2.64184 0
M  V30 3439 H 318.901 2.1043 2.44783 0
M  V30 3440 H 317.953 3.74475 0.668755 0
M  V30 3441 H 319.265 4.86699 1.09204 0
M  V30 3442 H 318.419 4.99453 3.4443 0
M  V30 3443 H 317.158 3.78386 3.07693 0
M  V30 3444 H 316.163 5.3261 1.36407 0
M  V30 3445 H 317.388 6.55974 1.75713 0
M  V30 3446 H 315.334 5.42263 3.69171 0
M  V30 3447 H 315.251 6.97284 2.92116 0
M  V30 3448 H 316.519 6.65063 4.06585 0
M  V30 3449 N 320.748 -0.0735177 1.57428 0
M  V30 3450 C 321.994 -0.774145 1.87443 0
M  V30 3451 C 322.327 -1.77311 0.792103 0
M  V30 3452 O 321.602 -1.93492 -0.197793 0
M  V30 3453 C 321.885 -1.48367 3.28115 0
M  V30 3454 C 321.738 -0.501227 4.46999 0
M  V30 3455 C 323.057 -2.429 3.66998 0
M  V30 3456 H 320.176 -0.279971 0.681752 0
M  V30 3457 H 322.818 -0.0373616 1.89963 0
M  V30 3458 H 320.968 -2.11171 3.26097 0
M  V30 3459 H 322.64 0.121468 4.6114 0
M  V30 3460 H 320.883 0.183593 4.33411 0
M  V30 3461 H 321.554 -1.03526 5.42205 0
M  V30 3462 H 324.03 -1.90175 3.70098 0
M  V30 3463 H 322.906 -2.89549 4.66318 0
M  V30 3464 H 323.167 -3.27628 2.96837 0
M  V30 3465 N 322.226 -1.5378 -0.344866 0
M  V30 3466 C 323.454 -1.74899 -1.10534 0
M  V30 3467 C 323.869 -0.487534 -1.82397 0
M  V30 3468 O 323.226 0.540741 -1.74305 0
M  V30 3469 C 323.277 -2.92822 -2.11984 0
M  V30 3470 O 322.998 -4.14089 -1.43044 0
M  V30 3471 C 324.499 -3.25982 -3.00417 0
M  V30 3472 H 321.719 -0.584426 -0.329678 0
M  V30 3473 H 324.263 -2.006 -0.397474 0
M  V30 3474 H 322.418 -2.69457 -2.78338 0
M  V30 3475 H 322.832 -4.80272 -2.10805 0
M  V30 3476 H 324.306 -4.11848 -3.67539 0
M  V30 3477 H 324.783 -2.42228 -3.66363 0
M  V30 3478 H 325.389 -3.51349 -2.39654 0
M  V30 3479 N 323.704 0.605807 -1.45491 0
M  V30 3480 C 325.12 0.926751 -1.29936 0
M  V30 3481 C 325.32 1.99896 -0.253706 0
M  V30 3482 O 324.376 2.50038 0.351737 0
M  V30 3483 C 325.689 1.36599 -2.67883 0
M  V30 3484 C 327.237 1.4801 -2.75793 0
M  V30 3485 C 327.712 1.95309 -4.14268 0
M  V30 3486 N 329.203 2.0254 -4.16571 0
M  V30 3487 C 329.938 2.40363 -5.20589 0
M  V30 3488 N 329.434 2.77143 -6.34952 0
M  V30 3489 N 331.227 2.40718 -5.07948 0
M  V30 3490 H 323.378 -0.102862 -2.12151 0
M  V30 3491 H 325.641 0.016639 -0.947854 0
M  V30 3492 H 325.347 0.652306 -3.45598 0
M  V30 3493 H 325.221 2.33215 -2.96463 0
M  V30 3494 H 327.608 2.1847 -1.98381 0
M  V30 3495 H 327.689 0.497041 -2.50925 0
M  V30 3496 H 327.333 1.25436 -4.92167 0
M  V30 3497 H 327.263 2.94532 -4.3653 0
M  V30 3498 H 329.754 1.76699 -3.34045 0
M  V30 3499 H 330.067 3.0489 -7.10114 0
M  V30 3500 H 328.412 2.74834 -6.3835 0
M  V30 3501 H 331.603 2.11392 -4.1765 0
M  V30 3502 H 331.776 2.69869 -5.89131 0
M  V30 3503 N 325.182 1.32811 0.848464 0
M  V30 3504 C 326.132 1.18842 1.94578 0
M  V30 3505 C 327.116 0.0937517 1.60627 0
M  V30 3506 O 328.308 0.320887 1.74067 0
M  V30 3507 C 325.437 0.91999 3.30743 0
M  V30 3508 C 324.523 2.05665 3.70894 0
M  V30 3509 N 324.914 3.30579 3.8282 0
M  V30 3510 C 323.212 1.9612 4.00566 0
M  V30 3511 C 323.913 4.05067 4.17487 0
M  V30 3512 N 322.889 3.33419 4.2934 0
M  V30 3513 H 326.691 2.13536 2.0194 0
M  V30 3514 H 324.205 1.2468 1.0406 0
M  V30 3515 H 326.202 0.800859 4.09136 0
M  V30 3516 H 324.862 -0.0185076 3.24695 0
M  V30 3517 H 325.873 3.65441 3.66978 0
M  V30 3518 H 322.55 1.09871 4.02784 0
M  V30 3519 H 323.94 5.12815 4.34131 0
M  V30 3520 N 326.66 -1.06551 1.16123 0
M  V30 3521 C 327.908 -1.78947 0.939267 0
M  V30 3522 C 328.229 -1.87532 -0.534476 0
M  V30 3523 O 327.499 -1.38211 -1.38833 0
M  V30 3524 H 326.079 -0.662807 0.344523 0
M  V30 3525 H 328.741 -1.28725 1.46342 0
M  V30 3526 H 327.837 -2.81117 1.35572 0
M  V30 3527 N 328.138 -0.959301 -1.25041 0
M  V30 3528 C 329.068 -0.501388 -2.28053 0
M  V30 3529 C 330.049 0.454673 -1.63911 0
M  V30 3530 O 331.234 0.352618 -1.90972 0
M  V30 3531 C 328.364 0.217224 -3.4662 0
M  V30 3532 C 327.318 -0.654034 -4.22973 0
M  V30 3533 C 326.644 0.195589 -5.34342 0
M  V30 3534 C 327.944 -1.93447 -4.85155 0
M  V30 3535 H 329.638 -1.36238 -2.66608 0
M  V30 3536 H 327.184 -0.656534 -1.28163 0
M  V30 3537 H 329.137 0.548732 -4.17812 0
M  V30 3538 H 327.861 1.1125 -3.07068 0
M  V30 3539 H 326.52 -0.968693 -3.5357 0
M  V30 3540 H 326.168 1.09076 -4.91031 0
M  V30 3541 H 325.868 -0.384091 -5.86343 0
M  V30 3542 H 327.392 0.521958 -6.08365 0
M  V30 3543 H 328.806 -1.66908 -5.48466 0
M  V30 3544 H 327.203 -2.46018 -5.47353 0
M  V30 3545 H 328.273 -2.63466 -4.07079 0
M  V30 3546 N 329.616 1.39756 -0.72842 0
M  V30 3547 C 330.563 2.30647 -0.0841519 0
M  V30 3548 C 331.533 1.48869 0.7367 0
M  V30 3549 O 332.718 1.77574 0.698015 0
M  V30 3550 C 329.858 3.35165 0.822091 0
M  V30 3551 C 328.971 4.31999 -0.0106663 0
M  V30 3552 C 328.106 5.23585 0.896241 0
M  V30 3553 C 327.145 6.12072 0.0583381 0
M  V30 3554 N 326.282 6.96035 0.920818 0
M  V30 3555 H 331.122 2.85173 -0.864891 0
M  V30 3556 H 328.659 1.40422 -0.438179 0
M  V30 3557 H 330.617 3.94345 1.36189 0
M  V30 3558 H 329.247 2.8211 1.56888 0
M  V30 3559 H 328.299 3.74492 -0.66781 0
M  V30 3560 H 329.611 4.9443 -0.658825 0
M  V30 3561 H 328.765 5.87759 1.50412 0
M  V30 3562 H 327.504 4.61459 1.57819 0
M  V30 3563 H 326.509 5.46916 -0.562389 0
M  V30 3564 H 327.734 6.76261 -0.6203 0
M  V30 3565 H 325.68 6.36485 1.58818 0
M  V30 3566 H 325.597 7.55284 0.32899 0
M  V30 3567 H 326.865 7.64646 1.51447 0
M  V30 3568 N 331.094 0.475555 1.50254 0
M  V30 3569 C 332.319 -0.0777042 2.07254 0
M  V30 3570 C 332.744 -1.3235 1.3366 0
M  V30 3571 O 332.102 -1.77152 0.385597 0
M  V30 3572 C 332.15 -0.340169 3.58992 0
M  V30 3573 O 331.254 -1.41982 3.87188 0
M  V30 3574 H 330.595 0.0149556 0.663832 0
M  V30 3575 H 333.125 0.667878 1.93392 0
M  V30 3576 H 333.135 -0.579332 4.03866 0
M  V30 3577 H 331.81 0.570167 4.11973 0
M  V30 3578 H 330.387 -1.16762 3.54148 0
M  V30 3579 N 332.573 -1.56217 0.208337 0
M  V30 3580 C 333.984 -1.84243 -0.301904 0
M  V30 3581 C 334.335 -1.12939 -1.60434 0
M  V30 3582 O 333.46 -0.39461 -2.12772 0
M  V30 3583 C 334.055 -3.34231 -0.554543 0
M  V30 3584 C 332.614 -3.62621 -1.00912 0
M  V30 3585 C 331.761 -2.77224 -0.064933 0
M  V30 3586 H 334.712 -1.52712 0.431833 0
M  V30 3587 H 334.733 -3.5372 -1.40223 0
M  V30 3588 H 334.245 -3.86099 0.393561 0
M  V30 3589 H 332.346 -3.16197 -1.97104 0
M  V30 3590 H 332.459 -4.7071 -0.892674 0
M  V30 3591 H 330.823 -2.48256 -0.56929 0
M  V30 3592 H 331.606 -3.31887 0.877851 0
M  V30 3593 N 334.051 0.0651679 -1.57465 0
M  V30 3594 C 335.298 0.763063 -1.87573 0
M  V30 3595 C 335.626 1.77242 -0.800961 0
M  V30 3596 O 334.881 1.94651 0.202316 0
M  V30 3597 C 335.18 1.50081 -3.24362 0
M  V30 3598 C 334.846 0.630816 -4.46466 0
M  V30 3599 C 333.508 0.391082 -4.79608 0
M  V30 3600 C 335.86 0.0279465 -5.21193 0
M  V30 3601 C 333.188 -0.460894 -5.84887 0
M  V30 3602 C 335.54 -0.811522 -6.27373 0
M  V30 3603 C 334.204 -1.06106 -6.59013 0
M  V30 3604 H 333.474 0.279224 -0.686378 0
M  V30 3605 H 336.121 0.0236726 -1.91485 0
M  V30 3606 H 334.426 2.31258 -3.16271 0
M  V30 3607 H 336.123 2.04571 -3.44894 0
M  V30 3608 H 332.713 0.8278 -4.2053 0
M  V30 3609 H 336.897 0.200262 -4.95896 0
M  V30 3610 H 332.153 -0.662907 -6.07796 0
M  V30 3611 H 336.327 -1.28537 -6.84435 0
M  V30 3612 H 333.954 -1.723 -7.40417 0
M  V30 3613 N 335.529 1.53961 0.336706 0
M  V30 3614 C 336.492 1.81724 1.39675 0
M  V30 3615 C 337.492 0.688532 1.45313 0
M  V30 3616 O 338.682 0.956829 1.45569 0
M  V30 3617 C 335.814 1.96543 2.78538 0
M  V30 3618 H 337.007 2.76424 1.16318 0
M  V30 3619 H 334.56 1.45478 0.571474 0
M  V30 3620 H 335.295 1.0401 3.07168 0
M  V30 3621 H 335.08 2.78665 2.75841 0
M  V30 3622 H 336.57 2.19516 3.5525 0
M  V30 3623 N 337.007 -0.598083 1.45811 0
M  V30 3624 C 338.237 -1.38121 1.53643 0
M  V30 3625 C 338.645 -1.88425 0.171081 0
M  V30 3626 O 337.988 -1.63409 -0.839237 0
M  V30 3627 C 338.05 -2.61432 2.46766 0
M  V30 3628 C 337.714 -2.32702 3.93318 0
M  V30 3629 C 338.711 -1.92479 4.82957 0
M  V30 3630 C 336.396 -2.45321 4.38318 0
M  V30 3631 C 338.39 -1.65248 6.15607 0
M  V30 3632 C 336.077 -2.17703 5.71007 0
M  V30 3633 C 337.075 -1.7773 6.5947 0
M  V30 3634 O 336.763 -1.50441 7.89698 0
M  V30 3635 H 336.495 -0.428863 0.522544 0
M  V30 3636 H 339.049 -0.73557 1.91777 0
M  V30 3637 H 337.279 -3.28749 2.0362 0
M  V30 3638 H 338.968 -3.23487 2.45175 0
M  V30 3639 H 339.734 -1.82258 4.49452 0
M  V30 3640 H 335.613 -2.75399 3.69697 0
M  V30 3641 H 339.157 -1.33973 6.84614 0
M  V30 3642 H 335.054 -2.27544 6.04065 0
M  V30 3643 H 335.822 -1.64415 8.01817 0
M  V30 3644 N 338.485 -1.33259 -0.841409 0
M  V30 3645 C 339.725 -1.25902 -1.61022 0
M  V30 3646 C 340.089 0.173325 -1.91216 0
M  V30 3647 O 341.29 0.370824 -2.6623 0
M  V30 3648 C 339.561 -2.10735 -2.88662 0
M  V30 3649 S 341.12 -2.20541 -3.79351 0
M  V30 3650 H 337.938 -0.447958 -0.552137 0
M  V30 3651 H 340.54 -1.68263 -0.995382 0
M  V30 3652 H 339.244 -3.1384 -2.64448 0
M  V30 3653 H 338.775 -1.69201 -3.55154 0
M  V30 3654 H 340.79 -1.36462 -4.77067 0
M  V30 3655 N 339.963 1.05934 -1.16686 0
M  V30 3656 C 340.896 2.1295 -0.820225 0
M  V30 3657 C 341.874 1.61242 0.209722 0
M  V30 3658 O 343.058 1.88271 0.0929688 0
M  V30 3659 C 340.185 3.3797 -0.22223 0
M  V30 3660 C 339.231 4.08488 -1.22637 0
M  V30 3661 S 340.064 4.58015 -2.77457 0
M  V30 3662 C 341.22 5.86292 -2.19117 0
M  V30 3663 H 341.453 2.42025 -1.72659 0
M  V30 3664 H 338.986 1.18423 -0.990722 0
M  V30 3665 H 340.944 4.10335 0.116322 0
M  V30 3666 H 339.605 3.07045 0.66196 0
M  V30 3667 H 338.798 4.98291 -0.756455 0
M  V30 3668 H 338.4 3.42154 -1.51019 0
M  V30 3669 H 340.692 6.59246 -1.56209 0
M  V30 3670 H 341.635 6.38019 -3.07144 0
M  V30 3671 H 342.043 5.40497 -1.62858 0
M  V30 3672 N 341.441 0.965919 1.2453 0
M  V30 3673 C 342.374 0.4393 2.23932 0
M  V30 3674 C 343.352 -0.485615 1.55179 0
M  V30 3675 O 344.536 -0.417402 1.83821 0
M  V30 3676 C 341.663 -0.366042 3.36716 0
M  V30 3677 C 340.709 0.5009 4.23548 0
M  V30 3678 S 341.542 1.94002 4.99123 0
M  V30 3679 C 342.698 1.14342 6.15367 0
M  V30 3680 H 342.931 1.28167 2.68254 0
M  V30 3681 H 340.464 0.770819 1.33782 0
M  V30 3682 H 342.422 -0.824724 4.0213 0
M  V30 3683 H 341.083 -1.18337 2.90956 0
M  V30 3684 H 340.276 -0.117341 5.03863 0
M  V30 3685 H 339.878 0.89524 3.63127 0
M  V30 3686 H 342.17 0.397572 6.76332 0
M  V30 3687 H 343.113 1.92089 6.81548 0
M  V30 3688 H 343.521 0.668579 5.60527 0
M  V30 3689 N 342.919 -1.39368 0.735821 0
M  V30 3690 C 344.168 -1.99733 0.281004 0
M  V30 3691 C 344.481 -1.59055 -1.13846 0
M  V30 3692 O 345.687 -2.12262 -1.69284 0
M  V30 3693 C 344.143 -3.57057 0.451462 0
M  V30 3694 C 343.751 -4.06697 1.87886 0
M  V30 3695 C 345.495 -4.2446 0.0584616 0
M  V30 3696 C 343.402 -5.56598 1.99883 0
M  V30 3697 H 342.332 -0.747163 0.101311 0
M  V30 3698 H 344.983 -1.59357 0.909819 0
M  V30 3699 H 343.365 -3.95234 -0.246263 0
M  V30 3700 H 344.539 -3.79853 2.60861 0
M  V30 3701 H 342.854 -3.5196 2.22515 0
M  V30 3702 H 345.451 -5.34549 0.127099 0
M  V30 3703 H 345.794 -4.04444 -0.986433 0
M  V30 3704 H 346.327 -3.9146 0.707374 0
M  V30 3705 H 343.066 -5.81494 3.02564 0
M  V30 3706 H 342.586 -5.85242 1.31346 0
M  V30 3707 H 344.265 -6.22022 1.78039 0
M  V30 3708 N 344.397 -0.483516 -1.5 0
M  V30 3709 C 345.813 -0.138404 -1.58999 0
M  V30 3710 C 346.013 1.35597 -1.4905 0
M  V30 3711 O 345.069 2.13039 -1.35539 0
M  V30 3712 C 346.382 -0.699658 -2.92447 0
M  V30 3713 C 347.93 -0.664195 -3.05872 0
M  V30 3714 C 348.405 -1.20321 -4.41913 0
M  V30 3715 N 349.896 -1.16315 -4.48358 0
M  V30 3716 C 350.631 -1.55058 -5.52037 0
M  V30 3717 N 350.127 -2.01311 -6.62907 0
M  V30 3718 N 351.92 -1.46584 -5.42651 0
M  V30 3719 H 344.071 -1.45529 -1.5471 0
M  V30 3720 H 346.334 -0.60258 -0.731848 0
M  V30 3721 H 346.04 -1.747 -3.05242 0
M  V30 3722 H 345.914 -0.150194 -3.76901 0
M  V30 3723 H 348.301 0.374272 -2.92717 0
M  V30 3724 H 348.382 -1.25061 -2.23144 0
M  V30 3725 H 348.026 -2.24037 -4.55818 0
M  V30 3726 H 347.956 -0.592896 -5.23252 0
M  V30 3727 H 350.447 -0.824058 -3.68806 0
M  V30 3728 H 350.76 -2.2899 -7.38095 0
M  V30 3729 H 349.105 -2.05273 -6.63994 0
M  V30 3730 H 352.296 -1.10281 -4.54924 0
M  V30 3731 H 352.469 -1.77103 -6.23329 0
M  V30 3732 N 345.875 1.56104 -0.216619 0
M  V30 3733 C 347.121 1.98466 0.417033 0
M  V30 3734 C 347.454 1.10403 1.59765 0
M  V30 3735 O 346.729 0.160632 1.93836 0
M  V30 3736 C 347.012 3.49769 0.85637 0
M  V30 3737 C 346.865 4.48606 -0.327546 0
M  V30 3738 C 348.184 4.05339 1.7143 0
M  V30 3739 H 345.303 0.721551 0.150112 0
M  V30 3740 H 347.945 1.87423 -0.311864 0
M  V30 3741 H 346.095 3.5931 1.47745 0
M  V30 3742 H 347.767 4.5108 -0.965618 0
M  V30 3743 H 346.01 4.22682 -0.975805 0
M  V30 3744 H 346.681 5.51995 0.0227149 0
M  V30 3745 H 349.157 3.98712 1.19031 0
M  V30 3746 H 348.033 5.11533 1.99061 0
M  V30 3747 H 348.294 3.51918 2.67593 0
M  V30 3748 N 347.353 -0.0568162 1.57498 0
M  V30 3749 C 348.316 -1.05038 2.03715 0
M  V30 3750 C 349.316 -1.30709 0.936577 0
M  V30 3751 O 350.506 -1.26178 1.20103 0
M  V30 3752 C 347.638 -2.39034 2.43055 0
M  V30 3753 H 348.831 -0.651715 2.92733 0
M  V30 3754 H 346.384 -0.302947 1.53336 0
M  V30 3755 H 347.119 -2.83703 1.57108 0
M  V30 3756 H 346.904 -2.21739 3.2338 0
M  V30 3757 H 348.394 -3.10421 2.79336 0
M  V30 3758 N 348.832 -1.54138 -0.328536 0
M  V30 3759 C 350.057 -1.76378 -1.09112 0
M  V30 3760 C 350.482 -0.508596 -1.81094 0
M  V30 3761 O 349.84 0.539598 -1.73084 0
M  V30 3762 C 349.888 -2.95358 -2.06872 0
M  V30 3763 O 348.992 -2.66556 -3.14677 0
M  V30 3764 H 348.333 -0.584614 -0.314838 0
M  V30 3765 H 350.863 -2.01146 -0.374348 0
M  V30 3766 H 350.873 -3.22566 -2.4983 0
M  V30 3767 H 349.548 -3.86385 -1.5388 0
M  V30 3768 H 348.125 -2.50282 -2.7643 0
M  V30 3769 N 350.31 0.590341 -1.46126 0
M  V30 3770 C 351.257 1.69994 -1.56111 0
M  V30 3771 C 352.227 1.61065 -0.405867 0
M  V30 3772 O 353.412 1.8039 -0.621613 0
M  V30 3773 C 350.552 3.08326 -1.55013 0
M  V30 3774 C 349.665 3.27936 -2.81215 0
M  V30 3775 C 348.8 4.56473 -2.71673 0
M  V30 3776 C 347.839 4.694 -3.92849 0
M  V30 3777 N 346.976 5.89254 -3.81738 0
M  V30 3778 H 351.816 1.60797 -2.50895 0
M  V30 3779 H 349.353 0.783799 -1.24479 0
M  V30 3780 H 351.311 3.88383 -1.52362 0
M  V30 3781 H 349.941 3.16439 -0.637667 0
M  V30 3782 H 348.993 2.41536 -2.93879 0
M  V30 3783 H 350.305 3.33357 -3.71045 0
M  V30 3784 H 349.459 5.44748 -2.67085 0
M  V30 3785 H 348.198 4.53477 -1.7947 0
M  V30 3786 H 347.203 3.79544 -3.97777 0
M  V30 3787 H 348.428 4.7418 -4.86138 0
M  V30 3788 H 346.374 5.87271 -2.92317 0
M  V30 3789 H 346.291 5.95911 -4.65217 0
M  V30 3790 H 347.559 6.79981 -3.81112 0
M  V30 3791 N 351.788 1.33704 0.83433 0
M  V30 3792 C 352.72 1.20172 1.9517 0
M  V30 3793 C 353.733 0.131572 1.62267 0
M  V30 3794 O 354.922 0.382406 1.74356 0
M  V30 3795 C 352.022 0.821716 3.28787 0
M  V30 3796 C 351.195 1.98446 3.89792 0
M  V30 3797 C 350.254 1.58469 5.01771 0
M  V30 3798 O 349.28 2.29968 5.20676 0
M  V30 3799 N 350.482 0.492291 5.78409 0
M  V30 3800 H 353.247 2.16429 2.07313 0
M  V30 3801 H 350.808 1.26509 1.0103 0
M  V30 3802 H 352.8 0.536291 4.01131 0
M  V30 3803 H 351.37 -0.0503058 3.1256 0
M  V30 3804 H 350.59 2.43526 3.09982 0
M  V30 3805 H 351.878 2.76236 4.27283 0
M  V30 3806 H 351.276 -0.102349 5.65607 0
M  V30 3807 H 349.833 0.266555 6.51255 0
M  V30 3808 N 353.266 -1.05314 1.17247 0
M  V30 3809 C 354.196 -2.1498 0.911362 0
M  V30 3810 C 355.177 -1.69471 -0.146169 0
M  V30 3811 O 356.362 -1.942 0.003812 0
M  V30 3812 C 353.492 -3.4472 0.422528 0
M  V30 3813 C 352.446 -4.03789 1.4191 0
M  V30 3814 C 351.772 -5.28858 0.788274 0
M  V30 3815 C 353.072 -4.41418 2.7919 0
M  V30 3816 H 354.766 -2.3708 1.82848 0
M  V30 3817 H 352.312 -1.13938 0.880569 0
M  V30 3818 H 354.265 -4.20787 0.227289 0
M  V30 3819 H 352.989 -3.22269 -0.530123 0
M  V30 3820 H 351.648 -3.2979 1.60106 0
M  V30 3821 H 351.296 -5.02709 -0.171173 0
M  V30 3822 H 350.996 -5.69338 1.45353 0
M  V30 3823 H 352.52 -6.07612 0.603282 0
M  V30 3824 H 353.934 -5.08524 2.64719 0
M  V30 3825 H 352.331 -4.92913 3.42282 0
M  V30 3826 H 353.401 -3.51819 3.33693 0
M  V30 3827 N 354.744 -0.972509 -1.24016 0
M  V30 3828 C 355.654 -0.5143 -2.28893 0
M  V30 3829 C 356.67 0.427078 -1.68677 0
M  V30 3830 O 357.846 0.298939 -1.99169 0
M  V30 3831 C 354.911 0.183598 -3.46214 0
M  V30 3832 C 353.972 -0.798202 -4.21814 0
M  V30 3833 C 353.205 -0.133514 -5.33533 0
M  V30 3834 O 353.428 1.07714 -5.60137 0
M  V30 3835 O 352.362 -0.828103 -5.96176 0
M  V30 3836 H 356.188 -1.38629 -2.70214 0
M  V30 3837 H 353.773 -0.739769 -1.29799 0
M  V30 3838 H 355.655 0.575433 -4.17453 0
M  V30 3839 H 354.33 1.03048 -3.0686 0
M  V30 3840 H 353.237 -1.24059 -3.52931 0
M  V30 3841 H 354.57 -1.61364 -4.64997 0
M  V30 3842 N 356.222 1.38976 -0.743202 0
M  V30 3843 C 357.132 2.3434 -0.110399 0
M  V30 3844 C 358.148 1.58741 0.712559 0
M  V30 3845 O 359.324 1.9099 0.639125 0
M  V30 3846 C 356.389 3.37812 0.780012 0
M  V30 3847 C 355.45 4.29263 -0.0561319 0
M  V30 3848 C 354.683 5.27793 0.791875 0
M  V30 3849 O 354.906 5.33043 2.03031 0
M  V30 3850 O 353.84 6.01512 0.216183 0
M  V30 3851 H 357.666 2.90129 -0.897714 0
M  V30 3852 H 355.251 1.40643 -0.503966 0
M  V30 3853 H 357.133 4.01194 1.28923 0
M  V30 3854 H 355.808 2.84395 1.546 0
M  V30 3855 H 354.715 3.69076 -0.611056 0
M  V30 3856 H 356.048 4.85907 -0.784531 0
M  V30 3857 N 357.7 0.491464 1.49741 0
M  V30 3858 C 358.61 -0.296835 2.32715 0
M  V30 3859 C 359.626 -0.976536 1.44013 0
M  V30 3860 O 360.802 -0.960023 1.77047 0
M  V30 3861 C 357.867 -1.35288 3.19215 0
M  V30 3862 C 356.928 -0.687632 4.23757 0
M  V30 3863 C 356.161 -1.69336 5.06123 0
M  V30 3864 O 356.384 -2.92219 4.89861 0
M  V30 3865 O 355.318 -1.25394 5.88693 0
M  V30 3866 H 359.144 0.382048 3.01287 0
M  V30 3867 H 356.729 0.252953 1.47243 0
M  V30 3868 H 358.611 -1.96411 3.72828 0
M  V30 3869 H 357.286 -2.01487 2.53347 0
M  V30 3870 H 356.193 -0.0369159 3.74082 0
M  V30 3871 H 357.526 -0.0682566 4.92153 0
M  V30 3872 N 359.178 -1.55987 0.224894 0
M  V30 3873 C 360.455 -1.90232 -0.455083 0
M  V30 3874 C 360.835 -1.14269 -1.77499 0
M  V30 3875 O 360.183 -0.253079 -2.27094 0
M  V30 3876 C 360.393 -3.42993 -0.644758 0
M  V30 3877 C 361.741 -4.13821 -0.950669 0
M  V30 3878 O 362.765 -3.4861 -0.731423 0
M  V30 3879 O 361.624 -5.29128 -1.36695 0
M  V30 3880 H 358.718 -0.79108 -0.241084 0
M  V30 3881 H 361.264 -1.67581 0.267327 0
M  V30 3882 H 360.036 -3.90252 0.28613 0
M  V30 3883 H 359.659 -3.71434 -1.41853 0
M  V30 3884 N 360.656 0.0484629 -1.57525 0
M  V30 3885 C 361.904 0.741657 -1.88 0
M  V30 3886 C 362.225 1.76918 -0.820054 0
M  V30 3887 O 361.495 1.95335 0.148661 0
M  V30 3888 H 360.075 0.276908 -0.69378 0
M  V30 3889 H 362.737 0.019013 -1.94891 0
M  V30 3890 H 361.833 1.24336 -2.86264 0
M  V30 3891 N 362.134 1.5431 0.320358 0
M  V30 3892 C 363.359 1.76954 1.08175 0
M  V30 3893 C 363.784 0.518193 1.80821 0
M  V30 3894 O 363.142 -0.530411 1.73368 0
M  V30 3895 C 363.19 2.96451 2.05303 0
M  V30 3896 O 362.294 2.68221 3.13259 0
M  V30 3897 H 361.635 0.586275 0.311733 0
M  V30 3898 H 364.165 2.01342 0.363676 0
M  V30 3899 H 364.175 3.23887 2.48116 0
M  V30 3900 H 362.85 3.87196 1.51829 0
M  V30 3901 H 361.427 2.51744 2.75099 0
M  V30 3902 N 363.613 -0.582584 1.46437 0
M  V30 3903 C 365.029 -0.905962 1.31394 0
M  V30 3904 C 365.229 -1.99468 0.285476 0
M  V30 3905 O 364.285 -2.50566 -0.311914 0
M  V30 3906 C 365.598 -1.3232 2.70022 0
M  V30 3907 C 367.146 -1.43604 2.78113 0
M  V30 3908 C 367.621 -1.88694 4.17323 0
M  V30 3909 N 369.112 -1.95887 4.19741 0
M  V30 3910 C 369.847 -2.32051 5.24347 0
M  V30 3911 N 369.343 -2.67006 6.39281 0
M  V30 3912 N 371.136 -2.32606 5.11713 0
M  V30 3913 H 363.287 0.1366 2.1196 0
M  V30 3914 H 365.55 -0.00155736 0.947999 0
M  V30 3915 H 365.256 -0.597242 3.46592 0
M  V30 3916 H 365.13 -2.28469 3.00136 0
M  V30 3917 H 367.517 -2.15286 2.01832 0
M  V30 3918 H 367.598 -0.457059 2.51684 0
M  V30 3919 H 367.242 -1.1759 4.941 0
M  V30 3920 H 367.172 -2.8755 4.4116 0
M  V30 3921 H 369.663 -1.71362 3.36814 0
M  V30 3922 H 369.976 -2.93554 7.14875 0
M  V30 3923 H 368.321 -2.64644 6.42642 0
M  V30 3924 H 371.512 -2.04721 4.2096 0
M  V30 3925 H 371.685 -2.60462 5.93349 0
M  V30 3926 N 365.091 -1.34144 -0.827227 0
M  V30 3927 C 366.368 -1.16844 -1.56865 0
M  V30 3928 C 366.748 0.260654 -2.09485 0
M  V30 3929 O 366.096 1.26138 -1.9053 0
M  V30 3930 C 366.306 -2.21939 -2.6934 0
M  V30 3931 C 367.654 -2.56695 -3.3822 0
M  V30 3932 O 368.678 -2.20695 -2.79593 0
M  V30 3933 O 367.537 -3.18518 -4.44082 0
M  V30 3934 H 364.631 -0.452669 -0.692112 0
M  V30 3935 H 367.177 -1.45763 -0.868973 0
M  V30 3936 H 365.949 -3.17882 -2.28182 0
M  V30 3937 H 365.572 -1.94172 -3.46962 0
M  V30 3938 N 366.569 1.04691 -1.17803 0
M  V30 3939 C 367.794 1.81984 -0.994813 0
M  V30 3940 C 368.219 1.82586 0.452112 0
M  V30 3941 O 367.577 1.23854 1.324 0
M  V30 3942 C 367.625 3.2575 -1.54659 0
M  V30 3943 O 366.729 4.05267 -0.763728 0
M  V30 3944 H 366.07 0.562483 -0.352857 0
M  V30 3945 H 368.6 1.3189 -1.56417 0
M  V30 3946 H 368.61 3.76541 -1.57102 0
M  V30 3947 H 367.285 3.24627 -2.59981 0
M  V30 3948 H 365.862 3.63972 -0.811108 0
M  V30 3949 N 368.047 0.979072 1.23499 0
M  V30 3950 C 369.458 0.684391 1.73704 0
M  V30 3951 C 369.809 -0.799448 1.79174 0
M  V30 3952 O 368.934 -1.62531 1.42873 0
M  V30 3953 C 369.529 1.23564 3.15464 0
M  V30 3954 C 368.088 0.99063 3.6313 0
M  V30 3955 C 367.235 1.36416 2.41425 0
M  V30 3956 H 370.186 1.15307 1.09041 0
M  V30 3957 H 370.207 0.607417 3.7562 0
M  V30 3958 H 369.719 2.31561 3.1145 0
M  V30 3959 H 367.82 -0.0733136 3.72528 0
M  V30 3960 H 367.933 1.64427 4.5 0
M  V30 3961 H 366.297 0.782616 2.42378 0
M  V30 3962 H 367.08 2.45387 2.40083 0
M  V30 3963 N 369.525 -1.3858 0.750561 0
M  V30 3964 C 370.455 -2.33102 0.136237 0
M  V30 3965 C 371.436 -1.54713 -0.706965 0
M  V30 3966 O 372.621 -1.83043 -0.648769 0
M  V30 3967 C 369.751 -3.38882 -0.760017 0
M  V30 3968 C 368.705 -4.27995 -0.0197785 0
M  V30 3969 C 368.031 -5.24605 -1.03408 0
M  V30 3970 C 369.331 -5.09554 1.14684 0
M  V30 3971 H 371.025 -2.84726 0.925822 0
M  V30 3972 H 368.571 -1.36898 0.446654 0
M  V30 3973 H 370.524 -4.0397 -1.19943 0
M  V30 3974 H 369.248 -2.85734 -1.58189 0
M  V30 3975 H 367.907 -3.64409 0.400184 0
M  V30 3976 H 367.555 -4.67746 -1.84994 0
M  V30 3977 H 367.255 -5.85081 -0.543464 0
M  V30 3978 H 368.779 -5.9257 -1.47288 0
M  V30 3979 H 370.193 -5.67899 0.785118 0
M  V30 3980 H 368.59 -5.7925 1.56812 0
M  V30 3981 H 369.66 -4.4347 1.96118 0
M  V30 3982 N 371.003 -0.499398 -1.49478 0
M  V30 3983 C 372.25 0.0456899 -2.02448 0
M  V30 3984 C 372.578 1.37142 -1.37921 0
M  V30 3985 O 371.833 1.89111 -0.503544 0
M  V30 3986 C 372.132 0.248424 -3.56536 0
M  V30 3987 C 371.798 -0.999107 -4.39692 0
M  V30 3988 C 370.46 -1.34108 -4.62135 0
M  V30 3989 C 372.812 -1.82842 -4.88076 0
M  V30 3990 C 370.14 -2.51191 -5.30208 0
M  V30 3991 C 372.492 -2.99076 -5.57437 0
M  V30 3992 C 371.156 -3.33655 -5.78127 0
M  V30 3993 H 370.426 0.0167191 -0.740811 0
M  V30 3994 H 373.073 -0.65923 -1.79795 0
M  V30 3995 H 371.378 1.03586 -3.77859 0
M  V30 3996 H 373.075 0.684605 -3.95113 0
M  V30 3997 H 369.665 -0.722729 -4.22463 0
M  V30 3998 H 373.849 -1.57737 -4.70566 0
M  V30 3999 H 369.105 -2.78221 -5.44429 0
M  V30 4000 H 373.279 -3.63664 -5.93904 0
M  V30 4001 H 370.906 -4.24483 -6.30649 0
M  V30 4002 N 372.481 1.55866 -0.233164 0
M  V30 4003 C 373.758 1.90471 0.444988 0
M  V30 4004 C 374.138 1.15209 1.7689 0
M  V30 4005 O 373.486 0.265119 2.26957 0
M  V30 4006 C 373.696 3.4333 0.626559 0
M  V30 4007 C 375.044 4.14319 0.92871 0
M  V30 4008 O 376.068 3.48993 0.712926 0
M  V30 4009 O 374.927 5.29846 1.33887 0
M  V30 4010 H 372.021 0.792347 0.236885 0
M  V30 4011 H 374.567 1.67437 -0.276211 0
M  V30 4012 H 373.339 3.90095 -0.306822 0
M  V30 4013 H 372.962 3.72181 1.39881 0
M  V30 4014 N 373.959 -0.0401083 1.57549 0
M  V30 4015 C 375.206 -0.733125 1.88763 0
M  V30 4016 C 375.534 -1.75946 0.829058 0
M  V30 4017 O 374.789 -1.94949 -0.171323 0
M  V30 4018 C 375.088 -1.44902 3.26708 0
M  V30 4019 C 374.754 -0.559707 4.47413 0
M  V30 4020 C 373.416 -0.314731 4.8017 0
M  V30 4021 C 375.768 0.0549743 5.21171 0
M  V30 4022 C 373.096 0.553886 5.8408 0
M  V30 4023 C 375.448 0.911229 6.26003 0
M  V30 4024 C 374.112 1.16577 6.57241 0
M  V30 4025 H 373.382 -0.268269 0.690733 0
M  V30 4026 H 376.029 0.00679408 1.91499 0
M  V30 4027 H 374.334 -2.26197 3.1991 0
M  V30 4028 H 376.031 -1.99058 3.48105 0
M  V30 4029 H 372.621 -0.760793 4.21794 0
M  V30 4030 H 376.805 -0.121344 4.96152 0
M  V30 4031 H 372.061 0.759518 6.06664 0
M  V30 4032 H 376.235 1.3941 6.82303 0
M  V30 4033 H 373.862 1.84058 7.37582 0
M  V30 4034 N 375.437 -1.54477 -0.31217 0
M  V30 4035 C 376.686 -1.72438 -1.04633 0
M  V30 4036 C 376.999 -0.511163 -1.88803 0
M  V30 4037 O 378.205 -0.572341 -2.65399 0
M  V30 4038 C 376.661 -3.05043 -1.9099 0
M  V30 4039 C 376.269 -4.33806 -1.11877 0
M  V30 4040 C 378.013 -3.32364 -2.64073 0
M  V30 4041 C 375.92 -5.57467 -1.97445 0
M  V30 4042 H 374.85 -0.642647 -0.394361 0
M  V30 4043 H 377.501 -1.80966 -0.303929 0
M  V30 4044 H 375.883 -2.90451 -2.69173 0
M  V30 4045 H 377.057 -4.59199 -0.383843 0
M  V30 4046 H 375.372 -4.13336 -0.504252 0
M  V30 4047 H 377.969 -4.21951 -3.28423 0
M  V30 4048 H 378.312 -2.50745 -3.32314 0
M  V30 4049 H 378.845 -3.47875 -1.92944 0
M  V30 4050 H 375.584 -6.41722 -1.33692 0
M  V30 4051 H 375.104 -5.36277 -2.6864 0
M  V30 4052 H 376.783 -5.94303 -2.5576 0
M  V30 4053 N 376.915 0.57481 -1.46744 0
M  V30 4054 C 377.825 1.711 -1.60505 0
M  V30 4055 C 378.841 1.67008 -0.488307 0
M  V30 4056 O 380.017 1.86774 -0.753495 0
M  V30 4057 C 377.082 3.07608 -1.59932 0
M  V30 4058 C 376.143 3.22904 -2.82898 0
M  V30 4059 C 375.376 4.529 -2.82343 0
M  V30 4060 O 375.599 5.37278 -1.91542 0
M  V30 4061 O 374.533 4.71611 -3.73987 0
M  V30 4062 H 378.359 1.62436 -2.56609 0
M  V30 4063 H 375.944 0.742779 -1.29627 0
M  V30 4064 H 377.826 3.88877 -1.62336 0
M  V30 4065 H 376.501 3.16692 -0.669898 0
M  V30 4066 H 375.408 2.41099 -2.86046 0
M  V30 4067 H 376.741 3.18715 -3.75076 0
M  V30 4068 N 378.394 1.34581 0.820102 0
M  V30 4069 C 379.619 1.30333 1.61332 0
M  V30 4070 C 380.044 -0.119339 1.87721 0
M  V30 4071 O 379.402 -1.08197 1.45475 0
M  V30 4072 C 379.45 2.10258 2.92957 0
M  V30 4073 O 378.554 1.47404 3.85157 0
M  V30 4074 H 377.895 0.447488 0.490561 0
M  V30 4075 H 380.425 1.77425 1.01889 0
M  V30 4076 H 380.435 2.21718 3.42498 0
M  V30 4077 H 379.11 3.13693 2.73074 0
M  V30 4078 H 377.687 1.44703 3.43679 0
M  V30 4079 N 379.872 -1.04064 1.18357 0
M  V30 4080 C 381.112 -1.78829 0.989921 0
M  V30 4081 C 381.476 -1.86106 -0.472095 0
M  V30 4082 O 382.677 -2.57076 -0.785187 0
M  V30 4083 C 380.948 -3.1823 1.6268 0
M  V30 4084 S 382.507 -4.09332 1.58091 0
M  V30 4085 H 379.325 -0.615754 0.355482 0
M  V30 4086 H 381.927 -1.24778 1.50501 0
M  V30 4087 H 380.631 -3.10543 2.68311 0
M  V30 4088 H 380.162 -3.77357 1.112 0
M  V30 4089 H 382.177 -4.92598 0.596817 0
M  V30 4090 N 381.35 -0.985608 -1.22978 0
M  V30 4091 C 382.28 -0.549649 -2.26939 0
M  V30 4092 C 383.261 0.419803 -1.64838 0
M  V30 4093 O 384.446 0.31203 -1.91677 0
M  V30 4094 C 381.576 0.143652 -3.47003 0
M  V30 4095 C 380.53 -0.743606 -4.21491 0
M  V30 4096 C 379.856 0.0822027 -5.34637 0
M  V30 4097 C 381.156 -2.03694 -4.80943 0
M  V30 4098 H 382.85 -1.41862 -2.63658 0
M  V30 4099 H 380.396 -0.683571 -1.26741 0
M  V30 4100 H 382.349 0.459985 -4.18882 0
M  V30 4101 H 381.073 1.04711 -3.09359 0
M  V30 4102 H 379.732 -1.04347 -3.51436 0
M  V30 4103 H 379.38 0.986359 -4.93234 0
M  V30 4104 H 379.08 -0.508377 -5.85397 0
M  V30 4105 H 380.604 0.392797 -6.09335 0
M  V30 4106 H 382.018 -1.78504 -5.44802 0
M  V30 4107 H 380.415 -2.57573 -5.42011 0
M  V30 4108 H 381.485 -2.72042 -4.01399 0
M  V30 4109 N 382.828 1.3818 -0.7579 0
M  V30 4110 C 384.244 1.5353 -0.435972 0
M  V30 4111 C 384.444 1.71961 1.05032 0
M  V30 4112 O 383.5 1.73307 1.83633 0
M  V30 4113 C 384.813 2.73989 -1.23898 0
M  V30 4114 C 386.361 2.87841 -1.22949 0
M  V30 4115 C 386.836 4.11266 -2.01554 0
M  V30 4116 N 388.327 4.18352 -1.98837 0
M  V30 4117 C 389.062 5.12856 -2.5645 0
M  V30 4118 N 388.558 6.13005 -3.22794 0
M  V30 4119 N 390.351 5.05238 -2.46356 0
M  V30 4120 H 382.502 1.24467 -1.7211 0
M  V30 4121 H 384.765 0.604982 -0.729864 0
M  V30 4122 H 384.471 2.66789 -2.29165 0
M  V30 4123 H 384.345 3.67294 -0.858764 0
M  V30 4124 H 386.732 2.9452 -0.184854 0
M  V30 4125 H 386.813 1.95534 -1.64924 0
M  V30 4126 H 386.457 4.05349 -3.06031 0
M  V30 4127 H 386.387 5.02661 -1.5697 0
M  V30 4128 H 388.878 3.46628 -1.50524 0
M  V30 4129 H 389.191 6.81619 -3.64165 0
M  V30 4130 H 387.536 6.13325 -3.2689 0
M  V30 4131 H 390.727 4.25938 -1.9415 0
M  V30 4132 H 390.9 5.78707 -2.91552 0
M  V30 4133 N 384.306 0.507319 1.49211 0
M  V30 4134 C 385.254 -0.281364 2.30892 0
M  V30 4135 C 386.248 -0.95687 1.39787 0
M  V30 4136 O 387.454 -0.883838 1.56807 0
M  V30 4137 H 383.829 -0.109597 0.743971 0
M  V30 4138 H 385.8 0.42744 2.95323 0
M  V30 4139 C 384.549 -1.32918 3.21291 0
M  V30 4140 H 383.872 -0.818799 3.91326 0
M  V30 4141 H 385.312 -1.85288 3.81372 0
M  V30 4142 C 383.771 -2.35074 2.41333 0
M  V30 4143 O 384.301 -3.4108 2.12197 0
M  V30 4144 N 382.507 -2.07705 2.03241 0
M  V30 4145 H 382.054 -1.2152 2.27136 0
M  V30 4146 H 382.012 -2.76283 1.50051 0
M  V30 4147 N 385.784 -1.5574 0.241426 0
M  V30 4148 C 386.731 -2.21149 -0.660432 0
M  V30 4149 C 387.701 -1.17356 -1.17545 0
M  V30 4150 O 388.886 -1.45784 -1.23093 0
M  V30 4151 C 386.026 -2.91059 -1.85414 0
M  V30 4152 C 385.139 -4.09495 -1.37616 0
M  V30 4153 C 384.274 -4.67135 -2.529 0
M  V30 4154 C 383.313 -5.77831 -2.01936 0
M  V30 4155 N 382.45 -6.29677 -3.10566 0
M  V30 4156 H 387.29 -2.97845 -0.095955 0
M  V30 4157 H 384.827 -1.47057 -0.0356024 0
M  V30 4158 H 386.785 -3.29788 -2.5553 0
M  V30 4159 H 385.415 -2.16846 -2.39118 0
M  V30 4160 H 384.467 -3.76117 -0.569235 0
M  V30 4161 H 385.779 -4.89423 -0.962618 0
M  V30 4162 H 384.933 -5.08409 -3.31067 0
M  V30 4163 H 383.672 -3.86411 -2.97553 0
M  V30 4164 H 382.677 -5.36039 -1.22238 0
M  V30 4165 H 383.902 -6.60402 -1.58259 0
M  V30 4166 H 381.848 -5.5186 -3.54664 0
M  V30 4167 H 381.765 -7.04783 -2.73526 0
M  V30 4168 H 383.033 -6.75609 -3.88809 0
M  V30 4169 N 387.262 0.0317525 -1.57568 0
M  V30 4170 C 388.212 1.04101 -2.02847 0
M  V30 4171 C 389.196 1.3219 -0.917317 0
M  V30 4172 O 390.388 1.31819 -1.18121 0
M  V30 4173 C 387.517 2.34295 -2.5092 0
M  V30 4174 C 386.603 2.09308 -3.68851 0
M  V30 4175 N 386.994 1.5437 -4.81667 0
M  V30 4176 C 385.292 2.39604 -3.76172 0
M  V30 4177 C 385.993 1.45126 -5.63306 0
M  V30 4178 N 384.969 1.92589 -5.08341 0
M  V30 4179 H 388.771 0.610217 -2.87495 0
M  V30 4180 H 386.285 0.238108 -1.60645 0
M  V30 4181 H 388.282 3.07404 -2.81617 0
M  V30 4182 H 386.942 2.78055 -1.67677 0
M  V30 4183 H 387.953 1.22678 -5.03161 0
M  V30 4184 H 384.63 2.86457 -3.03724 0
M  V30 4185 H 386.02 1.03163 -6.63933 0
M  V30 4186 N 388.74 1.54641 0.303973 0
M  V30 4187 C 389.65 1.88439 1.39743 0
M  V30 4188 C 390.666 0.778239 1.55626 0
M  V30 4189 O 391.842 1.07442 1.70347 0
M  V30 4190 C 388.907 2.12212 2.74166 0
M  V30 4191 C 387.968 3.35936 2.67293 0
M  V30 4192 C 387.201 3.58566 3.95305 0
M  V30 4193 O 387.424 2.84263 4.9452 0
M  V30 4194 O 386.358 4.52078 3.97378 0
M  V30 4195 H 390.184 2.81458 1.14083 0
M  V30 4196 H 387.769 1.40793 0.499768 0
M  V30 4197 H 389.651 2.29067 3.53704 0
M  V30 4198 H 388.326 1.22379 2.99675 0
M  V30 4199 H 387.233 3.24448 1.86237 0
M  V30 4200 H 388.566 4.2589 2.46736 0
M  V30 4201 N 390.218 -0.567019 1.47046 0
M  V30 4202 C 391.151 -1.69016 1.53326 0
M  V30 4203 C 392.129 -1.57949 0.386126 0
M  V30 4204 O 393.313 -1.78945 0.592529 0
M  V30 4205 C 390.44 -3.07191 1.42658 0
M  V30 4206 C 389.486 -3.36733 2.6175 0
M  V30 4207 S 390.319 -3.27069 4.24012 0
M  V30 4208 C 391.475 -4.67755 4.1588 0
M  V30 4209 H 391.708 -1.63434 2.48348 0
M  V30 4210 H 389.241 -0.747048 1.35124 0
M  V30 4211 H 391.199 -3.86897 1.37191 0
M  V30 4212 H 389.86 -3.10249 0.490369 0
M  V30 4213 H 389.053 -4.37441 2.50323 0
M  V30 4214 H 388.655 -2.64627 2.64289 0
M  V30 4215 H 390.947 -5.58491 3.83529 0
M  V30 4216 H 391.89 -4.84239 5.16641 0
M  V30 4217 H 392.298 -4.45341 3.46889 0
M  V30 4218 N 391.696 -1.35014 -0.812953 0
M  V30 4219 C 392.942 -1.2812 -1.57204 0
M  V30 4220 C 393.275 0.145869 -1.93651 0
M  V30 4221 O 392.55 1.0937 -1.60836 0
M  V30 4222 C 392.833 -2.18162 -2.86492 0
M  V30 4223 C 392.686 -3.69454 -2.56561 0
M  V30 4224 C 394.005 -2.07439 -3.88145 0
M  V30 4225 H 391.124 -0.466746 -0.570366 0
M  V30 4226 H 393.766 -1.65357 -0.935783 0
M  V30 4227 H 391.916 -1.86535 -3.40789 0
M  V30 4228 H 393.588 -4.11493 -2.08497 0
M  V30 4229 H 391.831 -3.9005 -1.89851 0
M  V30 4230 H 392.502 -4.27835 -3.48799 0
M  V30 4231 H 394.978 -2.35228 -3.4323 0
M  V30 4232 H 393.854 -2.7265 -4.76396 0
M  V30 4233 H 394.115 -1.05439 -4.29343 0
M  V30 4234 N 393.175 1.03435 -1.18907 0
M  V30 4235 C 394.421 1.77005 -0.989798 0
M  V30 4236 C 394.754 1.88205 0.478816 0
M  V30 4237 O 394.029 1.39481 1.35556 0
M  V30 4238 C 394.312 3.19925 -1.65287 0
M  V30 4239 C 394.165 3.1663 -3.19477 0
M  V30 4240 C 395.484 4.18189 -1.37134 0
M  V30 4241 H 392.603 0.642538 -0.360991 0
M  V30 4242 H 395.245 1.20784 -1.46667 0
M  V30 4243 H 393.395 3.67929 -1.24741 0
M  V30 4244 H 395.067 2.76567 -3.692 0
M  V30 4245 H 393.31 2.54491 -3.51307 0
M  V30 4246 H 393.981 4.1758 -3.61013 0
M  V30 4247 H 396.457 3.78761 -1.72276 0
M  V30 4248 H 395.333 5.16394 -1.86087 0
M  V30 4249 H 395.594 4.41112 -0.295424 0
M  V30 4250 N 394.653 0.992116 1.22453 0
M  V30 4251 C 395.883 0.684949 1.94915 0
M  V30 4252 C 396.291 -0.754292 1.73514 0
M  V30 4253 O 395.634 -1.52056 1.03076 0
M  V30 4254 C 395.696 0.910054 3.47791 0
M  V30 4255 C 395.36 2.33363 3.92926 0
M  V30 4256 C 396.357 3.31308 4.00663 0
M  V30 4257 C 394.042 2.66785 4.25595 0
M  V30 4258 C 396.036 4.6075 4.40441 0
M  V30 4259 C 393.723 3.96446 4.65053 0
M  V30 4260 C 394.721 4.9324 4.72444 0
M  V30 4261 O 394.409 6.20584 5.1101 0
M  V30 4262 H 394.141 0.25258 0.62704 0
M  V30 4263 H 396.695 1.32939 1.56577 0
M  V30 4264 H 394.925 0.208443 3.86138 0
M  V30 4265 H 396.614 0.598257 4.01467 0
M  V30 4266 H 397.38 3.0682 3.75615 0
M  V30 4267 H 393.259 1.92148 4.19047 0
M  V30 4268 H 396.803 5.363 4.46126 0
M  V30 4269 H 392.7 4.20724 4.89552 0
M  V30 4270 H 393.468 6.24509 5.29085 0
M  V30 4271 N 396.131 -1.37776 0.765217 0
M  V30 4272 C 397.041 -2.34135 0.147666 0
M  V30 4273 C 398.057 -1.59854 -0.687215 0
M  V30 4274 O 399.233 -1.91983 -0.608659 0
M  V30 4275 C 396.298 -3.3901 -0.72617 0
M  V30 4276 C 395.359 -4.2912 0.124417 0
M  V30 4277 C 394.592 -5.28986 -0.707807 0
M  V30 4278 O 394.815 -5.36205 -1.94525 0
M  V30 4279 O 393.749 -6.01779 -0.12046 0
M  V30 4280 H 397.575 -2.88664 0.943758 0
M  V30 4281 H 395.16 -1.39824 0.526277 0
M  V30 4282 H 397.042 -4.03195 -1.22524 0
M  V30 4283 H 395.717 -2.86819 -1.50056 0
M  V30 4284 H 394.624 -3.68057 0.669696 0
M  V30 4285 H 395.957 -4.84598 0.861736 0
M  V30 4286 N 397.609 -0.515225 -1.4894 0
M  V30 4287 C 398.572 0.244681 -2.2789 0
M  V30 4288 C 399.572 0.881166 -1.34507 0
M  V30 4289 O 400.762 0.743497 -1.57537 0
M  V30 4290 C 397.894 1.35247 -3.12923 0
M  V30 4291 H 399.087 -0.448289 -2.96531 0
M  V30 4292 H 396.64 -0.270656 -1.53939 0
M  V30 4293 H 397.375 2.07916 -2.48881 0
M  V30 4294 H 397.16 0.901374 -3.81599 0
M  V30 4295 H 398.65 1.88737 -3.72516 0
M  V30 4296 N 399.087 1.5561 -0.249682 0
M  V30 4297 C 400.05 2.20217 0.635394 0
M  V30 4298 C 401.05 1.17227 1.10066 0
M  V30 4299 O 402.24 1.42292 1.00492 0
M  V30 4300 C 399.372 2.84794 1.87363 0
M  V30 4301 H 400.565 2.99814 0.0716752 0
M  V30 4302 H 398.118 1.563 -0.000153234 0
M  V30 4303 H 398.853 2.09142 2.47851 0
M  V30 4304 H 398.638 3.60241 1.5482 0
M  V30 4305 H 400.128 3.3423 2.5036 0
M  V30 4306 N 400.565 -0.0233959 1.57583 0
M  V30 4307 C 401.79 -0.728376 1.94189 0
M  V30 4308 C 402.215 -1.67793 0.850119 0
M  V30 4309 O 401.573 -1.80262 -0.19371 0
M  V30 4310 C 401.621 -1.45669 3.29868 0
M  V30 4311 O 400.725 -2.57013 3.22518 0
M  V30 4312 H 400.066 -0.195493 0.63457 0
M  V30 4313 H 402.596 0.0228214 2.04587 0
M  V30 4314 H 402.606 -1.82535 3.6489 0
M  V30 4315 H 401.281 -0.760314 4.08891 0
M  V30 4316 H 399.858 -2.22648 2.99136 0
M  V30 4317 N 402.043 -1.548 -0.295768 0
M  V30 4318 C 403.006 -1.85363 -1.34808 0
M  V30 4319 C 404.006 -0.726817 -1.43436 0
M  V30 4320 O 405.196 -0.995088 -1.42981 0
M  V30 4321 C 402.328 -2.03859 -2.73229 0
M  V30 4322 H 403.521 -2.7941 -1.08949 0
M  V30 4323 H 401.074 -1.46942 -0.532702 0
M  V30 4324 H 401.809 -1.12117 -3.04303 0
M  V30 4325 H 401.594 -2.8588 -2.68356 0
M  V30 4326 H 403.084 -2.28857 -3.49305 0
M  V30 4327 N 403.521 0.559213 -1.47345 0
M  V30 4328 C 404.77 1.31281 -1.53128 0
M  V30 4329 C 405.083 1.94602 -0.197344 0
M  V30 4330 O 406.289 2.71173 -0.133154 0
M  V30 4331 C 404.745 2.38051 -2.69925 0
M  V30 4332 C 404.353 1.8093 -4.0984 0
M  V30 4333 C 406.097 3.14604 -2.84999 0
M  V30 4334 C 404.004 2.85468 -5.1794 0
M  V30 4335 H 402.934 0.493614 -0.569966 0
M  V30 4336 H 405.585 0.594155 -1.73615 0
M  V30 4337 H 403.967 3.12822 -2.42814 0
M  V30 4338 H 405.141 1.12544 -4.46845 0
M  V30 4339 H 403.456 1.16967 -3.99634 0
M  V30 4340 H 406.053 3.92666 -3.62929 0
M  V30 4341 H 406.396 3.68665 -1.93369 0
M  V30 4342 H 406.929 2.46945 -3.1187 0
M  V30 4343 H 403.668 2.36264 -6.1144 0
M  V30 4344 H 403.188 3.52269 -4.85455 0
M  V30 4345 H 404.867 3.48996 -5.44803 0
M  V30 4346 N 404.999 1.35443 0.805782 0
M  V30 4347 C 406.245 1.28952 1.56522 0
M  V30 4348 C 406.578 -0.135597 1.93726 0
M  V30 4349 O 405.853 -1.08516 1.61414 0
M  V30 4350 C 406.136 2.19678 2.85331 0
M  V30 4351 C 405.989 3.7081 2.54598 0
M  V30 4352 C 407.308 2.09495 3.8704 0
M  V30 4353 H 404.427 0.469764 0.567883 0
M  V30 4354 H 407.069 1.65851 0.927001 0
M  V30 4355 H 405.219 1.8834 3.39795 0
M  V30 4356 H 406.891 4.12593 2.06312 0
M  V30 4357 H 405.134 3.91051 1.8778 0
M  V30 4358 H 405.805 4.29679 3.46525 0
M  V30 4359 H 408.281 2.37045 3.41978 0
M  V30 4360 H 407.157 2.75173 4.74943 0
M  V30 4361 H 407.418 1.07714 4.28777 0
M  V30 4362 N 406.477 -1.02803 1.19454 0
M  V30 4363 C 407.425 -2.13213 0.929673 0
M  V30 4364 C 408.419 -1.69011 -0.114806 0
M  V30 4365 O 409.625 -1.79967 0.0345147 0
M  V30 4366 H 406 -0.69662 0.28324 0
M  V30 4367 H 407.971 -2.32744 1.86743 0
M  V30 4368 C 406.72 -3.4429 0.485797 0
M  V30 4369 H 406.043 -3.7872 1.28105 0
M  V30 4370 H 407.483 -4.22638 0.339582 0
M  V30 4371 C 405.942 -3.27258 -0.800244 0
M  V30 4372 O 406.472 -3.55967 -1.86146 0
M  V30 4373 N 404.678 -2.80545 -0.75781 0
M  V30 4374 H 404.225 -2.57382 0.106039 0
M  V30 4375 H 404.183 -2.6953 -1.61867 0
M  V30 4376 N 407.956 -0.998596 -1.21925 0
M  V30 4377 C 408.886 -0.573688 -2.26343 0
M  V30 4378 C 409.867 0.402296 -1.65274 0
M  V30 4379 O 411.052 0.291683 -1.91997 0
M  V30 4380 C 408.182 0.106839 -3.47136 0
M  V30 4381 C 407.136 -0.788269 -4.20678 0
M  V30 4382 C 406.462 0.0254927 -5.34694 0
M  V30 4383 C 407.762 -2.08784 -4.78755 0
M  V30 4384 H 409.456 -1.44651 -2.62138 0
M  V30 4385 H 407.002 -0.696975 -1.26009 0
M  V30 4386 H 408.955 0.415531 -4.19346 0
M  V30 4387 H 407.679 1.01424 -3.10452 0
M  V30 4388 H 406.338 -1.08069 -3.50309 0
M  V30 4389 H 405.986 0.933989 -4.94253 0
M  V30 4390 H 405.686 -0.570437 -5.84825 0
M  V30 4391 H 407.21 0.328147 -6.09718 0
M  V30 4392 H 408.624 -1.84272 -5.42878 0
M  V30 4393 H 407.021 -2.63307 -5.39249 0
M  V30 4394 H 408.091 -2.76284 -3.98491 0
M  V30 4395 N 409.434 1.37368 -0.772513 0
M  V30 4396 C 410.845 1.8231 -0.402493 0
M  V30 4397 C 411.196 1.6436 1.07146 0
M  V30 4398 O 410.321 1.15514 1.82991 0
M  V30 4399 C 410.916 3.30979 -0.723776 0
M  V30 4400 C 409.475 3.74195 -0.406802 0
M  V30 4401 C 408.622 2.59885 -0.967218 0
M  V30 4402 H 411.573 1.25829 -0.967099 0
M  V30 4403 H 411.594 3.80499 -0.00870832 0
M  V30 4404 H 411.106 3.44011 -1.7966 0
M  V30 4405 H 409.207 3.66732 0.658673 0
M  V30 4406 H 409.32 4.7027 -0.915588 0
M  V30 4407 H 407.684 2.51674 -0.391416 0
M  V30 4408 H 408.467 2.7571 -2.04546 0
M  V30 4409 N 410.912 0.523116 1.48665 0
M  V30 4410 C 412.16 -0.0134497 2.02096 0
M  V30 4411 C 412.481 -1.35418 1.40311 0
M  V30 4412 O 411.751 -1.87543 0.566074 0
M  V30 4413 H 410.331 -0.00795915 0.746958 0
M  V30 4414 H 412.993 0.685388 1.82451 0
M  V30 4415 H 412.089 -0.126849 3.11842 0
M  V30 4416 N 412.39 -1.55475 0.257931 0
M  V30 4417 C 413.63 -2.01112 -0.365129 0
M  V30 4418 C 413.994 -1.1423 -1.54323 0
M  V30 4419 O 415.195 -1.49371 -2.23477 0
M  V30 4420 C 413.466 -3.49353 -0.754117 0
M  V30 4421 S 415.025 -4.16992 -1.36614 0
M  V30 4422 H 411.843 -0.701737 -0.114397 0
M  V30 4423 H 414.445 -1.91855 0.375747 0
M  V30 4424 H 413.149 -4.10246 0.112441 0
M  V30 4425 H 412.68 -3.6256 -1.52689 0
M  V30 4426 H 414.695 -4.19191 -2.65505 0
M  V30 4427 N 413.868 0.0150385 -1.57593 0
M  V30 4428 C 415.093 0.718067 -1.94573 0
M  V30 4429 C 415.518 1.6734 -0.859005 0
M  V30 4430 O 414.876 1.80362 0.184147 0
M  V30 4431 C 414.924 1.43918 -3.30636 0
M  V30 4432 O 414.028 2.55299 -3.23876 0
M  V30 4433 H 413.369 0.192125 -0.635597 0
M  V30 4434 H 415.899 -0.0336708 -2.04572 0
M  V30 4435 H 415.909 1.80598 -3.65853 0
M  V30 4436 H 414.584 0.738619 -4.09289 0
M  V30 4437 H 413.161 2.21058 -3.00312 0
M  V30 4438 N 415.346 1.54954 0.287554 0
M  V30 4439 C 416.309 1.86076 1.33823 0
M  V30 4440 C 417.309 0.734414 1.43049 0
M  V30 4441 O 418.499 1.00266 1.42452 0
M  V30 4442 C 415.631 2.05305 2.72144 0
M  V30 4443 H 416.824 2.79984 1.07465 0
M  V30 4444 H 414.377 1.47223 0.524902 0
M  V30 4445 H 415.112 1.1373 3.03704 0
M  V30 4446 H 414.897 2.873 2.66836 0
M  V30 4447 H 416.387 2.30706 3.48087 0
M  V30 4448 N 416.824 -0.551391 1.4764 0
M  V30 4449 C 417.771 -1.65796 1.60563 0
M  V30 4450 C 418.741 -1.59932 0.448428 0
M  V30 4451 O 419.926 -1.78679 0.669222 0
M  V30 4452 C 417.066 -3.04108 1.63133 0
M  V30 4453 C 416.179 -3.20365 2.89811 0
M  V30 4454 C 415.314 -4.49109 2.8368 0
M  V30 4455 C 414.353 -4.58819 4.05156 0
M  V30 4456 N 413.49 -5.78926 3.97227 0
M  V30 4457 H 418.33 -1.54088 2.5507 0
M  V30 4458 H 415.867 -0.75052 1.26513 0
M  V30 4459 H 417.825 -3.84207 1.62606 0
M  V30 4460 H 416.455 -3.14637 0.721341 0
M  V30 4461 H 415.507 -2.33659 3.00179 0
M  V30 4462 H 416.819 -3.23402 3.79753 0
M  V30 4463 H 415.973 -5.37475 2.81434 0
M  V30 4464 H 414.712 -4.4856 1.91431 0
M  V30 4465 H 413.717 -3.68864 4.077 0
M  V30 4466 H 414.942 -4.61124 4.98539 0
M  V30 4467 H 412.888 -5.79314 3.07785 0
M  V30 4468 H 412.805 -5.83367 4.80853 0
M  V30 4469 H 414.073 -6.69637 3.99007 0
M  V30 4470 N 418.302 -1.35869 -0.798587 0
M  V30 4471 C 419.212 -1.31578 -1.94228 0
M  V30 4472 C 420.228 -0.21939 -1.72611 0
M  V30 4473 O 421.404 -0.450167 -1.96305 0
M  V30 4474 C 418.469 -1.09528 -3.28944 0
M  V30 4475 C 417.53 -2.28556 -3.63402 0
M  V30 4476 C 416.763 -2.07549 -4.9169 0
M  V30 4477 O 416.986 -1.046 -5.60727 0
M  V30 4478 O 415.92 -2.95106 -5.24591 0
M  V30 4479 H 419.746 -2.27847 -2.00796 0
M  V30 4480 H 417.331 -1.16322 -0.937526 0
M  V30 4481 H 419.213 -0.991127 -4.09579 0
M  V30 4482 H 417.888 -0.16315 -3.23289 0
M  V30 4483 H 416.795 -2.44538 -2.83112 0
M  V30 4484 H 418.128 -3.20244 -3.73771 0
M  V30 4485 N 419.78 1.02168 -1.19998 0
M  V30 4486 C 420.71 2.12488 -0.96804 0
M  V30 4487 C 421.691 1.69799 0.101185 0
M  V30 4488 O 422.876 1.94121 -0.0552993 0
M  V30 4489 C 420.006 3.43479 -0.513776 0
M  V30 4490 C 418.96 3.99884 -1.52566 0
M  V30 4491 C 418.286 5.26582 -0.928214 0
M  V30 4492 C 419.586 4.33861 -2.90795 0
M  V30 4493 H 421.28 2.32149 -1.89069 0
M  V30 4494 H 418.826 1.11564 -0.910468 0
M  V30 4495 H 420.779 4.20036 -0.338774 0
M  V30 4496 H 419.503 3.23561 0.444493 0
M  V30 4497 H 418.162 3.25429 -1.68794 0
M  V30 4498 H 417.81 5.02986 0.0378289 0
M  V30 4499 H 417.51 5.65284 -1.60397 0
M  V30 4500 H 419.034 6.05799 -0.764167 0
M  V30 4501 H 420.448 5.01327 -2.78109 0
M  V30 4502 H 418.845 4.83664 -3.55231 0
M  V30 4503 H 419.915 3.42848 -3.42904 0
M  V30 4504 N 421.258 1.00505 1.21394 0
M  V30 4505 C 422.221 0.570459 2.21987 0
M  V30 4506 C 423.221 -0.353211 1.56873 0
M  V30 4507 O 424.411 -0.14349 1.73608 0
M  V30 4508 C 421.543 -0.168555 3.40483 0
M  V30 4509 H 422.736 1.46021 2.6195 0
M  V30 4510 H 420.289 0.793565 1.34656 0
M  V30 4511 H 421.024 -1.07374 3.06009 0
M  V30 4512 H 420.809 0.494823 3.88965 0
M  V30 4513 H 422.299 -0.460362 4.15055 0
M  V30 4514 N 422.737 -1.36956 0.779787 0
M  V30 4515 C 424.148 -1.82094 0.412156 0
M  V30 4516 C 424.499 -1.64926 -1.06273 0
M  V30 4517 O 423.624 -1.16483 -1.82375 0
M  V30 4518 C 424.219 -3.3059 0.741319 0
M  V30 4519 C 422.778 -3.73974 0.426641 0
M  V30 4520 C 421.925 -2.59368 0.980987 0
M  V30 4521 H 424.876 -1.25314 0.973758 0
M  V30 4522 H 424.897 -3.80489 0.028887 0
M  V30 4523 H 424.409 -3.43054 1.81482 0
M  V30 4524 H 422.51 -3.67076 -0.639215 0
M  V30 4525 H 422.623 -4.69778 0.940515 0
M  V30 4526 H 420.987 -2.51463 0.404757 0
M  V30 4527 H 421.77 -2.74621 2.06005 0
M  V30 4528 N 424.215 -0.530993 -1.48385 0
M  V30 4529 C 425.178 0.220497 -2.28137 0
M  V30 4530 C 426.178 0.866851 -1.35434 0
M  V30 4531 O 427.368 0.726746 -1.58316 0
M  V30 4532 C 424.5 1.31921 -3.1434 0
M  V30 4533 H 425.693 -0.479714 -2.96038 0
M  V30 4534 H 423.246 -0.286968 -1.53643 0
M  V30 4535 H 423.981 2.05264 -2.51072 0
M  V30 4536 H 423.766 0.86085 -3.82533 0
M  V30 4537 H 425.256 1.84776 -3.74497 0
M  V30 4538 N 425.693 1.55336 -0.266172 0
M  V30 4539 C 426.939 1.99692 0.353681 0
M  V30 4540 C 427.272 1.1543 1.56172 0
M  V30 4541 O 426.547 0.222218 1.93226 0
M  V30 4542 C 426.83 3.52316 0.74466 0
M  V30 4543 C 426.683 4.47337 -0.470101 0
M  V30 4544 C 428.002 4.10588 1.58447 0
M  V30 4545 H 425.121 0.725961 0.12708 0
M  V30 4546 H 427.763 1.86336 -0.371333 0
M  V30 4547 H 425.913 3.63829 1.36239 0
M  V30 4548 H 427.585 4.4778 -1.10864 0
M  V30 4549 H 425.828 4.19364 -1.10978 0
M  V30 4550 H 426.499 5.51788 -0.15291 0
M  V30 4551 H 428.975 4.02297 1.06286 0
M  V30 4552 H 427.851 5.17607 1.82686 0
M  V30 4553 H 428.112 3.60253 2.56262 0
M  V30 4554 N 427.171 -0.0066808 1.57599 0
M  V30 4555 C 428.396 -0.707738 1.94951 0
M  V30 4556 C 428.821 -1.66882 0.867868 0
M  V30 4557 O 428.179 -1.80457 -0.17458 0
M  V30 4558 C 428.227 -1.42162 3.31394 0
M  V30 4559 O 427.331 -2.53578 3.25226 0
M  V30 4560 H 426.672 -0.188752 0.636607 0
M  V30 4561 H 429.202 0.0445193 2.04552 0
M  V30 4562 H 429.212 -1.78655 3.66806 0
M  V30 4563 H 427.887 -0.716903 4.09675 0
M  V30 4564 H 426.464 -2.19463 3.01481 0
M  V30 4565 N 428.649 -1.55105 -0.279332 0
M  V30 4566 C 429.895 -1.75672 -1.01327 0
M  V30 4567 C 430.228 -0.552739 -1.86168 0
M  V30 4568 O 429.503 0.449827 -1.89227 0
M  V30 4569 C 429.786 -3.05825 -1.90114 0
M  V30 4570 C 429.639 -4.36565 -1.08309 0
M  V30 4571 C 430.958 -3.31975 -2.8893 0
M  V30 4572 H 428.077 -0.639149 -0.366957 0
M  V30 4573 H 430.719 -1.87833 -0.286154 0
M  V30 4574 H 428.869 -2.95588 -2.52111 0
M  V30 4575 H 430.541 -4.58751 -0.484314 0
M  V30 4576 H 428.784 -4.32076 -0.386362 0
M  V30 4577 H 429.455 -5.23946 -1.73737 0
M  V30 4578 H 431.931 -3.41963 -2.37067 0
M  V30 4579 H 430.807 -4.2432 -3.48201 0
M  V30 4580 H 431.068 -2.51309 -3.63725 0
M  V30 4581 N 430.127 0.543554 -1.4793 0
M  V30 4582 C 431.057 1.65888 -1.64327 0
M  V30 4583 C 432.038 1.62818 -0.492383 0
M  V30 4584 O 433.223 1.80226 -0.723338 0
M  V30 4585 C 430.353 3.04506 -1.67013 0
M  V30 4586 C 429.307 3.2243 -2.81466 0
M  V30 4587 C 428.633 4.61972 -2.69233 0
M  V30 4588 C 429.933 3.06496 -4.22915 0
M  V30 4589 H 431.627 1.52421 -2.57698 0
M  V30 4590 H 429.173 0.731849 -1.24016 0
M  V30 4591 H 431.126 3.82391 -1.77074 0
M  V30 4592 H 429.85 3.18964 -0.70212 0
M  V30 4593 H 428.509 2.46957 -2.70938 0
M  V30 4594 H 428.157 4.73247 -1.7043 0
M  V30 4595 H 427.857 4.74911 -3.46025 0
M  V30 4596 H 429.381 5.41974 -2.81242 0
M  V30 4597 H 430.795 3.74186 -4.34348 0
M  V30 4598 H 429.192 3.30938 -5.006 0
M  V30 4599 H 430.262 2.03077 -4.40327 0
M  V30 4600 N 431.605 1.3629 0.791371 0
M  V30 4601 C 432.537 1.26321 1.91248 0
M  V30 4602 C 433.55 0.18313 1.61767 0
M  V30 4603 O 434.739 0.437682 1.73051 0
M  V30 4604 C 431.839 0.925901 3.26007 0
M  V30 4605 C 431.012 2.10746 3.83281 0
M  V30 4606 C 430.071 1.74352 4.96475 0
M  V30 4607 O 429.097 2.46416 5.13096 0
M  V30 4608 N 430.299 0.676058 5.7655 0
M  V30 4609 H 433.064 2.22915 2.00323 0
M  V30 4610 H 430.625 1.29659 0.969546 0
M  V30 4611 H 432.617 0.663636 3.99222 0
M  V30 4612 H 431.187 0.0491581 3.12561 0
M  V30 4613 H 430.407 2.53264 3.02077 0
M  V30 4614 H 431.695 2.8969 4.18279 0
M  V30 4615 H 431.093 0.0776467 5.65647 0
M  V30 4616 H 429.65 0.473612 6.50077 0
M  V30 4617 N 433.083 -1.0153 1.20538 0
M  V30 4618 C 434.013 -2.11972 0.979295 0
M  V30 4619 C 434.994 -1.6985 -0.0921787 0
M  V30 4620 O 436.179 -1.94089 0.0655932 0
M  V30 4621 C 433.309 -3.43201 0.531984 0
M  V30 4622 C 432.263 -3.9907 1.54685 0
M  V30 4623 C 431.589 -5.26082 0.956127 0
M  V30 4624 C 432.889 -4.32313 2.93092 0
M  V30 4625 H 434.583 -2.31143 1.90298 0
M  V30 4626 H 432.129 -1.11079 0.916372 0
M  V30 4627 H 434.082 -4.1985 0.361044 0
M  V30 4628 H 432.806 -3.23792 -0.427327 0
M  V30 4629 H 431.465 -3.2453 1.70517 0
M  V30 4630 H 431.113 -5.02999 -0.0111538 0
M  V30 4631 H 430.813 -5.64426 1.63393 0
M  V30 4632 H 432.337 -6.05386 0.796284 0
M  V30 4633 H 433.751 -4.99845 2.80763 0
M  V30 4634 H 432.148 -4.81774 3.57791 0
M  V30 4635 H 433.218 -3.41025 3.44717 0
M  V30 4636 N 434.561 -1.01147 -1.20859 0
M  V30 4637 C 435.808 -0.697865 -1.90095 0
M  V30 4638 C 436.136 0.772014 -1.78522 0
M  V30 4639 O 435.391 1.57595 -1.16027 0
M  V30 4640 C 435.69 -1.0727 -3.40922 0
M  V30 4641 C 435.356 -2.53792 -3.72693 0
M  V30 4642 C 434.018 -2.93829 -3.81075 0
M  V30 4643 C 436.37 -3.48674 -3.87397 0
M  V30 4644 C 433.698 -4.27696 -4.01613 0
M  V30 4645 C 436.05 -4.82223 -4.09444 0
M  V30 4646 C 434.714 -5.21973 -4.16054 0
M  V30 4647 H 433.984 -0.255367 -0.695607 0
M  V30 4648 H 436.631 -1.27111 -1.43231 0
M  V30 4649 H 434.936 -0.417799 -3.89566 0
M  V30 4650 H 436.633 -0.807818 -3.92779 0
M  V30 4651 H 433.223 -2.21768 -3.66765 0
M  V30 4652 H 437.407 -3.18904 -3.80281 0
M  V30 4653 H 432.663 -4.58055 -4.04964 0
M  V30 4654 H 436.837 -5.55672 -4.19763 0
M  V30 4655 H 434.464 -6.25717 -4.31721 0
M  V30 4656 N 436.039 1.36541 -0.78704 0
M  V30 4657 C 437.279 2.01138 -0.363714 0
M  V30 4658 C 437.643 1.61114 1.04433 0
M  V30 4659 O 438.844 2.18285 1.56861 0
M  V30 4660 C 437.115 3.53603 -0.519582 0
M  V30 4661 S 438.674 4.38415 -0.183782 0
M  V30 4662 H 435.492 0.697263 -0.13909 0
M  V30 4663 H 438.094 1.66475 -1.02501 0
M  V30 4664 H 436.798 3.8022 -1.5447 0
M  V30 4665 H 436.329 3.93084 0.15773 0
M  V30 4666 H 438.344 4.85698 1.01547 0
M  V30 4667 N 437.518 0.538854 1.48102 0
M  V30 4668 C 438.743 0.0102694 2.07397 0
M  V30 4669 C 439.168 -1.26562 1.39153 0
M  V30 4670 O 438.526 -1.75357 0.460387 0
M  V30 4671 C 438.574 -0.187602 3.60112 0
M  V30 4672 O 437.678 -1.25432 3.92862 0
M  V30 4673 H 437.019 0.0430975 0.6626 0
M  V30 4674 H 439.549 0.749301 1.90385 0
M  V30 4675 H 439.559 -0.407517 4.0596 0
M  V30 4676 H 438.234 0.744386 4.09184 0
M  V30 4677 H 436.811 -1.01636 3.58782 0
M  V30 4678 N 438.996 -1.55193 0.274407 0
M  V30 4679 C 440.221 -2.04446 -0.348824 0
M  V30 4680 C 440.646 -1.15149 -1.48735 0
M  V30 4681 O 440.004 -0.149952 -1.80679 0
M  V30 4682 C 440.052 -3.51431 -0.808009 0
M  V30 4683 O 439.156 -3.65225 -1.91531 0
M  V30 4684 H 438.497 -0.66006 -0.0722276 0
M  V30 4685 H 441.027 -2.00481 0.408498 0
M  V30 4686 H 441.037 -3.92781 -1.10395 0
M  V30 4687 H 439.712 -4.15892 0.0249865 0
M  V30 4688 H 438.289 -3.35778 -1.62196 0
M  V30 4689 N 440.474 -0.00167713 -1.576 0
M  V30 4690 C 441.885 0.54091 -1.78693 0
M  V30 4691 C 442.236 1.7386 -0.909247 0
M  V30 4692 O 441.361 2.16109 -0.112176 0
M  V30 4693 C 441.956 0.98806 -3.24072 0
M  V30 4694 C 440.515 1.47594 -3.46256 0
M  V30 4695 C 439.662 0.42792 -2.73978 0
M  V30 4696 H 442.613 -0.22784 -1.57056 0
M  V30 4697 H 442.634 1.85398 -3.32277 0
M  V30 4698 H 442.146 0.116164 -3.87926 0
M  V30 4699 H 440.247 2.36868 -2.87618 0
M  V30 4700 H 440.36 1.50225 -4.54939 0
M  V30 4701 H 438.724 0.889934 -2.38647 0
M  V30 4702 H 439.507 -0.435038 -3.40532 0
M  V30 4703 N 441.952 1.55251 0.271103 0
M  V30 4704 C 442.899 1.88261 1.33516 0
M  V30 4705 C 443.869 0.734296 1.48988 0
M  V30 4706 O 445.054 0.985741 1.63364 0
M  V30 4707 C 442.194 2.16168 2.69008 0
M  V30 4708 C 441.307 3.43678 2.61743 0
M  V30 4709 C 440.442 3.61276 3.89427 0
M  V30 4710 C 439.481 4.82472 3.7668 0
M  V30 4711 N 438.618 4.96717 4.96202 0
M  V30 4712 H 443.458 2.79015 1.04665 0
M  V30 4713 H 440.995 1.38137 0.505618 0
M  V30 4714 H 442.953 2.30349 3.47844 0
M  V30 4715 H 441.583 1.28646 2.96057 0
M  V30 4716 H 440.635 3.37959 1.74607 0
M  V30 4717 H 441.947 4.3265 2.48224 0
M  V30 4718 H 441.101 3.75284 4.76704 0
M  V30 4719 H 439.84 2.70492 4.05814 0
M  V30 4720 H 438.845 4.68465 2.87786 0
M  V30 4721 H 440.07 5.74692 3.61809 0
M  V30 4722 H 438.016 4.08865 5.12997 0
M  V30 4723 H 437.933 5.79738 4.85222 0
M  V30 4724 H 439.201 5.15113 5.85046 0
M  V30 4725 N 443.43 -0.535701 1.48216 0
M  V30 4726 C 444.393 -1.623 1.61838 0
M  V30 4727 C 445.393 -1.53087 0.492024 0
M  V30 4728 O 446.583 -1.5686 0.757668 0
M  V30 4729 C 443.715 -3.01907 1.58319 0
M  V30 4730 H 444.908 -1.51564 2.58783 0
M  V30 4731 H 442.461 -0.757317 1.36727 0
M  V30 4732 H 443.196 -3.18155 0.628299 0
M  V30 4733 H 442.981 -3.10003 2.40085 0
M  V30 4734 H 444.471 -3.80969 1.71033 0
M  V30 4735 N 444.908 -1.36708 -0.784132 0
M  V30 4736 C 445.871 -1.31307 -1.87859 0
M  V30 4737 C 446.871 -0.219654 -1.59293 0
M  V30 4738 O 448.061 -0.47476 -1.67606 0
M  V30 4739 C 445.193 -1.03679 -3.24751 0
M  V30 4740 H 446.386 -2.28647 -1.94064 0
M  V30 4741 H 443.939 -1.21558 -0.98252 0
M  V30 4742 H 444.674 -0.0681936 -3.24228 0
M  V30 4743 H 444.459 -1.82811 -3.46876 0
M  V30 4744 H 445.949 -1.02518 -4.04821 0
M  V30 4745 N 446.386 1.0089 -1.21074 0
M  V30 4746 C 447.316 2.1145 -0.990523 0
M  V30 4747 C 448.297 1.69897 0.0831699 0
M  V30 4748 O 449.482 1.94052 -0.0758853 0
M  V30 4749 C 446.612 3.42914 -0.550177 0
M  V30 4750 C 445.566 3.98244 -1.56799 0
M  V30 4751 C 444.892 5.25568 -0.984013 0
M  V30 4752 C 446.192 4.30752 -2.95381 0
M  V30 4753 H 447.886 2.3013 -1.91521 0
M  V30 4754 H 445.432 1.10592 -0.92225 0
M  V30 4755 H 447.385 4.19653 -0.383305 0
M  V30 4756 H 446.109 3.24014 0.41015 0
M  V30 4757 H 444.768 3.23621 -1.72236 0
M  V30 4758 H 444.416 5.02998 -0.0155216 0
M  V30 4759 H 444.116 5.63551 -1.66384 0
M  V30 4760 H 445.64 6.04955 -0.828378 0
M  V30 4761 H 447.054 4.98349 -2.8341 0
M  V30 4762 H 445.451 4.79869 -3.60341 0
M  V30 4763 H 446.521 3.39192 -3.46521 0
M  V30 4764 N 447.864 1.01787 1.20321 0
M  V30 4765 C 449.28 0.732951 1.41774 0
M  V30 4766 C 449.48 -0.686883 1.89431 0
M  V30 4767 O 448.536 -1.45446 2.06402 0
M  V30 4768 C 449.849 1.75973 2.43832 0
M  V30 4769 C 451.397 1.77802 2.57596 0
M  V30 4770 C 451.872 2.7941 3.62897 0
M  V30 4771 N 453.363 2.78157 3.70382 0
M  V30 4772 C 454.098 3.53434 4.51521 0
M  V30 4773 N 453.594 4.38392 5.36455 0
M  V30 4774 N 455.387 3.42026 4.46066 0
M  V30 4775 H 447.538 1.93447 0.877035 0
M  V30 4776 H 449.801 0.835712 0.447536 0
M  V30 4777 H 449.507 2.77699 2.15815 0
M  V30 4778 H 449.381 1.57292 3.4284 0
M  V30 4779 H 451.768 0.767602 2.84942 0
M  V30 4780 H 451.849 2.00557 1.58779 0
M  V30 4781 H 451.493 3.80616 3.36295 0
M  V30 4782 H 451.423 2.53916 4.61339 0
M  V30 4783 H 453.914 2.16531 3.09714 0
M  V30 4784 H 454.227 4.92596 5.95457 0
M  V30 4785 H 452.572 4.4247 5.35953 0
M  V30 4786 H 455.763 2.75075 3.78749 0
M  V30 4787 H 455.936 4.00946 5.09064 0
M  V30 4788 N 449.342 -1.36122 0.79427 0
M  V30 4789 C 450.572 -2.03067 0.380437 0
M  V30 4790 C 450.98 -1.60018 -1.00949 0
M  V30 4791 O 450.323 -0.787425 -1.65968 0
M  V30 4792 C 450.385 -3.57587 0.37034 0
M  V30 4793 C 450.049 -4.23855 1.70867 0
M  V30 4794 C 451.046 -4.46404 2.66496 0
M  V30 4795 C 448.731 -4.61229 1.9893 0
M  V30 4796 C 450.725 -5.05412 3.88378 0
M  V30 4797 C 448.412 -5.19953 3.21079 0
M  V30 4798 C 449.41 -5.41985 4.15621 0
M  V30 4799 O 449.098 -5.99475 5.35616 0
M  V30 4800 H 448.83 -0.658168 0.154243 0
M  V30 4801 H 451.384 -1.7498 1.0757 0
M  V30 4802 H 449.614 -3.84814 -0.381444 0
M  V30 4803 H 451.303 -4.05895 -0.0194894 0
M  V30 4804 H 452.069 -4.17921 2.46103 0
M  V30 4805 H 447.948 -4.43402 1.26158 0
M  V30 4806 H 451.492 -5.22524 4.62185 0
M  V30 4807 H 447.389 -5.47862 3.41347 0
M  V30 4808 H 448.157 -6.17937 5.36745 0
M  V30 4809 N 450.82 -0.546701 -1.47814 0
M  V30 4810 C 451.783 0.196287 -2.28358 0
M  V30 4811 C 452.783 0.852437 -1.36346 0
M  V30 4812 O 453.973 0.709913 -1.59078 0
M  V30 4813 C 451.105 1.28579 -3.15722 0
M  V30 4814 H 452.298 -0.511086 -2.95513 0
M  V30 4815 H 449.851 -0.303248 -1.5333 0
M  V30 4816 H 450.586 2.0259 -2.53235 0
M  V30 4817 H 450.371 0.820229 -3.83425 0
M  V30 4818 H 451.861 1.80793 -3.76435 0
M  V30 4819 N 452.299 1.55045 -0.282633 0
M  V30 4820 C 453.262 2.21515 0.588539 0
M  V30 4821 C 454.262 1.19535 1.07554 0
M  V30 4822 O 455.452 1.44391 0.974514 0
M  V30 4823 C 452.584 2.88704 1.8128 0
M  V30 4824 H 453.777 2.99899 0.00806397 0
M  V30 4825 H 451.33 1.56265 -0.0333067 0
M  V30 4826 H 452.065 2.14352 2.43359 0
M  V30 4827 H 451.85 3.63443 1.47144 0
M  V30 4828 H 453.34 3.39465 2.43214 0
M  V30 4829 N 453.777 0.010035 1.57597 0
M  V30 4830 C 455.023 -0.673697 1.91283 0
M  V30 4831 C 455.356 -1.72863 0.884979 0
M  V30 4832 O 454.631 -1.94268 -0.0949487 0
M  V30 4833 C 454.914 -1.30766 3.35518 0
M  V30 4834 C 454.767 -0.263578 4.49027 0
M  V30 4835 C 456.086 -2.23105 3.79358 0
M  V30 4836 H 453.205 -0.243439 0.695634 0
M  V30 4837 H 455.847 0.0633864 1.89894 0
M  V30 4838 H 453.997 -1.93588 3.36832 0
M  V30 4839 H 455.669 0.365738 4.59848 0
M  V30 4840 H 453.912 0.413077 4.31829 0
M  V30 4841 H 454.583 -0.746398 5.4693 0
M  V30 4842 H 457.059 -1.70289 3.79659 0
M  V30 4843 H 455.935 -2.64424 4.81011 0
M  V30 4844 H 456.196 -3.11433 3.13787 0
M  V30 4845 N 455.255 -1.55392 -0.262866 0
M  V30 4846 C 456.671 -1.47459 -0.610582 0
M  V30 4847 C 456.871 -0.697031 -1.8906 0
M  V30 4848 O 455.927 -0.219952 -2.5154 0
M  V30 4849 C 457.24 -2.91751 -0.728131 0
M  V30 4850 C 458.788 -3.02027 -0.821517 0
M  V30 4851 C 459.263 -4.47594 -0.97076 0
M  V30 4852 N 460.754 -4.51465 -1.03603 0
M  V30 4853 C 461.489 -5.61326 -1.17049 0
M  V30 4854 N 460.985 -6.81032 -1.2715 0
M  V30 4855 N 462.778 -5.49089 -1.20239 0
M  V30 4856 H 454.929 -2.04395 0.577632 0
M  V30 4857 H 457.192 -0.927287 0.197086 0
M  V30 4858 H 456.898 -3.51413 0.142132 0
M  V30 4859 H 456.772 -3.4134 -1.6052 0
M  V30 4860 H 459.159 -2.42456 -1.68224 0
M  V30 4861 H 459.24 -2.55674 0.0803688 0
M  V30 4862 H 458.884 -5.07771 -0.114655 0
M  V30 4863 H 458.814 -4.91613 -1.88745 0
M  V30 4864 H 461.305 -3.6524 -0.96996 0
M  V30 4865 H 461.618 -7.60511 -1.37271 0
M  V30 4866 H 459.963 -6.83824 -1.24136 0
M  V30 4867 H 463.154 -4.54507 -1.11985 0
M  V30 4868 H 463.327 -6.34749 -1.30373 0
M  V30 4869 N 456.733 0.527833 -1.48498 0
M  V30 4870 C 457.961 1.30823 -1.6029 0
M  V30 4871 C 458.376 1.86945 -0.263974 0
M  V30 4872 O 457.733 1.6651 0.747034 0
M  V30 4873 C 457.784 2.45756 -2.65116 0
M  V30 4874 O 457.505 1.91946 -3.93813 0
M  V30 4875 C 459.006 3.37543 -2.87367 0
M  V30 4876 H 456.226 0.397763 -0.540394 0
M  V30 4877 H 458.77 0.636529 -1.94341 0
M  V30 4878 H 456.925 3.08806 -2.33917 0
M  V30 4879 H 457.339 2.67195 -4.51339 0
M  V30 4880 H 458.813 4.14532 -3.6451 0
M  V30 4881 H 459.29 3.92905 -1.9627 0
M  V30 4882 H 459.896 2.80283 -3.19878 0
M  V30 4883 N 458.211 1.37122 0.776871 0
M  V30 4884 C 459.141 1.35164 1.90402 0
M  V30 4885 C 460.122 0.221069 1.68657 0
M  V30 4886 O 461.307 0.420642 1.8959 0
M  V30 4887 C 458.437 1.15274 3.27611 0
M  V30 4888 C 457.391 2.25289 3.63908 0
M  V30 4889 C 456.717 1.90527 4.99603 0
M  V30 4890 C 458.017 3.67446 3.71188 0
M  V30 4891 H 459.711 2.29482 1.92297 0
M  V30 4892 H 457.257 1.10465 0.923773 0
M  V30 4893 H 459.21 1.12536 4.06096 0
M  V30 4894 H 457.934 0.174102 3.26136 0
M  V30 4895 H 456.593 2.27174 2.87728 0
M  V30 4896 H 456.241 0.91206 4.94662 0
M  V30 4897 H 455.941 2.64193 5.24858 0
M  V30 4898 H 457.465 1.89367 5.80493 0
M  V30 4899 H 458.879 3.67719 4.39836 0
M  V30 4900 H 457.276 4.40123 4.07936 0
M  V30 4901 H 458.346 4.01443 2.71977 0
M  V30 4902 N 459.689 -1.00246 1.21608 0
M  V30 4903 C 460.637 -2.11193 0.97469 0
M  V30 4904 C 461.631 -1.69216 -0.0789303 0
M  V30 4905 O 462.837 -1.79853 0.0726806 0
M  V30 4906 H 459.212 -0.690455 0.297953 0
M  V30 4907 H 461.183 -2.2873 1.91638 0
M  V30 4908 C 459.932 -3.43182 0.558717 0
M  V30 4909 H 459.255 -3.75918 1.3611 0
M  V30 4910 H 460.695 -4.21823 0.429154 0
M  V30 4911 C 459.154 -3.28882 -0.730648 0
M  V30 4912 O 459.684 -3.59835 -1.78554 0
M  V30 4913 N 457.89 -2.8209 -0.698131 0
M  V30 4914 H 457.437 -2.57099 0.16061 0
M  V30 4915 H 457.395 -2.72903 -1.56113 0
M  V30 4916 N 461.167 -1.02423 -1.1978 0
M  V30 4917 C 462.114 -0.601023 -2.22837 0
M  V30 4918 C 463.084 0.382801 -1.61629 0
M  V30 4919 O 464.269 0.280514 -1.88727 0
M  V30 4920 C 461.409 0.0467755 -3.45068 0
M  V30 4921 C 460.522 -0.98253 -4.20678 0
M  V30 4922 C 459.657 -0.304982 -5.30324 0
M  V30 4923 C 458.696 -1.32052 -5.97686 0
M  V30 4924 N 457.833 -0.669105 -6.98904 0
M  V30 4925 H 462.673 -1.48444 -2.58396 0
M  V30 4926 H 460.21 -0.742936 -1.2696 0
M  V30 4927 H 462.168 0.439556 -4.14878 0
M  V30 4928 H 460.798 0.893796 -3.10179 0
M  V30 4929 H 459.85 -1.49341 -3.49859 0
M  V30 4930 H 461.162 -1.75455 -4.66923 0
M  V30 4931 H 460.316 0.142893 -6.06532 0
M  V30 4932 H 459.055 0.499283 -4.85138 0
M  V30 4933 H 458.06 -1.7787 -5.20233 0
M  V30 4934 H 459.285 -2.1262 -6.44957 0
M  V30 4935 H 457.231 0.115152 -6.55899 0
M  V30 4936 H 457.148 -1.37908 -7.43315 0
M  V30 4937 H 458.416 -0.245076 -7.79115 0
M  V30 4938 N 462.645 1.35699 -0.801477 0
M  V30 4939 C 463.891 1.99208 -0.380022 0
M  V30 4940 C 464.224 1.63445 1.04878 0
M  V30 4941 O 463.499 0.895223 1.72673 0
M  V30 4942 C 463.782 3.55755 -0.557708 0
M  V30 4943 C 463.635 4.01332 -2.03107 0
M  V30 4944 C 464.954 4.40096 0.0197968 0
M  V30 4945 H 462.073 0.723667 -0.139552 0
M  V30 4946 H 464.715 1.60928 -1.01006 0
M  V30 4947 H 462.865 3.88494 -0.0213741 0
M  V30 4948 H 464.537 3.79026 -2.62939 0
M  V30 4949 H 462.78 3.52429 -2.52936 0
M  V30 4950 H 463.451 5.10234 -2.1063 0
M  V30 4951 H 465.927 4.13786 -0.438179 0
M  V30 4952 H 464.803 5.48735 -0.134477 0
M  V30 4953 H 465.064 4.2786 1.11303 0
M  V30 4954 N 464.123 0.554532 1.47522 0
M  V30 4955 C 465.086 -0.184174 2.28459 0
M  V30 4956 C 466.086 -0.845195 1.36796 0
M  V30 4957 O 467.276 -0.701467 1.59452 0
M  V30 4958 C 464.408 -1.26903 3.16399 0
M  V30 4959 H 465.601 0.526751 2.95238 0
M  V30 4960 H 463.154 0.311375 1.53167 0
M  V30 4961 H 463.889 -2.01244 2.54306 0
M  V30 4962 H 463.674 -0.799883 3.83854 0
M  V30 4963 H 465.164 -1.78794 3.77389 0
M  V30 4964 N 465.601 -1.54893 0.290851 0
M  V30 4965 C 466.534 -2.19289 -0.631489 0
M  V30 4966 C 467.512 -1.15893 -1.14051 0
M  V30 4967 O 468.696 -1.4449 -1.21058 0
M  V30 4968 C 465.823 -2.82866 -1.86291 0
M  V30 4969 C 464.869 -3.997 -1.48801 0
M  V30 4970 S 465.702 -5.32641 -0.552644 0
M  V30 4971 C 466.858 -5.99696 -1.79209 0
M  V30 4972 H 467.091 -2.9718 -0.0843791 0
M  V30 4973 H 464.624 -1.54218 0.075031 0
M  V30 4974 H 466.582 -3.20124 -2.56964 0
M  V30 4975 H 465.243 -2.04839 -2.38117 0
M  V30 4976 H 464.436 -4.42932 -2.40473 0
M  V30 4977 H 464.038 -3.63947 -0.861321 0
M  V30 4978 H 466.33 -6.19886 -2.734 0
M  V30 4979 H 467.273 -6.94071 -1.40251 0
M  V30 4980 H 467.681 -5.29226 -1.96419 0
M  V30 4981 N 467.08 -0.0183926 -1.57589 0
M  V30 4982 C 468.027 0.967022 -2.09565 0
M  V30 4983 C 468.997 1.32983 -0.995225 0
M  V30 4984 O 470.182 1.42501 -1.26878 0
M  V30 4985 C 467.322 2.24772 -2.61861 0
M  V30 4986 C 466.435 1.94232 -3.85873 0
M  V30 4987 C 465.57 3.16518 -4.26603 0
M  V30 4988 C 464.609 2.81748 -5.43401 0
M  V30 4989 N 463.746 3.96626 -5.79338 0
M  V30 4990 H 468.586 0.516874 -2.93483 0
M  V30 4991 H 466.123 0.243544 -1.4507 0
M  V30 4992 H 468.081 2.99667 -2.90268 0
M  V30 4993 H 466.711 2.67423 -1.8079 0
M  V30 4994 H 465.763 1.09625 -3.64262 0
M  V30 4995 H 467.075 1.64616 -4.70853 0
M  V30 4996 H 466.229 3.99743 -4.56389 0
M  V30 4997 H 464.968 3.49286 -3.40368 0
M  V30 4998 H 463.973 1.96933 -5.1332 0
M  V30 4999 H 465.198 2.50207 -6.31327 0
M  V30 5000 H 463.144 4.29257 -4.96059 0
M  V30 5001 H 463.061 3.70598 -6.58933 0
M  V30 5002 H 464.329 4.80586 -6.13724 0
M  V30 5003 N 468.558 1.5553 0.254621 0
M  V30 5004 C 469.508 1.86057 1.31783 0
M  V30 5005 C 470.492 0.720827 1.4385 0
M  V30 5006 O 471.684 0.982586 1.47222 0
M  V30 5007 C 468.813 2.15203 2.67475 0
M  V30 5008 C 467.899 3.35484 2.59444 0
M  V30 5009 N 468.29 4.54945 2.2104 0
M  V30 5010 C 466.588 3.38441 2.90472 0
M  V30 5011 C 467.289 5.3707 2.23453 0
M  V30 5012 N 466.265 4.75936 2.62652 0
M  V30 5013 H 470.067 2.75953 1.01129 0
M  V30 5014 H 467.581 1.55653 0.463255 0
M  V30 5015 H 469.578 2.35235 3.44195 0
M  V30 5016 H 468.238 1.26601 2.99002 0
M  V30 5017 H 469.249 4.8071 1.92712 0
M  V30 5018 H 465.926 2.60087 3.2659 0
M  V30 5019 H 467.316 6.42626 1.96166 0
M  V30 5020 N 470.036 -0.519951 1.48776 0
M  V30 5021 C 471.447 -1.10177 1.50725 0
M  V30 5022 C 471.798 -1.94153 0.282678 0
M  V30 5023 O 470.923 -2.07645 -0.609298 0
M  V30 5024 C 471.518 -2.00482 2.73116 0
M  V30 5025 C 470.077 -2.53862 2.77905 0
M  V30 5026 C 469.224 -1.31047 2.44381 0
M  V30 5027 H 472.175 -0.30473 1.55747 0
M  V30 5028 H 472.196 -2.8491 2.52203 0
M  V30 5029 H 471.708 -1.39335 3.62225 0
M  V30 5030 H 469.809 -3.18702 1.93029 0
M  V30 5031 H 469.922 -2.9231 3.79594 0
M  V30 5032 H 468.286 -1.62953 1.95751 0
M  V30 5033 H 469.069 -0.71637 3.35743 0
M  V30 5034 N 471.514 -1.37532 -0.769588 0
M  V30 5035 C 472.739 -1.36231 -1.56384 0
M  V30 5036 C 473.164 0.0495849 -1.88035 0
M  V30 5037 O 472.522 1.02723 -1.49391 0
M  V30 5038 C 472.57 -2.20986 -2.84952 0
M  V30 5039 O 471.674 -1.61597 -3.79421 0
M  V30 5040 H 471.015 -0.465387 -0.473615 0
M  V30 5041 H 473.545 -1.81085 -0.952342 0
M  V30 5042 H 473.555 -2.34277 -3.34034 0
M  V30 5043 H 472.23 -3.23612 -2.61243 0
M  V30 5044 H 470.807 -1.57359 -3.38072 0
M  V30 5045 N 472.992 0.995999 -1.22138 0
M  V30 5046 C 473.955 2.06711 -0.990109 0
M  V30 5047 C 474.955 1.60744 0.0422978 0
M  V30 5048 O 476.145 1.73095 -0.195895 0
M  V30 5049 C 473.277 3.37288 -0.49491 0
M  V30 5050 H 474.47 2.28661 -1.94047 0
M  V30 5051 H 472.023 1.16711 -1.03963 0
M  V30 5052 H 472.758 3.21022 0.459948 0
M  V30 5053 H 472.543 3.71986 -1.23971 0
M  V30 5054 H 474.033 4.16103 -0.353253 0
M  V30 5055 N 474.47 1.03057 1.19235 0
M  V30 5056 C 475.716 0.729098 1.89241 0
M  V30 5057 C 476.049 -0.740573 1.79525 0
M  V30 5058 O 475.324 -1.53946 1.18874 0
M  V30 5059 C 475.607 1.18304 3.40112 0
M  V30 5060 C 475.46 2.71406 3.5869 0
M  V30 5061 C 476.779 0.765161 4.33397 0
M  V30 5062 H 473.898 0.266338 0.687192 0
M  V30 5063 H 476.54 1.28079 1.40341 0
M  V30 5064 H 474.69 0.713672 3.81889 0
M  V30 5065 H 476.362 3.26303 3.26074 0
M  V30 5066 H 474.605 3.11717 3.01687 0
M  V30 5067 H 475.276 2.98225 4.64506 0
M  V30 5068 H 477.752 1.16889 3.99345 0
M  V30 5069 H 476.628 1.11065 5.37546 0
M  V30 5070 H 476.889 -0.332372 4.40849 0
M  V30 5071 N 475.948 -1.35272 0.808662 0
M  V30 5072 C 477.176 -2.02946 0.402537 0
M  V30 5073 C 477.591 -1.60937 -0.987147 0
M  V30 5074 O 476.948 -0.807917 -1.63643 0
M  V30 5075 C 476.999 -3.58317 0.47868 0
M  V30 5076 O 476.72 -3.98799 1.81358 0
M  V30 5077 C 478.221 -4.43251 0.0656281 0
M  V30 5078 H 475.441 -0.650831 0.163279 0
M  V30 5079 H 477.985 -1.72849 1.09286 0
M  V30 5080 H 476.14 -3.87055 -0.163415 0
M  V30 5081 H 476.554 -4.93451 1.77781 0
M  V30 5082 H 478.028 -5.51738 0.170017 0
M  V30 5083 H 478.505 -4.27913 -0.989278 0
M  V30 5084 H 479.111 -4.19813 0.68096 0
M  V30 5085 N 477.426 -0.562348 -1.47226 0
M  V30 5086 C 478.389 0.172056 -2.28553 0
M  V30 5087 C 479.389 0.837928 -1.37242 0
M  V30 5088 O 480.579 0.693001 -1.59822 0
M  V30 5089 C 477.711 1.25223 -3.17068 0
M  V30 5090 H 478.904 -0.542401 -2.94954 0
M  V30 5091 H 476.457 -0.319493 -1.53 0
M  V30 5092 H 477.192 1.99892 -2.55369 0
M  V30 5093 H 476.977 0.779515 -3.84273 0
M  V30 5094 H 478.467 1.76791 -3.78332 0
M  V30 5095 N 478.904 1.54736 -0.299062 0
M  V30 5096 C 480.144 2.0201 0.31168 0
M  V30 5097 C 480.508 1.18281 1.5124 0
M  V30 5098 O 481.709 1.55243 2.19438 0
M  V30 5099 C 479.98 3.5123 0.661227 0
M  V30 5100 S 481.539 4.20467 1.2551 0
M  V30 5101 H 478.357 0.704523 0.0957517 0
M  V30 5102 H 480.959 1.90791 -0.426482 0
M  V30 5103 H 479.663 4.09804 -0.221171 0
M  V30 5104 H 479.194 3.66481 1.43023 0
M  V30 5105 H 481.209 4.26083 2.54298 0
M  V30 5106 N 480.382 0.0267497 1.57577 0
M  V30 5107 C 481.33 -0.973923 2.11229 0
M  V30 5108 C 482.324 -1.33849 1.03831 0
M  V30 5109 O 483.53 -1.321 1.22269 0
M  V30 5110 H 479.905 -0.331844 0.674821 0
M  V30 5111 H 481.876 -0.496092 2.94247 0
M  V30 5112 C 480.625 -2.24798 2.65257 0
M  V30 5113 H 479.948 -1.9762 3.47543 0
M  V30 5114 H 481.388 -2.93031 3.06445 0
M  V30 5115 C 479.847 -2.97611 1.57891 0
M  V30 5116 O 480.377 -3.89629 0.97735 0
M  V30 5117 N 478.583 -2.59905 1.29992 0
M  V30 5118 H 478.13 -1.85154 1.79097 0
M  V30 5119 H 478.088 -3.08932 0.583798 0
M  V30 5120 N 481.861 -1.55662 -0.24637 0
M  V30 5121 C 482.791 -1.93377 -1.30873 0
M  V30 5122 C 483.772 -0.798773 -1.50179 0
M  V30 5123 O 484.957 -1.0591 -1.62778 0
M  V30 5124 C 482.087 -2.22893 -2.66338 0
M  V30 5125 C 481.041 -3.38649 -2.61727 0
M  V30 5126 C 480.367 -3.53708 -4.00992 0
M  V30 5127 C 481.667 -4.74323 -2.18666 0
M  V30 5128 H 483.361 -2.82363 -0.995552 0
M  V30 5129 H 480.907 -1.35854 -0.477464 0
M  V30 5130 H 482.86 -2.47866 -3.40794 0
M  V30 5131 H 481.584 -1.30733 -2.99293 0
M  V30 5132 H 480.243 -3.13685 -1.89729 0
M  V30 5133 H 479.891 -2.58967 -4.31214 0
M  V30 5134 H 479.591 -4.31551 -3.98795 0
M  V30 5135 H 481.115 -3.81003 -4.77147 0
M  V30 5136 H 482.529 -4.98665 -2.82854 0
M  V30 5137 H 480.926 -5.55273 -2.27579 0
M  V30 5138 H 481.996 -4.71349 -1.13834 0
M  V30 5139 N 483.339 0.512053 -1.4905 0
M  V30 5140 C 484.616 1.27337 -1.48474 0
M  V30 5141 C 484.996 2.1009 -0.206301 0
M  V30 5142 O 484.344 2.136 0.811609 0
M  V30 5143 C 484.554 2.13954 -2.75726 0
M  V30 5144 C 485.902 2.73507 -3.24776 0
M  V30 5145 O 486.926 2.24229 -2.76767 0
M  V30 5146 O 485.785 3.63186 -4.08361 0
M  V30 5147 H 482.879 0.575652 -0.593762 0
M  V30 5148 H 485.425 0.527232 -1.61302 0
M  V30 5149 H 484.197 1.52709 -3.60272 0
M  V30 5150 H 483.82 2.95782 -2.65705 0
M  V30 5151 N 484.817 1.37938 0.762283 0
M  V30 5152 C 485.747 1.37176 1.88958 0
M  V30 5153 C 486.728 0.238945 1.68413 0
M  V30 5154 O 487.913 0.440726 1.89133 0
M  V30 5155 C 485.043 1.18742 3.2637 0
M  V30 5156 C 483.997 2.29136 3.61498 0
M  V30 5157 C 483.323 1.95816 4.97554 0
M  V30 5158 C 484.623 3.71363 3.6727 0
M  V30 5159 H 486.317 2.31509 1.89853 0
M  V30 5160 H 483.863 1.11438 0.912005 0
M  V30 5161 H 485.816 1.16837 4.04879 0
M  V30 5162 H 484.54 0.208683 3.25933 0
M  V30 5163 H 483.199 2.30213 2.85303 0
M  V30 5164 H 482.847 0.964475 4.93667 0
M  V30 5165 H 482.547 2.69745 5.22026 0
M  V30 5166 H 484.071 1.95513 5.78452 0
M  V30 5167 H 485.485 3.72364 4.35911 0
M  V30 5168 H 483.882 4.44425 4.03245 0
M  V30 5169 H 484.952 4.04305 2.67704 0
M  V30 5170 N 486.295 -0.989507 1.22664 0
M  V30 5171 C 487.205 -2.11449 1.01619 0
M  V30 5172 C 488.221 -1.73962 -0.036545 0
M  V30 5173 O 489.397 -2.00788 0.156924 0
M  V30 5174 C 486.462 -3.41465 0.600204 0
M  V30 5175 C 485.523 -3.93033 1.72695 0
M  V30 5176 C 484.756 -5.16844 1.33071 0
M  V30 5177 O 484.979 -5.7001 0.210975 0
M  V30 5178 O 483.913 -5.6225 2.14845 0
M  V30 5179 H 487.739 -2.32088 1.9588 0
M  V30 5180 H 485.324 -1.09823 1.01289 0
M  V30 5181 H 487.206 -4.19695 0.37873 0
M  V30 5182 H 485.881 -3.22178 -0.313511 0
M  V30 5183 H 484.788 -3.15961 2.00298 0
M  V30 5184 H 486.121 -4.16758 2.61865 0
M  V30 5185 N 487.773 -1.03688 -1.18687 0
M  V30 5186 C 488.721 -0.618292 -2.24232 0
M  V30 5187 C 489.715 0.353045 -1.6568 0
M  V30 5188 O 490.921 0.220749 -1.78641 0
M  V30 5189 H 487.296 -0.181711 -0.729716 0
M  V30 5190 H 489.267 -1.51893 -2.56848 0
M  V30 5191 C 488.016 0.00677342 -3.47699 0
M  V30 5192 H 487.339 -0.731692 -3.93047 0
M  V30 5193 H 488.779 0.262492 -4.23187 0
M  V30 5194 C 487.238 1.25572 -3.12623 0
M  V30 5195 O 487.768 2.34691 -3.26011 0
M  V30 5196 N 485.974 1.14755 -2.66982 0
M  V30 5197 H 485.521 0.259601 -2.56289 0
M  V30 5198 H 485.479 1.98412 -2.43885 0
M  V30 5199 N 489.251 1.34841 -0.815825 0
M  V30 5200 C 490.181 2.32187 -0.247298 0
M  V30 5201 C 491.162 1.5791 0.632344 0
M  V30 5202 O 492.347 1.8593 0.560698 0
M  V30 5203 C 489.477 3.42122 0.597466 0
M  V30 5204 C 488.431 4.27602 -0.184446 0
M  V30 5205 C 487.757 5.28942 0.782609 0
M  V30 5206 C 489.057 5.03502 -1.38865 0
M  V30 5207 H 490.751 2.79985 -1.06061 0
M  V30 5208 H 488.297 1.34611 -0.511461 0
M  V30 5209 H 490.25 4.09232 1.00533 0
M  V30 5210 H 488.974 2.92956 1.44376 0
M  V30 5211 H 487.633 3.62085 -0.573592 0
M  V30 5212 H 487.281 4.7604 1.62466 0
M  V30 5213 H 486.981 5.87008 0.263695 0
M  V30 5214 H 488.505 5.98922 1.18848 0
M  V30 5215 H 489.919 5.63506 -1.05518 0
M  V30 5216 H 488.316 5.71108 -1.8427 0
M  V30 5217 H 489.386 4.33608 -2.17054 0
M  V30 5218 N 490.729 0.570148 1.46925 0
M  V30 5219 C 491.975 0.0510284 2.02736 0
M  V30 5220 C 492.308 -1.3006 1.44215 0
M  V30 5221 O 491.583 -1.84932 0.602521 0
M  V30 5222 C 491.866 -0.028215 3.60089 0
M  V30 5223 C 491.719 1.35142 4.29018 0
M  V30 5224 C 493.038 -0.735181 4.33916 0
M  V30 5225 H 490.157 0.0200178 0.736728 0
M  V30 5226 H 492.799 0.73493 1.75211 0
M  V30 5227 H 490.949 -0.610648 3.83671 0
M  V30 5228 H 492.621 1.97806 4.16738 0
M  V30 5229 H 490.864 1.9226 3.88868 0
M  V30 5230 H 491.535 1.24857 5.37694 0
M  V30 5231 H 494.011 -0.240519 4.15404 0
M  V30 5232 H 492.887 -0.759622 5.43618 0
M  V30 5233 H 493.148 -1.79397 4.04066 0
M  V30 5234 N 492.207 -1.54576 0.307264 0
M  V30 5235 C 493.435 -2.04675 -0.302597 0
M  V30 5236 C 493.85 -1.18425 -1.47041 0
M  V30 5237 O 493.207 -0.211257 -1.81273 0
M  V30 5238 C 493.258 -3.53575 -0.752801 0
M  V30 5239 O 492.979 -4.36547 0.368536 0
M  V30 5240 C 494.48 -4.19699 -1.42717 0
M  V30 5241 H 491.7 -0.66786 -0.0648374 0
M  V30 5242 H 494.244 -1.99516 0.448716 0
M  V30 5243 H 492.399 -3.59074 -1.45412 0
M  V30 5244 H 492.813 -5.24497 0.0168937 0
M  V30 5245 H 494.287 -5.25388 -1.69327 0
M  V30 5246 H 494.764 -3.69815 -2.36925 0
M  V30 5247 H 495.37 -4.18293 -0.768856 0
M  V30 5248 N 493.685 -0.035106 -1.57561 0
M  V30 5249 C 494.962 0.681212 -1.83354 0
M  V30 5250 C 495.342 1.89986 -0.920252 0
M  V30 5251 O 494.69 2.28489 0.0226815 0
M  V30 5252 C 494.9 1.05376 -3.32712 0
M  V30 5253 C 496.248 1.44286 -3.99333 0
M  V30 5254 O 497.272 1.14656 -3.37242 0
M  V30 5255 O 496.131 1.99518 -5.08778 0
M  V30 5256 H 493.225 0.334741 -0.756226 0
M  V30 5257 H 495.771 -0.0632448 -1.69582 0
M  V30 5258 H 494.543 0.186668 -3.90854 0
M  V30 5259 H 494.166 1.85619 -3.51613 0
M  V30 5260 N 495.163 1.55791 0.238111 0
M  V30 5261 C 496.388 1.8244 0.986432 0
M  V30 5262 C 496.813 0.613314 1.7782 0
M  V30 5263 O 496.171 -0.437767 1.75935 0
M  V30 5264 C 496.219 3.06917 1.893 0
M  V30 5265 O 495.323 2.84449 2.98601 0
M  V30 5266 H 494.664 0.601975 0.280218 0
M  V30 5267 H 497.194 2.02987 0.256437 0
M  V30 5268 H 497.204 3.36583 2.30598 0
M  V30 5269 H 495.879 3.947 1.31091 0
M  V30 5270 H 494.456 2.65972 2.61368 0
M  V30 5271 N 496.642 -0.504142 1.49319 0
M  V30 5272 C 497.59 -1.62689 1.66238 0
M  V30 5273 C 498.584 -1.6095 0.528349 0
M  V30 5274 O 499.79 -1.65496 0.707887 0
M  V30 5275 H 496.165 -0.539247 0.524134 0
M  V30 5276 H 498.136 -1.45571 2.60484 0
M  V30 5277 C 496.885 -3.00841 1.74328 0
M  V30 5278 H 496.208 -3.02884 2.60963 0
M  V30 5279 H 497.648 -3.78945 1.90202 0
M  V30 5280 C 496.107 -3.33355 0.487416 0
M  V30 5281 O 496.637 -3.99819 -0.388294 0
M  V30 5282 N 494.843 -2.88469 0.351306 0
M  V30 5283 H 494.39 -2.34557 1.06492 0
M  V30 5284 H 494.348 -3.10591 -0.487899 0
M  V30 5285 N 498.12 -1.38341 -0.754957 0
M  V30 5286 C 499.536 -1.19508 -1.05783 0
M  V30 5287 C 499.736 -0.0428005 -2.01455 0
M  V30 5288 O 498.792 0.611861 -2.44975 0
M  V30 5289 C 500.105 -2.52091 -1.63923 0
M  V30 5290 C 501.653 -2.58762 -1.76101 0
M  V30 5291 C 502.128 -3.91517 -2.37652 0
M  V30 5292 N 503.619 -3.93049 -2.45085 0
M  V30 5293 C 504.354 -4.9253 -2.93602 0
M  V30 5294 N 503.85 -6.02408 -3.42165 0
M  V30 5295 N 505.643 -4.79921 -2.92629 0
M  V30 5296 H 497.794 -2.1206 -0.120056 0
M  V30 5297 H 500.057 -0.94089 -0.11589 0
M  V30 5298 H 499.763 -3.36858 -1.01093 0
M  V30 5299 H 499.637 -2.70388 -2.63003 0
M  V30 5300 H 502.024 -1.74391 -2.38058 0
M  V30 5301 H 502.105 -2.44333 -0.757294 0
M  V30 5302 H 501.749 -4.76309 -1.76329 0
M  V30 5303 H 501.679 -4.03256 -3.38662 0
M  V30 5304 H 504.17 -3.13685 -2.10736 0
M  V30 5305 H 504.483 -6.74248 -3.77637 0
M  V30 5306 H 502.828 -6.0603 -3.40225 0
M  V30 5307 H 506.019 -3.93194 -2.54001 0
M  V30 5308 H 506.192 -5.57601 -3.30128 0
M  V30 5309 N 499.598 0.982988 -1.23187 0
M  V30 5310 C 500.823 1.76455 -1.08988 0
M  V30 5311 C 501.248 1.84726 0.354691 0
M  V30 5312 O 500.606 1.30699 1.25649 0
M  V30 5313 C 500.654 3.17094 -1.71708 0
M  V30 5314 O 499.758 4.00648 -0.977477 0
M  V30 5315 H 499.099 0.542988 -0.382177 0
M  V30 5316 H 501.629 1.23413 -1.63188 0
M  V30 5317 H 501.639 3.67684 -1.76841 0
M  V30 5318 H 500.314 3.10389 -2.76823 0
M  V30 5319 H 498.891 3.59161 -1.0029 0
M  V30 5320 N 501.076 1.04316 1.18135 0
M  V30 5321 C 502.325 0.74319 1.87509 0
M  V30 5322 C 502.638 -0.732136 1.81381 0
M  V30 5323 O 503.844 -1.14572 2.46141 0
M  V30 5324 C 502.3 1.27913 3.36402 0
M  V30 5325 C 501.908 2.78326 3.51053 0
M  V30 5326 C 503.652 1.0558 4.11161 0
M  V30 5327 C 501.559 3.25266 4.93919 0
M  V30 5328 H 500.489 0.274313 0.702331 0
M  V30 5329 H 503.14 1.25931 1.33467 0
M  V30 5330 H 501.522 0.690853 3.89927 0
M  V30 5331 H 502.696 3.42933 3.07788 0
M  V30 5332 H 501.011 2.991 2.89704 0
M  V30 5333 H 503.608 1.38161 5.16542 0
M  V30 5334 H 503.951 -0.00684729 4.16299 0
M  V30 5335 H 504.484 1.60882 3.63816 0
M  V30 5336 H 501.223 4.30922 4.9395 0
M  V30 5337 H 500.743 2.65396 5.3789 0
M  V30 5338 H 502.422 3.19433 5.62647 0
M  V30 5339 N 502.554 -1.34406 0.822964 0
M  V30 5340 C 503.517 -2.2783 0.250271 0
M  V30 5341 C 504.517 -1.50288 -0.571854 0
M  V30 5342 O 505.707 -1.69825 -0.387952 0
M  V30 5343 C 502.839 -3.34663 -0.649137 0
M  V30 5344 H 504.032 -2.79992 1.07444 0
M  V30 5345 H 501.585 -1.44539 0.594829 0
M  V30 5346 H 502.32 -2.87714 -1.49637 0
M  V30 5347 H 502.105 -3.92052 -0.0611199 0
M  V30 5348 H 503.595 -4.04349 -1.04363 0
M  V30 5349 N 504.032 -0.577932 -1.46621 0
M  V30 5350 C 505.26 -0.0671642 -2.06791 0
M  V30 5351 C 505.675 1.23571 -1.42743 0
M  V30 5352 O 505.032 1.74602 -0.531062 0
M  V30 5353 C 505.083 0.110357 -3.61332 0
M  V30 5354 O 504.804 -1.14095 -4.22982 0
M  V30 5355 C 506.305 0.656025 -4.38419 0
M  V30 5356 H 503.525 -0.0552732 -0.66872 0
M  V30 5357 H 506.069 -0.797242 -1.8832 0
M  V30 5358 H 504.224 0.790637 -3.79246 0
M  V30 5359 H 504.638 -0.951742 -5.15793 0
M  V30 5360 H 506.112 0.729438 -5.47159 0
M  V30 5361 H 506.589 1.67195 -4.06131 0
M  V30 5362 H 507.195 0.0107692 -4.25299 0
M  V30 5363 N 505.51 1.54411 -0.315457 0
M  V30 5364 C 506.44 2.27002 0.547039 0
M  V30 5365 C 507.421 1.27492 1.12605 0
M  V30 5366 O 508.606 1.5629 1.15269 0
M  V30 5367 C 505.736 3.02171 1.71201 0
M  V30 5368 C 504.69 4.0895 1.26268 0
M  V30 5369 C 504.016 4.71915 2.51396 0
M  V30 5370 C 505.316 5.20891 0.383419 0
M  V30 5371 H 507.01 2.99343 -0.0584517 0
M  V30 5372 H 504.556 1.4397 -0.0295527 0
M  V30 5373 H 506.509 3.51681 2.32161 0
M  V30 5374 H 505.233 2.27433 2.34397 0
M  V30 5375 H 503.892 3.60312 0.676062 0
M  V30 5376 H 503.54 3.93801 3.12937 0
M  V30 5377 H 503.24 5.44039 2.22026 0
M  V30 5378 H 504.764 5.24195 3.13133 0
M  V30 5379 H 506.178 5.66206 0.899082 0
M  V30 5380 H 504.575 5.99821 0.182857 0
M  V30 5381 H 505.645 4.81324 -0.587821 0
M  V30 5382 N 506.988 0.0434614 1.5754 0
M  V30 5383 C 507.951 -0.918696 2.09982 0
M  V30 5384 C 508.951 -1.24488 1.01781 0
M  V30 5385 O 510.141 -1.18284 1.27885 0
M  V30 5386 C 507.273 -2.23093 2.57764 0
M  V30 5387 H 508.466 -0.464229 2.96285 0
M  V30 5388 H 506.019 -0.204818 1.54952 0
M  V30 5389 H 506.754 -2.73137 1.74832 0
M  V30 5390 H 506.539 -2.00724 3.36827 0
M  V30 5391 H 508.029 -2.92028 2.98512 0
M  V30 5392 N 508.466 -1.55915 -0.229846 0
M  V30 5393 C 509.715 -1.77742 -0.953455 0
M  V30 5394 C 510.028 -0.610524 -1.85828 0
M  V30 5395 O 511.234 -0.712219 -2.61992 0
M  V30 5396 C 509.69 -3.14738 -1.74551 0
M  V30 5397 C 509.298 -4.39126 -0.887242 0
M  V30 5398 C 511.042 -3.45895 -2.46084 0
M  V30 5399 C 508.949 -5.67149 -1.67617 0
M  V30 5400 H 507.879 -0.662648 -0.359741 0
M  V30 5401 H 510.53 -1.82322 -0.207576 0
M  V30 5402 H 508.912 -3.04311 -2.53399 0
M  V30 5403 H 510.086 -4.60588 -0.139892 0
M  V30 5404 H 508.401 -4.15427 -0.284443 0
M  V30 5405 H 510.998 -4.38767 -3.05594 0
M  V30 5406 H 511.341 -2.68007 -3.18556 0
M  V30 5407 H 511.874 -3.57614 -1.74233 0
M  V30 5408 H 508.613 -6.47906 -0.994881 0
M  V30 5409 H 508.133 -5.49763 -2.39836 0
M  V30 5410 H 509.812 -6.07025 -2.23898 0
M  V30 5411 N 509.944 0.496216 -1.49584 0
M  V30 5412 C 511.172 1.27394 -1.63029 0
M  V30 5413 C 511.587 1.86344 -0.303569 0
M  V30 5414 O 510.944 1.68057 0.711547 0
M  V30 5415 C 510.995 2.40077 -2.70269 0
M  V30 5416 O 510.716 1.83549 -3.97796 0
M  V30 5417 C 512.217 3.31372 -2.94462 0
M  V30 5418 H 509.437 0.386211 -0.54871 0
M  V30 5419 H 511.981 0.595163 -1.95648 0
M  V30 5420 H 510.136 3.03775 -2.40415 0
M  V30 5421 H 510.55 2.57561 -4.56905 0
M  V30 5422 H 512.024 4.06707 -3.73221 0
M  V30 5423 H 512.501 3.88654 -2.0456 0
M  V30 5424 H 513.107 2.73435 -3.25751 0
M  V30 5425 N 511.423 1.38739 0.74761 0
M  V30 5426 C 512.651 1.38521 1.53686 0
M  V30 5427 C 513.066 -0.0235129 1.88785 0
M  V30 5428 O 512.423 -0.991662 1.53207 0
M  V30 5429 C 512.474 2.24641 2.83229 0
M  V30 5430 O 512.195 3.60026 2.49625 0
M  V30 5431 C 513.696 2.32669 3.77333 0
M  V30 5432 H 510.916 0.473589 0.475347 0
M  V30 5433 H 513.46 1.82395 0.924786 0
M  V30 5434 H 511.615 1.84213 3.40799 0
M  V30 5435 H 512.029 4.05435 3.3275 0
M  V30 5436 H 513.503 2.97201 4.65162 0
M  V30 5437 H 513.98 1.3421 4.18192 0
M  V30 5438 H 514.586 2.73512 3.25685 0
M  V30 5439 N 512.901 -0.976442 1.23707 0
M  V30 5440 C 513.831 -2.08749 1.04624 0
M  V30 5441 C 514.812 -1.70057 -0.0380956 0
M  V30 5442 O 515.997 -1.93782 0.127308 0
M  V30 5443 C 513.127 -3.41335 0.640902 0
M  V30 5444 C 512.081 -3.93947 1.67302 0
M  V30 5445 C 511.407 -5.22774 1.12301 0
M  V30 5446 C 512.707 -4.22769 3.06697 0
M  V30 5447 H 514.401 -2.24972 1.97555 0
M  V30 5448 H 511.947 -1.08108 0.951247 0
M  V30 5449 H 513.9 -4.18489 0.494434 0
M  V30 5450 H 512.624 -3.24988 -0.324099 0
M  V30 5451 H 511.283 -3.18941 1.80755 0
M  V30 5452 H 510.931 -5.0278 0.148877 0
M  V30 5453 H 510.631 -5.58942 1.81267 0
M  V30 5454 H 512.155 -6.02546 0.988479 0
M  V30 5455 H 513.569 -4.90659 2.96524 0
M  V30 5456 H 511.966 -4.70147 3.72937 0
M  V30 5457 H 513.036 -3.29885 3.55392 0
M  V30 5458 N 514.379 -1.04941 -1.1758 0
M  V30 5459 C 515.309 -0.669172 -2.23706 0
M  V30 5460 C 516.29 0.331835 -1.66832 0
M  V30 5461 O 517.475 0.209988 -1.93061 0
M  V30 5462 C 514.605 -0.0404889 -3.47276 0
M  V30 5463 C 513.559 -0.965983 -4.16957 0
M  V30 5464 C 512.885 -0.201312 -5.34321 0
M  V30 5465 C 514.185 -2.28902 -4.69469 0
M  V30 5466 H 515.879 -1.55639 -2.55767 0
M  V30 5467 H 513.425 -0.749793 -1.22939 0
M  V30 5468 H 515.378 0.237298 -4.20731 0
M  V30 5469 H 514.102 0.881658 -3.14475 0
M  V30 5470 H 512.761 -1.22829 -3.45411 0
M  V30 5471 H 512.409 0.723519 -4.97769 0
M  V30 5472 H 512.109 -0.817968 -5.81879 0
M  V30 5473 H 513.633 0.0692499 -6.10561 0
M  V30 5474 H 515.047 -2.07132 -5.34574 0
M  V30 5475 H 513.444 -2.85942 -5.27596 0
M  V30 5476 H 514.514 -2.92937 -3.86414 0
M  V30 5477 N 515.857 1.33968 -0.830081 0
M  V30 5478 C 516.804 2.29387 -0.255008 0
M  V30 5479 C 517.774 1.53923 0.624243 0
M  V30 5480 O 518.959 1.82262 0.564372 0
M  V30 5481 C 516.099 3.4034 0.571209 0
M  V30 5482 C 515.212 4.30729 -0.331083 0
M  V30 5483 C 514.347 5.2879 0.505389 0
M  V30 5484 C 513.386 6.10819 -0.395843 0
M  V30 5485 N 512.523 7.00948 0.401979 0
M  V30 5486 H 517.363 2.77972 -1.07404 0
M  V30 5487 H 514.9 1.36785 -0.541133 0
M  V30 5488 H 516.858 4.03361 1.06562 0
M  V30 5489 H 515.488 2.9297 1.35529 0
M  V30 5490 H 514.54 3.68507 -0.943759 0
M  V30 5491 H 515.852 4.88181 -1.02377 0
M  V30 5492 H 515.006 5.97297 1.06399 0
M  V30 5493 H 513.745 4.71894 1.23155 0
M  V30 5494 H 512.75 5.41238 -0.966529 0
M  V30 5495 H 513.975 6.69797 -1.12023 0
M  V30 5496 H 511.921 6.46512 1.11168 0
M  V30 5497 H 511.838 7.55643 -0.232167 0
M  V30 5498 H 513.106 7.73774 0.943102 0
M  V30 5499 N 517.335 0.585699 1.46312 0
M  V30 5500 C 518.563 0.0781299 2.06752 0
M  V30 5501 C 518.978 -1.22812 1.43396 0
M  V30 5502 O 518.335 -1.74318 0.540314 0
M  V30 5503 C 518.386 -0.0911927 3.61385 0
M  V30 5504 O 518.107 1.16336 4.22371 0
M  V30 5505 C 519.608 -0.632765 4.38761 0
M  V30 5506 H 516.828 0.0588188 0.668417 0
M  V30 5507 H 519.372 0.807218 1.87894 0
M  V30 5508 H 517.527 -0.770514 3.7966 0
M  V30 5509 H 517.941 0.979082 5.15281 0
M  V30 5510 H 519.415 -0.70041 5.47538 0
M  V30 5511 H 519.892 -1.65039 4.07012 0
M  V30 5512 H 520.498 0.0117856 4.25298 0
M  V30 5513 N 518.813 -1.54241 0.323641 0
M  V30 5514 C 520.061 -2.00174 -0.278359 0
M  V30 5515 C 520.382 -1.2134 -1.52648 0
M  V30 5516 O 519.652 -0.315244 -1.93347 0
M  V30 5517 H 518.232 -0.739463 -0.105845 0
M  V30 5518 H 520.894 -1.89864 0.440204 0
M  V30 5519 H 519.99 -3.07486 -0.5347 0
M  V30 5520 N 520.291 -0.0518155 -1.57515 0
M  V30 5521 C 521.516 0.634896 -1.97443 0
M  V30 5522 C 521.941 1.63546 -0.929207 0
M  V30 5523 O 521.299 1.80981 0.107484 0
M  V30 5524 C 521.347 1.29765 -3.36442 0
M  V30 5525 O 520.451 2.41333 -3.34413 0
M  V30 5526 H 519.792 0.164994 -0.643174 0
M  V30 5527 H 522.322 -0.120407 -2.04245 0
M  V30 5528 H 522.332 1.64918 -3.73184 0
M  V30 5529 H 521.007 0.564361 -4.12053 0
M  V30 5530 H 519.584 2.08122 -3.09418 0
M  V30 5531 N 521.769 1.56035 0.221574 0
M  V30 5532 C 522.679 1.95581 1.29558 0
M  V30 5533 C 523.695 0.859639 1.51282 0
M  V30 5534 O 524.871 1.16321 1.64413 0
M  V30 5535 C 521.936 2.26447 2.62531 0
M  V30 5536 C 520.997 3.49632 2.4911 0
M  V30 5537 C 520.23 3.79017 3.75742 0
M  V30 5538 O 520.453 3.10077 4.78757 0
M  V30 5539 O 519.387 4.72507 3.72855 0
M  V30 5540 H 523.213 2.8711 0.990035 0
M  V30 5541 H 520.798 1.43244 0.424434 0
M  V30 5542 H 522.68 2.47494 3.41064 0
M  V30 5543 H 521.355 1.38092 2.92766 0
M  V30 5544 H 520.262 3.33864 1.68777 0
M  V30 5545 H 521.595 4.3837 2.23814 0
M  V30 5546 N 523.247 -0.488276 1.49845 0
M  V30 5547 C 524.472 -1.26997 1.63971 0
M  V30 5548 C 524.897 -1.85427 0.315994 0
M  V30 5549 O 524.255 -1.66475 -0.718032 0
M  V30 5550 C 524.303 -2.36689 2.72049 0
M  V30 5551 O 523.407 -3.40882 2.32107 0
M  V30 5552 H 522.748 -0.374376 0.548396 0
M  V30 5553 H 525.278 -0.583104 1.96115 0
M  V30 5554 H 525.288 -2.82262 2.94605 0
M  V30 5555 H 523.963 -1.93529 3.68129 0
M  V30 5556 H 522.54 -3.01139 2.19931 0
M  V30 5557 N 524.725 -1.39134 -0.740242 0
M  V30 5558 C 525.95 -1.39518 -1.53459 0
M  V30 5559 C 526.375 0.00968883 -1.88098 0
M  V30 5560 O 525.733 0.995312 -1.51536 0
M  V30 5561 C 525.781 -2.26981 -2.802 0
M  V30 5562 O 524.885 -1.69609 -3.75908 0
M  V30 5563 H 524.226 -0.475328 -0.463637 0
M  V30 5564 H 526.756 -1.83064 -0.913717 0
M  V30 5565 H 526.766 -2.41309 -3.28989 0
M  V30 5566 H 525.441 -3.29081 -2.5432 0
M  V30 5567 H 524.018 -1.64495 -3.34658 0
M  V30 5568 N 526.204 0.969867 -1.24223 0
M  V30 5569 C 527.453 1.70687 -1.07466 0
M  V30 5570 C 527.766 1.91736 0.386861 0
M  V30 5571 O 528.972 2.62986 0.674581 0
M  V30 5572 C 527.428 3.07217 -1.87472 0
M  V30 5573 C 527.036 2.94018 -3.3802 0
M  V30 5574 C 528.78 3.84804 -1.79237 0
M  V30 5575 C 526.687 4.25844 -4.10379 0
M  V30 5576 H 525.617 0.640067 -0.398536 0
M  V30 5577 H 528.268 1.08092 -1.48285 0
M  V30 5578 H 526.65 3.70628 -1.39466 0
M  V30 5579 H 527.824 2.39632 -3.9359 0
M  V30 5580 H 526.139 2.29898 -3.47183 0
M  V30 5581 H 528.736 4.82417 -2.30603 0
M  V30 5582 H 529.079 4.09356 -0.757197 0
M  V30 5583 H 529.612 3.28115 -2.24912 0
M  V30 5584 H 526.351 4.06486 -5.14246 0
M  V30 5585 H 525.871 4.80054 -3.59594 0
M  V30 5586 H 527.55 4.94475 -4.17257 0
M  V30 5587 N 527.682 1.05563 1.17022 0
M  V30 5588 C 528.959 0.68165 1.83338 0
M  V30 5589 C 529.339 -0.837665 1.93769 0
M  V30 5590 O 528.687 -1.74507 1.47511 0
M  V30 5591 C 528.897 1.375 3.20772 0
M  V30 5592 C 530.245 1.51545 3.96635 0
M  V30 5593 O 531.269 1.33431 3.30264 0
M  V30 5594 O 530.128 1.812 5.15586 0
M  V30 5595 H 527.222 0.240412 0.791285 0
M  V30 5596 H 529.768 1.15545 1.24288 0
M  V30 5597 H 528.54 2.41135 3.08171 0
M  V30 5598 H 528.163 0.890798 3.87493 0
M  V30 5599 N 529.16 -1.33526 0.837174 0
M  V30 5600 C 530.576 -1.50727 0.524743 0
M  V30 5601 C 530.776 -1.77792 -0.948279 0
M  V30 5602 O 529.832 -1.83719 -1.73216 0
M  V30 5603 C 531.145 -2.66299 1.39661 0
M  V30 5604 C 532.693 -2.80183 1.39521 0
M  V30 5605 C 533.168 -3.98815 2.25189 0
M  V30 5606 N 534.659 -4.06047 2.2289 0
M  V30 5607 C 535.394 -4.97032 2.85915 0
M  V30 5608 N 534.89 -5.93143 3.57985 0
M  V30 5609 N 536.683 -4.90015 2.75394 0
M  V30 5610 H 528.834 -1.1422 1.79074 0
M  V30 5611 H 531.097 -0.561399 0.763894 0
M  V30 5612 H 530.803 -2.52974 2.4433 0
M  V30 5613 H 530.677 -3.61663 1.07145 0
M  V30 5614 H 533.064 -2.92942 0.356253 0
M  V30 5615 H 533.145 -1.85586 1.76044 0
M  V30 5616 H 532.789 -3.86817 3.29143 0
M  V30 5617 H 532.719 -4.92654 1.86009 0
M  V30 5618 H 535.21 -3.37262 1.70478 0
M  V30 5619 H 535.523 -6.59227 4.03286 0
M  V30 5620 H 533.868 -5.93223 3.62093 0
M  V30 5621 H 537.059 -4.13894 2.18654 0
M  V30 5622 H 537.232 -5.60724 3.24796 0
M  V30 5623 N 530.638 -0.59345 -1.46 0
M  V30 5624 C 531.568 0.121192 -2.33185 0
M  V30 5625 C 532.549 0.872977 -1.4599 0
M  V30 5626 O 533.734 0.846321 -1.74789 0
M  V30 5627 C 530.864 1.12844 -3.28456 0
M  V30 5628 C 529.818 0.4908 -4.25177 0
M  V30 5629 C 529.144 1.60529 -5.10034 0
M  V30 5630 C 530.444 -0.578949 -5.19081 0
M  V30 5631 H 532.138 -0.606767 -2.93187 0
M  V30 5632 H 529.684 -0.293242 -1.40983 0
M  V30 5633 H 531.637 1.63684 -3.88311 0
M  V30 5634 H 530.361 1.88681 -2.66584 0
M  V30 5635 H 529.02 0.00339328 -3.666 0
M  V30 5636 H 528.668 2.35359 -4.44539 0
M  V30 5637 H 528.368 1.18422 -5.75543 0
M  V30 5638 H 529.892 2.11623 -5.72755 0
M  V30 5639 H 531.306 -0.155199 -5.7309 0
M  V30 5640 H 529.703 -0.920947 -5.92991 0
M  V30 5641 H 530.773 -1.46109 -4.62364 0
M  V30 5642 N 532.116 1.54067 -0.331816 0
M  V30 5643 C 533.049 2.20886 0.573127 0
M  V30 5644 C 534.027 1.18876 1.10938 0
M  V30 5645 O 535.211 1.47649 1.17184 0
M  V30 5646 C 532.338 2.87706 1.78726 0
M  V30 5647 C 531.384 4.03505 1.38152 0
M  V30 5648 S 532.217 5.33919 0.41123 0
M  V30 5649 C 533.373 6.04236 1.63246 0
M  V30 5650 H 533.606 2.97299 0.00555737 0
M  V30 5651 H 531.139 1.53964 -0.115893 0
M  V30 5652 H 533.097 3.26825 2.48386 0
M  V30 5653 H 531.758 2.1108 2.32603 0
M  V30 5654 H 530.951 4.49152 2.28645 0
M  V30 5655 H 530.553 3.66102 0.764524 0
M  V30 5656 H 532.845 6.26917 2.56869 0
M  V30 5657 H 533.788 6.97546 1.218 0
M  V30 5658 H 534.196 5.34247 1.82318 0
M  V30 5659 N 533.594 0.0601682 1.57485 0
M  V30 5660 C 534.541 -0.91112 2.12055 0
M  V30 5661 C 535.511 -1.30298 1.03013 0
M  V30 5662 O 536.696 -1.39087 1.30612 0
M  V30 5663 C 533.836 -2.1775 2.67729 0
M  V30 5664 C 532.949 -1.83933 3.90887 0
M  V30 5665 C 532.084 -3.05096 4.34845 0
M  V30 5666 C 531.123 -2.67241 5.5068 0
M  V30 5667 N 530.26 -3.81127 5.8965 0
M  V30 5668 H 535.1 -0.43888 2.9475 0
M  V30 5669 H 532.637 -0.204995 1.45665 0
M  V30 5670 H 534.595 -2.91866 2.98111 0
M  V30 5671 H 533.225 -2.62535 1.87816 0
M  V30 5672 H 532.277 -0.999287 3.6704 0
M  V30 5673 H 533.589 -1.52074 4.75052 0
M  V30 5674 H 532.743 -3.87502 4.66827 0
M  V30 5675 H 531.482 -3.40139 3.49509 0
M  V30 5676 H 530.487 -1.83254 5.18361 0
M  V30 5677 H 531.712 -2.3338 6.37738 0
M  V30 5678 H 529.658 -4.15954 5.07266 0
M  V30 5679 H 529.575 -3.52997 6.68528 0
M  V30 5680 H 530.843 -4.64145 6.2625 0
M  V30 5681 N 535.072 -1.5615 -0.213296 0
M  V30 5682 C 536.004 -1.89586 -1.28802 0
M  V30 5683 C 537.017 -0.784844 -1.42633 0
M  V30 5684 O 538.206 -1.06319 -1.43383 0
M  V30 5685 C 535.306 -2.09665 -2.66259 0
M  V30 5686 C 534.479 -3.40726 -2.7427 0
M  V30 5687 C 533.538 -3.50137 -3.92798 0
M  V30 5688 O 532.564 -4.23105 -3.8075 0
M  V30 5689 N 533.766 -2.81886 -5.07465 0
M  V30 5690 H 536.531 -2.82368 -1.00442 0
M  V30 5691 H 534.092 -1.56796 -0.403302 0
M  V30 5692 H 536.084 -2.13268 -3.43946 0
M  V30 5693 H 534.654 -1.23469 -2.87183 0
M  V30 5694 H 533.874 -3.4915 -1.82997 0
M  V30 5695 H 535.162 -4.27048 -2.76599 0
M  V30 5696 H 534.56 -2.22397 -5.2015 0
M  V30 5697 H 533.117 -2.91139 -5.83165 0
M  V30 5698 N 536.55 0.480323 -1.50102 0
M  V30 5699 C 537.799 1.22979 -1.59872 0
M  V30 5700 C 538.112 1.93282 -0.30022 0
M  V30 5701 O 539.318 2.70086 -0.276709 0
M  V30 5702 C 537.774 2.23408 -2.82164 0
M  V30 5703 C 537.382 1.5895 -4.18854 0
M  V30 5704 C 539.126 2.99055 -3.01275 0
M  V30 5705 C 537.033 2.57611 -5.32344 0
M  V30 5706 H 535.963 0.462707 -0.59533 0
M  V30 5707 H 538.614 0.501291 -1.7652 0
M  V30 5708 H 536.996 2.99511 -2.59055 0
M  V30 5709 H 538.17 0.887 -4.52182 0
M  V30 5710 H 536.485 0.956191 -4.05273 0
M  V30 5711 H 539.082 3.72876 -3.83233 0
M  V30 5712 H 539.425 3.57897 -2.12639 0
M  V30 5713 H 539.958 2.30066 -3.24522 0
M  V30 5714 H 536.697 2.03521 -6.23105 0
M  V30 5715 H 536.217 3.26041 -5.03445 0
M  V30 5716 H 537.896 3.19627 -5.62537 0
M  V30 5717 N 538.028 1.39524 0.732853 0
M  V30 5718 C 539.253 1.40329 1.52717 0
M  V30 5719 C 539.678 0.000286574 1.881 0
M  V30 5720 O 539.036 -0.987262 1.52062 0
M  V30 5721 C 539.084 2.28464 2.78992 0
M  V30 5722 O 538.188 1.716 3.75003 0
M  V30 5723 H 537.529 0.47778 0.461109 0
M  V30 5724 H 540.059 1.83546 0.903996 0
M  V30 5725 H 540.069 2.43051 3.27705 0
M  V30 5726 H 538.744 3.30425 2.52572 0
M  V30 5727 H 537.321 1.66267 3.33781 0
M  V30 5728 N 539.506 -0.963266 1.24736 0
M  V30 5729 C 540.731 -1.74699 1.11781 0
M  V30 5730 C 541.156 -1.85267 -0.325258 0
M  V30 5731 O 540.514 -1.32681 -1.23553 0
M  V30 5732 C 540.562 -3.14322 1.76731 0
M  V30 5733 O 539.666 -3.99043 1.04109 0
M  V30 5734 H 539.007 -0.53684 0.390767 0
M  V30 5735 H 541.537 -1.20801 1.65131 0
M  V30 5736 H 541.547 -3.64824 1.82668 0
M  V30 5737 H 540.222 -3.05946 2.81726 0
M  V30 5738 H 538.799 -3.5752 1.05991 0
M  V30 5739 N 540.985 -1.06182 -1.16461 0
M  V30 5740 C 542.232 -0.777863 -1.86964 0
M  V30 5741 C 542.56 0.695602 -1.81636 0
M  V30 5742 O 541.815 1.52532 -1.22607 0
M  V30 5743 C 542.114 -1.21633 -3.36066 0
M  V30 5744 C 541.78 -2.69371 -3.61594 0
M  V30 5745 C 540.442 -3.09727 -3.6827 0
M  V30 5746 C 542.794 -3.64791 -3.7226 0
M  V30 5747 C 540.122 -4.44345 -3.83112 0
M  V30 5748 C 542.474 -4.99155 -3.88623 0
M  V30 5749 C 541.138 -5.39149 -3.93541 0
M  V30 5750 H 540.408 -0.28464 -0.68415 0
M  V30 5751 H 543.055 -1.33071 -1.37711 0
M  V30 5752 H 541.36 -0.582651 -3.87443 0
M  V30 5753 H 543.057 -0.973682 -3.88999 0
M  V30 5754 H 539.647 -2.37124 -3.57029 0
M  V30 5755 H 543.831 -3.34746 -3.66413 0
M  V30 5756 H 539.087 -4.74819 -3.85172 0
M  V30 5757 H 543.261 -5.72976 -3.95817 0
M  V30 5758 H 540.888 -6.43464 -4.04794 0
M  V30 5759 N 542.463 1.3308 -0.844243 0
M  V30 5760 C 543.396 2.27075 -0.226279 0
M  V30 5761 C 544.374 1.49911 0.629716 0
M  V30 5762 O 545.558 1.79068 0.588803 0
M  V30 5763 C 542.685 3.31767 0.681782 0
M  V30 5764 C 541.731 4.26384 -0.0994565 0
M  V30 5765 S 542.564 5.15186 -1.46094 0
M  V30 5766 C 543.72 6.23405 -0.558319 0
M  V30 5767 H 543.953 2.79141 -1.02312 0
M  V30 5768 H 541.486 1.40452 -0.641292 0
M  V30 5769 H 543.444 3.92566 1.20008 0
M  V30 5770 H 542.105 2.78507 1.45234 0
M  V30 5771 H 541.298 5.00514 0.591733 0
M  V30 5772 H 540.9 3.69949 -0.548991 0
M  V30 5773 H 543.192 6.77069 0.241672 0
M  V30 5774 H 544.135 6.96619 -1.26995 0
M  V30 5775 H 544.543 5.64333 -0.13728 0
M  V30 5776 N 543.941 0.601185 1.45683 0
M  V30 5777 C 545.166 0.0982245 2.07167 0
M  V30 5778 C 545.591 -1.20546 1.44396 0
M  V30 5779 O 544.949 -1.73247 0.534347 0
M  V30 5780 C 544.997 -0.0346976 3.60583 0
M  V30 5781 O 544.101 -1.08657 3.97828 0
M  V30 5782 H 543.442 0.0711618 0.660176 0
M  V30 5783 H 545.972 0.829376 1.87036 0
M  V30 5784 H 545.982 -0.234969 4.07323 0
M  V30 5785 H 544.657 0.917265 4.05659 0
M  V30 5786 H 543.234 -0.863275 3.6277 0
M  V30 5787 N 545.419 -1.53889 0.339982 0
M  V30 5788 C 546.329 -2.28604 -0.526988 0
M  V30 5789 C 547.345 -1.33578 -1.11503 0
M  V30 5790 O 548.521 -1.66612 -1.13148 0
M  V30 5791 C 545.586 -3.04164 -1.66389 0
M  V30 5792 C 544.647 -4.14809 -1.10599 0
M  V30 5793 C 543.88 -4.86756 -2.18871 0
M  V30 5794 O 544.103 -4.58343 -3.39526 0
M  V30 5795 O 543.037 -5.73289 -1.83366 0
M  V30 5796 H 546.863 -3.03594 0.0802707 0
M  V30 5797 H 544.448 -1.4903 0.105141 0
M  V30 5798 H 546.33 -3.51427 -2.32544 0
M  V30 5799 H 545.005 -2.32035 -2.25703 0
M  V30 5800 H 543.912 -3.71857 -0.409067 0
M  V30 5801 H 545.245 -4.89029 -0.557771 0
M  V30 5802 N 546.897 -0.0685191 -1.57451 0
M  V30 5803 C 548.146 0.600898 -1.92541 0
M  V30 5804 C 548.459 1.70967 -0.950239 0
M  V30 5805 O 549.665 2.43844 -1.19384 0
M  V30 5806 C 548.121 1.12019 -3.42023 0
M  V30 5807 C 547.729 0.0426028 -4.4798 0
M  V30 5808 C 549.473 1.76386 -3.86119 0
M  V30 5809 C 547.38 0.575759 -5.88591 0
M  V30 5810 H 546.31 0.228225 -0.71863 0
M  V30 5811 H 548.961 -0.140223 -1.82963 0
M  V30 5812 H 547.343 1.91418 -3.46663 0
M  V30 5813 H 548.517 -0.73182 -4.54952 0
M  V30 5814 H 546.832 -0.504642 -4.13331 0
M  V30 5815 H 549.429 2.17302 -4.88553 0
M  V30 5816 H 549.772 2.62255 -3.23308 0
M  V30 5817 H 550.305 1.03615 -3.84069 0
M  V30 5818 H 547.044 -0.245691 -6.55039 0
M  V30 5819 H 546.564 1.31778 -5.85145 0
M  V30 5820 H 548.243 1.0532 -6.3837 0
M  V30 5821 N 548.375 1.56261 0.205012 0
M  V30 5822 C 549.6 1.84491 0.947512 0
M  V30 5823 C 550.025 0.650894 1.76479 0
M  V30 5824 O 549.383 -0.40035 1.76824 0
M  V30 5825 C 549.431 3.10863 1.82747 0
M  V30 5826 O 548.535 2.90719 2.925 0
M  V30 5827 H 547.876 0.607783 0.267386 0
M  V30 5828 H 550.406 2.03485 0.213323 0
M  V30 5829 H 550.416 3.41399 2.23407 0
M  V30 5830 H 549.091 3.97392 1.2269 0
M  V30 5831 H 547.668 2.71457 2.55667 0
M  V30 5832 N 549.853 -0.472356 1.50355 0
M  V30 5833 C 551.13 -1.23356 1.51798 0
M  V30 5834 C 551.51 -2.09469 0.26193 0
M  V30 5835 O 550.858 -2.15677 -0.754691 0
M  V30 5836 C 551.068 -2.06568 2.81302 0
M  V30 5837 C 552.416 -2.648 3.31913 0
M  V30 5838 O 553.44 -2.16812 2.82614 0
M  V30 5839 O 552.299 -3.52231 4.17846 0
M  V30 5840 H 549.393 -0.559707 0.608816 0
M  V30 5841 H 551.939 -0.48428 1.62643 0
M  V30 5842 H 550.711 -1.43103 3.64194 0
M  V30 5843 H 550.334 -2.88633 2.73454 0
M  V30 5844 N 551.331 -1.39911 -0.725443 0
M  V30 5845 C 552.241 -1.41688 -1.8698 0
M  V30 5846 C 553.257 -0.310579 -1.71206 0
M  V30 5847 O 554.433 -0.55359 -1.93642 0
M  V30 5848 C 551.498 -1.26811 -3.22676 0
M  V30 5849 C 550.559 -2.47497 -3.50776 0
M  V30 5850 C 549.792 -2.3332 -4.79997 0
M  V30 5851 O 550.015 -1.34175 -5.54394 0
M  V30 5852 O 548.949 -3.22498 -5.08211 0
M  V30 5853 H 552.775 -2.38171 -1.88436 0
M  V30 5854 H 550.36 -1.21128 -0.874548 0
M  V30 5855 H 552.242 -1.20684 -4.03749 0
M  V30 5856 H 550.917 -0.334289 -3.21969 0
M  V30 5857 H 549.824 -2.59201 -2.69751 0
M  V30 5858 H 551.157 -3.39606 -3.5627 0
M  V30 5859 N 552.809 0.956637 -1.25245 0
M  V30 5860 C 554.056 1.701 -1.09874 0
M  V30 5861 C 554.384 1.91128 0.36062 0
M  V30 5862 O 553.639 1.47837 1.28229 0
M  V30 5863 C 553.938 3.08996 -1.79601 0
M  V30 5864 C 553.604 3.07774 -3.29523 0
M  V30 5865 C 552.266 3.07149 -3.70423 0
M  V30 5866 C 554.618 3.01257 -4.25316 0
M  V30 5867 C 551.946 2.97752 -5.0553 0
M  V30 5868 C 554.298 2.93403 -5.60444 0
M  V30 5869 C 552.962 2.91111 -6.00675 0
M  V30 5870 H 552.232 0.62244 -0.402056 0
M  V30 5871 H 554.879 1.1178 -1.55491 0
M  V30 5872 H 553.184 3.70848 -1.26408 0
M  V30 5873 H 554.881 3.65407 -1.65162 0
M  V30 5874 H 551.471 3.09032 -2.9698 0
M  V30 5875 H 555.655 3.00861 -3.9471 0
M  V30 5876 H 550.911 2.94346 -5.35883 0
M  V30 5877 H 555.085 2.87321 -6.34366 0
M  V30 5878 H 552.712 2.83586 -7.05325 0
M  V30 5879 N 554.287 1.06798 1.15896 0
M  V30 5880 C 555.234 0.683314 2.20453 0
M  V30 5881 C 556.204 -0.32255 1.62938 0
M  V30 5882 O 557.389 -0.210276 1.89638 0
M  V30 5883 C 554.529 0.0813266 3.45004 0
M  V30 5884 C 553.642 1.13799 4.16742 0
M  V30 5885 C 552.777 0.501598 5.28826 0
M  V30 5886 C 551.816 1.54144 5.92373 0
M  V30 5887 N 550.953 0.928038 6.9594 0
M  V30 5888 H 555.793 1.57932 2.52708 0
M  V30 5889 H 553.33 0.789544 1.24115 0
M  V30 5890 H 555.288 -0.285274 4.16224 0
M  V30 5891 H 553.918 -0.77806 3.13283 0
M  V30 5892 H 552.97 1.62223 3.44075 0
M  V30 5893 H 554.282 1.92664 4.60089 0
M  V30 5894 H 553.436 0.0823162 6.06644 0
M  V30 5895 H 552.175 -0.318883 4.86656 0
M  V30 5896 H 551.18 1.97056 5.13273 0
M  V30 5897 H 552.405 2.3641 6.36621 0
M  V30 5898 H 550.351 0.12836 6.55874 0
M  V30 5899 H 550.268 1.65401 7.37685 0
M  V30 5900 H 551.536 0.534071 7.77668 0
M  V30 5901 N 555.766 -1.3263 0.851289 0
M  V30 5902 C 557.012 -1.9766 0.453694 0
M  V30 5903 C 557.345 -1.67225 -0.987396 0
M  V30 5904 O 556.62 -0.958693 -1.69232 0
M  V30 5905 C 556.903 -3.5344 0.68936 0
M  V30 5906 C 556.756 -3.93517 2.17862 0
M  V30 5907 C 558.075 -4.39866 0.143555 0
M  V30 5908 H 555.194 -0.717989 0.166314 0
M  V30 5909 H 557.836 -1.57068 1.06909 0
M  V30 5910 H 555.986 -3.88147 0.165546 0
M  V30 5911 H 557.658 -3.69006 2.76826 0
M  V30 5912 H 555.901 -3.42798 2.65841 0
M  V30 5913 H 556.572 -5.02065 2.29422 0
M  V30 5914 H 559.048 -4.11875 0.591451 0
M  V30 5915 H 557.924 -5.47858 0.338043 0
M  V30 5916 H 558.185 -4.31696 -0.953466 0
M  V30 5917 N 557.244 -0.608902 -1.45362 0
M  V30 5918 C 558.49 -0.104762 -2.02529 0
M  V30 5919 C 558.823 1.26191 -1.47613 0
M  V30 5920 O 558.098 1.8327 -0.65134 0
M  V30 5921 C 558.381 -0.0672661 -3.60037 0
M  V30 5922 C 558.234 -1.4647 -4.25284 0
M  V30 5923 C 559.553 0.619877 -4.35713 0
M  V30 5924 H 556.672 -0.0395438 -0.735938 0
M  V30 5925 H 559.314 -0.781126 -1.73201 0
M  V30 5926 H 557.464 0.50871 -3.85155 0
M  V30 5927 H 559.136 -2.08785 -4.11347 0
M  V30 5928 H 557.379 -2.02502 -3.83634 0
M  V30 5929 H 558.05 -1.39069 -5.34195 0
M  V30 5930 H 560.526 0.130297 -4.15896 0
M  V30 5931 H 559.402 0.615224 -5.45441 0
M  V30 5932 H 559.663 1.68621 -4.0868 0
M  V30 5933 N 558.722 1.53707 -0.348139 0
M  V30 5934 C 559.968 2.01286 0.247332 0
M  V30 5935 C 560.301 1.23546 1.49834 0
M  V30 5936 O 559.576 0.324331 1.91777 0
M  V30 5937 C 559.859 3.55768 0.556858 0
M  V30 5938 C 559.712 4.44216 -0.706564 0
M  V30 5939 C 561.031 4.1841 1.3646 0
M  V30 5940 H 558.15 0.731677 0.0884201 0
M  V30 5941 H 560.792 1.84106 -0.469584 0
M  V30 5942 H 558.942 3.70539 1.16761 0
M  V30 5943 H 560.614 4.41274 -1.34444 0
M  V30 5944 H 558.857 4.12892 -1.33052 0
M  V30 5945 H 559.528 5.50202 -0.445186 0
M  V30 5946 H 562.004 4.07365 0.848113 0
M  V30 5947 H 560.88 5.26563 1.54992 0
M  V30 5948 H 561.141 3.7333 2.36805 0
M  V30 5949 N 560.2 0.0768682 1.57412 0
M  V30 5950 C 561.446 -0.591961 1.93968 0
M  V30 5951 C 561.779 -1.68954 0.9575 0
M  V30 5952 O 561.054 -1.94496 -0.0124675 0
M  V30 5953 C 561.337 -1.16418 3.40762 0
M  V30 5954 C 561.19 -0.0728933 4.49741 0
M  V30 5955 C 562.509 -2.06814 3.88479 0
M  V30 5956 H 559.628 -0.213716 0.705333 0
M  V30 5957 H 562.27 0.14387 1.89455 0
M  V30 5958 H 560.42 -1.79128 3.4474 0
M  V30 5959 H 562.092 0.560446 4.57883 0
M  V30 5960 H 560.335 0.595859 4.29688 0
M  V30 5961 H 561.006 -0.513755 5.49604 0
M  V30 5962 H 563.482 -1.54033 3.8654 0
M  V30 5963 H 562.358 -2.43785 4.91793 0
M  V30 5964 H 562.619 -2.97844 3.26713 0
M  V30 5965 N 561.678 -1.56367 -0.196722 0
M  V30 5966 C 562.61 -1.90941 -1.26784 0
M  V30 5967 C 563.623 -0.799928 -1.41792 0
M  V30 5968 O 564.812 -1.07833 -1.42247 0
M  V30 5969 C 561.912 -2.12477 -2.6402 0
M  V30 5970 C 561.085 -3.43616 -2.70641 0
M  V30 5971 C 560.144 -3.54284 -3.89062 0
M  V30 5972 O 559.17 -4.2712 -3.76241 0
M  V30 5973 N 560.372 -2.87252 -5.04447 0
M  V30 5974 H 563.137 -2.83417 -0.974417 0
M  V30 5975 H 560.698 -1.57215 -0.386649 0
M  V30 5976 H 562.69 -2.16904 -3.41665 0
M  V30 5977 H 561.26 -1.26508 -2.85857 0
M  V30 5978 H 560.48 -3.51072 -1.79283 0
M  V30 5979 H 561.768 -4.29958 -2.72054 0
M  V30 5980 H 561.166 -2.27901 -5.17762 0
M  V30 5981 H 559.723 -2.97308 -5.80044 0
M  V30 5982 N 563.156 0.464375 -1.50603 0
M  V30 5983 C 564.119 1.54393 -1.69397 0
M  V30 5984 C 565.119 1.50566 -0.564504 0
M  V30 5985 O 566.309 1.53066 -0.831645 0
M  V30 5986 C 563.441 2.9401 -1.72543 0
M  V30 5987 H 564.634 1.39044 -2.65719 0
M  V30 5988 H 562.187 0.69122 -1.40185 0
M  V30 5989 H 562.922 3.14795 -0.77938 0
M  V30 5990 H 562.707 2.98195 -2.54602 0
M  V30 5991 H 564.197 3.72375 -1.89015 0
M  V30 5992 N 564.634 1.40294 0.718013 0
M  V30 5993 C 565.883 1.37746 1.4734 0
M  V30 5994 C 566.196 -0.0180754 1.95592 0
M  V30 5995 O 567.402 -0.166166 2.70991 0
M  V30 5996 C 565.858 2.4208 2.66318 0
M  V30 5997 C 565.466 3.87432 2.24945 0
M  V30 5998 C 567.21 2.48635 3.44065 0
M  V30 5999 C 565.117 4.83368 3.40748 0
M  V30 6000 H 564.047 0.512165 0.553356 0
M  V30 6001 H 566.698 1.66019 0.781661 0
M  V30 6002 H 565.08 2.06903 3.3765 0
M  V30 6003 H 566.254 4.3174 1.6105 0
M  V30 6004 H 564.569 3.8433 1.60249 0
M  V30 6005 H 567.166 3.17499 4.30231 0
M  V30 6006 H 567.509 1.51611 3.87711 0
M  V30 6007 H 568.042 2.82791 2.79775 0
M  V30 6008 H 564.781 5.81716 3.02136 0
M  V30 6009 H 564.301 4.43726 4.03568 0
M  V30 6010 H 565.98 5.03074 4.06848 0
M  V30 6011 N 566.112 -0.949982 1.2575 0
M  V30 6012 C 567.337 -1.73503 1.13628 0
M  V30 6013 C 567.762 -1.85601 -0.30559 0
M  V30 6014 O 567.12 -1.33984 -1.22139 0
M  V30 6015 C 567.168 -3.1243 1.80055 0
M  V30 6016 O 566.272 -3.97916 1.08336 0
M  V30 6017 H 565.613 -0.532665 0.396439 0
M  V30 6018 H 568.143 -1.19043 1.66403 0
M  V30 6019 H 568.153 -3.62866 1.86527 0
M  V30 6020 H 566.828 -3.02941 2.84956 0
M  V30 6021 H 565.405 -3.56375 1.09777 0
M  V30 6022 N 567.59 -1.07411 -1.15328 0
M  V30 6023 C 568.553 -0.698914 -2.18284 0
M  V30 6024 C 569.553 0.261149 -1.58665 0
M  V30 6025 O 570.743 0.0420277 -1.74149 0
M  V30 6026 C 567.875 -0.0302427 -3.40887 0
M  V30 6027 H 569.068 -1.61045 -2.52991 0
M  V30 6028 H 566.621 -0.870724 -1.298 0
M  V30 6029 H 567.356 0.893505 -3.11748 0
M  V30 6030 H 567.141 -0.720759 -3.85419 0
M  V30 6031 H 568.631 0.21759 -4.17033 0
M  V30 6032 N 569.068 1.32177 -0.85831 0
M  V30 6033 C 569.998 2.31282 -0.321041 0
M  V30 6034 C 570.979 1.59841 0.581786 0
M  V30 6035 O 572.164 1.87619 0.501262 0
M  V30 6036 C 569.294 3.4385 0.48832 0
M  V30 6037 C 568.248 4.26799 -0.320391 0
M  V30 6038 C 567.574 5.31164 0.613934 0
M  V30 6039 C 568.874 4.98829 -1.54813 0
M  V30 6040 H 570.568 2.76469 -1.14915 0
M  V30 6041 H 568.114 1.32916 -0.554028 0
M  V30 6042 H 570.067 4.12224 0.874626 0
M  V30 6043 H 568.791 2.97401 1.34983 0
M  V30 6044 H 567.45 3.60077 -0.688497 0
M  V30 6045 H 567.098 4.80967 1.47239 0
M  V30 6046 H 566.798 5.8755 0.0768097 0
M  V30 6047 H 568.322 6.024 0.997336 0
M  V30 6048 H 569.736 5.59864 -1.23392 0
M  V30 6049 H 568.133 5.64957 -2.02346 0
M  V30 6050 H 569.203 4.26483 -2.30739 0
M  V30 6051 N 570.547 0.616602 1.45037 0
M  V30 6052 C 571.787 0.118453 2.04056 0
M  V30 6053 C 572.151 -1.23104 1.47341 0
M  V30 6054 O 573.352 -1.82044 1.97771 0
M  V30 6055 C 571.623 0.0892842 3.57288 0
M  V30 6056 S 573.182 -0.346361 4.37431 0
M  V30 6057 H 570 0.0539728 0.708948 0
M  V30 6058 H 572.602 0.816731 1.77623 0
M  V30 6059 H 571.306 1.07481 3.96076 0
M  V30 6060 H 570.837 -0.630703 3.88311 0
M  V30 6061 H 572.852 -1.59389 4.69904 0
M  V30 6062 N 572.025 -1.5352 0.356285 0
M  V30 6063 C 572.957 -2.23009 -0.529127 0
M  V30 6064 C 573.97 -1.241 -1.05371 0
M  V30 6065 O 575.159 -1.50379 -0.961679 0
M  V30 6066 C 572.259 -2.90685 -1.74229 0
M  V30 6067 C 571.432 -4.16019 -1.35081 0
M  V30 6068 C 570.491 -4.66989 -2.42502 0
M  V30 6069 O 569.517 -5.30895 -2.05279 0
M  V30 6070 N 570.719 -4.44006 -3.7395 0
M  V30 6071 H 573.484 -2.99627 0.0660501 0
M  V30 6072 H 571.045 -1.60885 0.181014 0
M  V30 6073 H 573.037 -3.21695 -2.4555 0
M  V30 6074 H 571.607 -2.17575 -2.24454 0
M  V30 6075 H 570.827 -3.91414 -0.467833 0
M  V30 6076 H 572.115 -4.9752 -1.06542 0
M  V30 6077 H 571.513 -3.92924 -4.06973 0
M  V30 6078 H 570.07 -4.7959 -4.41403 0
M  V30 6079 N 573.503 -0.0852151 -1.57369 0
M  V30 6080 C 574.45 0.877268 -2.13478 0
M  V30 6081 C 575.42 1.28642 -1.05073 0
M  V30 6082 O 576.605 1.36992 -1.32808 0
M  V30 6083 C 573.745 2.13464 -2.71159 0
M  V30 6084 C 572.858 1.77691 -3.93764 0
M  V30 6085 C 571.993 2.98139 -4.39643 0
M  V30 6086 C 571.032 2.58447 -5.54862 0
M  V30 6087 N 570.169 3.71698 -5.95639 0
M  V30 6088 H 575.009 0.391933 -2.95411 0
M  V30 6089 H 572.546 0.181796 -1.45972 0
M  V30 6090 H 574.504 2.87086 -3.02717 0
M  V30 6091 H 573.134 2.59514 -1.91969 0
M  V30 6092 H 572.186 0.940768 -3.68583 0
M  V30 6093 H 573.498 1.44497 -4.77412 0
M  V30 6094 H 572.652 3.80026 -4.72933 0
M  V30 6095 H 571.391 3.34536 -3.54876 0
M  V30 6096 H 570.396 1.74984 -5.21211 0
M  V30 6097 H 571.621 2.23205 -6.41371 0
M  V30 6098 H 569.567 4.07831 -5.13819 0
M  V30 6099 H 569.484 3.42317 -6.74059 0
M  V30 6100 H 570.752 4.54123 -6.33555 0
M  V30 6101 N 574.981 1.5647 0.188427 0
M  V30 6102 C 576.211 1.84863 0.922463 0
M  V30 6103 C 576.619 0.666413 1.77075 0
M  V30 6104 O 575.962 -0.374044 1.79852 0
M  V30 6105 C 576.024 3.07447 1.86324 0
M  V30 6106 C 575.688 4.41066 1.19625 0
M  V30 6107 C 576.685 5.16767 0.569946 0
M  V30 6108 C 574.37 4.87802 1.19811 0
M  V30 6109 C 576.364 6.37384 -0.045594 0
M  V30 6110 C 574.051 6.08353 0.57874 0
M  V30 6111 C 575.049 6.82987 -0.0420259 0
M  V30 6112 O 574.737 8.01254 -0.651675 0
M  V30 6113 H 574.469 0.61784 0.274316 0
M  V30 6114 H 577.023 2.04437 0.198613 0
M  V30 6115 H 575.253 2.83774 2.62696 0
M  V30 6116 H 576.942 3.2243 2.46564 0
M  V30 6117 H 577.708 4.81749 0.560601 0
M  V30 6118 H 573.587 4.29662 1.67069 0
M  V30 6119 H 577.131 6.95578 -0.530731 0
M  V30 6120 H 573.028 6.42838 0.58561 0
M  V30 6121 H 573.796 8.16655 -0.549236 0
M  V30 6122 N 576.459 -0.456382 1.50847 0
M  V30 6123 C 577.87 -1.03685 1.55262 0
M  V30 6124 C 578.221 -1.92779 0.364771 0
M  V30 6125 O 577.346 -2.10043 -0.52068 0
M  V30 6126 C 577.941 -1.88718 2.81374 0
M  V30 6127 C 576.5 -2.41847 2.88422 0
M  V30 6128 C 575.647 -1.20564 2.49719 0
M  V30 6129 H 578.598 -0.238399 1.56899 0
M  V30 6130 H 578.619 -2.73957 2.6406 0
M  V30 6131 H 578.131 -1.23847 3.67809 0
M  V30 6132 H 576.232 -3.10228 2.06372 0
M  V30 6133 H 576.345 -2.75947 3.9165 0
M  V30 6134 H 574.709 -1.54504 2.02486 0
M  V30 6135 H 575.492 -0.573326 3.38479 0
M  V30 6136 N 577.937 -1.40673 -0.710563 0
M  V30 6137 C 579.353 -1.22813 -1.01928 0
M  V30 6138 C 579.553 -0.10687 -2.01216 0
M  V30 6139 O 578.609 0.533614 -2.46797 0
M  V30 6140 C 579.922 -2.57178 -1.5582 0
M  V30 6141 C 581.47 -2.64233 -1.67779 0
M  V30 6142 C 581.945 -3.98879 -2.25076 0
M  V30 6143 N 583.436 -4.00647 -2.32456 0
M  V30 6144 C 584.171 -5.01621 -2.77784 0
M  V30 6145 N 583.667 -6.12989 -3.22826 0
M  V30 6146 N 585.46 -4.88988 -2.77213 0
M  V30 6147 H 577.611 -2.12335 -0.05253 0
M  V30 6148 H 579.874 -0.9441 -0.085898 0
M  V30 6149 H 579.58 -3.39903 -0.903249 0
M  V30 6150 H 579.454 -2.78618 -2.54267 0
M  V30 6151 H 581.841 -1.81876 -2.3239 0
M  V30 6152 H 581.922 -2.46619 -0.679178 0
M  V30 6153 H 581.566 -4.81678 -1.61086 0
M  V30 6154 H 581.496 -4.13826 -3.25661 0
M  V30 6155 H 583.987 -3.20231 -2.0065 0
M  V30 6156 H 584.3 -6.85921 -3.55995 0
M  V30 6157 H 582.645 -6.16547 -3.20773 0
M  V30 6158 H 585.836 -4.01075 -2.41363 0
M  V30 6159 H 586.009 -5.67822 -3.12221 0
M  V30 6160 N 579.415 0.9433 -1.26252 0
M  V30 6161 C 580.362 2.0417 -1.07625 0
M  V30 6162 C 581.332 1.6609 0.0180738 0
M  V30 6163 O 582.517 1.90276 -0.141289 0
M  V30 6164 C 579.657 3.37653 -0.713043 0
M  V30 6165 C 578.77 3.88783 -1.8834 0
M  V30 6166 C 577.905 5.10642 -1.4635 0
M  V30 6167 C 576.944 5.54028 -2.60229 0
M  V30 6168 N 576.081 6.67092 -2.18936 0
M  V30 6169 H 580.921 2.19436 -2.01623 0
M  V30 6170 H 578.458 1.07519 -1.00389 0
M  V30 6171 H 580.416 4.14391 -0.483358 0
M  V30 6172 H 579.046 3.22241 0.18996 0
M  V30 6173 H 578.098 3.08464 -2.22608 0
M  V30 6174 H 579.41 4.16922 -2.73821 0
M  V30 6175 H 578.564 5.94832 -1.19414 0
M  V30 6176 H 577.303 4.84244 -0.579568 0
M  V30 6177 H 576.308 4.68396 -2.87898 0
M  V30 6178 H 577.533 5.82429 -3.49219 0
M  V30 6179 H 575.479 6.42381 -1.32974 0
M  V30 6180 H 575.396 6.94806 -2.97961 0
M  V30 6181 H 576.664 7.54662 -1.95206 0
M  V30 6182 N 580.893 1.08022 1.14757 0
M  V30 6183 C 581.843 0.676345 2.17737 0
M  V30 6184 C 582.827 -0.302018 1.5804 0
M  V30 6185 O 584.019 -0.11466 1.76628 0
M  V30 6186 C 581.148 0.082984 3.432 0
M  V30 6187 C 580.234 1.0869 4.09936 0
M  V30 6188 N 580.625 2.26891 4.52055 0
M  V30 6189 C 578.923 0.921768 4.36371 0
M  V30 6190 C 579.624 2.90636 5.0389 0
M  V30 6191 N 578.6 2.18266 4.97856 0
M  V30 6192 H 582.402 1.5765 2.4804 0
M  V30 6193 H 579.916 0.954374 1.31398 0
M  V30 6194 H 581.913 -0.224289 4.16296 0
M  V30 6195 H 580.573 -0.812206 3.14378 0
M  V30 6196 H 581.584 2.6457 4.45223 0
M  V30 6197 H 578.261 0.0800499 4.17423 0
M  V30 6198 H 579.651 3.9104 5.46386 0
M  V30 6199 N 582.371 -1.3172 0.865308 0
M  V30 6200 C 583.334 -2.26918 0.322627 0
M  V30 6201 C 584.334 -1.52031 -0.523751 0
M  V30 6202 O 585.524 -1.70973 -0.333727 0
M  V30 6203 C 582.656 -3.36558 -0.542338 0
M  V30 6204 H 583.849 -2.76432 1.16298 0
M  V30 6205 H 581.402 -1.42573 0.640512 0
M  V30 6206 H 582.137 -2.92329 -1.40407 0
M  V30 6207 H 581.922 -3.92048 0.0636395 0
M  V30 6208 H 583.412 -4.07465 -0.91446 0
M  V30 6209 N 583.85 -0.624285 -1.44708 0
M  V30 6210 C 585.096 -0.126237 -2.02407 0
M  V30 6211 C 585.428 1.24618 -1.48943 0
M  V30 6212 O 584.704 1.82569 -0.670742 0
M  V30 6213 C 584.986 -0.105449 -3.59946 0
M  V30 6214 C 584.84 -1.50972 -4.23707 0
M  V30 6215 C 586.159 0.573629 -4.36346 0
M  V30 6216 H 583.278 -0.0473472 -0.735478 0
M  V30 6217 H 585.92 -0.799452 -1.72362 0
M  V30 6218 H 584.07 0.46783 -3.85673 0
M  V30 6219 H 585.742 -2.13136 -4.0911 0
M  V30 6220 H 583.985 -2.0656 -3.81465 0
M  V30 6221 H 584.656 -1.44727 -5.32689 0
M  V30 6222 H 587.132 0.0861787 -4.16011 0
M  V30 6223 H 586.008 0.557338 -5.46063 0
M  V30 6224 H 586.269 1.64276 -4.10446 0
M  V30 6225 N 585.328 1.53329 -0.364422 0
M  V30 6226 C 586.258 2.28627 0.474543 0
M  V30 6227 C 587.239 1.31009 1.08492 0
M  V30 6228 O 588.424 1.59878 1.10239 0
M  V30 6229 C 585.554 3.07465 1.61501 0
M  V30 6230 C 584.508 4.1276 1.13194 0
M  V30 6231 C 583.834 4.79674 2.36255 0
M  V30 6232 C 585.134 5.21847 0.217507 0
M  V30 6233 H 586.828 2.99005 -0.153656 0
M  V30 6234 H 584.374 1.43803 -0.0753406 0
M  V30 6235 H 586.327 3.58889 2.20855 0
M  V30 6236 H 585.051 2.34775 2.27042 0
M  V30 6237 H 583.71 3.62281 0.56109 0
M  V30 6238 H 583.358 4.03557 3.00251 0
M  V30 6239 H 583.058 5.50827 2.04606 0
M  V30 6240 H 584.582 5.33892 2.96297 0
M  V30 6241 H 585.996 5.6878 0.718493 0
M  V30 6242 H 584.393 6.00099 -0.00806408 0
M  V30 6243 H 585.463 4.7921 -0.740653 0
M  V30 6244 N 586.806 0.0935595 1.57322 0
M  V30 6245 C 587.739 -0.902505 2.09595 0
M  V30 6246 C 588.717 -1.27732 1.00615 0
M  V30 6247 O 589.901 -1.38283 1.28102 0
M  V30 6248 C 587.028 -2.20416 2.57166 0
M  V30 6249 C 586.074 -1.97932 3.7779 0
M  V30 6250 S 586.907 -1.21873 5.21447 0
M  V30 6251 C 588.063 -2.53273 5.72367 0
M  V30 6252 H 588.296 -0.457797 2.93754 0
M  V30 6253 H 585.829 -0.119694 1.53935 0
M  V30 6254 H 587.787 -2.95217 2.85232 0
M  V30 6255 H 586.448 -2.62008 1.73235 0
M  V30 6256 H 585.641 -2.94316 4.09138 0
M  V30 6257 H 585.243 -1.3126 3.5021 0
M  V30 6258 H 587.535 -3.49256 5.8054 0
M  V30 6259 H 588.478 -2.26505 6.70896 0
M  V30 6260 H 588.886 -2.61475 5.00291 0
M  V30 6261 N 588.284 -1.56567 -0.180126 0
M  V30 6262 C 589.232 -1.96632 -1.24251 0
M  V30 6263 C 590.226 -0.853818 -1.46309 0
M  V30 6264 O 591.432 -1.0389 -1.46993 0
M  V30 6265 H 587.807 -0.625476 -0.417473 0
M  V30 6266 H 589.778 -2.85201 -0.877679 0
M  V30 6267 C 588.527 -2.33486 -2.57642 0
M  V30 6268 H 587.85 -3.18626 -2.4149 0
M  V30 6269 H 589.29 -2.65371 -3.30688 0
M  V30 6270 C 587.749 -1.17499 -3.15746 0
M  V30 6271 O 588.279 -0.457956 -3.99081 0
M  V30 6272 N 586.485 -0.94786 -2.74707 0
M  V30 6273 H 586.032 -1.53269 -2.07042 0
M  V30 6274 H 585.99 -0.173626 -3.1392 0
M  V30 6275 N 589.762 0.448376 -1.51087 0
M  V30 6276 C 591.009 1.19872 -1.63209 0
M  V30 6277 C 591.337 1.91451 -0.343062 0
M  V30 6278 O 590.592 1.83789 0.672321 0
M  V30 6279 C 590.891 2.24866 -2.77795 0
M  V30 6280 C 590.557 1.70378 -4.17471 0
M  V30 6281 C 589.219 1.55241 -4.55471 0
M  V30 6282 C 591.571 1.30203 -5.04675 0
M  V30 6283 C 588.899 0.983844 -5.78392 0
M  V30 6284 C 591.251 0.747798 -6.28165 0
M  V30 6285 C 589.915 0.583233 -6.64947 0
M  V30 6286 H 589.185 0.438642 -0.597222 0
M  V30 6287 H 591.832 0.49136 -1.85089 0
M  V30 6288 H 590.137 3.01598 -2.50092 0
M  V30 6289 H 591.834 2.82723 -2.84374 0
M  V30 6290 H 588.424 1.83134 -3.87505 0
M  V30 6291 H 592.608 1.40723 -4.75932 0
M  V30 6292 H 587.864 0.844007 -6.05546 0
M  V30 6293 H 592.038 0.427927 -6.95084 0
M  V30 6294 H 589.665 0.140532 -7.6007 0
M  V30 6295 N 591.24 1.41047 0.703093 0
M  V30 6296 C 592.17 1.45067 1.82969 0
M  V30 6297 C 593.151 0.31016 1.67248 0
M  V30 6298 O 594.336 0.520548 1.87093 0
M  V30 6299 C 591.466 1.32478 3.2104 0
M  V30 6300 C 590.42 2.44262 3.51454 0
M  V30 6301 C 589.746 2.16742 4.88801 0
M  V30 6302 C 591.046 3.86606 3.51189 0
M  V30 6303 H 592.74 2.39353 1.79863 0
M  V30 6304 H 590.286 1.15206 0.863919 0
M  V30 6305 H 592.239 1.33904 3.99559 0
M  V30 6306 H 590.963 0.346735 3.24754 0
M  V30 6307 H 589.622 2.42107 2.75282 0
M  V30 6308 H 589.27 1.17299 4.89132 0
M  V30 6309 H 588.97 2.91643 5.10116 0
M  V30 6310 H 590.494 2.19872 5.69639 0
M  V30 6311 H 591.908 3.90517 4.19725 0
M  V30 6312 H 590.305 4.61128 3.84033 0
M  V30 6313 H 591.375 4.15296 2.50315 0
M  V30 6314 N 592.718 -0.936591 1.26751 0
M  V30 6315 C 593.965 -1.68331 1.12566 0
M  V30 6316 C 594.293 -1.91677 -0.330168 0
M  V30 6317 O 593.548 -1.49859 -1.2586 0
M  V30 6318 C 593.847 -3.06099 1.84494 0
M  V30 6319 C 593.513 -3.02493 3.34378 0
M  V30 6320 C 592.175 -3.01217 3.75262 0
M  V30 6321 C 594.527 -2.94453 4.30055 0
M  V30 6322 C 591.855 -2.89672 5.10203 0
M  V30 6323 C 594.207 -2.84449 5.65041 0
M  V30 6324 C 592.871 -2.81518 6.0523 0
M  V30 6325 H 592.141 -0.615965 0.411907 0
M  V30 6326 H 594.788 -1.09292 1.5725 0
M  V30 6327 H 593.093 -3.6879 1.32292 0
M  V30 6328 H 594.79 -3.62733 1.70955 0
M  V30 6329 H 591.38 -3.04269 3.01858 0
M  V30 6330 H 595.564 -2.94544 3.99447 0
M  V30 6331 H 590.82 -2.85783 5.40498 0
M  V30 6332 H 594.994 -2.77192 6.38856 0
M  V30 6333 H 592.621 -2.72329 7.09747 0
M  V30 6334 N 594.196 -1.08629 -1.14182 0
M  V30 6335 C 595.424 -0.838889 -1.8913 0
M  V30 6336 C 595.839 0.609153 -1.78703 0
M  V30 6337 O 595.196 1.41876 -1.14794 0
M  V30 6338 C 595.247 -1.25477 -3.39025 0
M  V30 6339 O 594.968 -2.64601 -3.49167 0
M  V30 6340 C 596.469 -1.03856 -4.30963 0
M  V30 6341 H 593.689 -0.302377 -0.599007 0
M  V30 6342 H 596.233 -1.44615 -1.44592 0
M  V30 6343 H 594.388 -0.691571 -3.81177 0
M  V30 6344 H 594.802 -2.81922 -4.42289 0
M  V30 6345 H 596.276 -1.37892 -5.345 0
M  V30 6346 H 596.753 0.0242522 -4.39193 0
M  V30 6347 H 597.359 -1.58731 -3.94569 0
M  V30 6348 N 595.674 1.31259 -0.872281 0
M  V30 6349 C 596.607 2.26544 -0.274394 0
M  V30 6350 C 597.585 1.51213 0.597776 0
M  V30 6351 O 598.769 1.80277 0.550687 0
M  V30 6352 C 595.896 3.33139 0.611256 0
M  V30 6353 C 594.942 4.26077 -0.189876 0
M  V30 6354 S 595.775 5.11971 -1.56989 0
M  V30 6355 C 596.931 6.2208 -0.690427 0
M  V30 6356 H 597.164 2.76908 -1.0821 0
M  V30 6357 H 594.697 1.3906 -0.670939 0
M  V30 6358 H 596.655 3.95024 1.11654 0
M  V30 6359 H 595.316 2.81525 1.39294 0
M  V30 6360 H 594.509 5.01657 0.485433 0
M  V30 6361 H 594.111 3.68701 -0.627339 0
M  V30 6362 H 596.403 6.77429 0.098001 0
M  V30 6363 H 597.346 6.93768 -1.41742 0
M  V30 6364 H 597.754 5.63915 -0.256953 0
M  V30 6365 N 597.152 0.631951 1.44375 0
M  V30 6366 C 598.082 -0.0593243 2.33425 0
M  V30 6367 C 599.063 -0.833964 1.48253 0
M  V30 6368 O 600.248 -0.799682 1.76971 0
M  V30 6369 C 597.378 -1.04096 3.31333 0
M  V30 6370 C 596.332 -0.377899 4.26328 0
M  V30 6371 C 595.658 -1.4695 5.14111 0
M  V30 6372 C 596.958 0.716371 5.17364 0
M  V30 6373 H 598.652 0.684287 2.91475 0
M  V30 6374 H 596.198 0.330518 1.40156 0
M  V30 6375 H 598.151 -1.53331 3.92514 0
M  V30 6376 H 596.875 -1.81547 2.71493 0
M  V30 6377 H 595.534 0.0938054 3.6648 0
M  V30 6378 H 595.182 -2.2349 4.50623 0
M  V30 6379 H 594.882 -1.03121 5.78481 0
M  V30 6380 H 596.406 -1.96363 5.78164 0
M  V30 6381 H 597.82 0.307089 5.72477 0
M  V30 6382 H 596.217 1.07784 5.90341 0
M  V30 6383 H 597.287 1.58316 4.58327 0
M  V30 6384 N 598.631 -1.53133 0.372548 0
M  V30 6385 C 600.047 -1.59585 0.02178 0
M  V30 6386 C 600.247 -1.38736 -1.46132 0
M  V30 6387 O 599.303 -1.19599 -2.22379 0
M  V30 6388 C 600.616 -2.9678 0.483959 0
M  V30 6389 C 602.164 -3.09909 0.438775 0
M  V30 6390 C 602.639 -4.49527 0.876876 0
M  V30 6391 N 604.13 -4.55663 0.832214 0
M  V30 6392 C 604.865 -5.61896 1.14281 0
M  V30 6393 N 604.361 -6.75852 1.52303 0
M  V30 6394 N 606.154 -5.51916 1.06515 0
M  V30 6395 H 598.305 -1.64936 1.33827 0
M  V30 6396 H 600.568 -0.773947 0.547458 0
M  V30 6397 H 600.274 -3.17198 1.51915 0
M  V30 6398 H 600.148 -3.7699 -0.125784 0
M  V30 6399 H 602.535 -2.89197 -0.587294 0
M  V30 6400 H 602.616 -2.31691 1.0841 0
M  V30 6401 H 602.26 -4.70979 1.90109 0
M  V30 6402 H 602.19 -5.26186 0.208727 0
M  V30 6403 H 604.681 -3.73844 0.552195 0
M  V30 6404 H 604.994 -7.52862 1.7441 0
M  V30 6405 H 603.339 -6.77226 1.56175 0
M  V30 6406 H 606.53 -4.6177 0.767235 0
M  V30 6407 H 606.703 -6.34609 1.31053 0
M  V30 6408 N 600.109 -0.101901 -1.5727 0
M  V30 6409 C 601.019 0.868647 -2.17926 0
M  V30 6410 C 602.035 1.30527 -1.1506 0
M  V30 6411 O 603.211 1.37178 -1.47459 0
M  V30 6412 C 600.276 2.10727 -2.75309 0
M  V30 6413 C 599.337 1.7242 -3.93154 0
M  V30 6414 C 598.57 2.90377 -4.47791 0
M  V30 6415 O 598.793 4.05305 -4.01353 0
M  V30 6416 O 597.727 2.6845 -5.38719 0
M  V30 6417 H 601.553 0.382544 -3.01281 0
M  V30 6418 H 599.138 0.122812 -1.48894 0
M  V30 6419 H 601.02 2.83303 -3.11958 0
M  V30 6420 H 599.695 2.58376 -1.94996 0
M  V30 6421 H 598.602 0.970039 -3.61305 0
M  V30 6422 H 599.935 1.29528 -4.74851 0
M  V30 6423 N 601.587 1.56661 0.17182 0
M  V30 6424 C 602.497 1.99604 1.2327 0
M  V30 6425 C 603.513 0.907333 1.4847 0
M  V30 6426 O 604.689 1.21492 1.60629 0
M  V30 6427 C 601.754 2.34685 2.55194 0
M  V30 6428 C 600.815 3.57381 2.3786 0
M  V30 6429 C 600.048 3.90779 3.63494 0
M  V30 6430 O 600.271 3.25152 4.6865 0
M  V30 6431 O 599.205 4.84129 3.57634 0
M  V30 6432 H 603.031 2.90114 0.898192 0
M  V30 6433 H 600.616 1.44522 0.378647 0
M  V30 6434 H 602.498 2.5822 3.33017 0
M  V30 6435 H 601.173 1.47336 2.88225 0
M  V30 6436 H 600.08 3.39064 1.5807 0
M  V30 6437 H 601.413 4.45268 2.09754 0
M  V30 6438 N 603.065 -0.440357 1.51323 0
M  V30 6439 C 604.313 -1.18769 1.63518 0
M  V30 6440 C 604.634 -1.91793 0.352201 0
M  V30 6441 O 603.904 -1.85432 -0.631811 0
M  V30 6442 H 602.484 -0.441408 0.602634 0
M  V30 6443 H 605.146 -0.505162 1.8824 0
M  V30 6444 H 604.242 -1.91892 2.46138 0
M  V30 6445 N 604.543 -1.41418 -0.695603 0
M  V30 6446 C 605.791 -1.40496 -1.45277 0
M  V30 6447 C 606.112 -0.0149538 -1.94994 0
M  V30 6448 O 605.382 0.9432 -1.71699 0
M  V30 6449 H 603.962 -0.517147 -0.539044 0
M  V30 6450 H 606.624 -1.76656 -0.823321 0
M  V30 6451 H 605.72 -2.09214 -2.31595 0
M  V30 6452 N 606.021 0.929856 -1.27246 0
M  V30 6453 C 607.268 1.67731 -1.13457 0
M  V30 6454 C 607.596 1.9185 0.319998 0
M  V30 6455 O 606.851 1.50524 1.25064 0
M  V30 6456 C 607.15 3.05116 -1.86115 0
M  V30 6457 C 606.816 3.00715 -3.35978 0
M  V30 6458 C 605.478 2.99222 -3.76855 0
M  V30 6459 C 607.83 2.92168 -4.3161 0
M  V30 6460 C 605.158 2.86962 -5.11732 0
M  V30 6461 C 607.51 2.81449 -5.66542 0
M  V30 6462 C 606.174 2.78305 -6.06715 0
M  V30 6463 H 605.444 0.613772 -0.415168 0
M  V30 6464 H 608.091 1.08456 -1.57827 0
M  V30 6465 H 606.396 3.68083 -1.34246 0
M  V30 6466 H 608.093 3.61822 -1.72876 0
M  V30 6467 H 604.683 3.02664 -3.03468 0
M  V30 6468 H 608.867 2.92421 -4.01003 0
M  V30 6469 H 604.123 2.82913 -5.42006 0
M  V30 6470 H 608.297 2.738 -6.40317 0
M  V30 6471 H 605.924 2.68561 -7.11181 0
M  V30 6472 N 607.499 1.09233 1.13605 0
M  V30 6473 C 608.409 0.741939 2.22559 0
M  V30 6474 C 609.425 -0.255236 1.72118 0
M  V30 6475 O 610.601 -0.0970747 2.01166 0
M  V30 6476 C 607.666 0.165595 3.46304 0
M  V30 6477 C 606.727 1.21846 4.11645 0
M  V30 6478 C 605.96 0.669526 5.29484 0
M  V30 6479 O 606.183 -0.508228 5.68131 0
M  V30 6480 O 605.117 1.42361 5.84822 0
M  V30 6481 H 608.943 1.65107 2.54899 0
M  V30 6482 H 606.528 0.866584 1.21699 0
M  V30 6483 H 608.41 -0.152592 4.21124 0
M  V30 6484 H 607.085 -0.716573 3.15669 0
M  V30 6485 H 605.992 1.58931 3.38662 0
M  V30 6486 H 607.325 2.07321 4.46407 0
M  V30 6487 N 608.977 -1.30795 0.87923 0
M  V30 6488 C 610.207 -2.00237 0.50881 0
M  V30 6489 C 610.615 -1.66115 -0.905682 0
M  V30 6490 O 609.958 -0.89138 -1.60624 0
M  V30 6491 C 610.02 -3.54508 0.597003 0
M  V30 6492 C 609.684 -4.12131 1.97477 0
M  V30 6493 C 610.681 -4.28552 2.94346 0
M  V30 6494 C 608.366 -4.47644 2.2786 0
M  V30 6495 C 610.36 -4.79689 4.19735 0
M  V30 6496 C 608.047 -4.98481 3.53496 0
M  V30 6497 C 609.045 -5.14456 4.49248 0
M  V30 6498 O 608.733 -5.64199 5.72656 0
M  V30 6499 H 608.465 -0.647026 0.195788 0
M  V30 6500 H 611.019 -1.67785 1.1848 0
M  V30 6501 H 609.249 -3.86461 -0.135945 0
M  V30 6502 H 610.938 -4.05198 0.238684 0
M  V30 6503 H 611.704 -4.01424 2.72183 0
M  V30 6504 H 607.583 -4.34481 1.54102 0
M  V30 6505 H 611.127 -4.92073 4.9448 0
M  V30 6506 H 607.024 -5.25044 3.75498 0
M  V30 6507 H 607.792 -5.82551 5.74957 0
M  V30 6508 N 610.455 -0.639598 -1.44038 0
M  V30 6509 C 611.402 0.0602458 -2.30721 0
M  V30 6510 C 612.372 0.828352 -1.43971 0
M  V30 6511 O 613.557 0.807693 -1.72861 0
M  V30 6512 C 610.697 1.03008 -3.29368 0
M  V30 6513 C 609.81 0.259502 -4.3122 0
M  V30 6514 C 608.945 1.22191 -5.16955 0
M  V30 6515 C 607.984 0.440978 -6.10509 0
M  V30 6516 N 607.121 1.35428 -6.88915 0
M  V30 6517 H 611.961 -0.684867 -2.90023 0
M  V30 6518 H 609.498 -0.349509 -1.42888 0
M  V30 6519 H 611.456 1.60583 -3.85057 0
M  V30 6520 H 610.086 1.74222 -2.71747 0
M  V30 6521 H 609.138 -0.432317 -3.77935 0
M  V30 6522 H 610.45 -0.348347 -4.97582 0
M  V30 6523 H 609.604 1.86873 -5.77203 0
M  V30 6524 H 608.343 1.86367 -4.50687 0
M  V30 6525 H 607.348 -0.219279 -5.49363 0
M  V30 6526 H 608.573 -0.196192 -6.78817 0
M  V30 6527 H 606.519 1.9831 -6.25307 0
M  V30 6528 H 606.436 0.800657 -7.51748 0
M  V30 6529 H 607.704 1.98967 -7.53679 0
M  V30 6530 N 611.933 1.52934 -0.380664 0
M  V30 6531 C 613.349 1.59571 -0.0302429 0
M  V30 6532 C 613.549 1.39509 1.45394 0
M  V30 6533 O 612.605 1.20777 2.21741 0
M  V30 6534 C 613.918 2.96519 -0.499691 0
M  V30 6535 C 615.466 3.09672 -0.455204 0
M  V30 6536 C 615.941 4.49056 -0.900703 0
M  V30 6537 N 617.432 4.55215 -0.856367 0
M  V30 6538 C 618.167 5.61282 -1.17259 0
M  V30 6539 N 617.663 6.75035 -1.55885 0
M  V30 6540 N 619.456 5.51343 -1.0944 0
M  V30 6541 H 611.607 1.64224 -1.347 0
M  V30 6542 H 613.87 0.771033 -0.551554 0
M  V30 6543 H 613.576 3.16388 -1.53595 0
M  V30 6544 H 613.45 3.77052 0.105789 0
M  V30 6545 H 615.837 2.89504 0.571949 0
M  V30 6546 H 615.918 2.31113 -1.09638 0
M  V30 6547 H 615.562 4.69964 -1.92604 0
M  V30 6548 H 615.492 5.26068 -0.236629 0
M  V30 6549 H 617.983 3.73546 -0.572013 0
M  V30 6550 H 618.296 7.51926 -1.784 0
M  V30 6551 H 616.641 6.76388 -1.59764 0
M  V30 6552 H 619.832 4.61356 -0.791713 0
M  V30 6553 H 620.005 6.33905 -1.34417 0
M  V30 6554 N 613.412 0.11024 1.57214 0
M  V30 6555 C 614.375 -0.828808 2.1369 0
M  V30 6556 C 615.375 -1.20059 1.06969 0
M  V30 6557 O 616.565 -1.12754 1.32786 0
M  V30 6558 C 613.697 -2.11959 2.66994 0
M  V30 6559 H 614.89 -0.338146 2.97988 0
M  V30 6560 H 612.443 -0.138913 1.55681 0
M  V30 6561 H 613.178 -2.65476 1.8626 0
M  V30 6562 H 612.963 -1.86258 3.45037 0
M  V30 6563 H 614.453 -2.79105 3.10629 0
M  V30 6564 N 614.89 -1.56749 -0.16351 0
M  V30 6565 C 616.139 -1.81626 -0.877211 0
M  V30 6566 C 616.452 -0.688791 -1.83071 0
M  V30 6567 O 617.658 -0.822697 -2.58735 0
M  V30 6568 C 616.114 -3.21858 -1.61045 0
M  V30 6569 C 615.722 -4.42494 -0.700195 0
M  V30 6570 C 617.466 -3.56021 -2.31192 0
M  V30 6571 C 615.373 -5.73748 -1.43412 0
M  V30 6572 H 614.303 -0.67731 -0.331312 0
M  V30 6573 H 616.954 -1.83039 -0.13006 0
M  V30 6574 H 615.336 -3.14784 -2.40264 0
M  V30 6575 H 616.51 -4.60766 0.0555849 0
M  V30 6576 H 614.825 -4.1626 -0.10799 0
M  V30 6577 H 617.422 -4.51333 -2.8671 0
M  V30 6578 H 617.765 -2.81277 -3.06902 0
M  V30 6579 H 618.298 -3.64682 -1.58909 0
M  V30 6580 H 615.037 -6.51543 -0.719186 0
M  V30 6581 H 614.557 -5.5944 -2.16302 0
M  V30 6582 H 616.236 -6.15975 -1.9795 0
M  V30 6583 N 616.368 0.432326 -1.51554 0
M  V30 6584 C 617.614 1.18309 -1.64714 0
M  V30 6585 C 617.947 1.90745 -0.364696 0
M  V30 6586 O 617.222 1.8381 0.635936 0
M  V30 6587 C 617.505 2.1961 -2.85383 0
M  V30 6588 C 617.358 1.51223 -4.23617 0
M  V30 6589 C 618.677 3.20538 -3.01569 0
M  V30 6590 H 615.796 0.428751 -0.599451 0
M  V30 6591 H 618.438 0.471689 -1.84052 0
M  V30 6592 H 616.588 2.8028 -2.69027 0
M  V30 6593 H 618.26 0.938516 -4.51652 0
M  V30 6594 H 616.503 0.814501 -4.26085 0
M  V30 6595 H 617.174 2.25024 -5.04052 0
M  V30 6596 H 619.65 2.69926 -3.16669 0
M  V30 6597 H 618.526 3.88706 -3.87555 0
M  V30 6598 H 618.787 3.86933 -2.13859 0
M  V30 6599 N 617.846 1.41785 0.688094 0
M  V30 6600 C 619.123 1.32031 1.44316 0
M  V30 6601 C 619.503 -0.0486079 2.11044 0
M  V30 6602 O 618.851 -1.06332 2.02252 0
M  V30 6603 C 619.061 2.47906 2.45649 0
M  V30 6604 C 620.409 2.89415 3.10683 0
M  V30 6605 O 621.433 2.477 2.55975 0
M  V30 6606 O 620.292 3.61573 4.09789 0
M  V30 6607 H 617.386 0.519994 0.643067 0
M  V30 6608 H 619.932 1.53765 0.71794 0
M  V30 6609 H 618.704 3.39222 1.95048 0
M  V30 6610 H 618.327 2.28089 3.25671 0
M  V30 6611 N 619.324 -0.923095 1.27737 0
M  V30 6612 C 620.564 -1.6858 1.15586 0
M  V30 6613 C 620.928 -1.89758 -0.292562 0
M  V30 6614 O 622.129 -2.6339 -0.536583 0
M  V30 6615 C 620.4 -3.01275 1.92271 0
M  V30 6616 S 621.959 -3.924 1.96387 0
M  V30 6617 H 618.777 -0.579069 0.412554 0
M  V30 6618 H 621.379 -1.09866 1.61709 0
M  V30 6619 H 620.083 -2.83556 2.96689 0
M  V30 6620 H 619.614 -3.6504 1.46661 0
M  V30 6621 H 621.629 -4.84667 1.06361 0
M  V30 6622 N 620.802 -1.09834 -1.13024 0
M  V30 6623 C 622.051 -0.831806 -1.83749 0
M  V30 6624 C 622.364 0.644763 -1.84668 0
M  V30 6625 O 623.57 1.02697 -2.51327 0
M  V30 6626 C 622.026 -1.43817 -3.29916 0
M  V30 6627 C 621.634 -2.94759 -3.37374 0
M  V30 6628 C 623.378 -1.25077 -4.05655 0
M  V30 6629 C 621.285 -3.48461 -4.77838 0
M  V30 6630 H 620.215 -0.30751 -0.688443 0
M  V30 6631 H 622.866 -1.32156 -1.27307 0
M  V30 6632 H 621.248 -0.876106 -3.86187 0
M  V30 6633 H 622.422 -3.57228 -2.91076 0
M  V30 6634 H 620.737 -3.12581 -2.75103 0
M  V30 6635 H 623.334 -1.62649 -5.09362 0
M  V30 6636 H 623.677 -0.191782 -4.15858 0
M  V30 6637 H 624.21 -1.78057 -3.55725 0
M  V30 6638 H 620.949 -4.53998 -4.72828 0
M  V30 6639 H 620.469 -2.90757 -5.24615 0
M  V30 6640 H 622.148 -3.45914 -5.46766 0
M  V30 6641 N 622.28 1.30327 -0.886154 0
M  V30 6642 C 623.529 1.95373 -0.501243 0
M  V30 6643 C 623.842 1.70722 0.954634 0
M  V30 6644 O 625.048 2.29761 1.44644 0
M  V30 6645 C 623.504 3.49828 -0.845493 0
M  V30 6646 C 623.112 3.83296 -2.31922 0
M  V30 6647 C 624.856 4.2118 -0.529838 0
M  V30 6648 C 622.763 5.30935 -2.60504 0
M  V30 6649 H 621.693 0.731274 -0.183722 0
M  V30 6650 H 624.344 1.48258 -1.08129 0
M  V30 6651 H 622.726 3.95522 -0.19452 0
M  V30 6652 H 623.9 3.48508 -3.01461 0
M  V30 6653 H 622.215 3.2505 -2.60253 0
M  V30 6654 H 624.812 5.29825 -0.720401 0
M  V30 6655 H 625.155 4.12902 0.530828 0
M  V30 6656 H 625.688 3.81173 -1.13806 0
M  V30 6657 H 622.427 5.44265 -3.65316 0
M  V30 6658 H 621.947 5.67019 -1.95575 0
M  V30 6659 H 623.626 5.98381 -2.46066 0
M  V30 6660 N 623.758 0.647228 1.43697 0
M  V30 6661 C 624.983 0.164083 2.0675 0
M  V30 6662 C 625.408 -1.15892 1.48158 0
M  V30 6663 O 624.766 -1.71459 0.589194 0
M  V30 6664 C 624.814 0.0800368 3.60511 0
M  V30 6665 O 623.918 -0.959453 4.01084 0
M  V30 6666 H 623.259 0.0921288 0.657578 0
M  V30 6667 H 625.789 0.88846 1.84303 0
M  V30 6668 H 625.799 -0.105263 4.07864 0
M  V30 6669 H 624.474 1.04586 4.02535 0
M  V30 6670 H 623.051 -0.747425 3.65333 0
M  V30 6671 N 625.236 -1.5273 0.388769 0
M  V30 6672 C 626.485 -2.00757 -0.194833 0
M  V30 6673 C 626.798 -1.27951 -1.47946 0
M  V30 6674 O 628.004 -1.66686 -2.14308 0
M  V30 6675 C 626.46 -3.57695 -0.397762 0
M  V30 6676 C 626.068 -4.394 0.873583 0
M  V30 6677 C 627.812 -4.14012 -0.937759 0
M  V30 6678 C 625.719 -5.87938 0.638962 0
M  V30 6679 H 624.649 -0.750101 -0.0765845 0
M  V30 6680 H 627.3 -1.76239 0.511086 0
M  V30 6681 H 625.682 -3.7846 -1.16552 0
M  V30 6682 H 626.856 -4.30403 1.64591 0
M  V30 6683 H 625.171 -3.94301 1.33849 0
M  V30 6684 H 627.768 -5.22645 -1.12899 0
M  V30 6685 H 628.111 -3.7007 -1.90666 0
M  V30 6686 H 628.644 -3.97137 -0.229588 0
M  V30 6687 H 625.383 -6.36202 1.57885 0
M  V30 6688 H 624.903 -5.99726 -0.094443 0
M  V30 6689 H 626.582 -6.46423 0.273299 0
M  V30 6690 N 626.714 -0.118576 -1.57153 0
M  V30 6691 C 627.963 0.539339 -1.94355 0
M  V30 6692 C 628.276 1.67858 -1.00415 0
M  V30 6693 O 629.482 2.39922 -1.27081 0
M  V30 6694 C 627.938 1.01082 -3.45414 0
M  V30 6695 C 627.546 -0.0999402 -4.47889 0
M  V30 6696 C 629.29 1.64013 -3.91535 0
M  V30 6697 C 627.197 0.388212 -5.90124 0
M  V30 6698 H 626.127 0.205247 -0.725527 0
M  V30 6699 H 628.778 -0.19836 -1.82425 0
M  V30 6700 H 627.16 1.80292 -3.52577 0
M  V30 6701 H 628.334 -0.876189 -4.52393 0
M  V30 6702 H 626.649 -0.635885 -4.11516 0
M  V30 6703 H 629.246 2.01649 -4.95219 0
M  V30 6704 H 629.589 2.51836 -3.31488 0
M  V30 6705 H 630.122 0.913439 -3.87171 0
M  V30 6706 H 626.861 -0.453963 -6.53926 0
M  V30 6707 H 626.381 1.13095 -5.89041 0
M  V30 6708 H 628.06 0.849574 -6.41398 0
M  V30 6709 N 628.193 1.56834 0.155195 0
M  V30 6710 C 629.103 2.009 1.21146 0
M  V30 6711 C 630.119 0.923029 1.475 0
M  V30 6712 O 631.295 1.23189 1.59331 0
M  V30 6713 C 628.36 2.37378 2.52691 0
M  V30 6714 C 627.421 3.59883 2.34057 0
M  V30 6715 C 626.654 3.94612 3.59329 0
M  V30 6716 O 626.877 3.30104 4.65175 0
M  V30 6717 O 625.811 4.87895 3.52479 0
M  V30 6718 H 629.637 2.9105 0.867371 0
M  V30 6719 H 627.222 1.44916 0.363298 0
M  V30 6720 H 629.104 2.61737 3.3026 0
M  V30 6721 H 627.779 1.50385 2.86646 0
M  V30 6722 H 626.686 3.40722 1.54465 0
M  V30 6723 H 628.019 4.47468 2.0502 0
M  V30 6724 N 629.671 -0.424282 1.51781 0
M  V30 6725 C 630.581 -1.54087 1.76902 0
M  V30 6726 C 631.597 -1.61249 0.653826 0
M  V30 6727 O 632.773 -1.78247 0.937552 0
M  V30 6728 C 629.838 -2.8996 1.90063 0
M  V30 6729 C 628.899 -2.92809 3.13945 0
M  V30 6730 C 628.132 -4.22201 3.26469 0
M  V30 6731 O 628.355 -5.15286 2.44616 0
M  V30 6732 O 627.289 -4.31599 4.1953 0
M  V30 6733 H 631.115 -1.358 2.71647 0
M  V30 6734 H 628.7 -0.608618 1.36441 0
M  V30 6735 H 630.582 -3.70575 2.0063 0
M  V30 6736 H 629.257 -3.08347 0.985067 0
M  V30 6737 H 628.164 -2.11102 3.08847 0
M  V30 6738 H 629.497 -2.79369 4.05233 0
M  V30 6739 N 631.149 -1.42148 -0.680565 0
M  V30 6740 C 632.097 -1.45401 -1.81552 0
M  V30 6741 C 633.091 -0.33036 -1.66147 0
M  V30 6742 O 634.297 -0.503103 -1.72826 0
M  V30 6743 H 630.672 -0.455265 -0.59853 0
M  V30 6744 H 632.643 -2.41024 -1.75926 0
M  V30 6745 C 631.392 -1.36769 -3.19671 0
M  V30 6746 H 630.715 -2.22525 -3.32149 0
M  V30 6747 H 632.155 -1.43106 -3.9912 0
M  V30 6748 C 630.614 -0.0817752 -3.36801 0
M  V30 6749 O 631.144 0.867707 -3.92216 0
M  V30 6750 N 629.35 -0.000799811 -2.906 0
M  V30 6751 H 628.897 -0.774231 -2.4569 0
M  V30 6752 H 628.855 0.858961 -3.02439 0
M  V30 6753 N 632.627 0.916307 -1.28225 0
M  V30 6754 C 633.852 1.7043 -1.18188 0
M  V30 6755 C 634.277 1.86346 0.256274 0
M  V30 6756 O 633.635 1.37175 1.18544 0
M  V30 6757 C 633.683 3.07546 -1.88275 0
M  V30 6758 O 632.787 3.94904 -1.18848 0
M  V30 6759 H 632.128 0.521967 -0.410423 0
M  V30 6760 H 634.658 1.14589 -1.69501 0
M  V30 6761 H 634.668 3.57793 -1.96082 0
M  V30 6762 H 633.343 2.95279 -2.92887 0
M  V30 6763 H 631.92 3.53339 -1.19187 0
M  V30 6764 N 634.105 1.10431 1.1244 0
M  V30 6765 C 635.015 0.765502 2.21759 0
M  V30 6766 C 636.031 -0.236966 1.72379 0
M  V30 6767 O 637.207 -0.0757329 2.01258 0
M  V30 6768 C 634.272 0.202316 3.46109 0
M  V30 6769 C 633.333 1.26205 4.1033 0
M  V30 6770 C 632.566 0.725648 5.28744 0
M  V30 6771 O 632.789 -0.447942 5.68638 0
M  V30 6772 O 631.723 1.48555 5.83279 0
M  V30 6773 H 635.549 1.67801 2.53133 0
M  V30 6774 H 633.134 0.879443 1.20773 0
M  V30 6775 H 635.016 -0.107918 4.21262 0
M  V30 6776 H 633.691 -0.683052 3.16411 0
M  V30 6777 H 632.598 1.62514 3.36957 0
M  V30 6778 H 633.931 2.12044 4.44183 0
M  V30 6779 N 635.583 -1.29855 0.893053 0
M  V30 6780 C 636.808 -2.00512 0.530066 0
M  V30 6781 C 637.233 -1.66446 -0.876199 0
M  V30 6782 O 636.591 -0.885446 -1.58207 0
M  V30 6783 C 636.639 -3.53308 0.721505 0
M  V30 6784 O 635.743 -4.11764 -0.228994 0
M  V30 6785 H 635.084 -0.630617 0.207891 0
M  V30 6786 H 637.614 -1.6551 1.20282 0
M  V30 6787 H 637.624 -4.03206 0.623599 0
M  V30 6788 H 636.299 -3.77439 1.74678 0
M  V30 6789 H 634.876 -3.72805 -0.0841034 0
M  V30 6790 N 637.061 -0.65484 -1.43351 0
M  V30 6791 C 638.008 0.0357713 -2.30772 0
M  V30 6792 C 638.978 0.813035 -1.44841 0
M  V30 6793 O 640.163 0.789314 -1.73708 0
M  V30 6794 C 637.303 0.995084 -3.30442 0
M  V30 6795 C 636.416 0.21375 -4.31471 0
M  V30 6796 C 635.551 1.16701 -5.18222 0
M  V30 6797 C 634.59 0.376201 -6.10943 0
M  V30 6798 N 633.727 1.28113 -6.90313 0
M  V30 6799 H 638.567 -0.71559 -2.89281 0
M  V30 6800 H 636.104 -0.364645 -1.42509 0
M  V30 6801 H 638.062 1.5649 -3.86739 0
M  V30 6802 H 636.692 1.7133 -2.7358 0
M  V30 6803 H 635.744 -0.472377 -3.77456 0
M  V30 6804 H 637.056 -0.401103 -4.97185 0
M  V30 6805 H 636.21 1.8074 -5.79153 0
M  V30 6806 H 634.949 1.81577 -4.52638 0
M  V30 6807 H 633.954 -0.277534 -5.49099 0
M  V30 6808 H 635.179 -0.268178 -6.7857 0
M  V30 6809 H 633.125 1.91666 -6.27376 0
M  V30 6810 H 633.042 0.720879 -7.52555 0
M  V30 6811 H 634.31 1.90962 -7.55747 0
M  V30 6812 N 638.539 1.52521 -0.396863 0
M  V30 6813 C 639.449 2.30403 0.44178 0
M  V30 6814 C 640.465 1.37625 1.06468 0
M  V30 6815 O 641.641 1.70697 1.06886 0
M  V30 6816 C 638.706 3.1013 1.54986 0
M  V30 6817 C 637.767 4.18628 0.951279 0
M  V30 6818 C 637 4.94543 2.00655 0
M  V30 6819 O 637.223 4.70629 3.22281 0
M  V30 6820 O 636.157 5.797 1.61962 0
M  V30 6821 H 639.983 3.03087 -0.192892 0
M  V30 6822 H 637.568 1.48537 -0.16038 0
M  V30 6823 H 639.45 3.59816 2.19341 0
M  V30 6824 H 638.125 2.40251 2.16935 0
M  V30 6825 H 637.032 3.73119 0.270773 0
M  V30 6826 H 638.365 4.90763 0.375887 0
M  V30 6827 N 640.017 0.126909 1.57088 0
M  V30 6828 C 641.245 -0.53667 1.99819 0
M  V30 6829 C 641.66 -1.5972 1.00673 0
M  V30 6830 O 641.017 -1.825 0.000747365 0
M  V30 6831 C 641.068 -1.15563 3.42531 0
M  V30 6832 O 640.789 -0.137483 4.37884 0
M  V30 6833 C 642.29 -1.90176 4.00435 0
M  V30 6834 H 639.51 -0.141443 0.655923 0
M  V30 6835 H 642.054 0.215578 2.03361 0
M  V30 6836 H 640.209 -1.85861 3.39904 0
M  V30 6837 H 640.623 -0.588229 5.21191 0
M  V30 6838 H 642.097 -2.28801 5.02349 0
M  V30 6839 H 642.574 -2.78002 3.40017 0
M  V30 6840 H 643.18 -1.24623 4.06632 0
M  V30 6841 N 641.495 -1.56914 -0.146875 0
M  V30 6842 C 642.743 -1.82994 -0.85777 0
M  V30 6843 C 643.064 -0.707814 -1.817 0
M  V30 6844 O 642.334 0.270521 -1.94023 0
M  V30 6845 H 640.914 -0.675106 -0.319751 0
M  V30 6846 H 643.576 -1.9439 -0.140849 0
M  V30 6847 H 642.672 -2.77928 -1.41994 0
M  V30 6848 N 642.974 0.416227 -1.52004 0
M  V30 6849 C 643.904 1.51365 -1.77795 0
M  V30 6850 C 644.885 1.58059 -0.628601 0
M  V30 6851 O 646.07 1.73447 -0.873478 0
M  V30 6852 C 643.2 2.89256 -1.92219 0
M  V30 6853 C 642.154 2.97415 -3.0778 0
M  V30 6854 C 641.48 4.37492 -3.07417 0
M  V30 6855 C 642.78 2.69551 -4.47369 0
M  V30 6856 H 644.474 1.30033 -2.69688 0
M  V30 6857 H 642.02 0.624112 -1.29772 0
M  V30 6858 H 643.973 3.66008 -2.08845 0
M  V30 6859 H 642.697 3.11866 -0.969917 0
M  V30 6860 H 641.356 2.23107 -2.90893 0
M  V30 6861 H 641.004 4.571 -2.09925 0
M  V30 6862 H 640.704 4.43877 -3.85029 0
M  V30 6863 H 642.228 5.16188 -3.26162 0
M  V30 6864 H 643.642 3.36028 -4.64497 0
M  V30 6865 H 642.039 2.87321 -5.26846 0
M  V30 6866 H 643.109 1.65029 -4.55953 0
M  V30 6867 N 644.452 1.42507 0.673017 0
M  V30 6868 C 645.677 1.4668 1.46627 0
M  V30 6869 C 646.102 0.080066 1.8793 0
M  V30 6870 O 645.46 -0.921879 1.56112 0
M  V30 6871 C 645.508 2.40091 2.69051 0
M  V30 6872 O 644.612 1.8735 3.67387 0
M  V30 6873 H 643.953 0.496908 0.44043 0
M  V30 6874 H 646.483 1.87215 0.825334 0
M  V30 6875 H 646.493 2.56731 3.17101 0
M  V30 6876 H 645.168 3.4084 2.3833 0
M  V30 6877 H 643.745 1.80274 3.26429 0
M  V30 6878 N 645.93 -0.909495 1.28709 0
M  V30 6879 C 646.88 -1.9991 1.09636 0
M  V30 6880 C 647.864 -1.60889 0.01872 0
M  V30 6881 O 649.056 -1.75374 0.239338 0
M  V30 6882 C 646.185 -3.34675 0.764702 0
M  V30 6883 C 645.271 -3.80085 1.8814 0
M  V30 6884 N 645.662 -3.97824 3.12361 0
M  V30 6885 C 643.96 -4.09278 1.77221 0
M  V30 6886 C 644.661 -4.35928 3.85151 0
M  V30 6887 N 643.637 -4.44426 3.13028 0
M  V30 6888 H 647.439 -2.11681 2.03883 0
M  V30 6889 H 644.953 -1.09763 1.1969 0
M  V30 6890 H 646.95 -4.12426 0.609132 0
M  V30 6891 H 645.61 -3.24255 -0.169952 0
M  V30 6892 H 646.621 -3.83626 3.47925 0
M  V30 6893 H 643.298 -4.0747 0.909621 0
M  V30 6894 H 644.688 -4.57581 4.92006 0
M  V30 6895 N 647.408 -1.11026 -1.11852 0
M  V30 6896 C 648.338 -0.786812 -2.19844 0
M  V30 6897 C 649.319 0.242935 -1.68356 0
M  V30 6898 O 650.504 0.107355 -1.93903 0
M  V30 6899 C 647.634 -0.224516 -3.46574 0
M  V30 6900 C 646.588 -1.18564 -4.1125 0
M  V30 6901 C 645.914 -0.484261 -5.32503 0
M  V30 6902 C 647.214 -2.53465 -4.56676 0
M  V30 6903 H 648.908 -1.68978 -2.47158 0
M  V30 6904 H 646.454 -0.813906 -1.18792 0
M  V30 6905 H 648.407 0.0139435 -4.21398 0
M  V30 6906 H 647.131 0.713722 -3.18706 0
M  V30 6907 H 645.79 -1.40966 -3.38414 0
M  V30 6908 H 645.438 0.458646 -5.00905 0
M  V30 6909 H 645.138 -1.12526 -5.76725 0
M  V30 6910 H 646.662 -0.254492 -6.10069 0
M  V30 6911 H 648.076 -2.35177 -5.22843 0
M  V30 6912 H 646.473 -3.13507 -5.11697 0
M  V30 6913 H 647.543 -3.13008 -3.70343 0
M  V30 6914 N 648.886 1.2938 -0.899927 0
M  V30 6915 C 650.126 1.97332 -0.532871 0
M  V30 6916 C 650.49 1.69385 0.904029 0
M  V30 6917 O 651.691 2.30793 1.37797 0
M  V30 6918 C 649.962 3.47927 -0.817393 0
M  V30 6919 S 651.521 4.3528 -0.55468 0
M  V30 6920 H 648.339 0.682966 -0.197683 0
M  V30 6921 H 650.941 1.57189 -1.16241 0
M  V30 6922 H 649.645 3.65761 -1.86138 0
M  V30 6923 H 649.176 3.93006 -0.175978 0
M  V30 6924 H 651.191 4.92557 0.600182 0
M  V30 6925 N 650.364 0.662433 1.43002 0
M  V30 6926 C 651.274 -0.0239199 2.34588 0
M  V30 6927 C 652.29 -0.802255 1.54402 0
M  V30 6928 O 653.466 -0.747401 1.87018 0
M  V30 6929 C 650.531 -0.972098 3.32793 0
M  V30 6930 C 649.592 -0.189673 4.28881 0
M  V30 6931 C 648.825 -1.09269 5.22395 0
M  V30 6932 O 649.048 -2.33209 5.20547 0
M  V30 6933 O 647.982 -0.560136 5.99288 0
M  V30 6934 H 651.808 0.730171 2.94792 0
M  V30 6935 H 649.393 0.422635 1.43297 0
M  V30 6936 H 651.275 -1.51676 3.93157 0
M  V30 6937 H 649.95 -1.70626 2.75079 0
M  V30 6938 H 648.857 0.398794 3.71968 0
M  V30 6939 H 650.19 0.50511 4.89601 0
M  V30 6940 N 651.842 -1.52309 0.404946 0
M  V30 6941 C 653.089 -2.01767 -0.1722 0
M  V30 6942 C 653.417 -1.29075 -1.45498 0
M  V30 6943 O 652.672 -0.3843 -1.9189 0
M  V30 6944 C 652.971 -3.54284 -0.470895 0
M  V30 6945 C 652.637 -4.45079 0.722194 0
M  V30 6946 C 651.299 -4.69617 1.04946 0
M  V30 6947 C 653.651 -4.98555 1.51962 0
M  V30 6948 C 650.979 -5.44878 2.17543 0
M  V30 6949 C 653.331 -5.75049 2.63632 0
M  V30 6950 C 651.995 -5.9786 2.9685 0
M  V30 6951 H 651.265 -0.738316 -0.0630125 0
M  V30 6952 H 653.912 -1.83566 0.545506 0
M  V30 6953 H 652.217 -3.70642 -1.27012 0
M  V30 6954 H 653.914 -3.90058 -0.930346 0
M  V30 6955 H 650.504 -4.26155 0.457131 0
M  V30 6956 H 654.688 -4.79509 1.28002 0
M  V30 6957 H 649.944 -5.60762 2.43631 0
M  V30 6958 H 654.118 -6.15483 3.25813 0
M  V30 6959 H 651.745 -6.5596 3.84215 0
M  V30 6960 N 653.32 -0.135238 -1.57019 0
M  V30 6961 C 654.569 0.518694 -1.94917 0
M  V30 6962 C 654.882 1.66783 -1.0219 0
M  V30 6963 O 656.088 2.38561 -1.29619 0
M  V30 6964 C 654.544 0.974123 -3.46466 0
M  V30 6965 C 654.152 -0.147439 -4.47757 0
M  V30 6966 C 655.896 1.59851 -3.93253 0
M  V30 6967 C 653.803 0.325599 -5.90503 0
M  V30 6968 H 652.733 0.19754 -0.727663 0
M  V30 6969 H 655.384 -0.217698 -1.82204 0
M  V30 6970 H 653.766 1.76542 -3.5447 0
M  V30 6971 H 654.94 -0.924122 -4.51438 0
M  V30 6972 H 653.255 -0.679496 -4.10818 0
M  V30 6973 H 655.852 1.96385 -4.9733 0
M  V30 6974 H 656.195 2.48306 -3.3414 0
M  V30 6975 H 656.728 0.872323 -3.88118 0
M  V30 6976 H 653.467 -0.523295 -6.53408 0
M  V30 6977 H 652.987 1.06841 -5.90208 0
M  V30 6978 H 654.666 0.781498 -6.42263 0
M  V30 6979 N 654.798 1.5699 0.138552 0
M  V30 6980 C 655.708 2.02174 1.19008 0
M  V30 6981 C 656.724 0.938622 1.46512 0
M  V30 6982 O 657.9 1.24872 1.58016 0
M  V30 6983 C 654.965 2.40045 2.50159 0
M  V30 6984 C 654.026 3.62346 2.30226 0
M  V30 6985 C 653.259 3.98401 3.55123 0
M  V30 6986 O 653.482 3.35019 4.61647 0
M  V30 6987 O 652.416 4.91606 3.47285 0
M  V30 6988 H 656.242 2.91954 0.836452 0
M  V30 6989 H 653.827 1.45293 0.347907 0
M  V30 6990 H 655.709 2.65225 3.27465 0
M  V30 6991 H 654.384 1.53417 2.85035 0
M  V30 6992 H 653.291 3.42341 1.50843 0
M  V30 6993 H 654.624 4.49617 2.00262 0
M  V30 6994 N 656.276 -0.40816 1.52223 0
M  V30 6995 C 657.553 -1.16807 1.56893 0
M  V30 6996 C 657.933 -2.08169 0.350537 0
M  V30 6997 O 657.281 -2.18684 -0.662536 0
M  V30 6998 C 657.491 -1.94451 2.8981 0
M  V30 6999 C 658.839 -2.50484 3.42845 0
M  V30 7000 O 659.863 -2.0463 2.91556 0
M  V30 7001 O 658.722 -3.34192 4.3241 0
M  V30 7002 H 655.816 -0.533382 0.632007 0
M  V30 7003 H 658.362 -0.414862 1.64551 0
M  V30 7004 H 657.134 -1.27527 3.69936 0
M  V30 7005 H 656.757 -2.76775 2.85449 0
M  V30 7006 N 657.755 -1.42862 -0.66545 0
M  V30 7007 C 658.995 -1.45323 -1.43738 0
M  V30 7008 C 659.359 -0.0707969 -1.91869 0
M  V30 7009 O 660.56 0.0298852 -2.68783 0
M  V30 7010 C 658.831 -2.45671 -2.59577 0
M  V30 7011 S 660.39 -2.6691 -3.48288 0
M  V30 7012 H 657.208 -0.51442 -0.490809 0
M  V30 7013 H 659.81 -1.79537 -0.773745 0
M  V30 7014 H 658.514 -3.44869 -2.22471 0
M  V30 7015 H 658.045 -2.12914 -3.30804 0
M  V30 7016 H 660.06 -1.95914 -4.55886 0
M  V30 7017 N 659.233 0.902656 -1.29189 0
M  V30 7018 C 660.143 2.03946 -1.15944 0
M  V30 7019 C 661.159 1.738 -0.0833803 0
M  V30 7020 O 662.335 1.9923 -0.29487 0
M  V30 7021 C 659.4 3.36519 -0.834006 0
M  V30 7022 C 658.461 3.80203 -1.9936 0
M  V30 7023 C 657.694 5.06449 -1.68359 0
M  V30 7024 O 657.917 5.67202 -0.603141 0
M  V30 7025 O 656.851 5.46114 -2.53067 0
M  V30 7026 H 660.677 2.18043 -2.11403 0
M  V30 7027 H 658.262 1.02584 -1.08613 0
M  V30 7028 H 660.144 4.16089 -0.666949 0
M  V30 7029 H 658.819 3.23573 0.0908245 0
M  V30 7030 H 657.726 3.01413 -2.21588 0
M  V30 7031 H 659.059 3.97729 -2.89952 0
M  V30 7032 N 660.711 1.11618 1.11262 0
M  V30 7033 C 661.958 0.86618 1.8304 0
M  V30 7034 C 662.286 -0.608149 1.84748 0
M  V30 7035 O 661.541 -1.46508 1.29745 0
M  V30 7036 C 661.84 1.37529 3.2988 0
M  V30 7037 C 661.506 2.86317 3.4833 0
M  V30 7038 C 660.168 3.26945 3.53073 0
M  V30 7039 C 662.52 3.82136 3.54431 0
M  V30 7040 C 659.848 4.62117 3.61475 0
M  V30 7041 C 662.2 5.17128 3.64365 0
M  V30 7042 C 660.864 5.57312 3.67369 0
M  V30 7043 H 660.134 0.316958 0.66979 0
M  V30 7044 H 662.781 1.3949 1.31205 0
M  V30 7045 H 661.086 0.766842 3.84222 0
M  V30 7046 H 662.783 1.15817 3.83911 0
M  V30 7047 H 659.373 2.53889 3.45309 0
M  V30 7048 H 663.557 3.51847 3.50025 0
M  V30 7049 H 658.813 4.92655 3.62079 0
M  V30 7050 H 662.987 5.91208 3.68029 0
M  V30 7051 H 660.614 6.62045 3.73632 0
M  V30 7052 N 662.189 -1.289 0.906776 0
M  V30 7053 C 663.417 -1.99401 0.551969 0
M  V30 7054 C 663.832 -1.67816 -0.865048 0
M  V30 7055 O 663.189 -0.927078 -1.57199 0
M  V30 7056 C 663.24 -3.53779 0.743152 0
M  V30 7057 O 662.961 -3.84248 2.1044 0
M  V30 7058 C 664.462 -4.41543 0.39424 0
M  V30 7059 H 661.682 -0.636926 0.211106 0
M  V30 7060 H 664.226 -1.64266 1.21807 0
M  V30 7061 H 662.381 -3.87201 0.124143 0
M  V30 7062 H 662.795 -4.78904 2.13895 0
M  V30 7063 H 664.269 -5.48957 0.578814 0
M  V30 7064 H 664.746 -4.34073 -0.669137 0
M  V30 7065 H 665.352 -4.13605 0.990491 0
M  V30 7066 N 663.667 -0.670007 -1.42649 0
M  V30 7067 C 664.913 -0.190568 -2.01903 0
M  V30 7068 C 665.246 1.19817 -1.52832 0
M  V30 7069 O 664.521 1.80342 -0.728485 0
M  V30 7070 C 664.804 -0.21991 -3.59428 0
M  V30 7071 C 664.657 -1.64376 -4.18689 0
M  V30 7072 C 665.976 0.434519 -4.3795 0
M  V30 7073 H 663.095 -0.0707219 -0.733599 0
M  V30 7074 H 665.737 -0.853883 -1.69732 0
M  V30 7075 H 663.887 0.344894 -3.86966 0
M  V30 7076 H 665.559 -2.26044 -4.02122 0
M  V30 7077 H 663.802 -2.18591 -3.747 0
M  V30 7078 H 664.473 -1.61601 -5.27815 0
M  V30 7079 H 666.949 -0.0462156 -4.16074 0
M  V30 7080 H 665.825 0.38333 -5.4756 0
M  V30 7081 H 666.086 1.51135 -4.15464 0
M  V30 7082 N 665.145 1.52092 -0.413018 0
M  V30 7083 C 666.075 2.30021 0.401567 0
M  V30 7084 C 667.056 1.34395 1.04269 0
M  V30 7085 O 668.241 1.63304 1.05097 0
M  V30 7086 C 665.371 3.12447 1.51638 0
M  V30 7087 C 664.325 4.16153 1.00005 0
M  V30 7088 C 663.651 4.86948 2.20875 0
M  V30 7089 C 664.951 5.22275 0.0513757 0
M  V30 7090 H 666.645 2.98365 -0.248704 0
M  V30 7091 H 664.191 1.4349 -0.121052 0
M  V30 7092 H 666.144 3.65733 2.09326 0
M  V30 7093 H 664.868 2.41879 2.19458 0
M  V30 7094 H 663.527 3.63882 0.445549 0
M  V30 7095 H 663.175 4.12905 2.8726 0
M  V30 7096 H 662.875 5.57057 1.86978 0
M  V30 7097 H 664.399 5.43048 2.79162 0
M  V30 7098 H 665.813 5.70778 0.537176 0
M  V30 7099 H 664.21 5.9977 -0.198977 0
M  V30 7100 H 665.28 4.76611 -0.892736 0
M  V30 7101 N 666.623 0.143563 1.56945 0
M  V30 7102 C 667.586 -0.783295 2.154 0
M  V30 7103 C 668.586 -1.17763 1.09492 0
M  V30 7104 O 669.776 -1.09912 1.35148 0
M  V30 7105 C 666.908 -2.06248 2.7143 0
M  V30 7106 H 668.101 -0.274863 2.98638 0
M  V30 7107 H 665.654 -0.105859 1.55941 0
M  V30 7108 H 666.389 -2.61466 1.91849 0
M  V30 7109 H 666.174 -1.78897 3.4891 0
M  V30 7110 H 667.664 -2.72453 3.16479 0
M  V30 7111 N 668.101 -1.57061 -0.130224 0
M  V30 7112 C 669.329 -1.88432 -0.854456 0
M  V30 7113 C 669.744 -0.733608 -1.73964 0
M  V30 7114 O 669.101 0.296029 -1.80083 0
M  V30 7115 C 669.152 -3.1918 -1.69724 0
M  V30 7116 O 668.873 -4.2982 -0.847705 0
M  V30 7117 C 670.374 -3.6418 -2.5276 0
M  V30 7118 H 667.594 -0.624193 -0.246221 0
M  V30 7119 H 670.138 -2.04159 -0.11798 0
M  V30 7120 H 668.293 -3.05156 -2.3866 0
M  V30 7121 H 668.707 -5.04689 -1.42792 0
M  V30 7122 H 670.181 -4.58457 -3.07443 0
M  V30 7123 H 670.658 -2.90285 -3.29592 0
M  V30 7124 H 671.264 -3.80954 -1.89087 0
M  V30 7125 N 669.579 0.400081 -1.52437 0
M  V30 7126 C 670.995 0.739359 -1.41441 0
M  V30 7127 C 671.195 1.94512 -0.526053 0
M  V30 7128 O 670.251 2.525 0.00472502 0
M  V30 7129 C 671.564 0.984824 -2.84116 0
M  V30 7130 C 673.112 1.08698 -2.93519 0
M  V30 7131 C 673.587 1.36515 -4.37181 0
M  V30 7132 N 675.078 1.43361 -4.40457 0
M  V30 7133 C 675.813 1.66528 -5.48686 0
M  V30 7134 N 675.309 1.87239 -6.67018 0
M  V30 7135 N 677.102 1.68617 -5.36213 0
M  V30 7136 H 669.253 -0.393484 -2.08723 0
M  V30 7137 H 671.516 -0.1138 -0.941145 0
M  V30 7138 H 671.222 0.171096 -3.51284 0
M  V30 7139 H 671.096 1.90253 -3.25705 0
M  V30 7140 H 673.483 1.89129 -2.26526 0
M  V30 7141 H 673.564 0.147432 -2.55375 0
M  V30 7142 H 673.208 0.565982 -5.04737 0
M  V30 7143 H 673.138 2.31737 -4.7287 0
M  V30 7144 H 675.629 1.29108 -3.55161 0
M  V30 7145 H 675.942 2.04392 -7.45281 0
M  V30 7146 H 674.287 1.84486 -6.70067 0
M  V30 7147 H 677.478 1.5198 -4.42741 0
M  V30 7148 H 677.651 1.86332 -6.20632 0
M  V30 7149 N 671.057 1.43213 0.657864 0
M  V30 7150 C 672.306 1.43871 1.41365 0
M  V30 7151 C 672.619 0.064898 1.95492 0
M  V30 7152 O 673.825 -0.0510796 2.71452 0
M  V30 7153 C 672.281 2.53158 2.55811 0
M  V30 7154 C 671.889 3.96624 2.08311 0
M  V30 7155 C 673.633 2.63004 3.3321 0
M  V30 7156 C 671.54 4.97385 3.1994 0
M  V30 7157 H 670.47 0.535174 0.531136 0
M  V30 7158 H 673.121 1.69185 0.710543 0
M  V30 7159 H 671.503 2.21037 3.2857 0
M  V30 7160 H 672.677 4.38182 1.42593 0
M  V30 7161 H 670.992 3.90781 1.43804 0
M  V30 7162 H 673.589 3.3546 4.16378 0
M  V30 7163 H 673.932 1.67918 3.80932 0
M  V30 7164 H 674.465 2.94403 2.67529 0
M  V30 7165 H 671.204 5.94007 2.77192 0
M  V30 7166 H 670.724 4.60444 3.84385 0
M  V30 7167 H 672.403 5.19877 3.85145 0
M  V30 7168 N 672.536 -0.895792 1.29666 0
M  V30 7169 C 673.466 -2.01673 1.17688 0
M  V30 7170 C 674.447 -1.69955 0.0701317 0
M  V30 7171 O 675.632 -1.9258 0.250289 0
M  V30 7172 C 672.762 -3.36568 0.856681 0
M  V30 7173 C 671.716 -3.82509 1.92017 0
M  V30 7174 C 671.042 -5.14574 1.4532 0
M  V30 7175 C 672.342 -4.02409 3.32963 0
M  V30 7176 H 674.036 -2.11953 2.11463 0
M  V30 7177 H 671.582 -1.01839 1.01807 0
M  V30 7178 H 673.535 -4.14498 0.759577 0
M  V30 7179 H 672.259 -3.26391 -0.116763 0
M  V30 7180 H 670.918 -3.068 2.00673 0
M  V30 7181 H 670.566 -5.00815 0.468325 0
M  V30 7182 H 670.266 -5.46283 2.16447 0
M  V30 7183 H 671.79 -5.9504 1.36968 0
M  V30 7184 H 673.204 -4.70808 3.27127 0
M  V30 7185 H 671.601 -4.45478 4.02082 0
M  V30 7186 H 672.671 -3.06616 3.75652 0
M  V30 7187 N 674.014 -1.12206 -1.10668 0
M  V30 7188 C 674.964 -0.75669 -2.15077 0
M  V30 7189 C 675.948 0.243154 -1.59052 0
M  V30 7190 O 677.14 0.0490268 -1.76932 0
M  V30 7191 C 674.269 -0.210303 -3.42655 0
M  V30 7192 C 673.355 -1.23829 -4.05619 0
M  V30 7193 N 673.746 -2.43513 -4.43323 0
M  V30 7194 C 672.044 -1.08309 -4.32649 0
M  V30 7195 C 672.745 -3.09138 -4.92756 0
M  V30 7196 N 671.721 -2.36593 -4.89413 0
M  V30 7197 H 675.523 -1.66747 -2.42018 0
M  V30 7198 H 673.037 -1.00248 -1.27765 0
M  V30 7199 H 675.034 0.0696287 -4.16842 0
M  V30 7200 H 673.694 0.694967 -3.17176 0
M  V30 7201 H 674.705 -2.80912 -4.35097 0
M  V30 7202 H 671.382 -0.234919 -4.16839 0
M  V30 7203 H 672.772 -4.11049 -5.31496 0
M  V30 7204 N 675.492 1.28418 -0.913599 0
M  V30 7205 C 676.422 2.29713 -0.418847 0
M  V30 7206 C 677.403 1.62165 0.513469 0
M  V30 7207 O 678.588 1.89576 0.421235 0
M  V30 7208 C 675.718 3.45612 0.342042 0
M  V30 7209 C 674.672 4.25056 -0.501123 0
M  V30 7210 C 673.998 5.3329 0.388097 0
M  V30 7211 C 675.298 4.91814 -1.75831 0
M  V30 7212 H 676.992 2.71346 -1.26538 0
M  V30 7213 H 674.538 1.30446 -0.609903 0
M  V30 7214 H 676.491 4.15562 0.699 0
M  V30 7215 H 675.215 3.02858 1.22248 0
M  V30 7216 H 673.874 3.56833 -0.840598 0
M  V30 7217 H 673.522 4.8678 1.26707 0
M  V30 7218 H 673.222 5.87347 -0.172459 0
M  V30 7219 H 674.746 6.06088 0.74094 0
M  V30 7220 H 676.16 5.54126 -1.47026 0
M  V30 7221 H 674.557 5.55866 -2.26126 0
M  V30 7222 H 675.627 4.16313 -2.4862 0
M  V30 7223 N 676.97 0.677563 1.42291 0
M  V30 7224 C 677.9 0.014968 2.33495 0
M  V30 7225 C 678.881 -0.786376 1.50831 0
M  V30 7226 O 680.066 -0.742975 1.79426 0
M  V30 7227 C 677.196 -0.935023 3.34477 0
M  V30 7228 C 676.15 -0.242074 4.27315 0
M  V30 7229 C 675.476 -1.30519 5.18526 0
M  V30 7230 C 676.776 0.880604 5.14823 0
M  V30 7231 H 678.47 0.776671 2.89151 0
M  V30 7232 H 676.016 0.37494 1.39033 0
M  V30 7233 H 677.969 -1.40766 3.97194 0
M  V30 7234 H 676.693 -1.72818 2.77131 0
M  V30 7235 H 675.352 0.210351 3.65996 0
M  V30 7236 H 675 -2.09041 4.57505 0
M  V30 7237 H 674.7 -0.846652 5.81468 0
M  V30 7238 H 676.224 -1.7787 5.84119 0
M  V30 7239 H 677.638 0.489062 5.7121 0
M  V30 7240 H 676.035 1.26511 5.86613 0
M  V30 7241 H 677.105 1.72818 4.53059 0
M  V30 7242 N 678.448 -1.51871 0.421078 0
M  V30 7243 C 679.696 -2.01539 -0.150492 0
M  V30 7244 C 680.017 -1.30803 -1.44623 0
M  V30 7245 O 679.287 -0.437568 -1.90951 0
M  V30 7246 H 677.867 -0.744698 -0.0586041 0
M  V30 7247 H 680.529 -1.8668 0.560059 0
M  V30 7248 H 679.625 -3.10264 -0.338068 0
M  V30 7249 N 679.926 -0.151884 -1.56866 0
M  V30 7250 C 680.858 0.817008 -2.14144 0
M  V30 7251 C 681.871 1.20735 -1.0921 0
M  V30 7252 O 683.06 1.15058 -1.36469 0
M  V30 7253 C 680.16 2.10844 -2.65326 0
M  V30 7254 C 679.333 1.88471 -3.94712 0
M  V30 7255 C 678.392 3.01649 -4.31155 0
M  V30 7256 O 677.418 2.73127 -4.9939 0
M  V30 7257 N 678.62 4.28947 -3.91132 0
M  V30 7258 H 681.385 0.327448 -2.97906 0
M  V30 7259 H 678.946 0.0315313 -1.61869 0
M  V30 7260 H 680.938 2.85616 -2.86715 0
M  V30 7261 H 679.508 2.51049 -1.86262 0
M  V30 7262 H 678.728 0.977088 -3.81899 0
M  V30 7263 H 680.016 1.70866 -4.79252 0
M  V30 7264 H 679.414 4.54986 -3.36161 0
M  V30 7265 H 677.971 5.00484 -4.17563 0
M  V30 7266 N 681.404 1.57128 0.121893 0
M  V30 7267 C 682.314 2.03425 1.16857 0
M  V30 7268 C 683.33 0.954108 1.45509 0
M  V30 7269 O 684.506 1.26541 1.56682 0
M  V30 7270 C 681.571 2.42685 2.47599 0
M  V30 7271 C 680.632 3.64767 2.2637 0
M  V30 7272 C 679.865 4.02145 3.50878 0
M  V30 7273 O 680.088 3.39897 4.58068 0
M  V30 7274 O 679.022 4.95262 3.42051 0
M  V30 7275 H 682.848 2.92825 0.80544 0
M  V30 7276 H 680.433 1.45654 0.332477 0
M  V30 7277 H 682.315 2.68684 3.24634 0
M  V30 7278 H 680.99 1.56432 2.83392 0
M  V30 7279 H 679.897 3.43922 1.47203 0
M  V30 7280 H 681.23 4.51716 1.95482 0
M  V30 7281 N 682.882 -0.391992 1.52647 0
M  V30 7282 C 684.13 -1.13507 1.67214 0
M  V30 7283 C 684.451 -1.90575 0.41304 0
M  V30 7284 O 683.721 -1.87348 -0.572498 0
M  V30 7285 H 682.301 -0.422013 0.616372 0
M  V30 7286 H 684.963 -0.44502 1.89751 0
M  V30 7287 H 684.059 -1.83964 2.52118 0
M  V30 7288 N 684.36 -1.4356 -0.65026 0
M  V30 7289 C 685.771 -1.40324 -1.2315 0
M  V30 7290 C 686.122 -0.108812 -1.95898 0
M  V30 7291 O 685.247 0.79163 -2.01401 0
M  V30 7292 C 685.842 -2.54195 -2.23987 0
M  V30 7293 C 684.401 -2.54215 -2.77582 0
M  V30 7294 C 683.548 -2.31752 -1.5227 0
M  V30 7295 H 686.499 -1.52418 -0.442095 0
M  V30 7296 H 686.52 -2.25854 -3.0622 0
M  V30 7297 H 686.032 -3.48392 -1.71011 0
M  V30 7298 H 684.133 -1.63907 -3.34612 0
M  V30 7299 H 684.246 -3.52081 -3.24925 0
M  V30 7300 H 682.61 -1.80476 -1.79723 0
M  V30 7301 H 683.393 -3.28037 -1.01225 0
M  V30 7302 N 685.838 0.888903 -1.30139 0
M  V30 7303 C 686.785 1.99422 -1.16188 0
M  V30 7304 C 687.755 1.66017 -0.0523869 0
M  V30 7305 O 688.94 1.89506 -0.221864 0
M  V30 7306 C 686.08 3.34325 -0.855612 0
M  V30 7307 C 685.193 3.80445 -2.0466 0
M  V30 7308 C 684.328 5.03975 -1.67876 0
M  V30 7309 C 683.367 5.42492 -2.83493 0
M  V30 7310 N 682.504 6.57206 -2.47032 0
M  V30 7311 H 687.344 2.10687 -2.10749 0
M  V30 7312 H 684.881 1.03165 -1.04859 0
M  V30 7313 H 686.839 4.11968 -0.658681 0
M  V30 7314 H 685.469 3.22756 0.0531155 0
M  V30 7315 H 684.521 2.98745 -2.3549 0
M  V30 7316 H 685.833 4.04933 -2.91257 0
M  V30 7317 H 684.987 5.89232 -1.44535 0
M  V30 7318 H 683.726 4.8135 -0.784431 0
M  V30 7319 H 682.731 4.55764 -3.07505 0
M  V30 7320 H 683.956 5.67093 -3.73607 0
M  V30 7321 H 681.902 6.36164 -1.601 0
M  V30 7322 H 681.819 6.81543 -3.27161 0
M  V30 7323 H 683.087 7.45704 -2.27038 0
M  V30 7324 N 687.317 1.12792 1.10072 0
M  V30 7325 C 688.545 0.908506 1.85886 0
M  V30 7326 C 688.96 -0.542408 1.80841 0
M  V30 7327 O 688.317 -1.37517 1.1998 0
M  V30 7328 C 688.368 1.37973 3.34134 0
M  V30 7329 O 688.089 2.77378 3.39106 0
M  V30 7330 C 689.59 1.1978 4.26811 0
M  V30 7331 H 686.81 0.3244 0.587372 0
M  V30 7332 H 689.354 1.49882 1.39125 0
M  V30 7333 H 687.509 0.832566 3.78348 0
M  V30 7334 H 687.923 2.98144 4.31521 0
M  V30 7335 H 689.397 1.57635 5.29014 0
M  V30 7336 H 689.874 0.138768 4.38981 0
M  V30 7337 H 690.48 1.73266 3.88406 0
M  V30 7338 N 688.795 -1.27931 0.920396 0
M  V30 7339 C 690.023 -1.98805 0.573087 0
M  V30 7340 C 690.438 -1.68724 -0.847201 0
M  V30 7341 O 689.795 -0.943699 -1.56207 0
M  V30 7342 C 689.846 -3.52971 0.780633 0
M  V30 7343 O 689.567 -3.81994 2.14504 0
M  V30 7344 C 691.068 -4.411 0.44105 0
M  V30 7345 H 688.288 -0.634651 0.21785 0
M  V30 7346 H 690.832 -1.62965 1.23542 0
M  V30 7347 H 688.987 -3.87048 0.165204 0
M  V30 7348 H 689.401 -4.76609 2.18962 0
M  V30 7349 H 690.875 -5.48312 0.637006 0
M  V30 7350 H 691.352 -4.34758 -0.62306 0
M  V30 7351 H 691.958 -4.12532 1.0343 0
M  V30 7352 N 690.273 -0.685099 -1.4193 0
M  V30 7353 C 691.221 -0.00165985 -2.326 0
M  V30 7354 C 692.215 0.779678 -1.50391 0
M  V30 7355 O 693.421 0.68648 -1.66395 0
M  V30 7356 H 689.796 0.0182616 -0.751778 0
M  V30 7357 H 691.767 -0.783592 -2.87928 0
M  V30 7358 C 690.516 0.928385 -3.35077 0
M  V30 7359 H 689.839 0.336578 -3.98381 0
M  V30 7360 H 691.279 1.37509 -4.01083 0
M  V30 7361 C 689.738 2.03964 -2.68142 0
M  V30 7362 O 690.268 3.12727 -2.5212 0
M  V30 7363 N 688.474 1.81433 -2.27003 0
M  V30 7364 H 688.021 0.929807 -2.40234 0
M  V30 7365 H 687.979 2.55973 -1.82552 0
M  V30 7366 N 691.751 1.51645 -0.429126 0
M  V30 7367 C 693.162 1.86665 0.0359003 0
M  V30 7368 C 693.513 1.34677 1.42676 0
M  V30 7369 O 692.638 0.694195 2.04963 0
M  V30 7370 C 693.233 3.38724 0.0719221 0
M  V30 7371 C 691.792 3.7331 0.481336 0
M  V30 7372 C 690.939 2.75313 -0.331329 0
M  V30 7373 H 693.89 1.44987 -0.645333 0
M  V30 7374 H 693.911 3.7011 0.883118 0
M  V30 7375 H 693.423 3.76532 -0.940495 0
M  V30 7376 H 691.524 3.41088 1.49966 0
M  V30 7377 H 691.637 4.78631 0.211837 0
M  V30 7378 H 690.001 2.53839 0.209204 0
M  V30 7379 H 690.784 3.15963 -1.34247 0
M  V30 7380 N 693.229 0.160201 1.56784 0
M  V30 7381 C 694.454 -0.497373 2.01348 0
M  V30 7382 C 694.879 -1.56757 1.03966 0
M  V30 7383 O 694.237 -1.81292 0.0174455 0
M  V30 7384 C 694.285 -1.0628 3.44582 0
M  V30 7385 O 693.389 -2.17723 3.50244 0
M  V30 7386 H 692.73 -0.120295 0.653012 0
M  V30 7387 H 695.26 0.260821 2.02931 0
M  V30 7388 H 695.27 -1.38819 3.83658 0
M  V30 7389 H 693.945 -0.279166 4.14962 0
M  V30 7390 H 692.522 -1.86313 3.2302 0
M  V30 7391 N 694.707 -1.5719 -0.113559 0
M  V30 7392 C 695.654 -2.00736 -1.13901 0
M  V30 7393 C 696.624 -0.88044 -1.40846 0
M  V30 7394 O 697.809 -1.14507 -1.5262 0
M  V30 7395 C 694.949 -2.42132 -2.45899 0
M  V30 7396 C 694.062 -3.68264 -2.25844 0
M  V30 7397 C 693.197 -3.98617 -3.5111 0
M  V30 7398 C 692.236 -5.17915 -3.26236 0
M  V30 7399 N 691.373 -5.44111 -4.4372 0
M  V30 7400 H 696.213 -2.88128 -0.760677 0
M  V30 7401 H 693.75 -1.42523 -0.364099 0
M  V30 7402 H 695.708 -2.6417 -3.22908 0
M  V30 7403 H 694.338 -1.57775 -2.81615 0
M  V30 7404 H 693.39 -3.53809 -1.39726 0
M  V30 7405 H 694.702 -4.55425 -2.03444 0
M  V30 7406 H 693.856 -4.21333 -4.36536 0
M  V30 7407 H 692.595 -3.09942 -3.76546 0
M  V30 7408 H 691.6 -4.95038 -2.39202 0
M  V30 7409 H 692.825 -6.08172 -3.02165 0
M  V30 7410 H 690.771 -4.58394 -4.69266 0
M  V30 7411 H 690.688 -6.25606 -4.24444 0
M  V30 7412 H 691.956 -5.71351 -5.30263 0
M  V30 7413 N 696.185 0.383891 -1.52853 0
M  V30 7414 C 697.415 1.14783 -1.7178 0
M  V30 7415 C 697.823 1.84055 -0.438211 0
M  V30 7416 O 697.166 1.73713 0.597465 0
M  V30 7417 C 697.228 2.23543 -2.81547 0
M  V30 7418 C 696.892 1.74195 -4.22499 0
M  V30 7419 C 697.889 1.21591 -5.05481 0
M  V30 7420 C 695.574 1.80262 -4.6884 0
M  V30 7421 C 697.568 0.757104 -6.32888 0
M  V30 7422 C 695.255 1.33993 -5.96229 0
M  V30 7423 C 696.253 0.818049 -6.78083 0
M  V30 7424 O 695.941 0.362123 -8.03084 0
M  V30 7425 H 695.673 0.349908 -0.578395 0
M  V30 7426 H 698.227 0.454377 -2.00311 0
M  V30 7427 H 696.457 2.96328 -2.48449 0
M  V30 7428 H 698.146 2.8519 -2.88828 0
M  V30 7429 H 698.912 1.16257 -4.7086 0
M  V30 7430 H 694.791 2.19825 -4.05213 0
M  V30 7431 H 698.335 0.34908 -6.96726 0
M  V30 7432 H 694.232 1.39015 -6.30353 0
M  V30 7433 H 695 0.483134 -8.17073 0
M  V30 7434 N 697.663 1.43903 0.642637 0
M  V30 7435 C 698.912 1.45362 1.39831 0
M  V30 7436 C 699.225 0.0856289 1.95412 0
M  V30 7437 O 700.431 -0.0222856 2.71491 0
M  V30 7438 C 698.887 2.55857 2.53111 0
M  V30 7439 C 698.495 3.98811 2.04092 0
M  V30 7440 C 700.239 2.66524 3.30402 0
M  V30 7441 C 698.146 5.00751 3.14647 0
M  V30 7442 H 697.076 0.540777 0.52543 0
M  V30 7443 H 699.727 1.69929 0.692559 0
M  V30 7444 H 698.109 2.2451 3.26207 0
M  V30 7445 H 699.283 4.3967 1.37938 0
M  V30 7446 H 697.598 3.92284 1.39651 0
M  V30 7447 H 700.195 3.39858 4.12796 0
M  V30 7448 H 700.538 1.71949 3.79129 0
M  V30 7449 H 701.071 2.97224 2.64392 0
M  V30 7450 H 697.81 5.96914 2.70876 0
M  V30 7451 H 697.33 4.64495 3.79479 0
M  V30 7452 H 699.009 5.23933 3.79609 0
M  V30 7453 N 699.141 -0.881989 1.30609 0
M  V30 7454 C 700.557 -1.16576 1.09005 0
M  V30 7455 C 700.757 -2.00961 -0.14727 0
M  V30 7456 O 699.813 -2.38117 -0.840036 0
M  V30 7457 C 701.126 -1.86954 2.35518 0
M  V30 7458 C 702.674 -1.99706 2.41011 0
M  V30 7459 C 703.149 -2.73497 3.67374 0
M  V30 7460 N 704.64 -2.8104 3.68199 0
M  V30 7461 C 705.375 -3.38718 4.62664 0
M  V30 7462 N 704.871 -3.97421 5.67475 0
M  V30 7463 N 706.664 -3.36561 4.50203 0
M  V30 7464 H 698.815 -0.319398 2.09985 0
M  V30 7465 H 701.078 -0.204058 0.925778 0
M  V30 7466 H 700.784 -1.32393 3.2583 0
M  V30 7467 H 700.658 -2.87317 2.44395 0
M  V30 7468 H 703.045 -2.53436 1.51176 0
M  V30 7469 H 703.126 -0.984218 2.36108 0
M  V30 7470 H 702.77 -2.20438 4.57569 0
M  V30 7471 H 702.7 -3.75163 3.6954 0
M  V30 7472 H 705.191 -2.39365 2.92426 0
M  V30 7473 H 705.504 -4.39507 6.35652 0
M  V30 7474 H 703.849 -3.95832 5.71264 0
M  V30 7475 H 707.04 -2.8993 3.67503 0
M  V30 7476 H 707.213 -3.81215 5.24003 0
M  V30 7477 N 700.619 -1.13374 -1.09472 0
M  V30 7478 C 701.866 -0.89519 -1.81639 0
M  V30 7479 C 702.194 0.57868 -1.85692 0
M  V30 7480 O 701.449 1.44426 -1.32059 0
M  V30 7481 C 701.748 -1.42759 -3.2765 0
M  V30 7482 C 701.414 -2.91822 -3.43731 0
M  V30 7483 C 700.076 -3.32521 -3.47827 0
M  V30 7484 C 702.428 -3.87727 -3.48307 0
M  V30 7485 C 699.756 -4.6781 -3.54078 0
M  V30 7486 C 702.108 -5.22859 -3.56091 0
M  V30 7487 C 700.772 -5.63086 -3.58456 0
M  V30 7488 H 700.042 -0.327573 -0.664663 0
M  V30 7489 H 702.689 -1.4156 -1.28969 0
M  V30 7490 H 700.994 -0.827871 -3.82954 0
M  V30 7491 H 702.691 -1.2191 -3.8202 0
M  V30 7492 H 699.281 -2.5935 -3.41226 0
M  V30 7493 H 703.465 -3.57371 -3.44383 0
M  V30 7494 H 698.721 -4.98353 -3.54195 0
M  V30 7495 H 702.895 -5.96989 -3.58577 0
M  V30 7496 H 700.522 -6.67905 -3.63052 0
M  V30 7497 N 702.098 1.27442 -0.927168 0
M  V30 7498 C 703.347 1.93679 -0.563146 0
M  V30 7499 C 703.66 1.73673 0.899837 0
M  V30 7500 O 704.866 2.34247 1.37262 0
M  V30 7501 C 703.322 3.46961 -0.95636 0
M  V30 7502 C 702.93 3.75724 -2.43999 0
M  V30 7503 C 704.674 4.19282 -0.663565 0
M  V30 7504 C 702.581 5.22378 -2.77263 0
M  V30 7505 H 701.511 0.725059 -0.206894 0
M  V30 7506 H 704.162 1.44743 -1.12791 0
M  V30 7507 H 702.544 3.94703 -0.320254 0
M  V30 7508 H 703.718 3.38741 -3.12396 0
M  V30 7509 H 702.033 3.16605 -2.70463 0
M  V30 7510 H 704.63 5.27265 -0.888596 0
M  V30 7511 H 704.973 4.14382 0.399198 0
M  V30 7512 H 705.506 3.7736 -1.25875 0
M  V30 7513 H 702.245 5.32367 -3.82446 0
M  V30 7514 H 701.765 5.6051 -2.13516 0
M  V30 7515 H 703.444 5.9025 -2.64979 0
M  V30 7516 N 703.576 0.692616 1.41565 0
M  V30 7517 C 704.806 0.230943 2.05305 0
M  V30 7518 C 705.214 -1.12379 1.52209 0
M  V30 7519 O 704.557 -1.71281 0.663968 0
M  V30 7520 C 704.619 0.107894 3.59338 0
M  V30 7521 C 704.283 1.39419 4.35214 0
M  V30 7522 C 705.28 2.33143 4.64694 0
M  V30 7523 C 702.965 1.64674 4.74539 0
M  V30 7524 C 704.959 3.50385 5.32456 0
M  V30 7525 C 702.646 2.82202 5.42038 0
M  V30 7526 C 703.644 3.74881 5.70923 0
M  V30 7527 O 703.332 4.90351 6.37033 0
M  V30 7528 H 703.064 0.105708 0.667684 0
M  V30 7529 H 705.618 0.94488 1.82376 0
M  V30 7530 H 703.848 -0.661785 3.80995 0
M  V30 7531 H 705.537 -0.316213 4.04666 0
M  V30 7532 H 706.303 2.14887 4.34797 0
M  V30 7533 H 702.182 0.934007 4.51439 0
M  V30 7534 H 705.726 4.22743 5.54918 0
M  V30 7535 H 701.623 3.00376 5.71353 0
M  V30 7536 H 702.391 4.90128 6.55528 0
M  V30 7537 N 705.054 -1.51416 0.437162 0
M  V30 7538 C 706.002 -2.29328 -0.388765 0
M  V30 7539 C 706.996 -1.35171 -1.02104 0
M  V30 7540 O 708.202 -1.52513 -0.956024 0
M  V30 7541 H 704.577 -0.738048 -0.144183 0
M  V30 7542 H 706.548 -2.96995 0.289212 0
M  V30 7543 C 705.297 -3.14741 -1.47761 0
M  V30 7544 H 704.62 -3.8708 -1.00045 0
M  V30 7545 H 706.06 -3.72313 -2.02877 0
M  V30 7546 C 704.519 -2.30105 -2.46076 0
M  V30 7547 O 705.049 -1.96055 -3.50607 0
M  V30 7548 N 703.255 -1.93331 -2.1696 0
M  V30 7549 H 702.802 -2.2122 -1.31983 0
M  V30 7550 H 702.76 -1.36999 -2.82982 0
M  V30 7551 N 706.532 -0.168513 -1.56696 0
M  V30 7552 C 707.948 0.187686 -1.58493 0
M  V30 7553 C 708.148 1.63063 -1.18375 0
M  V30 7554 O 707.204 2.36142 -0.894042 0
M  V30 7555 C 708.517 -0.0905858 -3.00564 0
M  V30 7556 C 710.065 -0.028575 -3.12987 0
M  V30 7557 C 710.54 -0.279799 -4.57145 0
M  V30 7558 N 712.031 -0.227476 -4.62641 0
M  V30 7559 C 712.766 -0.396073 -5.7203 0
M  V30 7560 N 712.262 -0.623572 -6.89988 0
M  V30 7561 N 714.055 -0.332173 -5.61118 0
M  V30 7562 H 706.206 -1.11042 -1.81062 0
M  V30 7563 H 708.469 -0.441235 -0.839056 0
M  V30 7564 H 708.175 -1.09006 -3.34381 0
M  V30 7565 H 708.049 0.619078 -3.72085 0
M  V30 7566 H 710.436 0.961471 -2.78998 0
M  V30 7567 H 710.517 -0.770905 -2.43907 0
M  V30 7568 H 710.161 -1.26704 -4.91842 0
M  V30 7569 H 710.091 0.48311 -5.24379 0
M  V30 7570 H 712.582 -0.0571723 -3.77857 0
M  V30 7571 H 712.895 -0.741745 -7.69232 0
M  V30 7572 H 711.24 -0.660153 -6.91858 0
M  V30 7573 H 714.431 -0.155051 -4.67843 0
M  V30 7574 H 714.604 -0.466994 -6.46315 0
M  V30 7575 N 708.01 1.57248 0.105221 0
M  V30 7576 C 709.256 1.85845 0.811753 0
M  V30 7577 C 709.589 0.756219 1.78871 0
M  V30 7578 O 708.864 -0.236736 1.93054 0
M  V30 7579 C 709.147 3.25059 1.54947 0
M  V30 7580 C 709 4.45898 0.591185 0
M  V30 7581 C 710.319 3.6203 2.50245 0
M  V30 7582 H 707.438 0.675973 0.293649 0
M  V30 7583 H 710.08 1.89849 0.0756269 0
M  V30 7584 H 708.23 3.21776 2.17698 0
M  V30 7585 H 709.902 4.61291 -0.0285352 0
M  V30 7586 H 708.145 4.33693 -0.0962343 0
M  V30 7587 H 708.816 5.40009 1.1443 0
M  V30 7588 H 711.292 3.66192 1.97593 0
M  V30 7589 H 710.168 4.60389 2.98886 0
M  V30 7590 H 710.429 2.90176 3.33542 0
M  V30 7591 N 709.488 -0.375779 1.53054 0
M  V30 7592 C 710.734 -1.12114 1.68992 0
M  V30 7593 C 711.067 -1.8926 0.435238 0
M  V30 7594 O 710.342 -1.86044 -0.567278 0
M  V30 7595 C 710.625 -2.08867 2.93337 0
M  V30 7596 C 710.478 -1.35397 4.28938 0
M  V30 7597 C 711.797 -3.09124 3.13257 0
M  V30 7598 H 708.916 -0.406207 0.614951 0
M  V30 7599 H 711.558 -0.403054 1.85676 0
M  V30 7600 H 709.708 -2.70102 2.79244 0
M  V30 7601 H 711.38 -0.770242 4.54824 0
M  V30 7602 H 709.623 -0.655801 4.28814 0
M  V30 7603 H 710.294 -2.06161 5.12056 0
M  V30 7604 H 712.77 -2.57987 3.26469 0
M  V30 7605 H 711.646 -3.74054 4.01715 0
M  V30 7606 H 711.907 -3.78729 2.28072 0
M  V30 7607 N 710.966 -1.44241 -0.634997 0
M  V30 7608 C 711.896 -1.53632 -1.7584 0
M  V30 7609 C 712.877 -0.389603 -1.65578 0
M  V30 7610 O 714.062 -0.609219 -1.84397 0
M  V30 7611 C 711.192 -1.47644 -3.14354 0
M  V30 7612 C 710.146 -2.60752 -3.394 0
M  V30 7613 C 709.472 -2.39817 -4.77904 0
M  V30 7614 C 710.772 -4.02921 -3.32343 0
M  V30 7615 H 712.466 -2.47662 -1.68238 0
M  V30 7616 H 710.012 -1.19197 -0.807969 0
M  V30 7617 H 711.965 -1.52815 -3.92716 0
M  V30 7618 H 710.689 -0.501284 -3.2273 0
M  V30 7619 H 709.348 -2.54965 -2.63417 0
M  V30 7620 H 708.996 -1.40502 -4.82978 0
M  V30 7621 H 708.696 -3.15649 -4.9562 0
M  V30 7622 H 710.22 -2.46799 -5.585 0
M  V30 7623 H 711.634 -4.10098 -4.00615 0
M  V30 7624 H 710.031 -4.78925 -3.61595 0
M  V30 7625 H 711.101 -4.26766 -2.30215 0
M  V30 7626 N 712.444 0.87505 -1.31075 0
M  V30 7627 C 713.354 2.01441 -1.20244 0
M  V30 7628 C 714.37 1.73584 -0.120227 0
M  V30 7629 O 715.546 1.98559 -0.337063 0
M  V30 7630 C 712.611 3.34675 -0.905199 0
M  V30 7631 C 711.672 3.75889 -2.0738 0
M  V30 7632 C 710.905 5.02764 -1.79064 0
M  V30 7633 O 711.128 5.65795 -0.723318 0
M  V30 7634 O 710.062 5.40623 -2.64594 0
M  V30 7635 H 713.888 2.13509 -2.1598 0
M  V30 7636 H 711.473 1.00257 -1.10765 0
M  V30 7637 H 713.355 4.1458 -0.755057 0
M  V30 7638 H 712.03 3.23692 0.0221695 0
M  V30 7639 H 710.937 2.96645 -2.27931 0
M  V30 7640 H 712.27 3.91489 -2.98324 0
M  V30 7641 N 713.922 1.13953 1.08869 0
M  V30 7642 C 714.872 0.790812 2.13846 0
M  V30 7643 C 715.856 -0.217819 1.59419 0
M  V30 7644 O 717.048 -0.0208723 1.76988 0
M  V30 7645 C 714.177 0.26479 3.42277 0
M  V30 7646 C 713.263 1.30267 4.03598 0
M  V30 7647 N 713.654 2.50535 4.39393 0
M  V30 7648 C 711.952 1.15178 4.30871 0
M  V30 7649 C 712.653 3.16938 4.87776 0
M  V30 7650 N 711.629 2.44349 4.85587 0
M  V30 7651 H 715.431 1.70577 2.39334 0
M  V30 7652 H 712.945 1.02268 1.26154 0
M  V30 7653 H 714.942 -0.00330398 4.169 0
M  V30 7654 H 713.602 -0.644419 3.18241 0
M  V30 7655 H 714.613 2.87798 4.30572 0
M  V30 7656 H 711.29 0.301204 4.16412 0
M  V30 7657 H 712.68 4.19453 5.2489 0
M  V30 7658 N 715.4 -1.26948 0.933913 0
M  V30 7659 C 716.31 -2.30366 0.443671 0
M  V30 7660 C 717.326 -1.67284 -0.478745 0
M  V30 7661 O 718.502 -1.98156 -0.360043 0
M  V30 7662 C 715.567 -3.45485 -0.289974 0
M  V30 7663 C 714.628 -4.24069 0.668114 0
M  V30 7664 C 713.861 -5.33691 -0.0306138 0
M  V30 7665 O 714.084 -5.5656 -1.24888 0
M  V30 7666 O 713.018 -5.98441 0.644384 0
M  V30 7667 H 716.844 -2.74349 1.30254 0
M  V30 7668 H 714.429 -1.32012 0.699506 0
M  V30 7669 H 716.311 -4.15486 -0.70353 0
M  V30 7670 H 714.986 -3.03546 -1.12435 0
M  V30 7671 H 713.893 -3.56579 1.13147 0
M  V30 7672 H 715.226 -4.69739 1.46989 0
M  V30 7673 N 716.879 -0.700114 -1.41195 0
M  V30 7674 C 717.789 -0.0382854 -2.34569 0
M  V30 7675 C 718.805 0.761036 -1.56474 0
M  V30 7676 O 719.981 0.697553 -1.88934 0
M  V30 7677 C 717.046 0.883522 -3.35253 0
M  V30 7678 C 716.107 0.0758957 -4.29233 0
M  V30 7679 C 715.34 0.9538 -5.25108 0
M  V30 7680 O 715.563 2.19326 -5.26547 0
M  V30 7681 O 714.497 0.401049 -6.00562 0
M  V30 7682 H 718.323 -0.808073 -2.92752 0
M  V30 7683 H 715.908 -0.460479 -1.42127 0
M  V30 7684 H 717.79 1.41199 -3.9704 0
M  V30 7685 H 716.465 1.63272 -2.79506 0
M  V30 7686 H 715.372 -0.497274 -3.7078 0
M  V30 7687 H 716.705 -0.634741 -4.8809 0
M  V30 7688 N 718.357 1.51182 -0.445186 0
M  V30 7689 C 719.603 2.02452 0.11882 0
M  V30 7690 C 719.936 1.32824 1.41673 0
M  V30 7691 O 719.211 0.445637 1.89326 0
M  V30 7692 C 719.494 3.5859 0.329475 0
M  V30 7693 C 719.347 4.38823 -0.987638 0
M  V30 7694 C 720.666 4.26241 1.09575 0
M  V30 7695 H 717.785 0.735819 0.0417092 0
M  V30 7696 H 720.427 1.80747 -0.585718 0
M  V30 7697 H 718.577 3.77214 0.9296 0
M  V30 7698 H 720.249 4.3183 -1.62235 0
M  V30 7699 H 718.492 4.03594 -1.59041 0
M  V30 7700 H 719.163 5.46257 -0.794192 0
M  V30 7701 H 721.639 4.11934 0.587328 0
M  V30 7702 H 720.515 5.35354 1.21191 0
M  V30 7703 H 720.776 3.87635 2.12584 0
M  V30 7704 N 719.835 0.176821 1.56605 0
M  V30 7705 C 721.251 -0.179278 1.5859 0
M  V30 7706 C 721.451 -1.62433 1.19238 0
M  V30 7707 O 720.507 -2.35665 0.906552 0
M  V30 7708 C 721.82 0.106524 3.00511 0
M  V30 7709 C 723.368 0.0451731 3.12967 0
M  V30 7710 C 723.843 0.304038 4.5699 0
M  V30 7711 N 725.334 0.252008 4.62514 0
M  V30 7712 C 726.069 0.426404 5.71812 0
M  V30 7713 N 725.565 0.660155 6.89648 0
M  V30 7714 N 727.358 0.361926 5.60934 0
M  V30 7715 H 719.509 1.12001 1.8047 0
M  V30 7716 H 721.772 0.445679 0.836704 0
M  V30 7717 H 721.478 1.10778 3.33798 0
M  V30 7718 H 721.352 -0.599337 3.72408 0
M  V30 7719 H 723.739 -0.946662 2.79504 0
M  V30 7720 H 723.82 0.78383 2.43495 0
M  V30 7721 H 723.464 1.29311 4.91163 0
M  V30 7722 H 723.394 -0.455294 5.24628 0
M  V30 7723 H 725.885 0.0772102 3.77821 0
M  V30 7724 H 726.198 0.782529 7.68828 0
M  V30 7725 H 724.543 0.696835 6.91498 0
M  V30 7726 H 727.734 0.17986 4.67754 0
M  V30 7727 H 727.907 0.501263 6.46058 0
M  V30 7728 N 721.313 -1.57302 -0.09688 0
M  V30 7729 C 722.276 -2.00976 -1.10188 0
M  V30 7730 C 723.276 -0.903009 -1.3305 0
M  V30 7731 O 724.466 -1.16853 -1.29194 0
M  V30 7732 C 721.598 -2.36893 -2.45142 0
M  V30 7733 H 722.791 -2.9098 -0.726003 0
M  V30 7734 H 720.344 -1.52515 -0.341872 0
M  V30 7735 H 721.079 -1.49837 -2.8761 0
M  V30 7736 H 720.864 -3.17632 -2.29897 0
M  V30 7737 H 722.354 -2.71345 -3.1743 0
M  V30 7738 N 722.791 0.367657 -1.53252 0
M  V30 7739 C 724.039 1.10832 -1.68999 0
M  V30 7740 C 724.36 1.89894 -0.443306 0
M  V30 7741 O 723.63 1.88235 0.54262 0
M  V30 7742 H 722.21 0.412153 -0.623008 0
M  V30 7743 H 724.872 0.414775 -1.90435 0
M  V30 7744 H 723.968 1.7993 -2.55013 0
M  V30 7745 N 724.269 1.44576 0.627338 0
M  V30 7746 C 725.232 1.51372 1.72102 0
M  V30 7747 C 726.232 0.395329 1.55865 0
M  V30 7748 O 727.422 0.658094 1.61291 0
M  V30 7749 C 724.554 1.39129 3.11217 0
M  V30 7750 H 725.747 2.48798 1.6745 0
M  V30 7751 H 723.3 1.31724 0.841336 0
M  V30 7752 H 724.035 0.428114 3.21462 0
M  V30 7753 H 723.82 2.20229 3.24409 0
M  V30 7754 H 725.31 1.46874 3.90919 0
M  V30 7755 N 725.747 -0.868086 1.31537 0
M  V30 7756 C 726.993 -1.62367 1.2151 0
M  V30 7757 C 727.326 -1.92883 -0.225819 0
M  V30 7758 O 726.601 -1.56176 -1.15927 0
M  V30 7759 C 726.884 -2.95268 2.06129 0
M  V30 7760 C 726.737 -2.71619 3.58529 0
M  V30 7761 C 728.056 -3.96391 1.91212 0
M  V30 7762 H 725.175 -0.589178 0.442762 0
M  V30 7763 H 727.817 -1.00336 1.61347 0
M  V30 7764 H 725.967 -3.4821 1.72284 0
M  V30 7765 H 727.639 -2.25334 4.0252 0
M  V30 7766 H 725.882 -2.05817 3.81866 0
M  V30 7767 H 726.553 -3.66192 4.13047 0
M  V30 7768 H 729.029 -3.52663 2.20834 0
M  V30 7769 H 727.905 -4.87263 2.52718 0
M  V30 7770 H 728.166 -4.33335 0.875953 0
M  V30 7771 N 727.225 -1.14528 -1.08264 0
M  V30 7772 C 728.45 -0.938381 -1.84957 0
M  V30 7773 C 728.875 0.508044 -1.81109 0
M  V30 7774 O 728.233 1.36146 -1.19724 0
M  V30 7775 C 728.281 -1.44568 -3.30352 0
M  V30 7776 O 727.385 -0.638745 -4.07423 0
M  V30 7777 H 726.726 -0.335394 -0.573068 0
M  V30 7778 H 729.256 -1.52287 -1.36637 0
M  V30 7779 H 729.266 -1.45449 -3.81194 0
M  V30 7780 H 727.941 -2.49876 -3.32468 0
M  V30 7781 H 726.518 -0.698801 -3.66294 0
M  V30 7782 N 728.703 1.26451 -0.940633 0
M  V30 7783 C 729.666 2.24651 -0.454378 0
M  V30 7784 C 730.666 1.54826 0.434222 0
M  V30 7785 O 731.856 1.72628 0.233477 0
M  V30 7786 C 728.988 3.39148 0.345192 0
M  V30 7787 H 730.181 2.69182 -1.32217 0
M  V30 7788 H 727.734 1.38596 -0.722547 0
M  V30 7789 H 728.469 3.00018 1.23125 0
M  V30 7790 H 728.254 3.9101 -0.292107 0
M  V30 7791 H 729.744 4.12103 0.675341 0
M  V30 7792 N 730.181 0.707592 1.40822 0
M  V30 7793 C 731.111 0.0644925 2.33411 0
M  V30 7794 C 732.092 -0.754205 1.52466 0
M  V30 7795 O 733.277 -0.704749 1.80961 0
M  V30 7796 C 730.407 -0.863865 3.36385 0
M  V30 7797 C 729.361 -0.15138 4.27732 0
M  V30 7798 C 728.687 -1.19491 5.21177 0
M  V30 7799 C 729.987 0.989607 5.12839 0
M  V30 7800 H 731.681 0.837829 2.87438 0
M  V30 7801 H 729.227 0.404346 1.38207 0
M  V30 7802 H 731.18 -1.32309 4.0009 0
M  V30 7803 H 729.904 -1.66901 2.80734 0
M  V30 7804 H 728.563 0.287937 3.65467 0
M  V30 7805 H 728.211 -1.9929 4.61836 0
M  V30 7806 H 727.911 -0.723123 5.83134 0
M  V30 7807 H 729.435 -1.6544 5.8776 0
M  V30 7808 H 730.849 0.610114 5.70044 0
M  V30 7809 H 729.246 1.38926 5.83798 0
M  V30 7810 H 730.316 1.82389 4.49291 0
M  V30 7811 N 731.66 -1.50943 0.453197 0
M  V30 7812 C 732.623 -2.26684 -0.338705 0
M  V30 7813 C 733.623 -1.30748 -0.936032 0
M  V30 7814 O 734.813 -1.54327 -0.808002 0
M  V30 7815 C 731.945 -3.07063 -1.48071 0
M  V30 7816 H 733.138 -2.98131 0.325289 0
M  V30 7817 H 730.691 -1.54926 0.206771 0
M  V30 7818 H 731.426 -2.4007 -2.18029 0
M  V30 7819 H 731.211 -3.77545 -1.0584 0
M  V30 7820 H 732.701 -3.64393 -2.0398 0
M  V30 7821 N 733.138 -0.185124 -1.56509 0
M  V30 7822 C 734.085 0.739729 -2.18624 0
M  V30 7823 C 735.055 1.217 -1.13042 0
M  V30 7824 O 736.24 1.28268 -1.41251 0
M  V30 7825 C 733.38 1.95787 -2.84186 0
M  V30 7826 C 732.493 1.52289 -4.04267 0
M  V30 7827 C 731.628 2.69576 -4.57714 0
M  V30 7828 C 730.667 2.22636 -5.70175 0
M  V30 7829 N 729.804 3.33065 -6.18071 0
M  V30 7830 H 734.644 0.203269 -2.97306 0
M  V30 7831 H 732.181 0.0885946 -1.46833 0
M  V30 7832 H 734.139 2.67253 -3.20361 0
M  V30 7833 H 732.769 2.4678 -2.08085 0
M  V30 7834 H 731.821 0.704458 -3.7382 0
M  V30 7835 H 733.133 1.13843 -4.85635 0
M  V30 7836 H 732.287 3.4918 -4.96143 0
M  V30 7837 H 731.026 3.1129 -3.75433 0
M  V30 7838 H 730.031 1.41483 -5.31284 0
M  V30 7839 H 731.256 1.81964 -6.54267 0
M  V30 7840 H 729.202 3.74328 -5.38715 0
M  V30 7841 H 729.119 2.98756 -6.94464 0
M  V30 7842 H 730.387 4.12912 -6.61153 0
M  V30 7843 N 734.616 1.57351 0.0885366 0
M  V30 7844 C 735.863 1.86419 0.790824 0
M  V30 7845 C 736.191 0.774561 1.78412 0
M  V30 7846 O 735.446 -0.23119 1.9433 0
M  V30 7847 C 735.745 3.22098 1.5488 0
M  V30 7848 C 735.411 4.4548 0.697025 0
M  V30 7849 C 734.073 4.78975 0.462237 0
M  V30 7850 C 736.425 5.21094 0.105315 0
M  V30 7851 C 733.753 5.85507 -0.374016 0
M  V30 7852 C 736.105 6.28509 -0.718298 0
M  V30 7853 C 734.769 6.60515 -0.963116 0
M  V30 7854 H 734.039 0.682157 0.289383 0
M  V30 7855 H 736.686 1.91429 0.0520961 0
M  V30 7856 H 734.991 3.12803 2.35927 0
M  V30 7857 H 736.688 3.41819 2.09669 0
M  V30 7858 H 733.278 4.19255 0.890137 0
M  V30 7859 H 737.462 4.95544 0.273856 0
M  V30 7860 H 732.718 6.08713 -0.572606 0
M  V30 7861 H 736.892 6.86268 -1.18362 0
M  V30 7862 H 734.519 7.42893 -1.6129 0
M  V30 7863 N 736.094 -0.359525 1.53444 0
M  V30 7864 C 737.342 -1.09935 1.69584 0
M  V30 7865 C 737.663 -1.89656 0.453371 0
M  V30 7866 O 736.933 -1.8852 -0.53263 0
M  V30 7867 H 735.513 -0.408843 0.625185 0
M  V30 7868 H 738.175 -0.40467 1.90653 0
M  V30 7869 H 737.271 -1.78575 2.55964 0
M  V30 7870 N 737.572 -1.44907 -0.619662 0
M  V30 7871 C 738.535 -1.52282 -1.71297 0
M  V30 7872 C 739.535 -0.40359 -1.55653 0
M  V30 7873 O 740.725 -0.666638 -1.6094 0
M  V30 7874 C 737.857 -1.40778 -3.10474 0
M  V30 7875 H 739.05 -2.49683 -1.66128 0
M  V30 7876 H 736.603 -1.32168 -0.834339 0
M  V30 7877 H 737.338 -0.445156 -3.2123 0
M  V30 7878 H 737.123 -2.21947 -3.23237 0
M  V30 7879 H 738.613 -1.48946 -3.90135 0
M  V30 7880 N 739.05 0.861098 -1.31996 0
M  V30 7881 C 739.982 1.97551 -1.16216 0
M  V30 7882 C 740.995 1.625 -0.0988527 0
M  V30 7883 O 742.184 1.75091 -0.3472 0
M  V30 7884 C 739.284 3.30376 -0.755307 0
M  V30 7885 C 738.457 3.93711 -1.90552 0
M  V30 7886 C 737.516 5.04862 -1.48328 0
M  V30 7887 O 736.542 5.25204 -2.19431 0
M  V30 7888 N 737.744 5.79283 -0.375656 0
M  V30 7889 H 740.509 2.11632 -2.12208 0
M  V30 7890 H 738.07 1.03559 -1.24448 0
M  V30 7891 H 740.062 4.0213 -0.455364 0
M  V30 7892 H 738.632 3.12395 0.113269 0
M  V30 7893 H 737.852 3.14825 -2.37231 0
M  V30 7894 H 739.14 4.32762 -2.67571 0
M  V30 7895 H 738.538 5.65286 0.216284 0
M  V30 7896 H 737.095 6.5166 -0.135289 0
M  V30 7897 N 740.528 1.15101 1.07655 0
M  V30 7898 C 741.476 0.840714 2.16875 0
M  V30 7899 C 742.47 -0.184594 1.68391 0
M  V30 7900 O 743.676 -0.0399315 1.79956 0
M  V30 7901 H 740.051 0.254192 0.707736 0
M  V30 7902 H 742.022 1.76959 2.40266 0
M  V30 7903 C 740.771 0.343018 3.46004 0
M  V30 7904 H 740.094 1.12335 3.83694 0
M  V30 7905 H 741.534 0.16453 4.23681 0
M  V30 7906 C 739.993 -0.934881 3.23669 0
M  V30 7907 O 740.523 -2.00706 3.47965 0
M  V30 7908 N 738.729 -0.873167 2.77172 0
M  V30 7909 H 738.276 -0.000479072 2.576 0
M  V30 7910 H 738.234 -1.72873 2.62607 0
M  V30 7911 N 742.006 -1.2595 0.947325 0
M  V30 7912 C 742.916 -2.29883 0.468079 0
M  V30 7913 C 743.932 -1.67783 -0.460975 0
M  V30 7914 O 745.108 -1.98526 -0.339006 0
M  V30 7915 C 742.173 -3.45773 -0.253315 0
M  V30 7916 C 741.234 -4.23337 0.713054 0
M  V30 7917 C 740.467 -5.33694 0.025993 0
M  V30 7918 O 740.69 -5.57853 -1.18978 0
M  V30 7919 O 739.624 -5.97724 0.70782 0
M  V30 7920 H 743.45 -2.72952 1.33156 0
M  V30 7921 H 741.035 -1.31263 0.713468 0
M  V30 7922 H 742.917 -4.16209 -0.659423 0
M  V30 7923 H 741.592 -3.04721 -1.09209 0
M  V30 7924 H 740.499 -3.55359 1.16923 0
M  V30 7925 H 741.832 -4.68154 1.51963 0
M  V30 7926 N 743.484 -0.715051 -1.40445 0
M  V30 7927 C 744.394 -0.0631624 -2.34515 0
M  V30 7928 C 745.41 0.744397 -1.57273 0
M  V30 7929 O 746.586 0.677475 -1.89663 0
M  V30 7930 C 743.651 0.847915 -3.36172 0
M  V30 7931 C 742.712 0.0303655 -4.29289 0
M  V30 7932 C 741.945 0.898051 -5.2609 0
M  V30 7933 O 742.168 2.13729 -5.28844 0
M  V30 7934 O 741.102 0.337328 -6.00954 0
M  V30 7935 H 744.928 -0.839078 -2.91879 0
M  V30 7936 H 742.513 -0.475527 -1.4163 0
M  V30 7937 H 744.395 1.3698 -3.98515 0
M  V30 7938 H 743.07 1.60299 -2.81222 0
M  V30 7939 H 741.977 -0.536573 -3.70232 0
M  V30 7940 H 743.31 -0.686474 -4.87389 0
M  V30 7941 N 744.962 1.50701 -0.461195 0
M  V30 7942 C 745.895 2.24948 0.383863 0
M  V30 7943 C 746.873 1.27851 1.00464 0
M  V30 7944 O 748.057 1.57049 1.04249 0
M  V30 7945 C 745.184 3.01818 1.537 0
M  V30 7946 C 744.23 4.13762 1.03457 0
M  V30 7947 S 745.063 5.35483 -0.0427485 0
M  V30 7948 C 746.219 6.15898 1.11449 0
M  V30 7949 H 746.452 2.96277 -0.246425 0
M  V30 7950 H 743.985 1.52428 -0.245961 0
M  V30 7951 H 745.943 3.467 2.19794 0
M  V30 7952 H 744.604 2.30034 2.13877 0
M  V30 7953 H 743.797 4.66914 1.89757 0
M  V30 7954 H 743.399 3.71265 0.4515 0
M  V30 7955 H 745.691 6.46431 2.02813 0
M  V30 7956 H 746.634 7.05359 0.622444 0
M  V30 7957 H 747.042 5.47777 1.36385 0
M  V30 7958 N 746.441 0.193421 1.56409 0
M  V30 7959 C 747.371 -0.723334 2.22014 0
M  V30 7960 C 748.352 -1.22254 1.1827 0
M  V30 7961 O 749.537 -1.27168 1.46771 0
M  V30 7962 C 746.667 -1.94366 2.87818 0
M  V30 7963 C 745.621 -1.57943 3.97791 0
M  V30 7964 C 744.947 -2.87623 4.50752 0
M  V30 7965 C 746.247 -0.790639 5.16281 0
M  V30 7966 H 747.941 -0.176426 2.9888 0
M  V30 7967 H 745.487 -0.0834166 1.43758 0
M  V30 7968 H 747.44 -2.5902 3.32396 0
M  V30 7969 H 746.164 -2.51507 2.08355 0
M  V30 7970 H 744.823 -0.956482 3.53903 0
M  V30 7971 H 744.471 -3.4285 3.68053 0
M  V30 7972 H 744.171 -2.63998 5.24956 0
M  V30 7973 H 745.695 -3.53268 4.9803 0
M  V30 7974 H 747.109 -1.34024 5.57414 0
M  V30 7975 H 745.506 -0.65258 5.96541 0
M  V30 7976 H 746.576 0.208633 4.84451 0
M  V30 7977 N 747.919 -1.57396 -0.0801906 0
M  V30 7978 C 749.33 -1.75642 -0.633002 0
M  V30 7979 C 749.681 -0.817708 -1.78348 0
M  V30 7980 O 748.806 0.000233743 -2.164 0
M  V30 7981 C 749.401 -3.18502 -1.15507 0
M  V30 7982 C 747.96 -3.38121 -1.65381 0
M  V30 7983 C 747.107 -2.71386 -0.569661 0
M  V30 7984 H 750.058 -1.58027 0.145949 0
M  V30 7985 H 750.079 -3.22198 -2.02408 0
M  V30 7986 H 749.591 -3.86799 -0.317515 0
M  V30 7987 H 747.692 -2.74926 -2.51488 0
M  V30 7988 H 747.805 -4.46521 -1.73654 0
M  V30 7989 H 746.169 -2.33702 -1.0127 0
M  V30 7990 H 746.952 -3.42332 0.257561 0
M  V30 7991 N 749.397 0.351382 -1.53633 0
M  V30 7992 C 750.622 1.11718 -1.74739 0
M  V30 7993 C 751.047 1.81829 -0.481657 0
M  V30 7994 O 750.405 1.72264 0.565233 0
M  V30 7995 C 750.453 2.11234 -2.92254 0
M  V30 7996 O 749.557 3.186 -2.61855 0
M  V30 7997 H 748.898 0.323482 -0.579875 0
M  V30 7998 H 751.428 0.404167 -2.00568 0
M  V30 7999 H 751.438 2.54591 -3.18822 0
M  V30 8000 H 750.113 1.59599 -3.84058 0
M  V30 8001 H 748.69 2.80115 -2.4615 0
M  V30 8002 N 750.875 1.45233 0.611969 0
M  V30 8003 C 752.124 1.48296 1.36716 0
M  V30 8004 C 752.437 0.12706 1.95187 0
M  V30 8005 O 753.643 0.0353066 2.71477 0
M  V30 8006 C 752.099 2.61168 2.47627 0
M  V30 8007 C 751.707 4.03051 1.95587 0
M  V30 8008 C 753.451 2.73472 3.24674 0
M  V30 8009 C 751.358 5.07312 3.03954 0
M  V30 8010 H 750.288 0.5518 0.513841 0
M  V30 8011 H 752.939 1.7136 0.656359 0
M  V30 8012 H 751.321 2.31379 3.21372 0
M  V30 8013 H 752.495 4.42497 1.2858 0
M  V30 8014 H 750.81 3.95158 1.31298 0
M  V30 8015 H 753.407 3.48537 4.05494 0
M  V30 8016 H 753.75 1.79953 3.75397 0
M  V30 8017 H 754.283 3.02765 2.58028 0
M  V30 8018 H 751.022 6.02525 2.58154 0
M  V30 8019 H 750.542 4.7244 3.69541 0
M  V30 8020 H 752.221 5.31867 3.6841 0
M  V30 8021 N 752.353 -0.854086 1.3245 0
M  V30 8022 C 753.283 -1.97827 1.24044 0
M  V30 8023 C 754.264 -1.69646 0.124166 0
M  V30 8024 O 755.449 -1.91687 0.31143 0
M  V30 8025 C 752.579 -3.33673 0.963324 0
M  V30 8026 C 751.533 -3.76207 2.04089 0
M  V30 8027 C 750.859 -5.0969 1.61618 0
M  V30 8028 C 752.159 -3.91612 3.45597 0
M  V30 8029 H 753.853 -2.05118 2.18099 0
M  V30 8030 H 751.399 -0.985489 1.04996 0
M  V30 8031 H 753.352 -4.11871 0.891061 0
M  V30 8032 H 752.076 -3.26597 -0.0128649 0
M  V30 8033 H 750.735 -3.0026 2.10332 0
M  V30 8034 H 750.383 -4.99072 0.627418 0
M  V30 8035 H 750.083 -5.3912 2.33717 0
M  V30 8036 H 751.607 -5.90381 1.55829 0
M  V30 8037 H 753.021 -4.60163 3.4194 0
M  V30 8038 H 751.418 -4.3246 4.16051 0
M  V30 8039 H 752.488 -2.9451 3.85217 0
M  V30 8040 N 753.831 -1.1567 -1.07043 0
M  V30 8041 C 755.077 -0.9349 -1.79965 0
M  V30 8042 C 755.41 0.536464 -1.86643 0
M  V30 8043 O 754.685 1.39781 -1.35247 0
M  V30 8044 C 754.968 -1.55371 -3.24857 0
M  V30 8045 C 754.821 -3.09589 -3.26305 0
M  V30 8046 C 756.14 -1.24209 -4.22209 0
M  V30 8047 H 753.259 -0.341061 -0.653335 0
M  V30 8048 H 755.901 -1.42883 -1.25237 0
M  V30 8049 H 754.051 -1.13368 -3.71591 0
M  V30 8050 H 755.723 -3.60521 -2.87789 0
M  V30 8051 H 753.966 -3.43315 -2.65174 0
M  V30 8052 H 754.637 -3.48002 -4.28484 0
M  V30 8053 H 757.113 -1.60548 -3.8388 0
M  V30 8054 H 755.989 -1.70119 -5.21872 0
M  V30 8055 H 756.25 -0.15964 -4.41812 0
M  V30 8056 N 755.309 1.25446 -0.953992 0
M  V30 8057 C 756.239 2.28264 -0.491717 0
M  V30 8058 C 757.22 1.63717 0.461617 0
M  V30 8059 O 758.405 1.90821 0.36071 0
M  V30 8060 C 755.535 3.46525 0.231915 0
M  V30 8061 C 754.489 4.23247 -0.636098 0
M  V30 8062 C 753.815 5.34254 0.218238 0
M  V30 8063 C 755.115 4.85971 -1.91389 0
M  V30 8064 H 756.809 2.67183 -1.35106 0
M  V30 8065 H 754.355 1.2844 -0.651095 0
M  V30 8066 H 756.308 4.17576 0.566439 0
M  V30 8067 H 755.032 3.06594 1.12551 0
M  V30 8068 H 753.691 3.53978 -0.953696 0
M  V30 8069 H 753.339 4.90564 1.11156 0
M  V30 8070 H 753.039 5.86501 -0.359232 0
M  V30 8071 H 754.563 6.08138 0.547743 0
M  V30 8072 H 755.977 5.49168 -1.64581 0
M  V30 8073 H 754.374 5.48391 -2.43696 0
M  V30 8074 H 755.444 4.08192 -2.61738 0
M  V30 8075 N 756.787 0.722489 1.40064 0
M  V30 8076 C 757.717 0.0892452 2.33329 0
M  V30 8077 C 758.698 -0.737992 1.53257 0
M  V30 8078 O 759.883 -0.685516 1.81698 0
M  V30 8079 C 757.013 -0.828139 3.37282 0
M  V30 8080 C 755.967 -0.106005 4.27869 0
M  V30 8081 C 755.293 -1.13957 5.22415 0
M  V30 8082 C 756.593 1.04395 5.11761 0
M  V30 8083 H 758.287 0.868269 2.86534 0
M  V30 8084 H 755.833 0.418982 1.3777 0
M  V30 8085 H 757.786 -1.28058 4.01471 0
M  V30 8086 H 756.51 -1.63914 2.82489 0
M  V30 8087 H 755.169 0.326683 3.65142 0
M  V30 8088 H 754.817 -1.9438 4.63924 0
M  V30 8089 H 754.517 -0.661233 5.83868 0
M  V30 8090 H 756.041 -1.59197 5.89482 0
M  V30 8091 H 757.455 0.670541 5.69365 0
M  V30 8092 H 755.852 1.4511 5.82291 0
M  V30 8093 H 756.922 1.87144 4.47331 0
M  V30 8094 N 758.265 -1.50454 0.469181 0
M  V30 8095 C 759.212 -2.28486 -0.325982 0
M  V30 8096 C 760.182 -1.33455 -0.988893 0
M  V30 8097 O 761.367 -1.6239 -1.0017 0
M  V30 8098 C 758.507 -3.15288 -1.40313 0
M  V30 8099 C 757.62 -4.25348 -0.755183 0
M  V30 8100 C 756.755 -4.9941 -1.81006 0
M  V30 8101 C 755.794 -6.01348 -1.14226 0
M  V30 8102 N 754.931 -6.68695 -2.1399 0
M  V30 8103 H 759.771 -2.95987 0.345753 0
M  V30 8104 H 757.308 -1.45965 0.182355 0
M  V30 8105 H 759.266 -3.63964 -2.03927 0
M  V30 8106 H 757.896 -2.49837 -2.04405 0
M  V30 8107 H 756.948 -3.80399 -0.00651901 0
M  V30 8108 H 758.26 -4.98279 -0.227941 0
M  V30 8109 H 757.414 -5.51794 -2.52206 0
M  V30 8110 H 756.153 -4.26181 -2.3711 0
M  V30 8111 H 755.158 -5.48225 -0.415876 0
M  V30 8112 H 756.383 -6.76548 -0.588135 0
M  V30 8113 H 754.329 -5.98258 -2.69115 0
M  V30 8114 H 754.246 -7.37495 -1.66246 0
M  V30 8115 H 755.514 -7.25697 -2.84576 0
M  V30 8116 N 759.743 -0.201713 -1.56304 0
M  V30 8117 C 761.159 0.154025 -1.58855 0
M  V30 8118 C 761.359 1.60516 -1.21807 0
M  V30 8119 O 760.415 2.34193 -0.94393 0
M  V30 8120 C 761.728 -0.154319 -3.00304 0
M  V30 8121 C 763.276 -0.0949578 -3.12856 0
M  V30 8122 C 763.751 -0.376703 -4.56448 0
M  V30 8123 N 765.242 -0.325558 -4.62054 0
M  V30 8124 C 765.977 -0.51732 -5.71062 0
M  V30 8125 N 765.473 -0.769789 -6.8851 0
M  V30 8126 N 767.266 -0.45112 -5.60287 0
M  V30 8127 H 759.417 -1.14858 -1.78666 0
M  V30 8128 H 761.68 -0.458934 -0.829508 0
M  V30 8129 H 761.386 -1.16074 -3.31994 0
M  V30 8130 H 761.26 0.540014 -3.73314 0
M  V30 8131 H 763.647 0.902075 -2.80974 0
M  V30 8132 H 763.728 -0.822468 -2.42217 0
M  V30 8133 H 763.372 -1.37108 -4.89044 0
M  V30 8134 H 763.302 0.371772 -5.25286 0
M  V30 8135 H 765.793 -0.137308 -3.7765 0
M  V30 8136 H 766.106 -0.904744 -7.67486 0
M  V30 8137 H 764.451 -0.806758 -6.90302 0
M  V30 8138 H 767.642 -0.254253 -4.67409 0
M  V30 8139 H 767.815 -0.603982 -6.45179 0
M  V30 8140 N 761.222 1.57436 0.0718424 0
M  V30 8141 C 762.462 1.89082 0.776351 0
M  V30 8142 C 762.826 0.795494 1.74745 0
M  V30 8143 O 764.027 0.995025 2.49705 0
M  V30 8144 C 762.298 3.25958 1.46582 0
M  V30 8145 S 763.857 3.79352 2.2054 0
M  V30 8146 H 760.675 0.662472 0.25817 0
M  V30 8147 H 763.277 1.95473 0.0324536 0
M  V30 8148 H 761.981 4.03577 0.745237 0
M  V30 8149 H 761.512 3.22764 2.24915 0
M  V30 8150 H 763.527 3.54634 3.47058 0
M  V30 8151 N 762.7 -0.34323 1.53817 0
M  V30 8152 C 763.946 -1.08504 1.71332 0
M  V30 8153 C 764.279 -1.88294 0.475285 0
M  V30 8154 O 763.554 -1.87205 -0.527688 0
M  V30 8155 C 763.837 -2.02597 2.97702 0
M  V30 8156 C 763.69 -1.26268 4.31713 0
M  V30 8157 C 765.009 -3.0241 3.19744 0
M  V30 8158 H 762.128 -0.393072 0.623429 0
M  V30 8159 H 764.77 -0.363579 1.86489 0
M  V30 8160 H 762.92 -2.64118 2.8491 0
M  V30 8161 H 764.592 -0.673594 4.56356 0
M  V30 8162 H 762.835 -0.564696 4.30109 0
M  V30 8163 H 763.506 -1.95253 5.16314 0
M  V30 8164 H 765.982 -2.51004 3.31868 0
M  V30 8165 H 764.858 -3.65449 4.09558 0
M  V30 8166 H 765.119 -3.73806 2.36054 0
M  V30 8167 N 764.178 -1.45556 -0.604258 0
M  V30 8168 C 765.111 -1.48975 -1.72863 0
M  V30 8169 C 766.089 -0.345803 -1.5888 0
M  V30 8170 O 767.273 -0.546796 -1.80395 0
M  V30 8171 C 764.4 -1.34794 -3.10722 0
M  V30 8172 C 763.446 -2.53096 -3.43285 0
M  V30 8173 S 764.279 -4.15551 -3.37754 0
M  V30 8174 C 765.435 -4.03842 -4.78187 0
M  V30 8175 H 765.668 -2.44108 -1.69701 0
M  V30 8176 H 763.201 -1.33179 -0.781194 0
M  V30 8177 H 765.159 -1.273 -3.90263 0
M  V30 8178 H 763.82 -0.411254 -3.11396 0
M  V30 8179 H 763.013 -2.39109 -4.4367 0
M  V30 8180 H 762.615 -2.57469 -2.71267 0
M  V30 8181 H 764.907 -3.69191 -5.6807 0
M  V30 8182 H 765.85 -5.0415 -4.97231 0
M  V30 8183 H 766.258 -3.35443 -4.54025 0
M  V30 8184 N 765.656 0.84705 -1.32902 0
M  V30 8185 C 766.933 1.58583 -1.14503 0
M  V30 8186 C 767.313 2.09075 0.291724 0
M  V30 8187 O 766.661 1.88636 1.28952 0
M  V30 8188 C 766.871 2.72605 -2.17916 0
M  V30 8189 C 768.219 3.41993 -2.51646 0
M  V30 8190 O 769.243 2.82838 -2.1652 0
M  V30 8191 O 768.102 4.48761 -3.1189 0
M  V30 8192 H 765.196 0.698756 -0.442345 0
M  V30 8193 H 767.742 0.890516 -1.44457 0
M  V30 8194 H 766.514 2.32876 -3.14459 0
M  V30 8195 H 766.137 3.49807 -1.89 0
M  V30 8196 N 767.134 1.16236 1.06428 0
M  V30 8197 C 768.411 0.853294 1.76006 0
M  V30 8198 C 768.791 -0.649162 2.00871 0
M  V30 8199 O 768.139 -1.59653 1.63472 0
M  V30 8200 C 768.349 1.67448 3.06206 0
M  V30 8201 C 769.697 1.8866 3.80385 0
M  V30 8202 O 770.721 1.64303 3.16043 0
M  V30 8203 O 769.58 2.29518 4.95968 0
M  V30 8204 H 766.674 0.314737 0.764767 0
M  V30 8205 H 769.22 1.26865 1.12709 0
M  V30 8206 H 767.992 2.69411 2.83784 0
M  V30 8207 H 767.615 1.25608 3.77238 0
M  V30 8208 N 768.612 -1.24939 0.960631 0
M  V30 8209 C 769.889 -1.88118 0.535807 0
M  V30 8210 C 770.269 -1.86605 -0.987009 0
M  V30 8211 O 769.617 -1.33375 -1.85536 0
M  V30 8212 C 769.827 -3.30565 1.11927 0
M  V30 8213 C 771.175 -4.07296 1.19981 0
M  V30 8214 O 772.199 -3.39709 1.07126 0
M  V30 8215 O 771.058 -5.28206 1.40218 0
M  V30 8216 H 768.152 -0.807698 0.177631 0
M  V30 8217 H 770.698 -1.32964 1.05445 0
M  V30 8218 H 769.47 -3.26128 2.16231 0
M  V30 8219 H 769.093 -3.93284 0.584245 0
M  V30 8220 N 770.09 -0.729906 -1.39679 0
M  V30 8221 C 771.038 -0.0756589 -2.32477 0
M  V30 8222 C 772.032 0.731438 -1.52795 0
M  V30 8223 O 773.238 0.633195 -1.68495 0
M  V30 8224 H 769.613 -0.00566492 -0.751979 0
M  V30 8225 H 771.584 -0.874797 -2.85289 0
M  V30 8226 C 770.333 0.821313 -3.37861 0
M  V30 8227 H 769.656 0.209666 -3.9925 0
M  V30 8228 H 771.096 1.24679 -4.05254 0
M  V30 8229 C 769.555 1.9533 -2.74495 0
M  V30 8230 O 770.085 3.04548 -2.61942 0
M  V30 8231 N 768.291 1.74119 -2.3266 0
M  V30 8232 H 767.838 0.852908 -2.4307 0
M  V30 8233 H 767.796 2.50036 -1.90603 0
M  V30 8234 N 771.568 1.50203 -0.477153 0
M  V30 8235 C 772.478 2.32421 0.319027 0
M  V30 8236 C 773.494 1.43075 0.990233 0
M  V30 8237 O 774.67 1.76123 0.976873 0
M  V30 8238 C 771.735 3.17909 1.38328 0
M  V30 8239 C 770.796 4.23082 0.728036 0
M  V30 8240 C 770.029 5.04484 1.74158 0
M  V30 8241 O 770.252 4.8705 2.96881 0
M  V30 8242 O 769.186 5.8747 1.31006 0
M  V30 8243 H 773.012 3.01638 -0.353281 0
M  V30 8244 H 770.597 1.47478 -0.238891 0
M  V30 8245 H 772.479 3.70937 1.9996 0
M  V30 8246 H 771.154 2.51413 2.03895 0
M  V30 8247 H 770.061 3.7403 0.07261 0
M  V30 8248 H 771.394 4.92065 0.115216 0
M  V30 8249 N 773.046 0.209999 1.56195 0
M  V30 8250 C 774.292 -0.425442 1.98287 0
M  V30 8251 C 774.625 -1.60232 1.09724 0
M  V30 8252 O 773.9 -1.93902 0.152414 0
M  V30 8253 C 774.183 -0.871189 3.49403 0
M  V30 8254 C 774.036 0.308527 4.48741 0
M  V30 8255 C 775.355 -1.73146 4.04609 0
M  V30 8256 H 772.474 -0.153169 0.720908 0
M  V30 8257 H 775.116 0.303916 1.87554 0
M  V30 8258 H 773.266 -1.49266 3.58681 0
M  V30 8259 H 774.938 0.946487 4.51486 0
M  V30 8260 H 773.181 0.957878 4.23092 0
M  V30 8261 H 773.852 -0.0461143 5.51981 0
M  V30 8262 H 776.328 -1.2072 3.98203 0
M  V30 8263 H 775.204 -2.01228 5.10684 0
M  V30 8264 H 775.465 -2.69083 3.5078 0
M  V30 8265 N 774.524 -1.57472 -0.0634922 0
M  V30 8266 C 775.94 -1.54016 -0.418466 0
M  V30 8267 C 776.14 -0.931376 -1.78683 0
M  V30 8268 O 775.196 -0.537465 -2.46714 0
M  V30 8269 C 776.509 -2.98634 -0.351906 0
M  V30 8270 C 778.057 -3.10012 -0.431494 0
M  V30 8271 C 778.532 -4.56296 -0.394754 0
M  V30 8272 N 780.023 -4.60964 -0.454583 0
M  V30 8273 C 780.758 -5.71643 -0.448501 0
M  V30 8274 N 780.254 -6.91663 -0.396742 0
M  V30 8275 N 782.047 -5.5991 -0.495677 0
M  V30 8276 H 774.198 -1.95409 0.832408 0
M  V30 8277 H 776.461 -0.894769 0.313197 0
M  V30 8278 H 776.167 -3.46766 0.587048 0
M  V30 8279 H 776.041 -3.58955 -1.15893 0
M  V30 8280 H 778.428 -2.61848 -1.36087 0
M  V30 8281 H 778.509 -2.52585 0.404258 0
M  V30 8282 H 778.153 -5.05119 0.530811 0
M  V30 8283 H 778.083 -5.11594 -1.24815 0
M  V30 8284 H 780.574 -3.74598 -0.498496 0
M  V30 8285 H 780.887 -7.71783 -0.396256 0
M  V30 8286 H 779.232 -6.9405 -0.363304 0
M  V30 8287 H 782.423 -4.65046 -0.533864 0
M  V30 8288 H 782.596 -6.46164 -0.487469 0
M  V30 8289 N 776.003 0.335068 -1.53997 0
M  V30 8290 C 777.28 1.09188 -1.62288 0
M  V30 8291 C 777.66 2.0626 -0.449458 0
M  V30 8292 O 777.008 2.21596 0.557444 0
M  V30 8293 C 777.218 1.80403 -2.98757 0
M  V30 8294 C 778.566 2.33841 -3.54406 0
M  V30 8295 O 779.59 1.90487 -3.00987 0
M  V30 8296 O 778.449 3.1318 -4.47862 0
M  V30 8297 H 775.543 0.502621 -0.656736 0
M  V30 8298 H 778.089 0.33588 -1.66343 0
M  V30 8299 H 776.861 1.09732 -3.75599 0
M  V30 8300 H 776.484 2.62841 -2.9833 0
M  V30 8301 N 777.481 1.45874 0.596531 0
M  V30 8302 C 778.897 1.30524 0.918459 0
M  V30 8303 C 779.097 0.266429 1.99731 0
M  V30 8304 O 778.153 -0.335809 2.50257 0
M  V30 8305 C 779.466 2.68747 1.3489 0
M  V30 8306 C 781.014 2.7673 1.46251 0
M  V30 8307 C 781.489 4.15504 1.92667 0
M  V30 8308 N 782.98 4.17853 1.99883 0
M  V30 8309 C 783.715 5.22109 2.37044 0
M  V30 8310 N 783.211 6.36704 2.73094 0
M  V30 8311 N 785.004 5.09471 2.37479 0
M  V30 8312 H 777.155 2.12081 -0.116368 0
M  V30 8313 H 779.418 0.947941 0.0106033 0
M  V30 8314 H 779.124 3.46006 0.630288 0
M  V30 8315 H 778.998 2.97942 2.31323 0
M  V30 8316 H 781.385 1.99768 2.17202 0
M  V30 8317 H 781.466 2.51236 0.481054 0
M  V30 8318 H 781.11 4.92956 1.223 0
M  V30 8319 H 781.04 4.38396 2.91747 0
M  V30 8320 H 783.531 3.35163 1.74568 0
M  V30 8321 H 783.844 7.12041 3.00362 0
M  V30 8322 H 782.189 6.40087 2.70764 0
M  V30 8323 H 785.38 4.18987 2.08728 0
M  V30 8324 H 785.553 5.90837 2.66112 0
M  V30 8325 N 778.959 -0.83999 1.33349 0
M  V30 8326 C 779.922 -1.93128 1.23426 0
M  V30 8327 C 780.922 -1.60065 0.153599 0
M  V30 8328 O 782.112 -1.69425 0.405049 0
M  V30 8329 C 779.244 -3.28761 0.901622 0
M  V30 8330 H 780.437 -2.03352 2.20427 0
M  V30 8331 H 777.99 -1.03194 1.17391 0
M  V30 8332 H 778.725 -3.24233 -0.0659337 0
M  V30 8333 H 778.51 -3.54138 1.68311 0
M  V30 8334 H 780 -4.08714 0.856913 0
M  V30 8335 N 780.437 -1.16799 -1.0581 0
M  V30 8336 C 781.665 -0.97687 -1.82387 0
M  V30 8337 C 782.08 0.474917 -1.82729 0
M  V30 8338 O 781.437 1.3297 -1.25001 0
M  V30 8339 C 781.488 -1.50279 -3.28783 0
M  V30 8340 O 781.209 -2.89772 -3.28578 0
M  V30 8341 C 782.71 -1.35538 -4.22071 0
M  V30 8342 H 779.93 -0.345977 -0.574927 0
M  V30 8343 H 782.474 -1.54942 -1.33466 0
M  V30 8344 H 780.629 -0.972414 -3.74997 0
M  V30 8345 H 781.043 -3.13954 -4.20159 0
M  V30 8346 H 782.517 -1.7716 -5.22799 0
M  V30 8347 H 782.994 -0.301598 -4.38163 0
M  V30 8348 H 783.6 -1.87562 -3.81708 0
M  V30 8349 N 781.915 1.24427 -0.967243 0
M  V30 8350 C 783.162 1.92487 -0.62888 0
M  V30 8351 C 783.49 1.75623 0.835871 0
M  V30 8352 O 782.745 1.1027 1.61675 0
M  V30 8353 C 783.044 3.44568 -0.949096 0
M  V30 8354 C 782.71 3.816 -2.40192 0
M  V30 8355 C 781.372 3.9142 -2.799 0
M  V30 8356 C 783.724 3.99715 -3.34481 0
M  V30 8357 C 781.052 4.16771 -4.12939 0
M  V30 8358 C 783.404 4.26562 -4.67148 0
M  V30 8359 C 782.068 4.34601 -5.06634 0
M  V30 8360 H 781.338 0.704361 -0.230124 0
M  V30 8361 H 783.985 1.4772 -1.21864 0
M  V30 8362 H 782.29 3.90819 -0.277085 0
M  V30 8363 H 783.987 3.95436 -0.665692 0
M  V30 8364 H 780.577 3.74522 -2.08402 0
M  V30 8365 H 784.761 3.91531 -3.04987 0
M  V30 8366 H 780.017 4.21214 -4.43158 0
M  V30 8367 H 784.191 4.39523 -5.40178 0
M  V30 8368 H 781.818 4.53998 -6.09746 0
M  V30 8369 N 783.393 0.737304 1.3929 0
M  V30 8370 C 784.623 0.296143 2.04467 0
M  V30 8371 C 785.031 -1.0748 1.55707 0
M  V30 8372 O 784.374 -1.69082 0.718123 0
M  V30 8373 C 784.436 0.222161 3.58813 0
M  V30 8374 C 784.1 1.53195 4.30558 0
M  V30 8375 C 785.097 2.47809 4.57041 0
M  V30 8376 C 782.782 1.79688 4.6906 0
M  V30 8377 C 784.776 3.67147 5.21039 0
M  V30 8378 C 782.463 2.99304 5.32785 0
M  V30 8379 C 783.461 3.92855 5.58708 0
M  V30 8380 O 783.149 5.1037 6.2111 0
M  V30 8381 H 782.881 0.126896 0.663983 0
M  V30 8382 H 785.435 1.00242 1.79278 0
M  V30 8383 H 783.665 -0.540239 3.82908 0
M  V30 8384 H 785.354 -0.187311 4.05468 0
M  V30 8385 H 786.12 2.28611 4.2774 0
M  V30 8386 H 781.999 1.07716 4.48239 0
M  V30 8387 H 785.543 4.40183 5.41188 0
M  V30 8388 H 781.44 3.18401 5.61508 0
M  V30 8389 H 782.208 5.10735 6.39603 0
M  V30 8390 N 784.871 -1.49948 0.485112 0
M  V30 8391 C 785.801 -2.31675 -0.291364 0
M  V30 8392 C 786.782 -1.39216 -0.977383 0
M  V30 8393 O 787.967 -1.68133 -0.971855 0
M  V30 8394 C 785.097 -3.19326 -1.36558 0
M  V30 8395 C 784.051 -4.2045 -0.800359 0
M  V30 8396 C 783.377 -4.96931 -1.97391 0
M  V30 8397 C 784.677 -5.21925 0.197867 0
M  V30 8398 H 786.371 -2.96839 0.390775 0
M  V30 8399 H 783.917 -1.42749 0.189375 0
M  V30 8400 H 785.87 -3.75304 -1.91638 0
M  V30 8401 H 784.594 -2.52074 -2.07668 0
M  V30 8402 H 783.253 -3.65594 -0.271428 0
M  V30 8403 H 782.901 -4.26141 -2.67232 0
M  V30 8404 H 782.601 -5.65344 -1.60187 0
M  V30 8405 H 784.125 -5.55749 -2.52935 0
M  V30 8406 H 785.539 -5.72691 -0.264239 0
M  V30 8407 H 783.936 -5.98138 0.484908 0
M  V30 8408 H 785.006 -4.71809 1.11912 0
M  V30 8409 N 786.349 -0.21828 -1.56081 0
M  V30 8410 C 787.297 0.709679 -2.21509 0
M  V30 8411 C 788.291 1.20221 -1.19346 0
M  V30 8412 O 789.497 1.16241 -1.37433 0
M  V30 8413 H 785.872 0.247271 -0.710184 0
M  V30 8414 H 787.843 0.134386 -2.98097 0
M  V30 8415 C 786.592 1.90853 -2.90638 0
M  V30 8416 H 785.915 1.53865 -3.69006 0
M  V30 8417 H 787.355 2.53568 -3.39822 0
M  V30 8418 C 785.814 2.76189 -1.92929 0
M  V30 8419 O 786.344 3.74842 -1.44416 0
M  V30 8420 N 784.55 2.42157 -1.6065 0
M  V30 8421 H 784.097 1.61987 -2.00294 0
M  V30 8422 H 784.055 2.99534 -0.955347 0
M  V30 8423 N 787.827 1.57504 0.0551401 0
M  V30 8424 C 789.073 1.88334 0.752216 0
M  V30 8425 C 789.406 0.812742 1.76375 0
M  V30 8426 O 788.681 -0.175198 1.93709 0
M  V30 8427 C 788.964 3.29824 1.44528 0
M  V30 8428 C 788.817 4.47553 0.449026 0
M  V30 8429 C 790.136 3.69808 2.38601 0
M  V30 8430 H 787.255 0.684973 0.271995 0
M  V30 8431 H 789.897 1.89994 0.0151895 0
M  V30 8432 H 788.047 3.28539 2.07351 0
M  V30 8433 H 789.719 4.60967 -0.175277 0
M  V30 8434 H 787.962 4.33168 -0.234162 0
M  V30 8435 H 788.633 5.43376 0.971917 0
M  V30 8436 H 791.109 3.72293 1.85842 0
M  V30 8437 H 789.985 4.69665 2.84088 0
M  V30 8438 H 790.246 3.00641 3.24141 0
M  V30 8439 N 789.305 -0.326896 1.54172 0
M  V30 8440 C 790.235 -1.40741 1.86317 0
M  V30 8441 C 791.216 -1.54125 0.719684 0
M  V30 8442 O 792.401 -1.6806 0.973117 0
M  V30 8443 C 789.531 -2.77557 2.08757 0
M  V30 8444 C 788.485 -2.78965 3.24596 0
M  V30 8445 C 787.811 -4.18824 3.32401 0
M  V30 8446 C 789.111 -2.4301 4.62324 0
M  V30 8447 H 790.805 -1.14088 2.76811 0
M  V30 8448 H 788.351 -0.547389 1.3319 0
M  V30 8449 H 790.304 -3.53209 2.29829 0
M  V30 8450 H 789.028 -3.0568 1.15009 0
M  V30 8451 H 787.687 -2.05767 3.03406 0
M  V30 8452 H 787.335 -4.44083 2.36218 0
M  V30 8453 H 787.035 -4.20673 4.10253 0
M  V30 8454 H 788.559 -4.96294 3.55703 0
M  V30 8455 H 789.973 -3.08375 4.83299 0
M  V30 8456 H 788.37 -2.56116 5.42701 0
M  V30 8457 H 789.44 -1.38165 4.64799 0
M  V30 8458 N 790.784 -1.46188 -0.588786 0
M  V30 8459 C 791.694 -1.58865 -1.72624 0
M  V30 8460 C 792.71 -0.472348 -1.67466 0
M  V30 8461 O 793.886 -0.735638 -1.87484 0
M  V30 8462 C 790.951 -1.56989 -3.0912 0
M  V30 8463 C 790.012 -2.79804 -3.25589 0
M  V30 8464 C 789.245 -2.78009 -4.55573 0
M  V30 8465 O 789.468 -1.86406 -5.39082 0
M  V30 8466 O 788.402 -3.6947 -4.75159 0
M  V30 8467 H 792.228 -2.55047 -1.64878 0
M  V30 8468 H 789.813 -1.28912 -0.755115 0
M  V30 8469 H 791.695 -1.58618 -3.90408 0
M  V30 8470 H 790.37 -0.639648 -3.17317 0
M  V30 8471 H 789.277 -2.83732 -2.43818 0
M  V30 8472 H 790.61 -3.72017 -3.22279 0
M  V30 8473 N 792.262 0.832906 -1.33792 0
M  V30 8474 C 793.194 1.95042 -1.2038 0
M  V30 8475 C 794.207 1.62253 -0.133299 0
M  V30 8476 O 795.396 1.74315 -0.384261 0
M  V30 8477 C 792.496 3.287 -0.825215 0
M  V30 8478 C 791.669 3.89581 -1.98861 0
M  V30 8479 C 790.728 5.01602 -1.59003 0
M  V30 8480 O 789.754 5.20431 -2.30522 0
M  V30 8481 N 790.956 5.78356 -0.498446 0
M  V30 8482 H 793.721 2.07083 -2.16649 0
M  V30 8483 H 791.282 1.00896 -1.26616 0
M  V30 8484 H 793.274 4.01074 -0.540559 0
M  V30 8485 H 791.844 3.12565 0.0469796 0
M  V30 8486 H 791.064 3.09723 -2.43856 0
M  V30 8487 H 792.352 4.26989 -2.76691 0
M  V30 8488 H 791.75 5.65618 0.0963297 0
M  V30 8489 H 790.307 6.51226 -0.273485 0
M  V30 8490 N 793.74 1.17359 1.05189 0
M  V30 8491 C 794.687 0.890325 2.12936 0
M  V30 8492 C 795.657 -0.165779 1.65271 0
M  V30 8493 O 796.842 -0.0285672 1.90779 0
M  V30 8494 C 793.982 0.409793 3.42658 0
M  V30 8495 C 793.095 1.53002 4.03998 0
M  V30 8496 C 792.23 1.00336 5.21638 0
M  V30 8497 C 791.269 2.09903 5.74984 0
M  V30 8498 N 790.406 1.58714 6.83926 0
M  V30 8499 H 795.246 1.81299 2.36505 0
M  V30 8500 H 792.783 0.904249 1.16025 0
M  V30 8501 H 794.741 0.112743 4.17048 0
M  V30 8502 H 793.371 -0.475915 3.19272 0
M  V30 8503 H 792.423 1.9428 3.27047 0
M  V30 8504 H 793.735 2.3564 4.39631 0
M  V30 8505 H 792.889 0.660158 6.03098 0
M  V30 8506 H 791.628 0.14642 4.8748 0
M  V30 8507 H 790.633 2.45081 4.92154 0
M  V30 8508 H 791.858 2.96013 6.1119 0
M  V30 8509 H 789.804 0.752915 6.51665 0
M  V30 8510 H 789.721 2.34959 7.18561 0
M  V30 8511 H 790.989 1.27287 7.69037 0
M  V30 8512 N 795.218 -1.23913 0.973828 0
M  V30 8513 C 796.15 -2.24397 0.466763 0
M  V30 8514 C 797.163 -1.57078 -0.427828 0
M  V30 8515 O 798.352 -1.76973 -0.233019 0
M  V30 8516 C 795.452 -3.37141 -0.344798 0
M  V30 8517 C 794.625 -4.34037 0.541349 0
M  V30 8518 C 793.684 -5.2576 -0.215243 0
M  V30 8519 O 792.71 -5.67842 0.39291 0
M  V30 8520 N 793.912 -5.60702 -1.5031 0
M  V30 8521 H 796.677 -2.68536 1.33074 0
M  V30 8522 H 794.238 -1.38017 0.846346 0
M  V30 8523 H 796.23 -3.95476 -0.859133 0
M  V30 8524 H 794.8 -2.92239 -1.10974 0
M  V30 8525 H 794.02 -3.74302 1.23659 0
M  V30 8526 H 795.308 -4.95738 1.1455 0
M  V30 8527 H 794.706 -5.28451 -2.01882 0
M  V30 8528 H 793.263 -6.21538 -1.96301 0
M  V30 8529 N 796.696 -0.74468 -1.38897 0
M  V30 8530 C 797.643 -0.111064 -2.30533 0
M  V30 8531 C 798.613 0.719276 -1.49719 0
M  V30 8532 O 799.798 0.677244 -1.78376 0
M  V30 8533 C 796.938 0.78292 -3.36102 0
M  V30 8534 C 796.051 -0.0610817 -4.31957 0
M  V30 8535 C 795.186 0.835075 -5.24595 0
M  V30 8536 C 794.225 -0.0130974 -6.12099 0
M  V30 8537 N 793.362 0.839525 -6.97063 0
M  V30 8538 H 798.202 -0.898113 -2.84144 0
M  V30 8539 H 795.739 -0.454537 -1.39901 0
M  V30 8540 H 797.697 1.31578 -3.95908 0
M  V30 8541 H 796.327 1.53585 -2.83922 0
M  V30 8542 H 795.379 -0.711469 -3.73687 0
M  V30 8543 H 796.691 -0.716482 -4.93627 0
M  V30 8544 H 795.845 1.43542 -5.89475 0
M  V30 8545 H 794.584 1.52423 -4.63269 0
M  V30 8546 H 793.589 -0.626179 -5.46223 0
M  V30 8547 H 794.814 -0.699181 -6.75491 0
M  V30 8548 H 792.76 1.5138 -6.38295 0
M  V30 8549 H 792.677 0.240823 -7.55616 0
M  V30 8550 H 793.945 1.42513 -7.66362 0
M  V30 8551 N 798.174 1.49689 -0.493057 0
M  V30 8552 C 799.137 2.27502 0.278485 0
M  V30 8553 C 800.137 1.33184 0.901037 0
M  V30 8554 O 801.327 1.56415 0.766801 0
M  V30 8555 C 798.459 3.10881 1.39878 0
M  V30 8556 H 799.652 2.97163 -0.404219 0
M  V30 8557 H 797.205 1.54324 -0.247774 0
M  V30 8558 H 797.94 2.45767 2.11587 0
M  V30 8559 H 797.725 3.80219 0.957924 0
M  V30 8560 H 799.215 3.69673 1.94247 0
M  V30 8561 N 799.652 0.226554 1.55963 0
M  V30 8562 C 800.582 -0.676079 2.23498 0
M  V30 8563 C 801.563 -1.19718 1.20837 0
M  V30 8564 O 802.748 -1.24027 1.49436 0
M  V30 8565 C 799.878 -1.88217 2.91876 0
M  V30 8566 C 798.832 -1.4947 4.01052 0
M  V30 8567 C 798.158 -2.77997 4.56751 0
M  V30 8568 C 799.458 -0.680951 5.17842 0
M  V30 8569 H 801.152 -0.112989 2.99187 0
M  V30 8570 H 798.698 -0.0529046 1.43903 0
M  V30 8571 H 800.651 -2.51911 3.37815 0
M  V30 8572 H 799.375 -2.47031 2.13643 0
M  V30 8573 H 798.034 -0.881199 3.55852 0
M  V30 8574 H 797.682 -3.34966 3.75243 0
M  V30 8575 H 797.382 -2.52803 5.30438 0
M  V30 8576 H 798.906 -3.42625 5.05411 0
M  V30 8577 H 800.32 -1.22171 5.60131 0
M  V30 8578 H 798.717 -0.525898 5.97791 0
M  V30 8579 H 799.787 0.311346 4.83899 0
M  V30 8580 N 801.13 -1.57531 -0.0467866 0
M  V30 8581 C 802.078 -2.06455 -1.0714 0
M  V30 8582 C 803.072 -0.974744 -1.38546 0
M  V30 8583 O 804.278 -1.15974 -1.37659 0
M  V30 8584 H 800.653 -0.658607 -0.362962 0
M  V30 8585 H 802.624 -2.91613 -0.632813 0
M  V30 8586 C 801.373 -2.54481 -2.36927 0
M  V30 8587 H 800.696 -3.37946 -2.13617 0
M  V30 8588 H 802.136 -2.92442 -3.07007 0
M  V30 8589 C 800.595 -1.43836 -3.04652 0
M  V30 8590 O 801.125 -0.794531 -3.93764 0
M  V30 8591 N 799.331 -1.17727 -2.65686 0
M  V30 8592 H 798.878 -1.70265 -1.93307 0
M  V30 8593 H 798.836 -0.439051 -3.11319 0
M  V30 8594 N 802.608 0.318715 -1.54344 0
M  V30 8595 C 803.571 1.37545 -1.83342 0
M  V30 8596 C 804.571 1.445 -0.705444 0
M  V30 8597 O 805.761 1.44443 -0.973752 0
M  V30 8598 C 802.893 2.76225 -1.99781 0
M  V30 8599 H 804.086 1.13084 -2.77762 0
M  V30 8600 H 801.639 0.554457 -1.46135 0
M  V30 8601 H 802.374 3.05934 -1.07588 0
M  V30 8602 H 802.159 2.7257 -2.81865 0
M  V30 8603 H 803.649 3.52664 -2.23647 0
M  V30 8604 N 804.086 1.46499 0.581025 0
M  V30 8605 C 805.334 1.51596 1.33653 0
M  V30 8606 C 805.655 0.169859 1.94259 0
M  V30 8607 O 804.925 -0.803776 1.78651 0
M  V30 8608 H 803.505 0.558346 0.496244 0
M  V30 8609 H 806.167 1.8264 0.680338 0
M  V30 8610 H 805.263 2.26956 2.14237 0
M  V30 8611 N 805.565 -0.825799 1.34232 0
M  V30 8612 C 806.795 -1.61129 1.29309 0
M  V30 8613 C 807.203 -1.88714 -0.135589 0
M  V30 8614 O 806.546 -1.47703 -1.09222 0
M  V30 8615 C 806.608 -2.97866 2.01287 0
M  V30 8616 C 806.272 -2.9319 3.50555 0
M  V30 8617 C 807.269 -2.67978 4.45515 0
M  V30 8618 C 804.954 -3.12913 3.92926 0
M  V30 8619 C 806.948 -2.62536 5.80822 0
M  V30 8620 C 804.635 -3.07096 5.28333 0
M  V30 8621 C 805.633 -2.8194 6.22092 0
M  V30 8622 O 805.321 -2.7605 7.55018 0
M  V30 8623 H 805.053 -0.507652 0.446391 0
M  V30 8624 H 807.607 -1.03575 1.77374 0
M  V30 8625 H 805.837 -3.57327 1.47832 0
M  V30 8626 H 807.526 -3.58848 1.89691 0
M  V30 8627 H 808.292 -2.52478 4.14101 0
M  V30 8628 H 804.171 -3.3151 3.20347 0
M  V30 8629 H 807.715 -2.42821 6.53975 0
M  V30 8630 H 803.612 -3.22148 5.59367 0
M  V30 8631 H 804.38 -2.91798 7.6472 0
M  V30 8632 N 807.043 -1.17915 -1.04565 0
M  V30 8633 C 808.292 -0.965816 -1.77073 0
M  V30 8634 C 808.605 0.506005 -1.88942 0
M  V30 8635 O 809.811 0.837717 -2.58253 0
M  V30 8636 C 808.267 -1.67894 -3.18339 0
M  V30 8637 C 807.875 -3.18972 -3.1458 0
M  V30 8638 C 809.619 -1.54823 -3.9526 0
M  V30 8639 C 807.526 -3.82946 -4.50674 0
M  V30 8640 H 806.456 -0.357729 -0.663736 0
M  V30 8641 H 809.107 -1.41235 -1.17153 0
M  V30 8642 H 807.489 -1.16016 -3.78624 0
M  V30 8643 H 808.663 -3.77835 -2.63776 0
M  V30 8644 H 806.978 -3.32127 -2.51159 0
M  V30 8645 H 809.575 -1.99984 -4.95894 0
M  V30 8646 H 809.918 -0.499727 -4.1329 0
M  V30 8647 H 810.451 -2.03953 -3.41538 0
M  V30 8648 H 807.19 -4.8782 -4.37849 0
M  V30 8649 H 806.71 -3.2887 -5.01602 0
M  V30 8650 H 808.389 -3.85518 -5.196 0
M  V30 8651 N 808.521 1.23394 -0.980386 0
M  V30 8652 C 809.451 2.2717 -0.540024 0
M  V30 8653 C 810.432 1.64659 0.426787 0
M  V30 8654 O 811.617 1.91543 0.320153 0
M  V30 8655 C 808.747 3.46939 0.15836 0
M  V30 8656 C 807.701 4.21802 -0.725732 0
M  V30 8657 C 807.027 5.34597 0.104866 0
M  V30 8658 C 808.327 4.81802 -2.01654 0
M  V30 8659 H 810.021 2.64257 -1.40743 0
M  V30 8660 H 807.567 1.2703 -0.678193 0
M  V30 8661 H 809.52 4.18683 0.477737 0
M  V30 8662 H 808.244 3.08912 1.06022 0
M  V30 8663 H 806.903 3.51875 -1.02857 0
M  V30 8664 H 806.551 4.92812 1.00726 0
M  V30 8665 H 806.251 5.85607 -0.483557 0
M  V30 8666 H 807.775 6.09163 0.418624 0
M  V30 8667 H 809.189 5.45554 -1.76193 0
M  V30 8668 H 807.586 5.43098 -2.55273 0
M  V30 8669 H 808.656 4.02549 -2.70338 0
M  V30 8670 N 809.999 0.752036 1.385 0
M  V30 8671 C 810.947 0.112634 2.32327 0
M  V30 8672 C 811.941 -0.707037 1.53939 0
M  V30 8673 O 813.147 -0.606309 1.69481 0
M  V30 8674 H 809.522 0.0176275 0.751793 0
M  V30 8675 H 811.493 0.920074 2.83861 0
M  V30 8676 C 810.242 -0.767458 3.39124 0
M  V30 8677 H 809.565 -0.146122 3.99533 0
M  V30 8678 H 811.005 -1.18216 4.07187 0
M  V30 8679 C 809.464 -1.90938 2.77568 0
M  V30 8680 O 809.994 -3.00342 2.66754 0
M  V30 8681 N 808.2 -1.70396 2.35401 0
M  V30 8682 H 807.747 -0.81413 2.44397 0
M  V30 8683 H 807.705 -2.46972 1.94557 0
M  V30 8684 N 811.477 -1.49425 0.500989 0
M  V30 8685 C 812.725 -2.02053 -0.0434495 0
M  V30 8686 C 813.046 -1.38285 -1.37486 0
M  V30 8687 O 812.316 -0.538171 -1.88363 0
M  V30 8688 H 810.896 -0.746757 -0.0190469 0
M  V30 8689 H 813.558 -1.83449 0.658227 0
M  V30 8690 H 812.654 -3.11619 -0.173129 0
M  V30 8691 N 812.955 -0.234822 -1.55841 0
M  V30 8692 C 813.885 0.664217 -2.23854 0
M  V30 8693 C 814.866 1.19076 -1.2147 0
M  V30 8694 O 816.051 1.23232 -1.50091 0
M  V30 8695 C 813.181 1.86666 -2.9287 0
M  V30 8696 C 812.135 1.47341 -4.01839 0
M  V30 8697 C 811.461 2.75571 -4.58219 0
M  V30 8698 C 812.761 0.653479 -5.18196 0
M  V30 8699 H 814.455 0.0971213 -2.99242 0
M  V30 8700 H 812.001 0.0452724 -1.43929 0
M  V30 8701 H 813.954 2.50116 -3.39146 0
M  V30 8702 H 812.678 2.45894 -2.1495 0
M  V30 8703 H 811.337 0.862314 -3.56314 0
M  V30 8704 H 810.985 3.32971 -3.77014 0
M  V30 8705 H 810.685 2.49987 -5.31771 0
M  V30 8706 H 812.209 3.39939 -5.07221 0
M  V30 8707 H 813.623 1.19198 -5.60771 0
M  V30 8708 H 812.02 0.494188 -5.98062 0
M  V30 8709 H 813.09 -0.337004 -4.83728 0
M  V30 8710 N 814.433 1.57553 0.0384317 0
M  V30 8711 C 815.661 1.93093 0.743141 0
M  V30 8712 C 816.076 0.833787 1.69391 0
M  V30 8713 O 815.433 -0.190532 1.81503 0
M  V30 8714 C 815.484 3.28533 1.50826 0
M  V30 8715 O 815.205 4.34032 0.595665 0
M  V30 8716 C 816.706 3.78297 2.31098 0
M  V30 8717 H 813.926 0.637486 0.20941 0
M  V30 8718 H 816.47 2.045 -0.00125154 0
M  V30 8719 H 814.625 3.18552 2.20462 0
M  V30 8720 H 815.039 5.12155 1.13124 0
M  V30 8721 H 816.513 4.75602 2.80191 0
M  V30 8722 H 816.99 3.09008 3.12107 0
M  V30 8723 H 817.596 3.91331 1.66555 0
M  V30 8724 N 815.911 -0.310526 1.54511 0
M  V30 8725 C 817.157 -1.04846 1.73595 0
M  V30 8726 C 817.49 -1.87244 0.515118 0
M  V30 8727 O 816.765 -1.88282 -0.48786 0
M  V30 8728 C 817.048 -1.96237 3.01932 0
M  V30 8729 C 816.901 -1.17082 4.34295 0
M  V30 8730 C 818.22 -2.9556 3.26086 0
M  V30 8731 H 815.339 -0.37976 0.631626 0
M  V30 8732 H 817.981 -0.32394 1.87218 0
M  V30 8733 H 816.131 -2.58015 2.90449 0
M  V30 8734 H 817.803 -0.576643 4.57682 0
M  V30 8735 H 816.046 -0.473336 4.3121 0
M  V30 8736 H 816.717 -1.84257 5.20339 0
M  V30 8737 H 819.193 -2.43908 3.37117 0
M  V30 8738 H 818.069 -3.5668 4.17218 0
M  V30 8739 H 818.33 -3.68715 2.4393 0
M  V30 8740 N 817.389 -1.46805 -0.573248 0
M  V30 8741 C 818.614 -1.56433 -1.36175 0
M  V30 8742 C 819.039 -0.209336 -1.86932 0
M  V30 8743 O 818.397 0.812146 -1.62092 0
M  V30 8744 C 818.445 -2.58055 -2.51873 0
M  V30 8745 O 817.549 -2.12214 -3.53609 0
M  V30 8746 H 816.89 -0.526068 -0.405153 0
M  V30 8747 H 819.42 -1.92456 -0.694405 0
M  V30 8748 H 819.43 -2.77966 -2.98662 0
M  V30 8749 H 818.105 -3.56448 -2.14284 0
M  V30 8750 H 816.682 -2.02333 -3.13234 0
M  V30 8751 N 818.867 0.818669 -1.34668 0
M  V30 8752 C 820.116 1.57017 -1.26604 0
M  V30 8753 C 820.429 1.94936 0.161036 0
M  V30 8754 O 821.635 2.69051 0.36386 0
M  V30 8755 C 820.091 2.83305 -2.2196 0
M  V30 8756 C 819.699 2.52671 -3.69948 0
M  V30 8757 C 821.443 3.61324 -2.22813 0
M  V30 8758 C 819.35 3.75178 -4.5716 0
M  V30 8759 H 818.28 0.589323 -0.470335 0
M  V30 8760 H 820.931 0.900956 -1.59859 0
M  V30 8761 H 819.313 3.51874 -1.81661 0
M  V30 8762 H 820.487 1.92186 -4.18809 0
M  V30 8763 H 818.802 1.8792 -3.71584 0
M  V30 8764 H 821.399 4.52294 -2.85192 0
M  V30 8765 H 821.742 3.97759 -1.22857 0
M  V30 8766 H 822.275 2.99703 -2.61578 0
M  V30 8767 H 819.014 3.43861 -5.58068 0
M  V30 8768 H 818.534 4.34931 -4.13031 0
M  V30 8769 H 820.213 4.42542 -4.71981 0
M  V30 8770 N 820.346 1.18468 1.03938 0
M  V30 8771 C 821.757 0.984808 1.58614 0
M  V30 8772 C 822.108 -0.465165 1.90606 0
M  V30 8773 O 821.233 -1.34274 1.69704 0
M  V30 8774 C 821.828 1.78135 2.8819 0
M  V30 8775 C 820.387 1.62579 3.39478 0
M  V30 8776 C 819.534 1.77501 2.13046 0
M  V30 8777 H 822.485 1.32993 0.865944 0
M  V30 8778 H 822.506 1.27119 3.58638 0
M  V30 8779 H 822.018 2.83661 2.64874 0
M  V30 8780 H 820.119 0.59595 3.67803 0
M  V30 8781 H 820.232 2.42463 4.13217 0
M  V30 8782 H 818.596 1.2046 2.24414 0
M  V30 8783 H 819.379 2.84464 1.92185 0
M  V30 8784 N 821.824 -1.22873 0.986916 0
M  V30 8785 C 823.072 -1.91084 0.658121 0
M  V30 8786 C 823.393 -1.77304 -0.811675 0
M  V30 8787 O 822.663 -1.15649 -1.58121 0
M  V30 8788 H 821.243 -0.707251 0.240427 0
M  V30 8789 H 823.905 -1.49357 1.25213 0
M  V30 8790 H 823.001 -2.98373 0.915428 0
M  V30 8791 N 823.302 -0.75937 -1.38099 0
M  V30 8792 C 824.232 -0.151077 -2.33011 0
M  V30 8793 C 825.213 0.697099 -1.5516 0
M  V30 8794 O 826.398 0.637101 -1.83452 0
M  V30 8795 C 823.528 0.738423 -3.39359 0
M  V30 8796 C 822.482 -0.0074741 -4.27999 0
M  V30 8797 C 821.808 1.00066 -5.25253 0
M  V30 8798 C 823.108 -1.17926 -5.08813 0
M  V30 8799 H 824.802 -0.943933 -2.84131 0
M  V30 8800 H 822.348 -0.455362 -1.36611 0
M  V30 8801 H 824.301 1.17369 -4.04725 0
M  V30 8802 H 823.025 1.56366 -2.86735 0
M  V30 8803 H 821.684 -0.423379 -3.64147 0
M  V30 8804 H 821.332 1.82012 -4.68914 0
M  V30 8805 H 821.032 0.506199 -5.85416 0
M  V30 8806 H 822.556 1.43512 -5.93495 0
M  V30 8807 H 823.97 -0.821262 -5.67387 0
M  V30 8808 H 822.367 -1.60497 -5.78239 0
M  V30 8809 H 823.437 -1.98938 -4.42212 0
M  V30 8810 N 824.78 1.49157 -0.508906 0
M  V30 8811 C 825.69 2.33045 0.269656 0
M  V30 8812 C 826.706 1.45143 0.959662 0
M  V30 8813 O 827.882 1.78155 0.939295 0
M  V30 8814 C 824.947 3.20772 1.31554 0
M  V30 8815 C 824.008 4.24531 0.638131 0
M  V30 8816 C 823.241 5.08065 1.63418 0
M  V30 8817 O 823.464 4.93238 2.86483 0
M  V30 8818 O 822.398 5.90117 1.18516 0
M  V30 8819 H 826.224 3.00821 -0.417183 0
M  V30 8820 H 823.809 1.46938 -0.270119 0
M  V30 8821 H 825.691 3.75095 1.92047 0
M  V30 8822 H 824.366 2.55681 1.98516 0
M  V30 8823 H 823.273 3.74099 -0.00674357 0
M  V30 8824 H 824.606 4.92199 0.0108155 0
M  V30 8825 N 826.258 0.243083 1.55714 0
M  V30 8826 C 827.674 -0.111853 1.59208 0
M  V30 8827 C 827.874 -1.5723 1.2602 0
M  V30 8828 O 826.93 -2.31608 1.00569 0
M  V30 8829 C 828.243 0.233885 2.99789 0
M  V30 8830 C 829.791 0.177873 3.12494 0
M  V30 8831 C 830.266 0.49759 4.55289 0
M  V30 8832 N 831.757 0.447949 4.61029 0
M  V30 8833 C 832.492 0.668545 5.69489 0
M  V30 8834 N 831.988 0.952064 6.86227 0
M  V30 8835 N 833.781 0.599512 5.58894 0
M  V30 8836 H 825.932 1.19554 1.75558 0
M  V30 8837 H 828.195 0.480765 0.817049 0
M  V30 8838 H 827.901 1.24835 3.28799 0
M  V30 8839 H 827.775 -0.440846 3.74615 0
M  V30 8840 H 830.162 -0.827263 2.83267 0
M  V30 8841 H 830.243 0.886399 2.39951 0
M  V30 8842 H 829.887 1.50026 4.85237 0
M  V30 8843 H 829.817 -0.232371 5.26087 0
M  V30 8844 H 832.308 0.237388 3.77154 0
M  V30 8845 H 832.621 1.10791 7.64817 0
M  V30 8846 H 830.966 0.989496 6.8792 0
M  V30 8847 H 834.157 0.378088 4.66571 0
M  V30 8848 H 834.33 0.774828 6.43351 0
M  V30 8849 N 827.736 -1.57571 -0.0300757 0
M  V30 8850 C 828.699 -2.05468 -1.01565 0
M  V30 8851 C 829.699 -0.958628 -1.29101 0
M  V30 8852 O 830.889 -1.22228 -1.24121 0
M  V30 8853 C 828.021 -2.47077 -2.34874 0
M  V30 8854 H 829.214 -2.93797 -0.601936 0
M  V30 8855 H 826.767 -1.53828 -0.276878 0
M  V30 8856 H 827.502 -1.61901 -2.80996 0
M  V30 8857 H 827.287 -3.27097 -2.16218 0
M  V30 8858 H 828.777 -2.84564 -3.05635 0
M  V30 8859 N 829.214 0.302327 -1.54673 0
M  V30 8860 C 830.144 1.37759 -1.88533 0
M  V30 8861 C 831.125 1.52961 -0.744113 0
M  V30 8862 O 832.31 1.6649 -0.999731 0
M  V30 8863 C 829.44 2.74201 -2.13146 0
M  V30 8864 C 828.394 2.73765 -3.28993 0
M  V30 8865 C 827.72 4.13483 -3.39022 0
M  V30 8866 C 829.02 2.35624 -4.66132 0
M  V30 8867 H 830.714 1.0967 -2.78591 0
M  V30 8868 H 828.26 0.52613 -1.34044 0
M  V30 8869 H 830.213 3.49508 -2.35419 0
M  V30 8870 H 828.937 3.03812 -1.19858 0
M  V30 8871 H 827.596 2.00914 -3.06642 0
M  V30 8872 H 827.244 4.40269 -2.43253 0
M  V30 8873 H 826.944 4.14093 -4.16894 0
M  V30 8874 H 828.468 4.90572 -3.63553 0
M  V30 8875 H 829.882 3.00647 -4.88143 0
M  V30 8876 H 828.279 2.47449 -5.46707 0
M  V30 8877 H 829.349 1.30753 -4.66939 0
M  V30 8878 N 830.692 1.47107 0.565454 0
M  V30 8879 C 831.624 1.55024 1.6882 0
M  V30 8880 C 832.637 0.4371 1.56822 0
M  V30 8881 O 833.826 0.706315 1.63931 0
M  V30 8882 C 830.926 1.43069 3.0722 0
M  V30 8883 C 830.099 2.68807 3.45053 0
M  V30 8884 C 829.158 2.50806 4.62583 0
M  V30 8885 O 828.184 3.24593 4.67577 0
M  V30 8886 N 829.386 1.58093 5.58558 0
M  V30 8887 H 832.151 2.51836 1.62477 0
M  V30 8888 H 829.712 1.43382 0.751885 0
M  V30 8889 H 831.704 1.28773 3.83666 0
M  V30 8890 H 830.274 0.543721 3.07835 0
M  V30 8891 H 829.494 2.97923 2.58138 0
M  V30 8892 H 830.782 3.52298 3.67101 0
M  V30 8893 H 830.18 0.972807 5.57273 0
M  V30 8894 H 828.737 1.49753 6.34364 0
M  V30 8895 N 832.17 -0.811516 1.35101 0
M  V30 8896 C 833.102 -1.93102 1.23468 0
M  V30 8897 C 834.115 -1.62021 0.159095 0
M  V30 8898 O 835.304 -1.73682 0.411945 0
M  V30 8899 C 832.404 -3.27345 0.877404 0
M  V30 8900 C 831.577 -3.86368 2.05033 0
M  V30 8901 C 830.636 -4.99009 1.66963 0
M  V30 8902 O 829.662 -5.16698 2.38772 0
M  V30 8903 N 830.864 -5.7749 0.590394 0
M  V30 8904 H 833.629 -2.0361 2.19916 0
M  V30 8905 H 831.19 -0.988687 1.28205 0
M  V30 8906 H 833.182 -4.00163 0.604298 0
M  V30 8907 H 831.752 -3.126 0.00275267 0
M  V30 8908 H 830.972 -3.05804 2.48752 0
M  V30 8909 H 832.26 -4.22533 2.83449 0
M  V30 8910 H 831.658 -5.657 -0.00633259 0
M  V30 8911 H 830.215 -6.50708 0.377055 0
M  V30 8912 N 833.648 -1.19017 -1.03309 0
M  V30 8913 C 834.878 -1.01387 -1.80012 0
M  V30 8914 C 835.286 0.440655 -1.83997 0
M  V30 8915 O 834.629 1.31786 -1.27977 0
M  V30 8916 C 834.691 -1.50171 -3.26633 0
M  V30 8917 C 834.355 -2.98213 -3.46292 0
M  V30 8918 C 835.352 -3.96009 -3.36857 0
M  V30 8919 C 833.037 -3.36812 -3.72643 0
M  V30 8920 C 835.031 -5.30399 -3.5349 0
M  V30 8921 C 832.718 -4.71363 -3.88922 0
M  V30 8922 C 833.716 -5.67966 -3.79347 0
M  V30 8923 O 833.404 -7.00079 -3.95151 0
M  V30 8924 H 833.136 -0.357899 -0.573484 0
M  V30 8925 H 835.69 -1.58171 -1.31039 0
M  V30 8926 H 833.92 -0.877586 -3.7661 0
M  V30 8927 H 835.609 -1.28814 -3.84918 0
M  V30 8928 H 836.375 -3.67534 -3.16455 0
M  V30 8929 H 832.254 -2.62175 -3.7919 0
M  V30 8930 H 835.798 -6.05786 -3.45933 0
M  V30 8931 H 831.695 -4.99536 -4.0882 0
M  V30 8932 H 832.463 -7.07092 -4.12266 0
M  V30 8933 N 835.127 1.22348 -0.993418 0
M  V30 8934 C 836.355 1.95125 -0.688021 0
M  V30 8935 C 836.77 1.73377 0.747388 0
M  V30 8936 O 836.127 1.03317 1.50439 0
M  V30 8937 C 836.178 3.47819 -0.985097 0
M  V30 8938 O 835.899 3.68838 -2.3641 0
M  V30 8939 C 837.4 4.37779 -0.697474 0
M  V30 8940 H 834.62 0.62087 -0.254481 0
M  V30 8941 H 837.164 1.55485 -1.32833 0
M  V30 8942 H 835.319 3.85426 -0.390583 0
M  V30 8943 H 835.733 4.63032 -2.46377 0
M  V30 8944 H 837.207 5.43666 -0.955604 0
M  V30 8945 H 837.684 4.37651 0.368524 0
M  V30 8946 H 838.29 4.05799 -1.27306 0
M  V30 8947 N 836.605 0.766683 1.37694 0
M  V30 8948 C 837.535 0.163432 2.32927 0
M  V30 8949 C 838.516 -0.688861 1.55527 0
M  V30 8950 O 839.701 -0.627363 1.83787 0
M  V30 8951 C 836.831 -0.720416 3.39746 0
M  V30 8952 C 835.785 0.0301718 4.27989 0
M  V30 8953 C 835.111 -0.972788 5.25776 0
M  V30 8954 C 836.411 1.20623 5.0818 0
M  V30 8955 H 838.105 0.958988 2.83626 0
M  V30 8956 H 835.651 0.462601 1.36367 0
M  V30 8957 H 837.604 -1.15221 4.05342 0
M  V30 8958 H 836.328 -1.54844 2.8756 0
M  V30 8959 H 834.987 0.442685 3.63917 0
M  V30 8960 H 834.635 -1.79522 4.69873 0
M  V30 8961 H 834.335 -0.475145 5.85676 0
M  V30 8962 H 835.859 -1.40362 5.94248 0
M  V30 8963 H 837.273 0.851341 5.66944 0
M  V30 8964 H 835.67 1.63561 5.7738 0
M  V30 8965 H 836.74 2.01281 4.41151 0
M  V30 8966 N 838.083 -1.48885 0.516809 0
M  V30 8967 C 838.993 -2.33185 -0.257293 0
M  V30 8968 C 840.009 -1.4565 -0.951952 0
M  V30 8969 O 841.185 -1.78651 -0.929834 0
M  V30 8970 C 838.25 -3.21465 -1.29851 0
M  V30 8971 C 837.311 -4.24863 -0.615608 0
M  V30 8972 C 836.544 -5.08925 -1.60722 0
M  V30 8973 O 836.767 -4.9475 -2.83863 0
M  V30 8974 O 835.701 -5.90737 -1.15384 0
M  V30 8975 H 839.527 -3.00596 0.433131 0
M  V30 8976 H 837.112 -1.46792 0.277908 0
M  V30 8977 H 838.994 -3.76108 -1.90055 0
M  V30 8978 H 837.669 -2.5673 -1.97158 0
M  V30 8979 H 836.576 -3.74091 0.0265829 0
M  V30 8980 H 837.909 -4.92198 0.0152871 0
M  V30 8981 N 839.561 -0.251338 -1.55583 0
M  V30 8982 C 840.972 0.25098 -1.85005 0
M  V30 8983 C 841.323 1.57259 -1.17321 0
M  V30 8984 O 840.448 2.11603 -0.453136 0
M  V30 8985 C 841.043 0.462161 -3.35633 0
M  V30 8986 C 839.602 0.908737 -3.65266 0
M  V30 8987 C 838.749 -0.0115418 -2.77298 0
M  V30 8988 H 841.7 -0.473782 -1.51463 0
M  V30 8989 H 841.721 1.30415 -3.57452 0
M  V30 8990 H 841.233 -0.499886 -3.84867 0
M  V30 8991 H 839.334 1.8831 -3.21512 0
M  V30 8992 H 839.447 0.762526 -4.72993 0
M  V30 8993 H 837.811 0.500612 -2.49732 0
M  V30 8994 H 838.594 -0.969042 -3.29339 0
M  V30 8995 N 841.039 1.57585 0.0217189 0
M  V30 8996 C 842.264 1.94267 0.726309 0
M  V30 8997 C 842.689 0.851904 1.67703 0
M  V30 8998 O 842.047 -0.191792 1.80283 0
M  V30 8999 C 842.095 3.30023 1.45318 0
M  V30 9000 O 841.199 3.22791 2.5667 0
M  V30 9001 H 840.54 0.634777 0.194818 0
M  V30 9002 H 843.07 2.04585 -0.0249985 0
M  V30 9003 H 843.08 3.65084 1.82147 0
M  V30 9004 H 841.755 4.08972 0.755962 0
M  V30 9005 H 840.332 2.99373 2.2233 0
M  V30 9006 N 842.517 -0.29412 1.54831 0
M  V30 9007 C 843.427 -1.3854 1.89325 0
M  V30 9008 C 844.443 -1.55127 0.788133 0
M  V30 9009 O 845.619 -1.6966 1.08524 0
M  V30 9010 C 842.684 -2.72809 2.13954 0
M  V30 9011 C 841.745 -2.65148 3.37631 0
M  V30 9012 C 840.978 -3.93014 3.61076 0
M  V30 9013 O 841.201 -4.927 2.87406 0
M  V30 9014 O 840.135 -3.94491 4.54599 0
M  V30 9015 H 843.961 -1.12289 2.82179 0
M  V30 9016 H 841.546 -0.490793 1.41108 0
M  V30 9017 H 843.428 -3.52238 2.31315 0
M  V30 9018 H 842.103 -2.9889 1.24285 0
M  V30 9019 H 841.01 -1.84168 3.25627 0
M  V30 9020 H 842.343 -2.4402 4.27452 0
M  V30 9021 N 843.995 -1.47404 -0.557645 0
M  V30 9022 C 844.942 -1.59859 -1.66475 0
M  V30 9023 C 845.912 -0.441644 -1.60121 0
M  V30 9024 O 847.097 -0.661641 -1.78961 0
M  V30 9025 C 844.237 -1.61843 -3.04797 0
M  V30 9026 C 843.35 -2.8845 -3.2159 0
M  V30 9027 C 842.485 -2.81773 -4.50308 0
M  V30 9028 C 841.524 -4.03208 -4.60532 0
M  V30 9029 N 840.661 -3.94769 -5.80604 0
M  V30 9030 H 845.501 -2.54415 -1.55168 0
M  V30 9031 H 843.038 -1.26194 -0.755876 0
M  V30 9032 H 844.996 -1.60976 -3.84893 0
M  V30 9033 H 843.626 -0.707997 -3.1494 0
M  V30 9034 H 842.678 -2.99186 -2.34929 0
M  V30 9035 H 843.99 -3.78379 -3.25009 0
M  V30 9036 H 843.144 -2.79153 -5.38663 0
M  V30 9037 H 841.883 -1.89527 -4.49367 0
M  V30 9038 H 840.888 -4.06133 -3.70589 0
M  V30 9039 H 842.113 -4.9658 -4.63233 0
M  V30 9040 H 840.059 -3.05326 -5.80613 0
M  V30 9041 H 839.976 -4.78375 -5.854 0
M  V30 9042 H 841.244 -3.96165 -6.71322 0
M  V30 9043 N 845.473 0.80434 -1.35529 0
M  V30 9044 C 846.884 1.37849 -1.25915 0
M  V30 9045 C 847.235 1.95905 0.107495 0
M  V30 9046 O 846.36 1.91462 1.00852 0
M  V30 9047 C 846.955 2.50608 -2.27994 0
M  V30 9048 C 845.514 3.03879 -2.22114 0
M  V30 9049 C 844.661 1.76856 -2.13582 0
M  V30 9050 H 847.612 0.607192 -1.46625 0
M  V30 9051 H 847.633 3.29221 -1.90772 0
M  V30 9052 H 847.145 2.08323 -3.27449 0
M  V30 9053 H 845.246 3.50622 -1.26077 0
M  V30 9054 H 845.359 3.61707 -3.14173 0
M  V30 9055 H 843.723 1.98498 -1.59595 0
M  V30 9056 H 844.506 1.36721 -3.14901 0
M  V30 9057 N 846.951 1.19563 1.02676 0
M  V30 9058 C 848.198 0.999568 1.7611 0
M  V30 9059 C 848.526 -0.469432 1.8875 0
M  V30 9060 O 847.781 -1.36481 1.40255 0
M  V30 9061 C 848.08 1.61619 3.18769 0
M  V30 9062 C 847.746 3.11366 3.26132 0
M  V30 9063 C 846.408 3.52234 3.27848 0
M  V30 9064 C 848.76 4.07374 3.25109 0
M  V30 9065 C 846.088 4.87658 3.26201 0
M  V30 9066 C 848.44 5.42731 3.25002 0
M  V30 9067 C 847.104 5.83027 3.25017 0
M  V30 9068 H 846.374 0.365768 0.644434 0
M  V30 9069 H 849.021 1.48838 1.20497 0
M  V30 9070 H 847.326 1.04974 3.77476 0
M  V30 9071 H 849.023 1.43975 3.74262 0
M  V30 9072 H 845.613 2.78804 3.25525 0
M  V30 9073 H 849.797 3.76842 3.22961 0
M  V30 9074 H 845.053 5.18156 3.24537 0
M  V30 9075 H 849.227 6.16879 3.23161 0
M  V30 9076 H 846.854 6.87936 3.23494 0
M  V30 9077 N 848.429 -1.21819 0.999893 0
M  V30 9078 C 849.706 -1.86318 0.595384 0
M  V30 9079 C 850.086 -1.8965 -0.927143 0
M  V30 9080 O 849.434 -1.3921 -1.81199 0
M  V30 9081 C 849.644 -3.26837 1.22387 0
M  V30 9082 C 850.992 -4.03272 1.32878 0
M  V30 9083 O 852.016 -3.36129 1.1788 0
M  V30 9084 O 850.875 -5.23477 1.56952 0
M  V30 9085 H 847.969 -0.801638 0.203238 0
M  V30 9086 H 850.515 -1.29542 1.09622 0
M  V30 9087 H 849.287 -3.19084 2.26497 0
M  V30 9088 H 848.91 -3.91226 0.709069 0
M  V30 9089 N 849.908 -0.773975 -1.37286 0
M  V30 9090 C 850.838 -0.175782 -2.32837 0
M  V30 9091 C 851.819 0.680603 -1.5589 0
M  V30 9092 O 853.004 0.617607 -1.84117 0
M  V30 9093 C 850.134 0.702388 -3.40123 0
M  V30 9094 C 849.088 -0.0528687 -4.27967 0
M  V30 9095 C 848.414 0.944891 -5.26285 0
M  V30 9096 C 849.714 -1.23316 -5.07534 0
M  V30 9097 H 851.408 -0.974016 -2.83114 0
M  V30 9098 H 848.954 -0.469826 -1.3612 0
M  V30 9099 H 850.907 1.13069 -4.05947 0
M  V30 9100 H 849.631 1.53316 -2.88378 0
M  V30 9101 H 848.29 -0.461978 -3.63678 0
M  V30 9102 H 847.938 1.77028 -4.70819 0
M  V30 9103 H 847.638 0.444079 -5.8592 0
M  V30 9104 H 849.162 1.37209 -5.94984 0
M  V30 9105 H 850.576 -0.881395 -5.66484 0
M  V30 9106 H 848.973 -1.66621 -5.76504 0
M  V30 9107 H 850.043 -2.03617 -4.40077 0
M  V30 9108 N 851.386 1.48609 -0.524698 0
M  V30 9109 C 852.333 2.29539 0.240956 0
M  V30 9110 C 853.303 1.37033 0.938681 0
M  V30 9111 O 854.488 1.65996 0.940737 0
M  V30 9112 C 851.628 3.20278 1.28514 0
M  V30 9113 C 850.741 4.27858 0.596798 0
M  V30 9114 C 849.876 5.05784 1.62346 0
M  V30 9115 C 848.915 6.05173 0.918287 0
M  V30 9116 N 848.052 6.76176 1.89025 0
M  V30 9117 H 852.892 2.945 -0.455368 0
M  V30 9118 H 850.429 1.45188 -0.236403 0
M  V30 9119 H 852.387 3.71281 1.90279 0
M  V30 9120 H 851.017 2.57251 1.94992 0
M  V30 9121 H 850.069 3.80162 -0.134668 0
M  V30 9122 H 851.381 4.98782 0.0428506 0
M  V30 9123 H 850.535 5.60775 2.31553 0
M  V30 9124 H 849.274 4.34687 2.2113 0
M  V30 9125 H 848.279 5.49391 0.21212 0
M  V30 9126 H 849.504 6.78265 0.336633 0
M  V30 9127 H 847.45 6.07834 2.46726 0
M  V30 9128 H 847.367 7.43157 1.3876 0
M  V30 9129 H 848.635 7.35759 2.57446 0
M  V30 9130 N 852.864 0.259585 1.55447 0
M  V30 9131 C 854.089 -0.368317 2.04103 0
M  V30 9132 C 854.514 -1.49827 1.13725 0
M  V30 9133 O 853.872 -1.80814 0.132705 0
M  V30 9134 C 853.92 -0.841506 3.50644 0
M  V30 9135 O 853.024 -1.95008 3.63381 0
M  V30 9136 H 852.365 -0.0785227 0.659341 0
M  V30 9137 H 854.895 0.389349 2.00861 0
M  V30 9138 H 854.905 -1.14138 3.9171 0
M  V30 9139 H 853.58 -0.0147001 4.15897 0
M  V30 9140 H 852.157 -1.65393 3.34215 0
M  V30 9141 N 854.342 -1.57594 -0.0133615 0
M  V30 9142 C 855.588 -1.90262 -0.702019 0
M  V30 9143 C 855.921 -0.859219 -1.74158 0
M  V30 9144 O 855.196 0.123778 -1.94106 0
M  V30 9145 C 855.479 -3.3354 -1.35732 0
M  V30 9146 C 855.332 -4.48586 -0.330208 0
M  V30 9147 C 856.651 -3.76004 -2.28712 0
M  V30 9148 H 853.77 -0.691943 -0.253739 0
M  V30 9149 H 856.412 -1.89967 0.0351894 0
M  V30 9150 H 854.562 -3.33921 -1.98567 0
M  V30 9151 H 856.234 -4.6034 0.297433 0
M  V30 9152 H 854.477 -4.32394 0.348926 0
M  V30 9153 H 855.148 -5.45762 -0.827508 0
M  V30 9154 H 857.624 -3.77089 -1.75906 0
M  V30 9155 H 856.5 -4.77032 -2.71535 0
M  V30 9156 H 856.761 -3.09129 -3.16056 0
M  V30 9157 N 855.82 0.285905 -1.54985 0
M  V30 9158 C 857.231 0.857869 -1.65824 0
M  V30 9159 C 857.582 1.87531 -0.576763 0
M  V30 9160 O 856.707 2.14528 0.284016 0
M  V30 9161 C 857.302 1.56277 -3.00604 0
M  V30 9162 C 855.861 2.08294 -3.13513 0
M  V30 9163 C 855.008 0.920633 -2.61571 0
M  V30 9164 H 857.959 0.0625463 -1.58577 0
M  V30 9165 H 857.98 2.42912 -2.92872 0
M  V30 9166 H 857.492 0.822017 -3.79295 0
M  V30 9167 H 855.593 2.8537 -2.39572 0
M  V30 9168 H 855.706 2.3071 -4.19892 0
M  V30 9169 H 854.07 1.31043 -2.18403 0
M  V30 9170 H 854.853 0.193594 -3.42754 0
M  V30 9171 N 857.298 1.47698 0.54982 0
M  V30 9172 C 858.228 1.63622 1.66583 0
M  V30 9173 C 859.209 0.485477 1.63025 0
M  V30 9174 O 860.394 0.715692 1.80531 0
M  V30 9175 C 857.524 1.65721 3.05211 0
M  V30 9176 C 856.478 2.80097 3.2362 0
M  V30 9177 C 855.804 2.67272 4.63109 0
M  V30 9178 C 857.104 4.21612 3.08286 0
M  V30 9179 H 858.798 2.57049 1.53512 0
M  V30 9180 H 856.344 1.23705 0.737099 0
M  V30 9181 H 858.297 1.75451 3.83138 0
M  V30 9182 H 857.021 0.688593 3.19258 0
M  V30 9183 H 855.68 2.69889 2.48104 0
M  V30 9184 H 855.328 1.68422 4.73965 0
M  V30 9185 H 855.028 3.44008 4.76374 0
M  V30 9186 H 856.552 2.78942 5.43161 0
M  V30 9187 H 857.966 4.32758 3.76024 0
M  V30 9188 H 856.363 4.99193 3.33057 0
M  V30 9189 H 857.433 4.39462 2.04942 0
M  V30 9190 N 858.776 -0.797141 1.35954 0
M  V30 9191 C 859.739 -1.89104 1.29508 0
M  V30 9192 C 860.739 -1.59495 0.204444 0
M  V30 9193 O 861.929 -1.68051 0.458746 0
M  V30 9194 C 859.061 -3.25726 1.00576 0
M  V30 9195 H 860.254 -1.96237 2.26785 0
M  V30 9196 H 857.807 -0.994075 1.20614 0
M  V30 9197 H 858.542 -3.24279 0.0372519 0
M  V30 9198 H 858.327 -3.48604 1.79492 0
M  V30 9199 H 859.817 -4.0578 0.986508 0
M  V30 9200 N 860.254 -1.20106 -1.0204 0
M  V30 9201 C 861.482 -1.0344 -1.79186 0
M  V30 9202 C 861.897 0.416542 -1.84148 0
M  V30 9203 O 861.254 1.28925 -1.29168 0
M  V30 9204 C 861.305 -1.60663 -3.23836 0
M  V30 9205 O 861.026 -3.00079 -3.19193 0
M  V30 9206 C 862.527 -1.48897 -4.17546 0
M  V30 9207 H 859.747 -0.364093 -0.563629 0
M  V30 9208 H 862.291 -1.5911 -1.28469 0
M  V30 9209 H 860.446 -1.09122 -3.71714 0
M  V30 9210 H 860.86 -3.27162 -4.09958 0
M  V30 9211 H 862.334 -1.93703 -5.16898 0
M  V30 9212 H 862.811 -0.440843 -4.36982 0
M  V30 9213 H 863.417 -1.9961 -3.75547 0
M  V30 9214 N 861.732 1.21287 -1.00634 0
M  V30 9215 C 862.695 2.21927 -0.572821 0
M  V30 9216 C 863.695 1.5691 0.351541 0
M  V30 9217 O 864.885 1.73623 0.141643 0
M  V30 9218 C 862.017 3.40501 0.164932 0
M  V30 9219 H 863.21 2.61795 -1.463 0
M  V30 9220 H 860.763 1.34571 -0.794998 0
M  V30 9221 H 861.498 3.06123 1.07049 0
M  V30 9222 H 861.283 3.88912 -0.498962 0
M  V30 9223 H 862.773 4.15103 0.455945 0
M  V30 9224 N 863.21 0.781244 1.36873 0
M  V30 9225 C 864.621 0.414093 1.8205 0
M  V30 9226 C 864.972 -1.06098 1.65039 0
M  V30 9227 O 864.097 -1.82251 1.16677 0
M  V30 9228 C 864.692 0.744837 3.30511 0
M  V30 9229 C 863.251 0.430621 3.73929 0
M  V30 9230 C 862.398 0.983746 2.59264 0
M  V30 9231 H 865.349 0.975091 1.2521 0
M  V30 9232 H 865.37 0.032936 3.80486 0
M  V30 9233 H 864.882 1.81847 3.42861 0
M  V30 9234 H 862.983 -0.635308 3.67144 0
M  V30 9235 H 863.096 0.945514 4.69677 0
M  V30 9236 H 861.46 0.407433 2.5142 0
M  V30 9237 H 862.243 2.06297 2.74402 0
M  V30 9238 N 864.689 -1.48329 0.532571 0
M  V30 9239 C 865.622 -2.26524 -0.2761 0
M  V30 9240 C 866.6 -1.32498 -0.942496 0
M  V30 9241 O 867.784 -1.61844 -0.966376 0
M  V30 9242 C 864.911 -3.08808 -1.39124 0
M  V30 9243 C 863.957 -4.18227 -0.835984 0
M  V30 9244 S 864.79 -5.34669 0.298186 0
M  V30 9245 C 865.946 -6.20514 -0.81937 0
M  V30 9246 H 866.179 -2.94764 0.387502 0
M  V30 9247 H 863.712 -1.51081 0.318407 0
M  V30 9248 H 865.67 -3.56792 -2.03002 0
M  V30 9249 H 864.331 -2.39976 -2.02658 0
M  V30 9250 H 863.524 -4.75435 -1.67264 0
M  V30 9251 H 863.126 -3.72996 -0.27385 0
M  V30 9252 H 865.418 -6.55371 -1.7174 0
M  V30 9253 H 866.361 -7.07525 -0.285199 0
M  V30 9254 H 866.769 -5.5366 -1.10094 0
M  V30 9255 N 866.167 -0.267825 -1.55308 0
M  V30 9256 C 867.13 0.60965 -2.20943 0
M  V30 9257 C 868.13 1.0869 -1.18504 0
M  V30 9258 O 869.32 0.988248 -1.43455 0
M  V30 9259 C 866.452 1.84027 -2.86961 0
M  V30 9260 H 867.645 0.0366806 -2.99878 0
M  V30 9261 H 865.198 -0.0183941 -1.56289 0
M  V30 9262 H 865.933 2.45394 -2.1202 0
M  V30 9263 H 865.718 1.50605 -3.62023 0
M  V30 9264 H 867.208 2.46442 -3.37129 0
M  V30 9265 N 867.645 1.57599 0.00500368 0
M  V30 9266 C 868.555 2.11532 1.01446 0
M  V30 9267 C 869.571 1.05941 1.3803 0
M  V30 9268 O 870.747 1.37815 1.46864 0
M  V30 9269 C 867.812 2.60382 2.28915 0
M  V30 9270 C 866.873 3.80554 1.98689 0
M  V30 9271 C 866.106 4.27064 3.20081 0
M  V30 9272 O 866.329 3.72939 4.31593 0
M  V30 9273 O 865.263 5.1927 3.04371 0
M  V30 9274 H 869.089 2.97993 0.586011 0
M  V30 9275 H 866.674 1.47718 0.223519 0
M  V30 9276 H 868.556 2.92024 3.03809 0
M  V30 9277 H 867.231 1.77022 2.71007 0
M  V30 9278 H 866.138 3.53893 1.21286 0
M  V30 9279 H 867.471 4.64972 1.61437 0
M  V30 9280 N 869.123 -0.277682 1.55134 0
M  V30 9281 C 870.055 -1.36531 1.84098 0
M  V30 9282 C 871.068 -1.45756 0.725194 0
M  V30 9283 O 872.257 -1.47656 1.00299 0
M  V30 9284 C 869.357 -2.74701 1.98476 0
M  V30 9285 C 868.53 -2.88125 3.29094 0
M  V30 9286 C 867.589 -4.0694 3.33596 0
M  V30 9287 O 866.615 -3.9792 4.06999 0
M  V30 9288 N 867.817 -5.18687 2.60661 0
M  V30 9289 H 870.582 -1.12032 2.77973 0
M  V30 9290 H 868.143 -0.467793 1.54995 0
M  V30 9291 H 870.135 -3.52471 1.98863 0
M  V30 9292 H 868.705 -2.92043 1.11488 0
M  V30 9293 H 867.925 -1.97277 3.41285 0
M  V30 9294 H 869.213 -2.94021 4.15246 0
M  V30 9295 H 868.611 -5.28901 2.00699 0
M  V30 9296 H 867.168 -5.94705 2.66776 0
M  V30 9297 N 870.601 -1.47988 -0.541979 0
M  V30 9298 C 872.017 -1.33843 -0.869383 0
M  V30 9299 C 872.217 -0.340374 -1.98604 0
M  V30 9300 O 871.273 0.242696 -2.51331 0
M  V30 9301 C 872.586 -2.73568 -1.24823 0
M  V30 9302 C 874.134 -2.81967 -1.3588 0
M  V30 9303 C 874.609 -4.22368 -1.77114 0
M  V30 9304 N 876.1 -4.24983 -1.84237 0
M  V30 9305 C 876.835 -5.30547 -2.17503 0
M  V30 9306 N 876.331 -6.46401 -2.49275 0
M  V30 9307 N 878.124 -5.17933 -2.18406 0
M  V30 9308 H 870.275 -2.11503 0.195001 0
M  V30 9309 H 872.538 -0.947681 0.0245862 0
M  V30 9310 H 872.244 -3.48107 -0.501435 0
M  V30 9311 H 872.118 -3.06322 -2.20106 0
M  V30 9312 H 874.505 -2.07692 -2.09638 0
M  V30 9313 H 874.586 -2.52848 -0.387478 0
M  V30 9314 H 874.23 -4.97155 -1.0392 0
M  V30 9315 H 874.16 -4.48922 -2.75275 0
M  V30 9316 H 876.651 -3.41411 -1.62009 0
M  V30 9317 H 876.964 -7.22698 -2.73729 0
M  V30 9318 H 875.309 -6.49696 -2.46821 0
M  V30 9319 H 878.5 -4.26445 -1.93034 0
M  V30 9320 H 878.673 -6.00307 -2.44 0
M  V30 9321 N 872.079 0.78992 -1.36375 0
M  V30 9322 C 873.307 1.57873 -1.3373 0
M  V30 9323 C 873.722 1.88624 0.0815544 0
M  V30 9324 O 873.079 1.50085 1.03831 0
M  V30 9325 C 873.13 2.90003 -2.15825 0
M  V30 9326 O 872.851 2.60578 -3.5218 0
M  V30 9327 C 874.352 3.84309 -2.20955 0
M  V30 9328 H 871.572 0.489685 -0.458748 0
M  V30 9329 H 874.116 0.980436 -1.79465 0
M  V30 9330 H 872.271 3.46303 -1.73646 0
M  V30 9331 H 872.685 3.4506 -3.95011 0
M  V30 9332 H 874.159 4.74081 -2.82756 0
M  V30 9333 H 874.636 4.22121 -1.21287 0
M  V30 9334 H 875.242 3.33942 -2.63368 0
M  V30 9335 N 873.557 1.20646 1.01402 0
M  V30 9336 C 874.467 0.973385 2.13453 0
M  V30 9337 C 875.483 -0.0715865 1.73853 0
M  V30 9338 O 876.659 0.116438 2.01063 0
M  V30 9339 C 873.724 0.531285 3.42605 0
M  V30 9340 C 872.785 1.64741 3.96433 0
M  V30 9341 C 872.018 1.22631 5.1942 0
M  V30 9342 O 872.241 0.0960891 5.70319 0
M  V30 9343 O 871.175 2.03474 5.66465 0
M  V30 9344 H 875.001 1.91164 2.35987 0
M  V30 9345 H 872.586 0.990553 1.11841 0
M  V30 9346 H 874.468 0.294095 4.20373 0
M  V30 9347 H 873.143 -0.378358 3.21481 0
M  V30 9348 H 872.05 1.93891 3.19933 0
M  V30 9349 H 873.383 2.53415 4.2195 0
M  V30 9350 N 875.035 -1.20752 1.01276 0
M  V30 9351 C 876.26 -1.94547 0.718769 0
M  V30 9352 C 876.685 -1.7404 -0.713563 0
M  V30 9353 O 876.043 -1.03221 -1.49047 0
M  V30 9354 C 876.091 -3.44823 1.05497 0
M  V30 9355 O 875.195 -4.12072 0.164516 0
M  V30 9356 H 874.536 -0.607931 0.267051 0
M  V30 9357 H 877.066 -1.53292 1.35509 0
M  V30 9358 H 877.076 -3.95427 1.00507 0
M  V30 9359 H 875.751 -3.59072 2.09858 0
M  V30 9360 H 874.328 -3.71909 0.271615 0
M  V30 9361 N 876.513 -0.788492 -1.36457 0
M  V30 9362 C 877.741 -0.372365 -2.03522 0
M  V30 9363 C 878.156 1.01093 -1.59454 0
M  V30 9364 O 877.513 1.64824 -0.783535 0
M  V30 9365 C 877.564 -0.425435 -3.58988 0
M  V30 9366 O 877.285 -1.75418 -4.01448 0
M  V30 9367 C 878.786 0.000180167 -4.433 0
M  V30 9368 H 876.006 -0.1536 -0.653183 0
M  V30 9369 H 878.55 -1.06708 -1.74452 0
M  V30 9370 H 876.705 0.220856 -3.8677 0
M  V30 9371 H 877.119 -1.70437 -4.96036 0
M  V30 9372 H 878.593 -0.0880919 -5.5193 0
M  V30 9373 H 879.07 1.05269 -4.26398 0
M  V30 9374 H 879.676 -0.618563 -4.20778 0
M  V30 9375 N 877.991 1.48044 -0.54043 0
M  V30 9376 C 879.402 1.86418 -0.102662 0
M  V30 9377 C 879.753 1.4489 1.32293 0
M  V30 9378 O 878.878 0.844319 1.99249 0
M  V30 9379 C 879.473 3.38324 -0.179533 0
M  V30 9380 C 878.032 3.75852 0.203098 0
M  V30 9381 C 877.179 2.72097 -0.534637 0
M  V30 9382 H 880.13 1.398 -0.751103 0
M  V30 9383 H 880.151 3.75641 0.606147 0
M  V30 9384 H 879.663 3.68518 -1.21721 0
M  V30 9385 H 877.764 3.51272 1.24252 0
M  V30 9386 H 877.877 4.78884 -0.143784 0
M  V30 9387 H 876.241 2.54692 0.0203358 0
M  V30 9388 H 877.024 3.05135 -1.57314 0
M  V30 9389 N 879.47 0.276058 1.55163 0
M  V30 9390 C 880.719 -0.341098 1.98795 0
M  V30 9391 C 881.032 -1.56905 1.16791 0
M  V30 9392 O 882.238 -2.25922 1.50571 0
M  V30 9393 C 880.694 -0.658231 3.5383 0
M  V30 9394 C 880.302 0.549972 4.44611 0
M  V30 9395 C 882.046 -1.23796 4.06048 0
M  V30 9396 C 879.953 0.207373 5.91036 0
M  V30 9397 H 878.883 -0.131224 0.742493 0
M  V30 9398 H 881.534 0.380858 1.79504 0
M  V30 9399 H 879.916 -1.43911 3.68925 0
M  V30 9400 H 881.09 1.32681 4.41285 0
M  V30 9401 H 879.405 1.04661 4.03032 0
M  V30 9402 H 882.002 -1.50811 5.12991 0
M  V30 9403 H 882.345 -2.17214 3.55139 0
M  V30 9404 H 882.878 -0.519345 3.94395 0
M  V30 9405 H 879.617 1.10946 6.46043 0
M  V30 9406 H 879.137 -0.532687 5.9743 0
M  V30 9407 H 880.816 -0.200072 6.46691 0
M  V30 9408 N 880.948 -1.576 0.00335426 0
M  V30 9409 C 882.176 -1.94996 -0.691685 0
M  V30 9410 C 882.591 -0.878405 -1.67121 0
M  V30 9411 O 881.948 0.142343 -1.81944 0
M  V30 9412 C 881.999 -3.32416 -1.42063 0
M  V30 9413 O 881.72 -4.35458 -0.48038 0
M  V30 9414 C 883.221 -3.84291 -2.20987 0
M  V30 9415 H 880.441 -0.642814 -0.192434 0
M  V30 9416 H 882.985 -2.04425 0.0554706 0
M  V30 9417 H 881.14 -3.24285 -2.11939 0
M  V30 9418 H 881.554 -5.14975 -0.995054 0
M  V30 9419 H 883.028 -4.82863 -2.67483 0
M  V30 9420 H 883.505 -3.17174 -3.03805 0
M  V30 9421 H 884.111 -3.95609 -1.56121 0
M  V30 9422 N 882.426 0.269451 -1.5528 0
M  V30 9423 C 883.389 1.31642 -1.87625 0
M  V30 9424 C 884.389 1.42182 -0.751058 0
M  V30 9425 O 885.579 1.41272 -1.01921 0
M  V30 9426 C 882.711 2.6973 -2.08467 0
M  V30 9427 H 883.904 1.0419 -2.81219 0
M  V30 9428 H 881.457 0.507685 -1.47825 0
M  V30 9429 H 882.192 3.02356 -1.17266 0
M  V30 9430 H 881.977 2.63465 -2.90394 0
M  V30 9431 H 883.467 3.4537 -2.34753 0
M  V30 9432 N 883.904 1.48273 0.534124 0
M  V30 9433 C 885.15 1.56311 1.29208 0
M  V30 9434 C 885.483 0.234481 1.92779 0
M  V30 9435 O 884.758 -0.759143 1.79073 0
M  V30 9436 C 885.041 2.69831 2.3846 0
M  V30 9437 C 884.894 4.12385 1.79608 0
M  V30 9438 C 886.213 2.79133 3.40254 0
M  V30 9439 H 883.332 0.56899 0.468422 0
M  V30 9440 H 885.974 1.80429 0.595438 0
M  V30 9441 H 884.124 2.49397 2.97881 0
M  V30 9442 H 885.796 4.44246 1.24269 0
M  V30 9443 H 884.039 4.19579 1.10162 0
M  V30 9444 H 884.71 4.87629 2.58693 0
M  V30 9445 H 887.186 2.97632 2.90783 0
M  V30 9446 H 886.062 3.60298 4.14097 0
M  V30 9447 H 886.323 1.87122 4.00547 0
M  V30 9448 N 885.382 -0.782676 1.36792 0
M  V30 9449 C 886.329 -1.89558 1.31667 0
M  V30 9450 C 887.299 -1.65076 0.184147 0
M  V30 9451 O 888.484 -1.87143 0.371753 0
M  V30 9452 C 885.624 -3.26469 1.11858 0
M  V30 9453 C 884.737 -3.62978 2.34245 0
M  V30 9454 C 883.872 -4.89041 2.07394 0
M  V30 9455 C 882.911 -5.18249 3.25706 0
M  V30 9456 N 882.048 -6.35497 2.98476 0
M  V30 9457 H 886.888 -1.93274 2.26824 0
M  V30 9458 H 884.425 -0.945057 1.12726 0
M  V30 9459 H 886.383 -4.05431 0.983968 0
M  V30 9460 H 885.013 -3.22158 0.203531 0
M  V30 9461 H 884.065 -2.79087 2.58485 0
M  V30 9462 H 885.377 -3.80507 3.22514 0
M  V30 9463 H 884.531 -5.75883 1.90901 0
M  V30 9464 H 883.27 -4.73594 1.16446 0
M  V30 9465 H 882.275 -4.29887 3.4275 0
M  V30 9466 H 883.5 -5.35611 4.1749 0
M  V30 9467 H 881.446 -6.21429 2.10146 0
M  V30 9468 H 881.363 -6.5339 3.80286 0
M  V30 9469 H 882.631 -7.25304 2.85577 0
M  V30 9470 N 886.86 -1.21182 -1.00761 0
M  V30 9471 C 887.792 -0.926523 -2.09638 0
M  V30 9472 C 888.805 0.0892511 -1.62555 0
M  V30 9473 O 889.994 -0.142915 -1.77927 0
M  V30 9474 C 887.094 -0.369175 -3.36883 0
M  V30 9475 C 886.267 -1.43866 -4.13063 0
M  V30 9476 C 885.326 -0.891015 -5.18601 0
M  V30 9477 O 884.352 -1.57384 -5.47009 0
M  V30 9478 N 885.554 0.295057 -5.7975 0
M  V30 9479 H 888.319 -1.8638 -2.34697 0
M  V30 9480 H 885.88 -1.11671 -1.17223 0
M  V30 9481 H 887.872 0.011534 -4.04698 0
M  V30 9482 H 886.442 0.472861 -3.09003 0
M  V30 9483 H 885.662 -1.99332 -3.40089 0
M  V30 9484 H 886.95 -2.15866 -4.60738 0
M  V30 9485 H 886.348 0.8669 -5.59018 0
M  V30 9486 H 884.905 0.617306 -6.4887 0
M  V30 9487 N 888.338 1.20213 -1.01915 0
M  V30 9488 C 889.749 1.7136 -0.741131 0
M  V30 9489 C 890.1 1.81705 0.740107 0
M  V30 9490 O 889.225 1.48139 1.57746 0
M  V30 9491 C 889.82 3.11231 -1.33869 0
M  V30 9492 C 888.379 3.59677 -1.10948 0
M  V30 9493 C 887.526 2.36809 -1.4428 0
M  V30 9494 H 890.477 1.05191 -1.1883 0
M  V30 9495 H 890.498 3.7342 -0.730585 0
M  V30 9496 H 890.01 3.03669 -2.41675 0
M  V30 9497 H 888.111 3.72568 -0.0492052 0
M  V30 9498 H 888.224 4.44351 -1.79134 0
M  V30 9499 H 886.588 2.39674 -0.861881 0
M  V30 9500 H 887.371 2.31886 -2.53148 0
M  V30 9501 N 889.816 0.795718 1.36037 0
M  V30 9502 C 890.726 0.199784 2.33748 0
M  V30 9503 C 891.742 -0.651436 1.61345 0
M  V30 9504 O 892.918 -0.565743 1.93291 0
M  V30 9505 C 889.983 -0.650475 3.40543 0
M  V30 9506 C 889.044 0.219974 4.28736 0
M  V30 9507 C 888.277 -0.589798 5.30431 0
M  V30 9508 O 888.5 -1.82532 5.40406 0
M  V30 9509 O 887.434 0.0136187 6.01898 0
M  V30 9510 H 891.26 1.00782 2.8649 0
M  V30 9511 H 888.845 0.557293 1.38617 0
M  V30 9512 H 890.727 -1.13512 4.05824 0
M  V30 9513 H 889.402 -1.4363 2.9009 0
M  V30 9514 H 888.309 0.751516 3.66474 0
M  V30 9515 H 889.642 0.969468 4.82558 0
M  V30 9516 N 891.294 -1.47756 0.548274 0
M  V30 9517 C 892.241 -2.29893 -0.204408 0
M  V30 9518 C 893.211 -1.38509 -0.916761 0
M  V30 9519 O 894.396 -1.67472 -0.91421 0
M  V30 9520 C 891.536 -3.22282 -1.23403 0
M  V30 9521 C 890.649 -4.28753 -0.528654 0
M  V30 9522 C 889.784 -5.08303 -1.54279 0
M  V30 9523 C 888.823 -6.06557 -0.821893 0
M  V30 9524 N 887.96 -6.79098 -1.78243 0
M  V30 9525 H 892.8 -2.93739 0.502163 0
M  V30 9526 H 890.337 -1.44793 0.259471 0
M  V30 9527 H 892.295 -3.74262 -1.84348 0
M  V30 9528 H 890.925 -2.6032 -1.90875 0
M  V30 9529 H 889.977 -3.79899 0.195132 0
M  V30 9530 H 891.289 -4.98787 0.0365066 0
M  V30 9531 H 890.443 -5.64388 -2.22602 0
M  V30 9532 H 889.182 -4.3815 -2.14186 0
M  V30 9533 H 888.187 -5.49659 -0.12469 0
M  V30 9534 H 889.412 -6.78715 -0.228685 0
M  V30 9535 H 887.358 -6.11682 -2.37025 0
M  V30 9536 H 887.275 -7.4527 -1.26919 0
M  V30 9537 H 888.543 -7.39762 -2.45709 0
M  V30 9538 N 892.772 -0.284283 -1.55015 0
M  V30 9539 C 894.018 0.330352 -2.00091 0
M  V30 9540 C 894.351 1.54814 -1.17244 0
M  V30 9541 O 893.626 1.92954 -0.244753 0
M  V30 9542 C 893.909 0.703492 -3.53161 0
M  V30 9543 C 893.762 -0.522275 -4.46758 0
M  V30 9544 C 895.081 1.53645 -4.12409 0
M  V30 9545 H 892.2 0.118599 -0.727395 0
M  V30 9546 H 894.842 -0.393054 -1.8589 0
M  V30 9547 H 892.992 1.31983 -3.65394 0
M  V30 9548 H 894.664 -1.16082 -4.46456 0
M  V30 9549 H 892.907 -1.15865 -4.1804 0
M  V30 9550 H 893.578 -0.217295 -5.51572 0
M  V30 9551 H 896.054 1.01583 -4.0351 0
M  V30 9552 H 894.93 1.76633 -5.19704 0
M  V30 9553 H 895.191 2.5204 -3.63219 0
M  V30 9554 N 894.251 1.57596 -0.0117121 0
M  V30 9555 C 895.214 2.08089 0.960816 0
M  V30 9556 C 896.214 0.992519 1.26514 0
M  V30 9557 O 897.404 1.25475 1.20837 0
M  V30 9558 C 894.536 2.53217 2.28241 0
M  V30 9559 H 895.729 2.9529 0.523829 0
M  V30 9560 H 893.282 1.54508 0.235995 0
M  V30 9561 H 894.017 1.69294 2.76604 0
M  V30 9562 H 893.802 3.32714 2.0747 0
M  V30 9563 H 895.292 2.92568 2.97983 0
M  V30 9564 N 895.729 -0.261212 1.5542 0
M  V30 9565 C 896.692 -1.30645 1.8832 0
M  V30 9566 C 897.692 -1.41782 0.758588 0
M  V30 9567 O 898.882 -1.40729 1.02669 0
M  V30 9568 C 896.014 -2.6862 2.09895 0
M  V30 9569 H 897.207 -1.02698 2.81768 0
M  V30 9570 H 894.76 -0.499838 1.48092 0
M  V30 9571 H 895.495 -3.0173 1.18868 0
M  V30 9572 H 895.28 -2.61921 2.91787 0
M  V30 9573 H 896.77 -3.44121 2.36581 0
M  V30 9574 N 897.207 -1.48554 -0.526253 0
M  V30 9575 C 898.435 -1.60429 -1.30652 0
M  V30 9576 C 898.85 -0.265963 -1.86917 0
M  V30 9577 O 898.207 0.745262 -1.6659 0
M  V30 9578 C 898.258 -2.65377 -2.45473 0
M  V30 9579 O 897.979 -3.94017 -1.91527 0
M  V30 9580 C 899.48 -2.87726 -3.37237 0
M  V30 9581 H 896.7 -0.540817 -0.397187 0
M  V30 9582 H 899.244 -1.94409 -0.634461 0
M  V30 9583 H 897.399 -2.34246 -3.08557 0
M  V30 9584 H 897.813 -4.51623 -2.66715 0
M  V30 9585 H 899.287 -3.64951 -4.14144 0
M  V30 9586 H 899.764 -1.96688 -3.92696 0
M  V30 9587 H 900.37 -3.20176 -2.79942 0
M  V30 9588 N 898.685 0.775411 -1.37205 0
M  V30 9589 C 900.101 1.07546 -1.17924 0
M  V30 9590 C 900.301 2.01496 -0.0128897 0
M  V30 9591 O 899.357 2.44039 0.64816 0
M  V30 9592 C 900.67 1.67647 -2.49629 0
M  V30 9593 C 902.218 1.79923 -2.56119 0
M  V30 9594 C 902.693 2.43438 -3.87946 0
M  V30 9595 N 904.184 2.50893 -3.89368 0
M  V30 9596 C 904.919 3.00881 -4.88117 0
M  V30 9597 N 904.415 3.5107 -5.97262 0
M  V30 9598 N 906.208 2.99722 -4.75524 0
M  V30 9599 H 898.359 0.151524 -2.11859 0
M  V30 9600 H 900.622 0.129845 -0.939066 0
M  V30 9601 H 900.328 1.06082 -3.3532 0
M  V30 9602 H 900.202 2.66988 -2.66453 0
M  V30 9603 H 902.589 2.40621 -1.70838 0
M  V30 9604 H 902.67 0.793482 -2.43182 0
M  V30 9605 H 902.314 1.8338 -4.73639 0
M  V30 9606 H 902.244 3.44611 -3.98184 0
M  V30 9607 H 904.735 2.1537 -3.10522 0
M  V30 9608 H 905.048 3.87604 -6.68568 0
M  V30 9609 H 903.393 3.49184 -6.00912 0
M  V30 9610 H 906.584 2.5981 -3.8938 0
M  V30 9611 H 906.757 3.38369 -5.52639 0
M  V30 9612 N 900.163 1.21714 1.00117 0
M  V30 9613 C 901.095 0.937627 2.09144 0
M  V30 9614 C 902.108 -0.0806291 1.626 0
M  V30 9615 O 903.297 0.152348 1.77849 0
M  V30 9616 C 900.397 0.387036 3.36683 0
M  V30 9617 C 899.57 1.46054 4.12295 0
M  V30 9618 C 898.629 0.918505 5.18122 0
M  V30 9619 O 897.655 1.60282 5.46167 0
M  V30 9620 N 898.857 -0.264308 5.79898 0
M  V30 9621 H 901.622 1.87622 2.33705 0
M  V30 9622 H 899.183 1.12291 1.16629 0
M  V30 9623 H 901.175 0.00992825 4.04699 0
M  V30 9624 H 899.745 -0.456467 3.09249 0
M  V30 9625 H 898.965 2.01133 3.39027 0
M  V30 9626 H 900.253 2.18306 4.59587 0
M  V30 9627 H 899.651 -0.837242 5.5947 0
M  V30 9628 H 898.208 -0.582886 6.49188 0
M  V30 9629 N 901.641 -1.19671 1.02551 0
M  V30 9630 C 902.551 -2.26441 0.613329 0
M  V30 9631 C 903.567 -1.70375 -0.353339 0
M  V30 9632 O 904.743 -2.0028 -0.212064 0
M  V30 9633 C 901.808 -3.46684 -0.0329028 0
M  V30 9634 C 900.869 -4.17945 0.980837 0
M  V30 9635 C 900.102 -5.32448 0.36535 0
M  V30 9636 O 900.325 -5.64291 -0.832596 0
M  V30 9637 O 899.259 -5.92012 1.08652 0
M  V30 9638 H 903.085 -2.63932 1.50246 0
M  V30 9639 H 900.67 -1.2646 0.795502 0
M  V30 9640 H 902.552 -4.1956 -0.393395 0
M  V30 9641 H 901.227 -3.1105 -0.896089 0
M  V30 9642 H 900.134 -3.47204 1.39286 0
M  V30 9643 H 901.467 -4.57542 1.81428 0
M  V30 9644 N 903.119 -0.802921 -1.35613 0
M  V30 9645 C 904.368 -0.378087 -1.98125 0
M  V30 9646 C 904.681 1.05953 -1.64418 0
M  V30 9647 O 905.887 1.58729 -2.20266 0
M  V30 9648 C 904.343 -0.625077 -3.5443 0
M  V30 9649 C 903.951 -2.07499 -3.97049 0
M  V30 9650 C 905.695 -0.265419 -4.23669 0
M  V30 9651 C 903.602 -2.26793 -5.46186 0
M  V30 9652 H 902.532 -0.137633 -0.741332 0
M  V30 9653 H 905.183 -0.986461 -1.54729 0
M  V30 9654 H 903.565 0.0531975 -3.95964 0
M  V30 9655 H 904.739 -2.79077 -3.66678 0
M  V30 9656 H 903.054 -2.39417 -3.40688 0
M  V30 9657 H 905.651 -0.387669 -5.33293 0
M  V30 9658 H 905.994 0.787994 -4.08774 0
M  V30 9659 H 906.527 -0.897464 -3.87544 0
M  V30 9660 H 903.266 -3.30566 -5.66045 0
M  V30 9661 H 902.786 -1.59735 -5.78139 0
M  V30 9662 H 904.465 -2.08165 -6.12598 0
M  V30 9663 N 904.597 1.47463 -0.556102 0
M  V30 9664 C 905.844 2.02475 -0.0316337 0
M  V30 9665 C 906.172 1.43057 1.31777 0
M  V30 9666 O 905.427 0.575376 1.87051 0
M  V30 9667 C 905.726 3.57224 0.112126 0
M  V30 9668 C 905.392 4.35557 -1.16624 0
M  V30 9669 C 904.054 4.56678 -1.51654 0
M  V30 9670 C 906.406 4.8074 -2.01342 0
M  V30 9671 C 903.734 5.20231 -2.7125 0
M  V30 9672 C 906.086 5.45613 -3.2014 0
M  V30 9673 C 904.75 5.64967 -3.55484 0
M  V30 9674 H 904.02 0.74091 -0.0115756 0
M  V30 9675 H 906.667 1.77148 -0.727392 0
M  V30 9676 H 904.972 3.81538 0.890842 0
M  V30 9677 H 906.669 3.97438 0.533261 0
M  V30 9678 H 903.259 4.19395 -0.883489 0
M  V30 9679 H 907.443 4.64201 -1.75587 0
M  V30 9680 H 902.699 5.3341 -2.98804 0
M  V30 9681 H 906.873 5.79587 -3.86073 0
M  V30 9682 H 904.5 6.13984 -4.4825 0
M  V30 9683 N 906.075 0.2925 1.54862 0
M  V30 9684 C 907.007 -0.620889 2.2063 0
M  V30 9685 C 908.02 -1.10412 1.19637 0
M  V30 9686 O 909.209 -1.02304 1.46274 0
M  V30 9687 C 906.309 -1.861 2.83232 0
M  V30 9688 C 905.482 -1.52168 4.10078 0
M  V30 9689 C 904.541 -2.61605 4.56562 0
M  V30 9690 O 903.567 -2.27056 5.21952 0
M  V30 9691 N 904.769 -3.9199 4.28163 0
M  V30 9692 H 907.534 -0.0579028 2.99644 0
M  V30 9693 H 905.095 0.114333 1.61496 0
M  V30 9694 H 907.087 -2.58642 3.11266 0
M  V30 9695 H 905.657 -2.33259 2.08108 0
M  V30 9696 H 904.877 -0.629283 3.89145 0
M  V30 9697 H 906.165 -1.27023 4.92689 0
M  V30 9698 H 905.563 -4.22872 3.7576 0
M  V30 9699 H 904.12 -4.60857 4.60928 0
M  V30 9700 N 907.553 -1.57587 0.0200696 0
M  V30 9701 C 908.463 -2.13119 -0.980676 0
M  V30 9702 C 909.479 -1.08124 -1.36328 0
M  V30 9703 O 910.655 -1.40134 -1.44653 0
M  V30 9704 C 907.72 -2.63991 -2.24743 0
M  V30 9705 C 906.781 -3.83667 -1.9261 0
M  V30 9706 C 906.014 -4.32103 -3.13246 0
M  V30 9707 O 906.237 -3.79758 -4.25606 0
M  V30 9708 O 905.171 -5.24047 -2.96072 0
M  V30 9709 H 908.997 -2.98887 -0.538528 0
M  V30 9710 H 906.582 -1.48055 -0.19999 0
M  V30 9711 H 908.464 -2.9682 -2.99125 0
M  V30 9712 H 907.139 -1.81311 -2.68157 0
M  V30 9713 H 906.046 -3.55778 -1.15641 0
M  V30 9714 H 907.379 -4.67482 -1.54019 0
M  V30 9715 N 909.032 0.252966 -1.55557 0
M  V30 9716 C 909.964 1.33585 -1.86246 0
M  V30 9717 C 910.977 1.44584 -0.748291 0
M  V30 9718 O 912.166 1.46042 -1.02635 0
M  V30 9719 C 909.266 2.71509 -2.02821 0
M  V30 9720 C 908.439 2.82853 -3.33636 0
M  V30 9721 C 907.498 4.01581 -3.40028 0
M  V30 9722 O 906.524 3.91394 -4.13278 0
M  V30 9723 N 907.726 5.14474 -2.6888 0
M  V30 9724 H 910.491 1.07596 -2.7972 0
M  V30 9725 H 908.052 0.443075 -1.55719 0
M  V30 9726 H 910.044 3.49262 -2.04445 0
M  V30 9727 H 908.614 2.90232 -1.1612 0
M  V30 9728 H 907.834 1.91823 -3.4438 0
M  V30 9729 H 909.122 2.87378 -4.19871 0
M  V30 9730 H 908.52 5.25641 -2.09087 0
M  V30 9731 H 907.077 5.90385 -2.76204 0
M  V30 9732 N 910.51 1.48831 0.518367 0
M  V30 9733 C 911.44 1.67119 1.63075 0
M  V30 9734 C 912.421 0.519948 1.61958 0
M  V30 9735 O 913.606 0.753824 1.78972 0
M  V30 9736 C 910.736 1.72158 3.01627 0
M  V30 9737 C 909.69 2.86898 3.17606 0
M  V30 9738 C 909.016 2.77035 4.57335 0
M  V30 9739 C 910.316 4.28057 2.99274 0
M  V30 9740 H 912.01 2.60248 1.48025 0
M  V30 9741 H 909.556 1.2524 0.710694 0
M  V30 9742 H 911.509 1.83539 3.7933 0
M  V30 9743 H 910.233 0.756157 3.17726 0
M  V30 9744 H 908.892 2.75091 2.42323 0
M  V30 9745 H 908.54 1.78438 4.70286 0
M  V30 9746 H 908.24 3.54036 4.6897 0
M  V30 9747 H 909.764 2.904 5.37122 0
M  V30 9748 H 911.178 4.40636 3.6676 0
M  V30 9749 H 909.575 5.06145 3.22393 0
M  V30 9750 H 910.645 4.4371 1.95574 0
M  V30 9751 N 911.988 -0.768124 1.37614 0
M  V30 9752 C 912.951 -1.86314 1.3349 0
M  V30 9753 C 913.951 -1.59025 0.23823 0
M  V30 9754 O 915.141 -1.6704 0.494288 0
M  V30 9755 C 912.273 -3.23519 1.07462 0
M  V30 9756 H 913.466 -1.91382 2.30896 0
M  V30 9757 H 911.019 -0.968267 1.22696 0
M  V30 9758 H 911.754 -3.24127 0.106028 0
M  V30 9759 H 911.539 -3.44719 1.86846 0
M  V30 9760 H 913.029 -4.03597 1.07236 0
M  V30 9761 N 913.466 -1.22244 -0.994698 0
M  V30 9762 C 914.429 -0.992308 -2.06606 0
M  V30 9763 C 915.429 0.0405872 -1.60749 0
M  V30 9764 O 916.619 -0.197737 -1.73074 0
M  V30 9765 C 913.751 -0.498499 -3.37236 0
M  V30 9766 H 914.944 -1.9429 -2.28455 0
M  V30 9767 H 912.497 -1.04087 -1.166 0
M  V30 9768 H 913.232 0.456531 -3.21071 0
M  V30 9769 H 913.017 -1.24367 -3.71854 0
M  V30 9770 H 914.507 -0.35768 -4.16065 0
M  V30 9771 N 914.944 1.19125 -1.03184 0
M  V30 9772 C 916.19 1.89163 -0.731111 0
M  V30 9773 C 916.523 1.79604 0.738662 0
M  V30 9774 O 915.798 1.19037 1.53819 0
M  V30 9775 C 916.081 3.39986 -1.18666 0
M  V30 9776 C 915.934 3.58401 -2.71788 0
M  V30 9777 C 917.253 4.33316 -0.769772 0
M  V30 9778 H 914.372 0.686908 -0.267069 0
M  V30 9779 H 917.014 1.40205 -1.28229 0
M  V30 9780 H 915.164 3.81813 -0.717736 0
M  V30 9781 H 916.836 3.25727 -3.26649 0
M  V30 9782 H 915.079 3.01355 -3.12038 0
M  V30 9783 H 915.75 4.64189 -2.98719 0
M  V30 9784 H 918.226 3.9922 -1.17314 0
M  V30 9785 H 917.102 5.37427 -1.11637 0
M  V30 9786 H 917.363 4.40884 0.327681 0
M  V30 9787 N 916.422 0.810101 1.35185 0
M  V30 9788 C 917.833 0.452616 1.81131 0
M  V30 9789 C 918.184 -1.02573 1.67252 0
M  V30 9790 O 917.309 -1.79735 1.20516 0
M  V30 9791 C 917.904 0.814775 3.28857 0
M  V30 9792 C 916.463 0.509839 3.72931 0
M  V30 9793 C 915.61 1.03852 2.57119 0
M  V30 9794 H 918.561 1.00143 1.23114 0
M  V30 9795 H 918.582 0.113635 3.8033 0
M  V30 9796 H 918.094 1.89078 3.38926 0
M  V30 9797 H 916.195 -0.557289 3.68409 0
M  V30 9798 H 916.308 1.04493 4.67566 0
M  V30 9799 H 914.672 0.460671 2.50499 0
M  V30 9800 H 915.455 2.12071 2.69964 0
M  V30 9801 N 917.9 -1.47166 0.563914 0
M  V30 9802 C 918.81 -2.33885 -0.182977 0
M  V30 9803 C 919.826 -1.48605 -0.905132 0
M  V30 9804 O 921.002 -1.81518 -0.872527 0
M  V30 9805 C 918.067 -3.25433 -1.19558 0
M  V30 9806 C 917.128 -4.26607 -0.480129 0
M  V30 9807 C 916.361 -5.1378 -1.44449 0
M  V30 9808 O 916.584 -5.03531 -2.67979 0
M  V30 9809 O 915.518 -5.94109 -0.965321 0
M  V30 9810 H 919.344 -2.99065 0.528544 0
M  V30 9811 H 916.929 -1.45834 0.324468 0
M  V30 9812 H 918.811 -3.81964 -1.77993 0
M  V30 9813 H 917.486 -2.62873 -1.8889 0
M  V30 9814 H 916.393 -3.73817 0.145583 0
M  V30 9815 H 917.726 -4.919 0.171868 0
M  V30 9816 N 919.378 -0.300708 -1.54705 0
M  V30 9817 C 920.625 0.308654 -2.00134 0
M  V30 9818 C 920.953 1.53918 -1.1891 0
M  V30 9819 O 920.208 1.94054 -0.253263 0
M  V30 9820 C 920.507 0.710108 -3.50275 0
M  V30 9821 C 920.173 -0.418651 -4.48952 0
M  V30 9822 C 918.835 -0.728524 -4.75653 0
M  V30 9823 C 921.187 -1.17797 -5.07714 0
M  V30 9824 C 918.515 -1.80085 -5.58378 0
M  V30 9825 C 920.867 -2.24022 -5.91606 0
M  V30 9826 C 919.531 -2.55616 -6.16617 0
M  V30 9827 H 918.801 0.112945 -0.732342 0
M  V30 9828 H 921.448 -0.419744 -1.86843 0
M  V30 9829 H 919.753 1.51859 -3.61173 0
M  V30 9830 H 921.45 1.19277 -3.8285 0
M  V30 9831 H 918.04 -0.167034 -4.28274 0
M  V30 9832 H 922.224 -0.951835 -4.87087 0
M  V30 9833 H 917.48 -2.05036 -5.75995 0
M  V30 9834 H 921.654 -2.83317 -6.36164 0
M  V30 9835 H 919.281 -3.38839 -6.80509 0
M  V30 9836 N 920.856 1.57574 -0.0284266 0
M  V30 9837 C 922.272 1.56194 0.327958 0
M  V30 9838 C 922.472 1.03397 1.72949 0
M  V30 9839 O 921.528 0.680392 2.4316 0
M  V30 9840 C 922.841 3.00177 0.177196 0
M  V30 9841 C 924.389 3.12 0.250014 0
M  V30 9842 C 924.864 4.57821 0.128049 0
M  V30 9843 N 926.355 4.6283 0.185054 0
M  V30 9844 C 927.09 5.73286 0.114454 0
M  V30 9845 N 926.586 6.928 -0.00719225 0
M  V30 9846 N 928.379 5.61848 0.16839 0
M  V30 9847 H 920.53 1.90224 -0.944921 0
M  V30 9848 H 922.793 0.874987 -0.364832 0
M  V30 9849 H 922.499 3.42753 -0.788224 0
M  V30 9850 H 922.373 3.65101 0.94768 0
M  V30 9851 H 924.76 2.69337 1.20589 0
M  V30 9852 H 924.841 2.49799 -0.550835 0
M  V30 9853 H 924.485 5.01165 -0.824407 0
M  V30 9854 H 924.415 5.18001 0.947753 0
M  V30 9855 H 926.906 3.76867 0.279247 0
M  V30 9856 H 927.219 7.72781 -0.0543903 0
M  V30 9857 H 925.564 6.94987 -0.0419648 0
M  V30 9858 H 928.755 4.67367 0.261821 0
M  V30 9859 H 928.928 6.47907 0.109908 0
M  V30 9860 N 922.334 -0.244713 1.55689 0
M  V30 9861 C 923.582 -0.970525 1.77272 0
M  V30 9862 C 923.903 -1.85771 0.592804 0
M  V30 9863 O 923.173 -1.91952 -0.391323 0
M  V30 9864 H 921.753 -0.361342 0.653789 0
M  V30 9865 H 924.415 -0.262134 1.93129 0
M  V30 9866 H 923.511 -1.59096 2.68505 0
M  V30 9867 N 923.813 -1.49104 -0.510467 0
M  V30 9868 C 924.743 -1.67981 -1.62187 0
M  V30 9869 C 925.724 -0.528529 -1.6168 0
M  V30 9870 O 926.909 -0.763305 -1.7857 0
M  V30 9871 C 924.039 -1.73755 -3.0071 0
M  V30 9872 C 922.993 -2.88579 -3.1608 0
M  V30 9873 C 922.319 -2.79457 -4.5586 0
M  V30 9874 C 923.619 -4.29638 -2.97 0
M  V30 9875 H 925.313 -2.61029 -1.46643 0
M  V30 9876 H 922.859 -1.25615 -0.704042 0
M  V30 9877 H 924.812 -1.85548 -3.78352 0
M  V30 9878 H 923.536 -0.772996 -3.17321 0
M  V30 9879 H 922.195 -2.76372 -2.40861 0
M  V30 9880 H 921.843 -1.80929 -4.69333 0
M  V30 9881 H 921.543 -3.56518 -4.67086 0
M  V30 9882 H 923.067 -2.93245 -5.35574 0
M  V30 9883 H 924.481 -4.42575 -3.64418 0
M  V30 9884 H 922.878 -5.07847 -3.19704 0
M  V30 9885 H 923.948 -4.44741 -1.93219 0
M  V30 9886 N 925.291 0.760815 -1.38019 0
M  V30 9887 C 926.539 1.51673 -1.33566 0
M  V30 9888 C 926.86 1.94852 0.076024 0
M  V30 9889 O 926.13 1.67112 1.02227 0
M  V30 9890 H 924.71 0.562581 -0.491438 0
M  V30 9891 H 927.372 0.904832 -1.72623 0
M  V30 9892 H 926.468 2.41102 -1.98182 0
M  V30 9893 N 926.769 1.22769 0.988202 0
M  V30 9894 C 928.18 1.0512 1.54294 0
M  V30 9895 C 928.531 -0.383904 1.92407 0
M  V30 9896 O 927.656 -1.26955 1.75246 0
M  V30 9897 C 928.251 1.90198 2.80375 0
M  V30 9898 C 926.81 1.76831 3.32276 0
M  V30 9899 C 925.957 1.86377 2.05326 0
M  V30 9900 H 928.908 1.36546 0.808758 0
M  V30 9901 H 928.929 1.42216 3.52923 0
M  V30 9902 H 928.441 2.9464 2.52605 0
M  V30 9903 H 926.542 0.751412 3.64945 0
M  V30 9904 H 926.655 2.59771 4.02562 0
M  V30 9905 H 925.019 1.2987 2.19103 0
M  V30 9906 H 925.802 2.9236 1.79946 0
M  V30 9907 N 928.247 -1.18576 1.03814 0
M  V30 9908 C 929.177 -2.24334 0.647795 0
M  V30 9909 C 930.158 -1.66508 -0.34774 0
M  V30 9910 O 931.343 -1.92852 -0.228401 0
M  V30 9911 C 928.473 -3.47299 0.00734922 0
M  V30 9912 C 927.427 -4.17859 0.926152 0
M  V30 9913 C 926.753 -5.34489 0.150317 0
M  V30 9914 C 928.053 -4.71632 2.24411 0
M  V30 9915 H 929.747 -2.57241 1.53191 0
M  V30 9916 H 927.293 -1.23649 0.738028 0
M  V30 9917 H 929.246 -4.20486 -0.277434 0
M  V30 9918 H 927.97 -3.13619 -0.911626 0
M  V30 9919 H 926.629 -3.46567 1.19528 0
M  V30 9920 H 926.277 -4.97056 -0.770985 0
M  V30 9921 H 925.977 -5.82633 0.762407 0
M  V30 9922 H 927.501 -6.10467 -0.127508 0
M  V30 9923 H 928.915 -5.36526 2.02021 0
M  V30 9924 H 927.312 -5.303 2.80894 0
M  V30 9925 H 928.382 -3.89192 2.89236 0
M  V30 9926 N 929.725 -0.817259 -1.34754 0
M  V30 9927 C 930.972 -0.402648 -1.98457 0
M  V30 9928 C 931.3 1.03287 -1.64809 0
M  V30 9929 O 930.555 1.73316 -0.908851 0
M  V30 9930 C 930.854 -0.5453 -3.53216 0
M  V30 9931 C 930.52 -1.9457 -4.06759 0
M  V30 9932 C 929.182 -2.32881 -4.21094 0
M  V30 9933 C 931.534 -2.86141 -4.35629 0
M  V30 9934 C 928.862 -3.62108 -4.61622 0
M  V30 9935 C 931.214 -4.14826 -4.776 0
M  V30 9936 C 929.878 -4.53121 -4.9014 0
M  V30 9937 H 929.148 -0.147339 -0.726204 0
M  V30 9938 H 931.795 -1.04011 -1.60791 0
M  V30 9939 H 930.1 0.175576 -3.91406 0
M  V30 9940 H 931.797 -0.205112 -4.00475 0
M  V30 9941 H 928.387 -1.6381 -3.96061 0
M  V30 9942 H 932.571 -2.57788 -4.24098 0
M  V30 9943 H 927.827 -3.91613 -4.69521 0
M  V30 9944 H 932.001 -4.85874 -4.98899 0
M  V30 9945 H 929.628 -5.53307 -5.21302 0
M  V30 9946 N 931.203 1.46865 -0.571711 0
M  V30 9947 C 932.15 2.30189 0.167808 0
M  V30 9948 C 933.12 1.3995 0.89461 0
M  V30 9949 O 934.305 1.68905 0.887451 0
M  V30 9950 C 931.445 3.24205 1.1826 0
M  V30 9951 C 930.558 4.2954 0.460376 0
M  V30 9952 C 929.693 5.10693 1.46173 0
M  V30 9953 C 928.732 6.07788 0.725291 0
M  V30 9954 N 927.869 6.81847 1.67417 0
M  V30 9955 H 932.709 2.92902 -0.548831 0
M  V30 9956 H 930.246 1.44362 -0.282474 0
M  V30 9957 H 932.204 3.77147 1.7837 0
M  V30 9958 H 930.834 2.63324 1.86709 0
M  V30 9959 H 929.886 3.79541 -0.255546 0
M  V30 9960 H 931.198 4.98665 -0.115855 0
M  V30 9961 H 930.352 5.67857 2.13595 0
M  V30 9962 H 929.091 4.41502 2.07188 0
M  V30 9963 H 928.096 5.49787 0.037228 0
M  V30 9964 H 929.321 6.78993 0.120678 0
M  V30 9965 H 927.267 6.15376 2.27263 0
M  V30 9966 H 927.184 7.47195 1.15046 0
M  V30 9967 H 928.452 7.43577 2.33908 0
M  V30 9968 N 932.681 0.308908 1.54543 0
M  V30 9969 C 933.906 -0.303196 2.05172 0
M  V30 9970 C 934.331 -1.46133 1.18434 0
M  V30 9971 O 933.689 -1.803 0.190162 0
M  V30 9972 C 933.737 -0.729526 3.53143 0
M  V30 9973 O 932.841 -1.83348 3.69401 0
M  V30 9974 H 932.182 -0.0575066 0.661505 0
M  V30 9975 H 934.712 0.453055 1.99521 0
M  V30 9976 H 934.722 -1.01619 3.95143 0
M  V30 9977 H 933.397 0.117622 4.15734 0
M  V30 9978 H 931.974 -1.54676 3.39308 0
M  V30 9979 N 934.159 -1.57557 0.0367827 0
M  V30 9980 C 935.384 -1.96828 -0.653707 0
M  V30 9981 C 935.809 -0.913559 -1.64425 0
M  V30 9982 O 935.167 0.124749 -1.8087 0
M  V30 9983 C 935.215 -3.35189 -1.32969 0
M  V30 9984 O 934.319 -3.32095 -2.44513 0
M  V30 9985 H 933.66 -0.64157 -0.171124 0
M  V30 9986 H 936.19 -2.04351 0.100912 0
M  V30 9987 H 936.2 -3.71593 -1.68472 0
M  V30 9988 H 934.875 -4.11496 -0.603654 0
M  V30 9989 H 933.452 -3.07418 -2.11065 0
M  V30 9990 N 935.637 0.236453 -1.55816 0
M  V30 9991 C 937.048 0.80468 -1.68469 0
M  V30 9992 C 937.399 1.85601 -0.636133 0
M  V30 9993 O 936.524 2.15323 0.215622 0
M  V30 9994 C 937.119 1.46634 -3.05424 0
M  V30 9995 C 935.678 1.98214 -3.19981 0
M  V30 9996 C 934.825 0.83695 -2.64368 0
M  V30 9997 H 937.776 0.0120647 -1.58695 0
M  V30 9998 H 937.797 2.33472 -3.00451 0
M  V30 9999 H 937.309 0.700931 -3.81718 0
M  V30 10000 H 935.41 2.77604 -2.4853 0
M  V30 10001 H 935.523 2.17235 -4.2702 0
M  V30 10002 H 933.887 1.24028 -2.22462 0
M  V30 10003 H 934.67 0.084451 -3.43196 0
M  V30 10004 N 937.115 1.49373 0.502552 0
M  V30 10005 C 938.025 1.68659 1.63068 0
M  V30 10006 C 939.041 0.569182 1.64427 0
M  V30 10007 O 940.217 0.843695 1.82876 0
M  V30 10008 C 937.282 1.74745 2.99441 0
M  V30 10009 C 936.343 2.98311 3.08721 0
M  V30 10010 C 935.576 3.04097 4.38589 0
M  V30 10011 O 935.799 2.17519 5.27297 0
M  V30 10012 O 934.733 3.96544 4.52809 0
M  V30 10013 H 938.559 2.64226 1.49727 0
M  V30 10014 H 936.144 1.33096 0.67867 0
M  V30 10015 H 938.026 1.8111 3.80496 0
M  V30 10016 H 936.701 0.823565 3.13048 0
M  V30 10017 H 935.608 2.97465 2.2686 0
M  V30 10018 H 936.941 3.90174 3.00041 0
M  V30 10019 N 938.594 -0.753485 1.38421 0
M  V30 10020 C 940.005 -1.33081 1.30944 0
M  V30 10021 C 940.356 -1.96169 -0.0347124 0
M  V30 10022 O 939.481 -1.95073 -0.936768 0
M  V30 10023 C 940.076 -2.41973 2.37138 0
M  V30 10024 C 938.635 -2.95426 2.33239 0
M  V30 10025 C 937.782 -1.68808 2.19998 0
M  V30 10026 H 940.733 -0.552354 1.48777 0
M  V30 10027 H 940.754 -3.21913 2.02859 0
M  V30 10028 H 940.266 -1.96027 3.34956 0
M  V30 10029 H 938.367 -3.45701 1.39003 0
M  V30 10030 H 938.48 -3.49798 3.27381 0
M  V30 10031 H 936.844 -1.92438 1.66852 0
M  V30 10032 H 937.627 -1.24939 3.19758 0
M  V30 10033 N 940.072 -1.23292 -0.981677 0
M  V30 10034 C 941.318 -1.06582 -1.72535 0
M  V30 10035 C 941.651 0.396538 -1.90108 0
M  V30 10036 O 940.926 1.29363 -1.45243 0
M  V30 10037 C 941.209 -1.7904 -3.12437 0
M  V30 10038 C 941.062 -3.32941 -3.02441 0
M  V30 10039 C 942.381 -1.55185 -4.11832 0
M  V30 10040 H 939.5 -0.388585 -0.626236 0
M  V30 10041 H 942.142 -1.51779 -1.14293 0
M  V30 10042 H 940.292 -1.40619 -3.62158 0
M  V30 10043 H 941.964 -3.80875 -2.60254 0
M  V30 10044 H 940.207 -3.62039 -2.38977 0
M  V30 10045 H 940.878 -3.78827 -4.0149 0
M  V30 10046 H 943.354 -1.88581 -3.70913 0
M  V30 10047 H 942.23 -2.08362 -5.07815 0
M  V30 10048 H 942.491 -0.486925 -4.3941 0
M  V30 10049 N 941.55 1.18024 -1.04442 0
M  V30 10050 C 942.513 2.19992 -0.643136 0
M  V30 10051 C 943.513 1.57949 0.301444 0
M  V30 10052 O 944.703 1.73986 0.0863341 0
M  V30 10053 C 941.835 3.40853 0.0565208 0
M  V30 10054 H 943.028 2.57008 -1.54554 0
M  V30 10055 H 940.581 1.31974 -0.837408 0
M  V30 10056 H 941.316 3.09373 0.972553 0
M  V30 10057 H 941.101 3.87128 -0.622439 0
M  V30 10058 H 942.591 4.16344 0.323652 0
M  V30 10059 N 943.028 0.824394 1.34319 0
M  V30 10060 C 943.958 0.262077 2.32025 0
M  V30 10061 C 944.939 -0.622277 1.58309 0
M  V30 10062 O 946.124 -0.548848 1.86283 0
M  V30 10063 C 943.254 -0.57567 3.42496 0
M  V30 10064 C 942.208 0.21167 4.27476 0
M  V30 10065 C 941.534 -0.748913 5.29429 0
M  V30 10066 C 942.834 1.42068 5.02607 0
M  V30 10067 H 944.528 1.07842 2.79304 0
M  V30 10068 H 942.074 0.520022 1.34282 0
M  V30 10069 H 944.027 -0.979251 4.09864 0
M  V30 10070 H 942.751 -1.42508 2.93869 0
M  V30 10071 H 941.41 0.596636 3.61712 0
M  V30 10072 H 941.058 -1.59432 4.77064 0
M  V30 10073 H 940.758 -0.226313 5.87164 0
M  V30 10074 H 942.282 -1.15032 5.99667 0
M  V30 10075 H 943.696 1.09103 5.62823 0
M  V30 10076 H 942.093 1.87903 5.69923 0
M  V30 10077 H 943.163 2.1981 4.32217 0
M  V30 10078 N 944.506 -1.46559 0.579492 0
M  V30 10079 C 945.734 -2.06784 0.0693648 0
M  V30 10080 C 946.149 -1.42875 -1.23419 0
M  V30 10081 O 945.506 -0.532919 -1.74546 0
M  V30 10082 C 945.557 -3.61343 -0.106511 0
M  V30 10083 O 945.278 -4.22861 1.14545 0
M  V30 10084 C 946.779 -4.38489 -0.651359 0
M  V30 10085 H 943.999 -0.66866 0.0559848 0
M  V30 10086 H 946.543 -1.88235 0.799245 0
M  V30 10087 H 944.698 -3.7933 -0.786601 0
M  V30 10088 H 945.112 -5.15691 0.95723 0
M  V30 10089 H 946.586 -5.47237 -0.723615 0
M  V30 10090 H 947.063 -4.06309 -1.66763 0
M  V30 10091 H 947.669 -4.253 -0.0062433 0
M  V30 10092 N 945.984 -0.3171 -1.54377 0
M  V30 10093 C 946.894 0.560867 -2.27797 0
M  V30 10094 C 947.91 1.13473 -1.31908 0
M  V30 10095 O 949.086 1.15608 -1.64914 0
M  V30 10096 C 946.151 1.70886 -3.0166 0
M  V30 10097 C 945.212 1.16745 -4.13121 0
M  V30 10098 C 944.445 2.26073 -4.83453 0
M  V30 10099 O 944.668 3.46292 -4.53252 0
M  V30 10100 O 943.602 1.91856 -5.70504 0
M  V30 10101 H 947.428 -0.035193 -3.0368 0
M  V30 10102 H 945.013 -0.0830062 -1.49169 0
M  V30 10103 H 946.895 2.37736 -3.47936 0
M  V30 10104 H 945.57 2.29122 -2.28658 0
M  V30 10105 H 944.477 0.464224 -3.71209 0
M  V30 10106 H 945.81 0.630307 -4.88147 0
M  V30 10107 N 947.462 1.57535 -0.0451378 0
M  V30 10108 C 948.687 1.97172 0.64326 0
M  V30 10109 C 949.112 0.922266 1.63939 0
M  V30 10110 O 948.47 -0.115155 1.80934 0
M  V30 10111 C 948.518 3.35889 1.3119 0
M  V30 10112 O 947.622 3.33387 2.42748 0
M  V30 10113 H 946.963 0.642469 0.167719 0
M  V30 10114 H 949.493 2.04295 -0.111747 0
M  V30 10115 H 949.503 3.72481 1.66499 0
M  V30 10116 H 948.178 4.1181 0.581823 0
M  V30 10117 H 946.755 3.08533 2.09432 0
M  V30 10118 N 948.94 -0.228186 1.55939 0
M  V30 10119 C 949.85 -1.30386 1.9503 0
M  V30 10120 C 950.866 -1.51645 0.853218 0
M  V30 10121 O 952.042 -1.64904 1.15623 0
M  V30 10122 C 949.107 -2.63489 2.25332 0
M  V30 10123 C 948.168 -2.5059 3.48573 0
M  V30 10124 C 947.401 -3.77345 3.7742 0
M  V30 10125 O 947.624 -4.80067 3.08045 0
M  V30 10126 O 946.558 -3.74855 4.70922 0
M  V30 10127 H 950.384 -1.0022 2.86687 0
M  V30 10128 H 947.969 -0.430503 1.43063 0
M  V30 10129 H 949.851 -3.4211 2.46046 0
M  V30 10130 H 948.526 -2.93349 1.3685 0
M  V30 10131 H 947.433 -1.70191 3.33145 0
M  V30 10132 H 948.766 -2.2567 4.37417 0
M  V30 10133 N 950.418 -1.49637 -0.494624 0
M  V30 10134 C 951.646 -1.63164 -1.2722 0
M  V30 10135 C 952.061 -0.305552 -1.86311 0
M  V30 10136 O 951.418 0.709758 -1.68133 0
M  V30 10137 C 951.469 -2.70524 -2.39789 0
M  V30 10138 O 951.19 -3.97991 -1.83126 0
M  V30 10139 C 952.691 -2.94814 -3.31058 0
M  V30 10140 H 949.911 -0.54912 -0.385627 0
M  V30 10141 H 952.455 -1.95711 -0.593081 0
M  V30 10142 H 950.61 -2.40738 -3.03519 0
M  V30 10143 H 951.024 -4.57179 -2.57075 0
M  V30 10144 H 952.498 -3.73653 -4.06309 0
M  V30 10145 H 952.975 -2.04974 -3.88436 0
M  V30 10146 H 953.581 -3.26042 -2.73088 0
M  V30 10147 N 951.896 0.746133 -1.38819 0
M  V30 10148 C 952.806 1.89063 -1.38897 0
M  V30 10149 C 953.822 1.71648 -0.28513 0
M  V30 10150 O 954.998 1.94443 -0.524783 0
M  V30 10151 C 952.063 3.24523 -1.22007 0
M  V30 10152 C 951.124 3.54411 -2.42263 0
M  V30 10153 C 950.357 4.83408 -2.26169 0
M  V30 10154 O 950.58 5.56325 -1.25931 0
M  V30 10155 O 949.514 5.12943 -3.14918 0
M  V30 10156 H 953.34 1.91951 -2.35347 0
M  V30 10157 H 950.925 0.892433 -1.19816 0
M  V30 10158 H 952.807 4.05496 -1.14677 0
M  V30 10159 H 951.482 3.2243 -0.286455 0
M  V30 10160 H 950.389 2.73569 -2.55168 0
M  V30 10161 H 951.722 3.61273 -3.3428 0
M  V30 10162 N 953.375 1.23811 0.975125 0
M  V30 10163 C 954.605 1.0986 1.7497 0
M  V30 10164 C 955.013 -0.352366 1.8589 0
M  V30 10165 O 954.356 -1.2553 1.34119 0
M  V30 10166 C 954.418 1.65584 3.19096 0
M  V30 10167 C 954.082 3.14395 3.3167 0
M  V30 10168 C 955.079 4.1163 3.17579 0
M  V30 10169 C 952.764 3.54208 3.56149 0
M  V30 10170 C 954.758 5.46661 3.27781 0
M  V30 10171 C 952.445 4.89382 3.65989 0
M  V30 10172 C 953.443 5.85418 3.51817 0
M  V30 10173 O 953.131 7.18135 3.61299 0
M  V30 10174 H 952.863 0.384854 0.555755 0
M  V30 10175 H 955.417 1.64242 1.23343 0
M  V30 10176 H 953.647 1.05627 3.71994 0
M  V30 10177 H 955.336 1.47032 3.78334 0
M  V30 10178 H 956.102 3.82214 2.98559 0
M  V30 10179 H 951.981 2.79968 3.66249 0
M  V30 10180 H 955.525 6.21601 3.16636 0
M  V30 10181 H 951.422 5.18473 3.84521 0
M  V30 10182 H 952.19 7.25956 3.78061 0
M  V30 10183 N 954.853 -1.17469 1.05066 0
M  V30 10184 C 956.099 -1.87976 0.761113 0
M  V30 10185 C 956.432 -1.80756 -0.709995 0
M  V30 10186 O 955.707 -1.21469 -1.51906 0
M  V30 10187 C 955.99 -3.38055 1.2406 0
M  V30 10188 C 955.843 -3.54032 2.77455 0
M  V30 10189 C 957.162 -4.32036 0.838612 0
M  V30 10190 H 954.281 -0.682573 0.277963 0
M  V30 10191 H 956.923 -1.38147 1.30443 0
M  V30 10192 H 955.073 -3.80622 0.778388 0
M  V30 10193 H 956.745 -3.20489 3.3179 0
M  V30 10194 H 954.988 -2.96352 3.16793 0
M  V30 10195 H 955.659 -4.59377 3.06066 0
M  V30 10196 H 958.135 -3.97303 1.23651 0
M  V30 10197 H 957.011 -5.35583 1.20173 0
M  V30 10198 H 957.272 -4.41349 -0.257498 0
M  V30 10199 N 956.331 -0.831506 -1.3388 0
M  V30 10200 C 957.58 -0.420028 -1.97278 0
M  V30 10201 C 957.893 1.02441 -1.66629 0
M  V30 10202 O 959.099 1.54021 -2.23584 0
M  V30 10203 C 957.555 -0.700116 -3.53025 0
M  V30 10204 C 957.163 -2.15874 -3.92559 0
M  V30 10205 C 958.907 -0.355226 -4.23011 0
M  V30 10206 C 956.814 -2.38327 -5.41252 0
M  V30 10207 H 955.744 -0.153326 -0.738246 0
M  V30 10208 H 958.395 -1.01906 -1.52602 0
M  V30 10209 H 956.777 -0.0308044 -3.95988 0
M  V30 10210 H 957.951 -2.86792 -3.60675 0
M  V30 10211 H 956.266 -2.4659 -3.35533 0
M  V30 10212 H 958.863 -0.500701 -5.32351 0
M  V30 10213 H 959.206 0.70111 -4.10354 0
M  V30 10214 H 959.739 -0.979466 -3.85553 0
M  V30 10215 H 956.478 -3.42498 -5.58906 0
M  V30 10216 H 955.998 -1.71962 -5.74621 0
M  V30 10217 H 957.677 -2.21113 -6.08045 0
M  V30 10218 N 957.809 1.4625 -0.587256 0
M  V30 10219 C 959.225 1.57641 -0.249284 0
M  V30 10220 C 959.425 1.58169 1.24839 0
M  V30 10221 O 958.481 1.50109 2.03036 0
M  V30 10222 C 959.794 2.86837 -0.902509 0
M  V30 10223 C 961.342 3.00476 -0.876524 0
M  V30 10224 C 961.817 4.32414 -1.50938 0
M  V30 10225 N 963.308 4.39124 -1.47392 0
M  V30 10226 C 964.043 5.39838 -1.93293 0
M  V30 10227 N 963.539 6.47202 -2.47188 0
M  V30 10228 N 965.332 5.31068 -1.84183 0
M  V30 10229 H 957.483 1.44151 -1.55994 0
M  V30 10230 H 959.746 0.687905 -0.652297 0
M  V30 10231 H 959.452 2.92274 -1.95624 0
M  V30 10232 H 959.326 3.74927 -0.413466 0
M  V30 10233 H 961.713 2.94618 0.168601 0
M  V30 10234 H 961.794 2.1385 -1.40363 0
M  V30 10235 H 961.438 4.3903 -2.55372 0
M  V30 10236 H 961.368 5.17823 -0.957455 0
M  V30 10237 H 963.859 3.62138 -1.08002 0
M  V30 10238 H 964.172 7.20269 -2.80058 0
M  V30 10239 H 962.517 6.48009 -2.51216 0
M  V30 10240 H 965.708 4.46095 -1.41833 0
M  V30 10241 H 965.881 6.09414 -2.2027 0
M  V30 10242 N 959.287 0.325282 1.54207 0
M  V30 10243 C 960.527 -0.277347 2.0251 0
M  V30 10244 C 960.891 -1.49211 1.20831 0
M  V30 10245 O 962.092 -2.16771 1.58945 0
M  V30 10246 C 960.363 -0.601517 3.52302 0
M  V30 10247 S 961.922 -1.18356 4.22537 0
M  V30 10248 H 958.74 -0.08378 0.706047 0
M  V30 10249 H 961.342 0.458804 1.9004 0
M  V30 10250 H 960.046 0.290696 4.09369 0
M  V30 10251 H 959.577 -1.36782 3.68855 0
M  V30 10252 H 961.592 -2.47029 4.30338 0
M  V30 10253 N 960.765 -1.57509 0.0534917 0
M  V30 10254 C 961.993 -1.97098 -0.629298 0
M  V30 10255 C 962.408 -0.931128 -1.64242 0
M  V30 10256 O 961.765 0.0843866 -1.82305 0
M  V30 10257 C 961.816 -3.36767 -1.31415 0
M  V30 10258 O 961.537 -4.36766 -0.341599 0
M  V30 10259 C 963.038 -3.91127 -2.08649 0
M  V30 10260 H 960.258 -0.648611 -0.171886 0
M  V30 10261 H 962.802 -2.04145 0.120479 0
M  V30 10262 H 960.957 -3.30863 -2.01515 0
M  V30 10263 H 961.371 -5.1788 -0.830715 0
M  V30 10264 H 962.845 -4.91129 -2.51985 0
M  V30 10265 H 963.322 -3.26679 -2.9356 0
M  V30 10266 H 963.928 -4.00376 -1.43456 0
M  V30 10267 N 962.243 0.219913 -1.56058 0
M  V30 10268 C 963.19 1.27254 -1.92549 0
M  V30 10269 C 964.16 1.46493 -0.782883 0
M  V30 10270 O 965.345 1.60035 -1.03892 0
M  V30 10271 C 962.485 2.61756 -2.24896 0
M  V30 10272 C 961.598 2.50302 -3.52098 0
M  V30 10273 C 960.733 3.77338 -3.73884 0
M  V30 10274 C 959.772 3.60613 -4.94595 0
M  V30 10275 N 958.909 4.79603 -5.12763 0
M  V30 10276 H 963.749 0.954352 -2.82305 0
M  V30 10277 H 961.286 0.459928 -1.39725 0
M  V30 10278 H 963.244 3.40082 -2.4166 0
M  V30 10279 H 961.874 2.91668 -1.38311 0
M  V30 10280 H 960.926 1.63401 -3.43517 0
M  V30 10281 H 962.238 2.33866 -4.40577 0
M  V30 10282 H 961.392 4.64108 -3.90754 0
M  V30 10283 H 960.131 3.96702 -2.83689 0
M  V30 10284 H 959.136 2.72228 -4.77674 0
M  V30 10285 H 960.361 3.42719 -5.86277 0
M  V30 10286 H 958.307 4.99277 -4.2551 0
M  V30 10287 H 958.224 4.65899 -5.95377 0
M  V30 10288 H 959.492 5.67794 -5.34069 0
M  V30 10289 N 963.721 1.49897 0.486681 0
M  V30 10290 C 964.671 1.6401 1.58381 0
M  V30 10291 C 965.655 0.495215 1.5309 0
M  V30 10292 O 966.847 0.748876 1.60377 0
M  V30 10293 C 963.976 1.72321 2.96918 0
M  V30 10294 C 963.062 2.92435 3.07152 0
M  V30 10295 N 963.453 4.16326 2.87238 0
M  V30 10296 C 961.751 2.90669 3.38271 0
M  V30 10297 C 962.452 4.97144 3.02031 0
M  V30 10298 N 961.428 4.3079 3.31544 0
M  V30 10299 H 965.23 2.57506 1.41661 0
M  V30 10300 H 962.744 1.46867 0.693106 0
M  V30 10301 H 964.741 1.80532 3.75784 0
M  V30 10302 H 963.401 0.799724 3.14697 0
M  V30 10303 H 964.412 4.46076 2.63128 0
M  V30 10304 H 961.089 2.07758 3.62137 0
M  V30 10305 H 962.479 6.05611 2.91006 0
M  V30 10306 N 965.199 -0.738761 1.39212 0
M  V30 10307 C 966.427 -1.52801 1.39497 0
M  V30 10308 C 966.842 -1.88797 -0.0114917 0
M  V30 10309 O 966.199 -1.53835 -0.981887 0
M  V30 10310 C 966.25 -2.81793 2.2644 0
M  V30 10311 O 965.971 -2.47328 3.61608 0
M  V30 10312 C 967.472 -3.75844 2.35067 0
M  V30 10313 H 964.692 -0.472322 0.476606 0
M  V30 10314 H 967.236 -0.913153 1.8298 0
M  V30 10315 H 965.391 -3.3962 1.8638 0
M  V30 10316 H 965.805 -3.30162 4.07545 0
M  V30 10317 H 967.279 -4.6326 3.00157 0
M  V30 10318 H 967.756 -4.17329 1.3687 0
M  V30 10319 H 968.362 -3.23937 2.75581 0
M  V30 10320 N 966.677 -1.24326 -0.968545 0
M  V30 10321 C 967.924 -1.08245 -1.71141 0
M  V30 10322 C 968.252 0.378842 -1.90775 0
M  V30 10323 O 967.507 1.29634 -1.46607 0
M  V30 10324 C 967.806 -1.76644 -3.10695 0
M  V30 10325 C 967.472 -3.26572 -3.10905 0
M  V30 10326 C 966.134 -3.67475 -3.10669 0
M  V30 10327 C 968.486 -4.22422 -3.05302 0
M  V30 10328 C 965.814 -5.02666 -3.02562 0
M  V30 10329 C 968.166 -5.57619 -2.98737 0
M  V30 10330 C 966.83 -5.9787 -2.9683 0
M  V30 10331 H 966.1 -0.396098 -0.626249 0
M  V30 10332 H 968.747 -1.54418 -1.13258 0
M  V30 10333 H 967.052 -1.22864 -3.72037 0
M  V30 10334 H 968.749 -1.61668 -3.66967 0
M  V30 10335 H 965.339 -2.94017 -3.11852 0
M  V30 10336 H 969.523 -3.91821 -3.04614 0
M  V30 10337 H 964.779 -5.3305 -2.99446 0
M  V30 10338 H 968.953 -6.31595 -2.93361 0
M  V30 10339 H 966.58 -7.02587 -2.90303 0
M  V30 10340 N 968.156 1.1691 -1.05688 0
M  V30 10341 C 969.384 1.91204 -0.790485 0
M  V30 10342 C 969.799 1.77095 0.654434 0
M  V30 10343 O 969.156 1.11146 1.44751 0
M  V30 10344 C 969.207 3.42108 -1.16808 0
M  V30 10345 O 968.928 3.55788 -2.55629 0
M  V30 10346 C 970.429 4.33466 -0.92855 0
M  V30 10347 H 967.649 0.606508 -0.287035 0
M  V30 10348 H 970.193 1.48225 -1.40888 0
M  V30 10349 H 968.348 3.82814 -0.59434 0
M  V30 10350 H 968.762 4.49321 -2.70575 0
M  V30 10351 H 970.236 5.37836 -1.24245 0
M  V30 10352 H 970.713 4.38989 0.136016 0
M  V30 10353 H 971.319 3.98481 -1.48638 0
M  V30 10354 N 969.634 0.838594 1.33437 0
M  V30 10355 C 970.582 0.260158 2.31141 0
M  V30 10356 C 971.576 -0.607706 1.58124 0
M  V30 10357 O 972.782 -0.497298 1.72994 0
M  V30 10358 H 969.157 0.0654031 0.74915 0
M  V30 10359 H 971.128 1.09874 2.77435 0
M  V30 10360 C 969.877 -0.550234 3.43319 0
M  V30 10361 H 969.2 0.108262 3.99653 0
M  V30 10362 H 970.64 -0.920815 4.1388 0
M  V30 10363 C 969.099 -1.729 2.89149 0
M  V30 10364 O 969.629 -2.82769 2.85315 0
M  V30 10365 N 967.835 -1.5508 2.45761 0
M  V30 10366 H 967.382 -0.657055 2.49079 0
M  V30 10367 H 967.34 -2.34099 2.0987 0
M  V30 10368 N 971.112 -1.45937 0.595003 0
M  V30 10369 C 972.062 -2.27491 -0.152331 0
M  V30 10370 C 973.046 -1.36591 -0.850396 0
M  V30 10371 O 974.238 -1.60675 -0.742462 0
M  V30 10372 C 971.367 -3.23203 -1.15735 0
M  V30 10373 C 970.453 -4.2159 -0.46077 0
M  V30 10374 N 970.844 -5.03416 0.490555 0
M  V30 10375 C 969.142 -4.40313 -0.709949 0
M  V30 10376 C 969.843 -5.74714 0.898825 0
M  V30 10377 N 968.819 -5.43046 0.24529 0
M  V30 10378 H 972.621 -2.8815 0.578526 0
M  V30 10379 H 970.135 -1.56936 0.417716 0
M  V30 10380 H 972.132 -3.8035 -1.70704 0
M  V30 10381 H 970.792 -2.64104 -1.8889 0
M  V30 10382 H 971.803 -5.10597 0.866692 0
M  V30 10383 H 968.48 -3.92351 -1.42713 0
M  V30 10384 H 969.87 -6.50487 1.68273 0
M  V30 10385 N 972.59 -0.333456 -1.54032 0
M  V30 10386 C 973.523 0.570776 -2.20947 0
M  V30 10387 C 974.501 1.10811 -1.18994 0
M  V30 10388 O 975.685 1.17027 -1.47773 0
M  V30 10389 C 972.812 1.7842 -2.87896 0
M  V30 10390 C 971.858 1.37722 -4.03652 0
M  V30 10391 S 972.691 0.405548 -5.33962 0
M  V30 10392 C 973.847 1.62603 -6.0441 0
M  V30 10393 H 974.08 0.0023936 -2.973 0
M  V30 10394 H 971.613 -0.117531 -1.53952 0
M  V30 10395 H 973.571 2.48038 -3.27089 0
M  V30 10396 H 972.232 2.32378 -2.11327 0
M  V30 10397 H 971.425 2.28167 -4.49395 0
M  V30 10398 H 971.027 0.760628 -3.66184 0
M  V30 10399 H 973.319 2.56202 -6.2719 0
M  V30 10400 H 974.262 1.21058 -6.97675 0
M  V30 10401 H 974.67 1.8175 -5.34441 0
M  V30 10402 N 974.068 1.57479 -0.061844 0
M  V30 10403 C 975.314 1.93395 0.610443 0
M  V30 10404 C 975.647 0.941334 1.6986 0
M  V30 10405 O 974.922 -0.0310262 1.94475 0
M  V30 10406 C 975.205 3.39636 1.19664 0
M  V30 10407 C 975.058 4.49651 0.115805 0
M  V30 10408 C 976.377 3.86488 2.10512 0
M  V30 10409 H 973.496 0.703262 0.220436 0
M  V30 10410 H 976.138 1.89583 -0.125785 0
M  V30 10411 H 974.288 3.43015 1.82409 0
M  V30 10412 H 975.96 4.58397 -0.516728 0
M  V30 10413 H 974.203 4.30237 -0.55483 0
M  V30 10414 H 974.874 5.49089 0.566176 0
M  V30 10415 H 977.35 3.85052 1.57715 0
M  V30 10416 H 976.226 4.89444 2.48466 0
M  V30 10417 H 976.487 3.23856 3.00948 0
M  V30 10418 N 975.546 -0.211634 1.56173 0
M  V30 10419 C 976.793 -0.93455 1.79645 0
M  V30 10420 C 977.121 -1.83936 0.632294 0
M  V30 10421 O 976.376 -1.91919 -0.382841 0
M  V30 10422 C 976.675 -1.79657 3.08963 0
M  V30 10423 C 976.341 -1.04415 4.38644 0
M  V30 10424 C 975.003 -0.836351 4.73876 0
M  V30 10425 C 977.355 -0.51355 5.18664 0
M  V30 10426 C 974.683 -0.0861976 5.86637 0
M  V30 10427 C 977.035 0.223309 6.32206 0
M  V30 10428 C 975.699 0.442279 6.66033 0
M  V30 10429 H 974.969 -0.341976 0.657368 0
M  V30 10430 H 977.616 -0.202024 1.90431 0
M  V30 10431 H 975.921 -2.59726 2.93342 0
M  V30 10432 H 977.618 -2.35823 3.24328 0
M  V30 10433 H 974.208 -1.21611 4.10985 0
M  V30 10434 H 978.392 -0.661541 4.91871 0
M  V30 10435 H 973.648 0.0935866 6.11328 0
M  V30 10436 H 977.822 0.641917 6.93435 0
M  V30 10437 H 975.449 1.02547 7.53252 0
M  V30 10438 N 977.024 -1.50153 -0.478725 0
M  V30 10439 C 977.956 -1.64603 -1.59494 0
M  V30 10440 C 978.969 -0.527789 -1.54007 0
M  V30 10441 O 980.158 -0.80069 -1.59534 0
M  V30 10442 C 977.258 -1.60738 -2.98356 0
M  V30 10443 C 976.431 -2.88468 -3.28794 0
M  V30 10444 C 975.49 -2.77349 -4.47173 0
M  V30 10445 O 974.516 -3.51302 -4.47857 0
M  V30 10446 N 975.718 -1.9039 -5.4839 0
M  V30 10447 H 978.483 -2.6088 -1.47518 0
M  V30 10448 H 976.044 -1.47521 -0.667011 0
M  V30 10449 H 978.036 -1.50923 -3.75505 0
M  V30 10450 H 976.606 -0.722273 -3.04141 0
M  V30 10451 H 975.826 -3.12467 -2.40329 0
M  V30 10452 H 977.114 -3.73102 -3.45937 0
M  V30 10453 H 976.512 -1.29606 -5.50653 0
M  V30 10454 H 975.069 -1.86484 -6.24553 0
M  V30 10455 N 978.502 0.731368 -1.39602 0
M  V30 10456 C 979.749 1.491 -1.37024 0
M  V30 10457 C 980.077 1.94473 0.0326423 0
M  V30 10458 O 979.332 1.6737 1.01418 0
M  V30 10459 C 979.631 2.74224 -2.29208 0
M  V30 10460 C 979.297 2.477 -3.7677 0
M  V30 10461 C 977.959 2.40175 -4.16976 0
M  V30 10462 C 980.311 2.25098 -4.70086 0
M  V30 10463 C 977.639 2.08095 -5.48556 0
M  V30 10464 C 979.991 1.94534 -6.01946 0
M  V30 10465 C 978.655 1.85481 -6.41212 0
M  V30 10466 H 977.925 0.545595 -0.501405 0
M  V30 10467 H 980.572 0.839127 -1.72136 0
M  V30 10468 H 978.877 3.44171 -1.87225 0
M  V30 10469 H 980.574 3.32264 -2.24504 0
M  V30 10470 H 977.164 2.54436 -3.44906 0
M  V30 10471 H 981.348 2.29876 -4.39853 0
M  V30 10472 H 976.604 1.99611 -5.77897 0
M  V30 10473 H 980.778 1.76054 -6.73779 0
M  V30 10474 H 978.405 1.60389 -7.43088 0
M  V30 10475 N 979.98 1.24838 0.961938 0
M  V30 10476 C 981.257 0.99939 1.68141 0
M  V30 10477 C 981.637 -0.476588 2.0565 0
M  V30 10478 O 980.985 -1.45224 1.76415 0
M  V30 10479 C 981.195 1.92797 2.90913 0
M  V30 10480 C 982.543 2.20219 3.63027 0
M  V30 10481 O 983.567 1.90496 3.00981 0
M  V30 10482 O 982.426 2.70725 4.74731 0
M  V30 10483 H 979.52 0.37842 0.735342 0
M  V30 10484 H 982.066 1.35961 1.01551 0
M  V30 10485 H 980.838 2.92492 2.59931 0
M  V30 10486 H 980.461 1.57127 3.65235 0
M  V30 10487 N 981.458 -1.16348 1.06306 0
M  V30 10488 C 982.698 -1.88556 0.789055 0
M  V30 10489 C 983.062 -1.79849 -0.672179 0
M  V30 10490 O 984.263 -2.46984 -1.06078 0
M  V30 10491 C 982.534 -3.34069 1.27016 0
M  V30 10492 S 984.093 -4.24128 1.12522 0
M  V30 10493 H 980.911 -0.65084 0.286232 0
M  V30 10494 H 983.513 -1.40443 1.36 0
M  V30 10495 H 982.217 -3.37944 2.32856 0
M  V30 10496 H 981.748 -3.87231 0.693963 0
M  V30 10497 H 983.763 -4.96168 0.0562142 0
M  V30 10498 N 982.937 -0.845659 -1.3299 0
M  V30 10499 C 984.165 -0.45835 -2.01759 0
M  V30 10500 C 984.58 0.94239 -1.63598 0
M  V30 10501 O 983.937 1.61353 -0.852738 0
M  V30 10502 C 983.988 -0.577311 -3.5686 0
M  V30 10503 O 983.709 -1.92287 -3.93646 0
M  V30 10504 C 985.21 -0.187839 -4.42902 0
M  V30 10505 H 982.43 -0.181165 -0.646081 0
M  V30 10506 H 984.974 -1.14011 -1.6977 0
M  V30 10507 H 983.129 0.0566146 -3.87359 0
M  V30 10508 H 983.543 -1.91322 -4.88361 0
M  V30 10509 H 985.017 -0.322105 -5.51059 0
M  V30 10510 H 985.494 0.870896 -4.30479 0
M  V30 10511 H 986.1 -0.796473 -4.17776 0
M  V30 10512 N 984.415 1.45619 -0.602734 0
M  V30 10513 C 985.363 2.32228 0.131484 0
M  V30 10514 C 986.357 1.45681 0.864484 0
M  V30 10515 O 987.563 1.62193 0.7806 0
M  V30 10516 H 983.938 0.7495 0.0612638 0
M  V30 10517 H 985.909 2.91941 -0.617496 0
M  V30 10518 C 984.658 3.29213 1.11866 0
M  V30 10519 H 983.981 3.95801 0.564061 0
M  V30 10520 H 985.421 3.92554 1.60242 0
M  V30 10521 C 983.88 2.56028 2.18978 0
M  V30 10522 O 984.41 2.33806 3.26646 0
M  V30 10523 N 982.616 2.16245 1.94129 0
M  V30 10524 H 982.163 2.34518 1.06579 0
M  V30 10525 H 982.121 1.67601 2.66003 0
M  V30 10526 N 985.893 0.34162 1.53853 0
M  V30 10527 C 987.121 -0.256929 2.05299 0
M  V30 10528 C 987.536 -1.44366 1.21671 0
M  V30 10529 O 986.893 -1.80758 0.251584 0
M  V30 10530 C 986.944 -0.673854 3.55164 0
M  V30 10531 O 986.665 0.465687 4.35618 0
M  V30 10532 C 988.166 -1.33332 4.22773 0
M  V30 10533 H 985.386 -0.0499445 0.669139 0
M  V30 10534 H 987.93 0.493048 1.98467 0
M  V30 10535 H 986.085 -1.37378 3.62224 0
M  V30 10536 H 986.499 0.133723 5.2433 0
M  V30 10537 H 987.973 -1.57582 5.29029 0
M  V30 10538 H 988.45 -2.28628 3.75001 0
M  V30 10539 H 989.056 -0.675489 4.19901 0
M  V30 10540 N 987.371 -1.57444 0.0701946 0
M  V30 10541 C 988.301 -2.15659 -0.895176 0
M  V30 10542 C 989.282 -1.08321 -1.31151 0
M  V30 10543 O 990.467 -1.36349 -1.38284 0
M  V30 10544 C 987.597 -2.71693 -2.16334 0
M  V30 10545 C 986.551 -3.84183 -1.88645 0
M  V30 10546 C 985.877 -4.26814 -3.22078 0
M  V30 10547 C 987.177 -5.08493 -1.19299 0
M  V30 10548 H 988.871 -2.96576 -0.410217 0
M  V30 10549 H 986.417 -1.42662 -0.195872 0
M  V30 10550 H 988.37 -3.11064 -2.84284 0
M  V30 10551 H 987.094 -1.87994 -2.67069 0
M  V30 10552 H 985.753 -3.45314 -1.23101 0
M  V30 10553 H 985.401 -3.40039 -3.70651 0
M  V30 10554 H 985.101 -5.02642 -3.04344 0
M  V30 10555 H 986.625 -4.68799 -3.91228 0
M  V30 10556 H 988.039 -5.4519 -1.77316 0
M  V30 10557 H 986.436 -5.89588 -1.11828 0
M  V30 10558 H 987.506 -4.84595 -0.171839 0
M  V30 10559 N 988.849 0.203349 -1.56283 0
M  V30 10560 C 989.797 1.27157 -1.94766 0
M  V30 10561 C 990.791 1.4756 -0.832005 0
M  V30 10562 O 991.997 1.48519 -1.01696 0
M  V30 10563 H 988.372 0.426712 -0.61921 0
M  V30 10564 H 990.343 0.919921 -2.83866 0
M  V30 10565 C 989.092 2.6108 -2.29636 0
M  V30 10566 H 988.415 2.46193 -3.15006 0
M  V30 10567 H 989.855 3.34591 -2.60433 0
M  V30 10568 C 988.314 3.17456 -1.12799 0
M  V30 10569 O 988.844 3.99717 -0.398661 0
M  V30 10570 N 987.05 2.76084 -0.906975 0
M  V30 10571 H 986.597 2.09294 -1.50179 0
M  V30 10572 H 986.555 3.14143 -0.127005 0
M  V30 10573 N 990.327 1.50405 0.470755 0
M  V30 10574 C 991.604 1.51929 1.23195 0
M  V30 10575 C 991.984 0.264159 2.09441 0
M  V30 10576 O 991.332 -0.752395 2.15757 0
M  V30 10577 C 991.542 2.81521 2.06269 0
M  V30 10578 C 992.89 3.32195 2.64446 0
M  V30 10579 O 993.914 2.82845 2.16511 0
M  V30 10580 O 992.773 4.18221 3.51786 0
M  V30 10581 H 989.867 0.609411 0.559059 0
M  V30 10582 H 992.413 1.62695 0.482549 0
M  V30 10583 H 991.185 3.64346 1.42715 0
M  V30 10584 H 990.808 2.7376 2.88342 0
M  V30 10585 N 991.805 -0.723954 1.39988 0
M  V30 10586 C 992.737 -1.84859 1.35498 0
M  V30 10587 C 993.75 -1.60681 0.261812 0
M  V30 10588 O 994.939 -1.7071 0.521566 0
M  V30 10589 C 992.039 -3.21103 1.08381 0
M  V30 10590 C 991.212 -3.72546 2.2919 0
M  V30 10591 C 990.271 -4.8738 1.9836 0
M  V30 10592 O 989.297 -5.00467 2.71149 0
M  V30 10593 N 990.499 -5.72566 0.956461 0
M  V30 10594 H 993.264 -1.89212 2.3242 0
M  V30 10595 H 990.825 -0.905152 1.34233 0
M  V30 10596 H 992.817 -3.9551 0.857564 0
M  V30 10597 H 991.387 -3.1195 0.201549 0
M  V30 10598 H 990.607 -2.89365 2.67697 0
M  V30 10599 H 991.895 -4.03652 3.09746 0
M  V30 10600 H 991.293 -5.64595 0.353444 0
M  V30 10601 H 989.85 -6.46993 0.790118 0
M  V30 10602 N 993.283 -1.25346 -0.955304 0
M  V30 10603 C 994.511 -1.12793 -1.73451 0
M  V30 10604 C 994.926 0.318344 -1.86097 0
M  V30 10605 O 994.283 1.21897 -1.35821 0
M  V30 10606 C 994.334 -1.77603 -3.14864 0
M  V30 10607 O 994.055 -3.16577 -3.02837 0
M  V30 10608 C 995.556 -1.70821 -4.09066 0
M  V30 10609 H 992.776 -0.393457 -0.543537 0
M  V30 10610 H 995.32 -1.65696 -1.19855 0
M  V30 10611 H 993.475 -1.28673 -3.65407 0
M  V30 10612 H 993.889 -3.48433 -3.92039 0
M  V30 10613 H 995.363 -2.2083 -5.05903 0
M  V30 10614 H 995.84 -0.671858 -4.34031 0
M  V30 10615 H 996.446 -2.19237 -3.64438 0
M  V30 10616 N 994.761 1.15782 -1.06922 0
M  V30 10617 C 995.691 2.22538 -0.707045 0
M  V30 10618 C 996.672 1.67371 0.303471 0
M  V30 10619 O 997.857 1.9339 0.177189 0
M  V30 10620 C 994.987 3.47158 -0.0994269 0
M  V30 10621 C 993.941 4.15257 -1.03661 0
M  V30 10622 C 993.267 5.33902 -0.291974 0
M  V30 10623 C 994.567 4.65516 -2.36837 0
M  V30 10624 H 996.261 2.53089 -1.59958 0
M  V30 10625 H 993.807 1.21649 -0.770552 0
M  V30 10626 H 995.76 4.21073 0.165852 0
M  V30 10627 H 994.484 3.15926 0.828155 0
M  V30 10628 H 993.143 3.43276 -1.28674 0
M  V30 10629 H 992.791 4.98926 0.638928 0
M  V30 10630 H 992.491 5.80407 -0.916613 0
M  V30 10631 H 994.015 6.1059 -0.0343915 0
M  V30 10632 H 995.429 5.30981 -2.16175 0
M  V30 10633 H 993.826 5.22666 -2.94856 0
M  V30 10634 H 994.896 3.81387 -2.99453 0
M  V30 10635 N 996.239 0.8527 1.3254 0
M  V30 10636 C 997.149 0.298744 2.3269 0
M  V30 10637 C 998.165 -0.582418 1.63963 0
M  V30 10638 O 999.341 -0.483253 1.95516 0
M  V30 10639 C 996.406 -0.505453 3.42996 0
M  V30 10640 C 995.467 0.401618 4.27417 0
M  V30 10641 C 994.7 -0.364294 5.32455 0
M  V30 10642 O 994.923 -1.59448 5.47661 0
M  V30 10643 O 993.857 0.268892 6.01299 0
M  V30 10644 H 997.683 1.12843 2.81958 0
M  V30 10645 H 995.268 0.615584 1.36128 0
M  V30 10646 H 997.15 -0.961974 4.10273 0
M  V30 10647 H 995.825 -1.31197 2.95921 0
M  V30 10648 H 994.732 0.906274 3.62957 0
M  V30 10649 H 996.065 1.17327 4.78012 0
M  V30 10650 N 997.718 -1.45297 0.610449 0
M  V30 10651 C 998.666 -2.32295 -0.119167 0
M  V30 10652 C 999.66 -1.46138 -0.856746 0
M  V30 10653 O 1000.87 -1.62605 -0.771988 0
M  V30 10654 H 997.241 -0.749815 -0.0572881 0
M  V30 10655 H 999.212 -2.91609 0.63297 0
M  V30 10656 C 997.961 -3.29802 -1.10119 0
M  V30 10657 H 997.284 -3.96095 -0.543063 0
M  V30 10658 H 998.724 -3.93398 -1.58158 0
M  V30 10659 C 997.183 -2.57185 -2.17617 0
M  V30 10660 O 997.713 -2.35535 -3.25401 0
M  V30 10661 N 995.919 -2.17272 -1.9298 0
M  V30 10662 H 995.466 -2.3508 -1.05334 0
M  V30 10663 H 995.424 -1.69009 -2.6511 0
M  V30 10664 N 999.196 -0.349774 -1.5367 0
M  V30 10665 C 1000.44 0.245189 -2.01312 0
M  V30 10666 C 1000.77 1.49702 -1.23705 0
M  V30 10667 O 1000.05 1.91742 -0.326371 0
M  V30 10668 C 1000.33 0.553071 -3.55827 0
M  V30 10669 C 1000.19 -0.71129 -4.4414 0
M  V30 10670 C 1001.5 1.36015 -4.18555 0
M  V30 10671 H 998.624 0.0876415 -0.73177 0
M  V30 10672 H 1001.27 -0.471543 -1.84056 0
M  V30 10673 H 999.416 1.16367 -3.70663 0
M  V30 10674 H 1001.09 -1.34913 -4.41131 0
M  V30 10675 H 999.331 -1.33491 -4.1275 0
M  V30 10676 H 1000 -0.45104 -5.50154 0
M  V30 10677 H 1002.48 0.843778 -4.07455 0
M  V30 10678 H 1001.35 1.54432 -5.26728 0
M  V30 10679 H 1001.61 2.36408 -3.73582 0
M  V30 10680 N 1000.67 1.57404 -0.0785433 0
M  V30 10681 C 1001.9 1.98074 0.597862 0
M  V30 10682 C 1002.32 0.95714 1.6274 0
M  V30 10683 O 1001.67 -0.0553728 1.82416 0
M  V30 10684 C 1001.72 3.38815 1.26041 0
M  V30 10685 O 1001.45 4.37254 0.27207 0
M  V30 10686 C 1002.95 3.94397 2.024 0
M  V30 10687 H 1000.17 0.651263 0.161546 0
M  V30 10688 H 1002.71 2.03927 -0.152941 0
M  V30 10689 H 1000.87 3.34028 1.96225 0
M  V30 10690 H 1001.28 5.19136 0.74822 0
M  V30 10691 H 1002.75 4.95075 2.4414 0
M  V30 10692 H 1003.23 3.31308 2.88326 0
M  V30 10693 H 1003.84 4.02607 1.37068 0
M  V30 10694 N 1002.15 -0.195058 1.56388 0
M  V30 10695 C 1003.4 -0.9168 1.80894 0
M  V30 10696 C 1003.73 -1.82907 0.652592 0
M  V30 10697 O 1003.01 -1.91382 -0.346853 0
M  V30 10698 C 1003.29 -1.733 3.15657 0
M  V30 10699 C 1003.14 -0.845449 4.41783 0
M  V30 10700 C 1004.46 -2.70557 3.47112 0
M  V30 10701 H 1001.58 -0.331861 0.658056 0
M  V30 10702 H 1004.22 -0.184174 1.89105 0
M  V30 10703 H 1002.37 -2.3576 3.08787 0
M  V30 10704 H 1004.04 -0.235557 4.60698 0
M  V30 10705 H 1002.29 -0.152172 4.33533 0
M  V30 10706 H 1002.96 -1.45152 5.32574 0
M  V30 10707 H 1005.43 -2.1823 3.54281 0
M  V30 10708 H 1004.31 -3.24749 4.42526 0
M  V30 10709 H 1004.57 -3.49605 2.70608 0
M  V30 10710 N 1003.63 -1.50653 -0.462772 0
M  V30 10711 C 1004.56 -1.66286 -1.5774 0
M  V30 10712 C 1005.57 -0.544094 -1.53439 0
M  V30 10713 O 1006.76 -0.817566 -1.58676 0
M  V30 10714 C 1003.86 -1.63893 -2.96635 0
M  V30 10715 C 1003.04 -2.91939 -3.25716 0
M  V30 10716 C 1002.1 -2.82076 -4.44206 0
M  V30 10717 O 1001.12 -3.56032 -4.44106 0
M  V30 10718 N 1002.32 -1.96196 -5.4634 0
M  V30 10719 H 1005.09 -2.6243 -1.44742 0
M  V30 10720 H 1002.65 -1.48221 -0.651326 0
M  V30 10721 H 1004.64 -1.54897 -3.73884 0
M  V30 10722 H 1003.21 -0.75449 -3.03358 0
M  V30 10723 H 1002.43 -3.14998 -2.37002 0
M  V30 10724 H 1003.72 -3.7675 -3.4196 0
M  V30 10725 H 1003.12 -1.35439 -5.49247 0
M  V30 10726 H 1001.67 -1.93097 -6.2254 0
M  V30 10727 N 1005.11 0.71652 -1.4037 0
M  V30 10728 C 1006.04 1.84012 -1.34963 0
M  V30 10729 C 1007.02 1.61102 -0.22017 0
M  V30 10730 O 1008.2 1.84127 -0.403676 0
M  V30 10731 C 1005.33 3.20334 -1.10017 0
M  V30 10732 C 1004.38 3.62072 -2.25402 0
M  V30 10733 S 1005.21 3.69295 -3.8779 0
M  V30 10734 C 1006.37 5.08378 -3.65107 0
M  V30 10735 H 1006.6 1.88318 -2.30052 0
M  V30 10736 H 1004.13 0.883208 -1.26644 0
M  V30 10737 H 1006.09 3.99042 -0.963097 0
M  V30 10738 H 1004.75 3.13662 -0.16584 0
M  V30 10739 H 1003.94 4.61051 -2.03587 0
M  V30 10740 H 1003.55 2.90619 -2.35408 0
M  V30 10741 H 1005.84 5.95268 -3.23516 0
M  V30 10742 H 1006.78 5.35228 -4.63613 0
M  V30 10743 H 1007.19 4.78927 -2.98813 0
M  V30 10744 N 1006.59 1.25851 0.948643 0
M  V30 10745 C 1007.5 1.08516 2.07994 0
M  V30 10746 C 1008.51 0.0206696 1.73988 0
M  V30 10747 O 1009.69 0.222854 2.00163 0
M  V30 10748 C 1006.75 0.712145 3.39307 0
M  V30 10749 C 1005.81 1.85523 3.87143 0
M  V30 10750 C 1005.05 1.49992 5.1219 0
M  V30 10751 O 1005.27 0.398268 5.69008 0
M  V30 10752 O 1004.2 2.33215 5.54882 0
M  V30 10753 H 1008.03 2.03405 2.25522 0
M  V30 10754 H 1005.62 1.04844 1.06433 0
M  V30 10755 H 1007.5 0.516512 4.18223 0
M  V30 10756 H 1006.17 -0.207416 3.23035 0
M  V30 10757 H 1005.08 2.10578 3.09205 0
M  V30 10758 H 1006.41 2.75425 4.07924 0
M  V30 10759 N 1008.06 -1.15214 1.07534 0
M  V30 10760 C 1009.48 -1.67628 0.822045 0
M  V30 10761 C 1009.83 -1.8503 -0.652571 0
M  V30 10762 O 1008.95 -1.55497 -1.50498 0
M  V30 10763 C 1009.55 -3.04489 1.48566 0
M  V30 10764 C 1008.11 -3.53974 1.27983 0
M  V30 10765 C 1007.25 -2.29656 1.55414 0
M  V30 10766 H 1010.2 -0.994016 1.23713 0
M  V30 10767 H 1010.22 -3.69509 0.907916 0
M  V30 10768 H 1009.74 -2.91792 2.55888 0
M  V30 10769 H 1007.84 -3.71908 0.226906 0
M  V30 10770 H 1007.95 -4.35298 2.0013 0
M  V30 10771 H 1006.31 -2.35289 0.975251 0
M  V30 10772 H 1007.1 -2.19544 2.63923 0
M  V30 10773 N 1009.54 -0.859717 -1.32086 0
M  V30 10774 C 1010.77 -0.479724 -2.01262 0
M  V30 10775 C 1011.19 0.924985 -1.64589 0
M  V30 10776 O 1010.54 1.60439 -0.869803 0
M  V30 10777 C 1010.59 -0.615128 -3.56228 0
M  V30 10778 O 1010.31 -1.96451 -3.91585 0
M  V30 10779 C 1011.82 -0.234804 -4.42678 0
M  V30 10780 H 1009.04 -0.188007 -0.644123 0
M  V30 10781 H 1011.58 -1.15805 -1.68551 0
M  V30 10782 H 1009.73 0.0155268 -3.87397 0
M  V30 10783 H 1010.15 -1.96491 -4.86304 0
M  V30 10784 H 1011.62 -0.380534 -5.50687 0
M  V30 10785 H 1012.1 0.825189 -4.31378 0
M  V30 10786 H 1012.71 -0.840739 -4.16907 0
M  V30 10787 N 1011.02 1.44971 -0.618145 0
M  V30 10788 C 1011.93 2.34403 0.0960457 0
M  V30 10789 C 1012.95 1.51862 0.849355 0
M  V30 10790 O 1014.12 1.84632 0.804557 0
M  V30 10791 C 1011.19 3.29646 1.07397 0
M  V30 10792 C 1010.25 4.28095 0.321466 0
M  V30 10793 C 1009.48 5.18787 1.25281 0
M  V30 10794 O 1009.7 5.1313 2.49106 0
M  V30 10795 O 1008.64 5.97282 0.744156 0
M  V30 10796 H 1012.46 2.96898 -0.639176 0
M  V30 10797 H 1010.05 1.44529 -0.37837 0
M  V30 10798 H 1011.93 3.88307 1.63694 0
M  V30 10799 H 1010.61 2.69702 1.79004 0
M  V30 10800 H 1009.51 3.73019 -0.284223 0
M  V30 10801 H 1010.85 4.90923 -0.354315 0
M  V30 10802 N 1012.5 0.357919 1.53482 0
M  V30 10803 C 1013.46 -0.479797 2.24122 0
M  V30 10804 C 1014.46 -1.01596 1.24639 0
M  V30 10805 O 1015.65 -0.902928 1.48973 0
M  V30 10806 C 1012.78 -1.66983 2.97203 0
M  V30 10807 H 1013.98 0.138219 2.99581 0
M  V30 10808 H 1011.53 0.109484 1.55916 0
M  V30 10809 H 1012.26 -2.32615 2.25966 0
M  V30 10810 H 1012.05 -1.29242 3.70188 0
M  V30 10811 H 1013.54 -2.26367 3.50924 0
M  V30 10812 N 1013.98 -1.5736 0.0868897 0
M  V30 10813 C 1015.21 -1.981 -0.586498 0
M  V30 10814 C 1015.61 -0.96455 -1.62767 0
M  V30 10815 O 1014.96 0.0551801 -1.83617 0
M  V30 10816 C 1015.02 -3.35193 -1.29947 0
M  V30 10817 C 1014.68 -4.55157 -0.410012 0
M  V30 10818 C 1015.68 -5.18797 0.338532 0
M  V30 10819 C 1013.37 -5.01212 -0.33047 0
M  V30 10820 C 1015.36 -6.26854 1.15468 0
M  V30 10821 C 1013.05 -6.09138 0.48934 0
M  V30 10822 C 1014.04 -6.71823 1.23057 0
M  V30 10823 O 1013.73 -7.77669 2.03683 0
M  V30 10824 H 1013.46 -0.656166 -0.16255 0
M  V30 10825 H 1016.02 -2.04773 0.160379 0
M  V30 10826 H 1014.25 -3.25179 -2.09274 0
M  V30 10827 H 1015.94 -3.60435 -1.86658 0
M  V30 10828 H 1016.7 -4.84151 0.286764 0
M  V30 10829 H 1012.58 -4.52188 -0.897058 0
M  V30 10830 H 1016.13 -6.75712 1.73374 0
M  V30 10831 H 1012.02 -6.43215 0.542618 0
M  V30 10832 H 1012.79 -7.94618 1.96277 0
M  V30 10833 N 1015.45 0.186762 -1.56489 0
M  V30 10834 C 1016.36 1.25169 -1.98419 0
M  V30 10835 C 1017.38 1.49329 -0.893124 0
M  V30 10836 O 1018.56 1.61781 -1.19954 0
M  V30 10837 C 1015.62 2.57422 -2.32239 0
M  V30 10838 C 1014.68 2.4126 -3.55095 0
M  V30 10839 C 1013.92 3.67206 -3.87292 0
M  V30 10840 O 1014.14 4.71731 -3.20665 0
M  V30 10841 O 1013.07 3.62238 -4.80695 0
M  V30 10842 H 1016.9 0.925834 -2.89244 0
M  V30 10843 H 1014.48 0.392421 -1.44154 0
M  V30 10844 H 1016.37 3.35466 -2.5503 0
M  V30 10845 H 1015.04 2.89618 -1.44579 0
M  V30 10846 H 1013.95 1.61299 -3.37541 0
M  V30 10847 H 1015.28 2.13994 -4.43247 0
M  V30 10848 N 1016.93 1.50896 0.454776 0
M  V30 10849 C 1018.18 1.6294 1.20741 0
M  V30 10850 C 1018.51 0.336339 1.91265 0
M  V30 10851 O 1017.79 -0.663153 1.82846 0
M  V30 10852 C 1018.07 2.82092 2.23822 0
M  V30 10853 C 1017.92 4.21326 1.57495 0
M  V30 10854 C 1019.24 2.96777 3.24979 0
M  V30 10855 H 1016.36 0.59302 0.437603 0
M  V30 10856 H 1019 1.83331 0.498959 0
M  V30 10857 H 1017.15 2.64837 2.84243 0
M  V30 10858 H 1018.82 4.50209 1.00546 0
M  V30 10859 H 1017.07 4.24829 0.877664 0
M  V30 10860 H 1017.74 5.00656 2.32482 0
M  V30 10861 H 1020.21 3.12627 2.74597 0
M  V30 10862 H 1019.09 3.81742 3.94416 0
M  V30 10863 H 1019.35 2.08091 3.90065 0
M  V30 10864 N 1018.41 -0.709066 1.40748 0
M  V30 10865 C 1019.34 -1.83583 1.4429 0
M  V30 10866 C 1020.32 -1.67378 0.303067 0
M  V30 10867 O 1021.51 -1.87312 0.512612 0
M  V30 10868 C 1018.64 -3.21599 1.31116 0
M  V30 10869 C 1017.59 -3.52486 2.4277 0
M  V30 10870 C 1016.92 -4.89716 2.14668 0
M  V30 10871 C 1018.22 -3.52824 3.85113 0
M  V30 10872 H 1019.91 -1.80876 2.38588 0
M  V30 10873 H 1017.46 -0.868795 1.14839 0
M  V30 10874 H 1019.41 -4.00123 1.32209 0
M  V30 10875 H 1018.13 -3.24898 0.332965 0
M  V30 10876 H 1016.79 -2.76305 2.40937 0
M  V30 10877 H 1016.44 -4.89625 1.15224 0
M  V30 10878 H 1016.14 -5.11347 2.89478 0
M  V30 10879 H 1017.66 -5.70566 2.17455 0
M  V30 10880 H 1019.08 -4.21377 3.88734 0
M  V30 10881 H 1017.48 -3.85984 4.59496 0
M  V30 10882 H 1018.55 -2.52073 4.14231 0
M  V30 10883 N 1019.89 -1.26353 -0.941956 0
M  V30 10884 C 1021.13 -1.13071 -1.70277 0
M  V30 10885 C 1021.49 0.320699 -1.89303 0
M  V30 10886 O 1022.69 0.575624 -2.62564 0
M  V30 10887 C 1020.97 -1.87777 -3.04096 0
M  V30 10888 S 1022.52 -1.9054 -3.95272 0
M  V30 10889 H 1019.34 -0.403912 -0.585129 0
M  V30 10890 H 1021.94 -1.6006 -1.12254 0
M  V30 10891 H 1020.65 -2.92447 -2.87929 0
M  V30 10892 H 1020.18 -1.41226 -3.67177 0
M  V30 10893 H 1022.19 -0.991548 -4.86192 0
M  V30 10894 N 1021.37 1.14642 -1.08144 0
M  V30 10895 C 1022.6 1.89209 -0.82966 0
M  V30 10896 C 1023.01 1.78697 0.621604 0
M  V30 10897 O 1022.35 1.14224 1.4387 0
M  V30 10898 C 1022.41 3.39958 -1.16915 0
M  V30 10899 C 1022.07 3.74254 -2.62264 0
M  V30 10900 C 1023.07 3.746 -3.60514 0
M  V30 10901 C 1020.76 4.04316 -2.9805 0
M  V30 10902 C 1022.75 4.04527 -4.92582 0
M  V30 10903 C 1020.44 4.33906 -4.30312 0
M  V30 10904 C 1021.44 4.33995 -5.27388 0
M  V30 10905 O 1021.12 4.62869 -6.57273 0
M  V30 10906 H 1020.86 0.606259 -0.299042 0
M  V30 10907 H 1023.41 1.46132 -1.44342 0
M  V30 10908 H 1021.64 3.83475 -0.498377 0
M  V30 10909 H 1023.33 3.95828 -0.89862 0
M  V30 10910 H 1024.09 3.51466 -3.34211 0
M  V30 10911 H 1019.97 4.03402 -2.23132 0
M  V30 10912 H 1023.52 4.04511 -5.68346 0
M  V30 10913 H 1019.41 4.5651 -4.56365 0
M  V30 10914 H 1020.18 4.80598 -6.62546 0
M  V30 10915 N 1022.85 0.866709 1.31628 0
M  V30 10916 C 1024.09 0.476731 1.97117 0
M  V30 10917 C 1024.42 -0.967813 1.68366 0
M  V30 10918 O 1023.7 -1.68101 0.978377 0
M  V30 10919 C 1023.98 0.730561 3.52611 0
M  V30 10920 C 1023.84 2.2244 3.90948 0
M  V30 10921 C 1025.15 0.19488 4.39668 0
M  V30 10922 H 1022.27 0.174682 0.715999 0
M  V30 10923 H 1024.92 1.08735 1.5581 0
M  V30 10924 H 1023.07 0.210834 3.87927 0
M  V30 10925 H 1024.74 2.81113 3.6575 0
M  V30 10926 H 1022.98 2.69824 3.39673 0
M  V30 10927 H 1023.65 2.35266 4.99353 0
M  V30 10928 H 1026.13 0.639478 4.11157 0
M  V30 10929 H 1025 0.401958 5.47426 0
M  V30 10930 H 1025.26 -0.90302 4.32779 0
M  V30 10931 N 1024.32 -1.44642 0.625825 0
M  V30 10932 C 1025.73 -1.85502 0.211175 0
M  V30 10933 C 1026.09 -1.52356 -1.2362 0
M  V30 10934 O 1025.21 -0.959051 -1.93988 0
M  V30 10935 C 1025.81 -3.36702 0.37648 0
M  V30 10936 C 1024.36 -3.76396 0.0163795 0
M  V30 10937 C 1023.51 -2.68517 0.692368 0
M  V30 10938 H 1026.46 -1.35183 0.831333 0
M  V30 10939 H 1026.48 -3.78536 -0.386106 0
M  V30 10940 H 1026 -3.60795 1.42999 0
M  V30 10941 H 1024.1 -3.57919 -1.0356 0
M  V30 10942 H 1024.21 -4.77231 0.422742 0
M  V30 10943 H 1022.57 -2.54377 0.128191 0
M  V30 10944 H 1023.36 -2.95444 1.74837 0
M  V30 10945 N 1025.8 -0.366053 -1.5329 0
M  V30 10946 C 1026.76 0.467904 -2.24373 0
M  V30 10947 C 1027.76 1.00934 -1.25176 0
M  V30 10948 O 1028.95 0.895015 -1.49449 0
M  V30 10949 C 1026.09 1.65405 -2.98084 0
M  V30 10950 H 1027.28 -0.154105 -2.99504 0
M  V30 10951 H 1024.83 -0.117751 -1.55856 0
M  V30 10952 H 1025.57 2.31413 -2.27197 0
M  V30 10953 H 1025.35 1.27277 -3.70868 0
M  V30 10954 H 1026.84 2.24503 -3.52119 0
M  V30 10955 N 1027.28 1.57312 -0.0952337 0
M  V30 10956 C 1028.7 1.57445 0.261416 0
M  V30 10957 C 1028.9 1.10639 1.68408 0
M  V30 10958 O 1027.95 0.782912 2.40056 0
M  V30 10959 C 1029.26 3.00659 0.0497206 0
M  V30 10960 C 1030.81 3.1278 0.117459 0
M  V30 10961 C 1031.29 4.57952 -0.0662441 0
M  V30 10962 N 1032.78 4.63199 -0.0114146 0
M  V30 10963 C 1033.51 5.73255 -0.128799 0
M  V30 10964 N 1033.01 6.92146 -0.301026 0
M  V30 10965 N 1034.8 5.62056 -0.0700599 0
M  V30 10966 H 1026.95 1.86045 -1.02475 0
M  V30 10967 H 1029.22 0.858726 -0.401614 0
M  V30 10968 H 1028.92 3.39102 -0.932888 0
M  V30 10969 H 1028.8 3.68792 0.791975 0
M  V30 10970 H 1031.18 2.74209 1.09057 0
M  V30 10971 H 1031.26 2.47238 -0.656288 0
M  V30 10972 H 1030.91 4.97217 -1.03623 0
M  V30 10973 H 1030.84 5.21555 0.727198 0
M  V30 10974 H 1033.33 3.77712 0.119154 0
M  V30 10975 H 1033.64 7.71855 -0.382104 0
M  V30 10976 H 1031.99 6.94184 -0.336695 0
M  V30 10977 H 1035.18 4.68057 0.0633587 0
M  V30 10978 H 1035.35 6.4779 -0.164991 0
M  V30 10979 N 1028.76 -0.17846 1.56586 0
M  V30 10980 C 1029.98 -0.916061 1.86073 0
M  V30 10981 C 1030.41 -1.75349 0.680754 0
M  V30 10982 O 1029.77 -1.77479 -0.37028 0
M  V30 10983 C 1029.81 -1.77445 3.1392 0
M  V30 10984 O 1028.92 -2.87524 2.95641 0
M  V30 10985 H 1028.26 -0.257031 0.612234 0
M  V30 10986 H 1030.79 -0.178755 2.03818 0
M  V30 10987 H 1030.8 -2.1758 3.45142 0
M  V30 10988 H 1029.47 -1.15927 3.99417 0
M  V30 10989 H 1028.05 -2.51023 2.75757 0
M  V30 10990 N 1030.24 -1.51135 -0.446768 0
M  V30 10991 C 1031.17 -1.74709 -1.54916 0
M  V30 10992 C 1032.15 -0.596628 -1.59293 0
M  V30 10993 O 1033.33 -0.838356 -1.75172 0
M  V30 10994 C 1030.46 -1.86353 -2.9307 0
M  V30 10995 C 1029.42 -3.01725 -3.03556 0
M  V30 10996 C 1028.74 -2.9854 -4.43597 0
M  V30 10997 C 1030.04 -4.41848 -2.7851 0
M  V30 10998 H 1031.74 -2.67014 -1.3544 0
M  V30 10999 H 1029.28 -1.28489 -0.650131 0
M  V30 11000 H 1031.23 -2.01428 -3.70141 0
M  V30 11001 H 1029.96 -0.906887 -3.13756 0
M  V30 11002 H 1028.62 -2.86339 -2.28922 0
M  V30 11003 H 1028.27 -2.00673 -4.61237 0
M  V30 11004 H 1027.97 -3.76008 -4.51544 0
M  V30 11005 H 1029.49 -3.15696 -5.22655 0
M  V30 11006 H 1030.9 -4.57633 -3.45319 0
M  V30 11007 H 1029.3 -5.2095 -2.97877 0
M  V30 11008 H 1030.37 -4.52536 -1.74182 0
M  V30 11009 N 1031.71 0.701592 -1.41122 0
M  V30 11010 C 1033.12 1.28129 -1.35793 0
M  V30 11011 C 1033.48 1.96163 -0.0381185 0
M  V30 11012 O 1032.6 1.98416 0.863723 0
M  V30 11013 C 1033.2 2.33005 -2.45955 0
M  V30 11014 C 1031.75 2.86566 -2.44043 0
M  V30 11015 C 1030.9 1.60526 -2.26112 0
M  V30 11016 H 1033.85 0.496756 -1.50725 0
M  V30 11017 H 1033.87 3.14163 -2.14667 0
M  V30 11018 H 1033.39 1.8346 -3.42 0
M  V30 11019 H 1031.49 3.40304 -1.51737 0
M  V30 11020 H 1031.6 3.37406 -3.40138 0
M  V30 11021 H 1029.96 1.86113 -1.7388 0
M  V30 11022 H 1030.75 1.12985 -3.24175 0
M  V30 11023 N 1033.19 1.2685 0.935242 0
M  V30 11024 C 1034.42 1.15371 1.71386 0
M  V30 11025 C 1034.83 -0.293048 1.86917 0
M  V30 11026 O 1034.17 -1.212 1.38044 0
M  V30 11027 C 1034.23 1.75652 3.13666 0
M  V30 11028 C 1033.9 3.24788 3.215 0
M  V30 11029 C 1034.9 4.21525 3.04323 0
M  V30 11030 C 1032.58 3.65359 3.447 0
M  V30 11031 C 1034.57 5.56812 3.10224 0
M  V30 11032 C 1032.26 5.00778 3.50235 0
M  V30 11033 C 1033.26 5.96314 3.33014 0
M  V30 11034 O 1032.95 7.29266 3.38269 0
M  V30 11035 H 1032.68 0.40234 0.54323 0
M  V30 11036 H 1035.23 1.68083 1.18056 0
M  V30 11037 H 1033.46 1.17408 3.68446 0
M  V30 11038 H 1035.15 1.58994 3.73465 0
M  V30 11039 H 1035.92 3.91519 2.86249 0
M  V30 11040 H 1031.8 2.91479 3.57157 0
M  V30 11041 H 1035.34 6.3136 2.967 0
M  V30 11042 H 1031.24 5.30444 3.67831 0
M  V30 11043 H 1032.01 7.37616 3.54774 0
M  V30 11044 N 1034.67 -1.14067 1.0875 0
M  V30 11045 C 1035.62 -2.21332 0.715195 0
M  V30 11046 C 1036.61 -1.67059 -0.280679 0
M  V30 11047 O 1037.82 -1.79432 -0.142874 0
M  V30 11048 H 1034.19 -0.721126 0.213264 0
M  V30 11049 H 1036.16 -2.50002 1.62916 0
M  V30 11050 C 1034.91 -3.474 0.144401 0
M  V30 11051 H 1034.24 -3.89495 0.901884 0
M  V30 11052 H 1035.68 -4.23928 -0.0782564 0
M  V30 11053 C 1034.14 -3.17787 -1.11862 0
M  V30 11054 O 1034.67 -3.35906 -2.20295 0
M  V30 11055 N 1032.87 -2.71719 -1.03039 0
M  V30 11056 H 1032.42 -2.57175 -0.14793 0
M  V30 11057 H 1032.38 -2.52281 -1.87621 0
M  V30 11058 N 1036.15 -0.873678 -1.31166 0
M  V30 11059 C 1037.08 -0.289389 -2.27366 0
M  V30 11060 C 1038.09 0.549667 -1.5324 0
M  V30 11061 O 1039.28 0.371056 -1.74601 0
M  V30 11062 C 1036.38 0.60807 -3.334 0
M  V30 11063 C 1035.56 -0.199379 -4.36945 0
M  V30 11064 C 1034.61 0.626798 -5.22454 0
M  V30 11065 O 1033.64 0.0535121 -5.69175 0
M  V30 11066 N 1034.84 1.93809 -5.47191 0
M  V30 11067 H 1037.61 -1.1161 -2.78143 0
M  V30 11068 H 1035.17 -0.735529 -1.44228 0
M  V30 11069 H 1037.16 1.16656 -3.87522 0
M  V30 11070 H 1035.73 1.33545 -2.82638 0
M  V30 11071 H 1034.95 -0.939316 -3.82845 0
M  V30 11072 H 1036.24 -0.75329 -5.03193 0
M  V30 11073 H 1035.64 2.42693 -5.10995 0
M  V30 11074 H 1034.19 2.44428 -6.04234 0
M  V30 11075 N 1037.63 1.44308 -0.633487 0
M  V30 11076 C 1039.04 1.85387 -0.221009 0
M  V30 11077 C 1039.39 1.5301 1.22811 0
M  V30 11078 O 1038.51 0.969325 1.93476 0
M  V30 11079 C 1039.11 3.36497 -0.394331 0
M  V30 11080 C 1037.67 3.76382 -0.0363405 0
M  V30 11081 C 1036.81 2.68146 -0.706598 0
M  V30 11082 H 1039.77 1.34741 -0.83849 0
M  V30 11083 H 1039.79 3.78735 0.366026 0
M  V30 11084 H 1039.3 3.60031 -1.44911 0
M  V30 11085 H 1037.4 3.58463 1.01661 0
M  V30 11086 H 1037.51 4.77 -0.448045 0
M  V30 11087 H 1035.88 2.54306 -0.14168 0
M  V30 11088 H 1036.66 2.94512 -1.76401 0
M  V30 11089 N 1039.1 0.374177 1.53094 0
M  V30 11090 C 1040.35 -0.212396 2.00981 0
M  V30 11091 C 1040.67 -1.48576 1.26293 0
M  V30 11092 O 1039.94 -1.92206 0.378642 0
M  V30 11093 H 1038.52 -0.0814763 0.742543 0
M  V30 11094 H 1041.19 0.502389 1.88314 0
M  V30 11095 H 1040.28 -0.433316 3.09077 0
M  V30 11096 N 1040.58 -1.57259 0.103575 0
M  V30 11097 C 1041.81 -1.99 -0.566275 0
M  V30 11098 C 1042.23 -0.982909 -1.61197 0
M  V30 11099 O 1041.58 0.026345 -1.82481 0
M  V30 11100 C 1041.63 -3.40778 -1.20635 0
M  V30 11101 O 1041.35 -4.37632 -0.202472 0
M  V30 11102 C 1042.86 -3.97567 -1.961 0
M  V30 11103 H 1040.08 -0.653751 -0.151164 0
M  V30 11104 H 1042.62 -2.03658 0.185365 0
M  V30 11105 H 1040.77 -3.37107 -1.90886 0
M  V30 11106 H 1041.19 -5.2026 -0.665535 0
M  V30 11107 H 1042.66 -4.98897 -2.36233 0
M  V30 11108 H 1043.14 -3.35853 -2.83018 0
M  V30 11109 H 1043.75 -4.04737 -1.30645 0
M  V30 11110 N 1042.06 0.170153 -1.56679 0
M  V30 11111 C 1043.3 0.893073 -1.83857 0
M  V30 11112 C 1043.66 1.79378 -0.684661 0
M  V30 11113 O 1044.87 2.55439 -0.836926 0
M  V30 11114 C 1043.14 1.66679 -3.16153 0
M  V30 11115 S 1044.7 2.43831 -3.64818 0
M  V30 11116 H 1041.51 0.299091 -0.645031 0
M  V30 11117 H 1044.12 0.154628 -1.94888 0
M  V30 11118 H 1042.82 0.996152 -3.98127 0
M  V30 11119 H 1042.35 2.44658 -3.08068 0
M  V30 11120 H 1044.37 3.68555 -3.32237 0
M  V30 11121 N 1043.54 1.5137 0.438746 0
M  V30 11122 C 1044.77 1.6753 1.20901 0
M  V30 11123 C 1045.18 0.371573 1.85515 0
M  V30 11124 O 1044.52 -0.659701 1.71446 0
M  V30 11125 C 1044.58 2.73305 2.33548 0
M  V30 11126 C 1044.25 4.15944 1.89313 0
M  V30 11127 C 1045.24 5.00769 1.39736 0
M  V30 11128 C 1042.93 4.62036 1.97047 0
M  V30 11129 C 1044.92 6.29747 0.984773 0
M  V30 11130 C 1042.61 5.91011 1.554 0
M  V30 11131 C 1043.61 6.74693 1.06197 0
M  V30 11132 O 1043.29 8.01256 0.651407 0
M  V30 11133 H 1043.03 0.565404 0.370532 0
M  V30 11134 H 1045.58 1.98543 0.526296 0
M  V30 11135 H 1043.81 2.37604 3.05092 0
M  V30 11136 H 1045.5 2.78359 2.95417 0
M  V30 11137 H 1046.27 4.66363 1.33156 0
M  V30 11138 H 1042.14 3.97025 2.34291 0
M  V30 11139 H 1045.69 6.95015 0.600029 0
M  V30 11140 H 1041.59 6.24932 1.6165 0
M  V30 11141 H 1042.35 8.148 0.777382 0
M  V30 11142 N 1045.02 -0.694098 1.41492 0
M  V30 11143 C 1046.24 -1.48286 1.44288 0
M  V30 11144 C 1046.66 -1.88737 0.0485783 0
M  V30 11145 O 1046.02 -1.56881 -0.932449 0
M  V30 11146 C 1046.07 -2.74446 2.3529 0
M  V30 11147 O 1045.79 -2.35698 3.69294 0
M  V30 11148 C 1047.29 -3.68175 2.46905 0
M  V30 11149 H 1044.51 -0.45692 0.491391 0
M  V30 11150 H 1047.05 -0.854477 1.85793 0
M  V30 11151 H 1045.21 -3.33518 1.9709 0
M  V30 11152 H 1045.62 -3.17029 4.17843 0
M  V30 11153 H 1047.1 -4.53476 3.14743 0
M  V30 11154 H 1047.57 -4.12763 1.50078 0
M  V30 11155 H 1048.18 -3.15006 2.85747 0
M  V30 11156 N 1046.49 -1.27344 -0.928501 0
M  V30 11157 C 1047.42 -1.12517 -2.04602 0
M  V30 11158 C 1048.41 -0.0268563 -1.70079 0
M  V30 11159 O 1049.59 -0.201197 -1.93155 0
M  V30 11160 C 1046.72 -0.770749 -3.3864 0
M  V30 11161 C 1045.67 -1.8222 -3.87272 0
M  V30 11162 C 1045 -1.32178 -5.18105 0
M  V30 11163 C 1046.3 -3.22614 -4.10752 0
M  V30 11164 H 1047.99 -2.06 -2.17265 0
M  V30 11165 H 1045.54 -0.991827 -1.04397 0
M  V30 11166 H 1047.49 -0.653843 -4.16297 0
M  V30 11167 H 1046.22 0.19979 -3.25988 0
M  V30 11168 H 1044.88 -1.928 -3.11807 0
M  V30 11169 H 1044.52 -0.340719 -5.01845 0
M  V30 11170 H 1044.22 -2.02474 -5.51614 0
M  V30 11171 H 1045.75 -1.2178 -5.98333 0
M  V30 11172 H 1047.16 -3.1504 -4.78981 0
M  V30 11173 H 1045.56 -3.90614 -4.55566 0
M  V30 11174 H 1046.63 -3.67727 -3.16077 0
M  V30 11175 N 1047.97 1.13488 -1.09353 0
M  V30 11176 C 1049.22 1.85022 -0.830354 0
M  V30 11177 C 1049.55 1.83266 0.64242 0
M  V30 11178 O 1048.83 1.27024 1.47293 0
M  V30 11179 C 1049.11 3.33218 -1.36521 0
M  V30 11180 C 1048.96 3.43491 -2.90404 0
M  V30 11181 C 1050.28 4.28626 -0.998381 0
M  V30 11182 H 1047.4 0.671786 -0.303105 0
M  V30 11183 H 1050.04 1.33211 -1.3548 0
M  V30 11184 H 1048.19 3.77471 -0.919117 0
M  V30 11185 H 1049.86 3.07954 -3.43456 0
M  V30 11186 H 1048.11 2.84391 -3.27573 0
M  V30 11187 H 1048.78 4.47702 -3.22905 0
M  V30 11188 H 1051.25 3.9244 -1.38311 0
M  V30 11189 H 1050.13 5.30754 -1.39968 0
M  V30 11190 H 1050.39 4.42001 0.093517 0
M  V30 11191 N 1049.45 0.880621 1.30701 0
M  V30 11192 C 1050.41 0.349087 2.26526 0
M  V30 11193 C 1051.41 -0.505973 1.52632 0
M  V30 11194 O 1052.6 -0.313751 1.71351 0
M  V30 11195 C 1049.74 -0.503023 3.37168 0
M  V30 11196 H 1050.93 1.19516 2.75056 0
M  V30 11197 H 1048.48 0.657107 1.41816 0
M  V30 11198 H 1049.22 -1.36986 2.93948 0
M  V30 11199 H 1049 0.109389 3.91947 0
M  V30 11200 H 1050.49 -0.866845 4.08504 0
M  V30 11201 N 1050.93 -1.4397 0.641131 0
M  V30 11202 C 1051.86 -2.33458 -0.04446 0
M  V30 11203 C 1052.84 -1.48781 -0.824507 0
M  V30 11204 O 1054.03 -1.77477 -0.788397 0
M  V30 11205 C 1051.16 -3.31989 -1.01984 0
M  V30 11206 C 1050.11 -4.2656 -0.350745 0
M  V30 11207 C 1049.44 -5.15036 -1.43673 0
M  V30 11208 C 1050.74 -5.16897 0.749299 0
M  V30 11209 H 1052.43 -2.91034 0.702832 0
M  V30 11210 H 1049.98 -1.39942 0.339435 0
M  V30 11211 H 1051.93 -3.93483 -1.50828 0
M  V30 11212 H 1050.65 -2.72643 -1.79815 0
M  V30 11213 H 1049.31 -3.66413 0.117139 0
M  V30 11214 H 1048.96 -4.52037 -2.20617 0
M  V30 11215 H 1048.66 -5.79125 -0.994358 0
M  V30 11216 H 1050.18 -5.79403 -1.92678 0
M  V30 11217 H 1051.6 -5.7227 0.343534 0
M  V30 11218 H 1049.99 -5.89643 1.11541 0
M  V30 11219 H 1051.06 -4.5731 1.61232 0
M  V30 11220 N 1052.41 -0.382291 -1.52893 0
M  V30 11221 C 1053.82 0.0932841 -1.86467 0
M  V30 11222 C 1054.17 1.4675 -1.30226 0
M  V30 11223 O 1053.29 2.07001 -0.63084 0
M  V30 11224 C 1053.89 0.176048 -3.38342 0
M  V30 11225 C 1052.45 0.595904 -3.71653 0
M  V30 11226 C 1051.6 -0.246511 -2.76202 0
M  V30 11227 H 1054.55 -0.600443 -1.46903 0
M  V30 11228 H 1054.57 0.996512 -3.67219 0
M  V30 11229 H 1054.08 -0.824264 -3.79246 0
M  V30 11230 H 1052.18 1.60384 -3.36315 0
M  V30 11231 H 1052.29 0.358919 -4.77754 0
M  V30 11232 H 1050.66 0.287162 -2.53076 0
M  V30 11233 H 1051.44 -1.24467 -3.19942 0
M  V30 11234 N 1053.89 1.57202 -0.111913 0
M  V30 11235 C 1054.83 2.14936 0.840908 0
M  V30 11236 C 1055.8 1.07242 1.2684 0
M  V30 11237 O 1056.99 1.35114 1.34718 0
M  V30 11238 C 1054.13 2.74743 2.0883 0
M  V30 11239 C 1053.24 3.96723 1.70982 0
M  V30 11240 C 1052.38 4.4464 2.90634 0
M  V30 11241 C 1051.41 5.59169 2.48992 0
M  V30 11242 N 1050.55 6.01862 3.61534 0
M  V30 11243 H 1055.39 2.96034 0.341735 0
M  V30 11244 H 1052.93 1.4626 0.156993 0
M  V30 11245 H 1054.89 3.07546 2.81907 0
M  V30 11246 H 1053.52 1.96346 2.56218 0
M  V30 11247 H 1052.57 3.70127 0.878072 0
M  V30 11248 H 1053.88 4.79795 1.36373 0
M  V30 11249 H 1053.03 4.79315 3.71944 0
M  V30 11250 H 1051.77 3.60503 3.28464 0
M  V30 11251 H 1050.78 5.24106 1.66113 0
M  V30 11252 H 1052 6.45067 2.12287 0
M  V30 11253 H 1049.95 5.20667 3.99051 0
M  V30 11254 H 1049.87 6.79772 3.30827 0
M  V30 11255 H 1051.13 6.41172 4.43305 0
M  V30 11256 N 1055.36 -0.161842 1.56767 0
M  V30 11257 C 1056.27 -1.21996 2.00385 0
M  V30 11258 C 1057.29 -1.4789 0.916768 0
M  V30 11259 O 1058.47 -1.59852 1.22513 0
M  V30 11260 C 1055.53 -2.53695 2.36305 0
M  V30 11261 C 1054.59 -2.3558 3.58888 0
M  V30 11262 C 1053.82 -3.60998 3.93085 0
M  V30 11263 O 1054.05 -4.6657 3.28129 0
M  V30 11264 O 1052.98 -3.54544 4.86397 0
M  V30 11265 H 1056.81 -0.879701 2.9068 0
M  V30 11266 H 1054.39 -0.369437 1.4476 0
M  V30 11267 H 1056.27 -3.31366 2.60335 0
M  V30 11268 H 1054.95 -2.87281 1.49169 0
M  V30 11269 H 1053.86 -1.55908 3.40064 0
M  V30 11270 H 1055.19 -2.06915 4.46595 0
M  V30 11271 N 1056.84 -1.516 -0.430713 0
M  V30 11272 C 1058.12 -1.55142 -1.19123 0
M  V30 11273 C 1058.5 -0.319596 -2.08667 0
M  V30 11274 O 1057.85 0.694927 -2.17676 0
M  V30 11275 C 1058.06 -2.86891 -1.98732 0
M  V30 11276 C 1059.4 -3.39089 -2.55546 0
M  V30 11277 O 1060.43 -2.88486 -2.08936 0
M  V30 11278 O 1059.29 -4.27401 -3.40574 0
M  V30 11279 H 1056.38 -0.624019 -0.542705 0
M  V30 11280 H 1058.93 -1.63917 -0.439244 0
M  V30 11281 H 1057.7 -3.68002 -1.33005 0
M  V30 11282 H 1057.32 -2.81309 -2.80982 0
M  V30 11283 N 1058.32 0.686584 -1.41858 0
M  V30 11284 C 1059.73 1.26682 -1.37145 0
M  V30 11285 C 1060.08 1.96112 -0.058922 0
M  V30 11286 O 1059.21 1.99321 0.842629 0
M  V30 11287 C 1059.8 2.30383 -2.48413 0
M  V30 11288 C 1058.36 2.83961 -2.47069 0
M  V30 11289 C 1057.51 1.58119 -2.27802 0
M  V30 11290 H 1060.46 0.480742 -1.51243 0
M  V30 11291 H 1060.48 3.11868 -2.17987 0
M  V30 11292 H 1059.99 1.79822 -3.43927 0
M  V30 11293 H 1058.09 3.38675 -1.55338 0
M  V30 11294 H 1058.21 3.3378 -3.43697 0
M  V30 11295 H 1056.57 1.84258 -1.75844 0
M  V30 11296 H 1057.35 1.09541 -3.25355 0
M  V30 11297 N 1059.8 1.27835 0.921735 0
M  V30 11298 C 1061.03 1.17352 1.704 0
M  V30 11299 C 1061.44 -0.268892 1.86875 0
M  V30 11300 O 1060.8 -1.18253 1.39005 0
M  V30 11301 C 1060.85 1.85889 3.10045 0
M  V30 11302 O 1060.57 3.24495 2.94338 0
M  V30 11303 C 1062.07 1.81607 4.04393 0
M  V30 11304 H 1059.29 0.40773 0.532914 0
M  V30 11305 H 1061.83 1.68815 1.15419 0
M  V30 11306 H 1059.99 1.38316 3.61867 0
M  V30 11307 H 1060.4 3.58705 3.82663 0
M  V30 11308 H 1061.88 2.34165 4.99871 0
M  V30 11309 H 1062.35 0.786697 4.32097 0
M  V30 11310 H 1062.96 2.28822 3.58498 0
M  V30 11311 N 1061.28 -1.12907 1.09954 0
M  V30 11312 C 1062.24 -2.16673 0.747364 0
M  V30 11313 C 1063.24 -1.59208 -0.225741 0
M  V30 11314 O 1064.43 -1.742 -0.00322482 0
M  V30 11315 C 1061.56 -3.40735 0.106169 0
M  V30 11316 H 1062.75 -2.49341 1.6664 0
M  V30 11317 H 1060.31 -1.27828 0.899421 0
M  V30 11318 H 1061.04 -3.13661 -0.82384 0
M  V30 11319 H 1060.83 -3.83717 0.806434 0
M  V30 11320 H 1062.32 -4.17414 -0.12464 0
M  V30 11321 N 1062.75 -0.88754 -1.30232 0
M  V30 11322 C 1064 -0.508031 -1.96334 0
M  V30 11323 C 1064.33 0.940905 -1.69884 0
M  V30 11324 O 1063.61 1.66523 -1.005 0
M  V30 11325 C 1063.89 -0.786566 -3.51405 0
M  V30 11326 C 1063.74 -2.28632 -3.8736 0
M  V30 11327 C 1065.06 -0.264803 -4.39303 0
M  V30 11328 H 1062.18 -0.186051 -0.71313 0
M  V30 11329 H 1064.82 -1.112 -1.5406 0
M  V30 11330 H 1062.97 -0.272523 -3.87543 0
M  V30 11331 H 1064.65 -2.86896 -3.61231 0
M  V30 11332 H 1062.89 -2.75194 -3.35337 0
M  V30 11333 H 1063.56 -2.43181 -4.95547 0
M  V30 11334 H 1066.04 -0.704809 -4.10087 0
M  V30 11335 H 1064.91 -0.488998 -5.46717 0
M  V30 11336 H 1065.17 0.834055 -4.34161 0
M  V30 11337 N 1064.23 1.43628 -0.648757 0
M  V30 11338 C 1065.2 2.29172 0.0360713 0
M  V30 11339 C 1066.2 1.41974 0.754976 0
M  V30 11340 O 1067.39 1.63654 0.5969 0
M  V30 11341 C 1064.52 3.23942 1.0618 0
M  V30 11342 H 1065.71 2.91214 -0.716544 0
M  V30 11343 H 1063.26 1.50833 -0.409759 0
M  V30 11344 H 1064 2.66786 1.8438 0
M  V30 11345 H 1063.78 3.88223 0.550016 0
M  V30 11346 H 1065.27 3.8816 1.54019 0
M  V30 11347 N 1065.71 0.390394 1.52688 0
M  V30 11348 C 1066.95 -0.191207 2.03504 0
M  V30 11349 C 1067.31 -1.43952 1.27051 0
M  V30 11350 O 1068.52 -2.09835 1.67996 0
M  V30 11351 C 1066.79 -0.451552 3.54536 0
M  V30 11352 S 1068.35 -1.00328 4.27176 0
M  V30 11353 H 1065.16 -0.0537587 0.708965 0
M  V30 11354 H 1067.77 0.538993 1.87923 0
M  V30 11355 H 1066.47 0.464061 4.07768 0
M  V30 11356 H 1066 -1.21015 3.74325 0
M  V30 11357 H 1068.02 -2.28555 4.40428 0
M  V30 11358 N 1067.19 -1.57141 0.120249 0
M  V30 11359 C 1068.42 -1.99589 -0.545136 0
M  V30 11360 C 1068.83 -0.999951 -1.60145 0
M  V30 11361 O 1068.19 0.00698897 -1.82499 0
M  V30 11362 C 1068.24 -3.42038 -1.17014 0
M  V30 11363 O 1067.96 -4.37822 -0.156044 0
M  V30 11364 C 1069.46 -3.99625 -1.91872 0
M  V30 11365 H 1066.68 -0.655318 -0.144222 0
M  V30 11366 H 1069.23 -2.0345 0.206955 0
M  V30 11367 H 1067.38 -3.39113 -1.873 0
M  V30 11368 H 1067.79 -5.20937 -0.610317 0
M  V30 11369 H 1069.27 -5.01374 -2.30928 0
M  V30 11370 H 1069.75 -3.38836 -2.7944 0
M  V30 11371 H 1070.35 -4.061 -1.26345 0
M  V30 11372 N 1068.67 0.153526 -1.5685 0
M  V30 11373 C 1069.91 0.867232 -1.8299 0
M  V30 11374 C 1070.24 1.81462 -0.700125 0
M  V30 11375 O 1069.5 1.93207 0.311348 0
M  V30 11376 C 1069.8 1.68066 -3.15418 0
M  V30 11377 C 1069.46 0.880635 -4.42217 0
M  V30 11378 C 1068.12 0.659899 -4.76654 0
M  V30 11379 C 1070.48 0.320698 -5.20212 0
M  V30 11380 C 1067.8 -0.131588 -5.86552 0
M  V30 11381 C 1070.16 -0.457794 -6.30941 0
M  V30 11382 C 1068.82 -0.689168 -6.63933 0
M  V30 11383 H 1068.09 0.317343 -0.669608 0
M  V30 11384 H 1070.74 0.131208 -1.9105 0
M  V30 11385 H 1069.04 2.4866 -3.02779 0
M  V30 11386 H 1070.74 2.23623 -3.32857 0
M  V30 11387 H 1067.33 1.06274 -4.15215 0
M  V30 11388 H 1071.51 0.47853 -4.93988 0
M  V30 11389 H 1066.77 -0.320413 -6.1056 0
M  V30 11390 H 1070.94 -0.898839 -6.90575 0
M  V30 11391 H 1068.57 -1.30433 -7.48927 0
M  V30 11392 N 1070.14 1.51827 0.422667 0
M  V30 11393 C 1071.37 1.69337 1.19748 0
M  V30 11394 C 1071.79 0.396312 1.83878 0
M  V30 11395 O 1071.15 -0.644976 1.6944 0
M  V30 11396 C 1071.2 2.82082 2.24637 0
M  V30 11397 O 1070.3 2.46708 3.30468 0
M  V30 11398 H 1069.65 0.564154 0.35018 0
M  V30 11399 H 1072.18 1.98465 0.497289 0
M  V30 11400 H 1072.19 3.06599 2.69186 0
M  V30 11401 H 1070.86 3.76195 1.77341 0
M  V30 11402 H 1069.44 2.32815 2.91293 0
M  V30 11403 N 1071.62 -0.679052 1.4222 0
M  V30 11404 C 1072.86 -1.45118 1.43945 0
M  V30 11405 C 1073.23 -1.91928 0.0524851 0
M  V30 11406 O 1074.43 -2.68743 -0.0555318 0
M  V30 11407 C 1072.7 -2.6191 2.43183 0
M  V30 11408 S 1074.26 -3.50819 2.63574 0
M  V30 11409 H 1071.08 -0.495695 0.509713 0
M  V30 11410 H 1073.68 -0.790842 1.7879 0
M  V30 11411 H 1072.38 -2.25752 3.42731 0
M  V30 11412 H 1071.91 -3.3282 2.09748 0
M  V30 11413 H 1073.93 -4.57735 1.91555 0
M  V30 11414 N 1073.1 -1.28322 -0.914942 0
M  V30 11415 C 1074.03 -1.06469 -2.01841 0
M  V30 11416 C 1075.01 0.0188681 -1.62589 0
M  V30 11417 O 1076.2 -0.128825 -1.88059 0
M  V30 11418 C 1073.32 -0.617685 -3.3302 0
M  V30 11419 C 1072.37 -1.6977 -3.91255 0
M  V30 11420 S 1073.2 -3.29337 -4.22253 0
M  V30 11421 C 1074.36 -2.86468 -5.56495 0
M  V30 11422 H 1074.59 -1.99893 -2.20068 0
M  V30 11423 H 1072.12 -1.12297 -1.05966 0
M  V30 11424 H 1074.08 -0.366481 -4.08861 0
M  V30 11425 H 1072.74 0.296709 -3.12695 0
M  V30 11426 H 1071.94 -1.33653 -4.85956 0
M  V30 11427 H 1071.54 -1.90164 -3.22046 0
M  V30 11428 H 1073.83 -2.32565 -6.36333 0
M  V30 11429 H 1074.77 -3.79962 -5.97523 0
M  V30 11430 H 1075.18 -2.2522 -5.17626 0
M  V30 11431 N 1074.58 1.12322 -1.10551 0
M  V30 11432 C 1075.51 2.17221 -0.699299 0
M  V30 11433 C 1076.49 1.59809 0.299973 0
M  V30 11434 O 1077.67 1.87451 0.198589 0
M  V30 11435 C 1074.8 3.38685 -0.0320136 0
M  V30 11436 C 1073.85 4.14732 -0.99495 0
M  V30 11437 S 1074.68 4.72879 -2.51288 0
M  V30 11438 C 1075.84 5.97676 -1.85834 0
M  V30 11439 H 1076.07 2.51342 -1.5879 0
M  V30 11440 H 1073.6 1.23802 -0.92263 0
M  V30 11441 H 1075.56 4.09034 0.346656 0
M  V30 11442 H 1074.22 3.02842 0.833407 0
M  V30 11443 H 1073.41 5.01754 -0.475331 0
M  V30 11444 H 1073.02 3.50098 -1.31559 0
M  V30 11445 H 1075.31 6.6698 -1.18927 0
M  V30 11446 H 1076.25 6.54266 -2.70817 0
M  V30 11447 H 1076.66 5.48793 -1.32237 0
M  V30 11448 N 1076.06 0.894434 1.2976 0
M  V30 11449 C 1077 0.366586 2.2787 0
M  V30 11450 C 1077.97 -0.548425 1.56785 0
M  V30 11451 O 1079.16 -0.474804 1.84798 0
M  V30 11452 C 1076.3 -0.404531 3.42721 0
M  V30 11453 C 1075.41 0.540774 4.28602 0
M  V30 11454 C 1074.55 -0.246875 5.30626 0
M  V30 11455 C 1073.59 0.693294 6.08161 0
M  V30 11456 N 1072.72 -0.059619 7.02075 0
M  V30 11457 H 1077.56 1.20834 2.72402 0
M  V30 11458 H 1075.1 0.607205 1.33983 0
M  V30 11459 H 1077.06 -0.86762 4.08079 0
M  V30 11460 H 1075.69 -1.21078 2.99232 0
M  V30 11461 H 1074.74 1.12237 3.63465 0
M  V30 11462 H 1076.05 1.26065 4.82606 0
M  V30 11463 H 1075.21 -0.771398 6.01776 0
M  V30 11464 H 1073.94 -0.999918 4.77339 0
M  V30 11465 H 1072.95 1.22936 5.35879 0
M  V30 11466 H 1074.17 1.44558 6.63536 0
M  V30 11467 H 1072.12 -0.795026 6.51165 0
M  V30 11468 H 1072.04 0.60045 7.53612 0
M  V30 11469 H 1073.31 -0.564577 7.77453 0
M  V30 11470 N 1077.53 -1.43282 0.656365 0
M  V30 11471 C 1078.78 -2.01776 0.171039 0
M  V30 11472 C 1079.11 -1.51795 -1.21609 0
M  V30 11473 O 1078.36 -0.702864 -1.82643 0
M  V30 11474 C 1078.66 -3.57148 0.134225 0
M  V30 11475 C 1078.33 -4.26488 1.46352 0
M  V30 11476 C 1076.99 -4.45146 1.82753 0
M  V30 11477 C 1079.34 -4.65728 2.33981 0
M  V30 11478 C 1076.67 -5.0031 3.06443 0
M  V30 11479 C 1079.02 -5.22263 3.56966 0
M  V30 11480 C 1077.69 -5.39136 3.93559 0
M  V30 11481 H 1076.96 -0.738352 0.0625878 0
M  V30 11482 H 1079.6 -1.71716 0.847697 0
M  V30 11483 H 1077.91 -3.86768 -0.625892 0
M  V30 11484 H 1079.61 -4.00168 -0.258207 0
M  V30 11485 H 1076.2 -4.12313 1.1703 0
M  V30 11486 H 1080.38 -4.51003 2.07148 0
M  V30 11487 H 1075.64 -5.11559 3.34839 0
M  V30 11488 H 1079.81 -5.51614 4.25082 0
M  V30 11489 H 1077.44 -5.81646 4.89481 0
M  V30 11490 N 1079.01 -0.398486 -1.52479 0
M  V30 11491 C 1080.24 0.180557 -2.06111 0
M  V30 11492 C 1080.66 1.39751 -1.26945 0
M  V30 11493 O 1080.01 1.79699 -0.318497 0
M  V30 11494 C 1080.06 0.541573 -3.5742 0
M  V30 11495 O 1079.79 -0.627043 -4.33589 0
M  V30 11496 C 1081.29 1.17549 -4.27431 0
M  V30 11497 H 1078.51 0.0250754 -0.670531 0
M  V30 11498 H 1081.05 -0.566368 -1.96501 0
M  V30 11499 H 1079.21 1.23839 -3.67073 0
M  V30 11500 H 1079.62 -0.328233 -5.23472 0
M  V30 11501 H 1081.09 1.37839 -5.34513 0
M  V30 11502 H 1081.57 2.14553 -3.83228 0
M  V30 11503 H 1082.18 0.51918 -4.22119 0
M  V30 11504 N 1080.49 1.57075 -0.12858 0
M  V30 11505 C 1081.74 1.9581 0.527868 0
M  V30 11506 C 1082.07 1.01253 1.65715 0
M  V30 11507 O 1081.35 0.0514853 1.94432 0
M  V30 11508 C 1081.63 3.44406 1.05151 0
M  V30 11509 C 1081.48 4.49737 -0.0750113 0
M  V30 11510 C 1082.8 3.95069 1.9393 0
M  V30 11511 H 1079.92 0.711978 0.19041 0
M  V30 11512 H 1082.56 1.88879 -0.206081 0
M  V30 11513 H 1080.71 3.50443 1.67697 0
M  V30 11514 H 1082.38 4.55793 -0.710685 0
M  V30 11515 H 1080.63 4.27497 -0.736809 0
M  V30 11516 H 1081.3 5.50996 0.332779 0
M  V30 11517 H 1083.77 3.91395 1.41241 0
M  V30 11518 H 1082.65 4.99542 2.27484 0
M  V30 11519 H 1082.91 3.36329 2.86941 0
M  V30 11520 N 1081.97 -0.145205 1.5693 0
M  V30 11521 C 1082.92 -1.17923 1.98401 0
M  V30 11522 C 1083.89 -1.42591 0.851885 0
M  V30 11523 O 1085.07 -1.54896 1.11409 0
M  V30 11524 C 1082.21 -2.50727 2.37128 0
M  V30 11525 C 1081.32 -2.33218 3.63639 0
M  V30 11526 C 1080.46 -3.5907 3.91462 0
M  V30 11527 C 1079.5 -3.36605 5.11237 0
M  V30 11528 N 1078.64 -4.54592 5.35061 0
M  V30 11529 H 1083.48 -0.818573 2.86537 0
M  V30 11530 H 1081.01 -0.392739 1.4176 0
M  V30 11531 H 1082.97 -3.28165 2.57611 0
M  V30 11532 H 1081.6 -2.84736 1.52069 0
M  V30 11533 H 1080.65 -1.46826 3.50922 0
M  V30 11534 H 1081.96 -2.12579 4.51234 0
M  V30 11535 H 1081.12 -4.44936 4.12453 0
M  V30 11536 H 1079.86 -3.82715 3.02293 0
M  V30 11537 H 1078.86 -2.49127 4.90118 0
M  V30 11538 H 1080.09 -3.14357 6.01961 0
M  V30 11539 H 1078.03 -4.78406 4.48847 0
M  V30 11540 H 1077.95 -4.36962 6.16928 0
M  V30 11541 H 1079.22 -5.41666 5.60551 0
M  V30 11542 N 1083.45 -1.52049 -0.414609 0
M  V30 11543 C 1084.72 -1.56397 -1.17471 0
M  V30 11544 C 1085.1 -0.34171 -2.08316 0
M  V30 11545 O 1084.45 0.6718 -2.18401 0
M  V30 11546 C 1084.66 -2.88983 -1.95678 0
M  V30 11547 C 1086.01 -3.41781 -2.51935 0
M  V30 11548 O 1087.03 -2.90686 -2.05865 0
M  V30 11549 O 1085.89 -4.30989 -3.36022 0
M  V30 11550 H 1082.99 -0.62974 -0.536056 0
M  V30 11551 H 1085.53 -1.64374 -0.421834 0
M  V30 11552 H 1084.31 -3.69392 -1.29094 0
M  V30 11553 H 1083.93 -2.84274 -2.77983 0
M  V30 11554 N 1084.93 0.6715 -1.42579 0
M  V30 11555 C 1086.17 1.44353 -1.44712 0
M  V30 11556 C 1086.53 1.91898 -0.0626628 0
M  V30 11557 O 1087.73 2.68768 0.0412789 0
M  V30 11558 C 1086 2.60616 -2.44569 0
M  V30 11559 S 1087.56 3.49416 -2.65431 0
M  V30 11560 H 1084.38 0.492985 -0.512334 0
M  V30 11561 H 1086.98 0.781349 -1.79207 0
M  V30 11562 H 1085.68 2.23931 -3.43923 0
M  V30 11563 H 1085.22 3.31703 -2.1151 0
M  V30 11564 H 1087.23 4.56712 -1.9398 0
M  V30 11565 N 1086.4 1.28806 0.908124 0
M  V30 11566 C 1087.68 1.06981 1.63751 0
M  V30 11567 C 1088.06 -0.388936 2.07486 0
M  V30 11568 O 1087.41 -1.37611 1.82415 0
M  V30 11569 C 1087.62 2.04962 2.82474 0
M  V30 11570 C 1088.97 2.35418 3.5336 0
M  V30 11571 O 1089.99 2.03091 2.92631 0
M  V30 11572 O 1088.85 2.90617 4.62822 0
M  V30 11573 H 1085.94 0.409267 0.71863 0
M  V30 11574 H 1088.49 1.40146 0.956934 0
M  V30 11575 H 1087.26 3.03254 2.47291 0
M  V30 11576 H 1086.88 1.72476 3.58242 0
M  V30 11577 N 1087.88 -1.11734 1.11145 0
M  V30 11578 C 1089.29 -1.64928 0.874959 0
M  V30 11579 C 1089.64 -1.87012 -0.593375 0
M  V30 11580 O 1088.77 -1.60206 -1.45475 0
M  V30 11581 C 1089.36 -2.99608 1.58178 0
M  V30 11582 C 1087.92 -3.49723 1.39179 0
M  V30 11583 C 1087.07 -2.24595 1.62642 0
M  V30 11584 H 1090.02 -0.954154 1.26813 0
M  V30 11585 H 1090.04 -3.66434 1.02501 0
M  V30 11586 H 1089.55 -2.83504 2.65042 0
M  V30 11587 H 1087.65 -3.70998 0.345111 0
M  V30 11588 H 1087.77 -4.28711 2.13878 0
M  V30 11589 H 1086.13 -2.32067 1.04961 0
M  V30 11590 H 1086.91 -2.11036 2.70774 0
M  V30 11591 N 1089.36 -0.901303 -1.29284 0
M  V30 11592 C 1090.59 -0.543511 -1.99634 0
M  V30 11593 C 1091 0.872154 -1.67448 0
M  V30 11594 O 1090.36 1.57591 -0.920406 0
M  V30 11595 C 1090.41 -0.728148 -3.54091 0
M  V30 11596 O 1090.13 -2.08809 -3.85137 0
M  V30 11597 C 1091.63 -0.375519 -4.41707 0
M  V30 11598 H 1088.85 -0.208405 -0.637815 0
M  V30 11599 H 1091.4 -1.21109 -1.64781 0
M  V30 11600 H 1089.55 -0.107728 -3.8725 0
M  V30 11601 H 1089.97 -2.11863 -4.79807 0
M  V30 11602 H 1091.44 -0.555538 -5.49197 0
M  V30 11603 H 1091.92 0.687532 -4.33785 0
M  V30 11604 H 1092.52 -0.972949 -4.14021 0
M  V30 11605 N 1090.84 1.42931 -0.663954 0
M  V30 11606 C 1092.07 2.06028 -0.189808 0
M  V30 11607 C 1092.48 1.49827 1.14879 0
M  V30 11608 O 1091.84 0.633778 1.71142 0
M  V30 11609 C 1091.89 3.61349 -0.104343 0
M  V30 11610 O 1091.61 4.15463 -1.39004 0
M  V30 11611 C 1093.11 4.4154 0.394599 0
M  V30 11612 H 1090.33 0.664259 -0.0948744 0
M  V30 11613 H 1092.87 1.83255 -0.907632 0
M  V30 11614 H 1091.03 3.83271 0.564103 0
M  V30 11615 H 1091.44 5.09233 -1.25626 0
M  V30 11616 H 1092.92 5.50525 0.403329 0
M  V30 11617 H 1093.39 4.1534 1.4279 0
M  V30 11618 H 1094 4.24612 -0.241729 0
M  V30 11619 N 1092.32 0.406567 1.52266 0
M  V30 11620 C 1093.56 -0.169717 2.01386 0
M  V30 11621 C 1093.88 -1.45864 1.29417 0
M  V30 11622 O 1093.15 -1.9136 0.419327 0
M  V30 11623 H 1091.73 -0.0657075 0.744105 0
M  V30 11624 H 1094.4 0.542221 1.87206 0
M  V30 11625 H 1093.49 -0.367659 3.09927 0
M  V30 11626 N 1093.79 -1.57004 0.136909 0
M  V30 11627 C 1094.7 -2.19807 -0.819887 0
M  V30 11628 C 1095.72 -1.17939 -1.27932 0
M  V30 11629 O 1096.9 -1.50478 -1.3386 0
M  V30 11630 C 1093.96 -2.79935 -2.04542 0
M  V30 11631 C 1093.02 -3.96897 -1.6362 0
M  V30 11632 C 1092.26 -4.54148 -2.80331 0
M  V30 11633 O 1092.48 -4.10282 -3.96264 0
M  V30 11634 O 1091.41 -5.44565 -2.56384 0
M  V30 11635 H 1095.24 -3.02058 -0.315337 0
M  V30 11636 H 1092.82 -1.49131 -0.0896151 0
M  V30 11637 H 1094.71 -3.18191 -2.76283 0
M  V30 11638 H 1093.38 -2.00703 -2.53969 0
M  V30 11639 H 1092.29 -3.63376 -0.889316 0
M  V30 11640 H 1093.62 -4.77618 -1.18918 0
M  V30 11641 N 1095.27 0.136881 -1.57004 0
M  V30 11642 C 1096.5 0.862436 -1.88068 0
M  V30 11643 C 1096.92 1.74274 -0.726227 0
M  V30 11644 O 1096.27 1.79956 0.30366 0
M  V30 11645 C 1096.32 1.71076 -3.18458 0
M  V30 11646 O 1096.04 0.865918 -4.29457 0
M  V30 11647 C 1097.55 2.54302 -3.63105 0
M  V30 11648 H 1094.77 0.248865 -0.623143 0
M  V30 11649 H 1097.31 0.126633 -2.04108 0
M  V30 11650 H 1095.46 2.39951 -3.04142 0
M  V30 11651 H 1095.88 1.4493 -5.04079 0
M  V30 11652 H 1097.35 3.09384 -4.57149 0
M  V30 11653 H 1097.83 3.3082 -2.88886 0
M  V30 11654 H 1098.44 1.907 -3.80149 0
M  V30 11655 N 1096.75 1.52266 0.40654 0
M  V30 11656 C 1098.03 1.57018 1.1664 0
M  V30 11657 C 1098.41 0.352752 2.08132 0
M  V30 11658 O 1097.76 -0.660208 2.18754 0
M  V30 11659 C 1097.97 2.90016 1.94143 0
M  V30 11660 C 1099.31 3.43112 2.50119 0
M  V30 11661 O 1100.34 2.91773 2.0432 0
M  V30 11662 O 1099.2 4.32765 3.33731 0
M  V30 11663 H 1096.29 0.632574 0.532709 0
M  V30 11664 H 1098.84 1.64595 0.413111 0
M  V30 11665 H 1097.61 3.70071 1.27134 0
M  V30 11666 H 1097.23 2.85744 2.76471 0
M  V30 11667 N 1098.23 -0.663929 1.42933 0
M  V30 11668 C 1099.51 -1.42054 1.34462 0
M  V30 11669 C 1099.89 -2.11096 -0.0127801 0
M  V30 11670 O 1099.23 -2.04027 -1.02884 0
M  V30 11671 C 1099.44 -2.41406 2.5204 0
M  V30 11672 C 1100.79 -3.05726 2.94647 0
M  V30 11673 O 1101.82 -2.51733 2.52009 0
M  V30 11674 O 1100.67 -4.03593 3.68477 0
M  V30 11675 H 1097.77 -0.634149 0.530834 0
M  V30 11676 H 1100.31 -0.691738 1.54962 0
M  V30 11677 H 1099.09 -1.89263 3.42484 0
M  V30 11678 H 1098.71 -3.21752 2.33584 0
M  V30 11679 N 1099.71 -1.29285 -0.901281 0
M  V30 11680 C 1100.62 -1.16161 -2.03823 0
M  V30 11681 C 1101.63 -0.0852298 -1.73791 0
M  V30 11682 O 1102.81 -0.29699 -1.99198 0
M  V30 11683 C 1099.87 -0.837586 -3.3643 0
M  V30 11684 C 1098.93 -1.99764 -3.7999 0
M  V30 11685 C 1098.17 -1.68898 -5.0627 0
M  V30 11686 O 1098.39 -0.609177 -5.67138 0
M  V30 11687 O 1097.32 -2.53648 -5.45845 0
M  V30 11688 H 1101.15 -2.11635 -2.17817 0
M  V30 11689 H 1098.74 -1.08722 -1.02468 0
M  V30 11690 H 1100.62 -0.671376 -4.16017 0
M  V30 11691 H 1099.29 0.0873811 -3.23582 0
M  V30 11692 H 1098.2 -2.21908 -3.01177 0
M  V30 11693 H 1099.53 -2.90376 -3.9742 0
M  V30 11694 N 1101.18 1.11143 -1.11736 0
M  V30 11695 C 1102.43 1.82586 -0.866412 0
M  V30 11696 C 1102.75 1.85227 0.609593 0
M  V30 11697 O 1102.02 1.32505 1.44288 0
M  V30 11698 H 1100.6 0.676149 -0.31754 0
M  V30 11699 H 1103.27 1.34516 -1.41037 0
M  V30 11700 H 1102.36 2.8635 -1.24136 0
M  V30 11701 N 1102.66 0.908147 1.28804 0
M  V30 11702 C 1103.89 0.553287 1.99054 0
M  V30 11703 C 1104.3 -0.868455 1.68091 0
M  V30 11704 O 1103.64 -1.58599 0.926939 0
M  V30 11705 C 1103.71 0.675823 3.5309 0
M  V30 11706 C 1103.37 2.06608 4.0763 0
M  V30 11707 C 1104.37 3.03819 4.21889 0
M  V30 11708 C 1102.05 2.37775 4.42457 0
M  V30 11709 C 1104.05 4.30316 4.7022 0
M  V30 11710 C 1101.73 3.64512 4.90484 0
M  V30 11711 C 1102.73 4.60597 5.04321 0
M  V30 11712 O 1102.42 5.85082 5.51302 0
M  V30 11713 H 1102.15 0.210152 0.642504 0
M  V30 11714 H 1104.7 1.22188 1.65104 0
M  V30 11715 H 1102.93 -0.0498253 3.86668 0
M  V30 11716 H 1104.62 0.328884 4.04565 0
M  V30 11717 H 1105.39 2.81057 3.95262 0
M  V30 11718 H 1101.27 1.63742 4.3094 0
M  V30 11719 H 1104.81 5.05318 4.80936 0
M  V30 11720 H 1100.71 3.87101 5.1655 0
M  V30 11721 H 1101.48 5.87791 5.69599 0
M  V30 11722 N 1104.14 -1.42577 0.671525 0
M  V30 11723 C 1105.05 -2.34598 -0.00898225 0
M  V30 11724 C 1106.07 -1.54909 -0.792407 0
M  V30 11725 O 1107.24 -1.87491 -0.735477 0
M  V30 11726 C 1104.31 -3.33405 -0.950888 0
M  V30 11727 C 1103.37 -4.28993 -0.16236 0
M  V30 11728 C 1102.6 -5.2308 -1.0594 0
M  V30 11729 O 1102.82 -5.22022 -2.2989 0
M  V30 11730 O 1101.76 -5.99632 -0.521966 0
M  V30 11731 H 1105.58 -2.94321 0.748927 0
M  V30 11732 H 1103.17 -1.43025 0.43175 0
M  V30 11733 H 1105.05 -3.94115 -1.49169 0
M  V30 11734 H 1103.73 -2.7616 -1.68871 0
M  V30 11735 H 1102.63 -3.71707 0.42247 0
M  V30 11736 H 1103.97 -4.8927 0.536274 0
M  V30 11737 N 1105.62 -0.414636 -1.52048 0
M  V30 11738 C 1106.9 0.218172 -1.94379 0
M  V30 11739 C 1107.28 1.62133 -1.35189 0
M  V30 11740 O 1106.62 2.22271 -0.529877 0
M  V30 11741 C 1106.83 0.218932 -3.48313 0
M  V30 11742 C 1108.18 0.435604 -4.2236 0
M  V30 11743 O 1109.21 0.298049 -3.54951 0
M  V30 11744 O 1108.06 0.707217 -5.41905 0
M  V30 11745 H 1105.16 0.142173 -0.814688 0
M  V30 11746 H 1107.7 -0.470977 -1.63033 0
M  V30 11747 H 1106.48 -0.76292 -3.83791 0
M  V30 11748 H 1106.1 0.951949 -3.86036 0
M  V30 11749 N 1107.1 1.56929 -0.145233 0
M  V30 11750 C 1108.01 2.20238 0.808219 0
M  V30 11751 C 1109.02 1.18615 1.27304 0
M  V30 11752 O 1110.2 1.51186 1.3306 0
M  V30 11753 C 1107.26 2.81016 2.03055 0
M  V30 11754 C 1106.32 3.97759 1.61512 0
M  V30 11755 C 1105.56 4.55628 2.77918 0
M  V30 11756 O 1105.78 4.12378 3.94082 0
M  V30 11757 O 1104.71 5.45917 2.53492 0
M  V30 11758 H 1108.54 3.02221 0.299314 0
M  V30 11759 H 1106.13 1.49176 0.0817051 0
M  V30 11760 H 1108.01 3.19652 2.74592 0
M  V30 11761 H 1106.68 2.02047 2.52901 0
M  V30 11762 H 1105.59 3.63842 0.870033 0
M  V30 11763 H 1106.92 4.78242 1.16383 0
M  V30 11764 N 1108.58 -0.128553 1.57075 0
M  V30 11765 C 1109.81 -0.851214 1.8825 0
M  V30 11766 C 1110.21 -1.74402 0.733531 0
M  V30 11767 O 1109.56 -1.81149 -0.305108 0
M  V30 11768 C 1109.62 -1.74451 3.14336 0
M  V30 11769 C 1109.28 -1.02699 4.45311 0
M  V30 11770 C 1110.28 -0.37224 5.18566 0
M  V30 11771 C 1107.96 -1.01101 4.9202 0
M  V30 11772 C 1109.96 0.2889 6.36745 0
M  V30 11773 C 1107.65 -0.346063 6.10119 0
M  V30 11774 C 1108.64 0.302744 6.82329 0
M  V30 11775 O 1108.33 0.9571 7.98182 0
M  V30 11776 H 1108.06 -0.250529 0.627863 0
M  V30 11777 H 1110.62 -0.120418 2.05047 0
M  V30 11778 H 1108.85 -2.51671 2.93596 0
M  V30 11779 H 1110.54 -2.34075 3.31608 0
M  V30 11780 H 1111.3 -0.376271 4.83538 0
M  V30 11781 H 1107.18 -1.50543 4.35727 0
M  V30 11782 H 1110.73 0.795901 6.93045 0
M  V30 11783 H 1106.62 -0.339762 6.44605 0
M  V30 11784 H 1107.39 0.860616 8.13963 0
M  V30 11785 N 1110.05 -1.5248 -0.398459 0
M  V30 11786 C 1111.3 -1.67309 -1.1461 0
M  V30 11787 C 1111.63 -0.407095 -1.89885 0
M  V30 11788 O 1110.91 0.594834 -1.85181 0
M  V30 11789 C 1111.19 -2.90204 -2.13198 0
M  V30 11790 C 1111.04 -4.26881 -1.4175 0
M  V30 11791 C 1112.36 -3.08634 -3.13741 0
M  V30 11792 H 1109.48 -0.608853 -0.415292 0
M  V30 11793 H 1112.12 -1.85057 -0.430573 0
M  V30 11794 H 1110.27 -2.75204 -2.74218 0
M  V30 11795 H 1111.95 -4.53631 -0.837676 0
M  V30 11796 H 1110.19 -4.27793 -0.719387 0
M  V30 11797 H 1110.86 -5.08939 -2.1374 0
M  V30 11798 H 1113.34 -3.22603 -2.62805 0
M  V30 11799 H 1112.21 -3.96117 -3.79977 0
M  V30 11800 H 1112.47 -2.22425 -3.82073 0
M  V30 11801 N 1111.53 0.65634 -1.43283 0
M  V30 11802 C 1112.46 1.78101 -1.51004 0
M  V30 11803 C 1113.44 1.66138 -0.36498 0
M  V30 11804 O 1114.63 1.85281 -0.581778 0
M  V30 11805 C 1111.76 3.16511 -1.42961 0
M  V30 11806 C 1110.71 3.43233 -2.55685 0
M  V30 11807 C 1110.04 4.81411 -2.32696 0
M  V30 11808 C 1111.34 3.38288 -3.97943 0
M  V30 11809 H 1113.03 1.71896 -2.45137 0
M  V30 11810 H 1110.58 0.825575 -1.17984 0
M  V30 11811 H 1112.53 3.94941 -1.46968 0
M  V30 11812 H 1111.25 3.23439 -0.45332 0
M  V30 11813 H 1109.91 2.67173 -2.51026 0
M  V30 11814 H 1109.56 4.85011 -1.33317 0
M  V30 11815 H 1109.26 5.00251 -3.08257 0
M  V30 11816 H 1110.79 5.62102 -2.38481 0
M  V30 11817 H 1112.2 4.06659 -4.04106 0
M  V30 11818 H 1110.6 3.68664 -4.73505 0
M  V30 11819 H 1111.67 2.36525 -4.23301 0
M  V30 11820 N 1113.01 1.29761 0.894412 0
M  V30 11821 C 1113.92 1.1724 2.03204 0
M  V30 11822 C 1114.94 0.0944452 1.73743 0
M  V30 11823 O 1116.11 0.307549 1.99038 0
M  V30 11824 C 1113.18 0.855416 3.35981 0
M  V30 11825 C 1112.24 2.01777 3.78926 0
M  V30 11826 C 1111.47 1.71581 5.05367 0
M  V30 11827 O 1111.69 0.639245 5.66807 0
M  V30 11828 O 1110.63 2.56539 5.44492 0
M  V30 11829 H 1114.45 2.12787 2.16692 0
M  V30 11830 H 1112.04 1.09264 1.0189 0
M  V30 11831 H 1113.92 0.693429 4.15656 0
M  V30 11832 H 1112.6 -0.0702195 3.23624 0
M  V30 11833 H 1111.5 2.23502 2.99996 0
M  V30 11834 H 1112.84 2.92479 3.95875 0
M  V30 11835 N 1114.49 -1.10549 1.12324 0
M  V30 11836 C 1115.76 -1.78968 0.789287 0
M  V30 11837 C 1116.14 -1.984 -0.721156 0
M  V30 11838 O 1115.49 -1.5761 -1.65443 0
M  V30 11839 C 1115.7 -3.12044 1.563 0
M  V30 11840 C 1117.05 -3.86939 1.74825 0
M  V30 11841 O 1118.07 -3.21761 1.52802 0
M  V30 11842 O 1116.93 -5.0392 2.11488 0
M  V30 11843 H 1114.03 -0.775617 0.286962 0
M  V30 11844 H 1116.57 -1.17209 1.2272 0
M  V30 11845 H 1115.35 -2.93313 2.59005 0
M  V30 11846 H 1114.97 -3.81521 1.11926 0
M  V30 11847 N 1115.97 -0.914965 -1.28321 0
M  V30 11848 C 1116.9 -0.421292 -2.29668 0
M  V30 11849 C 1117.88 0.511743 -1.6222 0
M  V30 11850 O 1119.06 0.419218 -1.89621 0
M  V30 11851 C 1116.19 0.338364 -3.45648 0
M  V30 11852 C 1115.15 -0.505646 -4.25003 0
M  V30 11853 C 1114.47 0.382421 -5.33331 0
M  V30 11854 C 1115.77 -1.76354 -4.91626 0
M  V30 11855 H 1117.47 -1.26826 -2.71211 0
M  V30 11856 H 1115.01 -0.611291 -1.30381 0
M  V30 11857 H 1116.96 0.694578 -4.15636 0
M  V30 11858 H 1115.69 1.21925 -3.02988 0
M  V30 11859 H 1114.35 -0.844395 -3.56743 0
M  V30 11860 H 1114 1.26189 -4.86914 0
M  V30 11861 H 1113.7 -0.17871 -5.87328 0
M  V30 11862 H 1115.22 0.73449 -6.06166 0
M  V30 11863 H 1116.63 -1.47616 -5.5397 0
M  V30 11864 H 1115.03 -2.26717 -5.55625 0
M  V30 11865 H 1116.1 -2.49063 -4.16048 0
M  V30 11866 N 1117.44 1.42219 -0.679077 0
M  V30 11867 C 1118.35 2.346 -0.00345919 0
M  V30 11868 C 1119.37 1.55327 0.784181 0
M  V30 11869 O 1120.55 1.87878 0.725524 0
M  V30 11870 C 1117.61 3.33905 0.933194 0
M  V30 11871 C 1116.67 4.29073 0.139607 0
M  V30 11872 C 1115.9 5.23634 1.03165 0
M  V30 11873 O 1116.13 5.23234 2.27119 0
M  V30 11874 O 1115.06 5.99901 0.490159 0
M  V30 11875 H 1118.89 2.9392 -0.764525 0
M  V30 11876 H 1116.47 1.42794 -0.439329 0
M  V30 11877 H 1118.35 3.949 1.47077 0
M  V30 11878 H 1117.03 2.77052 1.67404 0
M  V30 11879 H 1115.94 3.71478 -0.442177 0
M  V30 11880 H 1117.27 4.88979 -0.562214 0
M  V30 11881 N 1118.92 0.422693 1.51826 0
M  V30 11882 C 1120.17 -0.148861 2.02253 0
M  V30 11883 C 1120.5 -1.43629 1.30707 0
M  V30 11884 O 1119.78 -1.89967 0.417482 0
M  V30 11885 C 1120.06 -0.382672 3.58061 0
M  V30 11886 C 1119.91 0.922386 4.40241 0
M  V30 11887 C 1121.23 -1.1589 4.24567 0
M  V30 11888 H 1118.35 -0.0526279 0.735119 0
M  V30 11889 H 1120.99 0.558821 1.81596 0
M  V30 11890 H 1119.14 -0.985495 3.75793 0
M  V30 11891 H 1120.81 1.55806 4.34191 0
M  V30 11892 H 1119.06 1.53032 4.05911 0
M  V30 11893 H 1119.73 0.713012 5.47376 0
M  V30 11894 H 1122.2 -0.648415 4.11017 0
M  V30 11895 H 1121.08 -1.29125 5.33496 0
M  V30 11896 H 1121.34 -2.18315 3.84436 0
M  V30 11897 N 1120.4 -1.5685 0.153553 0
M  V30 11898 C 1121.63 -2.00701 -0.502678 0
M  V30 11899 C 1122.04 -1.0337 -1.57988 0
M  V30 11900 O 1121.4 -0.0317233 -1.82472 0
M  V30 11901 C 1121.45 -3.44443 -1.09732 0
M  V30 11902 O 1121.17 -4.38054 -0.0631405 0
M  V30 11903 C 1122.67 -4.03605 -1.83352 0
M  V30 11904 H 1119.89 -0.658229 -0.130289 0
M  V30 11905 H 1122.44 -2.02965 0.250063 0
M  V30 11906 H 1120.59 -3.43009 -1.80065 0
M  V30 11907 H 1121.01 -5.22114 -0.499681 0
M  V30 11908 H 1122.48 -5.0616 -2.20241 0
M  V30 11909 H 1122.96 -3.44687 -2.7219 0
M  V30 11910 H 1123.56 -4.08688 -1.17703 0
M  V30 11911 N 1121.88 0.120221 -1.57141 0
M  V30 11912 C 1123.12 0.829449 -1.85062 0
M  V30 11913 C 1123.46 1.79585 -0.739116 0
M  V30 11914 O 1122.73 1.92819 0.255147 0
M  V30 11915 C 1123.01 1.58042 -3.23566 0
M  V30 11916 C 1122.87 0.633706 -4.45314 0
M  V30 11917 C 1124.19 2.53688 -3.59625 0
M  V30 11918 H 1121.31 0.300086 -0.67314 0
M  V30 11919 H 1123.95 0.0937393 -1.89769 0
M  V30 11920 H 1122.1 2.20758 -3.19684 0
M  V30 11921 H 1123.77 0.0154836 -4.61297 0
M  V30 11922 H 1122.01 -0.054846 -4.33765 0
M  V30 11923 H 1122.68 1.19577 -5.38893 0
M  V30 11924 H 1125.16 2.01078 -3.6429 0
M  V30 11925 H 1124.04 3.03265 -4.57516 0
M  V30 11926 H 1124.3 3.36296 -2.8698 0
M  V30 11927 N 1123.36 1.52689 0.390367 0
M  V30 11928 C 1124.32 1.76726 1.45947 0
M  V30 11929 C 1125.32 0.637269 1.47633 0
M  V30 11930 O 1126.51 0.905312 1.48828 0
M  V30 11931 C 1123.64 1.86678 2.85244 0
M  V30 11932 H 1124.83 2.72185 1.25918 0
M  V30 11933 H 1122.39 1.4339 0.622023 0
M  V30 11934 H 1123.12 0.931991 3.10619 0
M  V30 11935 H 1122.91 2.68843 2.85422 0
M  V30 11936 H 1124.4 2.06952 3.62713 0
M  V30 11937 N 1124.83 -0.648732 1.43629 0
M  V30 11938 C 1126.11 -1.4062 1.35961 0
M  V30 11939 C 1126.49 -2.11098 0.00961023 0
M  V30 11940 O 1125.84 -2.05107 -1.00714 0
M  V30 11941 C 1126.05 -2.38719 2.54586 0
M  V30 11942 C 1127.4 -3.02584 2.97873 0
M  V30 11943 O 1128.42 -2.49046 2.54665 0
M  V30 11944 O 1127.28 -3.99662 3.72736 0
M  V30 11945 H 1124.37 -0.628483 0.53753 0
M  V30 11946 H 1126.92 -0.675263 1.55687 0
M  V30 11947 H 1125.69 -1.85619 3.44472 0
M  V30 11948 H 1125.32 -3.19257 2.36983 0
M  V30 11949 N 1126.31 -1.30234 -0.887518 0
M  V30 11950 C 1127.26 -1.13013 -1.9802 0
M  V30 11951 C 1128.25 -0.0460253 -1.60834 0
M  V30 11952 O 1129.44 -0.26907 -1.74943 0
M  V30 11953 C 1126.57 -0.821397 -3.33329 0
M  V30 11954 C 1125.65 -1.94564 -3.76837 0
M  V30 11955 N 1126.04 -3.19068 -3.92465 0
M  V30 11956 C 1124.34 -1.84142 -4.06211 0
M  V30 11957 C 1125.04 -3.92495 -4.29328 0
M  V30 11958 N 1124.02 -3.20526 -4.39049 0
M  V30 11959 H 1127.82 -2.07446 -2.0819 0
M  V30 11960 H 1125.34 -1.21536 -1.07716 0
M  V30 11961 H 1127.33 -0.679046 -4.11333 0
M  V30 11962 H 1125.99 0.114891 -3.24497 0
M  V30 11963 H 1127 -3.54386 -3.77665 0
M  V30 11964 H 1123.68 -0.97865 -4.05868 0
M  V30 11965 H 1125.07 -4.99701 -4.49164 0
M  V30 11966 N 1127.79 1.09952 -1.12909 0
M  V30 11967 C 1129.04 1.81386 -0.882163 0
M  V30 11968 C 1129.35 1.86376 0.593592 0
M  V30 11969 O 1130.56 2.54064 0.957275 0
M  V30 11970 C 1129.01 3.25824 -1.52861 0
M  V30 11971 C 1128.62 3.29117 -3.0395 0
M  V30 11972 C 1130.37 4.02051 -1.36216 0
M  V30 11973 C 1128.27 4.68047 -3.61505 0
M  V30 11974 H 1127.2 0.679701 -0.326378 0
M  V30 11975 H 1129.85 1.23614 -1.35616 0
M  V30 11976 H 1128.24 3.83624 -0.982271 0
M  V30 11977 H 1129.41 2.81114 -3.65119 0
M  V30 11978 H 1127.73 2.66379 -3.20049 0
M  V30 11979 H 1130.32 5.04683 -1.76633 0
M  V30 11980 H 1130.67 4.15171 -0.306391 0
M  V30 11981 H 1131.2 3.5068 -1.87799 0
M  V30 11982 H 1127.94 4.60128 -4.66865 0
M  V30 11983 H 1127.46 5.16397 -3.05114 0
M  V30 11984 H 1129.14 5.37018 -3.6086 0
M  V30 11985 N 1129.27 0.921757 1.27833 0
M  V30 11986 C 1130.2 0.373575 2.26135 0
M  V30 11987 C 1131.21 -0.492414 1.55174 0
M  V30 11988 O 1132.4 -0.305998 1.75858 0
M  V30 11989 C 1129.5 -0.483911 3.35427 0
M  V30 11990 C 1128.68 0.361411 4.35904 0
M  V30 11991 C 1127.73 -0.432461 5.2442 0
M  V30 11992 O 1126.76 0.15777 5.68981 0
M  V30 11993 N 1127.96 -1.73367 5.54007 0
M  V30 11994 H 1130.73 1.21856 2.73809 0
M  V30 11995 H 1128.29 0.788552 1.41398 0
M  V30 11996 H 1130.28 -1.02193 3.91585 0
M  V30 11997 H 1128.85 -1.22963 2.874 0
M  V30 11998 H 1128.07 1.08076 3.79095 0
M  V30 11999 H 1129.36 0.939528 5.0005 0
M  V30 12000 H 1128.76 -2.23561 5.19651 0
M  V30 12001 H 1127.31 -2.21834 6.12889 0
M  V30 12002 N 1130.75 -1.41857 0.686609 0
M  V30 12003 C 1131.69 -2.30795 0.015643 0
M  V30 12004 C 1132.66 -1.46616 -0.780569 0
M  V30 12005 O 1133.85 -1.75423 -0.750424 0
M  V30 12006 C 1130.99 -3.32577 -0.921229 0
M  V30 12007 C 1130.1 -4.3184 -0.117585 0
M  V30 12008 C 1129.24 -5.20693 -1.05128 0
M  V30 12009 C 1128.28 -6.11629 -0.240018 0
M  V30 12010 N 1127.41 -6.92995 -1.12704 0
M  V30 12011 H 1132.25 -2.87615 0.77985 0
M  V30 12012 H 1129.79 -1.41661 0.396298 0
M  V30 12013 H 1131.75 -3.90129 -1.47836 0
M  V30 12014 H 1130.38 -2.77328 -1.65193 0
M  V30 12015 H 1129.43 -3.7631 0.55634 0
M  V30 12016 H 1130.74 -4.96168 0.511753 0
M  V30 12017 H 1129.9 -5.83035 -1.67795 0
M  V30 12018 H 1128.63 -4.5657 -1.71449 0
M  V30 12019 H 1127.64 -5.48345 0.399779 0
M  V30 12020 H 1128.86 -6.77805 0.419266 0
M  V30 12021 H 1126.81 -6.31489 -1.77644 0
M  V30 12022 H 1126.73 -7.53974 -0.553065 0
M  V30 12023 H 1128 -7.59813 -1.7408 0
M  V30 12024 N 1132.22 -0.430739 -1.51599 0
M  V30 12025 C 1133.47 0.138133 -2.02329 0
M  V30 12026 C 1133.8 1.42934 -1.31466 0
M  V30 12027 O 1133.08 1.89743 -0.427551 0
M  V30 12028 C 1133.36 0.363677 -3.58259 0
M  V30 12029 C 1133.21 -0.94572 -4.39746 0
M  V30 12030 C 1134.53 1.13637 -4.25176 0
M  V30 12031 H 1131.65 0.0487287 -0.735387 0
M  V30 12032 H 1134.29 -0.568444 -1.81297 0
M  V30 12033 H 1132.44 0.965552 -3.7631 0
M  V30 12034 H 1134.12 -1.58107 -4.33359 0
M  V30 12035 H 1132.36 -1.55183 -4.05094 0
M  V30 12036 H 1133.03 -0.742031 -5.4699 0
M  V30 12037 H 1135.51 0.626608 -4.11355 0
M  V30 12038 H 1134.38 1.26294 -5.34173 0
M  V30 12039 H 1134.64 2.16273 -3.85588 0
M  V30 12040 N 1133.7 1.56767 -0.161869 0
M  V30 12041 C 1134.64 2.13321 0.810527 0
M  V30 12042 C 1135.61 1.06073 1.23237 0
M  V30 12043 O 1136.8 1.33993 1.32583 0
M  V30 12044 C 1133.92 2.66506 2.09027 0
M  V30 12045 C 1132.97 3.86038 1.8132 0
M  V30 12046 S 1133.8 5.26253 0.990873 0
M  V30 12047 C 1134.96 5.82837 2.28149 0
M  V30 12048 H 1135.19 2.95467 0.32965 0
M  V30 12049 H 1132.73 1.5431 0.052655 0
M  V30 12050 H 1134.68 2.97797 2.82537 0
M  V30 12051 H 1133.34 1.84463 2.54229 0
M  V30 12052 H 1132.54 4.21547 2.7625 0
M  V30 12053 H 1132.14 3.55585 1.1591 0
M  V30 12054 H 1134.43 5.95175 3.23686 0
M  V30 12055 H 1135.37 6.80109 1.97123 0
M  V30 12056 H 1135.78 5.11186 2.39477 0
M  V30 12057 N 1135.18 -0.111886 1.57202 0
M  V30 12058 C 1136.13 -1.13688 2.00858 0
M  V30 12059 C 1137.1 -1.40752 0.881939 0
M  V30 12060 O 1138.28 -1.52498 1.14669 0
M  V30 12061 C 1135.42 -2.45641 2.42393 0
M  V30 12062 C 1134.54 -2.25452 3.68504 0
M  V30 12063 C 1133.67 -3.50686 3.9899 0
M  V30 12064 C 1132.71 -3.25685 5.18262 0
M  V30 12065 N 1131.85 -4.4314 5.44583 0
M  V30 12066 H 1136.69 -0.757611 2.88209 0
M  V30 12067 H 1134.22 -0.362582 1.42561 0
M  V30 12068 H 1136.18 -3.22627 2.64514 0
M  V30 12069 H 1134.81 -2.81447 1.58074 0
M  V30 12070 H 1133.86 -1.39349 3.53958 0
M  V30 12071 H 1135.18 -2.0296 4.55641 0
M  V30 12072 H 1134.33 -4.36087 4.21797 0
M  V30 12073 H 1133.07 -3.76216 3.10343 0
M  V30 12074 H 1132.07 -2.38675 4.95292 0
M  V30 12075 H 1133.3 -3.01518 6.08493 0
M  V30 12076 H 1131.24 -4.68778 4.58893 0
M  V30 12077 H 1131.16 -4.23778 6.26058 0
M  V30 12078 H 1132.43 -5.29654 5.71915 0
M  V30 12079 N 1136.66 -1.52894 -0.382264 0
M  V30 12080 C 1137.59 -1.81122 -1.47367 0
M  V30 12081 C 1138.57 -0.663653 -1.56619 0
M  V30 12082 O 1139.75 -0.911898 -1.71459 0
M  V30 12083 C 1136.88 -1.98615 -2.84902 0
M  V30 12084 C 1135.84 -3.14328 -2.90485 0
M  V30 12085 C 1135.16 -3.17086 -4.30535 0
M  V30 12086 C 1136.46 -4.53263 -2.59519 0
M  V30 12087 H 1138.16 -2.72518 -1.23993 0
M  V30 12088 H 1135.7 -1.3113 -0.595049 0
M  V30 12089 H 1137.66 -2.16946 -3.61265 0
M  V30 12090 H 1136.38 -1.03915 -3.09628 0
M  V30 12091 H 1135.04 -2.95791 -2.16572 0
M  V30 12092 H 1134.69 -2.20055 -4.52311 0
M  V30 12093 H 1134.39 -3.94821 -4.3519 0
M  V30 12094 H 1135.91 -3.3758 -5.08795 0
M  V30 12095 H 1137.33 -4.71867 -3.25598 0
M  V30 12096 H 1135.72 -5.33115 -2.75514 0
M  V30 12097 H 1136.79 -4.59516 -1.54831 0
M  V30 12098 N 1138.14 0.641106 -1.43971 0
M  V30 12099 C 1139.09 1.77474 -1.50352 0
M  V30 12100 C 1140.08 1.65173 -0.376052 0
M  V30 12101 O 1141.29 1.71373 -0.550572 0
M  V30 12102 H 1137.66 0.585747 -0.471597 0
M  V30 12103 H 1139.63 1.69213 -2.45784 0
M  V30 12104 C 1138.38 3.15778 -1.45532 0
M  V30 12105 H 1137.7 3.25886 -2.316 0
M  V30 12106 H 1139.14 3.95022 -1.54058 0
M  V30 12107 C 1137.6 3.36447 -0.174624 0
M  V30 12108 O 1138.13 3.9446 0.759215 0
M  V30 12109 N 1136.34 2.90487 -0.0809383 0
M  V30 12110 H 1135.89 2.43461 -0.841691 0
M  V30 12111 H 1135.84 3.04693 0.775231 0
M  V30 12112 N 1139.62 1.30703 0.880598 0
M  V30 12113 C 1140.86 1.19778 1.63277 0
M  V30 12114 C 1141.19 -0.246521 1.92931 0
M  V30 12115 O 1140.45 -1.19226 1.55189 0
M  V30 12116 C 1140.74 1.97628 2.97789 0
M  V30 12117 C 1140.41 3.47213 2.87669 0
M  V30 12118 C 1139.07 3.88004 2.84617 0
M  V30 12119 C 1141.42 4.4245 2.75477 0
M  V30 12120 C 1138.75 5.22315 2.67216 0
M  V30 12121 C 1141.1 5.76874 2.59614 0
M  V30 12122 C 1139.77 6.16898 2.54939 0
M  V30 12123 H 1139.04 0.438298 0.597475 0
M  V30 12124 H 1141.69 1.61853 1.02352 0
M  V30 12125 H 1139.99 1.48201 3.6269 0
M  V30 12126 H 1141.69 1.86563 3.54958 0
M  V30 12127 H 1138.28 3.14802 2.90857 0
M  V30 12128 H 1142.46 4.11875 2.76899 0
M  V30 12129 H 1137.72 5.52412 2.62014 0
M  V30 12130 H 1141.89 6.50304 2.49155 0
M  V30 12131 H 1139.52 7.20916 2.41214 0
M  V30 12132 N 1141.09 -1.09351 1.1349 0
M  V30 12133 C 1142 -2.19564 0.826366 0
M  V30 12134 C 1143.02 -1.72967 -0.189339 0
M  V30 12135 O 1144.2 -2.0139 -0.0202033 0
M  V30 12136 C 1141.26 -3.4542 0.297685 0
M  V30 12137 C 1140.32 -4.06694 1.37473 0
M  V30 12138 C 1139.55 -5.26542 0.871183 0
M  V30 12139 O 1139.78 -5.69657 -0.290958 0
M  V30 12140 O 1138.71 -5.78961 1.64584 0
M  V30 12141 H 1142.54 -2.4841 1.74718 0
M  V30 12142 H 1140.12 -1.18302 0.912414 0
M  V30 12143 H 1142 -4.21399 0.00829479 0
M  V30 12144 H 1140.68 -3.18175 -0.595536 0
M  V30 12145 H 1139.59 -3.32347 1.71745 0
M  V30 12146 H 1140.92 -4.38166 2.24212 0
M  V30 12147 N 1142.57 -0.928524 -1.27343 0
M  V30 12148 C 1143.53 -0.43292 -2.25074 0
M  V30 12149 C 1144.53 0.448976 -1.54405 0
M  V30 12150 O 1145.72 0.249939 -1.72398 0
M  V30 12151 C 1142.86 0.377539 -3.38803 0
M  V30 12152 H 1144.05 -1.29642 -2.70431 0
M  V30 12153 H 1141.6 -0.709289 -1.3928 0
M  V30 12154 H 1142.34 1.25982 -2.98829 0
M  V30 12155 H 1142.12 -0.254782 -3.91271 0
M  V30 12156 H 1143.61 0.714634 -4.1144 0
M  V30 12157 N 1144.05 1.41491 -0.694123 0
M  V30 12158 C 1145.01 2.2917 -0.0368562 0
M  V30 12159 C 1146.01 1.44305 0.709426 0
M  V30 12160 O 1147.2 1.6547 0.544533 0
M  V30 12161 C 1144.33 3.27156 0.958201 0
M  V30 12162 H 1145.53 2.88787 -0.808829 0
M  V30 12163 H 1143.08 1.49453 -0.457538 0
M  V30 12164 H 1143.82 2.72516 1.75799 0
M  V30 12165 H 1143.6 3.89776 0.426227 0
M  V30 12166 H 1145.09 3.92863 1.41592 0
M  V30 12167 N 1145.53 0.438773 1.51369 0
M  V30 12168 C 1146.77 -0.119657 2.03048 0
M  V30 12169 C 1147.13 -1.4026 1.317 0
M  V30 12170 O 1146.42 -1.86858 0.423612 0
M  V30 12171 C 1146.62 -0.39186 3.55245 0
M  V30 12172 C 1146.44 0.863149 4.41339 0
M  V30 12173 C 1145.21 1.39709 4.85602 0
M  V30 12174 C 1147.41 1.74969 4.83622 0
M  V30 12175 N 1145.39 2.60449 5.55913 0
M  V30 12176 C 1146.77 2.80313 5.53014 0
M  V30 12177 C 1148.82 1.76393 4.65607 0
M  V30 12178 C 1147.52 3.87029 6.06301 0
M  V30 12179 C 1149.55 2.82045 5.19812 0
M  V30 12180 C 1148.91 3.86109 5.89151 0
M  V30 12181 H 1145.01 -0.00458455 0.781987 0
M  V30 12182 H 1147.59 0.599764 1.85232 0
M  V30 12183 H 1145.77 -1.08032 3.73073 0
M  V30 12184 H 1147.5 -0.941775 3.93589 0
M  V30 12185 H 1144.25 0.950817 4.63957 0
M  V30 12186 H 1144.68 3.21678 5.95695 0
M  V30 12187 H 1149.32 0.972686 4.11459 0
M  V30 12188 H 1147.04 4.66991 6.59504 0
M  V30 12189 H 1150.62 2.84091 5.07724 0
M  V30 12190 H 1149.5 4.66518 6.30342 0
M  V30 12191 N 1147.01 -1.56678 0.170181 0
M  V30 12192 C 1148.28 -1.88524 -0.521362 0
M  V30 12193 C 1148.66 -1.07989 -1.81388 0
M  V30 12194 O 1148.01 -0.17347 -2.27841 0
M  V30 12195 C 1148.22 -3.40527 -0.764367 0
M  V30 12196 C 1149.57 -4.10241 -1.09487 0
M  V30 12197 O 1150.59 -3.45837 -0.852945 0
M  V30 12198 O 1149.45 -5.24022 -1.55124 0
M  V30 12199 H 1146.55 -0.782161 -0.268614 0
M  V30 12200 H 1149.09 -1.68414 0.208531 0
M  V30 12201 H 1147.86 -3.91015 0.149416 0
M  V30 12202 H 1147.49 -3.66244 -1.54762 0
M  V30 12203 N 1148.48 0.103547 -1.57259 0
M  V30 12204 C 1149.39 1.14475 -2.04774 0
M  V30 12205 C 1150.41 1.44385 -0.971025 0
M  V30 12206 O 1151.59 1.55195 -1.28361 0
M  V30 12207 C 1148.65 2.4475 -2.45558 0
M  V30 12208 C 1147.71 2.22098 -3.67384 0
M  V30 12209 C 1146.94 3.4616 -4.06213 0
M  V30 12210 O 1147.17 4.5407 -3.45219 0
M  V30 12211 O 1146.1 3.36248 -4.9922 0
M  V30 12212 H 1149.93 0.771211 -2.93745 0
M  V30 12213 H 1147.51 0.315456 -1.46032 0
M  V30 12214 H 1149.39 3.21476 -2.72454 0
M  V30 12215 H 1148.07 2.81547 -1.59728 0
M  V30 12216 H 1146.98 1.43179 -3.45616 0
M  V30 12217 H 1148.31 1.90197 -4.53967 0
M  V30 12218 N 1149.96 1.53094 0.37415 0
M  V30 12219 C 1151.21 1.69111 1.11934 0
M  V30 12220 C 1151.54 0.437252 1.89213 0
M  V30 12221 O 1150.82 -0.565298 1.86104 0
M  V30 12222 C 1151.1 2.93559 2.08554 0
M  V30 12223 C 1150.95 4.29082 1.3494 0
M  V30 12224 C 1152.27 3.13586 3.08791 0
M  V30 12225 H 1149.39 0.615383 0.405553 0
M  V30 12226 H 1152.03 1.85719 0.401078 0
M  V30 12227 H 1150.18 2.79531 2.69805 0
M  V30 12228 H 1151.85 4.54906 0.765402 0
M  V30 12229 H 1150.1 4.28884 0.651238 0
M  V30 12230 H 1150.77 5.12275 2.05616 0
M  V30 12231 H 1153.24 3.26743 2.57639 0
M  V30 12232 H 1152.12 4.02112 3.73627 0
M  V30 12233 H 1152.38 2.28475 3.78486 0
M  V30 12234 N 1151.44 -0.633461 1.44309 0
M  V30 12235 C 1152.69 -1.39031 1.46679 0
M  V30 12236 C 1153.01 -1.94745 0.0997165 0
M  V30 12237 O 1152.28 -1.75637 -0.867659 0
M  V30 12238 H 1150.86 -0.516051 0.540093 0
M  V30 12239 H 1153.52 -0.745739 1.80069 0
M  V30 12240 H 1152.62 -2.2228 2.19085 0
M  V30 12241 N 1152.92 -1.31168 -0.873655 0
M  V30 12242 C 1154.2 -1.11285 -1.60857 0
M  V30 12243 C 1154.58 0.333788 -2.08444 0
M  V30 12244 O 1153.92 1.32726 -1.86 0
M  V30 12245 C 1154.13 -2.12379 -2.7694 0
M  V30 12246 C 1155.48 -2.44704 -3.46994 0
M  V30 12247 O 1156.51 -2.10778 -2.87143 0
M  V30 12248 O 1155.36 -3.02786 -4.54954 0
M  V30 12249 H 1152.46 -0.428177 -0.707526 0
M  V30 12250 H 1155 -1.42634 -0.91944 0
M  V30 12251 H 1153.78 -3.09703 -2.39164 0
M  V30 12252 H 1153.4 -1.81914 -3.53544 0
M  V30 12253 N 1154.4 1.08748 -1.14068 0
M  V30 12254 C 1155.31 2.19123 -0.837998 0
M  V30 12255 C 1156.32 1.73065 0.180164 0
M  V30 12256 O 1157.5 2.01398 0.00952285 0
M  V30 12257 C 1154.56 3.45257 -0.316 0
M  V30 12258 C 1153.62 4.05959 -1.39628 0
M  V30 12259 C 1152.86 5.26072 -0.899095 0
M  V30 12260 O 1153.08 5.69804 0.260744 0
M  V30 12261 O 1152.01 5.7808 -1.67652 0
M  V30 12262 H 1155.84 2.4748 -1.76033 0
M  V30 12263 H 1153.43 1.17816 -0.918675 0
M  V30 12264 H 1155.31 4.21389 -0.0306425 0
M  V30 12265 H 1153.98 3.18486 0.578654 0
M  V30 12266 H 1152.89 3.31432 -1.73505 0
M  V30 12267 H 1154.22 4.36971 -2.26533 0
M  V30 12268 N 1155.87 0.935264 1.26849 0
M  V30 12269 C 1157.12 0.57969 1.94025 0
M  V30 12270 C 1157.45 -0.880295 1.73439 0
M  V30 12271 O 1156.7 -1.64429 1.0612 0
M  V30 12272 C 1157 0.861098 3.46872 0
M  V30 12273 C 1156.67 2.30402 3.87589 0
M  V30 12274 C 1155.33 2.69848 3.98417 0
M  V30 12275 C 1157.68 3.242 4.08098 0
M  V30 12276 C 1155.01 4.02199 4.27145 0
M  V30 12277 C 1157.36 4.56141 4.38313 0
M  V30 12278 C 1156.03 4.9541 4.47354 0
M  V30 12279 H 1155.3 0.212123 0.709989 0
M  V30 12280 H 1157.94 1.18066 1.50774 0
M  V30 12281 H 1156.25 0.177534 3.91398 0
M  V30 12282 H 1157.95 0.564841 3.97002 0
M  V30 12283 H 1154.54 1.98803 3.79704 0
M  V30 12284 H 1158.72 2.94924 3.99166 0
M  V30 12285 H 1153.98 4.32295 4.32355 0
M  V30 12286 H 1158.15 5.28818 4.53128 0
M  V30 12287 H 1155.78 5.97994 4.69368 0
M  V30 12288 N 1157.35 -1.41121 0.701616 0
M  V30 12289 C 1158.26 -2.34565 0.0407815 0
M  V30 12290 C 1159.28 -1.56555 -0.75937 0
M  V30 12291 O 1160.45 -1.89008 -0.695542 0
M  V30 12292 C 1157.52 -3.35347 -0.879954 0
M  V30 12293 C 1156.58 -4.29241 -0.0713279 0
M  V30 12294 C 1155.81 -5.25209 -0.948211 0
M  V30 12295 O 1156.04 -5.26781 -2.18766 0
M  V30 12296 O 1154.97 -6.00605 -0.394657 0
M  V30 12297 H 1158.8 -2.92666 0.811188 0
M  V30 12298 H 1156.38 -1.42077 0.461991 0
M  V30 12299 H 1158.26 -3.9719 -1.40776 0
M  V30 12300 H 1156.94 -2.7968 -1.62975 0
M  V30 12301 H 1155.85 -3.70727 0.50122 0
M  V30 12302 H 1157.18 -4.88022 0.639935 0
M  V30 12303 N 1158.83 -0.446794 -1.51134 0
M  V30 12304 C 1159.78 0.359865 -2.27977 0
M  V30 12305 C 1160.75 1.0086 -1.31972 0
M  V30 12306 O 1161.93 1.02569 -1.60886 0
M  V30 12307 C 1159.07 1.44978 -3.1317 0
M  V30 12308 C 1158.19 0.818243 -4.2418 0
M  V30 12309 C 1157.32 1.884 -4.96668 0
M  V30 12310 C 1156.36 1.2314 -5.99586 0
M  V30 12311 N 1155.5 2.23894 -6.65444 0
M  V30 12312 H 1160.34 -0.301775 -2.96468 0
M  V30 12313 H 1157.87 -0.160666 -1.4622 0
M  V30 12314 H 1159.83 2.09308 -3.60896 0
M  V30 12315 H 1158.46 2.08092 -2.46775 0
M  V30 12316 H 1157.51 0.0629889 -3.80348 0
M  V30 12317 H 1158.83 0.301885 -4.97886 0
M  V30 12318 H 1157.98 2.6037 -5.4799 0
M  V30 12319 H 1156.72 2.43411 -4.22614 0
M  V30 12320 H 1155.72 0.497215 -5.47547 0
M  V30 12321 H 1156.95 0.688505 -6.75601 0
M  V30 12322 H 1154.89 2.77967 -5.94197 0
M  V30 12323 H 1154.81 1.77176 -7.34945 0
M  V30 12324 H 1156.08 2.95318 -7.21393 0
M  V30 12325 N 1160.31 1.56586 -0.178487 0
M  V30 12326 C 1161.22 2.21903 0.761321 0
M  V30 12327 C 1162.23 1.21289 1.2476 0
M  V30 12328 O 1163.41 1.53974 1.29823 0
M  V30 12329 C 1160.48 2.85259 1.97048 0
M  V30 12330 C 1159.54 4.01095 1.53039 0
M  V30 12331 C 1158.77 4.61421 2.68191 0
M  V30 12332 O 1158.99 4.20644 3.85247 0
M  V30 12333 O 1157.93 5.51171 2.41855 0
M  V30 12334 H 1161.75 3.02788 0.235141 0
M  V30 12335 H 1159.34 1.49316 0.0500442 0
M  V30 12336 H 1161.22 3.25404 2.6775 0
M  V30 12337 H 1159.89 2.07366 2.48558 0
M  V30 12338 H 1158.8 3.65606 0.792661 0
M  V30 12339 H 1160.13 4.80603 1.06213 0
M  V30 12340 N 1161.79 -0.095206 1.57312 0
M  V30 12341 C 1162.7 -1.13388 2.05379 0
M  V30 12342 C 1163.71 -1.43868 0.978668 0
M  V30 12343 O 1164.89 -1.54512 1.29182 0
M  V30 12344 C 1161.95 -2.43444 2.46852 0
M  V30 12345 C 1161.01 -2.20146 3.68557 0
M  V30 12346 C 1160.25 -3.44001 4.08043 0
M  V30 12347 O 1160.47 -4.52233 3.47623 0
M  V30 12348 O 1159.4 -3.33596 5.00997 0
M  V30 12349 H 1163.23 -0.755622 2.9415 0
M  V30 12350 H 1160.82 -0.307707 1.46197 0
M  V30 12351 H 1162.7 -3.20027 2.74155 0
M  V30 12352 H 1161.37 -2.80696 1.61219 0
M  V30 12353 H 1160.28 -1.41345 3.46371 0
M  V30 12354 H 1161.61 -1.87787 4.54969 0
M  V30 12355 N 1163.26 -1.53291 -0.366026 0
M  V30 12356 C 1164.49 -1.73359 -1.12934 0
M  V30 12357 C 1164.91 -0.462352 -1.83051 0
M  V30 12358 O 1164.26 0.564711 -1.73543 0
M  V30 12359 C 1164.32 -2.89873 -2.15999 0
M  V30 12360 O 1164.04 -4.12079 -1.48737 0
M  V30 12361 C 1165.54 -3.21811 -3.04881 0
M  V30 12362 H 1162.76 -0.579827 -0.337701 0
M  V30 12363 H 1165.3 -2.00033 -0.425081 0
M  V30 12364 H 1163.46 -2.65595 -2.82025 0
M  V30 12365 H 1163.87 -4.77322 -2.17404 0
M  V30 12366 H 1165.34 -4.06744 -3.7318 0
M  V30 12367 H 1165.82 -2.37156 -3.69667 0
M  V30 12368 H 1166.43 -3.48013 -2.44473 0
M  V30 12369 N 1164.74 0.6258 -1.44643 0
M  V30 12370 C 1165.99 1.38525 -1.47706 0
M  V30 12371 C 1166.32 1.94179 -0.111703 0
M  V30 12372 O 1165.57 1.74432 0.887237 0
M  V30 12373 C 1165.87 2.56466 -2.48917 0
M  V30 12374 C 1165.54 2.19069 -3.94106 0
M  V30 12375 C 1164.2 2.08583 -4.33643 0
M  V30 12376 C 1166.55 1.89608 -4.85488 0
M  V30 12377 C 1163.88 1.66831 -5.6248 0
M  V30 12378 C 1166.23 1.49347 -6.14718 0
M  V30 12379 C 1164.9 1.37406 -6.53204 0
M  V30 12380 H 1164.17 0.506899 -0.540494 0
M  V30 12381 H 1166.81 0.709128 -1.77887 0
M  V30 12382 H 1165.12 3.29335 -2.12239 0
M  V30 12383 H 1166.81 3.14695 -2.48532 0
M  V30 12384 H 1163.4 2.28151 -3.62829 0
M  V30 12385 H 1167.59 1.96616 -4.55693 0
M  V30 12386 H 1162.84 1.56195 -5.91112 0
M  V30 12387 H 1167.02 1.2559 -6.84982 0
M  V30 12388 H 1164.65 1.04826 -7.52938 0
M  V30 12389 N 1166.22 1.31629 0.866686 0
M  V30 12390 C 1167.45 1.24474 1.65269 0
M  V30 12391 C 1167.86 -0.18939 1.87848 0
M  V30 12392 O 1167.22 -1.12251 1.43895 0
M  V30 12393 C 1167.27 1.98872 3.01881 0
M  V30 12394 O 1166.99 3.36687 2.8031 0
M  V30 12395 C 1168.49 1.98595 3.96327 0
M  V30 12396 H 1165.71 0.429966 0.515141 0
M  V30 12397 H 1168.26 1.73559 1.08156 0
M  V30 12398 H 1166.41 1.53539 3.55675 0
M  V30 12399 H 1166.83 3.74612 3.67105 0
M  V30 12400 H 1168.3 2.55156 4.89489 0
M  V30 12401 H 1168.78 0.969257 4.28371 0
M  V30 12402 H 1169.38 2.43821 3.4847 0
M  V30 12403 N 1167.7 -1.08142 1.14644 0
M  V30 12404 C 1168.63 -2.17139 0.858667 0
M  V30 12405 C 1169.61 -1.69064 -0.187452 0
M  V30 12406 O 1170.8 -1.94151 -0.0435458 0
M  V30 12407 C 1167.93 -3.45648 0.33834 0
M  V30 12408 C 1166.88 -4.07129 1.32021 0
M  V30 12409 C 1166.21 -5.30623 0.659075 0
M  V30 12410 C 1167.51 -4.48095 2.68343 0
M  V30 12411 H 1169.2 -2.41468 1.77012 0
M  V30 12412 H 1166.75 -1.16052 0.852523 0
M  V30 12413 H 1168.7 -4.21216 0.124611 0
M  V30 12414 H 1167.42 -3.2088 -0.608553 0
M  V30 12415 H 1166.08 -3.33596 1.52016 0
M  V30 12416 H 1165.73 -5.02142 -0.293711 0
M  V30 12417 H 1165.43 -5.72714 1.31427 0
M  V30 12418 H 1166.95 -6.08903 0.454933 0
M  V30 12419 H 1168.37 -5.14828 2.5224 0
M  V30 12420 H 1166.76 -5.01113 3.30161 0
M  V30 12421 H 1167.83 -3.59852 3.25015 0
M  V30 12422 N 1169.18 -0.941978 -1.26351 0
M  V30 12423 C 1170.4 -0.606231 -1.98342 0
M  V30 12424 C 1170.83 0.812014 -1.6967 0
M  V30 12425 O 1170.19 1.54712 -0.9452 0
M  V30 12426 C 1170.23 -0.855864 -3.50296 0
M  V30 12427 O 1169.34 0.0716251 -4.12338 0
M  V30 12428 H 1168.68 -0.231815 -0.62222 0
M  V30 12429 H 1171.21 -1.26513 -1.60797 0
M  V30 12430 H 1171.22 -0.777079 -4.00531 0
M  V30 12431 H 1169.89 -1.8896 -3.70496 0
M  V30 12432 H 1168.47 -0.0582866 -3.72854 0
M  V30 12433 N 1170.66 1.40747 -0.709091 0
M  V30 12434 C 1171.88 2.05319 -0.255258 0
M  V30 12435 C 1172.3 1.53406 1.10054 0
M  V30 12436 O 1171.66 0.687905 1.69039 0
M  V30 12437 C 1171.71 3.60835 -0.219251 0
M  V30 12438 O 1171.43 4.1083 -1.52151 0
M  V30 12439 C 1172.93 4.42572 0.253927 0
M  V30 12440 H 1170.15 0.660904 -0.115959 0
M  V30 12441 H 1172.69 1.80274 -0.965474 0
M  V30 12442 H 1170.85 3.84872 0.441882 0
M  V30 12443 H 1171.26 5.04979 -1.41764 0
M  V30 12444 H 1172.74 5.51529 0.22798 0
M  V30 12445 H 1173.21 4.19673 1.29504 0
M  V30 12446 H 1173.82 4.23629 -0.376694 0
M  V30 12447 N 1172.13 0.454803 1.50895 0
M  V30 12448 C 1173.38 -0.107367 2.01414 0
M  V30 12449 C 1173.7 -1.42243 1.34262 0
M  V30 12450 O 1174.9 -2.06858 1.75846 0
M  V30 12451 C 1173.36 -0.241872 3.59086 0
M  V30 12452 C 1172.97 1.06379 4.35187 0
M  V30 12453 C 1174.71 -0.756873 4.17698 0
M  V30 12454 C 1172.62 0.893973 5.84604 0
M  V30 12455 H 1171.55 -0.0439003 0.752721 0
M  V30 12456 H 1174.2 0.587225 1.7385 0
M  V30 12457 H 1172.58 -0.999873 3.83169 0
M  V30 12458 H 1173.75 1.83148 4.2284 0
M  V30 12459 H 1172.07 1.50865 3.88109 0
M  V30 12460 H 1174.67 -0.900697 5.27059 0
M  V30 12461 H 1175.01 -1.74397 3.7801 0
M  V30 12462 H 1175.54 -0.0567088 3.9776 0
M  V30 12463 H 1172.28 1.85395 6.28736 0
M  V30 12464 H 1171.8 0.166387 5.99569 0
M  V30 12465 H 1173.48 0.554084 6.44623 0
M  V30 12466 N 1173.61 -1.56489 0.186789 0
M  V30 12467 C 1174.56 -2.18703 -0.737402 0
M  V30 12468 C 1175.53 -1.13171 -1.21579 0
M  V30 12469 O 1176.71 -1.41388 -1.28118 0
M  V30 12470 C 1173.85 -2.84394 -1.95484 0
M  V30 12471 C 1172.97 -4.04429 -1.51859 0
M  V30 12472 C 1172.1 -4.58001 -2.69089 0
M  V30 12473 C 1171.14 -5.70412 -2.22029 0
M  V30 12474 N 1170.28 -6.18425 -3.32407 0
M  V30 12475 H 1175.12 -2.97327 -0.200105 0
M  V30 12476 H 1172.65 -1.46842 -0.087032 0
M  V30 12477 H 1174.61 -3.20646 -2.66912 0
M  V30 12478 H 1173.24 -2.08347 -2.46559 0
M  V30 12479 H 1172.29 -3.73895 -0.70048 0
M  V30 12480 H 1173.61 -4.85756 -1.13327 0
M  V30 12481 H 1172.76 -4.96515 -3.48652 0
M  V30 12482 H 1171.5 -3.75764 -3.1089 0
M  V30 12483 H 1170.5 -5.31434 -1.40918 0
M  V30 12484 H 1171.73 -6.54461 -1.81268 0
M  V30 12485 H 1169.68 -5.39113 -3.73755 0
M  V30 12486 H 1169.59 -6.94782 -2.98017 0
M  V30 12487 H 1170.86 -6.61592 -4.12209 0
M  V30 12488 N 1175.09 0.086862 -1.5736 0
M  V30 12489 C 1176.32 0.802167 -1.90717 0
M  V30 12490 C 1176.73 1.71875 -0.781304 0
M  V30 12491 O 1176.09 1.80831 0.246255 0
M  V30 12492 C 1176.14 1.60858 -3.23739 0
M  V30 12493 O 1175.86 0.728851 -4.31995 0
M  V30 12494 C 1177.36 2.42621 -3.71012 0
M  V30 12495 H 1174.58 0.228914 -0.630745 0
M  V30 12496 H 1177.13 0.061634 -2.04407 0
M  V30 12497 H 1175.28 2.30153 -3.11622 0
M  V30 12498 H 1175.7 1.2882 -5.08435 0
M  V30 12499 H 1177.17 2.94683 -4.66761 0
M  V30 12500 H 1177.65 3.21462 -2.99264 0
M  V30 12501 H 1178.25 1.78509 -3.86024 0
M  V30 12502 N 1176.57 1.53483 0.357892 0
M  V30 12503 C 1177.5 1.83444 1.44466 0
M  V30 12504 C 1178.48 0.688486 1.55544 0
M  V30 12505 O 1179.66 0.93906 1.69986 0
M  V30 12506 C 1176.79 2.03122 2.81707 0
M  V30 12507 C 1175.75 3.1891 2.85448 0
M  V30 12508 C 1175.07 3.23895 4.25436 0
M  V30 12509 C 1176.37 4.57334 2.52275 0
M  V30 12510 H 1178.07 2.74456 1.19642 0
M  V30 12511 H 1175.61 1.3206 0.574112 0
M  V30 12512 H 1177.57 2.22666 3.57768 0
M  V30 12513 H 1176.29 1.08827 3.07935 0
M  V30 12514 H 1174.95 2.99199 2.11838 0
M  V30 12515 H 1174.6 2.27223 4.48753 0
M  V30 12516 H 1174.3 4.01694 4.28854 0
M  V30 12517 H 1175.82 3.45632 5.0336 0
M  V30 12518 H 1177.24 4.76988 3.1805 0
M  V30 12519 H 1175.63 5.37431 2.66998 0
M  V30 12520 H 1176.7 4.61921 1.47501 0
M  V30 12521 N 1178.05 -0.61812 1.44973 0
M  V30 12522 C 1178.96 -1.7579 1.55355 0
M  V30 12523 C 1179.97 -1.68384 0.438512 0
M  V30 12524 O 1181.15 -1.88928 0.697715 0
M  V30 12525 C 1178.21 -3.1222 1.50729 0
M  V30 12526 C 1177.27 -3.3116 2.73188 0
M  V30 12527 C 1176.51 -4.61082 2.68774 0
M  V30 12528 O 1176.73 -5.42728 1.75507 0
M  V30 12529 O 1175.66 -4.82506 3.59821 0
M  V30 12530 H 1179.49 -1.69983 2.51674 0
M  V30 12531 H 1177.07 -0.780934 1.27365 0
M  V30 12532 H 1178.96 -3.93524 1.5072 0
M  V30 12533 H 1177.63 -3.18541 0.575587 0
M  V30 12534 H 1176.54 -2.49485 2.78762 0
M  V30 12535 H 1177.87 -3.29709 3.65449 0
M  V30 12536 N 1179.52 -1.32087 -0.859693 0
M  V30 12537 C 1180.43 -1.22587 -2.00024 0
M  V30 12538 C 1181.45 -0.140477 -1.73432 0
M  V30 12539 O 1182.63 -0.360213 -1.98153 0
M  V30 12540 C 1179.69 -0.944195 -3.33595 0
M  V30 12541 C 1178.75 -2.11752 -3.73443 0
M  V30 12542 C 1177.98 -1.84919 -5.0064 0
M  V30 12543 O 1178.21 -0.789299 -5.64913 0
M  V30 12544 O 1177.14 -2.70885 -5.37499 0
M  V30 12545 H 1180.97 -2.18457 -2.10974 0
M  V30 12546 H 1178.55 -1.11927 -0.989577 0
M  V30 12547 H 1180.43 -0.803389 -4.13671 0
M  V30 12548 H 1179.11 -0.0156083 -3.23696 0
M  V30 12549 H 1178.02 -2.31378 -2.93965 0
M  V30 12550 H 1179.35 -3.02872 -3.87981 0
M  V30 12551 N 1181 1.07532 -1.15215 0
M  V30 12552 C 1181.96 2.1286 -0.84989 0
M  V30 12553 C 1182.96 1.60103 0.149524 0
M  V30 12554 O 1184.15 1.74017 -0.0798918 0
M  V30 12555 C 1181.29 3.3984 -0.268617 0
M  V30 12556 H 1182.48 2.41106 -1.78347 0
M  V30 12557 H 1180.03 1.23392 -0.959386 0
M  V30 12558 H 1180.77 3.17235 0.67325 0
M  V30 12559 H 1180.55 3.79433 -0.988592 0
M  V30 12560 H 1182.04 4.17533 -0.0746554 0
M  V30 12561 N 1182.48 0.948665 1.2585 0
M  V30 12562 C 1183.73 0.601125 1.93686 0
M  V30 12563 C 1184.06 -0.858779 1.7418 0
M  V30 12564 O 1183.33 -1.61539 1.0833 0
M  V30 12565 C 1183.62 0.95333 3.47252 0
M  V30 12566 C 1183.47 2.46853 3.7601 0
M  V30 12567 C 1184.79 0.474098 4.37539 0
M  V30 12568 H 1181.91 0.219864 0.703441 0
M  V30 12569 H 1184.55 1.18424 1.48579 0
M  V30 12570 H 1182.7 0.457114 3.85801 0
M  V30 12571 H 1184.37 3.03804 3.47132 0
M  V30 12572 H 1182.62 2.9088 3.21825 0
M  V30 12573 H 1183.29 2.66547 4.83381 0
M  V30 12574 H 1185.76 0.899664 4.06258 0
M  V30 12575 H 1184.64 0.749287 5.43762 0
M  V30 12576 H 1184.9 -0.625961 4.37646 0
M  V30 12577 N 1183.96 -1.40369 0.716545 0
M  V30 12578 C 1185.21 -2.00473 0.255959 0
M  V30 12579 C 1185.53 -1.57104 -1.15514 0
M  V30 12580 O 1184.8 -0.810925 -1.78328 0
M  V30 12581 H 1183.38 -0.741357 0.0916427 0
M  V30 12582 H 1186.04 -1.71692 0.922389 0
M  V30 12583 H 1185.14 -3.10752 0.289806 0
M  V30 12584 N 1185.44 -0.462799 -1.50652 0
M  V30 12585 C 1186.38 0.349784 -2.29955 0
M  V30 12586 C 1187.38 0.997947 -1.36885 0
M  V30 12587 O 1188.58 0.93 -1.54114 0
M  V30 12588 H 1184.96 0.131635 -0.740389 0
M  V30 12589 H 1186.93 -0.33958 -2.96461 0
M  V30 12590 C 1185.68 1.42398 -3.17204 0
M  V30 12591 H 1185 0.934611 -3.88722 0
M  V30 12592 H 1186.44 1.96528 -3.75703 0
M  V30 12593 C 1184.9 2.42135 -2.34248 0
M  V30 12594 O 1185.43 3.47229 -2.01978 0
M  V30 12595 N 1183.64 2.13647 -1.96985 0
M  V30 12596 H 1183.18 1.28209 -2.23428 0
M  V30 12597 H 1183.14 2.80615 -1.41783 0
M  V30 12598 N 1186.91 1.56388 -0.195085 0
M  V30 12599 C 1188.16 1.96755 0.443901 0
M  V30 12600 C 1188.48 1.08483 1.6276 0
M  V30 12601 O 1189.68 1.38632 2.33438 0
M  V30 12602 C 1188.14 3.49933 0.841139 0
M  V30 12603 C 1187.75 4.46868 -0.318275 0
M  V30 12604 C 1189.49 3.99069 1.44721 0
M  V30 12605 C 1187.4 5.91316 0.0999211 0
M  V30 12606 H 1186.33 0.734674 0.169616 0
M  V30 12607 H 1188.98 1.8124 -0.287101 0
M  V30 12608 H 1187.36 3.60951 1.62881 0
M  V30 12609 H 1188.53 4.47581 -1.0958 0
M  V30 12610 H 1186.85 4.07925 -0.835842 0
M  V30 12611 H 1189.45 5.04465 1.77255 0
M  V30 12612 H 1189.79 3.43376 2.35369 0
M  V30 12613 H 1190.32 3.91165 0.723513 0
M  V30 12614 H 1187.06 6.50934 -0.77237 0
M  V30 12615 H 1186.58 5.93856 0.842304 0
M  V30 12616 H 1188.26 6.44778 0.535726 0
M  V30 12617 N 1188.39 -0.0785156 1.57404 0
M  V30 12618 C 1189.64 -0.780092 1.87196 0
M  V30 12619 C 1189.97 -1.77562 0.78647 0
M  V30 12620 O 1189.25 -1.93428 -0.203935 0
M  V30 12621 C 1189.53 -1.49408 3.27642 0
M  V30 12622 C 1189.38 -0.515416 4.46837 0
M  V30 12623 C 1190.7 -2.44064 3.66225 0
M  V30 12624 H 1187.82 -0.282134 0.680859 0
M  V30 12625 H 1190.46 -0.0433926 1.8995 0
M  V30 12626 H 1188.61 -2.12205 3.25425 0
M  V30 12627 H 1190.28 0.106827 4.61176 0
M  V30 12628 H 1188.53 0.169832 4.33467 0
M  V30 12629 H 1189.2 -1.05247 5.41874 0
M  V30 12630 H 1191.67 -1.91349 3.69493 0
M  V30 12631 H 1190.55 -2.91029 4.65396 0
M  V30 12632 H 1190.81 -3.28569 2.95796 0
M  V30 12633 N 1189.87 -1.5367 -0.349747 0
M  V30 12634 C 1190.82 -1.81223 -1.42922 0
M  V30 12635 C 1191.79 -0.657536 -1.52531 0
M  V30 12636 O 1192.97 -0.90134 -1.68168 0
M  V30 12637 C 1190.11 -2.022 -2.79659 0
M  V30 12638 C 1189.23 -3.29915 -2.78891 0
M  V30 12639 C 1188.36 -3.40993 -4.07305 0
M  V30 12640 C 1187.4 -4.6268 -4.00741 0
M  V30 12641 N 1186.54 -4.70826 -5.20833 0
M  V30 12642 H 1191.38 -2.73328 -1.18727 0
M  V30 12643 H 1188.91 -1.35386 -0.57525 0
M  V30 12644 H 1190.87 -2.12351 -3.59114 0
M  V30 12645 H 1189.5 -1.13416 -3.0222 0
M  V30 12646 H 1188.55 -3.28637 -1.91577 0
M  V30 12647 H 1189.87 -4.19459 -2.69917 0
M  V30 12648 H 1189.02 -3.50542 -4.95182 0
M  V30 12649 H 1187.76 -2.49493 -4.19052 0
M  V30 12650 H 1186.76 -4.53215 -3.11249 0
M  V30 12651 H 1187.99 -5.55538 -3.90582 0
M  V30 12652 H 1185.93 -3.82233 -5.33136 0
M  V30 12653 H 1185.85 -5.54297 -5.14092 0
M  V30 12654 H 1187.12 -4.84677 -6.10499 0
M  V30 12655 N 1191.35 0.610423 -1.45298 0
M  V30 12656 C 1192.6 1.36951 -1.49167 0
M  V30 12657 C 1192.92 1.9405 -0.132292 0
M  V30 12658 O 1192.18 1.75363 0.868686 0
M  V30 12659 C 1192.48 2.53812 -2.51623 0
M  V30 12660 C 1192.14 2.14877 -3.96407 0
M  V30 12661 C 1190.81 2.03972 -4.35831 0
M  V30 12662 C 1193.16 1.84448 -4.87472 0
M  V30 12663 C 1190.49 1.60856 -5.64218 0
M  V30 12664 C 1192.84 1.42818 -6.16268 0
M  V30 12665 C 1191.5 1.3047 -6.54625 0
M  V30 12666 H 1190.77 0.501138 -0.54584 0
M  V30 12667 H 1193.42 0.690221 -1.78629 0
M  V30 12668 H 1191.72 3.27066 -2.1572 0
M  V30 12669 H 1193.42 3.12041 -2.51856 0
M  V30 12670 H 1190.01 2.2429 -3.65229 0
M  V30 12671 H 1194.19 1.91771 -4.57753 0
M  V30 12672 H 1189.45 1.49916 -5.92735 0
M  V30 12673 H 1193.62 1.18318 -6.86275 0
M  V30 12674 H 1191.25 0.968347 -7.54007 0
M  V30 12675 N 1192.83 1.32541 0.852676 0
M  V30 12676 C 1193.76 1.24254 1.97694 0
M  V30 12677 C 1194.74 0.125971 1.69633 0
M  V30 12678 O 1195.92 0.31347 1.91653 0
M  V30 12679 C 1193.05 0.966874 3.3357 0
M  V30 12680 C 1192.01 2.0449 3.75989 0
M  V30 12681 C 1191.33 1.6216 5.09518 0
M  V30 12682 C 1192.63 3.46013 3.91244 0
M  V30 12683 H 1194.33 2.18317 2.04886 0
M  V30 12684 H 1191.87 1.05101 0.984371 0
M  V30 12685 H 1193.83 0.895444 4.11776 0
M  V30 12686 H 1192.55 -0.0093893 3.26599 0
M  V30 12687 H 1191.21 2.10651 3.00036 0
M  V30 12688 H 1190.86 0.632729 4.99005 0
M  V30 12689 H 1190.56 2.3429 5.38871 0
M  V30 12690 H 1192.08 1.56457 5.90215 0
M  V30 12691 H 1193.49 3.4243 4.59799 0
M  V30 12692 H 1191.89 4.1651 4.32017 0
M  V30 12693 H 1192.96 3.8553 2.941 0
M  V30 12694 N 1194.3 -1.0692 1.15784 0
M  V30 12695 C 1195.55 -1.79245 0.933581 0
M  V30 12696 C 1195.87 -1.87362 -0.540427 0
M  V30 12697 O 1195.14 -1.37769 -1.39271 0
M  V30 12698 H 1193.72 -0.663898 0.342416 0
M  V30 12699 H 1196.39 -1.29189 1.45932 0
M  V30 12700 H 1195.48 -2.81546 1.34679 0
M  V30 12701 N 1195.78 -0.955326 -1.25345 0
M  V30 12702 C 1196.72 -0.420299 -2.24296 0
M  V30 12703 C 1197.69 0.498753 -1.54762 0
M  V30 12704 O 1198.88 0.432971 -1.8346 0
M  V30 12705 C 1196 0.394576 -3.36394 0
M  V30 12706 C 1195.05 -0.464973 -4.23958 0
M  V30 12707 S 1195.88 -1.89764 -5.00749 0
M  V30 12708 C 1197.04 -1.09121 -6.16314 0
M  V30 12709 H 1197.27 -1.25888 -2.69331 0
M  V30 12710 H 1194.81 -0.759449 -1.34431 0
M  V30 12711 H 1196.76 0.858788 -4.01416 0
M  V30 12712 H 1195.42 1.20799 -2.89942 0
M  V30 12713 H 1194.62 0.160055 -5.03746 0
M  V30 12714 H 1194.22 -0.864422 -3.63873 0
M  V30 12715 H 1196.51 -0.340218 -6.76645 0
M  V30 12716 H 1197.45 -1.86304 -6.83152 0
M  V30 12717 H 1197.86 -0.621033 -5.61073 0
M  V30 12718 N 1197.26 1.39987 -0.723979 0
M  V30 12719 C 1198.21 2.27938 -0.0531058 0
M  V30 12720 C 1199.2 1.43693 0.723965 0
M  V30 12721 O 1200.39 1.66707 0.594785 0
M  V30 12722 C 1197.52 3.32311 0.861659 0
M  V30 12723 C 1196.6 4.24026 0.079327 0
M  V30 12724 N 1196.99 4.96954 -0.941805 0
M  V30 12725 C 1195.29 4.44917 0.310637 0
M  V30 12726 C 1195.99 5.64287 -1.41261 0
M  V30 12727 N 1194.97 5.38632 -0.733217 0
M  V30 12728 H 1198.77 2.81771 -0.835608 0
M  V30 12729 H 1196.28 1.52538 -0.557315 0
M  V30 12730 H 1198.28 3.94174 1.35766 0
M  V30 12731 H 1196.94 2.80038 1.64344 0
M  V30 12732 H 1197.95 5.0072 -1.32288 0
M  V30 12733 H 1194.63 4.03606 1.06809 0
M  V30 12734 H 1196.02 6.32695 -2.26155 0
M  V30 12735 N 1198.74 0.470782 1.50404 0
M  V30 12736 C 1200.15 0.0155901 1.86693 0
M  V30 12737 C 1200.5 -1.38908 1.38561 0
M  V30 12738 O 1199.63 -2.02971 0.750454 0
M  V30 12739 C 1200.22 0.0215152 3.38793 0
M  V30 12740 C 1198.78 -0.378206 3.74495 0
M  V30 12741 C 1197.93 0.407126 2.74295 0
M  V30 12742 H 1200.88 0.68507 1.43152 0
M  V30 12743 H 1200.9 -0.780717 3.72404 0
M  V30 12744 H 1200.41 1.04397 3.73795 0
M  V30 12745 H 1198.51 -1.40503 3.45094 0
M  V30 12746 H 1198.63 -0.0797643 4.79034 0
M  V30 12747 H 1196.99 -0.139123 2.5432 0
M  V30 12748 H 1197.77 1.42909 3.12141 0
M  V30 12749 N 1200.22 -1.56282 0.203376 0
M  V30 12750 C 1201.46 -1.99712 -0.43527 0
M  V30 12751 C 1201.82 -1.0876 -1.58225 0
M  V30 12752 O 1203.02 -1.4146 -2.28566 0
M  V30 12753 C 1201.29 -3.46501 -0.875885 0
M  V30 12754 S 1202.85 -4.11957 -1.5112 0
M  V30 12755 H 1199.67 -0.697305 -0.138879 0
M  V30 12756 H 1202.27 -1.93052 0.308392 0
M  V30 12757 H 1200.98 -4.10388 -0.0311623 0
M  V30 12758 H 1200.51 -3.56996 -1.65281 0
M  V30 12759 H 1202.52 -4.09645 -2.80009 0
M  V30 12760 N 1201.7 0.070167 -1.57444 0
M  V30 12761 C 1202.61 1.10106 -2.07157 0
M  V30 12762 C 1203.62 1.42293 -1.00143 0
M  V30 12763 O 1204.8 1.52437 -1.31624 0
M  V30 12764 C 1201.86 2.39486 -2.50694 0
M  V30 12765 C 1200.92 2.14255 -3.72012 0
M  V30 12766 C 1200.16 3.37466 -4.13464 0
M  V30 12767 O 1200.38 4.46645 -3.54773 0
M  V30 12768 O 1199.31 3.25583 -5.0624 0
M  V30 12769 H 1203.14 0.70873 -2.95315 0
M  V30 12770 H 1200.72 0.28441 -1.46668 0
M  V30 12771 H 1202.61 3.15625 -2.79212 0
M  V30 12772 H 1201.28 2.78095 -1.65664 0
M  V30 12773 H 1200.19 1.35816 -3.48575 0
M  V30 12774 H 1201.52 1.80525 -4.57899 0
M  V30 12775 N 1203.17 1.53854 0.341593 0
M  V30 12776 C 1204.59 1.44161 0.684821 0
M  V30 12777 C 1204.79 0.599929 1.92362 0
M  V30 12778 O 1203.85 0.0916771 2.52334 0
M  V30 12779 C 1205.16 2.87668 0.875637 0
M  V30 12780 C 1206.71 2.97455 0.974131 0
M  V30 12781 C 1207.18 4.42075 1.19725 0
M  V30 12782 N 1208.67 4.45609 1.2644 0
M  V30 12783 C 1209.41 5.54643 1.45459 0
M  V30 12784 N 1208.9 6.7368 1.61637 0
M  V30 12785 N 1210.7 5.4226 1.48022 0
M  V30 12786 H 1202.85 2.07069 -0.472883 0
M  V30 12787 H 1205.11 0.936114 -0.149648 0
M  V30 12788 H 1204.82 3.51681 0.0368595 0
M  V30 12789 H 1204.69 3.32731 1.7768 0
M  V30 12790 H 1207.08 2.33582 1.80343 0
M  V30 12791 H 1207.16 2.55751 0.0498282 0
M  V30 12792 H 1206.8 5.06529 0.372872 0
M  V30 12793 H 1206.73 4.81372 2.13515 0
M  V30 12794 H 1209.22 3.59831 1.15455 0
M  V30 12795 H 1209.54 7.52541 1.7579 0
M  V30 12796 H 1207.88 6.76622 1.5877 0
M  V30 12797 H 1211.07 4.48221 1.34966 0
M  V30 12798 H 1211.25 6.27293 1.62502 0
M  V30 12799 N 1204.65 -0.602709 1.4562 0
M  V30 12800 C 1205.88 -1.39299 1.53657 0
M  V30 12801 C 1206.3 -1.87315 0.171632 0
M  V30 12802 O 1205.66 -1.60423 -0.844639 0
M  V30 12803 C 1205.71 -2.57021 2.52928 0
M  V30 12804 O 1204.81 -3.57812 2.05047 0
M  V30 12805 H 1204.15 -0.41567 0.517798 0
M  V30 12806 H 1206.68 -0.73304 1.91018 0
M  V30 12807 H 1206.69 -3.04202 2.71892 0
M  V30 12808 H 1205.37 -2.21422 3.52058 0
M  V30 12809 H 1203.94 -3.17247 1.95981 0
M  V30 12810 N 1206.13 -1.32992 -0.845635 0
M  V30 12811 C 1207.41 -1.14671 -1.58461 0
M  V30 12812 C 1207.79 0.289498 -2.09106 0
M  V30 12813 O 1207.13 1.28751 -1.88773 0
M  V30 12814 C 1207.34 -2.18206 -2.72373 0
M  V30 12815 C 1208.69 -2.5201 -3.41726 0
M  V30 12816 O 1209.72 -2.16821 -2.82608 0
M  V30 12817 O 1208.58 -3.12368 -4.48429 0
M  V30 12818 H 1205.67 -0.443088 -0.698285 0
M  V30 12819 H 1208.22 -1.44552 -0.888978 0
M  V30 12820 H 1206.99 -3.14707 -2.32541 0
M  V30 12821 H 1206.61 -1.89372 -3.49605 0
M  V30 12822 N 1207.61 1.06304 -1.1635 0
M  V30 12823 C 1208.55 2.13776 -0.869965 0
M  V30 12824 C 1209.52 1.65105 0.181541 0
M  V30 12825 O 1210.71 1.90743 0.0467705 0
M  V30 12826 C 1207.85 3.43034 -0.377077 0
M  V30 12827 C 1206.96 4.0544 -1.4914 0
M  V30 12828 C 1206.1 5.22572 -0.953538 0
M  V30 12829 C 1205.14 5.76961 -2.04407 0
M  V30 12830 N 1204.27 6.85409 -1.52181 0
M  V30 12831 H 1209.11 2.38224 -1.79034 0
M  V30 12832 H 1206.65 1.16882 -0.893136 0
M  V30 12833 H 1208.61 4.17136 -0.0729426 0
M  V30 12834 H 1207.24 3.18804 0.506359 0
M  V30 12835 H 1206.29 3.28886 -1.9115 0
M  V30 12836 H 1207.6 4.41859 -2.31434 0
M  V30 12837 H 1206.76 6.037 -0.602579 0
M  V30 12838 H 1205.5 4.87598 -0.099897 0
M  V30 12839 H 1204.5 4.9447 -2.40373 0
M  V30 12840 H 1205.73 6.13987 -2.90167 0
M  V30 12841 H 1203.67 6.52354 -0.690697 0
M  V30 12842 H 1203.59 7.2077 -2.28092 0
M  V30 12843 H 1204.86 7.70217 -1.19942 0
M  V30 12844 N 1209.09 0.96196 1.24836 0
M  V30 12845 C 1210.33 0.621634 1.93038 0
M  V30 12846 C 1210.66 -0.840257 1.75081 0
M  V30 12847 O 1209.94 -1.60381 1.10038 0
M  V30 12848 C 1210.22 0.990107 3.46221 0
M  V30 12849 C 1210.08 2.50827 3.73371 0
M  V30 12850 C 1211.39 0.520478 4.37011 0
M  V30 12851 H 1208.51 0.227312 0.701069 0
M  V30 12852 H 1211.16 1.19993 1.47315 0
M  V30 12853 H 1209.31 0.498008 3.85295 0
M  V30 12854 H 1210.98 3.07469 3.4389 0
M  V30 12855 H 1209.22 2.94277 3.18722 0
M  V30 12856 H 1209.89 2.71659 4.80526 0
M  V30 12857 H 1212.37 0.942703 4.05281 0
M  V30 12858 H 1211.24 0.806918 5.42937 0
M  V30 12859 H 1211.5 -0.579507 4.38285 0
M  V30 12860 N 1210.56 -1.39601 0.731392 0
M  V30 12861 C 1211.97 -1.83424 0.348194 0
M  V30 12862 C 1212.33 -1.61106 -1.11979 0
M  V30 12863 O 1211.45 -1.1003 -1.86339 0
M  V30 12864 C 1212.05 -3.32982 0.6252 0
M  V30 12865 C 1210.6 -3.75238 0.295536 0
M  V30 12866 C 1209.75 -2.62642 0.88964 0
M  V30 12867 H 1212.7 -1.28644 0.929318 0
M  V30 12868 H 1212.72 -3.80357 -0.104254 0
M  V30 12869 H 1212.24 -3.49193 1.69368 0
M  V30 12870 H 1210.34 -3.64615 -0.767254 0
M  V30 12871 H 1210.45 -4.72781 0.775576 0
M  V30 12872 H 1208.81 -2.52726 0.316529 0
M  V30 12873 H 1209.6 -2.81661 1.96271 0
M  V30 12874 N 1212.04 -0.478751 -1.50152 0
M  V30 12875 C 1213.32 0.135533 -1.9513 0
M  V30 12876 C 1213.7 1.56253 -1.41944 0
M  V30 12877 O 1213.05 2.19824 -0.623673 0
M  V30 12878 C 1213.26 0.0710037 -3.48928 0
M  V30 12879 C 1214.61 0.256075 -4.23827 0
M  V30 12880 O 1215.63 0.147234 -3.55896 0
M  V30 12881 O 1214.49 0.476741 -5.44417 0
M  V30 12882 H 1211.58 0.107491 -0.819985 0
M  V30 12883 H 1214.13 -0.539701 -1.60889 0
M  V30 12884 H 1212.9 -0.925012 -3.80209 0
M  V30 12885 H 1212.52 0.787362 -3.89726 0
M  V30 12886 N 1213.52 1.56172 -0.211661 0
M  V30 12887 C 1214.47 2.21206 0.719063 0
M  V30 12888 C 1215.46 1.18835 1.20725 0
M  V30 12889 O 1216.67 1.36939 1.16823 0
M  V30 12890 H 1213.04 0.709129 0.250279 0
M  V30 12891 H 1215.01 2.98038 0.147022 0
M  V30 12892 C 1213.76 2.89826 1.92084 0
M  V30 12893 H 1213.09 3.68351 1.55428 0
M  V30 12894 H 1214.53 3.38744 2.55006 0
M  V30 12895 C 1212.99 1.91756 2.77004 0
M  V30 12896 O 1213.52 1.42826 3.75451 0
M  V30 12897 N 1211.72 1.59622 2.42836 0
M  V30 12898 H 1211.27 1.99606 1.62835 0
M  V30 12899 H 1211.23 0.942641 2.99936 0
M  V30 12900 N 1215 -0.0618163 1.57479 0
M  V30 12901 C 1215.95 -1.0724 2.04373 0
M  V30 12902 C 1216.92 -1.37875 0.926271 0
M  V30 12903 O 1218.1 -1.48772 1.19463 0
M  V30 12904 C 1215.24 -2.37805 2.50085 0
M  V30 12905 C 1214.35 -2.13614 3.7549 0
M  V30 12906 C 1213.49 -3.37814 4.09945 0
M  V30 12907 C 1212.53 -3.09032 5.28361 0
M  V30 12908 N 1211.66 -4.25591 5.58406 0
M  V30 12909 H 1216.5 -0.665536 2.90473 0
M  V30 12910 H 1214.04 -0.317043 1.43643 0
M  V30 12911 H 1216 -3.14048 2.74644 0
M  V30 12912 H 1214.63 -2.76275 1.66948 0
M  V30 12913 H 1213.68 -1.28017 3.58212 0
M  V30 12914 H 1214.99 -1.88361 4.61867 0
M  V30 12915 H 1214.15 -4.22447 4.35458 0
M  V30 12916 H 1212.89 -3.66153 3.22154 0
M  V30 12917 H 1211.89 -2.22797 5.02635 0
M  V30 12918 H 1213.12 -2.82006 6.17778 0
M  V30 12919 H 1211.06 -4.53941 4.73575 0
M  V30 12920 H 1210.98 -4.03646 6.39223 0
M  V30 12921 H 1212.25 -5.11191 5.88476 0
M  V30 12922 N 1216.48 -1.54033 -0.333429 0
M  V30 12923 C 1217.42 -1.83441 -1.43011 0
M  V30 12924 C 1218.42 -0.705592 -1.54006 0
M  V30 12925 O 1219.62 -0.889098 -1.56509 0
M  V30 12926 H 1216 -0.581326 -0.477037 0
M  V30 12927 H 1217.97 -2.75172 -1.15426 0
M  V30 12928 C 1216.72 -2.0698 -2.79382 0
M  V30 12929 H 1216.04 -2.93297 -2.71692 0
M  V30 12930 H 1217.48 -2.31517 -3.55212 0
M  V30 12931 C 1215.94 -0.85835 -3.25782 0
M  V30 12932 O 1216.47 -0.062739 -4.01651 0
M  V30 12933 N 1214.68 -0.672738 -2.82706 0
M  V30 12934 H 1214.22 -1.32136 -2.21128 0
M  V30 12935 H 1214.18 0.136347 -3.14104 0
M  V30 12936 N 1217.95 0.594978 -1.45938 0
M  V30 12937 C 1219.18 1.37994 -1.5416 0
M  V30 12938 C 1219.6 1.87954 -0.17848 0
M  V30 12939 O 1218.95 1.62932 0.822161 0
M  V30 12940 C 1219.01 2.57586 -2.53637 0
M  V30 12941 O 1218.73 2.09698 -3.84653 0
M  V30 12942 C 1220.23 3.50292 -2.71681 0
M  V30 12943 H 1217.45 0.421983 -0.5217 0
M  V30 12944 H 1219.99 0.724459 -1.91238 0
M  V30 12945 H 1218.15 3.19149 -2.19597 0
M  V30 12946 H 1218.56 2.87492 -4.3869 0
M  V30 12947 H 1220.03 4.30717 -3.45234 0
M  V30 12948 H 1220.51 4.01444 -1.78156 0
M  V30 12949 H 1221.12 2.94573 -3.06768 0
M  V30 12950 N 1219.43 1.33438 0.838571 0
M  V30 12951 C 1220.38 1.20285 1.93689 0
M  V30 12952 C 1221.37 0.105686 1.60553 0
M  V30 12953 O 1222.56 0.333814 1.73824 0
M  V30 12954 C 1219.69 0.944544 3.3005 0
M  V30 12955 C 1218.77 2.08416 3.69356 0
M  V30 12956 N 1219.16 3.33415 3.80353 0
M  V30 12957 C 1217.46 1.99092 3.99097 0
M  V30 12958 C 1218.16 4.08159 4.14465 0
M  V30 12959 N 1217.14 3.36601 4.2685 0
M  V30 12960 H 1220.94 2.1503 2.00348 0
M  V30 12961 H 1218.46 1.2545 1.03131 0
M  V30 12962 H 1220.45 0.831242 4.08529 0
M  V30 12963 H 1219.11 0.00562273 3.247 0
M  V30 12964 H 1220.12 3.68159 3.64252 0
M  V30 12965 H 1216.8 1.12861 4.01956 0
M  V30 12966 H 1218.19 5.16027 4.30308 0
M  V30 12967 N 1220.91 -1.05686 1.16912 0
M  V30 12968 C 1222.14 -1.82282 0.978811 0
M  V30 12969 C 1222.55 -1.8278 -0.472972 0
M  V30 12970 O 1221.91 -1.25143 -1.32836 0
M  V30 12971 C 1221.96 -3.28623 1.50629 0
M  V30 12972 O 1221.68 -3.28269 2.90122 0
M  V30 12973 C 1223.18 -4.21927 1.35987 0
M  V30 12974 H 1220.4 -0.574558 0.346588 0
M  V30 12975 H 1222.95 -1.33301 1.55084 0
M  V30 12976 H 1221.1 -3.74893 0.976404 0
M  V30 12977 H 1221.52 -4.19824 3.14401 0
M  V30 12978 H 1222.99 -5.2261 1.77716 0
M  V30 12979 H 1223.47 -4.38131 0.30626 0
M  V30 12980 H 1224.07 -3.81508 1.87968 0
M  V30 12981 N 1222.39 -0.968567 -1.24324 0
M  V30 12982 C 1223.32 -0.518323 -2.27674 0
M  V30 12983 C 1224.3 0.442479 -1.64244 0
M  V30 12984 O 1225.48 0.338416 -1.91229 0
M  V30 12985 C 1222.61 0.191459 -3.46772 0
M  V30 12986 C 1221.57 -0.685449 -4.22476 0
M  V30 12987 C 1220.89 0.155873 -5.34473 0
M  V30 12988 C 1222.19 -1.97047 -4.83704 0
M  V30 12989 H 1223.89 -1.38215 -2.65588 0
M  V30 12990 H 1221.43 -0.66604 -1.27671 0
M  V30 12991 H 1223.39 0.517667 -4.18208 0
M  V30 12992 H 1222.11 1.08965 -3.07887 0
M  V30 12993 H 1220.77 -0.994942 -3.52841 0
M  V30 12994 H 1220.42 1.05424 -4.91828 0
M  V30 12995 H 1220.12 -0.427655 -5.86042 0
M  V30 12996 H 1221.64 0.476733 -6.08736 0
M  V30 12997 H 1223.06 -1.70979 -5.4721 0
M  V30 12998 H 1221.45 -2.50079 -5.45509 0
M  V30 12999 H 1222.52 -2.66484 -4.0511 0
M  V30 13000 N 1223.87 1.39211 -0.738786 0
M  V30 13001 C 1224.8 2.33209 -0.11647 0
M  V30 13002 C 1225.78 1.54108 0.720056 0
M  V30 13003 O 1226.96 1.82486 0.664264 0
M  V30 13004 C 1224.09 3.38226 0.78872 0
M  V30 13005 C 1223.05 4.27963 0.0560636 0
M  V30 13006 C 1222.37 5.2371 1.07852 0
M  V30 13007 C 1223.67 5.10508 -1.1036 0
M  V30 13008 H 1225.37 2.85501 -0.901649 0
M  V30 13009 H 1222.91 1.37272 -0.435032 0
M  V30 13010 H 1224.87 4.02938 1.23364 0
M  V30 13011 H 1223.59 2.84382 1.60606 0
M  V30 13012 H 1222.25 3.64735 -0.369274 0
M  V30 13013 H 1221.9 4.66161 1.88953 0
M  V30 13014 H 1221.6 5.846 0.593048 0
M  V30 13015 H 1223.12 5.91299 1.52307 0
M  V30 13016 H 1224.53 5.68544 -0.736943 0
M  V30 13017 H 1222.93 5.80558 -1.51895 0
M  V30 13018 H 1224 4.45117 -1.92352 0
M  V30 13019 N 1225.34 0.486708 1.49896 0
M  V30 13020 C 1226.27 -0.288898 2.31706 0
M  V30 13021 C 1227.26 -0.975901 1.3932 0
M  V30 13022 O 1228.44 -0.970065 1.68236 0
M  V30 13023 C 1225.57 -1.36218 3.19471 0
M  V30 13024 C 1224.52 -0.795884 4.20535 0
M  V30 13025 C 1223.85 -1.96862 4.97141 0
M  V30 13026 C 1225.15 0.203421 5.21904 0
M  V30 13027 H 1226.84 0.393934 2.96797 0
M  V30 13028 H 1224.39 0.190894 1.42729 0
M  V30 13029 H 1226.34 -1.91238 3.75508 0
M  V30 13030 H 1225.07 -2.074 2.52295 0
M  V30 13031 H 1223.73 -0.267538 3.65622 0
M  V30 13032 H 1223.37 -2.66779 4.26425 0
M  V30 13033 H 1223.07 -1.59585 5.65514 0
M  V30 13034 H 1224.6 -2.52343 5.56017 0
M  V30 13035 H 1226.01 -0.258144 5.72719 0
M  V30 13036 H 1224.41 0.491273 5.98086 0
M  V30 13037 H 1225.48 1.12414 4.7169 0
M  V30 13038 N 1226.82 -1.56058 0.219941 0
M  V30 13039 C 1227.79 -2.18964 -0.677303 0
M  V30 13040 C 1228.79 -1.15105 -1.12283 0
M  V30 13041 O 1229.98 -1.40348 -1.03189 0
M  V30 13042 C 1227.11 -2.81167 -1.92764 0
M  V30 13043 H 1228.3 -2.99623 -0.128877 0
M  V30 13044 H 1225.85 -1.56272 -0.0296744 0
M  V30 13045 H 1226.59 -2.04374 -2.51797 0
M  V30 13046 H 1226.37 -3.5722 -1.61666 0
M  V30 13047 H 1227.86 -3.29391 -2.56693 0
M  V30 13048 N 1228.3 0.053464 -1.57509 0
M  V30 13049 C 1229.55 0.747622 -1.87763 0
M  V30 13050 C 1229.87 1.77178 -0.814433 0
M  V30 13051 O 1229.14 1.95287 0.154862 0
M  V30 13052 H 1227.72 0.279109 -0.692898 0
M  V30 13053 H 1230.38 0.0252006 -1.94884 0
M  V30 13054 H 1229.48 1.25244 -2.85868 0
M  V30 13055 N 1229.78 1.54207 0.325255 0
M  V30 13056 C 1231.03 1.72587 1.06497 0
M  V30 13057 C 1231.36 0.497228 1.87727 0
M  V30 13058 O 1230.63 -0.505804 1.87808 0
M  V30 13059 C 1230.92 3.00046 1.99109 0
M  V30 13060 C 1230.77 4.33158 1.21221 0
M  V30 13061 C 1232.09 3.23251 2.98658 0
M  V30 13062 H 1229.21 0.627974 0.38577 0
M  V30 13063 H 1231.85 1.869 0.34179 0
M  V30 13064 H 1230 2.87973 2.60775 0
M  V30 13065 H 1231.67 4.57111 0.620289 0
M  V30 13066 H 1229.91 4.30739 0.514462 0
M  V30 13067 H 1230.59 5.18558 1.89214 0
M  V30 13068 H 1233.06 3.34774 2.47114 0
M  V30 13069 H 1231.94 4.13796 3.60645 0
M  V30 13070 H 1232.2 2.40401 3.71026 0
M  V30 13071 N 1231.26 -0.58723 1.46251 0
M  V30 13072 C 1232.5 -1.3456 1.51327 0
M  V30 13073 C 1232.83 -1.93815 0.163146 0
M  V30 13074 O 1232.09 -1.76723 -0.840677 0
M  V30 13075 C 1232.39 -2.49776 2.5563 0
M  V30 13076 C 1232.05 -2.08543 3.99776 0
M  V30 13077 C 1230.71 -1.97013 4.39021 0
M  V30 13078 C 1233.07 -1.76669 4.90344 0
M  V30 13079 C 1230.39 -1.5186 5.66706 0
M  V30 13080 C 1232.75 -1.32996 6.18462 0
M  V30 13081 C 1231.41 -1.20039 6.56618 0
M  V30 13082 H 1230.68 -0.492391 0.553744 0
M  V30 13083 H 1233.33 -0.661715 1.79704 0
M  V30 13084 H 1231.63 -3.23592 2.20897 0
M  V30 13085 H 1233.33 -3.07995 2.56788 0
M  V30 13086 H 1229.92 -2.18451 3.68751 0
M  V30 13087 H 1234.1 -1.84465 4.60746 0
M  V30 13088 H 1229.36 -1.40467 5.95045 0
M  V30 13089 H 1233.53 -1.07385 6.88071 0
M  V30 13090 H 1231.16 -0.848268 7.55452 0
M  V30 13091 N 1232.74 -1.33881 -0.831482 0
M  V30 13092 C 1234.15 -1.13376 -1.1233 0
M  V30 13093 C 1234.35 0.0704402 -2.01377 0
M  V30 13094 O 1233.41 0.748516 -2.4115 0
M  V30 13095 C 1234.72 -2.42484 -1.77826 0
M  V30 13096 C 1236.27 -2.4846 -1.90359 0
M  V30 13097 C 1236.74 -3.77548 -2.59272 0
M  V30 13098 N 1238.23 -3.7866 -2.66778 0
M  V30 13099 C 1238.97 -4.75258 -3.20807 0
M  V30 13100 N 1238.47 -5.82234 -3.75466 0
M  V30 13101 N 1240.26 -4.62724 -3.19128 0
M  V30 13102 H 1232.41 -2.11051 -0.238998 0
M  V30 13103 H 1234.67 -0.932893 -0.168565 0
M  V30 13104 H 1234.38 -3.30647 -1.19857 0
M  V30 13105 H 1234.25 -2.55186 -2.77777 0
M  V30 13106 H 1236.64 -1.60742 -2.47479 0
M  V30 13107 H 1236.72 -2.39693 -0.893359 0
M  V30 13108 H 1236.36 -4.65651 -2.02808 0
M  V30 13109 H 1236.29 -3.83594 -3.60781 0
M  V30 13110 H 1238.79 -3.01351 -2.28026 0
M  V30 13111 H 1239.1 -6.51968 -4.14918 0
M  V30 13112 H 1237.44 -5.85959 -3.73733 0
M  V30 13113 H 1240.63 -3.78303 -2.75688 0
M  V30 13114 H 1240.81 -5.38175 -3.60932 0
M  V30 13115 N 1234.21 1.05064 -1.1747 0
M  V30 13116 C 1235.46 1.77737 -0.961979 0
M  V30 13117 C 1235.78 1.88198 0.510551 0
M  V30 13118 O 1235.05 1.39968 1.37062 0
M  V30 13119 H 1233.63 0.658366 -0.352935 0
M  V30 13120 H 1236.29 1.26851 -1.47969 0
M  V30 13121 H 1235.39 2.79368 -1.39141 0
M  V30 13122 N 1235.69 0.975146 1.23809 0
M  V30 13123 C 1236.94 0.639858 1.91704 0
M  V30 13124 C 1237.26 -0.828557 1.76522 0
M  V30 13125 O 1236.53 -1.59217 1.14135 0
M  V30 13126 H 1235.11 0.233667 0.709513 0
M  V30 13127 H 1237.77 1.23782 1.50545 0
M  V30 13128 H 1236.87 0.886915 2.99233 0
M  V30 13129 N 1237.17 -1.38817 0.746158 0
M  V30 13130 C 1238.12 -2.27825 0.089362 0
M  V30 13131 C 1239.1 -1.44826 -0.701013 0
M  V30 13132 O 1240.3 -1.67632 -0.568188 0
M  V30 13133 C 1237.42 -3.33639 -0.808682 0
M  V30 13134 C 1236.51 -4.24098 -0.0118582 0
M  V30 13135 N 1236.9 -4.95393 1.02075 0
M  V30 13136 C 1235.2 -4.45355 -0.239815 0
M  V30 13137 C 1235.9 -5.61969 1.5022 0
M  V30 13138 N 1234.88 -5.37398 0.818816 0
M  V30 13139 H 1238.68 -2.80406 0.88033 0
M  V30 13140 H 1236.19 -1.51632 0.581512 0
M  V30 13141 H 1238.19 -3.96284 -1.29478 0
M  V30 13142 H 1236.85 -2.82617 -1.59868 0
M  V30 13143 H 1237.86 -4.98552 1.40237 0
M  V30 13144 H 1234.54 -4.05255 -1.00374 0
M  V30 13145 H 1235.93 -6.29017 2.36192 0
M  V30 13146 N 1238.65 -0.49465 -1.49636 0
M  V30 13147 C 1239.92 0.114829 -1.95263 0
M  V30 13148 C 1240.3 1.54739 -1.43593 0
M  V30 13149 O 1239.65 2.1915 -0.646953 0
M  V30 13150 C 1239.86 0.0339912 -3.48983 0
M  V30 13151 C 1241.21 0.211108 -4.24075 0
M  V30 13152 O 1242.23 0.109478 -3.56032 0
M  V30 13153 O 1241.09 0.418971 -5.44892 0
M  V30 13154 H 1238.19 0.0987883 -0.821078 0
M  V30 13155 H 1240.73 -0.556736 -1.60308 0
M  V30 13156 H 1239.51 -0.965287 -3.79207 0
M  V30 13157 H 1239.13 0.745982 -3.90539 0
M  V30 13158 N 1240.13 1.55939 -0.228214 0
M  V30 13159 C 1241.37 1.97652 0.402067 0
M  V30 13160 C 1241.69 1.11911 1.60422 0
M  V30 13161 O 1242.89 1.43552 2.30445 0
M  V30 13162 C 1241.35 3.51638 0.766724 0
M  V30 13163 C 1240.96 4.46092 -0.412991 0
M  V30 13164 C 1242.7 4.02049 1.36224 0
M  V30 13165 C 1240.61 5.91394 -0.0255281 0
M  V30 13166 H 1239.54 0.738107 0.153994 0
M  V30 13167 H 1242.19 1.8059 -0.32548 0
M  V30 13168 H 1240.57 3.64325 1.55188 0
M  V30 13169 H 1241.75 4.45156 -1.19049 0
M  V30 13170 H 1240.06 4.0606 -0.92218 0
M  V30 13171 H 1242.66 5.08111 1.66514 0
M  V30 13172 H 1243 3.48292 2.28032 0
M  V30 13173 H 1243.53 3.92612 0.640378 0
M  V30 13174 H 1240.27 6.49149 -0.910269 0
M  V30 13175 H 1239.79 5.95509 0.716149 0
M  V30 13176 H 1241.47 6.4577 0.398839 0
M  V30 13177 N 1241.6 -0.0451101 1.57535 0
M  V30 13178 C 1242.53 -1.05046 2.08537 0
M  V30 13179 C 1243.52 -1.3872 0.984418 0
M  V30 13180 O 1244.7 -1.47884 1.25873 0
M  V30 13181 C 1241.83 -2.3562 2.55148 0
M  V30 13182 C 1240.78 -2.16231 3.69362 0
M  V30 13183 C 1240.11 -3.52423 4.02122 0
M  V30 13184 C 1241.41 -1.56159 4.98409 0
M  V30 13185 H 1243.1 -0.625965 2.92783 0
M  V30 13186 H 1240.65 -0.299657 1.40848 0
M  V30 13187 H 1242.6 -3.06266 2.89446 0
M  V30 13188 H 1241.33 -2.80099 1.67964 0
M  V30 13189 H 1239.99 -1.4802 3.35389 0
M  V30 13190 H 1239.63 -3.94522 3.12028 0
M  V30 13191 H 1239.33 -3.4028 4.79044 0
M  V30 13192 H 1240.86 -4.24458 4.38939 0
M  V30 13193 H 1242.27 -2.16703 5.30766 0
M  V30 13194 H 1240.67 -1.54638 5.79834 0
M  V30 13195 H 1241.74 -0.525698 4.82042 0
M  V30 13196 N 1243.08 -1.54377 -0.317073 0
M  V30 13197 C 1244.33 -1.73149 -1.05581 0
M  V30 13198 C 1244.66 -0.507176 -1.8746 0
M  V30 13199 O 1243.94 0.495837 -1.88074 0
M  V30 13200 C 1244.22 -3.01098 -1.97515 0
M  V30 13201 C 1244.07 -4.33794 -1.18922 0
M  V30 13202 C 1245.39 -3.24831 -2.9694 0
M  V30 13203 H 1242.51 -0.630011 -0.382434 0
M  V30 13204 H 1245.15 -1.87079 -0.331873 0
M  V30 13205 H 1243.3 -2.89352 -2.59244 0
M  V30 13206 H 1244.97 -4.57433 -0.596039 0
M  V30 13207 H 1243.22 -4.31005 -0.491612 0
M  V30 13208 H 1243.89 -5.19554 -1.86462 0
M  V30 13209 H 1246.36 -3.3608 -2.45335 0
M  V30 13210 H 1245.24 -4.15702 -3.58445 0
M  V30 13211 H 1245.5 -2.42365 -3.69745 0
M  V30 13212 N 1244.56 0.579466 -1.4656 0
M  V30 13213 C 1245.98 0.903163 -1.31587 0
M  V30 13214 C 1246.18 1.99406 -0.28972 0
M  V30 13215 O 1245.23 2.50632 0.30658 0
M  V30 13216 C 1246.55 1.31745 -2.70303 0
M  V30 13217 C 1248.09 1.43012 -2.78418 0
M  V30 13218 C 1248.57 1.87805 -4.17724 0
M  V30 13219 N 1250.06 1.94993 -4.20157 0
M  V30 13220 C 1250.79 2.30934 -5.2484 0
M  V30 13221 N 1250.29 2.65645 -6.39847 0
M  V30 13222 N 1252.08 2.31517 -5.12207 0
M  V30 13223 H 1244.23 -0.141111 -2.11931 0
M  V30 13224 H 1246.5 -0.000460304 -0.948 0
M  V30 13225 H 1246.2 0.589864 -3.46718 0
M  V30 13226 H 1246.08 2.2783 -3.00622 0
M  V30 13227 H 1248.46 2.14856 -2.02289 0
M  V30 13228 H 1248.55 0.451701 -2.5178 0
M  V30 13229 H 1248.19 1.16539 -4.94349 0
M  V30 13230 H 1248.12 2.86611 -4.41771 0
M  V30 13231 H 1250.61 1.70645 -3.37178 0
M  V30 13232 H 1250.92 2.92032 -7.15498 0
M  V30 13233 H 1249.27 2.63276 -6.43204 0
M  V30 13234 H 1252.46 2.03824 -4.21394 0
M  V30 13235 H 1252.63 2.59199 -5.93902 0
M  V30 13236 N 1246.04 1.3432 0.824371 0
M  V30 13237 C 1247.26 1.2982 1.61745 0
M  V30 13238 C 1247.69 -0.125298 1.87682 0
M  V30 13239 O 1247.05 -1.08658 1.45131 0
M  V30 13240 C 1247.09 2.09327 2.93623 0
M  V30 13241 O 1246.2 1.4618 3.85623 0
M  V30 13242 H 1245.54 0.445929 0.491979 0
M  V30 13243 H 1248.07 1.77101 1.02452 0
M  V30 13244 H 1248.08 2.20629 3.43201 0
M  V30 13245 H 1246.75 3.12825 2.74069 0
M  V30 13246 H 1245.33 1.43611 3.44137 0
M  V30 13247 N 1247.52 -1.0444 1.18026 0
M  V30 13248 C 1248.93 -1.29766 0.929143 0
M  V30 13249 C 1249.13 -1.97338 -0.407436 0
M  V30 13250 O 1248.19 -2.25166 -1.14265 0
M  V30 13251 C 1249.5 -2.16002 2.09197 0
M  V30 13252 C 1251.05 -2.29361 2.12985 0
M  V30 13253 C 1251.52 -3.18962 3.28675 0
M  V30 13254 N 1253.02 -3.26549 3.28512 0
M  V30 13255 C 1253.75 -3.96025 4.14671 0
M  V30 13256 N 1253.25 -4.67863 5.10956 0
M  V30 13257 N 1255.04 -3.92266 4.02597 0
M  V30 13258 H 1247.19 -0.58984 2.04046 0
M  V30 13259 H 1249.45 -0.322752 0.891367 0
M  V30 13260 H 1249.16 -1.73653 3.05839 0
M  V30 13261 H 1249.03 -3.16667 2.04943 0
M  V30 13262 H 1251.42 -2.70948 1.16924 0
M  V30 13263 H 1251.5 -1.28299 2.21298 0
M  V30 13264 H 1251.15 -2.78087 4.25006 0
M  V30 13265 H 1251.08 -4.20047 3.17598 0
M  V30 13266 H 1253.57 -2.75371 2.58804 0
M  V30 13267 H 1253.88 -5.1846 5.73079 0
M  V30 13268 H 1252.22 -4.6678 5.14919 0
M  V30 13269 H 1255.42 -3.35273 3.26665 0
M  V30 13270 H 1255.59 -4.4614 4.69961 0
M  V30 13271 N 1248.99 -0.981699 -1.2329 0
M  V30 13272 C 1249.92 -0.542441 -2.27112 0
M  V30 13273 C 1250.91 0.425034 -1.64704 0
M  V30 13274 O 1252.09 0.318114 -1.91577 0
M  V30 13275 C 1249.22 0.154668 -3.46955 0
M  V30 13276 C 1248.17 -0.73022 -4.21725 0
M  V30 13277 C 1247.5 0.0991766 -5.34608 0
M  V30 13278 C 1248.8 -2.02166 -4.81587 0
M  V30 13279 H 1250.49 -1.41024 -2.64107 0
M  V30 13280 H 1248.04 -0.679544 -1.26957 0
M  V30 13281 H 1249.99 0.473281 -4.18734 0
M  V30 13282 H 1248.72 1.05693 -3.09025 0
M  V30 13283 H 1247.38 -1.03231 -3.51765 0
M  V30 13284 H 1247.02 1.00201 -4.92919 0
M  V30 13285 H 1246.72 -0.489788 -5.85555 0
M  V30 13286 H 1248.25 0.412141 -6.09207 0
M  V30 13287 H 1249.66 -1.76773 -5.45366 0
M  V30 13288 H 1248.06 -2.55851 -5.42826 0
M  V30 13289 H 1249.13 -2.70766 -4.02261 0
M  V30 13290 N 1250.47 1.3842 -0.753509 0
M  V30 13291 C 1251.4 2.33073 -0.141198 0
M  V30 13292 C 1252.38 1.54863 0.70367 0
M  V30 13293 O 1253.57 1.8318 0.644872 0
M  V30 13294 C 1250.7 3.39043 0.752802 0
M  V30 13295 C 1249.65 4.27999 0.0106692 0
M  V30 13296 C 1248.98 5.24824 1.02291 0
M  V30 13297 C 1250.28 5.09308 -1.15768 0
M  V30 13298 H 1251.97 2.84528 -0.93188 0
M  V30 13299 H 1249.52 1.36802 -0.449567 0
M  V30 13300 H 1251.47 4.04224 1.19083 0
M  V30 13301 H 1250.2 2.8607 1.57581 0
M  V30 13302 H 1248.85 3.64323 -0.407939 0
M  V30 13303 H 1248.5 4.68139 1.83998 0
M  V30 13304 H 1248.2 5.85196 0.53101 0
M  V30 13305 H 1249.73 5.92882 1.46026 0
M  V30 13306 H 1251.14 5.6773 -0.797203 0
M  V30 13307 H 1249.54 5.78914 -1.58044 0
M  V30 13308 H 1250.61 4.43051 -1.97062 0
M  V30 13309 N 1251.95 0.502579 1.49372 0
M  V30 13310 C 1252.88 -0.264307 2.31999 0
M  V30 13311 C 1253.86 -0.96107 1.40348 0
M  V30 13312 O 1255.05 -0.952167 1.69255 0
M  V30 13313 C 1252.18 -1.32822 3.20898 0
M  V30 13314 C 1251.13 -0.751236 4.21355 0
M  V30 13315 C 1250.46 -1.91578 4.99201 0
M  V30 13316 C 1251.76 0.258764 5.21659 0
M  V30 13317 H 1253.45 0.425391 2.96363 0
M  V30 13318 H 1251 0.206022 1.42519 0
M  V30 13319 H 1252.95 -1.87245 3.77515 0
M  V30 13320 H 1251.67 -2.04712 2.54481 0
M  V30 13321 H 1250.33 -0.228743 3.65886 0
M  V30 13322 H 1249.98 -2.62241 4.2923 0
M  V30 13323 H 1249.68 -1.53578 5.67175 0
M  V30 13324 H 1251.2 -2.46432 5.58663 0
M  V30 13325 H 1252.62 -0.197385 5.7296 0
M  V30 13326 H 1251.02 0.554681 5.97531 0
M  V30 13327 H 1252.09 1.1741 4.70471 0
M  V30 13328 N 1253.43 -1.55816 0.23648 0
M  V30 13329 C 1254.36 -2.23924 -0.661834 0
M  V30 13330 C 1255.34 -1.21597 -1.18946 0
M  V30 13331 O 1256.52 -1.50222 -1.23073 0
M  V30 13332 C 1253.65 -2.93069 -1.86355 0
M  V30 13333 C 1252.61 -4.01996 -1.46913 0
M  V30 13334 C 1251.93 -4.58512 -2.75083 0
M  V30 13335 C 1253.23 -5.18265 -0.647964 0
M  V30 13336 H 1254.93 -2.99253 -0.0939368 0
M  V30 13337 H 1252.47 -1.43934 -0.0437407 0
M  V30 13338 H 1254.43 -3.39412 -2.49755 0
M  V30 13339 H 1253.15 -2.15212 -2.45665 0
M  V30 13340 H 1251.81 -3.56406 -0.858522 0
M  V30 13341 H 1251.46 -3.77368 -3.3257 0
M  V30 13342 H 1251.16 -5.32037 -2.49421 0
M  V30 13343 H 1252.68 -5.07583 -3.39399 0
M  V30 13344 H 1254.1 -5.60898 -1.18602 0
M  V30 13345 H 1252.49 -5.98114 -0.487823 0
M  V30 13346 H 1253.56 -4.83691 0.342151 0
M  V30 13347 N 1254.91 0.036755 -1.57557 0
M  V30 13348 C 1256.18 0.764087 -1.80059 0
M  V30 13349 C 1256.56 1.93983 -0.83269 0
M  V30 13350 O 1255.91 2.28148 0.126815 0
M  V30 13351 C 1256.12 1.20433 -3.27562 0
M  V30 13352 C 1257.47 1.6234 -3.9234 0
M  V30 13353 O 1258.49 1.29911 -3.31665 0
M  V30 13354 O 1257.35 2.22504 -4.99154 0
M  V30 13355 H 1254.45 0.368866 -0.74018 0
M  V30 13356 H 1256.99 0.0141254 -1.69694 0
M  V30 13357 H 1255.76 0.364646 -3.89597 0
M  V30 13358 H 1255.39 2.01454 -3.42786 0
M  V30 13359 N 1256.39 1.54543 0.308881 0
M  V30 13360 C 1257.61 1.77431 1.06422 0
M  V30 13361 C 1258.03 0.529972 1.81209 0
M  V30 13362 O 1257.39 -0.499912 1.7552 0
M  V30 13363 C 1257.44 2.9769 2.05092 0
M  V30 13364 O 1257.16 4.17315 1.33341 0
M  V30 13365 C 1258.66 3.32905 2.92727 0
M  V30 13366 H 1255.88 0.591961 0.315948 0
M  V30 13367 H 1258.42 2.01473 0.350547 0
M  V30 13368 H 1256.58 2.7588 2.71973 0
M  V30 13369 H 1256.99 4.85061 1.99539 0
M  V30 13370 H 1258.47 4.20314 3.57827 0
M  V30 13371 H 1258.94 2.50713 3.6061 0
M  V30 13372 H 1259.55 3.56847 2.31388 0
M  V30 13373 N 1257.86 -0.571685 1.46866 0
M  V30 13374 C 1259.11 -1.33145 1.52972 0
M  V30 13375 C 1259.44 -1.93314 0.185344 0
M  V30 13376 O 1258.72 -1.77083 -0.80447 0
M  V30 13377 C 1259 -2.4525 2.63675 0
M  V30 13378 C 1258.85 -1.90044 4.0768 0
M  V30 13379 C 1260.17 -3.47247 2.70384 0
M  V30 13380 H 1257.29 -0.482751 0.556885 0
M  V30 13381 H 1259.93 -0.641163 1.78855 0
M  V30 13382 H 1258.08 -3.04132 2.41735 0
M  V30 13383 H 1259.76 -1.35535 4.4094 0
M  V30 13384 H 1258 -1.20805 4.1664 0
M  V30 13385 H 1258.67 -2.71019 4.80887 0
M  V30 13386 H 1261.15 -2.98263 2.90135 0
M  V30 13387 H 1260.02 -4.23132 3.49643 0
M  V30 13388 H 1260.28 -4.05179 1.76868 0
M  V30 13389 N 1259.34 -1.34755 -0.817236 0
M  V30 13390 C 1260.57 -1.30522 -1.60536 0
M  V30 13391 C 1260.98 0.119541 -1.88421 0
M  V30 13392 O 1260.34 1.06833 -1.47962 0
M  V30 13393 C 1260.39 -2.09939 -2.94292 0
M  V30 13394 O 1260.11 -3.46858 -2.67621 0
M  V30 13395 C 1261.61 -2.13168 -3.88683 0
M  V30 13396 H 1258.83 -0.448789 -0.498828 0
M  V30 13397 H 1261.38 -1.77453 -1.01639 0
M  V30 13398 H 1259.53 -1.66634 -3.49731 0
M  V30 13399 H 1259.95 -3.87979 -3.52949 0
M  V30 13400 H 1261.42 -2.73147 -4.79682 0
M  V30 13401 H 1261.9 -1.12758 -4.24479 0
M  V30 13402 H 1262.5 -2.56587 -3.39181 0
M  V30 13403 N 1260.82 1.03812 -1.18578 0
M  V30 13404 C 1261.75 2.11436 -0.858502 0
M  V30 13405 C 1262.73 1.61594 0.180604 0
M  V30 13406 O 1263.91 1.88408 0.058995 0
M  V30 13407 C 1261.04 3.37514 -0.283154 0
M  V30 13408 C 1260.09 4.0621 -1.29985 0
M  V30 13409 S 1260.92 4.52936 -2.85673 0
M  V30 13410 C 1262.08 5.82245 -2.29656 0
M  V30 13411 H 1262.31 2.38871 -1.76997 0
M  V30 13412 H 1259.84 1.16617 -1.01192 0
M  V30 13413 H 1261.8 4.10478 0.0422898 0
M  V30 13414 H 1260.46 3.08189 0.60647 0
M  V30 13415 H 1259.65 4.96845 -0.84621 0
M  V30 13416 H 1259.26 3.39374 -1.57166 0
M  V30 13417 H 1261.55 6.56321 -1.68074 0
M  V30 13418 H 1262.49 6.32375 -3.18602 0
M  V30 13419 H 1262.9 5.37472 -1.72581 0
M  V30 13420 N 1262.3 0.988223 1.22768 0
M  V30 13421 C 1263.23 0.492919 2.23837 0
M  V30 13422 C 1264.24 -0.409467 1.57567 0
M  V30 13423 O 1265.43 -0.21235 1.77232 0
M  V30 13424 C 1262.53 -0.305428 3.37521 0
M  V30 13425 C 1261.7 0.591966 4.33376 0
M  V30 13426 C 1260.76 -0.15387 5.25975 0
M  V30 13427 O 1259.79 0.459153 5.67345 0
M  V30 13428 N 1260.99 -1.43756 5.62418 0
M  V30 13429 H 1263.76 1.36199 2.66965 0
M  V30 13430 H 1261.32 0.862395 1.3702 0
M  V30 13431 H 1263.31 -0.812921 3.96451 0
M  V30 13432 H 1261.88 -1.07556 2.93514 0
M  V30 13433 H 1261.1 1.28019 3.72833 0
M  V30 13434 H 1262.39 1.20327 4.94367 0
M  V30 13435 H 1261.79 -1.95701 5.30771 0
M  V30 13436 H 1260.34 -1.89034 6.23786 0
M  V30 13437 N 1263.78 -1.38018 0.760839 0
M  V30 13438 C 1265.02 -2.00248 0.320716 0
M  V30 13439 C 1265.35 -1.60259 -1.09684 0
M  V30 13440 O 1264.63 -0.843567 -1.75255 0
M  V30 13441 C 1264.91 -3.57254 0.451849 0
M  V30 13442 C 1264.77 -4.07185 1.91103 0
M  V30 13443 C 1266.08 -4.39843 -0.150439 0
M  V30 13444 H 1263.2 -0.727491 0.118007 0
M  V30 13445 H 1265.85 -1.63855 0.961842 0
M  V30 13446 H 1264 -3.88386 -0.0939672 0
M  V30 13447 H 1265.67 -3.86665 2.51571 0
M  V30 13448 H 1263.91 -3.59782 2.42362 0
M  V30 13449 H 1264.58 -5.16262 1.9539 0
M  V30 13450 H 1267.06 -4.14905 0.315145 0
M  V30 13451 H 1265.93 -5.48893 -0.0284853 0
M  V30 13452 H 1266.19 -4.24367 -1.23956 0
M  V30 13453 N 1265.25 -0.510493 -1.49103 0
M  V30 13454 C 1266.48 0.0271718 -2.06882 0
M  V30 13455 C 1266.9 1.2995 -1.36962 0
M  V30 13456 O 1266.25 1.76842 -0.450916 0
M  V30 13457 C 1266.3 0.274956 -3.60453 0
M  V30 13458 O 1266.03 -0.946941 -4.27744 0
M  V30 13459 C 1267.53 0.855197 -4.34973 0
M  V30 13460 H 1264.75 -0.024732 -0.670544 0
M  V30 13461 H 1267.29 -0.710567 -1.91758 0
M  V30 13462 H 1265.45 0.962696 -3.75248 0
M  V30 13463 H 1265.86 -0.715627 -5.19595 0
M  V30 13464 H 1267.33 0.978103 -5.43265 0
M  V30 13465 H 1267.81 1.85535 -3.98087 0
M  V30 13466 H 1268.42 0.204632 -4.24807 0
M  V30 13467 N 1266.73 1.55688 -0.24474 0
M  V30 13468 C 1267.69 2.20014 0.642382 0
M  V30 13469 C 1268.69 1.16877 1.10437 0
M  V30 13470 O 1269.88 1.41972 1.00943 0
M  V30 13471 C 1267.02 2.84198 1.88267 0
M  V30 13472 H 1268.21 2.9979 0.0811937 0
M  V30 13473 H 1265.76 1.56299 0.00480917 0
M  V30 13474 H 1266.5 2.08354 2.48514 0
M  V30 13475 H 1266.28 3.59747 1.55963 0
M  V30 13476 H 1267.77 3.33434 2.5142 0
M  V30 13477 N 1268.21 -0.0283989 1.57574 0
M  V30 13478 C 1269.63 -0.384054 1.5491 0
M  V30 13479 C 1269.83 -1.76564 0.970947 0
M  V30 13480 O 1268.88 -2.45455 0.592288 0
M  V30 13481 C 1270.19 -0.285297 2.99344 0
M  V30 13482 C 1271.74 -0.36233 3.10896 0
M  V30 13483 C 1272.22 -0.293014 4.57062 0
M  V30 13484 N 1273.71 -0.351788 4.61862 0
M  V30 13485 C 1274.44 -0.321054 5.725 0
M  V30 13486 N 1273.94 -0.242573 6.92375 0
M  V30 13487 N 1275.73 -0.370832 5.60875 0
M  V30 13488 H 1267.88 0.87573 1.93506 0
M  V30 13489 H 1270.15 0.33305 0.887571 0
M  V30 13490 H 1269.85 0.664146 3.45372 0
M  V30 13491 H 1269.73 -1.07869 3.61447 0
M  V30 13492 H 1272.11 -1.30221 2.64814 0
M  V30 13493 H 1272.19 0.460422 2.51622 0
M  V30 13494 H 1271.84 0.643197 5.03811 0
M  V30 13495 H 1271.77 -1.13388 5.14248 0
M  V30 13496 H 1274.26 -0.414929 3.75615 0
M  V30 13497 H 1274.57 -0.224239 7.72475 0
M  V30 13498 H 1272.92 -0.208612 6.94687 0
M  V30 13499 H 1276.11 -0.430141 4.6612 0
M  V30 13500 H 1276.28 -0.343412 6.47089 0
M  V30 13501 N 1269.69 -1.54705 -0.300681 0
M  V30 13502 C 1270.91 -1.78318 -1.05913 0
M  V30 13503 C 1271.34 -0.541177 -1.80147 0
M  V30 13504 O 1270.7 0.508291 -1.74029 0
M  V30 13505 C 1270.74 -2.99041 -2.01511 0
M  V30 13506 O 1269.85 -2.72188 -3.09818 0
M  V30 13507 H 1269.19 -0.590197 -0.304242 0
M  V30 13508 H 1271.72 -2.01789 -0.338006 0
M  V30 13509 H 1271.73 -3.2702 -2.43971 0
M  V30 13510 H 1270.4 -3.89098 -1.46886 0
M  V30 13511 H 1268.98 -2.55227 -2.71871 0
M  V30 13512 N 1271.17 0.563888 -1.47167 0
M  V30 13513 C 1272.1 1.68137 -1.62025 0
M  V30 13514 C 1273.08 1.63481 -0.469899 0
M  V30 13515 O 1274.26 1.81206 -0.698432 0
M  V30 13516 C 1271.39 3.06779 -1.62801 0
M  V30 13517 C 1270.35 3.26278 -2.76996 0
M  V30 13518 C 1269.67 4.65638 -2.62841 0
M  V30 13519 C 1270.97 3.12295 -4.18651 0
M  V30 13520 H 1272.67 1.55958 -2.55573 0
M  V30 13521 H 1270.21 0.74887 -1.22996 0
M  V30 13522 H 1272.17 3.84795 -1.71787 0
M  V30 13523 H 1270.89 3.19901 -0.658097 0
M  V30 13524 H 1269.55 2.50668 -2.67509 0
M  V30 13525 H 1269.2 4.75551 -1.63892 0
M  V30 13526 H 1268.9 4.79635 -3.39447 0
M  V30 13527 H 1270.42 5.45798 -2.73746 0
M  V30 13528 H 1271.83 3.80136 -4.2915 0
M  V30 13529 H 1270.23 3.37805 -4.95992 0
M  V30 13530 H 1271.3 2.09126 -4.37486 0
M  V30 13531 N 1272.64 1.35187 0.810078 0
M  V30 13532 C 1273.55 1.29926 1.95337 0
M  V30 13533 C 1274.57 0.204748 1.72791 0
M  V30 13534 O 1275.75 0.433507 1.96679 0
M  V30 13535 C 1272.81 1.06736 3.29861 0
M  V30 13536 C 1271.87 2.25466 3.65326 0
M  V30 13537 C 1271.11 2.03373 4.93432 0
M  V30 13538 O 1271.33 0.998419 5.61594 0
M  V30 13539 O 1270.26 2.90648 5.27075 0
M  V30 13540 H 1274.09 2.26137 2.02721 0
M  V30 13541 H 1271.67 1.15523 0.947354 0
M  V30 13542 H 1273.56 0.956367 4.10404 0
M  V30 13543 H 1272.23 0.135735 3.23415 0
M  V30 13544 H 1271.14 2.42129 2.85175 0
M  V30 13545 H 1272.47 3.17063 3.76473 0
M  V30 13546 N 1274.12 -1.03182 1.19127 0
M  V30 13547 C 1275.03 -2.14875 0.94159 0
M  V30 13548 C 1276.05 -1.73727 -0.0973872 0
M  V30 13549 O 1277.22 -2.01214 0.0865775 0
M  V30 13550 C 1274.29 -3.43356 0.480366 0
M  V30 13551 C 1273.35 -3.98835 1.58838 0
M  V30 13552 C 1272.58 -5.21183 1.14907 0
M  V30 13553 O 1272.81 -5.70399 0.0114141 0
M  V30 13554 O 1271.74 -5.69423 1.95042 0
M  V30 13555 H 1275.57 -2.38799 1.8764 0
M  V30 13556 H 1273.15 -1.13299 0.973841 0
M  V30 13557 H 1275.03 -4.20763 0.231658 0
M  V30 13558 H 1273.71 -3.20884 -0.426041 0
M  V30 13559 H 1272.62 -3.22776 1.8912 0
M  V30 13560 H 1273.95 -4.25665 2.47123 0
M  V30 13561 N 1275.6 -0.99472 -1.22242 0
M  V30 13562 C 1276.53 -0.566499 -2.26524 0
M  V30 13563 C 1277.51 0.407541 -1.65146 0
M  V30 13564 O 1278.7 0.297777 -1.91903 0
M  V30 13565 C 1275.83 0.11786 -3.471 0
M  V30 13566 C 1274.78 -0.774908 -4.20927 0
M  V30 13567 C 1274.11 0.0424687 -5.34683 0
M  V30 13568 C 1275.41 -2.07263 -4.79416 0
M  V30 13569 H 1277.1 -1.43818 -2.62596 0
M  V30 13570 H 1274.65 -0.692971 -1.2623 0
M  V30 13571 H 1276.6 0.428842 -4.19212 0
M  V30 13572 H 1275.32 1.0241 -3.10129 0
M  V30 13573 H 1273.98 -1.06956 -3.50651 0
M  V30 13574 H 1273.63 0.949677 -4.93954 0
M  V30 13575 H 1273.33 -0.551867 -5.85003 0
M  V30 13576 H 1274.85 0.347504 -6.0961 0
M  V30 13577 H 1276.27 -1.82548 -5.4346 0
M  V30 13578 H 1274.67 -2.61594 -5.40082 0
M  V30 13579 H 1275.74 -2.75017 -3.99366 0
M  V30 13580 N 1277.08 1.37613 -0.768148 0
M  V30 13581 C 1278.49 1.82437 -0.396703 0
M  V30 13582 C 1278.84 1.64019 1.07668 0
M  V30 13583 O 1277.97 1.14932 1.83356 0
M  V30 13584 C 1278.56 3.31207 -0.713265 0
M  V30 13585 C 1277.12 3.74323 -0.39492 0
M  V30 13586 C 1276.27 2.60191 -0.958962 0
M  V30 13587 H 1279.22 1.26135 -0.963099 0
M  V30 13588 H 1279.24 3.805 0.00337228 0
M  V30 13589 H 1278.75 3.4458 -1.78567 0
M  V30 13590 H 1276.85 3.66521 0.670313 0
M  V30 13591 H 1276.96 4.70558 -0.900653 0
M  V30 13592 H 1275.33 2.51797 -0.383423 0
M  V30 13593 H 1276.11 2.76358 -2.03669 0
M  V30 13594 N 1278.56 0.518393 1.4883 0
M  V30 13595 C 1279.8 -0.0199348 2.0279 0
M  V30 13596 C 1280.14 -1.35026 1.39576 0
M  V30 13597 O 1279.41 -1.86927 0.537449 0
M  V30 13598 C 1279.69 -0.154184 3.5977 0
M  V30 13599 C 1279.55 1.2005 4.33484 0
M  V30 13600 C 1280.87 -0.886547 4.31078 0
M  V30 13601 H 1277.98 -0.00577061 0.736977 0
M  V30 13602 H 1280.63 0.673178 1.77675 0
M  V30 13603 H 1278.78 -0.74451 3.81299 0
M  V30 13604 H 1280.45 1.83104 4.23404 0
M  V30 13605 H 1278.69 1.78537 3.95357 0
M  V30 13606 H 1279.36 1.05968 5.41733 0
M  V30 13607 H 1281.84 -0.385711 4.14308 0
M  V30 13608 H 1280.71 -0.949355 5.40628 0
M  V30 13609 H 1280.98 -1.93424 3.97542 0
M  V30 13610 N 1280.03 -1.55556 0.252993 0
M  V30 13611 C 1281.31 -1.91022 -0.420696 0
M  V30 13612 C 1281.69 -1.17452 -1.75409 0
M  V30 13613 O 1281.04 -0.294 -2.26601 0
M  V30 13614 C 1281.25 -3.441 -0.582787 0
M  V30 13615 C 1282.6 -4.15468 -0.875873 0
M  V30 13616 O 1283.62 -3.49872 -0.668425 0
M  V30 13617 O 1282.48 -5.31508 -1.27128 0
M  V30 13618 H 1279.57 -0.7953 -0.226776 0
M  V30 13619 H 1282.12 -1.67072 0.297511 0
M  V30 13620 H 1280.89 -3.89673 0.356474 0
M  V30 13621 H 1280.52 -3.73933 -1.3513 0
M  V30 13622 N 1281.51 0.0200419 -1.57587 0
M  V30 13623 C 1282.76 0.708115 -1.88861 0
M  V30 13624 C 1283.07 1.76036 -0.852693 0
M  V30 13625 O 1284.28 2.50165 -1.05497 0
M  V30 13626 C 1282.74 1.31057 -3.3519 0
M  V30 13627 C 1282.34 0.294202 -4.47033 0
M  V30 13628 C 1284.09 1.97799 -3.756 0
M  V30 13629 C 1282 0.905508 -5.84427 0
M  V30 13630 H 1280.93 0.268236 -0.704674 0
M  V30 13631 H 1283.58 -0.0372162 -1.83462 0
M  V30 13632 H 1281.96 2.1059 -3.35362 0
M  V30 13633 H 1283.13 -0.475081 -4.58344 0
M  V30 13634 H 1281.45 -0.271644 -4.15513 0
M  V30 13635 H 1284.04 2.44404 -4.75574 0
M  V30 13636 H 1284.39 2.80004 -3.08064 0
M  V30 13637 H 1284.92 1.25028 -3.77641 0
M  V30 13638 H 1281.66 0.122685 -6.55385 0
M  V30 13639 H 1281.18 1.64442 -5.76818 0
M  V30 13640 H 1282.86 1.41016 -6.31446 0
M  V30 13641 N 1282.99 1.54862 0.292472 0
M  V30 13642 C 1284.24 1.73756 1.02429 0
M  V30 13643 C 1284.55 0.535164 1.88137 0
M  V30 13644 O 1285.76 0.606092 2.64648 0
M  V30 13645 C 1284.21 3.0745 1.8709 0
M  V30 13646 C 1283.82 4.35195 1.06343 0
M  V30 13647 C 1285.57 3.357 2.59819 0
M  V30 13648 C 1283.47 5.59936 1.9033 0
M  V30 13649 H 1282.4 0.647617 0.386145 0
M  V30 13650 H 1285.05 1.81338 0.28086 0
M  V30 13651 H 1283.44 2.93855 2.65453 0
M  V30 13652 H 1284.61 4.5965 0.325335 0
M  V30 13653 H 1282.93 4.13944 0.451574 0
M  V30 13654 H 1285.52 4.26099 3.23023 0
M  V30 13655 H 1285.87 2.54956 3.29094 0
M  V30 13656 H 1286.4 3.50304 1.88499 0
M  V30 13657 H 1283.14 6.43372 1.25509 0
M  V30 13658 H 1282.66 5.39654 2.61789 0
M  V30 13659 H 1284.34 5.97512 2.48171 0
M  V30 13660 N 1284.47 -0.556076 1.47464 0
M  V30 13661 C 1285.4 -1.67275 1.62915 0
M  V30 13662 C 1286.38 -1.63229 0.478562 0
M  V30 13663 O 1287.56 -1.80833 0.708032 0
M  V30 13664 C 1284.69 -3.05911 1.64426 0
M  V30 13665 C 1283.65 -3.24804 2.78722 0
M  V30 13666 C 1282.97 -4.64238 2.65307 0
M  V30 13667 C 1284.27 -3.10071 4.20302 0
M  V30 13668 H 1285.97 -1.54601 2.56396 0
M  V30 13669 H 1283.51 -0.742337 1.23391 0
M  V30 13670 H 1285.47 -3.83878 1.73826 0
M  V30 13671 H 1284.19 -3.19547 0.675053 0
M  V30 13672 H 1282.85 -2.49246 2.68835 0
M  V30 13673 H 1282.5 -4.74675 1.66412 0
M  V30 13674 H 1282.2 -4.77828 3.41986 0
M  V30 13675 H 1283.72 -5.44339 2.76637 0
M  V30 13676 H 1285.14 -3.77855 4.3116 0
M  V30 13677 H 1283.53 -3.3517 4.97776 0
M  V30 13678 H 1284.6 -2.06803 4.38589 0
M  V30 13679 N 1285.95 -1.35615 -0.802897 0
M  V30 13680 C 1286.91 -1.28705 -1.89651 0
M  V30 13681 C 1287.91 -0.197681 -1.5958 0
M  V30 13682 O 1289.1 -0.451618 -1.68244 0
M  V30 13683 C 1286.23 -0.991941 -3.26149 0
M  V30 13684 H 1287.43 -2.25951 -1.97196 0
M  V30 13685 H 1284.98 -1.20192 -0.999179 0
M  V30 13686 H 1285.71 -0.0235051 -3.24291 0
M  V30 13687 H 1285.5 -1.78013 -3.49362 0
M  V30 13688 H 1286.99 -0.969298 -4.06195 0
M  V30 13689 N 1287.43 1.02549 -1.19673 0
M  V30 13690 C 1288.65 1.8016 -1.02748 0
M  V30 13691 C 1289.08 1.83372 0.419105 0
M  V30 13692 O 1288.43 1.26222 1.30144 0
M  V30 13693 C 1288.48 3.22907 -1.60509 0
M  V30 13694 O 1287.59 4.03823 -0.836702 0
M  V30 13695 H 1286.93 0.556027 -0.362946 0
M  V30 13696 H 1289.46 1.29047 -1.5877 0
M  V30 13697 H 1289.47 3.73646 -1.63868 0
M  V30 13698 H 1288.14 3.19885 -2.65794 0
M  V30 13699 H 1286.72 3.6245 -0.876626 0
M  V30 13700 N 1288.9 1.00119 1.21713 0
M  V30 13701 C 1290.15 0.682733 1.90962 0
M  V30 13702 C 1290.48 -0.784131 1.77665 0
M  V30 13703 O 1289.76 -1.56799 1.15084 0
M  V30 13704 C 1290.04 1.09975 3.42896 0
M  V30 13705 C 1289.89 2.62578 3.65202 0
M  V30 13706 C 1291.21 0.659247 4.35134 0
M  V30 13707 H 1288.33 0.249501 0.693483 0
M  V30 13708 H 1290.97 1.24619 1.43423 0
M  V30 13709 H 1289.12 0.620334 3.83515 0
M  V30 13710 H 1290.8 3.18254 3.33934 0
M  V30 13711 H 1289.04 3.04268 3.09198 0
M  V30 13712 H 1289.71 2.86809 4.7164 0
M  V30 13713 H 1292.19 1.07116 4.02076 0
M  V30 13714 H 1291.06 0.979241 5.40095 0
M  V30 13715 H 1291.32 -0.439777 4.39907 0
M  V30 13716 N 1290.38 -1.37203 0.775435 0
M  V30 13717 C 1291.63 -1.99207 0.340756 0
M  V30 13718 C 1291.95 -1.61861 -1.08747 0
M  V30 13719 O 1291.22 -0.88583 -1.74728 0
M  V30 13720 H 1289.8 -0.736803 0.123004 0
M  V30 13721 H 1292.46 -1.67625 0.994379 0
M  V30 13722 H 1291.56 -3.09243 0.421346 0
M  V30 13723 O 1291.9 -0.667683 -1.47052 0
M  V30 13724 H 1292.59 -0.197643 -1.92689 0
M  V30 END ATOM
M  V30 BEGIN BOND
M  V30 END BOND
M  V30 END CTAB
M  END
$$$$
