drugbank_target|Q9Y6L7 Tolloid-like protein 2 (DB01989)
 OpenBabel12092120533D

  0  0  0     0  0            999 V3000
M  V30 BEGIN CTAB
M  V30 COUNTS 15521 15728 0 0 0
M  V30 BEGIN ATOM
M  V30 1 H -0.908 1.98254 -0.117106 0
M  V30 2 N 0 1.576 0 0
M  V30 3 C 0.933 2.03868 1.02534 0
M  V30 4 C 1.911 0.928543 1.3348 0
M  V30 5 O 3.095 1.19667 1.45644 0
M  V30 6 C 0.222 2.43627 2.35294 0
M  V30 7 C -0.732 3.65373 2.2001 0
M  V30 8 S 0.101 5.13292 1.52614 0
M  V30 9 C 1.257 5.56322 2.86805 0
M  V30 10 H 1.49 2.90518 0.631377 0
M  V30 11 H -0.977 1.52953 0.210867 0
M  V30 12 H 0.981 2.67203 3.11629 0
M  V30 13 H -0.358 1.57376 2.7183 0
M  V30 14 H -1.165 3.90944 3.18086 0
M  V30 15 H -1.563 3.418 1.51819 0
M  V30 16 H 0.729 5.58782 3.83104 0
M  V30 17 H 1.672 6.56266 2.65933 0
M  V30 18 H 2.08 4.83886 2.90714 0
M  V30 19 N 1.4781 -0.272755 1.55222 0
M  V30 20 C 2.8891 -0.84378 1.66545 0
M  V30 21 C 3.2401 -1.87035 0.592641 0
M  V30 22 O 2.3651 -2.14761 -0.265818 0
M  V30 23 C 2.9601 -1.53723 3.01918 0
M  V30 24 C 1.5191 -2.05628 3.15268 0
M  V30 25 C 0.6661 -0.898424 2.62343 0
M  V30 26 H 3.6171 -0.0490998 1.58624 0
M  V30 27 H 3.6381 -2.40421 2.94921 0
M  V30 28 H 3.1501 -0.78983 3.79978 0
M  V30 29 H 1.2511 -2.83329 2.41983 0
M  V30 30 H 1.3641 -2.27142 4.21833 0
M  V30 31 H -0.2719 -1.29186 2.19506 0
M  V30 32 H 0.5111 -0.164528 3.42906 0
M  V30 33 N 2.9562 -1.48159 -0.537278 0
M  V30 34 C 4.3722 -1.34118 -0.865129 0
M  V30 35 C 4.5722 -0.346678 -1.98495 0
M  V30 36 O 3.6282 0.234715 -2.51407 0
M  V30 37 C 4.9412 -2.73963 -1.23954 0
M  V30 38 C 6.4892 -2.82397 -1.34984 0
M  V30 39 C 6.9642 -4.22928 -1.75772 0
M  V30 40 N 8.4552 -4.25566 -1.82887 0
M  V30 41 C 9.1902 -5.31235 -2.15817 0
M  V30 42 N 8.6862 -6.47189 -2.47222 0
M  V30 43 N 10.4792 -5.18624 -2.16761 0
M  V30 44 H 2.6302 -2.1144 0.201715 0
M  V30 45 H 4.8932 -0.947598 0.0275949 0
M  V30 46 H 4.5992 -3.48264 -0.490381 0
M  V30 47 H 4.4732 -3.0702 -2.19132 0
M  V30 48 H 6.8602 -2.08356 -2.08978 0
M  V30 49 H 6.9412 -2.5297 -0.379448 0
M  V30 50 H 6.5852 -4.97482 -1.02341 0
M  V30 51 H 6.5152 -4.49794 -2.73848 0
M  V30 52 H 9.0062 -3.41924 -1.60924 0
M  V30 53 H 9.3192 -7.23564 -2.71433 0
M  V30 54 H 7.6642 -6.50476 -2.44757 0
M  V30 55 H 10.8552 -4.27056 -1.91679 0
M  V30 56 H 11.0282 -6.01078 -2.42093 0
M  V30 57 N 4.4343 0.785586 -1.36625 0
M  V30 58 C 5.3973 1.87999 -1.31107 0
M  V30 59 C 6.3973 1.59316 -0.217959 0
M  V30 60 O 7.5873 1.67656 -0.472977 0
M  V30 61 C 4.7193 3.24861 -1.03334 0
M  V30 62 H 5.9123 1.94307 -2.2844 0
M  V30 63 H 3.4653 0.983813 -1.21453 0
M  V30 64 H 4.2003 3.24235 -0.0647432 0
M  V30 65 H 3.9853 3.4707 -1.82441 0
M  V30 66 H 5.4753 4.04929 -1.02088 0
M  V30 67 N 5.9124 1.20967 1.01018 0
M  V30 68 C 7.1404 1.04956 1.78303 0
M  V30 69 C 7.5554 -0.400915 1.84494 0
M  V30 70 O 6.9124 -1.27826 1.30257 0
M  V30 71 C 6.9634 1.63403 3.22462 0
M  V30 72 O 6.6844 3.02775 3.16637 0
M  V30 73 C 8.1854 1.52432 4.16268 0
M  V30 74 H 5.4054 0.368858 0.560522 0
M  V30 75 H 7.9494 1.60193 1.27116 0
M  V30 76 H 6.1044 1.1227 3.70775 0
M  V30 77 H 6.5184 3.30626 4.07169 0
M  V30 78 H 7.9924 1.98078 5.15237 0
M  V30 79 H 8.4694 0.477875 4.36592 0
M  V30 80 H 9.0754 2.02787 3.73841 0
M  V30 81 N 7.3905 -1.2043 1.01659 0
M  V30 82 C 8.3535 -2.21433 0.591616 0
M  V30 83 C 9.3535 -1.57203 -0.338226 0
M  V30 84 O 10.5435 -1.73737 -0.126918 0
M  V30 85 C 7.6755 -3.40628 -0.136058 0
M  V30 86 H 8.8685 -2.60545 1.48514 0
M  V30 87 H 6.4215 -1.33893 0.806379 0
M  V30 88 H 7.1565 -3.07019 -1.04449 0
M  V30 89 H 6.9415 -3.88475 0.531917 0
M  V30 90 H 8.4315 -4.15475 -0.420735 0
M  V30 91 N 8.8686 -0.792821 -1.36206 0
M  V30 92 C 9.7986 -0.207853 -2.32573 0
M  V30 93 C 10.7796 0.659055 -1.56813 0
M  V30 94 O 11.9646 0.592176 -1.84951 0
M  V30 95 C 9.0946 0.655449 -3.41059 0
M  V30 96 C 8.0486 -0.111842 -4.27854 0
M  V30 97 C 7.3746 0.872274 -5.27537 0
M  V30 98 C 8.6746 -1.30299 -5.05786 0
M  V30 99 H 10.3686 -1.01294 -2.81744 0
M  V30 100 H 7.9146 -0.48854 -1.3546 0
M  V30 101 H 9.8676 1.07464 -4.07467 0
M  V30 102 H 8.5916 1.49328 -2.90463 0
M  V30 103 H 7.2506 -0.512053 -3.63006 0
M  V30 104 H 6.8986 1.70523 -4.73214 0
M  V30 105 H 6.5986 0.363291 -5.86476 0
M  V30 106 H 8.1226 1.28996 -5.96818 0
M  V30 107 H 9.5366 -0.959379 -5.65216 0
M  V30 108 H 7.9336 -1.7455 -5.74154 0
M  V30 109 H 9.0036 -2.09663 -4.37229 0
M  V30 110 N 10.3467 1.47872 -0.545128 0
M  V30 111 C 11.5947 2.02093 -0.016553 0
M  V30 112 C 11.9157 1.42305 1.3332 0
M  V30 113 O 11.1857 0.593853 1.86682 0
M  V30 114 H 9.7657 0.746993 -0.00313038 0
M  V30 115 H 12.4277 1.81414 -0.712397 0
M  V30 116 H 11.5237 3.11996 0.0805422 0
M  V30 117 N 11.8248 0.280983 1.55075 0
M  V30 118 C 12.7878 -0.590896 2.21452 0
M  V30 119 C 13.7878 -1.07682 1.19421 0
M  V30 120 O 14.9778 -0.97605 1.44288 0
M  V30 121 C 12.1098 -1.81587 2.88511 0
M  V30 122 H 13.3028 -0.0112554 2.99898 0
M  V30 123 H 10.8558 0.0316438 1.56268 0
M  V30 124 H 11.5908 -2.43587 2.14093 0
M  V30 125 H 11.3758 -1.4753 3.63287 0
M  V30 126 H 12.8658 -2.43575 3.39206 0
M  V30 127 N 13.3029 -1.57598 0.00835791 0
M  V30 128 C 14.2329 -2.1198 -0.979113 0
M  V30 129 C 15.2139 -1.03091 -1.35301 0
M  V30 130 O 16.3989 -1.30818 -1.43528 0
M  V30 131 C 13.5289 -2.62995 -2.26828 0
M  V30 132 C 12.4829 -3.76485 -2.03576 0
M  V30 133 C 11.8089 -4.13846 -3.38579 0
M  V30 134 C 13.1089 -5.0342 -1.39161 0
M  V30 135 H 14.8029 -2.94738 -0.526281 0
M  V30 136 H 12.3489 -1.41783 -0.251704 0
M  V30 137 H 14.3019 -2.99669 -2.96271 0
M  V30 138 H 13.0259 -1.7737 -2.7424 0
M  V30 139 H 11.6849 -3.40217 -1.36557 0
M  V30 140 H 11.3329 -3.25232 -3.83709 0
M  V30 141 H 11.0329 -4.90312 -3.23834 0
M  V30 142 H 12.5569 -4.53086 -4.09323 0
M  V30 143 H 13.9709 -5.37812 -1.98573 0
M  V30 144 H 12.3679 -5.84746 -1.34878 0
M  V30 145 H 13.4379 -4.83548 -0.361868 0
M  V30 146 N 14.781 0.264519 -1.55364 0
M  V30 147 C 16.027 0.99646 -1.76631 0
M  V30 148 C 16.36 1.85632 -0.570478 0
M  V30 149 O 15.635 1.89647 0.43175 0
M  V30 150 C 15.918 1.87187 -3.07625 0
M  V30 151 C 15.771 1.04138 -4.37579 0
M  V30 152 C 17.09 2.85749 -3.34717 0
M  V30 153 H 14.209 0.360841 -0.642622 0
M  V30 154 H 16.851 0.268218 -1.88097 0
M  V30 155 H 15.001 2.49279 -2.9798 0
M  V30 156 H 16.673 0.440517 -4.59192 0
M  V30 157 H 14.916 0.345115 -4.32425 0
M  V30 158 H 15.587 1.68729 -5.2558 0
M  V30 159 H 18.063 2.33793 -3.4421 0
M  V30 160 H 16.939 3.44136 -4.27623 0
M  V30 161 H 17.2 3.61311 -2.54768 0
M  V30 162 N 16.2591 1.48442 0.529413 0
M  V30 163 C 17.4841 1.60406 1.31471 0
M  V30 164 C 17.9091 0.264738 1.86228 0
M  V30 165 O 17.2671 -0.763668 1.64432 0
M  V30 166 C 17.3151 2.65419 2.44101 0
M  V30 167 O 16.4191 2.22618 3.47153 0
M  V30 168 H 15.7601 0.537863 0.389357 0
M  V30 169 H 18.2901 1.94432 0.636965 0
M  V30 170 H 18.3001 2.86709 2.90279 0
M  V30 171 H 16.9751 3.62652 2.03608 0
M  V30 172 H 15.5521 2.11543 3.0709 0
M  V30 173 N 17.7372 -0.778329 1.37039 0
M  V30 174 C 18.6672 -1.90546 1.34962 0
M  V30 175 C 19.6482 -1.68681 0.219274 0
M  V30 176 O 20.8332 -1.89634 0.418624 0
M  V30 177 C 17.9632 -3.27734 1.14925 0
M  V30 178 C 16.9172 -3.64147 2.24902 0
M  V30 179 C 16.2432 -4.99806 1.89996 0
M  V30 180 C 17.5432 -3.71579 3.67051 0
M  V30 181 H 19.2372 -1.92541 2.29277 0
M  V30 182 H 16.7832 -0.924948 1.10366 0
M  V30 183 H 18.7362 -4.06215 1.12104 0
M  V30 184 H 17.4602 -3.26154 0.170631 0
M  V30 185 H 16.1192 -2.8797 2.26868 0
M  V30 186 H 15.7672 -4.94759 0.906796 0
M  V30 187 H 15.4672 -5.25139 2.63634 0
M  V30 188 H 16.9912 -5.80694 1.88749 0
M  V30 189 H 18.4052 -4.40227 3.67251 0
M  V30 190 H 16.8022 -4.08405 4.39688 0
M  V30 191 H 17.8722 -2.72404 4.01154 0
M  V30 192 N 19.2153 -1.21501 -1.00376 0
M  V30 193 C 20.1453 -0.999478 -2.11028 0
M  V30 194 C 21.1263 0.0759671 -1.6993 0
M  V30 195 O 22.3113 -0.0841106 -1.94018 0
M  V30 196 C 19.4413 -0.564709 -3.42678 0
M  V30 197 C 18.3953 -1.58486 -3.97576 0
M  V30 198 C 17.7213 -1.00628 -5.25146 0
M  V30 199 C 19.0213 -2.97204 -4.29496 0
M  V30 200 H 20.7153 -1.92495 -2.29317 0
M  V30 201 H 18.2613 -0.92693 -1.102 0
M  V30 202 H 20.2143 -0.401091 -4.19487 0
M  V30 203 H 18.9383 0.396411 -3.24185 0
M  V30 204 H 17.5973 -1.73606 -3.22888 0
M  V30 205 H 17.2453 -0.0368439 -5.02987 0
M  V30 206 H 16.9453 -1.68771 -5.62841 0
M  V30 207 H 18.4693 -0.854015 -6.04598 0
M  V30 208 H 19.8833 -2.8552 -4.97143 0
M  V30 209 H 18.2803 -3.62372 -4.78338 0
M  V30 210 H 19.3503 -3.47956 -3.3772 0
M  V30 211 N 20.6934 1.19889 -1.02296 0
M  V30 212 C 21.6234 2.25141 -0.619174 0
M  V30 213 C 22.6044 1.66051 0.368915 0
M  V30 214 O 23.7894 1.92546 0.252941 0
M  V30 215 C 20.9194 3.4728 0.0368783 0
M  V30 216 C 19.8734 4.19005 -0.872865 0
M  V30 217 C 19.1994 5.34637 -0.0822402 0
M  V30 218 C 20.4994 4.74452 -2.18387 0
M  V30 219 H 22.1934 2.59171 -1.49903 0
M  V30 220 H 19.7394 1.24579 -0.722222 0
M  V30 221 H 21.6924 4.20098 0.330958 0
M  V30 222 H 20.4164 3.12433 0.95149 0
M  V30 223 H 19.0754 3.48061 -1.15105 0
M  V30 224 H 18.7234 4.96034 0.83422 0
M  V30 225 H 18.4234 5.83557 -0.688149 0
M  V30 226 H 19.9474 6.10255 0.205238 0
M  V30 227 H 21.3614 5.39055 -1.95172 0
M  V30 228 H 19.7584 5.33834 -2.74119 0
M  V30 229 H 20.8284 3.92844 -2.84257 0
M  V30 230 N 22.1715 0.800033 1.35784 0
M  V30 231 C 23.1015 0.220184 2.3246 0
M  V30 232 C 24.0825 -0.65073 1.57161 0
M  V30 233 O 25.2675 -0.582359 1.85263 0
M  V30 234 C 22.3975 -0.637353 3.41402 0
M  V30 235 C 21.3515 0.134531 4.27789 0
M  V30 236 C 20.6775 -0.844285 5.27992 0
M  V30 237 C 21.9775 1.32979 5.05088 0
M  V30 238 H 23.6715 1.02787 2.81203 0
M  V30 239 H 21.2175 0.495717 1.35199 0
M  V30 240 H 23.1705 -1.05302 4.08031 0
M  V30 241 H 21.8945 -1.47785 2.91251 0
M  V30 242 H 20.5535 0.531296 3.6273 0
M  V30 243 H 20.2015 -1.68011 4.74111 0
M  V30 244 H 19.9015 -0.332184 5.8666 0
M  V30 245 H 21.4255 -1.2583 5.97494 0
M  V30 246 H 22.8395 0.98934 5.64699 0
M  V30 247 H 21.2365 1.77593 5.7322 0
M  V30 248 H 22.3065 2.11978 4.36111 0
M  V30 249 N 23.6496 -1.47581 0.552962 0
M  V30 250 C 24.5796 -2.32762 -0.185451 0
M  V30 251 C 25.5606 -1.43527 -0.912905 0
M  V30 252 O 26.7456 -1.72388 -0.894201 0
M  V30 253 C 23.8756 -3.25219 -1.21859 0
M  V30 254 C 22.8296 -4.23661 -0.607864 0
M  V30 255 C 22.1556 -5.05413 -1.74533 0
M  V30 256 C 23.4556 -5.20481 0.435582 0
M  V30 257 H 25.1496 -2.94749 0.525684 0
M  V30 258 H 22.6956 -1.41738 0.254251 0
M  V30 259 H 24.6486 -3.8365 -1.7433 0
M  V30 260 H 23.3726 -2.61279 -1.95961 0
M  V30 261 H 22.0316 -3.66451 -0.104489 0
M  V30 262 H 21.6796 -4.3788 -2.47529 0
M  V30 263 H 21.3796 -5.72059 -1.34249 0
M  V30 264 H 22.9036 -5.66701 -2.27338 0
M  V30 265 H 24.3176 -5.733 -0.00290157 0
M  V30 266 H 22.7146 -5.95305 0.757067 0
M  V30 267 H 23.7846 -4.66217 1.33303 0
M  V30 268 N 25.1277 -0.289203 -1.54924 0
M  V30 269 C 26.5387 0.205791 -1.85562 0
M  V30 270 C 26.8897 1.54351 -1.2112 0
M  V30 271 O 26.0147 2.10435 -0.504601 0
M  V30 272 C 26.6097 0.380177 -3.3666 0
M  V30 273 C 25.1687 0.819395 -3.67373 0
M  V30 274 C 24.3157 -0.079159 -2.77187 0
M  V30 275 H 27.2667 -0.510577 -1.50262 0
M  V30 276 H 27.2877 1.21659 -3.60526 0
M  V30 277 H 26.7997 -0.593589 -3.83534 0
M  V30 278 H 24.9007 1.80413 -3.26009 0
M  V30 279 H 25.0137 0.646957 -4.74712 0
M  V30 280 H 23.3777 0.439565 -2.50878 0
M  V30 281 H 24.1607 -1.04906 -3.26878 0
M  V30 282 N 26.6058 1.57591 -0.0167156 0
M  V30 283 C 27.5358 2.12496 0.967858 0
M  V30 284 C 28.5168 1.03807 1.34752 0
M  V30 285 O 29.7018 1.31577 1.42833 0
M  V30 286 C 26.8318 2.64194 2.25431 0
M  V30 287 C 25.7858 3.77559 2.01576 0
M  V30 288 C 25.1118 4.15636 3.36379 0
M  V30 289 C 26.4118 5.04151 1.36489 0
M  V30 290 H 28.1058 2.95013 0.510643 0
M  V30 291 H 25.6518 1.41915 0.244181 0
M  V30 292 H 27.6048 3.01236 2.94678 0
M  V30 293 H 26.3288 1.78821 2.73296 0
M  V30 294 H 24.9878 3.40937 1.34751 0
M  V30 295 H 24.6358 3.27263 3.81979 0
M  V30 296 H 24.3358 4.92022 3.21229 0
M  V30 297 H 25.8598 4.5525 4.06915 0
M  V30 298 H 27.2738 5.38857 1.95718 0
M  V30 299 H 25.6708 5.85453 1.31776 0
M  V30 300 H 26.7408 4.83733 0.336219 0
M  V30 301 N 28.0839 -0.256276 1.55502 0
M  V30 302 C 29.4949 -0.826068 1.67431 0
M  V30 303 C 29.8459 -1.86396 0.612446 0
M  V30 304 O 28.9709 -2.15031 -0.243025 0
M  V30 305 C 29.5659 -1.50512 3.03532 0
M  V30 306 C 28.1249 -2.02273 3.17431 0
M  V30 307 C 27.2719 -0.870548 2.63281 0
M  V30 308 H 30.2229 -0.0322728 1.58667 0
M  V30 309 H 30.2439 -2.37279 2.97454 0
M  V30 310 H 29.7559 -0.749484 3.80794 0
M  V30 311 H 27.8569 -2.80746 2.44974 0
M  V30 312 H 27.9699 -2.22655 4.24219 0
M  V30 313 H 26.3339 -1.26851 2.20864 0
M  V30 314 H 27.1169 -0.128149 3.43061 0
M  V30 315 N 29.562 -1.4872 -0.521534 0
M  V30 316 C 30.978 -1.35028 -0.850855 0
M  V30 317 C 31.178 -0.367712 -1.98116 0
M  V30 318 O 30.234 0.208037 -2.51642 0
M  V30 319 C 31.547 -2.75263 -1.21041 0
M  V30 320 C 33.095 -2.83813 -1.31981 0
M  V30 321 C 33.57 -4.24769 -1.71276 0
M  V30 322 N 35.061 -4.27482 -1.78363 0
M  V30 323 C 35.796 -5.33494 -2.1017 0
M  V30 324 N 35.292 -6.49775 -2.40343 0
M  V30 325 N 37.085 -5.20894 -2.11248 0
M  V30 326 H 29.236 -2.11214 0.22413 0
M  V30 327 H 31.499 -0.947252 0.0376439 0
M  V30 328 H 31.205 -3.48765 -0.453415 0
M  V30 329 H 31.079 -3.09327 -2.15863 0
M  V30 330 H 33.466 -2.10561 -2.06756 0
M  V30 331 H 33.547 -2.53358 -0.352596 0
M  V30 332 H 33.191 -4.9854 -0.970588 0
M  V30 333 H 33.121 -4.52673 -2.69062 0
M  V30 334 H 35.612 -3.43611 -1.57288 0
M  V30 335 H 35.925 -7.26402 -2.63743 0
M  V30 336 H 34.27 -6.53035 -2.37844 0
M  V30 337 H 37.461 -4.29065 -1.87139 0
M  V30 338 H 37.634 -6.03612 -2.35704 0
M  V30 339 N 31.0401 0.771051 -1.3745 0
M  V30 340 C 32.2881 1.52661 -1.32435 0
M  V30 341 C 32.6091 1.9479 0.0905024 0
M  V30 342 O 31.8791 1.66348 1.03466 0
M  V30 343 H 30.4591 0.566218 -0.487244 0
M  V30 344 H 33.1211 0.917636 -1.71946 0
M  V30 345 H 32.2171 2.42568 -1.96385 0
M  V30 346 N 32.5182 1.22032 0.997298 0
M  V30 347 C 33.4812 0.987909 2.06816 0
M  V30 348 C 34.4812 -0.0440084 1.6074 0
M  V30 349 O 35.6712 0.194053 1.73116 0
M  V30 350 C 32.8032 0.49132 3.37341 0
M  V30 351 H 33.9962 1.93803 2.28868 0
M  V30 352 H 31.5492 1.03838 1.16822 0
M  V30 353 H 32.2842 -0.463364 3.20973 0
M  V30 354 H 32.0692 1.23575 3.72118 0
M  V30 355 H 33.5592 0.348824 4.16141 0
M  V30 356 N 33.9963 -1.19345 1.0293 0
M  V30 357 C 35.2443 -1.88665 0.724574 0
M  V30 358 C 35.5653 -1.80036 -0.749144 0
M  V30 359 O 34.8353 -1.2111 -1.53978 0
M  V30 360 H 33.4153 -0.698406 0.265025 0
M  V30 361 H 36.0773 -1.44885 1.30362 0
M  V30 362 H 35.1733 -2.94987 1.01926 0
M  V30 363 N 35.4744 -0.807222 -1.35358 0
M  V30 364 C 36.7224 -0.387122 -1.98358 0
M  V30 365 C 37.0434 1.04942 -1.64354 0
M  V30 366 O 36.3134 1.72615 -0.926339 0
M  V30 367 H 34.8934 -0.140154 -0.733734 0
M  V30 368 H 37.5554 -1.0332 -1.6526 0
M  V30 369 H 36.6514 -0.493352 -3.08176 0
M  V30 370 N 36.9525 1.47285 -0.560781 0
M  V30 371 C 37.8825 2.32857 0.173105 0
M  V30 372 C 38.8635 1.44009 0.905281 0
M  V30 373 O 40.0485 1.7286 0.885046 0
M  V30 374 C 37.1785 3.25861 1.20133 0
M  V30 375 C 36.1325 4.23978 0.585388 0
M  V30 376 C 35.4585 5.06332 1.7185 0
M  V30 377 C 36.7585 5.20242 -0.463178 0
M  V30 378 H 38.4525 2.94466 -0.541307 0
M  V30 379 H 35.9985 1.41601 -0.261764 0
M  V30 380 H 37.9515 3.84569 1.72293 0
M  V30 381 H 36.6755 2.62315 1.94573 0
M  V30 382 H 35.3345 3.66501 0.085054 0
M  V30 383 H 34.9825 4.39186 2.45203 0
M  V30 384 H 34.6825 5.72762 1.31213 0
M  V30 385 H 36.2065 5.67899 2.24329 0
M  V30 386 H 37.6205 5.73293 -0.027502 0
M  V30 387 H 36.0175 5.94896 -0.788627 0
M  V30 388 H 37.0875 4.65504 -1.35773 0
M  V30 389 N 38.4306 0.297415 1.54768 0
M  V30 390 C 39.6786 -0.312295 1.99673 0
M  V30 391 C 39.9996 -1.54686 1.18732 0
M  V30 392 O 39.2696 -1.93854 0.282382 0
M  V30 393 H 37.8496 -0.118381 0.73756 0
M  V30 394 H 40.5116 0.407915 1.90583 0
M  V30 395 H 39.6076 -0.586813 3.06534 0
M  V30 396 N 39.9087 -1.5758 0.0250728 0
M  V30 397 C 40.8187 -2.1343 -0.973905 0
M  V30 398 C 41.8347 -1.08556 -1.35984 0
M  V30 399 O 43.0107 -1.40592 -1.44207 0
M  V30 400 C 40.0757 -2.64703 -2.23904 0
M  V30 401 C 39.1367 -3.84276 -1.91391 0
M  V30 402 C 38.3697 -4.33095 -3.11873 0
M  V30 403 O 38.5927 -3.81107 -4.24398 0
M  V30 404 O 37.5267 -5.24984 -2.94406 0
M  V30 405 H 41.3527 -2.99057 -0.529036 0
M  V30 406 H 38.9377 -1.48118 -0.195288 0
M  V30 407 H 40.8197 -2.97769 -2.98181 0
M  V30 408 H 39.4947 -1.82161 -2.6758 0
M  V30 409 H 38.4017 -3.56143 -1.14511 0
M  V30 410 H 39.7347 -4.67968 -1.52534 0
M  V30 411 N 41.3868 0.248026 -1.55636 0
M  V30 412 C 42.8028 0.596483 -1.48035 0
M  V30 413 C 43.0028 1.88386 -0.715039 0
M  V30 414 O 42.0588 2.51319 -0.243944 0
M  V30 415 C 43.3718 0.700258 -2.92433 0
M  V30 416 C 44.9198 0.792659 -3.02797 0
M  V30 417 C 45.3948 0.928005 -4.485 0
M  V30 418 N 46.8858 0.992903 -4.52433 0
M  V30 419 C 47.6208 1.11687 -5.62418 0
M  V30 420 N 47.1168 1.20645 -6.82214 0
M  V30 421 N 48.9098 1.14994 -5.50212 0
M  V30 422 H 41.0608 -0.597109 -2.03834 0
M  V30 423 H 43.3238 -0.205925 -0.925364 0
M  V30 424 H 43.0298 -0.175658 -3.51261 0
M  V30 425 H 42.9038 1.57255 -3.42857 0
M  V30 426 H 45.2908 1.65903 -2.4405 0
M  V30 427 H 45.3718 -0.104762 -2.55585 0
M  V30 428 H 45.0158 0.0661971 -5.07857 0
M  V30 429 H 44.9458 1.84045 -4.93391 0
M  V30 430 H 47.4368 0.935064 -3.66149 0
M  V30 431 H 47.7498 1.30008 -7.61786 0
M  V30 432 H 46.0948 1.17605 -6.84977 0
M  V30 433 H 49.2858 1.07643 -4.55555 0
M  V30 434 H 49.4588 1.24311 -6.35965 0
M  V30 435 N 42.8649 1.48995 0.513639 0
M  V30 436 C 44.2759 1.5119 1.09537 0
M  V30 437 C 44.6269 0.290906 1.94031 0
M  V30 438 O 43.7519 -0.60049 2.07902 0
M  V30 439 C 44.3469 2.73964 1.99322 0
M  V30 440 C 42.9059 2.78978 2.52682 0
M  V30 441 C 42.0529 2.44934 1.30009 0
M  V30 442 H 45.0039 1.55875 0.298125 0
M  V30 443 H 45.0249 2.53409 2.83838 0
M  V30 444 H 44.5369 3.62813 1.37799 0
M  V30 445 H 42.6379 1.94378 3.1788 0
M  V30 446 H 42.7509 3.8083 2.90698 0
M  V30 447 H 41.1149 1.9644 1.62122 0
M  V30 448 H 41.8979 3.36043 0.702131 0
M  V30 449 N 44.343 -0.763751 1.37857 0
M  V30 450 C 45.62 -1.51244 1.24035 0
M  V30 451 C 46 -2.10472 -0.162649 0
M  V30 452 O 45.348 -1.96206 -1.17112 0
M  V30 453 C 45.558 -2.58694 2.34261 0
M  V30 454 C 46.906 -3.25878 2.72193 0
M  V30 455 O 47.93 -2.68993 2.33497 0
M  V30 456 O 46.789 -4.2874 3.38887 0
M  V30 457 H 43.883 -0.670243 0.484462 0
M  V30 458 H 46.429 -0.800031 1.49658 0
M  V30 459 H 45.201 -2.13105 3.2818 0
M  V30 460 H 44.824 -3.37527 2.10146 0
M  V30 461 N 45.8211 -1.22559 -0.990812 0
M  V30 462 C 46.7841 -0.998863 -2.0629 0
M  V30 463 C 47.7841 0.0354834 -1.60761 0
M  V30 464 O 48.9741 -0.203231 -1.7301 0
M  V30 465 C 46.1061 -0.509203 -3.37076 0
M  V30 466 H 47.2991 -1.95014 -2.27837 0
M  V30 467 H 44.8521 -1.04456 -1.16269 0
M  V30 468 H 45.5871 0.446335 -3.21214 0
M  V30 469 H 45.3721 -1.25547 -3.71457 0
M  V30 470 H 46.8621 -0.370888 -4.1595 0
M  V30 471 N 47.2992 1.18797 -1.03562 0
M  V30 472 C 48.5272 1.92599 -0.755869 0
M  V30 473 C 48.9422 1.75886 0.686271 0
M  V30 474 O 48.2992 1.08517 1.46732 0
M  V30 475 C 48.3502 3.44159 -1.10619 0
M  V30 476 O 48.0712 3.60341 -2.4917 0
M  V30 477 C 49.5722 4.3507 -0.850214 0
M  V30 478 H 46.7922 0.611587 -0.276048 0
M  V30 479 H 49.3362 1.50742 -1.38192 0
M  V30 480 H 47.4912 3.83823 -0.525194 0
M  V30 481 H 47.9052 4.54128 -2.62427 0
M  V30 482 H 49.3792 5.39989 -1.14523 0
M  V30 483 H 49.8562 4.38673 0.215176 0
M  V30 484 H 50.4622 4.01097 -1.41426 0
M  V30 485 N 48.7773 0.814389 1.34928 0
M  V30 486 C 49.7403 0.235759 2.27984 0
M  V30 487 C 50.7403 -0.581412 1.49921 0
M  V30 488 O 51.9303 -0.398758 1.69575 0
M  V30 489 C 49.0623 -0.670433 3.34242 0
M  V30 490 H 50.2553 1.05659 2.80671 0
M  V30 491 H 47.8083 0.585614 1.44915 0
M  V30 492 H 48.5433 -1.51466 2.86755 0
M  V30 493 H 48.3283 -0.0860822 3.92005 0
M  V30 494 H 49.8183 -1.06935 4.03676 0
M  V30 495 N 50.2554 -1.46986 0.568584 0
M  V30 496 C 51.5324 -1.95592 -0.0174074 0
M  V30 497 C 51.9124 -1.51124 -1.47393 0
M  V30 498 O 51.2604 -0.755329 -2.15655 0
M  V30 499 C 51.4704 -3.48719 0.139913 0
M  V30 500 C 52.8184 -4.246 0.000426376 0
M  V30 501 O 53.8424 -3.56135 0.0680316 0
M  V30 502 O 52.7014 -5.46302 -0.146988 0
M  V30 503 H 49.7954 -0.82498 -0.0577599 0
M  V30 504 H 52.3414 -1.57335 0.635909 0
M  V30 505 H 51.1134 -3.73927 1.15301 0
M  V30 506 H 50.7364 -3.93771 -0.550491 0
M  V30 507 N 51.7335 -0.305618 -1.54608 0
M  V30 508 C 52.9635 0.304333 -2.04346 0
M  V30 509 C 53.3715 1.47715 -1.18224 0
M  V30 510 O 52.7145 1.82591 -0.201577 0
M  V30 511 C 52.7765 0.819031 -3.50046 0
M  V30 512 C 52.4405 -0.22912 -4.56425 0
M  V30 513 C 53.4375 -1.05914 -5.08997 0
M  V30 514 C 51.1225 -0.372148 -5.0092 0
M  V30 515 C 53.1165 -2.01809 -6.04609 0
M  V30 516 C 50.8035 -1.33454 -5.9635 0
M  V30 517 C 51.8015 -2.15599 -6.48079 0
M  V30 518 O 51.4895 -3.10205 -7.41639 0
M  V30 519 H 51.2215 0.0693996 -0.672428 0
M  V30 520 H 53.7755 -0.444548 -2.00532 0
M  V30 521 H 52.0055 1.61852 -3.51199 0
M  V30 522 H 53.6945 1.34537 -3.82955 0
M  V30 523 H 54.4605 -0.959538 -4.75413 0
M  V30 524 H 50.3395 0.257304 -4.60281 0
M  V30 525 H 53.8835 -2.65966 -6.44909 0
M  V30 526 H 49.7805 -1.43485 -6.29351 0
M  V30 527 H 50.5485 -3.05237 -7.59455 0
M  V30 528 N 53.2116 1.57565 -0.0334293 0
M  V30 529 C 54.4366 1.96689 0.657895 0
M  V30 530 C 54.8616 0.910057 1.64619 0
M  V30 531 O 54.2196 -0.128598 1.80843 0
M  V30 532 C 54.2676 3.34905 1.33683 0
M  V30 533 O 53.3716 3.31574 2.45219 0
M  V30 534 H 52.7126 0.641205 0.172489 0
M  V30 535 H 55.2426 2.04372 -0.0965621 0
M  V30 536 H 55.2526 3.71234 1.69262 0
M  V30 537 H 53.9276 4.11366 0.612411 0
M  V30 538 H 52.5046 3.06968 2.11719 0
M  V30 539 N 54.6897 -0.239769 1.55765 0
M  V30 540 C 55.5997 -1.31831 1.94056 0
M  V30 541 C 56.6157 -1.52275 0.841925 0
M  V30 542 O 57.7917 -1.65759 1.14394 0
M  V30 543 C 54.8567 -2.65156 2.23368 0
M  V30 544 C 53.9177 -2.53173 3.46701 0
M  V30 545 C 53.1507 -3.8014 3.74606 0
M  V30 546 O 53.3737 -4.82343 3.04469 0
M  V30 547 O 52.3077 -3.78344 4.68123 0
M  V30 548 H 56.1337 -1.02347 2.85935 0
M  V30 549 H 53.7187 -0.441123 1.42739 0
M  V30 550 H 55.6007 -3.43929 2.43497 0
M  V30 551 H 54.2757 -2.94358 1.34666 0
M  V30 552 H 53.1827 -1.72662 3.31871 0
M  V30 553 H 54.5157 -2.28915 4.35728 0
M  V30 554 N 56.1678 -1.49265 -0.50573 0
M  V30 555 C 57.0978 -1.68495 -1.61653 0
M  V30 556 C 58.0788 -0.53366 -1.61512 0
M  V30 557 O 59.2638 -0.76897 -1.78327 0
M  V30 558 C 56.3938 -1.74709 -3.00157 0
M  V30 559 C 55.3478 -2.89581 -3.15162 0
M  V30 560 C 54.6738 -2.80903 -4.5497 0
M  V30 561 C 55.9738 -4.30578 -2.95634 0
M  V30 562 H 57.6678 -2.61493 -1.45814 0
M  V30 563 H 55.2138 -1.25838 -0.70005 0
M  V30 564 H 57.1668 -1.86748 -3.77761 0
M  V30 565 H 55.8908 -0.783067 -3.17074 0
M  V30 566 H 54.5498 -2.77136 -2.39982 0
M  V30 567 H 54.1978 -1.82419 -4.68756 0
M  V30 568 H 53.8978 -3.57999 -4.65951 0
M  V30 569 H 55.4218 -2.94944 -5.34641 0
M  V30 570 H 56.8358 -4.4373 -3.63011 0
M  V30 571 H 55.2328 -5.0886 -3.18091 0
M  V30 572 H 56.3028 -4.45352 -1.91806 0
M  V30 573 N 57.6459 0.756429 -1.3826 0
M  V30 574 C 58.9229 1.50584 -1.24835 0
M  V30 575 C 59.3029 2.10556 0.151485 0
M  V30 576 O 58.6509 1.96825 1.1607 0
M  V30 577 C 58.8609 2.57448 -2.3563 0
M  V30 578 C 60.2089 3.24429 -2.73917 0
M  V30 579 O 61.2329 2.67751 -2.34921 0
M  V30 580 O 60.0919 4.26937 -3.41156 0
M  V30 581 H 57.1859 0.667664 -0.48801 0
M  V30 582 H 59.7319 0.792083 -1.5008 0
M  V30 583 H 58.5039 2.11362 -3.29305 0
M  V30 584 H 58.1269 3.36408 -2.11933 0
M  V30 585 N 59.124 1.23083 0.984299 0
M  V30 586 C 60.372 1.05848 1.72165 0
M  V30 587 C 60.693 -0.406049 1.90726 0
M  V30 588 O 59.963 -1.29139 1.47309 0
M  V30 589 H 58.543 0.388685 0.637913 0
M  V30 590 H 61.205 1.54736 1.18503 0
M  V30 591 H 60.301 1.54327 2.71274 0
M  V30 592 N 60.6021 -1.18246 1.0419 0
M  V30 593 C 61.5121 -2.25574 0.644476 0
M  V30 594 C 62.5281 -1.70845 -0.329826 0
M  V30 595 O 63.7041 -2.00554 -0.184443 0
M  V30 596 C 60.7691 -3.46697 0.014877 0
M  V30 597 C 59.8301 -4.16554 1.03834 0
M  V30 598 C 59.0631 -5.31894 0.438692 0
M  V30 599 O 59.2861 -5.65385 -0.754752 0
M  V30 600 O 58.2201 -5.90459 1.168 0
M  V30 601 H 62.0461 -2.61836 1.53869 0
M  V30 602 H 59.6311 -1.25352 0.812854 0
M  V30 603 H 61.5131 -4.20062 -0.335538 0
M  V30 604 H 60.1881 -3.12255 -0.853138 0
M  V30 605 H 59.0951 -3.45251 1.44057 0
M  V30 606 H 60.4281 -4.54998 1.87716 0
M  V30 607 N 62.0802 -0.821533 -1.34494 0
M  V30 608 C 62.9902 -0.244355 -2.33324 0
M  V30 609 C 64.0062 0.620527 -1.62559 0
M  V30 610 O 65.1822 0.528754 -1.94335 0
M  V30 611 C 62.2472 0.585368 -3.41723 0
M  V30 612 C 61.3082 -0.301752 -4.28238 0
M  V30 613 C 60.5412 0.488466 -5.3146 0
M  V30 614 O 60.7642 1.72186 -5.4379 0
M  V30 615 O 59.6982 -0.12848 -6.01763 0
M  V30 616 H 63.5242 -1.06231 -2.84515 0
M  V30 617 H 61.1092 -0.583645 -1.37528 0
M  V30 618 H 62.9912 1.05747 -4.07916 0
M  V30 619 H 61.6662 1.38068 -2.92778 0
M  V30 620 H 60.5732 -0.821315 -3.64973 0
M  V30 621 H 61.9062 -1.06138 -4.8062 0
M  V30 622 N 63.5583 1.46682 -0.576371 0
M  V30 623 C 64.8063 2.02013 -0.0594163 0
M  V30 624 C 65.1273 1.45101 1.30271 0
M  V30 625 O 64.3973 0.633317 1.8538 0
M  V30 626 H 62.9773 0.746759 -0.0189745 0
M  V30 627 H 65.6393 1.79862 -0.750717 0
M  V30 628 H 64.7353 3.12097 0.014345 0
M  V30 629 N 65.0364 0.313813 1.54444 0
M  V30 630 C 66.2644 -0.293918 2.04802 0
M  V30 631 C 66.6794 -1.46537 1.19047 0
M  V30 632 O 66.0364 -1.81182 0.218939 0
M  V30 633 C 66.0874 -0.737806 3.53891 0
M  V30 634 O 65.8084 0.387038 4.36387 0
M  V30 635 C 67.3094 -1.40936 4.203 0
M  V30 636 H 64.5294 -0.0620057 0.668129 0
M  V30 637 H 67.0734 0.457169 1.99324 0
M  V30 638 H 65.2284 -1.43889 3.59687 0
M  V30 639 H 65.6424 0.0391274 5.24485 0
M  V30 640 H 67.1164 -1.67099 5.26101 0
M  V30 641 H 67.5934 -2.35355 3.70816 0
M  V30 642 H 68.1994 -0.751117 4.18615 0
M  V30 643 N 66.5145 -1.57545 0.0417849 0
M  V30 644 C 67.4245 -2.14451 -0.951213 0
M  V30 645 C 68.4405 -1.09992 -1.34825 0
M  V30 646 O 69.6165 -1.42114 -1.42708 0
M  V30 647 C 66.6815 -2.67063 -2.21084 0
M  V30 648 C 65.7425 -3.86284 -1.87304 0
M  V30 649 C 64.9755 -4.36378 -3.07261 0
M  V30 650 O 65.1985 -3.85587 -4.20332 0
M  V30 651 O 64.1325 -5.28077 -2.88822 0
M  V30 652 H 67.9585 -2.99601 -0.497287 0
M  V30 653 H 65.5435 -1.48317 -0.179567 0
M  V30 654 H 67.4255 -3.00914 -2.95006 0
M  V30 655 H 66.1005 -1.84989 -2.65633 0
M  V30 656 H 65.0075 -3.57338 -1.10727 0
M  V30 657 H 66.3405 -4.6956 -1.47562 0
M  V30 658 N 67.9926 0.231505 -1.5589 0
M  V30 659 C 68.9246 1.31006 -1.8807 0
M  V30 660 C 69.9376 1.43539 -0.768145 0
M  V30 661 O 71.1266 1.44614 -1.04638 0
M  V30 662 C 68.2266 2.68688 -2.06543 0
M  V30 663 C 67.3996 2.78228 -3.37502 0
M  V30 664 C 66.4586 3.96857 -3.4553 0
M  V30 665 O 65.4846 3.85662 -4.18633 0
M  V30 666 N 66.6866 5.1072 -2.75944 0
M  V30 667 H 69.4516 1.03731 -2.81176 0
M  V30 668 H 67.0126 0.421573 -1.56315 0
M  V30 669 H 69.0046 3.46412 -2.09239 0
M  V30 670 H 67.5746 2.88605 -1.20109 0
M  V30 671 H 66.7946 1.87059 -3.46991 0
M  V30 672 H 68.0826 2.81564 -4.23791 0
M  V30 673 H 67.4806 5.2271 -2.16311 0
M  V30 674 H 66.0376 5.86523 -2.84314 0
M  V30 675 N 69.4707 1.49531 0.497807 0
M  V30 676 C 70.4027 1.62559 1.61578 0
M  V30 677 C 71.4157 0.508134 1.54667 0
M  V30 678 O 72.6047 0.780309 1.60541 0
M  V30 679 C 69.7047 1.56925 3.00379 0
M  V30 680 C 68.8777 2.84257 3.3244 0
M  V30 681 C 67.9367 2.71632 4.50669 0
M  V30 682 O 66.9627 3.4557 4.52294 0
M  V30 683 N 68.1647 1.83391 5.5077 0
M  V30 684 H 70.9297 2.58981 1.50828 0
M  V30 685 H 68.4907 1.4666 0.685743 0
M  V30 686 H 70.4827 1.46129 3.77397 0
M  V30 687 H 69.0527 0.683483 3.05037 0
M  V30 688 H 68.2727 3.09381 2.44289 0
M  V30 689 H 69.5607 3.68666 3.5066 0
M  V30 690 H 68.9587 1.22583 5.52259 0
M  V30 691 H 67.5157 1.78515 6.26878 0
M  V30 692 N 70.9488 -0.749086 1.3866 0
M  V30 693 C 71.8788 -1.8764 1.38973 0
M  V30 694 C 72.8598 -1.68178 0.255004 0
M  V30 695 O 74.0448 -1.88704 0.458754 0
M  V30 696 C 71.1748 -3.25222 1.21851 0
M  V30 697 C 70.1288 -3.59295 2.32575 0
M  V30 698 C 69.4548 -4.95663 2.00555 0
M  V30 699 C 70.7548 -3.63709 3.7485 0
M  V30 700 H 72.4488 -1.87635 2.3331 0
M  V30 701 H 69.9948 -0.901329 1.12303 0
M  V30 702 H 71.9478 -4.03746 1.20695 0
M  V30 703 H 70.6718 -3.25719 0.239775 0
M  V30 704 H 69.3308 -2.83093 2.32925 0
M  V30 705 H 68.9788 -4.92724 1.01154 0
M  V30 706 H 68.6788 -5.19429 2.74714 0
M  V30 707 H 70.2028 -5.7656 2.01024 0
M  V30 708 H 71.6168 -4.32338 3.76506 0
M  V30 709 H 70.0138 -3.98986 4.48252 0
M  V30 710 H 71.0838 -2.63834 4.06841 0
M  V30 711 N 72.4269 -1.23603 -0.977757 0
M  V30 712 C 73.3369 -1.03632 -2.1047 0
M  V30 713 C 74.3529 0.0199435 -1.73989 0
M  V30 714 O 75.5289 -0.176076 -2.00629 0
M  V30 715 C 72.5939 -0.63276 -3.40877 0
M  V30 716 C 71.6549 -1.76437 -3.91367 0
M  V30 717 C 70.8879 -1.37997 -5.15551 0
M  V30 718 O 71.1109 -0.265357 -5.69782 0
M  V30 719 O 70.0449 -2.20201 -5.60174 0
M  V30 720 H 73.8709 -1.98086 -2.30208 0
M  V30 721 H 71.4559 -1.02332 -1.08851 0
M  V30 722 H 73.3379 -0.418761 -4.19314 0
M  V30 723 H 72.0129 0.282754 -3.22463 0
M  V30 724 H 70.9199 -2.03304 -3.14036 0
M  V30 725 H 72.2529 -2.6583 -4.14241 0
M  V30 726 N 73.905 1.17692 -1.04816 0
M  V30 727 C 74.855 2.1952 -0.616042 0
M  V30 728 C 75.839 1.57147 0.345485 0
M  V30 729 O 77.031 1.76245 0.163325 0
M  V30 730 C 74.16 3.43298 0.0116917 0
M  V30 731 C 73.246 4.12777 -0.973435 0
M  V30 732 N 73.637 4.5814 -2.14339 0
M  V30 733 C 71.935 4.38747 -0.80108 0
M  V30 734 C 72.636 5.11713 -2.7663 0
M  V30 735 N 71.612 5.03686 -2.04453 0
M  V30 736 H 75.414 2.52293 -1.5075 0
M  V30 737 H 72.928 1.3398 -0.917776 0
M  V30 738 H 74.925 4.15519 0.339006 0
M  V30 739 H 73.585 3.12018 0.898593 0
M  V30 740 H 74.596 4.52349 -2.52191 0
M  V30 741 H 71.273 4.17485 0.0350934 0
M  V30 742 H 72.663 5.56962 -3.75823 0
M  V30 743 N 75.3831 0.828654 1.34056 0
M  V30 744 C 76.6131 0.431993 2.02033 0
M  V30 745 C 77.0211 -0.96844 1.62536 0
M  V30 746 O 76.3641 -1.6391 0.829408 0
M  V30 747 C 76.4261 0.461224 3.56529 0
M  V30 748 C 76.0901 1.81599 4.1937 0
M  V30 749 C 77.0871 2.7777 4.39477 0
M  V30 750 C 74.7721 2.10604 4.56017 0
M  V30 751 C 76.7661 4.01115 4.95364 0
M  V30 752 C 74.4531 3.34207 5.11614 0
M  V30 753 C 75.4511 4.2928 5.31232 0
M  V30 754 O 75.1391 5.50699 5.8565 0
M  V30 755 H 74.8711 0.170943 0.654029 0
M  V30 756 H 77.4251 1.11988 1.72185 0
M  V30 757 H 75.6551 -0.283388 3.8566 0
M  V30 758 H 77.3441 0.0838149 4.05813 0
M  V30 759 H 78.1101 2.56659 4.11523 0
M  V30 760 H 73.9891 1.37402 4.40047 0
M  V30 761 H 77.5331 4.75333 5.10592 0
M  V30 762 H 73.4301 3.55179 5.38997 0
M  V30 763 H 74.1981 5.52298 6.04077 0
M  V30 764 N 76.8612 -1.46375 0.584142 0
M  V30 765 C 77.8112 -2.27371 -0.169232 0
M  V30 766 C 78.7952 -1.35955 -0.860523 0
M  V30 767 O 79.9872 -1.60119 -0.754382 0
M  V30 768 C 77.1162 -3.22334 -1.18134 0
M  V30 769 C 76.2022 -4.21235 -0.492088 0
M  V30 770 N 76.5932 -5.03766 0.453129 0
M  V30 771 C 74.8912 -4.39773 -0.742652 0
M  V30 772 C 75.5922 -5.75366 0.85609 0
M  V30 773 N 74.5682 -5.43214 0.204926 0
M  V30 774 H 78.3702 -2.88572 0.557097 0
M  V30 775 H 75.8842 -1.57242 0.406042 0
M  V30 776 H 77.8812 -3.79071 -1.73525 0
M  V30 777 H 76.5412 -2.62693 -1.90847 0
M  V30 778 H 77.5522 -5.11227 0.828723 0
M  V30 779 H 74.2292 -3.91279 -1.45625 0
M  V30 780 H 75.6192 -6.5172 1.63434 0
M  V30 781 N 78.3393 -0.321999 -1.54275 0
M  V30 782 C 79.6163 0.335232 -1.92706 0
M  V30 783 C 79.9963 1.70006 -1.25145 0
M  V30 784 O 79.3443 2.25067 -0.394596 0
M  V30 785 C 79.5543 0.429008 -3.46353 0
M  V30 786 C 80.9023 0.690029 -4.18956 0
M  V30 787 O 81.9263 0.511992 -3.52501 0
M  V30 788 O 80.7853 1.03338 -5.36641 0
M  V30 789 H 77.8793 0.191143 -0.804608 0
M  V30 790 H 80.4253 -0.3716 -1.65581 0
M  V30 791 H 79.1973 -0.529611 -3.87699 0
M  V30 792 H 78.8203 1.18348 -3.79578 0
M  V30 793 N 79.8174 1.5752 -0.0501392 0
M  V30 794 C 81.2284 1.80271 0.485705 0
M  V30 795 C 81.5794 0.96228 1.70981 0
M  V30 796 O 80.7044 0.178578 2.15662 0
M  V30 797 C 81.2994 3.26957 0.887938 0
M  V30 798 C 79.8584 3.5063 1.36877 0
M  V30 799 C 79.0054 2.75165 0.343468 0
M  V30 800 H 81.9564 1.56281 -0.276028 0
M  V30 801 H 81.9774 3.37821 1.75093 0
M  V30 802 H 81.4894 3.881 -0.0031809 0
M  V30 803 H 79.5904 2.94766 2.27911 0
M  V30 804 H 79.7034 4.59343 1.36164 0
M  V30 805 H 78.0674 2.4127 0.816128 0
M  V30 806 H 78.8504 3.39034 -0.539548 0
M  V30 807 N 81.2955 -0.223234 1.56011 0
M  V30 808 C 82.5355 -0.954962 1.8072 0
M  V30 809 C 82.8995 -1.81598 0.623384 0
M  V30 810 O 84.1005 -2.58132 0.749745 0
M  V30 811 C 82.3715 -1.77313 3.10314 0
M  V30 812 S 83.9305 -2.56073 3.56332 0
M  V30 813 H 80.7485 -0.320812 0.634508 0
M  V30 814 H 83.3505 -0.220686 1.9425 0
M  V30 815 H 82.0545 -1.13071 3.94516 0
M  V30 816 H 81.5855 -2.54974 2.99586 0
M  V30 817 H 83.6005 -3.79619 3.19536 0
M  V30 818 N 82.7736 -1.49793 -0.48987 0
M  V30 819 C 83.7206 -1.67281 -1.59014 0
M  V30 820 C 84.6906 -0.514177 -1.57941 0
M  V30 821 O 85.8756 -0.742533 -1.75759 0
M  V30 822 C 83.0156 -1.75569 -2.97102 0
M  V30 823 C 82.1286 -3.0281 -3.08107 0
M  V30 824 C 81.2636 -3.02008 -4.36995 0
M  V30 825 C 80.3026 -4.23782 -4.41673 0
M  V30 826 N 79.4396 -4.20826 -5.62005 0
M  V30 827 H 84.2796 -2.61224 -1.43409 0
M  V30 828 H 81.8166 -1.29508 -0.697565 0
M  V30 829 H 83.7746 -1.78354 -3.77155 0
M  V30 830 H 82.4046 -0.850827 -3.11385 0
M  V30 831 H 81.4566 -3.09584 -2.21047 0
M  V30 832 H 82.7686 -3.92801 -3.07423 0
M  V30 833 H 81.9226 -3.03418 -5.25378 0
M  V30 834 H 80.6616 -2.09815 -4.4026 0
M  V30 835 H 79.6666 -4.22604 -3.5169 0
M  V30 836 H 80.8916 -5.17181 -4.40115 0
M  V30 837 H 78.8376 -3.31476 -5.66091 0
M  V30 838 H 78.7546 -5.04564 -5.62984 0
M  V30 839 H 80.0226 -4.26355 -6.52565 0
M  V30 840 N 84.2517 0.741722 -1.39055 0
M  V30 841 C 85.2147 1.83733 -1.37021 0
M  V30 842 C 86.2147 1.58542 -0.268534 0
M  V30 843 O 87.4047 1.66067 -0.526076 0
M  V30 844 C 84.5367 3.2141 -1.13617 0
M  V30 845 H 85.7297 1.86941 -2.34506 0
M  V30 846 H 83.2827 0.944676 -1.24521 0
M  V30 847 H 84.0177 3.23865 -0.167863 0
M  V30 848 H 83.8027 3.4109 -1.93391 0
M  V30 849 H 85.2927 4.01477 -1.14918 0
M  V30 850 N 85.7298 1.2412 0.971189 0
M  V30 851 C 86.6928 1.03156 2.04674 0
M  V30 852 C 87.6928 -0.00990322 1.60797 0
M  V30 853 O 88.8828 0.230729 1.72665 0
M  V30 854 C 86.0148 0.562765 3.36223 0
M  V30 855 H 87.2078 1.98614 2.24705 0
M  V30 856 H 84.7608 1.06293 1.14593 0
M  V30 857 H 85.4958 -0.395176 3.21883 0
M  V30 858 H 85.2808 1.31441 3.69413 0
M  V30 859 H 86.7708 0.437015 4.15307 0
M  V30 860 N 87.2079 -1.17134 1.05439 0
M  V30 861 C 88.4539 -1.87733 0.767077 0
M  V30 862 C 88.7869 -1.8098 -0.704253 0
M  V30 863 O 88.0619 -1.21951 -1.5152 0
M  V30 864 C 88.3449 -3.37659 1.25133 0
M  V30 865 C 88.1979 -3.53149 2.78578 0
M  V30 866 C 89.5169 -4.31768 0.852324 0
M  V30 867 H 86.6359 -0.681687 0.280129 0
M  V30 868 H 89.2779 -1.37732 1.30881 0
M  V30 869 H 87.4279 -3.80373 0.790469 0
M  V30 870 H 89.0999 -3.19434 3.32806 0
M  V30 871 H 87.3429 -2.95345 3.17732 0
M  V30 872 H 88.0139 -4.58403 3.07523 0
M  V30 873 H 90.4899 -3.96909 1.24911 0
M  V30 874 H 89.3659 -5.35199 1.21873 0
M  V30 875 H 89.6269 -4.41429 -0.243485 0
M  V30 876 N 88.686 -0.835752 -1.33615 0
M  V30 877 C 89.933 -0.429959 -1.97883 0
M  V30 878 C 90.261 1.01006 -1.66217 0
M  V30 879 O 89.516 1.72047 -0.93265 0
M  V30 880 C 89.815 -0.593925 -3.52431 0
M  V30 881 C 89.481 -2.00158 -4.04039 0
M  V30 882 C 88.143 -2.38662 -4.17844 0
M  V30 883 C 90.495 -2.92117 -4.31644 0
M  V30 884 C 87.823 -3.68435 -4.56588 0
M  V30 885 C 90.175 -4.21368 -4.71838 0
M  V30 886 C 88.839 -4.59833 -4.83849 0
M  V30 887 H 88.109 -0.157333 -0.724104 0
M  V30 888 H 90.756 -1.06217 -1.59343 0
M  V30 889 H 89.061 0.121619 -3.91611 0
M  V30 890 H 90.758 -0.260282 -4.00154 0
M  V30 891 H 87.348 -1.69252 -3.93766 0
M  V30 892 H 91.532 -2.63608 -4.20505 0
M  V30 893 H 86.788 -3.98046 -4.64079 0
M  V30 894 H 90.962 -4.92703 -4.92155 0
M  V30 895 H 88.589 -5.60438 -5.13627 0
M  V30 896 N 90.1641 1.46063 -0.591896 0
M  V30 897 C 91.4101 2.03203 -0.0894879 0
M  V30 898 C 91.7651 1.45407 1.25994 0
M  V30 899 O 91.0581 0.61326 1.8152 0
M  V30 900 C 91.2521 3.57391 0.0249813 0
M  V30 901 C 91.0811 4.30142 -1.3118 0
M  V30 902 C 89.8511 4.68688 -1.88838 0
M  V30 903 C 92.0491 4.63098 -2.23708 0
M  V30 904 N 90.0311 5.26228 -3.1616 0
M  V30 905 C 91.4021 5.21305 -3.3562 0
M  V30 906 C 93.4571 4.45031 -2.23274 0
M  V30 907 C 92.1601 5.63351 -4.47245 0
M  V30 908 C 94.1861 4.881 -3.33935 0
M  V30 909 C 93.5481 5.46386 -4.44569 0
M  V30 910 H 89.6471 0.778323 -0.0757431 0
M  V30 911 H 92.2311 1.78094 -0.78681 0
M  V30 912 H 90.4021 3.82195 0.69149 0
M  V30 913 H 92.1341 4.0118 0.532613 0
M  V30 914 H 88.8891 4.5174 -1.42223 0
M  V30 915 H 89.3131 5.59512 -3.8115 0
M  V30 916 H 93.9551 3.99295 -1.39008 0
M  V30 917 H 91.6731 6.08061 -5.32247 0
M  V30 918 H 95.2591 4.75866 -3.34728 0
M  V30 919 H 94.1391 5.79102 -5.28782 0
M  V30 920 N 91.6422 0.330177 1.54103 0
M  V30 921 C 92.8902 -0.269871 2.0029 0
M  V30 922 C 93.2112 -1.52133 1.21986 0
M  V30 923 O 92.4812 -1.93212 0.323438 0
M  V30 924 H 91.0612 -0.10271 0.739905 0
M  V30 925 H 93.7232 0.448249 1.89675 0
M  V30 926 H 92.8192 -0.52166 3.07709 0
M  V30 927 N 93.1203 -1.57491 0.0584922 0
M  V30 928 C 94.3973 -1.84346 -0.653918 0
M  V30 929 C 94.7773 -0.948355 -1.88599 0
M  V30 930 O 94.1253 -0.0112403 -2.28497 0
M  V30 931 C 94.3353 -3.34239 -1.00425 0
M  V30 932 C 95.6833 -4.01431 -1.38342 0
M  V30 933 O 96.7073 -3.38907 -1.09637 0
M  V30 934 O 95.5663 -5.11683 -1.91943 0
M  V30 935 H 92.6603 -0.761112 -0.323478 0
M  V30 936 H 95.2063 -1.6947 0.0884125 0
M  V30 937 H 93.9783 -3.91089 -0.128625 0
M  V30 938 H 93.6013 -3.54329 -1.80378 0
M  V30 939 N 94.5984 0.214957 -1.56127 0
M  V30 940 C 95.8474 0.936451 -1.78643 0
M  V30 941 C 96.1604 1.85237 -0.628229 0
M  V30 942 O 97.3664 2.613 -0.737186 0
M  V30 943 C 95.8224 1.7154 -3.16389 0
M  V30 944 C 95.4304 0.845299 -4.39953 0
M  V30 945 C 97.1744 2.42772 -3.48227 0
M  V30 946 C 95.0814 1.62198 -5.68723 0
M  V30 947 H 94.0114 0.353401 -0.666051 0
M  V30 948 H 96.6624 0.190169 -1.82512 0
M  V30 949 H 95.0444 2.50484 -3.06715 0
M  V30 950 H 96.2184 0.0959353 -4.607 0
M  V30 951 H 94.5334 0.244789 -4.1568 0
M  V30 952 H 97.1304 3.01394 -4.41663 0
M  V30 953 H 97.4734 3.15984 -2.71035 0
M  V30 954 H 98.0064 1.70813 -3.5926 0
M  V30 955 H 94.7454 0.933011 -6.48826 0
M  V30 956 H 94.2654 2.34579 -5.52026 0
M  V30 957 H 95.9444 2.18095 -6.09133 0
M  V30 958 N 96.0765 1.50051 0.48192 0
M  V30 959 C 97.0395 1.67584 1.5636 0
M  V30 960 C 98.0395 0.546894 1.51214 0
M  V30 961 O 99.2295 0.813725 1.54026 0
M  V30 962 C 96.3615 1.691 2.96003 0
M  V30 963 H 97.5545 2.64078 1.42136 0
M  V30 964 H 95.1075 1.39369 0.707533 0
M  V30 965 H 95.8425 0.742589 3.15684 0
M  V30 966 H 95.6275 2.51105 3.01146 0
M  V30 967 H 97.1175 1.84656 3.74556 0
M  V30 968 N 97.5546 -0.734337 1.39446 0
M  V30 969 C 98.4846 -1.86155 1.40955 0
M  V30 970 C 99.4656 -1.67898 0.272827 0
M  V30 971 O 100.651 -1.88207 0.478743 0
M  V30 972 C 97.7806 -3.23912 1.25294 0
M  V30 973 C 96.7346 -3.56808 2.36373 0
M  V30 974 C 96.0606 -4.93508 2.058 0
M  V30 975 C 97.3606 -3.59713 3.78687 0
M  V30 976 H 99.0546 -1.8515 2.35287 0
M  V30 977 H 96.6006 -0.889367 1.13253 0
M  V30 978 H 98.5536 -4.02443 1.2497 0
M  V30 979 H 97.2776 -3.25446 0.274308 0
M  V30 980 H 95.9366 -2.80606 2.35914 0
M  V30 981 H 95.5846 -4.91623 1.06374 0
M  V30 982 H 95.2846 -5.16486 2.80208 0
M  V30 983 H 96.8086 -5.74396 2.07128 0
M  V30 984 H 98.2226 -4.2832 3.81071 0
M  V30 985 H 96.6196 -3.94209 4.52459 0
M  V30 986 H 97.6896 -2.59504 4.09617 0
M  V30 987 N 99.0327 -1.24633 -0.964593 0
M  V30 988 C 100.31 -0.995809 -1.68354 0
M  V30 989 C 100.69 0.480964 -2.05548 0
M  V30 990 O 100.038 1.45599 -1.76105 0
M  V30 991 C 100.248 -1.92177 -2.91323 0
M  V30 992 C 101.596 -2.19446 -3.63495 0
M  V30 993 O 102.62 -1.89855 -3.01386 0
M  V30 994 O 101.479 -2.69714 -4.75307 0
M  V30 995 H 98.5727 -0.376854 -0.736146 0
M  V30 996 H 101.119 -1.35745 -1.0184 0
M  V30 997 H 99.8907 -2.91938 -2.60553 0
M  V30 998 H 99.5137 -1.56349 -3.65569 0
M  V30 999 N 100.511 1.16574 -1.06058 0
M  V30 1000 C 101.421 2.2452 -0.680282 0
M  V30 1001 C 102.437 1.71348 0.302604 0
M  V30 1002 O 103.613 2.00822 0.152513 0
M  V30 1003 C 100.678 3.46629 -0.0700315 0
M  V30 1004 C 99.7388 4.14849 -1.10448 0
M  V30 1005 C 98.9718 5.31129 -0.523256 0
M  V30 1006 O 99.1948 5.66514 0.664709 0
M  V30 1007 O 98.1288 5.88526 -1.26179 0
M  V30 1008 H 101.955 2.59355 -1.58015 0
M  V30 1009 H 99.5398 1.24043 -0.832694 0
M  V30 1010 H 101.422 4.20543 0.268667 0
M  V30 1011 H 100.097 3.13573 0.803353 0
M  V30 1012 H 99.0038 3.42916 -1.49532 0
M  V30 1013 H 100.337 4.51954 -1.94931 0
M  V30 1014 N 101.989 0.842826 1.3317 0
M  V30 1015 C 103.266 0.362216 1.92217 0
M  V30 1016 C 103.646 -1.15289 1.76838 0
M  V30 1017 O 102.994 -1.96914 1.15919 0
M  V30 1018 C 103.204 0.813495 3.39387 0
M  V30 1019 C 104.552 0.823804 4.16532 0
M  V30 1020 O 105.576 0.757358 3.48055 0
M  V30 1021 O 104.435 0.915193 5.38782 0
M  V30 1022 H 101.529 0.103317 0.820521 0
M  V30 1023 H 104.075 0.928942 1.42017 0
M  V30 1024 H 102.847 1.85624 3.4447 0
M  V30 1025 H 102.47 0.223561 3.96971 0
M  V30 1026 N 103.467 -1.45747 0.599634 0
M  V30 1027 C 104.744 -1.95585 0.0240846 0
M  V30 1028 C 105.124 -1.54217 -1.44154 0
M  V30 1029 O 104.472 -0.800903 -2.14004 0
M  V30 1030 C 104.682 -3.48344 0.21385 0
M  V30 1031 C 106.03 -4.24504 0.0904902 0
M  V30 1032 O 107.054 -3.55911 0.143558 0
M  V30 1033 O 105.913 -5.46491 -0.0310766 0
M  V30 1034 H 103.007 -0.82602 -0.0402478 0
M  V30 1035 H 105.553 -1.55951 0.669139 0
M  V30 1036 H 104.325 -3.71397 1.23206 0
M  V30 1037 H 103.948 -3.9485 -0.466842 0
M  V30 1038 N 104.945 -0.338344 -1.53925 0
M  V30 1039 C 105.875 0.51328 -2.27789 0
M  V30 1040 C 106.856 1.107 -1.29149 0
M  V30 1041 O 108.041 1.12937 -1.57984 0
M  V30 1042 C 105.171 1.66697 -3.04679 0
M  V30 1043 C 104.125 1.20183 -4.1078 0
M  V30 1044 C 103.451 2.44363 -4.75595 0
M  V30 1045 C 104.751 0.30605 -5.21403 0
M  V30 1046 H 106.445 -0.102883 -2.99223 0
M  V30 1047 H 103.991 -0.0509219 -1.4391 0
M  V30 1048 H 105.944 2.26915 -3.55088 0
M  V30 1049 H 104.668 2.30995 -2.30887 0
M  V30 1050 H 103.327 0.622499 -3.61276 0
M  V30 1051 H 102.975 3.07057 -3.98403 0
M  V30 1052 H 102.675 2.13925 -5.47275 0
M  V30 1053 H 104.199 3.05317 -5.28786 0
M  V30 1054 H 105.613 0.814929 -5.67478 0
M  V30 1055 H 104.01 0.0937929 -6.00027 0
M  V30 1056 H 105.08 -0.65921 -4.80398 0
M  V30 1057 N 106.423 1.57458 -0.0668435 0
M  V30 1058 C 107.37 2.12439 0.902122 0
M  V30 1059 C 108.34 1.03565 1.2986 0
M  V30 1060 O 109.525 1.312 1.38532 0
M  V30 1061 C 106.665 2.6865 2.16614 0
M  V30 1062 C 105.778 3.91663 1.82274 0
M  V30 1063 C 104.913 4.36134 3.0325 0
M  V30 1064 C 103.952 5.51808 2.64904 0
M  V30 1065 N 103.089 5.9126 3.78624 0
M  V30 1066 H 107.929 2.94934 0.426382 0
M  V30 1067 H 105.466 1.4575 0.198819 0
M  V30 1068 H 107.424 2.99346 2.90599 0
M  V30 1069 H 106.054 1.88928 2.61737 0
M  V30 1070 H 105.106 3.6746 0.983719 0
M  V30 1071 H 106.418 4.75693 1.50059 0
M  V30 1072 H 105.572 4.68465 3.85519 0
M  V30 1073 H 104.311 3.50948 3.38655 0
M  V30 1074 H 103.316 5.19133 1.81055 0
M  V30 1075 H 104.541 6.38722 2.30675 0
M  V30 1076 H 102.487 5.09024 4.138 0
M  V30 1077 H 102.404 6.70018 3.5016 0
M  V30 1078 H 103.672 6.28212 4.61486 0
M  V30 1079 N 107.901 -0.206675 1.56239 0
M  V30 1080 C 108.831 -1.25909 1.96645 0
M  V30 1081 C 109.812 -1.48097 0.836734 0
M  V30 1082 O 110.997 -1.6003 1.10019 0
M  V30 1083 C 108.127 -2.6058 2.29599 0
M  V30 1084 C 107.081 -2.53024 3.452 0
M  V30 1085 C 106.407 -3.91861 3.63798 0
M  V30 1086 C 107.707 -2.06524 4.79734 0
M  V30 1087 H 109.401 -0.923369 2.84806 0
M  V30 1088 H 106.947 -0.442735 1.37025 0
M  V30 1089 H 108.9 -3.34375 2.56459 0
M  V30 1090 H 107.624 -2.95869 1.38307 0
M  V30 1091 H 106.283 -1.81684 3.18412 0
M  V30 1092 H 105.931 -4.24483 2.69857 0
M  V30 1093 H 105.631 -3.87683 4.4156 0
M  V30 1094 H 107.155 -4.67296 3.93022 0
M  V30 1095 H 108.569 -2.70072 5.05702 0
M  V30 1096 H 106.966 -2.13374 5.60885 0
M  V30 1097 H 108.036 -1.01802 4.74093 0
M  V30 1098 N 109.379 -1.50304 -0.473955 0
M  V30 1099 C 110.626 -1.6115 -1.22625 0
M  V30 1100 C 110.954 -0.310517 -1.92005 0
M  V30 1101 O 110.209 0.703419 -1.82621 0
M  V30 1102 C 110.508 -2.73938 -2.29549 0
M  V30 1103 C 110.174 -4.14519 -1.7744 0
M  V30 1104 C 108.836 -4.5277 -1.62949 0
M  V30 1105 C 111.188 -5.02392 -1.3875 0
M  V30 1106 C 108.516 -5.76639 -1.08187 0
M  V30 1107 C 110.868 -6.26805 -0.854309 0
M  V30 1108 C 109.532 -6.63861 -0.696011 0
M  V30 1109 H 108.802 -0.589691 -0.448715 0
M  V30 1110 H 111.449 -1.84228 -0.522705 0
M  V30 1111 H 109.754 -2.44937 -3.05799 0
M  V30 1112 H 111.451 -2.79534 -2.87509 0
M  V30 1113 H 108.041 -3.8434 -1.89685 0
M  V30 1114 H 112.225 -4.73474 -1.4878 0
M  V30 1115 H 107.481 -6.04027 -0.946666 0
M  V30 1116 H 111.655 -6.94258 -0.545843 0
M  V30 1117 H 109.282 -7.59722 -0.26952 0
M  V30 1118 N 110.857 0.726932 -1.39834 0
M  V30 1119 C 111.807 1.83232 -1.35683 0
M  V30 1120 C 112.791 1.59155 -0.236295 0
M  V30 1121 O 113.983 1.70522 -0.474488 0
M  V30 1122 C 111.112 3.21246 -1.21062 0
M  V30 1123 C 110.198 3.51125 -2.37849 0
M  V30 1124 N 110.589 3.51889 -3.63329 0
M  V30 1125 C 108.887 3.81527 -2.30982 0
M  V30 1126 C 109.588 3.79791 -4.40606 0
M  V30 1127 N 108.564 3.97971 -3.70297 0
M  V30 1128 H 112.366 1.8214 -2.30656 0
M  V30 1129 H 109.88 0.925545 -1.33444 0
M  V30 1130 H 111.877 4.00387 -1.16171 0
M  V30 1131 H 110.537 3.23572 -0.270458 0
M  V30 1132 H 111.548 3.33008 -3.96643 0
M  V30 1133 H 108.225 3.91411 -1.45272 0
M  V30 1134 H 109.615 3.86783 -5.49408 0
M  V30 1135 N 112.336 1.25143 0.95797 0
M  V30 1136 C 113.585 1.0909 1.69654 0
M  V30 1137 C 113.898 -0.368548 1.92097 0
M  V30 1138 O 115.104 -0.649455 2.63618 0
M  V30 1139 C 113.56 1.90395 3.05414 0
M  V30 1140 C 113.168 3.4081 2.90779 0
M  V30 1141 C 114.912 1.82901 3.83076 0
M  V30 1142 C 112.819 4.14423 4.21909 0
M  V30 1143 H 111.749 0.404625 0.636235 0
M  V30 1144 H 114.4 1.4931 1.06672 0
M  V30 1145 H 112.782 1.42996 3.69281 0
M  V30 1146 H 113.956 3.95859 2.35865 0
M  V30 1147 H 112.271 3.49361 2.26575 0
M  V30 1148 H 114.868 2.35196 4.80195 0
M  V30 1149 H 115.211 0.796224 4.08615 0
M  V30 1150 H 115.744 2.28033 3.25954 0
M  V30 1151 H 112.483 5.18102 4.01561 0
M  V30 1152 H 112.003 3.64159 4.76601 0
M  V30 1153 H 113.682 4.21956 4.90471 0
M  V30 1154 N 113.814 -1.1601 1.06675 0
M  V30 1155 C 115.091 -1.82679 0.699114 0
M  V30 1156 C 115.471 -1.94559 -0.819137 0
M  V30 1157 O 114.819 -1.49169 -1.73092 0
M  V30 1158 C 115.029 -3.19445 1.40555 0
M  V30 1159 C 116.377 -3.95171 1.55323 0
M  V30 1160 O 117.401 -3.28976 1.36577 0
M  V30 1161 O 116.26 -5.13833 1.86112 0
M  V30 1162 H 113.354 -0.788954 0.247951 0
M  V30 1163 H 115.9 -1.23179 1.16726 0
M  V30 1164 H 114.672 -3.05856 2.44065 0
M  V30 1165 H 114.295 -3.86625 0.927733 0
M  V30 1166 N 115.292 -0.849877 -1.32721 0
M  V30 1167 C 116.239 -0.289033 -2.28983 0
M  V30 1168 C 117.209 0.601324 -1.54833 0
M  V30 1169 O 118.394 0.537253 -1.8308 0
M  V30 1170 C 115.534 0.520623 -3.4115 0
M  V30 1171 C 114.647 -0.394989 -4.3019 0
M  V30 1172 C 113.782 0.426834 -5.29482 0
M  V30 1173 C 112.821 -0.486476 -6.10164 0
M  V30 1174 N 111.958 0.297879 -7.01468 0
M  V30 1175 H 116.798 -1.11519 -2.76347 0
M  V30 1176 H 114.335 -0.56138 -1.35967 0
M  V30 1177 H 116.293 1.00563 -4.04899 0
M  V30 1178 H 114.923 1.31165 -2.9495 0
M  V30 1179 H 113.975 -0.99836 -3.67065 0
M  V30 1180 H 115.287 -1.09612 -4.86607 0
M  V30 1181 H 114.441 0.975205 -5.98811 0
M  V30 1182 H 113.18 1.16136 -4.73671 0
M  V30 1183 H 112.185 -1.04677 -5.39743 0
M  V30 1184 H 113.41 -1.21953 -6.6806 0
M  V30 1185 H 111.356 1.01558 -6.48091 0
M  V30 1186 H 111.273 -0.344318 -7.55216 0
M  V30 1187 H 112.541 0.828131 -7.75089 0
M  V30 1188 N 116.77 1.45427 -0.607355 0
M  V30 1189 C 117.733 2.28974 0.101693 0
M  V30 1190 C 118.733 1.39754 0.795329 0
M  V30 1191 O 119.923 1.61878 0.643527 0
M  V30 1192 C 117.055 3.20768 1.15414 0
M  V30 1193 H 118.248 2.93147 -0.632844 0
M  V30 1194 H 115.801 1.51945 -0.366391 0
M  V30 1195 H 116.536 2.61395 1.91945 0
M  V30 1196 H 116.321 3.86489 0.66098 0
M  V30 1197 H 117.811 3.83589 1.65073 0
M  V30 1198 N 118.248 0.346503 1.53744 0
M  V30 1199 C 119.664 -0.00530975 1.59599 0
M  V30 1200 C 119.864 -1.48465 1.36236 0
M  V30 1201 O 118.92 -2.24376 1.15808 0
M  V30 1202 C 120.233 0.433516 2.97559 0
M  V30 1203 C 121.781 0.386111 3.10609 0
M  V30 1204 C 122.256 0.800451 4.50951 0
M  V30 1205 N 123.747 0.754753 4.5701 0
M  V30 1206 C 124.482 1.04727 5.63755 0
M  V30 1207 N 123.978 1.4081 6.7834 0
M  V30 1208 N 125.771 0.971316 5.53644 0
M  V30 1209 H 117.922 1.31009 1.67184 0
M  V30 1210 H 120.185 0.534242 0.783128 0
M  V30 1211 H 119.891 1.46509 3.19731 0
M  V30 1212 H 119.765 -0.189753 3.76722 0
M  V30 1213 H 122.152 -0.636295 2.88158 0
M  V30 1214 H 122.233 1.04462 2.33498 0
M  V30 1215 H 121.877 1.82088 4.74137 0
M  V30 1216 H 121.807 0.119386 5.26465 0
M  V30 1217 H 124.298 0.488662 3.74727 0
M  V30 1218 H 124.611 1.61607 7.55714 0
M  V30 1219 H 122.956 1.44657 6.79779 0
M  V30 1220 H 126.147 0.688748 4.63005 0
M  V30 1221 H 126.32 1.20263 6.36742 0
M  V30 1222 N 119.726 -1.57421 0.075193 0
M  V30 1223 C 121.003 -1.85029 -0.634329 0
M  V30 1224 C 121.383 -0.968305 -1.87582 0
M  V30 1225 O 120.731 -0.0354749 -2.28472 0
M  V30 1226 C 120.941 -3.35286 -0.968742 0
M  V30 1227 C 122.289 -4.02875 -1.34077 0
M  V30 1228 O 123.313 -3.40051 -1.06037 0
M  V30 1229 O 122.172 -5.13691 -1.86506 0
M  V30 1230 H 119.266 -0.7645 -0.315387 0
M  V30 1231 H 121.812 -1.69366 0.106382 0
M  V30 1232 H 120.584 -3.91203 -0.0871376 0
M  V30 1233 H 120.207 -3.56223 -1.7661 0
M  V30 1234 N 121.204 0.198386 -1.56346 0
M  V30 1235 C 122.45 0.916115 -1.81601 0
M  V30 1236 C 122.805 1.81025 -0.651744 0
M  V30 1237 O 122.098 1.88316 0.353229 0
M  V30 1238 C 122.292 1.77031 -3.10475 0
M  V30 1239 C 122.121 0.960365 -4.39326 0
M  V30 1240 C 120.891 0.646093 -5.01152 0
M  V30 1241 C 123.089 0.314628 -5.13337 0
M  V30 1242 N 121.071 -0.182828 -6.13628 0
M  V30 1243 C 122.442 -0.37664 -6.18855 0
M  V30 1244 C 124.497 0.230019 -4.97368 0
M  V30 1245 C 123.2 -1.14445 -7.10137 0
M  V30 1246 C 125.226 -0.524389 -5.89071 0
M  V30 1247 C 124.588 -1.20412 -6.94032 0
M  V30 1248 H 120.687 0.314732 -0.715868 0
M  V30 1249 H 123.271 0.185102 -1.93818 0
M  V30 1250 H 121.442 2.47295 -2.99499 0
M  V30 1251 H 123.174 2.42727 -3.2383 0
M  V30 1252 H 119.929 0.969724 -4.63566 0
M  V30 1253 H 120.353 -0.586802 -6.74452 0
M  V30 1254 H 124.995 0.741184 -4.16253 0
M  V30 1255 H 122.713 -1.66706 -7.90718 0
M  V30 1256 H 126.299 -0.591167 -5.78789 0
M  V30 1257 H 125.179 -1.77853 -7.63766 0
M  V30 1258 N 122.682 1.50554 0.465978 0
M  V30 1259 C 123.91 1.65563 1.24083 0
M  V30 1260 C 124.325 0.341051 1.85694 0
M  V30 1261 O 123.682 -0.677543 1.69457 0
M  V30 1262 C 123.733 2.75051 2.34583 0
M  V30 1263 O 123.454 4.01413 1.75497 0
M  V30 1264 C 124.955 3.01078 3.25372 0
M  V30 1265 H 122.175 0.55638 0.375077 0
M  V30 1266 H 124.719 1.96807 0.555624 0
M  V30 1267 H 122.874 2.46486 2.9887 0
M  V30 1268 H 123.288 4.62002 2.48303 0
M  V30 1269 H 124.762 3.81339 3.99105 0
M  V30 1270 H 125.239 2.12349 3.84453 0
M  V30 1271 H 125.845 3.31194 2.66816 0
M  V30 1272 N 124.16 -0.719506 1.40217 0
M  V30 1273 C 125.107 -1.83359 1.40172 0
M  V30 1274 C 126.077 -1.64065 0.259206 0
M  V30 1275 O 127.262 -1.85254 0.456677 0
M  V30 1276 C 124.402 -3.2103 1.26624 0
M  V30 1277 C 123.515 -3.51923 2.50548 0
M  V30 1278 C 122.65 -4.79079 2.29471 0
M  V30 1279 C 121.689 -5.02863 3.48992 0
M  V30 1280 N 120.826 -6.2123 3.27135 0
M  V30 1281 H 125.666 -1.82733 2.35399 0
M  V30 1282 H 123.203 -0.892688 1.16917 0
M  V30 1283 H 125.161 -4.00524 1.16776 0
M  V30 1284 H 123.791 -3.20895 0.350176 0
M  V30 1285 H 122.843 -2.67014 2.70939 0
M  V30 1286 H 124.155 -3.6541 3.39525 0
M  V30 1287 H 123.309 -5.66582 2.16955 0
M  V30 1288 H 122.048 -4.67794 1.37913 0
M  V30 1289 H 121.053 -4.13816 3.6199 0
M  V30 1290 H 122.278 -5.16023 4.41472 0
M  V30 1291 H 120.224 -6.11204 2.38256 0
M  V30 1292 H 120.141 -6.35375 4.09675 0
M  V30 1293 H 121.409 -7.11532 3.18344 0
M  V30 1294 N 125.638 -1.25649 -0.95132 0
M  V30 1295 C 126.57 -1.02112 -2.05197 0
M  V30 1296 C 127.583 0.0150571 -1.62793 0
M  V30 1297 O 128.772 -0.223874 -1.77091 0
M  V30 1298 C 125.872 -0.522361 -3.3485 0
M  V30 1299 C 125.045 -1.62546 -4.06076 0
M  V30 1300 C 124.104 -1.12649 -5.14001 0
M  V30 1301 O 123.13 -1.82156 -5.39266 0
M  V30 1302 N 124.332 0.03047 -5.80492 0
M  V30 1303 H 127.097 -1.96885 -2.25957 0
M  V30 1304 H 124.658 -1.16899 -1.1201 0
M  V30 1305 H 126.65 -0.172961 -4.0433 0
M  V30 1306 H 125.22 0.33151 -3.10837 0
M  V30 1307 H 124.44 -2.14628 -3.30649 0
M  V30 1308 H 125.728 -2.36644 -4.50419 0
M  V30 1309 H 125.126 0.611169 -5.62389 0
M  V30 1310 H 123.683 0.320875 -6.5101 0
M  V30 1311 N 127.117 1.15442 -1.07289 0
M  V30 1312 C 128.345 1.90096 -0.81676 0
M  V30 1313 C 128.76 1.7798 0.629966 0
M  V30 1314 O 128.117 1.1313 1.43206 0
M  V30 1315 C 128.168 3.40466 -1.21512 0
M  V30 1316 O 127.889 3.52232 -2.60508 0
M  V30 1317 C 129.39 4.32145 -0.988198 0
M  V30 1318 H 126.61 0.602495 -0.295366 0
M  V30 1319 H 129.154 1.4627 -1.42918 0
M  V30 1320 H 127.309 3.81958 -0.647039 0
M  V30 1321 H 127.723 4.45549 -2.76742 0
M  V30 1322 H 129.197 5.36072 -1.31645 0
M  V30 1323 H 129.674 4.39135 0.0755063 0
M  V30 1324 H 130.28 3.96395 -1.54115 0
M  V30 1325 N 128.595 0.856903 1.32268 0
M  V30 1326 C 129.841 0.462069 1.97466 0
M  V30 1327 C 130.174 -0.980298 1.67642 0
M  V30 1328 O 129.449 -1.68824 0.965858 0
M  V30 1329 C 129.732 0.704336 3.53145 0
M  V30 1330 C 129.585 2.19529 3.9259 0
M  V30 1331 C 130.904 0.1622 4.39801 0
M  V30 1332 H 128.023 0.169357 0.717278 0
M  V30 1333 H 130.665 1.07574 1.56614 0
M  V30 1334 H 128.815 0.181999 3.88073 0
M  V30 1335 H 130.487 2.78387 3.67829 0
M  V30 1336 H 128.73 2.67292 3.41668 0
M  V30 1337 H 129.401 2.31549 5.01088 0
M  V30 1338 H 131.877 0.608905 4.11621 0
M  V30 1339 H 130.753 0.361265 5.4771 0
M  V30 1340 H 131.014 -0.935158 4.32096 0
M  V30 1341 N 130.073 -1.45103 0.615059 0
M  V30 1342 C 131.321 -2.01784 0.112955 0
M  V30 1343 C 131.642 -1.48504 -1.26378 0
M  V30 1344 O 130.912 -0.682245 -1.83636 0
M  V30 1345 H 129.492 -0.745993 0.0387668 0
M  V30 1346 H 132.154 -1.77808 0.798141 0
M  V30 1347 H 131.25 -3.12025 0.0684069 0
M  V30 1348 N 131.551 -0.354651 -1.53558 0
M  V30 1349 C 132.514 0.484566 -2.24019 0
M  V30 1350 C 133.514 1.01861 -1.24422 0
M  V30 1351 O 134.704 0.906097 -1.4878 0
M  V30 1352 C 131.836 1.67615 -2.96847 0
M  V30 1353 H 133.029 -0.131843 -2.9961 0
M  V30 1354 H 130.582 -0.106165 -1.55939 0
M  V30 1355 H 131.317 2.33095 -2.25471 0
M  V30 1356 H 131.102 1.30029 -3.69912 0
M  V30 1357 H 132.592 2.27114 -3.50441 0
M  V30 1358 N 133.029 1.57378 -0.0835403 0
M  V30 1359 C 134.257 1.98263 0.59157 0
M  V30 1360 C 134.672 0.962302 1.62435 0
M  V30 1361 O 134.029 -0.049581 1.82433 0
M  V30 1362 C 134.08 3.39214 1.24965 0
M  V30 1363 O 133.801 4.37339 0.258186 0
M  V30 1364 C 135.302 3.95038 2.01147 0
M  V30 1365 H 132.522 0.651773 0.159477 0
M  V30 1366 H 135.066 2.03878 -0.159415 0
M  V30 1367 H 133.221 3.34649 1.95164 0
M  V30 1368 H 133.635 5.19371 0.731734 0
M  V30 1369 H 135.109 4.95848 2.42567 0
M  V30 1370 H 135.586 3.32222 2.87272 0
M  V30 1371 H 136.192 4.0304 1.35789 0
M  V30 1372 N 134.507 -0.190092 1.56449 0
M  V30 1373 C 135.755 -0.907908 1.80559 0
M  V30 1374 C 136.076 -1.83583 0.657438 0
M  V30 1375 O 135.346 -1.93203 -0.323924 0
M  V30 1376 H 133.926 -0.338247 0.666032 0
M  V30 1377 H 136.588 -0.194403 1.93928 0
M  V30 1378 H 135.684 -1.49604 2.73907 0
M  V30 1379 N 135.985 -1.50799 -0.457987 0
M  V30 1380 C 136.935 -1.67003 -1.55222 0
M  V30 1381 C 137.919 -0.52434 -1.52117 0
M  V30 1382 O 139.111 -0.779345 -1.58919 0
M  V30 1383 C 136.24 -1.77956 -2.93576 0
M  V30 1384 C 135.326 -2.98243 -3.01516 0
M  V30 1385 N 135.717 -4.21732 -2.79241 0
M  V30 1386 C 134.015 -2.97072 -3.32662 0
M  V30 1387 C 134.716 -5.02817 -2.92489 0
M  V30 1388 N 133.692 -4.37038 -3.23262 0
M  V30 1389 H 137.494 -2.60163 -1.36721 0
M  V30 1390 H 135.008 -1.48163 -0.664952 0
M  V30 1391 H 137.005 -1.87671 -3.72271 0
M  V30 1392 H 135.665 -0.859634 -3.13114 0
M  V30 1393 H 136.676 -4.51016 -2.54567 0
M  V30 1394 H 133.353 -2.14631 -3.58106 0
M  V30 1395 H 134.743 -6.11054 -2.79396 0
M  V30 1396 N 137.463 0.71206 -1.40597 0
M  V30 1397 C 138.688 1.50617 -1.42581 0
M  V30 1398 C 139.113 1.88079 -0.0282102 0
M  V30 1399 O 138.471 1.53511 0.964579 0
M  V30 1400 C 138.519 2.7557 -2.3258 0
M  V30 1401 O 137.623 3.72414 -1.77148 0
M  V30 1402 H 136.964 0.453966 -0.484573 0
M  V30 1403 H 139.494 0.876649 -1.84868 0
M  V30 1404 H 139.504 3.2406 -2.47889 0
M  V30 1405 H 138.179 2.47639 -3.34138 0
M  V30 1406 H 136.756 3.31276 -1.71204 0
M  V30 1407 N 138.941 1.26152 0.944643 0
M  V30 1408 C 140.169 1.14259 1.72489 0
M  V30 1409 C 140.584 -0.302555 1.8636 0
M  V30 1410 O 139.941 -1.20741 1.36849 0
M  V30 1411 C 139.992 1.80266 3.13347 0
M  V30 1412 O 139.713 3.19133 3.00143 0
M  V30 1413 C 141.214 1.74283 4.07603 0
M  V30 1414 H 138.434 0.398051 0.540181 0
M  V30 1415 H 140.978 1.66706 1.18446 0
M  V30 1416 H 139.133 1.31766 3.64303 0
M  V30 1417 H 139.547 3.51744 3.89071 0
M  V30 1418 H 141.021 2.25111 5.04013 0
M  V30 1419 H 141.498 0.708631 4.33446 0
M  V30 1420 H 142.104 2.22319 3.62567 0
M  V30 1421 N 140.419 -1.14872 1.07899 0
M  V30 1422 C 141.667 -1.85422 0.803941 0
M  V30 1423 C 141.988 -1.83051 -0.67211 0
M  V30 1424 O 141.258 -1.27532 -1.48703 0
M  V30 1425 H 139.838 -0.686537 0.294408 0
M  V30 1426 H 142.5 -1.39226 1.3639 0
M  V30 1427 H 141.596 -2.90399 1.14346 0
M  V30 1428 N 141.898 -0.863906 -1.31812 0
M  V30 1429 C 143.146 -0.470904 -1.96537 0
M  V30 1430 C 143.467 0.978771 -1.68657 0
M  V30 1431 O 142.737 1.6853 -0.998717 0
M  V30 1432 H 141.317 -0.171148 -0.72713 0
M  V30 1433 H 143.979 -1.10236 -1.60729 0
M  V30 1434 H 143.075 -0.623616 -3.05806 0
M  V30 1435 N 143.376 1.44774 -0.622745 0
M  V30 1436 C 144.306 2.33382 0.0741861 0
M  V30 1437 C 145.287 1.47719 0.843387 0
M  V30 1438 O 146.472 1.76458 0.810934 0
M  V30 1439 C 143.602 3.30663 1.06204 0
M  V30 1440 C 142.556 4.26079 0.405037 0
M  V30 1441 C 141.882 5.13165 1.5022 0
M  V30 1442 C 143.182 5.1781 -0.683414 0
M  V30 1443 H 144.876 2.91905 -0.665713 0
M  V30 1444 H 142.422 1.40363 -0.321587 0
M  V30 1445 H 144.375 3.9153 1.55827 0
M  V30 1446 H 143.099 2.70331 1.83272 0
M  V30 1447 H 141.758 3.66532 -0.0704683 0
M  V30 1448 H 141.406 4.49191 2.26355 0
M  V30 1449 H 141.106 5.77812 1.06803 0
M  V30 1450 H 142.63 5.76902 2.00041 0
M  V30 1451 H 144.044 5.72661 -0.270631 0
M  V30 1452 H 142.441 5.91015 -1.04023 0
M  V30 1453 H 143.511 4.59326 -1.55395 0
M  V30 1454 N 144.854 0.36279 1.53368 0
M  V30 1455 C 145.764 -0.492994 2.29362 0
M  V30 1456 C 146.78 -1.09507 1.35219 0
M  V30 1457 O 147.956 -1.10662 1.68273 0
M  V30 1458 C 145.021 -1.61855 3.066 0
M  V30 1459 C 144.082 -1.04429 4.16405 0
M  V30 1460 C 143.315 -2.11621 4.89951 0
M  V30 1461 O 143.538 -3.32684 4.63333 0
M  V30 1462 O 142.472 -1.74835 5.75948 0
M  V30 1463 H 146.298 0.125331 3.03441 0
M  V30 1464 H 143.883 0.127253 1.48857 0
M  V30 1465 H 145.765 -2.27302 3.54841 0
M  V30 1466 H 144.44 -2.22233 2.3536 0
M  V30 1467 H 143.347 -0.353819 3.72423 0
M  V30 1468 H 144.68 -0.485113 4.89804 0
M  V30 1469 N 146.332 -1.57332 0.0918853 0
M  V30 1470 C 147.242 -2.17368 -0.882505 0
M  V30 1471 C 148.258 -1.14226 -1.31257 0
M  V30 1472 O 149.434 -1.46582 -1.38115 0
M  V30 1473 C 146.499 -2.73962 -2.12476 0
M  V30 1474 C 145.56 -3.92048 -1.7492 0
M  V30 1475 C 144.793 -4.45933 -2.93223 0
M  V30 1476 O 145.016 -3.98764 -4.07852 0
M  V30 1477 O 143.95 -5.36999 -2.71875 0
M  V30 1478 H 147.776 -3.01031 -0.40172 0
M  V30 1479 H 145.361 -1.48813 -0.132291 0
M  V30 1480 H 147.243 -3.10147 -2.85283 0
M  V30 1481 H 145.918 -1.93347 -2.59613 0
M  V30 1482 H 144.825 -3.6068 -0.993025 0
M  V30 1483 H 146.158 -4.74017 -1.32548 0
M  V30 1484 N 147.81 0.181792 -1.56548 0
M  V30 1485 C 148.742 1.24956 -1.92142 0
M  V30 1486 C 149.755 1.41022 -0.813422 0
M  V30 1487 O 150.944 1.41212 -1.09186 0
M  V30 1488 C 148.044 2.61981 -2.14987 0
M  V30 1489 C 147.217 2.6735 -3.46183 0
M  V30 1490 C 146.276 3.85664 -3.5798 0
M  V30 1491 O 145.302 3.72148 -4.30691 0
M  V30 1492 N 146.504 5.01683 -2.92053 0
M  V30 1493 H 149.269 0.947329 -2.84334 0
M  V30 1494 H 146.83 0.371629 -1.57577 0
M  V30 1495 H 148.822 3.3958 -2.20154 0
M  V30 1496 H 147.392 2.84637 -1.2923 0
M  V30 1497 H 146.612 1.75925 -3.52766 0
M  V30 1498 H 147.9 2.67939 -4.32534 0
M  V30 1499 H 147.298 5.15564 -2.32832 0
M  V30 1500 H 145.855 5.77181 -3.0283 0
M  V30 1501 N 149.288 1.51039 0.449983 0
M  V30 1502 C 150.251 1.70863 1.5277 0
M  V30 1503 C 151.251 0.578846 1.5002 0
M  V30 1504 O 152.441 0.846213 1.52266 0
M  V30 1505 C 149.573 1.75341 2.9235 0
M  V30 1506 H 150.766 2.67034 1.36502 0
M  V30 1507 H 148.319 1.40838 0.677812 0
M  V30 1508 H 149.054 0.809383 3.14037 0
M  V30 1509 H 148.839 2.57436 2.95752 0
M  V30 1510 H 150.329 1.92559 3.70555 0
M  V30 1511 N 150.766 -0.704594 1.40972 0
M  V30 1512 C 151.991 -1.49858 1.43378 0
M  V30 1513 C 152.416 -1.88061 0.038184 0
M  V30 1514 O 151.774 -1.5402 -0.956425 0
M  V30 1515 C 151.822 -2.74333 2.34038 0
M  V30 1516 O 150.926 -3.7147 1.7912 0
M  V30 1517 H 150.267 -0.45139 0.486974 0
M  V30 1518 H 152.797 -0.866832 1.8533 0
M  V30 1519 H 152.807 -3.22741 2.49604 0
M  V30 1520 H 151.482 -2.45863 3.35446 0
M  V30 1521 H 150.059 -3.30363 1.72958 0
M  V30 1522 N 152.244 -1.26651 -0.937939 0
M  V30 1523 C 153.154 -1.10276 -2.07066 0
M  V30 1524 C 154.17 -0.0354197 -1.73964 0
M  V30 1525 O 155.346 -0.239816 -1.99967 0
M  V30 1526 C 152.411 -0.740887 -3.38691 0
M  V30 1527 C 151.472 -1.88799 -3.85556 0
M  V30 1528 C 150.705 -1.54329 -5.10899 0
M  V30 1529 O 150.928 -0.446494 -5.6865 0
M  V30 1530 O 149.862 -2.37911 -5.52885 0
M  V30 1531 H 153.688 -2.05309 -2.23789 0
M  V30 1532 H 151.273 -1.05743 -1.0554 0
M  V30 1533 H 153.155 -0.55195 -4.1777 0
M  V30 1534 H 151.83 0.180022 -3.23199 0
M  V30 1535 H 150.737 -2.13191 -3.07409 0
M  V30 1536 H 152.07 -2.78874 -4.05574 0
M  V30 1537 N 153.722 1.14298 -1.08507 0
M  V30 1538 C 154.947 1.8976 -0.837001 0
M  V30 1539 C 155.372 1.78097 0.605228 0
M  V30 1540 O 154.73 1.12188 1.4242 0
M  V30 1541 C 154.778 3.37685 -1.26495 0
M  V30 1542 O 153.882 4.10281 -0.417514 0
M  V30 1543 H 153.223 0.590365 -0.303917 0
M  V30 1544 H 155.753 1.44672 -1.44676 0
M  V30 1545 H 155.763 3.88501 -1.24625 0
M  V30 1546 H 154.438 3.45492 -2.31534 0
M  V30 1547 H 153.015 3.69536 -0.499722 0
M  V30 1548 N 155.201 0.870884 1.31352 0
M  V30 1549 C 156.426 0.495957 2.01383 0
M  V30 1550 C 156.851 -0.904324 1.64935 0
M  V30 1551 O 156.209 -1.59687 0.858466 0
M  V30 1552 C 156.257 0.661433 3.54482 0
M  V30 1553 O 155.361 -0.298851 4.11316 0
M  V30 1554 H 154.702 0.197158 0.634054 0
M  V30 1555 H 157.232 1.17455 1.67527 0
M  V30 1556 H 157.242 0.555072 4.04207 0
M  V30 1557 H 155.917 1.68246 3.8035 0
M  V30 1558 H 154.494 -0.147368 3.72609 0
M  V30 1559 N 156.679 -1.44442 0.630414 0
M  V30 1560 C 158.09 -1.85434 0.217063 0
M  V30 1561 C 158.441 -1.52748 -1.23136 0
M  V30 1562 O 157.566 -0.965205 -1.93682 0
M  V30 1563 C 158.161 -3.36581 0.387168 0
M  V30 1564 C 156.72 -3.76389 0.0283297 0
M  V30 1565 C 155.867 -2.68296 0.700889 0
M  V30 1566 H 158.818 -1.34919 0.83562 0
M  V30 1567 H 158.839 -3.78657 -0.374086 0
M  V30 1568 H 158.351 -3.60339 1.44144 0
M  V30 1569 H 156.452 -3.58246 -1.02423 0
M  V30 1570 H 156.565 -4.77095 0.437892 0
M  V30 1571 H 154.929 -2.54335 0.136267 0
M  V30 1572 H 155.712 -2.94887 1.75774 0
M  V30 1573 N 158.157 -0.370918 -1.53173 0
M  V30 1574 C 159.434 0.273754 -1.93675 0
M  V30 1575 C 159.814 1.65938 -1.3049 0
M  V30 1576 O 159.162 2.23698 -0.465999 0
M  V30 1577 C 159.372 0.318602 -3.47543 0
M  V30 1578 C 160.72 0.556392 -4.20939 0
M  V30 1579 O 161.744 0.399587 -3.53952 0
M  V30 1580 O 160.603 0.862133 -5.39657 0
M  V30 1581 H 157.697 0.165448 -0.810281 0
M  V30 1582 H 160.243 -0.42409 -1.64315 0
M  V30 1583 H 159.015 -0.652687 -3.85818 0
M  V30 1584 H 158.638 1.06212 -3.83151 0
M  V30 1585 N 159.635 1.57281 -0.100228 0
M  V30 1586 C 160.863 1.98879 0.570509 0
M  V30 1587 C 161.278 0.979476 1.61405 0
M  V30 1588 O 160.635 -0.0302288 1.82475 0
M  V30 1589 C 160.686 3.4052 1.2136 0
M  V30 1590 O 160.407 4.37588 0.211786 0
M  V30 1591 C 161.908 3.97149 1.96945 0
M  V30 1592 H 159.128 0.653428 0.152555 0
M  V30 1593 H 161.672 2.03697 -0.18103 0
M  V30 1594 H 159.827 3.367 1.91603 0
M  V30 1595 H 160.241 5.20118 0.676607 0
M  V30 1596 H 161.715 4.98393 2.37294 0
M  V30 1597 H 162.192 3.3525 2.83733 0
M  V30 1598 H 162.798 4.04458 1.31506 0
M  V30 1599 N 161.113 -0.173488 1.56642 0
M  V30 1600 C 162.341 -0.906095 1.86004 0
M  V30 1601 C 162.756 -1.75921 0.685355 0
M  V30 1602 O 162.113 -1.79198 -0.345578 0
M  V30 1603 C 162.164 -1.78462 3.14378 0
M  V30 1604 O 161.885 -0.965914 4.27319 0
M  V30 1605 C 163.386 -2.62707 3.57071 0
M  V30 1606 H 160.606 -0.263341 0.617165 0
M  V30 1607 H 163.15 -0.174236 2.03756 0
M  V30 1608 H 161.305 -2.46984 2.98459 0
M  V30 1609 H 161.719 -1.56655 5.00559 0
M  V30 1610 H 163.193 -3.19969 4.49804 0
M  V30 1611 H 163.67 -3.37472 2.81086 0
M  V30 1612 H 164.276 -1.99521 3.75595 0
M  V30 1613 N 162.591 -1.51276 -0.441967 0
M  V30 1614 C 163.554 -1.7167 -1.51862 0
M  V30 1615 C 164.554 -0.586793 -1.49711 0
M  V30 1616 O 165.744 -0.854276 -1.51815 0
M  V30 1617 C 162.876 -1.76889 -2.91416 0
M  V30 1618 H 164.069 -2.67754 -1.35084 0
M  V30 1619 H 161.622 -1.41196 -0.670333 0
M  V30 1620 H 162.357 -0.826026 -3.13604 0
M  V30 1621 H 162.142 -2.59001 -2.94382 0
M  V30 1622 H 163.632 -1.94522 -3.69528 0
M  V30 1623 N 164.069 0.697108 -1.41344 0
M  V30 1624 C 165.002 1.82134 -1.37486 0
M  V30 1625 C 165.98 1.60784 -0.242351 0
M  V30 1626 O 167.164 1.83553 -0.429012 0
M  V30 1627 C 164.291 3.18788 -1.14421 0
M  V30 1628 C 163.337 3.58932 -2.3037 0
M  V30 1629 S 164.17 3.63916 -3.92843 0
M  V30 1630 C 165.326 5.03298 -3.72078 0
M  V30 1631 H 165.559 1.85129 -2.32625 0
M  V30 1632 H 163.092 0.865671 -1.2785 0
M  V30 1633 H 165.05 3.97677 -1.018 0
M  V30 1634 H 163.711 3.13404 -0.20905 0
M  V30 1635 H 162.904 4.58202 -2.09922 0
M  V30 1636 H 162.506 2.87347 -2.39391 0
M  V30 1637 H 164.798 5.90753 -3.31688 0
M  V30 1638 H 165.741 5.28788 -4.70945 0
M  V30 1639 H 166.149 4.74764 -3.05384 0
M  V30 1640 N 165.547 1.27147 0.931209 0
M  V30 1641 C 166.824 1.0401 1.65654 0
M  V30 1642 C 167.204 -0.426297 2.06751 0
M  V30 1643 O 166.552 -1.40879 1.79904 0
M  V30 1644 C 166.762 1.99834 2.86125 0
M  V30 1645 C 168.11 2.29007 3.57549 0
M  V30 1646 O 169.134 1.97779 2.96246 0
M  V30 1647 O 167.993 2.82222 4.67989 0
M  V30 1648 H 165.087 0.396239 0.725895 0
M  V30 1649 H 167.633 1.38397 0.982056 0
M  V30 1650 H 166.405 2.98744 2.52721 0
M  V30 1651 H 166.028 1.65987 3.61295 0
M  V30 1652 N 167.025 -1.13721 1.09112 0
M  V30 1653 C 168.253 -1.88773 0.846899 0
M  V30 1654 C 168.668 -1.7896 -0.601572 0
M  V30 1655 O 168.025 -1.15394 -1.41388 0
M  V30 1656 C 168.076 -3.3849 1.26913 0
M  V30 1657 O 167.797 -3.48043 2.66079 0
M  V30 1658 C 169.298 -4.30518 1.05682 0
M  V30 1659 H 166.518 -0.59772 0.304914 0
M  V30 1660 H 169.062 -1.43977 1.45227 0
M  V30 1661 H 167.217 -3.80881 0.707723 0
M  V30 1662 H 167.631 -4.4109 2.83795 0
M  V30 1663 H 169.105 -5.3391 1.40156 0
M  V30 1664 H 169.582 -4.392 -0.00563416 0
M  V30 1665 H 170.188 -3.93893 1.60402 0
M  V30 1666 N 168.503 -0.877838 -1.30888 0
M  V30 1667 C 169.751 -0.491723 -1.96027 0
M  V30 1668 C 170.072 0.960827 -1.69685 0
M  V30 1669 O 169.342 1.67462 -1.01654 0
M  V30 1670 H 167.922 -0.17885 -0.725273 0
M  V30 1671 H 170.584 -1.11935 -1.59551 0
M  V30 1672 H 169.68 -0.656016 -3.05128 0
M  V30 1673 N 169.982 1.44106 -0.638065 0
M  V30 1674 C 171.21 2.06336 -0.152615 0
M  V30 1675 C 171.625 1.47731 1.17563 0
M  V30 1676 O 170.982 0.602806 1.72257 0
M  V30 1677 C 171.033 3.61479 -0.0391491 0
M  V30 1678 O 170.754 4.17903 -1.31487 0
M  V30 1679 C 172.255 4.40757 0.474176 0
M  V30 1680 H 169.475 0.665862 -0.0828776 0
M  V30 1681 H 172.019 1.84862 -0.87443 0
M  V30 1682 H 170.174 3.82191 0.633142 0
M  V30 1683 H 170.588 5.11416 -1.16421 0
M  V30 1684 H 172.062 5.49707 0.502562 0
M  V30 1685 H 172.539 4.12697 1.50258 0
M  V30 1686 H 173.145 4.24979 -0.165102 0
M  V30 1687 N 171.46 0.379036 1.52974 0
M  V30 1688 C 172.407 -0.461048 2.26148 0
M  V30 1689 C 173.377 -1.06637 1.27349 0
M  V30 1690 O 174.562 -1.09633 1.56157 0
M  V30 1691 C 171.702 -1.58782 3.06402 0
M  V30 1692 C 170.815 -1.00636 4.20115 0
M  V30 1693 C 169.95 -2.10334 4.87784 0
M  V30 1694 C 168.989 -1.49724 5.93506 0
M  V30 1695 N 168.126 -2.5331 6.54812 0
M  V30 1696 H 172.966 0.169429 2.97518 0
M  V30 1697 H 170.503 0.0953806 1.4679 0
M  V30 1698 H 172.461 -2.25174 3.51215 0
M  V30 1699 H 171.091 -2.18876 2.37261 0
M  V30 1700 H 170.143 -0.232332 3.7969 0
M  V30 1701 H 171.455 -0.523343 4.96047 0
M  V30 1702 H 170.609 -2.84519 5.35849 0
M  V30 1703 H 169.348 -2.61992 4.11353 0
M  V30 1704 H 168.353 -0.740598 5.44789 0
M  V30 1705 H 169.578 -0.988732 6.71864 0
M  V30 1706 H 167.524 -3.04156 5.81227 0
M  V30 1707 H 167.441 -2.09734 7.26325 0
M  V30 1708 H 168.709 -3.27155 7.07524 0
M  V30 1709 N 172.938 -1.57226 0.108567 0
M  V30 1710 C 173.848 -2.18292 -0.859401 0
M  V30 1711 C 174.864 -1.15612 -1.30038 0
M  V30 1712 O 176.04 -1.48039 -1.36552 0
M  V30 1713 C 173.105 -2.762 -2.09558 0
M  V30 1714 C 172.166 -3.93881 -1.70752 0
M  V30 1715 C 171.399 -4.49018 -2.88477 0
M  V30 1716 O 171.622 -4.03068 -4.036 0
M  V30 1717 O 170.556 -5.39852 -2.66164 0
M  V30 1718 H 174.382 -3.01441 -0.369769 0
M  V30 1719 H 171.967 -1.48945 -0.1165 0
M  V30 1720 H 173.849 -3.13156 -2.81978 0
M  V30 1721 H 172.524 -1.96089 -2.57548 0
M  V30 1722 H 171.431 -3.61713 -0.954714 0
M  V30 1723 H 172.764 -4.75396 -1.27513 0
M  V30 1724 N 174.416 0.165178 -1.56732 0
M  V30 1725 C 175.379 1.18822 -1.95995 0
M  V30 1726 C 176.379 1.3685 -0.84431 0
M  V30 1727 O 177.569 1.34152 -1.11126 0
M  V30 1728 C 174.701 2.5521 -2.26011 0
M  V30 1729 H 175.894 0.851825 -2.87548 0
M  V30 1730 H 173.447 0.407857 -1.50885 0
M  V30 1731 H 174.182 2.93852 -1.37191 0
M  V30 1732 H 173.967 2.43489 -3.07336 0
M  V30 1733 H 175.457 3.28927 -2.57288 0
M  V30 1734 N 175.894 1.51508 0.433938 0
M  V30 1735 C 177.142 1.6402 1.18075 0
M  V30 1736 C 177.463 0.360328 1.91642 0
M  V30 1737 O 176.733 -0.623945 1.85698 0
M  V30 1738 H 175.313 0.6045 0.43885 0
M  V30 1739 H 177.975 1.88452 0.497178 0
M  V30 1740 H 177.071 2.46949 1.90847 0
M  V30 1741 N 177.372 -0.689602 1.41712 0
M  V30 1742 C 178.319 -1.80345 1.44029 0
M  V30 1743 C 179.289 -1.63478 0.293948 0
M  V30 1744 O 180.474 -1.84244 0.495869 0
M  V30 1745 C 177.614 -3.18272 1.33405 0
M  V30 1746 C 176.727 -3.46529 2.57956 0
M  V30 1747 C 175.862 -4.74103 2.39582 0
M  V30 1748 C 174.901 -4.95347 3.5958 0
M  V30 1749 N 174.038 -6.14151 3.40239 0
M  V30 1750 H 178.878 -1.77698 2.39222 0
M  V30 1751 H 176.415 -0.867688 1.18784 0
M  V30 1752 H 178.373 -3.97956 1.25246 0
M  V30 1753 H 177.003 -3.2008 0.418164 0
M  V30 1754 H 176.055 -2.61207 2.76542 0
M  V30 1755 H 177.367 -3.58126 3.47199 0
M  V30 1756 H 176.521 -5.61853 2.28924 0
M  V30 1757 H 175.26 -4.64763 1.47805 0
M  V30 1758 H 174.265 -4.06044 3.70686 0
M  V30 1759 H 175.49 -5.06542 4.52318 0
M  V30 1760 H 173.436 -6.06013 2.51167 0
M  V30 1761 H 173.353 -6.26543 4.23061 0
M  V30 1762 H 174.621 -7.04619 3.33365 0
M  V30 1763 N 178.85 -1.27639 -0.924453 0
M  V30 1764 C 180.127 -1.04887 -1.651 0
M  V30 1765 C 180.507 0.415327 -2.06974 0
M  V30 1766 O 179.855 1.39923 -1.80648 0
M  V30 1767 C 180.065 -2.01348 -2.85061 0
M  V30 1768 C 181.413 -2.30899 -3.56329 0
M  V30 1769 O 182.437 -1.99348 -2.95193 0
M  V30 1770 O 181.296 -2.84699 -4.66485 0
M  V30 1771 H 178.39 -0.400083 -0.723784 0
M  V30 1772 H 180.936 -1.38916 -0.974703 0
M  V30 1773 H 179.708 -3.0008 -2.51133 0
M  V30 1774 H 179.331 -1.679 -3.6041 0
M  V30 1775 N 180.328 1.1314 -1.09713 0
M  V30 1776 C 181.576 1.84119 -0.833338 0
M  V30 1777 C 181.897 1.84097 0.642904 0
M  V30 1778 O 181.167 1.29881 1.46655 0
M  V30 1779 H 179.747 0.681766 -0.305293 0
M  V30 1780 H 182.409 1.37038 -1.38588 0
M  V30 1781 H 181.505 2.88543 -1.18951 0
M  V30 1782 N 181.806 0.884767 1.30421 0
M  V30 1783 C 183.222 0.57874 1.48737 0
M  V30 1784 C 183.422 -0.883567 1.81095 0
M  V30 1785 O 182.478 -1.6648 1.89844 0
M  V30 1786 C 183.791 1.49171 2.61091 0
M  V30 1787 C 185.339 1.49532 2.74971 0
M  V30 1788 C 185.814 2.39421 3.90438 0
M  V30 1789 N 187.305 2.37383 3.97748 0
M  V30 1790 C 188.04 3.03647 4.86401 0
M  V30 1791 N 187.536 3.79136 5.79852 0
M  V30 1792 N 189.329 2.9288 4.79768 0
M  V30 1793 H 181.48 1.83075 1.0769 0
M  V30 1794 H 183.743 0.783637 0.533495 0
M  V30 1795 H 183.449 2.53291 2.44001 0
M  V30 1796 H 183.323 1.20113 3.57565 0
M  V30 1797 H 185.71 0.46163 2.91467 0
M  V30 1798 H 185.791 1.8262 1.79119 0
M  V30 1799 H 185.435 3.42874 3.74699 0
M  V30 1800 H 185.365 2.03649 4.85628 0
M  V30 1801 H 187.856 1.82525 3.30897 0
M  V30 1802 H 188.169 4.26789 6.4426 0
M  V30 1803 H 186.514 3.83243 5.79784 0
M  V30 1804 H 189.705 2.33433 4.05742 0
M  V30 1805 H 189.878 3.448 5.4865 0
M  V30 1806 N 183.284 -1.43765 0.645699 0
M  V30 1807 C 184.194 -2.34544 -0.0512957 0
M  V30 1808 C 185.21 -1.53455 -0.82022 0
M  V30 1809 O 186.386 -1.86133 -0.769176 0
M  V30 1810 C 183.451 -3.31636 -1.01087 0
M  V30 1811 C 182.512 -4.2863 -0.239712 0
M  V30 1812 C 181.745 -5.21084 -1.15358 0
M  V30 1813 O 181.968 -5.1779 -2.39269 0
M  V30 1814 O 180.902 -5.98593 -0.630038 0
M  V30 1815 H 184.728 -2.95624 0.695718 0
M  V30 1816 H 182.313 -1.43781 0.405882 0
M  V30 1817 H 184.195 -3.9136 -1.56254 0
M  V30 1818 H 182.87 -2.73069 -1.73824 0
M  V30 1819 H 181.777 -3.72408 0.355356 0
M  V30 1820 H 183.11 -4.90157 0.447936 0
M  V30 1821 N 184.763 -0.387143 -1.52771 0
M  V30 1822 C 185.711 0.463953 -2.27926 0
M  V30 1823 C 186.705 1.06493 -1.31741 0
M  V30 1824 O 187.911 1.00565 -1.49287 0
M  V30 1825 H 184.286 0.16837 -0.732909 0
M  V30 1826 H 186.257 -0.19141 -2.97785 0
M  V30 1827 C 185.006 1.5803 -3.09713 0
M  V30 1828 H 184.329 1.12718 -3.83581 0
M  V30 1829 H 185.769 2.15008 -3.65442 0
M  V30 1830 C 184.228 2.53509 -2.2189 0
M  V30 1831 O 184.758 3.56863 -1.84422 0
M  V30 1832 N 182.964 2.23199 -1.86093 0
M  V30 1833 H 182.511 1.39185 -2.16761 0
M  V30 1834 H 182.469 2.87333 -1.27621 0
M  V30 1835 N 186.241 1.57166 -0.116904 0
M  V30 1836 C 187.469 1.99473 0.549383 0
M  V30 1837 C 187.884 0.996541 1.60357 0
M  V30 1838 O 187.241 -0.0108731 1.82497 0
M  V30 1839 C 187.292 3.41788 1.17741 0
M  V30 1840 O 187.013 4.37788 0.165362 0
M  V30 1841 C 188.514 3.99216 1.92722 0
M  V30 1842 H 185.734 0.655009 0.145616 0
M  V30 1843 H 188.278 2.03494 -0.202625 0
M  V30 1844 H 186.433 3.38713 1.88021 0
M  V30 1845 H 186.847 5.20806 0.621403 0
M  V30 1846 H 188.321 5.00882 2.31995 0
M  V30 1847 H 188.798 3.3824 2.80161 0
M  V30 1848 H 189.404 4.0583 1.27209 0
M  V30 1849 N 187.719 -0.156864 1.56817 0
M  V30 1850 C 188.947 -0.886316 1.86955 0
M  V30 1851 C 189.362 -1.75185 0.703975 0
M  V30 1852 O 188.719 -1.79555 -0.326552 0
M  V30 1853 C 188.77 -1.75117 3.16253 0
M  V30 1854 O 188.491 -0.920537 4.2832 0
M  V30 1855 C 189.992 -2.58905 3.59837 0
M  V30 1856 H 187.212 -0.25678 0.619923 0
M  V30 1857 H 189.756 -0.152615 2.0393 0
M  V30 1858 H 187.911 -2.43805 3.01062 0
M  V30 1859 H 188.325 -1.51337 5.02192 0
M  V30 1860 H 189.799 -3.1518 4.53172 0
M  V30 1861 H 190.276 -3.34472 2.84649 0
M  V30 1862 H 190.882 -1.95526 3.7769 0
M  V30 1863 N 189.197 -1.51736 -0.425897 0
M  V30 1864 C 190.127 -1.76827 -1.52494 0
M  V30 1865 C 191.108 -0.618524 -1.58456 0
M  V30 1866 O 192.293 -0.862416 -1.74 0
M  V30 1867 C 189.423 -1.90374 -2.90474 0
M  V30 1868 C 188.377 -3.0588 -2.99369 0
M  V30 1869 C 187.703 -3.04625 -4.3944 0
M  V30 1870 C 189.003 -4.45644 -2.72394 0
M  V30 1871 H 190.697 -2.68855 -1.31748 0
M  V30 1872 H 188.243 -1.29372 -0.632362 0
M  V30 1873 H 190.196 -2.0651 -3.6733 0
M  V30 1874 H 188.92 -0.95004 -3.12477 0
M  V30 1875 H 187.579 -2.89467 -2.24954 0
M  V30 1876 H 187.227 -2.0701 -4.58428 0
M  V30 1877 H 186.927 -3.82195 -4.46319 0
M  V30 1878 H 188.451 -3.22869 -5.18255 0
M  V30 1879 H 189.865 -4.62348 -3.38979 0
M  V30 1880 H 188.262 -5.25006 -2.9067 0
M  V30 1881 H 189.332 -4.54893 -1.67929 0
M  V30 1882 N 190.675 0.682077 -1.42076 0
M  V30 1883 C 191.605 1.80796 -1.47767 0
M  V30 1884 C 192.586 1.6677 -0.334954 0
M  V30 1885 O 193.771 1.863 -0.548264 0
M  V30 1886 C 190.901 3.19038 -1.37229 0
M  V30 1887 C 189.855 3.47789 -2.49453 0
M  V30 1888 C 189.181 4.8553 -2.23975 0
M  V30 1889 C 190.481 3.45411 -3.91776 0
M  V30 1890 H 192.175 1.7629 -2.41997 0
M  V30 1891 H 189.721 0.846721 -1.16476 0
M  V30 1892 H 191.674 3.97528 -1.39821 0
M  V30 1893 H 190.398 3.24204 -0.394907 0
M  V30 1894 H 189.057 2.71657 -2.46166 0
M  V30 1895 H 188.705 4.87337 -1.24547 0
M  V30 1896 H 188.405 5.0573 -2.99184 0
M  V30 1897 H 189.929 5.66312 -2.28304 0
M  V30 1898 H 191.343 4.13882 -3.96705 0
M  V30 1899 H 189.74 3.77145 -4.66778 0
M  V30 1900 H 190.81 2.44122 -4.18966 0
M  V30 1901 N 192.153 1.28127 0.917671 0
M  V30 1902 C 193.103 1.08361 2.00604 0
M  V30 1903 C 194.087 0.00847518 1.60898 0
M  V30 1904 O 195.279 0.228167 1.75523 0
M  V30 1905 C 192.408 0.743376 3.35155 0
M  V30 1906 C 191.494 1.85716 3.81275 0
M  V30 1907 N 191.885 3.09822 3.99805 0
M  V30 1908 C 190.183 1.74612 4.10398 0
M  V30 1909 C 190.884 3.82368 4.38372 0
M  V30 1910 N 189.86 3.10192 4.4641 0
M  V30 1911 H 193.662 2.02531 2.12975 0
M  V30 1912 H 191.176 1.18989 1.10523 0
M  V30 1913 H 193.173 0.582859 4.12805 0
M  V30 1914 H 191.833 -0.190595 3.2414 0
M  V30 1915 H 192.844 3.45475 3.85833 0
M  V30 1916 H 189.521 0.883657 4.08041 0
M  V30 1917 H 190.911 4.89082 4.60704 0
M  V30 1918 N 193.631 -1.12557 1.10312 0
M  V30 1919 C 194.856 -1.88405 0.867085 0
M  V30 1920 C 195.281 -1.79038 -0.576817 0
M  V30 1921 O 194.639 -1.14439 -1.40618 0
M  V30 1922 C 194.687 -3.3563 1.31851 0
M  V30 1923 O 193.791 -4.09565 0.482734 0
M  V30 1924 H 193.132 -0.585455 0.313271 0
M  V30 1925 H 195.662 -1.42352 1.4696 0
M  V30 1926 H 195.672 -3.86469 1.3079 0
M  V30 1927 H 194.347 -3.41765 2.37001 0
M  V30 1928 H 192.924 -3.68695 0.558448 0
M  V30 1929 N 195.109 -0.891671 -1.2995 0
M  V30 1930 C 196.52 -0.563104 -1.78006 0
M  V30 1931 C 196.871 0.920978 -1.73241 0
M  V30 1932 O 195.996 1.71987 -1.31337 0
M  V30 1933 C 196.591 -1.01539 -3.23226 0
M  V30 1934 C 195.15 -0.738124 -3.69092 0
M  V30 1935 C 194.297 -1.19461 -2.50249 0
M  V30 1936 H 197.248 -1.07522 -1.16725 0
M  V30 1937 H 197.269 -0.347217 -3.78912 0
M  V30 1938 H 196.781 -2.09555 -3.26662 0
M  V30 1939 H 194.882 0.329766 -3.71138 0
M  V30 1940 H 194.995 -1.33037 -4.60259 0
M  V30 1941 H 193.359 -0.613787 -2.47194 0
M  V30 1942 H 194.142 -2.28265 -2.56417 0
M  V30 1943 N 196.587 1.43421 -0.653314 0
M  V30 1944 C 197.835 2.01414 -0.166415 0
M  V30 1945 C 198.156 1.51803 1.22397 0
M  V30 1946 O 197.426 0.730693 1.81763 0
M  V30 1947 H 196.006 0.744703 -0.0585319 0
M  V30 1948 H 198.668 1.75629 -0.845003 0
M  V30 1949 H 197.764 3.11734 -0.151111 0
M  V30 1950 N 198.065 0.39524 1.52563 0
M  V30 1951 C 199.293 -0.184943 2.06072 0
M  V30 1952 C 199.708 -1.40021 1.26647 0
M  V30 1953 O 199.065 -1.79767 0.314672 0
M  V30 1954 C 199.116 -0.549179 3.57304 0
M  V30 1955 O 198.837 0.617813 4.33722 0
M  V30 1956 C 200.338 -1.18459 4.2718 0
M  V30 1957 H 197.558 -0.0265025 0.670476 0
M  V30 1958 H 200.102 0.562184 1.96621 0
M  V30 1959 H 198.257 -1.2462 3.66809 0
M  V30 1960 H 198.671 0.317091 5.23541 0
M  V30 1961 H 200.145 -1.38976 5.34219 0
M  V30 1962 H 200.622 -2.15368 3.82771 0
M  V30 1963 H 201.228 -0.528163 4.22008 0
M  V30 1964 N 199.544 -1.57102 0.125237 0
M  V30 1965 C 200.474 -2.18659 -0.819174 0
M  V30 1966 C 201.455 -1.12843 -1.27281 0
M  V30 1967 O 202.64 -1.41104 -1.33429 0
M  V30 1968 C 199.77 -2.79096 -2.06695 0
M  V30 1969 C 198.724 -3.90548 -1.75088 0
M  V30 1970 C 198.05 -4.37821 -3.06948 0
M  V30 1971 C 199.35 -5.12356 -1.01435 0
M  V30 1972 H 201.044 -2.9783 -0.306202 0
M  V30 1973 H 198.59 -1.4326 -0.145839 0
M  V30 1974 H 200.543 -3.2082 -2.73226 0
M  V30 1975 H 199.267 -1.97223 -2.60328 0
M  V30 1976 H 197.926 -3.49409 -1.10944 0
M  V30 1977 H 197.574 -3.52799 -3.58527 0
M  V30 1978 H 197.274 -5.12982 -2.86571 0
M  V30 1979 H 198.798 -4.822 -3.74587 0
M  V30 1980 H 200.212 -5.5106 -1.58132 0
M  V30 1981 H 198.609 -5.9314 -0.911319 0
M  V30 1982 H 199.679 -4.849 -0.00218681 0
M  V30 1983 N 201.022 0.148545 -1.56898 0
M  V30 1984 C 201.972 1.1886 -1.94567 0
M  V30 1985 C 202.956 1.3863 -0.816735 0
M  V30 1986 O 204.148 1.40218 -1.08018 0
M  V30 1987 C 201.277 2.52262 -2.32849 0
M  V30 1988 C 200.363 2.36092 -3.52309 0
M  V30 1989 N 200.754 1.89674 -4.6889 0
M  V30 1990 C 199.052 2.66848 -3.57363 0
M  V30 1991 C 199.753 1.86511 -5.50989 0
M  V30 1992 N 198.729 2.29766 -4.92655 0
M  V30 1993 H 202.531 0.821793 -2.82177 0
M  V30 1994 H 200.045 0.356615 -1.58436 0
M  V30 1995 H 202.042 3.27447 -2.58039 0
M  V30 1996 H 200.702 2.89727 -1.46589 0
M  V30 1997 H 201.713 1.59663 -4.92674 0
M  V30 1998 H 198.39 3.08198 -2.81639 0
M  V30 1999 H 199.78 1.52128 -6.54452 0
M  V30 2000 N 202.5 1.5196 0.417844 0
M  V30 2001 C 203.463 1.74065 1.49111 0
M  V30 2002 C 204.463 0.610537 1.48758 0
M  V30 2003 O 205.653 0.87832 1.50437 0
M  V30 2004 C 202.785 1.81502 2.88565 0
M  V30 2005 H 203.978 2.69869 1.30807 0
M  V30 2006 H 201.531 1.42244 0.647785 0
M  V30 2007 H 202.266 0.875813 3.1225 0
M  V30 2008 H 202.051 2.63651 2.90225 0
M  V30 2009 H 203.541 2.00376 3.66387 0
M  V30 2010 N 203.978 -0.674533 1.42435 0
M  V30 2011 C 204.941 -1.76986 1.45632 0
M  V30 2012 C 205.941 -1.5708 0.343871 0
M  V30 2013 O 207.131 -1.63367 0.604709 0
M  V30 2014 C 204.263 -3.15623 1.28822 0
M  V30 2015 H 205.456 -1.75539 2.43158 0
M  V30 2016 H 203.009 -0.884189 1.28887 0
M  V30 2017 H 203.744 -3.22696 0.322193 0
M  V30 2018 H 203.529 -3.31475 2.09444 0
M  V30 2019 H 205.019 -3.95537 1.33942 0
M  V30 2020 N 205.456 -1.28612 -0.910864 0
M  V30 2021 C 206.419 -1.12803 -1.9952 0
M  V30 2022 C 207.419 -0.0668264 -1.60661 0
M  V30 2023 O 208.609 -0.312847 -1.71368 0
M  V30 2024 C 205.741 -0.72254 -3.33155 0
M  V30 2025 H 206.934 -2.09109 -2.14973 0
M  V30 2026 H 204.487 -1.11639 -1.09391 0
M  V30 2027 H 205.222 0.241152 -3.23402 0
M  V30 2028 H 205.007 -1.48916 -3.62721 0
M  V30 2029 H 206.497 -0.634666 -4.12749 0
M  V30 2030 N 206.934 1.1197 -1.10907 0
M  V30 2031 C 207.881 2.17846 -0.762345 0
M  V30 2032 C 208.851 1.63995 0.263599 0
M  V30 2033 O 210.036 1.90273 0.141773 0
M  V30 2034 C 207.176 3.44487 -0.205651 0
M  V30 2035 C 206.289 4.12369 -1.28748 0
M  V30 2036 C 205.424 5.26674 -0.691919 0
M  V30 2037 C 204.463 5.86431 -1.75399 0
M  V30 2038 N 203.6 6.92142 -1.17833 0
M  V30 2039 H 208.44 2.46851 -1.6694 0
M  V30 2040 H 205.977 1.21188 -0.833776 0
M  V30 2041 H 207.935 4.16981 0.135037 0
M  V30 2042 H 206.565 3.15884 0.664613 0
M  V30 2043 H 205.617 3.38003 -1.74522 0
M  V30 2044 H 206.929 4.52844 -2.09125 0
M  V30 2045 H 206.083 6.05953 -0.300963 0
M  V30 2046 H 204.822 4.8749 0.143232 0
M  V30 2047 H 203.827 5.05835 -2.15432 0
M  V30 2048 H 205.052 6.27685 -2.59208 0
M  V30 2049 H 202.998 6.54985 -0.364725 0
M  V30 2050 H 202.915 7.31242 -1.91887 0
M  V30 2051 H 204.183 7.75237 -0.81408 0
M  V30 2052 N 208.412 0.89855 1.29475 0
M  V30 2053 C 209.64 0.539261 1.99749 0
M  V30 2054 C 210.055 -0.875716 1.67262 0
M  V30 2055 O 209.412 -1.57786 0.917049 0
M  V30 2056 C 209.463 0.72061 3.54245 0
M  V30 2057 O 209.184 2.07989 3.8558 0
M  V30 2058 C 210.685 0.366118 4.41786 0
M  V30 2059 H 207.905 0.207047 0.638258 0
M  V30 2060 H 210.449 1.20758 1.65039 0
M  V30 2061 H 208.604 0.0994862 3.87272 0
M  V30 2062 H 209.018 2.10841 4.80257 0
M  V30 2063 H 210.492 0.543848 5.49314 0
M  V30 2064 H 210.969 -0.696763 4.33638 0
M  V30 2065 H 211.575 0.964135 4.14228 0
M  V30 2066 N 209.89 -1.43072 0.660911 0
M  V30 2067 C 211.137 -2.01721 0.177445 0
M  V30 2068 C 211.465 -1.5218 -1.21126 0
M  V30 2069 O 210.72 -0.708659 -1.82419 0
M  V30 2070 C 211.019 -3.57103 0.145563 0
M  V30 2071 C 210.685 -4.26021 1.47705 0
M  V30 2072 C 209.347 -4.44563 1.84165 0
M  V30 2073 C 211.699 -4.64983 2.35458 0
M  V30 2074 C 209.027 -4.99334 3.0803 0
M  V30 2075 C 211.379 -5.21127 3.58622 0
M  V30 2076 C 210.043 -5.37884 3.95268 0
M  V30 2077 H 209.313 -0.73815 0.0649317 0
M  V30 2078 H 211.96 -1.71446 0.853144 0
M  V30 2079 H 210.265 -3.86965 -0.61361 0
M  V30 2080 H 211.962 -4.00248 -0.2455 0
M  V30 2081 H 208.552 -4.11939 1.18339 0
M  V30 2082 H 212.736 -4.50343 2.08579 0
M  V30 2083 H 207.992 -5.10493 3.36462 0
M  V30 2084 H 212.166 -5.50262 4.26831 0
M  V30 2085 H 209.793 -5.80089 4.91325 0
M  V30 2086 N 211.368 -0.403325 -1.52352 0
M  V30 2087 C 212.593 0.176499 -2.06648 0
M  V30 2088 C 213.018 1.38577 -1.27193 0
M  V30 2089 O 212.376 1.7879 -0.300637 0
M  V30 2090 C 212.424 0.511061 -3.5696 0
M  V30 2091 O 211.528 1.60294 -3.79973 0
M  V30 2092 H 210.869 0.0167337 -0.663789 0
M  V30 2093 H 213.399 -0.574848 -1.96359 0
M  V30 2094 H 213.409 0.771362 -4.00642 0
M  V30 2095 H 212.084 -0.37296 -4.14224 0
M  V30 2096 H 210.661 1.33526 -3.48174 0
M  V30 2097 N 212.846 1.57033 -0.133567 0
M  V30 2098 C 214.257 1.82593 0.389464 0
M  V30 2099 C 214.608 1.05156 1.6564 0
M  V30 2100 O 213.733 0.292644 2.14412 0
M  V30 2101 C 214.328 3.31204 0.713377 0
M  V30 2102 C 212.887 3.57393 1.18098 0
M  V30 2103 C 212.034 2.76598 0.197126 0
M  V30 2104 H 214.985 1.54598 -0.358481 0
M  V30 2105 H 215.006 3.46627 1.56939 0
M  V30 2106 H 214.518 3.87537 -0.2089 0
M  V30 2107 H 212.619 3.06433 2.11966 0
M  V30 2108 H 212.732 4.65915 1.11624 0
M  V30 2109 H 211.096 2.45257 0.687088 0
M  V30 2110 H 211.879 3.35697 -0.718504 0
M  V30 2111 N 214.325 -0.140222 1.56975 0
M  V30 2112 C 215.741 -0.493088 1.51792 0
M  V30 2113 C 215.941 -1.83013 0.843116 0
M  V30 2114 O 214.997 -2.49041 0.416493 0
M  V30 2115 C 216.31 -0.497144 2.96562 0
M  V30 2116 C 217.858 -0.582186 3.07538 0
M  V30 2117 C 218.333 -0.616838 4.53827 0
M  V30 2118 N 219.824 -0.678873 4.58198 0
M  V30 2119 C 220.559 -0.726782 5.68775 0
M  V30 2120 N 220.055 -0.733623 6.88905 0
M  V30 2121 N 221.848 -0.768179 5.56826 0
M  V30 2122 H 213.999 0.736108 1.99237 0
M  V30 2123 H 216.262 0.269182 0.90898 0
M  V30 2124 H 215.968 0.417217 3.49217 0
M  V30 2125 H 215.842 -1.33263 3.52875 0
M  V30 2126 H 218.229 -1.48697 2.54899 0
M  V30 2127 H 218.31 0.280581 2.54257 0
M  V30 2128 H 217.954 0.283812 5.07106 0
M  V30 2129 H 217.884 -1.49619 5.04898 0
M  V30 2130 H 220.375 -0.68061 3.7172 0
M  V30 2131 H 220.688 -0.772215 7.68932 0
M  V30 2132 H 219.033 -0.701389 6.91452 0
M  V30 2133 H 222.224 -0.760051 4.61888 0
M  V30 2134 H 222.397 -0.80205 6.43017 0
M  V30 2135 N 215.803 -1.52179 -0.40978 0
M  V30 2136 C 217.049 -1.66453 -1.15851 0
M  V30 2137 C 217.382 -0.392972 -1.90182 0
M  V30 2138 O 216.657 0.608579 -1.84734 0
M  V30 2139 C 216.94 -2.88612 -2.15349 0
M  V30 2140 C 216.793 -4.25815 -1.44918 0
M  V30 2141 C 218.112 -3.06294 -3.16026 0
M  V30 2142 H 215.231 -0.60575 -0.419805 0
M  V30 2143 H 217.873 -1.84732 -0.444314 0
M  V30 2144 H 216.023 -2.73158 -2.76255 0
M  V30 2145 H 217.695 -4.52995 -0.871365 0
M  V30 2146 H 215.938 -4.27247 -0.751159 0
M  V30 2147 H 216.609 -5.07337 -2.17516 0
M  V30 2148 H 219.085 -3.20641 -2.65195 0
M  V30 2149 H 217.961 -3.93283 -3.8291 0
M  V30 2150 H 218.222 -2.19579 -3.83715 0
M  V30 2151 N 217.281 0.66697 -1.42791 0
M  V30 2152 C 218.697 0.981027 -1.25889 0
M  V30 2153 C 218.897 2.00793 -0.168695 0
M  V30 2154 O 217.953 2.48321 0.45747 0
M  V30 2155 C 219.266 1.47838 -2.61848 0
M  V30 2156 C 220.814 1.59575 -2.69267 0
M  V30 2157 C 221.289 2.12704 -4.05612 0
M  V30 2158 N 222.78 2.20026 -4.07606 0
M  V30 2159 C 223.515 2.62227 -5.09926 0
M  V30 2160 N 223.011 3.03824 -6.22626 0
M  V30 2161 N 224.804 2.62045 -4.97281 0
M  V30 2162 H 216.955 -0.0127891 -2.12396 0
M  V30 2163 H 219.218 0.0568258 -0.946295 0
M  V30 2164 H 218.924 0.798299 -3.4252 0
M  V30 2165 H 218.798 2.45579 -2.86305 0
M  V30 2166 H 221.185 2.26687 -1.88936 0
M  V30 2167 H 221.266 0.60302 -2.48591 0
M  V30 2168 H 220.91 1.46198 -4.86404 0
M  V30 2169 H 220.84 3.12782 -4.23645 0
M  V30 2170 H 223.331 1.90708 -3.2625 0
M  V30 2171 H 223.644 3.34734 -6.96544 0
M  V30 2172 H 221.989 3.01662 -6.26119 0
M  V30 2173 H 225.18 2.28916 -4.08308 0
M  V30 2174 H 225.353 2.94613 -5.77154 0
M  V30 2175 N 218.759 1.29093 0.90403 0
M  V30 2176 C 220.175 1.07011 1.1841 0
M  V30 2177 C 220.375 -0.181358 2.00682 0
M  V30 2178 O 219.431 -0.880331 2.36657 0
M  V30 2179 C 220.744 2.32311 1.90924 0
M  V30 2180 C 222.292 2.37587 2.03768 0
M  V30 2181 C 222.767 3.62679 2.79693 0
M  V30 2182 N 224.258 3.63376 2.87249 0
M  V30 2183 C 224.993 4.56848 3.46522 0
M  V30 2184 N 224.489 5.60648 4.06996 0
M  V30 2185 N 226.282 4.44426 3.44154 0
M  V30 2186 H 218.433 2.09412 0.354993 0
M  V30 2187 H 220.696 0.922181 0.219742 0
M  V30 2188 H 220.402 3.23536 1.37905 0
M  V30 2189 H 220.276 2.39483 2.91424 0
M  V30 2190 H 222.663 1.46853 2.55965 0
M  V30 2191 H 222.744 2.34403 1.02415 0
M  V30 2192 H 222.388 4.53762 2.28173 0
M  V30 2193 H 222.318 3.63119 3.81381 0
M  V30 2194 H 224.809 2.88321 2.44293 0
M  V30 2195 H 225.122 6.28101 4.50232 0
M  V30 2196 H 223.467 5.64463 4.05471 0
M  V30 2197 H 226.658 3.62529 2.96126 0
M  V30 2198 H 226.831 5.17457 3.90054 0
M  V30 2199 N 220.237 -1.11381 1.11499 0
M  V30 2200 C 221.2 -2.15622 0.777153 0
M  V30 2201 C 222.2 -1.59504 -0.203779 0
M  V30 2202 O 223.39 -1.74188 0.020782 0
M  V30 2203 C 220.522 -3.40556 0.153116 0
M  V30 2204 H 221.715 -2.47021 1.70061 0
M  V30 2205 H 219.268 -1.26577 0.916952 0
M  V30 2206 H 220.003 -3.14767 -0.780536 0
M  V30 2207 H 219.788 -3.8257 0.859238 0
M  V30 2208 H 221.278 -4.17546 -0.0671044 0
M  V30 2209 N 221.715 -0.905404 -1.28997 0
M  V30 2210 C 222.943 -0.549846 -1.9946 0
M  V30 2211 C 223.358 0.866834 -1.67724 0
M  V30 2212 O 222.715 1.57298 -0.925404 0
M  V30 2213 C 222.766 -0.739387 -3.53858 0
M  V30 2214 O 222.487 -2.10031 -3.84472 0
M  V30 2215 C 223.988 -0.389541 -4.41585 0
M  V30 2216 H 221.208 -0.210429 -0.637151 0
M  V30 2217 H 223.752 -1.21632 -1.64396 0
M  V30 2218 H 221.907 -0.120023 -3.87214 0
M  V30 2219 H 222.321 -2.13385 -4.79132 0
M  V30 2220 H 223.795 -0.572972 -5.49018 0
M  V30 2221 H 224.272 0.673756 -4.34001 0
M  V30 2222 H 224.878 -0.986089 -4.1371 0
M  V30 2223 N 223.193 1.4272 -0.668489 0
M  V30 2224 C 224.421 2.05966 -0.196348 0
M  V30 2225 C 224.836 1.50191 1.14403 0
M  V30 2226 O 224.193 0.639208 1.7094 0
M  V30 2227 C 224.244 3.61314 -0.115815 0
M  V30 2228 O 223.965 4.1502 -1.40322 0
M  V30 2229 C 225.466 4.41663 0.380579 0
M  V30 2230 H 222.686 0.663954 -0.0969829 0
M  V30 2231 H 225.23 1.82966 -0.913446 0
M  V30 2232 H 223.385 3.83448 0.551931 0
M  V30 2233 H 223.799 5.08832 -1.27243 0
M  V30 2234 H 225.273 5.5065 0.385848 0
M  V30 2235 H 225.75 4.15792 1.41471 0
M  V30 2236 H 226.356 4.24534 -0.255209 0
M  V30 2237 N 224.671 0.411399 1.52136 0
M  V30 2238 C 225.896 -0.165538 2.06738 0
M  V30 2239 C 226.321 -1.379 1.27926 0
M  V30 2240 O 225.679 -1.78628 0.310114 0
M  V30 2241 C 225.727 -0.492124 3.57226 0
M  V30 2242 O 224.831 -1.58276 3.80818 0
M  V30 2243 H 224.172 -0.0132132 0.663869 0
M  V30 2244 H 226.702 0.585253 1.96051 0
M  V30 2245 H 226.712 -0.750104 4.01045 0
M  V30 2246 H 225.387 0.394922 4.14021 0
M  V30 2247 H 223.964 -1.31677 3.48877 0
M  V30 2248 N 226.149 -1.5696 0.141893 0
M  V30 2249 C 227.565 -1.58151 -0.21456 0
M  V30 2250 C 227.765 -1.1559 -1.65049 0
M  V30 2251 O 226.821 -0.853832 -2.37626 0
M  V30 2252 C 228.134 -3.00674 0.0395576 0
M  V30 2253 C 229.682 -3.1299 -0.0245529 0
M  V30 2254 C 230.157 -4.57554 0.202167 0
M  V30 2255 N 231.648 -4.62961 0.148919 0
M  V30 2256 C 232.383 -5.7262 0.298924 0
M  V30 2257 N 231.879 -6.90947 0.50637 0
M  V30 2258 N 233.672 -5.61601 0.236886 0
M  V30 2259 H 225.823 -1.8292 1.07953 0
M  V30 2260 H 228.086 -0.846425 0.42693 0
M  V30 2261 H 227.792 -3.36183 1.03315 0
M  V30 2262 H 227.666 -3.70981 -0.682143 0
M  V30 2263 H 230.053 -2.77326 -1.00869 0
M  V30 2264 H 230.134 -2.4518 0.729396 0
M  V30 2265 H 229.778 -4.93922 1.18338 0
M  V30 2266 H 229.708 -5.23484 -0.572044 0
M  V30 2267 H 232.199 -3.77899 -0.00697015 0
M  V30 2268 H 232.512 -7.7038 0.611076 0
M  V30 2269 H 230.857 -6.92878 0.542628 0
M  V30 2270 H 234.048 -4.68039 0.0756209 0
M  V30 2271 H 234.221 -6.47015 0.357227 0
M  V30 2272 N 227.627 0.131896 -1.57047 0
M  V30 2273 C 228.855 0.856461 -1.88341 0
M  V30 2274 C 229.27 1.74042 -0.731757 0
M  V30 2275 O 228.627 1.80051 0.297945 0
M  V30 2276 C 228.678 1.70064 -3.18999 0
M  V30 2277 O 228.399 0.852278 -4.2973 0
M  V30 2278 C 229.9 2.53148 -3.63911 0
M  V30 2279 H 227.12 0.246885 -0.62393 0
M  V30 2280 H 229.664 0.120152 -2.04147 0
M  V30 2281 H 227.819 2.38984 -3.04902 0
M  V30 2282 H 228.233 1.43329 -5.04537 0
M  V30 2283 H 229.707 3.07931 -4.58129 0
M  V30 2284 H 230.184 3.29901 -2.89935 0
M  V30 2285 H 230.79 1.89492 -3.80753 0
M  V30 2286 N 229.106 1.52395 0.401703 0
M  V30 2287 C 230.016 1.7917 1.51444 0
M  V30 2288 C 231.032 0.677691 1.6026 0
M  V30 2289 O 232.208 0.963909 1.76835 0
M  V30 2290 C 229.273 1.94347 2.87107 0
M  V30 2291 C 228.334 3.18257 2.88116 0
M  V30 2292 C 227.567 3.32701 4.17308 0
M  V30 2293 O 227.79 2.52238 5.11598 0
M  V30 2294 O 226.724 4.25891 4.25324 0
M  V30 2295 H 230.55 2.73633 1.31752 0
M  V30 2296 H 228.135 1.3733 0.588296 0
M  V30 2297 H 230.017 2.06109 3.67555 0
M  V30 2298 H 228.692 1.03073 3.06851 0
M  V30 2299 H 227.599 3.11947 2.06494 0
M  V30 2300 H 228.932 4.09336 2.73322 0
M  V30 2301 N 230.584 -0.659388 1.43143 0
M  V30 2302 C 232 -0.974337 1.26407 0
M  V30 2303 C 232.2 -2.007 0.179341 0
M  V30 2304 O 231.256 -2.4856 -0.444295 0
M  V30 2305 C 232.569 -1.46447 2.62628 0
M  V30 2306 C 234.117 -1.58144 2.7011 0
M  V30 2307 C 234.592 -2.1055 4.06734 0
M  V30 2308 N 236.083 -2.17861 4.08767 0
M  V30 2309 C 236.818 -2.59519 5.1131 0
M  V30 2310 N 236.314 -3.00518 6.24228 0
M  V30 2311 N 238.107 -2.59404 4.98664 0
M  V30 2312 H 230.258 0.0240528 2.12386 0
M  V30 2313 H 232.521 -0.0518065 0.946583 0
M  V30 2314 H 232.227 -0.780123 3.42939 0
M  V30 2315 H 232.101 -2.44058 2.87603 0
M  V30 2316 H 234.488 -2.25682 1.90136 0
M  V30 2317 H 234.569 -0.589828 2.48907 0
M  V30 2318 H 234.213 -1.43616 4.87172 0
M  V30 2319 H 234.143 -3.10531 4.25298 0
M  V30 2320 H 236.634 -1.88975 3.27257 0
M  V30 2321 H 236.947 -3.31036 6.98309 0
M  V30 2322 H 235.292 -2.98337 6.2771 0
M  V30 2323 H 238.483 -2.26747 4.09516 0
M  V30 2324 H 238.656 -2.91548 5.78709 0
M  V30 2325 N 232.062 -1.29571 -0.897171 0
M  V30 2326 C 233.311 -1.1706 -1.64256 0
M  V30 2327 C 233.624 0.276476 -1.93636 0
M  V30 2328 O 234.83 0.52294 -2.66416 0
M  V30 2329 C 233.286 -2.0475 -2.95982 0
M  V30 2330 C 232.894 -3.54295 -2.74187 0
M  V30 2331 C 234.638 -2.0097 -3.73914 0
M  V30 2332 C 232.545 -4.34081 -4.01656 0
M  V30 2333 H 231.475 -0.43452 -0.616205 0
M  V30 2334 H 234.126 -1.54229 -0.994268 0
M  V30 2335 H 232.508 -1.60452 -3.62038 0
M  V30 2336 H 233.682 -4.06662 -2.1671 0
M  V30 2337 H 231.997 -3.59773 -2.09648 0
M  V30 2338 H 234.594 -2.57838 -4.68427 0
M  V30 2339 H 234.937 -0.990273 -4.0435 0
M  V30 2340 H 235.47 -2.43325 -3.14703 0
M  V30 2341 H 232.209 -5.36671 -3.76384 0
M  V30 2342 H 231.729 -3.86483 -4.58684 0
M  V30 2343 H 233.408 -4.44877 -4.69781 0
M  V30 2344 N 233.54 1.10788 -1.12088 0
M  V30 2345 C 234.786 1.8313 -0.885148 0
M  V30 2346 C 235.141 1.8336 0.582839 0
M  V30 2347 O 234.434 1.28062 1.42516 0
M  V30 2348 C 234.628 3.29294 -1.38926 0
M  V30 2349 C 234.457 3.43302 -2.90472 0
M  V30 2350 C 233.227 3.55928 -3.58669 0
M  V30 2351 C 235.425 3.37014 -3.88492 0
M  V30 2352 N 233.407 3.58475 -4.98366 0
M  V30 2353 C 234.778 3.46263 -5.14298 0
M  V30 2354 C 236.833 3.20589 -3.80955 0
M  V30 2355 C 235.536 3.4078 -6.33452 0
M  V30 2356 C 237.562 3.16427 -4.99628 0
M  V30 2357 C 236.924 3.26253 -6.2429 0
M  V30 2358 H 233.023 0.685054 -0.377128 0
M  V30 2359 H 235.607 1.3251 -1.4265 0
M  V30 2360 H 233.778 3.78416 -0.874999 0
M  V30 2361 H 235.51 3.89578 -1.09596 0
M  V30 2362 H 232.265 3.58779 -3.09151 0
M  V30 2363 H 232.689 3.6337 -5.71219 0
M  V30 2364 H 237.331 3.11873 -2.85474 0
M  V30 2365 H 235.049 3.48263 -7.29204 0
M  V30 2366 H 238.635 3.04874 -4.95523 0
M  V30 2367 H 237.515 3.2303 -7.14578 0
M  V30 2368 N 235.018 0.912232 1.28515 0
M  V30 2369 C 236.429 0.591352 1.77087 0
M  V30 2370 C 236.78 -0.8933 1.74684 0
M  V30 2371 O 235.905 -1.69876 1.34056 0
M  V30 2372 C 236.5 1.06668 3.2157 0
M  V30 2373 C 235.059 0.79675 3.67871 0
M  V30 2374 C 234.206 1.23427 2.48316 0
M  V30 2375 H 237.157 1.09365 1.15 0
M  V30 2376 H 237.178 0.407455 3.78312 0
M  V30 2377 H 236.69 2.14726 3.23287 0
M  V30 2378 H 234.791 -0.270679 3.71616 0
M  V30 2379 H 234.904 1.40343 4.58084 0
M  V30 2380 H 233.268 0.653036 2.46186 0
M  V30 2381 H 234.051 2.32316 2.52753 0
M  V30 2382 N 236.496 -1.42363 0.676048 0
M  V30 2383 C 237.744 -2.01123 0.198437 0
M  V30 2384 C 238.065 -1.53731 -1.19966 0
M  V30 2385 O 237.335 -0.759518 -1.80577 0
M  V30 2386 H 235.915 -0.743678 0.0703721 0
M  V30 2387 H 238.577 -1.74263 0.872837 0
M  V30 2388 H 237.673 -3.11454 0.200686 0
M  V30 2389 N 237.974 -0.419461 -1.51915 0
M  V30 2390 C 239.222 0.152637 -2.01523 0
M  V30 2391 C 239.543 1.44762 -1.30649 0
M  V30 2392 O 238.813 1.90997 -0.435535 0
M  V30 2393 H 237.393 0.0593966 -0.744635 0
M  V30 2394 H 240.055 -0.558073 -1.86739 0
M  V30 2395 H 239.151 0.341369 -3.10227 0
M  V30 2396 N 239.452 1.56882 -0.150215 0
M  V30 2397 C 240.698 1.96518 0.500834 0
M  V30 2398 C 241.031 1.03527 1.64304 0
M  V30 2399 O 240.306 0.0782751 1.94342 0
M  V30 2400 C 240.589 3.45822 1.00395 0
M  V30 2401 C 240.442 4.49591 -0.136983 0
M  V30 2402 C 241.761 3.97704 1.88467 0
M  V30 2403 H 238.88 0.714535 0.18058 0
M  V30 2404 H 241.522 1.88577 -0.232091 0
M  V30 2405 H 239.672 3.5272 1.62851 0
M  V30 2406 H 241.344 4.5477 -0.77343 0
M  V30 2407 H 239.587 4.26441 -0.795652 0
M  V30 2408 H 240.258 5.51402 0.256815 0
M  V30 2409 H 242.734 3.93304 1.35834 0
M  V30 2410 H 241.61 5.0263 2.20578 0
M  V30 2411 H 241.871 3.40252 2.82279 0
M  V30 2412 N 240.93 -0.123565 1.57115 0
M  V30 2413 C 242.179 -0.830704 1.83799 0
M  V30 2414 C 242.492 -1.81259 0.735158 0
M  V30 2415 O 243.698 -2.56558 0.888278 0
M  V30 2416 C 242.154 -1.52802 3.25852 0
M  V30 2417 C 241.762 -0.587356 4.44133 0
M  V30 2418 C 243.506 -2.22056 3.61789 0
M  V30 2419 C 241.413 -1.28764 5.77212 0
M  V30 2420 H 240.343 -0.313967 0.685522 0
M  V30 2421 H 242.994 -0.0834359 1.8331 0
M  V30 2422 H 241.376 -2.32175 3.20797 0
M  V30 2423 H 242.55 0.172829 4.60476 0
M  V30 2424 H 240.865 -0.00201892 4.164 0
M  V30 2425 H 243.462 -2.75131 4.58483 0
M  V30 2426 H 243.805 -2.99644 2.88997 0
M  V30 2427 H 244.338 -1.49576 3.68608 0
M  V30 2428 H 241.077 -0.55314 6.53162 0
M  V30 2429 H 240.597 -2.01995 5.64764 0
M  V30 2430 H 242.276 -1.8221 6.20813 0
M  V30 2431 N 242.408 -1.52605 -0.393616 0
M  V30 2432 C 243.819 -1.59417 -0.971761 0
M  V30 2433 C 244.17 -0.444173 -1.91106 0
M  V30 2434 O 243.295 0.433382 -2.12016 0
M  V30 2435 C 243.89 -2.88936 -1.76921 0
M  V30 2436 C 242.449 -2.98175 -2.29714 0
M  V30 2437 C 241.596 -2.54491 -1.10135 0
M  V30 2438 H 244.547 -1.57751 -0.173317 0
M  V30 2439 H 244.568 -2.75163 -2.62804 0
M  V30 2440 H 244.08 -3.72616 -1.08532 0
M  V30 2441 H 242.181 -2.19024 -3.01429 0
M  V30 2442 H 242.294 -4.02726 -2.59517 0
M  V30 2443 H 240.658 -2.08702 -1.45999 0
M  V30 2444 H 241.441 -3.4056 -0.432874 0
M  V30 2445 N 243.887 0.651787 -1.4349 0
M  V30 2446 C 245.117 1.43728 -1.48411 0
M  V30 2447 C 245.525 1.8893 -0.10103 0
M  V30 2448 O 244.868 1.60182 0.899307 0
M  V30 2449 C 244.93 2.70411 -2.36893 0
M  V30 2450 C 244.594 2.4714 -3.8441 0
M  V30 2451 C 245.591 2.10271 -4.75481 0
M  V30 2452 C 243.276 2.6142 -4.28912 0
M  V30 2453 C 245.27 1.87982 -6.0905 0
M  V30 2454 C 242.957 2.38746 -5.62533 0
M  V30 2455 C 243.955 2.02083 -6.5242 0
M  V30 2456 O 243.643 1.79647 -7.8357 0
M  V30 2457 H 243.375 0.447962 -0.506267 0
M  V30 2458 H 245.929 0.80624 -1.88915 0
M  V30 2459 H 244.159 3.36079 -1.91278 0
M  V30 2460 H 245.848 3.32364 -2.33 0
M  V30 2461 H 246.614 1.98814 -4.42378 0
M  V30 2462 H 242.493 2.88931 -3.59222 0
M  V30 2463 H 246.037 1.5929 -6.7917 0
M  V30 2464 H 241.934 2.49806 -5.95203 0
M  V30 2465 H 242.702 1.9406 -7.95162 0
M  V30 2466 N 245.365 1.30045 0.890287 0
M  V30 2467 C 246.611 1.18737 1.64406 0
M  V30 2468 C 246.944 -0.258525 1.92472 0
M  V30 2469 O 246.219 -1.18562 1.54186 0
M  V30 2470 C 246.502 2.01087 2.98724 0
M  V30 2471 C 246.355 3.53867 2.77665 0
M  V30 2472 C 247.674 1.84457 3.9958 0
M  V30 2473 H 244.793 0.432698 0.596608 0
M  V30 2474 H 247.435 1.5962 1.0306 0
M  V30 2475 H 245.585 1.66349 3.51084 0
M  V30 2476 H 247.257 3.98637 2.32133 0
M  V30 2477 H 245.5 3.78318 2.12269 0
M  V30 2478 H 246.171 4.06772 3.7315 0
M  V30 2479 H 248.647 2.14817 3.56361 0
M  V30 2480 H 247.523 2.44411 4.91482 0
M  V30 2481 H 247.784 0.802276 4.3476 0
M  V30 2482 N 246.843 -1.10192 1.12674 0
M  V30 2483 C 248.092 -1.81573 0.8783 0
M  V30 2484 C 248.405 -1.86249 -0.597557 0
M  V30 2485 O 249.611 -2.5386 -0.962681 0
M  V30 2486 C 248.067 -3.26149 1.52167 0
M  V30 2487 C 247.675 -3.29763 3.03249 0
M  V30 2488 C 249.419 -4.0234 1.3536 0
M  V30 2489 C 247.326 -4.68815 3.60508 0
M  V30 2490 H 246.256 -0.680394 0.324931 0
M  V30 2491 H 248.907 -1.23902 1.35353 0
M  V30 2492 H 247.289 -3.83832 0.974104 0
M  V30 2493 H 248.463 -2.8189 3.6452 0
M  V30 2494 H 246.778 -2.67059 3.19481 0
M  V30 2495 H 249.375 -5.05058 1.75559 0
M  V30 2496 H 249.718 -4.15235 0.297554 0
M  V30 2497 H 250.251 -3.51079 1.87052 0
M  V30 2498 H 246.99 -4.61121 4.65884 0
M  V30 2499 H 246.51 -5.17045 3.04014 0
M  V30 2500 H 248.189 -5.37785 3.59717 0
M  V30 2501 N 248.321 -0.919034 -1.28029 0
M  V30 2502 C 249.569 -0.553838 -1.94363 0
M  V30 2503 C 249.89 0.906357 -1.72656 0
M  V30 2504 O 249.16 1.64143 -1.0693 0
M  V30 2505 H 247.74 -0.201834 -0.719216 0
M  V30 2506 H 250.402 -1.16954 -1.55909 0
M  V30 2507 H 249.498 -0.752758 -3.02886 0
M  V30 2508 N 249.799 1.42003 -0.683588 0
M  V30 2509 C 251.047 2.01015 -0.209101 0
M  V30 2510 C 251.368 1.54365 1.19149 0
M  V30 2511 O 250.638 0.769083 1.80172 0
M  V30 2512 H 249.218 0.743294 -0.074315 0
M  V30 2513 H 251.88 1.73798 -0.882066 0
M  V30 2514 H 250.976 3.11343 -0.2172 0
M  V30 2515 N 251.277 0.427512 1.51691 0
M  V30 2516 C 252.225 -0.403359 2.29076 0
M  V30 2517 C 253.219 -1.02962 1.34518 0
M  V30 2518 O 254.425 -0.965715 1.51901 0
M  V30 2519 H 250.8 -0.148879 0.737115 0
M  V30 2520 H 252.771 0.270295 2.97173 0
M  V30 2521 C 251.52 -1.49763 3.13794 0
M  V30 2522 H 250.843 -1.02508 3.86435 0
M  V30 2523 H 252.283 -2.05244 3.71014 0
M  V30 2524 C 250.742 -2.47536 2.28533 0
M  V30 2525 O 251.272 -3.51848 1.93819 0
M  V30 2526 N 249.478 -2.18187 1.91945 0
M  V30 2527 H 249.025 -1.33389 2.20375 0
M  V30 2528 H 248.983 -2.83848 1.35195 0
M  V30 2529 N 252.755 -1.56801 0.158532 0
M  V30 2530 C 254.002 -1.9649 -0.489679 0
M  V30 2531 C 254.33 -1.04394 -1.6411 0
M  V30 2532 O 253.585 -0.0754401 -1.95555 0
M  V30 2533 C 253.884 -3.4235 -1.02623 0
M  V30 2534 C 253.55 -4.50899 0.00794526 0
M  V30 2535 C 252.212 -4.80312 0.292207 0
M  V30 2536 C 254.564 -5.16333 0.710584 0
M  V30 2537 C 251.892 -5.72461 1.28472 0
M  V30 2538 C 254.244 -6.09553 1.69199 0
M  V30 2539 C 252.908 -6.37339 1.98383 0
M  V30 2540 H 252.178 -0.719009 -0.179186 0
M  V30 2541 H 254.825 -1.8989 0.247798 0
M  V30 2542 H 253.13 -3.45838 -1.84128 0
M  V30 2543 H 254.827 -3.70393 -1.53656 0
M  V30 2544 H 251.417 -4.28015 -0.22379 0
M  V30 2545 H 255.601 -4.93732 0.504174 0
M  V30 2546 H 250.857 -5.92278 1.51714 0
M  V30 2547 H 255.031 -6.59327 2.24189 0
M  V30 2548 H 252.658 -7.08546 2.7544 0
M  V30 2549 N 254.233 0.115231 -1.57178 0
M  V30 2550 C 255.461 0.836437 -1.89239 0
M  V30 2551 C 255.876 1.73256 -0.750175 0
M  V30 2552 O 255.233 1.80357 0.278832 0
M  V30 2553 C 255.284 1.66671 -3.20785 0
M  V30 2554 O 255.005 0.806652 -4.3061 0
M  V30 2555 C 256.506 2.49274 -3.66575 0
M  V30 2556 H 253.726 0.240253 -0.626514 0
M  V30 2557 H 256.27 0.0984932 -2.04263 0
M  V30 2558 H 254.425 2.35737 -3.0742 0
M  V30 2559 H 254.839 1.37969 -5.06028 0
M  V30 2560 H 256.313 3.03055 -4.6137 0
M  V30 2561 H 256.79 3.26807 -2.93417 0
M  V30 2562 H 257.396 1.85443 -3.82741 0
M  V30 2563 N 255.711 1.52812 0.385517 0
M  V30 2564 C 256.959 1.67694 1.12797 0
M  V30 2565 C 257.28 0.421115 1.90399 0
M  V30 2566 O 256.55 -0.564551 1.87589 0
M  V30 2567 H 255.13 0.618155 0.419396 0
M  V30 2568 H 257.792 1.89938 0.436972 0
M  V30 2569 H 256.888 2.52896 1.82894 0
M  V30 2570 N 257.189 -0.644168 1.43834 0
M  V30 2571 C 258.414 -1.43642 1.49605 0
M  V30 2572 C 258.839 -1.8773 0.117913 0
M  V30 2573 O 258.197 -1.57938 -0.890239 0
M  V30 2574 C 258.245 -2.6416 2.45463 0
M  V30 2575 O 257.349 -3.63538 1.94714 0
M  V30 2576 H 256.69 -0.430329 0.50568 0
M  V30 2577 H 259.22 -0.787448 1.8884 0
M  V30 2578 H 259.23 -3.11864 2.63068 0
M  V30 2579 H 257.905 -2.31414 3.45572 0
M  V30 2580 H 256.482 -3.2273 1.86814 0
M  V30 2581 N 258.668 -1.30515 -0.883378 0
M  V30 2582 C 259.6 -1.12846 -1.99496 0
M  V30 2583 C 260.613 -0.0712571 -1.62644 0
M  V30 2584 O 261.802 -0.317432 -1.75655 0
M  V30 2585 C 258.902 -0.699123 -3.3161 0
M  V30 2586 C 258.075 -1.83842 -3.96889 0
M  V30 2587 C 257.134 -1.39737 -5.07307 0
M  V30 2588 O 256.16 -2.10485 -5.28852 0
M  V30 2589 N 257.362 -0.277279 -5.79837 0
M  V30 2590 H 260.127 -2.08585 -2.15203 0
M  V30 2591 H 257.688 -1.22672 -1.05656 0
M  V30 2592 H 259.68 -0.387044 -4.02845 0
M  V30 2593 H 258.25 0.166276 -3.12157 0
M  V30 2594 H 257.47 -2.31853 -3.18807 0
M  V30 2595 H 258.758 -2.60187 -4.37241 0
M  V30 2596 H 258.156 0.3122 -5.64838 0
M  V30 2597 H 256.713 -0.0246623 -6.51795 0
M  V30 2598 N 260.146 1.09593 -1.13257 0
M  V30 2599 C 261.562 1.33775 -0.870423 0
M  V30 2600 C 261.762 1.95327 0.494926 0
M  V30 2601 O 260.818 2.19853 1.2418 0
M  V30 2602 C 262.131 2.25106 -1.99369 0
M  V30 2603 C 263.679 2.3862 -2.02558 0
M  V30 2604 C 264.154 3.33285 -3.14142 0
M  V30 2605 N 265.645 3.40857 -3.13641 0
M  V30 2606 C 266.38 4.14101 -3.96621 0
M  V30 2607 N 265.876 4.90157 -4.8961 0
M  V30 2608 N 267.669 4.09808 -3.84726 0
M  V30 2609 H 259.82 0.680136 -2.01216 0
M  V30 2610 H 262.083 0.362133 -0.876107 0
M  V30 2611 H 261.789 1.87103 -2.97801 0
M  V30 2612 H 261.663 3.25481 -1.90635 0
M  V30 2613 H 264.05 2.75887 -1.0474 0
M  V30 2614 H 264.131 1.38028 -2.15364 0
M  V30 2615 H 263.775 2.96741 -4.12198 0
M  V30 2616 H 263.705 4.33776 -2.98574 0
M  V30 2617 H 266.196 2.86624 -2.46282 0
M  V30 2618 H 266.509 5.4347 -5.49418 0
M  V30 2619 H 264.854 4.89251 -4.93617 0
M  V30 2620 H 268.045 3.4949 -3.11408 0
M  V30 2621 H 268.218 4.66629 -4.49623 0
M  V30 2622 N 261.624 0.925811 1.2754 0
M  V30 2623 C 262.587 0.428129 2.25166 0
M  V30 2624 C 263.587 -0.452261 1.54309 0
M  V30 2625 O 264.777 -0.253608 1.72344 0
M  V30 2626 C 261.909 -0.384749 3.38722 0
M  V30 2627 H 263.102 1.29066 2.70706 0
M  V30 2628 H 260.655 0.706323 1.3943 0
M  V30 2629 H 261.39 -1.26618 2.98561 0
M  V30 2630 H 261.175 0.246454 3.91325 0
M  V30 2631 H 262.665 -0.723389 4.11287 0
M  V30 2632 N 263.102 -1.41638 0.69111 0
M  V30 2633 C 264.351 -2.00526 0.217318 0
M  V30 2634 C 264.664 -1.55353 -1.18848 0
M  V30 2635 O 265.87 -2.06769 -1.75951 0
M  V30 2636 C 264.326 -3.58313 0.337639 0
M  V30 2637 C 263.934 -4.12469 1.74852 0
M  V30 2638 C 265.678 -4.24431 -0.0766066 0
M  V30 2639 C 263.585 -5.62675 1.82074 0
M  V30 2640 H 262.515 -0.750008 0.0774893 0
M  V30 2641 H 265.166 -1.6217 0.858661 0
M  V30 2642 H 263.548 -3.9425 -0.371879 0
M  V30 2643 H 264.722 -3.8796 2.48644 0
M  V30 2644 H 263.037 -3.58861 2.11205 0
M  V30 2645 H 265.634 -5.34683 -0.0430284 0
M  V30 2646 H 265.977 -4.01101 -1.1146 0
M  V30 2647 H 266.51 -3.93512 0.582476 0
M  V30 2648 H 263.249 -5.90826 2.83911 0
M  V30 2649 H 262.769 -5.89124 1.12661 0
M  V30 2650 H 264.448 -6.27371 1.58159 0
M  V30 2651 N 264.58 -0.43555 -1.51462 0
M  V30 2652 C 265.827 0.131514 -2.02072 0
M  V30 2653 C 266.155 1.42868 -1.31981 0
M  V30 2654 O 265.41 1.91076 -0.422883 0
M  V30 2655 C 265.709 0.39942 -3.55161 0
M  V30 2656 C 265.375 -0.81172 -4.43533 0
M  V30 2657 C 264.037 -1.14387 -4.67407 0
M  V30 2658 C 266.389 -1.61976 -4.95392 0
M  V30 2659 C 263.717 -2.28477 -5.40384 0
M  V30 2660 C 266.069 -2.75164 -5.6962 0
M  V30 2661 C 264.733 -3.08835 -5.91758 0
M  V30 2662 H 264.003 0.0481244 -0.739436 0
M  V30 2663 H 266.65 -0.58238 -1.8243 0
M  V30 2664 H 264.955 1.19519 -3.73125 0
M  V30 2665 H 266.652 0.85157 -3.91854 0
M  V30 2666 H 263.242 -0.542898 -4.25148 0
M  V30 2667 H 267.426 -1.37637 -4.76833 0
M  V30 2668 H 262.682 -2.5488 -5.55739 0
M  V30 2669 H 266.856 -3.38147 -6.08793 0
M  V30 2670 H 264.483 -3.97353 -6.48086 0
M  V30 2671 N 266.058 1.56714 -0.166846 0
M  V30 2672 C 267.005 2.17746 0.765193 0
M  V30 2673 C 267.975 1.11614 1.23011 0
M  V30 2674 O 269.16 1.39745 1.29908 0
M  V30 2675 C 266.3 2.81882 1.9909 0
M  V30 2676 C 265.413 4.02462 1.56997 0
M  V30 2677 C 264.548 4.54537 2.749 0
M  V30 2678 C 263.587 5.67538 2.29275 0
M  V30 2679 N 262.724 6.14142 3.40255 0
M  V30 2680 H 267.564 2.97048 0.237952 0
M  V30 2681 H 265.101 1.4672 0.105725 0
M  V30 2682 H 267.059 3.17221 2.70974 0
M  V30 2683 H 265.689 2.05191 2.49192 0
M  V30 2684 H 264.741 3.72973 0.748037 0
M  V30 2685 H 266.053 4.84273 1.19503 0
M  V30 2686 H 265.207 4.92035 3.54946 0
M  V30 2687 H 263.946 3.71774 3.1565 0
M  V30 2688 H 262.951 5.29597 1.47674 0
M  V30 2689 H 264.176 6.52099 1.89588 0
M  V30 2690 H 262.122 5.3431 3.8059 0
M  V30 2691 H 262.039 6.9093 3.06841 0
M  V30 2692 H 263.307 6.56289 4.206 0
M  V30 2693 N 267.536 -0.106894 1.57237 0
M  V30 2694 C 268.468 -1.15646 1.97885 0
M  V30 2695 C 269.481 -1.36981 0.879779 0
M  V30 2696 O 270.67 -1.35841 1.15799 0
M  V30 2697 C 267.77 -2.51425 2.27241 0
M  V30 2698 C 266.943 -2.50529 3.58545 0
M  V30 2699 C 266.002 -3.68145 3.75973 0
M  V30 2700 O 265.028 -3.51176 4.47956 0
M  V30 2701 N 266.23 -4.87177 3.15656 0
M  V30 2702 H 268.995 -0.81059 2.8853 0
M  V30 2703 H 266.556 -0.296024 1.59171 0
M  V30 2704 H 268.548 -3.28689 2.36105 0
M  V30 2705 H 267.118 -2.78147 1.42663 0
M  V30 2706 H 266.338 -1.58894 3.60758 0
M  V30 2707 H 267.626 -2.46997 4.44826 0
M  V30 2708 H 267.024 -5.03868 2.57165 0
M  V30 2709 H 265.581 -5.62075 3.30023 0
M  V30 2710 N 269.014 -1.53014 -0.377408 0
M  V30 2711 C 269.977 -1.77957 -1.44444 0
M  V30 2712 C 270.977 -0.649763 -1.47087 0
M  V30 2713 O 272.167 -0.917897 -1.48055 0
M  V30 2714 C 269.299 -1.89089 -2.83651 0
M  V30 2715 H 270.492 -2.73243 -1.23606 0
M  V30 2716 H 268.045 -1.43912 -0.609844 0
M  V30 2717 H 268.78 -0.958293 -3.09818 0
M  V30 2718 H 268.565 -2.71254 -2.83132 0
M  V30 2719 H 270.055 -2.1002 -3.60945 0
M  V30 2720 N 270.492 0.636531 -1.44174 0
M  V30 2721 C 271.425 1.76139 -1.45087 0
M  V30 2722 C 272.403 1.59611 -0.310326 0
M  V30 2723 O 273.587 1.81568 -0.506477 0
M  V30 2724 C 270.714 3.13648 -1.27839 0
M  V30 2725 C 269.76 3.48838 -2.45386 0
M  V30 2726 S 270.593 3.46927 -4.07924 0
M  V30 2727 C 271.749 4.87064 -3.9309 0
M  V30 2728 H 271.982 1.75096 -2.40268 0
M  V30 2729 H 269.515 0.810666 -1.31406 0
M  V30 2730 H 271.473 3.93002 -1.18575 0
M  V30 2731 H 270.134 3.12235 -0.341787 0
M  V30 2732 H 269.327 4.48886 -2.29167 0
M  V30 2733 H 268.929 2.76935 -2.51362 0
M  V30 2734 H 271.221 5.76153 -3.56446 0
M  V30 2735 H 272.164 5.08337 -4.92949 0
M  V30 2736 H 272.572 4.61384 -3.25246 0
M  V30 2737 N 271.97 1.30982 0.876444 0
M  V30 2738 C 273.386 1.09498 1.16113 0
M  V30 2739 C 273.586 -0.13875 2.01022 0
M  V30 2740 O 272.642 -0.829935 2.38471 0
M  V30 2741 C 273.955 2.36308 1.85954 0
M  V30 2742 C 275.503 2.41856 1.98683 0
M  V30 2743 C 275.978 3.6853 2.71937 0
M  V30 2744 N 277.469 3.69387 2.79477 0
M  V30 2745 C 278.204 4.64096 3.36753 0
M  V30 2746 N 277.7 5.69155 3.95012 0
M  V30 2747 N 279.493 4.51626 3.3465 0
M  V30 2748 H 271.644 2.10118 0.310494 0
M  V30 2749 H 273.907 0.926634 0.200131 0
M  V30 2750 H 273.613 3.26388 1.31011 0
M  V30 2751 H 273.487 2.4561 2.86278 0
M  V30 2752 H 275.874 1.52249 2.52793 0
M  V30 2753 H 275.955 2.36523 0.9742 0
M  V30 2754 H 275.599 4.58499 2.18496 0
M  V30 2755 H 275.529 3.71127 3.73593 0
M  V30 2756 H 278.02 2.93438 2.38123 0
M  V30 2757 H 278.333 6.3751 4.36808 0
M  V30 2758 H 276.678 5.72937 3.93406 0
M  V30 2759 H 279.869 3.68728 2.8837 0
M  V30 2760 H 280.042 5.25614 3.7899 0
M  V30 2761 N 273.449 -1.08991 1.13837 0
M  V30 2762 C 274.399 -2.1393 0.788535 0
M  V30 2763 C 275.383 -1.59396 -0.219516 0
M  V30 2764 O 276.575 -1.76985 -0.0227557 0
M  V30 2765 C 273.704 -3.42305 0.261147 0
M  V30 2766 C 272.79 -4.03736 1.29837 0
M  V30 2767 N 273.181 -4.39659 2.50067 0
M  V30 2768 C 271.479 -4.30993 1.1472 0
M  V30 2769 C 272.18 -4.88113 3.16419 0
M  V30 2770 N 271.156 -4.85846 2.43832 0
M  V30 2771 H 274.958 -2.39516 1.70322 0
M  V30 2772 H 272.472 -1.26263 1.02134 0
M  V30 2773 H 274.469 -4.16899 -0.0077405 0
M  V30 2774 H 273.129 -3.18172 -0.647805 0
M  V30 2775 H 274.14 -4.30878 2.8734 0
M  V30 2776 H 270.817 -4.16444 0.296773 0
M  V30 2777 H 272.207 -5.25336 4.18894 0
M  V30 2778 N 274.927 -0.932562 -1.27047 0
M  V30 2779 C 276.173 -0.585913 -1.94778 0
M  V30 2780 C 276.528 0.864142 -1.71902 0
M  V30 2781 O 275.821 1.60894 -1.04037 0
M  V30 2782 C 276.015 -0.853713 -3.47054 0
M  V30 2783 C 275.844 -2.32825 -3.84737 0
M  V30 2784 C 274.614 -2.98184 -4.07939 0
M  V30 2785 C 276.812 -3.30612 -3.93954 0
M  V30 2786 N 274.794 -4.3574 -4.3244 0
M  V30 2787 C 276.165 -4.53395 -4.22887 0
M  V30 2788 C 278.22 -3.25755 -3.76548 0
M  V30 2789 C 276.923 -5.71927 -4.36224 0
M  V30 2790 C 278.949 -4.43604 -3.91113 0
M  V30 2791 C 278.311 -5.65166 -4.20437 0
M  V30 2792 H 274.41 -0.264617 -0.735868 0
M  V30 2793 H 276.994 -1.20019 -1.53309 0
M  V30 2794 H 275.165 -0.268557 -3.8747 0
M  V30 2795 H 276.897 -0.469202 -4.01971 0
M  V30 2796 H 273.652 -2.48835 -4.02961 0
M  V30 2797 H 274.076 -5.06915 -4.48738 0
M  V30 2798 H 278.718 -2.32835 -3.52913 0
M  V30 2799 H 276.436 -6.65308 -4.58683 0
M  V30 2800 H 280.022 -4.41368 -3.79059 0
M  V30 2801 H 278.902 -6.54836 -4.31462 0
M  V30 2802 N 276.405 1.4127 -0.698611 0
M  V30 2803 C 277.315 2.34573 -0.0357891 0
M  V30 2804 C 278.331 1.56393 0.762701 0
M  V30 2805 O 279.507 1.8886 0.699564 0
M  V30 2806 C 276.572 3.35159 0.887089 0
M  V30 2807 C 275.633 4.29225 0.0804634 0
M  V30 2808 C 274.866 5.25006 0.959387 0
M  V30 2809 O 275.089 5.26314 2.19886 0
M  V30 2810 O 274.023 6.00519 0.407439 0
M  V30 2811 H 277.849 2.92838 -0.804957 0
M  V30 2812 H 275.434 1.42175 -0.458966 0
M  V30 2813 H 277.316 3.9689 1.41621 0
M  V30 2814 H 275.991 2.79333 1.6357 0
M  V30 2815 H 274.898 3.70833 -0.493328 0
M  V30 2816 H 276.231 4.88157 -0.629547 0
M  V30 2817 N 277.883 0.443576 1.51229 0
M  V30 2818 C 278.83 -0.364716 2.279 0
M  V30 2819 C 279.8 -1.0114 1.31757 0
M  V30 2820 O 280.985 -1.02912 1.60667 0
M  V30 2821 C 278.125 -1.45644 3.12861 0
M  V30 2822 C 277.238 -0.827269 4.24005 0
M  V30 2823 C 276.373 -1.89456 4.96266 0
M  V30 2824 C 275.412 -1.24416 5.99322 0
M  V30 2825 N 274.549 -2.25309 6.64966 0
M  V30 2826 H 279.389 0.295464 2.96532 0
M  V30 2827 H 276.926 0.157554 1.46254 0
M  V30 2828 H 278.884 -2.10076 3.6045 0
M  V30 2829 H 277.514 -2.08616 2.46331 0
M  V30 2830 H 276.566 -0.0710839 3.80334 0
M  V30 2831 H 277.878 -0.312481 4.9782 0
M  V30 2832 H 277.032 -2.61535 5.47434 0
M  V30 2833 H 275.771 -2.4431 4.22095 0
M  V30 2834 H 274.776 -0.508868 5.4744 0
M  V30 2835 H 276.001 -0.702882 6.75453 0
M  V30 2836 H 273.947 -2.79231 5.93604 0
M  V30 2837 H 273.864 -1.78739 7.34567 0
M  V30 2838 H 275.132 -2.96853 7.20763 0
M  V30 2839 N 279.361 -1.56624 0.175154 0
M  V30 2840 C 280.311 -2.14747 -0.766004 0
M  V30 2841 C 281.295 -1.08275 -1.19018 0
M  V30 2842 O 282.487 -1.34388 -1.15191 0
M  V30 2843 C 279.616 -2.79478 -1.99366 0
M  V30 2844 C 278.702 -3.93114 -1.5913 0
M  V30 2845 N 279.093 -4.97752 -0.89872 0
M  V30 2846 C 277.391 -4.04345 -1.88204 0
M  V30 2847 C 278.092 -5.77473 -0.700012 0
M  V30 2848 N 277.068 -5.29207 -1.24263 0
M  V30 2849 H 280.87 -2.93015 -0.22793 0
M  V30 2850 H 278.384 -1.6238 -0.0253843 0
M  V30 2851 H 280.381 -3.19498 -2.67818 0
M  V30 2852 H 279.041 -2.02692 -2.53665 0
M  V30 2853 H 280.052 -5.14903 -0.556347 0
M  V30 2854 H 276.729 -3.38667 -2.44153 0
M  V30 2855 H 278.119 -6.71728 -0.152047 0
M  V30 2856 N 280.839 0.0985539 -1.57292 0
M  V30 2857 C 282.067 0.816318 -1.90115 0
M  V30 2858 C 282.482 1.72451 -0.768509 0
M  V30 2859 O 281.839 1.80643 0.259687 0
M  V30 2860 C 281.89 1.63259 -3.22535 0
M  V30 2861 O 281.611 0.760934 -4.31441 0
M  V30 2862 C 283.112 2.45372 -3.69199 0
M  V30 2863 H 280.332 0.233595 -0.629027 0
M  V30 2864 H 282.876 0.0768229 -2.04356 0
M  V30 2865 H 281.031 2.32463 -3.09903 0
M  V30 2866 H 281.445 1.32595 -5.07463 0
M  V30 2867 H 282.919 2.98144 -4.64558 0
M  V30 2868 H 283.396 3.23677 -2.96867 0
M  V30 2869 H 284.002 1.81373 -3.84687 0
M  V30 2870 N 282.317 1.53212 0.369288 0
M  V30 2871 C 283.557 1.70915 1.12105 0
M  V30 2872 C 283.921 0.449444 1.86665 0
M  V30 2873 O 285.122 0.503105 2.6405 0
M  V30 2874 C 283.393 2.9222 2.05772 0
M  V30 2875 S 284.952 3.30609 2.88519 0
M  V30 2876 H 281.77 0.601445 0.379189 0
M  V30 2877 H 284.372 1.91306 0.402794 0
M  V30 2878 H 283.076 3.82103 1.49752 0
M  V30 2879 H 282.607 2.7422 2.82076 0
M  V30 2880 H 284.622 2.82333 4.08047 0
M  V30 2881 N 283.795 -0.628877 1.44509 0
M  V30 2882 C 285.041 -1.39045 1.47629 0
M  V30 2883 C 285.374 -1.93892 0.109343 0
M  V30 2884 O 284.649 -1.7379 -0.87334 0
M  V30 2885 C 284.932 -2.55408 2.53848 0
M  V30 2886 C 284.785 -2.05896 3.99909 0
M  V30 2887 C 286.104 -3.5759 2.56549 0
M  V30 2888 H 283.223 -0.504232 0.537512 0
M  V30 2889 H 285.865 -0.710854 1.76201 0
M  V30 2890 H 284.015 -3.13384 2.29615 0
M  V30 2891 H 285.687 -1.52734 4.35282 0
M  V30 2892 H 283.93 -1.37061 4.11578 0
M  V30 2893 H 284.601 -2.89681 4.69882 0
M  V30 2894 H 287.077 -3.09419 2.78207 0
M  V30 2895 H 285.953 -4.36527 3.32769 0
M  V30 2896 H 286.214 -4.11808 1.60832 0
M  V30 2897 N 285.273 -1.31445 -0.869486 0
M  V30 2898 C 286.501 -1.24122 -1.65534 0
M  V30 2899 C 286.916 0.193387 -1.87807 0
M  V30 2900 O 286.273 1.12557 -1.43656 0
M  V30 2901 C 286.324 -1.98229 -3.02304 0
M  V30 2902 O 286.045 -3.3609 -2.81026 0
M  V30 2903 C 287.546 -1.97751 -3.96749 0
M  V30 2904 H 284.766 -0.428868 -0.516055 0
M  V30 2905 H 287.31 -1.73328 -1.08525 0
M  V30 2906 H 285.465 -1.52782 -3.56001 0
M  V30 2907 H 285.879 -3.7383 -3.67902 0
M  V30 2908 H 287.353 -2.54114 -4.90031 0
M  V30 2909 H 287.83 -0.960137 -4.28577 0
M  V30 2910 H 288.436 -2.43079 -3.48988 0
M  V30 2911 N 286.751 1.08385 -1.14413 0
M  V30 2912 C 287.998 1.80776 -0.912482 0
M  V30 2913 C 288.326 1.86236 0.560934 0
M  V30 2914 O 287.581 1.33431 1.43159 0
M  V30 2915 C 287.88 3.26273 -1.45879 0
M  V30 2916 C 287.546 3.4093 -2.95089 0
M  V30 2917 C 286.208 3.44638 -3.35824 0
M  V30 2918 C 288.56 3.44591 -3.91033 0
M  V30 2919 C 285.888 3.49597 -4.71167 0
M  V30 2920 C 288.24 3.51086 -5.26233 0
M  V30 2921 C 286.904 3.53067 -5.6648 0
M  V30 2922 H 286.174 0.661507 -0.333901 0
M  V30 2923 H 288.821 1.27613 -1.42784 0
M  V30 2924 H 287.126 3.82146 -0.864376 0
M  V30 2925 H 288.823 3.80839 -1.2555 0
M  V30 2926 H 285.413 3.38736 -2.62594 0
M  V30 2927 H 289.597 3.40957 -3.60641 0
M  V30 2928 H 284.853 3.49424 -5.0171 0
M  V30 2929 H 289.027 3.52864 -6.00383 0
M  V30 2930 H 286.654 3.56662 -6.71339 0
M  V30 2931 N 288.23 0.939286 1.26551 0
M  V30 2932 C 289.479 0.581601 1.93133 0
M  V30 2933 C 289.792 -0.883224 1.74524 0
M  V30 2934 O 290.998 -1.3502 2.35546 0
M  V30 2935 C 289.454 0.989425 3.46032 0
M  V30 2936 C 289.062 2.47573 3.73379 0
M  V30 2937 C 290.806 0.703544 4.18629 0
M  V30 2938 C 288.713 2.82235 5.19709 0
M  V30 2939 H 287.643 0.213803 0.723052 0
M  V30 2940 H 290.294 1.14167 1.4366 0
M  V30 2941 H 288.676 0.357902 3.94379 0
M  V30 2942 H 289.85 3.15614 3.35744 0
M  V30 2943 H 288.165 2.73471 3.1401 0
M  V30 2944 H 290.762 0.938869 5.26393 0
M  V30 2945 H 291.105 -0.359639 4.14744 0
M  V30 2946 H 291.638 1.2947 3.76141 0
M  V30 2947 H 288.377 3.87509 5.28694 0
M  V30 2948 H 287.897 2.18854 5.58447 0
M  V30 2949 H 289.576 2.70599 5.87695 0
M  V30 2950 N 289.708 -1.40897 0.706093 0
M  V30 2951 C 290.618 -2.3455 0.0482286 0
M  V30 2952 C 291.634 -1.56796 -0.754396 0
M  V30 2953 O 292.81 -1.89228 -0.689538 0
M  V30 2954 C 289.875 -3.35625 -0.869303 0
M  V30 2955 C 288.936 -4.29261 -0.0576994 0
M  V30 2956 C 288.169 -5.25508 -0.931531 0
M  V30 2957 O 288.392 -5.27472 -2.17092 0
M  V30 2958 O 287.326 -6.00727 -0.375587 0
M  V30 2959 H 291.152 -2.92407 0.820476 0
M  V30 2960 H 288.737 -1.4193 0.4665 0
M  V30 2961 H 290.619 -3.97635 -1.39514 0
M  V30 2962 H 289.294 -2.80196 -1.62086 0
M  V30 2963 H 288.201 -3.70566 0.512988 0
M  V30 2964 H 289.534 -4.87817 0.655426 0
M  V30 2965 N 291.186 -0.45159 -1.50991 0
M  V30 2966 C 292.602 -0.104647 -1.59257 0
M  V30 2967 C 292.802 1.38728 -1.4614 0
M  V30 2968 O 291.858 2.15866 -1.30989 0
M  V30 2969 C 293.171 -0.637468 -2.93865 0
M  V30 2970 C 294.719 -0.599166 -3.07212 0
M  V30 2971 C 295.194 -1.1092 -4.44366 0
M  V30 2972 N 296.685 -1.06778 -4.50725 0
M  V30 2973 C 297.42 -1.43314 -5.55201 0
M  V30 2974 N 296.916 -1.87204 -6.67028 0
M  V30 2975 N 298.709 -1.3504 -5.45638 0
M  V30 2976 H 290.86 -1.42214 -1.57762 0
M  V30 2977 H 293.123 -0.586921 -0.744465 0
M  V30 2978 H 292.829 -1.68187 -3.08879 0
M  V30 2979 H 292.703 -0.0702139 -3.77135 0
M  V30 2980 H 295.09 0.436277 -2.91857 0
M  V30 2981 H 295.171 -1.20299 -2.25747 0
M  V30 2982 H 294.815 -2.14318 -4.60467 0
M  V30 2983 H 294.745 -0.481773 -5.24392 0
M  V30 2984 H 297.236 -0.745643 -3.70471 0
M  V30 2985 H 297.549 -2.13282 -7.42786 0
M  V30 2986 H 295.894 -1.91142 -6.68199 0
M  V30 2987 H 299.085 -1.00607 -4.57161 0
M  V30 2988 H 299.258 -1.63841 -6.26945 0
M  V30 2989 N 292.664 1.56529 -0.183458 0
M  V30 2990 C 293.892 2.01623 0.464285 0
M  V30 2991 C 294.307 1.06366 1.55986 0
M  V30 2992 O 293.664 0.0665398 1.82379 0
M  V30 2993 C 293.715 3.46475 1.03139 0
M  V30 2994 O 293.436 4.38095 -0.0204675 0
M  V30 2995 C 294.937 4.0703 1.75617 0
M  V30 2996 H 292.157 0.660596 0.117704 0
M  V30 2997 H 294.701 2.02451 -0.288751 0
M  V30 2998 H 292.856 3.46383 1.73486 0
M  V30 2999 H 293.27 5.22973 0.399952 0
M  V30 3000 H 294.744 5.10271 2.10542 0
M  V30 3001 H 295.221 3.49819 2.65563 0
M  V30 3002 H 295.827 4.1086 1.09882 0
M  V30 3003 N 294.142 -0.090211 1.57342 0
M  V30 3004 C 295.419 -0.824761 1.77361 0
M  V30 3005 C 295.799 -1.96698 0.76637 0
M  V30 3006 O 295.147 -2.27586 -0.204179 0
M  V30 3007 C 295.357 -1.31481 3.23286 0
M  V30 3008 C 296.705 -1.75563 3.86604 0
M  V30 3009 O 297.729 -1.41093 3.27065 0
M  V30 3010 O 296.588 -2.39317 4.91314 0
M  V30 3011 H 293.682 -0.393776 0.727234 0
M  V30 3012 H 296.228 -0.0717138 1.69548 0
M  V30 3013 H 295 -0.496671 3.88135 0
M  V30 3014 H 294.623 -2.12973 3.35751 0
M  V30 3015 N 295.62 -1.53406 -0.361157 0
M  V30 3016 C 296.53 -1.83122 -1.4664 0
M  V30 3017 C 297.546 -0.719943 -1.58407 0
M  V30 3018 O 298.722 -1.01046 -1.74218 0
M  V30 3019 C 295.787 -2.01891 -2.81853 0
M  V30 3020 C 294.848 -3.25784 -2.79577 0
M  V30 3021 C 294.081 -3.43648 -4.0834 0
M  V30 3022 O 294.304 -2.65714 -5.0473 0
M  V30 3023 O 293.238 -4.37018 -4.13883 0
M  V30 3024 H 297.064 -2.7703 -1.24451 0
M  V30 3025 H 294.649 -1.38841 -0.551678 0
M  V30 3026 H 296.531 -2.15782 -3.61962 0
M  V30 3027 H 295.206 -1.11173 -3.0401 0
M  V30 3028 H 294.113 -3.17312 -1.98151 0
M  V30 3029 H 295.446 -4.16439 -2.62373 0
M  V30 3030 N 297.098 0.621204 -1.44841 0
M  V30 3031 C 298.008 1.7612 -1.5498 0
M  V30 3032 C 299.024 1.68477 -0.434927 0
M  V30 3033 O 300.2 1.89076 -0.693693 0
M  V30 3034 C 297.265 3.1254 -1.50065 0
M  V30 3035 C 296.326 3.31741 -2.72482 0
M  V30 3036 C 295.559 4.61653 -2.67792 0
M  V30 3037 O 295.782 5.431 -1.74352 0
M  V30 3038 O 294.716 4.83271 -3.58794 0
M  V30 3039 H 298.542 1.70518 -2.51311 0
M  V30 3040 H 296.127 0.783643 -1.27198 0
M  V30 3041 H 298.009 3.93844 -1.49882 0
M  V30 3042 H 296.684 3.18663 -0.568806 0
M  V30 3043 H 295.591 2.50077 -2.7823 0
M  V30 3044 H 296.924 3.30486 -3.64746 0
M  V30 3045 N 298.576 1.31904 0.862503 0
M  V30 3046 C 299.801 1.25135 1.65397 0
M  V30 3047 C 300.226 -0.179 1.87246 0
M  V30 3048 O 299.584 -1.1277 1.4196 0
M  V30 3049 C 299.632 2.00832 2.99498 0
M  V30 3050 O 298.736 1.35075 3.89652 0
M  V30 3051 H 298.077 0.431655 0.504549 0
M  V30 3052 H 300.607 1.74094 1.07483 0
M  V30 3053 H 300.617 2.10709 3.49379 0
M  V30 3054 H 299.292 3.04847 2.82916 0
M  V30 3055 H 297.869 1.33696 3.48109 0
M  V30 3056 N 300.054 -1.07777 1.14986 0
M  V30 3057 C 301.301 -1.8029 0.922056 0
M  V30 3058 C 301.629 -1.86531 -0.55105 0
M  V30 3059 O 300.884 -1.34189 -1.42449 0
M  V30 3060 C 301.183 -3.25495 1.47608 0
M  V30 3061 C 300.849 -3.39361 2.96893 0
M  V30 3062 C 299.511 -3.42852 3.37647 0
M  V30 3063 C 301.863 -3.42512 3.92854 0
M  V30 3064 C 299.191 -3.47094 4.73015 0
M  V30 3065 C 301.543 -3.4829 5.28088 0
M  V30 3066 C 300.207 -3.50058 5.68345 0
M  V30 3067 H 299.477 -0.659727 0.337404 0
M  V30 3068 H 302.124 -1.26854 1.43459 0
M  V30 3069 H 300.429 -3.81683 0.88463 0
M  V30 3070 H 302.126 -3.80168 1.27568 0
M  V30 3071 H 298.716 -3.37339 2.64387 0
M  V30 3072 H 302.9 -3.3904 3.62444 0
M  V30 3073 H 298.156 -3.46758 5.03556 0
M  V30 3074 H 302.33 -3.49675 6.02246 0
M  V30 3075 H 299.957 -3.53097 6.73221 0
M  V30 3076 N 301.532 -0.945985 -1.26051 0
M  V30 3077 C 302.781 -0.591836 -1.92822 0
M  V30 3078 C 303.094 0.873956 -1.7499 0
M  V30 3079 O 304.3 1.33769 -2.36259 0
M  V30 3080 C 302.756 -1.00776 -3.45503 0
M  V30 3081 C 302.364 -2.4955 -3.7206 0
M  V30 3082 C 304.108 -0.725735 -4.1825 0
M  V30 3083 C 302.015 -2.84988 -5.18205 0
M  V30 3084 H 300.945 -0.217635 -0.721908 0
M  V30 3085 H 303.596 -1.14927 -1.43052 0
M  V30 3086 H 301.978 -0.378812 -3.94184 0
M  V30 3087 H 303.152 -3.1739 -3.34066 0
M  V30 3088 H 301.467 -2.75133 -3.12555 0
M  V30 3089 H 304.064 -0.966771 -5.25887 0
M  V30 3090 H 304.407 0.337639 -4.14929 0
M  V30 3091 H 304.94 -1.31463 -3.7545 0
M  V30 3092 H 301.679 -3.90307 -5.26631 0
M  V30 3093 H 301.199 -2.21813 -5.57278 0
M  V30 3094 H 302.878 -2.73712 -5.86252 0
M  V30 3095 N 303.011 1.40521 -0.713556 0
M  V30 3096 C 304.257 2.01221 -0.252564 0
M  V30 3097 C 304.59 1.56444 1.1506 0
M  V30 3098 O 303.865 0.783597 1.78017 0
M  V30 3099 C 304.148 3.58582 -0.330332 0
M  V30 3100 C 304.001 4.13437 -1.77173 0
M  V30 3101 C 305.32 4.39079 0.299641 0
M  V30 3102 H 302.439 0.731077 -0.0932471 0
M  V30 3103 H 305.081 1.67026 -0.905673 0
M  V30 3104 H 303.231 3.87844 0.225737 0
M  V30 3105 H 304.903 3.9498 -2.38303 0
M  V30 3106 H 303.146 3.67801 -2.3001 0
M  V30 3107 H 303.817 5.22597 -1.77755 0
M  V30 3108 H 306.293 4.15735 -0.174139 0
M  V30 3109 H 305.169 5.4848 0.214771 0
M  V30 3110 H 305.43 4.19915 1.38288 0
M  V30 3111 N 304.489 0.459591 1.5075 0
M  V30 3112 C 305.736 -0.0993495 2.02256 0
M  V30 3113 C 306.064 -1.40751 1.34237 0
M  V30 3114 O 305.319 -1.90379 0.453228 0
M  V30 3115 C 305.618 -0.342866 3.55752 0
M  V30 3116 C 305.284 0.88218 4.42186 0
M  V30 3117 C 303.946 1.21808 4.65528 0
M  V30 3118 C 306.298 1.69837 4.92752 0
M  V30 3119 C 303.626 2.37045 5.36681 0
M  V30 3120 C 305.978 2.84192 5.65171 0
M  V30 3121 C 304.642 3.1821 5.8677 0
M  V30 3122 H 303.912 -0.0363545 0.740108 0
M  V30 3123 H 306.559 0.611329 1.8148 0
M  V30 3124 H 304.864 -1.13567 3.7498 0
M  V30 3125 H 306.561 -0.789121 3.93159 0
M  V30 3126 H 303.151 0.610467 4.2423 0
M  V30 3127 H 307.335 1.45205 4.74583 0
M  V30 3128 H 302.591 2.63689 5.51614 0
M  V30 3129 H 306.765 3.4779 6.03337 0
M  V30 3130 H 304.392 4.07613 6.41682 0
M  V30 3131 N 305.967 -1.56429 0.191757 0
M  V30 3132 C 307.192 -2.02309 -0.456706 0
M  V30 3133 C 307.617 -1.07103 -1.5463 0
M  V30 3134 O 306.975 -0.0539677 -1.8122 0
M  V30 3135 C 307.023 -3.46654 -0.993159 0
M  V30 3136 O 306.127 -3.54559 -2.10622 0
M  V30 3137 H 305.468 -0.655303 -0.107114 0
M  V30 3138 H 307.998 -2.02364 0.301653 0
M  V30 3139 H 308.008 -3.86377 -1.31061 0
M  V30 3140 H 306.683 -4.1544 -0.195504 0
M  V30 3141 H 305.26 -3.26708 -1.79767 0
M  V30 3142 N 307.445 0.0818655 -1.57387 0
M  V30 3143 C 308.675 0.794954 -1.90694 0
M  V30 3144 C 309.083 1.72147 -0.784982 0
M  V30 3145 O 308.426 1.81974 0.251196 0
M  V30 3146 C 308.488 1.65042 -3.19376 0
M  V30 3147 C 308.152 0.894337 -4.48164 0
M  V30 3148 C 309.149 0.21813 -5.19442 0
M  V30 3149 C 306.834 0.864495 -4.94805 0
M  V30 3150 C 308.828 -0.477802 -6.35607 0
M  V30 3151 C 306.515 0.164785 -6.10878 0
M  V30 3152 C 307.513 -0.505173 -6.81129 0
M  V30 3153 O 307.201 -1.19363 -7.94989 0
M  V30 3154 H 306.933 0.231779 -0.635023 0
M  V30 3155 H 309.487 0.059493 -2.05314 0
M  V30 3156 H 307.717 2.42844 -3.00938 0
M  V30 3157 H 309.406 2.24127 -3.38411 0
M  V30 3158 H 310.172 0.232558 -4.84442 0
M  V30 3159 H 306.051 1.37542 -4.40004 0
M  V30 3160 H 309.595 -1.00129 -6.90377 0
M  V30 3161 H 305.492 0.148249 -6.4533 0
M  V30 3162 H 306.26 -1.10188 -8.11049 0
M  V30 3163 N 308.923 1.53595 0.353017 0
M  V30 3164 C 310.339 1.43648 0.695516 0
M  V30 3165 C 310.539 0.585617 1.92802 0
M  V30 3166 O 309.595 0.0729223 2.52395 0
M  V30 3167 C 310.908 2.8701 0.896991 0
M  V30 3168 C 312.456 2.96723 0.996209 0
M  V30 3169 C 312.931 4.41173 1.23007 0
M  V30 3170 N 314.422 4.44657 1.29749 0
M  V30 3171 C 315.157 5.53547 1.49577 0
M  V30 3172 N 314.653 6.72461 1.66639 0
M  V30 3173 N 316.446 5.41145 1.52048 0
M  V30 3174 H 308.597 2.07415 -0.457481 0
M  V30 3175 H 310.86 0.9372 -0.142687 0
M  V30 3176 H 310.566 3.51644 0.0629938 0
M  V30 3177 H 310.44 3.31401 1.80148 0
M  V30 3178 H 312.827 2.32235 1.82074 0
M  V30 3179 H 312.908 2.55707 0.0688331 0
M  V30 3180 H 312.552 5.06238 0.410505 0
M  V30 3181 H 312.482 4.79772 2.17086 0
M  V30 3182 H 314.973 3.58963 1.18126 0
M  V30 3183 H 315.286 7.51214 1.81378 0
M  V30 3184 H 313.631 6.75423 1.63794 0
M  V30 3185 H 316.822 4.47205 1.38294 0
M  V30 3186 H 316.995 6.26068 1.67159 0
M  V30 3187 N 310.401 -0.613514 1.45168 0
M  V30 3188 C 311.629 -1.39946 1.5239 0
M  V30 3189 C 312.044 -1.88167 0.154531 0
M  V30 3190 O 311.401 -1.61872 -0.842843 0
M  V30 3191 C 311.452 -2.60795 2.50337 0
M  V30 3192 O 311.173 -2.1458 3.81952 0
M  V30 3193 C 312.674 -3.53723 2.67198 0
M  V30 3194 H 309.894 -0.428593 0.516284 0
M  V30 3195 H 312.438 -0.748753 1.903 0
M  V30 3196 H 310.593 -3.21919 2.15515 0
M  V30 3197 H 311.007 -2.93055 4.34993 0
M  V30 3198 H 312.481 -4.35079 3.39721 0
M  V30 3199 H 312.958 -4.0368 1.73029 0
M  V30 3200 H 313.564 -2.98456 3.02992 0
M  V30 3201 N 311.879 -1.3236 -0.855495 0
M  V30 3202 C 313.119 -1.24187 -1.62348 0
M  V30 3203 C 313.483 0.193597 -1.91021 0
M  V30 3204 O 314.684 0.39904 -2.65822 0
M  V30 3205 C 312.955 -2.07661 -2.90881 0
M  V30 3206 S 314.514 -2.16505 -3.81669 0
M  V30 3207 H 311.332 -0.442076 -0.556857 0
M  V30 3208 H 313.934 -1.67198 -1.01317 0
M  V30 3209 H 312.638 -3.11018 -2.67761 0
M  V30 3210 H 312.169 -1.65425 -3.56929 0
M  V30 3211 H 314.184 -1.31394 -4.78487 0
M  V30 3212 N 313.357 1.07166 -1.15556 0
M  V30 3213 C 314.605 1.79443 -0.929764 0
M  V30 3214 C 314.926 1.87246 0.544414 0
M  V30 3215 O 314.196 1.37473 1.39564 0
M  V30 3216 H 312.776 0.664625 -0.341003 0
M  V30 3217 H 315.438 1.29499 -1.45657 0
M  V30 3218 H 314.534 2.81832 -1.34079 0
M  V30 3219 N 314.835 0.952656 1.25548 0
M  V30 3220 C 316.075 0.614013 1.9496 0
M  V30 3221 C 316.439 -0.833215 1.72978 0
M  V30 3222 O 317.64 -1.28135 2.36294 0
M  V30 3223 C 315.911 0.960562 3.4425 0
M  V30 3224 S 317.47 0.734195 4.32614 0
M  V30 3225 H 314.288 0.225754 0.674208 0
M  V30 3226 H 316.89 1.22641 1.52248 0
M  V30 3227 H 315.594 2.01103 3.57751 0
M  V30 3228 H 315.125 0.338336 3.91942 0
M  V30 3229 H 317.14 -0.395995 4.94617 0
M  V30 3230 N 316.313 -1.40141 0.720998 0
M  V30 3231 C 317.553 -2.02644 0.267335 0
M  V30 3232 C 317.917 -1.55948 -1.12001 0
M  V30 3233 O 319.118 -2.10552 -1.67097 0
M  V30 3234 C 317.389 -3.55679 0.350281 0
M  V30 3235 S 318.948 -4.38793 -0.0256004 0
M  V30 3236 H 315.766 -0.703105 0.105664 0
M  V30 3237 H 318.368 -1.71175 0.944416 0
M  V30 3238 H 317.072 -3.87157 1.36153 0
M  V30 3239 H 316.603 -3.91883 -0.345096 0
M  V30 3240 H 318.618 -4.803 -1.24604 0
M  V30 3241 N 317.792 -0.46758 -1.50504 0
M  V30 3242 C 319.017 0.0886943 -2.0721 0
M  V30 3243 C 319.442 1.33057 -1.32956 0
M  V30 3244 O 318.8 1.77354 -0.376197 0
M  V30 3245 C 318.848 0.359202 -3.58806 0
M  V30 3246 O 317.952 1.44034 -3.8643 0
M  V30 3247 H 317.293 -0.0114349 -0.663902 0
M  V30 3248 H 319.823 -0.657613 -1.93744 0
M  V30 3249 H 319.833 0.600742 -4.03553 0
M  V30 3250 H 318.508 -0.548311 -4.1227 0
M  V30 3251 H 317.085 1.18638 -3.53524 0
M  V30 3252 N 319.27 1.56325 -0.20005 0
M  V30 3253 C 320.5 2.01811 0.442232 0
M  V30 3254 C 320.908 1.07932 1.55394 0
M  V30 3255 O 320.251 0.0772685 1.83537 0
M  V30 3256 C 320.313 3.43685 1.05457 0
M  V30 3257 C 319.977 4.56928 0.0809833 0
M  V30 3258 C 320.974 5.15009 -0.711471 0
M  V30 3259 C 318.659 5.0229 -0.0315364 0
M  V30 3260 C 320.653 6.16904 -1.60336 0
M  V30 3261 C 318.34 6.04028 -0.926981 0
M  V30 3262 C 319.338 6.6121 -1.71146 0
M  V30 3263 O 319.026 7.60971 -2.59189 0
M  V30 3264 H 318.758 0.666173 0.114848 0
M  V30 3265 H 321.312 2.03085 -0.307511 0
M  V30 3266 H 319.542 3.39413 1.85299 0
M  V30 3267 H 321.231 3.72948 1.60201 0
M  V30 3268 H 321.997 4.80827 -0.634873 0
M  V30 3269 H 317.876 4.57476 0.568902 0
M  V30 3270 H 321.42 6.61464 -2.21611 0
M  V30 3271 H 317.317 6.37634 -1.00468 0
M  V30 3272 H 318.085 7.7841 -2.53023 0
M  V30 3273 N 320.748 -0.0735177 1.57428 0
M  V30 3274 C 321.994 -0.774145 1.87443 0
M  V30 3275 C 322.327 -1.77311 0.792103 0
M  V30 3276 O 321.602 -1.93492 -0.197793 0
M  V30 3277 C 321.885 -1.48367 3.28115 0
M  V30 3278 C 321.738 -0.501227 4.46999 0
M  V30 3279 C 323.057 -2.429 3.66998 0
M  V30 3280 H 320.176 -0.279971 0.681752 0
M  V30 3281 H 322.818 -0.0373616 1.89963 0
M  V30 3282 H 320.968 -2.11171 3.26097 0
M  V30 3283 H 322.64 0.121468 4.6114 0
M  V30 3284 H 320.883 0.183593 4.33411 0
M  V30 3285 H 321.554 -1.03526 5.42205 0
M  V30 3286 H 324.03 -1.90175 3.70098 0
M  V30 3287 H 322.906 -2.89549 4.66318 0
M  V30 3288 H 323.167 -3.27628 2.96837 0
M  V30 3289 N 322.226 -1.5378 -0.344866 0
M  V30 3290 C 323.474 -1.70625 -1.08311 0
M  V30 3291 C 323.795 -0.471447 -1.89215 0
M  V30 3292 O 323.065 0.514616 -1.8902 0
M  V30 3293 H 321.645 -0.629058 -0.402859 0
M  V30 3294 H 324.307 -1.9103 -0.386459 0
M  V30 3295 H 323.403 -2.57656 -1.76124 0
M  V30 3296 N 323.704 0.605807 -1.45491 0
M  V30 3297 C 325.12 0.926751 -1.29936 0
M  V30 3298 C 325.32 1.99896 -0.253706 0
M  V30 3299 O 324.376 2.50038 0.351737 0
M  V30 3300 C 325.689 1.36599 -2.67883 0
M  V30 3301 C 327.237 1.4801 -2.75793 0
M  V30 3302 C 327.712 1.95309 -4.14268 0
M  V30 3303 N 329.203 2.0254 -4.16571 0
M  V30 3304 C 329.938 2.40363 -5.20589 0
M  V30 3305 N 329.434 2.77143 -6.34952 0
M  V30 3306 N 331.227 2.40718 -5.07948 0
M  V30 3307 H 323.378 -0.102862 -2.12151 0
M  V30 3308 H 325.641 0.016639 -0.947854 0
M  V30 3309 H 325.347 0.652306 -3.45598 0
M  V30 3310 H 325.221 2.33215 -2.96463 0
M  V30 3311 H 327.608 2.1847 -1.98381 0
M  V30 3312 H 327.689 0.497041 -2.50925 0
M  V30 3313 H 327.333 1.25436 -4.92167 0
M  V30 3314 H 327.263 2.94532 -4.3653 0
M  V30 3315 H 329.754 1.76699 -3.34045 0
M  V30 3316 H 330.067 3.0489 -7.10114 0
M  V30 3317 H 328.412 2.74834 -6.3835 0
M  V30 3318 H 331.603 2.11392 -4.1765 0
M  V30 3319 H 331.776 2.69869 -5.89131 0
M  V30 3320 N 325.182 1.32811 0.848464 0
M  V30 3321 C 326.598 1.11937 1.13764 0
M  V30 3322 C 326.798 -0.0960789 2.01271 0
M  V30 3323 O 325.854 -0.779165 2.40178 0
M  V30 3324 C 327.167 2.402 1.809 0
M  V30 3325 C 328.715 2.46016 1.93508 0
M  V30 3326 C 329.19 3.74215 2.64059 0
M  V30 3327 N 330.681 3.75232 2.71579 0
M  V30 3328 C 331.416 4.71134 3.26833 0
M  V30 3329 N 330.912 5.77406 3.8285 0
M  V30 3330 N 332.705 4.58623 3.24995 0
M  V30 3331 H 324.856 2.1073 0.265855 0
M  V30 3332 H 327.119 0.930671 0.180431 0
M  V30 3333 H 326.825 3.29093 1.24058 0
M  V30 3334 H 326.699 2.51628 2.81004 0
M  V30 3335 H 329.086 1.57577 2.49506 0
M  V30 3336 H 329.167 2.38536 0.923811 0
M  V30 3337 H 328.811 4.63031 2.08722 0
M  V30 3338 H 328.741 3.78968 3.65637 0
M  V30 3339 H 331.232 2.98423 2.31845 0
M  V30 3340 H 331.545 6.46632 4.23187 0
M  V30 3341 H 329.89 5.81152 3.81165 0
M  V30 3342 H 333.081 3.74762 2.80484 0
M  V30 3343 H 333.254 5.33535 3.67756 0
M  V30 3344 N 326.66 -1.06551 1.16123 0
M  V30 3345 C 327.908 -1.78947 0.939267 0
M  V30 3346 C 328.229 -1.87532 -0.534476 0
M  V30 3347 O 327.499 -1.38211 -1.38833 0
M  V30 3348 H 326.079 -0.662807 0.344523 0
M  V30 3349 H 328.741 -1.28725 1.46342 0
M  V30 3350 H 327.837 -2.81117 1.35572 0
M  V30 3351 N 328.138 -0.959301 -1.25041 0
M  V30 3352 C 329.386 -0.615393 -1.92503 0
M  V30 3353 C 329.707 0.850969 -1.75452 0
M  V30 3354 O 328.977 1.60658 -1.12098 0
M  V30 3355 H 327.557 -0.224613 -0.712431 0
M  V30 3356 H 330.219 -1.21855 -1.5211 0
M  V30 3357 H 329.315 -0.848738 -3.00338 0
M  V30 3358 N 329.616 1.39756 -0.72842 0
M  V30 3359 C 330.864 2.00248 -0.272946 0
M  V30 3360 C 331.185 1.58077 1.14178 0
M  V30 3361 O 330.455 0.826014 1.77634 0
M  V30 3362 H 329.035 0.740554 -0.0979247 0
M  V30 3363 H 331.697 1.70903 -0.936912 0
M  V30 3364 H 330.793 3.10495 -0.316142 0
M  V30 3365 N 331.094 0.475555 1.50254 0
M  V30 3366 C 332.505 0.0215174 1.86688 0
M  V30 3367 C 332.856 -1.38467 1.39001 0
M  V30 3368 O 331.981 -2.02732 0.756894 0
M  V30 3369 C 332.576 0.0322715 3.38785 0
M  V30 3370 C 331.135 -0.366314 3.74613 0
M  V30 3371 C 330.282 0.415832 2.74164 0
M  V30 3372 H 333.233 0.689612 1.42934 0
M  V30 3373 H 333.254 -0.76889 3.7265 0
M  V30 3374 H 332.766 1.05584 3.73462 0
M  V30 3375 H 330.867 -1.39406 3.45538 0
M  V30 3376 H 330.98 -0.064555 4.79057 0
M  V30 3377 H 329.344 -0.131048 2.54363 0
M  V30 3378 H 330.127 1.43899 3.11686 0
M  V30 3379 N 332.573 -1.56217 0.208337 0
M  V30 3380 C 333.505 -2.1695 -0.739276 0
M  V30 3381 C 334.518 -1.13492 -1.1672 0
M  V30 3382 O 335.707 -1.40529 -1.10063 0
M  V30 3383 C 332.807 -2.72755 -2.01142 0
M  V30 3384 C 331.98 -4.0125 -1.74118 0
M  V30 3385 C 331.039 -4.41749 -2.85909 0
M  V30 3386 O 330.065 -5.08912 -2.54946 0
M  V30 3387 N 331.267 -4.06342 -4.14568 0
M  V30 3388 H 334.032 -2.98893 -0.219837 0
M  V30 3389 H 331.593 -1.61878 0.0268445 0
M  V30 3390 H 333.585 -2.96826 -2.75094 0
M  V30 3391 H 332.155 -1.95191 -2.4417 0
M  V30 3392 H 331.375 -3.85173 -0.838775 0
M  V30 3393 H 332.663 -4.851 -1.53477 0
M  V30 3394 H 332.061 -3.52345 -4.42571 0
M  V30 3395 H 330.618 -4.35335 -4.85105 0
M  V30 3396 N 334.051 0.0651679 -1.57465 0
M  V30 3397 C 335.014 1.06117 -2.03155 0
M  V30 3398 C 336.014 1.31204 -0.929632 0
M  V30 3399 O 337.204 1.26813 -1.19432 0
M  V30 3400 C 334.336 2.4032 -2.41783 0
M  V30 3401 H 335.529 0.667231 -2.92383 0
M  V30 3402 H 333.082 0.311075 -1.53173 0
M  V30 3403 H 333.817 2.84532 -1.55601 0
M  V30 3404 H 333.602 2.23451 -3.22199 0
M  V30 3405 H 335.092 3.11898 -2.77685 0
M  V30 3406 N 335.529 1.53961 0.336706 0
M  V30 3407 C 336.778 1.70751 1.07363 0
M  V30 3408 C 337.091 0.481061 1.89592 0
M  V30 3409 O 338.297 0.530046 2.66276 0
M  V30 3410 C 336.753 3.01965 1.95818 0
M  V30 3411 C 336.361 4.31971 1.18764 0
M  V30 3412 C 338.105 3.28121 2.69327 0
M  V30 3413 C 336.012 5.54255 2.06289 0
M  V30 3414 H 334.942 0.636292 0.404535 0
M  V30 3415 H 337.593 1.80459 0.332681 0
M  V30 3416 H 335.975 2.86132 2.7376 0
M  V30 3417 H 337.149 4.5853 0.456849 0
M  V30 3418 H 335.464 4.12481 0.569946 0
M  V30 3419 H 338.061 4.16673 3.35094 0
M  V30 3420 H 338.404 2.45426 3.36261 0
M  V30 3421 H 338.937 3.44762 1.98454 0
M  V30 3422 H 335.676 6.39513 1.43885 0
M  V30 3423 H 335.196 5.31935 2.77138 0
M  V30 3424 H 336.875 5.90159 2.65182 0
M  V30 3425 N 337.007 -0.598083 1.45811 0
M  V30 3426 C 338.232 -1.3881 1.54099 0
M  V30 3427 C 338.657 -1.8726 0.177578 0
M  V30 3428 O 338.015 -1.6069 -0.839541 0
M  V30 3429 C 338.063 -2.56217 2.53743 0
M  V30 3430 O 337.167 -3.5716 2.06182 0
M  V30 3431 H 336.508 -0.414024 0.519115 0
M  V30 3432 H 339.038 -0.726971 1.91249 0
M  V30 3433 H 339.048 -3.03337 2.72856 0
M  V30 3434 H 337.723 -2.20303 3.5276 0
M  V30 3435 H 336.3 -3.16624 1.96987 0
M  V30 3436 N 338.485 -1.33259 -0.841409 0
M  V30 3437 C 339.734 -1.23921 -1.59143 0
M  V30 3438 C 340.047 0.1941 -1.94635 0
M  V30 3439 O 341.253 0.409474 -2.68394 0
M  V30 3440 C 339.709 -2.17119 -2.87032 0
M  V30 3441 C 339.317 -3.65606 -2.58914 0
M  V30 3442 C 341.061 -2.16648 -3.65053 0
M  V30 3443 C 338.968 -4.50726 -3.82884 0
M  V30 3444 H 337.898 -0.460264 -0.597221 0
M  V30 3445 H 340.549 -1.58307 -0.927959 0
M  V30 3446 H 338.931 -1.75663 -3.54906 0
M  V30 3447 H 340.105 -4.15487 -1.99267 0
M  V30 3448 H 338.42 -3.68341 -1.942 0
M  V30 3449 H 341.017 -2.77474 -4.57069 0
M  V30 3450 H 341.36 -1.16088 -3.99787 0
M  V30 3451 H 341.893 -2.56453 -3.041 0
M  V30 3452 H 338.632 -5.52151 -3.53283 0
M  V30 3453 H 338.152 -4.0559 -4.41879 0
M  V30 3454 H 339.831 -4.64401 -4.50489 0
M  V30 3455 N 339.963 1.05934 -1.16686 0
M  V30 3456 C 341.211 1.78447 -0.948744 0
M  V30 3457 C 341.532 1.87813 0.524523 0
M  V30 3458 O 340.802 1.38945 1.38098 0
M  V30 3459 H 339.382 0.660971 -0.348033 0
M  V30 3460 H 342.044 1.27947 -1.47022 0
M  V30 3461 H 341.14 2.80394 -1.37061 0
M  V30 3462 N 341.441 0.965919 1.2453 0
M  V30 3463 C 342.388 0.49402 2.25451 0
M  V30 3464 C 343.358 -0.45948 1.59618 0
M  V30 3465 O 344.543 -0.370238 1.87173 0
M  V30 3466 C 341.683 -0.211359 3.44452 0
M  V30 3467 C 340.796 0.7807 4.24887 0
M  V30 3468 C 339.931 0.0516105 5.31175 0
M  V30 3469 C 338.97 1.03385 6.03306 0
M  V30 3470 N 338.107 0.334887 7.01301 0
M  V30 3471 H 342.947 1.35946 2.65184 0
M  V30 3472 H 340.484 0.681515 1.3036 0
M  V30 3473 H 342.442 -0.637 4.12308 0
M  V30 3474 H 341.072 -1.04077 3.05562 0
M  V30 3475 H 340.124 1.32479 3.56586 0
M  V30 3476 H 341.436 1.52978 4.74762 0
M  V30 3477 H 340.59 -0.432114 6.05159 0
M  V30 3478 H 339.329 -0.730179 4.82203 0
M  V30 3479 H 338.334 1.52847 5.28127 0
M  V30 3480 H 339.559 1.81606 6.54367 0
M  V30 3481 H 337.505 -0.427959 6.54603 0
M  V30 3482 H 337.422 1.02287 7.49048 0
M  V30 3483 H 338.69 -0.126928 7.79397 0
M  V30 3484 N 342.919 -1.39368 0.735821 0
M  V30 3485 C 343.867 -2.32443 0.0855131 0
M  V30 3486 C 344.861 -1.53104 -0.724954 0
M  V30 3487 O 346.067 -1.68762 -0.626047 0
M  V30 3488 H 342.442 -0.751948 0.00885257 0
M  V30 3489 H 344.413 -2.84916 0.886883 0
M  V30 3490 C 343.162 -3.38206 -0.806983 0
M  V30 3491 H 342.485 -3.99335 -0.19274 0
M  V30 3492 H 343.925 -4.05779 -1.2296 0
M  V30 3493 C 342.384 -2.75321 -1.94165 0
M  V30 3494 O 342.914 -2.63231 -3.03435 0
M  V30 3495 N 341.12 -2.33396 -1.73132 0
M  V30 3496 H 340.667 -2.4343 -0.842596 0
M  V30 3497 H 340.625 -1.91661 -2.49225 0
M  V30 3498 N 344.397 -0.483516 -1.5 0
M  V30 3499 C 345.637 0.0657469 -2.04294 0
M  V30 3500 C 346.001 1.35869 -1.35659 0
M  V30 3501 O 347.202 1.99111 -1.80578 0
M  V30 3502 C 345.473 0.232758 -3.56641 0
M  V30 3503 S 347.032 0.738788 -4.32536 0
M  V30 3504 H 343.85 0.0100755 -0.710929 0
M  V30 3505 H 346.452 -0.653494 -1.84254 0
M  V30 3506 H 345.156 -0.713847 -4.04144 0
M  V30 3507 H 344.687 0.977751 -3.81056 0
M  V30 3508 H 346.702 2.01048 -4.53645 0
M  V30 3509 N 345.875 1.56104 -0.216619 0
M  V30 3510 C 347.152 1.89988 0.465165 0
M  V30 3511 C 347.532 1.13326 1.78102 0
M  V30 3512 O 346.88 0.241033 2.27225 0
M  V30 3513 C 347.09 3.42646 0.662939 0
M  V30 3514 C 348.438 4.13311 0.972602 0
M  V30 3515 O 349.462 3.48217 0.749901 0
M  V30 3516 O 348.321 5.28396 1.39499 0
M  V30 3517 H 345.415 0.78979 0.245276 0
M  V30 3518 H 347.961 1.67721 -0.258436 0
M  V30 3519 H 346.733 3.90399 -0.26543 0
M  V30 3520 H 346.356 3.70677 1.43821 0
M  V30 3521 N 347.353 -0.0568162 1.57498 0
M  V30 3522 C 348.3 -1.06591 2.04712 0
M  V30 3523 C 349.27 -1.3758 0.930644 0
M  V30 3524 O 350.455 -1.48392 1.19935 0
M  V30 3525 C 347.595 -2.3701 2.50839 0
M  V30 3526 C 346.708 -2.12421 3.76167 0
M  V30 3527 C 345.843 -3.36511 4.11015 0
M  V30 3528 C 344.882 -3.07353 5.2934 0
M  V30 3529 N 344.019 -4.23816 5.59754 0
M  V30 3530 H 348.859 -0.65631 2.90683 0
M  V30 3531 H 346.396 -0.312481 1.43743 0
M  V30 3532 H 348.354 -3.13175 2.7564 0
M  V30 3533 H 346.984 -2.75744 1.67825 0
M  V30 3534 H 346.036 -1.2688 3.58616 0
M  V30 3535 H 347.348 -1.86894 4.62463 0
M  V30 3536 H 346.502 -4.21062 4.36797 0
M  V30 3537 H 345.241 -3.65128 3.23315 0
M  V30 3538 H 344.246 -2.212 5.03339 0
M  V30 3539 H 345.471 -2.80043 6.1867 0
M  V30 3540 H 343.417 -4.52436 4.75014 0
M  V30 3541 H 343.334 -4.01614 6.40501 0
M  V30 3542 H 344.602 -5.0932 5.90096 0
M  V30 3543 N 348.832 -1.54138 -0.328536 0
M  V30 3544 C 350.079 -1.72105 -1.06706 0
M  V30 3545 C 350.407 -0.492111 -1.88171 0
M  V30 3546 O 349.662 0.526153 -1.88494 0
M  V30 3547 C 349.961 -2.9457 -2.02393 0
M  V30 3548 C 349.627 -4.29544 -1.37122 0
M  V30 3549 C 348.289 -4.6624 -1.19052 0
M  V30 3550 C 350.641 -5.1333 -0.902331 0
M  V30 3551 C 347.969 -5.84325 -0.527331 0
M  V30 3552 C 350.321 -6.32094 -0.252988 0
M  V30 3553 C 348.985 -6.67473 -0.0600901 0
M  V30 3554 H 348.255 -0.629775 -0.390466 0
M  V30 3555 H 350.902 -1.88372 -0.34473 0
M  V30 3556 H 349.207 -2.72969 -2.81061 0
M  V30 3557 H 350.904 -3.05665 -2.59557 0
M  V30 3558 H 347.494 -4.0067 -1.52188 0
M  V30 3559 H 351.678 -4.855 -1.02974 0
M  V30 3560 H 346.934 -6.103 -0.366634 0
M  V30 3561 H 351.108 -6.96299 0.118366 0
M  V30 3562 H 348.735 -7.58832 0.455828 0
M  V30 3563 N 350.31 0.590341 -1.46126 0
M  V30 3564 C 351.558 1.34616 -1.50742 0
M  V30 3565 C 351.879 1.94363 -0.157486 0
M  V30 3566 O 351.149 1.78136 0.815136 0
M  V30 3567 H 349.729 0.499789 -0.555175 0
M  V30 3568 H 352.391 0.691953 -1.82203 0
M  V30 3569 H 351.487 2.15678 -2.25587 0
M  V30 3570 N 351.788 1.33704 0.83433 0
M  V30 3571 C 353.037 1.24763 1.58484 0
M  V30 3572 C 353.35 -0.183775 1.94735 0
M  V30 3573 O 354.556 -0.395234 2.68608 0
M  V30 3574 C 353.012 2.18638 2.85876 0
M  V30 3575 C 352.62 3.66974 2.56971 0
M  V30 3576 C 354.364 2.18581 3.63899 0
M  V30 3577 C 352.271 4.5275 3.80488 0
M  V30 3578 H 351.201 0.463425 0.594772 0
M  V30 3579 H 353.852 1.58797 0.919551 0
M  V30 3580 H 352.234 1.77542 3.5397 0
M  V30 3581 H 353.408 4.16538 1.9706 0
M  V30 3582 H 351.723 3.69366 1.92244 0
M  V30 3583 H 354.32 2.79894 4.55591 0
M  V30 3584 H 354.663 1.18207 3.99165 0
M  V30 3585 H 355.196 2.58062 3.02735 0
M  V30 3586 H 351.935 5.54017 3.5035 0
M  V30 3587 H 351.455 4.07927 4.39722 0
M  V30 3588 H 353.134 4.66784 4.4802 0
M  V30 3589 N 353.266 -1.05314 1.17247 0
M  V30 3590 C 354.512 -1.78557 0.961513 0
M  V30 3591 C 354.845 -1.87419 -0.508697 0
M  V30 3592 O 354.12 -1.37307 -1.37757 0
M  V30 3593 C 354.403 -3.22514 1.60176 0
M  V30 3594 C 354.256 -3.21673 3.14399 0
M  V30 3595 C 355.575 -4.20318 1.30463 0
M  V30 3596 H 352.694 -0.6482 0.350723 0
M  V30 3597 H 355.336 -1.23102 1.44727 0
M  V30 3598 H 353.486 -3.69867 1.18871 0
M  V30 3599 H 355.158 -2.82405 3.64753 0
M  V30 3600 H 353.401 -2.60048 3.47214 0
M  V30 3601 H 354.072 -4.23271 3.54324 0
M  V30 3602 H 356.548 -3.81454 1.66229 0
M  V30 3603 H 355.424 -5.19289 1.77848 0
M  V30 3604 H 355.685 -4.41526 0.22521 0
M  V30 3605 N 354.744 -0.972509 -1.24016 0
M  V30 3606 C 355.707 -0.511403 -2.23422 0
M  V30 3607 C 356.707 0.394679 -1.55881 0
M  V30 3608 O 357.897 0.189469 -1.73167 0
M  V30 3609 C 355.029 0.258769 -3.39916 0
M  V30 3610 H 356.222 -1.39024 -2.6573 0
M  V30 3611 H 353.775 -0.757585 -1.36713 0
M  V30 3612 H 354.51 1.1545 -3.03054 0
M  V30 3613 H 354.295 -0.391522 -3.9014 0
M  V30 3614 H 355.785 0.570244 -4.13688 0
M  V30 3615 N 356.222 1.38976 -0.743202 0
M  V30 3616 C 357.172 2.27843 -0.084513 0
M  V30 3617 C 358.156 1.44677 0.704094 0
M  V30 3618 O 359.348 1.67511 0.571755 0
M  V30 3619 C 356.477 3.33466 0.815781 0
M  V30 3620 C 355.563 4.24095 0.0208844 0
M  V30 3621 N 355.954 4.95609 -1.0102 0
M  V30 3622 C 354.252 4.45303 0.249293 0
M  V30 3623 C 354.953 5.62287 -1.49024 0
M  V30 3624 N 353.929 5.37571 -0.807377 0
M  V30 3625 H 357.731 2.80593 -0.87436 0
M  V30 3626 H 355.245 1.51755 -0.578283 0
M  V30 3627 H 357.242 3.96008 1.30321 0
M  V30 3628 H 355.902 2.82276 1.6047 0
M  V30 3629 H 356.913 4.98849 -1.39176 0
M  V30 3630 H 353.59 4.0504 1.01237 0
M  V30 3631 H 354.98 6.29519 -2.34853 0
M  V30 3632 N 357.7 0.491464 1.49741 0
M  V30 3633 C 358.61 -0.296835 2.32715 0
M  V30 3634 C 359.626 -0.976536 1.44013 0
M  V30 3635 O 360.802 -0.960023 1.77047 0
M  V30 3636 C 357.867 -1.35288 3.19215 0
M  V30 3637 C 356.928 -0.687632 4.23757 0
M  V30 3638 C 356.161 -1.69336 5.06123 0
M  V30 3639 O 356.384 -2.92219 4.89861 0
M  V30 3640 O 355.318 -1.25394 5.88693 0
M  V30 3641 H 359.144 0.382048 3.01287 0
M  V30 3642 H 356.729 0.252953 1.47243 0
M  V30 3643 H 358.611 -1.96411 3.72828 0
M  V30 3644 H 357.286 -2.01487 2.53347 0
M  V30 3645 H 356.193 -0.0369159 3.74082 0
M  V30 3646 H 357.526 -0.0682566 4.92153 0
M  V30 3647 N 359.178 -1.55987 0.224894 0
M  V30 3648 C 360.108 -2.23426 -0.678457 0
M  V30 3649 C 361.089 -1.20709 -1.19847 0
M  V30 3650 O 362.274 -1.49304 -1.24186 0
M  V30 3651 C 359.404 -2.91676 -1.88527 0
M  V30 3652 C 358.358 -4.00893 -1.49896 0
M  V30 3653 C 357.684 -4.56455 -2.78483 0
M  V30 3654 C 358.984 -5.17769 -0.686461 0
M  V30 3655 H 360.678 -2.99175 -0.116173 0
M  V30 3656 H 358.224 -1.43897 -0.054436 0
M  V30 3657 H 360.177 -3.37547 -2.5227 0
M  V30 3658 H 358.901 -2.1338 -2.47258 0
M  V30 3659 H 357.56 -3.55758 -0.884985 0
M  V30 3660 H 357.208 -3.74886 -3.35365 0
M  V30 3661 H 356.908 -5.30169 -2.53368 0
M  V30 3662 H 358.432 -5.05047 -3.43162 0
M  V30 3663 H 359.846 -5.60001 -1.22767 0
M  V30 3664 H 358.243 -5.97735 -0.532259 0
M  V30 3665 H 359.313 -4.83932 0.306196 0
M  V30 3666 N 360.656 0.0484629 -1.57525 0
M  V30 3667 C 361.904 0.741657 -1.88 0
M  V30 3668 C 362.225 1.76918 -0.820054 0
M  V30 3669 O 361.495 1.95335 0.148661 0
M  V30 3670 H 360.075 0.276908 -0.69378 0
M  V30 3671 H 362.737 0.019013 -1.94891 0
M  V30 3672 H 361.833 1.24336 -2.86264 0
M  V30 3673 N 362.134 1.5431 0.320358 0
M  V30 3674 C 363.084 1.803 1.39556 0
M  V30 3675 C 364.068 0.659166 1.46778 0
M  V30 3676 O 365.26 0.91926 1.51257 0
M  V30 3677 C 362.389 2.03665 2.76361 0
M  V30 3678 C 361.475 3.24178 2.73439 0
M  V30 3679 N 361.866 4.4516 2.40137 0
M  V30 3680 C 360.164 3.25816 3.04565 0
M  V30 3681 C 360.865 5.27109 2.4603 0
M  V30 3682 N 359.841 4.64368 2.82601 0
M  V30 3683 H 363.643 2.71416 1.12742 0
M  V30 3684 H 361.157 1.53548 0.528856 0
M  V30 3685 H 363.154 2.20425 3.53862 0
M  V30 3686 H 361.814 1.13805 3.04103 0
M  V30 3687 H 362.825 4.72104 2.12927 0
M  V30 3688 H 359.502 2.46001 3.37328 0
M  V30 3689 H 360.892 6.33728 2.23246 0
M  V30 3690 N 363.613 -0.582584 1.46437 0
M  V30 3691 C 364.859 -1.34278 1.51978 0
M  V30 3692 C 365.192 -1.93446 0.170973 0
M  V30 3693 O 364.467 -1.76481 -0.817608 0
M  V30 3694 C 364.75 -2.47203 2.61845 0
M  V30 3695 C 364.603 -1.93069 4.06257 0
M  V30 3696 C 365.922 -3.49247 2.67795 0
M  V30 3697 H 363.041 -0.486876 0.553282 0
M  V30 3698 H 365.683 -0.654437 1.78374 0
M  V30 3699 H 363.833 -3.0592 2.39469 0
M  V30 3700 H 365.505 -1.38808 4.3992 0
M  V30 3701 H 363.748 -1.23898 4.1573 0
M  V30 3702 H 364.419 -2.74586 4.7886 0
M  V30 3703 H 366.895 -3.00411 2.8791 0
M  V30 3704 H 365.771 -4.25719 3.46489 0
M  V30 3705 H 366.032 -4.06482 1.73852 0
M  V30 3706 N 365.091 -1.34144 -0.827227 0
M  V30 3707 C 366.337 -1.26446 -1.58554 0
M  V30 3708 C 366.67 0.1664 -1.93486 0
M  V30 3709 O 365.945 1.1107 -1.59667 0
M  V30 3710 C 366.228 -2.15111 -2.8879 0
M  V30 3711 C 366.081 -3.66712 -2.60465 0
M  V30 3712 C 367.4 -2.03311 -3.90324 0
M  V30 3713 H 364.519 -0.46067 -0.575284 0
M  V30 3714 H 367.161 -1.64356 -0.953269 0
M  V30 3715 H 365.311 -1.8291 -3.42748 0
M  V30 3716 H 366.983 -4.09259 -2.1285 0
M  V30 3717 H 365.226 -3.88014 -1.93978 0
M  V30 3718 H 365.897 -4.24112 -3.53317 0
M  V30 3719 H 368.373 -2.31574 -3.45706 0
M  V30 3720 H 367.249 -2.67582 -4.79261 0
M  V30 3721 H 367.51 -1.00879 -4.30437 0
M  V30 3722 N 366.569 1.04691 -1.17803 0
M  V30 3723 C 367.817 1.7743 -0.967617 0
M  V30 3724 C 368.138 1.88359 0.504574 0
M  V30 3725 O 367.408 1.40402 1.36617 0
M  V30 3726 H 365.988 0.657242 -0.355024 0
M  V30 3727 H 368.65 1.2638 -1.48371 0
M  V30 3728 H 367.746 2.78924 -1.40027 0
M  V30 3729 N 368.047 0.979072 1.23499 0
M  V30 3730 C 369.294 0.647219 1.91878 0
M  V30 3731 C 369.622 -0.819074 1.76413 0
M  V30 3732 O 368.877 -1.60616 1.11808 0
M  V30 3733 C 369.176 0.981932 3.43646 0
M  V30 3734 C 368.842 2.43822 3.79291 0
M  V30 3735 C 367.504 2.83622 3.88731 0
M  V30 3736 C 369.856 3.3828 3.96505 0
M  V30 3737 C 367.184 4.16897 4.12812 0
M  V30 3738 C 369.536 4.71197 4.22085 0
M  V30 3739 C 368.2 5.10758 4.29747 0
M  V30 3740 H 367.47 0.236834 0.702133 0
M  V30 3741 H 370.117 1.23268 1.46551 0
M  V30 3742 H 368.422 0.314365 3.90537 0
M  V30 3743 H 370.119 0.703395 3.94783 0
M  V30 3744 H 366.709 2.11966 3.72516 0
M  V30 3745 H 370.893 3.0871 3.88603 0
M  V30 3746 H 366.149 4.47157 4.16966 0
M  V30 3747 H 370.323 5.44348 4.34348 0
M  V30 3748 H 367.95 6.1405 4.48159 0
M  V30 3749 N 369.525 -1.3858 0.750561 0
M  V30 3750 C 370.771 -2.0095 0.31477 0
M  V30 3751 C 371.126 -1.58509 -1.09053 0
M  V30 3752 O 370.419 -0.8112 -1.7358 0
M  V30 3753 C 370.613 -3.55455 0.372373 0
M  V30 3754 C 370.442 -4.12898 1.78173 0
M  V30 3755 C 369.212 -4.44797 2.39757 0
M  V30 3756 C 371.41 -4.35366 2.7379 0
M  V30 3757 N 369.392 -4.87831 3.72685 0
M  V30 3758 C 370.763 -4.80775 3.91478 0
M  V30 3759 C 372.818 -4.1746 2.71351 0
M  V30 3760 C 371.521 -5.10155 5.07084 0
M  V30 3761 C 373.547 -4.47963 3.86113 0
M  V30 3762 C 372.909 -4.93593 5.02539 0
M  V30 3763 H 369.008 -0.765083 0.161776 0
M  V30 3764 H 371.592 -1.68246 0.979867 0
M  V30 3765 H 369.763 -3.87512 -0.26244 0
M  V30 3766 H 371.495 -4.04614 -0.0834479 0
M  V30 3767 H 368.25 -4.33135 1.91548 0
M  V30 3768 H 368.674 -5.13685 4.40972 0
M  V30 3769 H 373.316 -3.81372 1.82524 0
M  V30 3770 H 371.034 -5.45141 5.96529 0
M  V30 3771 H 374.62 -4.35717 3.85542 0
M  V30 3772 H 373.5 -5.16746 5.89867 0
M  V30 3773 N 371.003 -0.499398 -1.49478 0
M  V30 3774 C 371.953 0.299103 -2.2603 0
M  V30 3775 C 372.937 0.936934 -1.30807 0
M  V30 3776 O 374.129 0.844798 -1.55538 0
M  V30 3777 C 371.258 1.36391 -3.15044 0
M  V30 3778 C 370.344 0.732398 -4.17728 0
M  V30 3779 N 370.735 -0.164028 -5.05534 0
M  V30 3780 C 369.033 0.993162 -4.34801 0
M  V30 3781 C 369.734 -0.525345 -5.79323 0
M  V30 3782 N 368.71 0.106348 -5.43496 0
M  V30 3783 H 372.512 -0.391003 -2.91287 0
M  V30 3784 H 370.026 -0.31537 -1.59308 0
M  V30 3785 H 372.023 1.94939 -3.68516 0
M  V30 3786 H 370.683 2.05571 -2.51338 0
M  V30 3787 H 371.694 -0.534736 -5.15132 0
M  V30 3788 H 368.371 1.67783 -3.82302 0
M  V30 3789 H 369.761 -1.25862 -6.60006 0
M  V30 3790 N 372.481 1.55866 -0.233164 0
M  V30 3791 C 373.391 2.24431 0.683217 0
M  V30 3792 C 374.407 1.2558 1.2044 0
M  V30 3793 O 375.583 1.58422 1.24356 0
M  V30 3794 C 372.648 2.91979 1.86947 0
M  V30 3795 C 371.709 4.06204 1.38912 0
M  V30 3796 C 370.942 4.70522 2.51883 0
M  V30 3797 O 371.165 4.33865 3.70293 0
M  V30 3798 O 370.099 5.59296 2.22423 0
M  V30 3799 H 373.925 3.03426 0.129059 0
M  V30 3800 H 371.51 1.494 -0.0022283 0
M  V30 3801 H 373.392 3.34573 2.56201 0
M  V30 3802 H 372.067 2.15935 2.41151 0
M  V30 3803 H 370.974 3.68155 0.664259 0
M  V30 3804 H 372.307 4.84025 0.893328 0
M  V30 3805 N 373.959 -0.0401083 1.57549 0
M  V30 3806 C 374.909 -1.05175 2.02292 0
M  V30 3807 C 375.893 -1.32674 0.910294 0
M  V30 3808 O 377.085 -1.32444 1.17421 0
M  V30 3809 C 374.214 -2.35622 2.49674 0
M  V30 3810 C 373.3 -2.11261 3.67736 0
M  V30 3811 N 373.691 -1.56923 4.80842 0
M  V30 3812 C 371.989 -2.41596 3.74897 0
M  V30 3813 C 372.69 -1.48111 5.62528 0
M  V30 3814 N 371.666 -1.95282 5.07312 0
M  V30 3815 H 375.468 -0.625455 2.87168 0
M  V30 3816 H 372.982 -0.246624 1.60516 0
M  V30 3817 H 374.979 -3.08893 2.79983 0
M  V30 3818 H 373.639 -2.7894 1.662 0
M  V30 3819 H 374.65 -1.25345 5.02503 0
M  V30 3820 H 371.327 -2.88064 3.02201 0
M  V30 3821 H 372.717 -1.06683 6.63377 0
M  V30 3822 N 375.437 -1.54477 -0.31217 0
M  V30 3823 C 376.665 -1.77205 -1.068 0
M  V30 3824 C 377.08 -0.526114 -1.81321 0
M  V30 3825 O 376.437 0.503647 -1.75413 0
M  V30 3826 C 376.488 -2.97253 -2.05725 0
M  V30 3827 O 376.209 -4.1703 -1.34228 0
M  V30 3828 C 377.71 -3.32281 -2.93435 0
M  V30 3829 H 374.93 -0.591287 -0.317208 0
M  V30 3830 H 377.474 -2.01398 -0.354834 0
M  V30 3831 H 375.629 -2.753 -2.72559 0
M  V30 3832 H 376.043 -4.84636 -2.00571 0
M  V30 3833 H 377.517 -4.19551 -3.58721 0
M  V30 3834 H 377.994 -2.49945 -3.61143 0
M  V30 3835 H 378.6 -3.56353 -2.32147 0
M  V30 3836 N 376.915 0.57481 -1.46744 0
M  V30 3837 C 378.331 0.898981 -1.31873 0
M  V30 3838 C 378.531 1.99313 -0.29605 0
M  V30 3839 O 377.587 2.50728 0.298621 0
M  V30 3840 C 378.9 1.30886 -2.7072 0
M  V30 3841 C 380.448 1.42127 -2.78871 0
M  V30 3842 C 380.923 1.86478 -4.18318 0
M  V30 3843 N 382.414 1.93658 -4.20774 0
M  V30 3844 C 383.149 2.29267 -5.2557 0
M  V30 3845 N 382.645 2.63612 -6.40688 0
M  V30 3846 N 384.438 2.29889 -5.1294 0
M  V30 3847 H 376.589 -0.147839 -2.11885 0
M  V30 3848 H 378.852 -0.00347013 -0.947994 0
M  V30 3849 H 378.558 0.578853 -3.46904 0
M  V30 3850 H 378.432 2.26874 -3.01343 0
M  V30 3851 H 380.819 2.14213 -2.0297 0
M  V30 3852 H 380.9 0.443705 -2.51922 0
M  V30 3853 H 380.544 1.14968 -4.94717 0
M  V30 3854 H 380.474 2.85207 -4.42679 0
M  V30 3855 H 382.965 1.69574 -3.37718 0
M  V30 3856 H 383.278 2.89759 -7.16421 0
M  V30 3857 H 381.623 2.61232 -6.44036 0
M  V30 3858 H 384.814 2.02485 -4.22039 0
M  V30 3859 H 384.987 2.57312 -5.94722 0
M  V30 3860 N 378.394 1.34581 0.820102 0
M  V30 3861 C 379.805 1.24298 1.39309 0
M  V30 3862 C 380.156 -0.130351 1.95767 0
M  V30 3863 O 379.281 -1.0308 1.90272 0
M  V30 3864 C 379.876 2.25054 2.53251 0
M  V30 3865 C 378.435 2.18552 3.0645 0
M  V30 3866 C 377.582 2.11503 1.79337 0
M  V30 3867 H 380.533 1.45906 0.624262 0
M  V30 3868 H 380.554 1.86917 3.31425 0
M  V30 3869 H 380.066 3.24996 2.1213 0
M  V30 3870 H 378.167 1.21976 3.52069 0
M  V30 3871 H 378.28 3.0993 3.65349 0
M  V30 3872 H 376.644 1.57268 2.00347 0
M  V30 3873 H 377.427 3.13284 1.40386 0
M  V30 3874 N 379.872 -1.04064 1.18357 0
M  V30 3875 C 381.149 -1.74252 0.888581 0
M  V30 3876 C 381.529 -2.02138 -0.60856 0
M  V30 3877 O 380.877 -1.66656 -1.56327 0
M  V30 3878 C 381.087 -3.0277 1.73584 0
M  V30 3879 C 382.435 -3.76506 1.96286 0
M  V30 3880 O 383.459 -3.12668 1.70637 0
M  V30 3881 O 382.318 -4.91243 2.39464 0
M  V30 3882 H 379.412 -0.758271 0.330082 0
M  V30 3883 H 381.958 -1.1013 1.2911 0
M  V30 3884 H 380.73 -2.78299 2.75073 0
M  V30 3885 H 380.353 -3.74631 1.33183 0
M  V30 3886 N 381.35 -0.985608 -1.22978 0
M  V30 3887 C 382.766 -0.695104 -1.43668 0
M  V30 3888 C 382.966 0.736866 -1.87543 0
M  V30 3889 O 382.022 1.50868 -2.02473 0
M  V30 3890 C 383.335 -1.69447 -2.48412 0
M  V30 3891 C 384.883 -1.70909 -2.62219 0
M  V30 3892 C 385.358 -2.6969 -3.70178 0
M  V30 3893 N 386.849 -2.6824 -3.77626 0
M  V30 3894 C 387.584 -3.41339 -4.60733 0
M  V30 3895 N 387.08 -4.24015 -5.4789 0
M  V30 3896 N 388.873 -3.30079 -4.54977 0
M  V30 3897 H 381.024 -1.91054 -0.928016 0
M  V30 3898 H 383.287 -0.823553 -0.469536 0
M  V30 3899 H 382.993 -2.7188 -2.23102 0
M  V30 3900 H 382.867 -1.48147 -3.46889 0
M  V30 3901 H 385.254 -0.691785 -2.86877 0
M  V30 3902 H 385.335 -1.96276 -1.6404 0
M  V30 3903 H 384.979 -3.71566 -3.46268 0
M  V30 3904 H 384.909 -2.41595 -4.67909 0
M  V30 3905 H 387.4 -2.08243 -3.15346 0
M  V30 3906 H 387.713 -4.76636 -6.08308 0
M  V30 3907 H 386.058 -4.28104 -5.47496 0
M  V30 3908 H 389.249 -2.64937 -3.85909 0
M  V30 3909 H 389.422 -3.87308 -5.19516 0
M  V30 3910 N 382.828 1.3818 -0.7579 0
M  V30 3911 C 384.105 1.94106 -0.241306 0
M  V30 3912 C 384.485 1.69282 1.26122 0
M  V30 3913 O 383.833 1.03378 2.03777 0
M  V30 3914 C 384.043 3.43809 -0.59967 0
M  V30 3915 C 385.391 4.20868 -0.561717 0
M  V30 3916 O 386.415 3.5211 -0.538222 0
M  V30 3917 O 385.274 5.43451 -0.576478 0
M  V30 3918 H 382.368 0.825376 -0.0518042 0
M  V30 3919 H 384.914 1.47548 -0.838315 0
M  V30 3920 H 383.686 3.55403 -1.6372 0
M  V30 3921 H 383.309 3.97592 0.0251197 0
M  V30 3922 N 384.306 0.507319 1.49211 0
M  V30 3923 C 385.238 -0.304532 2.27168 0
M  V30 3924 C 386.251 -0.924956 1.33972 0
M  V30 3925 O 387.44 -0.807227 1.59205 0
M  V30 3926 C 384.54 -1.44431 3.06583 0
M  V30 3927 C 383.713 -0.930026 4.27398 0
M  V30 3928 C 382.772 -1.94817 4.88807 0
M  V30 3929 O 381.798 -1.51418 5.4869 0
M  V30 3930 N 383 -3.279 4.79022 0
M  V30 3931 H 385.765 0.36395 2.97482 0
M  V30 3932 H 383.326 0.340249 1.58284 0
M  V30 3933 H 385.318 -2.12311 3.44537 0
M  V30 3934 H 383.888 -2.01684 2.38835 0
M  V30 3935 H 383.108 -0.0759244 3.94127 0
M  V30 3936 H 384.396 -0.564932 5.05654 0
M  V30 3937 H 383.794 -3.65843 4.3148 0
M  V30 3938 H 382.351 -3.91476 5.21142 0
M  V30 3939 N 385.784 -1.5574 0.241426 0
M  V30 3940 C 386.734 -2.17803 -0.674233 0
M  V30 3941 C 387.718 -1.13225 -1.14319 0
M  V30 3942 O 388.91 -1.39153 -1.09387 0
M  V30 3943 C 386.039 -2.87682 -1.87333 0
M  V30 3944 C 385.125 -3.99509 -1.42313 0
M  V30 3945 N 385.516 -5.01115 -0.686798 0
M  V30 3946 C 383.814 -4.11964 -1.70885 0
M  V30 3947 C 384.515 -5.79922 -0.454456 0
M  V30 3948 N 383.491 -5.34001 -1.01705 0
M  V30 3949 H 387.293 -2.93718 -0.103447 0
M  V30 3950 H 384.807 -1.62342 0.0435095 0
M  V30 3951 H 386.804 -3.3057 -2.54026 0
M  V30 3952 H 385.464 -2.13269 -2.4484 0
M  V30 3953 H 386.475 -5.16799 -0.337459 0
M  V30 3954 H 383.152 -3.48718 -2.2957 0
M  V30 3955 H 384.542 -6.71768 0.132992 0
M  V30 3956 N 387.262 0.0317525 -1.57568 0
M  V30 3957 C 388.508 0.724175 -1.8943 0
M  V30 3958 C 388.841 1.75149 -0.838836 0
M  V30 3959 O 388.116 1.93948 0.146422 0
M  V30 3960 C 388.399 1.39615 -3.31933 0
M  V30 3961 C 388.252 0.382537 -4.4817 0
M  V30 3962 C 389.571 2.33084 -3.73309 0
M  V30 3963 H 386.69 0.261797 -0.688935 0
M  V30 3964 H 389.332 -0.013017 -1.89996 0
M  V30 3965 H 387.482 2.02451 -3.31581 0
M  V30 3966 H 389.154 -0.243689 -4.60656 0
M  V30 3967 H 387.397 -0.29844 -4.32772 0
M  V30 3968 H 388.068 0.891145 -5.44759 0
M  V30 3969 H 390.544 1.80295 -3.7501 0
M  V30 3970 H 389.42 2.77084 -4.73831 0
M  V30 3971 H 389.681 3.19643 -3.05419 0
M  V30 3972 N 388.74 1.54641 0.303973 0
M  V30 3973 C 389.968 1.77768 1.05858 0
M  V30 3974 C 390.383 0.535722 1.8104 0
M  V30 3975 O 389.74 -0.494337 1.75677 0
M  V30 3976 C 389.791 2.9834 2.04146 0
M  V30 3977 O 389.512 4.17736 1.32015 0
M  V30 3978 C 391.013 3.33832 2.91669 0
M  V30 3979 H 388.233 0.592961 0.314067 0
M  V30 3980 H 390.777 2.01583 0.344149 0
M  V30 3981 H 388.932 2.76742 2.71096 0
M  V30 3982 H 389.346 4.85693 1.97998 0
M  V30 3983 H 390.82 4.21448 3.56491 0
M  V30 3984 H 391.297 2.51857 3.59812 0
M  V30 3985 H 391.903 3.57579 2.30254 0
M  V30 3986 N 390.218 -0.567019 1.47046 0
M  V30 3987 C 391.467 -1.32091 1.5243 0
M  V30 3988 C 391.78 -1.94704 0.187021 0
M  V30 3989 O 392.986 -2.7124 0.118771 0
M  V30 3990 C 391.442 -2.39479 2.68659 0
M  V30 3991 C 391.05 -1.831 4.08874 0
M  V30 3992 C 392.794 -3.16111 2.83327 0
M  V30 3993 C 390.701 -2.8821 5.16419 0
M  V30 3994 H 389.631 -0.496629 0.56734 0
M  V30 3995 H 392.282 -0.603354 1.73297 0
M  V30 3996 H 390.664 -3.14105 2.41152 0
M  V30 3997 H 391.838 -1.14913 4.46242 0
M  V30 3998 H 390.153 -1.19085 3.99008 0
M  V30 3999 H 392.75 -3.94585 3.60842 0
M  V30 4000 H 393.093 -3.69686 1.91411 0
M  V30 4001 H 393.626 -2.48595 3.10556 0
M  V30 4002 H 390.365 -2.39504 6.10179 0
M  V30 4003 H 389.885 -3.54839 4.8358 0
M  V30 4004 H 391.564 -3.51881 5.42945 0
M  V30 4005 N 391.696 -1.35014 -0.812953 0
M  V30 4006 C 392.945 -1.27269 -1.56479 0
M  V30 4007 C 393.258 0.152771 -1.95002 0
M  V30 4008 O 394.464 0.352451 -2.69203 0
M  V30 4009 C 392.92 -2.23159 -2.82362 0
M  V30 4010 C 392.528 -3.71016 -2.511 0
M  V30 4011 C 394.272 -2.24342 -3.60376 0
M  V30 4012 C 392.179 -4.58746 -3.73237 0
M  V30 4013 H 391.109 -0.472829 -0.587324 0
M  V30 4014 H 393.76 -1.6024 -0.894171 0
M  V30 4015 H 392.142 -1.83151 -3.51101 0
M  V30 4016 H 393.316 -4.1962 -1.90409 0
M  V30 4017 H 391.631 -3.72378 -1.86343 0
M  V30 4018 H 394.228 -2.87107 -4.51081 0
M  V30 4019 H 394.571 -1.24542 -3.97234 0
M  V30 4020 H 395.104 -2.62846 -2.98591 0
M  V30 4021 H 391.843 -5.59521 -3.41492 0
M  V30 4022 H 391.363 -4.14871 -4.33176 0
M  V30 4023 H 393.042 -4.73852 -4.40537 0
M  V30 4024 N 393.175 1.03435 -1.18907 0
M  V30 4025 C 394.591 1.28973 -0.940111 0
M  V30 4026 C 394.791 1.97676 0.390691 0
M  V30 4027 O 393.847 2.26127 1.12352 0
M  V30 4028 C 395.16 2.14221 -2.11021 0
M  V30 4029 C 396.708 2.27547 -2.14922 0
M  V30 4030 C 397.183 3.16164 -3.31367 0
M  V30 4031 N 398.674 3.23752 -3.31269 0
M  V30 4032 C 399.409 3.92495 -4.18014 0
M  V30 4033 N 398.905 4.63515 -5.14904 0
M  V30 4034 N 400.698 3.88838 -4.05908 0
M  V30 4035 H 392.849 0.57252 -2.04538 0
M  V30 4036 H 395.112 0.315184 -0.894071 0
M  V30 4037 H 394.818 1.71054 -3.073 0
M  V30 4038 H 394.692 3.14919 -2.0762 0
M  V30 4039 H 397.079 2.69947 -1.19217 0
M  V30 4040 H 397.16 1.26418 -2.22378 0
M  V30 4041 H 396.804 2.74474 -4.27348 0
M  V30 4042 H 396.734 4.17339 -3.21148 0
M  V30 4043 H 399.225 2.73167 -2.61129 0
M  V30 4044 H 399.538 5.13583 -5.77453 0
M  V30 4045 H 397.883 4.62398 -5.18857 0
M  V30 4046 H 401.074 3.32491 -3.29495 0
M  V30 4047 H 401.247 4.4214 -4.73726 0
M  V30 4048 N 394.653 0.992116 1.22453 0
M  V30 4049 C 395.563 0.55065 2.28046 0
M  V30 4050 C 396.579 -0.400189 1.69335 0
M  V30 4051 O 397.755 -0.267215 1.99619 0
M  V30 4052 C 394.82 -0.128496 3.46462 0
M  V30 4053 C 393.881 0.865208 4.20491 0
M  V30 4054 C 393.114 0.218377 5.33253 0
M  V30 4055 O 393.337 -0.987894 5.6178 0
M  V30 4056 O 392.271 0.922845 5.94783 0
M  V30 4057 H 396.097 1.4291 2.67975 0
M  V30 4058 H 393.682 0.760326 1.28606 0
M  V30 4059 H 395.564 -0.508947 4.18315 0
M  V30 4060 H 394.239 -0.981526 3.0846 0
M  V30 4061 H 393.146 1.29658 3.50913 0
M  V30 4062 H 394.479 1.68741 4.62371 0
M  V30 4063 N 396.131 -1.37776 0.765217 0
M  V30 4064 C 397.079 -2.32209 0.134798 0
M  V30 4065 C 398.073 -1.54607 -0.692315 0
M  V30 4066 O 399.279 -1.70052 -0.590109 0
M  V30 4067 H 395.654 -0.751591 0.0248005 0
M  V30 4068 H 397.625 -2.8297 0.947119 0
M  V30 4069 C 396.374 -3.39841 -0.735063 0
M  V30 4070 H 395.697 -3.99654 -0.107991 0
M  V30 4071 H 397.137 -4.08296 -1.14326 0
M  V30 4072 C 395.596 -2.79378 -1.88281 0
M  V30 4073 O 396.126 -2.69608 -2.97783 0
M  V30 4074 N 394.332 -2.37016 -1.68142 0
M  V30 4075 H 393.879 -2.45162 -0.790772 0
M  V30 4076 H 393.837 -1.96905 -2.45104 0
M  V30 4077 N 397.609 -0.515225 -1.4894 0
M  V30 4078 C 398.858 0.0261361 -2.01683 0
M  V30 4079 C 399.171 1.36719 -1.39883 0
M  V30 4080 O 400.377 1.99606 -1.84037 0
M  V30 4081 C 398.833 0.0970111 -3.59769 0
M  V30 4082 C 398.441 -1.23825 -4.30548 0
M  V30 4083 C 400.185 0.587981 -4.20408 0
M  V30 4084 C 398.092 -1.12877 -5.80528 0
M  V30 4085 H 397.022 0.0135398 -0.753878 0
M  V30 4086 H 399.673 -0.656787 -1.71343 0
M  V30 4087 H 398.055 0.844694 -3.86886 0
M  V30 4088 H 399.229 -2.00034 -4.15118 0
M  V30 4089 H 397.544 -1.66379 -3.81716 0
M  V30 4090 H 400.141 0.68763 -5.3026 0
M  V30 4091 H 400.484 1.59026 -3.84729 0
M  V30 4092 H 401.017 -0.103582 -3.97665 0
M  V30 4093 H 397.756 -2.10575 -6.20756 0
M  V30 4094 H 397.276 -0.407799 -5.98412 0
M  V30 4095 H 398.955 -0.813332 -6.41868 0
M  V30 4096 N 399.087 1.5561 -0.249682 0
M  V30 4097 C 400.019 2.18834 0.681496 0
M  V30 4098 C 401.032 1.16546 1.1367 0
M  V30 4099 O 402.221 1.43397 1.06299 0
M  V30 4100 C 399.321 2.77992 1.9384 0
M  V30 4101 C 398.494 4.05725 1.63419 0
M  V30 4102 C 397.553 4.49174 2.74096 0
M  V30 4103 O 396.579 5.15492 2.41364 0
M  V30 4104 N 397.781 4.17191 4.03649 0
M  V30 4105 H 400.546 2.9937 0.140514 0
M  V30 4106 H 398.107 1.6175 -0.0697541 0
M  V30 4107 H 400.099 3.04015 2.67127 0
M  V30 4108 H 398.669 2.01596 2.38909 0
M  V30 4109 H 397.889 3.87261 0.736358 0
M  V30 4110 H 399.177 4.88999 1.40562 0
M  V30 4111 H 398.575 3.63955 4.33074 0
M  V30 4112 H 397.132 4.48043 4.73393 0
M  V30 4113 N 400.565 -0.0233959 1.57583 0
M  V30 4114 C 401.976 -0.56927 1.77809 0
M  V30 4115 C 402.327 -1.75284 0.881472 0
M  V30 4116 O 401.452 -2.1626 0.0777805 0
M  V30 4117 C 402.047 -1.03949 3.22459 0
M  V30 4118 C 400.606 -1.53084 3.43864 0
M  V30 4119 C 399.753 -0.471454 2.73263 0
M  V30 4120 H 402.704 0.202825 1.57399 0
M  V30 4121 H 402.725 -1.90661 3.29285 0
M  V30 4122 H 402.237 -0.177865 3.87692 0
M  V30 4123 H 400.338 -2.41414 2.83814 0
M  V30 4124 H 400.451 -1.57443 4.52491 0
M  V30 4125 H 398.815 -0.927788 2.37201 0
M  V30 4126 H 399.598 0.380808 3.41181 0
M  V30 4127 N 402.043 -1.548 -0.295768 0
M  V30 4128 C 403.291 -1.73985 -1.02828 0
M  V30 4129 C 403.612 -0.531406 -1.87619 0
M  V30 4130 O 402.882 0.454221 -1.90561 0
M  V30 4131 H 401.462 -0.641556 -0.382642 0
M  V30 4132 H 404.124 -1.92163 -0.325489 0
M  V30 4133 H 403.22 -2.63129 -1.67838 0
M  V30 4134 N 403.521 0.559213 -1.47345 0
M  V30 4135 C 404.453 1.68161 -1.55738 0
M  V30 4136 C 405.466 1.56636 -0.443744 0
M  V30 4137 O 406.655 1.6363 -0.713258 0
M  V30 4138 C 403.755 3.06611 -1.4437 0
M  V30 4139 C 402.928 3.4391 -2.70268 0
M  V30 4140 C 401.987 4.61515 -2.52765 0
M  V30 4141 O 401.013 4.66197 -3.26572 0
M  V30 4142 N 402.215 5.57883 -1.6046 0
M  V30 4143 H 404.98 1.61408 -2.52522 0
M  V30 4144 H 402.541 0.7458 -1.43699 0
M  V30 4145 H 404.533 3.83117 -1.30398 0
M  V30 4146 H 403.103 3.07602 -0.556766 0
M  V30 4147 H 402.323 2.56873 -2.99015 0
M  V30 4148 H 403.611 3.65605 -3.53851 0
M  V30 4149 H 403.009 5.56855 -0.996422 0
M  V30 4150 H 401.566 6.33723 -1.52441 0
M  V30 4151 N 404.999 1.35443 0.805782 0
M  V30 4152 C 405.909 1.30546 1.94923 0
M  V30 4153 C 406.925 0.210233 1.72725 0
M  V30 4154 O 408.101 0.43975 1.9654 0
M  V30 4155 C 405.166 1.07782 3.29521 0
M  V30 4156 C 404.227 2.26625 3.64609 0
M  V30 4157 C 403.46 2.04938 4.92784 0
M  V30 4158 O 403.683 1.01624 5.61274 0
M  V30 4159 O 402.617 2.9232 5.26149 0
M  V30 4160 H 406.443 2.26779 2.02002 0
M  V30 4161 H 404.028 1.15823 0.943682 0
M  V30 4162 H 405.91 0.969392 4.10098 0
M  V30 4163 H 404.585 0.146003 3.23371 0
M  V30 4164 H 403.492 2.43033 2.84404 0
M  V30 4165 H 404.825 3.18257 3.75464 0
M  V30 4166 N 406.477 -1.02803 1.19454 0
M  V30 4167 C 407.707 -1.79581 1.02149 0
M  V30 4168 C 408.115 -1.84182 -0.432851 0
M  V30 4169 O 407.458 -1.28534 -1.31243 0
M  V30 4170 C 407.52 -3.25993 1.51554 0
M  V30 4171 C 407.184 -3.45025 2.99678 0
M  V30 4172 C 408.181 -3.35175 3.97434 0
M  V30 4173 C 405.866 -3.71212 3.38389 0
M  V30 4174 C 407.86 -3.51238 5.31893 0
M  V30 4175 C 405.547 -3.8692 4.73008 0
M  V30 4176 C 406.545 -3.76936 5.69569 0
M  V30 4177 O 406.233 -3.92179 7.01748 0
M  V30 4178 H 405.965 -0.571962 0.360327 0
M  V30 4179 H 408.519 -1.30367 1.58725 0
M  V30 4180 H 406.749 -3.76235 0.893543 0
M  V30 4181 H 408.438 -3.84368 1.30444 0
M  V30 4182 H 409.204 -3.14895 3.68872 0
M  V30 4183 H 405.083 -3.78075 2.6378 0
M  V30 4184 H 408.627 -3.43362 6.07247 0
M  V30 4185 H 404.524 -4.06699 5.01265 0
M  V30 4186 H 405.292 -4.09265 7.08833 0
M  V30 4187 N 407.956 -0.998596 -1.21925 0
M  V30 4188 C 408.904 -0.546641 -2.26085 0
M  V30 4189 C 409.898 0.405576 -1.64473 0
M  V30 4190 O 411.104 0.277471 -1.77849 0
M  V30 4191 H 407.479 -0.158403 -0.735127 0
M  V30 4192 H 409.45 -1.43645 -2.61551 0
M  V30 4193 C 408.199 0.117388 -3.47502 0
M  V30 4194 H 407.522 -0.606277 -3.95176 0
M  V30 4195 H 408.962 0.396993 -4.22137 0
M  V30 4196 C 407.421 1.35455 -3.0847 0
M  V30 4197 O 407.951 2.44944 -3.18379 0
M  V30 4198 N 406.157 1.23191 -2.63196 0
M  V30 4199 H 405.704 0.341006 -2.55333 0
M  V30 4200 H 405.662 2.06071 -2.37449 0
M  V30 4201 N 409.434 1.37368 -0.772513 0
M  V30 4202 C 410.681 1.99673 -0.337182 0
M  V30 4203 C 411.009 1.61324 1.0865 0
M  V30 4204 O 410.264 0.851377 1.7621 0
M  V30 4205 C 410.563 3.54817 -0.428876 0
M  V30 4206 C 410.229 4.12936 -1.81092 0
M  V30 4207 C 408.891 4.28523 -2.1891 0
M  V30 4208 C 411.243 4.44801 -2.71664 0
M  V30 4209 C 408.571 4.73277 -3.46735 0
M  V30 4210 C 410.923 4.90981 -3.98899 0
M  V30 4211 C 409.587 5.04773 -4.36761 0
M  V30 4212 H 408.857 0.730656 -0.123384 0
M  V30 4213 H 411.504 1.64124 -0.986686 0
M  V30 4214 H 409.809 3.90618 0.304167 0
M  V30 4215 H 411.506 4.00933 -0.0733334 0
M  V30 4216 H 408.096 4.01233 -1.50699 0
M  V30 4217 H 412.28 4.32344 -2.43706 0
M  V30 4218 H 407.536 4.82142 -3.75964 0
M  V30 4219 H 411.71 5.14603 -4.69208 0
M  V30 4220 H 409.337 5.39211 -5.35868 0
M  V30 4221 N 410.912 0.523116 1.48665 0
M  V30 4222 C 411.842 -0.23231 2.32342 0
M  V30 4223 C 412.823 -0.941637 1.41659 0
M  V30 4224 O 414.008 -0.928751 1.70552 0
M  V30 4225 C 411.138 -1.28387 3.22698 0
M  V30 4226 C 410.092 -0.693098 4.22351 0
M  V30 4227 C 409.418 -1.8468 5.01794 0
M  V30 4228 C 410.718 0.33063 5.21252 0
M  V30 4229 H 412.412 0.466192 2.95748 0
M  V30 4230 H 409.958 0.225643 1.42221 0
M  V30 4231 H 411.911 -1.82024 3.80059 0
M  V30 4232 H 410.635 -2.01186 2.57278 0
M  V30 4233 H 409.294 -0.178299 3.66166 0
M  V30 4234 H 408.942 -2.56301 4.32804 0
M  V30 4235 H 408.642 -1.45747 5.69238 0
M  V30 4236 H 410.166 -2.38709 5.62006 0
M  V30 4237 H 411.58 -0.118407 5.73178 0
M  V30 4238 H 409.977 0.636974 5.9671 0
M  V30 4239 H 411.047 1.23883 4.68808 0
M  V30 4240 N 412.39 -1.55475 0.257931 0
M  V30 4241 C 413.337 -2.21837 -0.636939 0
M  V30 4242 C 414.307 -1.18596 -1.16294 0
M  V30 4243 O 415.492 -1.47081 -1.21539 0
M  V30 4244 C 412.632 -2.9301 -1.82317 0
M  V30 4245 C 411.745 -4.10931 -1.33265 0
M  V30 4246 C 410.88 -4.69791 -2.47931 0
M  V30 4247 C 409.919 -5.7994 -1.95796 0
M  V30 4248 N 409.056 -6.32935 -3.0387 0
M  V30 4249 H 413.896 -2.9793 -0.0643591 0
M  V30 4250 H 411.433 -1.47086 -0.0200031 0
M  V30 4251 H 413.391 -3.3248 -2.52018 0
M  V30 4252 H 412.021 -2.1937 -2.36805 0
M  V30 4253 H 411.073 -3.76699 -0.52931 0
M  V30 4254 H 412.385 -4.90417 -0.910654 0
M  V30 4255 H 411.539 -5.11892 -3.25656 0
M  V30 4256 H 410.278 -3.89545 -2.93438 0
M  V30 4257 H 409.283 -5.37305 -1.16546 0
M  V30 4258 H 410.508 -6.62043 -1.51246 0
M  V30 4259 H 408.454 -5.55591 -3.48791 0
M  V30 4260 H 408.371 -7.07645 -2.66035 0
M  V30 4261 H 409.639 -6.79695 -3.81621 0
M  V30 4262 N 413.868 0.0150385 -1.57593 0
M  V30 4263 C 414.801 1.04475 -2.0288 0
M  V30 4264 C 415.779 1.3436 -0.915764 0
M  V30 4265 O 416.963 1.46779 -1.18271 0
M  V30 4266 C 414.09 2.37608 -2.41371 0
M  V30 4267 C 413.136 2.23487 -3.63257 0
M  V30 4268 S 413.969 1.57505 -5.11813 0
M  V30 4269 C 415.125 2.921 -5.5356 0
M  V30 4270 H 415.358 0.65907 -2.89903 0
M  V30 4271 H 412.891 0.225452 -1.52745 0
M  V30 4272 H 414.849 3.14165 -2.64217 0
M  V30 4273 H 413.51 2.7332 -1.54775 0
M  V30 4274 H 412.703 3.21802 -3.87891 0
M  V30 4275 H 412.305 1.55074 -3.40335 0
M  V30 4276 H 414.597 3.88419 -5.55101 0
M  V30 4277 H 415.54 2.72184 -6.53698 0
M  V30 4278 H 415.948 2.95318 -4.8109 0
M  V30 4279 N 415.346 1.54954 0.287554 0
M  V30 4280 C 416.256 1.8991 1.37736 0
M  V30 4281 C 417.272 0.794701 1.54792 0
M  V30 4282 O 418.448 1.09243 1.69198 0
M  V30 4283 C 415.513 2.15108 2.71899 0
M  V30 4284 C 414.574 3.38752 2.63715 0
M  V30 4285 C 413.807 3.62739 3.91479 0
M  V30 4286 O 414.03 2.89492 4.91478 0
M  V30 4287 O 412.964 4.56267 3.92561 0
M  V30 4288 H 416.79 2.82652 1.11092 0
M  V30 4289 H 414.375 1.41315 0.484807 0
M  V30 4290 H 416.257 2.32806 3.51254 0
M  V30 4291 H 414.932 1.25551 2.9836 0
M  V30 4292 H 413.839 3.26405 1.82786 0
M  V30 4293 H 415.172 4.28483 2.42205 0
M  V30 4294 N 416.824 -0.551391 1.4764 0
M  V30 4295 C 417.787 -1.64007 1.60107 0
M  V30 4296 C 418.787 -1.53601 0.47576 0
M  V30 4297 O 419.977 -1.57655 0.740988 0
M  V30 4298 C 417.109 -3.03569 1.55108 0
M  V30 4299 H 418.302 -1.543 2.57161 0
M  V30 4300 H 415.855 -0.771776 1.35917 0
M  V30 4301 H 416.59 -3.18804 0.594519 0
M  V30 4302 H 416.375 -3.12532 2.36783 0
M  V30 4303 H 417.865 -3.82762 1.66982 0
M  V30 4304 N 418.302 -1.35869 -0.798587 0
M  V30 4305 C 419.55 -1.29332 -1.55298 0
M  V30 4306 C 419.871 0.129729 -1.94568 0
M  V30 4307 O 419.141 1.06796 -1.6423 0
M  V30 4308 H 417.721 -0.475737 -0.57592 0
M  V30 4309 H 420.383 -1.70062 -0.952093 0
M  V30 4310 H 419.479 -1.91458 -2.46476 0
M  V30 4311 N 419.78 1.02168 -1.19998 0
M  V30 4312 C 420.69 2.14069 -0.959774 0
M  V30 4313 C 421.706 1.73804 0.082655 0
M  V30 4314 O 422.882 2.01133 -0.103633 0
M  V30 4315 C 419.947 3.42936 -0.509459 0
M  V30 4316 C 419.008 3.97474 -1.62213 0
M  V30 4317 C 418.241 5.2019 -1.19321 0
M  V30 4318 O 418.464 5.70369 -0.0597726 0
M  V30 4319 O 417.398 5.67749 -1.99863 0
M  V30 4320 H 421.224 2.37199 -1.89658 0
M  V30 4321 H 418.809 1.12469 -0.983411 0
M  V30 4322 H 420.691 4.20551 -0.267322 0
M  V30 4323 H 419.366 3.21234 0.398821 0
M  V30 4324 H 418.273 3.21161 -1.9185 0
M  V30 4325 H 419.606 4.23555 -2.50723 0
M  V30 4326 N 421.258 1.00505 1.21394 0
M  V30 4327 C 422.504 0.688793 1.90745 0
M  V30 4328 C 422.837 -0.778486 1.77914 0
M  V30 4329 O 422.112 -1.56433 1.15581 0
M  V30 4330 C 422.395 1.11063 3.42545 0
M  V30 4331 C 422.248 2.63737 3.64367 0
M  V30 4332 C 423.567 0.673059 4.34923 0
M  V30 4333 H 420.686 0.251702 0.692687 0
M  V30 4334 H 423.328 1.25074 1.43026 0
M  V30 4335 H 421.478 0.632508 3.83317 0
M  V30 4336 H 423.15 3.19313 3.32922 0
M  V30 4337 H 421.393 3.05248 3.08231 0
M  V30 4338 H 422.064 2.88305 4.70727 0
M  V30 4339 H 424.54 1.08392 4.01734 0
M  V30 4340 H 423.416 0.996383 5.39781 0
M  V30 4341 H 423.677 -0.425808 4.40045 0
M  V30 4342 N 422.737 -1.36956 0.779787 0
M  V30 4343 C 423.962 -2.04283 0.358224 0
M  V30 4344 C 424.387 -1.58422 -1.01411 0
M  V30 4345 O 423.745 -0.748179 -1.65142 0
M  V30 4346 C 423.793 -3.58152 0.419479 0
M  V30 4347 O 422.897 -4.08342 -0.577142 0
M  V30 4348 H 422.238 -0.645967 0.153698 0
M  V30 4349 H 424.768 -1.75108 1.05822 0
M  V30 4350 H 424.778 -4.07041 0.279636 0
M  V30 4351 H 423.453 -3.90886 1.42061 0
M  V30 4352 H 422.03 -3.70751 -0.399755 0
M  V30 4353 N 424.215 -0.530993 -1.48385 0
M  V30 4354 C 425.44 0.000729535 -2.074 0
M  V30 4355 C 425.865 1.27298 -1.3848 0
M  V30 4356 O 425.223 1.75599 -0.451081 0
M  V30 4357 C 425.271 0.206697 -3.60007 0
M  V30 4358 O 424.375 1.27514 -3.92191 0
M  V30 4359 H 423.716 -0.039583 -0.662819 0
M  V30 4360 H 426.246 -0.739194 -1.9078 0
M  V30 4361 H 426.256 0.42904 -4.05738 0
M  V30 4362 H 424.931 -0.722675 -4.09573 0
M  V30 4363 H 423.508 1.03537 -3.58238 0
M  V30 4364 N 425.693 1.55336 -0.266172 0
M  V30 4365 C 426.623 2.25146 0.618981 0
M  V30 4366 C 427.604 1.23845 1.16604 0
M  V30 4367 O 428.789 1.52544 1.20183 0
M  V30 4368 C 425.919 2.96572 1.80728 0
M  V30 4369 C 424.873 4.04726 1.39215 0
M  V30 4370 C 424.199 4.63678 2.66283 0
M  V30 4371 C 425.499 5.19407 0.548942 0
M  V30 4372 H 427.193 2.99377 0.0368116 0
M  V30 4373 H 424.739 1.43991 0.0162651 0
M  V30 4374 H 426.692 3.44116 2.43232 0
M  V30 4375 H 425.416 2.19861 2.41514 0
M  V30 4376 H 424.075 3.57979 0.790351 0
M  V30 4377 H 423.723 3.83646 3.25308 0
M  V30 4378 H 423.423 5.367 2.39222 0
M  V30 4379 H 424.947 5.13967 3.29651 0
M  V30 4380 H 426.361 5.63059 1.07876 0
M  V30 4381 H 424.758 5.98936 0.373593 0
M  V30 4382 H 425.828 4.8295 -0.434394 0
M  V30 4383 N 427.171 -0.0066808 1.57599 0
M  V30 4384 C 428.419 -0.691552 1.899 0
M  V30 4385 C 428.74 -1.74682 0.866672 0
M  V30 4386 O 428.01 -1.95661 -0.0968189 0
M  V30 4387 H 426.59 -0.258416 0.700878 0
M  V30 4388 H 429.252 0.0326655 1.94873 0
M  V30 4389 H 428.348 -1.16702 2.8946 0
M  V30 4390 N 428.649 -1.55105 -0.279332 0
M  V30 4391 C 429.559 -1.90638 -1.36727 0
M  V30 4392 C 430.575 -0.802899 -1.54368 0
M  V30 4393 O 431.751 -1.10138 -1.68616 0
M  V30 4394 C 428.816 -2.16547 -2.70755 0
M  V30 4395 C 427.877 -3.40146 -2.61915 0
M  V30 4396 C 427.11 -3.6481 -3.8955 0
M  V30 4397 O 427.333 -2.92095 -4.89935 0
M  V30 4398 O 426.267 -4.58343 -3.90135 0
M  V30 4399 H 430.093 -2.83237 -1.09591 0
M  V30 4400 H 427.678 -1.4157 -0.477306 0
M  V30 4401 H 429.56 -2.34665 -3.50014 0
M  V30 4402 H 428.235 -1.27131 -2.9769 0
M  V30 4403 H 427.142 -3.2737 -1.81052 0
M  V30 4404 H 428.475 -4.29761 -2.3993 0
M  V30 4405 N 430.127 0.543554 -1.4793 0
M  V30 4406 C 431.355 1.32516 -1.58894 0
M  V30 4407 C 431.77 1.87215 -0.244131 0
M  V30 4408 O 431.127 1.65709 0.764652 0
M  V30 4409 C 431.178 2.48554 -2.62494 0
M  V30 4410 O 430.899 1.96112 -3.91755 0
M  V30 4411 C 432.4 3.40572 -2.8377 0
M  V30 4412 H 429.62 0.403472 -0.536145 0
M  V30 4413 H 432.164 0.657106 -1.93655 0
M  V30 4414 H 430.319 3.1127 -2.30629 0
M  V30 4415 H 430.733 2.71967 -4.4848 0
M  V30 4416 H 432.207 4.18375 -3.60093 0
M  V30 4417 H 432.684 3.94965 -1.92092 0
M  V30 4418 H 433.29 2.8366 -3.16887 0
M  V30 4419 N 431.605 1.3629 0.791371 0
M  V30 4420 C 432.835 1.33368 1.57786 0
M  V30 4421 C 433.243 -0.0875188 1.88997 0
M  V30 4422 O 432.586 -1.05427 1.50435 0
M  V30 4423 C 432.648 2.08802 2.92646 0
M  V30 4424 C 432.312 3.57903 2.84174 0
M  V30 4425 C 433.309 4.52191 2.56553 0
M  V30 4426 C 430.994 4.00762 3.02812 0
M  V30 4427 C 432.988 5.87315 2.47669 0
M  V30 4428 C 430.675 5.35977 2.93551 0
M  V30 4429 C 431.673 6.29066 2.66017 0
M  V30 4430 O 431.361 7.61798 2.56746 0
M  V30 4431 H 431.093 0.459166 0.496128 0
M  V30 4432 H 433.647 1.79952 0.990269 0
M  V30 4433 H 431.877 1.56878 3.53449 0
M  V30 4434 H 433.566 1.98762 3.53904 0
M  V30 4435 H 434.332 4.20393 2.41858 0
M  V30 4436 H 430.211 3.2868 3.2325 0
M  V30 4437 H 433.755 6.59943 2.26099 0
M  V30 4438 H 429.652 5.67384 3.07808 0
M  V30 4439 H 430.42 7.71898 2.72242 0
M  V30 4440 N 433.083 -1.0153 1.20538 0
M  V30 4441 C 434.36 -1.72327 0.925343 0
M  V30 4442 C 434.74 -2.03383 -0.565547 0
M  V30 4443 O 434.088 -1.69934 -1.52757 0
M  V30 4444 C 434.298 -2.9902 1.79967 0
M  V30 4445 C 435.646 -3.72258 2.04228 0
M  V30 4446 O 436.67 -3.08979 1.77231 0
M  V30 4447 O 435.529 -4.86053 2.4983 0
M  V30 4448 H 432.623 -0.751099 0.346092 0
M  V30 4449 H 435.169 -1.07366 1.31417 0
M  V30 4450 H 433.941 -2.72402 2.80915 0
M  V30 4451 H 433.564 -3.71721 1.41099 0
M  V30 4452 N 434.561 -1.01147 -1.20859 0
M  V30 4453 C 435.808 -0.697865 -1.90095 0
M  V30 4454 C 436.136 0.772014 -1.78522 0
M  V30 4455 O 435.391 1.57595 -1.16027 0
M  V30 4456 C 435.69 -1.0727 -3.40922 0
M  V30 4457 C 435.356 -2.53792 -3.72693 0
M  V30 4458 C 434.018 -2.93829 -3.81075 0
M  V30 4459 C 436.37 -3.48674 -3.87397 0
M  V30 4460 C 433.698 -4.27696 -4.01613 0
M  V30 4461 C 436.05 -4.82223 -4.09444 0
M  V30 4462 C 434.714 -5.21973 -4.16054 0
M  V30 4463 H 433.984 -0.255367 -0.695607 0
M  V30 4464 H 436.631 -1.27111 -1.43231 0
M  V30 4465 H 434.936 -0.417799 -3.89566 0
M  V30 4466 H 436.633 -0.807818 -3.92779 0
M  V30 4467 H 433.223 -2.21768 -3.66765 0
M  V30 4468 H 437.407 -3.18904 -3.80281 0
M  V30 4469 H 432.663 -4.58055 -4.04964 0
M  V30 4470 H 436.837 -5.55672 -4.19763 0
M  V30 4471 H 434.464 -6.25717 -4.31721 0
M  V30 4472 N 436.039 1.36541 -0.78704 0
M  V30 4473 C 437.316 1.9355 -0.282424 0
M  V30 4474 C 437.696 1.71919 1.22503 0
M  V30 4475 O 437.044 1.07677 2.01539 0
M  V30 4476 C 437.254 3.4246 -0.672462 0
M  V30 4477 C 438.602 4.19582 -0.650863 0
M  V30 4478 O 439.626 3.50889 -0.612789 0
M  V30 4479 O 438.485 5.42106 -0.691623 0
M  V30 4480 H 435.579 0.824091 -0.0693 0
M  V30 4481 H 438.125 1.45736 -0.869423 0
M  V30 4482 H 436.897 3.51851 -1.71221 0
M  V30 4483 H 436.52 3.97556 -0.0592211 0
M  V30 4484 N 437.518 0.538854 1.48102 0
M  V30 4485 C 438.743 0.0102694 2.07397 0
M  V30 4486 C 439.168 -1.26562 1.39153 0
M  V30 4487 O 438.526 -1.75357 0.460387 0
M  V30 4488 C 438.574 -0.187602 3.60112 0
M  V30 4489 O 437.678 -1.25432 3.92862 0
M  V30 4490 H 437.019 0.0430975 0.6626 0
M  V30 4491 H 439.549 0.749301 1.90385 0
M  V30 4492 H 439.559 -0.407517 4.0596 0
M  V30 4493 H 438.234 0.744386 4.09184 0
M  V30 4494 H 436.811 -1.01636 3.58782 0
M  V30 4495 N 438.996 -1.55193 0.274407 0
M  V30 4496 C 440.245 -1.98758 -0.343213 0
M  V30 4497 C 440.558 -1.16624 -1.5703 0
M  V30 4498 O 441.764 -1.5033 -2.26082 0
M  V30 4499 C 440.22 -3.53759 -0.661996 0
M  V30 4500 C 439.828 -4.4467 0.54524 0
M  V30 4501 C 441.572 -4.05916 -1.24228 0
M  V30 4502 C 439.479 -5.91058 0.201084 0
M  V30 4503 H 438.409 -0.742353 -0.132014 0
M  V30 4504 H 441.06 -1.79545 0.378948 0
M  V30 4505 H 439.442 -3.68772 -1.44304 0
M  V30 4506 H 440.616 -4.41426 1.32212 0
M  V30 4507 H 438.931 -4.03143 1.04232 0
M  V30 4508 H 441.528 -5.12831 -1.51357 0
M  V30 4509 H 441.871 -3.54908 -2.17592 0
M  V30 4510 H 442.404 -3.9434 -0.523542 0
M  V30 4511 H 439.143 -6.46161 1.10258 0
M  V30 4512 H 438.663 -5.97373 -0.539045 0
M  V30 4513 H 440.342 -6.46669 -0.206954 0
M  V30 4514 N 440.474 -0.00167713 -1.576 0
M  V30 4515 C 441.407 1.02317 -2.03977 0
M  V30 4516 C 442.385 1.33381 -0.929963 0
M  V30 4517 O 443.569 1.45517 -1.19822 0
M  V30 4518 C 440.696 2.35035 -2.43878 0
M  V30 4519 C 439.742 2.19621 -3.65607 0
M  V30 4520 S 440.575 1.52068 -5.13455 0
M  V30 4521 C 441.731 2.86212 -5.56627 0
M  V30 4522 H 441.964 0.628285 -2.90585 0
M  V30 4523 H 439.497 0.209239 -1.52976 0
M  V30 4524 H 441.455 3.11345 -2.67534 0
M  V30 4525 H 440.116 2.71663 -1.57665 0
M  V30 4526 H 439.309 3.1767 -3.91282 0
M  V30 4527 H 438.911 1.51455 -3.41961 0
M  V30 4528 H 441.203 3.82509 -5.59189 0
M  V30 4529 H 442.146 2.65235 -6.56549 0
M  V30 4530 H 442.554 2.90199 -4.84195 0
M  V30 4531 N 441.952 1.55251 0.271103 0
M  V30 4532 C 442.902 1.84649 1.33749 0
M  V30 4533 C 443.886 0.705529 1.44607 0
M  V30 4534 O 445.078 0.966916 1.48256 0
M  V30 4535 C 442.207 2.12354 2.69742 0
M  V30 4536 C 441.293 3.32714 2.62988 0
M  V30 4537 N 441.684 4.52575 2.25853 0
M  V30 4538 C 439.982 3.35341 2.94045 0
M  V30 4539 C 440.683 5.34669 2.29136 0
M  V30 4540 N 439.659 4.73123 2.67685 0
M  V30 4541 H 443.461 2.74865 1.0405 0
M  V30 4542 H 440.975 1.55152 0.479738 0
M  V30 4543 H 442.972 2.31572 3.4667 0
M  V30 4544 H 441.632 1.23422 3.00328 0
M  V30 4545 H 442.643 4.78639 1.978 0
M  V30 4546 H 439.32 2.56608 3.2933 0
M  V30 4547 H 440.71 6.40509 2.02971 0
M  V30 4548 N 443.43 -0.535701 1.48216 0
M  V30 4549 C 444.66 -1.3148 1.59363 0
M  V30 4550 C 445.068 -1.8753 0.250844 0
M  V30 4551 O 444.411 -1.66821 -0.769174 0
M  V30 4552 C 444.473 -2.50731 2.57632 0
M  V30 4553 C 444.137 -2.15811 4.02833 0
M  V30 4554 C 445.134 -1.71822 4.90686 0
M  V30 4555 C 442.819 -2.26509 4.48329 0
M  V30 4556 C 444.813 -1.3899 6.22062 0
M  V30 4557 C 442.5 -1.93289 5.79726 0
M  V30 4558 C 443.498 -1.49599 6.66415 0
M  V30 4559 O 443.186 -1.16812 7.95368 0
M  V30 4560 H 442.918 -0.406315 0.540263 0
M  V30 4561 H 445.472 -0.653569 1.94725 0
M  V30 4562 H 443.702 -3.19817 2.1738 0
M  V30 4563 H 445.391 -3.12797 2.58675 0
M  V30 4564 H 446.157 -1.63031 4.56778 0
M  V30 4565 H 442.036 -2.59471 3.81045 0
M  V30 4566 H 445.58 -1.04816 6.89681 0
M  V30 4567 H 441.477 -2.01718 6.13172 0
M  V30 4568 H 442.245 -1.30259 8.08069 0
M  V30 4569 N 444.908 -1.36708 -0.784132 0
M  V30 4570 C 445.871 -1.31307 -1.87859 0
M  V30 4571 C 446.871 -0.219654 -1.59293 0
M  V30 4572 O 448.061 -0.47476 -1.67606 0
M  V30 4573 C 445.193 -1.03679 -3.24751 0
M  V30 4574 H 446.386 -2.28647 -1.94064 0
M  V30 4575 H 443.939 -1.21558 -0.98252 0
M  V30 4576 H 444.674 -0.0681936 -3.24228 0
M  V30 4577 H 444.459 -1.82811 -3.46876 0
M  V30 4578 H 445.949 -1.02518 -4.04821 0
M  V30 4579 N 446.386 1.0089 -1.21074 0
M  V30 4580 C 447.802 1.2695 -0.967257 0
M  V30 4581 C 448.002 1.9846 0.348673 0
M  V30 4582 O 447.058 2.28459 1.0753 0
M  V30 4583 C 448.371 2.09697 -2.15517 0
M  V30 4584 C 449.919 2.22937 -2.197 0
M  V30 4585 C 450.394 3.09064 -3.37999 0
M  V30 4586 N 451.885 3.16653 -3.38061 0
M  V30 4587 C 452.62 3.8354 -4.26245 0
M  V30 4588 N 452.116 4.52488 -5.2462 0
M  V30 4589 N 453.909 3.80141 -4.14064 0
M  V30 4590 H 446.06 0.529005 -2.05707 0
M  V30 4591 H 448.323 0.296148 -0.900556 0
M  V30 4592 H 448.029 1.64497 -3.10859 0
M  V30 4593 H 447.903 3.10444 -2.14253 0
M  V30 4594 H 450.29 2.67357 -1.24916 0
M  V30 4595 H 450.371 1.21673 -2.2501 0
M  V30 4596 H 450.015 2.65347 -4.33074 0
M  V30 4597 H 449.945 4.10433 -3.29928 0
M  V30 4598 H 452.436 2.67566 -2.66865 0
M  V30 4599 H 452.749 5.01219 -5.88217 0
M  V30 4600 H 451.094 4.51288 -5.28549 0
M  V30 4601 H 454.285 3.25427 -3.36474 0
M  V30 4602 H 454.458 4.31992 -4.82998 0
M  V30 4603 N 447.864 1.01787 1.20321 0
M  V30 4604 C 448.812 0.58254 2.25187 0
M  V30 4605 C 449.806 -0.379359 1.65098 0
M  V30 4606 O 451.012 -0.249142 1.78267 0
M  V30 4607 H 447.387 0.170078 0.732514 0
M  V30 4608 H 449.358 1.47788 2.59232 0
M  V30 4609 C 448.107 -0.0620885 3.47645 0
M  V30 4610 H 447.43 0.669069 3.94162 0
M  V30 4611 H 448.87 -0.329784 4.22716 0
M  V30 4612 C 447.329 -1.3053 3.10586 0
M  V30 4613 O 447.859 -2.39848 3.22236 0
M  V30 4614 N 446.065 -1.18988 2.65123 0
M  V30 4615 H 445.612 -0.300341 2.55843 0
M  V30 4616 H 445.57 -2.02267 2.40698 0
M  V30 4617 N 449.342 -1.36122 0.79427 0
M  V30 4618 C 450.57 -2.03362 0.380989 0
M  V30 4619 C 450.985 -1.59881 -1.00416 0
M  V30 4620 O 450.342 -0.790515 -1.6449 0
M  V30 4621 C 450.393 -3.58804 0.440649 0
M  V30 4622 O 450.114 -4.007 1.77118 0
M  V30 4623 C 451.615 -4.43296 0.0186117 0
M  V30 4624 H 448.835 -0.652526 0.156367 0
M  V30 4625 H 451.379 -1.73998 1.07447 0
M  V30 4626 H 449.534 -3.8686 -0.204458 0
M  V30 4627 H 449.948 -4.95309 1.72538 0
M  V30 4628 H 451.422 -5.51887 0.111488 0
M  V30 4629 H 451.899 -4.2684 -1.03461 0
M  V30 4630 H 452.505 -4.20512 0.636395 0
M  V30 4631 N 450.82 -0.546701 -1.47814 0
M  V30 4632 C 452.067 -0.0187407 -2.02491 0
M  V30 4633 C 452.395 1.32685 -1.42215 0
M  V30 4634 O 451.65 1.87413 -0.563454 0
M  V30 4635 C 451.949 0.134869 -3.57145 0
M  V30 4636 C 451.615 -1.13849 -4.3629 0
M  V30 4637 C 450.277 -1.48743 -4.57634 0
M  V30 4638 C 452.629 -1.98277 -4.82012 0
M  V30 4639 C 449.957 -2.67932 -5.21948 0
M  V30 4640 C 452.309 -3.16659 -5.4764 0
M  V30 4641 C 450.973 -3.51879 -5.67219 0
M  V30 4642 H 450.243 -0.0068577 -0.740968 0
M  V30 4643 H 452.89 -0.716097 -1.77607 0
M  V30 4644 H 451.195 0.915118 -3.80963 0
M  V30 4645 H 452.892 0.558556 -3.97091 0
M  V30 4646 H 449.482 -0.856767 -4.19949 0
M  V30 4647 H 453.666 -1.72628 -4.6531 0
M  V30 4648 H 448.922 -2.95401 -5.35302 0
M  V30 4649 H 453.096 -3.82374 -5.82033 0
M  V30 4650 H 450.723 -4.44331 -6.16825 0
M  V30 4651 N 452.299 1.55045 -0.282633 0
M  V30 4652 C 453.524 2.04628 0.337977 0
M  V30 4653 C 453.949 1.15937 1.48123 0
M  V30 4654 O 453.307 0.159532 1.80597 0
M  V30 4655 C 453.355 3.51854 0.78936 0
M  V30 4656 O 452.459 3.66236 1.89592 0
M  V30 4657 H 451.8 0.660434 0.0687261 0
M  V30 4658 H 454.33 2.00261 -0.419124 0
M  V30 4659 H 454.34 3.93361 1.08311 0
M  V30 4660 H 453.015 4.15873 -0.0470419 0
M  V30 4661 H 451.592 3.36633 1.60413 0
M  V30 4662 N 453.777 0.010035 1.57597 0
M  V30 4663 C 455.193 -0.346164 1.55801 0
M  V30 4664 C 455.393 -1.74144 1.01371 0
M  V30 4665 O 454.449 -2.43938 0.651968 0
M  V30 4666 C 455.762 -0.212216 2.9995 0
M  V30 4667 C 457.31 -0.286409 3.11687 0
M  V30 4668 C 457.785 -0.18147 4.5764 0
M  V30 4669 N 459.276 -0.239056 4.62583 0
M  V30 4670 C 460.011 -0.181351 5.73113 0
M  V30 4671 N 459.507 -0.073661 6.92761 0
M  V30 4672 N 461.3 -0.233949 5.61613 0
M  V30 4673 H 453.451 0.922657 1.91313 0
M  V30 4674 H 455.714 0.354595 0.879185 0
M  V30 4675 H 455.42 0.748169 3.4365 0
M  V30 4676 H 455.294 -0.990224 3.6397 0
M  V30 4677 H 457.681 -1.23724 2.67911 0
M  V30 4678 H 457.762 0.521645 2.50425 0
M  V30 4679 H 457.406 0.765863 5.02093 0
M  V30 4680 H 457.336 -1.00814 5.1686 0
M  V30 4681 H 459.827 -0.32321 3.76515 0
M  V30 4682 H 460.14 -0.0358003 7.72792 0
M  V30 4683 H 458.485 -0.0391461 6.94989 0
M  V30 4684 H 461.676 -0.316347 4.6703 0
M  V30 4685 H 461.849 -0.185514 6.47734 0
M  V30 4686 N 455.255 -1.55392 -0.262866 0
M  V30 4687 C 456.503 -1.76127 -0.991147 0
M  V30 4688 C 456.824 -0.571083 -1.8645 0
M  V30 4689 O 456.094 0.413698 -1.91482 0
M  V30 4690 H 454.674 -0.649528 -0.368948 0
M  V30 4691 H 457.336 -1.9281 -0.284655 0
M  V30 4692 H 456.432 -2.6663 -1.62219 0
M  V30 4693 N 456.733 0.527833 -1.48498 0
M  V30 4694 C 457.979 1.28545 -1.56857 0
M  V30 4695 C 458.312 1.92678 -0.242651 0
M  V30 4696 O 457.587 1.79394 0.751545 0
M  V30 4697 C 457.87 2.37314 -2.70839 0
M  V30 4698 C 457.723 1.77858 -4.13142 0
M  V30 4699 C 459.042 3.39068 -2.80573 0
M  V30 4700 H 456.161 0.466006 -0.570971 0
M  V30 4701 H 458.803 0.587784 -1.8068 0
M  V30 4702 H 456.953 2.96821 -2.50658 0
M  V30 4703 H 458.625 1.22385 -4.44769 0
M  V30 4704 H 456.868 1.08383 -4.20042 0
M  V30 4705 H 457.539 2.56624 -4.88721 0
M  V30 4706 H 460.015 2.89518 -2.98862 0
M  V30 4707 H 458.891 4.12566 -3.6205 0
M  V30 4708 H 459.152 3.9975 -1.88818 0
M  V30 4709 N 458.211 1.37122 0.776871 0
M  V30 4710 C 459.458 1.32047 1.53524 0
M  V30 4711 C 459.786 -0.0965631 1.9426 0
M  V30 4712 O 459.041 -1.06866 1.63945 0
M  V30 4713 C 459.34 2.20068 2.81611 0
M  V30 4714 C 459.006 3.68423 2.59953 0
M  V30 4715 C 457.668 4.08854 2.53755 0
M  V30 4716 C 460.02 4.62431 2.40431 0
M  V30 4717 C 457.348 5.41417 2.26018 0
M  V30 4718 C 459.7 5.95225 2.14219 0
M  V30 4719 C 458.364 6.34767 2.06462 0
M  V30 4720 H 457.634 0.483196 0.561785 0
M  V30 4721 H 460.281 1.69284 0.895268 0
M  V30 4722 H 458.586 1.75809 3.50141 0
M  V30 4723 H 460.283 2.13458 3.39465 0
M  V30 4724 H 456.873 3.36354 2.65638 0
M  V30 4725 H 461.057 4.32057 2.44213 0
M  V30 4726 H 456.313 5.71022 2.18504 0
M  V30 4727 H 460.487 6.67626 1.98112 0
M  V30 4728 H 458.114 7.37413 1.84733 0
M  V30 4729 N 459.689 -1.00246 1.21608 0
M  V30 4730 C 460.619 -2.10921 1.00172 0
M  V30 4731 C 461.6 -1.69938 -0.0741587 0
M  V30 4732 O 462.785 -1.94009 0.0861753 0
M  V30 4733 C 459.915 -3.42618 0.568355 0
M  V30 4734 C 458.869 -3.97407 1.58909 0
M  V30 4735 C 458.195 -5.25038 1.01187 0
M  V30 4736 C 459.495 -4.2918 2.97661 0
M  V30 4737 H 461.189 -2.29112 1.92739 0
M  V30 4738 H 458.735 -1.10101 0.928102 0
M  V30 4739 H 460.688 -4.19444 0.405555 0
M  V30 4740 H 459.412 -3.24227 -0.392961 0
M  V30 4741 H 458.071 -3.22703 1.73949 0
M  V30 4742 H 457.719 -5.02982 0.0421965 0
M  V30 4743 H 457.419 -5.62661 1.6937 0
M  V30 4744 H 458.943 -6.04507 0.860448 0
M  V30 4745 H 460.357 -4.96839 2.86049 0
M  V30 4746 H 458.754 -4.77952 3.6288 0
M  V30 4747 H 459.824 -3.3735 3.48315 0
M  V30 4748 N 461.167 -1.02423 -1.1978 0
M  V30 4749 C 462.444 -0.632802 -1.85081 0
M  V30 4750 C 462.824 0.888745 -1.9148 0
M  V30 4751 O 462.172 1.78357 -1.42832 0
M  V30 4752 C 462.382 -1.28947 -3.24305 0
M  V30 4753 C 463.73 -1.40976 -4.00513 0
M  V30 4754 O 464.754 -1.24628 -3.33686 0
M  V30 4755 O 463.613 -1.67467 -5.20209 0
M  V30 4756 H 460.707 -0.219348 -0.79738 0
M  V30 4757 H 463.253 -1.12209 -1.27307 0
M  V30 4758 H 462.025 -2.3288 -3.14456 0
M  V30 4759 H 461.648 -0.787748 -3.89718 0
M  V30 4760 N 462.645 1.35699 -0.801477 0
M  V30 4761 C 463.873 2.03157 -0.391768 0
M  V30 4762 C 464.288 1.60412 0.995668 0
M  V30 4763 O 463.645 0.799228 1.64069 0
M  V30 4764 C 463.696 3.58566 -0.459671 0
M  V30 4765 O 463.417 3.99756 -1.7924 0
M  V30 4766 C 464.918 4.4328 -0.0421205 0
M  V30 4767 H 462.138 0.651688 -0.159825 0
M  V30 4768 H 464.682 1.73426 -1.08368 0
M  V30 4769 H 462.837 3.86963 0.183939 0
M  V30 4770 H 463.251 4.94387 -1.75162 0
M  V30 4771 H 464.725 5.51821 -0.140754 0
M  V30 4772 H 465.202 4.27383 1.01196 0
M  V30 4773 H 465.808 4.20168 -0.658687 0
M  V30 4774 N 464.123 0.554532 1.47522 0
M  V30 4775 C 465.372 0.0273458 2.01681 0
M  V30 4776 C 465.685 -1.32962 1.43459 0
M  V30 4777 O 466.891 -1.94657 1.89265 0
M  V30 4778 C 465.347 -0.00159057 3.599 0
M  V30 4779 C 464.955 1.35197 4.27113 0
M  V30 4780 C 466.699 -0.476311 4.21819 0
M  V30 4781 C 464.606 1.28229 5.77331 0
M  V30 4782 H 463.536 0.00645269 0.753972 0
M  V30 4783 H 466.187 0.701985 1.69542 0
M  V30 4784 H 464.569 -0.741821 3.8899 0
M  V30 4785 H 465.743 2.1097 4.09668 0
M  V30 4786 H 464.058 1.76441 3.77171 0
M  V30 4787 H 466.655 -0.5468 5.31897 0
M  V30 4788 H 466.998 -1.4877 3.8881 0
M  V30 4789 H 467.531 0.20898 3.97251 0
M  V30 4790 H 464.27 2.26959 6.14955 0
M  V30 4791 H 463.79 0.566314 5.97121 0
M  V30 4792 H 465.469 0.983226 6.39485 0
M  V30 4793 N 465.601 -1.54893 0.290851 0
M  V30 4794 C 466.531 -2.26103 -0.583084 0
M  V30 4795 C 467.512 -1.25684 -1.14619 0
M  V30 4796 O 468.697 -1.54436 -1.17741 0
M  V30 4797 C 465.827 -2.99409 -1.75987 0
M  V30 4798 C 464.781 -4.0689 -1.32758 0
M  V30 4799 C 464.107 -4.67856 -2.58872 0
M  V30 4800 C 465.407 -5.20215 -0.46624 0
M  V30 4801 H 467.101 -2.99398 0.0108214 0
M  V30 4802 H 464.647 -1.43998 0.00664468 0
M  V30 4803 H 466.6 -3.47943 -2.37727 0
M  V30 4804 H 465.324 -2.23675 -2.37985 0
M  V30 4805 H 463.983 -3.59191 -0.733299 0
M  V30 4806 H 463.631 -3.88772 -3.19163 0
M  V30 4807 H 463.331 -5.40438 -2.30653 0
M  V30 4808 H 464.855 -5.19147 -3.21433 0
M  V30 4809 H 466.269 -5.64704 -0.989047 0
M  V30 4810 H 464.666 -5.99455 -0.27826 0
M  V30 4811 H 465.736 -4.82198 0.511173 0
M  V30 4812 N 467.08 -0.0183926 -1.57589 0
M  V30 4813 C 468.491 0.521927 -1.79256 0
M  V30 4814 C 468.842 1.72885 -0.927636 0
M  V30 4815 O 467.967 2.15978 -0.135091 0
M  V30 4816 C 468.562 0.953632 -3.25102 0
M  V30 4817 C 467.121 1.43913 -3.47801 0
M  V30 4818 C 466.268 0.398837 -2.74417 0
M  V30 4819 H 469.219 -0.244485 -1.56805 0
M  V30 4820 H 469.24 1.81863 -3.34224 0
M  V30 4821 H 468.752 0.0750123 -3.88028 0
M  V30 4822 H 466.853 2.33804 -2.90115 0
M  V30 4823 H 466.966 1.45391 -4.56507 0
M  V30 4824 H 465.33 0.864572 -2.39577 0
M  V30 4825 H 466.113 -0.471132 -3.40052 0
M  V30 4826 N 468.558 1.5553 0.254621 0
M  V30 4827 C 469.974 1.4778 0.602753 0
M  V30 4828 C 470.174 0.707047 1.88688 0
M  V30 4829 O 469.23 0.233288 2.5142 0
M  V30 4830 C 470.543 2.92133 0.712648 0
M  V30 4831 C 472.091 3.02458 0.805488 0
M  V30 4832 C 472.566 4.48102 0.947009 0
M  V30 4833 N 474.057 4.52008 1.01207 0
M  V30 4834 C 474.792 5.61939 1.1407 0
M  V30 4835 N 474.288 6.81697 1.23536 0
M  V30 4836 N 476.081 5.49719 1.17325 0
M  V30 4837 H 468.232 2.04085 -0.588463 0
M  V30 4838 H 470.495 0.926229 -0.202001 0
M  V30 4839 H 470.201 3.51332 -0.160766 0
M  V30 4840 H 470.075 3.42187 1.58707 0
M  V30 4841 H 472.462 2.43344 1.66936 0
M  V30 4842 H 472.543 2.55627 -0.0939266 0
M  V30 4843 H 472.187 5.07824 0.087725 0
M  V30 4844 H 472.117 4.92607 1.86135 0
M  V30 4845 H 474.608 3.65749 0.950577 0
M  V30 4846 H 474.921 7.61228 1.33236 0
M  V30 4847 H 473.266 6.84473 1.20508 0
M  V30 4848 H 476.457 4.55095 1.09573 0
M  V30 4849 H 476.63 6.35432 1.27005 0
M  V30 4850 N 470.036 -0.519951 1.48776 0
M  V30 4851 C 470.968 -1.63973 1.60142 0
M  V30 4852 C 471.981 -1.55404 0.485117 0
M  V30 4853 O 473.17 -1.61682 0.756391 0
M  V30 4854 C 470.27 -3.02676 1.52449 0
M  V30 4855 C 469.443 -3.36624 2.79291 0
M  V30 4856 C 468.502 -4.54652 2.64912 0
M  V30 4857 O 467.528 -4.57374 3.38818 0
M  V30 4858 N 468.73 -5.53432 1.75195 0
M  V30 4859 H 471.495 -1.54656 2.56713 0
M  V30 4860 H 469.056 -0.707439 1.45626 0
M  V30 4861 H 471.048 -3.79525 1.4051 0
M  V30 4862 H 469.618 -3.06018 0.638125 0
M  V30 4863 H 468.838 -2.48855 3.0572 0
M  V30 4864 H 470.126 -3.56094 3.6342 0
M  V30 4865 H 469.524 -5.54018 1.14371 0
M  V30 4866 H 468.081 -6.29459 1.69189 0
M  V30 4867 N 471.514 -1.37532 -0.769588 0
M  V30 4868 C 472.791 -1.23392 -1.51768 0
M  V30 4869 C 473.171 0.17157 -2.10402 0
M  V30 4870 O 472.519 1.17943 -1.95708 0
M  V30 4871 C 472.729 -2.33163 -2.59685 0
M  V30 4872 C 474.077 -2.70809 -3.27028 0
M  V30 4873 O 475.101 -2.32355 -2.69981 0
M  V30 4874 O 473.96 -3.37066 -4.30173 0
M  V30 4875 H 471.054 -0.481617 -0.67229 0
M  V30 4876 H 473.6 -1.49318 -0.806368 0
M  V30 4877 H 472.372 -3.27273 -2.14494 0
M  V30 4878 H 471.995 -2.08713 -3.38415 0
M  V30 4879 N 472.992 0.995999 -1.22138 0
M  V30 4880 C 474.269 1.70834 -0.952642 0
M  V30 4881 C 474.649 2.04257 0.533119 0
M  V30 4882 O 473.997 1.72343 1.50034 0
M  V30 4883 C 474.207 2.96119 -1.84701 0
M  V30 4884 C 475.555 3.68962 -2.10124 0
M  V30 4885 O 476.579 3.0612 -1.82124 0
M  V30 4886 O 475.438 4.82017 -2.57531 0
M  V30 4887 H 472.532 0.745498 -0.357997 0
M  V30 4888 H 475.078 1.05262 -1.33109 0
M  V30 4889 H 473.85 2.67898 -2.85213 0
M  V30 4890 H 473.473 3.6943 -1.46995 0
M  V30 4891 N 474.47 1.03057 1.19235 0
M  V30 4892 C 475.418 0.606391 2.24557 0
M  V30 4893 C 476.412 -0.361826 1.65491 0
M  V30 4894 O 477.618 -0.23022 1.78522 0
M  V30 4895 H 473.993 0.177838 0.730669 0
M  V30 4896 H 475.964 1.50529 2.5765 0
M  V30 4897 C 474.713 -0.0252127 3.47691 0
M  V30 4898 H 474.036 0.710838 3.9343 0
M  V30 4899 H 475.476 -0.284931 4.23042 0
M  V30 4900 C 473.935 -1.27229 3.11953 0
M  V30 4901 O 474.465 -2.36416 3.24762 0
M  V30 4902 N 472.671 -1.16169 2.6637 0
M  V30 4903 H 472.218 -0.273189 2.56147 0
M  V30 4904 H 472.176 -1.99703 2.42829 0
M  V30 4905 N 475.948 -1.35272 0.808662 0
M  V30 4906 C 477.196 -1.98316 0.389233 0
M  V30 4907 C 477.517 -1.64465 -1.04767 0
M  V30 4908 O 476.787 -0.928175 -1.72516 0
M  V30 4909 H 475.367 -0.733585 0.140935 0
M  V30 4910 H 478.029 -1.6515 1.03496 0
M  V30 4911 H 477.125 -3.08123 0.496631 0
M  V30 4912 N 477.426 -0.562348 -1.47226 0
M  V30 4913 C 478.672 -0.0402761 -2.0276 0
M  V30 4914 C 479.005 1.30823 -1.43523 0
M  V30 4915 O 478.28 1.85249 -0.592705 0
M  V30 4916 C 478.563 0.047311 -3.60069 0
M  V30 4917 C 478.416 -1.32865 -4.29729 0
M  V30 4918 C 479.735 0.758182 -4.3352 0
M  V30 4919 H 476.854 -0.0161105 -0.736824 0
M  V30 4920 H 479.496 -0.725628 -1.75598 0
M  V30 4921 H 477.646 0.630986 -3.83342 0
M  V30 4922 H 479.318 -1.95593 -4.17781 0
M  V30 4923 H 477.561 -1.90195 -3.89882 0
M  V30 4924 H 478.232 -1.22004 -5.38349 0
M  V30 4925 H 480.708 0.262546 -4.15271 0
M  V30 4926 H 479.584 0.78844 -5.43208 0
M  V30 4927 H 479.845 1.81537 -4.03109 0
M  V30 4928 N 478.904 1.54736 -0.299062 0
M  V30 4929 C 480.32 1.59507 0.0543849 0
M  V30 4930 C 480.52 1.31606 1.52585 0
M  V30 4931 O 479.576 1.08853 2.27832 0
M  V30 4932 C 480.889 2.98751 -0.34181 0
M  V30 4933 C 482.437 3.1165 -0.290414 0
M  V30 4934 C 482.912 4.53199 -0.661402 0
M  V30 4935 N 484.403 4.59114 -0.613863 0
M  V30 4936 C 485.138 5.66709 -0.873417 0
M  V30 4937 N 484.634 6.82349 -1.19884 0
M  V30 4938 N 486.427 5.56369 -0.800608 0
M  V30 4939 H 478.578 1.71133 -1.25806 0
M  V30 4940 H 480.841 0.799186 -0.509908 0
M  V30 4941 H 480.547 3.24085 -1.36608 0
M  V30 4942 H 480.421 3.75961 0.305508 0
M  V30 4943 H 482.808 2.86066 0.724605 0
M  V30 4944 H 482.889 2.366 -0.972327 0
M  V30 4945 H 482.533 4.79513 -1.67422 0
M  V30 4946 H 482.463 5.26583 0.0425612 0
M  V30 4947 H 484.954 3.76053 -0.3732 0
M  V30 4948 H 485.267 7.60326 -1.38291 0
M  V30 4949 H 483.612 6.83906 -1.23685 0
M  V30 4950 H 486.803 4.64904 -0.546045 0
M  V30 4951 H 486.976 6.40139 -1.00626 0
M  V30 4952 N 480.382 0.0267497 1.57577 0
M  V30 4953 C 481.793 -0.512413 1.79531 0
M  V30 4954 C 482.144 -1.72391 0.936791 0
M  V30 4955 O 481.269 -2.15903 0.146543 0
M  V30 4956 C 481.864 -0.936378 3.25603 0
M  V30 4957 C 480.423 -1.42067 3.4856 0
M  V30 4958 C 479.57 -0.384278 2.74624 0
M  V30 4959 H 482.521 0.252797 1.56674 0
M  V30 4960 H 482.542 -1.80088 3.35184 0
M  V30 4961 H 482.054 -0.0544332 3.88062 0
M  V30 4962 H 480.155 -2.32262 2.9135 0
M  V30 4963 H 480.268 -1.42968 4.57271 0
M  V30 4964 H 478.632 -0.851855 2.40032 0
M  V30 4965 H 479.415 0.489159 3.39797 0
M  V30 4966 N 481.861 -1.55662 -0.24637 0
M  V30 4967 C 483.089 -1.81575 -0.991876 0
M  V30 4968 C 483.504 -0.602545 -1.78927 0
M  V30 4969 O 482.861 0.428795 -1.77391 0
M  V30 4970 C 482.912 -3.05711 -1.92933 0
M  V30 4971 O 482.633 -4.22348 -1.1642 0
M  V30 4972 C 484.134 -3.44428 -2.79078 0
M  V30 4973 H 481.354 -0.604209 -0.291844 0
M  V30 4974 H 483.898 -2.02722 -0.269095 0
M  V30 4975 H 482.053 -2.86612 -2.60638 0
M  V30 4976 H 482.467 -4.92706 -1.79835 0
M  V30 4977 H 483.941 -4.34388 -3.40603 0
M  V30 4978 H 484.418 -2.65037 -3.50217 0
M  V30 4979 H 485.024 -3.65879 -2.16824 0
M  V30 4980 N 483.339 0.512053 -1.4905 0
M  V30 4981 C 484.588 1.26343 -1.57227 0
M  V30 4982 C 484.901 1.93876 -0.259155 0
M  V30 4983 O 486.107 2.70612 -0.219358 0
M  V30 4984 C 484.563 2.29343 -2.77362 0
M  V30 4985 C 484.171 1.67799 -4.15388 0
M  V30 4986 C 485.915 3.05378 -2.94864 0
M  V30 4987 C 483.822 2.68845 -5.2676 0
M  V30 4988 H 482.752 0.475231 -0.585382 0
M  V30 4989 H 485.403 0.53862 -1.75417 0
M  V30 4990 H 483.785 3.04938 -2.52643 0
M  V30 4991 H 484.959 0.982715 -4.50199 0
M  V30 4992 H 483.274 1.04194 -4.03153 0
M  V30 4993 H 485.871 3.80921 -3.75238 0
M  V30 4994 H 486.214 3.62327 -2.05 0
M  V30 4995 H 486.747 2.36898 -3.19569 0
M  V30 4996 H 483.486 2.16692 -6.18647 0
M  V30 4997 H 483.006 3.36647 -4.96416 0
M  V30 4998 H 484.685 3.31487 -5.5563 0
M  V30 4999 N 484.817 1.37938 0.762283 0
M  V30 5000 C 486.065 1.33404 1.51815 0
M  V30 5001 C 486.386 -0.0780975 1.94844 0
M  V30 5002 O 485.656 -1.02405 1.67003 0
M  V30 5003 H 484.236 0.490839 0.563104 0
M  V30 5004 H 486.898 1.72527 0.906669 0
M  V30 5005 H 485.994 1.97926 2.41313 0
M  V30 5006 N 486.295 -0.989507 1.22664 0
M  V30 5007 C 487.227 -2.0824 0.957542 0
M  V30 5008 C 488.24 -1.6267 -0.0651098 0
M  V30 5009 O 489.429 -1.77695 0.169312 0
M  V30 5010 C 486.529 -3.36298 0.419145 0
M  V30 5011 C 485.702 -4.10882 1.49982 0
M  V30 5012 C 484.761 -5.17221 0.967904 0
M  V30 5013 O 483.787 -5.44613 1.65487 0
M  V30 5014 N 484.989 -5.80124 -0.20896 0
M  V30 5015 H 487.754 -2.31904 1.89843 0
M  V30 5016 H 485.315 -1.15552 1.13399 0
M  V30 5017 H 487.307 -4.04671 0.0485451 0
M  V30 5018 H 485.877 -3.09671 -0.426937 0
M  V30 5019 H 485.097 -3.37092 2.04359 0
M  V30 5020 H 486.385 -4.57482 2.22682 0
M  V30 5021 H 485.783 -5.60244 -0.783818 0
M  V30 5022 H 484.34 -6.49715 -0.520913 0
M  V30 5023 N 487.773 -1.03688 -1.18687 0
M  V30 5024 C 489.189 -0.755413 -1.4059 0
M  V30 5025 C 489.389 0.656659 -1.905 0
M  V30 5026 O 488.445 1.42144 -2.08689 0
M  V30 5027 C 489.758 -1.7983 -2.41001 0
M  V30 5028 C 491.306 -1.81877 -2.54735 0
M  V30 5029 C 491.781 -2.85148 -3.58406 0
M  V30 5030 N 493.272 -2.84015 -3.6591 0
M  V30 5031 C 494.007 -3.60573 -4.45841 0
M  V30 5032 N 493.503 -4.46871 -5.29413 0
M  V30 5033 N 495.296 -3.49079 -4.40568 0
M  V30 5034 H 487.447 -1.94818 -0.846148 0
M  V30 5035 H 489.71 -0.842727 -0.434184 0
M  V30 5036 H 489.416 -2.81097 -2.1137 0
M  V30 5037 H 489.29 -1.62727 -3.40294 0
M  V30 5038 H 491.677 -0.812836 -2.83685 0
M  V30 5039 H 491.758 -2.03057 -1.55568 0
M  V30 5040 H 491.402 -3.85918 -3.30197 0
M  V30 5041 H 491.332 -2.61224 -4.57241 0
M  V30 5042 H 493.823 -2.21431 -3.0623 0
M  V30 5043 H 494.136 -5.02007 -5.87545 0
M  V30 5044 H 492.481 -4.5094 -5.28846 0
M  V30 5045 H 495.672 -2.81066 -3.74325 0
M  V30 5046 H 495.845 -4.08994 -5.02621 0
M  V30 5047 N 489.251 1.34841 -0.815825 0
M  V30 5048 C 490.497 1.98793 -0.401129 0
M  V30 5049 C 490.83 1.64548 1.03139 0
M  V30 5050 O 490.105 0.913487 1.71714 0
M  V30 5051 C 490.388 3.55143 -0.595409 0
M  V30 5052 C 490.241 3.99155 -2.07352 0
M  V30 5053 C 491.56 4.40092 -0.0268823 0
M  V30 5054 H 488.679 0.722146 -0.14722 0
M  V30 5055 H 491.321 1.59847 -1.02707 0
M  V30 5056 H 489.471 3.8845 -0.0625779 0
M  V30 5057 H 491.143 3.76216 -2.66945 0
M  V30 5058 H 489.386 3.49726 -2.56659 0
M  V30 5059 H 490.057 5.07971 -2.1603 0
M  V30 5060 H 492.533 4.13298 -0.482042 0
M  V30 5061 H 491.409 5.48562 -0.19267 0
M  V30 5062 H 491.67 4.29016 1.06759 0
M  V30 5063 N 490.729 0.570148 1.46925 0
M  V30 5064 C 492.145 0.23087 1.57921 0
M  V30 5065 C 492.345 -1.26676 1.56702 0
M  V30 5066 O 491.401 -2.04774 1.47729 0
M  V30 5067 C 492.714 0.868973 2.8787 0
M  V30 5068 C 494.262 0.841397 3.01479 0
M  V30 5069 C 494.737 1.45881 4.34146 0
M  V30 5070 N 496.228 1.42258 4.40814 0
M  V30 5071 C 496.963 1.8698 5.42057 0
M  V30 5072 N 496.459 2.39618 6.50042 0
M  V30 5073 N 498.252 1.77972 5.33181 0
M  V30 5074 H 490.403 1.54301 1.45962 0
M  V30 5075 H 492.666 0.644224 0.69547 0
M  V30 5076 H 492.372 1.922 2.94537 0
M  V30 5077 H 492.246 0.369682 3.75384 0
M  V30 5078 H 494.633 -0.202973 2.94401 0
M  V30 5079 H 494.714 1.37858 2.15474 0
M  V30 5080 H 494.358 2.50231 4.4198 0
M  V30 5081 H 494.288 0.896958 5.18905 0
M  V30 5082 H 496.779 1.03768 3.63374 0
M  V30 5083 H 497.092 2.71633 7.23488 0
M  V30 5084 H 495.437 2.43636 6.50897 0
M  V30 5085 H 498.628 1.36617 4.4772 0
M  V30 5086 H 498.801 2.13143 6.11943 0
M  V30 5087 N 492.207 -1.54576 0.307264 0
M  V30 5088 C 493.137 -2.26708 -0.55907 0
M  V30 5089 C 494.118 -1.26893 -1.1328 0
M  V30 5090 O 495.303 -1.55677 -1.16097 0
M  V30 5091 C 492.433 -3.01259 -1.72801 0
M  V30 5092 C 491.387 -4.08275 -1.28435 0
M  V30 5093 C 490.713 -4.70575 -2.53895 0
M  V30 5094 C 492.013 -5.2068 -0.411038 0
M  V30 5095 H 493.707 -2.9937 0.042576 0
M  V30 5096 H 491.253 -1.43983 0.0219173 0
M  V30 5097 H 493.206 -3.50444 -2.34023 0
M  V30 5098 H 491.93 -2.26187 -2.356 0
M  V30 5099 H 490.589 -3.59949 -0.695161 0
M  V30 5100 H 490.237 -3.92136 -3.15021 0
M  V30 5101 H 489.937 -5.42854 -2.24908 0
M  V30 5102 H 491.461 -5.22527 -3.15908 0
M  V30 5103 H 492.875 -5.65721 -0.929097 0
M  V30 5104 H 491.272 -5.99716 -0.214664 0
M  V30 5105 H 492.342 -4.81629 0.562287 0
M  V30 5106 N 493.685 -0.035106 -1.57561 0
M  V30 5107 C 494.91 0.655802 -1.96759 0
M  V30 5108 C 495.335 1.64523 -0.911809 0
M  V30 5109 O 494.693 1.80857 0.126673 0
M  V30 5110 C 494.741 1.33326 -3.35047 0
M  V30 5111 O 493.845 2.44866 -3.31835 0
M  V30 5112 H 493.186 0.171807 -0.641388 0
M  V30 5113 H 495.716 -0.0987369 -2.04362 0
M  V30 5114 H 495.726 1.68867 -3.71413 0
M  V30 5115 H 494.401 0.608033 -4.11431 0
M  V30 5116 H 492.978 2.11392 -3.07193 0
M  V30 5117 N 495.163 1.55791 0.238111 0
M  V30 5118 C 496.095 1.87513 1.31802 0
M  V30 5119 C 497.108 0.762053 1.43863 0
M  V30 5120 O 498.297 1.04024 1.45056 0
M  V30 5121 C 495.397 2.05402 2.69561 0
M  V30 5122 C 494.57 3.3632 2.79656 0
M  V30 5123 C 493.629 3.43844 3.98319 0
M  V30 5124 O 492.655 4.16994 3.87433 0
M  V30 5125 N 493.857 2.73777 5.11885 0
M  V30 5126 H 496.622 2.80734 1.04922 0
M  V30 5127 H 494.183 1.56135 0.428196 0
M  V30 5128 H 496.175 2.07769 3.47296 0
M  V30 5129 H 494.745 1.18884 2.89111 0
M  V30 5130 H 493.965 3.46195 1.88528 0
M  V30 5131 H 495.253 4.22594 2.83358 0
M  V30 5132 H 494.651 2.14094 5.23622 0
M  V30 5133 H 493.208 2.81825 5.87723 0
M  V30 5134 N 496.642 -0.504142 1.49319 0
M  V30 5135 C 497.89 -1.25598 1.58334 0
M  V30 5136 C 498.211 -1.93114 0.270538 0
M  V30 5137 O 497.481 -1.82585 -0.709891 0
M  V30 5138 H 496.061 -0.466571 0.58337 0
M  V30 5139 H 498.723 -0.584547 1.85928 0
M  V30 5140 H 497.819 -2.02159 2.37778 0
M  V30 5141 N 498.12 -1.38341 -0.754957 0
M  V30 5142 C 499.397 -1.24995 -1.50451 0
M  V30 5143 C 499.777 0.149244 -2.10572 0
M  V30 5144 O 499.125 1.15861 -1.96948 0
M  V30 5145 C 499.335 -2.35904 -2.57197 0
M  V30 5146 C 500.683 -2.74262 -3.24138 0
M  V30 5147 O 501.707 -2.35205 -2.67501 0
M  V30 5148 O 500.566 -3.4161 -4.26574 0
M  V30 5149 H 497.66 -0.48872 -0.667144 0
M  V30 5150 H 500.206 -1.50165 -0.790486 0
M  V30 5151 H 498.978 -3.2953 -2.11011 0
M  V30 5152 H 498.601 -2.12291 -3.36182 0
M  V30 5153 N 499.598 0.982988 -1.23187 0
M  V30 5154 C 500.847 1.71817 -1.05649 0
M  V30 5155 C 501.16 1.91315 0.407176 0
M  V30 5156 O 502.366 2.62256 0.702436 0
M  V30 5157 C 500.822 3.09188 -1.84203 0
M  V30 5158 C 500.43 2.97586 -3.34882 0
M  V30 5159 C 502.174 3.86684 -1.75146 0
M  V30 5160 C 500.081 4.30173 -4.05839 0
M  V30 5161 H 499.011 0.644258 -0.391724 0
M  V30 5162 H 501.662 1.09659 -1.4713 0
M  V30 5163 H 500.044 3.72087 -1.35527 0
M  V30 5164 H 501.218 2.43793 -3.91026 0
M  V30 5165 H 499.533 2.33567 -3.44725 0
M  V30 5166 H 502.13 4.84836 -2.25473 0
M  V30 5167 H 502.473 4.10136 -0.713737 0
M  V30 5168 H 503.006 3.30482 -2.21419 0
M  V30 5169 H 499.745 4.11918 -5.09906 0
M  V30 5170 H 499.265 4.83841 -3.54482 0
M  V30 5171 H 500.944 4.98873 -4.11989 0
M  V30 5172 N 501.076 1.04316 1.18135 0
M  V30 5173 C 502.039 0.640794 2.2006 0
M  V30 5174 C 503.039 -0.303124 1.57917 0
M  V30 5175 O 504.229 -0.0881855 1.73977 0
M  V30 5176 C 501.361 -0.060148 3.40847 0
M  V30 5177 H 502.554 1.54281 2.57172 0
M  V30 5178 H 500.107 0.836004 1.32063 0
M  V30 5179 H 500.842 -0.975845 3.0927 0
M  V30 5180 H 500.627 0.618319 3.87194 0
M  V30 5181 H 502.117 -0.328082 4.16309 0
M  V30 5182 N 502.554 -1.34406 0.822964 0
M  V30 5183 C 503.486 -2.28305 0.202375 0
M  V30 5184 C 504.499 -1.5103 -0.60777 0
M  V30 5185 O 505.688 -1.73057 -0.437444 0
M  V30 5186 C 502.788 -3.30836 -0.734911 0
M  V30 5187 C 501.961 -4.37388 0.0324177 0
M  V30 5188 C 501.02 -5.1968 -0.825803 0
M  V30 5189 O 500.046 -5.68556 -0.270771 0
M  V30 5190 N 501.248 -5.39393 -2.14558 0
M  V30 5191 H 504.013 -2.82201 1.00909 0
M  V30 5192 H 501.574 -1.4693 0.67993 0
M  V30 5193 H 503.566 -3.82786 -1.31365 0
M  V30 5194 H 502.136 -2.77334 -1.44238 0
M  V30 5195 H 501.356 -3.86152 0.792469 0
M  V30 5196 H 502.644 -5.05702 0.560633 0
M  V30 5197 H 502.042 -5.01357 -2.62025 0
M  V30 5198 H 500.599 -5.94461 -2.67318 0
M  V30 5199 N 504.032 -0.577932 -1.46621 0
M  V30 5200 C 504.995 0.147805 -2.28723 0
M  V30 5201 C 505.995 0.823325 -1.38123 0
M  V30 5202 O 507.185 0.676011 -1.60548 0
M  V30 5203 C 504.317 1.21853 -3.18378 0
M  V30 5204 H 505.51 -0.573654 -2.94362 0
M  V30 5205 H 503.063 -0.335703 -1.52652 0
M  V30 5206 H 503.798 1.97173 -2.57475 0
M  V30 5207 H 503.583 0.738714 -3.85078 0
M  V30 5208 H 505.073 1.72768 -3.80186 0
M  V30 5209 N 505.51 1.54411 -0.315457 0
M  V30 5210 C 506.926 1.59556 0.037464 0
M  V30 5211 C 507.126 1.33217 1.5118 0
M  V30 5212 O 506.182 1.11264 2.26664 0
M  V30 5213 C 507.495 2.98372 -0.373477 0
M  V30 5214 C 509.043 3.11324 -0.323452 0
M  V30 5215 C 509.518 4.52472 -0.709433 0
M  V30 5216 N 511.009 4.58437 -0.662524 0
M  V30 5217 C 511.744 5.65751 -0.933474 0
M  V30 5218 N 511.24 6.81039 -1.27114 0
M  V30 5219 N 513.033 5.55489 -0.859573 0
M  V30 5220 H 505.184 1.6979 -1.27614 0
M  V30 5221 H 507.447 0.793732 -0.518356 0
M  V30 5222 H 507.153 3.22618 -1.40037 0
M  V30 5223 H 507.027 3.76264 0.265615 0
M  V30 5224 H 509.414 2.86818 0.694223 0
M  V30 5225 H 509.495 2.35555 -0.997367 0
M  V30 5226 H 509.139 4.7771 -1.72498 0
M  V30 5227 H 509.069 5.26598 -0.0132923 0
M  V30 5228 H 511.56 3.75636 -0.413065 0
M  V30 5229 H 511.873 7.58816 -1.46348 0
M  V30 5230 H 510.218 6.82555 -1.30932 0
M  V30 5231 H 513.409 4.64299 -0.595324 0
M  V30 5232 H 513.582 6.39036 -1.0741 0
M  V30 5233 N 506.988 0.0434614 1.5754 0
M  V30 5234 C 507.935 -0.93356 2.11077 0
M  V30 5235 C 508.905 -1.31383 1.01626 0
M  V30 5236 O 510.09 -1.40465 1.29129 0
M  V30 5237 C 507.23 -2.20578 2.65404 0
M  V30 5238 C 506.343 -1.88068 3.88914 0
M  V30 5239 C 505.478 -3.09691 4.31584 0
M  V30 5240 C 504.517 -2.73067 5.47815 0
M  V30 5241 N 503.654 -3.87359 5.85574 0
M  V30 5242 H 508.494 -0.470118 2.94268 0
M  V30 5243 H 506.031 -0.220434 1.45439 0
M  V30 5244 H 507.989 -2.95011 2.94999 0
M  V30 5245 H 506.619 -2.64513 1.85021 0
M  V30 5246 H 505.671 -1.03816 3.6596 0
M  V30 5247 H 506.983 -1.57104 4.73413 0
M  V30 5248 H 506.137 -3.92431 4.62691 0
M  V30 5249 H 504.876 -3.43827 3.45882 0
M  V30 5250 H 503.881 -1.88742 5.16388 0
M  V30 5251 H 505.106 -2.40131 6.35227 0
M  V30 5252 H 503.052 -4.21311 5.02825 0
M  V30 5253 H 502.969 -3.60068 6.64746 0
M  V30 5254 H 504.237 -4.70761 6.21292 0
M  V30 5255 N 508.466 -1.55915 -0.229846 0
M  V30 5256 C 509.396 -1.94754 -1.28815 0
M  V30 5257 C 510.377 -0.814657 -1.49323 0
M  V30 5258 O 511.562 -1.07631 -1.61645 0
M  V30 5259 C 508.692 -2.25705 -2.63959 0
M  V30 5260 C 507.646 -3.41406 -2.5812 0
M  V30 5261 C 506.972 -3.57941 -3.97218 0
M  V30 5262 C 508.272 -4.76616 -2.13623 0
M  V30 5263 H 509.966 -2.83404 -0.965547 0
M  V30 5264 H 507.512 -1.36353 -0.463028 0
M  V30 5265 H 509.465 -2.51467 -3.38146 0
M  V30 5266 H 508.189 -1.339 -2.9789 0
M  V30 5267 H 506.848 -3.1568 -1.86391 0
M  V30 5268 H 506.496 -2.63526 -4.28443 0
M  V30 5269 H 506.196 -4.35757 -3.94195 0
M  V30 5270 H 507.72 -3.86042 -4.73079 0
M  V30 5271 H 509.134 -5.01637 -2.77549 0
M  V30 5272 H 507.531 -5.57655 -2.21677 0
M  V30 5273 H 508.601 -4.7253 -1.08829 0
M  V30 5274 N 509.944 0.496216 -1.49584 0
M  V30 5275 C 511.174 1.27209 -1.62793 0
M  V30 5276 C 511.582 1.86799 -0.300476 0
M  V30 5277 O 510.925 1.68802 0.724674 0
M  V30 5278 C 510.987 2.43812 -2.64189 0
M  V30 5279 C 510.651 2.05055 -4.08414 0
M  V30 5280 C 511.648 1.58752 -4.9507 0
M  V30 5281 C 509.333 2.14543 -4.54177 0
M  V30 5282 C 511.327 1.22448 -6.25528 0
M  V30 5283 C 509.014 1.77851 -5.84647 0
M  V30 5284 C 510.012 1.31878 -6.70147 0
M  V30 5285 O 509.7 0.956834 -7.98185 0
M  V30 5286 H 509.432 0.391848 -0.550846 0
M  V30 5287 H 511.986 0.601712 -1.96389 0
M  V30 5288 H 510.216 3.13941 -2.25783 0
M  V30 5289 H 511.905 3.05829 -2.66877 0
M  V30 5290 H 512.671 1.50863 -4.60939 0
M  V30 5291 H 508.55 2.49277 -3.87791 0
M  V30 5292 H 512.094 0.864933 -6.92217 0
M  V30 5293 H 507.991 1.8539 -6.18305 0
M  V30 5294 H 508.759 1.08789 -8.11238 0
M  V30 5295 N 511.423 1.38739 0.74761 0
M  V30 5296 C 512.37 1.36449 1.86146 0
M  V30 5297 C 513.34 0.226098 1.64554 0
M  V30 5298 O 514.525 0.41926 1.86137 0
M  V30 5299 C 511.665 1.2013 3.23516 0
M  V30 5300 C 510.778 2.43407 3.56899 0
M  V30 5301 C 509.913 2.19773 4.83605 0
M  V30 5302 C 508.952 3.3879 5.09792 0
M  V30 5303 N 508.089 3.14553 6.27695 0
M  V30 5304 H 512.929 2.3167 1.87438 0
M  V30 5305 H 510.466 1.15094 0.916063 0
M  V30 5306 H 512.424 1.08683 4.02795 0
M  V30 5307 H 511.054 0.285453 3.21535 0
M  V30 5308 H 510.106 2.65504 2.72418 0
M  V30 5309 H 511.418 3.32094 3.72176 0
M  V30 5310 H 510.572 2.05496 5.70838 0
M  V30 5311 H 509.311 1.28461 4.70478 0
M  V30 5312 H 508.316 3.53579 4.21025 0
M  V30 5313 H 509.541 4.30986 5.24812 0
M  V30 5314 H 507.487 2.25893 6.1588 0
M  V30 5315 H 507.404 3.96791 6.435 0
M  V30 5316 H 508.672 3.03943 7.17801 0
M  V30 5317 N 512.901 -0.976442 1.23707 0
M  V30 5318 C 514.141 -1.73331 1.08332 0
M  V30 5319 C 514.505 -1.88346 -0.372781 0
M  V30 5320 O 515.706 -2.60877 -0.647813 0
M  V30 5321 C 513.977 -3.09159 1.7932 0
M  V30 5322 S 515.536 -4.00376 1.79567 0
M  V30 5323 H 512.354 -0.596045 0.387622 0
M  V30 5324 H 514.956 -1.16625 1.56904 0
M  V30 5325 H 513.66 -2.95884 2.84395 0
M  V30 5326 H 513.191 -3.70932 1.31046 0
M  V30 5327 H 515.206 -4.88742 0.857094 0
M  V30 5328 N 514.379 -1.04941 -1.1758 0
M  V30 5329 C 515.79 -0.784501 -1.69418 0
M  V30 5330 C 516.141 0.693625 -1.8353 0
M  V30 5331 O 515.266 1.53925 -1.52106 0
M  V30 5332 C 515.861 -1.41746 -3.07723 0
M  V30 5333 C 514.42 -1.20066 -3.56737 0
M  V30 5334 C 513.567 -1.5026 -2.33061 0
M  V30 5335 H 516.518 -1.21469 -1.02133 0
M  V30 5336 H 516.539 -0.825381 -3.7144 0
M  V30 5337 H 516.051 -2.49325 -2.9742 0
M  V30 5338 H 514.152 -0.144006 -3.72322 0
M  V30 5339 H 514.265 -1.90384 -4.39648 0
M  V30 5340 H 512.629 -0.922598 -2.37403 0
M  V30 5341 H 513.412 -2.58967 -2.25368 0
M  V30 5342 N 515.857 1.33968 -0.830081 0
M  V30 5343 C 516.82 2.27694 -0.26235 0
M  V30 5344 C 517.82 1.50589 0.563876 0
M  V30 5345 O 519.01 1.70028 0.378941 0
M  V30 5346 C 516.142 3.35002 0.63138 0
M  V30 5347 H 517.335 2.79419 -1.08928 0
M  V30 5348 H 514.888 1.44221 -0.602486 0
M  V30 5349 H 515.623 2.88504 1.48109 0
M  V30 5350 H 515.408 3.92079 0.0403276 0
M  V30 5351 H 516.898 4.04897 1.02217 0
M  V30 5352 N 517.335 0.585699 1.46312 0
M  V30 5353 C 518.575 0.0751432 2.04262 0
M  V30 5354 C 518.939 -1.26201 1.44697 0
M  V30 5355 O 520.14 -1.86198 1.93865 0
M  V30 5356 C 518.411 0.013478 3.57397 0
M  V30 5357 S 519.97 -0.439068 4.36598 0
M  V30 5358 H 516.788 0.0389228 0.709934 0
M  V30 5359 H 519.39 0.778871 1.79315 0
M  V30 5360 H 518.094 0.990558 3.98266 0
M  V30 5361 H 517.625 -0.712927 3.86886 0
M  V30 5362 H 519.64 -1.6932 4.66417 0
M  V30 5363 N 518.813 -1.54241 0.323641 0
M  V30 5364 C 520.061 -2.00174 -0.278359 0
M  V30 5365 C 520.382 -1.2134 -1.52648 0
M  V30 5366 O 519.652 -0.315244 -1.93347 0
M  V30 5367 H 518.232 -0.739463 -0.105845 0
M  V30 5368 H 520.894 -1.89864 0.440204 0
M  V30 5369 H 519.99 -3.07486 -0.5347 0
M  V30 5370 N 520.291 -0.0518155 -1.57515 0
M  V30 5371 C 521.201 0.937539 -2.15052 0
M  V30 5372 C 522.217 1.34121 -1.10849 0
M  V30 5373 O 523.393 1.418 -1.4302 0
M  V30 5374 C 520.458 2.19379 -2.68466 0
M  V30 5375 C 519.519 1.84841 -3.87469 0
M  V30 5376 C 518.752 3.04477 -4.38326 0
M  V30 5377 O 518.975 4.17868 -3.88256 0
M  V30 5378 O 517.909 2.85453 -5.29906 0
M  V30 5379 H 521.735 0.478201 -2.99912 0
M  V30 5380 H 519.32 0.17012 -1.48428 0
M  V30 5381 H 521.202 2.93084 -3.02787 0
M  V30 5382 H 519.877 2.64449 -1.86677 0
M  V30 5383 H 518.784 1.08449 -3.58036 0
M  V30 5384 H 520.117 1.44569 -4.7049 0
M  V30 5385 N 521.769 1.56035 0.221574 0
M  V30 5386 C 522.997 1.8313 0.962864 0
M  V30 5387 C 523.412 0.630934 1.77946 0
M  V30 5388 O 522.769 -0.400519 1.78051 0
M  V30 5389 C 522.82 3.08742 1.88045 0
M  V30 5390 O 522.541 4.24147 1.09686 0
M  V30 5391 C 524.042 3.48824 2.73563 0
M  V30 5392 H 521.262 0.608775 0.282194 0
M  V30 5393 H 523.806 2.03124 0.23681 0
M  V30 5394 H 521.961 2.90723 2.56045 0
M  V30 5395 H 522.375 4.95505 1.71974 0
M  V30 5396 H 523.849 4.39752 3.3365 0
M  V30 5397 H 524.326 2.70575 3.45956 0
M  V30 5398 H 524.932 3.69282 2.10976 0
M  V30 5399 N 523.247 -0.488276 1.49845 0
M  V30 5400 C 524.177 -1.59675 1.70371 0
M  V30 5401 C 525.158 -1.60878 0.552473 0
M  V30 5402 O 526.343 -1.77417 0.78973 0
M  V30 5403 C 523.473 -2.98098 1.782 0
M  V30 5404 C 522.427 -3.11761 2.93239 0
M  V30 5405 C 521.753 -4.51661 2.86193 0
M  V30 5406 C 523.053 -2.90589 4.33999 0
M  V30 5407 H 524.747 -1.42752 2.63177 0
M  V30 5408 H 522.293 -0.685317 1.26647 0
M  V30 5409 H 524.246 -3.75555 1.91144 0
M  V30 5410 H 522.97 -3.16138 0.820018 0
M  V30 5411 H 521.629 -2.36732 2.79917 0
M  V30 5412 H 521.277 -4.66595 1.87877 0
M  V30 5413 H 520.977 -4.61742 3.63412 0
M  V30 5414 H 522.501 -5.31162 3.01163 0
M  V30 5415 H 523.915 -3.57807 4.47936 0
M  V30 5416 H 522.312 -3.1213 5.12538 0
M  V30 5417 H 523.382 -1.86595 4.4756 0
M  V30 5418 N 524.725 -1.39134 -0.740242 0
M  V30 5419 C 525.657 -1.33332 -1.86428 0
M  V30 5420 C 526.67 -0.243042 -1.60976 0
M  V30 5421 O 527.859 -0.501608 -1.71307 0
M  V30 5422 C 524.959 -1.04626 -3.22346 0
M  V30 5423 C 524.132 -2.24826 -3.75196 0
M  V30 5424 C 523.191 -1.92659 -4.89662 0
M  V30 5425 O 522.217 -2.6529 -5.03597 0
M  V30 5426 N 523.419 -0.889575 -5.73643 0
M  V30 5427 H 526.184 -2.30196 -1.91911 0
M  V30 5428 H 523.745 -1.33168 -0.920756 0
M  V30 5429 H 525.737 -0.811347 -3.96484 0
M  V30 5430 H 524.307 -0.165129 -3.12164 0
M  V30 5431 H 523.527 -2.64301 -2.9247 0
M  V30 5432 H 524.815 -3.05015 -4.07239 0
M  V30 5433 H 524.213 -0.287529 -5.64969 0
M  V30 5434 H 522.77 -0.714557 -6.47871 0
M  V30 5435 N 526.204 0.969867 -1.24223 0
M  V30 5436 C 527.481 1.68774 -0.988664 0
M  V30 5437 C 527.861 2.05342 0.489673 0
M  V30 5438 O 527.209 1.75486 1.46345 0
M  V30 5439 C 527.419 2.92135 -1.90941 0
M  V30 5440 C 528.767 3.64422 -2.17903 0
M  V30 5441 O 529.791 3.02188 -1.88576 0
M  V30 5442 O 528.65 4.76446 -2.67697 0
M  V30 5443 H 525.744 0.737736 -0.37373 0
M  V30 5444 H 528.29 1.02415 -1.35312 0
M  V30 5445 H 527.062 2.61788 -2.90831 0
M  V30 5446 H 526.685 3.66228 -1.54798 0
M  V30 5447 N 527.682 1.05563 1.17022 0
M  V30 5448 C 528.91 0.78845 1.91288 0
M  V30 5449 C 529.325 -0.656318 1.77025 0
M  V30 5450 O 528.682 -1.44869 1.10992 0
M  V30 5451 C 528.733 1.16444 3.42232 0
M  V30 5452 O 528.454 2.5525 3.5606 0
M  V30 5453 C 529.955 0.923937 4.33565 0
M  V30 5454 H 527.175 0.286389 0.606813 0
M  V30 5455 H 529.719 1.4073 1.48375 0
M  V30 5456 H 527.874 0.590266 3.82877 0
M  V30 5457 H 528.288 2.70097 4.49609 0
M  V30 5458 H 529.762 1.23672 5.37968 0
M  V30 5459 H 530.239 -0.140688 4.38975 0
M  V30 5460 H 530.845 1.48214 3.98639 0
M  V30 5461 N 529.16 -1.33526 0.837174 0
M  V30 5462 C 530.388 -2.02047 0.445494 0
M  V30 5463 C 530.803 -1.62995 -0.952788 0
M  V30 5464 O 530.16 -0.842447 -1.61892 0
M  V30 5465 C 530.211 -3.57221 0.554577 0
M  V30 5466 O 529.932 -3.94863 1.89776 0
M  V30 5467 C 531.433 -4.43012 0.159634 0
M  V30 5468 H 528.653 -0.647221 0.177048 0
M  V30 5469 H 531.197 -1.70492 1.12928 0
M  V30 5470 H 529.352 -3.87315 -0.0812781 0
M  V30 5471 H 529.766 -4.89569 1.88208 0
M  V30 5472 H 531.24 -5.51253 0.28701 0
M  V30 5473 H 531.717 -4.29916 -0.898289 0
M  V30 5474 H 532.323 -4.18274 0.769855 0
M  V30 5475 N 530.638 -0.59345 -1.46 0
M  V30 5476 C 531.886 -0.082988 -2.0193 0
M  V30 5477 C 532.207 1.28569 -1.46612 0
M  V30 5478 O 531.477 1.84629 -0.654909 0
M  V30 5479 H 530.057 -0.0276882 -0.746487 0
M  V30 5480 H 532.719 -0.771657 -1.78973 0
M  V30 5481 H 531.815 -0.022079 -3.12092 0
M  V30 5482 N 532.116 1.54067 -0.331816 0
M  V30 5483 C 533.064 2.26105 0.54582 0
M  V30 5484 C 534.058 1.27816 1.11173 0
M  V30 5485 O 535.264 1.45565 1.05882 0
M  V30 5486 H 531.639 0.726363 0.194683 0
M  V30 5487 H 533.61 2.98282 -0.083931 0
M  V30 5488 C 532.359 3.03814 1.69092 0
M  V30 5489 H 531.682 3.79269 1.26473 0
M  V30 5490 H 533.122 3.57453 2.28043 0
M  V30 5491 C 531.581 2.12606 2.61343 0
M  V30 5492 O 532.111 1.71437 3.6328 0
M  V30 5493 N 530.317 1.77925 2.29763 0
M  V30 5494 H 529.864 2.11602 1.46909 0
M  V30 5495 H 529.822 1.1718 2.91747 0
M  V30 5496 N 533.594 0.0601682 1.57485 0
M  V30 5497 C 534.841 -0.611594 1.93043 0
M  V30 5498 C 535.169 -1.70317 0.939274 0
M  V30 5499 O 534.424 -1.95644 -0.046996 0
M  V30 5500 C 534.723 -1.23831 3.35262 0
M  V30 5501 C 534.389 -0.274037 4.50066 0
M  V30 5502 C 533.051 -0.00872394 4.81199 0
M  V30 5503 C 535.403 0.386308 5.19766 0
M  V30 5504 C 532.731 0.924218 5.79375 0
M  V30 5505 C 535.083 1.3075 6.1894 0
M  V30 5506 C 533.747 1.58139 6.48497 0
M  V30 5507 H 533.017 -0.223798 0.706396 0
M  V30 5508 H 535.664 0.128566 1.91068 0
M  V30 5509 H 533.969 -2.05394 3.33647 0
M  V30 5510 H 535.666 -1.76517 3.60059 0
M  V30 5511 H 532.256 -0.491008 4.25778 0
M  V30 5512 H 536.44 0.194436 4.95919 0
M  V30 5513 H 531.696 1.1438 6.00606 0
M  V30 5514 H 535.87 1.82519 6.72056 0
M  V30 5515 H 533.497 2.30593 7.24383 0
M  V30 5516 N 535.072 -1.5615 -0.213296 0
M  V30 5517 C 536.297 -1.83986 -0.957282 0
M  V30 5518 C 536.722 -0.641526 -1.76822 0
M  V30 5519 O 536.08 0.409722 -1.7661 0
M  V30 5520 C 536.128 -3.09889 -1.84393 0
M  V30 5521 O 535.232 -2.89163 -2.94038 0
M  V30 5522 H 534.573 -0.606357 -0.270605 0
M  V30 5523 H 537.103 -2.03369 -0.224111 0
M  V30 5524 H 537.113 -3.40209 -2.25215 0
M  V30 5525 H 535.788 -3.96735 -1.24795 0
M  V30 5526 H 534.365 -2.70097 -2.57103 0
M  V30 5527 N 536.55 0.480323 -1.50102 0
M  V30 5528 C 537.513 1.56181 -1.6775 0
M  V30 5529 C 538.513 1.51156 -0.548503 0
M  V30 5530 O 539.703 1.5394 -0.815363 0
M  V30 5531 C 536.835 2.95823 -1.69415 0
M  V30 5532 H 538.028 1.41855 -2.6423 0
M  V30 5533 H 535.581 0.70605 -1.39444 0
M  V30 5534 H 536.316 3.15604 -0.745948 0
M  V30 5535 H 536.101 3.00878 -2.51425 0
M  V30 5536 H 537.591 3.74359 -1.85054 0
M  V30 5537 N 538.028 1.39524 0.732853 0
M  V30 5538 C 539.439 1.32905 1.31122 0
M  V30 5539 C 539.79 -0.00558708 1.96199 0
M  V30 5540 O 538.915 -0.907706 1.96443 0
M  V30 5541 C 539.51 2.40704 2.38426 0
M  V30 5542 C 538.069 2.37599 2.91931 0
M  V30 5543 C 537.216 2.2248 1.65523 0
M  V30 5544 H 540.167 1.49581 0.530207 0
M  V30 5545 H 540.188 2.07616 3.18867 0
M  V30 5546 H 539.7 3.37829 1.91033 0
M  V30 5547 H 537.801 1.44119 3.43599 0
M  V30 5548 H 537.914 3.32538 3.44899 0
M  V30 5549 H 536.278 1.69691 1.8994 0
M  V30 5550 H 537.061 3.21577 1.20178 0
M  V30 5551 N 539.506 -0.963266 1.24736 0
M  V30 5552 C 540.754 -1.70343 1.08755 0
M  V30 5553 C 541.075 -1.91387 -0.373619 0
M  V30 5554 O 540.345 -1.4948 -1.2662 0
M  V30 5555 H 538.925 -0.631224 0.399456 0
M  V30 5556 H 541.587 -1.15859 1.56725 0
M  V30 5557 H 540.683 -2.68616 1.58909 0
M  V30 5558 N 540.985 -1.06182 -1.16461 0
M  V30 5559 C 542.232 -0.777863 -1.86964 0
M  V30 5560 C 542.56 0.695602 -1.81636 0
M  V30 5561 O 541.815 1.52532 -1.22607 0
M  V30 5562 C 542.114 -1.21633 -3.36066 0
M  V30 5563 C 541.78 -2.69371 -3.61594 0
M  V30 5564 C 540.442 -3.09727 -3.6827 0
M  V30 5565 C 542.794 -3.64791 -3.7226 0
M  V30 5566 C 540.122 -4.44345 -3.83112 0
M  V30 5567 C 542.474 -4.99155 -3.88623 0
M  V30 5568 C 541.138 -5.39149 -3.93541 0
M  V30 5569 H 540.408 -0.28464 -0.68415 0
M  V30 5570 H 543.055 -1.33071 -1.37711 0
M  V30 5571 H 541.36 -0.582651 -3.87443 0
M  V30 5572 H 543.057 -0.973682 -3.88999 0
M  V30 5573 H 539.647 -2.37124 -3.57029 0
M  V30 5574 H 543.831 -3.34746 -3.66413 0
M  V30 5575 H 539.087 -4.74819 -3.85172 0
M  V30 5576 H 543.261 -5.72976 -3.95817 0
M  V30 5577 H 540.888 -6.43464 -4.04794 0
M  V30 5578 N 542.463 1.3308 -0.844243 0
M  V30 5579 C 543.874 1.7992 -0.498566 0
M  V30 5580 C 544.225 1.69808 0.982834 0
M  V30 5581 O 543.35 1.25051 1.7661 0
M  V30 5582 C 543.945 3.26677 -0.898204 0
M  V30 5583 C 542.504 3.71513 -0.604583 0
M  V30 5584 C 541.651 2.54393 -1.10362 0
M  V30 5585 H 544.602 1.20526 -1.03244 0
M  V30 5586 H 544.623 3.79918 -0.21039 0
M  V30 5587 H 544.135 3.34004 -1.97643 0
M  V30 5588 H 542.236 3.69708 0.46335 0
M  V30 5589 H 542.349 4.64755 -1.16358 0
M  V30 5590 H 540.713 2.49246 -0.524273 0
M  V30 5591 H 541.496 2.6448 -2.18873 0
M  V30 5592 N 543.941 0.601185 1.45683 0
M  V30 5593 C 544.889 -0.133955 2.32214 0
M  V30 5594 C 545.883 -0.866034 1.45589 0
M  V30 5595 O 547.089 -0.782326 1.6211 0
M  V30 5596 H 543.464 -0.0620613 0.749435 0
M  V30 5597 H 545.435 0.614389 2.92007 0
M  V30 5598 C 544.184 -1.12216 3.29094 0
M  V30 5599 H 543.507 -0.568273 3.95741 0
M  V30 5600 H 544.947 -1.60659 3.92383 0
M  V30 5601 C 543.406 -2.19251 2.55794 0
M  V30 5602 O 543.936 -3.26894 2.33459 0
M  V30 5603 N 542.142 -1.9436 2.16039 0
M  V30 5604 H 541.689 -1.06829 2.34404 0
M  V30 5605 H 541.647 -2.66181 1.67318 0
M  V30 5606 N 545.419 -1.53889 0.339982 0
M  V30 5607 C 546.667 -2.00458 -0.257112 0
M  V30 5608 C 546.988 -1.22953 -1.51353 0
M  V30 5609 O 546.258 -0.335734 -1.93002 0
M  V30 5610 H 544.838 -0.740544 -0.0979965 0
M  V30 5611 H 547.5 -1.89386 0.460317 0
M  V30 5612 H 546.596 -3.08035 -0.502057 0
M  V30 5613 N 546.897 -0.0685191 -1.57451 0
M  V30 5614 C 548.127 0.609577 -1.97402 0
M  V30 5615 C 548.535 1.63882 -0.945489 0
M  V30 5616 O 547.878 1.8354 0.0766052 0
M  V30 5617 C 547.94 1.3385 -3.33653 0
M  V30 5618 C 547.604 0.463103 -4.54648 0
M  V30 5619 C 548.601 -0.277964 -5.19156 0
M  V30 5620 C 546.286 0.388941 -5.00792 0
M  V30 5621 C 548.28 -1.08145 -6.28159 0
M  V30 5622 C 545.967 -0.418217 -6.09667 0
M  V30 5623 C 546.965 -1.15208 -6.73213 0
M  V30 5624 O 546.653 -1.94594 -7.79993 0
M  V30 5625 H 546.385 0.170197 -0.654224 0
M  V30 5626 H 548.939 -0.13647 -2.04946 0
M  V30 5627 H 547.169 2.13055 -3.22714 0
M  V30 5628 H 548.858 1.90851 -3.58233 0
M  V30 5629 H 549.624 -0.230241 -4.84453 0
M  V30 5630 H 545.503 0.949769 -4.5111 0
M  V30 5631 H 549.047 -1.65476 -6.7769 0
M  V30 5632 H 544.944 -0.467515 -6.43805 0
M  V30 5633 H 545.712 -1.8699 -7.96854 0
M  V30 5634 N 548.375 1.56261 0.205012 0
M  V30 5635 C 549.786 1.70056 0.770574 0
M  V30 5636 C 550.137 0.673398 1.84282 0
M  V30 5637 O 549.262 -0.172196 2.15714 0
M  V30 5638 C 549.857 3.08316 1.40451 0
M  V30 5639 C 548.416 3.2391 1.91727 0
M  V30 5640 C 547.563 2.66001 0.783516 0
M  V30 5641 H 550.514 1.58688 -0.019911 0
M  V30 5642 H 550.535 3.05094 2.27371 0
M  V30 5643 H 550.047 3.83053 0.623882 0
M  V30 5644 H 548.148 2.54072 2.7254 0
M  V30 5645 H 548.261 4.3131 2.08588 0
M  V30 5646 H 546.625 2.24915 1.19521 0
M  V30 5647 H 547.408 3.43297 0.0152883 0
M  V30 5648 N 549.853 -0.472356 1.50355 0
M  V30 5649 C 551.078 -1.25251 1.65309 0
M  V30 5650 C 551.503 -1.85081 0.335643 0
M  V30 5651 O 550.861 -1.67227 -0.700335 0
M  V30 5652 C 550.909 -2.3379 2.74544 0
M  V30 5653 O 550.013 -3.38401 2.35709 0
M  V30 5654 H 549.354 -0.368539 0.552336 0
M  V30 5655 H 551.884 -0.562271 1.96722 0
M  V30 5656 H 551.894 -2.79121 2.97583 0
M  V30 5657 H 550.569 -1.89614 3.70161 0
M  V30 5658 H 549.146 -2.9879 2.23112 0
M  V30 5659 N 551.331 -1.39911 -0.725443 0
M  V30 5660 C 552.561 -1.40744 -1.51244 0
M  V30 5661 C 552.969 -0.00275403 -1.892 0
M  V30 5662 O 552.312 0.981299 -1.55294 0
M  V30 5663 C 552.374 -2.22527 -2.82351 0
M  V30 5664 C 552.038 -3.71053 -2.66774 0
M  V30 5665 C 553.035 -4.63916 -2.34686 0
M  V30 5666 C 550.72 -4.14753 -2.83347 0
M  V30 5667 C 552.714 -5.98463 -2.19366 0
M  V30 5668 C 550.401 -5.49372 -2.67644 0
M  V30 5669 C 551.399 -6.41042 -2.357 0
M  V30 5670 O 551.087 -7.73181 -2.20107 0
M  V30 5671 H 550.819 -0.482314 -0.473655 0
M  V30 5672 H 553.373 -1.84472 -0.903284 0
M  V30 5673 H 551.603 -1.73563 -3.45562 0
M  V30 5674 H 553.292 -2.15421 -3.44018 0
M  V30 5675 H 554.058 -4.31453 -2.21525 0
M  V30 5676 H 549.937 -3.43728 -3.072 0
M  V30 5677 H 553.481 -6.69979 -1.94354 0
M  V30 5678 H 549.378 -5.81424 -2.80387 0
M  V30 5679 H 550.146 -7.84008 -2.35103 0
M  V30 5680 N 552.809 0.956637 -1.25245 0
M  V30 5681 C 554.034 1.74104 -1.12706 0
M  V30 5682 C 554.459 1.85436 0.315429 0
M  V30 5683 O 553.817 1.33334 1.22848 0
M  V30 5684 C 553.865 3.1338 -1.78396 0
M  V30 5685 O 552.969 3.98485 -1.06224 0
M  V30 5686 H 552.31 0.53476 -0.393609 0
M  V30 5687 H 554.84 1.19924 -1.65769 0
M  V30 5688 H 554.85 3.6385 -1.846 0
M  V30 5689 H 553.525 3.04448 -2.83345 0
M  V30 5690 H 552.102 3.56952 -1.07886 0
M  V30 5691 N 554.287 1.06798 1.15896 0
M  V30 5692 C 555.237 0.653213 2.18443 0
M  V30 5693 C 556.221 -0.318763 1.57711 0
M  V30 5694 O 557.413 -0.133388 1.76497 0
M  V30 5695 C 554.542 0.0465785 3.43268 0
M  V30 5696 C 553.628 1.04336 4.11066 0
M  V30 5697 N 554.019 2.22084 4.54436 0
M  V30 5698 C 552.317 0.875433 4.37324 0
M  V30 5699 C 553.018 2.85276 5.06944 0
M  V30 5700 N 551.994 2.12973 5.00143 0
M  V30 5701 H 555.796 1.55011 2.49698 0
M  V30 5702 H 553.31 0.940384 1.32403 0
M  V30 5703 H 555.307 -0.26843 4.16035 0
M  V30 5704 H 553.967 -0.845504 3.13499 0
M  V30 5705 H 554.978 2.59833 4.48004 0
M  V30 5706 H 551.655 0.0357721 4.17485 0
M  V30 5707 H 553.045 3.85223 5.50503 0
M  V30 5708 N 555.766 -1.3263 0.851289 0
M  V30 5709 C 557.006 -1.99174 0.459266 0
M  V30 5710 C 557.37 -1.65913 -0.966273 0
M  V30 5711 O 558.571 -2.2552 -1.46267 0
M  V30 5712 C 556.842 -3.50721 0.687698 0
M  V30 5713 S 558.401 -4.37039 0.392746 0
M  V30 5714 H 555.219 -0.689832 0.172199 0
M  V30 5715 H 557.821 -1.61395 1.10327 0
M  V30 5716 H 556.525 -3.72417 1.72435 0
M  V30 5717 H 556.056 -3.93389 0.0299949 0
M  V30 5718 H 558.071 -4.8999 -0.782578 0
M  V30 5719 N 557.244 -0.608902 -1.45362 0
M  V30 5720 C 558.49 -0.104762 -2.02529 0
M  V30 5721 C 558.823 1.26191 -1.47613 0
M  V30 5722 O 558.098 1.8327 -0.65134 0
M  V30 5723 C 558.381 -0.0672661 -3.60037 0
M  V30 5724 C 558.234 -1.4647 -4.25284 0
M  V30 5725 C 559.553 0.619877 -4.35713 0
M  V30 5726 H 556.672 -0.0395438 -0.735938 0
M  V30 5727 H 559.314 -0.781126 -1.73201 0
M  V30 5728 H 557.464 0.50871 -3.85155 0
M  V30 5729 H 559.136 -2.08785 -4.11347 0
M  V30 5730 H 557.379 -2.02502 -3.83634 0
M  V30 5731 H 558.05 -1.39069 -5.34195 0
M  V30 5732 H 560.526 0.130297 -4.15896 0
M  V30 5733 H 559.402 0.615224 -5.45441 0
M  V30 5734 H 559.663 1.68621 -4.0868 0
M  V30 5735 N 558.722 1.53707 -0.348139 0
M  V30 5736 C 559.968 2.01979 0.239986 0
M  V30 5737 C 560.323 1.23141 1.47831 0
M  V30 5738 O 559.616 0.311936 1.89044 0
M  V30 5739 C 559.81 3.52292 0.602061 0
M  V30 5740 C 559.639 4.45684 -0.599625 0
M  V30 5741 C 558.409 4.9304 -1.10635 0
M  V30 5742 C 560.607 4.93156 -1.4595 0
M  V30 5743 N 558.589 5.70394 -2.26988 0
M  V30 5744 C 559.96 5.6868 -2.46988 0
M  V30 5745 C 562.015 4.75257 -1.48441 0
M  V30 5746 C 560.718 6.28208 -3.50353 0
M  V30 5747 C 562.744 5.35639 -2.50689 0
M  V30 5748 C 562.106 6.11034 -3.50453 0
M  V30 5749 H 558.205 0.780335 0.0509992 0
M  V30 5750 H 560.789 1.88466 -0.488742 0
M  V30 5751 H 558.96 3.66002 1.29989 0
M  V30 5752 H 560.692 3.87304 1.17377 0
M  V30 5753 H 557.447 4.68784 -0.67371 0
M  V30 5754 H 557.871 6.13741 -2.85747 0
M  V30 5755 H 562.513 4.16508 -0.726707 0
M  V30 5756 H 560.231 6.86064 -4.27015 0
M  V30 5757 H 563.817 5.23693 -2.53449 0
M  V30 5758 H 562.697 6.56925 -4.28275 0
M  V30 5759 N 560.2 0.0768682 1.57412 0
M  V30 5760 C 561.616 -0.279772 1.57129 0
M  V30 5761 C 561.816 -1.69688 1.08666 0
M  V30 5762 O 560.872 -2.40953 0.754843 0
M  V30 5763 C 562.185 -0.0848055 3.0058 0
M  V30 5764 C 563.733 -0.153954 3.12621 0
M  V30 5765 C 564.208 0.0127946 4.57998 0
M  V30 5766 N 565.699 -0.0426435 4.6318 0
M  V30 5767 C 566.434 0.0618892 5.73367 0
M  V30 5768 N 565.93 0.220229 6.9245 0
M  V30 5769 N 567.723 0.00446072 5.621 0
M  V30 5770 H 559.874 1.00297 1.87228 0
M  V30 5771 H 562.137 0.391565 0.863354 0
M  V30 5772 H 561.843 0.89325 3.40168 0
M  V30 5773 H 561.717 -0.834961 3.67843 0
M  V30 5774 H 564.104 -1.1225 2.72917 0
M  V30 5775 H 564.185 0.627389 2.47987 0
M  V30 5776 H 563.829 0.978128 4.98392 0
M  V30 5777 H 563.759 -0.788016 5.20671 0
M  V30 5778 H 566.25 -0.163226 3.77547 0
M  V30 5779 H 566.563 0.291999 7.72248 0
M  V30 5780 H 564.908 0.255658 6.9453 0
M  V30 5781 H 568.099 -0.117979 4.67951 0
M  V30 5782 H 568.272 0.0893796 6.47938 0
M  V30 5783 N 561.678 -1.56367 -0.196722 0
M  V30 5784 C 562.927 -1.79724 -0.915539 0
M  V30 5785 C 563.24 -0.649804 -1.84491 0
M  V30 5786 O 564.446 -0.767631 -2.60422 0
M  V30 5787 C 562.902 -3.18369 -1.67836 0
M  V30 5788 C 562.51 -4.4091 -0.793897 0
M  V30 5789 C 564.254 -3.51037 -2.38691 0
M  V30 5790 C 562.161 -5.70577 -1.55549 0
M  V30 5791 H 561.091 -0.67013 -0.345604 0
M  V30 5792 H 563.742 -1.82721 -0.168856 0
M  V30 5793 H 562.124 -3.09617 -2.46887 0
M  V30 5794 H 563.298 -4.60781 -0.042163 0
M  V30 5795 H 561.613 -4.15937 -0.19626 0
M  V30 5796 H 564.21 -4.4515 -2.96219 0
M  V30 5797 H 564.553 -2.74704 -3.12799 0
M  V30 5798 H 565.086 -3.61229 -1.66608 0
M  V30 5799 H 561.825 -6.49871 -0.857226 0
M  V30 5800 H 561.345 -5.54726 -2.2812 0
M  V30 5801 H 563.024 -6.11637 -2.10971 0
M  V30 5802 N 563.156 0.464375 -1.50603 0
M  V30 5803 C 564.381 1.24372 -1.65971 0
M  V30 5804 C 564.806 1.84901 -0.345453 0
M  V30 5805 O 564.164 1.67596 0.691457 0
M  V30 5806 C 564.212 2.32331 -2.7578 0
M  V30 5807 O 563.316 3.37146 -2.375 0
M  V30 5808 H 562.657 0.365604 -0.554283 0
M  V30 5809 H 565.187 0.55183 -1.97018 0
M  V30 5810 H 565.197 2.77539 -2.99059 0
M  V30 5811 H 563.872 1.87648 -3.71162 0
M  V30 5812 H 562.449 2.97602 -2.24694 0
M  V30 5813 N 564.634 1.40294 0.718013 0
M  V30 5814 C 565.88 1.38645 1.48005 0
M  V30 5815 C 566.213 -0.0121202 1.94196 0
M  V30 5816 O 565.488 -0.980309 1.67989 0
M  V30 5817 C 565.771 2.37379 2.70782 0
M  V30 5818 C 565.624 3.8625 2.30501 0
M  V30 5819 C 566.943 2.33685 3.72933 0
M  V30 5820 H 564.062 0.504928 0.536858 0
M  V30 5821 H 566.704 1.71411 0.819649 0
M  V30 5822 H 564.854 2.09568 3.27129 0
M  V30 5823 H 566.526 4.24879 1.79655 0
M  V30 5824 H 564.769 4.02202 1.6253 0
M  V30 5825 H 565.44 4.50847 3.18498 0
M  V30 5826 H 567.916 2.58314 3.2621 0
M  V30 5827 H 566.792 3.0482 4.56482 0
M  V30 5828 H 567.053 1.34765 4.21059 0
M  V30 5829 N 566.112 -0.949982 1.2575 0
M  V30 5830 C 567.34 -1.72972 1.13527 0
M  V30 5831 C 567.755 -1.8623 -0.310453 0
M  V30 5832 O 567.112 -1.36336 -1.2132 0
M  V30 5833 C 567.163 -3.14108 1.78936 0
M  V30 5834 O 566.884 -3.01493 3.17858 0
M  V30 5835 C 568.385 -4.08338 1.72554 0
M  V30 5836 H 565.605 -0.541864 0.395758 0
M  V30 5837 H 568.149 -1.19151 1.66202 0
M  V30 5838 H 566.304 -3.64858 1.30221 0
M  V30 5839 H 566.718 -3.90559 3.50092 0
M  V30 5840 H 568.192 -5.04963 2.22973 0
M  V30 5841 H 568.669 -4.33742 0.690251 0
M  V30 5842 H 569.275 -3.63506 2.2078 0
M  V30 5843 N 567.59 -1.07411 -1.15328 0
M  V30 5844 C 569.001 -0.820261 -1.67716 0
M  V30 5845 C 569.352 0.654539 -1.8496 0
M  V30 5846 O 568.477 1.50664 -1.55337 0
M  V30 5847 C 569.072 -1.48242 -3.04647 0
M  V30 5848 C 567.631 -1.27606 -3.5411 0
M  V30 5849 C 566.778 -1.5517 -2.29821 0
M  V30 5850 H 569.729 -1.23608 -0.995332 0
M  V30 5851 H 569.75 -0.903984 -3.69606 0
M  V30 5852 H 569.262 -2.55578 -2.92064 0
M  V30 5853 H 567.363 -0.222948 -3.71932 0
M  V30 5854 H 567.476 -1.99667 -4.35511 0
M  V30 5855 H 565.84 -0.972747 -2.35393 0
M  V30 5856 H 566.623 -2.63689 -2.19824 0
M  V30 5857 N 569.068 1.32177 -0.85831 0
M  V30 5858 C 570.316 1.96735 -0.462568 0
M  V30 5859 C 570.637 1.6824 0.985911 0
M  V30 5860 O 569.907 0.991564 1.68952 0
M  V30 5861 H 568.487 0.727849 -0.168064 0
M  V30 5862 H 571.149 1.61195 -1.09554 0
M  V30 5863 H 570.245 3.06068 -0.610647 0
M  V30 5864 N 570.547 0.616602 1.45037 0
M  V30 5865 C 571.457 -0.0985401 2.34393 0
M  V30 5866 C 572.473 -0.850971 1.51771 0
M  V30 5867 O 573.649 -0.806521 1.84546 0
M  V30 5868 C 570.714 -1.07748 3.29532 0
M  V30 5869 C 569.775 -0.326022 4.2806 0
M  V30 5870 C 569.008 -1.25833 5.18654 0
M  V30 5871 O 569.231 -2.49652 5.12864 0
M  V30 5872 O 568.165 -0.750512 5.97203 0
M  V30 5873 H 571.991 0.636016 2.96966 0
M  V30 5874 H 569.576 0.376832 1.44569 0
M  V30 5875 H 571.458 -1.64107 3.88133 0
M  V30 5876 H 570.133 -1.79291 2.69512 0
M  V30 5877 H 569.04 0.280253 3.73049 0
M  V30 5878 H 570.373 0.349091 4.9096 0
M  V30 5879 N 572.025 -1.5352 0.356285 0
M  V30 5880 C 572.972 -2.25439 -0.494569 0
M  V30 5881 C 573.942 -1.25752 -1.08516 0
M  V30 5882 O 575.127 -1.54513 -1.1194 0
M  V30 5883 C 572.267 -3.04011 -1.63313 0
M  V30 5884 C 571.38 -4.18574 -1.06862 0
M  V30 5885 C 570.515 -4.84607 -2.17552 0
M  V30 5886 C 569.554 -5.91218 -1.58518 0
M  V30 5887 N 568.691 -6.50979 -2.63003 0
M  V30 5888 H 573.531 -2.97737 0.125244 0
M  V30 5889 H 571.068 -1.46916 0.0735789 0
M  V30 5890 H 573.026 -3.47834 -2.30363 0
M  V30 5891 H 571.656 -2.33986 -2.22374 0
M  V30 5892 H 570.708 -3.79303 -0.288672 0
M  V30 5893 H 572.02 -4.95215 -0.596924 0
M  V30 5894 H 571.174 -5.31566 -2.92442 0
M  V30 5895 H 569.913 -4.07418 -2.6807 0
M  V30 5896 H 568.918 -5.4363 -0.821391 0
M  V30 5897 H 570.143 -6.70322 -1.08836 0
M  V30 5898 H 568.089 -5.76648 -3.12751 0
M  V30 5899 H 568.006 -7.23131 -2.20493 0
M  V30 5900 H 569.274 -7.02589 -3.37623 0
M  V30 5901 N 573.503 -0.0852151 -1.57369 0
M  V30 5902 C 574.752 0.580443 -1.93168 0
M  V30 5903 C 575.065 1.6995 -0.968319 0
M  V30 5904 O 576.271 2.42564 -1.21963 0
M  V30 5905 C 574.727 1.08386 -3.43192 0
M  V30 5906 C 574.335 -0.00491388 -4.48 0
M  V30 5907 C 576.079 1.72281 -3.87968 0
M  V30 5908 C 573.986 0.513299 -5.89168 0
M  V30 5909 H 572.916 0.22059 -0.72101 0
M  V30 5910 H 575.567 -0.159621 -1.82804 0
M  V30 5911 H 573.949 1.8773 -3.48674 0
M  V30 5912 H 575.123 -0.780032 -4.5415 0
M  V30 5913 H 573.438 -0.548453 -4.12772 0
M  V30 5914 H 576.035 2.12108 -4.9083 0
M  V30 5915 H 576.378 2.58811 -3.26071 0
M  V30 5916 H 576.911 0.995359 -3.85146 0
M  V30 5917 H 573.65 -0.315153 -6.54742 0
M  V30 5918 H 573.17 1.25564 -5.8651 0
M  V30 5919 H 574.849 0.985433 -6.39451 0
M  V30 5920 N 574.981 1.5647 0.188427 0
M  V30 5921 C 576.227 1.81281 0.909124 0
M  V30 5922 C 576.56 0.66034 1.82628 0
M  V30 5923 O 575.835 -0.338737 1.91528 0
M  V30 5924 C 576.118 3.16388 1.7196 0
M  V30 5925 C 575.971 4.42137 0.826714 0
M  V30 5926 C 577.29 3.48256 2.69083 0
M  V30 5927 H 574.409 0.659457 0.329068 0
M  V30 5928 H 577.051 1.89182 0.176156 0
M  V30 5929 H 575.201 3.09784 2.34448 0
M  V30 5930 H 576.873 4.60794 0.216025 0
M  V30 5931 H 575.116 4.33594 0.133792 0
M  V30 5932 H 575.787 5.33184 1.42893 0
M  V30 5933 H 578.263 3.55203 2.16726 0
M  V30 5934 H 577.139 4.43899 3.2287 0
M  V30 5935 H 577.4 2.72088 3.48455 0
M  V30 5936 N 576.459 -0.456382 1.50847 0
M  V30 5937 C 577.389 -1.56025 1.73719 0
M  V30 5938 C 578.37 -1.5967 0.586473 0
M  V30 5939 O 579.555 -1.75702 0.827185 0
M  V30 5940 C 576.685 -2.94251 1.84483 0
M  V30 5941 C 575.639 -3.05471 2.99786 0
M  V30 5942 C 574.965 -4.45489 2.95709 0
M  V30 5943 C 576.265 -2.81318 4.40065 0
M  V30 5944 H 577.959 -1.37138 2.66146 0
M  V30 5945 H 575.505 -0.658299 1.28072 0
M  V30 5946 H 577.458 -3.71417 1.99067 0
M  V30 5947 H 576.182 -3.14328 0.886891 0
M  V30 5948 H 574.841 -2.30741 2.84876 0
M  V30 5949 H 574.489 -4.62505 1.97732 0
M  V30 5950 H 574.189 -4.53929 3.73125 0
M  V30 5951 H 575.713 -5.24655 3.12362 0
M  V30 5952 H 577.127 -3.48226 4.55425 0
M  V30 5953 H 575.524 -3.01188 5.19043 0
M  V30 5954 H 576.594 -1.7706 4.51418 0
M  V30 5955 N 577.937 -1.40673 -0.710563 0
M  V30 5956 C 578.885 -1.41517 -1.84596 0
M  V30 5957 C 579.879 -0.295043 -1.66811 0
M  V30 5958 O 581.085 -0.466331 -1.73854 0
M  V30 5959 H 577.46 -0.442467 -0.608052 0
M  V30 5960 H 579.431 -2.37238 -1.80999 0
M  V30 5961 C 578.18 -1.29957 -3.225 0
M  V30 5962 H 577.503 -2.15429 -3.36794 0
M  V30 5963 H 578.943 -1.34608 -4.02066 0
M  V30 5964 C 577.402 -0.0103164 -3.36898 0
M  V30 5965 O 577.932 0.950707 -3.90288 0
M  V30 5966 N 576.138 0.0608409 -2.90536 0
M  V30 5967 H 575.685 -0.721943 -2.47277 0
M  V30 5968 H 575.643 0.92292 -3.00549 0
M  V30 5969 N 579.415 0.9433 -1.26252 0
M  V30 5970 C 580.662 1.68925 -1.11672 0
M  V30 5971 C 580.99 1.91499 0.340329 0
M  V30 5972 O 580.245 1.49189 1.26653 0
M  V30 5973 C 580.544 3.07073 -1.82868 0
M  V30 5974 C 580.21 3.04262 -3.32769 0
M  V30 5975 C 578.872 3.03203 -3.7366 0
M  V30 5976 C 581.224 2.96729 -4.28487 0
M  V30 5977 C 578.552 2.92373 -5.0866 0
M  V30 5978 C 580.904 2.87442 -5.63525 0
M  V30 5979 C 579.568 2.84724 -6.03729 0
M  V30 5980 H 578.838 0.618141 -0.408635 0
M  V30 5981 H 581.485 1.10124 -1.56668 0
M  V30 5982 H 579.79 3.69486 -1.30335 0
M  V30 5983 H 581.487 3.63635 -1.69029 0
M  V30 5984 H 578.077 3.05865 -3.00241 0
M  V30 5985 H 582.261 2.96658 -3.97879 0
M  V30 5986 H 577.517 2.88645 -5.38975 0
M  V30 5987 H 581.691 2.80576 -6.37377 0
M  V30 5988 H 579.318 2.76089 -7.08293 0
M  V30 5989 N 580.893 1.08022 1.14757 0
M  V30 5990 C 582.121 0.828847 1.89572 0
M  V30 5991 C 582.536 -0.618621 1.78377 0
M  V30 5992 O 581.893 -1.42482 1.1404 0
M  V30 5993 C 581.944 1.23677 3.39685 0
M  V30 5994 O 581.665 2.62746 3.50566 0
M  V30 5995 C 583.166 1.01569 4.31507 0
M  V30 5996 H 580.386 0.299196 0.600602 0
M  V30 5997 H 582.93 1.43846 1.45357 0
M  V30 5998 H 581.085 0.671347 3.81539 0
M  V30 5999 H 581.499 2.79573 4.43778 0
M  V30 6000 H 582.973 1.35055 5.35223 0
M  V30 6001 H 583.45 -0.0475433 4.39174 0
M  V30 6002 H 584.056 1.56636 3.95405 0
M  V30 6003 N 582.371 -1.3172 0.865308 0
M  V30 6004 C 583.596 -2.01591 0.487415 0
M  V30 6005 C 584.021 -1.6455 -0.911307 0
M  V30 6006 O 583.379 -0.851689 -1.6005 0
M  V30 6007 C 583.427 -3.54759 0.646401 0
M  V30 6008 O 582.531 -4.11185 -0.316284 0
M  V30 6009 H 581.872 -0.634884 0.194468 0
M  V30 6010 H 584.402 -1.68024 1.16744 0
M  V30 6011 H 584.412 -4.04438 0.537932 0
M  V30 6012 H 583.087 -3.8106 1.66632 0
M  V30 6013 H 581.664 -3.72543 -0.163162 0
M  V30 6014 N 583.85 -0.624285 -1.44708 0
M  V30 6015 C 584.783 0.133905 -2.27807 0
M  V30 6016 C 585.76 0.857794 -1.38133 0
M  V30 6017 O 586.945 0.863277 -1.6757 0
M  V30 6018 C 584.072 1.19541 -3.16903 0
M  V30 6019 C 583.118 0.572813 -4.22636 0
M  V30 6020 S 583.951 -0.631953 -5.31758 0
M  V30 6021 C 585.106 0.429733 -6.24423 0
M  V30 6022 H 585.34 -0.571072 -2.91764 0
M  V30 6023 H 582.873 -0.412261 -1.48794 0
M  V30 6024 H 584.831 1.80293 -3.68788 0
M  V30 6025 H 583.492 1.87255 -2.5218 0
M  V30 6026 H 582.685 1.37205 -4.84965 0
M  V30 6027 H 582.287 0.0400641 -3.73979 0
M  V30 6028 H 584.579 1.30421 -6.64828 0
M  V30 6029 H 585.522 -0.157804 -7.07924 0
M  V30 6030 H 585.93 0.75256 -5.59461 0
M  V30 6031 N 585.328 1.53329 -0.364422 0
M  V30 6032 C 586.605 1.93557 0.281962 0
M  V30 6033 C 586.985 1.29786 1.6649 0
M  V30 6034 O 586.333 0.456512 2.23893 0
M  V30 6035 C 586.543 3.47405 0.333331 0
M  V30 6036 C 587.891 4.20699 0.574231 0
M  V30 6037 O 588.915 3.53779 0.414588 0
M  V30 6038 O 587.774 5.39287 0.885002 0
M  V30 6039 H 584.868 0.809573 0.168881 0
M  V30 6040 H 587.414 1.64494 -0.417121 0
M  V30 6041 H 586.186 3.86091 -0.636326 0
M  V30 6042 H 585.809 3.82697 1.07836 0
M  V30 6043 N 586.806 0.0935595 1.57322 0
M  V30 6044 C 587.736 -0.863062 2.16964 0
M  V30 6045 C 588.717 -1.29528 1.10256 0
M  V30 6046 O 589.902 -1.36245 1.38387 0
M  V30 6047 C 587.032 -2.12276 2.74875 0
M  V30 6048 C 585.986 -1.82921 3.86942 0
M  V30 6049 C 585.312 -3.15707 4.31548 0
M  V30 6050 C 586.612 -1.11737 5.10208 0
M  V30 6051 H 588.306 -0.366145 2.97153 0
M  V30 6052 H 585.852 -0.174673 1.42937 0
M  V30 6053 H 587.805 -2.79634 3.1525 0
M  V30 6054 H 586.529 -2.64248 1.91938 0
M  V30 6055 H 585.188 -1.17961 3.47103 0
M  V30 6056 H 584.836 -3.65563 3.45504 0
M  V30 6057 H 584.536 -2.96849 5.07104 0
M  V30 6058 H 586.06 -3.84226 4.74555 0
M  V30 6059 H 587.474 -1.69203 5.47762 0
M  V30 6060 H 585.871 -1.03064 5.91183 0
M  V30 6061 H 586.941 -0.0998818 4.84797 0
M  V30 6062 N 588.284 -1.56567 -0.180126 0
M  V30 6063 C 589.531 -1.81492 -0.898167 0
M  V30 6064 C 589.859 -0.669225 -1.82624 0
M  V30 6065 O 589.114 0.344096 -1.92651 0
M  V30 6066 C 589.413 -3.1252 -1.73395 0
M  V30 6067 C 589.079 -4.40658 -0.955567 0
M  V30 6068 C 587.741 -4.75465 -0.740707 0
M  V30 6069 C 590.093 -5.19593 -0.408948 0
M  V30 6070 C 587.421 -5.86691 0.0320128 0
M  V30 6071 C 589.773 -6.31627 0.350638 0
M  V30 6072 C 588.437 -6.65007 0.576378 0
M  V30 6073 H 587.707 -0.664125 -0.328662 0
M  V30 6074 H 590.354 -1.908 -0.163616 0
M  V30 6075 H 588.659 -2.98515 -2.53763 0
M  V30 6076 H 590.356 -3.29013 -2.29241 0
M  V30 6077 H 586.946 -4.13352 -1.13306 0
M  V30 6078 H 591.13 -4.93104 -0.562307 0
M  V30 6079 H 586.386 -6.11016 0.216735 0
M  V30 6080 H 590.56 -6.92001 0.781497 0
M  V30 6081 H 588.187 -7.51033 1.17703 0
M  V30 6082 N 589.762 0.448376 -1.51087 0
M  V30 6083 C 590.709 1.54341 -1.71603 0
M  V30 6084 C 591.679 1.56463 -0.557536 0
M  V30 6085 O 592.864 1.73644 -0.79072 0
M  V30 6086 C 590.004 2.92148 -1.83695 0
M  V30 6087 C 589.117 2.99639 -3.11192 0
M  V30 6088 C 588.252 4.285 -3.13944 0
M  V30 6089 C 587.291 4.29819 -4.35801 0
M  V30 6090 N 586.428 5.50186 -4.36164 0
M  V30 6091 H 591.268 1.36151 -2.65079 0
M  V30 6092 H 588.805 0.661585 -1.31383 0
M  V30 6093 H 590.763 3.72093 -1.88687 0
M  V30 6094 H 589.393 3.0892 -0.936374 0
M  V30 6095 H 588.445 2.12425 -3.15562 0
M  V30 6096 H 589.757 2.96474 -4.01129 0
M  V30 6097 H 588.911 5.16811 -3.17791 0
M  V30 6098 H 587.65 4.34307 -2.21876 0
M  V30 6099 H 586.655 3.39902 -4.32142 0
M  V30 6100 H 587.88 4.25685 -5.29121 0
M  V30 6101 H 585.826 5.56735 -3.46961 0
M  V30 6102 H 585.743 5.48856 -5.19897 0
M  V30 6103 H 587.011 6.40559 -4.44189 0
M  V30 6104 N 591.24 1.41047 0.703093 0
M  V30 6105 C 592.465 1.43537 1.49706 0
M  V30 6106 C 592.89 0.0401853 1.88057 0
M  V30 6107 O 592.248 -0.954785 1.54122 0
M  V30 6108 C 592.296 2.3433 2.74084 0
M  V30 6109 O 591.4 1.79515 3.71279 0
M  V30 6110 H 590.741 0.487454 0.450871 0
M  V30 6111 H 593.271 1.85422 0.86486 0
M  V30 6112 H 593.281 2.49947 3.22476 0
M  V30 6113 H 591.956 3.35708 2.45506 0
M  V30 6114 H 590.533 1.7331 3.30179 0
M  V30 6115 N 592.718 -0.936591 1.26751 0
M  V30 6116 C 594.134 -1.21095 1.03963 0
M  V30 6117 C 594.334 -2.00156 -0.232372 0
M  V30 6118 O 593.39 -2.3434 -0.940274 0
M  V30 6119 C 594.703 -1.96775 2.27377 0
M  V30 6120 C 596.251 -2.09749 2.32324 0
M  V30 6121 C 596.726 -2.88832 3.55443 0
M  V30 6122 N 598.217 -2.96404 3.55948 0
M  V30 6123 C 598.952 -3.58036 4.47881 0
M  V30 6124 N 598.448 -4.21132 5.50109 0
M  V30 6125 N 600.241 -3.55353 4.35523 0
M  V30 6126 H 592.392 -0.408173 2.08441 0
M  V30 6127 H 594.655 -0.243139 0.91629 0
M  V30 6128 H 594.361 -1.46094 3.19921 0
M  V30 6129 H 594.235 -2.97424 2.31989 0
M  V30 6130 H 596.622 -2.5962 1.40291 0
M  V30 6131 H 596.703 -1.08347 2.31721 0
M  V30 6132 H 596.347 -2.39647 4.47808 0
M  V30 6133 H 596.277 -3.90499 3.53296 0
M  V30 6134 H 598.768 -2.51552 2.82011 0
M  V30 6135 H 599.081 -4.66071 6.16439 0
M  V30 6136 H 597.426 -4.19705 5.53961 0
M  V30 6137 H 600.617 -3.05256 3.54875 0
M  V30 6138 H 600.79 -4.03097 5.07363 0
M  V30 6139 N 594.196 -1.08629 -1.14182 0
M  V30 6140 C 595.126 -0.740003 -2.21464 0
M  V30 6141 C 596.107 0.278591 -1.67803 0
M  V30 6142 O 597.292 0.148461 -1.93632 0
M  V30 6143 C 594.422 -0.150952 -3.46972 0
M  V30 6144 C 593.376 -1.09815 -4.13672 0
M  V30 6145 C 592.702 -0.3712 -5.3341 0
M  V30 6146 C 594.002 -2.43722 -4.61949 0
M  V30 6147 H 595.696 -1.63697 -2.50686 0
M  V30 6148 H 593.242 -0.788526 -1.20492 0
M  V30 6149 H 595.195 0.103325 -4.21273 0
M  V30 6150 H 593.919 0.781164 -3.1712 0
M  V30 6151 H 592.578 -1.33756 -3.41328 0
M  V30 6152 H 592.226 0.564792 -4.99819 0
M  V30 6153 H 591.926 -1.00267 -5.78982 0
M  V30 6154 H 593.45 -0.12503 -6.10472 0
M  V30 6155 H 594.864 -2.24034 -5.27714 0
M  V30 6156 H 593.261 -3.02582 -5.18232 0
M  V30 6157 H 594.331 -3.05082 -3.76899 0
M  V30 6158 N 595.674 1.31259 -0.872281 0
M  V30 6159 C 596.914 1.98418 -0.490894 0
M  V30 6160 C 597.278 1.67429 0.939755 0
M  V30 6161 O 598.479 2.27818 1.42661 0
M  V30 6162 C 596.75 3.49583 -0.743408 0
M  V30 6163 S 598.309 4.36359 -0.462226 0
M  V30 6164 H 595.127 0.687005 -0.183151 0
M  V30 6165 H 597.729 1.59619 -1.12881 0
M  V30 6166 H 596.433 3.69627 -1.78338 0
M  V30 6167 H 595.964 3.93291 -0.0925758 0
M  V30 6168 H 597.979 4.91173 0.704525 0
M  V30 6169 N 597.152 0.631951 1.44375 0
M  V30 6170 C 598.398 0.145491 2.02879 0
M  V30 6171 C 598.753 -1.21936 1.48827 0
M  V30 6172 O 598.046 -1.7976 0.663085 0
M  V30 6173 C 598.24 0.0735861 3.57324 0
M  V30 6174 C 598.069 1.42992 4.2636 0
M  V30 6175 C 596.839 2.01691 4.63302 0
M  V30 6176 C 599.037 2.36393 4.56752 0
M  V30 6177 N 597.019 3.30551 5.17309 0
M  V30 6178 C 598.39 3.49869 5.11851 0
M  V30 6179 C 600.445 2.35462 4.38705 0
M  V30 6180 C 599.148 4.6261 5.50803 0
M  V30 6181 C 601.174 3.47268 4.78706 0
M  V30 6182 C 600.536 4.59467 5.33919 0
M  V30 6183 H 596.635 0.0971781 0.775938 0
M  V30 6184 H 599.219 0.835624 1.75856 0
M  V30 6185 H 597.39 -0.585829 3.83957 0
M  V30 6186 H 599.122 -0.421777 4.02496 0
M  V30 6187 H 595.877 1.54627 4.47647 0
M  V30 6188 H 596.301 3.96435 5.48788 0
M  V30 6189 H 600.943 1.49966 3.9531 0
M  V30 6190 H 598.661 5.48813 5.93152 0
M  V30 6191 H 602.247 3.47724 4.66454 0
M  V30 6192 H 601.127 5.44551 5.64299 0
M  V30 6193 N 598.631 -1.53133 0.372548 0
M  V30 6194 C 599.861 -2.05476 -0.215202 0
M  V30 6195 C 600.269 -1.24534 -1.42436 0
M  V30 6196 O 599.612 -0.280771 -1.81542 0
M  V30 6197 C 599.674 -3.53276 -0.666068 0
M  V30 6198 C 599.338 -4.54998 0.427342 0
M  V30 6199 C 600.335 -5.03911 1.27944 0
M  V30 6200 C 598.02 -4.98828 0.589579 0
M  V30 6201 C 600.014 -5.95263 2.27905 0
M  V30 6202 C 597.701 -5.89984 1.59255 0
M  V30 6203 C 598.699 -6.38093 2.43571 0
M  V30 6204 O 598.387 -7.27451 3.42156 0
M  V30 6205 H 598.119 -0.67481 -0.040099 0
M  V30 6206 H 600.673 -1.98409 0.531312 0
M  V30 6207 H 598.903 -3.57904 -1.4643 0
M  V30 6208 H 600.592 -3.88442 -1.1776 0
M  V30 6209 H 601.358 -4.70792 1.16532 0
M  V30 6210 H 597.237 -4.60965 -0.0569456 0
M  V30 6211 H 600.781 -6.32736 2.93753 0
M  V30 6212 H 596.678 -6.22518 1.70711 0
M  V30 6213 H 597.446 -7.45467 3.37967 0
M  V30 6214 N 600.109 -0.101901 -1.5727 0
M  V30 6215 C 601.386 0.602832 -1.86079 0
M  V30 6216 C 601.766 1.85912 -1 0
M  V30 6217 O 601.114 2.28379 -0.0742488 0
M  V30 6218 C 601.324 0.911694 -3.36881 0
M  V30 6219 C 602.672 1.2722 -4.05093 0
M  V30 6220 O 603.696 1.0025 -3.41802 0
M  V30 6221 O 602.555 1.7776 -5.16782 0
M  V30 6222 H 599.649 0.302366 -0.769743 0
M  V30 6223 H 602.195 -0.135113 -1.69161 0
M  V30 6224 H 600.967 0.0207256 -3.91295 0
M  V30 6225 H 600.59 1.70538 -3.59169 0
M  V30 6226 N 601.587 1.56661 0.17182 0
M  V30 6227 C 602.817 1.85831 0.902804 0
M  V30 6228 C 603.225 0.685157 1.76358 0
M  V30 6229 O 602.568 -0.354947 1.80238 0
M  V30 6230 C 602.63 3.09406 1.83053 0
M  V30 6231 C 602.294 4.4231 1.1494 0
M  V30 6232 C 603.291 5.17342 0.515104 0
M  V30 6233 C 600.976 4.89045 1.14631 0
M  V30 6234 C 602.97 6.37299 -0.113194 0
M  V30 6235 C 600.657 6.08933 0.514184 0
M  V30 6236 C 601.655 6.82904 -0.114463 0
M  V30 6237 O 601.343 8.00518 -0.736622 0
M  V30 6238 H 601.075 0.620715 0.267748 0
M  V30 6239 H 603.629 2.04637 0.176918 0
M  V30 6240 H 601.859 2.86544 2.59672 0
M  V30 6241 H 603.548 3.25027 2.4313 0
M  V30 6242 H 604.314 4.82317 0.509474 0
M  V30 6243 H 600.193 4.31409 1.62502 0
M  V30 6244 H 603.737 6.94976 -0.604477 0
M  V30 6245 H 599.634 6.43423 0.517395 0
M  V30 6246 H 600.402 8.16027 -0.635822 0
M  V30 6247 N 603.065 -0.440357 1.51323 0
M  V30 6248 C 604.311 -1.19181 1.64085 0
M  V30 6249 C 604.644 -1.90936 0.354575 0
M  V30 6250 O 603.919 -1.8347 -0.645675 0
M  V30 6251 C 604.202 -2.2112 2.84215 0
M  V30 6252 C 604.055 -1.53468 4.22809 0
M  V30 6253 C 605.374 -3.22133 2.99864 0
M  V30 6254 H 602.493 -0.431924 0.597169 0
M  V30 6255 H 605.135 -0.481443 1.83799 0
M  V30 6256 H 603.285 -2.81703 2.67537 0
M  V30 6257 H 604.957 -0.962455 4.51148 0
M  V30 6258 H 603.2 -0.837086 4.25647 0
M  V30 6259 H 603.871 -2.27694 5.02852 0
M  V30 6260 H 606.347 -2.71601 3.15233 0
M  V30 6261 H 605.223 -3.90756 3.85488 0
M  V30 6262 H 605.484 -3.88061 2.11804 0
M  V30 6263 N 604.543 -1.41418 -0.695603 0
M  V30 6264 C 605.453 -1.45622 -1.83933 0
M  V30 6265 C 606.469 -0.346825 -1.70508 0
M  V30 6266 O 607.645 -0.59454 -1.92424 0
M  V30 6267 C 604.71 -1.33627 -3.19914 0
M  V30 6268 C 603.771 -2.54882 -3.45447 0
M  V30 6269 C 603.004 -2.43449 -4.7494 0
M  V30 6270 O 603.227 -1.45905 -5.51424 0
M  V30 6271 O 602.161 -3.33206 -5.01256 0
M  V30 6272 H 605.987 -2.42114 -1.83342 0
M  V30 6273 H 603.572 -1.22956 -0.848658 0
M  V30 6274 H 605.454 -1.29221 -4.01098 0
M  V30 6275 H 604.129 -0.402508 -3.21188 0
M  V30 6276 H 603.036 -2.64865 -2.64192 0
M  V30 6277 H 604.369 -3.47087 -3.48987 0
M  V30 6278 N 606.021 0.929856 -1.27246 0
M  V30 6279 C 607.267 1.6798 -1.13625 0
M  V30 6280 C 607.6 1.91586 0.317589 0
M  V30 6281 O 606.875 1.50467 1.23247 0
M  V30 6282 C 607.158 3.04766 -1.91806 0
M  V30 6283 C 607.011 2.88415 -3.45162 0
M  V30 6284 C 608.33 4.05063 -1.72082 0
M  V30 6285 H 605.449 0.609632 -0.414147 0
M  V30 6286 H 608.091 1.0792 -1.56376 0
M  V30 6287 H 606.241 3.56034 -1.55474 0
M  V30 6288 H 607.913 2.44282 -3.91311 0
M  V30 6289 H 606.156 2.23802 -3.71611 0
M  V30 6290 H 606.827 3.85482 -3.95105 0
M  V30 6291 H 609.303 3.62798 -2.03757 0
M  V30 6292 H 608.179 4.98765 -2.29182 0
M  V30 6293 H 608.44 4.37021 -0.668206 0
M  V30 6294 N 607.499 1.09233 1.13605 0
M  V30 6295 C 608.915 0.82163 1.36826 0
M  V30 6296 C 609.115 -0.565021 1.93416 0
M  V30 6297 O 608.171 -1.32026 2.15234 0
M  V30 6298 C 609.484 1.91124 2.32147 0
M  V30 6299 C 611.032 1.93824 2.45767 0
M  V30 6300 C 611.507 3.01923 3.44393 0
M  V30 6301 N 612.998 3.01149 3.51942 0
M  V30 6302 C 613.733 3.81434 4.2813 0
M  V30 6303 N 613.229 4.71621 5.07489 0
M  V30 6304 N 615.022 3.69702 4.23411 0
M  V30 6305 H 607.173 1.98633 0.752234 0
M  V30 6306 H 609.436 0.862482 0.393482 0
M  V30 6307 H 609.142 2.90862 1.97717 0
M  V30 6308 H 609.016 1.78777 3.32142 0
M  V30 6309 H 611.403 0.94726 2.79483 0
M  V30 6310 H 611.484 2.10248 1.45703 0
M  V30 6311 H 611.128 4.01232 3.11408 0
M  V30 6312 H 611.058 2.82742 4.44257 0
M  V30 6313 H 613.549 2.35789 2.95317 0
M  V30 6314 H 613.862 5.29468 5.62924 0
M  V30 6315 H 612.207 4.75658 5.06729 0
M  V30 6316 H 615.398 2.98606 3.60489 0
M  V30 6317 H 615.571 4.32509 4.82535 0
M  V30 6318 N 608.977 -1.30795 0.87923 0
M  V30 6319 C 610.254 -1.91145 0.415086 0
M  V30 6320 C 610.634 -1.7995 -1.10368 0
M  V30 6321 O 609.982 -1.21305 -1.93642 0
M  V30 6322 C 610.192 -3.37014 0.906778 0
M  V30 6323 C 611.54 -4.14101 0.938358 0
M  V30 6324 O 612.564 -3.45834 0.853053 0
M  V30 6325 O 611.423 -5.36054 1.06342 0
M  V30 6326 H 608.517 -0.81736 0.125905 0
M  V30 6327 H 611.063 -1.39401 0.967753 0
M  V30 6328 H 609.835 -3.3922 1.95053 0
M  V30 6329 H 609.458 -3.96204 0.332948 0
M  V30 6330 N 610.455 -0.639598 -1.44038 0
M  V30 6331 C 611.703 -0.147188 -2.01563 0
M  V30 6332 C 612.024 1.2384 -1.50628 0
M  V30 6333 O 611.294 1.82452 -0.713316 0
M  V30 6334 H 609.874 -0.0514231 -0.745228 0
M  V30 6335 H 612.536 -0.828205 -1.76428 0
M  V30 6336 H 611.632 -0.121358 -3.11864 0
M  V30 6337 N 611.933 1.52934 -0.380664 0
M  V30 6338 C 613.163 2.05587 0.204302 0
M  V30 6339 C 613.571 1.25288 1.41773 0
M  V30 6340 O 612.914 0.290394 1.8139 0
M  V30 6341 C 612.976 3.53624 0.647324 0
M  V30 6342 C 612.64 4.54765 -0.451465 0
M  V30 6343 C 613.637 5.03226 -1.30614 0
M  V30 6344 C 611.322 4.98508 -0.616025 0
M  V30 6345 C 613.316 5.94046 -2.31058 0
M  V30 6346 C 611.003 5.89131 -1.62381 0
M  V30 6347 C 612.001 6.36792 -2.46952 0
M  V30 6348 O 611.689 7.25626 -3.46009 0
M  V30 6349 H 611.421 0.675013 0.0365198 0
M  V30 6350 H 613.975 1.98125 -0.541827 0
M  V30 6351 H 612.205 3.58676 1.44529 0
M  V30 6352 H 613.894 3.89061 1.15698 0
M  V30 6353 H 614.66 4.70167 -1.19027 0
M  V30 6354 H 610.539 4.60989 0.0324987 0
M  V30 6355 H 614.083 6.3117 -2.97104 0
M  V30 6356 H 609.98 6.21603 -1.7401 0
M  V30 6357 H 610.748 7.43664 -3.41916 0
M  V30 6358 N 613.412 0.11024 1.57214 0
M  V30 6359 C 614.658 -0.544479 1.95977 0
M  V30 6360 C 615.013 -1.64845 0.992171 0
M  V30 6361 O 614.306 -1.91589 0.0206981 0
M  V30 6362 C 614.5 -1.13102 3.39032 0
M  V30 6363 C 614.329 -0.0854079 4.49619 0
M  V30 6364 C 613.099 0.343373 5.04132 0
M  V30 6365 C 615.297 0.692232 5.0962 0
M  V30 6366 N 613.279 1.37567 5.98288 0
M  V30 6367 C 614.65 1.57596 5.99636 0
M  V30 6368 C 616.705 0.744085 4.92309 0
M  V30 6369 C 615.408 2.50701 6.74197 0
M  V30 6370 C 617.434 1.6628 5.67543 0
M  V30 6371 C 616.796 2.53412 6.57238 0
M  V30 6372 H 612.895 -0.169124 0.763493 0
M  V30 6373 H 615.479 0.196326 1.93708 0
M  V30 6374 H 613.65 -1.84158 3.41965 0
M  V30 6375 H 615.382 -1.74934 3.64939 0
M  V30 6376 H 612.137 -0.0473277 4.73576 0
M  V30 6377 H 612.561 1.89048 6.50069 0
M  V30 6378 H 617.203 0.0845825 4.22715 0
M  V30 6379 H 614.921 3.17669 7.43043 0
M  V30 6380 H 618.507 1.70825 5.56156 0
M  V30 6381 H 617.387 3.23347 7.14434 0
M  V30 6382 N 614.89 -1.56749 -0.16351 0
M  V30 6383 C 616.306 -1.51043 -0.515567 0
M  V30 6384 C 616.506 -0.815855 -1.84245 0
M  V30 6385 O 615.562 -0.379477 -2.49632 0
M  V30 6386 C 616.875 -2.95791 -0.541114 0
M  V30 6387 C 618.423 -3.0664 -0.627776 0
M  V30 6388 C 618.898 -4.52861 -0.684141 0
M  V30 6389 N 620.389 -4.5714 -0.746818 0
M  V30 6390 C 621.124 -5.67634 -0.811137 0
M  V30 6391 N 620.62 -6.8774 -0.835811 0
M  V30 6392 N 622.413 -5.55624 -0.850756 0
M  V30 6393 H 614.564 -2.00307 0.70645 0
M  V30 6394 H 616.827 -0.912876 0.255659 0
M  V30 6395 H 616.533 -3.49797 0.365329 0
M  V30 6396 H 616.407 -3.50858 -1.38487 0
M  V30 6397 H 618.794 -2.52663 -1.52464 0
M  V30 6398 H 618.875 -2.54645 0.242805 0
M  V30 6399 H 618.519 -5.07472 0.2085 0
M  V30 6400 H 618.449 -5.02621 -1.57098 0
M  V30 6401 H 620.94 -3.70669 -0.735717 0
M  V30 6402 H 621.253 -7.67701 -0.886279 0
M  V30 6403 H 619.598 -6.90334 -0.803958 0
M  V30 6404 H 622.789 -4.60709 -0.828535 0
M  V30 6405 H 622.962 -6.41756 -0.897418 0
M  V30 6406 N 616.368 0.432326 -1.51554 0
M  V30 6407 C 617.315 1.52512 -1.7323 0
M  V30 6408 C 618.285 1.55863 -0.5741 0
M  V30 6409 O 619.47 1.72796 -0.809093 0
M  V30 6410 C 616.61 2.90183 -1.86783 0
M  V30 6411 C 615.723 2.96322 -3.14352 0
M  V30 6412 C 614.858 4.25147 -3.18471 0
M  V30 6413 C 613.897 4.25172 -4.40335 0
M  V30 6414 N 613.034 5.45529 -4.41975 0
M  V30 6415 H 617.874 1.33332 -2.66508 0
M  V30 6416 H 615.411 0.647613 -1.32077 0
M  V30 6417 H 617.369 3.70071 -1.92623 0
M  V30 6418 H 615.999 3.0791 -0.969087 0
M  V30 6419 H 615.051 2.09066 -3.17798 0
M  V30 6420 H 616.363 2.92203 -4.04251 0
M  V30 6421 H 615.517 5.13411 -3.23255 0
M  V30 6422 H 614.256 4.31929 -2.2647 0
M  V30 6423 H 613.261 3.353 -4.35723 0
M  V30 6424 H 614.486 4.20049 -5.33606 0
M  V30 6425 H 612.432 5.53024 -3.52847 0
M  V30 6426 H 612.349 5.43311 -5.25689 0
M  V30 6427 H 613.617 6.35812 -4.50958 0
M  V30 6428 N 617.846 1.41785 0.688094 0
M  V30 6429 C 618.809 1.43936 1.78368 0
M  V30 6430 C 619.809 0.328866 1.57401 0
M  V30 6431 O 620.999 0.589093 1.63937 0
M  V30 6432 C 618.131 1.25804 3.16838 0
M  V30 6433 H 619.324 2.41472 1.77852 0
M  V30 6434 H 616.877 1.28037 0.896448 0
M  V30 6435 H 617.612 0.291386 3.22988 0
M  V30 6436 H 617.397 2.06272 3.33458 0
M  V30 6437 H 618.887 1.30162 3.96797 0
M  V30 6438 N 619.324 -0.923095 1.27737 0
M  V30 6439 C 620.735 -1.48626 1.12993 0
M  V30 6440 C 621.086 -1.94142 -0.283439 0
M  V30 6441 O 620.211 -1.81605 -1.17681 0
M  V30 6442 C 620.806 -2.70117 2.04505 0
M  V30 6443 C 619.365 -3.22642 1.93853 0
M  V30 6444 C 618.512 -1.95368 1.96791 0
M  V30 6445 H 621.463 -0.736737 1.40563 0
M  V30 6446 H 621.484 -3.4506 1.60356 0
M  V30 6447 H 620.996 -2.36959 3.07363 0
M  V30 6448 H 619.097 -3.60549 0.939968 0
M  V30 6449 H 619.21 -3.88525 2.80331 0
M  V30 6450 H 617.574 -2.12061 1.41076 0
M  V30 6451 H 618.357 -1.64517 3.01312 0
M  V30 6452 N 620.802 -1.09834 -1.13024 0
M  V30 6453 C 621.732 -0.763451 -2.20666 0
M  V30 6454 C 622.713 0.260778 -1.68089 0
M  V30 6455 O 623.898 0.127915 -1.93778 0
M  V30 6456 C 621.028 -0.187744 -3.46792 0
M  V30 6457 C 619.982 -1.14196 -4.12484 0
M  V30 6458 C 619.308 -0.427755 -5.32986 0
M  V30 6459 C 620.608 -2.48607 -4.59338 0
M  V30 6460 H 622.302 -1.66347 -2.48936 0
M  V30 6461 H 619.848 -0.801261 -1.19649 0
M  V30 6462 H 621.801 0.0586375 -4.21359 0
M  V30 6463 H 620.525 0.747485 -3.17931 0
M  V30 6464 H 619.184 -1.37369 -3.3989 0
M  V30 6465 H 618.832 0.511747 -5.0039 0
M  V30 6466 H 618.532 -1.06403 -5.77886 0
M  V30 6467 H 620.056 -0.189772 -6.10305 0
M  V30 6468 H 621.47 -2.29618 -5.25308 0
M  V30 6469 H 619.867 -3.08062 -5.14993 0
M  V30 6470 H 620.937 -3.09062 -3.73642 0
M  V30 6471 N 622.28 1.30327 -0.886154 0
M  V30 6472 C 623.21 2.30549 -0.370028 0
M  V30 6473 C 624.191 1.61039 0.547751 0
M  V30 6474 O 625.376 1.8864 0.461353 0
M  V30 6475 C 622.506 3.44808 0.415275 0
M  V30 6476 C 621.46 4.26024 -0.41085 0
M  V30 6477 C 620.786 5.32347 0.501128 0
M  V30 6478 C 622.086 4.95433 -1.65359 0
M  V30 6479 H 623.78 2.73969 -1.20754 0
M  V30 6480 H 621.326 1.3171 -0.582097 0
M  V30 6481 H 623.279 4.13986 0.78699 0
M  V30 6482 H 622.003 3.00197 1.28644 0
M  V30 6483 H 620.662 3.58535 -0.764719 0
M  V30 6484 H 620.31 4.83982 1.37004 0
M  V30 6485 H 620.01 5.87581 -0.0478356 0
M  V30 6486 H 621.534 6.0438 0.869333 0
M  V30 6487 H 622.948 5.5712 -1.35239 0
M  V30 6488 H 621.345 5.60537 -2.14284 0
M  V30 6489 H 622.415 4.21493 -2.39733 0
M  V30 6490 N 623.758 0.647228 1.43697 0
M  V30 6491 C 625.006 0.157876 2.01482 0
M  V30 6492 C 625.327 -1.23039 1.51282 0
M  V30 6493 O 624.597 -1.82071 0.722982 0
M  V30 6494 H 623.177 0.0553745 0.744945 0
M  V30 6495 H 625.839 0.83755 1.75986 0
M  V30 6496 H 624.935 0.137895 3.11795 0
M  V30 6497 N 625.236 -1.5273 0.388769 0
M  V30 6498 C 626.652 -1.59553 0.0387049 0
M  V30 6499 C 626.852 -1.40278 -1.44652 0
M  V30 6500 O 625.908 -1.21951 -2.21098 0
M  V30 6501 C 627.221 -2.9625 0.515409 0
M  V30 6502 C 628.769 -3.09426 0.471621 0
M  V30 6503 C 629.244 -4.48572 0.924505 0
M  V30 6504 N 630.735 -4.54754 0.880496 0
M  V30 6505 C 631.47 -5.60653 1.20234 0
M  V30 6506 N 630.966 -6.74198 1.59463 0
M  V30 6507 N 632.759 -5.50755 1.12363 0
M  V30 6508 H 624.91 -1.63508 1.35569 0
M  V30 6509 H 627.173 -0.768097 0.555636 0
M  V30 6510 H 626.879 -3.15569 1.5527 0
M  V30 6511 H 626.753 -3.77102 -0.085792 0
M  V30 6512 H 629.14 -2.89804 -0.556588 0
M  V30 6513 H 629.221 -2.30528 1.10862 0
M  V30 6514 H 628.865 -4.68936 1.95094 0
M  V30 6515 H 628.795 -5.25935 0.264524 0
M  V30 6516 H 631.286 -3.73237 0.591815 0
M  V30 6517 H 631.599 -7.5097 1.82385 0
M  V30 6518 H 629.944 -6.75531 1.63349 0
M  V30 6519 H 633.135 -4.6093 0.816169 0
M  V30 6520 H 633.308 -6.33184 1.37777 0
M  V30 6521 N 626.714 -0.118576 -1.57153 0
M  V30 6522 C 627.961 0.539526 -1.9518 0
M  V30 6523 C 628.289 1.66714 -1.00184 0
M  V30 6524 O 627.544 1.95683 -0.0256482 0
M  V30 6525 C 627.843 1.11303 -3.39627 0
M  V30 6526 C 627.509 0.106809 -4.50773 0
M  V30 6527 C 626.171 -0.169876 -4.809 0
M  V30 6528 C 628.523 -0.57895 -5.17975 0
M  V30 6529 C 625.851 -1.13861 -5.75545 0
M  V30 6530 C 628.203 -1.53631 -6.13661 0
M  V30 6531 C 626.867 -1.82099 -6.42181 0
M  V30 6532 H 626.137 0.197427 -0.714215 0
M  V30 6533 H 628.784 -0.199391 -1.90459 0
M  V30 6534 H 627.089 1.92869 -3.4104 0
M  V30 6535 H 628.786 1.63032 -3.66363 0
M  V30 6536 H 625.376 0.332645 -4.27307 0
M  V30 6537 H 629.56 -0.378359 -4.94856 0
M  V30 6538 H 624.816 -1.36592 -5.95947 0
M  V30 6539 H 628.99 -2.07337 -6.64819 0
M  V30 6540 H 626.617 -2.57319 -7.15326 0
M  V30 6541 N 628.193 1.56834 0.155195 0
M  V30 6542 C 629.433 1.84701 0.875488 0
M  V30 6543 C 629.797 0.701747 1.78716 0
M  V30 6544 O 630.998 0.861263 2.54629 0
M  V30 6545 C 629.269 3.1773 1.63654 0
M  V30 6546 S 630.828 3.67128 2.40338 0
M  V30 6547 H 627.646 0.647856 0.292923 0
M  V30 6548 H 630.248 1.95026 0.136024 0
M  V30 6549 H 628.952 3.99059 0.958117 0
M  V30 6550 H 628.483 3.10388 2.41708 0
M  V30 6551 H 630.498 3.35739 3.65368 0
M  V30 6552 N 629.671 -0.424282 1.51781 0
M  V30 6553 C 630.919 -1.17028 1.64769 0
M  V30 6554 C 631.24 -1.91409 0.372523 0
M  V30 6555 O 630.51 -1.86091 -0.612108 0
M  V30 6556 H 629.09 -0.434992 0.607282 0
M  V30 6557 H 631.752 -0.485169 1.88765 0
M  V30 6558 H 630.848 -1.8927 2.4816 0
M  V30 6559 N 631.149 -1.42148 -0.680565 0
M  V30 6560 C 632.426 -1.32795 -1.43614 0
M  V30 6561 C 632.806 0.037415 -2.11067 0
M  V30 6562 O 632.154 1.05258 -2.02813 0
M  V30 6563 C 632.364 -2.49206 -2.44331 0
M  V30 6564 C 633.712 -2.91059 -3.09144 0
M  V30 6565 O 634.736 -2.49054 -2.54657 0
M  V30 6566 O 633.595 -3.63741 -4.07866 0
M  V30 6567 H 630.689 -0.523397 -0.640301 0
M  V30 6568 H 633.235 -1.54144 -0.709775 0
M  V30 6569 H 632.007 -3.40252 -1.93247 0
M  V30 6570 H 631.63 -2.29813 -3.24456 0
M  V30 6571 N 632.627 0.916307 -1.28225 0
M  V30 6572 C 633.574 2.01841 -1.11932 0
M  V30 6573 C 634.544 1.66091 -0.0171604 0
M  V30 6574 O 635.729 1.89934 -0.181617 0
M  V30 6575 C 632.869 3.36065 -0.784504 0
M  V30 6576 C 631.982 3.847 -1.96544 0
M  V30 6577 C 631.117 5.07423 -1.57149 0
M  V30 6578 C 630.156 5.48384 -2.71922 0
M  V30 6579 N 629.293 6.62298 -2.33037 0
M  V30 6580 H 634.133 2.1511 -2.06232 0
M  V30 6581 H 631.67 1.05366 -1.02647 0
M  V30 6582 H 633.628 4.13272 -0.571148 0
M  V30 6583 H 632.258 3.22571 0.121565 0
M  V30 6584 H 631.31 3.03673 -2.291 0
M  V30 6585 H 632.622 4.1102 -2.82603 0
M  V30 6586 H 631.776 5.92165 -1.32004 0
M  V30 6587 H 630.515 4.82906 -0.682153 0
M  V30 6588 H 629.52 4.62184 -2.97768 0
M  V30 6589 H 630.745 5.7489 -3.61494 0
M  V30 6590 H 628.691 6.39416 -1.4657 0
M  V30 6591 H 628.608 6.8833 -3.12631 0
M  V30 6592 H 629.876 7.50352 -2.11169 0
M  V30 6593 N 634.105 1.10431 1.1244 0
M  V30 6594 C 635.354 0.841539 1.83306 0
M  V30 6595 C 635.667 -0.634961 1.85007 0
M  V30 6596 O 636.873 -1.01363 2.51869 0
M  V30 6597 C 635.329 1.45565 3.29149 0
M  V30 6598 C 634.937 2.96544 3.35806 0
M  V30 6599 C 636.681 1.27227 4.04986 0
M  V30 6600 C 634.588 3.5099 4.75983 0
M  V30 6601 H 633.518 0.311156 0.686803 0
M  V30 6602 H 636.169 1.32829 1.26604 0
M  V30 6603 H 634.551 0.896574 3.85717 0
M  V30 6604 H 635.725 3.58766 2.89177 0
M  V30 6605 H 634.04 3.14036 2.73442 0
M  V30 6606 H 636.637 1.65348 5.08492 0
M  V30 6607 H 636.98 0.213834 4.1575 0
M  V30 6608 H 637.513 1.79941 3.54776 0
M  V30 6609 H 634.252 4.56499 4.70413 0
M  V30 6610 H 633.772 2.93535 5.23065 0
M  V30 6611 H 635.451 3.48808 5.44924 0
M  V30 6612 N 635.583 -1.29855 0.893053 0
M  V30 6613 C 636.994 -1.77946 0.564998 0
M  V30 6614 C 637.345 -1.73339 -0.919134 0
M  V30 6615 O 636.47 -1.3152 -1.71847 0
M  V30 6616 C 637.065 -3.23118 1.01883 0
M  V30 6617 C 635.624 -3.69013 0.742051 0
M  V30 6618 C 634.771 -2.50121 1.19727 0
M  V30 6619 H 637.722 -1.16611 1.07646 0
M  V30 6620 H 637.743 -3.78875 0.351249 0
M  V30 6621 H 637.255 -3.26439 2.09903 0
M  V30 6622 H 635.356 -3.71173 -0.325816 0
M  V30 6623 H 635.469 -4.60117 1.33527 0
M  V30 6624 H 633.833 -2.47128 0.616418 0
M  V30 6625 H 634.616 -2.56174 2.28538 0
M  V30 6626 N 637.061 -0.65484 -1.43351 0
M  V30 6627 C 637.971 0.0363603 -2.34572 0
M  V30 6628 C 638.987 0.810432 -1.53974 0
M  V30 6629 O 640.163 0.757308 -1.86619 0
M  V30 6630 C 637.228 0.989733 -3.32273 0
M  V30 6631 C 636.289 0.212414 -4.28774 0
M  V30 6632 C 635.522 1.12038 -5.21808 0
M  V30 6633 O 635.745 2.35967 -5.19303 0
M  V30 6634 O 634.679 0.59191 -5.98982 0
M  V30 6635 H 638.505 -0.714527 -2.95175 0
M  V30 6636 H 636.09 -0.415029 -1.4352 0
M  V30 6637 H 637.972 1.53759 -3.92347 0
M  V30 6638 H 636.647 1.72082 -2.74171 0
M  V30 6639 H 635.554 -0.379062 -3.72175 0
M  V30 6640 H 636.887 -0.479138 -4.89862 0
M  V30 6641 N 638.539 1.52521 -0.396863 0
M  V30 6642 C 639.95 1.86547 0.0754868 0
M  V30 6643 C 640.301 1.31621 1.45501 0
M  V30 6644 O 639.426 0.650563 2.0639 0
M  V30 6645 C 640.021 3.38495 0.143754 0
M  V30 6646 C 638.58 3.72205 0.560413 0
M  V30 6647 C 637.727 2.75954 -0.272856 0
M  V30 6648 H 640.678 1.46323 -0.614434 0
M  V30 6649 H 640.699 3.68153 0.961425 0
M  V30 6650 H 640.211 3.78442 -0.860415 0
M  V30 6651 H 638.312 3.3783 1.57167 0
M  V30 6652 H 638.425 4.78074 0.313314 0
M  V30 6653 H 636.789 2.53339 0.263 0
M  V30 6654 H 637.572 3.1874 -1.27515 0
M  V30 6655 N 640.017 0.126909 1.57088 0
M  V30 6656 C 640.947 -0.816847 2.18746 0
M  V30 6657 C 641.928 -1.27161 1.12979 0
M  V30 6658 O 643.113 -1.33279 1.41246 0
M  V30 6659 C 640.243 -2.06398 2.79315 0
M  V30 6660 C 639.197 -1.74673 3.90735 0
M  V30 6661 C 638.523 -3.06482 4.38147 0
M  V30 6662 C 639.823 -1.0089 5.12463 0
M  V30 6663 H 641.517 -0.303032 2.97863 0
M  V30 6664 H 639.063 -0.144314 1.43275 0
M  V30 6665 H 641.016 -2.72885 3.2111 0
M  V30 6666 H 639.74 -2.60118 1.975 0
M  V30 6667 H 638.399 -1.10572 3.49527 0
M  V30 6668 H 638.047 -3.58152 3.5318 0
M  V30 6669 H 637.747 -2.86025 5.13287 0
M  V30 6670 H 639.271 -3.74073 4.82599 0
M  V30 6671 H 640.685 -1.57546 5.51228 0
M  V30 6672 H 639.082 -0.905006 5.93237 0
M  V30 6673 H 640.152 0.00297335 4.849 0
M  V30 6674 N 641.495 -1.56914 -0.146875 0
M  V30 6675 C 642.741 -1.83628 -0.860741 0
M  V30 6676 C 643.074 -0.708528 -1.80813 0
M  V30 6677 O 642.349 0.287838 -1.92358 0
M  V30 6678 C 642.632 -3.20836 -1.63511 0
M  V30 6679 C 642.485 -4.44174 -0.709199 0
M  V30 6680 C 643.804 -3.55268 -2.59756 0
M  V30 6681 H 640.923 -0.667949 -0.311468 0
M  V30 6682 H 643.565 -1.89582 -0.125936 0
M  V30 6683 H 641.715 -3.15891 -2.26153 0
M  V30 6684 H 643.387 -4.61205 -0.0937781 0
M  V30 6685 H 641.63 -4.33796 -0.0187856 0
M  V30 6686 H 642.301 -5.36785 -1.28707 0
M  V30 6687 H 644.777 -3.60824 -2.07232 0
M  V30 6688 H 643.653 -4.52303 -3.10987 0
M  V30 6689 H 643.914 -2.81231 -3.41118 0
M  V30 6690 N 642.974 0.416227 -1.52004 0
M  V30 6691 C 644.199 1.19029 -1.69843 0
M  V30 6692 C 644.624 1.83708 -0.404103 0
M  V30 6693 O 643.982 1.69711 0.637787 0
M  V30 6694 C 644.03 2.23439 -2.83032 0
M  V30 6695 O 643.134 3.29419 -2.48106 0
M  V30 6696 H 642.475 0.347785 -0.565634 0
M  V30 6697 H 645.005 0.488871 -1.98674 0
M  V30 6698 H 645.015 2.67884 -3.07737 0
M  V30 6699 H 643.69 1.75745 -3.76944 0
M  V30 6700 H 642.267 2.90303 -2.34048 0
M  V30 6701 N 644.452 1.42507 0.673017 0
M  V30 6702 C 645.68 1.46473 1.46128 0
M  V30 6703 C 646.095 0.0765912 1.88645 0
M  V30 6704 O 645.452 -0.909057 1.58248 0
M  V30 6705 C 645.503 2.39339 2.70923 0
M  V30 6706 O 645.224 3.72752 2.3019 0
M  V30 6707 C 646.725 2.52343 3.64469 0
M  V30 6708 H 643.945 0.49812 0.449575 0
M  V30 6709 H 646.489 1.87041 0.826802 0
M  V30 6710 H 644.644 2.02019 3.30556 0
M  V30 6711 H 645.058 4.22503 3.10791 0
M  V30 6712 H 646.532 3.2144 4.48754 0
M  V30 6713 H 647.009 1.56189 4.1049 0
M  V30 6714 H 647.615 2.90392 3.10729 0
M  V30 6715 N 645.93 -0.909495 1.28709 0
M  V30 6716 C 647.207 -1.63865 1.06806 0
M  V30 6717 C 647.587 -2.07445 -0.391143 0
M  V30 6718 O 646.935 -1.82269 -1.37805 0
M  V30 6719 C 647.145 -2.82692 2.04661 0
M  V30 6720 C 648.493 -3.5361 2.35042 0
M  V30 6721 O 649.517 -2.92847 2.02779 0
M  V30 6722 O 648.376 -4.63131 2.90124 0
M  V30 6723 H 645.47 -0.719065 0.408502 0
M  V30 6724 H 648.016 -0.958424 1.40044 0
M  V30 6725 H 646.788 -2.47614 3.0299 0
M  V30 6726 H 646.411 -3.58426 1.72095 0
M  V30 6727 N 647.408 -1.11026 -1.11852 0
M  V30 6728 C 648.633 -0.879064 -1.87849 0
M  V30 6729 C 649.058 0.565406 -1.79401 0
M  V30 6730 O 648.416 1.39886 -1.15333 0
M  V30 6731 C 648.464 -1.33985 -3.34784 0
M  V30 6732 O 647.568 -0.508803 -4.09249 0
M  V30 6733 H 646.909 -0.316992 -0.583448 0
M  V30 6734 H 649.439 -1.47863 -1.41413 0
M  V30 6735 H 649.449 -1.33248 -3.85628 0
M  V30 6736 H 648.124 -2.39172 -3.40249 0
M  V30 6737 H 646.701 -0.581913 -3.68332 0
M  V30 6738 N 648.886 1.2938 -0.899927 0
M  V30 6739 C 650.302 1.48052 -0.596059 0
M  V30 6740 C 650.502 1.82114 0.862372 0
M  V30 6741 O 649.558 1.91774 1.64253 0
M  V30 6742 C 650.871 2.59332 -1.52208 0
M  V30 6743 C 652.419 2.73208 -1.5273 0
M  V30 6744 C 652.894 3.87617 -2.43961 0
M  V30 6745 N 654.385 3.9495 -2.42009 0
M  V30 6746 C 655.12 4.82824 -3.09303 0
M  V30 6747 N 654.616 5.75387 -3.85877 0
M  V30 6748 N 656.409 4.76317 -2.98459 0
M  V30 6749 H 648.56 1.05546 -1.8432 0
M  V30 6750 H 650.823 0.524314 -0.78981 0
M  V30 6751 H 650.529 2.41029 -2.56121 0
M  V30 6752 H 650.403 3.56139 -1.24278 0
M  V30 6753 H 652.79 2.90908 -0.495614 0
M  V30 6754 H 652.871 1.76975 -1.84698 0
M  V30 6755 H 652.515 3.70672 -3.47224 0
M  V30 6756 H 652.445 4.83218 -2.09303 0
M  V30 6757 H 654.936 3.28744 -1.86375 0
M  V30 6758 H 655.249 6.39235 -4.34279 0
M  V30 6759 H 653.594 5.75272 -3.89984 0
M  V30 6760 H 656.785 4.0299 -2.38152 0
M  V30 6761 H 656.958 5.44589 -3.51179 0
M  V30 6762 N 650.364 0.662433 1.43002 0
M  V30 6763 C 651.294 -0.00979809 2.33498 0
M  V30 6764 C 652.275 -0.802329 1.49989 0
M  V30 6765 O 653.46 -0.761964 1.78627 0
M  V30 6766 C 650.59 -0.970446 3.33466 0
M  V30 6767 C 649.544 -0.287383 4.27034 0
M  V30 6768 C 648.87 -1.36012 5.17112 0
M  V30 6769 C 650.17 0.82595 5.15728 0
M  V30 6770 H 651.864 0.745959 2.89958 0
M  V30 6771 H 649.41 0.360172 1.39423 0
M  V30 6772 H 651.363 -1.44971 3.95679 0
M  V30 6773 H 650.087 -1.75748 2.75282 0
M  V30 6774 H 648.746 0.17152 3.66199 0
M  V30 6775 H 648.394 -2.13882 4.55262 0
M  V30 6776 H 648.094 -0.908276 5.80538 0
M  V30 6777 H 649.618 -1.84056 5.82199 0
M  V30 6778 H 651.032 0.42845 5.71697 0
M  V30 6779 H 649.429 1.20282 5.87922 0
M  V30 6780 H 650.499 1.68003 4.54866 0
M  V30 6781 N 651.842 -1.52309 0.404946 0
M  V30 6782 C 653.088 -2.02731 -0.164857 0
M  V30 6783 C 653.443 -1.28543 -1.43159 0
M  V30 6784 O 652.736 -0.381883 -1.87756 0
M  V30 6785 C 652.93 -3.54284 -0.470895 0
M  V30 6786 C 652.759 -4.43152 0.764625 0
M  V30 6787 C 651.529 -4.88594 1.28858 0
M  V30 6788 C 653.727 -4.874 1.64152 0
M  V30 6789 N 651.709 -5.61577 2.48001 0
M  V30 6790 C 653.08 -5.59121 2.67924 0
M  V30 6791 C 655.135 -4.69421 1.65978 0
M  V30 6792 C 653.838 -6.14772 3.73427 0
M  V30 6793 C 655.864 -5.25966 2.70396 0
M  V30 6794 C 655.226 -5.97606 3.7289 0
M  V30 6795 H 651.325 -0.78169 -0.0220025 0
M  V30 6796 H 653.909 -1.86522 0.558354 0
M  V30 6797 H 652.08 -3.70574 -1.16315 0
M  V30 6798 H 653.812 -3.91394 -1.02921 0
M  V30 6799 H 650.567 -4.6596 0.847232 0
M  V30 6800 H 650.991 -6.02712 3.08329 0
M  V30 6801 H 655.633 -4.13524 0.88079 0
M  V30 6802 H 653.351 -6.69743 4.52184 0
M  V30 6803 H 656.937 -5.13926 2.72711 0
M  V30 6804 H 655.817 -6.40577 4.52361 0
M  V30 6805 N 653.32 -0.135238 -1.57019 0
M  V30 6806 C 654.566 0.519563 -1.96032 0
M  V30 6807 C 654.899 1.65284 -1.01955 0
M  V30 6808 O 654.174 1.94408 -0.059727 0
M  V30 6809 C 654.457 1.0369 -3.44848 0
M  V30 6810 C 654.31 -0.0940754 -4.49702 0
M  V30 6811 C 655.629 1.92254 -3.95887 0
M  V30 6812 H 652.748 0.18739 -0.712779 0
M  V30 6813 H 655.39 -0.214086 -1.8879 0
M  V30 6814 H 653.54 1.66209 -3.5115 0
M  V30 6815 H 655.212 -0.73 -4.55487 0
M  V30 6816 H 653.455 -0.754924 -4.27181 0
M  V30 6817 H 654.126 0.309419 -5.51132 0
M  V30 6818 H 656.602 1.39581 -3.9199 0
M  V30 6819 H 655.478 2.25364 -5.00502 0
M  V30 6820 H 655.739 2.85513 -3.37543 0
M  V30 6821 N 654.798 1.5699 0.138552 0
M  V30 6822 C 655.708 2.02174 1.19008 0
M  V30 6823 C 656.724 0.938622 1.46512 0
M  V30 6824 O 657.9 1.24872 1.58016 0
M  V30 6825 C 654.965 2.40045 2.50159 0
M  V30 6826 C 654.026 3.62346 2.30226 0
M  V30 6827 C 653.259 3.98401 3.55123 0
M  V30 6828 O 653.482 3.35019 4.61647 0
M  V30 6829 O 652.416 4.91606 3.47285 0
M  V30 6830 H 656.242 2.91954 0.836452 0
M  V30 6831 H 653.827 1.45293 0.347907 0
M  V30 6832 H 655.709 2.65225 3.27465 0
M  V30 6833 H 654.384 1.53417 2.85035 0
M  V30 6834 H 653.291 3.42341 1.50843 0
M  V30 6835 H 654.624 4.49617 2.00262 0
M  V30 6836 N 656.276 -0.40816 1.52223 0
M  V30 6837 C 657.523 -1.15502 1.66329 0
M  V30 6838 C 657.851 -1.90474 0.393701 0
M  V30 6839 O 657.106 -1.85507 -0.623356 0
M  V30 6840 C 657.405 -2.17422 2.83659 0
M  V30 6841 C 657.071 -1.5925 4.21841 0
M  V30 6842 C 655.733 -1.4311 4.59427 0
M  V30 6843 C 658.085 -1.16776 5.0795 0
M  V30 6844 C 655.413 -0.830148 5.80797 0
M  V30 6845 C 657.765 -0.580988 6.29926 0
M  V30 6846 C 656.429 -0.406729 6.6626 0
M  V30 6847 H 655.699 -0.422653 0.608642 0
M  V30 6848 H 658.346 -0.442114 1.86327 0
M  V30 6849 H 656.651 -2.94861 2.58001 0
M  V30 6850 H 658.348 -2.75084 2.9177 0
M  V30 6851 H 654.938 -1.72796 3.92224 0
M  V30 6852 H 659.122 -1.28055 4.79495 0
M  V30 6853 H 654.378 -0.68316 6.07571 0
M  V30 6854 H 658.552 -0.243488 6.95974 0
M  V30 6855 H 656.179 0.0610366 7.60175 0
M  V30 6856 N 657.755 -1.42862 -0.66545 0
M  V30 6857 C 659.171 -1.25993 -0.979687 0
M  V30 6858 C 659.371 -0.170831 -2.00775 0
M  V30 6859 O 658.427 0.454827 -2.4837 0
M  V30 6860 C 659.74 -2.62005 -1.47559 0
M  V30 6861 C 661.288 -2.69437 -1.59288 0
M  V30 6862 C 661.763 -4.05838 -2.12272 0
M  V30 6863 N 663.254 -4.0784 -2.19592 0
M  V30 6864 C 663.989 -5.10205 -2.61684 0
M  V30 6865 N 663.485 -6.22949 -3.03161 0
M  V30 6866 N 665.278 -4.9756 -2.61516 0
M  V30 6867 H 657.429 -2.12395 0.0150493 0
M  V30 6868 H 659.692 -0.946355 -0.0558187 0
M  V30 6869 H 659.398 -3.42605 -0.794654 0
M  V30 6870 H 659.272 -2.86566 -2.45275 0
M  V30 6871 H 661.659 -1.89178 -2.26486 0
M  V30 6872 H 661.74 -2.48655 -0.600374 0
M  V30 6873 H 661.384 -4.86559 -1.4568 0
M  V30 6874 H 661.314 -4.23977 -3.12331 0
M  V30 6875 H 663.805 -3.26452 -1.90361 0
M  V30 6876 H 664.118 -6.96899 -3.33993 0
M  V30 6877 H 662.463 -6.2644 -3.00995 0
M  V30 6878 H 665.654 -4.08551 -2.28481 0
M  V30 6879 H 665.827 -5.77468 -2.93999 0
M  V30 6880 N 659.233 0.902656 -1.29189 0
M  V30 6881 C 660.458 1.69167 -1.19989 0
M  V30 6882 C 660.883 1.86607 0.236495 0
M  V30 6883 O 660.241 1.38425 1.17082 0
M  V30 6884 C 660.289 3.05532 -1.91527 0
M  V30 6885 O 659.393 3.93621 -1.2303 0
M  V30 6886 H 658.734 0.517584 -0.415936 0
M  V30 6887 H 661.264 1.12785 -1.70706 0
M  V30 6888 H 661.274 3.55693 -1.99866 0
M  V30 6889 H 659.949 2.92156 -2.96003 0
M  V30 6890 H 658.526 3.52055 -1.22928 0
M  V30 6891 N 660.711 1.11618 1.11262 0
M  V30 6892 C 661.936 0.889013 1.8738 0
M  V30 6893 C 662.361 -0.555884 1.79698 0
M  V30 6894 O 661.719 -1.39272 1.16073 0
M  V30 6895 C 661.767 1.35759 3.34069 0
M  V30 6896 O 660.871 0.530499 4.08974 0
M  V30 6897 H 660.212 0.320082 0.581759 0
M  V30 6898 H 662.742 1.48611 1.40627 0
M  V30 6899 H 662.752 1.35291 3.84916 0
M  V30 6900 H 661.427 2.40973 3.38976 0
M  V30 6901 H 660.004 0.601439 3.68018 0
M  V30 6902 N 662.189 -1.289 0.906776 0
M  V30 6903 C 663.414 -1.99939 0.551303 0
M  V30 6904 C 663.839 -1.67366 -0.858496 0
M  V30 6905 O 663.197 -0.902176 -1.57259 0
M  V30 6906 C 663.245 -3.52523 0.758937 0
M  V30 6907 O 662.349 -4.11983 -0.185308 0
M  V30 6908 H 661.69 -0.628376 0.214568 0
M  V30 6909 H 664.22 -1.64225 1.2203 0
M  V30 6910 H 664.23 -4.02522 0.666329 0
M  V30 6911 H 662.905 -3.75566 1.78671 0
M  V30 6912 H 661.482 -3.72873 -0.0445577 0
M  V30 6913 N 663.667 -0.670007 -1.42649 0
M  V30 6914 C 664.615 0.0230106 -2.32589 0
M  V30 6915 C 665.609 0.795585 -1.49555 0
M  V30 6916 O 666.815 0.70409 -1.65658 0
M  V30 6917 H 663.19 0.0262342 -0.751542 0
M  V30 6918 H 665.161 -0.753009 -2.88743 0
M  V30 6919 C 663.91 0.963872 -3.34073 0
M  V30 6920 H 663.233 0.378813 -3.98001 0
M  V30 6921 H 664.673 1.41755 -3.99602 0
M  V30 6922 C 663.132 2.06797 -2.65964 0
M  V30 6923 O 663.662 3.15383 -2.48789 0
M  V30 6924 N 661.868 1.83831 -2.25066 0
M  V30 6925 H 661.415 0.955235 -2.39234 0
M  V30 6926 H 661.373 2.57895 -1.79827 0
M  V30 6927 N 665.145 1.52092 -0.413018 0
M  V30 6928 C 666.394 2.01041 0.16287 0
M  V30 6929 C 666.707 1.30288 1.45892 0
M  V30 6930 O 667.913 1.70075 2.11629 0
M  V30 6931 C 666.369 3.58283 0.340806 0
M  V30 6932 C 665.977 4.37955 -0.943377 0
M  V30 6933 C 667.721 4.15452 0.871774 0
M  V30 6934 C 665.628 5.86847 -0.732417 0
M  V30 6935 H 664.558 0.751224 0.0646414 0
M  V30 6936 H 667.209 1.75404 -0.539059 0
M  V30 6937 H 665.591 3.80266 1.10516 0
M  V30 6938 H 666.765 4.2773 -1.71418 0
M  V30 6939 H 665.08 3.92122 -1.40105 0
M  V30 6940 H 667.677 5.24375 1.0457 0
M  V30 6941 H 668.02 3.73057 1.84755 0
M  V30 6942 H 668.553 3.97452 0.166377 0
M  V30 6943 H 665.292 6.33609 -1.67986 0
M  V30 6944 H 664.812 5.998 -0.000980058 0
M  V30 6945 H 666.491 6.45906 -0.376105 0
M  V30 6946 N 666.623 0.143563 1.56945 0
M  V30 6947 C 667.553 -0.7936 2.196 0
M  V30 6948 C 668.534 -1.25955 1.14321 0
M  V30 6949 O 669.719 -1.31773 1.42651 0
M  V30 6950 C 666.849 -2.03424 2.81489 0
M  V30 6951 C 665.803 -1.70519 3.92565 0
M  V30 6952 C 665.129 -3.01817 4.41373 0
M  V30 6953 C 666.429 -0.95449 5.13504 0
M  V30 6954 H 668.123 -0.271423 2.98167 0
M  V30 6955 H 665.669 -0.12911 1.4342 0
M  V30 6956 H 667.622 -2.69463 3.23987 0
M  V30 6957 H 666.346 -2.58008 2.00248 0
M  V30 6958 H 665.005 -1.06859 3.5068 0
M  V30 6959 H 664.653 -3.54386 3.56959 0
M  V30 6960 H 664.353 -2.80565 5.16292 0
M  V30 6961 H 665.877 -3.68934 4.86539 0
M  V30 6962 H 667.291 -1.5169 5.52868 0
M  V30 6963 H 665.688 -0.842035 5.94163 0
M  V30 6964 H 666.758 0.0544033 4.84869 0
M  V30 6965 N 668.101 -1.57061 -0.130224 0
M  V30 6966 C 669.349 -1.83893 -0.838313 0
M  V30 6967 C 669.67 -0.727046 -1.80939 0
M  V30 6968 O 668.94 0.249927 -1.94299 0
M  V30 6969 H 667.52 -0.67846 -0.312573 0
M  V30 6970 H 670.182 -1.94529 -0.120224 0
M  V30 6971 H 669.278 -2.79419 -1.39038 0
M  V30 6972 N 669.579 0.400081 -1.52437 0
M  V30 6973 C 670.526 1.48803 -1.76426 0
M  V30 6974 C 671.496 1.5461 -0.607032 0
M  V30 6975 O 672.681 1.71041 -0.845563 0
M  V30 6976 C 669.821 2.86156 -1.92896 0
M  V30 6977 C 668.934 2.89587 -3.20567 0
M  V30 6978 C 668.069 4.18296 -3.27417 0
M  V30 6979 C 667.108 4.15736 -4.49255 0
M  V30 6980 N 666.245 5.36032 -4.53447 0
M  V30 6981 H 671.085 1.27649 -2.69276 0
M  V30 6982 H 668.622 0.619451 -1.33421 0
M  V30 6983 H 670.58 3.65901 -2.00429 0
M  V30 6984 H 669.21 3.05785 -1.03418 0
M  V30 6985 H 668.262 2.02278 -3.22161 0
M  V30 6986 H 669.574 2.83562 -4.10358 0
M  V30 6987 H 668.728 5.06439 -3.34072 0
M  V30 6988 H 667.467 4.27028 -2.35581 0
M  V30 6989 H 666.472 3.25982 -4.42737 0
M  V30 6990 H 667.697 4.08636 -5.42396 0
M  V30 6991 H 665.643 5.45415 -3.64498 0
M  V30 6992 H 665.56 5.32038 -5.37096 0
M  V30 6993 H 666.828 6.26104 -4.64343 0
M  V30 6994 N 671.057 1.43213 0.657864 0
M  V30 6995 C 672.305 1.44298 1.41501 0
M  V30 6996 C 672.626 0.0666478 1.94886 0
M  V30 6997 O 671.896 -0.897345 1.74139 0
M  V30 6998 H 670.476 0.531257 0.525143 0
M  V30 6999 H 673.138 1.78777 0.776195 0
M  V30 7000 H 672.234 2.1528 2.25966 0
M  V30 7001 N 672.536 -0.895792 1.29666 0
M  V30 7002 C 673.783 -1.64664 1.17864 0
M  V30 7003 C 674.111 -1.92631 -0.26902 0
M  V30 7004 O 673.366 -1.53787 -1.21029 0
M  V30 7005 C 673.665 -3.00075 1.94139 0
M  V30 7006 C 673.331 -2.91702 3.43833 0
M  V30 7007 C 671.993 -2.89126 3.84656 0
M  V30 7008 C 674.345 -2.80622 4.39205 0
M  V30 7009 C 671.673 -2.73293 5.1916 0
M  V30 7010 C 674.025 -2.66329 5.73805 0
M  V30 7011 C 672.689 -2.62121 6.1388 0
M  V30 7012 H 671.959 -0.602549 0.431295 0
M  V30 7013 H 674.606 -1.04234 1.60648 0
M  V30 7014 H 672.911 -3.64394 1.43958 0
M  V30 7015 H 674.608 -3.57111 1.82408 0
M  V30 7016 H 671.198 -2.94511 3.11386 0
M  V30 7017 H 675.382 -2.81686 4.08615 0
M  V30 7018 H 670.638 -2.68443 5.49316 0
M  V30 7019 H 674.812 -2.56727 6.47352 0
M  V30 7020 H 672.439 -2.49611 7.18052 0
M  V30 7021 N 674.014 -1.12206 -1.10668 0
M  V30 7022 C 675.261 -0.875875 -1.82578 0
M  V30 7023 C 675.589 0.598342 -1.85068 0
M  V30 7024 O 674.844 1.45818 -1.3052 0
M  V30 7025 C 675.143 -1.39276 -3.29146 0
M  V30 7026 C 674.809 -2.8816 -3.46806 0
M  V30 7027 C 673.471 -3.28813 -3.51334 0
M  V30 7028 C 675.823 -3.8401 -3.52399 0
M  V30 7029 C 673.151 -4.64028 -3.59019 0
M  V30 7030 C 675.503 -5.19053 -3.61617 0
M  V30 7031 C 674.167 -5.59252 -3.64408 0
M  V30 7032 H 673.437 -0.320505 -0.6681 0
M  V30 7033 H 676.084 -1.40184 -1.30464 0
M  V30 7034 H 674.389 -0.787207 -3.8381 0
M  V30 7035 H 676.086 -1.17851 -3.83291 0
M  V30 7036 H 672.676 -2.55716 -3.43958 0
M  V30 7037 H 676.86 -3.53698 -3.48154 0
M  V30 7038 H 672.116 -4.94568 -3.59461 0
M  V30 7039 H 676.29 -5.93152 -3.64889 0
M  V30 7040 H 673.917 -6.64017 -3.70116 0
M  V30 7041 N 675.492 1.28418 -0.913599 0
M  V30 7042 C 676.455 2.25564 -0.406624 0
M  V30 7043 C 677.455 1.5387 0.466965 0
M  V30 7044 O 678.645 1.72094 0.270042 0
M  V30 7045 C 675.777 3.38339 0.417053 0
M  V30 7046 H 676.97 2.71926 -1.26477 0
M  V30 7047 H 674.523 1.40098 -0.692986 0
M  V30 7048 H 675.258 2.97339 1.29461 0
M  V30 7049 H 675.043 3.91542 -0.209102 0
M  V30 7050 H 676.533 4.10578 0.762602 0
M  V30 7051 N 676.97 0.677563 1.42291 0
M  V30 7052 C 677.933 0.0101085 2.29198 0
M  V30 7053 C 678.933 -0.726219 1.43467 0
M  V30 7054 O 680.123 -0.563807 1.64824 0
M  V30 7055 C 677.255 -0.996316 3.26016 0
M  V30 7056 H 678.448 0.775071 2.89711 0
M  V30 7057 H 676.001 0.440065 1.49977 0
M  V30 7058 H 676.736 -1.78967 2.70446 0
M  V30 7059 H 676.521 -0.471687 3.89253 0
M  V30 7060 H 678.011 -1.46167 3.91184 0
M  V30 7061 N 678.448 -1.51871 0.421078 0
M  V30 7062 C 679.678 -2.06057 -0.149723 0
M  V30 7063 C 680.086 -1.29002 -1.38402 0
M  V30 7064 O 679.429 -0.338385 -1.80556 0
M  V30 7065 C 679.491 -3.55216 -0.553339 0
M  V30 7066 C 679.155 -4.53408 0.571879 0
M  V30 7067 C 680.152 -4.99586 1.4391 0
M  V30 7068 C 677.837 -4.967 0.747979 0
M  V30 7069 C 679.831 -5.87711 2.46727 0
M  V30 7070 C 677.518 -5.84619 1.77944 0
M  V30 7071 C 678.516 -6.30021 2.63748 0
M  V30 7072 O 678.204 -7.16197 3.65126 0
M  V30 7073 H 677.936 -0.675744 -0.0186102 0
M  V30 7074 H 680.49 -1.96618 0.594166 0
M  V30 7075 H 678.72 -3.62381 -1.34969 0
M  V30 7076 H 680.409 -3.91992 -1.05342 0
M  V30 7077 H 681.175 -4.66846 1.31451 0
M  V30 7078 H 677.054 -4.60913 0.0897357 0
M  V30 7079 H 680.598 -6.2307 3.13734 0
M  V30 7080 H 676.495 -6.16771 1.90429 0
M  V30 7081 H 677.263 -7.34337 3.61512 0
M  V30 7082 N 679.926 -0.151884 -1.56866 0
M  V30 7083 C 680.836 0.798876 -2.20579 0
M  V30 7084 C 681.852 1.268 -1.19154 0
M  V30 7085 O 683.028 1.32418 -1.51748 0
M  V30 7086 C 680.093 2.01861 -2.81874 0
M  V30 7087 C 679.154 1.59825 -3.9844 0
M  V30 7088 C 678.387 2.75984 -4.56802 0
M  V30 7089 O 678.61 3.92331 -4.14044 0
M  V30 7090 O 677.544 2.51175 -5.46987 0
M  V30 7091 H 681.37 0.2865 -3.02346 0
M  V30 7092 H 678.955 0.0753806 -1.4921 0
M  V30 7093 H 680.837 2.73235 -3.20813 0
M  V30 7094 H 679.512 2.52042 -2.03117 0
M  V30 7095 H 678.419 0.854601 -3.64208 0
M  V30 7096 H 679.752 1.14355 -4.78731 0
M  V30 7097 N 681.404 1.57128 0.121893 0
M  V30 7098 C 682.367 1.99197 1.13372 0
M  V30 7099 C 683.367 0.881728 1.3447 0
M  V30 7100 O 684.557 1.14783 1.31036 0
M  V30 7101 C 681.689 2.32963 2.4888 0
M  V30 7102 H 682.882 2.89788 0.772204 0
M  V30 7103 H 680.435 1.51952 0.366093 0
M  V30 7104 H 681.17 1.45243 2.89957 0
M  V30 7105 H 680.955 3.13934 2.34921 0
M  V30 7106 H 682.445 2.66261 3.21706 0
M  V30 7107 N 682.882 -0.391992 1.52647 0
M  V30 7108 C 684.11 -1.1586 1.71418 0
M  V30 7109 C 684.525 -1.8381 0.431216 0
M  V30 7110 O 683.882 -1.7256 -0.594085 0
M  V30 7111 C 683.933 -2.20888 2.86165 0
M  V30 7112 O 683.654 -1.5571 4.09495 0
M  V30 7113 C 685.155 -3.103 3.1659 0
M  V30 7114 H 682.375 -0.347494 0.574011 0
M  V30 7115 H 684.919 -0.458972 1.99283 0
M  V30 7116 H 683.074 -2.86492 2.6077 0
M  V30 7117 H 683.488 -2.25474 4.73563 0
M  V30 7118 H 684.962 -3.8003 4.00351 0
M  V30 7119 H 685.439 -3.73639 2.30848 0
M  V30 7120 H 686.045 -2.50345 3.43813 0
M  V30 7121 N 684.36 -1.4356 -0.65026 0
M  V30 7122 C 685.6 -1.46839 -1.42188 0
M  V30 7123 C 685.964 -0.0911433 -1.91784 0
M  V30 7124 O 687.165 0.00137545 -2.688 0
M  V30 7125 C 685.436 -2.48411 -2.56957 0
M  V30 7126 S 686.995 -2.70589 -3.45438 0
M  V30 7127 H 683.813 -0.519596 -0.485325 0
M  V30 7128 H 686.415 -1.80347 -0.75466 0
M  V30 7129 H 685.119 -3.47209 -2.18801 0
M  V30 7130 H 684.65 -2.16411 -3.28527 0
M  V30 7131 H 686.665 -2.00738 -4.53782 0
M  V30 7132 N 685.838 0.888903 -1.30139 0
M  V30 7133 C 687.086 1.63713 -1.18501 0
M  V30 7134 C 687.407 1.9324 0.261399 0
M  V30 7135 O 686.677 1.56608 1.17689 0
M  V30 7136 H 685.257 0.606861 -0.435579 0
M  V30 7137 H 687.919 1.06525 -1.63213 0
M  V30 7138 H 687.015 2.58894 -1.743 0
M  V30 7139 N 687.317 1.12792 1.10072 0
M  V30 7140 C 688.565 0.883796 1.81751 0
M  V30 7141 C 688.886 -0.591891 1.858 0
M  V30 7142 O 688.156 -1.43017 1.33876 0
M  V30 7143 H 686.736 0.323978 0.673088 0
M  V30 7144 H 689.398 1.42314 1.33164 0
M  V30 7145 H 688.494 1.26863 2.85153 0
M  V30 7146 N 688.795 -1.27931 0.920396 0
M  V30 7147 C 690.072 -1.89728 0.475687 0
M  V30 7148 C 690.452 -1.8337 -1.04588 0
M  V30 7149 O 689.8 -1.27404 -1.89685 0
M  V30 7150 C 690.01 -3.33959 1.01354 0
M  V30 7151 C 691.358 -4.10907 1.06963 0
M  V30 7152 O 692.382 -3.42945 0.962646 0
M  V30 7153 O 691.241 -5.32399 1.23343 0
M  V30 7154 H 688.335 -0.81294 0.151845 0
M  V30 7155 H 690.881 -1.36252 1.01161 0
M  V30 7156 H 689.653 -3.32843 2.05746 0
M  V30 7157 H 689.276 -3.94944 0.458829 0
M  V30 7158 N 690.273 -0.685099 -1.4193 0
M  V30 7159 C 691.206 0.0371639 -2.2817 0
M  V30 7160 C 692.184 0.798436 -1.41647 0
M  V30 7161 O 693.368 0.791428 -1.71081 0
M  V30 7162 C 690.495 1.05993 -3.21688 0
M  V30 7163 C 689.541 0.393043 -4.24685 0
M  V30 7164 S 690.374 -0.856921 -5.28599 0
M  V30 7165 C 691.53 0.164508 -6.25684 0
M  V30 7166 H 691.763 -0.694305 -2.89079 0
M  V30 7167 H 689.296 -0.474999 -1.46912 0
M  V30 7168 H 691.254 1.64489 -3.76103 0
M  V30 7169 H 689.915 1.7639 -2.59895 0
M  V30 7170 H 689.108 1.16513 -4.90348 0
M  V30 7171 H 688.71 -0.118589 -3.73812 0
M  V30 7172 H 691.002 1.02106 -6.69762 0
M  V30 7173 H 691.945 -0.457917 -7.06618 0
M  V30 7174 H 692.353 0.514596 -5.6215 0
M  V30 7175 N 691.751 1.51645 -0.429126 0
M  V30 7176 C 692.699 2.29119 0.400921 0
M  V30 7177 C 693.693 1.34628 1.02819 0
M  V30 7178 O 694.899 1.52004 0.964098 0
M  V30 7179 H 691.274 0.737273 0.148095 0
M  V30 7180 H 693.245 2.97144 -0.273457 0
M  V30 7181 C 691.994 3.13953 1.49429 0
M  V30 7182 H 691.317 3.86544 1.02097 0
M  V30 7183 H 692.757 3.71232 2.04849 0
M  V30 7184 C 691.216 2.28796 2.47293 0
M  V30 7185 O 691.746 1.94193 3.51642 0
M  V30 7186 N 689.952 1.92177 2.17982 0
M  V30 7187 H 689.499 2.20517 1.33154 0
M  V30 7188 H 689.457 1.35497 2.83704 0
M  V30 7189 N 693.229 0.160201 1.56784 0
M  V30 7190 C 694.176 -0.774416 2.1742 0
M  V30 7191 C 695.146 -1.23483 1.11091 0
M  V30 7192 O 696.331 -1.30499 1.39193 0
M  V30 7193 C 693.471 -2.00283 2.81035 0
M  V30 7194 C 692.584 -1.58701 4.01793 0
M  V30 7195 C 691.719 -2.76824 4.53367 0
M  V30 7196 C 690.758 -2.31679 5.66561 0
M  V30 7197 N 689.895 -3.42856 6.12694 0
M  V30 7198 H 694.735 -0.250542 2.96945 0
M  V30 7199 H 692.272 -0.111943 1.46673 0
M  V30 7200 H 694.23 -2.72316 3.16069 0
M  V30 7201 H 692.86 -2.5006 2.04132 0
M  V30 7202 H 691.912 -0.76384 3.72652 0
M  V30 7203 H 693.224 -1.21555 4.83762 0
M  V30 7204 H 692.378 -3.57029 4.90525 0
M  V30 7205 H 691.117 -3.17223 3.70433 0
M  V30 7206 H 690.122 -1.49917 5.28966 0
M  V30 7207 H 691.347 -1.9235 6.5129 0
M  V30 7208 H 689.293 -3.82852 5.32692 0
M  V30 7209 H 689.21 -3.09767 6.89624 0
M  V30 7210 H 690.478 -4.23379 6.545 0
M  V30 7211 N 694.707 -1.5719 -0.113559 0
M  V30 7212 C 695.984 -1.76117 -0.850999 0
M  V30 7213 C 696.364 -0.737085 -1.97814 0
M  V30 7214 O 695.712 0.237942 -2.27258 0
M  V30 7215 C 695.922 -3.21298 -1.36266 0
M  V30 7216 C 697.27 -3.83955 -1.81283 0
M  V30 7217 O 698.294 -3.24934 -1.45933 0
M  V30 7218 O 697.153 -4.87707 -2.46585 0
M  V30 7219 H 694.247 -0.721308 -0.404529 0
M  V30 7220 H 696.793 -1.69423 -0.0968756 0
M  V30 7221 H 695.565 -3.87355 -0.554235 0
M  V30 7222 H 695.188 -3.32552 -2.17933 0
M  V30 7223 N 696.185 0.383891 -1.52853 0
M  V30 7224 C 697.148 1.45197 -1.77343 0
M  V30 7225 C 698.148 1.47362 -0.643522 0
M  V30 7226 O 699.338 1.48443 -0.911613 0
M  V30 7227 C 696.47 2.8445 -1.87885 0
M  V30 7228 H 697.663 1.24764 -2.72716 0
M  V30 7229 H 695.216 0.615939 -1.43652 0
M  V30 7230 H 695.951 3.10222 -0.94515 0
M  V30 7231 H 695.736 2.8428 -2.70051 0
M  V30 7232 H 697.226 3.61832 -2.08488 0
M  V30 7233 N 697.663 1.43903 0.642637 0
M  V30 7234 C 698.911 1.45791 1.39962 0
M  V30 7235 C 699.232 0.0873144 1.94804 0
M  V30 7236 O 698.502 -0.878825 1.75081 0
M  V30 7237 H 697.082 0.536797 0.519479 0
M  V30 7238 H 699.744 1.7959 0.757189 0
M  V30 7239 H 698.84 2.17665 2.2367 0
M  V30 7240 N 699.141 -0.881989 1.30609 0
M  V30 7241 C 700.073 -1.99375 1.13058 0
M  V30 7242 C 701.086 -1.62636 0.0729879 0
M  V30 7243 O 702.275 -1.75621 0.319301 0
M  V30 7244 C 699.375 -3.31536 0.702651 0
M  V30 7245 C 698.548 -3.96693 1.84265 0
M  V30 7246 C 697.607 -5.07158 1.40277 0
M  V30 7247 O 696.633 -5.28628 2.11048 0
M  V30 7248 N 697.835 -5.79808 0.283449 0
M  V30 7249 H 700.6 -2.14981 2.08814 0
M  V30 7250 H 698.161 -1.05526 1.22784 0
M  V30 7251 H 700.153 -4.02804 0.391331 0
M  V30 7252 H 698.723 -3.12175 -0.162954 0
M  V30 7253 H 697.943 -3.1856 2.32192 0
M  V30 7254 H 699.231 -4.36964 2.60653 0
M  V30 7255 H 698.629 -5.64871 -0.306189 0
M  V30 7256 H 697.186 -6.51792 0.0315985 0
M  V30 7257 N 700.619 -1.13374 -1.09472 0
M  V30 7258 C 701.868 -0.889844 -1.8101 0
M  V30 7259 C 702.181 0.585686 -1.86625 0
M  V30 7260 O 703.387 0.946497 -2.54467 0
M  V30 7261 C 701.843 -1.54241 -3.25174 0
M  V30 7262 C 701.451 -3.05343 -3.27826 0
M  V30 7263 C 703.195 -1.37919 -4.0147 0
M  V30 7264 C 701.102 -3.63486 -4.6651 0
M  V30 7265 H 700.032 -0.329256 -0.678311 0
M  V30 7266 H 702.683 -1.36139 -1.23038 0
M  V30 7267 H 701.065 -0.998525 -3.83204 0
M  V30 7268 H 702.239 -3.66307 -2.79563 0
M  V30 7269 H 700.554 -3.21175 -2.65019 0
M  V30 7270 H 703.151 -1.78771 -5.03929 0
M  V30 7271 H 703.494 -0.323987 -4.15037 0
M  V30 7272 H 704.027 -1.89284 -3.49881 0
M  V30 7273 H 700.766 -4.68811 -4.58145 0
M  V30 7274 H 700.286 -3.073 -5.15099 0
M  V30 7275 H 701.965 -3.63134 -5.35484 0
M  V30 7276 N 702.098 1.27442 -0.927168 0
M  V30 7277 C 703.03 2.25975 -0.383158 0
M  V30 7278 C 704.043 1.55382 0.485832 0
M  V30 7279 O 705.232 1.75986 0.298541 0
M  V30 7280 C 702.332 3.35629 0.469688 0
M  V30 7281 C 701.505 4.35747 -0.379886 0
M  V30 7282 C 700.564 5.24598 0.410227 0
M  V30 7283 O 699.59 5.68909 -0.181888 0
M  V30 7284 N 700.792 5.54737 1.71017 0
M  V30 7285 H 703.557 2.7329 -1.23015 0
M  V30 7286 H 701.118 1.41063 -0.794539 0
M  V30 7287 H 703.11 3.92015 1.00532 0
M  V30 7288 H 701.68 2.87919 1.21744 0
M  V30 7289 H 700.9 3.78634 -1.09682 0
M  V30 7290 H 702.188 4.99648 -0.960717 0
M  V30 7291 H 701.586 5.20594 2.21356 0
M  V30 7292 H 700.143 6.13824 2.19234 0
M  V30 7293 N 703.576 0.692616 1.41565 0
M  V30 7294 C 704.801 0.229776 2.06123 0
M  V30 7295 C 705.226 -1.11119 1.5177 0
M  V30 7296 O 704.584 -1.69498 0.643444 0
M  V30 7297 C 704.632 0.19469 3.60074 0
M  V30 7298 O 703.736 -0.831366 4.03933 0
M  V30 7299 H 703.077 0.113002 0.654314 0
M  V30 7300 H 705.607 0.946645 1.81383 0
M  V30 7301 H 705.617 0.0245487 4.07993 0
M  V30 7302 H 704.292 1.17339 3.99004 0
M  V30 7303 H 702.869 -0.630819 3.67526 0
M  V30 7304 N 705.054 -1.51416 0.437162 0
M  V30 7305 C 706.465 -1.86682 -0.0260005 0
M  V30 7306 C 706.816 -1.35432 -1.4196 0
M  V30 7307 O 705.941 -0.705055 -2.04592 0
M  V30 7308 C 706.536 -3.38757 -0.0539577 0
M  V30 7309 C 705.095 -3.7356 -0.461532 0
M  V30 7310 C 704.242 -2.75134 0.345924 0
M  V30 7311 H 707.193 -1.44642 0.653013 0
M  V30 7312 H 707.214 -3.70573 -0.863478 0
M  V30 7313 H 706.726 -3.76028 0.96045 0
M  V30 7314 H 704.827 -3.41878 -1.48155 0
M  V30 7315 H 704.94 -4.78737 -0.186451 0
M  V30 7316 H 703.304 -2.53947 -0.195739 0
M  V30 7317 H 704.087 -3.15247 1.35921 0
M  V30 7318 N 706.532 -0.168513 -1.56696 0
M  V30 7319 C 707.48 0.779791 -2.19139 0
M  V30 7320 C 708.474 1.23957 -1.1546 0
M  V30 7321 O 709.68 1.20555 -1.33666 0
M  V30 7322 H 706.055 0.269739 -0.701958 0
M  V30 7323 H 708.026 0.229156 -2.97519 0
M  V30 7324 C 706.775 2.00003 -2.84419 0
M  V30 7325 H 706.098 1.65527 -3.63924 0
M  V30 7326 H 707.538 2.64251 -3.31583 0
M  V30 7327 C 705.997 2.82187 -1.84044 0
M  V30 7328 O 706.527 3.79247 -1.32418 0
M  V30 7329 N 704.733 2.47145 -1.52864 0
M  V30 7330 H 704.28 1.68277 -1.9504 0
M  V30 7331 H 704.238 3.02422 -0.859569 0
M  V30 7332 N 708.01 1.57248 0.105221 0
M  V30 7333 C 709.24 1.89492 0.823175 0
M  V30 7334 C 709.648 0.75934 1.73294 0
M  V30 7335 O 708.991 -0.278182 1.81581 0
M  V30 7336 C 709.053 3.16891 1.69765 0
M  V30 7337 C 708.717 4.46787 0.960769 0
M  V30 7338 C 709.714 5.19061 0.295218 0
M  V30 7339 C 707.399 4.93467 0.937854 0
M  V30 7340 C 709.393 6.36246 -0.383393 0
M  V30 7341 C 707.08 6.10566 0.255452 0
M  V30 7342 C 708.078 6.81804 -0.404003 0
M  V30 7343 O 707.766 7.96673 -1.07549 0
M  V30 7344 H 707.498 0.631512 0.24118 0
M  V30 7345 H 710.052 2.05203 0.0899655 0
M  V30 7346 H 708.282 2.973 2.47285 0
M  V30 7347 H 709.971 3.35046 2.29126 0
M  V30 7348 H 710.737 4.84044 0.304448 0
M  V30 7349 H 706.616 4.37913 1.44058 0
M  V30 7350 H 710.16 6.91787 -0.898696 0
M  V30 7351 H 706.057 6.45039 0.244032 0
M  V30 7352 H 706.825 8.12596 -0.981355 0
M  V30 7353 N 709.488 -0.375779 1.53054 0
M  V30 7354 C 710.899 -0.95309 1.6054 0
M  V30 7355 C 711.25 -1.90575 0.466446 0
M  V30 7356 O 710.375 -2.12507 -0.408609 0
M  V30 7357 C 710.97 -1.73537 2.90982 0
M  V30 7358 C 709.529 -2.26218 3.00836 0
M  V30 7359 C 708.676 -1.07157 2.55759 0
M  V30 7360 H 711.627 -0.154895 1.57942 0
M  V30 7361 H 711.648 -2.59574 2.78211 0
M  V30 7362 H 711.16 -1.04176 3.73857 0
M  V30 7363 H 709.261 -2.98852 2.22527 0
M  V30 7364 H 709.374 -2.54799 4.05727 0
M  V30 7365 H 707.738 -1.43553 2.10391 0
M  V30 7366 H 708.521 -0.393099 3.41042 0
M  V30 7367 N 710.966 -1.44241 -0.634997 0
M  V30 7368 C 712.243 -1.37296 -1.39317 0
M  V30 7369 C 712.623 -0.0297532 -2.11079 0
M  V30 7370 O 711.971 0.987524 -2.06059 0
M  V30 7371 C 712.181 -2.56853 -2.36279 0
M  V30 7372 C 713.529 -3.00747 -2.99728 0
M  V30 7373 O 714.553 -2.5703 -2.46605 0
M  V30 7374 O 713.412 -3.76533 -3.96087 0
M  V30 7375 H 710.506 -0.543503 -0.623325 0
M  V30 7376 H 713.052 -1.56324 -0.660376 0
M  V30 7377 H 711.824 -3.46228 -1.82324 0
M  V30 7378 H 711.447 -2.40019 -3.16981 0
M  V30 7379 N 712.444 0.87505 -1.31075 0
M  V30 7380 C 713.721 1.60976 -1.11113 0
M  V30 7381 C 714.101 2.08409 0.336006 0
M  V30 7382 O 713.449 1.85858 1.32924 0
M  V30 7383 C 713.659 2.77166 -2.12085 0
M  V30 7384 C 715.007 3.47254 -2.44335 0
M  V30 7385 O 716.031 2.87367 -2.10472 0
M  V30 7386 O 714.89 4.55276 -3.02301 0
M  V30 7387 H 711.984 0.707982 -0.427424 0
M  V30 7388 H 714.53 0.920957 -1.42536 0
M  V30 7389 H 713.302 2.39494 -3.09449 0
M  V30 7390 H 712.925 3.53737 -1.81538 0
M  V30 7391 N 713.922 1.13953 1.08869 0
M  V30 7392 C 715.152 0.926825 1.84644 0
M  V30 7393 C 715.56 -0.527941 1.81685 0
M  V30 7394 O 714.903 -1.37742 1.21543 0
M  V30 7395 C 714.965 1.34416 3.33426 0
M  V30 7396 C 714.629 2.81351 3.60126 0
M  V30 7397 C 715.626 3.79486 3.55368 0
M  V30 7398 C 713.311 3.1865 3.88288 0
M  V30 7399 C 715.305 5.1293 3.78393 0
M  V30 7400 C 712.992 4.5227 4.10968 0
M  V30 7401 C 713.99 5.4922 4.06013 0
M  V30 7402 O 713.678 6.80429 4.28102 0
M  V30 7403 H 713.41 0.33013 0.589907 0
M  V30 7404 H 715.964 1.51738 1.38436 0
M  V30 7405 H 714.194 0.696901 3.80368 0
M  V30 7406 H 715.883 1.10302 3.90626 0
M  V30 7407 H 716.649 3.52017 3.3363 0
M  V30 7408 H 712.528 2.43785 3.91267 0
M  V30 7409 H 716.072 5.88591 3.74442 0
M  V30 7410 H 711.969 4.79462 4.32188 0
M  V30 7411 H 712.737 6.86617 4.45533 0
M  V30 7412 N 715.4 -1.26948 0.933913 0
M  V30 7413 C 716.816 -1.46419 0.635103 0
M  V30 7414 C 717.016 -1.84336 -0.813785 0
M  V30 7415 O 716.072 -1.96061 -1.59111 0
M  V30 7416 C 717.385 -2.55206 1.5903 0
M  V30 7417 C 718.933 -2.69062 1.5992 0
M  V30 7418 C 719.408 -3.81013 2.54152 0
M  V30 7419 N 720.899 -3.88395 2.52395 0
M  V30 7420 C 721.634 -4.74454 3.21996 0
M  V30 7421 N 721.13 -5.64954 4.00997 0
M  V30 7422 N 722.923 -4.68237 3.10983 0
M  V30 7423 H 715.074 -1.00622 1.87053 0
M  V30 7424 H 717.337 -0.503189 0.803433 0
M  V30 7425 H 717.043 -2.34153 2.62422 0
M  V30 7426 H 716.917 -3.52719 1.33677 0
M  V30 7427 H 719.304 -2.89492 0.572569 0
M  V30 7428 H 719.385 -1.72016 1.89325 0
M  V30 7429 H 719.029 -3.61336 3.5693 0
M  V30 7430 H 718.959 -4.77499 2.22041 0
M  V30 7431 H 721.45 -3.23687 1.95025 0
M  V30 7432 H 721.763 -6.27496 4.51074 0
M  V30 7433 H 720.108 -5.6473 4.05099 0
M  V30 7434 H 723.299 -3.96535 2.48753 0
M  V30 7435 H 723.472 -5.35087 3.65494 0
M  V30 7436 N 716.879 -0.700114 -1.41195 0
M  V30 7437 C 718.29 -0.307249 -1.84154 0
M  V30 7438 C 718.641 1.15539 -1.58572 0
M  V30 7439 O 717.766 1.88744 -1.05852 0
M  V30 7440 C 718.361 -0.550872 -3.34292 0
M  V30 7441 C 716.92 -0.211877 -3.75803 0
M  V30 7442 C 716.067 -0.830915 -2.64558 0
M  V30 7443 H 719.018 -0.900431 -1.30683 0
M  V30 7444 H 719.039 0.188954 -3.80031 0
M  V30 7445 H 718.551 -1.61548 -3.5288 0
M  V30 7446 H 716.652 0.848283 -3.62815 0
M  V30 7447 H 716.765 -0.67007 -4.74391 0
M  V30 7448 H 715.129 -0.260155 -2.53368 0
M  V30 7449 H 715.912 -1.89948 -2.85963 0
M  V30 7450 N 718.357 1.51182 -0.445186 0
M  V30 7451 C 719.582 2.07056 0.119445 0
M  V30 7452 C 720.007 1.30966 1.35016 0
M  V30 7453 O 719.365 0.349827 1.77893 0
M  V30 7454 C 719.413 3.58234 0.412428 0
M  V30 7455 O 718.517 3.84249 1.49754 0
M  V30 7456 H 717.858 0.663998 -0.00157797 0
M  V30 7457 H 720.388 1.94699 -0.628779 0
M  V30 7458 H 720.398 4.02617 0.660583 0
M  V30 7459 H 719.073 4.13038 -0.487049 0
M  V30 7460 H 717.65 3.51724 1.23873 0
M  V30 7461 N 719.835 0.176821 1.56605 0
M  V30 7462 C 720.782 -0.751312 2.18229 0
M  V30 7463 C 721.752 -1.22297 1.12395 0
M  V30 7464 O 722.937 -1.29015 1.40569 0
M  V30 7465 C 720.077 -1.97291 2.83143 0
M  V30 7466 C 719.19 -1.54431 4.03454 0
M  V30 7467 C 718.325 -2.72 4.56278 0
M  V30 7468 C 717.364 -2.25657 5.68986 0
M  V30 7469 N 716.501 -3.36338 6.16296 0
M  V30 7470 H 721.341 -0.219033 2.97194 0
M  V30 7471 H 718.878 -0.0963803 1.46784 0
M  V30 7472 H 720.836 -2.68949 3.1894 0
M  V30 7473 H 719.466 -2.4788 2.06773 0
M  V30 7474 H 718.518 -0.724273 3.73441 0
M  V30 7475 H 719.83 -1.16417 4.85024 0
M  V30 7476 H 718.984 -3.51806 4.94285 0
M  V30 7477 H 717.723 -3.13277 3.73777 0
M  V30 7478 H 716.728 -1.44299 5.30526 0
M  V30 7479 H 717.953 -1.85432 6.53293 0
M  V30 7480 H 715.899 -3.7718 5.36723 0
M  V30 7481 H 715.816 -3.02435 6.9287 0
M  V30 7482 H 717.084 -4.16413 6.58954 0
M  V30 7483 N 721.313 -1.57302 -0.09688 0
M  V30 7484 C 722.223 -2.05258 -1.13606 0
M  V30 7485 C 723.239 -0.977137 -1.43972 0
M  V30 7486 O 724.415 -1.29018 -1.54649 0
M  V30 7487 C 721.48 -2.46593 -2.43706 0
M  V30 7488 C 720.541 -3.68322 -2.20538 0
M  V30 7489 C 719.774 -4.07676 -3.44435 0
M  V30 7490 O 719.997 -3.47141 -4.52603 0
M  V30 7491 O 718.931 -5.00641 -3.34129 0
M  V30 7492 H 722.757 -2.94069 -0.758752 0
M  V30 7493 H 720.342 -1.46164 -0.309263 0
M  V30 7494 H 722.224 -2.73814 -3.20318 0
M  V30 7495 H 720.899 -1.6092 -2.80867 0
M  V30 7496 H 719.806 -3.4622 -1.41713 0
M  V30 7497 H 721.139 -4.54769 -1.88271 0
M  V30 7498 N 722.791 0.367657 -1.53252 0
M  V30 7499 C 724.031 1.11923 -1.71034 0
M  V30 7500 C 724.395 1.86618 -0.45143 0
M  V30 7501 O 725.596 2.63996 -0.505915 0
M  V30 7502 C 723.867 2.05461 -2.92439 0
M  V30 7503 S 725.426 2.88167 -3.30916 0
M  V30 7504 H 722.244 0.378549 -0.601848 0
M  V30 7505 H 724.846 0.400757 -1.91348 0
M  V30 7506 H 723.55 1.49346 -3.82262 0
M  V30 7507 H 723.081 2.81784 -2.7452 0
M  V30 7508 H 725.096 4.07746 -2.82767 0
M  V30 7509 N 724.269 1.44576 0.627338 0
M  V30 7510 C 725.515 1.47777 1.38888 0
M  V30 7511 C 725.848 0.111406 1.9388 0
M  V30 7512 O 725.123 -0.87149 1.73883 0
M  V30 7513 C 725.406 2.54119 2.55138 0
M  V30 7514 C 725.259 4.00128 2.0547 0
M  V30 7515 C 726.578 2.56929 3.57317 0
M  V30 7516 H 723.697 0.538048 0.50366 0
M  V30 7517 H 726.339 1.76277 0.708978 0
M  V30 7518 H 724.489 2.29948 3.13139 0
M  V30 7519 H 726.161 4.35444 1.5227 0
M  V30 7520 H 724.404 4.11724 1.36623 0
M  V30 7521 H 725.075 4.7019 2.89181 0
M  V30 7522 H 727.551 2.78536 3.09122 0
M  V30 7523 H 726.427 3.33234 4.36173 0
M  V30 7524 H 726.688 1.6127 4.11636 0
M  V30 7525 N 725.747 -0.868086 1.31537 0
M  V30 7526 C 726.993 -1.62359 1.2252 0
M  V30 7527 C 727.348 -1.91204 -0.214169 0
M  V30 7528 O 726.641 -1.5339 -1.14813 0
M  V30 7529 C 726.835 -2.95889 2.0046 0
M  V30 7530 C 726.664 -2.80082 3.5183 0
M  V30 7531 C 725.434 -2.7917 4.21179 0
M  V30 7532 C 727.632 -2.54805 4.46743 0
M  V30 7533 N 725.614 -2.54433 5.58692 0
M  V30 7534 C 726.985 -2.39349 5.71937 0
M  V30 7535 C 729.04 -2.40165 4.36148 0
M  V30 7536 C 727.743 -2.1074 6.87736 0
M  V30 7537 C 729.769 -2.12945 5.51732 0
M  V30 7538 C 729.131 -1.98278 6.75918 0
M  V30 7539 H 725.23 -0.598381 0.503452 0
M  V30 7540 H 727.814 -1.02156 1.65748 0
M  V30 7541 H 725.985 -3.54095 1.59598 0
M  V30 7542 H 727.717 -3.60734 1.83447 0
M  V30 7543 H 724.472 -2.91621 3.73168 0
M  V30 7544 H 724.896 -2.45029 6.31102 0
M  V30 7545 H 729.538 -2.50231 3.408 0
M  V30 7546 H 727.256 -1.99412 7.8311 0
M  V30 7547 H 730.842 -2.02415 5.45454 0
M  V30 7548 H 729.722 -1.77514 7.63845 0
M  V30 7549 N 727.225 -1.14528 -1.08264 0
M  V30 7550 C 728.641 -0.885976 -1.3275 0
M  V30 7551 C 728.841 0.472096 -1.95892 0
M  V30 7552 O 727.897 1.21606 -2.21288 0
M  V30 7553 C 729.21 -2.01982 -2.22764 0
M  V30 7554 C 730.758 -2.05329 -2.36239 0
M  V30 7555 C 731.233 -3.1801 -3.29596 0
M  V30 7556 N 732.724 -3.17598 -3.37173 0
M  V30 7557 C 733.459 -4.01426 -4.09444 0
M  V30 7558 N 732.955 -4.95297 -4.8441 0
M  V30 7559 N 734.748 -3.89482 -4.0529 0
M  V30 7560 H 726.899 -2.01996 -0.656607 0
M  V30 7561 H 729.162 -0.880274 -0.351884 0
M  V30 7562 H 728.868 -2.99964 -1.83615 0
M  V30 7563 H 728.742 -1.94421 -3.23234 0
M  V30 7564 H 731.129 -1.07953 -2.74646 0
M  V30 7565 H 731.21 -2.1696 -1.35506 0
M  V30 7566 H 730.854 -4.15633 -2.9191 0
M  V30 7567 H 730.784 -3.03616 -4.30261 0
M  V30 7568 H 733.275 -2.4961 -2.83731 0
M  V30 7569 H 733.588 -5.55723 -5.37021 0
M  V30 7570 H 731.933 -4.99293 -4.83457 0
M  V30 7571 H 735.124 -3.15465 -3.45832 0
M  V30 7572 H 735.297 -4.55039 -4.6135 0
M  V30 7573 N 728.703 1.26451 -0.940633 0
M  V30 7574 C 729.952 1.93071 -0.583656 0
M  V30 7575 C 730.265 1.74618 0.881366 0
M  V30 7576 O 731.471 2.35689 1.34769 0
M  V30 7577 C 729.927 3.45927 -0.993106 0
M  V30 7578 C 729.535 3.73115 -2.4797 0
M  V30 7579 C 731.279 4.18554 -0.707998 0
M  V30 7580 C 729.186 5.19408 -2.82788 0
M  V30 7581 H 728.116 0.722824 -0.214572 0
M  V30 7582 H 730.767 1.43538 -1.1432 0
M  V30 7583 H 729.149 3.94341 -0.362099 0
M  V30 7584 H 730.323 3.35408 -3.15971 0
M  V30 7585 H 728.638 3.13719 -2.73805 0
M  V30 7586 H 731.235 5.26293 -0.94447 0
M  V30 7587 H 731.578 4.14782 0.355225 0
M  V30 7588 H 732.111 3.76003 -1.2987 0
M  V30 7589 H 728.85 5.28281 -3.88071 0
M  V30 7590 H 728.37 5.58214 -2.19449 0
M  V30 7591 H 730.049 5.87407 -2.71224 0
M  V30 7592 N 730.181 0.707592 1.40822 0
M  V30 7593 C 731.409 0.253073 2.05346 0
M  V30 7594 C 731.824 -1.10218 1.53289 0
M  V30 7595 O 731.181 -1.69112 0.686105 0
M  V30 7596 C 731.232 0.215411 3.60858 0
M  V30 7597 O 730.953 1.51714 4.10992 0
M  V30 7598 C 732.454 -0.258636 4.42545 0
M  V30 7599 H 729.674 0.115256 0.661027 0
M  V30 7600 H 732.218 0.963555 1.80377 0
M  V30 7601 H 730.373 -0.445978 3.84824 0
M  V30 7602 H 730.787 1.41226 5.05129 0
M  V30 7603 H 732.261 -0.233849 5.51504 0
M  V30 7604 H 732.738 -1.2995 4.19535 0
M  V30 7605 H 733.344 0.372186 4.23668 0
M  V30 7606 N 731.66 -1.50943 0.453197 0
M  V30 7607 C 732.906 -2.02512 -0.108082 0
M  V30 7608 C 733.239 -1.33574 -1.40967 0
M  V30 7609 O 732.514 -0.455671 -1.89087 0
M  V30 7610 C 732.797 -3.58759 -0.310453 0
M  V30 7611 C 732.65 -4.38293 1.0109 0
M  V30 7612 C 733.969 -4.26816 -1.07313 0
M  V30 7613 H 731.088 -0.73603 -0.0378064 0
M  V30 7614 H 733.73 -1.80433 0.595295 0
M  V30 7615 H 731.88 -3.77702 -0.909582 0
M  V30 7616 H 733.552 -4.30964 1.64523 0
M  V30 7617 H 731.795 -4.02745 1.61179 0
M  V30 7618 H 732.466 -5.45828 0.82315 0
M  V30 7619 H 734.942 -4.1224 -0.565473 0
M  V30 7620 H 733.818 -5.35989 -1.1835 0
M  V30 7621 H 734.079 -3.88757 -2.10525 0
M  V30 7622 N 733.138 -0.185124 -1.56509 0
M  V30 7623 C 734.363 0.465278 -2.02114 0
M  V30 7624 C 734.788 1.55083 -1.06447 0
M  V30 7625 O 734.146 1.81241 -0.0462852 0
M  V30 7626 C 734.194 1.00784 -3.46229 0
M  V30 7627 O 733.298 2.12123 -3.53663 0
M  V30 7628 H 732.639 0.109891 -0.654843 0
M  V30 7629 H 735.169 -0.293072 -2.0249 0
M  V30 7630 H 735.179 1.32697 -3.85818 0
M  V30 7631 H 733.854 0.213113 -4.15354 0
M  V30 7632 H 732.431 1.8115 -3.25943 0
M  V30 7633 N 734.616 1.57351 0.0885366 0
M  V30 7634 C 735.526 2.05858 1.12516 0
M  V30 7635 C 736.542 0.984758 1.43452 0
M  V30 7636 O 737.718 1.29836 1.53963 0
M  V30 7637 C 734.783 2.47882 2.42395 0
M  V30 7638 C 733.844 3.69487 2.18582 0
M  V30 7639 C 733.077 4.09497 3.42268 0
M  V30 7640 O 733.3 3.49536 4.50755 0
M  V30 7641 O 732.234 5.02406 3.31469 0
M  V30 7642 H 736.06 2.94467 0.743146 0
M  V30 7643 H 733.645 1.46326 0.301507 0
M  V30 7644 H 735.527 2.75509 3.18862 0
M  V30 7645 H 734.202 1.62408 2.8001 0
M  V30 7646 H 733.109 3.46967 1.39875 0
M  V30 7647 H 734.442 4.55761 1.85857 0
M  V30 7648 N 736.094 -0.359525 1.53444 0
M  V30 7649 C 737.342 -1.09935 1.69584 0
M  V30 7650 C 737.663 -1.89656 0.453371 0
M  V30 7651 O 736.933 -1.8852 -0.53263 0
M  V30 7652 H 735.513 -0.408843 0.625185 0
M  V30 7653 H 738.175 -0.40467 1.90653 0
M  V30 7654 H 737.271 -1.78575 2.55964 0
M  V30 7655 N 737.572 -1.44907 -0.619662 0
M  V30 7656 C 738.819 -1.48292 -1.37898 0
M  V30 7657 C 739.147 -0.119933 -1.9413 0
M  V30 7658 O 738.402 0.879834 -1.74807 0
M  V30 7659 C 738.701 -2.50002 -2.55409 0
M  V30 7660 C 738.367 -3.95031 -2.17397 0
M  V30 7661 C 737.029 -4.34524 -2.06743 0
M  V30 7662 C 739.381 -4.86287 -1.87548 0
M  V30 7663 C 736.709 -5.63183 -1.64445 0
M  V30 7664 C 739.061 -6.15346 -1.4674 0
M  V30 7665 C 737.725 -6.53781 -1.34636 0
M  V30 7666 H 736.995 -0.542638 -0.504603 0
M  V30 7667 H 739.642 -1.78186 -0.701581 0
M  V30 7668 H 737.947 -2.13634 -3.28433 0
M  V30 7669 H 739.644 -2.49864 -3.13639 0
M  V30 7670 H 736.234 -3.63793 -2.26611 0
M  V30 7671 H 740.418 -4.56522 -1.94682 0
M  V30 7672 H 735.674 -5.91769 -1.53687 0
M  V30 7673 H 739.848 -6.85508 -1.22685 0
M  V30 7674 H 737.475 -7.53375 -1.01634 0
M  V30 7675 N 739.05 0.861098 -1.31996 0
M  V30 7676 C 740 1.95703 -1.1698 0
M  V30 7677 C 740.984 1.60709 -0.0784201 0
M  V30 7678 O 742.176 1.74365 -0.304262 0
M  V30 7679 C 739.305 3.31606 -0.888388 0
M  V30 7680 C 738.391 3.7284 -2.02117 0
M  V30 7681 N 738.782 3.85957 -3.26911 0
M  V30 7682 C 737.08 4.02419 -1.92289 0
M  V30 7683 C 737.781 4.21333 -4.01065 0
M  V30 7684 N 736.757 4.32502 -3.29307 0
M  V30 7685 H 740.559 2.03968 -2.11599 0
M  V30 7686 H 738.073 1.05245 -1.23682 0
M  V30 7687 H 740.07 4.09881 -0.761782 0
M  V30 7688 H 738.73 3.24662 0.0494898 0
M  V30 7689 H 739.741 3.70449 -3.61923 0
M  V30 7690 H 736.418 4.03814 -1.06022 0
M  V30 7691 H 737.808 4.39005 -5.08649 0
M  V30 7692 N 740.528 1.15101 1.07655 0
M  V30 7693 C 741.774 0.925343 1.80458 0
M  V30 7694 C 742.107 -0.546354 1.86356 0
M  V30 7695 O 741.382 -1.40496 1.34503 0
M  V30 7696 C 741.665 1.53646 3.25676 0
M  V30 7697 C 741.518 3.07854 3.27942 0
M  V30 7698 C 742.837 1.21968 4.22861 0
M  V30 7699 H 739.956 0.337592 0.655134 0
M  V30 7700 H 742.598 1.42217 1.25993 0
M  V30 7701 H 740.748 1.11395 3.72187 0
M  V30 7702 H 742.42 3.58989 2.89697 0
M  V30 7703 H 740.663 3.41904 2.66991 0
M  V30 7704 H 741.334 3.45725 4.30324 0
M  V30 7705 H 743.81 1.5851 3.84726 0
M  V30 7706 H 742.686 1.67349 5.22767 0
M  V30 7707 H 742.947 0.136207 4.4189 0
M  V30 7708 N 742.006 -1.2595 0.947325 0
M  V30 7709 C 743.254 -1.93081 0.596996 0
M  V30 7710 C 743.575 -1.74632 -0.867672 0
M  V30 7711 O 742.845 -1.1056 -1.6172 0
M  V30 7712 H 741.425 -0.714542 0.217805 0
M  V30 7713 H 744.087 -1.53265 1.20398 0
M  V30 7714 H 743.183 -3.01134 0.82004 0
M  V30 7715 N 743.484 -0.715051 -1.40445 0
M  V30 7716 C 744.414 -0.0768699 -2.33373 0
M  V30 7717 C 745.395 0.746109 -1.52863 0
M  V30 7718 O 746.58 0.695142 -1.81332 0
M  V30 7719 C 743.71 0.846014 -3.36838 0
M  V30 7720 C 742.664 0.128694 -4.27806 0
M  V30 7721 C 741.99 1.16726 -5.21804 0
M  V30 7722 C 743.29 -1.01679 -5.12307 0
M  V30 7723 H 744.984 -0.853061 -2.8699 0
M  V30 7724 H 742.53 -0.41167 -1.3799 0
M  V30 7725 H 744.483 1.30185 -4.00786 0
M  V30 7726 H 743.207 1.6541 -2.81615 0
M  V30 7727 H 741.866 -0.307314 -3.6531 0
M  V30 7728 H 741.514 1.96838 -4.62887 0
M  V30 7729 H 741.214 0.692188 -5.83509 0
M  V30 7730 H 742.738 1.62321 -5.88629 0
M  V30 7731 H 744.152 -0.640337 -5.69713 0
M  V30 7732 H 742.549 -1.4202 -5.83053 0
M  V30 7733 H 743.619 -1.84769 -4.48317 0
M  V30 7734 N 744.962 1.50701 -0.461195 0
M  V30 7735 C 746.19 2.06681 0.0951756 0
M  V30 7736 C 746.605 1.32615 1.34382 0
M  V30 7737 O 745.962 0.392531 1.78229 0
M  V30 7738 C 746.013 3.59354 0.393316 0
M  V30 7739 O 745.734 4.30626 -0.805797 0
M  V30 7740 C 747.235 4.31926 0.997744 0
M  V30 7741 H 744.455 0.670995 -0.00267259 0
M  V30 7742 H 746.999 1.93991 -0.647137 0
M  V30 7743 H 745.154 3.7188 1.08555 0
M  V30 7744 H 745.568 5.21667 -0.544409 0
M  V30 7745 H 747.042 5.39756 1.15619 0
M  V30 7746 H 747.519 3.91772 1.98523 0
M  V30 7747 H 748.125 4.23905 0.344188 0
M  V30 7748 N 746.441 0.193421 1.56409 0
M  V30 7749 C 747.688 -0.445789 1.97532 0
M  V30 7750 C 748.016 -1.61744 1.08024 0
M  V30 7751 O 747.271 -1.95338 0.118982 0
M  V30 7752 C 747.57 -0.949718 3.44551 0
M  V30 7753 C 747.236 0.108383 4.5077 0
M  V30 7754 C 745.898 0.399126 4.79542 0
M  V30 7755 C 748.25 0.825423 5.14622 0
M  V30 7756 C 745.578 1.41192 5.69457 0
M  V30 7757 C 747.93 1.82735 6.05632 0
M  V30 7758 C 746.594 2.12531 6.32761 0
M  V30 7759 H 745.864 -0.163126 0.722822 0
M  V30 7760 H 748.511 0.290035 1.89291 0
M  V30 7761 H 746.816 -1.76378 3.49854 0
M  V30 7762 H 748.513 -1.45367 3.73724 0
M  V30 7763 H 745.103 -0.128392 4.28408 0
M  V30 7764 H 749.287 0.61403 4.92487 0
M  V30 7765 H 744.543 1.6487 5.88751 0
M  V30 7766 H 748.717 2.3882 6.5417 0
M  V30 7767 H 746.344 2.91155 7.02234 0
M  V30 7768 N 747.919 -1.57396 -0.0801906 0
M  V30 7769 C 748.851 -1.9982 -1.12271 0
M  V30 7770 C 749.864 -0.902902 -1.35468 0
M  V30 7771 O 751.053 -1.18088 -1.33856 0
M  V30 7772 C 748.153 -2.31476 -2.47532 0
M  V30 7773 C 747.326 -3.62745 -2.44407 0
M  V30 7774 C 746.385 -3.82168 -3.6171 0
M  V30 7775 O 745.411 -4.53852 -3.43522 0
M  V30 7776 N 746.613 -3.2388 -4.81749 0
M  V30 7777 H 749.378 -2.89864 -0.761501 0
M  V30 7778 H 746.939 -1.5965 -0.268965 0
M  V30 7779 H 748.931 -2.4165 -3.24634 0
M  V30 7780 H 747.501 -1.47364 -2.75686 0
M  V30 7781 H 746.721 -3.63403 -1.52747 0
M  V30 7782 H 748.009 -4.48954 -2.39412 0
M  V30 7783 H 747.407 -2.6568 -4.9943 0
M  V30 7784 H 745.964 -3.39515 -5.56392 0
M  V30 7785 N 749.397 0.351382 -1.53633 0
M  V30 7786 C 750.36 1.41403 -1.80383 0
M  V30 7787 C 751.36 1.45963 -0.674635 0
M  V30 7788 O 752.55 1.46476 -0.942895 0
M  V30 7789 C 749.682 2.80401 -1.93876 0
M  V30 7790 H 750.875 1.18951 -2.75301 0
M  V30 7791 H 748.428 0.58533 -1.44926 0
M  V30 7792 H 749.163 3.08147 -1.01074 0
M  V30 7793 H 748.948 2.78488 -2.7602 0
M  V30 7794 H 750.438 3.57329 -2.16116 0
M  V30 7795 N 750.875 1.45233 0.611969 0
M  V30 7796 C 752.122 1.49021 1.37109 0
M  V30 7797 C 752.45 0.130227 1.94064 0
M  V30 7798 O 751.705 -0.870551 1.75271 0
M  V30 7799 C 752.004 2.51353 2.54079 0
M  V30 7800 C 751.67 3.96178 2.15299 0
M  V30 7801 C 750.332 4.35614 2.04436 0
M  V30 7802 C 752.684 4.87275 1.84966 0
M  V30 7803 C 750.012 5.64047 1.61456 0
M  V30 7804 C 752.364 6.16115 1.43474 0
M  V30 7805 C 751.028 6.54486 1.31167 0
M  V30 7806 H 750.298 0.545307 0.501719 0
M  V30 7807 H 752.945 1.78555 0.692122 0
M  V30 7808 H 751.25 2.15372 3.27295 0
M  V30 7809 H 752.947 2.51523 3.12309 0
M  V30 7810 H 749.537 3.6499 2.24678 0
M  V30 7811 H 753.721 4.57548 1.92258 0
M  V30 7812 H 748.977 5.92575 1.50547 0
M  V30 7813 H 753.151 6.86149 1.19048 0
M  V30 7814 H 750.778 7.53904 0.97637 0
M  V30 7815 N 752.353 -0.854086 1.3245 0
M  V30 7816 C 753.263 -1.99503 1.23434 0
M  V30 7817 C 754.279 -1.73371 0.147828 0
M  V30 7818 O 755.455 -1.97998 0.368609 0
M  V30 7819 C 752.52 -3.33192 0.958328 0
M  V30 7820 C 751.581 -3.72542 2.13333 0
M  V30 7821 C 750.814 -4.99852 1.8704 0
M  V30 7822 O 751.037 -5.64573 0.813239 0
M  V30 7823 O 749.971 -5.36345 2.73161 0
M  V30 7824 H 753.797 -2.10046 2.1935 0
M  V30 7825 H 751.382 -0.984823 1.12346 0
M  V30 7826 H 753.264 -4.13327 0.820918 0
M  V30 7827 H 751.939 -3.23687 0.0293299 0
M  V30 7828 H 750.846 -2.92981 2.32622 0
M  V30 7829 H 752.179 -3.86694 3.04514 0
M  V30 7830 N 753.831 -1.1567 -1.07043 0
M  V30 7831 C 755.08 -0.928039 -1.79082 0
M  V30 7832 C 755.393 0.545968 -1.87826 0
M  V30 7833 O 756.599 0.892308 -2.56418 0
M  V30 7834 C 755.055 -1.61103 -3.21829 0
M  V30 7835 C 754.663 -3.12228 -3.21275 0
M  V30 7836 C 756.407 -1.46404 -3.98455 0
M  V30 7837 C 754.314 -3.733 -4.58695 0
M  V30 7838 H 753.244 -0.34357 -0.671175 0
M  V30 7839 H 755.895 -1.38718 -1.20123 0
M  V30 7840 H 754.277 -1.07958 -3.81 0
M  V30 7841 H 755.451 -3.72155 -2.71731 0
M  V30 7842 H 753.766 -3.26725 -2.58147 0
M  V30 7843 H 756.363 -1.8942 -5.00024 0
M  V30 7844 H 756.706 -0.41195 -4.14257 0
M  V30 7845 H 757.239 -1.96663 -3.45787 0
M  V30 7846 H 753.978 -4.78423 -4.48098 0
M  V30 7847 H 753.498 -3.18157 -5.08465 0
M  V30 7848 H 755.177 -3.7441 -5.27661 0
M  V30 7849 N 755.309 1.25446 -0.953992 0
M  V30 7850 C 756.219 2.29632 -0.480264 0
M  V30 7851 C 757.235 1.68025 0.452071 0
M  V30 7852 O 758.411 1.98703 0.328472 0
M  V30 7853 C 755.476 3.45903 0.234974 0
M  V30 7854 C 754.537 4.22953 -0.735495 0
M  V30 7855 C 753.77 5.33672 -0.0542957 0
M  V30 7856 O 753.993 5.58477 1.16018 0
M  V30 7857 O 752.927 5.9734 -0.739509 0
M  V30 7858 H 756.753 2.72242 -1.34602 0
M  V30 7859 H 754.338 1.30883 -0.720419 0
M  V30 7860 H 756.22 4.16552 0.637341 0
M  V30 7861 H 754.895 3.05296 1.07592 0
M  V30 7862 H 753.802 3.54734 -1.18806 0
M  V30 7863 H 755.135 4.67341 -1.54444 0
M  V30 7864 N 756.787 0.722489 1.40064 0
M  V30 7865 C 758.203 0.396758 1.5459 0
M  V30 7866 C 758.403 -1.09375 1.69232 0
M  V30 7867 O 757.459 -1.87984 1.68578 0
M  V30 7868 C 758.772 1.16885 2.77053 0
M  V30 7869 C 760.32 1.15583 2.90877 0
M  V30 7870 C 760.795 1.91023 4.16262 0
M  V30 7871 N 762.286 1.88126 4.23276 0
M  V30 7872 C 763.021 2.43315 5.19216 0
M  V30 7873 N 762.517 3.07089 6.21022 0
M  V30 7874 N 764.31 2.33418 5.11344 0
M  V30 7875 H 756.461 1.68887 1.28806 0
M  V30 7876 H 758.724 0.714231 0.62336 0
M  V30 7877 H 758.43 2.22301 2.72534 0
M  V30 7878 H 758.304 0.765011 3.69361 0
M  V30 7879 H 760.691 0.10984 2.94896 0
M  V30 7880 H 760.772 1.59895 1.99668 0
M  V30 7881 H 760.416 2.95616 4.13006 0
M  V30 7882 H 760.346 1.44126 5.06493 0
M  V30 7883 H 762.837 1.41654 3.50346 0
M  V30 7884 H 763.15 3.467 6.90666 0
M  V30 7885 H 761.495 3.11175 6.21446 0
M  V30 7886 H 764.686 1.83248 4.30741 0
M  V30 7887 H 764.859 2.7673 5.85939 0
M  V30 7888 N 758.265 -1.50454 0.469181 0
M  V30 7889 C 759.215 -2.25381 -0.344582 0
M  V30 7890 C 760.199 -1.28892 -0.963098 0
M  V30 7891 O 761.391 -1.53805 -0.875964 0
M  V30 7892 C 758.52 -3.12232 -1.4271 0
M  V30 7893 C 757.606 -4.16168 -0.816411 0
M  V30 7894 N 757.997 -5.05762 0.0621424 0
M  V30 7895 C 756.295 -4.32712 -1.08056 0
M  V30 7896 C 756.996 -5.80264 0.408519 0
M  V30 7897 N 755.972 -5.43171 -0.215827 0
M  V30 7898 H 759.774 -2.92016 0.332237 0
M  V30 7899 H 757.288 -1.59911 0.283209 0
M  V30 7900 H 759.285 -3.64514 -2.02324 0
M  V30 7901 H 757.945 -2.47145 -2.10593 0
M  V30 7902 H 758.956 -5.16105 0.430841 0
M  V30 7903 H 755.633 -3.78844 -1.75452 0
M  V30 7904 H 757.023 -6.62408 1.12539 0
M  V30 7905 N 759.743 -0.201713 -1.56304 0
M  V30 7906 C 761.02 0.483273 -1.89536 0
M  V30 7907 C 761.4 1.79176 -1.11621 0
M  V30 7908 O 760.748 2.27445 -0.219339 0
M  V30 7909 C 760.958 0.695604 -3.41998 0
M  V30 7910 C 762.306 1.012 -4.12364 0
M  V30 7911 O 763.33 0.783094 -3.47485 0
M  V30 7912 O 762.189 1.44534 -5.27041 0
M  V30 7913 H 759.283 0.252801 -0.787414 0
M  V30 7914 H 761.829 -0.24242 -1.6796 0
M  V30 7915 H 760.601 -0.228165 -3.90634 0
M  V30 7916 H 760.224 1.47351 -3.69288 0
M  V30 7917 N 761.222 1.57436 0.0718424 0
M  V30 7918 C 762.447 1.91858 0.787745 0
M  V30 7919 C 762.872 0.798119 1.70328 0
M  V30 7920 O 762.23 -0.24905 1.79581 0
M  V30 7921 C 762.278 3.25232 1.55744 0
M  V30 7922 O 761.382 3.14462 2.6681 0
M  V30 7923 H 760.723 0.628258 0.214914 0
M  V30 7924 H 763.253 2.04561 0.0401012 0
M  V30 7925 H 763.263 3.59105 1.9367 0
M  V30 7926 H 761.938 4.0636 0.885691 0
M  V30 7927 H 760.515 2.92148 2.31741 0
M  V30 7928 N 762.7 -0.34323 1.53817 0
M  V30 7929 C 763.94 -1.09188 1.72793 0
M  V30 7930 C 764.304 -1.85876 0.481062 0
M  V30 7931 O 765.505 -2.63158 0.547851 0
M  V30 7932 C 763.776 -2.00783 2.9567 0
M  V30 7933 S 765.335 -2.82866 3.35459 0
M  V30 7934 H 762.153 -0.368926 0.607795 0
M  V30 7935 H 764.755 -0.370265 1.91962 0
M  V30 7936 H 763.459 -1.43245 3.84589 0
M  V30 7937 H 762.99 -2.77381 2.78968 0
M  V30 7938 H 765.005 -4.03196 2.89218 0
M  V30 7939 N 764.178 -1.45556 -0.604258 0
M  V30 7940 C 765.141 -1.54091 -1.69672 0
M  V30 7941 C 766.141 -0.420076 -1.55216 0
M  V30 7942 O 767.331 -0.683671 -1.60224 0
M  V30 7943 C 764.463 -1.44063 -3.08964 0
M  V30 7944 H 765.656 -2.51431 -1.6347 0
M  V30 7945 H 763.209 -1.33046 -0.820273 0
M  V30 7946 H 763.944 -0.479201 -3.2074 0
M  V30 7947 H 763.729 -2.25362 -3.20865 0
M  V30 7948 H 765.219 -1.53075 -3.88533 0
M  V30 7949 N 765.656 0.84705 -1.32902 0
M  V30 7950 C 766.886 1.63166 -1.26729 0
M  V30 7951 C 767.294 1.88474 0.165595 0
M  V30 7952 O 766.637 1.45947 1.11558 0
M  V30 7953 C 766.699 3.0103 -1.96522 0
M  V30 7954 C 766.363 2.9873 -3.45846 0
M  V30 7955 C 767.36 2.75032 -4.41196 0
M  V30 7956 C 765.045 3.19125 -3.87898 0
M  V30 7957 C 767.039 2.71743 -5.76571 0
M  V30 7958 C 764.726 3.15462 -5.2338 0
M  V30 7959 C 765.724 2.91801 -6.17528 0
M  V30 7960 O 765.412 2.88027 -7.5053 0
M  V30 7961 H 765.144 0.51469 -0.438258 0
M  V30 7962 H 767.698 1.06383 -1.75704 0
M  V30 7963 H 765.928 3.59634 -1.42128 0
M  V30 7964 H 767.617 3.61821 -1.83958 0
M  V30 7965 H 768.383 2.59034 -4.10032 0
M  V30 7966 H 764.262 3.36565 -3.15032 0
M  V30 7967 H 767.806 2.53194 -6.5003 0
M  V30 7968 H 763.703 3.31006 -5.54171 0
M  V30 7969 H 764.471 3.03927 -7.59981 0
M  V30 7970 N 767.134 1.16236 1.06428 0
M  V30 7971 C 768.411 0.853294 1.76006 0
M  V30 7972 C 768.791 -0.649162 2.00871 0
M  V30 7973 O 768.139 -1.59653 1.63472 0
M  V30 7974 C 768.349 1.67448 3.06206 0
M  V30 7975 C 769.697 1.8866 3.80385 0
M  V30 7976 O 770.721 1.64303 3.16043 0
M  V30 7977 O 769.58 2.29518 4.95968 0
M  V30 7978 H 766.674 0.314737 0.764767 0
M  V30 7979 H 769.22 1.26865 1.12709 0
M  V30 7980 H 767.992 2.69411 2.83784 0
M  V30 7981 H 767.615 1.25608 3.77238 0
M  V30 7982 N 768.612 -1.24939 0.960631 0
M  V30 7983 C 769.842 -1.96595 0.635123 0
M  V30 7984 C 770.25 -1.71538 -0.798206 0
M  V30 7985 O 769.593 -0.991727 -1.5463 0
M  V30 7986 C 769.655 -3.49994 0.821248 0
M  V30 7987 C 769.319 -3.98738 2.23287 0
M  V30 7988 C 770.316 -4.08965 3.21004 0
M  V30 7989 C 768.001 -4.32247 2.55867 0
M  V30 7990 C 769.995 -4.52025 4.49391 0
M  V30 7991 C 767.682 -4.74991 3.84482 0
M  V30 7992 C 768.68 -4.84844 4.81056 0
M  V30 7993 O 768.368 -5.26638 6.07378 0
M  V30 7994 H 768.1 -0.633265 0.23654 0
M  V30 7995 H 770.654 -1.5991 1.28911 0
M  V30 7996 H 768.884 -3.86543 0.110105 0
M  V30 7997 H 770.573 -4.02859 0.495892 0
M  V30 7998 H 771.339 -3.83302 2.97161 0
M  V30 7999 H 767.218 -4.23801 1.81421 0
M  V30 8000 H 770.762 -4.5963 5.24773 0
M  V30 8001 H 766.659 -5.00101 4.08129 0
M  V30 8002 H 767.427 -5.44807 6.10842 0
M  V30 8003 N 770.09 -0.729906 -1.39679 0
M  V30 8004 C 771.02 -0.101618 -2.33279 0
M  V30 8005 C 772.001 0.729854 -1.53646 0
M  V30 8006 O 773.186 0.67587 -1.82059 0
M  V30 8007 C 770.316 0.81024 -3.37716 0
M  V30 8008 C 769.27 0.0833126 -4.27919 0
M  V30 8009 C 768.596 1.11185 -5.23012 0
M  V30 8010 C 769.896 -1.07107 -5.112 0
M  V30 8011 H 771.59 -0.883452 -2.86069 0
M  V30 8012 H 769.136 -0.426283 -1.37546 0
M  V30 8013 H 771.089 1.25927 -4.02145 0
M  V30 8014 H 769.813 1.62413 -2.83354 0
M  V30 8015 H 768.472 -0.346043 -3.64963 0
M  V30 8016 H 768.12 1.91917 -4.64948 0
M  V30 8017 H 767.82 0.63026 -5.8421 0
M  V30 8018 H 769.344 1.56068 -5.90318 0
M  V30 8019 H 770.758 -0.700726 -5.69002 0
M  V30 8020 H 769.155 -1.48196 -5.81514 0
M  V30 8021 H 770.225 -1.89513 -4.46332 0
M  V30 8022 N 771.568 1.50203 -0.477153 0
M  V30 8023 C 772.478 2.32421 0.319027 0
M  V30 8024 C 773.494 1.43075 0.990233 0
M  V30 8025 O 774.67 1.76123 0.976873 0
M  V30 8026 C 771.735 3.17909 1.38328 0
M  V30 8027 C 770.796 4.23082 0.728036 0
M  V30 8028 C 770.029 5.04484 1.74158 0
M  V30 8029 O 770.252 4.8705 2.96881 0
M  V30 8030 O 769.186 5.8747 1.31006 0
M  V30 8031 H 773.012 3.01638 -0.353281 0
M  V30 8032 H 770.597 1.47478 -0.238891 0
M  V30 8033 H 772.479 3.70937 1.9996 0
M  V30 8034 H 771.154 2.51413 2.03895 0
M  V30 8035 H 770.061 3.7403 0.07261 0
M  V30 8036 H 771.394 4.92065 0.115216 0
M  V30 8037 N 773.046 0.209999 1.56195 0
M  V30 8038 C 774.292 -0.425442 1.98287 0
M  V30 8039 C 774.625 -1.60232 1.09724 0
M  V30 8040 O 773.9 -1.93902 0.152414 0
M  V30 8041 C 774.183 -0.871189 3.49403 0
M  V30 8042 C 774.036 0.308527 4.48741 0
M  V30 8043 C 775.355 -1.73146 4.04609 0
M  V30 8044 H 772.474 -0.153169 0.720908 0
M  V30 8045 H 775.116 0.303916 1.87554 0
M  V30 8046 H 773.266 -1.49266 3.58681 0
M  V30 8047 H 774.938 0.946487 4.51486 0
M  V30 8048 H 773.181 0.957878 4.23092 0
M  V30 8049 H 773.852 -0.0461143 5.51981 0
M  V30 8050 H 776.328 -1.2072 3.98203 0
M  V30 8051 H 775.204 -2.01228 5.10684 0
M  V30 8052 H 775.465 -2.69083 3.5078 0
M  V30 8053 N 774.524 -1.57472 -0.0634922 0
M  V30 8054 C 775.94 -1.54016 -0.418466 0
M  V30 8055 C 776.14 -0.931376 -1.78683 0
M  V30 8056 O 775.196 -0.537465 -2.46714 0
M  V30 8057 C 776.509 -2.98634 -0.351906 0
M  V30 8058 C 778.057 -3.10012 -0.431494 0
M  V30 8059 C 778.532 -4.56296 -0.394754 0
M  V30 8060 N 780.023 -4.60964 -0.454583 0
M  V30 8061 C 780.758 -5.71643 -0.448501 0
M  V30 8062 N 780.254 -6.91663 -0.396742 0
M  V30 8063 N 782.047 -5.5991 -0.495677 0
M  V30 8064 H 774.198 -1.95409 0.832408 0
M  V30 8065 H 776.461 -0.894769 0.313197 0
M  V30 8066 H 776.167 -3.46766 0.587048 0
M  V30 8067 H 776.041 -3.58955 -1.15893 0
M  V30 8068 H 778.428 -2.61848 -1.36087 0
M  V30 8069 H 778.509 -2.52585 0.404258 0
M  V30 8070 H 778.153 -5.05119 0.530811 0
M  V30 8071 H 778.083 -5.11594 -1.24815 0
M  V30 8072 H 780.574 -3.74598 -0.498496 0
M  V30 8073 H 780.887 -7.71783 -0.396256 0
M  V30 8074 H 779.232 -6.9405 -0.363304 0
M  V30 8075 H 782.423 -4.65046 -0.533864 0
M  V30 8076 H 782.596 -6.46164 -0.487469 0
M  V30 8077 N 776.003 0.335068 -1.53997 0
M  V30 8078 C 777.28 1.09188 -1.62288 0
M  V30 8079 C 777.66 2.0626 -0.449458 0
M  V30 8080 O 777.008 2.21596 0.557444 0
M  V30 8081 C 777.218 1.80403 -2.98757 0
M  V30 8082 C 778.566 2.33841 -3.54406 0
M  V30 8083 O 779.59 1.90487 -3.00987 0
M  V30 8084 O 778.449 3.1318 -4.47862 0
M  V30 8085 H 775.543 0.502621 -0.656736 0
M  V30 8086 H 778.089 0.33588 -1.66343 0
M  V30 8087 H 776.861 1.09732 -3.75599 0
M  V30 8088 H 776.484 2.62841 -2.9833 0
M  V30 8089 N 777.481 1.45874 0.596531 0
M  V30 8090 C 778.729 1.5017 1.35253 0
M  V30 8091 C 779.05 0.149246 1.94428 0
M  V30 8092 O 778.32 -0.82268 1.77789 0
M  V30 8093 H 776.9 0.553052 0.502138 0
M  V30 8094 H 779.562 1.81908 0.699671 0
M  V30 8095 H 778.658 2.24671 2.16632 0
M  V30 8096 N 778.959 -0.83999 1.33349 0
M  V30 8097 C 780.37 -1.41139 1.22216 0
M  V30 8098 C 780.721 -1.95551 -0.159398 0
M  V30 8099 O 779.846 -1.88721 -1.05893 0
M  V30 8100 C 780.441 -2.56564 2.21269 0
M  V30 8101 C 779 -3.09661 2.13979 0
M  V30 8102 C 778.147 -1.82457 2.08818 0
M  V30 8103 H 781.098 -0.645853 1.44964 0
M  V30 8104 H 781.119 -3.34163 1.81976 0
M  V30 8105 H 780.631 -2.16932 3.21811 0
M  V30 8106 H 778.732 -3.53841 1.16736 0
M  V30 8107 H 778.845 -3.6991 3.04472 0
M  V30 8108 H 777.209 -2.0266 1.54276 0
M  V30 8109 H 777.992 -1.45022 3.11165 0
M  V30 8110 N 780.437 -1.16799 -1.0581 0
M  V30 8111 C 781.665 -0.97687 -1.82387 0
M  V30 8112 C 782.08 0.474917 -1.82729 0
M  V30 8113 O 781.437 1.3297 -1.25001 0
M  V30 8114 C 781.488 -1.50279 -3.28783 0
M  V30 8115 O 781.209 -2.89772 -3.28578 0
M  V30 8116 C 782.71 -1.35538 -4.22071 0
M  V30 8117 H 779.93 -0.345977 -0.574927 0
M  V30 8118 H 782.474 -1.54942 -1.33466 0
M  V30 8119 H 780.629 -0.972414 -3.74997 0
M  V30 8120 H 781.043 -3.13954 -4.20159 0
M  V30 8121 H 782.517 -1.7716 -5.22799 0
M  V30 8122 H 782.994 -0.301598 -4.38163 0
M  V30 8123 H 783.6 -1.87562 -3.81708 0
M  V30 8124 N 781.915 1.24427 -0.967243 0
M  V30 8125 C 782.825 2.29109 -0.504592 0
M  V30 8126 C 783.841 1.68495 0.434224 0
M  V30 8127 O 785.017 1.99041 0.307379 0
M  V30 8128 C 782.082 3.46133 0.198273 0
M  V30 8129 C 781.143 4.22149 -0.780313 0
M  V30 8130 C 780.376 5.33585 -0.110896 0
M  V30 8131 O 780.599 5.59676 1.10088 0
M  V30 8132 O 779.533 5.96522 -0.802823 0
M  V30 8133 H 783.359 2.708 -1.37482 0
M  V30 8134 H 780.944 1.30111 -0.73426 0
M  V30 8135 H 782.826 4.17205 0.593124 0
M  V30 8136 H 781.501 3.0642 1.04347 0
M  V30 8137 H 780.408 3.53454 -1.22561 0
M  V30 8138 H 781.741 4.65677 -1.59392 0
M  V30 8139 N 783.393 0.737304 1.3929 0
M  V30 8140 C 784.303 0.100464 2.34385 0
M  V30 8141 C 785.319 -0.719282 1.58437 0
M  V30 8142 O 786.495 -0.647216 1.90717 0
M  V30 8143 C 783.56 -0.794325 3.37478 0
M  V30 8144 C 782.621 0.0379345 4.29283 0
M  V30 8145 C 781.854 -0.814241 5.27452 0
M  V30 8146 O 782.077 -2.05288 5.32177 0
M  V30 8147 O 781.011 -0.241679 6.01415 0
M  V30 8148 H 784.837 0.885407 2.90507 0
M  V30 8149 H 782.422 0.497999 1.40856 0
M  V30 8150 H 784.304 -1.30622 4.00644 0
M  V30 8151 H 782.979 -1.55804 2.83737 0
M  V30 8152 H 781.886 0.595405 3.69331 0
M  V30 8153 H 783.219 0.763926 4.86236 0
M  V30 8154 N 784.871 -1.49948 0.485112 0
M  V30 8155 C 786.096 -2.073 -0.0645059 0
M  V30 8156 C 786.521 -1.345 -1.31497 0
M  V30 8157 O 785.879 -0.39687 -1.76903 0
M  V30 8158 C 785.927 -3.59201 -0.317304 0
M  V30 8159 O 785.031 -3.88085 -1.39514 0
M  V30 8160 H 784.372 -0.663723 0.0191822 0
M  V30 8161 H 786.902 -1.92963 0.680179 0
M  V30 8162 H 786.912 -4.04227 -0.553604 0
M  V30 8163 H 785.587 -4.11602 0.596387 0
M  V30 8164 H 784.164 -3.54885 -1.14504 0
M  V30 8165 N 786.349 -0.21828 -1.56081 0
M  V30 8166 C 787.312 0.679633 -2.18892 0
M  V30 8167 C 788.312 1.12405 -1.14986 0
M  V30 8168 O 789.502 1.03339 -1.40238 0
M  V30 8169 C 786.634 1.93063 -2.80962 0
M  V30 8170 H 787.827 0.132066 -2.99609 0
M  V30 8171 H 785.38 0.0313374 -1.56269 0
M  V30 8172 H 786.115 2.52015 -2.04106 0
M  V30 8173 H 785.9 1.62046 -3.57048 0
M  V30 8174 H 787.39 2.57043 -3.29118 0
M  V30 8175 N 787.827 1.57504 0.0551401 0
M  V30 8176 C 788.757 2.07864 1.06372 0
M  V30 8177 C 789.738 0.975565 1.39344 0
M  V30 8178 O 790.923 1.24929 1.48682 0
M  V30 8179 C 788.053 2.53643 2.3724 0
M  V30 8180 C 787.007 3.67978 2.18578 0
M  V30 8181 C 786.333 3.9987 3.54976 0
M  V30 8182 C 787.633 4.97405 1.59329 0
M  V30 8183 H 789.327 2.92379 0.644595 0
M  V30 8184 H 786.873 1.40654 0.308619 0
M  V30 8185 H 788.826 2.8749 3.08103 0
M  V30 8186 H 787.55 1.66177 2.81163 0
M  V30 8187 H 786.209 3.3444 1.50152 0
M  V30 8188 H 785.857 3.0951 3.965 0
M  V30 8189 H 785.557 4.76867 3.43324 0
M  V30 8190 H 787.081 4.36228 4.27244 0
M  V30 8191 H 788.495 5.29375 2.20078 0
M  V30 8192 H 786.892 5.78837 1.58327 0
M  V30 8193 H 787.962 4.81697 0.55638 0
M  V30 8194 N 789.305 -0.326896 1.54172 0
M  V30 8195 C 790.554 -1.06274 1.71431 0
M  V30 8196 C 790.867 -1.89282 0.493123 0
M  V30 8197 O 792.073 -2.65933 0.54699 0
M  V30 8198 C 790.529 -1.93892 3.03206 0
M  V30 8199 C 790.137 -1.16011 4.32719 0
M  V30 8200 C 791.881 -2.67232 3.29829 0
M  V30 8201 C 789.788 -2.02755 5.55558 0
M  V30 8202 H 788.718 -0.400475 0.638855 0
M  V30 8203 H 791.369 -0.321184 1.80667 0
M  V30 8204 H 789.751 -2.71933 2.87869 0
M  V30 8205 H 790.925 -0.427643 4.58811 0
M  V30 8206 H 789.24 -0.54367 4.12836 0
M  V30 8207 H 791.837 -3.32434 4.18798 0
M  V30 8208 H 792.18 -3.34692 2.47562 0
M  V30 8209 H 792.713 -1.96255 3.46018 0
M  V30 8210 H 789.452 -1.3981 6.40417 0
M  V30 8211 H 788.972 -2.73745 5.33689 0
M  V30 8212 H 790.651 -2.61419 5.91835 0
M  V30 8213 N 790.784 -1.46188 -0.588786 0
M  V30 8214 C 792.032 -1.50885 -1.34455 0
M  V30 8215 C 792.353 -0.159555 -1.94346 0
M  V30 8216 O 791.623 0.813239 -1.78222 0
M  V30 8217 H 790.203 -0.555707 -0.499198 0
M  V30 8218 H 792.865 -1.82277 -0.690014 0
M  V30 8219 H 791.961 -2.25816 -2.15438 0
M  V30 8220 N 792.262 0.832906 -1.33792 0
M  V30 8221 C 793.212 1.93178 -1.21105 0
M  V30 8222 C 794.196 1.60506 -0.112491 0
M  V30 8223 O 795.388 1.73681 -0.341179 0
M  V30 8224 C 792.517 3.29647 -0.958526 0
M  V30 8225 C 791.603 3.68469 -2.0998 0
M  V30 8226 N 791.994 3.78936 -3.35024 0
M  V30 8227 C 790.292 3.98249 -2.00782 0
M  V30 8228 C 790.993 4.12731 -4.09912 0
M  V30 8229 N 789.969 4.25419 -3.38407 0
M  V30 8230 H 793.771 1.99434 -2.15878 0
M  V30 8231 H 791.285 1.02598 -1.25886 0
M  V30 8232 H 793.282 4.08173 -0.848552 0
M  V30 8233 H 791.942 3.24694 -0.019387 0
M  V30 8234 H 792.953 3.62688 -3.69699 0
M  V30 8235 H 789.63 4.01474 -1.14564 0
M  V30 8236 H 791.02 4.28117 -5.17847 0
M  V30 8237 N 793.74 1.17359 1.05189 0
M  V30 8238 C 794.987 0.961987 1.78191 0
M  V30 8239 C 795.315 -0.509363 1.87712 0
M  V30 8240 O 794.57 -1.39425 1.37329 0
M  V30 8241 C 794.869 1.54821 3.22126 0
M  V30 8242 C 794.535 3.04378 3.32663 0
M  V30 8243 C 793.197 3.45201 3.35246 0
M  V30 8244 C 795.549 4.00387 3.33677 0
M  V30 8245 C 792.877 4.80629 3.36471 0
M  V30 8246 C 795.229 5.35715 3.36441 0
M  V30 8247 C 793.893 5.76002 3.37311 0
M  V30 8248 H 793.163 0.352016 0.652047 0
M  V30 8249 H 795.81 1.46249 1.23627 0
M  V30 8250 H 794.115 0.969432 3.79617 0
M  V30 8251 H 795.812 1.36004 3.77232 0
M  V30 8252 H 792.402 2.71836 3.31366 0
M  V30 8253 H 796.586 3.69906 3.30882 0
M  V30 8254 H 791.842 5.11155 3.35455 0
M  V30 8255 H 796.016 6.09886 3.36173 0
M  V30 8256 H 793.643 6.80919 3.38013 0
M  V30 8257 N 795.218 -1.23913 0.973828 0
M  V30 8258 C 796.458 -1.93889 0.647015 0
M  V30 8259 C 796.822 -1.74368 -0.803735 0
M  V30 8260 O 798.023 -2.38435 -1.24106 0
M  V30 8261 C 796.294 -3.4257 1.01885 0
M  V30 8262 S 797.853 -4.31306 0.807517 0
M  V30 8263 H 794.671 -0.670279 0.237165 0
M  V30 8264 H 797.273 -1.50144 1.25208 0
M  V30 8265 H 795.977 -3.54286 2.07146 0
M  V30 8266 H 795.508 -3.91312 0.404812 0
M  V30 8267 H 797.523 -4.95218 -0.311986 0
M  V30 8268 N 796.696 -0.74468 -1.38897 0
M  V30 8269 C 797.944 -0.296298 -1.99916 0
M  V30 8270 C 798.265 1.12325 -1.59399 0
M  V30 8271 O 797.535 1.76658 -0.846689 0
M  V30 8272 H 796.115 -0.106561 -0.73936 0
M  V30 8273 H 798.777 -0.956793 -1.69798 0
M  V30 8274 H 797.873 -0.352356 -3.10105 0
M  V30 8275 N 798.174 1.49689 -0.493057 0
M  V30 8276 C 799.404 2.06536 0.0512397 0
M  V30 8277 C 799.812 1.35459 1.32089 0
M  V30 8278 O 799.155 0.424145 1.78736 0
M  V30 8279 C 799.217 3.57452 0.383231 0
M  V30 8280 C 798.881 4.50163 -0.787555 0
M  V30 8281 C 799.878 4.92151 -1.67582 0
M  V30 8282 C 797.563 4.92565 -0.984109 0
M  V30 8283 C 799.557 5.7527 -2.74487 0
M  V30 8284 C 797.244 5.75463 -2.05634 0
M  V30 8285 C 798.242 6.16719 -2.93507 0
M  V30 8286 O 797.93 6.97961 -3.98881 0
M  V30 8287 H 797.662 0.675862 -0.0136516 0
M  V30 8288 H 800.216 1.9356 -0.687298 0
M  V30 8289 H 798.446 3.68408 1.17526 0
M  V30 8290 H 800.135 3.96572 0.8652 0
M  V30 8291 H 800.901 4.60043 -1.53575 0
M  V30 8292 H 796.78 4.5996 -0.309541 0
M  V30 8293 H 800.324 6.07392 -3.43104 0
M  V30 8294 H 796.221 6.06983 -2.19639 0
M  V30 8295 H 796.989 7.16253 -3.96137 0
M  V30 8296 N 799.652 0.226554 1.55963 0
M  V30 8297 C 800.562 -0.692725 2.24139 0
M  V30 8298 C 801.578 -1.20971 1.25068 0
M  V30 8299 O 802.754 -1.25027 1.57893 0
M  V30 8300 C 799.819 -1.88183 2.91184 0
M  V30 8301 C 798.88 -1.40633 4.05612 0
M  V30 8302 C 798.113 -2.53875 4.6945 0
M  V30 8303 O 798.336 -3.72129 4.32292 0
M  V30 8304 O 797.27 -2.24792 5.58348 0
M  V30 8305 H 801.096 -0.141921 3.03368 0
M  V30 8306 H 798.681 -0.0041049 1.49399 0
M  V30 8307 H 800.563 -2.57617 3.33484 0
M  V30 8308 H 799.238 -2.42064 2.14911 0
M  V30 8309 H 798.145 -0.67986 3.67871 0
M  V30 8310 H 799.478 -0.913838 4.83642 0
M  V30 8311 N 801.13 -1.57531 -0.0467866 0
M  V30 8312 C 802.077 -2.05387 -1.05285 0
M  V30 8313 C 803.047 -0.939385 -1.36985 0
M  V30 8314 O 804.232 -1.20877 -1.47626 0
M  V30 8315 C 801.372 -2.52343 -2.35408 0
M  V30 8316 C 800.485 -3.77512 -2.10022 0
M  V30 8317 C 799.62 -4.1315 -3.33887 0
M  V30 8318 C 798.659 -5.31286 -3.03976 0
M  V30 8319 N 797.796 -5.62441 -4.20243 0
M  V30 8320 H 802.636 -2.91095 -0.637788 0
M  V30 8321 H 800.173 -1.43939 -0.303322 0
M  V30 8322 H 802.131 -2.77628 -3.11413 0
M  V30 8323 H 800.761 -1.69577 -2.7467 0
M  V30 8324 H 799.813 -3.59417 -1.24594 0
M  V30 8325 H 801.125 -4.63644 -1.83945 0
M  V30 8326 H 800.279 -4.39469 -4.18273 0
M  V30 8327 H 799.018 -3.25634 -3.63062 0
M  V30 8328 H 798.023 -5.04738 -2.17991 0
M  V30 8329 H 799.248 -6.20441 -2.76098 0
M  V30 8330 H 797.194 -4.77885 -4.49402 0
M  V30 8331 H 797.111 -6.43046 -3.97528 0
M  V30 8332 H 798.379 -5.93327 -5.05553 0
M  V30 8333 N 802.608 0.318715 -1.54344 0
M  V30 8334 C 804.019 0.89285 -1.63967 0
M  V30 8335 C 804.37 1.88712 -0.536855 0
M  V30 8336 O 803.495 2.13877 0.329457 0
M  V30 8337 C 804.09 1.62618 -2.97222 0
M  V30 8338 C 802.649 2.14897 -3.09025 0
M  V30 8339 C 801.796 0.975909 -2.5956 0
M  V30 8340 H 804.747 0.0961687 -1.58408 0
M  V30 8341 H 804.768 2.4907 -2.87653 0
M  V30 8342 H 804.28 0.902286 -3.77466 0
M  V30 8343 H 802.381 2.90387 -2.33465 0
M  V30 8344 H 802.494 2.39565 -4.14904 0
M  V30 8345 H 800.858 1.35646 -2.15574 0
M  V30 8346 H 801.641 0.266253 -3.42266 0
M  V30 8347 N 804.086 1.46499 0.581025 0
M  V30 8348 C 804.996 1.59778 1.71779 0
M  V30 8349 C 806.012 0.481223 1.67213 0
M  V30 8350 O 807.188 0.74557 1.87091 0
M  V30 8351 C 804.253 1.58626 3.08283 0
M  V30 8352 C 803.314 2.81527 3.241 0
M  V30 8353 C 802.547 2.80421 4.54092 0
M  V30 8354 O 802.77 1.89262 5.38085 0
M  V30 8355 O 801.704 3.71984 4.73193 0
M  V30 8356 H 805.53 2.55918 1.63523 0
M  V30 8357 H 803.115 1.29311 0.748267 0
M  V30 8358 H 804.997 1.60686 3.89561 0
M  V30 8359 H 803.672 0.656467 3.16973 0
M  V30 8360 H 802.579 2.85021 2.42309 0
M  V30 8361 H 803.912 3.73721 3.20302 0
M  V30 8362 N 805.565 -0.825799 1.34232 0
M  V30 8363 C 806.842 -1.56741 1.17011 0
M  V30 8364 C 807.222 -2.09512 -0.258425 0
M  V30 8365 O 806.57 -1.90664 -1.25935 0
M  V30 8366 C 806.78 -2.69104 2.22225 0
M  V30 8367 C 808.128 -3.37947 2.57055 0
M  V30 8368 O 809.152 -2.79358 2.20992 0
M  V30 8369 O 808.011 -4.43743 3.1899 0
M  V30 8370 H 805.105 -0.69163 0.453405 0
M  V30 8371 H 807.651 -0.867422 1.45856 0
M  V30 8372 H 806.423 -2.27844 3.18124 0
M  V30 8373 H 806.046 -3.46756 1.94541 0
M  V30 8374 N 807.043 -1.17915 -1.04565 0
M  V30 8375 C 808.289 -0.972863 -1.77942 0
M  V30 8376 C 808.622 0.496753 -1.87739 0
M  V30 8377 O 807.897 1.3688 -1.38181 0
M  V30 8378 C 808.18 -1.62227 -3.21488 0
M  V30 8379 C 808.033 -3.16441 -3.19664 0
M  V30 8380 C 809.352 -1.33137 -4.19479 0
M  V30 8381 H 806.471 -0.354843 -0.645953 0
M  V30 8382 H 809.113 -1.45508 -1.22178 0
M  V30 8383 H 807.263 -1.21224 -3.69103 0
M  V30 8384 H 808.935 -3.66544 -2.80077 0
M  V30 8385 H 807.178 -3.48863 -2.57832 0
M  V30 8386 H 807.849 -3.57012 -4.21006 0
M  V30 8387 H 810.325 -1.68654 -3.80388 0
M  V30 8388 H 809.201 -1.81151 -5.18146 0
M  V30 8389 H 809.462 -0.253319 -4.41374 0
M  V30 8390 N 808.521 1.23394 -0.980386 0
M  V30 8391 C 809.468 2.24859 -0.520298 0
M  V30 8392 C 810.438 1.60144 0.440821 0
M  V30 8393 O 811.623 1.87593 0.348369 0
M  V30 8394 C 808.763 3.44675 0.171145 0
M  V30 8395 C 807.876 4.23947 -0.830233 0
M  V30 8396 C 807.011 5.31079 -0.113597 0
M  V30 8397 C 806.05 6.02058 -1.10419 0
M  V30 8398 N 805.187 7.00862 -0.416709 0
M  V30 8399 H 810.027 2.63579 -1.39032 0
M  V30 8400 H 807.564 1.29556 -0.696682 0
M  V30 8401 H 809.522 4.13024 0.588838 0
M  V30 8402 H 808.152 3.06755 1.00504 0
M  V30 8403 H 807.204 3.55016 -1.36631 0
M  V30 8404 H 808.516 4.72945 -1.58508 0
M  V30 8405 H 807.67 6.05622 0.36146 0
M  V30 8406 H 806.409 4.83022 0.673854 0
M  V30 8407 H 805.414 5.26307 -1.59 0
M  V30 8408 H 806.639 6.52203 -1.8923 0
M  V30 8409 H 804.585 6.55057 0.351535 0
M  V30 8410 H 804.502 7.47804 -1.11021 0
M  V30 8411 H 805.77 7.79492 0.0359606 0
M  V30 8412 N 809.999 0.752036 1.385 0
M  V30 8413 C 811.224 0.316993 2.04963 0
M  V30 8414 C 811.649 -1.04582 1.56346 0
M  V30 8415 O 811.007 -1.66616 0.714755 0
M  V30 8416 C 811.055 0.347235 3.58924 0
M  V30 8417 O 810.159 -0.659296 4.07096 0
M  V30 8418 H 809.5 0.140652 0.648932 0
M  V30 8419 H 812.03 1.02272 1.77205 0
M  V30 8420 H 812.04 0.19757 4.07521 0
M  V30 8421 H 810.715 1.34157 3.93668 0
M  V30 8422 H 809.292 -0.474371 3.6987 0
M  V30 8423 N 811.477 -1.49425 0.500989 0
M  V30 8424 C 812.702 -2.07356 -0.0425154 0
M  V30 8425 C 813.127 -1.35887 -1.30063 0
M  V30 8426 O 812.485 -0.41561 -1.76472 0
M  V30 8427 C 812.533 -3.59518 -0.279188 0
M  V30 8428 O 811.637 -3.89542 -1.3539 0
M  V30 8429 H 810.978 -0.663482 0.0262207 0
M  V30 8430 H 813.508 -1.92231 0.700607 0
M  V30 8431 H 813.518 -4.04791 -0.5107 0
M  V30 8432 H 812.193 -4.10946 0.640009 0
M  V30 8433 H 810.77 -3.56079 -1.10734 0
M  V30 8434 N 812.955 -0.234822 -1.55841 0
M  V30 8435 C 814.18 0.400741 -2.03492 0
M  V30 8436 C 814.605 1.51618 -1.11327 0
M  V30 8437 O 813.963 1.81002 -0.103922 0
M  V30 8438 C 814.011 0.897184 -3.49261 0
M  V30 8439 O 813.115 2.00764 -3.60233 0
M  V30 8440 H 812.456 0.0890023 -0.658008 0
M  V30 8441 H 814.986 -0.357345 -2.01455 0
M  V30 8442 H 814.996 1.20356 -3.89844 0
M  V30 8443 H 813.671 0.0808639 -4.15821 0
M  V30 8444 H 812.248 1.70689 -3.31541 0
M  V30 8445 N 814.433 1.57553 0.0384317 0
M  V30 8446 C 815.381 2.07021 1.06043 0
M  V30 8447 C 816.375 0.982078 1.38028 0
M  V30 8448 O 817.581 1.16702 1.37042 0
M  V30 8449 H 813.956 0.660522 0.359464 0
M  V30 8450 H 815.927 2.91944 0.617339 0
M  V30 8451 C 814.676 2.55734 2.35574 0
M  V30 8452 H 813.999 3.39074 2.11822 0
M  V30 8453 H 815.439 2.94066 3.05452 0
M  V30 8454 C 813.898 1.45449 3.03885 0
M  V30 8455 O 814.428 0.815402 3.93337 0
M  V30 8456 N 812.634 1.19134 2.65058 0
M  V30 8457 H 812.181 1.71288 1.92401 0
M  V30 8458 H 812.139 0.455554 3.11082 0
M  V30 8459 N 815.911 -0.310526 1.54511 0
M  V30 8460 C 817.327 -0.655637 1.45511 0
M  V30 8461 C 817.527 -1.91114 0.638564 0
M  V30 8462 O 816.583 -2.52098 0.142497 0
M  V30 8463 C 817.896 -0.817501 2.89374 0
M  V30 8464 C 819.444 -0.914003 2.99358 0
M  V30 8465 C 819.919 -1.10794 4.44397 0
M  V30 8466 N 821.41 -1.17437 4.48066 0
M  V30 8467 C 822.145 -1.34255 5.57461 0
M  V30 8468 N 821.641 -1.48032 6.768 0
M  V30 8469 N 823.434 -1.37067 5.45132 0
M  V30 8470 H 815.585 0.514506 2.06074 0
M  V30 8471 H 817.848 0.168478 0.932909 0
M  V30 8472 H 817.554 0.034003 3.51684 0
M  V30 8473 H 817.428 -1.7094 3.36243 0
M  V30 8474 H 819.815 -1.756 2.37168 0
M  V30 8475 H 819.896 0.00170958 2.558 0
M  V30 8476 H 819.54 -0.270743 5.07178 0
M  V30 8477 H 819.47 -2.03773 4.85576 0
M  V30 8478 H 821.961 -1.08181 3.62084 0
M  V30 8479 H 822.274 -1.60593 7.5593 0
M  V30 8480 H 820.619 -1.45105 6.79683 0
M  V30 8481 H 823.81 -1.25909 4.50849 0
M  V30 8482 H 823.983 -1.49831 6.3044 0
M  V30 8483 N 817.389 -1.46805 -0.573248 0
M  V30 8484 C 818.319 -1.60951 -1.69165 0
M  V30 8485 C 819.3 -0.45948 -1.63777 0
M  V30 8486 O 820.485 -0.68688 -1.81647 0
M  V30 8487 C 817.615 -1.60844 -3.07809 0
M  V30 8488 C 816.569 -2.74913 -3.28035 0
M  V30 8489 C 815.895 -2.59871 -4.67302 0
M  V30 8490 C 817.195 -4.16654 -3.14955 0
M  V30 8491 H 818.889 -2.54574 -1.57582 0
M  V30 8492 H 816.435 -1.22516 -0.756686 0
M  V30 8493 H 818.388 -1.69334 -3.85881 0
M  V30 8494 H 817.112 -0.637714 -3.20314 0
M  V30 8495 H 815.771 -2.65908 -2.52366 0
M  V30 8496 H 815.419 -1.60861 -4.76585 0
M  V30 8497 H 815.119 -3.36386 -4.81786 0
M  V30 8498 H 816.643 -2.70265 -5.4753 0
M  V30 8499 H 818.057 -4.26721 -3.82861 0
M  V30 8500 H 816.454 -4.93831 -3.40956 0
M  V30 8501 H 817.524 -4.36146 -2.11908 0
M  V30 8502 N 818.867 0.818669 -1.34668 0
M  V30 8503 C 820.113 1.577 -1.28461 0
M  V30 8504 C 820.468 1.91867 0.143057 0
M  V30 8505 O 819.761 1.57545 1.09041 0
M  V30 8506 C 819.955 2.88245 -2.11304 0
M  V30 8507 C 819.784 2.66831 -3.61982 0
M  V30 8508 C 818.554 2.63346 -4.3125 0
M  V30 8509 C 820.752 2.38049 -4.55892 0
M  V30 8510 N 818.734 2.33522 -5.67751 0
M  V30 8511 C 820.105 2.17957 -5.80426 0
M  V30 8512 C 822.16 2.23812 -4.44761 0
M  V30 8513 C 820.863 1.8507 -6.95084 0
M  V30 8514 C 822.889 1.92321 -5.59255 0
M  V30 8515 C 822.251 1.73056 -6.82811 0
M  V30 8516 H 818.35 0.579284 -0.525314 0
M  V30 8517 H 820.934 0.959336 -1.69425 0
M  V30 8518 H 819.105 3.47927 -1.7263 0
M  V30 8519 H 820.837 3.53677 -1.96709 0
M  V30 8520 H 817.592 2.7757 -3.83734 0
M  V30 8521 H 818.016 2.21438 -6.39761 0
M  V30 8522 H 822.658 2.3741 -3.49852 0
M  V30 8523 H 820.376 1.7021 -7.89971 0
M  V30 8524 H 823.962 1.82031 -5.5259 0
M  V30 8525 H 822.842 1.49042 -7.69907 0
M  V30 8526 N 820.346 1.18468 1.03938 0
M  V30 8527 C 821.279 0.856251 2.11527 0
M  V30 8528 C 822.257 -0.182323 1.61575 0
M  V30 8529 O 823.441 -0.061 1.88401 0
M  V30 8530 C 820.568 0.279562 3.37544 0
M  V30 8531 C 819.614 1.29552 4.06348 0
M  V30 8532 S 820.447 2.85191 4.5324 0
M  V30 8533 C 821.603 2.29037 5.82489 0
M  V30 8534 H 821.836 1.76742 2.39059 0
M  V30 8535 H 819.369 1.01068 1.16725 0
M  V30 8536 H 821.327 -0.0466579 4.10473 0
M  V30 8537 H 819.988 -0.60975 3.08125 0
M  V30 8538 H 819.181 0.840922 4.96935 0
M  V30 8539 H 818.783 1.56804 3.39541 0
M  V30 8540 H 821.075 1.67376 6.565 0
M  V30 8541 H 822.018 3.17929 6.32714 0
M  V30 8542 H 822.426 1.72009 5.37655 0
M  V30 8543 N 821.824 -1.22873 0.986916 0
M  V30 8544 C 822.771 -2.2458 0.532215 0
M  V30 8545 C 823.741 -1.60375 -0.432322 0
M  V30 8546 O 824.926 -1.87775 -0.338416 0
M  V30 8547 C 822.066 -3.44761 -0.152864 0
M  V30 8548 C 821.179 -4.23501 0.852704 0
M  V30 8549 C 820.314 -5.31011 0.14176 0
M  V30 8550 C 819.353 -6.01464 1.1361 0
M  V30 8551 N 818.49 -7.00631 0.453871 0
M  V30 8552 H 823.33 -2.62838 1.40428 0
M  V30 8553 H 820.867 -1.29185 0.703543 0
M  V30 8554 H 822.825 -4.1333 -0.566926 0
M  V30 8555 H 821.455 -3.07284 -0.988756 0
M  V30 8556 H 820.507 -3.54286 1.38512 0
M  V30 8557 H 821.819 -4.72097 1.61014 0
M  V30 8558 H 820.973 -6.05805 -0.329337 0
M  V30 8559 H 819.712 -4.83373 -0.648229 0
M  V30 8560 H 818.717 -5.25456 1.61789 0
M  V30 8561 H 819.942 -6.5119 1.92686 0
M  V30 8562 H 817.888 -6.55235 -0.316791 0
M  V30 8563 H 817.805 -7.47204 1.14986 0
M  V30 8564 H 819.073 -7.795 0.00537823 0
M  V30 8565 N 823.302 -0.75937 -1.38099 0
M  V30 8566 C 824.549 -0.318113 -1.99986 0
M  V30 8567 C 824.877 1.10184 -1.6028 0
M  V30 8568 O 824.132 1.77015 -0.834524 0
M  V30 8569 C 824.431 -0.394999 -3.55211 0
M  V30 8570 C 824.097 -1.77143 -4.14646 0
M  V30 8571 C 822.759 -2.14811 -4.30592 0
M  V30 8572 C 825.111 -2.67407 -4.47373 0
M  V30 8573 C 822.439 -3.42203 -4.76565 0
M  V30 8574 C 824.791 -3.94196 -4.94765 0
M  V30 8575 C 823.455 -4.31925 -5.08918 0
M  V30 8576 H 822.725 -0.116406 -0.7318 0
M  V30 8577 H 825.372 -0.97098 -1.65058 0
M  V30 8578 H 823.677 0.341426 -3.9031 0
M  V30 8579 H 825.374 -0.0350722 -4.00985 0
M  V30 8580 H 821.964 -1.46864 -4.02652 0
M  V30 8581 H 826.148 -2.39569 -4.3465 0
M  V30 8582 H 821.404 -3.71346 -4.85708 0
M  V30 8583 H 825.578 -4.64276 -5.19057 0
M  V30 8584 H 823.205 -5.30699 -5.443 0
M  V30 8585 N 824.78 1.49157 -0.508906 0
M  V30 8586 C 826.026 2.02773 0.0328469 0
M  V30 8587 C 826.359 1.38714 1.35912 0
M  V30 8588 O 825.634 0.525536 1.87266 0
M  V30 8589 C 825.917 3.59664 0.177088 0
M  V30 8590 C 825.77 4.34239 -1.17287 0
M  V30 8591 C 827.089 4.30505 0.913977 0
M  V30 8592 H 824.208 0.736926 0.0104631 0
M  V30 8593 H 826.85 1.781 -0.661851 0
M  V30 8594 H 825 3.80818 0.768774 0
M  V30 8595 H 826.672 4.24561 -1.80404 0
M  V30 8596 H 824.915 3.96486 -1.76016 0
M  V30 8597 H 825.586 5.42397 -1.02516 0
M  V30 8598 H 828.062 4.14054 0.412084 0
M  V30 8599 H 826.938 5.40012 0.983759 0
M  V30 8600 H 827.199 3.96302 1.95951 0
M  V30 8601 N 826.258 0.243083 1.55714 0
M  V30 8602 C 827.483 -0.389944 2.03701 0
M  V30 8603 C 827.908 -1.51025 1.12129 0
M  V30 8604 O 827.266 -1.80944 0.11352 0
M  V30 8605 C 827.314 -0.878649 3.49731 0
M  V30 8606 O 826.418 -1.98851 3.61292 0
M  V30 8607 H 825.759 -0.0855115 0.658471 0
M  V30 8608 H 828.289 0.368023 2.01263 0
M  V30 8609 H 828.299 -1.18287 3.90477 0
M  V30 8610 H 826.974 -0.0588107 4.15858 0
M  V30 8611 H 825.551 -1.68928 3.32442 0
M  V30 8612 N 827.736 -1.57571 -0.0300757 0
M  V30 8613 C 829.013 -1.80381 -0.756447 0
M  V30 8614 C 829.393 -0.840906 -1.93628 0
M  V30 8615 O 828.741 0.117143 -2.282 0
M  V30 8616 C 828.951 -3.2807 -1.19043 0
M  V30 8617 C 830.299 -3.93025 -1.60676 0
M  V30 8618 O 831.323 -3.32213 -1.28503 0
M  V30 8619 O 830.182 -5.00092 -2.20386 0
M  V30 8620 H 827.276 -0.741737 -0.365725 0
M  V30 8621 H 829.822 -1.69699 -0.00693177 0
M  V30 8622 H 828.594 -3.89748 -0.348128 0
M  V30 8623 H 828.217 -3.43637 -1.99999 0
M  V30 8624 N 829.214 0.302327 -1.54673 0
M  V30 8625 C 830.462 1.03565 -1.73547 0
M  V30 8626 C 830.783 1.87843 -0.523448 0
M  V30 8627 O 830.053 1.90367 0.462295 0
M  V30 8628 H 828.633 0.385358 -0.639928 0
M  V30 8629 H 831.295 0.333632 -1.92023 0
M  V30 8630 H 830.391 1.68952 -2.62415 0
M  V30 8631 N 830.692 1.47107 0.565454 0
M  V30 8632 C 831.917 1.57153 1.35343 0
M  V30 8633 C 832.342 0.219247 1.86818 0
M  V30 8634 O 831.7 -0.803539 1.62521 0
M  V30 8635 C 831.748 2.59387 2.50501 0
M  V30 8636 O 830.852 2.14086 3.52478 0
M  V30 8637 H 830.193 0.528209 0.402357 0
M  V30 8638 H 832.723 1.92821 0.684189 0
M  V30 8639 H 832.733 2.79546 2.97184 0
M  V30 8640 H 831.408 3.57579 2.12391 0
M  V30 8641 H 829.985 2.03991 3.12157 0
M  V30 8642 N 832.17 -0.811516 1.35101 0
M  V30 8643 C 833.419 -1.56343 1.27435 0
M  V30 8644 C 833.732 -1.95019 -0.150696 0
M  V30 8645 O 834.938 -2.6924 -0.349586 0
M  V30 8646 C 833.394 -2.82124 2.23459 0
M  V30 8647 C 833.002 -2.50706 3.71283 0
M  V30 8648 C 834.746 -3.60137 2.24726 0
M  V30 8649 C 832.653 -3.72748 4.59143 0
M  V30 8650 H 831.583 -0.58682 0.473453 0
M  V30 8651 H 834.234 -0.892465 1.60335 0
M  V30 8652 H 832.616 -3.50905 1.83525 0
M  V30 8653 H 833.79 -1.89962 4.19823 0
M  V30 8654 H 832.105 -1.85947 3.72576 0
M  V30 8655 H 834.702 -4.50775 2.87587 0
M  V30 8656 H 835.045 -3.97101 1.24965 0
M  V30 8657 H 835.578 -2.98311 2.63164 0
M  V30 8658 H 832.317 -3.40896 5.59884 0
M  V30 8659 H 831.837 -4.32735 4.15332 0
M  V30 8660 H 833.516 -4.40033 4.74321 0
M  V30 8661 N 833.648 -1.19017 -1.03309 0
M  V30 8662 C 834.596 -0.920627 -2.13605 0
M  V30 8663 C 835.59 0.121969 -1.6896 0
M  V30 8664 O 836.796 -0.0268854 -1.7998 0
M  V30 8665 H 833.171 -0.280284 -0.697814 0
M  V30 8666 H 835.142 -1.85755 -2.33533 0
M  V30 8667 C 833.891 -0.471198 -3.44492 0
M  V30 8668 H 833.214 -1.26499 -3.7926 0
M  V30 8669 H 834.654 -0.321663 -4.22778 0
M  V30 8670 C 833.113 0.81411 -3.26916 0
M  V30 8671 O 833.643 1.87654 -3.55175 0
M  V30 8672 N 831.849 0.769695 -2.80221 0
M  V30 8673 H 831.396 -0.0951278 -2.57424 0
M  V30 8674 H 831.354 1.63008 -2.68842 0
M  V30 8675 N 835.127 1.22348 -0.993418 0
M  V30 8676 C 836.074 2.24294 -0.544118 0
M  V30 8677 C 837.044 1.60602 0.42381 0
M  V30 8678 O 838.229 1.87952 0.328453 0
M  V30 8679 C 835.369 3.44837 0.134578 0
M  V30 8680 C 834.482 4.23043 -0.875151 0
M  V30 8681 C 833.617 5.30928 -0.169919 0
M  V30 8682 C 832.656 6.00853 -1.16798 0
M  V30 8683 N 831.793 7.00381 -0.491021 0
M  V30 8684 H 836.633 2.6209 -1.4182 0
M  V30 8685 H 834.17 1.2881 -0.710384 0
M  V30 8686 H 836.128 4.13625 0.544998 0
M  V30 8687 H 834.758 3.07804 0.972446 0
M  V30 8688 H 833.81 3.53546 -1.40389 0
M  V30 8689 H 835.122 4.71237 -1.63516 0
M  V30 8690 H 834.276 6.05972 0.297205 0
M  V30 8691 H 833.015 4.8371 0.622586 0
M  V30 8692 H 832.02 5.24591 -1.64573 0
M  V30 8693 H 833.245 6.50159 -1.96137 0
M  V30 8694 H 831.191 6.55393 0.282037 0
M  V30 8695 H 831.108 7.46584 -1.18947 0
M  V30 8696 H 832.376 7.79486 -0.0467169 0
M  V30 8697 N 836.605 0.766683 1.37694 0
M  V30 8698 C 837.568 0.155849 2.2867 0
M  V30 8699 C 838.568 -0.633509 1.47795 0
M  V30 8700 O 839.758 -0.457844 1.68076 0
M  V30 8701 C 836.89 -0.786965 3.31692 0
M  V30 8702 H 838.083 0.957748 2.84196 0
M  V30 8703 H 835.636 0.534554 1.46875 0
M  V30 8704 H 836.371 -1.61406 2.8128 0
M  V30 8705 H 836.156 -0.223182 3.91464 0
M  V30 8706 H 837.646 -1.20994 3.99688 0
M  V30 8707 N 838.083 -1.48885 0.516809 0
M  V30 8708 C 839.331 -2.02088 -0.0220166 0
M  V30 8709 C 839.652 -1.39735 -1.36011 0
M  V30 8710 O 838.922 -0.558119 -1.87781 0
M  V30 8711 H 837.502 -0.746917 -0.0111255 0
M  V30 8712 H 840.164 -1.8274 0.677647 0
M  V30 8713 H 839.26 -3.11786 -0.140067 0
M  V30 8714 N 839.561 -0.251338 -1.55583 0
M  V30 8715 C 840.808 0.372169 -1.99051 0
M  V30 8716 C 841.136 1.57623 -1.13953 0
M  V30 8717 O 840.391 1.94762 -0.191398 0
M  V30 8718 C 840.69 0.821186 -3.47838 0
M  V30 8719 C 840.356 -0.275608 -4.50057 0
M  V30 8720 C 839.018 -0.57683 -4.7773 0
M  V30 8721 C 841.37 -1.01585 -5.11204 0
M  V30 8722 C 838.698 -1.62229 -5.63825 0
M  V30 8723 C 841.05 -2.05087 -5.98433 0
M  V30 8724 C 839.714 -2.35869 -6.24437 0
M  V30 8725 H 838.984 0.136186 -0.728378 0
M  V30 8726 H 841.631 -0.360089 -1.88084 0
M  V30 8727 H 839.936 1.63272 -3.56159 0
M  V30 8728 H 841.633 1.31396 -3.78861 0
M  V30 8729 H 838.223 -0.030697 -4.28589 0
M  V30 8730 H 842.407 -0.79639 -4.89869 0
M  V30 8731 H 837.663 -1.86607 -5.82226 0
M  V30 8732 H 841.837 -2.62934 -6.44855 0
M  V30 8733 H 839.464 -3.17017 -6.90944 0
M  V30 8734 N 841.039 1.57585 0.0217189 0
M  V30 8735 C 842.002 2.06004 1.00474 0
M  V30 8736 C 843.002 0.965461 1.2859 0
M  V30 8737 O 844.192 1.22884 1.23471 0
M  V30 8738 C 841.324 2.48319 2.33561 0
M  V30 8739 H 842.517 2.94112 0.586346 0
M  V30 8740 H 840.07 1.53973 0.268716 0
M  V30 8741 H 840.805 1.63389 2.80133 0
M  V30 8742 H 840.59 3.28239 2.1448 0
M  V30 8743 H 842.08 2.86181 3.04122 0
M  V30 8744 N 842.517 -0.29412 1.54831 0
M  V30 8745 C 843.48 -1.3461 1.85507 0
M  V30 8746 C 844.48 -1.43359 0.728343 0
M  V30 8747 O 845.67 -1.42875 0.996609 0
M  V30 8748 C 842.802 -2.73012 2.0415 0
M  V30 8749 H 843.995 -1.08651 2.79526 0
M  V30 8750 H 841.548 -0.531138 1.46999 0
M  V30 8751 H 842.283 -3.04183 1.12441 0
M  V30 8752 H 842.068 -2.68051 2.86166 0
M  V30 8753 H 843.558 -3.49061 2.29229 0
M  V30 8754 N 843.995 -1.47404 -0.557645 0
M  V30 8755 C 844.943 -1.60265 -1.68576 0
M  V30 8756 C 845.937 -0.469982 -1.6275 0
M  V30 8757 O 847.143 -0.647764 -1.67941 0
M  V30 8758 H 843.518 -0.504353 -0.557792 0
M  V30 8759 H 845.489 -2.55066 -1.54867 0
M  V30 8760 C 844.238 -1.63369 -3.0693 0
M  V30 8761 H 843.561 -2.49874 -3.12095 0
M  V30 8762 H 845.001 -1.76417 -3.85556 0
M  V30 8763 C 843.46 -0.366921 -3.34896 0
M  V30 8764 O 843.99 0.53218 -3.98159 0
M  V30 8765 N 842.196 -0.247082 -2.89548 0
M  V30 8766 H 841.743 -0.979669 -2.38244 0
M  V30 8767 H 841.701 0.599552 -3.0863 0
M  V30 8768 N 845.473 0.80434 -1.35529 0
M  V30 8769 C 846.72 1.56154 -1.28927 0
M  V30 8770 C 847.048 1.94026 0.135682 0
M  V30 8771 O 846.303 1.61759 1.10148 0
M  V30 8772 C 846.602 2.85988 -2.14349 0
M  V30 8773 C 846.268 2.67323 -3.6311 0
M  V30 8774 C 844.93 2.61941 -4.03659 0
M  V30 8775 C 847.282 2.49699 -4.57493 0
M  V30 8776 C 844.61 2.3688 -5.36754 0
M  V30 8777 C 846.962 2.26168 -5.90788 0
M  V30 8778 C 845.626 2.19209 -6.30479 0
M  V30 8779 H 844.896 0.571407 -0.471779 0
M  V30 8780 H 847.543 0.929193 -1.67446 0
M  V30 8781 H 845.848 3.53612 -1.68718 0
M  V30 8782 H 847.545 3.43697 -2.06576 0
M  V30 8783 H 844.135 2.72361 -3.30934 0
M  V30 8784 H 848.319 2.52869 -4.27049 0
M  V30 8785 H 843.575 2.29964 -5.66504 0
M  V30 8786 H 847.749 2.11522 -6.63499 0
M  V30 8787 H 845.376 1.99553 -7.33541 0
M  V30 8788 N 846.951 1.19563 1.02676 0
M  V30 8789 C 848.198 0.999568 1.7611 0
M  V30 8790 C 848.526 -0.469432 1.8875 0
M  V30 8791 O 847.781 -1.36481 1.40255 0
M  V30 8792 C 848.08 1.61619 3.18769 0
M  V30 8793 C 847.746 3.11366 3.26132 0
M  V30 8794 C 846.408 3.52234 3.27848 0
M  V30 8795 C 848.76 4.07374 3.25109 0
M  V30 8796 C 846.088 4.87658 3.26201 0
M  V30 8797 C 848.44 5.42731 3.25002 0
M  V30 8798 C 847.104 5.83027 3.25017 0
M  V30 8799 H 846.374 0.365768 0.644434 0
M  V30 8800 H 849.021 1.48838 1.20497 0
M  V30 8801 H 847.326 1.04974 3.77476 0
M  V30 8802 H 849.023 1.43975 3.74262 0
M  V30 8803 H 845.613 2.78804 3.25525 0
M  V30 8804 H 849.797 3.76842 3.22961 0
M  V30 8805 H 845.053 5.18156 3.24537 0
M  V30 8806 H 849.227 6.16879 3.23161 0
M  V30 8807 H 846.854 6.87936 3.23494 0
M  V30 8808 N 848.429 -1.21819 0.999893 0
M  V30 8809 C 849.376 -2.24003 0.556005 0
M  V30 8810 C 850.346 -1.60825 -0.415287 0
M  V30 8811 O 851.531 -1.88123 -0.318481 0
M  V30 8812 C 848.671 -3.44904 -0.116289 0
M  V30 8813 C 847.784 -4.22573 0.897574 0
M  V30 8814 C 846.919 -5.30831 0.198073 0
M  V30 8815 C 845.958 -6.00225 1.19983 0
M  V30 8816 N 845.095 -7.00111 0.528157 0
M  V30 8817 H 849.935 -2.61334 1.43208 0
M  V30 8818 H 847.472 -1.28431 0.717205 0
M  V30 8819 H 849.43 -4.13908 -0.523055 0
M  V30 8820 H 848.06 -3.08315 -0.956108 0
M  V30 8821 H 847.112 -3.52797 1.42262 0
M  V30 8822 H 848.424 -4.70363 1.66013 0
M  V30 8823 H 847.578 -6.06121 -0.265065 0
M  V30 8824 H 846.317 -4.84033 -0.596924 0
M  V30 8825 H 845.322 -5.23711 1.67353 0
M  V30 8826 H 846.547 -6.4911 1.99582 0
M  V30 8827 H 844.493 -6.55534 -0.247276 0
M  V30 8828 H 844.41 -7.45943 1.22904 0
M  V30 8829 H 845.678 -7.7945 0.0880543 0
M  V30 8830 N 849.908 -0.773975 -1.37286 0
M  V30 8831 C 850.818 -0.162571 -2.34036 0
M  V30 8832 C 851.834 0.677022 -1.60289 0
M  V30 8833 O 853.01 0.596423 -1.92366 0
M  V30 8834 C 850.075 0.70457 -3.39465 0
M  V30 8835 C 849.136 -0.151738 -4.29032 0
M  V30 8836 C 848.369 0.674111 -5.29426 0
M  V30 8837 O 848.592 1.91107 -5.37433 0
M  V30 8838 O 847.526 0.0821398 -6.01844 0
M  V30 8839 H 851.352 -0.962119 -2.88057 0
M  V30 8840 H 848.937 -0.53517 -1.39486 0
M  V30 8841 H 850.819 1.19954 -4.03967 0
M  V30 8842 H 849.494 1.48227 -2.87768 0
M  V30 8843 H 848.401 -0.693118 -3.67623 0
M  V30 8844 H 849.734 -0.892575 -4.84039 0
M  V30 8845 N 851.386 1.48609 -0.524698 0
M  V30 8846 C 852.632 2.02797 0.0113382 0
M  V30 8847 C 852.965 1.40147 1.34433 0
M  V30 8848 O 852.24 0.545368 1.86698 0
M  V30 8849 C 852.523 3.59832 0.138931 0
M  V30 8850 C 852.376 4.32971 -1.21886 0
M  V30 8851 C 853.695 4.3145 0.868265 0
M  V30 8852 H 850.814 0.736995 0.00264645 0
M  V30 8853 H 853.456 1.77388 -0.680704 0
M  V30 8854 H 851.606 3.81612 0.72834 0
M  V30 8855 H 853.278 4.22624 -1.84897 0
M  V30 8856 H 851.521 3.94597 -1.80211 0
M  V30 8857 H 852.192 5.41279 -1.08263 0
M  V30 8858 H 854.668 4.14468 0.368145 0
M  V30 8859 H 853.544 5.41025 0.926428 0
M  V30 8860 H 853.805 3.98358 1.91737 0
M  V30 8861 N 852.864 0.259585 1.55447 0
M  V30 8862 C 854.141 -0.412595 1.91199 0
M  V30 8863 C 854.521 -1.74909 1.18194 0
M  V30 8864 O 853.869 -2.26474 0.303603 0
M  V30 8865 C 854.079 -0.568195 3.44344 0
M  V30 8866 C 855.427 -0.858253 4.15836 0
M  V30 8867 O 856.451 -0.653588 3.50152 0
M  V30 8868 O 855.31 -1.24874 5.32042 0
M  V30 8869 H 852.404 -0.223403 0.796254 0
M  V30 8870 H 854.95 0.30459 1.66944 0
M  V30 8871 H 853.722 0.372989 3.89518 0
M  V30 8872 H 853.345 -1.33544 3.74502 0
M  V30 8873 N 854.342 -1.57594 -0.0133615 0
M  V30 8874 C 855.252 -2.10991 -1.02566 0
M  V30 8875 C 856.268 -1.05208 -1.3859 0
M  V30 8876 O 857.444 -1.37034 -1.47593 0
M  V30 8877 C 854.509 -2.59165 -2.30292 0
M  V30 8878 C 853.57 -3.79495 -2.00704 0
M  V30 8879 C 852.803 -4.25361 -3.22341 0
M  V30 8880 O 853.026 -3.70645 -4.33565 0
M  V30 8881 O 851.96 -5.17649 -3.07121 0
M  V30 8882 H 855.786 -2.97678 -0.601806 0
M  V30 8883 H 853.371 -1.47598 -0.23135 0
M  V30 8884 H 855.253 -2.90409 -3.05354 0
M  V30 8885 H 853.928 -1.75582 -2.71942 0
M  V30 8886 H 852.835 -3.53245 -1.23161 0
M  V30 8887 H 854.168 -4.64109 -1.639 0
M  V30 8888 N 855.82 0.285905 -1.54985 0
M  V30 8889 C 857.06 1.02699 -1.76726 0
M  V30 8890 C 857.424 1.83962 -0.549717 0
M  V30 8891 O 858.625 2.60943 -0.645142 0
M  V30 8892 C 856.896 1.89671 -3.02919 0
M  V30 8893 S 858.455 2.7022 -3.45726 0
M  V30 8894 H 855.273 0.346114 -0.621068 0
M  V30 8895 H 857.875 0.298764 -1.93204 0
M  V30 8896 H 856.579 1.28873 -3.89641 0
M  V30 8897 H 856.11 2.66836 -2.89071 0
M  V30 8898 H 858.125 3.92184 -3.03983 0
M  V30 8899 N 857.298 1.47698 0.54982 0
M  V30 8900 C 858.523 1.58579 1.33669 0
M  V30 8901 C 858.948 0.239049 1.86575 0
M  V30 8902 O 858.306 -0.786256 1.63364 0
M  V30 8903 C 858.354 2.62029 2.47736 0
M  V30 8904 O 857.458 2.17813 3.50188 0
M  V30 8905 H 856.799 0.532447 0.396732 0
M  V30 8906 H 859.329 1.93536 0.6637 0
M  V30 8907 H 859.339 2.82682 2.94202 0
M  V30 8908 H 858.014 3.59812 2.08586 0
M  V30 8909 H 856.591 2.07291 3.09976 0
M  V30 8910 N 858.776 -0.797141 1.35954 0
M  V30 8911 C 860.022 -1.55636 1.30954 0
M  V30 8912 C 860.377 -1.92071 -0.112515 0
M  V30 8913 O 859.67 -1.5926 -1.06521 0
M  V30 8914 C 859.864 -2.84847 2.15863 0
M  V30 8915 C 859.693 -2.61039 3.66182 0
M  V30 8916 C 858.463 -2.56452 4.35385 0
M  V30 8917 C 860.661 -2.30766 4.59621 0
M  V30 8918 N 858.643 -2.2446 5.71394 0
M  V30 8919 C 860.014 -2.08695 5.8382 0
M  V30 8920 C 862.069 -2.16708 4.48266 0
M  V30 8921 C 860.772 -1.73989 6.9794 0
M  V30 8922 C 862.798 -1.83399 5.62244 0
M  V30 8923 C 862.16 -1.62171 6.85478 0
M  V30 8924 H 858.259 -0.570853 0.534463 0
M  V30 8925 H 860.843 -0.932261 1.7093 0
M  V30 8926 H 859.014 -3.45137 1.78144 0
M  V30 8927 H 860.746 -3.50503 2.02311 0
M  V30 8928 H 857.501 -2.7143 3.88101 0
M  V30 8929 H 857.925 -2.11232 6.43203 0
M  V30 8930 H 862.567 -2.31814 3.53585 0
M  V30 8931 H 860.285 -1.57621 7.92579 0
M  V30 8932 H 863.871 -1.73217 5.55416 0
M  V30 8933 H 862.751 -1.36774 7.7218 0
M  V30 8934 N 860.254 -1.20106 -1.0204 0
M  V30 8935 C 861.665 -1.00992 -1.57027 0
M  V30 8936 C 862.016 0.434782 -1.91322 0
M  V30 8937 O 861.141 1.31557 -1.71819 0
M  V30 8938 C 861.736 -1.82697 -2.85319 0
M  V30 8939 C 860.295 -1.67959 -3.36848 0
M  V30 8940 C 859.442 -1.80868 -2.10195 0
M  V30 8941 H 862.393 -1.34354 -0.844676 0
M  V30 8942 H 862.414 -1.32809 -3.5657 0
M  V30 8943 H 861.926 -2.87839 -2.60328 0
M  V30 8944 H 860.027 -0.654389 -3.66809 0
M  V30 8945 H 860.14 -2.49006 -4.09308 0
M  V30 8946 H 858.504 -1.24015 -2.22469 0
M  V30 8947 H 859.287 -2.87486 -1.87635 0
M  V30 8948 N 861.732 1.21287 -1.00634 0
M  V30 8949 C 863.009 1.86 -0.605257 0
M  V30 8950 C 863.389 1.90139 0.917072 0
M  V30 8951 O 862.737 1.40169 1.80458 0
M  V30 8952 C 862.947 3.26183 -1.24119 0
M  V30 8953 C 864.295 4.02562 -1.35015 0
M  V30 8954 O 865.319 3.35499 -1.19661 0
M  V30 8955 O 864.178 5.22638 -1.59726 0
M  V30 8956 H 861.272 0.800549 -0.207486 0
M  V30 8957 H 863.818 1.28959 -1.10307 0
M  V30 8958 H 862.59 3.17878 -2.28186 0
M  V30 8959 H 862.213 3.90845 -0.729807 0
M  V30 8960 N 863.21 0.781244 1.36873 0
M  V30 8961 C 864.16 0.147313 2.27524 0
M  V30 8962 C 865.144 -0.663928 1.46563 0
M  V30 8963 O 866.336 -0.525343 1.69024 0
M  V30 8964 C 863.465 -0.723511 3.35589 0
M  V30 8965 C 862.551 0.0960763 4.23991 0
M  V30 8966 N 862.942 1.14649 4.92635 0
M  V30 8967 C 861.24 -0.126397 4.45821 0
M  V30 8968 C 861.941 1.64474 5.57964 0
M  V30 8969 N 860.917 0.955316 5.3514 0
M  V30 8970 H 864.719 0.951406 2.78075 0
M  V30 8971 H 862.233 0.619913 1.50103 0
M  V30 8972 H 864.23 -1.19351 3.99451 0
M  V30 8973 H 862.89 -1.52624 2.86594 0
M  V30 8974 H 863.901 1.5288 4.94821 0
M  V30 8975 H 860.578 -0.900284 4.07678 0
M  V30 8976 H 861.968 2.52124 6.22803 0
M  V30 8977 N 864.689 -1.48329 0.532571 0
M  V30 8978 C 865.937 -2.021 -0.000581206 0
M  V30 8979 C 866.258 -1.4117 -1.34522 0
M  V30 8980 O 865.528 -0.578005 -1.87179 0
M  V30 8981 H 864.108 -0.746993 -0.00320281 0
M  V30 8982 H 866.77 -1.82011 0.696991 0
M  V30 8983 H 865.866 -3.11917 -0.106991 0
M  V30 8984 N 866.167 -0.267825 -1.55308 0
M  V30 8985 C 867.415 0.350343 -1.9904 0
M  V30 8986 C 867.736 1.56924 -1.15758 0
M  V30 8987 O 867.006 1.94358 -0.245336 0
M  V30 8988 H 865.586 0.132435 -0.735167 0
M  V30 8989 H 868.248 -0.371471 -1.91327 0
M  V30 8990 H 867.344 0.645203 -3.05358 0
M  V30 8991 N 867.645 1.57599 0.00500368 0
M  V30 8992 C 868.885 1.92205 0.695456 0
M  V30 8993 C 869.249 0.868894 1.71214 0
M  V30 8994 O 870.45 1.10004 2.4526 0
M  V30 8995 C 868.721 3.31882 1.32625 0
M  V30 8996 S 870.28 3.88364 2.04252 0
M  V30 8997 H 867.098 0.672826 0.22984 0
M  V30 8998 H 869.7 1.95435 -0.0504824 0
M  V30 8999 H 868.404 4.06375 0.573396 0
M  V30 9000 H 867.935 3.32013 2.11023 0
M  V30 9001 H 869.95 3.69035 3.31704 0
M  V30 9002 N 869.123 -0.277682 1.55134 0
M  V30 9003 C 870.033 -1.36524 1.90783 0
M  V30 9004 C 871.049 -1.54283 0.804542 0
M  V30 9005 O 872.225 -1.68499 1.10318 0
M  V30 9006 C 869.29 -2.70524 2.16835 0
M  V30 9007 C 868.351 -2.61552 3.40424 0
M  V30 9008 C 867.584 -3.89162 3.65224 0
M  V30 9009 O 867.807 -4.89624 2.92616 0
M  V30 9010 O 866.741 -3.89647 4.58758 0
M  V30 9011 H 870.567 -1.0929 2.83354 0
M  V30 9012 H 868.152 -0.475799 1.41621 0
M  V30 9013 H 870.034 -3.49765 2.35038 0
M  V30 9014 H 868.709 -2.97555 1.27448 0
M  V30 9015 H 867.616 -1.80704 3.27562 0
M  V30 9016 H 868.949 -2.39472 4.30016 0
M  V30 9017 N 870.601 -1.47988 -0.541979 0
M  V30 9018 C 871.551 -1.58019 -1.64359 0
M  V30 9019 C 872.535 -0.438056 -1.54822 0
M  V30 9020 O 873.727 -0.688837 -1.63046 0
M  V30 9021 C 870.856 -1.61182 -3.03109 0
M  V30 9022 C 869.942 -2.80834 -3.17794 0
M  V30 9023 N 870.333 -4.05379 -3.02492 0
M  V30 9024 C 868.631 -2.77914 -3.48826 0
M  V30 9025 C 869.332 -4.85592 -3.20274 0
M  V30 9026 N 868.308 -4.18188 -3.47304 0
M  V30 9027 H 872.11 -2.52071 -1.5112 0
M  V30 9028 H 869.624 -1.44193 -0.747137 0
M  V30 9029 H 871.621 -1.66461 -3.82226 0
M  V30 9030 H 870.281 -0.682375 -3.17449 0
M  V30 9031 H 871.292 -4.36003 -2.79503 0
M  V30 9032 H 867.969 -1.94174 -3.69598 0
M  V30 9033 H 869.359 -5.94394 -3.13282 0
M  V30 9034 N 872.079 0.78992 -1.36375 0
M  V30 9035 C 873.495 1.0879 -1.16777 0
M  V30 9036 C 873.695 2.01498 0.00848236 0
M  V30 9037 O 872.751 2.43338 0.674007 0
M  V30 9038 C 874.064 1.70285 -2.47837 0
M  V30 9039 C 875.612 1.82629 -2.54196 0
M  V30 9040 C 876.087 2.47539 -3.85342 0
M  V30 9041 N 877.578 2.55008 -3.86685 0
M  V30 9042 C 878.313 3.06041 -4.84898 0
M  V30 9043 N 877.809 3.57385 -5.93505 0
M  V30 9044 N 879.602 3.04748 -4.72319 0
M  V30 9045 H 871.753 0.173985 -2.11686 0
M  V30 9046 H 874.016 0.139798 -0.937636 0
M  V30 9047 H 873.722 1.09633 -3.34176 0
M  V30 9048 H 873.596 2.69799 -2.63607 0
M  V30 9049 H 875.983 2.42419 -1.68276 0
M  V30 9050 H 876.064 0.81923 -2.42327 0
M  V30 9051 H 875.708 1.88393 -4.71668 0
M  V30 9052 H 875.638 3.48815 -3.94507 0
M  V30 9053 H 878.129 2.18651 -3.08221 0
M  V30 9054 H 878.442 3.94674 -6.64419 0
M  V30 9055 H 876.787 3.55538 -5.97175 0
M  V30 9056 H 879.978 2.63925 -3.86602 0
M  V30 9057 H 880.151 3.44212 -5.49019 0
M  V30 9058 N 873.557 1.20646 1.01402 0
M  V30 9059 C 874.797 1.02951 1.7658 0
M  V30 9060 C 875.161 -0.430522 1.87111 0
M  V30 9061 O 876.362 -0.727727 2.58762 0
M  V30 9062 C 874.633 1.69728 3.14527 0
M  V30 9063 S 876.192 1.6717 4.05709 0
M  V30 9064 H 873.01 0.36911 0.607683 0
M  V30 9065 H 875.612 1.53243 1.21395 0
M  V30 9066 H 874.316 2.75162 3.0449 0
M  V30 9067 H 873.847 1.19578 3.74786 0
M  V30 9068 H 875.862 0.706397 4.91146 0
M  V30 9069 N 875.035 -1.20752 1.01276 0
M  V30 9070 C 876.281 -1.90302 0.700924 0
M  V30 9071 C 876.614 -1.78406 -0.767142 0
M  V30 9072 O 875.889 -1.16575 -1.55694 0
M  V30 9073 C 876.172 -3.41831 1.13242 0
M  V30 9074 C 876.025 -3.6268 2.66051 0
M  V30 9075 C 877.344 -4.34486 0.700738 0
M  V30 9076 H 874.463 -0.69107 0.256107 0
M  V30 9077 H 877.105 -1.42227 1.25982 0
M  V30 9078 H 875.255 -3.82906 0.656902 0
M  V30 9079 H 876.927 -3.30882 3.21426 0
M  V30 9080 H 875.17 -3.06281 3.07204 0
M  V30 9081 H 875.841 -4.68882 2.91296 0
M  V30 9082 H 878.317 -4.01036 1.10948 0
M  V30 9083 H 877.193 -5.39136 1.03073 0
M  V30 9084 H 877.454 -4.40307 -0.39778 0
M  V30 9085 N 876.513 -0.788492 -1.36457 0
M  V30 9086 C 877.461 -0.174192 -2.31947 0
M  V30 9087 C 878.455 0.665974 -1.5576 0
M  V30 9088 O 879.661 0.561161 -1.71029 0
M  V30 9089 H 876.036 -0.0375538 -0.751062 0
M  V30 9090 H 878.007 -0.995011 -2.81322 0
M  V30 9091 C 876.756 0.677276 -3.4104 0
M  V30 9092 H 876.079 0.0401418 -3.9978 0
M  V30 9093 H 877.519 1.07379 -4.10178 0
M  V30 9094 C 875.978 1.83512 -2.82533 0
M  V30 9095 O 876.508 2.93164 -2.74623 0
M  V30 9096 N 874.714 1.64095 -2.39836 0
M  V30 9097 H 874.261 0.749046 -2.46469 0
M  V30 9098 H 874.219 2.41726 -2.01037 0
M  V30 9099 N 877.991 1.48044 -0.54043 0
M  V30 9100 C 879.219 2.06895 -0.0145153 0
M  V30 9101 C 879.634 1.39552 1.27164 0
M  V30 9102 O 878.991 0.486454 1.75897 0
M  V30 9103 C 879.042 3.60934 0.202278 0
M  V30 9104 O 878.763 4.25749 -1.03293 0
M  V30 9105 C 880.264 4.36607 0.767387 0
M  V30 9106 H 877.484 0.66991 -0.0382368 0
M  V30 9107 H 880.028 1.90288 -0.749057 0
M  V30 9108 H 878.183 3.77111 0.886897 0
M  V30 9109 H 878.597 5.18048 -0.820167 0
M  V30 9110 H 880.071 5.45126 0.86845 0
M  V30 9111 H 880.548 4.01745 1.77477 0
M  V30 9112 H 881.154 4.25133 0.119002 0
M  V30 9113 N 879.47 0.276058 1.55163 0
M  V30 9114 C 880.4 -0.604633 2.25536 0
M  V30 9115 C 881.381 -1.15813 1.24585 0
M  V30 9116 O 882.566 -1.1921 1.53306 0
M  V30 9117 C 879.696 -1.78836 2.97716 0
M  V30 9118 C 878.65 -1.36635 4.05604 0
M  V30 9119 C 877.976 -2.63325 4.65364 0
M  V30 9120 C 879.276 -0.515858 5.19746 0
M  V30 9121 H 880.97 -0.0177483 2.99395 0
M  V30 9122 H 878.516 -0.00709627 1.43998 0
M  V30 9123 H 880.469 -2.41036 3.45658 0
M  V30 9124 H 879.193 -2.40109 2.21394 0
M  V30 9125 H 877.852 -0.767541 3.58475 0
M  V30 9126 H 877.5 -3.22858 3.85709 0
M  V30 9127 H 877.2 -2.358 5.38212 0
M  V30 9128 H 878.724 -3.26372 5.16056 0
M  V30 9129 H 880.138 -1.04289 5.63735 0
M  V30 9130 H 878.535 -0.335449 5.99162 0
M  V30 9131 H 879.605 0.465137 4.82664 0
M  V30 9132 N 880.948 -1.576 0.00335426 0
M  V30 9133 C 882.196 -1.90336 -0.679446 0
M  V30 9134 C 882.517 -0.877777 -1.74127 0
M  V30 9135 O 881.787 0.0843585 -1.95718 0
M  V30 9136 H 880.367 -0.702509 -0.253948 0
M  V30 9137 H 883.029 -1.94848 0.0450731 0
M  V30 9138 H 882.125 -2.90197 -1.14857 0
M  V30 9139 N 882.426 0.269451 -1.5528 0
M  V30 9140 C 883.651 1.02299 -1.80415 0
M  V30 9141 C 884.076 1.7902 -0.577363 0
M  V30 9142 O 883.434 1.75018 0.473125 0
M  V30 9143 C 883.482 1.95445 -3.0304 0
M  V30 9144 O 882.586 3.04271 -2.78375 0
M  V30 9145 H 881.927 0.292289 -0.596207 0
M  V30 9146 H 884.457 0.297282 -2.02429 0
M  V30 9147 H 884.467 2.37333 -3.31869 0
M  V30 9148 H 883.142 1.39017 -3.91978 0
M  V30 9149 H 881.719 2.66673 -2.60653 0
M  V30 9150 N 883.904 1.48273 0.534124 0
M  V30 9151 C 885.134 1.59503 1.31311 0
M  V30 9152 C 885.542 0.25284 1.87503 0
M  V30 9153 O 884.885 -0.767399 1.66903 0
M  V30 9154 C 884.947 2.57899 2.50456 0
M  V30 9155 C 884.611 4.03063 2.15382 0
M  V30 9156 C 885.608 4.90869 1.713 0
M  V30 9157 C 883.293 4.4857 2.26032 0
M  V30 9158 C 885.287 6.22209 1.38328 0
M  V30 9159 C 882.974 5.79932 1.92672 0
M  V30 9160 C 883.972 6.66574 1.4889 0
M  V30 9161 O 883.66 7.95492 1.15966 0
M  V30 9162 H 883.392 0.540695 0.405739 0
M  V30 9163 H 885.946 1.94794 0.651497 0
M  V30 9164 H 884.176 2.1772 3.19585 0
M  V30 9165 H 885.865 2.59008 3.12522 0
M  V30 9166 H 886.631 4.56951 1.62545 0
M  V30 9167 H 882.51 3.81321 2.59066 0
M  V30 9168 H 886.054 6.89792 1.04082 0
M  V30 9169 H 881.951 6.13386 2.01066 0
M  V30 9170 H 882.719 8.08207 1.29399 0
M  V30 9171 N 885.382 -0.782676 1.36792 0
M  V30 9172 C 886.329 -1.89558 1.31667 0
M  V30 9173 C 887.299 -1.65076 0.184147 0
M  V30 9174 O 888.484 -1.87143 0.371753 0
M  V30 9175 C 885.624 -3.26469 1.11858 0
M  V30 9176 C 884.737 -3.62978 2.34245 0
M  V30 9177 C 883.872 -4.89041 2.07394 0
M  V30 9178 C 882.911 -5.18249 3.25706 0
M  V30 9179 N 882.048 -6.35497 2.98476 0
M  V30 9180 H 886.888 -1.93274 2.26824 0
M  V30 9181 H 884.425 -0.945057 1.12726 0
M  V30 9182 H 886.383 -4.05431 0.983968 0
M  V30 9183 H 885.013 -3.22158 0.203531 0
M  V30 9184 H 884.065 -2.79087 2.58485 0
M  V30 9185 H 885.377 -3.80507 3.22514 0
M  V30 9186 H 884.531 -5.75883 1.90901 0
M  V30 9187 H 883.27 -4.73594 1.16446 0
M  V30 9188 H 882.275 -4.29887 3.4275 0
M  V30 9189 H 883.5 -5.35611 4.1749 0
M  V30 9190 H 881.446 -6.21429 2.10146 0
M  V30 9191 H 881.363 -6.5339 3.80286 0
M  V30 9192 H 882.631 -7.25304 2.85577 0
M  V30 9193 N 886.86 -1.21182 -1.00761 0
M  V30 9194 C 888.1 -1.03886 -1.76031 0
M  V30 9195 C 888.464 0.420593 -1.87337 0
M  V30 9196 O 889.665 0.713994 -2.59144 0
M  V30 9197 C 887.936 -1.71394 -3.13622 0
M  V30 9198 S 889.495 -1.69319 -4.04816 0
M  V30 9199 H 886.313 -0.372327 -0.605717 0
M  V30 9200 H 888.915 -1.53885 -1.20581 0
M  V30 9201 H 887.619 -2.76773 -3.03026 0
M  V30 9202 H 887.15 -1.21564 -3.74147 0
M  V30 9203 H 889.165 -0.732434 -4.90765 0
M  V30 9204 N 888.338 1.20213 -1.01915 0
M  V30 9205 C 889.301 2.21307 -0.596327 0
M  V30 9206 C 890.301 1.57274 0.334879 0
M  V30 9207 O 891.491 1.73764 0.12322 0
M  V30 9208 C 888.623 3.40657 0.128808 0
M  V30 9209 H 889.816 2.60228 -1.49068 0
M  V30 9210 H 887.369 1.33721 -0.809226 0
M  V30 9211 H 888.104 3.07241 1.03796 0
M  V30 9212 H 887.889 3.88361 -0.540183 0
M  V30 9213 H 889.379 4.15564 0.411892 0
M  V30 9214 N 889.816 0.795718 1.36037 0
M  V30 9215 C 891.056 0.376514 2.00902 0
M  V30 9216 C 891.42 -1.03405 1.61776 0
M  V30 9217 O 892.621 -1.55468 2.19279 0
M  V30 9218 C 890.892 0.542086 3.53265 0
M  V30 9219 S 892.451 0.211694 4.38289 0
M  V30 9220 H 889.269 0.143527 0.696363 0
M  V30 9221 H 891.871 1.03559 1.65819 0
M  V30 9222 H 890.575 1.56888 3.79229 0
M  V30 9223 H 890.106 -0.132698 3.93176 0
M  V30 9224 H 892.121 -0.98452 4.86335 0
M  V30 9225 N 891.294 -1.47756 0.548274 0
M  V30 9226 C 892.571 -1.9555 -0.0443603 0
M  V30 9227 C 892.951 -1.49079 -1.49462 0
M  V30 9228 O 892.299 -0.725538 -2.16675 0
M  V30 9229 C 892.509 -3.48879 0.0918425 0
M  V30 9230 C 893.857 -4.2456 -0.0580879 0
M  V30 9231 O 894.881 -3.56195 0.018946 0
M  V30 9232 O 893.74 -5.46048 -0.222261 0
M  V30 9233 H 890.834 -0.824106 -0.0691235 0
M  V30 9234 H 893.38 -1.58196 0.614166 0
M  V30 9235 H 892.152 -3.7548 1.10137 0
M  V30 9236 H 891.775 -3.92975 -0.604704 0
M  V30 9237 N 892.772 -0.284283 -1.55015 0
M  V30 9238 C 894.183 0.211681 -1.85496 0
M  V30 9239 C 894.534 1.54735 -1.2063 0
M  V30 9240 O 893.659 2.10594 -0.497918 0
M  V30 9241 C 894.254 0.390864 -3.36538 0
M  V30 9242 C 892.813 0.831055 -3.67111 0
M  V30 9243 C 891.96 -0.0703581 -2.77211 0
M  V30 9244 H 894.911 -0.505803 -1.50424 0
M  V30 9245 H 894.932 1.22803 -3.60138 0
M  V30 9246 H 894.444 -0.581409 -3.8372 0
M  V30 9247 H 892.545 1.81447 -3.25434 0
M  V30 9248 H 892.658 0.662026 -4.74504 0
M  V30 9249 H 891.022 0.447528 -2.50737 0
M  V30 9250 H 891.805 -1.03868 -3.2721 0
M  V30 9251 N 894.251 1.57596 -0.0117121 0
M  V30 9252 C 895.499 1.90694 0.669342 0
M  V30 9253 C 895.82 0.886999 1.73659 0
M  V30 9254 O 895.09 -0.0739779 1.9576 0
M  V30 9255 H 893.67 0.703846 0.250219 0
M  V30 9256 H 896.332 1.94821 -0.0554057 0
M  V30 9257 H 895.428 2.90802 1.13316 0
M  V30 9258 N 895.729 -0.261212 1.5542 0
M  V30 9259 C 896.959 -1.00769 1.80358 0
M  V30 9260 C 897.367 -1.79991 0.583085 0
M  V30 9261 O 896.71 -1.77911 -0.457534 0
M  V30 9262 C 896.772 -2.00463 2.9842 0
M  V30 9263 C 896.436 -1.4007 4.35005 0
M  V30 9264 C 897.433 -0.810388 5.13545 0
M  V30 9265 C 895.118 -1.42436 4.81682 0
M  V30 9266 C 897.112 -0.251784 6.36903 0
M  V30 9267 C 894.799 -0.861897 6.04991 0
M  V30 9268 C 895.797 -0.276622 6.8244 0
M  V30 9269 O 895.485 0.277194 8.03422 0
M  V30 9270 H 895.217 -0.302839 0.604371 0
M  V30 9271 H 897.771 -0.293763 2.03288 0
M  V30 9272 H 896.001 -2.75648 2.71211 0
M  V30 9273 H 897.69 -2.61336 3.10577 0
M  V30 9274 H 898.456 -0.784719 4.7861 0
M  V30 9275 H 894.335 -1.8693 4.214 0
M  V30 9276 H 897.879 0.205678 6.97297 0
M  V30 9277 H 893.776 -0.884846 6.39407 0
M  V30 9278 H 894.544 0.167682 8.18328 0
M  V30 9279 N 897.207 -1.48554 -0.526253 0
M  V30 9280 C 898.117 -1.66044 -1.65731 0
M  V30 9281 C 899.133 -0.542951 -1.65312 0
M  V30 9282 O 900.309 -0.814495 -1.84195 0
M  V30 9283 C 897.374 -1.69959 -3.02184 0
M  V30 9284 C 896.435 -2.93362 -3.13428 0
M  V30 9285 C 895.668 -2.97081 -4.43372 0
M  V30 9286 O 895.891 -2.09103 -5.3069 0
M  V30 9287 O 894.825 -3.8929 -4.59061 0
M  V30 9288 H 898.651 -2.61811 -1.53912 0
M  V30 9289 H 896.236 -1.31999 -0.699759 0
M  V30 9290 H 898.118 -1.75033 -3.83329 0
M  V30 9291 H 896.793 -0.773658 -3.14319 0
M  V30 9292 H 895.7 -2.93818 -2.31564 0
M  V30 9293 H 897.033 -3.85352 -3.06211 0
M  V30 9294 N 898.685 0.775411 -1.37205 0
M  V30 9295 C 899.615 1.90258 -1.35367 0
M  V30 9296 C 900.596 1.68634 -0.222864 0
M  V30 9297 O 901.781 1.89545 -0.422659 0
M  V30 9298 C 898.911 3.27488 -1.15623 0
M  V30 9299 C 897.865 3.63668 -2.25676 0
M  V30 9300 C 897.191 4.994 -1.91059 0
M  V30 9301 C 898.491 3.70797 -3.67841 0
M  V30 9302 H 900.185 1.92053 -2.29687 0
M  V30 9303 H 897.731 0.922597 -1.10563 0
M  V30 9304 H 899.684 4.05976 -1.12968 0
M  V30 9305 H 898.408 3.26117 -0.177573 0
M  V30 9306 H 897.067 2.87486 -2.2748 0
M  V30 9307 H 896.715 4.94565 -0.917324 0
M  V30 9308 H 896.415 5.24576 -2.64751 0
M  V30 9309 H 897.939 5.80291 -1.89985 0
M  V30 9310 H 899.353 4.39444 -3.68187 0
M  V30 9311 H 897.75 4.07468 -4.40556 0
M  V30 9312 H 898.82 2.71549 -4.01732 0
M  V30 9313 N 900.163 1.21714 1.00117 0
M  V30 9314 C 901.126 0.981338 2.07129 0
M  V30 9315 C 902.126 -0.0491116 1.60725 0
M  V30 9316 O 903.316 0.188555 1.73177 0
M  V30 9317 C 900.448 0.480608 3.37495 0
M  V30 9318 H 901.641 1.93075 2.29482 0
M  V30 9319 H 899.194 1.03467 1.17151 0
M  V30 9320 H 899.929 -0.473552 3.20824 0
M  V30 9321 H 899.714 1.22393 3.72508 0
M  V30 9322 H 901.204 0.33561 4.16249 0
M  V30 9323 N 901.641 -1.19671 1.02551 0
M  V30 9324 C 902.604 -2.20987 0.608055 0
M  V30 9325 C 903.604 -1.5745 -0.326534 0
M  V30 9326 O 904.794 -1.73827 -0.114003 0
M  V30 9327 C 901.926 -3.4072 -0.11074 0
M  V30 9328 H 903.119 -2.59434 1.50446 0
M  V30 9329 H 900.672 -1.3329 0.816307 0
M  V30 9330 H 901.407 -3.07787 -1.02165 0
M  V30 9331 H 901.192 -3.88069 0.560772 0
M  V30 9332 H 902.682 -4.15776 -0.389848 0
M  V30 9333 N 903.119 -0.802921 -1.35613 0
M  V30 9334 C 904.396 -0.304993 -1.93208 0
M  V30 9335 C 904.776 1.20488 -1.73337 0
M  V30 9336 O 904.124 2.00268 -1.10022 0
M  V30 9337 C 904.334 -0.712383 -3.41652 0
M  V30 9338 C 905.682 -0.699785 -4.18794 0
M  V30 9339 O 906.706 -0.653698 -3.5015 0
M  V30 9340 O 905.565 -0.754842 -5.41262 0
M  V30 9341 H 902.659 -0.0789127 -0.823226 0
M  V30 9342 H 905.205 -0.886372 -1.44712 0
M  V30 9343 H 903.977 -1.75316 -3.49829 0
M  V30 9344 H 903.6 -0.105614 -3.9746 0
M  V30 9345 N 904.597 1.47463 -0.556102 0
M  V30 9346 C 905.544 2.29998 0.192213 0
M  V30 9347 C 906.514 1.38993 0.909403 0
M  V30 9348 O 907.699 1.67954 0.905316 0
M  V30 9349 C 904.839 3.22932 1.21692 0
M  V30 9350 C 903.952 4.29027 0.505908 0
M  V30 9351 C 903.087 5.09114 1.51581 0
M  V30 9352 C 902.126 6.06984 0.789714 0
M  V30 9353 N 901.263 6.80033 1.74639 0
M  V30 9354 H 906.103 2.93468 -0.517734 0
M  V30 9355 H 903.64 1.44654 -0.267147 0
M  V30 9356 H 905.598 3.75234 1.8236 0
M  V30 9357 H 904.228 2.61329 1.89491 0
M  V30 9358 H 903.28 3.7979 -0.215276 0
M  V30 9359 H 904.592 4.9876 -0.062958 0
M  V30 9360 H 903.746 5.6556 2.19606 0
M  V30 9361 H 902.485 4.3928 2.11859 0
M  V30 9362 H 901.49 5.49717 0.0955382 0
M  V30 9363 H 902.715 6.78827 0.192688 0
M  V30 9364 H 900.661 6.12931 2.33777 0
M  V30 9365 H 900.578 7.45933 1.22965 0
M  V30 9366 H 901.846 7.41054 2.41782 0
M  V30 9367 N 906.075 0.2925 1.54862 0
M  V30 9368 C 907.022 -0.587365 2.23201 0
M  V30 9369 C 907.992 -1.13623 1.21157 0
M  V30 9370 O 909.177 -1.18233 1.49752 0
M  V30 9371 C 906.317 -1.75745 2.96998 0
M  V30 9372 C 905.43 -1.24078 4.13798 0
M  V30 9373 C 904.565 -2.37405 4.75197 0
M  V30 9374 C 903.604 -1.82829 5.84157 0
M  V30 9375 N 902.741 -2.89696 6.39547 0
M  V30 9376 H 907.581 0.00202207 2.98 0
M  V30 9377 H 905.118 0.012766 1.47094 0
M  V30 9378 H 907.076 -2.44549 3.38011 0
M  V30 9379 H 905.706 -2.3186 2.24591 0
M  V30 9380 H 904.758 -0.445268 3.77785 0
M  V30 9381 H 906.07 -0.801186 4.92324 0
M  V30 9382 H 905.224 -3.14172 5.19019 0
M  V30 9383 H 903.963 -2.84688 3.95985 0
M  V30 9384 H 902.968 -1.04548 5.39768 0
M  V30 9385 H 904.193 -1.36461 6.65248 0
M  V30 9386 H 902.139 -3.36328 5.63222 0
M  V30 9387 H 902.056 -2.50206 7.13395 0
M  V30 9388 H 903.324 -3.66386 6.88027 0
M  V30 9389 N 907.553 -1.57587 0.0200696 0
M  V30 9390 C 908.486 -2.05157 -0.999295 0
M  V30 9391 C 909.464 -0.945466 -1.32286 0
M  V30 9392 O 910.648 -1.21512 -1.44108 0
M  V30 9393 C 907.775 -2.46604 -2.32173 0
M  V30 9394 C 906.821 -3.68146 -2.15339 0
M  V30 9395 S 907.654 -5.15194 -1.46065 0
M  V30 9396 C 908.81 -5.59929 -2.79697 0
M  V30 9397 H 909.043 -2.91299 -0.59433 0
M  V30 9398 H 906.576 -1.53209 -0.191372 0
M  V30 9399 H 908.534 -2.7115 -3.08201 0
M  V30 9400 H 907.195 -1.60825 -2.69804 0
M  V30 9401 H 906.388 -3.94963 -3.13082 0
M  V30 9402 H 905.99 -3.43705 -1.47454 0
M  V30 9403 H 908.282 -5.63615 -3.75957 0
M  V30 9404 H 909.225 -6.59599 -2.57555 0
M  V30 9405 H 909.633 -4.87549 -2.84528 0
M  V30 9406 N 909.032 0.252966 -1.55557 0
M  V30 9407 C 910.272 0.989276 -1.78865 0
M  V30 9408 C 910.636 1.82755 -0.588615 0
M  V30 9409 O 911.837 2.59516 -0.700347 0
M  V30 9410 C 910.108 1.83203 -3.06874 0
M  V30 9411 S 911.667 2.62826 -3.5138 0
M  V30 9412 H 908.485 0.332863 -0.62827 0
M  V30 9413 H 911.087 0.257716 -1.93794 0
M  V30 9414 H 909.791 1.20579 -3.92287 0
M  V30 9415 H 909.322 2.60644 -2.94666 0
M  V30 9416 H 911.337 3.85648 -3.12234 0
M  V30 9417 N 910.51 1.48831 0.518367 0
M  V30 9418 C 911.42 1.6692 1.64848 0
M  V30 9419 C 912.436 0.551711 1.65022 0
M  V30 9420 O 913.612 0.824251 1.83761 0
M  V30 9421 C 910.677 1.71559 3.01278 0
M  V30 9422 C 909.738 2.9502 3.11868 0
M  V30 9423 C 908.971 2.99428 4.4179 0
M  V30 9424 O 909.194 2.11914 5.29574 0
M  V30 9425 O 908.128 3.91719 4.5699 0
M  V30 9426 H 911.954 2.62623 1.52521 0
M  V30 9427 H 909.539 1.32368 0.692749 0
M  V30 9428 H 911.421 1.77064 3.82396 0
M  V30 9429 H 910.096 0.790316 3.13904 0
M  V30 9430 H 909.003 2.95042 2.30003 0
M  V30 9431 H 910.336 3.8697 3.04163 0
M  V30 9432 N 911.988 -0.768124 1.37614 0
M  V30 9433 C 913.234 -1.52907 1.33219 0
M  V30 9434 C 913.567 -1.94026 -0.0821218 0
M  V30 9435 O 912.842 -1.64345 -1.04023 0
M  V30 9436 C 913.125 -2.79164 2.27463 0
M  V30 9437 C 912.978 -2.44276 3.7769 0
M  V30 9438 C 914.297 -3.81115 2.20089 0
M  V30 9439 H 911.416 -0.554712 0.485246 0
M  V30 9440 H 914.058 -0.880911 1.68345 0
M  V30 9441 H 912.208 -3.34472 1.97639 0
M  V30 9442 H 913.88 -1.94855 4.18126 0
M  V30 9443 H 912.123 -1.76925 3.96081 0
M  V30 9444 H 912.794 -3.34544 4.39072 0
M  V30 9445 H 915.27 -3.35311 2.46386 0
M  V30 9446 H 914.146 -4.67174 2.88166 0
M  V30 9447 H 914.407 -4.25644 1.19498 0
M  V30 9448 N 913.466 -1.22244 -0.994698 0
M  V30 9449 C 914.429 -0.992308 -2.06606 0
M  V30 9450 C 915.429 0.0405872 -1.60749 0
M  V30 9451 O 916.619 -0.197737 -1.73074 0
M  V30 9452 C 913.751 -0.498499 -3.37236 0
M  V30 9453 H 914.944 -1.9429 -2.28455 0
M  V30 9454 H 912.497 -1.04087 -1.166 0
M  V30 9455 H 913.232 0.456531 -3.21071 0
M  V30 9456 H 913.017 -1.24367 -3.71854 0
M  V30 9457 H 914.507 -0.35768 -4.16065 0
M  V30 9458 N 914.944 1.19125 -1.03184 0
M  V30 9459 C 916.184 1.90582 -0.738785 0
M  V30 9460 C 916.548 1.78004 0.719627 0
M  V30 9461 O 917.749 2.44084 1.12589 0
M  V30 9462 C 916.02 3.37319 -1.18114 0
M  V30 9463 S 917.579 4.26962 -1.01238 0
M  V30 9464 H 914.397 0.6582 -0.268875 0
M  V30 9465 H 916.999 1.43999 -1.32229 0
M  V30 9466 H 915.703 3.43999 -2.23814 0
M  V30 9467 H 915.234 3.88935 -0.591051 0
M  V30 9468 H 917.249 4.96143 0.0753558 0
M  V30 9469 N 916.422 0.810101 1.35185 0
M  V30 9470 C 917.67 0.391343 1.98275 0
M  V30 9471 C 917.991 -1.04592 1.64577 0
M  V30 9472 O 917.261 -1.72417 0.93001 0
M  V30 9473 H 915.841 0.141715 0.733434 0
M  V30 9474 H 918.503 1.03672 1.6504 0
M  V30 9475 H 917.599 0.49991 3.0807 0
M  V30 9476 N 917.9 -1.47166 0.563914 0
M  V30 9477 C 919.148 -2.02056 0.0422873 0
M  V30 9478 C 919.469 -1.43992 -1.31497 0
M  V30 9479 O 918.739 -0.617578 -1.85911 0
M  V30 9480 H 917.319 -0.746893 0.0126427 0
M  V30 9481 H 919.981 -1.80492 0.735441 0
M  V30 9482 H 919.077 -3.12073 -0.0408044 0
M  V30 9483 N 919.378 -0.300708 -1.54705 0
M  V30 9484 C 920.625 0.308654 -2.00134 0
M  V30 9485 C 920.953 1.53918 -1.1891 0
M  V30 9486 O 920.208 1.94054 -0.253263 0
M  V30 9487 C 920.507 0.710108 -3.50275 0
M  V30 9488 C 920.173 -0.418651 -4.48952 0
M  V30 9489 C 918.835 -0.728524 -4.75653 0
M  V30 9490 C 921.187 -1.17797 -5.07714 0
M  V30 9491 C 918.515 -1.80085 -5.58378 0
M  V30 9492 C 920.867 -2.24022 -5.91606 0
M  V30 9493 C 919.531 -2.55616 -6.16617 0
M  V30 9494 H 918.801 0.112945 -0.732342 0
M  V30 9495 H 921.448 -0.419744 -1.86843 0
M  V30 9496 H 919.753 1.51859 -3.61173 0
M  V30 9497 H 921.45 1.19277 -3.8285 0
M  V30 9498 H 918.04 -0.167034 -4.28274 0
M  V30 9499 H 922.224 -0.951835 -4.87087 0
M  V30 9500 H 917.48 -2.05036 -5.75995 0
M  V30 9501 H 921.654 -2.83317 -6.36164 0
M  V30 9502 H 919.281 -3.38839 -6.80509 0
M  V30 9503 N 920.856 1.57574 -0.0284266 0
M  V30 9504 C 922.105 1.9095 0.649704 0
M  V30 9505 C 922.418 0.906421 1.7333 0
M  V30 9506 O 923.624 1.1314 2.46803 0
M  V30 9507 C 922.08 3.39061 1.20687 0
M  V30 9508 C 921.688 4.47726 0.156597 0
M  V30 9509 C 923.432 3.81505 1.86156 0
M  V30 9510 C 921.339 5.86935 0.725365 0
M  V30 9511 H 920.269 0.712589 0.24644 0
M  V30 9512 H 922.92 1.83261 -0.0936143 0
M  V30 9513 H 921.302 3.41679 2.00178 0
M  V30 9514 H 922.476 4.56667 -0.6158 0
M  V30 9515 H 920.791 4.14481 -0.399288 0
M  V30 9516 H 923.388 4.82865 2.29665 0
M  V30 9517 H 923.731 3.16529 2.70398 0
M  V30 9518 H 924.264 3.81307 1.13356 0
M  V30 9519 H 921.003 6.55453 -0.0789081 0
M  V30 9520 H 920.523 5.81602 1.46627 0
M  V30 9521 H 922.202 6.35483 1.21532 0
M  V30 9522 N 922.334 -0.244713 1.55689 0
M  V30 9523 C 923.562 -0.989944 1.8168 0
M  V30 9524 C 923.977 -1.78863 0.604449 0
M  V30 9525 O 923.334 -1.77437 -0.426907 0
M  V30 9526 C 923.385 -1.92607 3.05916 0
M  V30 9527 O 923.106 -1.1597 4.22472 0
M  V30 9528 C 924.607 -2.78711 3.44724 0
M  V30 9529 H 921.827 -0.2912 0.604519 0
M  V30 9530 H 924.371 -0.266938 2.0275 0
M  V30 9531 H 922.526 -2.60333 2.8689 0
M  V30 9532 H 922.94 -1.79311 4.92898 0
M  V30 9533 H 924.414 -3.40141 4.34751 0
M  V30 9534 H 924.891 -3.49935 2.6541 0
M  V30 9535 H 925.497 -2.16435 3.66109 0
M  V30 9536 N 923.813 -1.49104 -0.510467 0
M  V30 9537 C 924.76 -1.65074 -1.61305 0
M  V30 9538 C 925.73 -0.492362 -1.58635 0
M  V30 9539 O 926.915 -0.718241 -1.76765 0
M  V30 9540 C 924.055 -1.71457 -2.99493 0
M  V30 9541 C 923.168 -2.98536 -3.12251 0
M  V30 9542 C 922.303 -2.95957 -4.41116 0
M  V30 9543 C 921.342 -4.17655 -4.47471 0
M  V30 9544 N 920.479 -4.13041 -5.67751 0
M  V30 9545 H 925.319 -2.59222 -1.46996 0
M  V30 9546 H 922.856 -1.28535 -0.715346 0
M  V30 9547 H 924.814 -1.7314 -3.79577 0
M  V30 9548 H 923.444 -0.807834 -3.12528 0
M  V30 9549 H 922.496 -3.06509 -2.25292 0
M  V30 9550 H 923.808 -3.88527 -3.12807 0
M  V30 9551 H 922.962 -2.96149 -5.2951 0
M  V30 9552 H 921.701 -2.03728 -4.4311 0
M  V30 9553 H 920.706 -4.17717 -3.57481 0
M  V30 9554 H 921.931 -5.11066 -4.472 0
M  V30 9555 H 919.877 -3.23643 -5.70606 0
M  V30 9556 H 919.794 -4.96757 -5.69884 0
M  V30 9557 H 921.062 -4.17322 -6.58379 0
M  V30 9558 N 925.291 0.760815 -1.38019 0
M  V30 9559 C 926.221 1.88811 -1.37377 0
M  V30 9560 C 927.202 1.68388 -0.240737 0
M  V30 9561 O 928.387 1.89086 -0.442739 0
M  V30 9562 C 925.517 3.26244 -1.1909 0
M  V30 9563 C 924.471 3.61254 -2.29521 0
M  V30 9564 C 923.797 4.97346 -1.96345 0
M  V30 9565 C 925.097 3.66874 -3.71753 0
M  V30 9566 H 926.791 1.89606 -2.31711 0
M  V30 9567 H 924.337 0.910818 -1.11535 0
M  V30 9568 H 926.29 4.04755 -1.17267 0
M  V30 9569 H 925.014 3.2591 -0.212152 0
M  V30 9570 H 923.673 2.85057 -2.30517 0
M  V30 9571 H 923.321 4.93564 -0.969728 0
M  V30 9572 H 923.021 5.21739 -2.703 0
M  V30 9573 H 924.545 5.78244 -1.96129 0
M  V30 9574 H 925.959 4.35514 -3.72828 0
M  V30 9575 H 924.356 4.02772 -4.44853 0
M  V30 9576 H 925.426 2.67273 -4.0459 0
M  V30 9577 N 926.769 1.22769 0.988202 0
M  V30 9578 C 927.717 0.999271 2.10041 0
M  V30 9579 C 928.711 -0.0591767 1.69297 0
M  V30 9580 O 929.917 0.0936653 1.79756 0
M  V30 9581 H 926.292 0.30599 0.686931 0
M  V30 9582 H 928.263 1.94294 2.26478 0
M  V30 9583 C 927.012 0.59873 3.42506 0
M  V30 9584 H 926.335 1.40487 3.74304 0
M  V30 9585 H 927.775 0.478353 4.21293 0
M  V30 9586 C 926.234 -0.692216 3.29712 0
M  V30 9587 O 926.764 -1.74342 3.61895 0
M  V30 9588 N 924.97 -0.665163 2.82885 0
M  V30 9589 H 924.517 0.190604 2.56894 0
M  V30 9590 H 924.475 -1.52917 2.74706 0
M  V30 9591 N 928.247 -1.18576 1.03814 0
M  V30 9592 C 929.495 -1.88121 0.738574 0
M  V30 9593 C 929.816 -1.80587 -0.735744 0
M  V30 9594 O 929.086 -1.22251 -1.53074 0
M  V30 9595 H 927.666 -0.696417 0.270208 0
M  V30 9596 H 930.328 -1.43912 1.31435 0
M  V30 9597 H 929.424 -2.94222 1.04115 0
M  V30 9598 N 929.725 -0.817259 -1.34754 0
M  V30 9599 C 930.953 -0.415451 -2.02686 0
M  V30 9600 C 931.368 0.97688 -1.61563 0
M  V30 9601 O 930.725 1.63125 -0.818321 0
M  V30 9602 C 930.776 -0.501486 -3.58005 0
M  V30 9603 O 930.497 -1.83893 -3.97637 0
M  V30 9604 C 931.998 -0.0938504 -4.43201 0
M  V30 9605 H 929.218 -0.16742 -0.649778 0
M  V30 9606 H 931.762 -1.10384 -1.7215 0
M  V30 9607 H 929.917 0.138766 -3.87151 0
M  V30 9608 H 930.331 -1.8092 -4.92309 0
M  V30 9609 H 931.805 -0.205145 -5.51619 0
M  V30 9610 H 932.282 0.962011 -4.28535 0
M  V30 9611 H 932.888 -0.707677 -4.19371 0
M  V30 9612 N 931.203 1.46865 -0.571711 0
M  V30 9613 C 932.452 2.01636 -0.050881 0
M  V30 9614 C 932.765 1.45001 1.31279 0
M  V30 9615 O 933.971 1.91523 1.92435 0
M  V30 9616 C 932.427 3.59877 -0.0404114 0
M  V30 9617 C 932.035 4.25506 -1.40172 0
M  V30 9618 C 933.779 4.22346 0.42705 0
M  V30 9619 C 931.686 5.75795 -1.34958 0
M  V30 9620 H 930.616 0.753846 -0.0152514 0
M  V30 9621 H 933.267 1.68711 -0.721723 0
M  V30 9622 H 931.649 3.89829 0.696374 0
M  V30 9623 H 932.823 4.07178 -2.15737 0
M  V30 9624 H 931.138 3.75086 -1.8083 0
M  V30 9625 H 933.735 5.32499 0.484688 0
M  V30 9626 H 934.078 3.9052 1.44222 0
M  V30 9627 H 934.611 3.9698 -0.255326 0
M  V30 9628 H 931.35 6.12265 -2.3412 0
M  V30 9629 H 930.87 5.96419 -0.635962 0
M  V30 9630 H 932.549 6.38294 -1.05779 0
M  V30 9631 N 932.681 0.308908 1.54543 0
M  V30 9632 C 933.909 -0.300418 2.04707 0
M  V30 9633 C 934.324 -1.46915 1.18581 0
M  V30 9634 O 933.681 -1.81251 0.213186 0
M  V30 9635 C 933.732 -0.749038 3.53655 0
M  V30 9636 O 933.453 0.373181 4.36508 0
M  V30 9637 C 934.954 -1.4227 4.1985 0
M  V30 9638 H 932.174 -0.0641267 0.667929 0
M  V30 9639 H 934.718 0.450839 1.99469 0
M  V30 9640 H 932.873 -1.4503 3.59228 0
M  V30 9641 H 933.287 0.0224752 5.24495 0
M  V30 9642 H 934.761 -1.68768 5.25568 0
M  V30 9643 H 935.238 -2.36531 3.70067 0
M  V30 9644 H 935.844 -0.764404 4.18374 0
M  V30 9645 N 934.159 -1.57557 0.0367827 0
M  V30 9646 C 935.384 -1.96828 -0.653707 0
M  V30 9647 C 935.809 -0.913559 -1.64425 0
M  V30 9648 O 935.167 0.124749 -1.8087 0
M  V30 9649 C 935.215 -3.35189 -1.32969 0
M  V30 9650 O 934.319 -3.32095 -2.44513 0
M  V30 9651 H 933.66 -0.64157 -0.171124 0
M  V30 9652 H 936.19 -2.04351 0.100912 0
M  V30 9653 H 936.2 -3.71593 -1.68472 0
M  V30 9654 H 934.875 -4.11496 -0.603654 0
M  V30 9655 H 933.452 -3.07418 -2.11065 0
M  V30 9656 N 935.637 0.236453 -1.55816 0
M  V30 9657 C 937.048 0.80468 -1.68469 0
M  V30 9658 C 937.399 1.85601 -0.636133 0
M  V30 9659 O 936.524 2.15323 0.215622 0
M  V30 9660 C 937.119 1.46634 -3.05424 0
M  V30 9661 C 935.678 1.98214 -3.19981 0
M  V30 9662 C 934.825 0.83695 -2.64368 0
M  V30 9663 H 937.776 0.0120647 -1.58695 0
M  V30 9664 H 937.797 2.33472 -3.00451 0
M  V30 9665 H 937.309 0.700931 -3.81718 0
M  V30 9666 H 935.41 2.77604 -2.4853 0
M  V30 9667 H 935.523 2.17235 -4.2702 0
M  V30 9668 H 933.887 1.24028 -2.22462 0
M  V30 9669 H 934.67 0.084451 -3.43196 0
M  V30 9670 N 937.115 1.49373 0.502552 0
M  V30 9671 C 938.363 1.58467 1.25429 0
M  V30 9672 C 938.684 0.272593 1.93085 0
M  V30 9673 O 937.954 -0.707947 1.82661 0
M  V30 9674 H 936.534 0.583866 0.46595 0
M  V30 9675 H 939.196 1.8599 0.582568 0
M  V30 9676 H 938.292 2.37993 2.01906 0
M  V30 9677 N 938.594 -0.753485 1.38421 0
M  V30 9678 C 939.84 -1.51391 1.35839 0
M  V30 9679 C 940.195 -1.92331 -0.0513518 0
M  V30 9680 O 939.488 -1.62568 -1.01401 0
M  V30 9681 C 939.682 -2.77836 2.24816 0
M  V30 9682 C 939.511 -2.49257 3.74301 0
M  V30 9683 C 938.281 -2.42471 4.43324 0
M  V30 9684 C 940.479 -2.16027 4.6673 0
M  V30 9685 N 938.461 -2.06168 5.78246 0
M  V30 9686 C 939.832 -1.90016 5.90164 0
M  V30 9687 C 941.887 -2.02337 4.54933 0
M  V30 9688 C 940.59 -1.51696 7.03122 0
M  V30 9689 C 942.616 -1.65419 5.67794 0
M  V30 9690 C 941.978 -1.40281 6.9029 0
M  V30 9691 H 938.077 -0.553561 0.552354 0
M  V30 9692 H 940.661 -0.877409 1.73809 0
M  V30 9693 H 938.832 -3.39295 1.89034 0
M  V30 9694 H 940.564 -3.43889 2.13359 0
M  V30 9695 H 937.319 -2.58946 3.9654 0
M  V30 9696 H 937.743 -1.90662 6.49598 0
M  V30 9697 H 942.385 -2.20447 3.60781 0
M  V30 9698 H 940.103 -1.32325 7.97192 0
M  V30 9699 H 943.689 -1.55459 5.60646 0
M  V30 9700 H 942.569 -1.12139 7.76141 0
M  V30 9701 N 940.072 -1.23292 -0.981677 0
M  V30 9702 C 941.483 -1.05936 -1.53735 0
M  V30 9703 C 941.834 0.373695 -1.92608 0
M  V30 9704 O 940.959 1.26024 -1.75917 0
M  V30 9705 C 941.554 -1.91682 -2.79363 0
M  V30 9706 C 940.113 -1.78591 -3.31334 0
M  V30 9707 C 939.26 -1.87463 -2.04335 0
M  V30 9708 H 942.211 -1.36973 -0.801505 0
M  V30 9709 H 942.232 -1.44085 -3.52164 0
M  V30 9710 H 941.744 -2.95975 -2.51039 0
M  V30 9711 H 939.845 -0.770755 -3.64541 0
M  V30 9712 H 939.958 -2.61902 -4.01179 0
M  V30 9713 H 938.322 -1.3103 -2.18411 0
M  V30 9714 H 939.105 -2.9331 -1.78394 0
M  V30 9715 N 941.55 1.18024 -1.04442 0
M  V30 9716 C 942.497 2.21785 -0.638759 0
M  V30 9717 C 943.467 1.62255 0.355312 0
M  V30 9718 O 944.652 1.89176 0.24844 0
M  V30 9719 C 941.792 3.45098 -0.0118002 0
M  V30 9720 C 940.905 4.1895 -1.05379 0
M  V30 9721 C 940.04 5.2973 -0.394951 0
M  V30 9722 C 939.079 5.95359 -1.42178 0
M  V30 9723 N 938.216 6.97668 -0.787635 0
M  V30 9724 H 943.056 2.55839 -1.52808 0
M  V30 9725 H 940.593 1.25681 -0.764378 0
M  V30 9726 H 942.551 4.15564 0.369075 0
M  V30 9727 H 941.181 3.11652 0.84102 0
M  V30 9728 H 940.233 3.47274 -1.55258 0
M  V30 9729 H 941.545 4.63877 -1.83355 0
M  V30 9730 H 940.699 6.06687 0.0399244 0
M  V30 9731 H 939.438 4.85915 0.416867 0
M  V30 9732 H 938.443 5.17139 -1.86675 0
M  V30 9733 H 939.668 6.41255 -2.23536 0
M  V30 9734 H 937.614 6.56 0.00380893 0
M  V30 9735 H 937.531 7.40867 -1.50505 0
M  V30 9736 H 938.799 7.78586 -0.377282 0
M  V30 9737 N 943.028 0.824394 1.34319 0
M  V30 9738 C 943.938 0.24932 2.33271 0
M  V30 9739 C 944.954 -0.617066 1.62691 0
M  V30 9740 O 946.13 -0.524616 1.94447 0
M  V30 9741 C 943.195 -0.578094 3.41846 0
M  V30 9742 C 942.256 0.310866 4.28173 0
M  V30 9743 C 941.489 -0.477153 5.31563 0
M  V30 9744 O 941.712 -1.71028 5.44156 0
M  V30 9745 O 940.646 0.141287 6.01734 0
M  V30 9746 H 944.472 1.06837 2.84288 0
M  V30 9747 H 942.057 0.58657 1.37403 0
M  V30 9748 H 943.939 -1.04878 4.0814 0
M  V30 9749 H 942.614 -1.37444 2.93071 0
M  V30 9750 H 941.521 0.829081 3.64797 0
M  V30 9751 H 942.854 1.07161 4.80393 0
M  V30 9752 N 944.506 -1.46559 0.579492 0
M  V30 9753 C 945.736 -2.06484 0.0692642 0
M  V30 9754 C 946.144 -1.4293 -1.23967 0
M  V30 9755 O 945.487 -0.527632 -1.75959 0
M  V30 9756 C 945.549 -3.59078 -0.174174 0
M  V30 9757 C 945.213 -4.44805 1.04867 0
M  V30 9758 C 946.21 -4.81543 1.95991 0
M  V30 9759 C 943.895 -4.8599 1.26961 0
M  V30 9760 C 945.889 -5.58288 3.0756 0
M  V30 9761 C 943.576 -5.62495 2.38836 0
M  V30 9762 C 944.574 -5.98558 3.28964 0
M  V30 9763 O 944.262 -6.73518 4.38896 0
M  V30 9764 H 943.994 -0.673917 0.0530331 0
M  V30 9765 H 946.548 -1.89223 0.79898 0
M  V30 9766 H 944.778 -3.74634 -0.958464 0
M  V30 9767 H 946.467 -4.00941 -0.632515 0
M  V30 9768 H 947.233 -4.50307 1.80136 0
M  V30 9769 H 943.112 -4.57372 0.577184 0
M  V30 9770 H 946.656 -5.86355 3.77933 0
M  V30 9771 H 942.553 -5.93145 2.54655 0
M  V30 9772 H 943.321 -6.91938 4.37223 0
M  V30 9773 N 945.984 -0.3171 -1.54377 0
M  V30 9774 C 947.395 0.172287 -1.85903 0
M  V30 9775 C 947.746 1.52141 -1.23885 0
M  V30 9776 O 946.871 2.0949 -0.542476 0
M  V30 9777 C 947.466 0.319392 -3.37291 0
M  V30 9778 C 946.025 0.752998 -3.68791 0
M  V30 9779 C 945.172 -0.129143 -2.76999 0
M  V30 9780 H 948.123 -0.537597 -1.49317 0
M  V30 9781 H 948.144 1.15137 -3.62662 0
M  V30 9782 H 947.656 -0.662671 -3.82401 0
M  V30 9783 H 945.757 1.74504 -3.2921 0
M  V30 9784 H 945.87 0.561228 -4.75801 0
M  V30 9785 H 944.234 0.394242 -2.5163 0
M  V30 9786 H 945.017 -1.10785 -3.24933 0
M  V30 9787 N 947.462 1.57535 -0.0451378 0
M  V30 9788 C 948.69 1.96761 0.639742 0
M  V30 9789 C 949.105 0.922405 1.64734 0
M  V30 9790 O 948.462 -0.0940535 1.82257 0
M  V30 9791 C 948.513 3.36066 1.33199 0
M  V30 9792 O 948.234 4.36579 0.364757 0
M  V30 9793 C 949.735 3.90015 2.1072 0
M  V30 9794 H 946.955 0.64769 0.175324 0
M  V30 9795 H 949.499 2.04206 -0.109651 0
M  V30 9796 H 947.654 3.2979 2.03266 0
M  V30 9797 H 948.068 5.17432 0.858168 0
M  V30 9798 H 949.542 4.89785 2.54586 0
M  V30 9799 H 950.019 3.25117 2.95288 0
M  V30 9800 H 950.625 3.99609 1.45577 0
M  V30 9801 N 948.94 -0.228186 1.55939 0
M  V30 9802 C 949.888 -1.30239 1.92719 0
M  V30 9803 C 950.882 -1.48865 0.808424 0
M  V30 9804 O 952.088 -1.50118 0.993204 0
M  V30 9805 H 948.463 -0.436509 0.612343 0
M  V30 9806 H 950.434 -0.964965 2.82367 0
M  V30 9807 C 949.183 -2.647 2.25453 0
M  V30 9808 H 948.506 -2.51173 3.1105 0
M  V30 9809 H 949.946 -3.38691 2.55077 0
M  V30 9810 C 948.405 -3.1921 1.07734 0
M  V30 9811 O 948.935 -4.00301 0.335019 0
M  V30 9812 N 947.141 -2.77492 0.862938 0
M  V30 9813 H 946.688 -2.11657 1.4683 0
M  V30 9814 H 946.646 -3.14306 0.0770119 0
M  V30 9815 N 950.418 -1.49637 -0.494624 0
M  V30 9816 C 951.365 -1.66776 -1.59545 0
M  V30 9817 C 952.335 -0.509159 -1.58104 0
M  V30 9818 O 953.52 -0.736949 -1.75993 0
M  V30 9819 C 950.66 -1.74624 -2.97658 0
M  V30 9820 C 949.773 -3.01831 -3.09067 0
M  V30 9821 C 948.908 -3.00619 -4.37952 0
M  V30 9822 C 947.947 -4.22378 -4.43016 0
M  V30 9823 N 947.084 -4.1904 -5.63339 0
M  V30 9824 H 951.924 -2.60767 -1.44238 0
M  V30 9825 H 949.461 -1.29286 -0.701673 0
M  V30 9826 H 951.419 -1.77156 -3.77719 0
M  V30 9827 H 950.049 -0.840936 -3.11654 0
M  V30 9828 H 949.101 -3.08881 -2.22029 0
M  V30 9829 H 950.413 -3.91823 -3.08669 0
M  V30 9830 H 949.567 -3.01749 -5.26339 0
M  V30 9831 H 948.306 -2.08416 -4.40924 0
M  V30 9832 H 947.311 -4.21485 -3.5303 0
M  V30 9833 H 948.536 -5.15781 -4.41755 0
M  V30 9834 H 946.482 -3.29677 -5.67141 0
M  V30 9835 H 946.399 -5.02774 -5.64583 0
M  V30 9836 H 947.667 -4.24281 -6.53916 0
M  V30 9837 N 951.896 0.746133 -1.38819 0
M  V30 9838 C 952.844 1.88137 -1.36774 0
M  V30 9839 C 953.838 1.67508 -0.252495 0
M  V30 9840 O 955.044 1.74985 -0.421935 0
M  V30 9841 H 951.419 0.619116 -0.426849 0
M  V30 9842 H 953.39 1.86978 -2.32555 0
M  V30 9843 C 952.139 3.25703 -1.21708 0
M  V30 9844 H 951.462 3.42168 -2.06788 0
M  V30 9845 H 952.902 4.05361 -1.24332 0
M  V30 9846 C 951.361 3.36816 0.0754257 0
M  V30 9847 O 951.891 3.87742 1.04972 0
M  V30 9848 N 950.097 2.90287 0.134761 0
M  V30 9849 H 949.644 2.49034 -0.658779 0
M  V30 9850 H 949.602 2.98103 0.999109 0
M  V30 9851 N 953.375 1.23811 0.975125 0
M  V30 9852 C 954.615 1.08517 1.73215 0
M  V30 9853 C 954.979 -0.370777 1.88386 0
M  V30 9854 O 956.18 -0.645036 2.60946 0
M  V30 9855 C 954.451 1.79649 3.08968 0
M  V30 9856 S 956.01 1.79993 4.00185 0
M  V30 9857 H 952.828 0.388256 0.595633 0
M  V30 9858 H 955.43 1.57028 1.16458 0
M  V30 9859 H 954.134 2.8471 2.95581 0
M  V30 9860 H 953.665 1.31441 3.70792 0
M  V30 9861 H 955.68 0.862294 4.8865 0
M  V30 9862 N 954.853 -1.17469 1.05066 0
M  V30 9863 C 956.099 -1.87976 0.761113 0
M  V30 9864 C 956.432 -1.80756 -0.709995 0
M  V30 9865 O 955.707 -1.21469 -1.51906 0
M  V30 9866 C 955.99 -3.38055 1.2406 0
M  V30 9867 C 955.843 -3.54032 2.77455 0
M  V30 9868 C 957.162 -4.32036 0.838612 0
M  V30 9869 H 954.281 -0.682573 0.277963 0
M  V30 9870 H 956.923 -1.38147 1.30443 0
M  V30 9871 H 955.073 -3.80622 0.778388 0
M  V30 9872 H 956.745 -3.20489 3.3179 0
M  V30 9873 H 954.988 -2.96352 3.16793 0
M  V30 9874 H 955.659 -4.59377 3.06066 0
M  V30 9875 H 958.135 -3.97303 1.23651 0
M  V30 9876 H 957.011 -5.35583 1.20173 0
M  V30 9877 H 957.272 -4.41349 -0.257498 0
M  V30 9878 N 956.331 -0.831506 -1.3388 0
M  V30 9879 C 957.577 -0.433509 -1.98727 0
M  V30 9880 C 957.932 0.994508 -1.64704 0
M  V30 9881 O 957.225 1.68458 -0.912815 0
M  V30 9882 C 957.419 -0.582733 -3.52617 0
M  V30 9883 C 957.248 -2.0237 -4.01592 0
M  V30 9884 C 956.018 -2.6574 -4.29779 0
M  V30 9885 C 958.216 -2.99152 -4.18345 0
M  V30 9886 N 956.198 -4.00988 -4.64846 0
M  V30 9887 C 957.569 -4.19329 -4.56687 0
M  V30 9888 C 959.624 -2.95655 -4.00615 0
M  V30 9889 C 958.327 -5.36475 -4.79152 0
M  V30 9890 C 960.353 -4.12025 -4.24252 0
M  V30 9891 C 959.715 -5.30955 -4.62889 0
M  V30 9892 H 955.814 -0.20691 -0.75413 0
M  V30 9893 H 958.398 -1.07802 -1.62132 0
M  V30 9894 H 956.569 0.0319301 -3.88387 0
M  V30 9895 H 958.301 -0.156899 -4.04396 0
M  V30 9896 H 955.056 -2.16923 -4.21 0
M  V30 9897 H 955.48 -4.7069 -4.86601 0
M  V30 9898 H 960.122 -2.04842 -3.69864 0
M  V30 9899 H 957.84 -6.27839 -5.08767 0
M  V30 9900 H 961.426 -4.10728 -4.1206 0
M  V30 9901 H 960.306 -6.19504 -4.80817 0
M  V30 9902 N 957.809 1.4625 -0.587256 0
M  V30 9903 C 958.741 2.28482 0.181256 0
M  V30 9904 C 959.754 1.38777 0.851163 0
M  V30 9905 O 960.943 1.63336 0.719963 0
M  V30 9906 C 958.043 3.13944 1.27643 0
M  V30 9907 C 957.216 4.31802 0.697569 0
M  V30 9908 C 956.275 4.98626 1.68102 0
M  V30 9909 O 955.301 5.56075 1.21529 0
M  V30 9910 N 956.503 4.96051 3.0152 0
M  V30 9911 H 959.268 2.95079 -0.524267 0
M  V30 9912 H 956.829 1.56213 -0.425336 0
M  V30 9913 H 958.821 3.55513 1.93371 0
M  V30 9914 H 957.391 2.49391 1.88475 0
M  V30 9915 H 956.611 3.93961 -0.137293 0
M  V30 9916 H 957.899 5.07969 0.290696 0
M  V30 9917 H 957.297 4.5063 3.41978 0
M  V30 9918 H 955.854 5.41547 3.62725 0
M  V30 9919 N 959.287 0.325282 1.54207 0
M  V30 9920 C 960.533 -0.277185 2.00897 0
M  V30 9921 C 960.866 -1.51651 1.21308 0
M  V30 9922 O 960.141 -1.92237 0.295825 0
M  V30 9923 C 960.424 -0.60961 3.54902 0
M  V30 9924 C 960.277 0.640542 4.45216 0
M  V30 9925 C 961.596 -1.42656 4.16338 0
M  V30 9926 H 958.715 -0.0992722 0.730284 0
M  V30 9927 H 961.357 0.442201 1.84783 0
M  V30 9928 H 959.507 -1.22249 3.68765 0
M  V30 9929 H 961.179 1.27878 4.43221 0
M  V30 9930 H 959.422 1.26908 4.14821 0
M  V30 9931 H 960.093 0.363459 5.50802 0
M  V30 9932 H 962.569 -0.908494 4.06061 0
M  V30 9933 H 961.445 -1.62792 5.24204 0
M  V30 9934 H 961.706 -2.42321 3.69774 0
M  V30 9935 N 960.765 -1.57509 0.0534917 0
M  V30 9936 C 962.011 -1.93068 -0.62069 0
M  V30 9937 C 962.344 -0.932313 -1.70357 0
M  V30 9938 O 961.619 0.0413393 -1.94456 0
M  V30 9939 C 961.902 -3.38997 -1.21463 0
M  V30 9940 C 961.755 -4.49583 -0.13965 0
M  V30 9941 C 963.074 -3.85366 -2.12558 0
M  V30 9942 H 960.193 -0.702083 -0.224163 0
M  V30 9943 H 962.835 -1.89647 0.115729 0
M  V30 9944 H 960.985 -3.42043 -1.84226 0
M  V30 9945 H 962.657 -4.58664 0.492411 0
M  V30 9946 H 960.9 -4.30525 0.532006 0
M  V30 9947 H 961.571 -5.48781 -0.595287 0
M  V30 9948 H 964.047 -3.8421 -1.59755 0
M  V30 9949 H 962.923 -4.8812 -2.51058 0
M  V30 9950 H 963.184 -3.22256 -3.02661 0
M  V30 9951 N 962.243 0.219913 -1.56058 0
M  V30 9952 C 963.206 1.25606 -1.91718 0
M  V30 9953 C 964.206 1.39721 -0.795912 0
M  V30 9954 O 965.396 1.37958 -1.06364 0
M  V30 9955 C 962.528 2.62961 -2.16943 0
M  V30 9956 H 963.721 0.951909 -2.84392 0
M  V30 9957 H 961.274 0.460398 -1.49365 0
M  V30 9958 H 962.009 2.98472 -1.26826 0
M  V30 9959 H 961.794 2.54093 -2.98629 0
M  V30 9960 H 963.284 3.37727 -2.45622 0
M  V30 9961 N 963.721 1.49897 0.486681 0
M  V30 9962 C 965.132 1.53142 1.06792 0
M  V30 9963 C 965.483 0.325856 1.93475 0
M  V30 9964 O 964.608 -0.562893 2.08951 0
M  V30 9965 C 965.203 2.77514 1.94348 0
M  V30 9966 C 963.762 2.83491 2.47609 0
M  V30 9967 C 962.909 2.47239 1.2557 0
M  V30 9968 H 965.86 1.56387 0.269962 0
M  V30 9969 H 965.881 2.58487 2.79221 0
M  V30 9970 H 965.393 3.65239 1.31232 0
M  V30 9971 H 963.494 2.0008 3.14323 0
M  V30 9972 H 963.607 3.86011 2.83782 0
M  V30 9973 H 961.971 1.99332 1.58552 0
M  V30 9974 H 962.754 3.37255 0.641404 0
M  V30 9975 N 965.199 -0.738761 1.39212 0
M  V30 9976 C 966.162 -1.83441 1.37412 0
M  V30 9977 C 967.162 -1.58484 0.271908 0
M  V30 9978 O 968.352 -1.65954 0.529609 0
M  V30 9979 C 965.484 -3.21167 1.143 0
M  V30 9980 H 966.677 -1.86441 2.34904 0
M  V30 9981 H 964.23 -0.942023 1.24722 0
M  V30 9982 H 964.965 -3.23829 0.174756 0
M  V30 9983 H 964.75 -3.40678 1.94116 0
M  V30 9984 H 966.24 -4.01231 1.15773 0
M  V30 9985 N 966.677 -1.24326 -0.968545 0
M  V30 9986 C 967.609 -0.992749 -2.06584 0
M  V30 9987 C 968.622 0.0374902 -1.62757 0
M  V30 9988 O 969.811 -0.199448 -1.77382 0
M  V30 9989 C 966.911 -0.476165 -3.35538 0
M  V30 9990 C 966.084 -1.56934 -4.08277 0
M  V30 9991 C 965.143 -1.05555 -5.15504 0
M  V30 9992 O 964.169 -1.74707 -5.41725 0
M  V30 9993 N 965.371 0.110465 -5.80395 0
M  V30 9994 H 968.136 -1.93752 -2.28649 0
M  V30 9995 H 965.697 -1.15344 -1.13611 0
M  V30 9996 H 967.689 -0.117223 -4.0453 0
M  V30 9997 H 966.259 0.374315 -3.10351 0
M  V30 9998 H 965.479 -2.10051 -3.33575 0
M  V30 9999 H 966.767 -2.30415 -4.53637 0
M  V30 10000 H 966.165 0.688614 -5.61493 0
M  V30 10001 H 964.722 0.41056 -6.50506 0
M  V30 10002 N 968.156 1.1691 -1.05688 0
M  V30 10003 C 969.386 1.90927 -0.789339 0
M  V30 10004 C 969.794 1.77339 0.659369 0
M  V30 10005 O 969.137 1.11147 1.4626 0
M  V30 10006 C 969.199 3.42361 -1.09677 0
M  V30 10007 C 968.863 3.79733 -2.54267 0
M  V30 10008 C 969.86 3.82163 -3.52487 0
M  V30 10009 C 967.545 4.10547 -2.89406 0
M  V30 10010 C 969.539 4.14884 -4.8389 0
M  V30 10011 C 967.226 4.42936 -4.21011 0
M  V30 10012 C 968.224 4.45084 -5.18063 0
M  V30 10013 O 967.912 4.76707 -6.47307 0
M  V30 10014 H 967.644 0.612466 -0.286115 0
M  V30 10015 H 970.198 1.4916 -1.4121 0
M  V30 10016 H 968.428 3.84446 -0.416924 0
M  V30 10017 H 970.117 3.97645 -0.814456 0
M  V30 10018 H 970.883 3.58476 -3.26681 0
M  V30 10019 H 966.762 4.08044 -2.14525 0
M  V30 10020 H 970.306 4.16475 -5.59638 0
M  V30 10021 H 966.203 4.66088 -4.46579 0
M  V30 10022 H 966.971 4.94544 -6.52203 0
M  V30 10023 N 969.634 0.838594 1.33437 0
M  V30 10024 C 971.05 0.526347 1.50671 0
M  V30 10025 C 971.25 -0.946387 1.77893 0
M  V30 10026 O 970.306 -1.7302 1.83903 0
M  V30 10027 C 971.619 1.39945 2.6615 0
M  V30 10028 C 973.167 1.3982 2.80035 0
M  V30 10029 C 973.642 2.25614 3.98576 0
M  V30 10030 N 975.133 2.23322 4.0581 0
M  V30 10031 C 975.868 2.86443 4.96727 0
M  V30 10032 N 975.364 3.58616 5.92762 0
M  V30 10033 N 977.157 2.75915 4.89722 0
M  V30 10034 H 969.308 1.79195 1.1403 0
M  V30 10035 H 971.571 0.764491 0.560586 0
M  V30 10036 H 971.277 2.44599 2.52714 0
M  V30 10037 H 971.151 1.07529 3.61548 0
M  V30 10038 H 973.538 0.35937 2.92904 0
M  V30 10039 H 973.619 1.76241 1.85399 0
M  V30 10040 H 973.263 3.29555 3.86466 0
M  V30 10041 H 973.193 1.86533 4.92456 0
M  V30 10042 H 975.684 1.70836 3.37081 0
M  V30 10043 H 975.997 4.03987 6.58798 0
M  V30 10044 H 974.342 3.62724 5.92838 0
M  V30 10045 H 977.533 2.19094 4.13661 0
M  V30 10046 H 977.706 3.25393 5.60378 0
M  V30 10047 N 971.112 -1.45937 0.595003 0
M  V30 10048 C 972.361 -2.01529 0.0829531 0
M  V30 10049 C 972.674 -1.47071 -1.28955 0
M  V30 10050 O 973.88 -1.94561 -1.89363 0
M  V30 10051 C 972.336 -3.59767 0.0976597 0
M  V30 10052 C 971.944 -4.23223 1.46924 0
M  V30 10053 C 973.688 -4.22972 -0.359805 0
M  V30 10054 C 971.595 -5.73576 1.44101 0
M  V30 10055 H 970.525 -0.753508 0.0272425 0
M  V30 10056 H 973.176 -1.67541 0.748473 0
M  V30 10057 H 971.558 -3.90888 -0.634268 0
M  V30 10058 H 972.732 -4.03695 2.22187 0
M  V30 10059 H 971.047 -3.72161 1.86775 0
M  V30 10060 H 973.644 -5.33202 -0.39991 0
M  V30 10061 H 973.987 -3.92765 -1.37991 0
M  V30 10062 H 974.52 -3.96523 0.31845 0
M  V30 10063 H 971.259 -6.08462 2.43831 0
M  V30 10064 H 970.779 -5.95332 0.730767 0
M  V30 10065 H 972.458 -6.36531 1.1592 0
M  V30 10066 N 972.59 -0.333456 -1.54032 0
M  V30 10067 C 973.815 0.270517 -2.05628 0
M  V30 10068 C 974.24 1.44231 -1.20744 0
M  V30 10069 O 973.598 1.79975 -0.218822 0
M  V30 10070 C 973.646 0.673251 -3.54259 0
M  V30 10071 O 972.75 1.77448 -3.72271 0
M  V30 10072 H 972.091 0.0469753 -0.662336 0
M  V30 10073 H 974.621 -0.484739 -1.98775 0
M  V30 10074 H 974.631 0.953194 -3.96709 0
M  V30 10075 H 973.306 -0.183747 -4.15494 0
M  V30 10076 H 971.883 1.49259 -3.41725 0
M  V30 10077 N 974.068 1.57479 -0.061844 0
M  V30 10078 C 974.998 2.15181 0.9066 0
M  V30 10079 C 975.979 1.07624 1.31724 0
M  V30 10080 O 977.164 1.35614 1.39006 0
M  V30 10081 C 974.294 2.70542 2.17771 0
M  V30 10082 C 973.248 3.83178 1.9068 0
M  V30 10083 C 972.574 4.25099 3.24337 0
M  V30 10084 C 973.874 5.07853 1.21994 0
M  V30 10085 H 975.568 2.96355 0.42594 0
M  V30 10086 H 973.114 1.42556 0.203435 0
M  V30 10087 H 975.067 3.09552 2.85929 0
M  V30 10088 H 973.791 1.86575 2.68062 0
M  V30 10089 H 972.45 3.44656 1.24931 0
M  V30 10090 H 972.098 3.38069 3.72449 0
M  V30 10091 H 971.798 5.01021 3.07005 0
M  V30 10092 H 973.322 4.66718 3.93709 0
M  V30 10093 H 974.736 5.44242 1.80204 0
M  V30 10094 H 973.133 5.88987 1.14954 0
M  V30 10095 H 974.203 4.84497 0.197536 0
M  V30 10096 N 975.546 -0.211634 1.56173 0
M  V30 10097 C 976.478 -1.286 1.89723 0
M  V30 10098 C 977.491 -1.42549 0.786361 0
M  V30 10099 O 978.68 -1.4327 1.06471 0
M  V30 10100 C 975.78 -2.66036 2.09948 0
M  V30 10101 C 974.953 -2.73908 3.41018 0
M  V30 10102 C 974.012 -3.92425 3.50555 0
M  V30 10103 O 973.038 -3.803 4.2351 0
M  V30 10104 N 974.24 -5.07165 2.82426 0
M  V30 10105 H 977.005 -1.00142 2.82474 0
M  V30 10106 H 974.566 -0.401633 1.56839 0
M  V30 10107 H 976.558 -3.43719 2.13634 0
M  V30 10108 H 975.128 -2.87052 1.23774 0
M  V30 10109 H 974.348 -1.82625 3.49345 0
M  V30 10110 H 975.636 -2.76145 4.27342 0
M  V30 10111 H 975.034 -5.19913 2.2295 0
M  V30 10112 H 973.591 -5.82855 2.9176 0
M  V30 10113 N 977.024 -1.50153 -0.478725 0
M  V30 10114 C 978.271 -1.6076 -1.23136 0
M  V30 10115 C 978.599 -0.30442 -1.92103 0
M  V30 10116 O 977.854 0.709213 -1.82397 0
M  V30 10117 C 978.153 -2.73208 -2.30417 0
M  V30 10118 C 977.819 -4.13953 -1.78755 0
M  V30 10119 C 976.481 -4.52251 -1.64386 0
M  V30 10120 C 978.833 -5.01949 -1.40344 0
M  V30 10121 C 976.161 -5.76292 -1.10018 0
M  V30 10122 C 978.513 -6.2653 -0.874206 0
M  V30 10123 C 977.177 -6.63637 -0.717085 0
M  V30 10124 H 976.447 -0.588264 -0.450585 0
M  V30 10125 H 979.094 -1.84061 -0.528551 0
M  V30 10126 H 977.399 -2.43965 -3.06575 0
M  V30 10127 H 979.096 -2.7862 -2.88395 0
M  V30 10128 H 975.686 -3.83736 -1.90904 0
M  V30 10129 H 979.87 -4.73 -1.50283 0
M  V30 10130 H 975.126 -6.03723 -0.965838 0
M  V30 10131 H 979.3 -6.94081 -0.567883 0
M  V30 10132 H 976.927 -7.59633 -0.293639 0
M  V30 10133 N 978.502 0.731368 -1.39602 0
M  V30 10134 C 979.412 1.87579 -1.40894 0
M  V30 10135 C 980.428 1.71336 -0.303319 0
M  V30 10136 O 981.604 1.93875 -0.545377 0
M  V30 10137 C 978.669 3.23211 -1.25442 0
M  V30 10138 C 977.73 3.51822 -2.46008 0
M  V30 10139 C 976.963 4.80982 -2.31284 0
M  V30 10140 O 977.186 5.54958 -1.31824 0
M  V30 10141 O 976.12 5.09574 -3.20341 0
M  V30 10142 H 979.946 1.89444 -2.3737 0
M  V30 10143 H 977.531 0.879675 -1.20756 0
M  V30 10144 H 979.413 4.04257 -1.18972 0
M  V30 10145 H 978.088 3.22108 -0.320637 0
M  V30 10146 H 976.995 2.70847 -2.58055 0
M  V30 10147 H 978.328 3.57707 -3.38093 0
M  V30 10148 N 979.98 1.24838 0.961938 0
M  V30 10149 C 981.226 1.09313 1.70817 0
M  V30 10150 C 981.559 -0.366244 1.90715 0
M  V30 10151 O 980.834 -1.27036 1.47282 0
M  V30 10152 C 981.117 1.83988 3.09549 0
M  V30 10153 C 980.97 3.3771 2.97106 0
M  V30 10154 C 982.289 1.61718 4.09311 0
M  V30 10155 H 979.408 0.398498 0.619974 0
M  V30 10156 H 982.05 1.53579 1.11864 0
M  V30 10157 H 980.2 1.46363 3.59875 0
M  V30 10158 H 981.872 3.84967 2.54161 0
M  V30 10159 H 980.115 3.65795 2.33187 0
M  V30 10160 H 980.786 3.85166 3.95412 0
M  V30 10161 H 983.262 1.94458 3.67866 0
M  V30 10162 H 982.138 2.16415 5.04436 0
M  V30 10163 H 982.399 0.55677 4.3858 0
M  V30 10164 N 981.458 -1.16348 1.06306 0
M  V30 10165 C 982.705 -1.86881 0.779852 0
M  V30 10166 C 983.033 -1.8171 -0.693668 0
M  V30 10167 O 982.288 -1.22769 -1.52401 0
M  V30 10168 C 982.587 -3.35936 1.21991 0
M  V30 10169 C 982.253 -3.61307 2.69756 0
M  V30 10170 C 980.915 -3.6794 3.10119 0
M  V30 10171 C 983.267 -3.71871 3.65187 0
M  V30 10172 C 980.595 -3.82639 4.44752 0
M  V30 10173 C 982.947 -3.88091 4.99568 0
M  V30 10174 C 981.611 -3.92967 5.39568 0
M  V30 10175 H 980.881 -0.683847 0.285368 0
M  V30 10176 H 983.528 -1.37569 1.33218 0
M  V30 10177 H 981.833 -3.87381 0.586774 0
M  V30 10178 H 983.53 -3.88895 0.977821 0
M  V30 10179 H 980.12 -3.56777 2.37504 0
M  V30 10180 H 984.304 -3.66057 3.35136 0
M  V30 10181 H 979.56 -3.84666 4.75228 0
M  V30 10182 H 983.734 -3.95207 5.73397 0
M  V30 10183 H 981.361 -4.04109 6.43895 0
M  V30 10184 N 982.937 -0.845659 -1.3299 0
M  V30 10185 C 983.847 -0.2864 -2.32845 0
M  V30 10186 C 984.863 0.591105 -1.63652 0
M  V30 10187 O 986.039 0.493615 -1.95257 0
M  V30 10188 C 983.104 0.523636 -3.42723 0
M  V30 10189 C 982.165 -0.378945 -4.27624 0
M  V30 10190 C 981.398 0.392526 -5.32255 0
M  V30 10191 O 981.621 1.6235 -5.46808 0
M  V30 10192 O 980.555 -0.237 -6.01433 0
M  V30 10193 H 984.381 -1.11346 -2.82552 0
M  V30 10194 H 981.966 -0.608356 -1.36453 0
M  V30 10195 H 983.848 0.983718 -4.09757 0
M  V30 10196 H 982.523 1.32764 -2.95221 0
M  V30 10197 H 981.43 -0.887012 -3.63432 0
M  V30 10198 H 982.763 -1.1479 -4.78627 0
M  V30 10199 N 984.415 1.45619 -0.602734 0
M  V30 10200 C 985.345 2.33258 0.106342 0
M  V30 10201 C 986.326 1.46543 0.863664 0
M  V30 10202 O 987.511 1.75324 0.835175 0
M  V30 10203 C 984.641 3.29168 1.10751 0
M  V30 10204 C 983.595 4.25481 0.463717 0
M  V30 10205 C 982.921 5.11046 1.57278 0
M  V30 10206 C 984.221 5.18702 -0.61199 0
M  V30 10207 H 985.915 2.92795 -0.625423 0
M  V30 10208 H 983.461 1.40793 -0.302213 0
M  V30 10209 H 985.414 3.89346 1.61208 0
M  V30 10210 H 984.138 2.6778 1.8698 0
M  V30 10211 H 982.797 3.66595 -0.0199496 0
M  V30 10212 H 982.445 4.46029 2.32524 0
M  V30 10213 H 982.145 5.76286 1.14755 0
M  V30 10214 H 983.669 5.74091 2.07972 0
M  V30 10215 H 985.083 5.72979 -0.191686 0
M  V30 10216 H 983.48 5.92393 -0.958686 0
M  V30 10217 H 984.55 4.61424 -1.4905 0
M  V30 10218 N 985.893 0.34162 1.53853 0
M  V30 10219 C 986.803 -0.524555 2.2866 0
M  V30 10220 C 987.819 -1.1136 1.33697 0
M  V30 10221 O 988.995 -1.1297 1.66732 0
M  V30 10222 C 986.06 -1.66065 3.04341 0
M  V30 10223 C 985.121 -1.10158 4.14926 0
M  V30 10224 C 984.354 -2.18353 4.86988 0
M  V30 10225 O 984.577 -3.39038 4.58704 0
M  V30 10226 O 983.511 -1.82756 5.73484 0
M  V30 10227 H 987.337 0.0835014 3.03585 0
M  V30 10228 H 984.922 0.106727 1.49018 0
M  V30 10229 H 986.804 -2.3217 3.51674 0
M  V30 10230 H 985.479 -2.25456 2.32275 0
M  V30 10231 H 984.386 -0.405109 3.719 0
M  V30 10232 H 985.719 -0.552567 4.89088 0
M  V30 10233 N 987.371 -1.57444 0.0701946 0
M  V30 10234 C 988.619 -1.93047 -0.598106 0
M  V30 10235 C 988.94 -0.950841 -1.70247 0
M  V30 10236 O 988.21 0.00127177 -1.959 0
M  V30 10237 H 986.79 -0.712648 -0.223924 0
M  V30 10238 H 989.452 -1.94481 0.127674 0
M  V30 10239 H 988.548 -2.94807 -1.02445 0
M  V30 10240 N 988.849 0.203349 -1.56283 0
M  V30 10241 C 989.797 1.27157 -1.94766 0
M  V30 10242 C 990.791 1.4756 -0.832005 0
M  V30 10243 O 991.997 1.48519 -1.01696 0
M  V30 10244 H 988.372 0.426712 -0.61921 0
M  V30 10245 H 990.343 0.919921 -2.83866 0
M  V30 10246 C 989.092 2.6108 -2.29636 0
M  V30 10247 H 988.415 2.46193 -3.15006 0
M  V30 10248 H 989.855 3.34591 -2.60433 0
M  V30 10249 C 988.314 3.17456 -1.12799 0
M  V30 10250 O 988.844 3.99717 -0.398661 0
M  V30 10251 N 987.05 2.76084 -0.906975 0
M  V30 10252 H 986.597 2.09294 -1.50179 0
M  V30 10253 H 986.555 3.14143 -0.127005 0
M  V30 10254 N 990.327 1.50405 0.470755 0
M  V30 10255 C 991.604 1.51929 1.23195 0
M  V30 10256 C 991.984 0.264159 2.09441 0
M  V30 10257 O 991.332 -0.752395 2.15757 0
M  V30 10258 C 991.542 2.81521 2.06269 0
M  V30 10259 C 992.89 3.32195 2.64446 0
M  V30 10260 O 993.914 2.82845 2.16511 0
M  V30 10261 O 992.773 4.18221 3.51786 0
M  V30 10262 H 989.867 0.609411 0.559059 0
M  V30 10263 H 992.413 1.62695 0.482549 0
M  V30 10264 H 991.185 3.64346 1.42715 0
M  V30 10265 H 990.808 2.7376 2.88342 0
M  V30 10266 N 991.805 -0.723954 1.39988 0
M  V30 10267 C 993.051 -1.48591 1.38017 0
M  V30 10268 C 993.384 -1.94189 -0.0203522 0
M  V30 10269 O 992.659 -1.67572 -0.987422 0
M  V30 10270 C 992.942 -2.71786 2.36229 0
M  V30 10271 C 992.795 -2.32136 3.8527 0
M  V30 10272 C 994.114 -3.73921 2.32102 0
M  V30 10273 H 991.233 -0.538993 0.502648 0
M  V30 10274 H 993.875 -0.826908 1.71062 0
M  V30 10275 H 992.025 -3.28015 2.0818 0
M  V30 10276 H 993.697 -1.81454 4.24113 0
M  V30 10277 H 991.94 -1.64234 4.01509 0
M  V30 10278 H 992.611 -3.20406 4.49493 0
M  V30 10279 H 995.087 -3.27303 2.56928 0
M  V30 10280 H 993.963 -4.5777 3.02882 0
M  V30 10281 H 994.224 -4.21627 1.32979 0
M  V30 10282 N 993.283 -1.25346 -0.955304 0
M  V30 10283 C 994.523 -1.11259 -1.71467 0
M  V30 10284 C 994.887 0.340759 -1.88952 0
M  V30 10285 O 996.088 0.60344 -2.61939 0
M  V30 10286 C 994.359 -1.84541 -3.06071 0
M  V30 10287 S 995.918 -1.86337 -3.97271 0
M  V30 10288 H 992.736 -0.397683 -0.58938 0
M  V30 10289 H 995.338 -1.58861 -1.13945 0
M  V30 10290 H 994.042 -2.89377 -2.91014 0
M  V30 10291 H 993.573 -1.37323 -3.68654 0
M  V30 10292 H 995.588 -0.939925 -4.87216 0
M  V30 10293 N 994.761 1.15782 -1.06922 0
M  V30 10294 C 995.708 2.2038 -0.685659 0
M  V30 10295 C 996.678 1.62972 0.320816 0
M  V30 10296 O 997.863 1.8966 0.208258 0
M  V30 10297 C 995.003 3.44995 -0.084998 0
M  V30 10298 C 994.116 4.16621 -1.14242 0
M  V30 10299 C 993.251 5.28773 -0.507226 0
M  V30 10300 C 992.29 5.92209 -1.54774 0
M  V30 10301 N 991.427 6.9584 -0.935443 0
M  V30 10302 H 996.267 2.5254 -1.58201 0
M  V30 10303 H 993.804 1.24031 -0.790864 0
M  V30 10304 H 995.762 4.16254 0.280845 0
M  V30 10305 H 994.392 3.13365 0.774725 0
M  V30 10306 H 993.444 3.43903 -1.62589 0
M  V30 10307 H 994.756 4.59884 -1.93154 0
M  V30 10308 H 993.91 6.06635 -0.0887719 0
M  V30 10309 H 992.649 4.8669 0.313704 0
M  V30 10310 H 991.654 5.13063 -1.97602 0
M  V30 10311 H 992.879 6.3637 -2.37088 0
M  V30 10312 H 990.825 6.5586 -0.135339 0
M  V30 10313 H 990.742 7.37508 -1.66186 0
M  V30 10314 H 992.01 7.77611 -0.542346 0
M  V30 10315 N 996.239 0.8527 1.3254 0
M  V30 10316 C 997.469 0.468363 2.01221 0
M  V30 10317 C 997.877 -0.938966 1.64256 0
M  V30 10318 O 997.22 -1.62387 0.858837 0
M  V30 10319 C 997.282 0.525457 3.55639 0
M  V30 10320 C 996.946 1.89133 4.16026 0
M  V30 10321 C 997.943 2.85652 4.34395 0
M  V30 10322 C 995.628 2.18795 4.52144 0
M  V30 10323 C 997.622 4.09985 4.88048 0
M  V30 10324 C 995.309 3.43381 5.05502 0
M  V30 10325 C 996.307 4.38792 5.23403 0
M  V30 10326 O 995.995 5.61173 5.75622 0
M  V30 10327 H 995.727 0.182712 0.65084 0
M  V30 10328 H 998.281 1.15076 1.70138 0
M  V30 10329 H 996.511 -0.213779 3.86109 0
M  V30 10330 H 998.2 0.156999 4.05596 0
M  V30 10331 H 998.966 2.6404 4.06827 0
M  V30 10332 H 994.845 1.45317 4.37498 0
M  V30 10333 H 998.389 4.84465 5.01936 0
M  V30 10334 H 994.286 3.64844 5.32503 0
M  V30 10335 H 995.054 5.63104 5.94017 0
M  V30 10336 N 997.718 -1.45297 0.610449 0
M  V30 10337 C 998.995 -1.95562 0.0386189 0
M  V30 10338 C 999.375 -1.55284 -1.43004 0
M  V30 10339 O 998.723 -0.816785 -2.13403 0
M  V30 10340 C 998.933 -3.48176 0.239731 0
M  V30 10341 C 1000.28 -4.24425 0.122035 0
M  V30 10342 O 1001.3 -3.55794 0.170003 0
M  V30 10343 O 1000.16 -5.46499 0.00953695 0
M  V30 10344 H 997.258 -0.826296 -0.0341081 0
M  V30 10345 H 999.804 -1.55449 0.68071 0
M  V30 10346 H 998.576 -3.70471 1.25963 0
M  V30 10347 H 998.199 -3.95186 -0.437486 0
M  V30 10348 N 999.196 -0.349774 -1.5367 0
M  V30 10349 C 1000.44 0.244827 -2.01015 0
M  V30 10350 C 1000.77 1.50057 -1.23746 0
M  V30 10351 O 1000.03 1.9315 -0.314872 0
M  V30 10352 C 1000.32 0.598311 -3.52356 0
M  V30 10353 C 999.991 -0.56127 -4.47393 0
M  V30 10354 C 998.653 -0.879481 -4.73095 0
M  V30 10355 C 1001 -1.3389 -5.03709 0
M  V30 10356 C 998.333 -1.97758 -5.52366 0
M  V30 10357 C 1000.68 -2.4273 -5.84179 0
M  V30 10358 C 999.349 -2.75103 -6.08173 0
M  V30 10359 H 998.619 0.0895884 -0.735564 0
M  V30 10360 H 1001.27 -0.478975 -1.85413 0
M  V30 10361 H 999.571 1.40291 -3.65822 0
M  V30 10362 H 1001.27 1.07036 -3.86451 0
M  V30 10363 H 997.858 -0.303201 -4.27526 0
M  V30 10364 H 1002.04 -1.10632 -4.83812 0
M  V30 10365 H 997.298 -2.23257 -5.6918 0
M  V30 10366 H 1001.47 -3.03412 -6.26828 0
M  V30 10367 H 999.099 -3.60317 -6.69385 0
M  V30 10368 N 1000.67 1.57404 -0.0785433 0
M  V30 10369 C 1001.92 1.94031 0.589896 0
M  V30 10370 C 1002.25 0.959297 1.68852 0
M  V30 10371 O 1001.53 -0.0103978 1.94497 0
M  V30 10372 C 1001.81 3.40886 1.16055 0
M  V30 10373 C 1001.66 4.49748 0.0681072 0
M  V30 10374 C 1002.98 3.88699 2.06401 0
M  V30 10375 H 1000.1 0.70556 0.212965 0
M  V30 10376 H 1002.74 1.89439 -0.145886 0
M  V30 10377 H 1000.89 3.4493 1.78761 0
M  V30 10378 H 1002.57 4.57823 -0.565318 0
M  V30 10379 H 1000.81 4.29625 -0.600431 0
M  V30 10380 H 1001.48 5.49658 0.507906 0
M  V30 10381 H 1003.96 3.86703 1.53622 0
M  V30 10382 H 1002.83 4.92052 2.43261 0
M  V30 10383 H 1003.09 3.2703 2.97496 0
M  V30 10384 N 1002.15 -0.195058 1.56388 0
M  V30 10385 C 1003.06 -1.26219 1.97752 0
M  V30 10386 C 1004.08 -1.49801 0.885192 0
M  V30 10387 O 1005.25 -1.62415 1.19094 0
M  V30 10388 C 1002.32 -2.5865 2.3087 0
M  V30 10389 C 1001.38 -2.4314 3.5381 0
M  V30 10390 C 1000.61 -3.69255 3.85339 0
M  V30 10391 O 1000.84 -4.73425 3.18159 0
M  V30 10392 O 999.77 -3.64782 4.78767 0
M  V30 10393 H 1003.6 -0.941161 2.88749 0
M  V30 10394 H 1001.18 -0.40006 1.43944 0
M  V30 10395 H 1003.06 -3.36814 2.53247 0
M  V30 10396 H 1001.74 -2.9038 1.43042 0
M  V30 10397 H 1000.64 -1.63086 3.3668 0
M  V30 10398 H 1001.98 -2.16341 4.42105 0
M  V30 10399 N 1003.63 -1.50653 -0.462772 0
M  V30 10400 C 1004.88 -1.62297 -1.21603 0
M  V30 10401 C 1005.21 -0.326191 -1.91441 0
M  V30 10402 O 1004.48 0.67284 -1.82491 0
M  V30 10403 C 1004.77 -2.80901 -2.25315 0
M  V30 10404 C 1004.62 -4.20484 -1.59728 0
M  V30 10405 C 1005.94 -2.95049 -3.26549 0
M  V30 10406 H 1003.06 -0.590691 -0.440741 0
M  V30 10407 H 1005.7 -1.83064 -0.508675 0
M  V30 10408 H 1003.85 -2.63325 -2.85643 0
M  V30 10409 H 1005.52 -4.49669 -1.02932 0
M  V30 10410 H 1003.76 -4.24357 -0.900181 0
M  V30 10411 H 1004.44 -4.99416 -2.35133 0
M  V30 10412 H 1006.91 -3.11166 -2.76251 0
M  V30 10413 H 1005.79 -3.79645 -3.96435 0
M  V30 10414 H 1006.05 -2.06019 -3.91163 0
M  V30 10415 N 1005.11 0.71652 -1.4037 0
M  V30 10416 C 1006.52 1.02447 -1.22379 0
M  V30 10417 C 1006.72 2.0126 -0.0983394 0
M  V30 10418 O 1005.78 2.46569 0.544071 0
M  V30 10419 C 1007.09 1.56909 -2.56515 0
M  V30 10420 C 1008.64 1.68898 -2.6352 0
M  V30 10421 C 1009.12 2.26765 -3.97922 0
M  V30 10422 N 1010.61 2.34152 -3.99658 0
M  V30 10423 C 1011.34 2.79907 -5.00439 0
M  V30 10424 N 1010.84 3.25422 -6.11615 0
M  V30 10425 N 1012.63 2.79283 -4.87809 0
M  V30 10426 H 1004.78 0.0615306 -2.12311 0
M  V30 10427 H 1007.05 0.0898994 -0.943728 0
M  V30 10428 H 1006.75 0.917649 -3.39517 0
M  V30 10429 H 1006.63 2.55446 -2.77538 0
M  V30 10430 H 1009.01 2.33159 -1.8089 0
M  V30 10431 H 1009.09 0.689626 -2.46329 0
M  V30 10432 H 1008.74 1.63126 -4.80991 0
M  V30 10433 H 1008.67 3.27413 -4.12442 0
M  V30 10434 H 1011.16 2.02006 -3.19378 0
M  V30 10435 H 1011.47 3.58899 -6.84406 0
M  V30 10436 H 1009.82 3.23383 -6.15181 0
M  V30 10437 H 1013.01 2.43061 -4.00049 0
M  V30 10438 H 1013.18 3.14626 -5.66493 0
M  V30 10439 N 1006.59 1.25851 0.948643 0
M  V30 10440 C 1007.81 1.13813 1.73382 0
M  V30 10441 C 1008.24 -0.303615 1.85633 0
M  V30 10442 O 1007.59 -1.21997 1.34114 0
M  V30 10443 C 1007.64 1.80388 3.12238 0
M  V30 10444 O 1006.75 1.08759 3.978 0
M  V30 10445 H 1006.09 0.397006 0.532243 0
M  V30 10446 H 1008.62 1.66529 1.18866 0
M  V30 10447 H 1008.63 1.86913 3.62667 0
M  V30 10448 H 1007.3 2.85278 3.02637 0
M  V30 10449 H 1005.88 1.10157 3.56258 0
M  V30 10450 N 1008.06 -1.15214 1.07534 0
M  V30 10451 C 1009.31 -1.85676 0.79805 0
M  V30 10452 C 1009.63 -1.82837 -0.677919 0
M  V30 10453 O 1008.9 -1.27059 -1.49107 0
M  V30 10454 H 1007.48 -0.687468 0.292227 0
M  V30 10455 H 1010.15 -1.39658 1.35947 0
M  V30 10456 H 1009.24 -2.9076 1.13423 0
M  V30 10457 N 1009.54 -0.859717 -1.32086 0
M  V30 10458 C 1010.47 -0.323502 -2.31248 0
M  V30 10459 C 1011.45 0.580085 -1.59903 0
M  V30 10460 O 1012.64 0.499265 -1.87673 0
M  V30 10461 C 1009.77 0.484661 -3.43902 0
M  V30 10462 C 1008.72 -0.324933 -4.26765 0
M  V30 10463 C 1008.05 0.608281 -5.31229 0
M  V30 10464 C 1009.35 -1.55344 -4.98664 0
M  V30 10465 H 1011.04 -1.15209 -2.76346 0
M  V30 10466 H 1008.59 -0.555442 -1.32856 0
M  V30 10467 H 1010.54 0.870238 -4.12316 0
M  V30 10468 H 1009.27 1.34666 -2.97544 0
M  V30 10469 H 1007.92 -0.692328 -3.60003 0
M  V30 10470 H 1007.57 1.46727 -4.81124 0
M  V30 10471 H 1007.27 0.0705571 -5.87558 0
M  V30 10472 H 1008.8 0.990925 -6.02506 0
M  V30 10473 H 1010.21 -1.23987 -5.59732 0
M  V30 10474 H 1008.61 -2.02947 -5.64741 0
M  V30 10475 H 1009.68 -2.31192 -4.26237 0
M  V30 10476 N 1011.02 1.44971 -0.618145 0
M  V30 10477 C 1012.25 2.07039 -0.122395 0
M  V30 10478 C 1012.67 1.45793 1.18853 0
M  V30 10479 O 1012.03 0.55453 1.72611 0
M  V30 10480 C 1012.08 3.60599 -0.0073864 0
M  V30 10481 O 1011.18 3.99069 1.04007 0
M  V30 10482 H 1010.52 0.6593 -0.0788615 0
M  V30 10483 H 1013.05 1.86055 -0.851147 0
M  V30 10484 H 1013.06 4.07569 0.187417 0
M  V30 10485 H 1011.74 4.04561 -0.964544 0
M  V30 10486 H 1010.31 3.63753 0.820879 0
M  V30 10487 N 1012.5 0.357919 1.53482 0
M  V30 10488 C 1013.91 -0.122938 1.86295 0
M  V30 10489 C 1014.26 -1.48803 1.27875 0
M  V30 10490 O 1013.39 -2.07978 0.597828 0
M  V30 10491 C 1013.98 -0.229853 3.38019 0
M  V30 10492 C 1012.54 -0.654955 3.70658 0
M  V30 10493 C 1011.69 0.202539 2.76559 0
M  V30 10494 H 1014.64 0.576997 1.47839 0
M  V30 10495 H 1014.66 -1.05481 3.65587 0
M  V30 10496 H 1014.17 0.763825 3.80509 0
M  V30 10497 H 1012.27 -1.65714 3.33721 0
M  V30 10498 H 1012.38 -0.43488 4.77122 0
M  V30 10499 H 1010.75 -0.327388 2.52587 0
M  V30 10500 H 1011.53 1.19361 3.21882 0
M  V30 10501 N 1013.98 -1.5736 0.0868897 0
M  V30 10502 C 1015.25 -1.85495 -0.620561 0
M  V30 10503 C 1015.63 -0.982218 -1.86857 0
M  V30 10504 O 1014.98 -0.0524529 -2.2844 0
M  V30 10505 C 1015.19 -3.35996 -0.943798 0
M  V30 10506 C 1016.54 -4.03861 -1.31079 0
M  V30 10507 O 1017.56 -3.4083 -1.03507 0
M  V30 10508 O 1016.42 -5.15062 -1.82683 0
M  V30 10509 H 1013.52 -0.766822 -0.309697 0
M  V30 10510 H 1016.06 -1.69282 0.118966 0
M  V30 10511 H 1014.83 -3.91257 -0.0580628 0
M  V30 10512 H 1014.46 -3.57525 -1.73958 0
M  V30 10513 N 1015.45 0.186762 -1.56489 0
M  V30 10514 C 1016.42 1.21511 -1.94339 0
M  V30 10515 C 1017.42 1.38001 -0.82537 0
M  V30 10516 O 1018.61 1.3567 -1.09266 0
M  V30 10517 C 1015.74 2.583 -2.22472 0
M  V30 10518 H 1016.93 0.891371 -2.86347 0
M  V30 10519 H 1014.49 0.428612 -1.50308 0
M  V30 10520 H 1015.22 2.95715 -1.33129 0
M  V30 10521 H 1015.01 2.47701 -3.03951 0
M  V30 10522 H 1016.5 3.32441 -2.5273 0
M  V30 10523 N 1016.93 1.50896 0.454776 0
M  V30 10524 C 1017.88 1.70947 1.55067 0
M  V30 10525 C 1018.85 0.550899 1.56698 0
M  V30 10526 O 1020.03 0.783352 1.73978 0
M  V30 10527 C 1017.17 1.82455 2.92924 0
M  V30 10528 C 1016.29 3.09919 3.00956 0
M  V30 10529 C 1015.42 3.12125 4.29827 0
M  V30 10530 C 1014.46 4.33975 4.31662 0
M  V30 10531 N 1013.6 4.33828 5.5203 0
M  V30 10532 H 1018.44 2.645 1.37273 0
M  V30 10533 H 1015.98 1.31101 0.667148 0
M  V30 10534 H 1017.93 1.87108 3.72889 0
M  V30 10535 H 1016.56 0.92327 3.09315 0
M  V30 10536 H 1015.62 3.14659 2.13761 0
M  V30 10537 H 1016.93 3.99869 2.98172 0
M  V30 10538 H 1016.08 3.15598 5.18154 0
M  V30 10539 H 1014.82 2.20033 4.35243 0
M  V30 10540 H 1013.83 4.30697 3.41731 0
M  V30 10541 H 1015.05 5.27312 4.27924 0
M  V30 10542 H 1013 3.44598 5.58201 0
M  V30 10543 H 1012.91 5.17566 5.51055 0
M  V30 10544 H 1014.18 4.4147 6.42437 0
M  V30 10545 N 1018.41 -0.709066 1.40748 0
M  V30 10546 C 1019.34 -1.83583 1.4429 0
M  V30 10547 C 1020.32 -1.67378 0.303067 0
M  V30 10548 O 1021.51 -1.87312 0.512612 0
M  V30 10549 C 1018.64 -3.21599 1.31116 0
M  V30 10550 C 1017.59 -3.52486 2.4277 0
M  V30 10551 C 1016.92 -4.89716 2.14668 0
M  V30 10552 C 1018.22 -3.52824 3.85113 0
M  V30 10553 H 1019.91 -1.80876 2.38588 0
M  V30 10554 H 1017.46 -0.868795 1.14839 0
M  V30 10555 H 1019.41 -4.00123 1.32209 0
M  V30 10556 H 1018.13 -3.24898 0.332965 0
M  V30 10557 H 1016.79 -2.76305 2.40937 0
M  V30 10558 H 1016.44 -4.89625 1.15224 0
M  V30 10559 H 1016.14 -5.11347 2.89478 0
M  V30 10560 H 1017.66 -5.70566 2.17455 0
M  V30 10561 H 1019.08 -4.21377 3.88734 0
M  V30 10562 H 1017.48 -3.85984 4.59496 0
M  V30 10563 H 1018.55 -2.52073 4.14231 0
M  V30 10564 N 1019.89 -1.26353 -0.941956 0
M  V30 10565 C 1020.84 -1.04513 -2.02635 0
M  V30 10566 C 1021.82 0.0222314 -1.60885 0
M  V30 10567 O 1023.02 -0.194629 -1.75927 0
M  V30 10568 C 1020.14 -0.679282 -3.36512 0
M  V30 10569 C 1019.23 -1.78406 -3.8475 0
M  V30 10570 N 1019.62 -3.02136 -4.05645 0
M  V30 10571 C 1017.92 -1.66748 -4.13656 0
M  V30 10572 C 1018.62 -3.73932 -4.45589 0
M  V30 10573 N 1017.6 -3.01616 -4.52248 0
M  V30 10574 H 1021.4 -1.9843 -2.16801 0
M  V30 10575 H 1018.91 -1.16858 -1.12774 0
M  V30 10576 H 1020.91 -0.503975 -4.13843 0
M  V30 10577 H 1019.57 0.252418 -3.23717 0
M  V30 10578 H 1020.58 -3.38049 -3.92356 0
M  V30 10579 H 1017.26 -0.805627 -4.09653 0
M  V30 10580 H 1018.65 -4.80201 -4.69954 0
M  V30 10581 N 1021.37 1.14642 -1.08144 0
M  V30 10582 C 1022.62 1.8525 -0.807885 0
M  V30 10583 C 1022.94 1.83194 0.668213 0
M  V30 10584 O 1022.21 1.27848 1.48431 0
M  V30 10585 H 1020.79 0.685909 -0.295868 0
M  V30 10586 H 1023.45 1.38935 -1.36686 0
M  V30 10587 H 1022.54 2.90155 -1.14964 0
M  V30 10588 N 1022.85 0.866709 1.31628 0
M  V30 10589 C 1024.26 0.558188 1.49521 0
M  V30 10590 C 1024.46 -0.90844 1.7986 0
M  V30 10591 O 1023.52 -1.6908 1.87531 0
M  V30 10592 C 1024.83 1.45559 2.63122 0
M  V30 10593 C 1026.38 1.45728 2.77006 0
M  V30 10594 C 1026.85 2.34017 3.937 0
M  V30 10595 N 1028.34 2.31879 4.00982 0
M  V30 10596 C 1029.08 2.96915 4.90539 0
M  V30 10597 N 1028.58 3.71109 5.85021 0
M  V30 10598 N 1030.37 2.86241 4.83759 0
M  V30 10599 H 1022.52 1.81574 1.10203 0
M  V30 10600 H 1024.78 0.77621 0.544244 0
M  V30 10601 H 1024.49 2.49904 2.47469 0
M  V30 10602 H 1024.36 1.15174 3.59186 0
M  V30 10603 H 1026.75 0.421419 2.92075 0
M  V30 10604 H 1026.83 1.80134 1.81619 0
M  V30 10605 H 1026.47 3.37678 3.79389 0
M  V30 10606 H 1026.4 1.96937 4.88388 0
M  V30 10607 H 1028.9 1.77948 3.33381 0
M  V30 10608 H 1029.21 4.1787 6.5008 0
M  V30 10609 H 1027.55 3.75217 5.8501 0
M  V30 10610 H 1030.74 2.27819 4.08921 0
M  V30 10611 H 1030.92 3.37206 5.5335 0
M  V30 10612 N 1024.32 -1.44642 0.625825 0
M  V30 10613 C 1025.57 -2.02094 0.128201 0
M  V30 10614 C 1025.9 -1.49181 -1.24801 0
M  V30 10615 O 1025.15 -0.663965 -1.84092 0
M  V30 10616 C 1025.45 -3.57352 0.0584381 0
M  V30 10617 C 1025.12 -4.29496 1.37272 0
M  V30 10618 C 1023.78 -4.48922 1.7327 0
M  V30 10619 C 1026.13 -4.70586 2.2405 0
M  V30 10620 C 1023.46 -5.06697 2.95762 0
M  V30 10621 C 1025.81 -5.29717 3.45807 0
M  V30 10622 C 1024.48 -5.47363 3.82034 0
M  V30 10623 H 1023.75 -0.739514 0.0469122 0
M  V30 10624 H 1026.39 -1.73475 0.811083 0
M  V30 10625 H 1024.7 -3.85354 -0.707791 0
M  V30 10626 H 1026.4 -3.9953 -0.34303 0
M  V30 10627 H 1022.99 -4.14702 1.08258 0
M  V30 10628 H 1027.17 -4.55295 1.97535 0
M  V30 10629 H 1022.43 -5.18546 3.23913 0
M  V30 10630 H 1026.6 -5.60507 4.13286 0
M  V30 10631 H 1024.23 -5.91898 4.77033 0
M  V30 10632 N 1025.8 -0.366053 -1.5329 0
M  V30 10633 C 1027.04 0.223558 -2.03174 0
M  V30 10634 C 1027.41 1.45955 -1.24745 0
M  V30 10635 O 1028.61 2.12481 -1.64637 0
M  V30 10636 C 1026.88 0.507899 -3.53773 0
M  V30 10637 S 1028.44 1.07111 -4.25526 0
M  V30 10638 H 1025.25 0.0650309 -0.70802 0
M  V30 10639 H 1027.86 -0.509028 -1.88757 0
M  V30 10640 H 1026.56 -0.39913 -4.08455 0
M  V30 10641 H 1026.09 1.26954 -3.72352 0
M  V30 10642 H 1028.11 2.35533 -4.36737 0
M  V30 10643 N 1027.28 1.57312 -0.0952337 0
M  V30 10644 C 1028.53 1.93974 0.567319 0
M  V30 10645 C 1028.85 0.977805 1.68713 0
M  V30 10646 O 1028.12 0.0298944 1.95877 0
M  V30 10647 H 1026.7 0.71612 0.212558 0
M  V30 10648 H 1029.36 1.94254 -0.158598 0
M  V30 10649 H 1028.46 2.964 0.977423 0
M  V30 10650 N 1028.76 -0.17846 1.56586 0
M  V30 10651 C 1029.98 -0.916061 1.86073 0
M  V30 10652 C 1030.41 -1.75349 0.680754 0
M  V30 10653 O 1029.77 -1.77479 -0.37028 0
M  V30 10654 C 1029.81 -1.77445 3.1392 0
M  V30 10655 O 1028.92 -2.87524 2.95641 0
M  V30 10656 H 1028.26 -0.257031 0.612234 0
M  V30 10657 H 1030.79 -0.178755 2.03818 0
M  V30 10658 H 1030.8 -2.1758 3.45142 0
M  V30 10659 H 1029.47 -1.15927 3.99417 0
M  V30 10660 H 1028.05 -2.51023 2.75757 0
M  V30 10661 N 1030.24 -1.51135 -0.446768 0
M  V30 10662 C 1031.15 -1.74595 -1.56696 0
M  V30 10663 C 1032.16 -0.629816 -1.62201 0
M  V30 10664 O 1033.34 -0.910987 -1.79619 0
M  V30 10665 C 1030.4 -1.85738 -2.9275 0
M  V30 10666 C 1029.46 -3.09564 -2.97437 0
M  V30 10667 C 1028.7 -3.20165 -4.27001 0
M  V30 10668 O 1028.92 -2.36939 -5.1886 0
M  V30 10669 O 1027.85 -4.13077 -4.3778 0
M  V30 10670 H 1031.68 -2.69601 -1.39817 0
M  V30 10671 H 1029.26 -1.35523 -0.628805 0
M  V30 10672 H 1031.15 -1.95107 -3.73512 0
M  V30 10673 H 1029.82 -0.939184 -3.09776 0
M  V30 10674 H 1028.73 -3.05679 -2.15664 0
M  V30 10675 H 1030.06 -4.01041 -2.85353 0
M  V30 10676 N 1031.71 0.701592 -1.41122 0
M  V30 10677 C 1032.94 1.49049 -1.43499 0
M  V30 10678 C 1033.36 1.88761 -0.0385684 0
M  V30 10679 O 1032.71 1.56384 0.940755 0
M  V30 10680 C 1032.76 2.7569 -2.33832 0
M  V30 10681 O 1032.49 2.37653 -3.68039 0
M  V30 10682 C 1033.99 3.69479 -2.44949 0
M  V30 10683 H 1031.21 0.459519 -0.488961 0
M  V30 10684 H 1033.75 0.864318 -1.85337 0
M  V30 10685 H 1031.91 3.34559 -1.95318 0
M  V30 10686 H 1032.32 3.19241 -4.16156 0
M  V30 10687 H 1033.79 4.55139 -3.12334 0
M  V30 10688 H 1034.27 4.13553 -1.47887 0
M  V30 10689 H 1034.88 3.16517 -2.84072 0
M  V30 10690 N 1033.19 1.2685 0.935242 0
M  V30 10691 C 1034.6 1.11569 1.49697 0
M  V30 10692 C 1034.95 -0.301952 1.93863 0
M  V30 10693 O 1034.08 -1.19408 1.80473 0
M  V30 10694 C 1034.67 2.01918 2.72056 0
M  V30 10695 C 1033.23 1.90765 3.24477 0
M  V30 10696 C 1032.38 1.94918 1.97237 0
M  V30 10697 H 1035.33 1.39853 0.750116 0
M  V30 10698 H 1035.35 1.57056 3.46574 0
M  V30 10699 H 1034.86 3.05088 2.39881 0
M  V30 10700 H 1032.96 0.905521 3.61429 0
M  V30 10701 H 1033.08 2.76611 3.91182 0
M  V30 10702 H 1031.44 1.39046 2.13397 0
M  V30 10703 H 1032.22 2.99729 1.67385 0
M  V30 10704 N 1034.67 -1.14067 1.0875 0
M  V30 10705 C 1035.58 -2.22871 0.732498 0
M  V30 10706 C 1036.6 -1.72008 -0.26253 0
M  V30 10707 O 1037.77 -2.01123 -0.105601 0
M  V30 10708 C 1034.84 -3.46371 0.150913 0
M  V30 10709 C 1033.9 -4.12158 1.201 0
M  V30 10710 C 1033.13 -5.29763 0.647075 0
M  V30 10711 O 1033.35 -5.67911 -0.532307 0
M  V30 10712 O 1032.29 -5.8542 1.3988 0
M  V30 10713 H 1036.11 -2.55596 1.64025 0
M  V30 10714 H 1033.7 -1.22065 0.861417 0
M  V30 10715 H 1035.58 -4.21055 -0.170442 0
M  V30 10716 H 1034.26 -3.15362 -0.729948 0
M  V30 10717 H 1033.16 -3.39332 1.57494 0
M  V30 10718 H 1034.5 -4.47282 2.05426 0
M  V30 10719 N 1036.15 -0.873678 -1.31166 0
M  V30 10720 C 1037.39 -0.487178 -1.96861 0
M  V30 10721 C 1037.73 0.95887 -1.68877 0
M  V30 10722 O 1037 1.6758 -0.987279 0
M  V30 10723 C 1037.29 -0.74925 -3.52219 0
M  V30 10724 C 1037.14 -2.2451 -3.89763 0
M  V30 10725 C 1038.46 -0.218194 -4.39559 0
M  V30 10726 H 1035.58 -0.178477 -0.715063 0
M  V30 10727 H 1038.22 -1.0956 -1.55231 0
M  V30 10728 H 1036.37 -0.231403 -3.8781 0
M  V30 10729 H 1038.04 -2.83049 -3.64254 0
M  V30 10730 H 1036.28 -2.71621 -3.38237 0
M  V30 10731 H 1036.95 -2.37911 -4.98099 0
M  V30 10732 H 1039.43 -0.661274 -4.10812 0
M  V30 10733 H 1038.31 -0.430983 -5.47205 0
M  V30 10734 H 1038.57 0.880056 -4.33252 0
M  V30 10735 N 1037.63 1.44308 -0.633487 0
M  V30 10736 C 1038.88 2.01239 -0.136356 0
M  V30 10737 C 1039.19 1.50438 1.25011 0
M  V30 10738 O 1040.39 1.99513 1.84138 0
M  V30 10739 C 1038.85 3.59382 -0.193011 0
M  V30 10740 C 1038.46 4.19178 -1.58093 0
M  V30 10741 C 1040.2 4.23778 0.247534 0
M  V30 10742 C 1038.11 5.69553 -1.59258 0
M  V30 10743 H 1037.04 0.752521 -0.0472109 0
M  V30 10744 H 1039.69 1.65498 -0.79263 0
M  V30 10745 H 1038.07 3.92432 0.530408 0
M  V30 10746 H 1039.25 3.97662 -2.32813 0
M  V30 10747 H 1037.56 3.67079 -1.96576 0
M  V30 10748 H 1040.16 5.34075 0.258401 0
M  V30 10749 H 1040.5 3.96285 1.27529 0
M  V30 10750 H 1041.03 3.9554 -0.423469 0
M  V30 10751 H 1037.77 6.01784 -2.59878 0
M  V30 10752 H 1037.29 5.93185 -0.888352 0
M  V30 10753 H 1038.97 6.33234 -1.32756 0
M  V30 10754 N 1039.1 0.374177 1.53094 0
M  V30 10755 C 1040.33 -0.213325 2.05797 0
M  V30 10756 C 1040.75 -1.41753 1.24706 0
M  V30 10757 O 1040.1 -1.80183 0.289868 0
M  V30 10758 C 1040.16 -0.598367 3.56513 0
M  V30 10759 O 1039.88 0.557983 4.34532 0
M  V30 10760 C 1041.38 -1.24334 4.25507 0
M  V30 10761 H 1038.6 -0.0357398 0.670048 0
M  V30 10762 H 1041.14 0.535035 1.97377 0
M  V30 10763 H 1039.3 -1.29663 3.65056 0
M  V30 10764 H 1039.71 0.244911 5.23928 0
M  V30 10765 H 1041.18 -1.46325 5.32253 0
M  V30 10766 H 1041.66 -2.20622 3.79766 0
M  V30 10767 H 1042.27 -0.586269 4.2124 0
M  V30 10768 N 1040.58 -1.57259 0.103575 0
M  V30 10769 C 1041.81 -1.99424 -0.569638 0
M  V30 10770 C 1042.23 -0.982475 -1.60403 0
M  V30 10771 O 1041.59 0.0479231 -1.81237 0
M  V30 10772 C 1041.64 -3.40527 -1.18633 0
M  V30 10773 O 1040.74 -3.42167 -2.30208 0
M  V30 10774 H 1040.08 -0.648251 -0.143759 0
M  V30 10775 H 1042.61 -2.03739 0.187493 0
M  V30 10776 H 1042.62 -3.78404 -1.5256 0
M  V30 10777 H 1041.3 -4.13686 -0.428582 0
M  V30 10778 H 1039.88 -3.16093 -1.97837 0
M  V30 10779 N 1042.06 0.170153 -1.56679 0
M  V30 10780 C 1042.99 1.23525 -1.93066 0
M  V30 10781 C 1044.01 1.40414 -0.823879 0
M  V30 10782 O 1045.19 1.40396 -1.10232 0
M  V30 10783 C 1042.29 2.60376 -2.16928 0
M  V30 10784 C 1041.47 2.6477 -3.4816 0
M  V30 10785 C 1040.53 3.82993 -3.60837 0
M  V30 10786 O 1039.55 3.68937 -4.33444 0
M  V30 10787 N 1040.75 4.99498 -2.95773 0
M  V30 10788 H 1043.52 0.926172 -2.8503 0
M  V30 10789 H 1041.08 0.359909 -1.57849 0
M  V30 10790 H 1043.07 3.37934 -2.22672 0
M  V30 10791 H 1041.64 2.83669 -1.31342 0
M  V30 10792 H 1040.86 1.73298 -3.54064 0
M  V30 10793 H 1042.15 2.64717 -4.34514 0
M  V30 10794 H 1041.55 5.13819 -2.36657 0
M  V30 10795 H 1040.11 5.74914 -3.07111 0
M  V30 10796 N 1043.54 1.5137 0.438746 0
M  V30 10797 C 1044.76 1.68058 1.21537 0
M  V30 10798 C 1045.19 0.376787 1.84288 0
M  V30 10799 O 1044.55 -0.662911 1.68746 0
M  V30 10800 C 1044.59 2.79684 2.27616 0
M  V30 10801 O 1043.7 2.43189 3.33066 0
M  V30 10802 H 1043.04 0.560408 0.356144 0
M  V30 10803 H 1045.57 1.97926 0.518311 0
M  V30 10804 H 1045.58 3.03726 2.72423 0
M  V30 10805 H 1044.25 3.74293 1.81321 0
M  V30 10806 H 1042.83 2.29713 2.93746 0
M  V30 10807 N 1045.02 -0.694098 1.41492 0
M  V30 10808 C 1045.96 -1.82932 1.43662 0
M  V30 10809 C 1046.96 -1.66455 0.31449 0
M  V30 10810 O 1048.16 -1.73298 0.486589 0
M  V30 10811 H 1044.54 -0.602847 0.449533 0
M  V30 10812 H 1046.51 -1.78218 2.39334 0
M  V30 10813 C 1045.26 -3.20962 1.33712 0
M  V30 10814 H 1044.58 -3.34257 2.19345 0
M  V30 10815 H 1046.02 -4.00467 1.39291 0
M  V30 10816 C 1044.48 -3.36863 0.0496332 0
M  V30 10817 O 1045.01 -3.91371 -0.905093 0
M  V30 10818 N 1043.22 -2.90588 -0.0269299 0
M  V30 10819 H 1042.76 -2.46417 0.750752 0
M  V30 10820 H 1042.72 -3.01605 -0.887781 0
M  V30 10821 N 1046.49 -1.27344 -0.928501 0
M  V30 10822 C 1047.44 -1.09835 -2.05034 0
M  V30 10823 C 1048.44 -0.0216643 -1.69386 0
M  V30 10824 O 1049.64 -0.179323 -1.79105 0
M  V30 10825 H 1046.02 -0.338416 -0.671549 0
M  V30 10826 H 1047.99 -2.04879 -2.1695 0
M  V30 10827 C 1046.74 -0.761462 -3.3926 0
M  V30 10828 H 1046.06 -1.58186 -3.67175 0
M  V30 10829 H 1047.5 -0.678812 -4.18531 0
M  V30 10830 C 1045.96 0.534118 -3.32639 0
M  V30 10831 O 1046.49 1.56877 -3.69801 0
M  V30 10832 N 1044.7 0.529437 -2.85736 0
M  V30 10833 H 1044.24 -0.312954 -2.55692 0
M  V30 10834 H 1044.2 1.39637 -2.81689 0
M  V30 10835 N 1047.97 1.13488 -1.09353 0
M  V30 10836 C 1048.91 2.17951 -0.67622 0
M  V30 10837 C 1049.88 1.59482 0.316906 0
M  V30 10838 O 1051.07 1.8723 0.218459 0
M  V30 10839 C 1048.19 3.387 0.00391024 0
M  V30 10840 C 1047.24 4.15764 -0.950906 0
M  V30 10841 S 1048.07 4.75517 -2.46259 0
M  V30 10842 C 1049.23 5.99613 -1.79485 0
M  V30 10843 H 1049.46 2.53012 -1.56115 0
M  V30 10844 H 1047 1.24773 -0.909447 0
M  V30 10845 H 1048.95 4.08643 0.39002 0
M  V30 10846 H 1047.61 3.01941 0.86548 0
M  V30 10847 H 1046.81 5.02229 -0.422086 0
M  V30 10848 H 1046.41 3.51473 -1.27838 0
M  V30 10849 H 1048.7 6.68204 -1.11846 0
M  V30 10850 H 1049.64 6.57102 -2.63862 0
M  V30 10851 H 1050.05 5.50165 -1.26409 0
M  V30 10852 N 1049.45 0.880621 1.30701 0
M  V30 10853 C 1050.87 0.574015 1.4892 0
M  V30 10854 C 1051.07 -0.889312 1.80813 0
M  V30 10855 O 1050.12 -1.67082 1.89314 0
M  V30 10856 C 1051.44 1.48341 2.61563 0
M  V30 10857 C 1052.98 1.48658 2.75445 0
M  V30 10858 C 1053.46 2.3818 3.91196 0
M  V30 10859 N 1054.95 2.36119 3.985 0
M  V30 10860 C 1055.69 3.02101 4.87363 0
M  V30 10861 N 1055.18 3.77293 5.81052 0
M  V30 10862 N 1056.97 2.91356 4.80696 0
M  V30 10863 H 1049.13 1.82732 1.08271 0
M  V30 10864 H 1051.39 0.781939 0.535981 0
M  V30 10865 H 1051.09 2.52515 2.44804 0
M  V30 10866 H 1050.97 1.18977 3.57944 0
M  V30 10867 H 1053.36 0.452374 2.91612 0
M  V30 10868 H 1053.44 1.8205 1.79698 0
M  V30 10869 H 1053.08 3.41683 3.75786 0
M  V30 10870 H 1053.01 2.02106 4.86272 0
M  V30 10871 H 1055.5 1.81474 3.31475 0
M  V30 10872 H 1055.81 4.24742 6.45612 0
M  V30 10873 H 1054.16 3.81401 5.80998 0
M  V30 10874 H 1057.35 2.32143 4.06481 0
M  V30 10875 H 1057.52 3.43056 5.49742 0
M  V30 10876 N 1050.93 -1.4397 0.641131 0
M  V30 10877 C 1052.18 -2.02246 0.14985 0
M  V30 10878 C 1052.51 -1.50387 -1.22871 0
M  V30 10879 O 1051.78 -0.692003 -1.81773 0
M  V30 10880 C 1052.07 -3.59798 0.147449 0
M  V30 10881 C 1051.92 -4.21916 1.55907 0
M  V30 10882 C 1053.24 -4.36985 -0.522667 0
M  V30 10883 H 1050.36 -0.734875 0.0559274 0
M  V30 10884 H 1053 -1.71418 0.819513 0
M  V30 10885 H 1051.15 -3.86193 -0.422789 0
M  V30 10886 H 1052.82 -4.06594 2.17896 0
M  V30 10887 H 1051.06 -3.79028 2.10998 0
M  V30 10888 H 1051.74 -5.30964 1.50934 0
M  V30 10889 H 1054.21 -4.16083 -0.0376226 0
M  V30 10890 H 1053.09 -5.46676 -0.493572 0
M  V30 10891 H 1053.35 -4.12335 -1.59475 0
M  V30 10892 N 1052.41 -0.382291 -1.52893 0
M  V30 10893 C 1053.32 0.463745 -2.29971 0
M  V30 10894 C 1054.33 1.07777 -1.36602 0
M  V30 10895 O 1055.51 1.0851 -1.69669 0
M  V30 10896 C 1052.57 1.57938 -3.08637 0
M  V30 10897 C 1051.64 0.991182 -4.17701 0
M  V30 10898 C 1050.87 2.05365 -4.92606 0
M  V30 10899 O 1051.09 3.26757 -4.67532 0
M  V30 10900 O 1050.03 1.67487 -5.78128 0
M  V30 10901 H 1053.85 -0.163962 -3.03257 0
M  V30 10902 H 1051.44 -0.146199 -1.48683 0
M  V30 10903 H 1053.32 2.22765 -3.57706 0
M  V30 10904 H 1051.99 2.19218 -2.3817 0
M  V30 10905 H 1050.9 0.306364 -3.72843 0
M  V30 10906 H 1052.23 0.422699 -4.90382 0
M  V30 10907 N 1053.89 1.57202 -0.111913 0
M  V30 10908 C 1055.13 1.9495 0.547795 0
M  V30 10909 C 1055.46 0.994763 1.67137 0
M  V30 10910 O 1054.72 0.0173528 1.95692 0
M  V30 10911 C 1055.01 3.39152 1.12741 0
M  V30 10912 C 1054.68 4.50724 0.125916 0
M  V30 10913 C 1053.34 4.80968 -0.149489 0
M  V30 10914 C 1055.69 5.18215 -0.556987 0
M  V30 10915 C 1053.02 5.76023 -1.1142 0
M  V30 10916 C 1055.37 6.14307 -1.51029 0
M  V30 10917 C 1054.04 6.42947 -1.79375 0
M  V30 10918 H 1053.31 0.713372 0.200453 0
M  V30 10919 H 1055.96 1.90542 -0.191316 0
M  V30 10920 H 1054.26 3.4022 1.94313 0
M  V30 10921 H 1055.96 3.65668 1.64584 0
M  V30 10922 H 1052.55 4.27162 0.350756 0
M  V30 10923 H 1056.73 4.95012 -0.357378 0
M  V30 10924 H 1051.99 5.9652 -1.34064 0
M  V30 10925 H 1056.16 6.65692 -2.04516 0
M  V30 10926 H 1053.79 7.1641 -2.54284 0
M  V30 10927 N 1055.36 -0.161842 1.56767 0
M  V30 10928 C 1056.31 -1.2002 1.97139 0
M  V30 10929 C 1057.28 -1.43486 0.836713 0
M  V30 10930 O 1058.47 -1.56069 1.0976 0
M  V30 10931 C 1055.61 -2.53228 2.34456 0
M  V30 10932 C 1054.72 -2.37062 3.61145 0
M  V30 10933 C 1053.85 -3.63202 3.87631 0
M  V30 10934 C 1052.89 -3.42008 5.07638 0
M  V30 10935 N 1052.03 -4.60242 5.30209 0
M  V30 10936 H 1056.87 -0.848918 2.85653 0
M  V30 10937 H 1054.41 -0.407753 1.41336 0
M  V30 10938 H 1056.36 -3.30879 2.54116 0
M  V30 10939 H 1054.99 -2.86333 1.4904 0
M  V30 10940 H 1054.05 -1.50539 3.49345 0
M  V30 10941 H 1055.36 -2.17353 4.48953 0
M  V30 10942 H 1054.51 -4.49285 4.0771 0
M  V30 10943 H 1053.25 -3.85899 2.98216 0
M  V30 10944 H 1052.26 -2.54312 4.87448 0
M  V30 10945 H 1053.48 -3.20724 5.98593 0
M  V30 10946 H 1051.43 -4.8314 4.43747 0
M  V30 10947 H 1051.34 -4.43481 6.12259 0
M  V30 10948 H 1052.61 -5.47581 5.54775 0
M  V30 10949 N 1056.84 -1.516 -0.430713 0
M  V30 10950 C 1058.07 -1.687 -1.20644 0
M  V30 10951 C 1058.49 -0.386555 -1.84085 0
M  V30 10952 O 1057.85 0.653952 -1.69095 0
M  V30 10953 C 1057.9 -2.80887 -2.2613 0
M  V30 10954 O 1057 -2.44952 -3.31772 0
M  V30 10955 H 1056.34 -0.562289 -0.353167 0
M  V30 10956 H 1058.87 -1.98198 -0.507807 0
M  V30 10957 H 1058.88 -3.05167 -2.70809 0
M  V30 10958 H 1057.56 -3.75249 -1.79334 0
M  V30 10959 H 1056.13 -2.31267 -2.92523 0
M  V30 10960 N 1058.32 0.686584 -1.41858 0
M  V30 10961 C 1059.6 1.44176 -1.32185 0
M  V30 10962 C 1059.98 2.11049 0.046362 0
M  V30 10963 O 1059.32 2.02365 1.06117 0
M  V30 10964 C 1059.53 2.45385 -2.48168 0
M  V30 10965 C 1060.88 3.10375 -2.89746 0
M  V30 10966 O 1061.91 2.55711 -2.47973 0
M  V30 10967 O 1060.77 4.09404 -3.62009 0
M  V30 10968 H 1057.86 0.642513 -0.520678 0
M  V30 10969 H 1060.41 0.716303 -1.53841 0
M  V30 10970 H 1059.18 1.94687 -3.3943 0
M  V30 10971 H 1058.8 3.25428 -2.28435 0
M  V30 10972 N 1059.8 1.27835 0.921735 0
M  V30 10973 C 1060.75 1.1092 2.04449 0
M  V30 10974 C 1061.74 0.0306469 1.69372 0
M  V30 10975 O 1062.95 0.188818 1.79007 0
M  V30 10976 H 1059.32 0.341973 0.669745 0
M  V30 10977 H 1061.29 2.06026 2.1586 0
M  V30 10978 C 1060.04 0.779443 3.38851 0
M  V30 10979 H 1059.36 1.60131 3.66331 0
M  V30 10980 H 1060.8 0.700999 4.18165 0
M  V30 10981 C 1059.26 -0.51647 3.32918 0
M  V30 10982 O 1059.79 -1.54914 3.70627 0
M  V30 10983 N 1058 -0.514276 2.86013 0
M  V30 10984 H 1057.55 0.32651 2.55522 0
M  V30 10985 H 1057.5 -1.38141 2.82426 0
M  V30 10986 N 1061.28 -1.12907 1.09954 0
M  V30 10987 C 1062.5 -1.88138 0.860905 0
M  V30 10988 C 1062.92 -1.79402 -0.588256 0
M  V30 10989 O 1062.28 -1.16442 -1.40526 0
M  V30 10990 C 1062.33 -3.37537 1.29425 0
M  V30 10991 O 1062.05 -3.46056 2.68658 0
M  V30 10992 C 1063.55 -4.29721 1.08879 0
M  V30 10993 H 1060.77 -0.595437 0.309347 0
M  V30 10994 H 1063.31 -1.42894 1.46292 0
M  V30 10995 H 1061.47 -3.80344 0.736009 0
M  V30 10996 H 1061.88 -4.38969 2.87065 0
M  V30 10997 H 1063.36 -5.32854 1.4412 0
M  V30 10998 H 1063.83 -4.39192 0.0270053 0
M  V30 10999 H 1064.44 -3.9269 1.63325 0
M  V30 11000 N 1062.75 -0.88754 -1.30232 0
M  V30 11001 C 1064 -0.508031 -1.96334 0
M  V30 11002 C 1064.33 0.940905 -1.69884 0
M  V30 11003 O 1063.61 1.66523 -1.005 0
M  V30 11004 C 1063.89 -0.786566 -3.51405 0
M  V30 11005 C 1063.74 -2.28632 -3.8736 0
M  V30 11006 C 1065.06 -0.264803 -4.39303 0
M  V30 11007 H 1062.18 -0.186051 -0.71313 0
M  V30 11008 H 1064.82 -1.112 -1.5406 0
M  V30 11009 H 1062.97 -0.272523 -3.87543 0
M  V30 11010 H 1064.65 -2.86896 -3.61231 0
M  V30 11011 H 1062.89 -2.75194 -3.35337 0
M  V30 11012 H 1063.56 -2.43181 -4.95547 0
M  V30 11013 H 1066.04 -0.704809 -4.10087 0
M  V30 11014 H 1064.91 -0.488998 -5.46717 0
M  V30 11015 H 1065.17 0.834055 -4.34161 0
M  V30 11016 N 1064.23 1.43628 -0.648757 0
M  V30 11017 C 1065.46 2.06732 -0.166284 0
M  V30 11018 C 1065.88 1.48281 1.15734 0
M  V30 11019 O 1065.24 0.591018 1.71396 0
M  V30 11020 C 1065.29 3.60502 -0.0838732 0
M  V30 11021 O 1064.39 4.01186 0.955185 0
M  V30 11022 H 1063.73 0.657479 -0.0928285 0
M  V30 11023 H 1066.26 1.84208 -0.890421 0
M  V30 11024 H 1066.27 4.07875 0.100923 0
M  V30 11025 H 1064.95 4.02424 -1.05014 0
M  V30 11026 H 1063.53 3.65412 0.743537 0
M  V30 11027 N 1065.71 0.390394 1.52688 0
M  V30 11028 C 1066.66 -0.444229 2.26485 0
M  V30 11029 C 1067.63 -1.05688 1.28138 0
M  V30 11030 O 1068.81 -1.0847 1.56968 0
M  V30 11031 C 1065.95 -1.56501 3.07574 0
M  V30 11032 C 1065.07 -0.975111 4.20851 0
M  V30 11033 C 1064.2 -2.06704 4.89333 0
M  V30 11034 C 1063.24 -1.45309 5.94602 0
M  V30 11035 N 1062.38 -2.48437 6.56676 0
M  V30 11036 H 1067.22 0.191535 2.97384 0
M  V30 11037 H 1064.75 0.106287 1.46716 0
M  V30 11038 H 1066.71 -2.22558 3.52879 0
M  V30 11039 H 1065.34 -2.17107 2.38881 0
M  V30 11040 H 1064.39 -0.204109 3.79852 0
M  V30 11041 H 1065.71 -0.486465 4.96422 0
M  V30 11042 H 1064.86 -2.80528 5.37949 0
M  V30 11043 H 1063.6 -2.58928 4.13289 0
M  V30 11044 H 1062.6 -0.700091 5.45324 0
M  V30 11045 H 1063.83 -0.938775 6.7258 0
M  V30 11046 H 1061.77 -2.99829 5.83471 0
M  V30 11047 H 1061.69 -2.04331 7.27863 0
M  V30 11048 H 1062.96 -3.21888 7.09935 0
M  V30 11049 N 1067.19 -1.57141 0.120249 0
M  V30 11050 C 1068.6 -1.5784 -0.236335 0
M  V30 11051 C 1068.8 -1.13304 -1.66626 0
M  V30 11052 O 1067.86 -0.821004 -2.3878 0
M  V30 11053 C 1069.17 -3.007 -0.00188211 0
M  V30 11054 C 1070.72 -3.12927 -0.0676838 0
M  V30 11055 C 1071.2 -4.57789 0.139092 0
M  V30 11056 N 1072.69 -4.63122 0.085104 0
M  V30 11057 C 1073.42 -5.72978 0.219983 0
M  V30 11058 N 1072.92 -6.91579 0.411102 0
M  V30 11059 N 1074.71 -5.61874 0.159469 0
M  V30 11060 H 1066.86 -1.84391 1.05422 0
M  V30 11061 H 1069.13 -0.852228 0.415225 0
M  V30 11062 H 1068.83 -3.37575 0.986718 0
M  V30 11063 H 1068.71 -3.70005 -0.733203 0
M  V30 11064 H 1071.09 -2.75909 -1.04681 0
M  V30 11065 H 1071.17 -2.46162 0.695538 0
M  V30 11066 H 1070.82 -4.95506 1.1152 0
M  V30 11067 H 1070.75 -5.22646 -0.644131 0
M  V30 11068 H 1073.24 -3.77854 -0.0590479 0
M  V30 11069 H 1073.55 -7.71149 0.504851 0
M  V30 11070 H 1071.9 -6.9356 0.447091 0
M  V30 11071 H 1075.09 -4.68099 0.0111131 0
M  V30 11072 H 1075.26 -6.47445 0.268028 0
M  V30 11073 N 1068.67 0.153526 -1.5685 0
M  V30 11074 C 1069.91 0.865519 -1.82629 0
M  V30 11075 C 1070.24 1.81999 -0.700105 0
M  V30 11076 O 1069.51 1.93907 0.278744 0
M  V30 11077 H 1068.09 0.32261 -0.673745 0
M  V30 11078 H 1070.75 0.149088 -1.94329 0
M  V30 11079 H 1069.84 1.43171 -2.77324 0
M  V30 11080 N 1070.14 1.51827 0.422667 0
M  V30 11081 C 1071.39 1.6522 1.17084 0
M  V30 11082 C 1071.72 0.375508 1.90841 0
M  V30 11083 O 1070.97 -0.641029 1.84903 0
M  V30 11084 C 1071.27 2.81572 2.20119 0
M  V30 11085 C 1070.94 4.20303 1.63268 0
M  V30 11086 C 1069.6 4.5804 1.47488 0
M  V30 11087 C 1071.95 5.06812 1.21618 0
M  V30 11088 C 1069.28 5.79979 0.885531 0
M  V30 11089 C 1071.63 6.29343 0.641071 0
M  V30 11090 C 1070.3 6.65841 0.470286 0
M  V30 11091 H 1069.57 0.604581 0.428442 0
M  V30 11092 H 1072.21 1.85896 0.459874 0
M  V30 11093 H 1070.52 2.55175 2.97309 0
M  V30 11094 H 1072.22 2.89132 2.77856 0
M  V30 11095 H 1068.81 3.90557 1.76531 0
M  V30 11096 H 1072.99 4.78251 1.32624 0
M  V30 11097 H 1068.25 6.06892 0.741105 0
M  V30 11098 H 1072.42 6.9571 0.309888 0
M  V30 11099 H 1070.05 7.60199 0.0115038 0
M  V30 11100 N 1071.62 -0.679052 1.4222 0
M  V30 11101 C 1073.04 -0.991665 1.25053 0
M  V30 11102 C 1073.24 -2.00928 0.151665 0
M  V30 11103 O 1072.29 -2.47925 -0.478507 0
M  V30 11104 C 1073.61 -1.50053 2.60585 0
M  V30 11105 C 1075.16 -1.61852 2.67905 0
M  V30 11106 C 1075.63 -2.16135 4.03794 0
M  V30 11107 N 1077.12 -2.23474 4.05726 0
M  V30 11108 C 1077.86 -2.66541 5.07685 0
M  V30 11109 N 1077.35 -3.09092 6.20028 0
M  V30 11110 N 1079.15 -2.66252 4.95042 0
M  V30 11111 H 1071.3 -0.00521851 2.12399 0
M  V30 11112 H 1073.56 -0.0648465 0.94578 0
M  V30 11113 H 1073.27 -0.82731 3.41831 0
M  V30 11114 H 1073.14 -2.47998 2.84213 0
M  V30 11115 H 1075.53 -2.28281 1.87008 0
M  V30 11116 H 1075.61 -0.624074 2.4807 0
M  V30 11117 H 1075.25 -1.50316 4.85147 0
M  V30 11118 H 1075.18 -3.16363 4.20978 0
M  V30 11119 H 1077.67 -1.93467 3.24621 0
M  V30 11120 H 1077.99 -3.40627 6.93681 0
M  V30 11121 H 1076.33 -3.06959 6.23539 0
M  V30 11122 H 1079.52 -2.32369 4.06352 0
M  V30 11123 H 1079.69 -2.99496 5.74636 0
M  V30 11124 N 1073.1 -1.28322 -0.914942 0
M  V30 11125 C 1074.06 -1.12169 -1.99877 0
M  V30 11126 C 1075.06 -0.0617252 -1.60681 0
M  V30 11127 O 1076.25 -0.307405 -1.71466 0
M  V30 11128 C 1073.39 -0.711959 -3.33383 0
M  V30 11129 H 1074.58 -2.08425 -2.15636 0
M  V30 11130 H 1072.13 -1.11291 -1.09745 0
M  V30 11131 H 1072.87 0.251418 -3.23324 0
M  V30 11132 H 1072.65 -1.47764 -3.63192 0
M  V30 11133 H 1074.14 -0.621558 -4.12948 0
M  V30 11134 N 1074.58 1.12322 -1.10551 0
M  V30 11135 C 1075.53 2.16177 -0.724679 0
M  V30 11136 C 1076.51 1.58674 0.266739 0
M  V30 11137 O 1077.7 1.7684 0.0752872 0
M  V30 11138 C 1074.83 3.4293 -0.159413 0
M  V30 11139 C 1073.92 4.07413 -1.17794 0
M  V30 11140 N 1074.31 4.46889 -2.36905 0
M  V30 11141 C 1072.61 4.34209 -1.01874 0
M  V30 11142 C 1073.31 4.97291 -3.01789 0
M  V30 11143 N 1072.29 4.92871 -2.29302 0
M  V30 11144 H 1076.09 2.44466 -1.63136 0
M  V30 11145 H 1073.6 1.2924 -0.983407 0
M  V30 11146 H 1075.6 4.16693 0.131502 0
M  V30 11147 H 1074.26 3.16109 0.741975 0
M  V30 11148 H 1075.27 4.39219 -2.74422 0
M  V30 11149 H 1071.95 4.17141 -0.173013 0
M  V30 11150 H 1073.34 5.3754 -4.03114 0
M  V30 11151 N 1076.06 0.894434 1.2976 0
M  V30 11152 C 1077.3 0.517669 1.95771 0
M  V30 11153 C 1077.63 -0.935028 1.70551 0
M  V30 11154 O 1076.89 -1.67722 1.00835 0
M  V30 11155 C 1077.19 0.750307 3.49435 0
M  V30 11156 C 1076.85 2.17955 3.94723 0
M  V30 11157 C 1075.51 2.57036 4.068 0
M  V30 11158 C 1077.87 3.11053 4.18205 0
M  V30 11159 C 1075.19 3.88406 4.39724 0
M  V30 11160 C 1077.55 4.41966 4.52602 0
M  V30 11161 C 1076.21 4.80927 4.62888 0
M  V30 11162 H 1075.48 0.189428 0.716378 0
M  V30 11163 H 1078.13 1.13209 1.54454 0
M  V30 11164 H 1076.43 0.0529242 3.91764 0
M  V30 11165 H 1078.13 0.438251 3.98598 0
M  V30 11166 H 1074.72 1.86622 3.85837 0
M  V30 11167 H 1078.9 2.82076 4.08347 0
M  V30 11168 H 1074.16 4.18321 4.4589 0
M  V30 11169 H 1078.33 5.14134 4.69722 0
M  V30 11170 H 1075.96 5.82759 4.88156 0
M  V30 11171 N 1077.53 -1.43282 0.656365 0
M  V30 11172 C 1078.78 -2.01776 0.171039 0
M  V30 11173 C 1079.11 -1.51795 -1.21609 0
M  V30 11174 O 1078.36 -0.702864 -1.82643 0
M  V30 11175 C 1078.66 -3.57148 0.134225 0
M  V30 11176 C 1078.33 -4.26488 1.46352 0
M  V30 11177 C 1076.99 -4.45146 1.82753 0
M  V30 11178 C 1079.34 -4.65728 2.33981 0
M  V30 11179 C 1076.67 -5.0031 3.06443 0
M  V30 11180 C 1079.02 -5.22263 3.56966 0
M  V30 11181 C 1077.69 -5.39136 3.93559 0
M  V30 11182 H 1076.96 -0.738352 0.0625878 0
M  V30 11183 H 1079.6 -1.71716 0.847697 0
M  V30 11184 H 1077.91 -3.86768 -0.625892 0
M  V30 11185 H 1079.61 -4.00168 -0.258207 0
M  V30 11186 H 1076.2 -4.12313 1.1703 0
M  V30 11187 H 1080.38 -4.51003 2.07148 0
M  V30 11188 H 1075.64 -5.11559 3.34839 0
M  V30 11189 H 1079.81 -5.51614 4.25082 0
M  V30 11190 H 1077.44 -5.81646 4.89481 0
M  V30 11191 N 1079.01 -0.398486 -1.52479 0
M  V30 11192 C 1080.24 0.183059 -2.06591 0
M  V30 11193 C 1080.66 1.3898 -1.26753 0
M  V30 11194 O 1080.02 1.78885 -0.294959 0
M  V30 11195 C 1080.07 0.522392 -3.56796 0
M  V30 11196 O 1079.17 1.61499 -3.79462 0
M  V30 11197 H 1078.51 0.0188411 -0.663733 0
M  V30 11198 H 1081.04 -0.56861 -1.9654 0
M  V30 11199 H 1081.05 0.784078 -4.00395 0
M  V30 11200 H 1079.73 -0.359807 -4.14341 0
M  V30 11201 H 1078.31 1.3463 -3.47749 0
M  V30 11202 N 1080.49 1.57075 -0.12858 0
M  V30 11203 C 1081.77 1.87075 0.571162 0
M  V30 11204 C 1082.15 1.03141 1.84188 0
M  V30 11205 O 1081.5 0.113001 2.2822 0
M  V30 11206 C 1081.71 3.3838 0.854383 0
M  V30 11207 C 1083.05 4.07194 1.20326 0
M  V30 11208 O 1084.08 3.43454 0.944338 0
M  V30 11209 O 1082.94 5.19725 1.68963 0
M  V30 11210 H 1080.03 0.774764 0.289258 0
M  V30 11211 H 1082.58 1.68908 -0.163806 0
M  V30 11212 H 1081.35 3.91273 -0.0456925 0
M  V30 11213 H 1080.97 3.62012 1.64418 0
M  V30 11214 N 1081.97 -0.145205 1.5693 0
M  V30 11215 C 1082.92 -1.17923 1.98401 0
M  V30 11216 C 1083.89 -1.42591 0.851885 0
M  V30 11217 O 1085.07 -1.54896 1.11409 0
M  V30 11218 C 1082.21 -2.50727 2.37128 0
M  V30 11219 C 1081.32 -2.33218 3.63639 0
M  V30 11220 C 1080.46 -3.5907 3.91462 0
M  V30 11221 C 1079.5 -3.36605 5.11237 0
M  V30 11222 N 1078.64 -4.54592 5.35061 0
M  V30 11223 H 1083.48 -0.818573 2.86537 0
M  V30 11224 H 1081.01 -0.392739 1.4176 0
M  V30 11225 H 1082.97 -3.28165 2.57611 0
M  V30 11226 H 1081.6 -2.84736 1.52069 0
M  V30 11227 H 1080.65 -1.46826 3.50922 0
M  V30 11228 H 1081.96 -2.12579 4.51234 0
M  V30 11229 H 1081.12 -4.44936 4.12453 0
M  V30 11230 H 1079.86 -3.82715 3.02293 0
M  V30 11231 H 1078.86 -2.49127 4.90118 0
M  V30 11232 H 1080.09 -3.14357 6.01961 0
M  V30 11233 H 1078.03 -4.78406 4.48847 0
M  V30 11234 H 1077.95 -4.36962 6.16928 0
M  V30 11235 H 1079.22 -5.41666 5.60551 0
M  V30 11236 N 1083.45 -1.52049 -0.414609 0
M  V30 11237 C 1084.72 -1.56397 -1.17471 0
M  V30 11238 C 1085.1 -0.34171 -2.08316 0
M  V30 11239 O 1084.45 0.6718 -2.18401 0
M  V30 11240 C 1084.66 -2.88983 -1.95678 0
M  V30 11241 C 1086.01 -3.41781 -2.51935 0
M  V30 11242 O 1087.03 -2.90686 -2.05865 0
M  V30 11243 O 1085.89 -4.30989 -3.36022 0
M  V30 11244 H 1082.99 -0.62974 -0.536056 0
M  V30 11245 H 1085.53 -1.64374 -0.421834 0
M  V30 11246 H 1084.31 -3.69392 -1.29094 0
M  V30 11247 H 1083.93 -2.84274 -2.77983 0
M  V30 11248 N 1084.93 0.6715 -1.42579 0
M  V30 11249 C 1085.84 1.81435 -1.48723 0
M  V30 11250 C 1086.85 1.69895 -0.375716 0
M  V30 11251 O 1088.03 1.91388 -0.627115 0
M  V30 11252 C 1085.09 3.17599 -1.39038 0
M  V30 11253 C 1084.15 3.41071 -2.60709 0
M  V30 11254 C 1083.39 4.7074 -2.51476 0
M  V30 11255 O 1083.61 5.48868 -1.55243 0
M  V30 11256 O 1082.54 4.95528 -3.41666 0
M  V30 11257 H 1086.37 1.79206 -2.45191 0
M  V30 11258 H 1083.95 0.827666 -1.24379 0
M  V30 11259 H 1085.84 3.98847 -1.3601 0
M  V30 11260 H 1084.51 3.20458 -0.456966 0
M  V30 11261 H 1083.42 2.59659 -2.69311 0
M  V30 11262 H 1084.75 3.43045 -3.5296 0
M  V30 11263 N 1086.4 1.28806 0.908124 0
M  V30 11264 C 1087.64 1.17546 1.67219 0
M  V30 11265 C 1088.01 -0.270396 1.90086 0
M  V30 11266 O 1089.21 -0.505808 2.63998 0
M  V30 11267 C 1087.48 1.95774 2.99011 0
M  V30 11268 S 1089.04 2.00953 3.90081 0
M  V30 11269 H 1085.86 0.419283 0.574215 0
M  V30 11270 H 1088.46 1.6298 1.07971 0
M  V30 11271 H 1087.16 2.99978 2.80074 0
M  V30 11272 H 1086.69 1.50911 3.63303 0
M  V30 11273 H 1088.71 1.1201 4.83392 0
M  V30 11274 N 1087.88 -1.11734 1.11145 0
M  V30 11275 C 1088.84 -2.15868 0.770303 0
M  V30 11276 C 1089.84 -1.59438 -0.208842 0
M  V30 11277 O 1091.03 -1.74193 0.0152516 0
M  V30 11278 C 1088.17 -3.40603 0.142303 0
M  V30 11279 H 1089.36 -2.4756 1.69276 0
M  V30 11280 H 1086.91 -1.26867 0.912929 0
M  V30 11281 H 1087.65 -3.14517 -0.790526 0
M  V30 11282 H 1087.43 -3.8284 0.847087 0
M  V30 11283 H 1088.92 -4.17523 -0.0803608 0
M  V30 11284 N 1089.36 -0.901303 -1.29284 0
M  V30 11285 C 1090.31 -0.378666 -2.27672 0
M  V30 11286 C 1091.28 0.540102 -1.57074 0
M  V30 11287 O 1092.46 0.464997 -1.85047 0
M  V30 11288 C 1089.6 0.38635 -3.42931 0
M  V30 11289 C 1088.71 -0.563496 -4.28309 0
M  V30 11290 C 1087.85 0.218731 -5.30749 0
M  V30 11291 C 1086.89 -0.725536 -6.07785 0
M  V30 11292 N 1086.03 0.0223854 -7.02096 0
M  V30 11293 H 1090.87 -1.22277 -2.71758 0
M  V30 11294 H 1088.4 -0.614302 -1.33659 0
M  V30 11295 H 1090.36 0.845967 -4.08533 0
M  V30 11296 H 1088.99 1.1949 -2.9987 0
M  V30 11297 H 1088.04 -1.14163 -3.62865 0
M  V30 11298 H 1089.35 -1.28623 -4.81931 0
M  V30 11299 H 1088.51 0.739473 -6.02177 0
M  V30 11300 H 1087.25 0.97459 -4.77863 0
M  V30 11301 H 1086.25 -1.25776 -5.3522 0
M  V30 11302 H 1087.48 -1.48075 -6.6276 0
M  V30 11303 H 1085.42 0.760482 -6.51577 0
M  V30 11304 H 1085.34 -0.640408 -7.53283 0
M  V30 11305 H 1086.61 0.523339 -7.77741 0
M  V30 11306 N 1090.84 1.42931 -0.663954 0
M  V30 11307 C 1092.11 1.95284 -0.111174 0
M  V30 11308 C 1092.49 1.60484 1.37142 0
M  V30 11309 O 1091.84 0.895425 2.10225 0
M  V30 11310 C 1092.05 3.47046 -0.368789 0
M  V30 11311 C 1093.4 4.23679 -0.279473 0
M  V30 11312 O 1094.42 3.54918 -0.301937 0
M  V30 11313 O 1093.28 5.46087 -0.21236 0
M  V30 11314 H 1090.38 0.826993 0.00341718 0
M  V30 11315 H 1092.92 1.52816 -0.737935 0
M  V30 11316 H 1091.7 3.65541 -1.39626 0
M  V30 11317 H 1091.32 3.96537 0.290514 0
M  V30 11318 N 1092.32 0.406567 1.52266 0
M  V30 11319 C 1093.26 -0.43489 2.28498 0
M  V30 11320 C 1094.26 -1.04806 1.33086 0
M  V30 11321 O 1095.46 -0.986557 1.50556 0
M  V30 11322 H 1091.84 -0.159023 0.734994 0
M  V30 11323 H 1093.81 0.229316 2.97518 0
M  V30 11324 C 1092.56 -1.54073 3.117 0
M  V30 11325 H 1091.88 -1.07824 3.84986 0
M  V30 11326 H 1093.32 -2.10337 3.6815 0
M  V30 11327 C 1091.78 -2.50662 2.251 0
M  V30 11328 O 1092.31 -3.54486 1.88951 0
M  V30 11329 N 1090.52 -2.20811 1.8892 0
M  V30 11330 H 1090.06 -1.36413 2.18516 0
M  V30 11331 H 1090.02 -2.85684 1.3127 0
M  V30 11332 N 1093.79 -1.57004 0.136909 0
M  V30 11333 C 1095.04 -1.9541 -0.51569 0
M  V30 11334 C 1095.36 -1.02219 -1.66061 0
M  V30 11335 O 1094.63 -0.0818172 -1.95729 0
M  V30 11336 H 1093.21 -0.721504 -0.193497 0
M  V30 11337 H 1095.88 -1.93765 0.210046 0
M  V30 11338 H 1094.97 -2.98887 -0.898494 0
M  V30 11339 N 1095.27 0.136881 -1.57004 0
M  V30 11340 C 1096.52 0.8461 -1.83536 0
M  V30 11341 C 1096.84 1.81246 -0.71937 0
M  V30 11342 O 1096.11 1.94191 0.258161 0
M  V30 11343 H 1094.69 0.315446 -0.677128 0
M  V30 11344 H 1097.35 0.128469 -1.94476 0
M  V30 11345 H 1096.45 1.40221 -2.78827 0
M  V30 11346 N 1096.75 1.52266 0.40654 0
M  V30 11347 C 1097.99 1.6813 1.16239 0
M  V30 11348 C 1098.35 0.403791 1.87706 0
M  V30 11349 O 1099.56 0.438566 2.65198 0
M  V30 11350 C 1097.83 2.87115 2.12837 0
M  V30 11351 S 1099.39 3.23475 2.96495 0
M  V30 11352 H 1096.2 0.59202 0.393743 0
M  V30 11353 H 1098.81 1.90266 0.449325 0
M  V30 11354 H 1097.51 3.78337 1.59026 0
M  V30 11355 H 1097.04 2.6726 2.88679 0
M  V30 11356 H 1099.06 2.72299 4.14811 0
M  V30 11357 N 1098.23 -0.663929 1.42933 0
M  V30 11358 C 1099.16 -1.78946 1.43217 0
M  V30 11359 C 1100.17 -1.59426 0.329727 0
M  V30 11360 O 1101.36 -1.68344 0.5935 0
M  V30 11361 C 1098.46 -3.16217 1.21902 0
M  V30 11362 C 1097.64 -3.6249 2.44785 0
M  V30 11363 C 1096.69 -4.78529 2.18853 0
M  V30 11364 O 1095.72 -4.88516 2.92131 0
M  V30 11365 N 1096.92 -5.67994 1.19845 0
M  V30 11366 H 1099.69 -1.79184 2.40236 0
M  V30 11367 H 1097.25 -0.847404 1.37952 0
M  V30 11368 H 1099.24 -3.91517 1.02454 0
M  V30 11369 H 1097.81 -3.10814 0.333676 0
M  V30 11370 H 1097.03 -2.77751 2.79729 0
M  V30 11371 H 1098.32 -3.90151 3.26588 0
M  V30 11372 H 1097.72 -5.62588 0.59259 0
M  V30 11373 H 1096.27 -6.4306 1.06382 0
M  V30 11374 N 1099.71 -1.29285 -0.901281 0
M  V30 11375 C 1100.66 -1.10907 -1.99208 0
M  V30 11376 C 1101.64 -0.0289641 -1.60874 0
M  V30 11377 O 1102.83 -0.2505 -1.75218 0
M  V30 11378 C 1099.96 -0.785997 -3.34181 0
M  V30 11379 C 1099.05 -1.90556 -3.78879 0
M  V30 11380 N 1099.44 -3.14888 -3.95827 0
M  V30 11381 C 1097.74 -1.79824 -4.08141 0
M  V30 11382 C 1098.44 -3.87919 -4.33467 0
M  V30 11383 N 1097.41 -3.15852 -4.42424 0
M  V30 11384 H 1101.22 -2.05227 -2.10379 0
M  V30 11385 H 1098.73 -1.20387 -1.08999 0
M  V30 11386 H 1100.73 -0.635381 -4.1203 0
M  V30 11387 H 1099.39 0.149302 -3.24357 0
M  V30 11388 H 1100.4 -3.5036 -3.81403 0
M  V30 11389 H 1097.07 -0.935548 -4.06883 0
M  V30 11390 H 1098.46 -4.94909 -4.54439 0
M  V30 11391 N 1101.18 1.11143 -1.11736 0
M  V30 11392 C 1102.09 2.20851 -0.791331 0
M  V30 11393 C 1103.11 1.72644 0.216833 0
M  V30 11394 O 1104.29 2.01332 0.0522401 0
M  V30 11395 C 1101.35 3.4585 -0.242694 0
M  V30 11396 C 1100.41 4.08829 -1.30986 0
M  V30 11397 C 1099.65 5.27861 -0.787305 0
M  V30 11398 O 1099.87 5.69122 0.381549 0
M  V30 11399 O 1098.8 5.81506 -1.55352 0
M  V30 11400 H 1102.63 2.51158 -1.70744 0
M  V30 11401 H 1100.21 1.19739 -0.893478 0
M  V30 11402 H 1102.1 4.21359 0.0587472 0
M  V30 11403 H 1100.77 3.17187 0.646079 0
M  V30 11404 H 1099.68 3.35037 -1.66436 0
M  V30 11405 H 1101.01 4.41678 -2.17213 0
M  V30 11406 N 1102.66 0.908147 1.28804 0
M  V30 11407 C 1103.9 0.545425 1.96989 0
M  V30 11408 C 1104.27 -0.893226 1.69957 0
M  V30 11409 O 1105.47 -1.36324 2.31666 0
M  V30 11410 C 1103.74 0.83953 3.474 0
M  V30 11411 S 1105.3 0.582385 4.34918 0
M  V30 11412 H 1102.12 0.202027 0.681693 0
M  V30 11413 H 1104.72 1.1724 1.56445 0
M  V30 11414 H 1103.42 1.88463 3.64568 0
M  V30 11415 H 1102.95 0.200999 3.92886 0
M  V30 11416 H 1104.97 -0.568807 4.92929 0
M  V30 11417 N 1104.14 -1.42577 0.671525 0
M  V30 11418 C 1105.39 -2.01882 0.192716 0
M  V30 11419 C 1105.72 -1.52959 -1.19654 0
M  V30 11420 O 1104.99 -0.730404 -1.80265 0
M  V30 11421 C 1105.28 -3.59404 0.223734 0
M  V30 11422 C 1105.13 -4.18514 1.64821 0
M  V30 11423 C 1106.45 -4.37996 -0.429858 0
M  V30 11424 H 1103.57 -0.733523 0.0715026 0
M  V30 11425 H 1106.21 -1.69641 0.855689 0
M  V30 11426 H 1104.36 -3.87003 -0.340776 0
M  V30 11427 H 1106.03 -4.01881 2.26472 0
M  V30 11428 H 1104.28 -3.74467 2.1899 0
M  V30 11429 H 1104.95 -5.27643 1.62162 0
M  V30 11430 H 1107.42 -4.16069 0.0506433 0
M  V30 11431 H 1106.3 -5.476 -0.377503 0
M  V30 11432 H 1106.56 -4.15625 -1.50693 0
M  V30 11433 N 1105.62 -0.414636 -1.52048 0
M  V30 11434 C 1106.57 0.422766 -2.28726 0
M  V30 11435 C 1107.56 1.04099 -1.3364 0
M  V30 11436 O 1108.77 0.978559 -1.51077 0
M  V30 11437 H 1105.14 0.155123 -0.735827 0
M  V30 11438 H 1107.11 -0.245091 -2.97392 0
M  V30 11439 C 1105.86 1.52418 -3.12513 0
M  V30 11440 H 1105.18 1.05781 -3.85552 0
M  V30 11441 H 1106.62 2.08382 -3.6926 0
M  V30 11442 C 1105.08 2.49465 -2.26426 0
M  V30 11443 O 1105.61 3.53479 -1.90829 0
M  V30 11444 N 1103.82 2.19806 -1.90088 0
M  V30 11445 H 1103.37 1.35253 -2.19236 0
M  V30 11446 H 1103.32 2.84984 -1.32783 0
M  V30 11447 N 1107.1 1.56929 -0.145233 0
M  V30 11448 C 1108.32 2.00431 0.513314 0
M  V30 11449 C 1108.74 1.0253 1.58534 0
M  V30 11450 O 1108.1 0.0220459 1.82487 0
M  V30 11451 C 1108.15 3.43856 1.11557 0
M  V30 11452 O 1107.87 4.38015 0.0863707 0
M  V30 11453 C 1109.37 4.02627 1.8549 0
M  V30 11454 H 1106.59 0.657529 0.133778 0
M  V30 11455 H 1109.13 2.03095 -0.239296 0
M  V30 11456 H 1107.29 3.4205 1.81881 0
M  V30 11457 H 1107.7 5.21842 0.527363 0
M  V30 11458 H 1109.18 5.04985 2.22923 0
M  V30 11459 H 1109.65 3.43239 2.74014 0
M  V30 11460 H 1110.26 4.08058 1.19869 0
M  V30 11461 N 1108.58 -0.128553 1.57075 0
M  V30 11462 C 1109.82 -0.83801 1.84347 0
M  V30 11463 C 1110.15 -1.80325 0.728906 0
M  V30 11464 O 1109.41 -1.93678 -0.280571 0
M  V30 11465 C 1109.7 -1.63027 3.18052 0
M  V30 11466 C 1109.37 -0.810171 4.43562 0
M  V30 11467 C 1108.03 -0.583984 4.77643 0
M  V30 11468 C 1110.38 -0.237896 5.20657 0
M  V30 11469 C 1107.71 0.224887 5.86269 0
M  V30 11470 C 1110.06 0.558114 6.30133 0
M  V30 11471 C 1108.73 0.794706 6.62752 0
M  V30 11472 H 1108 -0.30665 0.674572 0
M  V30 11473 H 1110.65 -0.100797 1.91235 0
M  V30 11474 H 1108.95 -2.43812 3.06697 0
M  V30 11475 H 1110.65 -2.183 3.36372 0
M  V30 11476 H 1107.24 -0.996547 4.16854 0
M  V30 11477 H 1111.42 -0.399881 4.94686 0
M  V30 11478 H 1106.68 0.417507 6.09973 0
M  V30 11479 H 1110.85 1.00859 6.89058 0
M  V30 11480 H 1108.48 1.42331 7.46757 0
M  V30 11481 N 1110.05 -1.5248 -0.398459 0
M  V30 11482 C 1111.3 -1.66731 -1.14215 0
M  V30 11483 C 1111.62 -0.404957 -1.90749 0
M  V30 11484 O 1110.89 0.580434 -1.87104 0
M  V30 11485 H 1109.47 -0.614577 -0.424622 0
M  V30 11486 H 1112.13 -1.89561 -0.453059 0
M  V30 11487 H 1111.23 -2.51336 -1.85031 0
M  V30 11488 N 1111.53 0.65634 -1.43283 0
M  V30 11489 C 1112.76 1.44906 -1.48382 0
M  V30 11490 C 1113.18 1.87823 -0.101993 0
M  V30 11491 O 1112.54 1.57178 0.903597 0
M  V30 11492 C 1112.59 2.66231 -2.43215 0
M  V30 11493 O 1111.69 3.65176 -1.91625 0
M  V30 11494 H 1111.03 0.434601 -0.502014 0
M  V30 11495 H 1113.56 0.803429 -1.88165 0
M  V30 11496 H 1113.57 3.14083 -2.60414 0
M  V30 11497 H 1112.25 2.34336 -3.43598 0
M  V30 11498 H 1110.82 3.24302 -1.84072 0
M  V30 11499 N 1113.01 1.29761 0.894412 0
M  V30 11500 C 1114.24 1.20765 1.67629 0
M  V30 11501 C 1114.65 -0.233434 1.87754 0
M  V30 11502 O 1113.99 -1.16747 1.4183 0
M  V30 11503 C 1114.05 1.85542 3.07919 0
M  V30 11504 C 1113.72 3.34852 3.11004 0
M  V30 11505 C 1114.71 4.30994 2.90758 0
M  V30 11506 C 1112.4 3.76141 3.32901 0
M  V30 11507 C 1114.39 5.664 2.92352 0
M  V30 11508 C 1112.08 5.11667 3.34126 0
M  V30 11509 C 1113.08 6.06607 3.13874 0
M  V30 11510 O 1112.77 7.39659 3.14897 0
M  V30 11511 H 1112.5 0.419418 0.530155 0
M  V30 11512 H 1115.05 1.71754 1.12648 0
M  V30 11513 H 1113.28 1.29071 3.64524 0
M  V30 11514 H 1114.97 1.70795 3.68217 0
M  V30 11515 H 1115.74 4.00427 2.73648 0
M  V30 11516 H 1111.62 3.02694 3.47703 0
M  V30 11517 H 1115.16 6.40479 2.76464 0
M  V30 11518 H 1111.06 5.41877 3.50769 0
M  V30 11519 H 1111.82 7.4853 3.31127 0
M  V30 11520 N 1114.49 -1.10549 1.12324 0
M  V30 11521 C 1115.42 -2.18911 0.812416 0
M  V30 11522 C 1116.4 -1.68628 -0.22327 0
M  V30 11523 O 1117.58 -1.94015 -0.0847184 0
M  V30 11524 C 1114.71 -3.46288 0.264947 0
M  V30 11525 C 1113.67 -4.09838 1.23356 0
M  V30 11526 C 1112.99 -5.31901 0.546374 0
M  V30 11527 C 1114.29 -4.53686 2.58778 0
M  V30 11528 H 1115.99 -2.45169 1.71851 0
M  V30 11529 H 1113.53 -1.17834 0.827715 0
M  V30 11530 H 1115.49 -4.21385 0.0352364 0
M  V30 11531 H 1114.21 -3.19517 -0.676479 0
M  V30 11532 H 1112.87 -3.36746 1.44906 0
M  V30 11533 H 1112.52 -5.01406 -0.400157 0
M  V30 11534 H 1112.22 -5.75372 1.19249 0
M  V30 11535 H 1113.74 -6.09731 0.325673 0
M  V30 11536 H 1115.16 -5.20063 2.41263 0
M  V30 11537 H 1113.55 -5.08003 3.19457 0
M  V30 11538 H 1114.62 -3.66665 3.17309 0
M  V30 11539 N 1115.97 -0.914965 -1.28321 0
M  V30 11540 C 1117.21 -0.555865 -1.96696 0
M  V30 11541 C 1117.57 0.8842 -1.70429 0
M  V30 11542 O 1118.77 1.35094 -2.32386 0
M  V30 11543 C 1117.04 -0.857942 -3.4695 0
M  V30 11544 S 1118.6 -0.605441 -4.34603 0
M  V30 11545 H 1115.42 -0.20564 -0.680612 0
M  V30 11546 H 1118.02 -1.18068 -1.55821 0
M  V30 11547 H 1116.72 -1.90394 -3.63563 0
M  V30 11548 H 1116.26 -0.221831 -3.92774 0
M  V30 11549 H 1118.27 0.542657 -4.93224 0
M  V30 11550 N 1117.44 1.42219 -0.679077 0
M  V30 11551 C 1118.86 1.55737 -0.349034 0
M  V30 11552 C 1119.06 1.65789 1.14527 0
M  V30 11553 O 1118.12 1.62717 1.93079 0
M  V30 11554 C 1119.43 2.80516 -1.0831 0
M  V30 11555 C 1120.98 2.94294 -1.06584 0
M  V30 11556 C 1121.45 4.2194 -1.78132 0
M  V30 11557 N 1122.94 4.28861 -1.75021 0
M  V30 11558 C 1123.68 5.26453 -2.27234 0
M  V30 11559 N 1123.17 6.30171 -2.87847 0
M  V30 11560 N 1124.97 5.1828 -2.17584 0
M  V30 11561 H 1117.12 1.33939 -1.64846 0
M  V30 11562 H 1119.38 0.645029 -0.694725 0
M  V30 11563 H 1119.09 2.79241 -2.13816 0
M  V30 11564 H 1118.96 3.71539 -0.651069 0
M  V30 11565 H 1121.35 2.95094 -0.0191061 0
M  V30 11566 H 1121.43 2.04491 -1.53679 0
M  V30 11567 H 1121.07 4.21901 -2.82776 0
M  V30 11568 H 1121 5.10685 -1.28483 0
M  V30 11569 H 1123.49 3.54537 -1.30814 0
M  V30 11570 H 1123.81 7.01 -3.25298 0
M  V30 11571 H 1122.15 6.30721 -2.91918 0
M  V30 11572 H 1125.34 4.36172 -1.69916 0
M  V30 11573 H 1125.52 5.94172 -2.58581 0
M  V30 11574 N 1118.92 0.422693 1.51826 0
M  V30 11575 C 1120.16 -0.147997 2.03864 0
M  V30 11576 C 1120.53 -1.41224 1.30076 0
M  V30 11577 O 1121.73 -2.06224 1.72409 0
M  V30 11578 C 1120 -0.376248 3.55414 0
M  V30 11579 S 1121.56 -0.912444 4.29208 0
M  V30 11580 H 1118.37 -0.0387084 0.709946 0
M  V30 11581 H 1120.98 0.578733 1.86738 0
M  V30 11582 H 1119.68 0.550451 4.06692 0
M  V30 11583 H 1119.21 -1.13047 3.76807 0
M  V30 11584 H 1121.23 -2.19161 4.45177 0
M  V30 11585 N 1120.4 -1.5685 0.153553 0
M  V30 11586 C 1121.82 -1.58306 -0.202801 0
M  V30 11587 C 1122.02 -1.16813 -1.64186 0
M  V30 11588 O 1121.07 -0.871468 -2.36985 0
M  V30 11589 C 1122.38 -3.00636 0.0619012 0
M  V30 11590 C 1123.93 -3.13 -0.00129219 0
M  V30 11591 C 1124.41 -4.57391 0.236164 0
M  V30 11592 N 1125.9 -4.62837 0.18332 0
M  V30 11593 C 1126.63 -5.72382 0.341471 0
M  V30 11594 N 1126.13 -6.90552 0.557704 0
M  V30 11595 N 1127.92 -5.61409 0.278615 0
M  V30 11596 H 1120.07 -1.82113 1.09309 0
M  V30 11597 H 1122.34 -0.843228 0.433209 0
M  V30 11598 H 1122.04 -3.35406 1.0581 0
M  V30 11599 H 1121.92 -3.71477 -0.654555 0
M  V30 11600 H 1124.3 -2.78068 -0.98805 0
M  V30 11601 H 1124.38 -2.44632 0.747596 0
M  V30 11602 H 1124.03 -4.93029 1.22005 0
M  V30 11603 H 1123.96 -5.23894 -0.533125 0
M  V30 11604 H 1126.45 -3.77894 0.0211138 0
M  V30 11605 H 1126.76 -7.69905 0.66831 0
M  V30 11606 H 1125.11 -6.92456 0.594105 0
M  V30 11607 H 1128.3 -4.6797 0.110401 0
M  V30 11608 H 1128.47 -6.46731 0.4053 0
M  V30 11609 N 1121.88 0.120221 -1.57141 0
M  V30 11610 C 1122.83 1.16654 -2.01233 0
M  V30 11611 C 1123.82 1.42943 -0.909053 0
M  V30 11612 O 1125.03 1.4292 -1.09426 0
M  V30 11613 H 1121.4 0.393289 -0.640958 0
M  V30 11614 H 1123.37 0.768156 -2.88343 0
M  V30 11615 C 1122.12 2.4854 -2.43152 0
M  V30 11616 H 1121.44 2.29149 -3.27614 0
M  V30 11617 H 1122.88 3.20315 -2.77802 0
M  V30 11618 C 1121.34 3.1103 -1.29468 0
M  V30 11619 O 1121.87 3.97042 -0.609982 0
M  V30 11620 N 1120.08 2.70888 -1.05205 0
M  V30 11621 H 1119.63 2.01039 -1.61062 0
M  V30 11622 H 1119.58 3.13028 -0.293347 0
M  V30 11623 N 1123.36 1.52689 0.390367 0
M  V30 11624 C 1124.6 1.67335 1.13329 0
M  V30 11625 C 1124.93 0.415068 1.90531 0
M  V30 11626 O 1124.2 -0.570504 1.87409 0
M  V30 11627 H 1122.78 0.616821 0.421356 0
M  V30 11628 H 1125.44 1.89799 0.443 0
M  V30 11629 H 1124.53 2.52314 1.83696 0
M  V30 11630 N 1124.83 -0.648732 1.43629 0
M  V30 11631 C 1126.06 -1.43412 1.48716 0
M  V30 11632 C 1126.47 -1.88908 0.105051 0
M  V30 11633 O 1125.82 -1.60373 -0.895896 0
M  V30 11634 C 1125.88 -2.69906 2.37468 0
M  V30 11635 C 1125.54 -2.46321 3.84935 0
M  V30 11636 C 1126.54 -2.09259 4.75927 0
M  V30 11637 C 1124.22 -2.60506 4.29467 0
M  V30 11638 C 1126.22 -1.86686 6.09448 0
M  V30 11639 C 1123.9 -2.37548 5.6304 0
M  V30 11640 C 1124.9 -2.00694 6.52848 0
M  V30 11641 O 1124.59 -1.77979 7.83951 0
M  V30 11642 H 1124.32 -0.446883 0.507219 0
M  V30 11643 H 1126.88 -0.802218 1.89086 0
M  V30 11644 H 1125.11 -3.35672 1.91993 0
M  V30 11645 H 1126.8 -3.31867 2.33707 0
M  V30 11646 H 1127.56 -1.97872 4.428 0
M  V30 11647 H 1123.44 -2.88165 3.59836 0
M  V30 11648 H 1126.98 -1.57844 6.79508 0
M  V30 11649 H 1122.88 -2.48539 5.95734 0
M  V30 11650 H 1123.65 -1.92368 7.95573 0
M  V30 11651 N 1126.31 -1.30234 -0.887518 0
M  V30 11652 C 1127.56 -1.20096 -1.6416 0
M  V30 11653 C 1127.91 0.24253 -1.90865 0
M  V30 11654 O 1127.21 1.17078 -1.51668 0
M  V30 11655 C 1127.4 -1.96046 -2.98832 0
M  V30 11656 C 1127.23 -3.47633 -2.85274 0
M  V30 11657 C 1126 -4.16989 -2.85392 0
M  V30 11658 C 1128.2 -4.42911 -2.61409 0
M  V30 11659 N 1126.18 -5.54854 -2.62699 0
M  V30 11660 C 1127.55 -5.68321 -2.47813 0
M  V30 11661 C 1129.61 -4.32535 -2.46613 0
M  V30 11662 C 1128.31 -6.84532 -2.20927 0
M  V30 11663 C 1130.33 -5.4851 -2.21112 0
M  V30 11664 C 1129.7 -6.729 -2.08291 0
M  V30 11665 H 1125.8 -0.494513 -0.605789 0
M  V30 11666 H 1128.38 -1.64213 -1.04605 0
M  V30 11667 H 1126.55 -1.54324 -3.56425 0
M  V30 11668 H 1128.28 -1.78072 -3.63418 0
M  V30 11669 H 1125.04 -3.68798 -2.97128 0
M  V30 11670 H 1125.46 -6.27395 -2.54371 0
M  V30 11671 H 1130.1 -3.37047 -2.55262 0
M  V30 11672 H 1127.82 -7.80063 -2.11015 0
M  V30 11673 H 1131.41 -5.42389 -2.1049 0
M  V30 11674 H 1130.29 -7.61125 -1.88833 0
M  V30 11675 N 1127.79 1.09952 -1.12909 0
M  V30 11676 C 1128.72 2.18477 -0.824014 0
M  V30 11677 C 1129.7 1.68744 0.214324 0
M  V30 11678 O 1130.89 1.94057 0.0744281 0
M  V30 11679 C 1128.02 3.46143 -0.283308 0
M  V30 11680 C 1126.97 4.09178 -1.25528 0
M  V30 11681 C 1126.3 5.31604 -0.574574 0
M  V30 11682 C 1127.6 4.52308 -2.6118 0
M  V30 11683 H 1129.29 2.44254 -1.73148 0
M  V30 11684 H 1126.84 1.17394 -0.833952 0
M  V30 11685 H 1128.79 4.21361 -0.057583 0
M  V30 11686 H 1127.51 3.19872 0.659525 0
M  V30 11687 H 1126.17 3.35973 -1.4669 0
M  V30 11688 H 1125.82 5.01611 0.37356 0
M  V30 11689 H 1125.52 5.74732 -1.22299 0
M  V30 11690 H 1127.04 6.0955 -0.358004 0
M  V30 11691 H 1128.46 5.18776 -2.44017 0
M  V30 11692 H 1126.86 5.06302 -3.22147 0
M  V30 11693 H 1127.93 3.64977 -3.19249 0
M  V30 11694 N 1129.27 0.921757 1.27833 0
M  V30 11695 C 1130.22 0.387357 2.24685 0
M  V30 11696 C 1131.2 -0.505036 1.52768 0
M  V30 11697 O 1132.39 -0.34345 1.73636 0
M  V30 11698 C 1129.52 -0.364168 3.41363 0
M  V30 11699 C 1128.61 0.544401 4.20591 0
M  V30 11700 N 1129 1.66158 4.77729 0
M  V30 11701 C 1127.3 0.346289 4.44654 0
M  V30 11702 C 1128 2.22619 5.37416 0
M  V30 11703 N 1126.98 1.51648 5.22019 0
M  V30 11704 H 1130.78 1.24045 2.6644 0
M  V30 11705 H 1128.29 0.775338 1.42696 0
M  V30 11706 H 1130.29 -0.763917 4.09841 0
M  V30 11707 H 1128.95 -1.21426 3.01141 0
M  V30 11708 H 1129.96 2.04406 4.75856 0
M  V30 11709 H 1126.64 -0.46363 4.14918 0
M  V30 11710 H 1128.03 3.16641 5.92611 0
M  V30 11711 N 1130.75 -1.41857 0.686609 0
M  V30 11712 C 1131.66 -2.34595 0.0159005 0
M  V30 11713 C 1132.67 -1.55741 -0.775933 0
M  V30 11714 O 1133.85 -1.8826 -0.71555 0
M  V30 11715 C 1130.91 -3.34395 -0.915473 0
M  V30 11716 C 1129.97 -4.29141 -0.116851 0
M  V30 11717 C 1129.21 -5.24174 -1.00386 0
M  V30 11718 O 1129.43 -5.24431 -2.2434 0
M  V30 11719 O 1128.36 -6.00152 -0.458337 0
M  V30 11720 H 1132.19 -2.9351 0.780101 0
M  V30 11721 H 1129.78 -1.42559 0.446896 0
M  V30 11722 H 1131.66 -3.95675 -1.44981 0
M  V30 11723 H 1130.33 -2.77936 -1.65932 0
M  V30 11724 H 1129.24 -3.71238 0.461871 0
M  V30 11725 H 1130.57 -4.88673 0.588138 0
M  V30 11726 N 1132.22 -0.430739 -1.51599 0
M  V30 11727 C 1133.17 0.398482 -2.29161 0
M  V30 11728 C 1134.17 1.02676 -1.34737 0
M  V30 11729 O 1135.37 0.96248 -1.52106 0
M  V30 11730 H 1131.75 0.14731 -0.737431 0
M  V30 11731 H 1133.72 -0.276619 -2.97115 0
M  V30 11732 C 1132.47 1.49094 -3.14112 0
M  V30 11733 H 1131.79 1.01685 -3.86652 0
M  V30 11734 H 1133.23 2.04453 -3.7145 0
M  V30 11735 C 1131.69 2.47049 -2.29059 0
M  V30 11736 O 1132.22 3.51435 -1.94567 0
M  V30 11737 N 1130.43 2.17778 -1.92409 0
M  V30 11738 H 1129.97 1.3292 -2.20658 0
M  V30 11739 H 1129.93 2.8356 -1.35798 0
M  V30 11740 N 1133.7 1.56767 -0.161869 0
M  V30 11741 C 1134.95 1.96206 0.484537 0
M  V30 11742 C 1135.27 1.04848 1.64414 0
M  V30 11743 O 1134.54 0.112946 1.95574 0
M  V30 11744 H 1133.12 0.724491 0.181994 0
M  V30 11745 H 1135.78 1.93406 -0.240845 0
M  V30 11746 H 1134.88 3.00279 0.85083 0
M  V30 11747 N 1135.18 -0.111886 1.57202 0
M  V30 11748 C 1136.13 -1.14287 1.97288 0
M  V30 11749 C 1137.11 -1.36686 0.848868 0
M  V30 11750 O 1138.31 -1.37659 1.11261 0
M  V30 11751 C 1135.44 -2.46759 2.38673 0
M  V30 11752 C 1134.52 -2.27805 3.57723 0
M  V30 11753 N 1134.91 -1.78679 4.73189 0
M  V30 11754 C 1133.21 -2.58435 3.63494 0
M  V30 11755 C 1133.91 -1.736 5.55192 0
M  V30 11756 N 1132.89 -2.18205 4.97883 0
M  V30 11757 H 1136.69 -0.755711 2.84018 0
M  V30 11758 H 1134.2 -0.31954 1.59225 0
M  V30 11759 H 1136.2 -3.21335 2.65611 0
M  V30 11760 H 1134.86 -2.86227 1.53311 0
M  V30 11761 H 1135.87 -1.48121 4.96267 0
M  V30 11762 H 1132.55 -3.0154 2.88755 0
M  V30 11763 H 1133.94 -1.36812 6.57824 0
M  V30 11764 N 1136.66 -1.52894 -0.382264 0
M  V30 11765 C 1137.94 -1.58853 -1.14127 0
M  V30 11766 C 1138.32 -0.38582 -2.07544 0
M  V30 11767 O 1137.66 0.625323 -2.19777 0
M  V30 11768 C 1137.87 -2.93068 -1.89504 0
M  V30 11769 C 1139.22 -3.47048 -2.44629 0
M  V30 11770 O 1140.25 -2.94987 -1.99652 0
M  V30 11771 O 1139.1 -4.3802 -3.26804 0
M  V30 11772 H 1136.2 -0.640969 -0.522578 0
M  V30 11773 H 1138.74 -1.65231 -0.386873 0
M  V30 11774 H 1137.52 -3.72047 -1.2123 0
M  V30 11775 H 1137.14 -2.90106 -2.7189 0
M  V30 11776 N 1138.14 0.641106 -1.43971 0
M  V30 11777 C 1139.38 1.41251 -1.47742 0
M  V30 11778 C 1139.74 1.91722 -0.103353 0
M  V30 11779 O 1140.94 2.68795 -0.0157401 0
M  V30 11780 C 1139.21 2.5537 -2.50042 0
M  V30 11781 S 1140.77 3.43708 -2.72783 0
M  V30 11782 H 1137.59 0.482007 -0.522676 0
M  V30 11783 H 1140.19 0.743161 -1.80824 0
M  V30 11784 H 1138.9 2.16586 -3.48596 0
M  V30 11785 H 1138.43 3.27142 -2.18498 0
M  V30 11786 H 1140.44 4.52495 -2.03624 0
M  V30 11787 N 1139.62 1.30703 0.880598 0
M  V30 11788 C 1140.56 1.17455 1.98678 0
M  V30 11789 C 1141.53 0.0629569 1.65981 0
M  V30 11790 O 1142.72 0.233926 1.89361 0
M  V30 11791 C 1139.86 0.876882 3.33774 0
M  V30 11792 C 1138.97 2.07078 3.79134 0
M  V30 11793 C 1138.11 1.71082 5.02896 0
M  V30 11794 C 1137.14 2.86942 5.40676 0
M  V30 11795 N 1136.28 2.51212 6.55619 0
M  V30 11796 H 1141.12 2.12086 2.09341 0
M  V30 11797 H 1138.66 1.05514 1.02495 0
M  V30 11798 H 1140.62 0.684899 4.1154 0
M  V30 11799 H 1139.25 -0.0325633 3.22784 0
M  V30 11800 H 1138.3 2.37388 2.97239 0
M  V30 11801 H 1139.61 2.9383 4.0307 0
M  V30 11802 H 1138.76 1.48284 5.883 0
M  V30 11803 H 1137.5 0.815064 4.80841 0
M  V30 11804 H 1136.51 3.10401 4.53797 0
M  V30 11805 H 1137.73 3.77211 5.64703 0
M  V30 11806 H 1135.68 1.64147 6.35131 0
M  V30 11807 H 1135.6 3.31495 6.79446 0
M  V30 11808 H 1136.86 2.31781 7.44243 0
M  V30 11809 N 1141.09 -1.09351 1.1349 0
M  V30 11810 C 1142 -2.19564 0.826366 0
M  V30 11811 C 1143.02 -1.72967 -0.189339 0
M  V30 11812 O 1144.2 -2.0139 -0.0202033 0
M  V30 11813 C 1141.26 -3.4542 0.297685 0
M  V30 11814 C 1140.32 -4.06694 1.37473 0
M  V30 11815 C 1139.55 -5.26542 0.871183 0
M  V30 11816 O 1139.78 -5.69657 -0.290958 0
M  V30 11817 O 1138.71 -5.78961 1.64584 0
M  V30 11818 H 1142.54 -2.4841 1.74718 0
M  V30 11819 H 1140.12 -1.18302 0.912414 0
M  V30 11820 H 1142 -4.21399 0.00829479 0
M  V30 11821 H 1140.68 -3.18175 -0.595536 0
M  V30 11822 H 1139.59 -3.32347 1.71745 0
M  V30 11823 H 1140.92 -4.38166 2.24212 0
M  V30 11824 N 1142.57 -0.928524 -1.27343 0
M  V30 11825 C 1143.53 -0.43292 -2.25074 0
M  V30 11826 C 1144.53 0.448976 -1.54405 0
M  V30 11827 O 1145.72 0.249939 -1.72398 0
M  V30 11828 C 1142.86 0.377539 -3.38803 0
M  V30 11829 H 1144.05 -1.29642 -2.70431 0
M  V30 11830 H 1141.6 -0.709289 -1.3928 0
M  V30 11831 H 1142.34 1.25982 -2.98829 0
M  V30 11832 H 1142.12 -0.254782 -3.91271 0
M  V30 11833 H 1143.61 0.714634 -4.1144 0
M  V30 11834 N 1144.05 1.41491 -0.694123 0
M  V30 11835 C 1145.3 2.00854 -0.224033 0
M  V30 11836 C 1145.62 1.55246 1.17999 0
M  V30 11837 O 1144.89 0.782452 1.79595 0
M  V30 11838 H 1143.47 0.742721 -0.0798368 0
M  V30 11839 H 1146.13 1.73137 -0.894958 0
M  V30 11840 H 1145.23 3.11173 -0.240332 0
M  V30 11841 N 1145.53 0.438773 1.51369 0
M  V30 11842 C 1146.77 -0.126367 2.04009 0
M  V30 11843 C 1147.13 -1.39837 1.31566 0
M  V30 11844 O 1148.33 -2.04384 1.74587 0
M  V30 11845 C 1146.6 -0.338531 3.55793 0
M  V30 11846 S 1148.16 -0.866869 4.30152 0
M  V30 11847 H 1144.98 -0.0311763 0.710316 0
M  V30 11848 H 1147.58 0.598507 1.86113 0
M  V30 11849 H 1146.29 0.593555 4.06085 0
M  V30 11850 H 1145.82 -1.09044 3.77985 0
M  V30 11851 H 1147.83 -2.14427 4.47477 0
M  V30 11852 N 1147.01 -1.56678 0.170181 0
M  V30 11853 C 1147.97 -2.16698 -0.746622 0
M  V30 11854 C 1148.97 -1.11475 -1.15888 0
M  V30 11855 O 1150.16 -1.36994 -1.07602 0
M  V30 11856 C 1147.29 -2.74892 -2.01612 0
M  V30 11857 H 1148.48 -2.99061 -0.224135 0
M  V30 11858 H 1146.04 -1.56098 -0.0793761 0
M  V30 11859 H 1146.77 -1.96259 -2.58172 0
M  V30 11860 H 1146.56 -3.51896 -1.72949 0
M  V30 11861 H 1148.05 -3.21058 -2.67042 0
M  V30 11862 N 1148.48 0.103547 -1.57259 0
M  V30 11863 C 1149.43 1.13239 -1.97891 0
M  V30 11864 C 1150.42 1.36234 -0.856105 0
M  V30 11865 O 1151.61 1.37067 -1.11989 0
M  V30 11866 C 1148.74 2.4549 -2.39979 0
M  V30 11867 C 1147.82 2.25905 -3.58926 0
M  V30 11868 N 1148.22 1.76167 -4.7413 0
M  V30 11869 C 1146.51 2.56503 -3.64859 0
M  V30 11870 C 1147.21 1.70653 -5.56105 0
M  V30 11871 N 1146.19 2.15562 -4.99033 0
M  V30 11872 H 1149.99 0.740638 -2.84415 0
M  V30 11873 H 1147.51 0.311091 -1.59393 0
M  V30 11874 H 1149.5 3.19922 -2.67312 0
M  V30 11875 H 1148.16 2.8541 -1.54827 0
M  V30 11876 H 1149.17 1.45487 -4.97045 0
M  V30 11877 H 1145.85 3.00005 -2.9035 0
M  V30 11878 H 1147.24 1.33321 -6.5854 0
M  V30 11879 N 1149.96 1.53094 0.37415 0
M  V30 11880 C 1150.91 1.78927 1.45787 0
M  V30 11881 C 1151.88 0.633187 1.53558 0
M  V30 11882 O 1153.06 0.874472 1.69581 0
M  V30 11883 C 1150.2 1.97726 2.8284 0
M  V30 11884 C 1149.32 3.25436 2.84104 0
M  V30 11885 C 1148.45 3.3447 4.12678 0
M  V30 11886 C 1147.49 4.56246 4.08051 0
M  V30 11887 N 1146.63 4.6248 5.28258 0
M  V30 11888 H 1151.47 2.71404 1.2306 0
M  V30 11889 H 1149 1.34453 0.596716 0
M  V30 11890 H 1150.96 2.06611 3.62447 0
M  V30 11891 H 1149.59 1.08593 3.03986 0
M  V30 11892 H 1148.64 3.25548 1.96781 0
M  V30 11893 H 1149.96 4.15112 2.76556 0
M  V30 11894 H 1149.11 3.4262 5.00696 0
M  V30 11895 H 1147.85 2.42795 4.22968 0
M  V30 11896 H 1146.85 4.48206 3.1842 0
M  V30 11897 H 1148.08 5.49254 3.99371 0
M  V30 11898 H 1146.03 3.73703 5.3915 0
M  V30 11899 H 1145.94 5.46049 5.22845 0
M  V30 11900 H 1147.21 4.74903 6.18132 0
M  V30 11901 N 1151.44 -0.633461 1.44309 0
M  V30 11902 C 1152.69 -1.38902 1.4625 0
M  V30 11903 C 1153 -1.95354 0.0980699 0
M  V30 11904 O 1154.21 -2.715 -0.0049983 0
M  V30 11905 C 1152.66 -2.51477 2.57463 0
M  V30 11906 C 1152.27 -2.01549 4.00103 0
M  V30 11907 C 1154.02 -3.28698 2.68622 0
M  V30 11908 C 1151.92 -3.11452 5.02744 0
M  V30 11909 H 1150.85 -0.521976 0.544112 0
M  V30 11910 H 1153.5 -0.681725 1.70367 0
M  V30 11911 H 1151.89 -3.24771 2.26582 0
M  V30 11912 H 1153.06 -1.35135 4.4054 0
M  V30 11913 H 1151.37 -1.3715 3.93165 0
M  V30 11914 H 1153.97 -4.10624 3.42479 0
M  V30 11915 H 1154.31 -3.78027 1.7436 0
M  V30 11916 H 1154.85 -2.62494 2.98901 0
M  V30 11917 H 1151.59 -2.6707 5.98627 0
M  V30 11918 H 1151.11 -3.76514 4.66902 0
M  V30 11919 H 1152.79 -3.76265 5.2634 0
M  V30 11920 N 1152.92 -1.31168 -0.873655 0
M  V30 11921 C 1154.14 -1.23728 -1.66452 0
M  V30 11922 C 1154.57 0.194869 -1.87088 0
M  V30 11923 O 1153.93 1.1397 -1.40998 0
M  V30 11924 C 1153.97 -1.98285 -3.0119 0
M  V30 11925 O 1153.08 -1.31767 -3.90783 0
M  V30 11926 H 1152.42 -0.427362 -0.508191 0
M  V30 11927 H 1154.95 -1.73176 -1.08955 0
M  V30 11928 H 1154.96 -2.0774 -3.51153 0
M  V30 11929 H 1153.63 -3.02437 -2.8549 0
M  V30 11930 H 1152.21 -1.3074 -3.4923 0
M  V30 11931 N 1154.4 1.08748 -1.14068 0
M  V30 11932 C 1155.62 1.85353 -0.930532 0
M  V30 11933 C 1156.05 1.80892 0.515717 0
M  V30 11934 O 1155.4 1.19146 1.36652 0
M  V30 11935 C 1155.45 3.30962 -1.43167 0
M  V30 11936 O 1154.56 4.0769 -0.621468 0
M  V30 11937 H 1153.9 0.574485 -0.332962 0
M  V30 11938 H 1156.43 1.37282 -1.51707 0
M  V30 11939 H 1156.44 3.81807 -1.43832 0
M  V30 11940 H 1155.11 3.33524 -2.48464 0
M  V30 11941 H 1153.69 3.66587 -0.683267 0
M  V30 11942 N 1155.87 0.935264 1.26849 0
M  V30 11943 C 1157.12 0.580548 1.94313 0
M  V30 11944 C 1157.45 -0.877205 1.73259 0
M  V30 11945 O 1156.73 -1.62679 1.06611 0
M  V30 11946 C 1157.01 0.916445 3.48243 0
M  V30 11947 C 1156.86 2.42851 3.78607 0
M  V30 11948 C 1158.18 0.427665 4.38017 0
M  V30 11949 H 1155.3 0.21239 0.705733 0
M  V30 11950 H 1157.94 1.16841 1.49827 0
M  V30 11951 H 1156.09 0.416169 3.86265 0
M  V30 11952 H 1157.77 3.00106 3.50335 0
M  V30 11953 H 1156.01 2.8745 3.24892 0
M  V30 11954 H 1156.68 2.61405 4.8618 0
M  V30 11955 H 1159.16 0.856525 4.07189 0
M  V30 11956 H 1158.03 0.691571 5.44526 0
M  V30 11957 H 1158.29 -0.672344 4.36958 0
M  V30 11958 N 1157.35 -1.41121 0.701616 0
M  V30 11959 C 1158.26 -2.34565 0.0407815 0
M  V30 11960 C 1159.28 -1.56555 -0.75937 0
M  V30 11961 O 1160.45 -1.89008 -0.695542 0
M  V30 11962 C 1157.52 -3.35347 -0.879954 0
M  V30 11963 C 1156.58 -4.29241 -0.0713279 0
M  V30 11964 C 1155.81 -5.25209 -0.948211 0
M  V30 11965 O 1156.04 -5.26781 -2.18766 0
M  V30 11966 O 1154.97 -6.00605 -0.394657 0
M  V30 11967 H 1158.8 -2.92666 0.811188 0
M  V30 11968 H 1156.38 -1.42077 0.461991 0
M  V30 11969 H 1158.26 -3.9719 -1.40776 0
M  V30 11970 H 1156.94 -2.7968 -1.62975 0
M  V30 11971 H 1155.85 -3.70727 0.50122 0
M  V30 11972 H 1157.18 -4.88022 0.639935 0
M  V30 11973 N 1158.83 -0.446794 -1.51134 0
M  V30 11974 C 1160.08 0.116263 -2.01765 0
M  V30 11975 C 1160.4 1.42382 -1.33238 0
M  V30 11976 O 1159.67 1.9018 -0.469915 0
M  V30 11977 H 1158.25 0.0459558 -0.745585 0
M  V30 11978 H 1160.91 -0.591664 -1.85702 0
M  V30 11979 H 1160.01 0.285358 -3.10793 0
M  V30 11980 N 1160.31 1.56586 -0.178487 0
M  V30 11981 C 1161.54 2.01475 0.470684 0
M  V30 11982 C 1161.95 1.0587 1.56323 0
M  V30 11983 O 1161.31 0.060749 1.82399 0
M  V30 11984 C 1161.36 3.46145 1.04238 0
M  V30 11985 O 1161.08 4.381 -0.0065582 0
M  V30 11986 C 1162.58 4.06471 1.76908 0
M  V30 11987 H 1159.8 0.660219 0.119801 0
M  V30 11988 H 1162.35 2.02542 -0.282322 0
M  V30 11989 H 1160.5 3.45831 1.74585 0
M  V30 11990 H 1160.91 5.22843 0.416554 0
M  V30 11991 H 1162.39 5.096 2.12161 0
M  V30 11992 H 1162.87 3.48974 2.66672 0
M  V30 11993 H 1163.47 4.10509 1.11186 0
M  V30 11994 N 1161.79 -0.095206 1.57312 0
M  V30 11995 C 1162.72 -1.11627 2.05089 0
M  V30 11996 C 1163.7 -1.41782 0.939787 0
M  V30 11997 O 1164.88 -1.51813 1.21105 0
M  V30 11998 C 1162.01 -2.43618 2.47523 0
M  V30 11999 C 1160.97 -2.27872 3.62296 0
M  V30 12000 C 1160.29 -3.65038 3.90706 0
M  V30 12001 C 1161.59 -1.71936 4.93189 0
M  V30 12002 H 1163.29 -0.718795 2.90644 0
M  V30 12003 H 1160.83 -0.344315 1.39823 0
M  V30 12004 H 1162.79 -3.1532 2.79556 0
M  V30 12005 H 1161.51 -2.85301 1.58968 0
M  V30 12006 H 1160.17 -1.58615 3.3051 0
M  V30 12007 H 1159.82 -4.04249 2.99319 0
M  V30 12008 H 1159.52 -3.55349 4.67976 0
M  V30 12009 H 1161.04 -4.38208 4.25213 0
M  V30 12010 H 1162.45 -2.33479 5.23603 0
M  V30 12011 H 1160.85 -1.73006 5.74621 0
M  V30 12012 H 1161.92 -0.678789 4.80125 0
M  V30 12013 N 1163.26 -1.53291 -0.366026 0
M  V30 12014 C 1164.23 -1.79025 -1.43117 0
M  V30 12015 C 1165.23 -0.660676 -1.46601 0
M  V30 12016 O 1166.42 -0.928875 -1.47369 0
M  V30 12017 C 1163.55 -1.91192 -2.82238 0
M  V30 12018 H 1164.74 -2.74154 -1.21572 0
M  V30 12019 H 1162.3 -1.44361 -0.599132 0
M  V30 12020 H 1163.03 -0.98129 -3.09097 0
M  V30 12021 H 1162.82 -2.7335 -2.81109 0
M  V30 12022 H 1164.31 -2.12696 -3.59375 0
M  V30 12023 N 1164.74 0.6258 -1.44643 0
M  V30 12024 C 1165.97 1.41726 -1.51422 0
M  V30 12025 C 1166.39 1.87565 -0.14181 0
M  V30 12026 O 1165.75 1.59059 0.870054 0
M  V30 12027 C 1165.8 2.61012 -2.48807 0
M  V30 12028 O 1164.9 3.61029 -1.99328 0
M  V30 12029 H 1164.24 0.423855 -0.511119 0
M  V30 12030 H 1166.77 0.763336 -1.89827 0
M  V30 12031 H 1166.78 3.08489 -2.67018 0
M  V30 12032 H 1165.46 2.26995 -3.48491 0
M  V30 12033 H 1164.04 3.20325 -1.90909 0
M  V30 12034 N 1166.22 1.31629 0.866686 0
M  V30 12035 C 1167.63 1.19347 1.43573 0
M  V30 12036 C 1167.98 -0.198765 1.95191 0
M  V30 12037 O 1167.11 -1.09674 1.86549 0
M  V30 12038 C 1167.7 2.16055 2.6097 0
M  V30 12039 C 1166.26 2.07697 3.13909 0
M  V30 12040 C 1165.41 2.05099 1.86627 0
M  V30 12041 H 1168.36 1.43633 0.674929 0
M  V30 12042 H 1168.38 1.75207 3.37761 0
M  V30 12043 H 1167.89 3.17375 2.23371 0
M  V30 12044 H 1165.99 1.09583 3.56121 0
M  V30 12045 H 1166.11 2.96958 3.75969 0
M  V30 12046 H 1164.47 1.50162 2.05727 0
M  V30 12047 H 1165.25 3.0818 1.51261 0
M  V30 12048 N 1167.7 -1.08142 1.14644 0
M  V30 12049 C 1168.65 -2.17229 0.831513 0
M  V30 12050 C 1169.64 -1.68311 -0.19173 0
M  V30 12051 O 1170.85 -1.79937 -0.0475596 0
M  V30 12052 H 1167.22 -0.708807 0.25119 0
M  V30 12053 H 1169.19 -2.41014 1.75939 0
M  V30 12054 C 1167.94 -3.46146 0.328347 0
M  V30 12055 H 1167.27 -3.84166 1.10708 0
M  V30 12056 H 1168.71 -4.23747 0.146568 0
M  V30 12057 C 1167.16 -3.2327 -0.948594 0
M  V30 12058 O 1167.69 -3.47111 -2.0218 0
M  V30 12059 N 1165.9 -2.76799 -0.884909 0
M  V30 12060 H 1165.45 -2.57597 -0.011399 0
M  V30 12061 H 1165.41 -2.61871 -1.73985 0
M  V30 12062 N 1169.18 -0.941978 -1.26351 0
M  V30 12063 C 1170.42 -0.600372 -1.94338 0
M  V30 12064 C 1170.78 0.851343 -1.7254 0
M  V30 12065 O 1170.07 1.60116 -1.0523 0
M  V30 12066 C 1170.27 -0.879481 -3.4641 0
M  V30 12067 C 1170.09 -2.35678 -3.82996 0
M  V30 12068 C 1168.86 -3.01208 -4.05712 0
M  V30 12069 C 1171.06 -3.33531 -3.91486 0
M  V30 12070 N 1169.04 -4.38942 -4.29189 0
M  V30 12071 C 1170.42 -4.56525 -4.19506 0
M  V30 12072 C 1172.47 -3.28544 -3.74117 0
M  V30 12073 C 1171.17 -5.75153 -4.31962 0
M  V30 12074 C 1173.2 -4.46498 -3.87806 0
M  V30 12075 C 1172.56 -5.68275 -4.16225 0
M  V30 12076 H 1168.66 -0.270078 -0.733881 0
M  V30 12077 H 1171.24 -1.21155 -1.52413 0
M  V30 12078 H 1169.42 -0.297345 -3.8726 0
M  V30 12079 H 1171.15 -0.499062 -4.01611 0
M  V30 12080 H 1167.9 -2.51823 -4.01101 0
M  V30 12081 H 1168.33 -5.10236 -4.44959 0
M  V30 12082 H 1172.97 -2.35451 -3.51173 0
M  V30 12083 H 1170.69 -6.68699 -4.53727 0
M  V30 12084 H 1174.27 -4.44173 -3.75768 0
M  V30 12085 H 1173.15 -6.58024 -4.26584 0
M  V30 12086 N 1170.66 1.40747 -0.709091 0
M  V30 12087 C 1172.07 1.83955 -0.318968 0
M  V30 12088 C 1172.42 1.59304 1.14527 0
M  V30 12089 O 1171.54 1.07052 1.88066 0
M  V30 12090 C 1172.14 3.33934 -0.572147 0
M  V30 12091 C 1170.7 3.75661 -0.235802 0
M  V30 12092 C 1169.84 2.64024 -0.847743 0
M  V30 12093 H 1172.79 1.30107 -0.908734 0
M  V30 12094 H 1172.82 3.80143 0.164752 0
M  V30 12095 H 1172.33 3.51844 -1.63791 0
M  V30 12096 H 1170.43 3.63348 0.825164 0
M  V30 12097 H 1170.54 4.73955 -0.700263 0
M  V30 12098 H 1168.91 2.53197 -0.276283 0
M  V30 12099 H 1169.69 2.84748 -1.91765 0
M  V30 12100 N 1172.13 0.454803 1.50895 0
M  V30 12101 C 1173.41 -0.166559 1.9489 0
M  V30 12102 C 1173.79 -1.58492 1.3944 0
M  V30 12103 O 1173.14 -2.20788 0.588622 0
M  V30 12104 C 1173.35 -0.126506 3.48771 0
M  V30 12105 C 1174.7 -0.32347 4.23366 0
M  V30 12106 O 1175.72 -0.203835 3.55616 0
M  V30 12107 O 1174.58 -0.563292 5.43589 0
M  V30 12108 H 1171.67 -0.120523 0.818171 0
M  V30 12109 H 1174.22 0.514037 1.61727 0
M  V30 12110 H 1172.99 0.864407 3.81633 0
M  V30 12111 H 1172.61 -0.849264 3.88424 0
M  V30 12112 N 1173.61 -1.56489 0.186789 0
M  V30 12113 C 1174.56 -2.18703 -0.737402 0
M  V30 12114 C 1175.53 -1.13171 -1.21579 0
M  V30 12115 O 1176.71 -1.41388 -1.28118 0
M  V30 12116 C 1173.85 -2.84394 -1.95484 0
M  V30 12117 C 1172.97 -4.04429 -1.51859 0
M  V30 12118 C 1172.1 -4.58001 -2.69089 0
M  V30 12119 C 1171.14 -5.70412 -2.22029 0
M  V30 12120 N 1170.28 -6.18425 -3.32407 0
M  V30 12121 H 1175.12 -2.97327 -0.200105 0
M  V30 12122 H 1172.65 -1.46842 -0.087032 0
M  V30 12123 H 1174.61 -3.20646 -2.66912 0
M  V30 12124 H 1173.24 -2.08347 -2.46559 0
M  V30 12125 H 1172.29 -3.73895 -0.70048 0
M  V30 12126 H 1173.61 -4.85756 -1.13327 0
M  V30 12127 H 1172.76 -4.96515 -3.48652 0
M  V30 12128 H 1171.5 -3.75764 -3.1089 0
M  V30 12129 H 1170.5 -5.31434 -1.40918 0
M  V30 12130 H 1171.73 -6.54461 -1.81268 0
M  V30 12131 H 1169.68 -5.39113 -3.73755 0
M  V30 12132 H 1169.59 -6.94782 -2.98017 0
M  V30 12133 H 1170.86 -6.61592 -4.12209 0
M  V30 12134 N 1175.09 0.086862 -1.5736 0
M  V30 12135 C 1176.32 0.801004 -1.9044 0
M  V30 12136 C 1176.73 1.72396 -0.779513 0
M  V30 12137 O 1176.07 1.81894 0.256972 0
M  V30 12138 C 1176.13 1.66055 -3.18851 0
M  V30 12139 C 1175.8 0.908561 -4.47877 0
M  V30 12140 C 1176.79 0.234621 -5.1937 0
M  V30 12141 C 1174.48 0.8802 -4.94528 0
M  V30 12142 C 1176.47 -0.45762 -6.35755 0
M  V30 12143 C 1174.16 0.184179 -6.10822 0
M  V30 12144 C 1175.16 -0.483545 -6.81286 0
M  V30 12145 O 1174.85 -1.16839 -7.95364 0
M  V30 12146 H 1174.58 0.233794 -0.634284 0
M  V30 12147 H 1177.13 0.0660113 -2.05294 0
M  V30 12148 H 1175.36 2.43798 -3.00165 0
M  V30 12149 H 1177.05 2.252 -3.37698 0
M  V30 12150 H 1177.82 0.247938 -4.84366 0
M  V30 12151 H 1173.7 1.38938 -4.39565 0
M  V30 12152 H 1177.24 -0.979369 -6.90691 0
M  V30 12153 H 1173.14 0.168737 -6.45279 0
M  V30 12154 H 1173.9 -1.07612 -8.11395 0
M  V30 12155 N 1176.57 1.53483 0.357892 0
M  V30 12156 C 1177.98 1.61641 0.934289 0
M  V30 12157 C 1178.33 0.488655 1.90017 0
M  V30 12158 O 1177.45 -0.38378 2.1297 0
M  V30 12159 C 1178.05 2.92987 1.7013 0
M  V30 12160 C 1176.61 3.03456 2.22692 0
M  V30 12161 C 1175.76 2.56992 1.04165 0
M  V30 12162 H 1178.71 1.58112 0.136452 0
M  V30 12163 H 1178.73 2.81221 2.5631 0
M  V30 12164 H 1178.24 3.75047 0.998056 0
M  V30 12165 H 1176.34 2.25999 2.96235 0
M  V30 12166 H 1176.45 4.08673 2.50046 0
M  V30 12167 H 1174.82 2.12052 1.41088 0
M  V30 12168 H 1175.6 3.41477 0.353272 0
M  V30 12169 N 1178.05 -0.61812 1.44973 0
M  V30 12170 C 1179.27 -1.40921 1.52171 0
M  V30 12171 C 1179.7 -1.87487 0.151755 0
M  V30 12172 O 1179.05 -1.59518 -0.861606 0
M  V30 12173 C 1179.1 -2.59689 2.50188 0
M  V30 12174 O 1178.21 -3.59967 2.0124 0
M  V30 12175 H 1177.55 -0.421138 0.51336 0
M  V30 12176 H 1180.08 -0.753258 1.90229 0
M  V30 12177 H 1180.09 -3.07069 2.6865 0
M  V30 12178 H 1178.76 -2.25144 3.4969 0
M  V30 12179 H 1177.34 -3.19308 1.92605 0
M  V30 12180 N 1179.52 -1.32087 -0.859693 0
M  V30 12181 C 1180.94 -1.10968 -1.14709 0
M  V30 12182 C 1181.14 0.113139 -2.01182 0
M  V30 12183 O 1180.2 0.799499 -2.39508 0
M  V30 12184 C 1181.51 -2.38657 -1.8293 0
M  V30 12185 C 1183.06 -2.44366 -1.95587 0
M  V30 12186 C 1183.53 -3.71963 -2.67222 0
M  V30 12187 N 1185.02 -3.72916 -2.7475 0
M  V30 12188 C 1185.76 -4.68346 -3.30816 0
M  V30 12189 N 1185.25 -5.74139 -3.87732 0
M  V30 12190 N 1187.05 -4.55851 -3.28872 0
M  V30 12191 H 1179.2 -2.10497 -0.283711 0
M  V30 12192 H 1181.46 -0.929108 -0.188315 0
M  V30 12193 H 1181.17 -3.2803 -1.26844 0
M  V30 12194 H 1181.04 -2.49236 -2.83128 0
M  V30 12195 H 1183.43 -1.55456 -2.50833 0
M  V30 12196 H 1183.51 -2.37744 -0.944001 0
M  V30 12197 H 1183.15 -4.61245 -2.1264 0
M  V30 12198 H 1183.08 -3.75855 -3.68837 0
M  V30 12199 H 1185.57 -2.96447 -2.34367 0
M  V30 12200 H 1185.89 -6.43021 -4.28654 0
M  V30 12201 H 1184.23 -5.779 -3.86078 0
M  V30 12202 H 1187.42 -3.72371 -2.83651 0
M  V30 12203 H 1187.6 -5.30398 -3.72266 0
M  V30 12204 N 1181 1.07532 -1.15215 0
M  V30 12205 C 1182.42 1.32183 -0.894411 0
M  V30 12206 C 1182.62 1.96188 0.459614 0
M  V30 12207 O 1181.67 2.22057 1.20195 0
M  V30 12208 C 1182.99 2.21473 -2.03397 0
M  V30 12209 C 1184.53 2.34927 -2.06829 0
M  V30 12210 C 1185.01 3.27564 -3.20103 0
M  V30 12211 N 1186.5 3.35144 -3.19738 0
M  V30 12212 C 1187.24 4.0688 -4.04025 0
M  V30 12213 N 1186.73 4.81246 -4.98371 0
M  V30 12214 N 1188.52 4.02802 -3.92055 0
M  V30 12215 H 1180.68 0.643732 -2.0241 0
M  V30 12216 H 1182.94 0.346272 -0.882496 0
M  V30 12217 H 1182.64 1.81701 -3.01127 0
M  V30 12218 H 1182.52 3.2199 -1.96475 0
M  V30 12219 H 1184.91 2.73953 -1.09699 0
M  V30 12220 H 1184.99 1.34121 -2.17819 0
M  V30 12221 H 1184.63 2.89258 -4.17483 0
M  V30 12222 H 1184.56 4.2832 -3.06349 0
M  V30 12223 H 1187.05 2.82135 -2.51412 0
M  V30 12224 H 1187.36 5.33472 -5.59131 0
M  V30 12225 H 1185.71 4.80268 -5.02362 0
M  V30 12226 H 1188.9 3.43816 -3.17661 0
M  V30 12227 H 1189.07 4.58443 -4.57967 0
M  V30 12228 N 1182.48 0.948665 1.2585 0
M  V30 12229 C 1183.39 0.470525 2.29833 0
M  V30 12230 C 1184.41 -0.45919 1.67832 0
M  V30 12231 O 1185.58 -0.336893 1.98562 0
M  V30 12232 C 1182.65 -0.249635 3.458 0
M  V30 12233 C 1181.71 0.717559 4.23261 0
M  V30 12234 C 1180.94 0.0316724 5.33691 0
M  V30 12235 O 1181.16 -1.18384 5.5798 0
M  V30 12236 O 1180.1 0.71418 5.97648 0
M  V30 12237 H 1183.92 1.33447 2.72811 0
M  V30 12238 H 1181.51 0.714864 1.31187 0
M  V30 12239 H 1183.39 -0.654993 4.16279 0
M  V30 12240 H 1182.07 -1.08885 3.04837 0
M  V30 12241 H 1180.97 1.17301 3.55234 0
M  V30 12242 H 1182.31 1.52461 4.67992 0
M  V30 12243 N 1183.96 -1.40369 0.716545 0
M  V30 12244 C 1185.2 -2.02728 0.2609 0
M  V30 12245 C 1185.56 -1.55591 -1.12496 0
M  V30 12246 O 1186.76 -2.1002 -1.67764 0
M  V30 12247 C 1185.03 -3.55789 0.338987 0
M  V30 12248 S 1186.59 -4.38782 -0.0395316 0
M  V30 12249 H 1183.41 -0.703437 0.103431 0
M  V30 12250 H 1186.01 -1.71474 0.938976 0
M  V30 12251 H 1184.72 -3.87587 1.34923 0
M  V30 12252 H 1184.25 -3.91772 -0.357536 0
M  V30 12253 H 1186.26 -4.79902 -1.26129 0
M  V30 12254 N 1185.44 -0.462799 -1.50652 0
M  V30 12255 C 1186.66 0.0929761 -2.06691 0
M  V30 12256 C 1187.08 1.34241 -1.32758 0
M  V30 12257 O 1186.44 1.78187 -0.394427 0
M  V30 12258 C 1186.49 0.389492 -3.59396 0
M  V30 12259 O 1186.21 -0.810379 -4.3054 0
M  V30 12260 C 1187.71 0.993147 -4.32032 0
M  V30 12261 H 1184.93 -0.00338664 -0.670991 0
M  V30 12262 H 1187.47 -0.649201 -1.93922 0
M  V30 12263 H 1185.63 1.08159 -3.71995 0
M  V30 12264 H 1186.04 -0.54996 -5.21609 0
M  V30 12265 H 1187.52 1.15044 -5.39878 0
M  V30 12266 H 1187.99 1.98106 -3.91983 0
M  V30 12267 H 1188.6 0.339677 -4.23941 0
M  V30 12268 N 1186.91 1.56388 -0.195085 0
M  V30 12269 C 1188.16 1.98634 0.437717 0
M  V30 12270 C 1188.52 1.07985 1.59239 0
M  V30 12271 O 1187.81 0.124261 1.91197 0
M  V30 12272 C 1188 3.44651 0.946051 0
M  V30 12273 C 1187.83 4.49423 -0.157828 0
M  V30 12274 C 1186.6 5.01538 -0.615457 0
M  V30 12275 C 1188.8 5.05132 -0.966773 0
M  V30 12276 N 1186.78 5.89974 -1.69716 0
M  V30 12277 C 1188.15 5.90238 -1.89788 0
M  V30 12278 C 1190.21 4.87565 -1.00919 0
M  V30 12279 C 1188.91 6.59655 -2.86788 0
M  V30 12280 C 1190.94 5.57722 -1.96724 0
M  V30 12281 C 1190.3 6.42574 -2.88579 0
M  V30 12282 H 1186.4 0.77152 0.127594 0
M  V30 12283 H 1188.98 1.92363 -0.300777 0
M  V30 12284 H 1187.15 3.51423 1.65399 0
M  V30 12285 H 1188.88 3.73863 1.54946 0
M  V30 12286 H 1185.64 4.73139 -0.208806 0
M  V30 12287 H 1186.06 6.38896 -2.23921 0
M  V30 12288 H 1190.71 4.2164 -0.313023 0
M  V30 12289 H 1188.42 7.24779 -3.57381 0
M  V30 12290 H 1192.01 5.46106 -2.00647 0
M  V30 12291 H 1190.89 6.95906 -3.61503 0
M  V30 12292 N 1188.39 -0.0785156 1.57404 0
M  V30 12293 C 1189.34 -1.11278 2.04255 0
M  V30 12294 C 1190.33 -1.40482 0.946633 0
M  V30 12295 O 1191.54 -1.39968 1.13177 0
M  V30 12296 H 1187.92 -0.376157 0.65116 0
M  V30 12297 H 1189.89 -0.691437 2.90279 0
M  V30 12298 C 1188.64 -2.42006 2.49656 0
M  V30 12299 H 1187.96 -2.20383 3.33574 0
M  V30 12300 H 1189.4 -3.12837 2.86197 0
M  V30 12301 C 1187.86 -3.07488 1.37669 0
M  V30 12302 O 1188.39 -3.95285 0.715036 0
M  V30 12303 N 1186.59 -2.68004 1.1235 0
M  V30 12304 H 1186.14 -1.96698 1.66336 0
M  V30 12305 H 1186.1 -3.12141 0.376238 0
M  V30 12306 N 1189.87 -1.5367 -0.349747 0
M  V30 12307 C 1191.12 -1.69835 -1.08807 0
M  V30 12308 C 1191.43 -0.46497 -1.89993 0
M  V30 12309 O 1192.64 -0.507452 -2.66716 0
M  V30 12310 C 1191.09 -3.00294 -1.98372 0
M  V30 12311 C 1190.7 -4.30949 -1.22422 0
M  V30 12312 C 1192.45 -3.25826 -2.72099 0
M  V30 12313 C 1190.35 -5.52486 -2.1098 0
M  V30 12314 H 1189.28 -0.63284 -0.409915 0
M  V30 12315 H 1191.93 -1.80171 -0.347968 0
M  V30 12316 H 1190.32 -2.838 -2.76176 0
M  V30 12317 H 1191.49 -4.58126 -0.495707 0
M  V30 12318 H 1189.81 -4.11983 -0.604896 0
M  V30 12319 H 1192.4 -4.13817 -3.38615 0
M  V30 12320 H 1192.75 -2.42566 -3.3833 0
M  V30 12321 H 1193.28 -3.43067 -2.0137 0
M  V30 12322 H 1190.02 -6.38271 -1.49301 0
M  V30 12323 H 1189.54 -5.29566 -2.81638 0
M  V30 12324 H 1191.22 -5.87889 -2.70176 0
M  V30 12325 N 1191.35 0.610423 -1.45298 0
M  V30 12326 C 1192.57 1.40112 -1.52917 0
M  V30 12327 C 1193 1.87404 -0.161696 0
M  V30 12328 O 1192.36 1.59973 0.853135 0
M  V30 12329 C 1192.4 2.58359 -2.51561 0
M  V30 12330 O 1191.51 3.58895 -2.03146 0
M  V30 12331 H 1190.85 0.41841 -0.515586 0
M  V30 12332 H 1193.38 0.743159 -1.90626 0
M  V30 12333 H 1193.39 3.0564 -2.70275 0
M  V30 12334 H 1192.06 2.23286 -3.50879 0
M  V30 12335 H 1190.64 3.18282 -1.94296 0
M  V30 12336 N 1192.83 1.32541 0.852676 0
M  V30 12337 C 1194.05 1.2636 1.64462 0
M  V30 12338 C 1194.48 -0.16508 1.87374 0
M  V30 12339 O 1193.83 -1.11712 1.42794 0
M  V30 12340 C 1193.88 2.03052 2.97997 0
M  V30 12341 O 1192.99 1.37967 3.88637 0
M  V30 12342 H 1192.33 0.435393 0.501327 0
M  V30 12343 H 1194.86 1.74888 1.06186 0
M  V30 12344 H 1194.87 2.133 3.47803 0
M  V30 12345 H 1193.54 3.06941 2.80642 0
M  V30 12346 H 1192.12 1.36279 3.47106 0
M  V30 12347 N 1194.3 -1.0692 1.15784 0
M  V30 12348 C 1195.53 -1.8331 0.959422 0
M  V30 12349 C 1195.95 -1.82268 -0.492332 0
M  V30 12350 O 1195.3 -1.23727 -1.34156 0
M  V30 12351 C 1195.36 -3.30202 1.47135 0
M  V30 12352 O 1195.08 -3.31328 2.86624 0
M  V30 12353 C 1196.58 -4.23346 1.31504 0
M  V30 12354 H 1193.8 -0.578202 0.340475 0
M  V30 12355 H 1196.34 -1.34939 1.53661 0
M  V30 12356 H 1194.5 -3.75908 0.936587 0
M  V30 12357 H 1194.91 -4.23135 3.0993 0
M  V30 12358 H 1196.38 -5.24465 1.72163 0
M  V30 12359 H 1196.86 -4.38431 0.259773 0
M  V30 12360 H 1197.47 -3.8348 1.83911 0
M  V30 12361 N 1195.78 -0.955326 -1.25345 0
M  V30 12362 C 1196.75 -0.480564 -2.24105 0
M  V30 12363 C 1197.75 0.416123 -1.55322 0
M  V30 12364 O 1198.94 0.213315 -1.72889 0
M  V30 12365 C 1196.07 0.305589 -3.39528 0
M  V30 12366 H 1197.26 -1.35349 -2.6762 0
M  V30 12367 H 1194.81 -0.738673 -1.37744 0
M  V30 12368 H 1195.55 1.19615 -3.01434 0
M  V30 12369 H 1195.33 -0.337719 -3.90643 0
M  V30 12370 H 1196.82 0.627201 -4.12863 0
M  V30 12371 N 1197.26 1.39987 -0.723979 0
M  V30 12372 C 1198.51 2.00334 -0.266587 0
M  V30 12373 C 1198.83 1.57714 1.14679 0
M  V30 12374 O 1198.1 0.82037 1.77895 0
M  V30 12375 H 1196.68 0.740861 -0.095573 0
M  V30 12376 H 1199.34 1.712 -0.931481 0
M  V30 12377 H 1198.44 3.10594 -0.306282 0
M  V30 12378 N 1198.74 0.470782 1.50404 0
M  V30 12379 C 1199.69 -0.342183 2.25418 0
M  V30 12380 C 1200.67 -0.961726 1.28995 0
M  V30 12381 O 1201.87 -0.874327 1.53898 0
M  V30 12382 C 1198.99 -1.42378 3.12383 0
M  V30 12383 C 1198.08 -0.811982 4.16254 0
M  V30 12384 N 1198.47 0.0675245 5.05755 0
M  V30 12385 C 1196.77 -1.07596 4.32827 0
M  V30 12386 C 1197.47 0.414693 5.8022 0
M  V30 12387 N 1196.45 -0.210047 5.43194 0
M  V30 12388 H 1200.25 0.335344 2.91981 0
M  V30 12389 H 1197.76 0.284911 1.59881 0
M  V30 12390 H 1199.76 -2.01936 3.64729 0
M  V30 12391 H 1198.42 -2.1033 2.47369 0
M  V30 12392 H 1199.43 0.436333 5.16059 0
M  V30 12393 H 1196.11 -1.75048 3.79031 0
M  V30 12394 H 1197.5 1.13243 6.62288 0
M  V30 12395 N 1200.22 -1.56282 0.203376 0
M  V30 12396 C 1201.63 -1.58871 -0.152335 0
M  V30 12397 C 1201.83 -1.21978 -1.60386 0
M  V30 12398 O 1200.89 -0.946422 -2.34092 0
M  V30 12399 C 1202.2 -3.00287 0.157515 0
M  V30 12400 C 1203.75 -3.12846 0.098287 0
M  V30 12401 C 1204.23 -4.56408 0.38156 0
M  V30 12402 N 1205.72 -4.6202 0.330475 0
M  V30 12403 C 1206.45 -5.71006 0.523397 0
M  V30 12404 N 1205.95 -6.88428 0.777115 0
M  V30 12405 N 1207.74 -5.60238 0.457082 0
M  V30 12406 H 1199.89 -1.78543 1.15048 0
M  V30 12407 H 1202.15 -0.829019 0.459816 0
M  V30 12408 H 1201.86 -3.3187 1.16427 0
M  V30 12409 H 1201.73 -3.73372 -0.536041 0
M  V30 12410 H 1204.12 -2.8107 -0.899085 0
M  V30 12411 H 1204.2 -2.42129 0.825045 0
M  V30 12412 H 1203.85 -4.88897 1.37629 0
M  V30 12413 H 1203.78 -5.25325 -0.366182 0
M  V30 12414 H 1206.27 -3.77636 0.141327 0
M  V30 12415 H 1206.58 -7.67389 0.912911 0
M  V30 12416 H 1204.93 -6.90215 0.814104 0
M  V30 12417 H 1208.12 -4.67382 0.259226 0
M  V30 12418 H 1208.29 -6.45114 0.610848 0
M  V30 12419 N 1201.7 0.070167 -1.57444 0
M  V30 12420 C 1202.94 0.770153 -1.87607 0
M  V30 12421 C 1203.27 1.77143 -0.795875 0
M  V30 12422 O 1202.55 1.93533 0.193674 0
M  V30 12423 C 1202.83 1.47668 -3.2843 0
M  V30 12424 C 1202.69 0.491712 -4.47104 0
M  V30 12425 C 1204 2.42118 -3.67514 0
M  V30 12426 H 1201.12 0.278519 -0.682346 0
M  V30 12427 H 1203.77 0.0333184 -1.89971 0
M  V30 12428 H 1201.92 2.10476 -3.26546 0
M  V30 12429 H 1203.59 -0.131283 -4.61113 0
M  V30 12430 H 1201.83 -0.192817 -4.33371 0
M  V30 12431 H 1202.5 1.02372 -5.42424 0
M  V30 12432 H 1204.98 1.89387 -3.70502 0
M  V30 12433 H 1203.85 2.88556 -4.66933 0
M  V30 12434 H 1204.11 3.26995 -2.97534 0
M  V30 12435 N 1203.17 1.53854 0.341593 0
M  V30 12436 C 1204.12 1.81979 1.41959 0
M  V30 12437 C 1205.09 0.665616 1.5218 0
M  V30 12438 O 1206.28 0.910246 1.67688 0
M  V30 12439 C 1203.42 2.03681 2.78583 0
M  V30 12440 C 1202.53 3.31389 2.77137 0
M  V30 12441 C 1201.66 3.43148 4.05491 0
M  V30 12442 C 1200.7 4.64799 3.98282 0
M  V30 12443 N 1199.84 4.73581 5.18329 0
M  V30 12444 H 1204.68 2.73953 1.17275 0
M  V30 12445 H 1202.22 1.35689 0.568062 0
M  V30 12446 H 1204.17 2.14253 3.57983 0
M  V30 12447 H 1202.8 1.15017 3.01614 0
M  V30 12448 H 1201.86 3.29649 1.89832 0
M  V30 12449 H 1203.17 4.20885 2.67689 0
M  V30 12450 H 1202.32 3.53163 4.93316 0
M  V30 12451 H 1201.06 2.51712 4.17723 0
M  V30 12452 H 1200.07 4.54859 3.08842 0
M  V30 12453 H 1201.29 5.57601 3.87631 0
M  V30 12454 H 1199.24 3.85055 5.31102 0
M  V30 12455 H 1199.15 5.57016 5.11145 0
M  V30 12456 H 1200.42 4.87908 6.0792 0
M  V30 12457 N 1204.65 -0.602709 1.4562 0
M  V30 12458 C 1205.58 -1.72374 1.5751 0
M  V30 12459 C 1206.56 -1.64669 0.426389 0
M  V30 12460 O 1207.75 -1.82994 0.650143 0
M  V30 12461 C 1204.88 -3.10987 1.5461 0
M  V30 12462 C 1203.83 -3.33507 2.68248 0
M  V30 12463 C 1203.16 -4.72443 2.50403 0
M  V30 12464 C 1204.46 -3.23285 4.10224 0
M  V30 12465 H 1206.15 -1.62679 2.51348 0
M  V30 12466 H 1203.7 -0.781217 1.20967 0
M  V30 12467 H 1205.65 -3.89214 1.61525 0
M  V30 12468 H 1204.37 -3.21533 0.573049 0
M  V30 12469 H 1203.03 -2.57672 2.60769 0
M  V30 12470 H 1202.68 -4.79729 1.51226 0
M  V30 12471 H 1202.38 -4.88466 3.26611 0
M  V30 12472 H 1203.91 -5.52864 2.59179 0
M  V30 12473 H 1205.32 -3.91381 4.1892 0
M  V30 12474 H 1203.72 -3.50837 4.86861 0
M  V30 12475 H 1204.79 -2.20652 4.31788 0
M  V30 12476 N 1206.13 -1.32992 -0.845635 0
M  V30 12477 C 1207.36 -1.27087 -1.63268 0
M  V30 12478 C 1207.77 0.159481 -1.88125 0
M  V30 12479 O 1207.13 1.09948 -1.45663 0
M  V30 12480 C 1207.18 -2.03649 -2.98679 0
M  V30 12481 O 1206.9 -3.41104 -2.74918 0
M  V30 12482 C 1208.4 -2.04875 -3.93117 0
M  V30 12483 H 1205.62 -0.438107 -0.508236 0
M  V30 12484 H 1208.17 -1.75257 -1.05381 0
M  V30 12485 H 1206.32 -1.59178 -3.53187 0
M  V30 12486 H 1206.74 -3.80405 -3.61099 0
M  V30 12487 H 1208.21 -2.62911 -4.85368 0
M  V30 12488 H 1208.69 -1.03728 -4.26775 0
M  V30 12489 H 1209.29 -2.49334 -3.44547 0
M  V30 12490 N 1207.61 1.06304 -1.1635 0
M  V30 12491 C 1208.85 1.79101 -0.94494 0
M  V30 12492 C 1209.18 1.87217 0.527251 0
M  V30 12493 O 1208.44 1.35992 1.40729 0
M  V30 12494 C 1208.74 3.23589 -1.51741 0
M  V30 12495 C 1208.4 3.35552 -3.0119 0
M  V30 12496 C 1207.06 3.38525 -3.41986 0
M  V30 12497 C 1209.42 3.37482 -3.97184 0
M  V30 12498 C 1206.74 3.41042 -4.77396 0
M  V30 12499 C 1209.1 3.41537 -5.3248 0
M  V30 12500 C 1207.76 3.42792 -5.72757 0
M  V30 12501 H 1207.03 0.655377 -0.345778 0
M  V30 12502 H 1209.68 1.25017 -1.45062 0
M  V30 12503 H 1207.98 3.80525 -0.933164 0
M  V30 12504 H 1209.68 3.78512 -1.32399 0
M  V30 12505 H 1206.27 3.33944 -2.68662 0
M  V30 12506 H 1210.45 3.34397 -3.66732 0
M  V30 12507 H 1205.71 3.40317 -5.07931 0
M  V30 12508 H 1209.88 3.41977 -6.0665 0
M  V30 12509 H 1207.51 3.44495 -6.77663 0
M  V30 12510 N 1209.09 0.96196 1.24836 0
M  V30 12511 C 1210.03 0.479282 2.27609 0
M  V30 12512 C 1211.03 -0.454224 1.63197 0
M  V30 12513 O 1212.23 -0.330146 1.76946 0
M  V30 12514 H 1208.61 0.13651 0.739506 0
M  V30 12515 H 1210.58 1.35817 2.657 0
M  V30 12516 C 1209.33 -0.220499 3.47 0
M  V30 12517 H 1208.65 0.488694 3.96802 0
M  V30 12518 H 1210.09 -0.522137 4.20773 0
M  V30 12519 C 1208.55 -1.44552 3.04313 0
M  V30 12520 O 1209.08 -2.54287 3.10967 0
M  V30 12521 N 1207.29 -1.3095 2.59423 0
M  V30 12522 H 1206.83 -0.416656 2.54208 0
M  V30 12523 H 1206.79 -2.13029 2.31227 0
M  V30 12524 N 1210.56 -1.39601 0.731392 0
M  V30 12525 C 1211.47 -2.34425 0.090527 0
M  V30 12526 C 1212.49 -1.58131 -0.725992 0
M  V30 12527 O 1213.67 -1.90441 -0.655294 0
M  V30 12528 C 1210.73 -3.37138 -0.808624 0
M  V30 12529 C 1209.79 -4.29295 0.0197365 0
M  V30 12530 C 1209.02 -5.27102 -0.836593 0
M  V30 12531 O 1209.25 -5.31302 -2.07543 0
M  V30 12532 O 1208.18 -6.01307 -0.267172 0
M  V30 12533 H 1212.01 -2.9088 0.873084 0
M  V30 12534 H 1209.59 -1.41066 0.492024 0
M  V30 12535 H 1211.47 -4.00087 -1.32319 0
M  V30 12536 H 1210.15 -2.83074 -1.57006 0
M  V30 12537 H 1209.06 -3.69581 0.579744 0
M  V30 12538 H 1210.39 -4.86555 0.743308 0
M  V30 12539 N 1212.04 -0.478751 -1.50152 0
M  V30 12540 C 1213.29 0.073585 -2.02366 0
M  V30 12541 C 1213.62 1.3903 -1.36018 0
M  V30 12542 O 1212.87 1.89787 -0.477435 0
M  V30 12543 C 1213.17 0.297535 -3.56159 0
M  V30 12544 C 1212.84 -0.938419 -4.41027 0
M  V30 12545 C 1211.5 -1.27727 -4.63939 0
M  V30 12546 C 1213.85 -1.76098 -4.9055 0
M  V30 12547 C 1211.18 -2.4386 -5.33619 0
M  V30 12548 C 1213.53 -2.91366 -5.61506 0
M  V30 12549 C 1212.2 -3.25657 -5.8267 0
M  V30 12550 H 1211.47 0.0269267 -0.740511 0
M  V30 12551 H 1214.11 -0.63439 -1.80687 0
M  V30 12552 H 1212.42 1.08783 -3.76395 0
M  V30 12553 H 1214.11 0.73899 -3.94132 0
M  V30 12554 H 1210.7 -0.664441 -4.23418 0
M  V30 12555 H 1214.89 -1.51237 -4.72696 0
M  V30 12556 H 1210.14 -2.70692 -5.48211 0
M  V30 12557 H 1214.32 -3.55445 -5.98859 0
M  V30 12558 H 1211.95 -4.15751 -6.36439 0
M  V30 12559 N 1213.52 1.56172 -0.211661 0
M  V30 12560 C 1214.43 2.23468 0.714081 0
M  V30 12561 C 1215.45 1.23908 1.22159 0
M  V30 12562 O 1216.62 1.56693 1.26528 0
M  V30 12563 C 1213.69 2.89375 1.90953 0
M  V30 12564 C 1212.75 4.04251 1.44497 0
M  V30 12565 C 1211.98 4.67006 2.58343 0
M  V30 12566 O 1212.2 4.28721 3.76237 0
M  V30 12567 O 1211.14 5.56177 2.3011 0
M  V30 12568 H 1214.96 3.03219 0.170862 0
M  V30 12569 H 1212.55 1.49389 0.0183607 0
M  V30 12570 H 1214.43 3.3101 2.60787 0
M  V30 12571 H 1213.11 2.12591 2.44104 0
M  V30 12572 H 1212.01 3.67205 0.714932 0
M  V30 12573 H 1213.35 4.82748 0.959947 0
M  V30 12574 N 1215 -0.0618163 1.57479 0
M  V30 12575 C 1216.25 -0.75794 1.86918 0
M  V30 12576 C 1216.56 -1.78234 0.80572 0
M  V30 12577 O 1217.77 -2.52874 0.98827 0
M  V30 12578 C 1216.22 -1.39898 3.31597 0
M  V30 12579 C 1215.83 -0.412621 4.46096 0
M  V30 12580 C 1217.57 -2.07688 3.70224 0
M  V30 12581 C 1215.48 -1.06014 5.8182 0
M  V30 12582 H 1214.41 -0.286825 0.697314 0
M  V30 12583 H 1217.06 -0.0114386 1.83496 0
M  V30 12584 H 1215.44 -2.19408 3.29661 0
M  V30 12585 H 1216.62 0.353392 4.59443 0
M  V30 12586 H 1214.93 0.161383 4.16087 0
M  V30 12587 H 1217.53 -2.56928 4.68927 0
M  V30 12588 H 1217.87 -2.88073 3.00532 0
M  V30 12589 H 1218.41 -1.34996 3.74194 0
M  V30 12590 H 1215.15 -0.296405 6.5483 0
M  V30 12591 H 1214.67 -1.79677 5.72255 0
M  V30 12592 H 1216.34 -1.57708 6.27485 0
M  V30 12593 N 1216.48 -1.54033 -0.333429 0
M  V30 12594 C 1217.39 -1.85737 -1.43314 0
M  V30 12595 C 1218.4 -0.748398 -1.57083 0
M  V30 12596 O 1219.58 -1.04171 -1.72367 0
M  V30 12597 C 1216.64 -2.06942 -2.78165 0
M  V30 12598 C 1215.7 -3.30774 -2.73655 0
M  V30 12599 C 1214.94 -3.50957 -4.02075 0
M  V30 12600 O 1215.16 -2.74774 -4.99855 0
M  V30 12601 O 1214.09 -4.44412 -4.05933 0
M  V30 12602 H 1217.92 -2.7923 -1.19434 0
M  V30 12603 H 1215.51 -1.39814 -0.526546 0
M  V30 12604 H 1217.39 -2.22276 -3.58011 0
M  V30 12605 H 1216.06 -1.16638 -3.01956 0
M  V30 12606 H 1214.97 -3.20835 -1.92395 0
M  V30 12607 H 1216.3 -4.21103 -2.54819 0
M  V30 12608 N 1217.95 0.594978 -1.45938 0
M  V30 12609 C 1218.89 1.71909 -1.51591 0
M  V30 12610 C 1219.9 1.57671 -0.405416 0
M  V30 12611 O 1221.09 1.65321 -0.673144 0
M  V30 12612 C 1218.19 3.10041 -1.3685 0
M  V30 12613 C 1217.36 3.50399 -2.61801 0
M  V30 12614 C 1216.42 4.67542 -2.41435 0
M  V30 12615 O 1215.45 4.74022 -3.15106 0
M  V30 12616 N 1216.65 5.6163 -1.46808 0
M  V30 12617 H 1219.41 1.67518 -2.48511 0
M  V30 12618 H 1216.97 0.78062 -1.41838 0
M  V30 12619 H 1218.97 3.86183 -1.21017 0
M  V30 12620 H 1217.54 3.08868 -0.481589 0
M  V30 12621 H 1216.76 2.64088 -2.92662 0
M  V30 12622 H 1218.04 3.74125 -3.44831 0
M  V30 12623 H 1217.44 5.5912 -0.860333 0
M  V30 12624 H 1216 6.37252 -1.36942 0
M  V30 12625 N 1219.43 1.33438 0.838571 0
M  V30 12626 C 1220.38 1.20285 1.93689 0
M  V30 12627 C 1221.37 0.105686 1.60553 0
M  V30 12628 O 1222.56 0.333814 1.73824 0
M  V30 12629 C 1219.69 0.944544 3.3005 0
M  V30 12630 C 1218.77 2.08416 3.69356 0
M  V30 12631 N 1219.16 3.33415 3.80353 0
M  V30 12632 C 1217.46 1.99092 3.99097 0
M  V30 12633 C 1218.16 4.08159 4.14465 0
M  V30 12634 N 1217.14 3.36601 4.2685 0
M  V30 12635 H 1220.94 2.1503 2.00348 0
M  V30 12636 H 1218.46 1.2545 1.03131 0
M  V30 12637 H 1220.45 0.831242 4.08529 0
M  V30 12638 H 1219.11 0.00562273 3.247 0
M  V30 12639 H 1220.12 3.68159 3.64252 0
M  V30 12640 H 1216.8 1.12861 4.01956 0
M  V30 12641 H 1218.19 5.16027 4.30308 0
M  V30 12642 N 1220.91 -1.05686 1.16912 0
M  V30 12643 C 1221.84 -2.1329 0.839044 0
M  V30 12644 C 1222.86 -1.62047 -0.156392 0
M  V30 12645 O 1224.04 -1.78366 0.0692192 0
M  V30 12646 C 1221.14 -3.38122 0.229558 0
M  V30 12647 C 1220.32 -4.18659 1.26662 0
M  V30 12648 C 1219.38 -5.21842 0.675811 0
M  V30 12649 O 1218.4 -5.53049 1.3463 0
M  V30 12650 N 1219.6 -5.78034 -0.534532 0
M  V30 12651 H 1222.37 -2.42203 1.76515 0
M  V30 12652 H 1219.93 -1.2174 1.06729 0
M  V30 12653 H 1221.92 -4.04305 -0.178868 0
M  V30 12654 H 1220.49 -3.06783 -0.60023 0
M  V30 12655 H 1219.71 -3.4804 1.85099 0
M  V30 12656 H 1221 -4.6927 1.9663 0
M  V30 12657 H 1220.4 -5.54955 -1.09731 0
M  V30 12658 H 1218.96 -6.45763 -0.885087 0
M  V30 12659 N 1222.39 -0.968567 -1.24324 0
M  V30 12660 C 1223.3 -0.50703 -2.29055 0
M  V30 12661 C 1224.31 0.432431 -1.68541 0
M  V30 12662 O 1225.49 0.30526 -1.99073 0
M  V30 12663 C 1222.56 0.194589 -3.46153 0
M  V30 12664 C 1221.62 -0.784805 -4.22066 0
M  V30 12665 C 1220.85 -0.116574 -5.33573 0
M  V30 12666 O 1221.07 1.09492 -5.59792 0
M  V30 12667 O 1220.01 -0.809171 -5.96436 0
M  V30 12668 H 1223.83 -1.3777 -2.70653 0
M  V30 12669 H 1221.42 -0.735645 -1.30033 0
M  V30 12670 H 1223.3 0.588684 -4.17268 0
M  V30 12671 H 1221.97 1.04021 -3.06531 0
M  V30 12672 H 1220.88 -1.22938 -3.53323 0
M  V30 12673 H 1222.21 -1.59887 -4.65507 0
M  V30 12674 N 1223.87 1.39211 -0.738786 0
M  V30 12675 C 1225.11 2.02287 -0.293119 0
M  V30 12676 C 1225.47 1.57361 1.10006 0
M  V30 12677 O 1226.67 2.12663 1.64402 0
M  V30 12678 C 1224.94 3.55204 -0.395547 0
M  V30 12679 S 1226.5 4.3879 -0.0302798 0
M  V30 12680 H 1223.32 0.701702 -0.114609 0
M  V30 12681 H 1225.92 1.69959 -0.966138 0
M  V30 12682 H 1224.63 3.85392 -1.41072 0
M  V30 12683 H 1224.16 3.92291 0.295163 0
M  V30 12684 H 1226.17 4.81848 1.18478 0
M  V30 12685 N 1225.34 0.486708 1.49896 0
M  V30 12686 C 1226.31 -0.288126 2.27382 0
M  V30 12687 C 1227.31 -0.906675 1.32801 0
M  V30 12688 O 1228.5 -0.773425 1.56089 0
M  V30 12689 C 1225.63 -1.41194 3.10285 0
M  V30 12690 H 1226.82 0.391618 2.97332 0
M  V30 12691 H 1224.38 0.24123 1.54427 0
M  V30 12692 H 1225.11 -2.12627 2.44868 0
M  V30 12693 H 1224.9 -0.974033 3.79809 0
M  V30 12694 H 1226.39 -1.95812 3.68846 0
M  V30 12695 N 1226.82 -1.56058 0.219941 0
M  V30 12696 C 1228.05 -2.02358 -0.416497 0
M  V30 12697 C 1228.46 -1.09903 -1.54007 0
M  V30 12698 O 1227.8 -0.100635 -1.83424 0
M  V30 12699 C 1227.87 -3.45 -1.01072 0
M  V30 12700 C 1227.53 -4.56994 -0.0227891 0
M  V30 12701 C 1228.53 -5.14061 0.776997 0
M  V30 12702 C 1226.21 -5.02209 0.0954981 0
M  V30 12703 C 1228.21 -6.14813 1.68179 0
M  V30 12704 C 1225.89 -6.02799 1.00383 0
M  V30 12705 C 1226.89 -6.58977 1.79552 0
M  V30 12706 O 1226.58 -7.57608 2.68858 0
M  V30 12707 H 1226.31 -0.667581 -0.106355 0
M  V30 12708 H 1228.87 -2.02677 0.333348 0
M  V30 12709 H 1227.1 -3.41745 -1.80962 0
M  V30 12710 H 1228.78 -3.74958 -1.55439 0
M  V30 12711 H 1229.55 -4.79979 0.696053 0
M  V30 12712 H 1225.43 -4.58164 -0.510599 0
M  V30 12713 H 1228.97 -6.58588 2.30017 0
M  V30 12714 H 1224.87 -6.36302 1.08579 0
M  V30 12715 H 1225.64 -7.75124 2.62915 0
M  V30 12716 N 1228.3 0.053464 -1.57509 0
M  V30 12717 C 1229.58 0.783141 -1.79238 0
M  V30 12718 C 1229.96 1.94855 -0.812069 0
M  V30 12719 O 1229.31 2.28 0.151006 0
M  V30 12720 C 1229.52 1.239 -3.26266 0
M  V30 12721 C 1230.86 1.66492 -3.90596 0
M  V30 12722 O 1231.89 1.33421 -3.30269 0
M  V30 12723 O 1230.75 2.27785 -4.96766 0
M  V30 12724 H 1227.84 0.376696 -0.736226 0
M  V30 12725 H 1230.39 0.0321229 -1.6967 0
M  V30 12726 H 1229.16 0.405948 -3.89189 0
M  V30 12727 H 1228.78 2.05078 -3.4063 0
M  V30 12728 N 1229.78 1.54207 0.325255 0
M  V30 12729 C 1230.73 1.79856 1.40128 0
M  V30 12730 C 1231.71 0.654503 1.46987 0
M  V30 12731 O 1232.91 0.914453 1.51548 0
M  V30 12732 C 1230.03 2.02786 2.77007 0
M  V30 12733 C 1229.12 3.23309 2.74467 0
M  V30 12734 N 1229.51 4.44396 2.41549 0
M  V30 12735 C 1227.81 3.24848 3.05598 0
M  V30 12736 C 1228.51 5.26325 2.47703 0
M  V30 12737 N 1227.49 4.63468 2.84074 0
M  V30 12738 H 1231.29 2.71056 1.13603 0
M  V30 12739 H 1228.8 1.53379 0.533728 0
M  V30 12740 H 1230.8 2.19301 3.5456 0
M  V30 12741 H 1229.46 1.12839 3.04463 0
M  V30 12742 H 1230.47 4.71426 2.14425 0
M  V30 12743 H 1227.15 2.44929 3.38107 0
M  V30 12744 H 1228.54 6.33016 2.25257 0
M  V30 12745 N 1231.26 -0.58723 1.46251 0
M  V30 12746 C 1232.19 -1.70694 1.5933 0
M  V30 12747 C 1233.17 -1.64208 0.443831 0
M  V30 12748 O 1234.35 -1.82294 0.669516 0
M  V30 12749 C 1231.48 -3.0933 1.579 0
M  V30 12750 C 1230.44 -3.30643 2.7177 0
M  V30 12751 C 1229.76 -4.69761 2.554 0
M  V30 12752 C 1231.06 -3.18916 4.1363 0
M  V30 12753 H 1232.76 -1.60004 2.53059 0
M  V30 12754 H 1230.3 -0.768343 1.21789 0
M  V30 12755 H 1232.26 -3.87479 1.65644 0
M  V30 12756 H 1230.98 -3.20907 0.60712 0
M  V30 12757 H 1229.64 -2.54892 2.63488 0
M  V30 12758 H 1229.29 -4.78098 1.56306 0
M  V30 12759 H 1228.99 -4.84974 3.31774 0
M  V30 12760 H 1230.51 -5.50084 2.65028 0
M  V30 12761 H 1231.93 -3.86915 4.23048 0
M  V30 12762 H 1230.32 -3.45653 4.90555 0
M  V30 12763 H 1231.39 -2.1606 4.34104 0
M  V30 12764 N 1232.74 -1.33881 -0.831482 0
M  V30 12765 C 1233.65 -1.26802 -1.97379 0
M  V30 12766 C 1234.66 -0.177233 -1.73095 0
M  V30 12767 O 1235.84 -0.402163 -1.97344 0
M  V30 12768 C 1232.9 -1.01474 -3.31517 0
M  V30 12769 C 1231.96 -2.19626 -3.68867 0
M  V30 12770 C 1231.2 -1.95497 -4.96605 0
M  V30 12771 O 1231.42 -0.908948 -5.63111 0
M  V30 12772 O 1230.35 -2.82226 -5.31632 0
M  V30 12773 H 1234.18 -2.22883 -2.06293 0
M  V30 12774 H 1231.76 -1.14001 -0.965613 0
M  V30 12775 H 1233.65 -0.890954 -4.11874 0
M  V30 12776 H 1232.32 -0.0842656 -3.2359 0
M  V30 12777 H 1231.23 -2.37561 -2.88991 0
M  V30 12778 H 1232.56 -3.11034 -3.81469 0
M  V30 12779 N 1234.21 1.05064 -1.1747 0
M  V30 12780 C 1235.15 2.12334 -0.836028 0
M  V30 12781 C 1236.12 1.61393 0.197733 0
M  V30 12782 O 1237.31 1.88334 0.0789748 0
M  V30 12783 C 1234.44 3.37796 -0.24734 0
M  V30 12784 C 1233.48 4.07565 -1.25669 0
M  V30 12785 S 1234.31 4.55941 -2.80853 0
M  V30 12786 C 1235.47 5.84648 -2.23468 0
M  V30 12787 H 1235.7 2.40735 -1.74453 0
M  V30 12788 H 1233.24 1.17684 -0.999495 0
M  V30 12789 H 1235.19 4.1041 0.0858241 0
M  V30 12790 H 1233.86 3.07529 0.639124 0
M  V30 12791 H 1233.05 4.97715 -0.793465 0
M  V30 12792 H 1232.65 3.41022 -1.53557 0
M  V30 12793 H 1234.94 6.58067 -1.61104 0
M  V30 12794 H 1235.89 6.35719 -3.11877 0
M  V30 12795 H 1236.29 5.39272 -1.6687 0
M  V30 12796 N 1235.69 0.975146 1.23809 0
M  V30 12797 C 1236.92 0.658023 1.95841 0
M  V30 12798 C 1237.33 -0.778132 1.72458 0
M  V30 12799 O 1236.67 -1.53462 1.00971 0
M  V30 12800 C 1236.73 0.862038 3.49012 0
M  V30 12801 C 1236.4 2.27925 3.96105 0
M  V30 12802 C 1237.4 3.25755 4.05191 0
M  V30 12803 C 1235.08 2.60894 4.29231 0
M  V30 12804 C 1237.07 4.54636 4.46749 0
M  V30 12805 C 1234.76 3.89999 4.70472 0
M  V30 12806 C 1235.76 4.86682 4.79197 0
M  V30 12807 O 1235.45 6.13483 5.19513 0
M  V30 12808 H 1235.18 0.243915 0.630461 0
M  V30 12809 H 1237.73 1.30768 1.58395 0
M  V30 12810 H 1235.96 0.155209 3.86388 0
M  V30 12811 H 1237.65 0.542873 4.02253 0
M  V30 12812 H 1238.42 3.01614 3.79808 0
M  V30 12813 H 1234.3 1.86355 4.21655 0
M  V30 12814 H 1237.84 5.30101 4.53474 0
M  V30 12815 H 1233.74 4.13937 4.95304 0
M  V30 12816 H 1234.51 6.17158 5.37641 0
M  V30 12817 N 1237.17 -1.38817 0.746158 0
M  V30 12818 C 1238.45 -1.94303 0.224841 0
M  V30 12819 C 1238.83 -1.68207 -1.27552 0
M  V30 12820 O 1238.17 -1.01647 -2.04646 0
M  V30 12821 C 1238.38 -3.44306 0.5705 0
M  V30 12822 C 1239.73 -4.21329 0.526015 0
M  V30 12823 O 1240.76 -3.52554 0.508351 0
M  V30 12824 O 1239.62 -5.4392 0.530383 0
M  V30 12825 H 1236.71 -0.825785 0.0448047 0
M  V30 12826 H 1239.26 -1.48253 0.825775 0
M  V30 12827 H 1238.03 -3.56779 1.60701 0
M  V30 12828 H 1237.65 -3.97556 -0.0588271 0
M  V30 12829 N 1238.65 -0.49465 -1.49636 0
M  V30 12830 C 1239.9 0.0520143 -2.02033 0
M  V30 12831 C 1240.22 1.38071 -1.37701 0
M  V30 12832 O 1239.49 1.88589 -0.530181 0
M  V30 12833 H 1238.07 0.0222123 -0.74667 0
M  V30 12834 H 1240.73 -0.650445 -1.83726 0
M  V30 12835 H 1239.82 0.186337 -3.11543 0
M  V30 12836 N 1240.13 1.55939 -0.228214 0
M  V30 12837 C 1241.54 1.84612 0.278417 0
M  V30 12838 C 1241.89 1.14973 1.58983 0
M  V30 12839 O 1241.01 0.421673 2.12252 0
M  V30 12840 C 1241.61 3.3491 0.511935 0
M  V30 12841 C 1240.17 3.63876 0.962861 0
M  V30 12842 C 1239.31 2.77284 0.0296246 0
M  V30 12843 H 1242.26 1.52149 -0.451245 0
M  V30 12844 H 1242.29 3.55477 1.35707 0
M  V30 12845 H 1241.8 3.85567 -0.442697 0
M  V30 12846 H 1239.9 3.18682 1.93062 0
M  V30 12847 H 1240.01 4.71809 0.832659 0
M  V30 12848 H 1238.38 2.48961 0.53763 0
M  V30 12849 H 1239.16 3.30742 -0.920044 0
M  V30 12850 N 1241.6 -0.0451101 1.57535 0
M  V30 12851 C 1242.88 -0.773625 1.79651 0
M  V30 12852 C 1243.26 -1.94422 0.822391 0
M  V30 12853 O 1242.61 -2.28077 -0.138913 0
M  V30 12854 C 1242.82 -1.22168 3.26919 0
M  V30 12855 C 1244.17 -1.64419 3.91474 0
M  V30 12856 O 1245.19 -1.31668 3.30971 0
M  V30 12857 O 1244.05 -2.25148 4.97967 0
M  V30 12858 H 1241.14 -0.372786 0.738214 0
M  V30 12859 H 1243.69 -0.0231245 1.69684 0
M  V30 12860 H 1242.46 -0.385302 3.89398 0
M  V30 12861 H 1242.09 -2.03269 3.41713 0
M  V30 12862 N 1243.08 -1.54377 -0.317073 0
M  V30 12863 C 1244.31 -1.77184 -1.07798 0
M  V30 12864 C 1244.73 -0.52204 -1.80711 0
M  V30 12865 O 1244.09 0.52672 -1.7348 0
M  V30 12866 C 1244.14 -2.96887 -2.04671 0
M  V30 12867 O 1243.24 -2.68887 -3.12688 0
M  V30 12868 H 1242.58 -0.586937 -0.310485 0
M  V30 12869 H 1245.11 -2.01419 -0.35939 0
M  V30 12870 H 1245.12 -3.24414 -2.47426 0
M  V30 12871 H 1243.8 -3.87518 -1.51005 0
M  V30 12872 H 1242.38 -2.52329 -2.74562 0
M  V30 12873 N 1244.56 0.579466 -1.4656 0
M  V30 12874 C 1245.49 1.69846 -1.60233 0
M  V30 12875 C 1246.47 1.6397 -0.452533 0
M  V30 12876 O 1247.66 1.81936 -0.679174 0
M  V30 12877 C 1244.79 3.08488 -1.59538 0
M  V30 12878 C 1243.74 3.29197 -2.7352 0
M  V30 12879 C 1243.07 4.684 -2.57887 0
M  V30 12880 C 1244.37 3.16718 -4.15315 0
M  V30 12881 H 1246.06 1.5866 -2.53904 0
M  V30 12882 H 1243.61 0.761873 -1.22194 0
M  V30 12883 H 1245.56 3.86595 -1.67696 0
M  V30 12884 H 1244.28 3.20581 -0.62413 0
M  V30 12885 H 1242.94 2.53491 -2.64836 0
M  V30 12886 H 1242.59 4.77262 -1.58839 0
M  V30 12887 H 1242.29 4.83208 -3.34341 0
M  V30 12888 H 1243.81 5.48671 -2.67942 0
M  V30 12889 H 1245.23 3.84666 -4.25094 0
M  V30 12890 H 1243.63 3.43047 -4.92381 0
M  V30 12891 H 1244.7 2.13755 -4.35244 0
M  V30 12892 N 1246.04 1.3432 0.824371 0
M  V30 12893 C 1247 1.25672 1.91675 0
M  V30 12894 C 1248 0.172269 1.59875 0
M  V30 12895 O 1249.19 0.424794 1.68941 0
M  V30 12896 C 1246.32 0.939928 3.27686 0
M  V30 12897 H 1247.52 2.22785 2.00766 0
M  V30 12898 H 1245.07 1.18587 1.01817 0
M  V30 12899 H 1245.8 -0.0280898 3.24288 0
M  V30 12900 H 1245.59 1.72432 3.5215 0
M  V30 12901 H 1247.08 0.904553 4.07686 0
M  V30 12902 N 1247.52 -1.0444 1.18026 0
M  V30 12903 C 1248.93 -1.5903 0.978076 0
M  V30 12904 C 1249.28 -1.90407 -0.473241 0
M  V30 12905 O 1248.4 -1.69133 -1.34992 0
M  V30 12906 C 1249 -2.88942 1.76912 0
M  V30 12907 C 1247.56 -3.40164 1.61139 0
M  V30 12908 C 1246.7 -2.13797 1.76596 0
M  V30 12909 H 1249.66 -0.871574 1.32625 0
M  V30 12910 H 1249.68 -3.59173 1.25598 0
M  V30 12911 H 1249.19 -2.66074 2.82535 0
M  V30 12912 H 1247.29 -3.68053 0.580353 0
M  V30 12913 H 1247.4 -4.14241 2.40709 0
M  V30 12914 H 1245.77 -2.24922 1.19507 0
M  V30 12915 H 1246.55 -1.93389 2.83647 0
M  V30 12916 N 1248.99 -0.981699 -1.2329 0
M  V30 12917 C 1250.24 -0.646818 -1.91048 0
M  V30 12918 C 1250.56 0.823479 -1.77421 0
M  V30 12919 O 1251.76 1.26948 -2.39993 0
M  V30 12920 C 1250.22 -1.1063 -3.42475 0
M  V30 12921 C 1249.83 -2.60103 -3.6476 0
M  V30 12922 C 1251.57 -0.845227 -4.16 0
M  V30 12923 C 1249.48 -2.99712 -5.0983 0
M  V30 12924 H 1248.41 -0.238221 -0.715379 0
M  V30 12925 H 1251.06 -1.18977 -1.39702 0
M  V30 12926 H 1249.44 -0.491554 -3.92937 0
M  V30 12927 H 1250.61 -3.26828 -3.24839 0
M  V30 12928 H 1248.93 -2.83972 -3.04547 0
M  V30 12929 H 1251.53 -1.11699 -5.22903 0
M  V30 12930 H 1251.87 0.218661 -4.15725 0
M  V30 12931 H 1252.4 -1.42162 -3.7153 0
M  V30 12932 H 1249.14 -4.0523 -5.15237 0
M  V30 12933 H 1248.66 -2.37683 -5.50697 0
M  V30 12934 H 1250.34 -2.9039 -5.78172 0
M  V30 12935 N 1250.47 1.3842 -0.753509 0
M  V30 12936 C 1251.4 2.33073 -0.141198 0
M  V30 12937 C 1252.38 1.54863 0.70367 0
M  V30 12938 O 1253.57 1.8318 0.644872 0
M  V30 12939 C 1250.7 3.39043 0.752802 0
M  V30 12940 C 1249.65 4.27999 0.0106692 0
M  V30 12941 C 1248.98 5.24824 1.02291 0
M  V30 12942 C 1250.28 5.09308 -1.15768 0
M  V30 12943 H 1251.97 2.84528 -0.93188 0
M  V30 12944 H 1249.52 1.36802 -0.449567 0
M  V30 12945 H 1251.47 4.04224 1.19083 0
M  V30 12946 H 1250.2 2.8607 1.57581 0
M  V30 12947 H 1248.85 3.64323 -0.407939 0
M  V30 12948 H 1248.5 4.68139 1.83998 0
M  V30 12949 H 1248.2 5.85196 0.53101 0
M  V30 12950 H 1249.73 5.92882 1.46026 0
M  V30 12951 H 1251.14 5.6773 -0.797203 0
M  V30 12952 H 1249.54 5.78914 -1.58044 0
M  V30 12953 H 1250.61 4.43051 -1.97062 0
M  V30 12954 N 1251.95 0.502579 1.49372 0
M  V30 12955 C 1253.2 -0.0412993 2.02058 0
M  V30 12956 C 1253.52 -1.37338 1.38431 0
M  V30 12957 O 1252.79 -1.88305 0.540175 0
M  V30 12958 H 1251.37 -0.0182522 0.746777 0
M  V30 12959 H 1254.03 0.660179 1.83378 0
M  V30 12960 H 1253.13 -0.169812 3.11638 0
M  V30 12961 N 1253.43 -1.55816 0.23648 0
M  V30 12962 C 1254.84 -1.59159 -0.118601 0
M  V30 12963 C 1255.04 -1.25352 -1.57763 0
M  V30 12964 O 1254.1 -0.995863 -2.32032 0
M  V30 12965 C 1255.41 -2.99885 0.221175 0
M  V30 12966 C 1256.96 -3.12567 0.164624 0
M  V30 12967 C 1257.44 -4.55496 0.478285 0
M  V30 12968 N 1258.93 -4.61215 0.428402 0
M  V30 12969 C 1259.66 -5.69768 0.644398 0
M  V30 12970 N 1259.16 -6.86624 0.922966 0
M  V30 12971 N 1260.95 -5.59143 0.575814 0
M  V30 12972 H 1253.1 -1.76063 1.18809 0
M  V30 12973 H 1255.37 -0.819079 0.477297 0
M  V30 12974 H 1255.07 -3.29326 1.2344 0
M  V30 12975 H 1254.95 -3.74425 -0.456723 0
M  V30 12976 H 1257.33 -2.82914 -0.839263 0
M  V30 12977 H 1257.41 -2.40325 0.876219 0
M  V30 12978 H 1257.06 -4.85868 1.47968 0
M  V30 12979 H 1256.99 -5.25984 -0.254671 0
M  V30 12980 H 1259.48 -3.77251 0.221398 0
M  V30 12981 H 1259.79 -7.6528 1.07548 0
M  V30 12982 H 1258.14 -6.88333 0.960325 0
M  V30 12983 H 1261.33 -4.66727 0.358307 0
M  V30 12984 H 1261.5 -6.43674 0.747548 0
M  V30 12985 N 1254.91 0.036755 -1.57557 0
M  V30 12986 C 1256.15 0.729106 -1.88919 0
M  V30 12987 C 1256.48 1.75769 -0.832801 0
M  V30 12988 O 1255.74 1.94985 0.167173 0
M  V30 12989 C 1256.04 1.44206 -3.27016 0
M  V30 12990 C 1255.7 0.550184 -4.47531 0
M  V30 12991 C 1254.36 0.304511 -4.80236 0
M  V30 12992 C 1256.72 -0.0660664 -5.21158 0
M  V30 12993 C 1254.04 -0.566316 -5.8396 0
M  V30 12994 C 1256.4 -0.92455 -6.25807 0
M  V30 12995 C 1255.06 -1.17976 -6.56992 0
M  V30 12996 H 1254.33 0.266799 -0.691303 0
M  V30 12997 H 1256.98 -0.0108698 -1.91497 0
M  V30 12998 H 1255.28 2.25516 -3.2039 0
M  V30 12999 H 1256.98 1.98317 -3.48527 0
M  V30 13000 H 1253.57 0.751814 -4.21955 0
M  V30 13001 H 1257.75 0.110784 -4.96176 0
M  V30 13002 H 1253.01 -0.772428 -6.06501 0
M  V30 13003 H 1257.18 -1.40861 -6.82005 0
M  V30 13004 H 1254.81 -1.85627 -7.37188 0
M  V30 13005 N 1256.39 1.54543 0.308881 0
M  V30 13006 C 1257.63 1.75182 1.05312 0
M  V30 13007 C 1257.99 0.522347 1.84758 0
M  V30 13008 O 1259.19 0.606334 2.61872 0
M  V30 13009 C 1257.46 3.0007 1.94147 0
M  V30 13010 S 1259.02 3.41676 2.75323 0
M  V30 13011 H 1255.84 0.615862 0.355296 0
M  V30 13012 H 1258.44 1.92739 0.327413 0
M  V30 13013 H 1257.14 3.87685 1.34643 0
M  V30 13014 H 1256.68 2.85078 2.71098 0
M  V30 13015 H 1258.69 2.98128 3.96654 0
M  V30 13016 N 1257.86 -0.571685 1.46866 0
M  V30 13017 C 1259.11 -1.32685 1.52444 0
M  V30 13018 C 1259.43 -1.94147 0.182225 0
M  V30 13019 O 1258.7 -1.79159 -0.792385 0
M  V30 13020 H 1257.28 -0.492679 0.561495 0
M  V30 13021 H 1259.94 -0.668694 1.8307 0
M  V30 13022 H 1259.04 -2.12788 2.28315 0
M  V30 13023 N 1259.34 -1.34755 -0.817236 0
M  V30 13024 C 1260.57 -1.30676 -1.61054 0
M  V30 13025 C 1260.99 0.115343 -1.87746 0
M  V30 13026 O 1260.35 1.07887 -1.45705 0
M  V30 13027 C 1260.4 -2.10881 -2.92509 0
M  V30 13028 O 1259.5 -1.48223 -3.84842 0
M  V30 13029 H 1258.84 -0.448531 -0.489608 0
M  V30 13030 H 1261.37 -1.77642 -1.01512 0
M  V30 13031 H 1261.38 -2.22446 -3.42026 0
M  V30 13032 H 1260.06 -3.14274 -2.72406 0
M  V30 13033 H 1258.63 -1.45434 -3.4337 0
M  V30 13034 N 1260.82 1.03812 -1.18578 0
M  V30 13035 C 1261.77 2.11883 -0.915115 0
M  V30 13036 C 1262.74 1.65453 0.146479 0
M  V30 13037 O 1263.92 1.90799 0.00630058 0
M  V30 13038 C 1261.06 3.42157 -0.449755 0
M  V30 13039 C 1260.17 4.02185 -1.57706 0
M  V30 13040 C 1259.31 5.20431 -1.06417 0
M  V30 13041 C 1258.35 5.72496 -2.16599 0
M  V30 13042 N 1257.49 6.82027 -1.66685 0
M  V30 13043 H 1262.33 2.34373 -1.84047 0
M  V30 13044 H 1259.86 1.14962 -0.917728 0
M  V30 13045 H 1261.82 4.16888 -0.161407 0
M  V30 13046 H 1260.45 3.19806 0.438622 0
M  V30 13047 H 1259.5 3.24757 -1.98083 0
M  V30 13048 H 1260.81 4.36851 -2.40754 0
M  V30 13049 H 1259.97 6.02286 -0.730497 0
M  V30 13050 H 1258.71 4.87276 -0.203301 0
M  V30 13051 H 1257.71 4.8926 -2.50808 0
M  V30 13052 H 1258.94 6.07694 -3.03126 0
M  V30 13053 H 1256.88 6.50742 -0.828916 0
M  V30 13054 H 1256.8 7.1577 -2.43329 0
M  V30 13055 H 1258.07 7.67499 -1.36253 0
M  V30 13056 N 1262.3 0.988223 1.22768 0
M  V30 13057 C 1263.24 0.534605 2.24523 0
M  V30 13058 C 1264.21 -0.430615 1.60421 0
M  V30 13059 O 1265.4 -0.336417 1.87811 0
M  V30 13060 C 1262.54 -0.149195 3.44777 0
M  V30 13061 C 1261.65 0.85721 4.2341 0
M  V30 13062 C 1260.79 0.147411 5.30995 0
M  V30 13063 C 1259.83 1.1425 6.01343 0
M  V30 13064 N 1258.96 0.461327 7.00583 0
M  V30 13065 H 1263.8 1.40708 2.62689 0
M  V30 13066 H 1261.34 0.704918 1.2911 0
M  V30 13067 H 1263.3 -0.562527 4.1339 0
M  V30 13068 H 1261.93 -0.985485 3.07389 0
M  V30 13069 H 1260.98 1.38889 3.54138 0
M  V30 13070 H 1262.29 1.61517 4.71926 0
M  V30 13071 H 1261.45 -0.32289 6.0584 0
M  V30 13072 H 1260.19 -0.643085 4.83442 0
M  V30 13073 H 1259.19 1.62348 5.25284 0
M  V30 13074 H 1260.42 1.93379 6.50985 0
M  V30 13075 H 1258.36 -0.309818 6.55268 0
M  V30 13076 H 1258.28 1.15781 7.47082 0
M  V30 13077 H 1259.55 0.0136734 7.79499 0
M  V30 13078 N 1263.78 -1.38018 0.760839 0
M  V30 13079 C 1265.19 -1.82645 0.387022 0
M  V30 13080 C 1265.54 -1.63445 -1.08536 0
M  V30 13081 O 1264.66 -1.13958 -1.83963 0
M  V30 13082 C 1265.26 -3.3158 0.69569 0
M  V30 13083 C 1263.82 -3.74527 0.375063 0
M  V30 13084 C 1262.96 -2.60696 0.94515 0
M  V30 13085 H 1265.91 -1.26644 0.956396 0
M  V30 13086 H 1265.94 -3.80493 -0.0235511 0
M  V30 13087 H 1265.45 -3.45522 1.76737 0
M  V30 13088 H 1263.55 -3.6616 -0.689741 0
M  V30 13089 H 1263.66 -4.71029 0.875685 0
M  V30 13090 H 1262.03 -2.51997 0.370065 0
M  V30 13091 H 1262.81 -2.77434 2.02201 0
M  V30 13092 N 1265.25 -0.510493 -1.49103 0
M  V30 13093 C 1266.53 0.0941122 -1.95373 0
M  V30 13094 C 1266.91 1.53207 -1.45227 0
M  V30 13095 O 1266.26 2.18452 -0.670161 0
M  V30 13096 C 1266.47 -0.00302507 -3.49 0
M  V30 13097 C 1267.82 0.166117 -4.24275 0
M  V30 13098 O 1268.84 0.0717097 -3.56128 0
M  V30 13099 O 1267.7 0.361155 -5.45305 0
M  V30 13100 H 1264.79 0.0900741 -0.82208 0
M  V30 13101 H 1267.34 -0.573707 -1.59708 0
M  V30 13102 H 1266.11 -1.00545 -3.78162 0
M  V30 13103 H 1265.73 0.704518 -3.91308 0
M  V30 13104 N 1266.73 1.55688 -0.24474 0
M  V30 13105 C 1268.14 1.84897 0.25882 0
M  V30 13106 C 1268.49 1.16653 1.57755 0
M  V30 13107 O 1267.62 0.444162 2.11793 0
M  V30 13108 C 1268.21 3.35434 0.476385 0
M  V30 13109 C 1266.77 3.64877 0.924213 0
M  V30 13110 C 1265.92 2.773 0.00021322 0
M  V30 13111 H 1268.87 1.51662 -0.467358 0
M  V30 13112 H 1268.89 3.56896 1.31929 0
M  V30 13113 H 1268.4 3.85076 -0.483567 0
M  V30 13114 H 1266.5 3.20711 1.89671 0
M  V30 13115 H 1266.62 4.72665 0.78257 0
M  V30 13116 H 1264.98 2.49517 0.511194 0
M  V30 13117 H 1265.76 3.29747 -0.955072 0
M  V30 13118 N 1268.21 -0.0283989 1.57574 0
M  V30 13119 C 1269.44 -0.730831 1.93563 0
M  V30 13120 C 1269.85 -1.68857 0.844556 0
M  V30 13121 O 1269.21 -1.8162 -0.178971 0
M  V30 13122 C 1269.26 -1.48731 3.29486 0
M  V30 13123 O 1268.98 -0.568017 4.34402 0
M  V30 13124 C 1270.48 -2.28684 3.79761 0
M  V30 13125 H 1267.7 -0.205346 0.638807 0
M  V30 13126 H 1270.25 0.0142728 2.04495 0
M  V30 13127 H 1268.4 -2.18429 3.19949 0
M  V30 13128 H 1268.82 -1.09861 5.12865 0
M  V30 13129 H 1270.29 -2.77157 4.77376 0
M  V30 13130 H 1270.77 -3.10133 3.10989 0
M  V30 13131 H 1271.37 -1.64059 3.92383 0
M  V30 13132 N 1269.69 -1.54705 -0.300681 0
M  V30 13133 C 1270.93 -1.74259 -1.03738 0
M  V30 13134 C 1271.27 -0.52703 -1.86912 0
M  V30 13135 O 1270.54 0.475862 -1.88589 0
M  V30 13136 C 1270.82 -3.03175 -1.94311 0
M  V30 13137 C 1270.68 -4.35031 -1.14315 0
M  V30 13138 C 1272 -3.27962 -2.93478 0
M  V30 13139 H 1269.12 -0.634031 -0.37573 0
M  V30 13140 H 1271.76 -1.87421 -0.312012 0
M  V30 13141 H 1269.91 -2.92086 -2.5616 0
M  V30 13142 H 1271.58 -4.5804 -0.547489 0
M  V30 13143 H 1269.82 -4.31503 -0.44587 0
M  V30 13144 H 1270.49 -5.21502 -1.80941 0
M  V30 13145 H 1272.97 -3.38663 -2.41757 0
M  V30 13146 H 1271.85 -4.19481 -3.54016 0
M  V30 13147 H 1272.11 -2.46273 -3.67154 0
M  V30 13148 N 1271.17 0.563888 -1.47167 0
M  V30 13149 C 1272.13 1.65359 -1.58711 0
M  V30 13150 C 1273.13 1.53999 -0.46272 0
M  V30 13151 O 1274.32 1.58277 -0.727595 0
M  V30 13152 C 1271.45 3.04874 -1.52529 0
M  V30 13153 H 1272.64 1.56475 -2.55843 0
M  V30 13154 H 1270.2 0.783271 -1.35257 0
M  V30 13155 H 1270.93 3.19297 -0.56747 0
M  V30 13156 H 1270.72 3.14528 -2.34125 0
M  V30 13157 H 1272.21 3.84164 -1.63731 0
M  V30 13158 N 1272.64 1.35187 0.810078 0
M  V30 13159 C 1273.87 1.31528 1.60359 0
M  V30 13160 C 1274.29 -0.105385 1.87805 0
M  V30 13161 O 1273.65 -1.07113 1.46276 0
M  V30 13162 C 1273.7 2.12429 2.91386 0
M  V30 13163 O 1272.8 1.50262 3.84051 0
M  V30 13164 H 1272.15 0.451122 0.487222 0
M  V30 13165 H 1274.68 1.78178 1.00568 0
M  V30 13166 H 1274.69 2.24257 3.40841 0
M  V30 13167 H 1273.36 3.15714 2.70735 0
M  V30 13168 H 1271.94 1.47253 3.42594 0
M  V30 13169 N 1274.12 -1.03182 1.19127 0
M  V30 13170 C 1275.37 -1.76184 0.990134 0
M  V30 13171 C 1275.69 -1.88986 -0.480546 0
M  V30 13172 O 1274.96 -1.4213 -1.34817 0
M  V30 13173 H 1273.54 -0.652668 0.363364 0
M  V30 13174 H 1276.2 -1.24481 1.49968 0
M  V30 13175 H 1275.3 -2.77119 1.43568 0
M  V30 13176 N 1275.6 -0.99472 -1.22242 0
M  V30 13177 C 1276.83 -0.689809 -1.95592 0
M  V30 13178 C 1277.25 0.739321 -1.72961 0
M  V30 13179 O 1276.61 1.50563 -1.00997 0
M  V30 13180 C 1276.66 -1.00367 -3.46351 0
M  V30 13181 O 1275.76 -0.103326 -4.12271 0
M  V30 13182 H 1275.1 -0.257997 -0.611828 0
M  V30 13183 H 1277.63 -1.33219 -1.55286 0
M  V30 13184 H 1277.64 -0.946259 -3.96875 0
M  V30 13185 H 1276.32 -2.04504 -3.62148 0
M  V30 13186 H 1274.89 -0.216374 -3.72272 0
M  V30 13187 N 1277.08 1.37613 -0.768148 0
M  V30 13188 C 1278.3 2.04579 -0.340892 0
M  V30 13189 C 1278.73 1.57556 1.02751 0
M  V30 13190 O 1278.09 0.734151 1.65771 0
M  V30 13191 C 1278.13 3.58495 -0.389099 0
M  V30 13192 O 1277.24 4.07838 0.611741 0
M  V30 13193 H 1276.58 0.647246 -0.148216 0
M  V30 13194 H 1279.11 1.75999 -1.04333 0
M  V30 13195 H 1279.12 4.07263 -0.245116 0
M  V30 13196 H 1277.79 3.92076 -1.38742 0
M  V30 13197 H 1276.37 3.70399 0.431173 0
M  V30 13198 N 1278.56 0.518393 1.4883 0
M  V30 13199 C 1279.49 -0.297703 2.2625 0
M  V30 13200 C 1280.47 -0.955096 1.31593 0
M  V30 13201 O 1281.65 -0.981776 1.60914 0
M  V30 13202 C 1278.78 -1.42065 3.07466 0
M  V30 13203 C 1277.82 -0.875854 4.1741 0
M  V30 13204 S 1278.66 0.247153 5.34929 0
M  V30 13205 C 1279.81 -0.878544 6.19703 0
M  V30 13206 H 1280.05 0.359358 2.9512 0
M  V30 13207 H 1277.58 0.303976 1.51378 0
M  V30 13208 H 1279.54 -2.06398 3.54838 0
M  V30 13209 H 1278.2 -2.04939 2.38031 0
M  V30 13210 H 1277.39 -1.71793 4.73818 0
M  V30 13211 H 1276.99 -0.30943 3.72718 0
M  V30 13212 H 1279.29 -1.77986 6.53703 0
M  V30 13213 H 1280.23 -0.3527 7.07221 0
M  V30 13214 H 1280.64 -1.15372 5.52584 0
M  V30 13215 N 1280.03 -1.55556 0.252993 0
M  V30 13216 C 1281.28 -1.9909 -0.37005 0
M  V30 13217 C 1281.61 -1.1412 -1.57502 0
M  V30 13218 O 1280.86 -0.193471 -1.94741 0
M  V30 13219 C 1281.16 -3.47925 -0.817484 0
M  V30 13220 C 1280.83 -4.50027 0.280398 0
M  V30 13221 C 1279.49 -4.77669 0.581914 0
M  V30 13222 C 1281.84 -5.11096 1.02129 0
M  V30 13223 C 1279.17 -5.63652 1.62829 0
M  V30 13224 C 1281.52 -5.98215 2.05723 0
M  V30 13225 C 1280.19 -6.24186 2.36533 0
M  V30 13226 H 1279.46 -0.728522 -0.135411 0
M  V30 13227 H 1282.1 -1.88046 0.36209 0
M  V30 13228 H 1280.41 -3.56333 -1.62893 0
M  V30 13229 H 1282.11 -3.79001 -1.30993 0
M  V30 13230 H 1278.7 -4.28585 0.0352579 0
M  V30 13231 H 1282.88 -4.89784 0.801603 0
M  V30 13232 H 1278.14 -5.82028 1.87227 0
M  V30 13233 H 1282.31 -6.44575 2.6362 0
M  V30 13234 H 1279.94 -6.90607 3.17752 0
M  V30 13235 N 1281.51 0.0200419 -1.57587 0
M  V30 13236 C 1282.44 1.01715 -2.10181 0
M  V30 13237 C 1283.42 1.37136 -1.00636 0
M  V30 13238 O 1284.61 1.45862 -1.2821 0
M  V30 13239 C 1281.74 2.31531 -2.58865 0
M  V30 13240 C 1280.69 2.10327 -3.72755 0
M  V30 13241 C 1280.02 3.45981 -4.07678 0
M  V30 13242 C 1281.32 1.4821 -5.0083 0
M  V30 13243 H 1283.01 0.579307 -2.93742 0
M  V30 13244 H 1280.56 0.277211 -1.41307 0
M  V30 13245 H 1282.51 3.01623 -2.94281 0
M  V30 13246 H 1281.24 2.77392 -1.72399 0
M  V30 13247 H 1279.89 1.42665 -3.37701 0
M  V30 13248 H 1279.54 3.89508 -3.18265 0
M  V30 13249 H 1279.24 3.32616 -4.84397 0
M  V30 13250 H 1280.77 4.17421 -4.45637 0
M  V30 13251 H 1282.18 2.08232 -5.34146 0
M  V30 13252 H 1280.58 1.45393 -5.82221 0
M  V30 13253 H 1281.65 0.448942 -4.82817 0
M  V30 13254 N 1282.99 1.54862 0.292472 0
M  V30 13255 C 1284.41 1.46267 0.638611 0
M  V30 13256 C 1284.61 0.660824 1.90356 0
M  V30 13257 O 1283.66 0.171909 2.51914 0
M  V30 13258 C 1284.98 2.90309 0.783675 0
M  V30 13259 C 1286.52 3.00404 0.879004 0
M  V30 13260 C 1287 4.4566 1.056 0
M  V30 13261 N 1288.49 4.49406 1.122 0
M  V30 13262 C 1289.22 5.5899 1.2774 0
M  V30 13263 N 1288.72 6.78482 1.40123 0
M  V30 13264 N 1290.51 5.46695 1.30696 0
M  V30 13265 H 1282.66 2.0546 -0.538521 0
M  V30 13266 H 1284.93 0.930879 -0.179354 0
M  V30 13267 H 1284.63 3.5162 -0.0750437 0
M  V30 13268 H 1284.51 3.38215 1.67004 0
M  V30 13269 H 1286.89 2.39201 1.7282 0
M  V30 13270 H 1286.98 2.55781 -0.0315624 0
M  V30 13271 H 1286.62 5.07459 0.211535 0
M  V30 13272 H 1286.55 4.87921 1.98092 0
M  V30 13273 H 1289.04 3.63322 1.03948 0
M  V30 13274 H 1289.35 7.57752 1.5176 0
M  V30 13275 H 1287.7 6.81331 1.37163 0
M  V30 13276 H 1290.89 4.52288 1.20638 0
M  V30 13277 H 1291.06 6.32146 1.42463 0
M  V30 13278 N 1284.47 -0.556076 1.47464 0
M  V30 13279 C 1285.72 -1.3132 1.54147 0
M  V30 13280 C 1286.04 -1.93425 0.204221 0
M  V30 13281 O 1285.3 -1.78467 -0.803002 0
M  V30 13282 C 1285.6 -2.44298 2.6087 0
M  V30 13283 C 1285.26 -2.00016 4.04109 0
M  V30 13284 C 1283.93 -1.87656 4.43101 0
M  V30 13285 C 1286.28 -1.66228 4.93981 0
M  V30 13286 C 1283.61 -1.39805 5.698 0
M  V30 13287 C 1285.96 -1.19848 6.21144 0
M  V30 13288 C 1284.62 -1.06084 6.59016 0
M  V30 13289 H 1283.89 -0.480534 0.564064 0
M  V30 13290 H 1286.54 -0.623449 1.81067 0
M  V30 13291 H 1284.84 -3.18834 2.27711 0
M  V30 13292 H 1286.54 -3.02479 2.63263 0
M  V30 13293 H 1283.13 -2.1058 3.73302 0
M  V30 13294 H 1287.31 -1.7465 4.64555 0
M  V30 13295 H 1282.57 -1.27814 5.97891 0
M  V30 13296 H 1286.74 -0.927657 6.90194 0
M  V30 13297 H 1284.37 -0.687834 7.57082 0
M  V30 13298 N 1285.95 -1.35615 -0.802897 0
M  V30 13299 C 1287.18 -1.32025 -1.58911 0
M  V30 13300 C 1287.59 0.103539 -1.88916 0
M  V30 13301 O 1286.93 1.06699 -1.49536 0
M  V30 13302 C 1286.99 -2.06313 -2.94406 0
M  V30 13303 C 1286.65 -3.5548 -2.87198 0
M  V30 13304 C 1287.65 -4.5 -2.60377 0
M  V30 13305 C 1285.34 -3.9818 -3.06199 0
M  V30 13306 C 1287.33 -5.85194 -2.5264 0
M  V30 13307 C 1285.02 -5.33469 -2.98084 0
M  V30 13308 C 1286.02 -6.26788 -2.71341 0
M  V30 13309 O 1285.7 -7.59594 -2.63195 0
M  V30 13310 H 1285.44 -0.454943 -0.500003 0
M  V30 13311 H 1287.99 -1.79106 -1.00549 0
M  V30 13312 H 1286.22 -1.53875 -3.54766 0
M  V30 13313 H 1287.91 -1.95755 -3.55577 0
M  V30 13314 H 1288.67 -4.18327 -2.45413 0
M  V30 13315 H 1284.55 -3.25927 -3.26025 0
M  V30 13316 H 1288.1 -6.58003 -2.31686 0
M  V30 13317 H 1283.99 -5.64754 -3.12607 0
M  V30 13318 H 1284.76 -7.69562 -2.78776 0
M  V30 13319 N 1287.43 1.02549 -1.19673 0
M  V30 13320 C 1288.65 1.8016 -1.02748 0
M  V30 13321 C 1289.08 1.83372 0.419105 0
M  V30 13322 O 1288.43 1.26222 1.30144 0
M  V30 13323 C 1288.48 3.22907 -1.60509 0
M  V30 13324 O 1287.59 4.03823 -0.836702 0
M  V30 13325 H 1286.93 0.556027 -0.362946 0
M  V30 13326 H 1289.46 1.29047 -1.5877 0
M  V30 13327 H 1289.47 3.73646 -1.63868 0
M  V30 13328 H 1288.14 3.19885 -2.65794 0
M  V30 13329 H 1286.72 3.6245 -0.876626 0
M  V30 13330 N 1288.9 1.00119 1.21713 0
M  V30 13331 C 1290.18 0.597366 1.86255 0
M  V30 13332 C 1290.56 -0.925124 1.89749 0
M  V30 13333 O 1289.91 -1.8105 1.39402 0
M  V30 13334 C 1290.12 1.22735 3.26707 0
M  V30 13335 C 1291.47 1.33307 4.03131 0
M  V30 13336 O 1292.49 1.18237 3.36003 0
M  V30 13337 O 1291.35 1.57509 5.2331 0
M  V30 13338 H 1288.44 0.204091 0.801421 0
M  V30 13339 H 1290.99 1.09759 1.29426 0
M  V30 13340 H 1289.76 2.26837 3.18843 0
M  V30 13341 H 1289.38 0.713232 3.91151 0
M  V30 13342 N 1290.38 -1.37203 0.775435 0
M  V30 13343 C 1291.34 -2.28566 0.170406 0
M  V30 13344 C 1292.34 -1.48195 -0.624085 0
M  V30 13345 O 1293.53 -1.68364 -0.447132 0
M  V30 13346 C 1290.67 -3.32186 -0.765829 0
M  V30 13347 H 1291.86 -2.8358 0.975824 0
M  V30 13348 H 1289.41 -1.46531 0.543895 0
M  V30 13349 H 1290.15 -2.82303 -1.59611 0
M  V30 13350 H 1289.93 -3.91598 -0.198251 0
M  V30 13351 H 1291.42 -4.0045 -1.18446 0
M  V30 13352 N 1291.86 -0.526279 -1.48553 0
M  V30 13353 C 1293.08 0.00731432 -2.07399 0
M  V30 13354 C 1293.51 1.27737 -1.38075 0
M  V30 13355 O 1292.87 1.75741 -0.445503 0
M  V30 13356 C 1292.92 0.218126 -3.5994 0
M  V30 13357 O 1292.02 1.28759 -3.91784 0
M  V30 13358 H 1291.36 -0.0374784 -0.662941 0
M  V30 13359 H 1293.89 -0.733133 -1.91014 0
M  V30 13360 H 1293.9 0.44192 -4.056 0
M  V30 13361 H 1292.58 -0.709668 -4.09801 0
M  V30 13362 H 1291.15 1.04674 -3.57907 0
M  V30 13363 N 1293.34 1.5542 -0.261239 0
M  V30 13364 C 1294.58 1.99579 0.36002 0
M  V30 13365 C 1294.92 1.14933 1.56538 0
M  V30 13366 O 1294.19 0.216082 1.93296 0
M  V30 13367 C 1294.47 3.52078 0.755842 0
M  V30 13368 C 1294.33 4.47484 -0.455896 0
M  V30 13369 C 1295.65 4.10083 1.5975 0
M  V30 13370 H 1292.77 0.725554 0.129385 0
M  V30 13371 H 1295.41 1.86453 -0.365415 0
M  V30 13372 H 1293.56 3.63394 1.37393 0
M  V30 13373 H 1295.23 4.4813 -1.09441 0
M  V30 13374 H 1293.47 4.19714 -1.09646 0
M  V30 13375 H 1294.14 5.51834 -0.13539 0
M  V30 13376 H 1296.62 4.01957 1.07562 0
M  V30 13377 H 1295.5 5.17024 1.84329 0
M  V30 13378 H 1295.76 3.59438 2.57404 0
M  V30 13379 N 1294.82 -0.0116844 1.57596 0
M  V30 13380 C 1295.75 -1.03477 2.04512 0
M  V30 13381 C 1296.76 -1.31414 0.960945 0
M  V30 13382 O 1297.95 -1.28596 1.23796 0
M  V30 13383 C 1295.05 -2.37234 2.42019 0
M  V30 13384 C 1294.22 -2.28405 3.73028 0
M  V30 13385 C 1293.28 -3.44753 3.97532 0
M  V30 13386 O 1292.31 -3.23465 4.68358 0
M  V30 13387 N 1293.51 -4.67212 3.44518 0
M  V30 13388 H 1296.27 -0.634758 2.92901 0
M  V30 13389 H 1293.84 -0.1993 1.60669 0
M  V30 13390 H 1295.83 -3.13821 2.55535 0
M  V30 13391 H 1294.4 -2.69018 1.5921 0
M  V30 13392 H 1293.62 -1.36804 3.697 0
M  V30 13393 H 1294.91 -2.19666 4.58938 0
M  V30 13394 H 1294.3 -4.87407 2.87142 0
M  V30 13395 H 1292.86 -5.41105 3.63384 0
M  V30 13396 N 1296.29 -1.55015 -0.284256 0
M  V30 13397 C 1297.71 -1.46603 -0.630845 0
M  V30 13398 C 1297.91 -0.67091 -1.90003 0
M  V30 13399 O 1296.97 -0.185266 -2.51819 0
M  V30 13400 C 1298.28 -2.9072 -0.768268 0
M  V30 13401 C 1299.83 -3.00866 -0.863061 0
M  V30 13402 C 1300.3 -4.46214 -1.03235 0
M  V30 13403 N 1301.79 -4.49994 -1.09815 0
M  V30 13404 C 1302.53 -5.5966 -1.24773 0
M  V30 13405 N 1302.02 -6.79215 -1.36523 0
M  V30 13406 N 1303.82 -5.4738 -1.27795 0
M  V30 13407 H 1295.97 -2.05171 0.549409 0
M  V30 13408 H 1298.23 -0.929915 0.184288 0
M  V30 13409 H 1297.94 -3.51575 0.0936899 0
M  V30 13410 H 1297.81 -3.39096 -1.65209 0
M  V30 13411 H 1300.2 -2.40114 -1.71549 0
M  V30 13412 H 1300.28 -2.5576 0.0451267 0
M  V30 13413 H 1299.92 -5.07564 -0.18462 0
M  V30 13414 H 1299.85 -4.88965 -1.95502 0
M  V30 13415 H 1302.34 -3.63869 -1.0202 0
M  V30 13416 H 1302.66 -7.58547 -1.47739 0
M  V30 13417 H 1301 -6.82048 -1.33548 0
M  V30 13418 H 1304.19 -4.52921 -1.18238 0
M  V30 13419 H 1304.37 -6.32892 -1.39109 0
M  V30 13420 N 1297.77 0.548248 -1.47757 0
M  V30 13421 C 1298.72 1.65453 -1.60916 0
M  V30 13422 C 1299.69 1.59836 -0.451831 0
M  V30 13423 O 1300.87 1.78536 -0.673023 0
M  V30 13424 C 1298.01 3.0376 -1.6378 0
M  V30 13425 C 1297.13 3.19747 -2.90492 0
M  V30 13426 C 1296.26 4.48505 -2.84635 0
M  V30 13427 C 1295.3 4.57956 -4.06132 0
M  V30 13428 N 1294.44 5.78079 -3.98458 0
M  V30 13429 H 1299.28 1.53545 -2.55398 0
M  V30 13430 H 1296.81 0.747826 -1.26673 0
M  V30 13431 H 1298.77 3.8386 -1.63424 0
M  V30 13432 H 1297.4 3.14483 -0.728036 0
M  V30 13433 H 1296.45 2.3302 -3.00676 0
M  V30 13434 H 1297.77 3.22594 -3.8044 0
M  V30 13435 H 1296.92 5.36875 -2.82577 0
M  V30 13436 H 1295.66 4.48151 -1.92385 0
M  V30 13437 H 1294.66 3.67995 -4.08484 0
M  V30 13438 H 1295.89 4.60062 -4.9952 0
M  V30 13439 H 1293.84 5.78657 -3.09017 0
M  V30 13440 H 1293.75 5.82342 -4.82093 0
M  V30 13441 H 1295.02 6.68786 -4.00431 0
M  V30 13442 N 1299.25 1.36039 0.795694 0
M  V30 13443 C 1300.5 1.29663 1.55023 0
M  V30 13444 C 1300.82 -0.125588 1.94595 0
M  V30 13445 O 1300.09 -1.06447 1.64456 0
M  V30 13446 H 1298.67 0.476962 0.574906 0
M  V30 13447 H 1301.33 1.70265 0.948471 0
M  V30 13448 H 1300.43 1.91982 2.46068 0
M  V30 13449 N 1300.73 -1.01913 1.20215 0
M  V30 13450 C 1301.98 -1.7547 1.01076 0
M  V30 13451 C 1302.3 -1.89045 -0.457404 0
M  V30 13452 O 1301.56 -1.41121 -1.35585 0
M  V30 13453 C 1301.86 -3.17734 1.63646 0
M  V30 13454 C 1301.52 -3.24143 3.13436 0
M  V30 13455 C 1300.19 -3.25599 3.54315 0
M  V30 13456 C 1302.54 -3.22508 4.09436 0
M  V30 13457 C 1299.87 -3.23089 4.89725 0
M  V30 13458 C 1302.22 -3.21539 5.44789 0
M  V30 13459 C 1300.88 -3.21298 5.85085 0
M  V30 13460 H 1300.15 -0.642092 0.369864 0
M  V30 13461 H 1302.8 -1.19547 1.49602 0
M  V30 13462 H 1301.1 -3.76799 1.07375 0
M  V30 13463 H 1302.8 -3.73338 1.46356 0
M  V30 13464 H 1299.39 -3.23743 2.80871 0
M  V30 13465 H 1303.57 -3.20555 3.7889 0
M  V30 13466 H 1298.83 -3.21231 5.20212 0
M  V30 13467 H 1303 -3.19226 6.18924 0
M  V30 13468 H 1300.63 -3.19107 6.89982 0
M  V30 13469 N 1302.21 -1.00763 -1.2118 0
M  V30 13470 C 1303.14 -0.528468 -2.23024 0
M  V30 13471 C 1304.15 0.384348 -1.58198 0
M  V30 13472 O 1305.34 0.184127 -1.77548 0
M  V30 13473 C 1302.44 0.251693 -3.37964 0
M  V30 13474 C 1301.61 -0.660838 -4.32379 0
M  V30 13475 C 1300.67 0.0701723 -5.26153 0
M  V30 13476 O 1299.7 -0.549355 -5.66543 0
M  V30 13477 N 1300.9 1.34791 -5.64634 0
M  V30 13478 H 1303.67 -1.40428 -2.64764 0
M  V30 13479 H 1301.23 -0.884085 -1.3563 0
M  V30 13480 H 1303.22 0.749746 -3.97694 0
M  V30 13481 H 1301.79 1.02872 -2.95188 0
M  V30 13482 H 1301.01 -1.33934 -3.7075 0
M  V30 13483 H 1302.3 -1.28177 -4.9239 0
M  V30 13484 H 1301.69 1.87232 -5.33817 0
M  V30 13485 H 1300.25 1.79086 -6.26715 0
M  V30 13486 N 1303.68 1.3679 -0.7827 0
M  V30 13487 C 1304.65 2.28472 -0.182525 0
M  V30 13488 C 1305.65 1.48524 0.616217 0
M  V30 13489 O 1306.84 1.68599 0.438197 0
M  V30 13490 C 1303.97 3.32588 0.748202 0
M  V30 13491 H 1305.16 2.83059 -0.99085 0
M  V30 13492 H 1302.72 1.46241 -0.551658 0
M  V30 13493 H 1303.45 2.83145 1.58112 0
M  V30 13494 H 1303.24 3.91698 0.177481 0
M  V30 13495 H 1304.73 4.01073 1.16321 0
M  V30 13496 N 1305.16 0.53415 1.48272 0
M  V30 13497 C 1306.41 0.00157492 2.028 0
M  V30 13498 C 1306.74 -1.33538 1.41001 0
M  V30 13499 O 1306.02 -1.86347 0.557245 0
M  V30 13500 C 1306.3 -0.116016 3.59913 0
M  V30 13501 C 1306.15 1.2464 4.32186 0
M  V30 13502 C 1307.47 -0.840775 4.31994 0
M  V30 13503 H 1304.59 0.00204634 0.736997 0
M  V30 13504 H 1307.23 0.691985 1.76951 0
M  V30 13505 H 1305.38 -0.704027 3.82068 0
M  V30 13506 H 1307.05 1.87584 4.21438 0
M  V30 13507 H 1305.3 1.8272 3.93441 0
M  V30 13508 H 1305.97 1.11708 5.40579 0
M  V30 13509 H 1308.44 -0.341746 4.14694 0
M  V30 13510 H 1307.32 -0.89196 5.41604 0
M  V30 13511 H 1307.58 -1.89197 3.99571 0
M  V30 13512 N 1306.64 -1.55279 0.269478 0
M  V30 13513 C 1307.59 -2.18984 -0.634838 0
M  V30 13514 C 1308.57 -1.15269 -1.12258 0
M  V30 13515 O 1309.77 -1.41103 -1.0686 0
M  V30 13516 C 1306.9 -2.91014 -1.82114 0
M  V30 13517 C 1305.98 -4.02011 -1.35084 0
M  V30 13518 N 1306.37 -5.02273 -0.596299 0
M  V30 13519 C 1304.67 -4.14979 -1.63427 0
M  V30 13520 C 1305.37 -5.80647 -0.349781 0
M  V30 13521 N 1304.35 -5.35749 -0.92057 0
M  V30 13522 H 1308.15 -2.93857 -0.0504516 0
M  V30 13523 H 1305.66 -1.62237 0.0727843 0
M  V30 13524 H 1307.66 -3.35098 -2.48022 0
M  V30 13525 H 1306.32 -2.1765 -2.40953 0
M  V30 13526 H 1307.33 -5.17324 -0.244188 0
M  V30 13527 H 1304.01 -3.52802 -2.23242 0
M  V30 13528 H 1305.4 -6.71419 0.254139 0
M  V30 13529 N 1308.12 0.00332656 -1.576 0
M  V30 13530 C 1309.34 0.703587 -1.95101 0
M  V30 13531 C 1309.77 1.66697 -0.871418 0
M  V30 13532 O 1309.13 1.80494 0.170739 0
M  V30 13533 C 1309.17 1.41457 -3.31696 0
M  V30 13534 O 1308.28 2.52885 -3.25765 0
M  V30 13535 H 1307.62 0.187396 -0.637008 0
M  V30 13536 H 1310.15 -0.0488727 -2.04542 0
M  V30 13537 H 1310.16 1.77874 -3.67185 0
M  V30 13538 H 1308.83 0.708182 -4.09826 0
M  V30 13539 H 1307.41 2.18821 -3.01947 0
M  V30 13540 N 1309.6 1.55164 0.276031 0
M  V30 13541 C 1310.82 1.79649 1.02635 0
M  V30 13542 C 1311.24 0.568289 1.80044 0
M  V30 13543 O 1310.6 -0.462569 1.7654 0
M  V30 13544 C 1310.65 3.01974 1.98731 0
M  V30 13545 O 1310.37 4.2005 1.24459 0
M  V30 13546 C 1311.87 3.39039 2.856 0
M  V30 13547 H 1309.09 0.598529 0.303321 0
M  V30 13548 H 1311.63 2.02171 0.307733 0
M  V30 13549 H 1309.79 2.81586 2.6606 0
M  V30 13550 H 1310.2 4.89185 1.89205 0
M  V30 13551 H 1311.68 4.27809 3.48831 0
M  V30 13552 H 1312.15 2.58306 3.55211 0
M  V30 13553 H 1312.76 3.61674 2.23767 0
M  V30 13554 N 1311.07 -0.540404 1.48045 0
M  V30 13555 C 1311.98 -1.67308 1.64455 0
M  V30 13556 C 1313 -1.65823 0.527152 0
M  V30 13557 O 1314.18 -1.84964 0.796881 0
M  V30 13558 C 1311.24 -3.03792 1.67068 0
M  V30 13559 C 1310.3 -3.16213 2.90358 0
M  V30 13560 C 1309.54 -4.46187 2.92837 0
M  V30 13561 O 1309.76 -5.32662 2.04029 0
M  V30 13562 O 1308.69 -4.62754 3.84892 0
M  V30 13563 H 1312.52 -1.56403 2.6033 0
M  V30 13564 H 1310.1 -0.712323 1.31325 0
M  V30 13565 H 1311.99 -3.84982 1.71368 0
M  V30 13566 H 1310.66 -3.15043 0.74363 0
M  V30 13567 H 1309.57 -2.34357 2.91595 0
M  V30 13568 H 1310.9 -3.09874 3.82412 0
M  V30 13569 N 1312.55 -1.36459 -0.788468 0
M  V30 13570 C 1313.79 -1.32124 -1.55957 0
M  V30 13571 C 1314.16 0.0981565 -1.91749 0
M  V30 13572 O 1315.36 0.266067 -2.6748 0
M  V30 13573 C 1313.63 -2.219 -2.8017 0
M  V30 13574 S 1315.19 -2.35257 -3.70405 0
M  V30 13575 H 1312.01 -0.469279 -0.534133 0
M  V30 13576 H 1314.61 -1.72039 -0.928587 0
M  V30 13577 H 1313.31 -3.23976 -2.51928 0
M  V30 13578 H 1312.84 -1.83008 -3.48241 0
M  V30 13579 H 1314.86 -1.55077 -4.71344 0
M  V30 13580 N 1314.03 1.01274 -1.20754 0
M  V30 13581 C 1315.28 1.74586 -1.01804 0
M  V30 13582 C 1315.6 1.89727 0.450419 0
M  V30 13583 O 1314.87 1.44257 1.32539 0
M  V30 13584 H 1313.45 0.646804 -0.373702 0
M  V30 13585 H 1316.11 1.22079 -1.5193 0
M  V30 13586 H 1315.21 2.748 -1.47958 0
M  V30 13587 N 1315.51 1.01404 1.20644 0
M  V30 13588 C 1316.76 0.700523 1.89571 0
M  V30 13589 C 1317.08 -0.771978 1.79068 0
M  V30 13590 O 1316.35 -1.55506 1.19142 0
M  V30 13591 H 1314.93 0.256122 0.70172 0
M  V30 13592 H 1317.59 1.28509 1.46531 0
M  V30 13593 H 1316.69 0.981665 2.9626 0
M  V30 13594 N 1316.99 -1.36373 0.789944 0
M  V30 13595 C 1318.4 -1.52471 0.471686 0
M  V30 13596 C 1318.6 -1.74365 -1.0099 0
M  V30 13597 O 1317.66 -1.77546 -1.79538 0
M  V30 13598 C 1318.97 -2.71022 1.30259 0
M  V30 13599 C 1320.52 -2.84893 1.29633 0
M  V30 13600 C 1321 -4.0645 2.11098 0
M  V30 13601 N 1322.49 -4.13597 2.08547 0
M  V30 13602 C 1323.22 -5.06731 2.6835 0
M  V30 13603 N 1322.72 -6.05305 3.37013 0
M  V30 13604 N 1324.51 -4.9935 2.58081 0
M  V30 13605 H 1316.66 -1.20416 1.74968 0
M  V30 13606 H 1318.92 -0.587782 0.743785 0
M  V30 13607 H 1318.63 -2.61368 2.35329 0
M  V30 13608 H 1318.5 -3.6519 0.944254 0
M  V30 13609 H 1320.89 -2.94009 0.253542 0
M  V30 13610 H 1320.97 -1.91632 1.69443 0
M  V30 13611 H 1320.62 -3.98096 3.15408 0
M  V30 13612 H 1320.55 -4.98861 1.68659 0
M  V30 13613 H 1323.04 -3.4302 1.58573 0
M  V30 13614 H 1323.35 -6.72934 3.79974 0
M  V30 13615 H 1321.7 -6.05529 3.41116 0
M  V30 13616 H 1324.89 -4.21291 2.04039 0
M  V30 13617 H 1325.06 -5.71745 3.04979 0
M  V30 13618 N 1318.47 -0.542005 -1.47987 0
M  V30 13619 C 1319.4 0.202703 -2.32618 0
M  V30 13620 C 1320.38 0.923521 -1.42846 0
M  V30 13621 O 1321.56 0.906957 -1.7172 0
M  V30 13622 C 1318.69 1.24267 -3.24307 0
M  V30 13623 C 1317.65 0.639257 -4.23199 0
M  V30 13624 C 1316.97 1.78275 -5.04105 0
M  V30 13625 C 1318.27 -0.396982 -5.20789 0
M  V30 13626 H 1319.97 -0.503817 -2.95131 0
M  V30 13627 H 1317.51 -0.243736 -1.41922 0
M  V30 13628 H 1319.46 1.7717 -3.82347 0
M  V30 13629 H 1318.19 1.97893 -2.59819 0
M  V30 13630 H 1316.85 0.131655 -3.66364 0
M  V30 13631 H 1316.5 2.50768 -4.36032 0
M  V30 13632 H 1316.2 1.38487 -5.71047 0
M  V30 13633 H 1317.72 2.31533 -5.65 0
M  V30 13634 H 1319.13 0.0454057 -5.73282 0
M  V30 13635 H 1317.53 -0.712911 -5.9585 0
M  V30 13636 H 1318.6 -1.29843 -4.67193 0
M  V30 13637 N 1319.94 1.55134 -0.277709 0
M  V30 13638 C 1320.89 2.2263 0.608637 0
M  V30 13639 C 1321.86 1.20067 1.14774 0
M  V30 13640 O 1323.05 1.48617 1.19657 0
M  V30 13641 C 1320.19 2.95308 1.78571 0
M  V30 13642 C 1319.3 4.12595 1.28021 0
M  V30 13643 C 1318.43 4.7291 2.41929 0
M  V30 13644 C 1317.47 5.82386 1.88395 0
M  V30 13645 N 1316.61 6.36754 2.95786 0
M  V30 13646 H 1321.45 2.97988 0.0264138 0
M  V30 13647 H 1318.99 1.471 0.00127068 0
M  V30 13648 H 1320.94 3.35662 2.47764 0
M  V30 13649 H 1319.57 2.22368 2.33992 0
M  V30 13650 H 1318.63 3.77343 0.481297 0
M  V30 13651 H 1319.94 4.91537 0.848128 0
M  V30 13652 H 1319.09 5.15997 3.1911 0
M  V30 13653 H 1317.83 3.93251 2.88453 0
M  V30 13654 H 1316.84 5.38746 1.09694 0
M  V30 13655 H 1318.06 6.63916 1.42803 0
M  V30 13656 H 1316.01 5.59987 3.41687 0
M  V30 13657 H 1315.92 7.10975 2.57002 0
M  V30 13658 H 1317.19 6.845 3.72935 0
M  V30 13659 N 1321.42 0.00503138 1.57599 0
M  V30 13660 C 1322.38 -0.969628 2.0768 0
M  V30 13661 C 1323.38 -1.26933 0.987148 0
M  V30 13662 O 1324.57 -1.21368 1.24962 0
M  V30 13663 C 1321.71 -2.29312 2.52247 0
M  V30 13664 H 1322.9 -0.536342 2.95065 0
M  V30 13665 H 1320.45 -0.242543 1.54407 0
M  V30 13666 H 1321.19 -2.7732 1.6812 0
M  V30 13667 H 1320.97 -2.08878 3.31832 0
M  V30 13668 H 1322.46 -2.99221 2.91302 0
M  V30 13669 N 1322.9 -1.55308 -0.267798 0
M  V30 13670 C 1323.81 -1.91649 -1.35307 0
M  V30 13671 C 1324.83 -0.814349 -1.53767 0
M  V30 13672 O 1326 -1.11388 -1.67793 0
M  V30 13673 C 1323.07 -2.18553 -2.69138 0
M  V30 13674 C 1322.13 -3.42083 -2.5938 0
M  V30 13675 C 1321.36 -3.67695 -3.86828 0
M  V30 13676 O 1321.58 -2.95728 -4.87751 0
M  V30 13677 O 1320.52 -4.61229 -3.86718 0
M  V30 13678 H 1324.34 -2.84044 -1.07483 0
M  V30 13679 H 1321.93 -1.41921 -0.466772 0
M  V30 13680 H 1323.81 -2.3726 -3.48261 0
M  V30 13681 H 1322.49 -1.2934 -2.96737 0
M  V30 13682 H 1321.39 -3.28706 -1.78614 0
M  V30 13683 H 1322.73 -4.31532 -2.36729 0
M  V30 13684 N 1324.38 0.532545 -1.4833 0
M  V30 13685 C 1325.62 1.29042 -1.56448 0
M  V30 13686 C 1325.96 1.92754 -0.236532 0
M  V30 13687 O 1325.23 1.79154 0.757237 0
M  V30 13688 C 1325.51 2.38173 -2.70084 0
M  V30 13689 C 1325.37 1.79169 -4.12576 0
M  V30 13690 C 1326.69 3.39957 -2.79495 0
M  V30 13691 H 1323.81 0.467816 -0.569488 0
M  V30 13692 H 1326.45 0.593517 -1.80492 0
M  V30 13693 H 1324.6 2.97616 -2.49714 0
M  V30 13694 H 1326.27 1.23797 -4.44378 0
M  V30 13695 H 1324.51 1.09716 -4.19696 0
M  V30 13696 H 1325.18 2.58174 -4.87904 0
M  V30 13697 H 1327.66 2.90466 -2.97941 0
M  V30 13698 H 1326.54 4.13714 -3.60739 0
M  V30 13699 H 1326.8 4.00347 -1.87548 0
M  V30 13700 N 1325.86 1.36875 0.78122 0
M  V30 13701 C 1326.79 1.27738 1.90304 0
M  V30 13702 C 1327.8 0.195147 1.61626 0
M  V30 13703 O 1328.99 0.450531 1.72721 0
M  V30 13704 C 1326.09 0.950103 3.25309 0
M  V30 13705 C 1325.26 2.13589 3.81705 0
M  V30 13706 C 1324.32 1.78037 4.95166 0
M  V30 13707 O 1323.35 2.50223 5.11251 0
M  V30 13708 N 1324.55 0.718886 5.76031 0
M  V30 13709 H 1327.31 2.24397 1.98661 0
M  V30 13710 H 1324.88 1.30376 0.959883 0
M  V30 13711 H 1326.87 0.693286 3.98717 0
M  V30 13712 H 1325.44 0.0723849 3.12516 0
M  V30 13713 H 1324.66 2.55502 3.00187 0
M  V30 13714 H 1325.95 2.9279 4.16114 0
M  V30 13715 H 1325.34 0.119681 5.65573 0
M  V30 13716 H 1323.9 0.521909 6.49707 0
M  V30 13717 N 1327.33 -1.00632 1.21289 0
M  V30 13718 C 1328.56 -1.77967 1.05524 0
M  V30 13719 C 1328.98 -1.84621 -0.395023 0
M  V30 13720 O 1328.33 -1.30664 -1.27409 0
M  V30 13721 C 1328.38 -3.21939 1.64432 0
M  V30 13722 O 1328.11 -3.15669 3.03784 0
M  V30 13723 C 1329.61 -4.1578 1.5376 0
M  V30 13724 H 1326.83 -0.559341 0.370646 0
M  V30 13725 H 1329.37 -1.26604 1.60598 0
M  V30 13726 H 1327.53 -3.70415 1.13453 0
M  V30 13727 H 1327.94 -4.06112 3.31924 0
M  V30 13728 H 1329.41 -5.14602 1.99722 0
M  V30 13729 H 1329.89 -4.36438 0.491811 0
M  V30 13730 H 1330.5 -3.73192 2.0398 0
M  V30 13731 N 1328.81 -1.02043 -1.20104 0
M  V30 13732 C 1329.76 -0.593945 -2.23027 0
M  V30 13733 C 1330.73 0.387931 -1.61506 0
M  V30 13734 O 1331.91 0.286504 -1.88637 0
M  V30 13735 C 1329.05 0.0577309 -3.45052 0
M  V30 13736 C 1328.17 -0.969169 -4.20988 0
M  V30 13737 C 1327.3 -0.288143 -5.30418 0
M  V30 13738 C 1326.34 -1.30154 -5.98102 0
M  V30 13739 N 1325.48 -0.646912 -6.99113 0
M  V30 13740 H 1330.32 -1.47623 -2.58866 0
M  V30 13741 H 1327.85 -0.738901 -1.27195 0
M  V30 13742 H 1329.81 0.452726 -4.14736 0
M  V30 13743 H 1328.44 0.90364 -3.09894 0
M  V30 13744 H 1327.49 -1.48229 -3.50332 0
M  V30 13745 H 1328.81 -1.73972 -4.67477 0
M  V30 13746 H 1327.96 0.162149 -6.06483 0
M  V30 13747 H 1326.7 0.514683 -4.84977 0
M  V30 13748 H 1325.7 -1.76218 -5.20795 0
M  V30 13749 H 1326.93 -2.10571 -6.45629 0
M  V30 13750 H 1324.88 0.135976 -6.55859 0
M  V30 13751 H 1324.79 -1.35548 -7.43749 0
M  V30 13752 H 1326.06 -0.220339 -7.79189 0
M  V30 13753 N 1330.29 1.35952 -0.797165 0
M  V30 13754 C 1331.2 2.33726 -0.202271 0
M  V30 13755 C 1332.22 1.61415 0.649719 0
M  V30 13756 O 1333.39 1.93351 0.563686 0
M  V30 13757 C 1330.46 3.40612 0.64685 0
M  V30 13758 C 1329.52 4.28712 -0.224536 0
M  V30 13759 C 1328.75 5.30493 0.584153 0
M  V30 13760 O 1328.97 5.40599 1.81957 0
M  V30 13761 O 1327.91 6.01897 -0.0200239 0
M  V30 13762 H 1331.73 2.86383 -1.01087 0
M  V30 13763 H 1329.32 1.38557 -0.558768 0
M  V30 13764 H 1331.2 4.05944 1.1308 0
M  V30 13765 H 1329.88 2.90243 1.43321 0
M  V30 13766 H 1328.78 3.66394 -0.755415 0
M  V30 13767 H 1330.12 4.82454 -0.974603 0
M  V30 13768 N 1331.77 0.549846 1.47697 0
M  V30 13769 C 1332.7 -0.190364 2.32723 0
M  V30 13770 C 1333.68 -0.915933 1.43334 0
M  V30 13771 O 1334.86 -0.897838 1.72199 0
M  V30 13772 C 1331.99 -1.22545 3.24961 0
M  V30 13773 C 1330.95 -0.616805 4.23532 0
M  V30 13774 C 1330.27 -1.75599 5.05044 0
M  V30 13775 C 1331.57 0.424595 5.20571 0
M  V30 13776 H 1333.27 0.519461 2.94859 0
M  V30 13777 H 1330.81 0.251259 1.41791 0
M  V30 13778 H 1332.77 -1.75139 3.83281 0
M  V30 13779 H 1331.49 -1.96512 2.60865 0
M  V30 13780 H 1330.15 -0.112224 3.66428 0
M  V30 13781 H 1329.8 -2.48453 4.37356 0
M  V30 13782 H 1329.5 -1.35456 5.71774 0
M  V30 13783 H 1331.02 -2.28533 5.6622 0
M  V30 13784 H 1332.44 -0.0150025 5.73298 0
M  V30 13785 H 1330.83 0.7445 5.95464 0
M  V30 13786 H 1331.9 1.32318 4.66497 0
M  V30 13787 N 1333.25 -1.54984 0.285932 0
M  V30 13788 C 1334.48 -2.03943 -0.330295 0
M  V30 13789 C 1334.88 -1.16336 -1.49207 0
M  V30 13790 O 1334.23 -0.178341 -1.82832 0
M  V30 13791 C 1334.29 -3.48976 -0.863479 0
M  V30 13792 C 1333.95 -4.5668 0.171058 0
M  V30 13793 C 1334.95 -5.10303 0.994329 0
M  V30 13794 C 1332.64 -5.01352 0.308416 0
M  V30 13795 C 1334.63 -6.07126 1.94104 0
M  V30 13796 C 1332.32 -5.97999 1.25859 0
M  V30 13797 C 1333.31 -6.50768 2.0734 0
M  V30 13798 O 1333 -7.45524 3.00749 0
M  V30 13799 H 1332.73 -0.671491 -0.0779452 0
M  V30 13800 H 1335.29 -2.01081 0.419011 0
M  V30 13801 H 1333.52 -3.49113 -1.66305 0
M  V30 13802 H 1335.21 -3.81213 -1.39396 0
M  V30 13803 H 1335.97 -4.76595 0.899002 0
M  V30 13804 H 1331.85 -4.59917 -0.315817 0
M  V30 13805 H 1335.4 -6.48239 2.57743 0
M  V30 13806 H 1331.29 -6.31125 1.35469 0
M  V30 13807 H 1332.06 -7.63276 2.95554 0
M  V30 13808 N 1334.72 -0.0133892 -1.57594 0
M  V30 13809 C 1335.95 0.682855 -1.95836 0
M  V30 13810 C 1336.37 1.65763 -0.889049 0
M  V30 13811 O 1335.73 1.80665 0.151585 0
M  V30 13812 C 1335.78 1.37931 -3.33178 0
M  V30 13813 O 1334.88 2.49416 -3.28429 0
M  V30 13814 H 1334.23 0.180629 -0.638959 0
M  V30 13815 H 1336.76 -0.0705644 -2.04478 0
M  V30 13816 H 1336.77 1.73969 -3.69051 0
M  V30 13817 H 1335.44 0.664675 -4.10554 0
M  V30 13818 H 1334.02 2.15606 -3.04251 0
M  V30 13819 N 1336.2 1.55448 0.259558 0
M  V30 13820 C 1337.15 1.85637 1.32374 0
M  V30 13821 C 1338.14 0.716256 1.44078 0
M  V30 13822 O 1339.33 0.977907 1.47533 0
M  V30 13823 C 1336.46 2.14353 2.68156 0
M  V30 13824 C 1335.54 3.34659 2.60508 0
M  V30 13825 N 1335.93 4.54241 2.22484 0
M  V30 13826 C 1334.23 3.37517 2.91545 0
M  V30 13827 C 1334.93 5.36358 2.25157 0
M  V30 13828 N 1333.91 4.751 2.64162 0
M  V30 13829 H 1337.71 2.75631 1.02005 0
M  V30 13830 H 1335.23 1.55505 0.468194 0
M  V30 13831 H 1337.22 2.34141 3.4494 0
M  V30 13832 H 1335.88 1.25651 2.99403 0
M  V30 13833 H 1336.89 4.80096 1.94237 0
M  V30 13834 H 1333.57 2.59048 3.27414 0
M  V30 13835 H 1334.96 6.42 1.98206 0
M  V30 13836 N 1337.68 -0.524672 1.4861 0
M  V30 13837 C 1338.64 -1.61092 1.63039 0
M  V30 13838 C 1339.64 -1.52718 0.503387 0
M  V30 13839 O 1340.83 -1.56293 0.769304 0
M  V30 13840 C 1337.97 -3.00722 1.60558 0
M  V30 13841 H 1339.16 -1.49636 2.59902 0
M  V30 13842 H 1336.71 -0.747135 1.37287 0
M  V30 13843 H 1337.45 -3.1768 0.651926 0
M  V30 13844 H 1337.23 -3.0821 2.42382 0
M  V30 13845 H 1338.72 -3.79688 1.73859 0
M  V30 13846 N 1339.16 -1.37287 -0.77395 0
M  V30 13847 C 1340.09 -1.28746 -1.89624 0
M  V30 13848 C 1341.1 -0.203715 -1.6152 0
M  V30 13849 O 1342.29 -0.459684 -1.72479 0
M  V30 13850 C 1339.39 -0.967342 -3.24801 0
M  V30 13851 C 1338.57 -2.1561 -3.80567 0
M  V30 13852 C 1337.62 -1.80661 -4.94215 0
M  V30 13853 O 1336.65 -2.5293 -5.09917 0
M  V30 13854 N 1337.85 -0.749424 -5.75642 0
M  V30 13855 H 1340.62 -2.25447 -1.97468 0
M  V30 13856 H 1338.18 -1.30883 -0.952956 0
M  V30 13857 H 1340.17 -0.714421 -3.98344 0
M  V30 13858 H 1338.74 -0.0889573 -3.12473 0
M  V30 13859 H 1337.96 -2.57091 -2.98828 0
M  V30 13860 H 1339.25 -2.94993 -4.14556 0
M  V30 13861 H 1338.65 -0.149673 -5.65502 0
M  V30 13862 H 1337.2 -0.556358 -6.49421 0
M  V30 13863 N 1340.64 0.999871 -1.21821 0
M  V30 13864 C 1341.88 1.7384 -1.03855 0
M  V30 13865 C 1342.21 1.89749 0.42727 0
M  V30 13866 O 1341.47 1.43261 1.33323 0
M  V30 13867 C 1341.77 3.1509 -1.6868 0
M  V30 13868 C 1341.43 3.19115 -3.18554 0
M  V30 13869 C 1340.09 3.19921 -3.5945 0
M  V30 13870 C 1342.45 3.15954 -4.14515 0
M  V30 13871 C 1339.77 3.15257 -4.94803 0
M  V30 13872 C 1342.13 3.12831 -5.49836 0
M  V30 13873 C 1340.79 3.11949 -5.90122 0
M  V30 13874 H 1340.06 0.636126 -0.380032 0
M  V30 13875 H 1342.71 1.17151 -1.51485 0
M  V30 13876 H 1341.01 3.75044 -1.13356 0
M  V30 13877 H 1342.71 3.70962 -1.52277 0
M  V30 13878 H 1339.3 3.19234 -2.85986 0
M  V30 13879 H 1343.48 3.14487 -3.83942 0
M  V30 13880 H 1338.74 3.12915 -5.25256 0
M  V30 13881 H 1342.91 3.09339 -6.23925 0
M  V30 13882 H 1340.54 3.0809 -6.94971 0
M  V30 13883 N 1342.11 1.02678 1.19562 0
M  V30 13884 C 1343.36 0.72059 1.88817 0
M  V30 13885 C 1343.68 -0.752942 1.79877 0
M  V30 13886 O 1342.95 -1.54233 1.20785 0
M  V30 13887 H 1341.53 0.26355 0.698964 0
M  V30 13888 H 1344.2 1.30056 1.4516 0
M  V30 13889 H 1343.29 1.01303 2.95202 0
M  V30 13890 N 1343.59 -1.35528 0.804364 0
M  V30 13891 C 1344.87 -1.93175 0.307049 0
M  V30 13892 C 1345.25 -1.73466 -1.20303 0
M  V30 13893 O 1344.6 -1.10235 -2.00151 0
M  V30 13894 C 1344.81 -3.41576 0.716018 0
M  V30 13895 C 1346.16 -4.18719 0.704242 0
M  V30 13896 O 1347.18 -3.50081 0.657423 0
M  V30 13897 O 1346.04 -5.41181 0.760601 0
M  V30 13898 H 1343.13 -0.823142 0.0797888 0
M  V30 13899 H 1345.68 -1.44617 0.887912 0
M  V30 13900 H 1344.45 -3.49642 1.75688 0
M  V30 13901 H 1344.07 -3.97448 0.109843 0
M  V30 13902 N 1345.07 -0.557671 -1.47404 0
M  V30 13903 C 1346.02 0.202834 -2.31714 0
M  V30 13904 C 1347.01 0.908873 -1.42954 0
M  V30 13905 O 1348.22 0.830106 -1.59716 0
M  V30 13906 H 1344.59 0.0842824 -0.747262 0
M  V30 13907 H 1346.57 -0.527431 -2.93702 0
M  V30 13908 C 1345.31 1.21937 -3.25617 0
M  V30 13909 H 1344.64 0.685506 -3.93879 0
M  V30 13910 H 1346.08 1.72237 -3.87441 0
M  V30 13911 C 1344.54 2.26748 -2.49173 0
M  V30 13912 O 1345.07 3.33681 -2.23651 0
M  V30 13913 N 1343.27 2.00687 -2.10174 0
M  V30 13914 H 1342.82 1.13741 -2.3113 0
M  V30 13915 H 1342.78 2.71031 -1.59342 0
M  V30 13916 N 1346.55 1.54831 -0.294147 0
M  V30 13917 C 1347.5 2.24707 0.600795 0
M  V30 13918 C 1348.49 1.25067 1.14257 0
M  V30 13919 O 1349.7 1.42939 1.094 0
M  V30 13920 H 1346.07 0.721399 0.212338 0
M  V30 13921 H 1348.04 2.98398 -0.0111682 0
M  V30 13922 C 1346.79 2.996 1.76451 0
M  V30 13923 H 1346.12 3.76072 1.35684 0
M  V30 13924 H 1347.56 3.51785 2.36692 0
M  V30 13925 C 1346.01 2.0617 2.6645 0
M  V30 13926 O 1346.54 1.62527 3.67353 0
M  V30 13927 N 1344.75 1.7227 2.34033 0
M  V30 13928 H 1344.3 2.07957 1.52025 0
M  V30 13929 H 1344.26 1.10031 2.94518 0
M  V30 13930 N 1348.03 0.0217466 1.57585 0
M  V30 13931 C 1349.26 -0.667911 1.95506 0
M  V30 13932 C 1349.67 -1.66616 0.89642 0
M  V30 13933 O 1349.01 -1.83232 -0.131059 0
M  V30 13934 C 1349.07 -1.43696 3.29533 0
M  V30 13935 C 1348.73 -0.59787 4.53072 0
M  V30 13936 C 1349.73 0.12372 5.19753 0
M  V30 13937 C 1347.42 -0.53744 4.99417 0
M  V30 13938 C 1349.41 0.894491 6.31092 0
M  V30 13939 C 1347.1 0.237041 6.1064 0
M  V30 13940 C 1348.1 0.95172 6.76337 0
M  V30 13941 O 1347.78 1.71352 7.85426 0
M  V30 13942 H 1347.52 -0.189544 0.648883 0
M  V30 13943 H 1350.07 0.0755682 2.05261 0
M  V30 13944 H 1348.3 -2.22541 3.16247 0
M  V30 13945 H 1349.99 -2.01402 3.52409 0
M  V30 13946 H 1350.75 0.0863208 4.84923 0
M  V30 13947 H 1346.63 -1.08327 4.48092 0
M  V30 13948 H 1350.18 1.45285 6.82304 0
M  V30 13949 H 1346.07 0.276183 6.44909 0
M  V30 13950 H 1346.84 1.63252 8.02054 0
M  V30 13951 N 1349.51 -1.55583 -0.251311 0
M  V30 13952 C 1350.92 -1.67693 -0.820719 0
M  V30 13953 C 1351.27 -0.618393 -1.862 0
M  V30 13954 O 1350.39 0.236158 -2.15108 0
M  V30 13955 C 1350.99 -3.04011 -1.49542 0
M  V30 13956 C 1349.55 -3.18075 -2.01259 0
M  V30 13957 C 1348.69 -2.63557 -0.862138 0
M  V30 13958 H 1351.64 -1.58677 -0.0272072 0
M  V30 13959 H 1351.67 -2.9821 -2.36328 0
M  V30 13960 H 1351.18 -3.81032 -0.737323 0
M  V30 13961 H 1349.28 -2.45869 -2.79963 0
M  V30 13962 H 1349.39 -4.24927 -2.213 0
M  V30 13963 H 1347.76 -2.21268 -1.26145 0
M  V30 13964 H 1348.54 -3.431 -0.117196 0
M  V30 13965 N 1350.98 0.516783 -1.48886 0
M  V30 13966 C 1352.21 1.30103 -1.61518 0
M  V30 13967 C 1352.63 1.85996 -0.28055 0
M  V30 13968 O 1351.99 1.65075 0.749671 0
M  V30 13969 C 1352.04 2.41837 -2.67483 0
M  V30 13970 O 1351.14 3.45249 -2.25559 0
M  V30 13971 H 1350.48 0.384774 -0.541152 0
M  V30 13972 H 1353.01 0.620424 -1.94966 0
M  V30 13973 H 1353.02 2.87832 -2.89165 0
M  V30 13974 H 1351.7 2.00519 -3.64369 0
M  V30 13975 H 1350.28 3.05281 -2.14144 0
M  V30 13976 N 1352.46 1.37696 0.766659 0
M  V30 13977 C 1353.37 1.36075 1.91104 0
M  V30 13978 C 1354.39 0.259617 1.72052 0
M  V30 13979 O 1355.56 0.49586 1.952 0
M  V30 13980 C 1352.63 1.17176 3.26298 0
M  V30 13981 C 1351.69 2.36975 3.57968 0
M  V30 13982 C 1350.92 2.18968 4.86712 0
M  V30 13983 O 1351.15 1.17658 5.58133 0
M  V30 13984 O 1350.08 3.07269 5.17561 0
M  V30 13985 H 1353.91 2.32472 1.95424 0
M  V30 13986 H 1351.49 1.18478 0.910122 0
M  V30 13987 H 1353.37 1.08645 4.07154 0
M  V30 13988 H 1352.05 0.238559 3.2282 0
M  V30 13989 H 1350.95 2.51079 2.77327 0
M  V30 13990 H 1352.29 3.2888 3.66195 0
M  V30 13991 N 1353.94 -0.993397 1.22349 0
M  V30 13992 C 1354.9 -2.065 0.994506 0
M  V30 13993 C 1355.9 -1.60753 -0.0388766 0
M  V30 13994 O 1357.09 -1.73053 0.199578 0
M  V30 13995 C 1354.22 -3.37182 0.502088 0
M  V30 13996 H 1355.42 -2.28248 1.94533 0
M  V30 13997 H 1352.97 -1.16489 1.04211 0
M  V30 13998 H 1353.71 -3.21119 -0.453114 0
M  V30 13999 H 1353.49 -3.71721 1.24763 0
M  V30 14000 H 1354.98 -4.16027 0.362108 0
M  V30 14001 N 1355.42 -1.03311 -1.19015 0
M  V30 14002 C 1356.83 -0.750946 -1.4083 0
M  V30 14003 C 1357.03 0.662704 -1.90291 0
M  V30 14004 O 1356.09 1.42806 -2.08237 0
M  V30 14005 C 1357.4 -1.79064 -2.41571 0
M  V30 14006 C 1358.95 -1.81068 -2.55311 0
M  V30 14007 C 1359.43 -2.84008 -3.59309 0
M  V30 14008 N 1360.92 -2.82852 -3.6681 0
M  V30 14009 C 1361.65 -3.59156 -4.46984 0
M  V30 14010 N 1361.15 -4.45188 -5.30829 0
M  V30 14011 N 1362.94 -3.47679 -4.41674 0
M  V30 14012 H 1355.09 -1.94548 -0.852329 0
M  V30 14013 H 1357.35 -0.841344 -0.436858 0
M  V30 14014 H 1357.06 -2.80425 -2.12261 0
M  V30 14015 H 1356.93 -1.61646 -3.40809 0
M  V30 14016 H 1359.32 -0.803825 -2.83941 0
M  V30 14017 H 1359.4 -2.02562 -1.56212 0
M  V30 14018 H 1359.05 -3.84867 -3.3142 0
M  V30 14019 H 1358.98 -2.59771 -4.58069 0
M  V30 14020 H 1361.47 -2.20457 -3.06932 0
M  V30 14021 H 1361.78 -5.00139 -5.89135 0
M  V30 14022 H 1360.13 -4.49259 -5.30275 0
M  V30 14023 H 1363.32 -2.79876 -3.75216 0
M  V30 14024 H 1363.49 -4.07396 -5.03917 0
M  V30 14025 N 1356.9 1.35099 -0.81154 0
M  V30 14026 C 1358.14 2.00449 -0.399935 0
M  V30 14027 C 1358.5 1.62971 1.0151 0
M  V30 14028 O 1359.7 2.21078 1.52898 0
M  V30 14029 C 1357.97 3.52608 -0.583277 0
M  V30 14030 S 1359.53 4.38012 -0.26283 0
M  V30 14031 H 1356.35 0.69464 -0.151644 0
M  V30 14032 H 1358.95 1.64599 -1.05487 0
M  V30 14033 H 1357.65 3.77372 -1.61303 0
M  V30 14034 H 1357.19 3.93304 0.0868032 0
M  V30 14035 H 1359.2 4.87451 0.927696 0
M  V30 14036 N 1358.37 0.56548 1.47106 0
M  V30 14037 C 1359.65 -0.0215358 1.95588 0
M  V30 14038 C 1360.03 -1.47712 1.50813 0
M  V30 14039 O 1359.38 -2.15814 0.750776 0
M  V30 14040 C 1359.59 0.132552 3.48748 0
M  V30 14041 C 1360.94 -0.00853591 4.24599 0
M  V30 14042 O 1361.96 0.0605142 3.56149 0
M  V30 14043 O 1360.82 -0.158519 5.4627 0
M  V30 14044 H 1357.91 -0.0595011 0.824857 0
M  V30 14045 H 1360.46 0.632586 1.57469 0
M  V30 14046 H 1359.23 1.14511 3.7417 0
M  V30 14047 H 1358.85 -0.558801 3.93654 0
M  V30 14048 N 1359.85 -1.54672 0.302354 0
M  V30 14049 C 1361.1 -2.01178 -0.299842 0
M  V30 14050 C 1361.45 -1.18698 -1.51422 0
M  V30 14051 O 1360.75 -0.255677 -1.89886 0
M  V30 14052 C 1360.94 -3.5035 -0.70638 0
M  V30 14053 C 1360.77 -4.47268 0.467051 0
M  V30 14054 C 1359.54 -4.96107 0.959494 0
M  V30 14055 C 1361.74 -4.97272 1.31245 0
M  V30 14056 N 1359.72 -5.76881 2.09955 0
M  V30 14057 C 1361.09 -5.75761 2.29997 0
M  V30 14058 C 1363.15 -4.79455 1.34267 0
M  V30 14059 C 1361.85 -6.38332 3.31549 0
M  V30 14060 C 1363.87 -5.42845 2.34677 0
M  V30 14061 C 1363.24 -6.21168 3.32159 0
M  V30 14062 H 1359.34 -0.778477 -0.0741425 0
M  V30 14063 H 1361.92 -1.89834 0.432577 0
M  V30 14064 H 1360.09 -3.61982 -1.40797 0
M  V30 14065 H 1361.82 -3.83649 -1.28823 0
M  V30 14066 H 1358.58 -4.70577 0.534246 0
M  V30 14067 H 1359 -6.21953 2.67401 0
M  V30 14068 H 1363.64 -4.18482 0.602738 0
M  V30 14069 H 1361.36 -6.98438 4.0646 0
M  V30 14070 H 1364.95 -5.30987 2.37791 0
M  V30 14071 H 1363.83 -6.69349 4.08584 0
M  V30 14072 N 1361.33 -0.0301034 -1.57571 0
M  V30 14073 C 1362.58 0.649283 -1.92125 0
M  V30 14074 C 1362.91 1.71722 -0.90692 0
M  V30 14075 O 1362.18 1.94373 0.0702019 0
M  V30 14076 C 1362.47 1.26482 -3.37156 0
M  V30 14077 C 1362.32 0.206375 -4.49326 0
M  V30 14078 C 1363.64 2.18256 -3.82168 0
M  V30 14079 H 1360.76 0.234561 -0.698678 0
M  V30 14080 H 1363.4 -0.0875634 -1.89798 0
M  V30 14081 H 1361.55 1.89283 -3.3927 0
M  V30 14082 H 1363.22 -0.424268 -4.59345 0
M  V30 14083 H 1361.47 -0.468035 -4.31268 0
M  V30 14084 H 1362.14 0.676689 -5.47837 0
M  V30 14085 H 1364.61 1.65441 -3.81797 0
M  V30 14086 H 1363.49 2.58277 -4.84339 0
M  V30 14087 H 1363.75 3.07411 -3.17727 0
M  V30 14088 N 1362.81 1.55714 0.243056 0
M  V30 14089 C 1364.06 1.76927 0.96849 0
M  V30 14090 C 1364.37 0.594748 1.86339 0
M  V30 14091 O 1365.58 0.689981 2.62586 0
M  V30 14092 C 1364.03 3.13246 1.77214 0
M  V30 14093 C 1363.64 4.38358 0.92444 0
M  V30 14094 C 1365.38 3.43796 2.49007 0
M  V30 14095 C 1363.29 5.65708 1.7242 0
M  V30 14096 H 1362.22 0.659574 0.365346 0
M  V30 14097 H 1364.87 1.8214 0.223026 0
M  V30 14098 H 1363.25 3.02151 2.5597 0
M  V30 14099 H 1364.43 4.60452 0.178936 0
M  V30 14100 H 1362.74 4.15171 0.319653 0
M  V30 14101 H 1365.34 4.3616 3.09303 0
M  V30 14102 H 1365.68 2.65297 3.20817 0
M  V30 14103 H 1366.22 3.56124 1.77259 0
M  V30 14104 H 1362.96 6.47039 1.04978 0
M  V30 14105 H 1362.48 5.4771 2.44488 0
M  V30 14106 H 1364.15 6.05105 2.29036 0
M  V30 14107 N 1364.29 -0.50888 1.49158 0
M  V30 14108 C 1365.53 -1.26537 1.58481 0
M  V30 14109 C 1365.87 -1.92353 0.267168 0
M  V30 14110 O 1365.14 -1.80336 -0.728639 0
M  V30 14111 C 1365.42 -2.33846 2.73839 0
M  V30 14112 C 1365.28 -1.72582 4.15374 0
M  V30 14113 C 1366.6 -3.35467 2.84868 0
M  V30 14114 H 1363.71 -0.458697 0.576859 0
M  V30 14115 H 1366.36 -0.564728 1.81413 0
M  V30 14116 H 1364.51 -2.93605 2.54417 0
M  V30 14117 H 1366.18 -1.16711 4.46292 0
M  V30 14118 H 1364.42 -1.03025 4.21389 0
M  V30 14119 H 1365.09 -2.5038 4.91949 0
M  V30 14120 H 1367.57 -2.85689 3.02524 0
M  V30 14121 H 1366.44 -4.07922 3.67275 0
M  V30 14122 H 1366.71 -3.97313 1.93894 0
M  V30 14123 N 1365.76 -1.381 -0.759346 0
M  V30 14124 C 1366.73 -1.34674 -1.8546 0
M  V30 14125 C 1367.73 -0.248351 -1.58871 0
M  V30 14126 O 1368.92 -0.504915 -1.66722 0
M  V30 14127 C 1366.05 -1.0952 -3.22828 0
M  V30 14128 H 1367.24 -2.3211 -1.89908 0
M  V30 14129 H 1364.8 -1.2331 -0.960435 0
M  V30 14130 H 1365.53 -0.126664 -3.24053 0
M  V30 14131 H 1365.32 -1.89037 -3.43522 0
M  V30 14132 H 1366.81 -1.09804 -4.02906 0
M  V30 14133 N 1367.24 0.986894 -1.22875 0
M  V30 14134 C 1368.15 2.11232 -1.02069 0
M  V30 14135 C 1369.17 1.73969 0.0328424 0
M  V30 14136 O 1370.34 2.00754 -0.161197 0
M  V30 14137 C 1367.41 3.41337 -0.60747 0
M  V30 14138 C 1366.47 3.92665 -1.73531 0
M  V30 14139 C 1365.7 5.1656 -1.34171 0
M  V30 14140 O 1365.93 5.69964 -0.223106 0
M  V30 14141 O 1364.86 5.61791 -2.16041 0
M  V30 14142 H 1368.69 2.3167 -1.96374 0
M  V30 14143 H 1366.27 1.09607 -1.01522 0
M  V30 14144 H 1368.15 4.19613 -0.387661 0
M  V30 14145 H 1366.83 3.22244 0.306653 0
M  V30 14146 H 1365.74 3.15534 -2.0097 0
M  V30 14147 H 1367.07 4.162 -2.62751 0
M  V30 14148 N 1368.72 1.0394 1.18466 0
M  V30 14149 C 1370 0.65632 1.8426 0
M  V30 14150 C 1370.38 -0.864288 1.92596 0
M  V30 14151 O 1369.73 -1.76524 1.45092 0
M  V30 14152 C 1369.94 1.33067 3.22636 0
M  V30 14153 C 1371.28 1.46065 3.98686 0
M  V30 14154 O 1372.31 1.28867 3.32072 0
M  V30 14155 O 1371.17 1.74078 5.18034 0
M  V30 14156 H 1368.26 0.229484 0.794523 0
M  V30 14157 H 1370.81 1.13821 1.25868 0
M  V30 14158 H 1369.58 2.36866 3.11465 0
M  V30 14159 H 1369.2 0.837313 3.88683 0
M  V30 14160 N 1370.2 -1.34667 0.818693 0
M  V30 14161 C 1371.45 -1.98022 0.40396 0
M  V30 14162 C 1371.77 -1.65239 -1.03542 0
M  V30 14163 O 1371.04 -0.94097 -1.71821 0
M  V30 14164 H 1369.62 -0.732517 0.146382 0
M  V30 14165 H 1372.28 -1.64377 1.0472 0
M  V30 14166 H 1371.38 -3.07746 0.519516 0
M  V30 14167 N 1371.68 -0.573274 -1.46804 0
M  V30 14168 C 1372.91 -0.0605105 -2.06511 0
M  V30 14169 C 1373.31 1.24572 -1.42403 0
M  V30 14170 O 1372.66 1.76182 -0.520168 0
M  V30 14171 C 1372.72 0.189394 -3.59001 0
M  V30 14172 C 1372.38 -1.02981 -4.45246 0
M  V30 14173 C 1373.38 -1.93948 -4.82369 0
M  V30 14174 C 1371.07 -1.249 -4.86524 0
M  V30 14175 C 1373.06 -3.0519 -5.59587 0
M  V30 14176 C 1370.75 -2.36449 -5.63503 0
M  V30 14177 C 1371.74 -3.26424 -5.99947 0
M  V30 14178 O 1371.43 -4.36037 -6.75372 0
M  V30 14179 H 1371.16 -0.0501758 -0.674135 0
M  V30 14180 H 1373.72 -0.790951 -1.8956 0
M  V30 14181 H 1371.95 0.974337 -3.74224 0
M  V30 14182 H 1373.64 0.649506 -4.0067 0
M  V30 14183 H 1374.4 -1.78226 -4.51066 0
M  V30 14184 H 1370.28 -0.55779 -4.57613 0
M  V30 14185 H 1373.83 -3.75444 -5.87952 0
M  V30 14186 H 1369.72 -2.52138 -5.94219 0
M  V30 14187 H 1370.49 -4.34285 -6.93786 0
M  V30 14188 N 1373.15 1.5451 -0.310553 0
M  V30 14189 C 1374.4 1.99931 0.29532 0
M  V30 14190 C 1374.72 1.20042 1.53672 0
M  V30 14191 O 1373.99 0.298841 1.93607 0
M  V30 14192 H 1372.57 0.738539 0.112111 0
M  V30 14193 H 1375.24 1.9023 -0.424092 0
M  V30 14194 H 1374.33 3.07021 0.560749 0
M  V30 14195 N 1374.63 0.0384594 1.57553 0
M  V30 14196 C 1375.88 -0.639085 1.92467 0
M  V30 14197 C 1376.21 -1.71239 0.916014 0
M  V30 14198 O 1375.49 -1.94408 -0.0598928 0
M  V30 14199 C 1375.77 -1.24693 3.37822 0
M  V30 14200 C 1375.62 -0.182544 4.49429 0
M  V30 14201 C 1376.94 -2.16226 3.8332 0
M  V30 14202 H 1374.06 -0.230852 0.699912 0
M  V30 14203 H 1376.7 0.0976276 1.89749 0
M  V30 14204 H 1374.85 -1.87481 3.40269 0
M  V30 14205 H 1376.53 0.448622 4.59113 0
M  V30 14206 H 1374.77 0.4909 4.31013 0
M  V30 14207 H 1375.44 -0.647626 5.48188 0
M  V30 14208 H 1377.92 -1.63413 3.82669 0
M  V30 14209 H 1376.79 -2.55705 4.85702 0
M  V30 14210 H 1377.05 -3.05722 3.19353 0
M  V30 14211 N 1376.11 -1.55841 -0.234795 0
M  V30 14212 C 1377.02 -1.94476 -1.31211 0
M  V30 14213 C 1378.04 -0.846782 -1.52005 0
M  V30 14214 O 1379.21 -1.14922 -1.65393 0
M  V30 14215 C 1376.28 -2.24213 -2.64442 0
M  V30 14216 C 1375.34 -3.47508 -2.52065 0
M  V30 14217 C 1374.57 -3.75817 -3.78942 0
M  V30 14218 O 1374.8 -3.06007 -4.81369 0
M  V30 14219 O 1373.73 -4.69328 -3.76848 0
M  V30 14220 H 1377.56 -2.8626 -1.01434 0
M  V30 14221 H 1375.14 -1.42879 -0.436563 0
M  V30 14222 H 1377.02 -2.44594 -3.4315 0
M  V30 14223 H 1375.7 -1.35605 -2.93927 0
M  V30 14224 H 1374.6 -3.32421 -1.71602 0
M  V30 14225 H 1375.94 -4.36457 -2.27523 0
M  V30 14226 N 1377.59 0.500963 -1.49426 0
M  V30 14227 C 1378.52 1.61114 -1.69011 0
M  V30 14228 C 1379.5 1.61341 -0.538813 0
M  V30 14229 O 1380.69 1.78081 -0.77466 0
M  V30 14230 C 1377.82 2.99598 -1.75666 0
M  V30 14231 C 1376.77 3.14236 -2.90585 0
M  V30 14232 C 1376.1 4.54071 -2.82354 0
M  V30 14233 C 1377.4 2.94258 -4.3152 0
M  V30 14234 H 1379.09 1.44978 -2.61957 0
M  V30 14235 H 1376.64 0.69603 -1.26061 0
M  V30 14236 H 1378.59 3.77163 -1.87953 0
M  V30 14237 H 1377.31 3.16822 -0.793186 0
M  V30 14238 H 1375.97 2.39096 -2.779 0
M  V30 14239 H 1375.62 4.68172 -1.83914 0
M  V30 14240 H 1375.32 4.64806 -3.59485 0
M  V30 14241 H 1376.84 5.33696 -2.96649 0
M  V30 14242 H 1378.26 3.61592 -4.44886 0
M  V30 14243 H 1376.65 3.16464 -5.09873 0
M  V30 14244 H 1377.72 1.90383 -4.45962 0
M  V30 14245 N 1379.07 1.38501 0.752011 0
M  V30 14246 C 1380.3 1.38032 1.54125 0
M  V30 14247 C 1380.71 -0.0295066 1.88777 0
M  V30 14248 O 1380.07 -0.996522 1.52891 0
M  V30 14249 C 1380.12 2.23741 2.83941 0
M  V30 14250 O 1379.84 3.59232 2.50767 0
M  V30 14251 C 1381.34 2.31469 3.7807 0
M  V30 14252 H 1378.56 0.472077 0.476848 0
M  V30 14253 H 1381.1 1.82101 0.930572 0
M  V30 14254 H 1379.26 1.8313 3.41383 0
M  V30 14255 H 1379.67 4.04376 3.34036 0
M  V30 14256 H 1381.15 2.95722 4.66103 0
M  V30 14257 H 1381.62 1.32882 4.18616 0
M  V30 14258 H 1382.23 2.72477 3.26552 0
M  V30 14259 N 1380.55 -0.980364 1.23396 0
M  V30 14260 C 1381.79 -1.72166 1.06607 0
M  V30 14261 C 1382.12 -1.90405 -0.397029 0
M  V30 14262 O 1381.38 -1.45363 -1.31027 0
M  V30 14263 C 1381.67 -3.12367 1.73671 0
M  V30 14264 C 1381.34 -3.14007 3.2359 0
M  V30 14265 C 1380 -3.14162 3.64494 0
M  V30 14266 C 1382.35 -3.09319 4.19489 0
M  V30 14267 C 1379.68 -3.07345 4.99756 0
M  V30 14268 C 1382.03 -3.04044 5.54743 0
M  V30 14269 C 1380.7 -3.02521 5.9501 0
M  V30 14270 H 1379.97 -0.63 0.390104 0
M  V30 14271 H 1382.62 -1.14727 1.5333 0
M  V30 14272 H 1380.92 -3.73193 1.19308 0
M  V30 14273 H 1382.62 -3.68493 1.58159 0
M  V30 14274 H 1379.21 -3.14644 2.91028 0
M  V30 14275 H 1383.39 -3.08339 3.88897 0
M  V30 14276 H 1378.65 -3.04519 5.30168 0
M  V30 14277 H 1382.82 -2.99374 6.28767 0
M  V30 14278 H 1380.45 -2.96994 6.99785 0
M  V30 14279 N 1382.02 -1.04567 -1.17913 0
M  V30 14280 C 1383.44 -0.76584 -1.40025 0
M  V30 14281 C 1383.64 0.642484 -1.90983 0
M  V30 14282 O 1382.7 1.40589 -2.0974 0
M  V30 14283 C 1384.01 -1.81616 -2.39658 0
M  V30 14284 C 1385.56 -1.83765 -2.53376 0
M  V30 14285 C 1386.03 -2.87803 -3.56277 0
M  V30 14286 N 1387.52 -2.86726 -3.63789 0
M  V30 14287 C 1388.26 -3.63876 -4.4315 0
M  V30 14288 N 1387.75 -4.50793 -5.26077 0
M  V30 14289 N 1389.55 -3.52344 -4.37962 0
M  V30 14290 H 1381.7 -1.95442 -0.831647 0
M  V30 14291 H 1383.96 -0.84593 -0.42791 0
M  V30 14292 H 1383.67 -2.8266 -2.09275 0
M  V30 14293 H 1383.54 -1.65251 -3.39075 0
M  V30 14294 H 1385.93 -0.833896 -2.83073 0
M  V30 14295 H 1386.01 -2.04208 -1.54055 0
M  V30 14296 H 1385.65 -3.88361 -3.2732 0
M  V30 14297 H 1385.58 -2.64614 -4.55288 0
M  V30 14298 H 1388.07 -2.237 -3.04576 0
M  V30 14299 H 1388.39 -5.0636 -5.83798 0
M  V30 14300 H 1386.73 -4.54858 -5.2548 0
M  V30 14301 H 1389.92 -2.8384 -3.72226 0
M  V30 14302 H 1390.1 -4.12718 -4.99568 0
M  V30 14303 N 1383.5 1.34231 -0.825823 0
M  V30 14304 C 1384.73 2.02417 -0.428348 0
M  V30 14305 C 1385.14 1.62181 0.966573 0
M  V30 14306 O 1384.5 0.828691 1.62601 0
M  V30 14307 C 1384.55 3.57678 -0.524271 0
M  V30 14308 O 1384.27 3.96458 -1.86422 0
M  V30 14309 C 1385.77 4.43132 -0.122069 0
M  V30 14310 H 1382.99 0.648699 -0.171554 0
M  V30 14311 H 1385.54 1.71443 -1.11478 0
M  V30 14312 H 1383.69 3.87232 0.114112 0
M  V30 14313 H 1384.11 4.91147 -1.84051 0
M  V30 14314 H 1385.58 5.51477 -0.240264 0
M  V30 14315 H 1386.06 4.29139 0.934705 0
M  V30 14316 H 1386.66 4.18912 -0.734366 0
M  V30 14317 N 1384.98 0.581051 1.46498 0
M  V30 14318 C 1386.23 0.0659956 2.02392 0
M  V30 14319 C 1386.55 -1.29329 1.45273 0
M  V30 14320 O 1385.81 -1.86047 0.607041 0
M  V30 14321 C 1386.11 -0.0514774 3.57363 0
M  V30 14322 C 1385.77 1.24 4.33514 0
M  V30 14323 C 1384.44 1.59383 4.54038 0
M  V30 14324 C 1386.79 2.09473 4.77253 0
M  V30 14325 C 1384.12 2.8004 5.15552 0
M  V30 14326 C 1386.47 3.29355 5.401 0
M  V30 14327 C 1385.13 3.65022 5.58852 0
M  V30 14328 H 1384.4 0.0241495 0.740606 0
M  V30 14329 H 1387.05 0.757354 1.75887 0
M  V30 14330 H 1385.35 -0.825955 3.82995 0
M  V30 14331 H 1387.05 -0.465726 3.98286 0
M  V30 14332 H 1383.64 0.954547 4.17835 0
M  V30 14333 H 1387.83 1.83441 4.61154 0
M  V30 14334 H 1383.08 3.07814 5.28262 0
M  V30 14335 H 1387.26 3.95855 5.7295 0
M  V30 14336 H 1384.88 4.58607 6.06287 0
M  V30 14337 N 1386.46 -1.54343 0.318742 0
M  V30 14338 C 1387.37 -2.27856 -0.558442 0
M  V30 14339 C 1388.38 -1.32029 -1.13333 0
M  V30 14340 O 1389.56 -1.65037 -1.15433 0
M  V30 14341 C 1386.62 -3.01842 -1.70565 0
M  V30 14342 C 1385.69 -4.13245 -1.16305 0
M  V30 14343 C 1384.92 -4.83693 -2.25559 0
M  V30 14344 O 1385.14 -4.53621 -3.4581 0
M  V30 14345 O 1384.08 -5.70708 -1.91249 0
M  V30 14346 H 1387.9 -3.03676 0.0384247 0
M  V30 14347 H 1385.49 -1.4916 0.0845936 0
M  V30 14348 H 1387.37 -3.48189 -2.37365 0
M  V30 14349 H 1386.04 -2.28902 -2.28879 0
M  V30 14350 H 1384.95 -3.71258 -0.460274 0
M  V30 14351 H 1386.28 -4.88214 -0.625111 0
M  V30 14352 N 1387.94 -0.0468143 -1.5753 0
M  V30 14353 C 1389.18 0.628869 -1.92803 0
M  V30 14354 C 1389.51 1.70751 -0.925083 0
M  V30 14355 O 1388.79 1.94437 0.0495821 0
M  V30 14356 C 1389.07 1.22899 -3.38479 0
M  V30 14357 C 1388.93 0.158707 -4.4952 0
M  V30 14358 C 1390.24 2.1419 -3.84461 0
M  V30 14359 H 1387.36 0.227137 -0.701126 0
M  V30 14360 H 1390.01 -0.107689 -1.89695 0
M  V30 14361 H 1388.16 1.85674 -3.41259 0
M  V30 14362 H 1389.83 -0.472963 -4.58869 0
M  V30 14363 H 1388.07 -0.51375 -4.30747 0
M  V30 14364 H 1388.74 0.618545 -5.48523 0
M  V30 14365 H 1391.22 1.61382 -3.8353 0
M  V30 14366 H 1390.09 2.53125 -4.87051 0
M  V30 14367 H 1390.35 3.04024 -3.2097 0
M  V30 14368 N 1389.41 1.55964 0.226527 0
M  V30 14369 C 1390.32 1.95169 1.30178 0
M  V30 14370 C 1391.34 0.854831 1.51554 0
M  V30 14371 O 1392.52 1.15798 1.64781 0
M  V30 14372 C 1389.58 2.25612 2.63249 0
M  V30 14373 C 1388.64 3.4884 2.50219 0
M  V30 14374 C 1387.88 3.77822 3.76944 0
M  V30 14375 O 1388.1 3.08556 4.79739 0
M  V30 14376 O 1387.03 4.7132 3.74354 0
M  V30 14377 H 1390.86 2.86794 0.999145 0
M  V30 14378 H 1388.44 1.43109 0.42898 0
M  V30 14379 H 1390.33 2.4641 3.41848 0
M  V30 14380 H 1389 1.37162 2.93203 0
M  V30 14381 H 1387.91 3.33326 1.69836 0
M  V30 14382 H 1389.24 4.37657 2.25205 0
M  V30 14383 N 1390.89 -0.493031 1.4969 0
M  V30 14384 C 1391.8 -1.61991 1.69694 0
M  V30 14385 C 1392.82 -1.64061 0.579641 0
M  V30 14386 O 1393.99 -1.82335 0.855323 0
M  V30 14387 C 1391.06 -2.98323 1.76648 0
M  V30 14388 C 1390.12 -3.06816 3.00271 0
M  V30 14389 C 1389.35 -4.36644 3.06883 0
M  V30 14390 O 1389.58 -5.25901 2.20872 0
M  V30 14391 O 1388.51 -4.50275 3.99419 0
M  V30 14392 H 1392.34 -1.48042 2.65174 0
M  V30 14393 H 1389.92 -0.670182 1.33525 0
M  V30 14394 H 1391.8 -3.79335 1.83529 0
M  V30 14395 H 1390.48 -3.12517 0.843482 0
M  V30 14396 H 1389.39 -2.24962 2.98903 0
M  V30 14397 H 1390.72 -2.97551 3.92077 0
M  V30 14398 N 1392.37 -1.38898 -0.744656 0
M  V30 14399 C 1393.28 -1.39098 -1.88915 0
M  V30 14400 C 1394.3 -0.286956 -1.71617 0
M  V30 14401 O 1395.47 -0.526852 -1.94387 0
M  V30 14402 C 1392.54 -1.22352 -3.24393 0
M  V30 14403 C 1391.6 -2.4264 -3.54153 0
M  V30 14404 C 1390.83 -2.26683 -4.83167 0
M  V30 14405 O 1391.05 -1.26523 -5.56191 0
M  V30 14406 O 1389.99 -3.15464 -5.12607 0
M  V30 14407 H 1393.81 -2.35551 -1.91701 0
M  V30 14408 H 1391.4 -1.19911 -0.891158 0
M  V30 14409 H 1393.28 -1.15109 -4.05374 0
M  V30 14410 H 1391.96 -0.289886 -3.22399 0
M  V30 14411 H 1390.86 -2.55459 -2.73298 0
M  V30 14412 H 1392.2 -3.34664 -3.60917 0
M  V30 14413 N 1393.85 0.973806 -1.23914 0
M  V30 14414 C 1394.81 2.04892 -1.02723 0
M  V30 14415 C 1395.81 1.60795 0.0132972 0
M  V30 14416 O 1397 1.72714 -0.227084 0
M  V30 14417 C 1394.13 3.36341 -0.555667 0
M  V30 14418 H 1395.33 2.25124 -1.98139 0
M  V30 14419 H 1392.88 1.14817 -1.06051 0
M  V30 14420 H 1393.61 3.21799 0.40197 0
M  V30 14421 H 1393.4 3.69689 -1.30661 0
M  V30 14422 H 1394.89 4.15398 -0.428248 0
M  V30 14423 N 1395.33 1.05191 1.17357 0
M  V30 14424 C 1396.6 0.675826 1.83554 0
M  V30 14425 C 1396.98 -0.843812 1.93502 0
M  V30 14426 O 1396.33 -1.74975 1.46956 0
M  V30 14427 C 1396.54 1.36481 3.21207 0
M  V30 14428 C 1397.89 1.50285 3.97114 0
M  V30 14429 O 1398.91 1.32382 3.30686 0
M  V30 14430 O 1397.77 1.79562 5.16159 0
M  V30 14431 H 1394.87 0.237898 0.792044 0
M  V30 14432 H 1397.41 1.1515 1.24654 0
M  V30 14433 H 1396.18 2.40156 3.08935 0
M  V30 14434 H 1395.81 0.878491 3.87774 0
M  V30 14435 N 1396.8 -1.33791 0.83293 0
M  V30 14436 C 1398.04 -1.99788 0.431774 0
M  V30 14437 C 1398.41 -1.64566 -0.989046 0
M  V30 14438 O 1399.61 -2.23483 -1.49361 0
M  V30 14439 C 1397.88 -3.51636 0.6393 0
M  V30 14440 S 1399.44 -4.37539 0.332481 0
M  V30 14441 H 1396.26 -0.69214 0.162676 0
M  V30 14442 H 1398.86 -1.629 1.08092 0
M  V30 14443 H 1397.56 -3.74758 1.67286 0
M  V30 14444 H 1397.09 -3.93393 -0.024221 0
M  V30 14445 H 1399.11 -4.88865 -0.850029 0
M  V30 14446 N 1398.28 -0.588812 -1.46187 0
M  V30 14447 C 1399.53 -0.0765765 -2.01955 0
M  V30 14448 C 1399.85 1.29034 -1.46203 0
M  V30 14449 O 1399.12 1.84836 -0.649044 0
M  V30 14450 H 1397.7 -0.025318 -0.746571 0
M  V30 14451 H 1400.36 -0.765971 -1.79217 0
M  V30 14452 H 1399.46 -0.0121702 -3.12098 0
M  V30 14453 N 1399.76 1.54172 -0.326923 0
M  V30 14454 C 1400.99 2.04747 0.276107 0
M  V30 14455 C 1401.4 1.20251 1.4607 0
M  V30 14456 O 1400.74 0.226753 1.82295 0
M  V30 14457 C 1400.8 3.51143 0.770651 0
M  V30 14458 C 1400.47 4.56066 -0.292079 0
M  V30 14459 C 1401.46 5.07487 -1.12928 0
M  V30 14460 C 1399.15 5.00358 -0.441232 0
M  V30 14461 C 1401.14 6.01767 -2.10133 0
M  V30 14462 C 1398.83 5.94452 -1.4167 0
M  V30 14463 C 1399.83 6.45042 -2.24521 0
M  V30 14464 O 1399.52 7.37288 -3.20409 0
M  V30 14465 H 1399.25 0.673322 0.0601144 0
M  V30 14466 H 1401.8 1.99899 -0.472176 0
M  V30 14467 H 1400.03 3.53399 1.5699 0
M  V30 14468 H 1401.72 3.84775 1.2924 0
M  V30 14469 H 1402.49 4.74044 -1.02505 0
M  V30 14470 H 1398.37 4.60593 0.193767 0
M  V30 14471 H 1401.91 6.41178 -2.74839 0
M  V30 14472 H 1397.81 6.27311 -1.52155 0
M  V30 14473 H 1398.58 7.55171 -3.15687 0
M  V30 14474 N 1401.24 0.0551678 1.57503 0
M  V30 14475 C 1402.52 -0.657808 1.84207 0
M  V30 14476 C 1402.9 -1.88798 0.944372 0
M  V30 14477 O 1402.24 -2.28499 0.00641728 0
M  V30 14478 C 1402.45 -1.0113 3.34026 0
M  V30 14479 C 1403.8 -1.39189 4.01138 0
M  V30 14480 O 1404.83 -1.10353 3.38675 0
M  V30 14481 O 1403.68 -1.93023 5.11277 0
M  V30 14482 H 1400.78 -0.325084 0.760427 0
M  V30 14483 H 1403.32 0.0848352 1.69488 0
M  V30 14484 H 1402.1 -0.13688 3.91061 0
M  V30 14485 H 1401.72 -1.81126 3.53948 0
M  V30 14486 N 1402.72 -1.56081 -0.218252 0
M  V30 14487 C 1403.95 -1.83069 -0.957574 0
M  V30 14488 C 1404.35 -0.6325 -1.78315 0
M  V30 14489 O 1403.7 0.408298 -1.79105 0
M  V30 14490 C 1403.76 -3.03835 -1.92157 0
M  V30 14491 C 1403.42 -4.38702 -1.2802 0
M  V30 14492 C 1404.42 -5.15585 -0.66846 0
M  V30 14493 C 1402.11 -4.85427 -1.29098 0
M  V30 14494 C 1404.1 -6.37355 -0.0760499 0
M  V30 14495 C 1401.79 -6.07138 -0.69473 0
M  V30 14496 C 1402.78 -6.82943 -0.0883201 0
M  V30 14497 O 1402.47 -8.02352 0.498648 0
M  V30 14498 H 1402.2 -0.612493 -0.286057 0
M  V30 14499 H 1404.76 -2.04021 -0.23759 0
M  V30 14500 H 1402.99 -2.78709 -2.68064 0
M  V30 14501 H 1404.68 -3.17666 -2.52672 0
M  V30 14502 H 1405.44 -4.80592 -0.652434 0
M  V30 14503 H 1401.32 -4.26395 -1.75238 0
M  V30 14504 H 1404.87 -6.96464 0.397893 0
M  V30 14505 H 1400.76 -6.41604 -0.70818 0
M  V30 14506 H 1401.53 -8.17555 0.393289 0
M  V30 14507 N 1404.2 0.485086 -1.49949 0
M  V30 14508 C 1405.13 1.60306 -1.62411 0
M  V30 14509 C 1406.11 1.5558 -0.47262 0
M  V30 14510 O 1407.29 1.75406 -0.690285 0
M  V30 14511 C 1404.42 2.98859 -1.59377 0
M  V30 14512 C 1403.46 3.2179 -2.79917 0
M  V30 14513 S 1404.3 3.03194 -4.41399 0
M  V30 14514 C 1405.45 4.44114 -4.41037 0
M  V30 14515 H 1405.69 1.49493 -2.56981 0
M  V30 14516 H 1403.22 0.671413 -1.39037 0
M  V30 14517 H 1405.18 3.78744 -1.58313 0
M  V30 14518 H 1403.84 3.07073 -0.660673 0
M  V30 14519 H 1403.03 4.22975 -2.74059 0
M  V30 14520 H 1402.63 2.49653 -2.78477 0
M  V30 14521 H 1404.92 5.36496 -4.13737 0
M  V30 14522 H 1405.87 4.55019 -5.42553 0
M  V30 14523 H 1406.28 4.25538 -3.70914 0
M  V30 14524 N 1405.67 1.39291 0.737279 0
M  V30 14525 C 1406.58 1.40098 1.88175 0
M  V30 14526 C 1407.6 0.296053 1.71463 0
M  V30 14527 O 1408.78 0.537153 1.94105 0
M  V30 14528 C 1405.84 1.24071 3.2374 0
M  V30 14529 C 1404.9 2.44515 3.52861 0
M  V30 14530 C 1404.13 2.29243 4.81958 0
M  V30 14531 O 1404.36 1.2947 5.55512 0
M  V30 14532 O 1403.29 3.18178 5.10927 0
M  V30 14533 H 1407.12 2.36565 1.90449 0
M  V30 14534 H 1404.7 1.20382 0.884786 0
M  V30 14535 H 1406.58 1.17257 4.04758 0
M  V30 14536 H 1405.26 0.30698 3.22241 0
M  V30 14537 H 1404.17 2.56905 2.71939 0
M  V30 14538 H 1405.5 3.36573 3.59137 0
M  V30 14539 N 1407.15 -0.967221 1.24429 0
M  V30 14540 C 1408.11 -2.04344 1.03808 0
M  V30 14541 C 1409.11 -1.60799 -0.00476972 0
M  V30 14542 O 1410.3 -1.72591 0.236241 0
M  V30 14543 C 1407.44 -3.36041 0.573496 0
M  V30 14544 H 1408.63 -2.2407 1.9933 0
M  V30 14545 H 1406.18 -1.14253 1.06658 0
M  V30 14546 H 1406.92 -3.22008 -0.384898 0
M  V30 14547 H 1406.7 -3.68991 1.32619 0
M  V30 14548 H 1408.19 -4.15165 0.450272 0
M  V30 14549 N 1408.63 -1.05812 -1.16797 0
M  V30 14550 C 1409.86 -0.79137 -1.90843 0
M  V30 14551 C 1410.27 0.657481 -1.77409 0
M  V30 14552 O 1409.61 1.46142 -1.11302 0
M  V30 14553 C 1409.67 -1.10042 -3.42244 0
M  V30 14554 C 1409.34 -2.54671 -3.79463 0
M  V30 14555 C 1410.33 -3.52894 -3.81788 0
M  V30 14556 C 1408.02 -2.89843 -4.10239 0
M  V30 14557 C 1410.01 -4.84332 -4.14369 0
M  V30 14558 C 1407.7 -4.21482 -4.42488 0
M  V30 14559 C 1408.7 -5.18537 -4.44532 0
M  V30 14560 O 1408.39 -6.47814 -4.76018 0
M  V30 14561 H 1408.12 -0.286766 -0.612161 0
M  V30 14562 H 1410.67 -1.41369 -1.4901 0
M  V30 14563 H 1408.9 -0.421015 -3.84401 0
M  V30 14564 H 1410.59 -0.818688 -3.97558 0
M  V30 14565 H 1411.36 -3.27062 -3.58128 0
M  V30 14566 H 1407.24 -2.14959 -4.07816 0
M  V30 14567 H 1410.78 -5.60081 -4.15879 0
M  V30 14568 H 1406.68 -4.47075 -4.65612 0
M  V30 14569 H 1407.44 -6.52729 -4.93849 0
M  V30 14570 N 1410.11 1.33347 -0.840014 0
M  V30 14571 C 1411.38 1.92293 -0.358158 0
M  V30 14572 C 1411.76 1.76594 1.15662 0
M  V30 14573 O 1411.11 1.15503 1.97158 0
M  V30 14574 C 1411.32 3.39558 -0.806329 0
M  V30 14575 C 1412.67 4.16705 -0.81501 0
M  V30 14576 O 1413.69 3.48214 -0.75001 0
M  V30 14577 O 1412.55 5.38974 -0.903818 0
M  V30 14578 H 1409.65 0.820737 -0.101585 0
M  V30 14579 H 1412.19 1.42213 -0.925942 0
M  V30 14580 H 1410.97 3.44861 -1.84897 0
M  V30 14581 H 1410.59 3.97017 -0.215181 0
M  V30 14582 N 1411.59 0.596556 1.45873 0
M  V30 14583 C 1412.83 0.0872856 2.01911 0
M  V30 14584 C 1413.15 -1.28257 1.46885 0
M  V30 14585 O 1412.42 -1.84489 0.658837 0
M  V30 14586 H 1411 0.0292769 0.746426 0
M  V30 14587 H 1413.67 0.775464 1.78809 0
M  V30 14588 H 1412.76 0.0287213 3.12087 0
M  V30 14589 N 1413.06 -1.53996 0.335095 0
M  V30 14590 C 1414.29 -2.0489 -0.265245 0
M  V30 14591 C 1414.7 -1.21024 -1.4543 0
M  V30 14592 O 1414.04 -0.236417 -1.82172 0
M  V30 14593 C 1414.11 -3.51546 -0.752018 0
M  V30 14594 C 1413.77 -4.55904 0.316261 0
M  V30 14595 C 1414.77 -5.06881 1.15617 0
M  V30 14596 C 1412.45 -5.00117 0.467762 0
M  V30 14597 C 1414.45 -6.00644 2.13321 0
M  V30 14598 C 1412.13 -5.93692 1.4482 0
M  V30 14599 C 1413.13 -6.43842 2.27938 0
M  V30 14600 O 1412.82 -7.35578 3.24315 0
M  V30 14601 H 1412.55 -0.673631 -0.0565427 0
M  V30 14602 H 1415.11 -1.99646 0.482771 0
M  V30 14603 H 1413.34 -3.54227 -1.55114 0
M  V30 14604 H 1415.02 -3.85455 -1.27197 0
M  V30 14605 H 1415.79 -4.73494 1.05017 0
M  V30 14606 H 1411.67 -4.60689 -0.169338 0
M  V30 14607 H 1415.21 -6.39711 2.78236 0
M  V30 14608 H 1411.11 -6.26495 1.5548 0
M  V30 14609 H 1411.88 -7.53487 3.19688 0
M  V30 14610 N 1414.54 -0.0635198 -1.57472 0
M  V30 14611 C 1415.82 0.648029 -1.84553 0
M  V30 14612 C 1416.2 1.88295 -0.954371 0
M  V30 14613 O 1415.55 2.28492 -0.0185351 0
M  V30 14614 C 1415.76 0.993573 -3.34558 0
M  V30 14615 C 1417.1 1.3706 -4.0187 0
M  V30 14616 O 1418.13 1.08555 -3.39255 0
M  V30 14617 O 1416.99 1.90309 -5.12294 0
M  V30 14618 H 1414.08 0.321047 -0.76214 0
M  V30 14619 H 1416.63 -0.0938223 -1.6944 0
M  V30 14620 H 1415.4 0.116139 -3.91128 0
M  V30 14621 H 1415.02 1.79246 -3.54904 0
M  V30 14622 N 1416.02 1.56195 0.209972 0
M  V30 14623 C 1417.24 1.84189 0.953364 0
M  V30 14624 C 1417.67 0.645288 1.76685 0
M  V30 14625 O 1417.03 -0.405962 1.76696 0
M  V30 14626 C 1417.08 3.10281 1.83733 0
M  V30 14627 O 1416.18 2.89788 2.93422 0
M  V30 14628 H 1415.52 0.606931 0.269314 0
M  V30 14629 H 1418.05 2.03416 0.219783 0
M  V30 14630 H 1418.06 3.40688 2.2449 0
M  V30 14631 H 1416.74 3.97 1.23951 0
M  V30 14632 H 1415.31 2.70643 2.56528 0
M  V30 14633 N 1417.5 -0.477127 1.50204 0
M  V30 14634 C 1418.72 -1.25775 1.6491 0
M  V30 14635 C 1419.15 -1.85187 0.329765 0
M  V30 14636 O 1418.51 -1.67004 -0.705641 0
M  V30 14637 C 1418.55 -2.3466 2.73801 0
M  V30 14638 O 1417.66 -3.39147 2.34634 0
M  V30 14639 H 1417 -0.370291 0.551163 0
M  V30 14640 H 1419.53 -0.568514 1.96543 0
M  V30 14641 H 1419.54 -2.80065 2.96695 0
M  V30 14642 H 1418.21 -1.90788 3.69557 0
M  V30 14643 H 1416.79 -2.99496 2.22163 0
M  V30 14644 N 1418.98 -1.3968 -0.729882 0
M  V30 14645 C 1419.94 -1.38577 -1.82562 0
M  V30 14646 C 1420.94 -0.281994 -1.58308 0
M  V30 14647 O 1422.13 -0.540165 -1.65614 0
M  V30 14648 C 1419.26 -1.16343 -3.20433 0
M  V30 14649 H 1420.45 -2.36086 -1.84942 0
M  V30 14650 H 1418.01 -1.25319 -0.934063 0
M  V30 14651 H 1418.74 -0.195372 -3.23711 0
M  V30 14652 H 1418.53 -1.96282 -3.39435 0
M  V30 14653 H 1420.02 -1.18325 -4.00486 0
M  V30 14654 N 1420.45 0.960609 -1.2494 0
M  V30 14655 C 1421.87 1.51915 -1.0853 0
M  V30 14656 C 1422.22 1.93215 0.340949 0
M  V30 14657 O 1421.34 1.78031 1.2302 0
M  V30 14658 C 1421.94 2.76069 -1.96396 0
M  V30 14659 C 1420.5 3.28255 -1.84189 0
M  V30 14660 C 1419.64 2.01124 -1.90905 0
M  V30 14661 H 1422.59 0.778141 -1.38314 0
M  V30 14662 H 1422.61 3.49668 -1.50042 0
M  V30 14663 H 1422.13 2.45979 -3.00193 0
M  V30 14664 H 1420.23 3.6318 -0.832518 0
M  V30 14665 H 1420.34 3.96675 -2.68673 0
M  V30 14666 H 1418.7 2.16155 -1.34718 0
M  V30 14667 H 1419.49 1.73389 -2.96295 0
M  V30 14668 N 1421.93 1.0643 1.16234 0
M  V30 14669 C 1423.35 0.78802 1.38789 0
M  V30 14670 C 1423.55 -0.612019 1.91981 0
M  V30 14671 O 1422.6 -1.37235 2.1195 0
M  V30 14672 C 1423.92 1.85406 2.36738 0
M  V30 14673 C 1425.47 1.87773 2.5042 0
M  V30 14674 C 1425.94 2.93435 3.51653 0
M  V30 14675 N 1427.43 2.92477 3.59181 0
M  V30 14676 C 1428.17 3.7088 4.37305 0
M  V30 14677 N 1427.66 4.59106 5.18839 0
M  V30 14678 N 1429.46 3.59267 4.32301 0
M  V30 14679 H 1421.61 1.9674 0.800449 0
M  V30 14680 H 1423.87 0.852631 0.414397 0
M  V30 14681 H 1423.58 2.85954 2.04751 0
M  V30 14682 H 1423.45 1.70625 3.36403 0
M  V30 14683 H 1425.84 0.878825 2.8171 0
M  V30 14684 H 1425.92 2.06633 1.50787 0
M  V30 14685 H 1425.56 3.93519 3.211 0
M  V30 14686 H 1425.49 2.71824 4.5102 0
M  V30 14687 H 1427.98 2.28517 3.00979 0
M  V30 14688 H 1428.3 5.15583 5.75668 0
M  V30 14689 H 1426.64 4.6316 5.18177 0
M  V30 14690 H 1429.83 2.89726 3.67663 0
M  V30 14691 H 1430 4.20613 4.92939 0
M  V30 14692 N 1423.41 -1.329 0.847073 0
M  V30 14693 C 1424.34 -2.31546 0.301422 0
M  V30 14694 C 1425.32 -1.59342 -0.595317 0
M  V30 14695 O 1426.51 -1.87188 -0.517151 0
M  V30 14696 C 1423.64 -3.43423 -0.517454 0
M  V30 14697 C 1422.59 -4.27055 0.284195 0
M  V30 14698 C 1421.92 -5.30624 -0.658944 0
M  V30 14699 C 1423.22 -5.00123 1.50578 0
M  V30 14700 H 1424.91 -2.77433 1.12567 0
M  V30 14701 H 1422.46 -1.3338 0.542739 0
M  V30 14702 H 1424.41 -4.11467 -0.909543 0
M  V30 14703 H 1423.13 -2.96246 -1.37499 0
M  V30 14704 H 1421.79 -3.60648 0.657944 0
M  V30 14705 H 1421.44 -4.79702 -1.51311 0
M  V30 14706 H 1421.14 -5.87464 -0.12662 0
M  V30 14707 H 1422.66 -6.01533 -1.04837 0
M  V30 14708 H 1424.08 -5.6089 1.18641 0
M  V30 14709 H 1422.48 -5.66652 1.97549 0
M  V30 14710 H 1423.55 -4.28424 2.27115 0
M  V30 14711 N 1424.89 -0.604284 -1.45555 0
M  V30 14712 C 1426.14 -0.0979922 -2.01862 0
M  V30 14713 C 1426.46 1.27476 -1.47563 0
M  V30 14714 O 1425.73 1.84137 -0.668612 0
M  V30 14715 H 1424.31 -0.033235 -0.74626 0
M  V30 14716 H 1426.97 -0.784936 -1.78395 0
M  V30 14717 H 1426.07 -0.0452716 -3.12067 0
M  V30 14718 N 1426.37 1.53816 -0.343257 0
M  V30 14719 C 1427.78 1.59598 0.00867849 0
M  V30 14720 C 1427.98 1.35922 1.48753 0
M  V30 14721 O 1427.04 1.15334 2.2462 0
M  V30 14722 C 1428.35 2.97649 -0.427234 0
M  V30 14723 C 1429.9 3.1069 -0.379554 0
M  V30 14724 C 1430.37 4.51119 -0.79093 0
M  V30 14725 N 1431.87 4.57168 -0.745105 0
M  V30 14726 C 1432.6 5.63975 -1.03537 0
M  V30 14727 N 1432.1 6.78635 -1.39377 0
M  V30 14728 N 1433.89 5.53848 -0.959628 0
M  V30 14729 H 1426.04 1.6746 -1.30656 0
M  V30 14730 H 1428.3 0.784254 -0.532588 0
M  V30 14731 H 1428.01 3.2004 -1.45834 0
M  V30 14732 H 1427.88 3.76682 0.197704 0
M  V30 14733 H 1430.27 2.88024 0.642376 0
M  V30 14734 H 1430.35 2.33718 -1.03969 0
M  V30 14735 H 1430 4.74521 -1.81087 0
M  V30 14736 H 1429.93 5.26489 -0.108274 0
M  V30 14737 H 1432.42 3.7483 -0.480752 0
M  V30 14738 H 1432.73 7.56053 -1.60011 0
M  V30 14739 H 1431.07 6.80083 -1.43222 0
M  V30 14740 H 1434.27 4.6315 -0.678974 0
M  V30 14741 H 1434.44 6.36995 -1.18919 0
M  V30 14742 N 1427.84 0.0718701 1.57436 0
M  V30 14743 C 1429.09 -0.597231 1.93493 0
M  V30 14744 C 1429.42 -1.69614 0.951906 0
M  V30 14745 O 1428.67 -1.95673 -0.0324554 0
M  V30 14746 C 1428.97 -1.21336 3.36173 0
M  V30 14747 C 1428.64 -0.240582 4.50258 0
M  V30 14748 C 1427.3 0.0270368 4.81192 0
M  V30 14749 C 1429.65 0.424924 5.19465 0
M  V30 14750 C 1426.98 0.967249 5.78672 0
M  V30 14751 C 1429.33 1.35346 6.17952 0
M  V30 14752 C 1428 1.62954 6.47304 0
M  V30 14753 H 1427.27 -0.218542 0.70804 0
M  V30 14754 H 1429.91 0.142762 1.90967 0
M  V30 14755 H 1428.22 -2.02909 3.35164 0
M  V30 14756 H 1429.92 -1.73836 3.61361 0
M  V30 14757 H 1426.51 -0.459352 4.26131 0
M  V30 14758 H 1430.69 0.231285 4.95761 0
M  V30 14759 H 1425.95 1.1884 5.99739 0
M  V30 14760 H 1430.12 1.87509 6.70681 0
M  V30 14761 H 1427.75 2.3597 7.2265 0
M  V30 14762 N 1429.32 -1.56304 -0.201686 0
M  V30 14763 C 1430.56 -1.82021 -0.929934 0
M  V30 14764 C 1430.93 -0.648382 -1.80721 0
M  V30 14765 O 1432.13 -0.785292 -2.57073 0
M  V30 14766 C 1430.4 -3.12731 -1.73014 0
M  V30 14767 S 1431.96 -3.59831 -2.51131 0
M  V30 14768 H 1428.78 -0.638874 -0.312027 0
M  V30 14769 H 1431.38 -1.94536 -0.193861 0
M  V30 14770 H 1430.08 -3.96039 -1.07616 0
M  V30 14771 H 1429.61 -3.03076 -2.50816 0
M  V30 14772 H 1431.63 -3.24744 -3.75174 0
M  V30 14773 N 1430.8 0.469154 -1.50455 0
M  V30 14774 C 1432.05 1.21868 -1.61222 0
M  V30 14775 C 1432.37 1.9243 -0.315535 0
M  V30 14776 O 1431.64 1.84192 0.667083 0
M  V30 14777 H 1430.22 0.452828 -0.594101 0
M  V30 14778 H 1432.88 0.540993 -1.87241 0
M  V30 14779 H 1431.98 1.96554 -2.42431 0
M  V30 14780 N 1432.28 1.40065 0.722464 0
M  V30 14781 C 1433.5 1.4146 1.5167 0
M  V30 14782 C 1433.93 0.0142653 1.88095 0
M  V30 14783 O 1433.29 -0.975934 1.52791 0
M  V30 14784 C 1433.33 2.30531 2.77287 0
M  V30 14785 O 1432.44 1.74382 3.73717 0
M  V30 14786 H 1431.78 0.481194 0.457546 0
M  V30 14787 H 1434.31 1.84213 0.890331 0
M  V30 14788 H 1434.32 2.45479 3.25889 0
M  V30 14789 H 1432.99 3.32292 2.50109 0
M  V30 14790 H 1431.57 1.68743 3.32536 0
M  V30 14791 N 1433.76 -0.95397 1.25448 0
M  V30 14792 C 1435.01 -1.6953 1.10018 0
M  V30 14793 C 1435.33 -1.9166 -0.359385 0
M  V30 14794 O 1434.6 -1.50417 -1.25506 0
M  V30 14795 H 1433.18 -0.628238 0.404136 0
M  V30 14796 H 1435.84 -1.14691 1.57581 0
M  V30 14797 H 1434.93 -2.67427 1.60901 0
M  V30 14798 N 1435.24 -1.07045 -1.15668 0
M  V30 14799 C 1436.65 -0.814932 -1.67975 0
M  V30 14800 C 1437 0.660408 -1.84751 0
M  V30 14801 O 1436.12 1.51156 -1.54857 0
M  V30 14802 C 1436.72 -1.47274 -3.05116 0
M  V30 14803 C 1435.28 -1.26481 -3.54513 0
M  V30 14804 C 1434.42 -1.54439 -2.30312 0
M  V30 14805 H 1437.37 -1.23291 -0.999251 0
M  V30 14806 H 1437.4 -0.892244 -3.69891 0
M  V30 14807 H 1436.91 -2.54649 -2.92874 0
M  V30 14808 H 1435.01 -0.211138 -3.72001 0
M  V30 14809 H 1435.12 -1.98283 -4.36143 0
M  V30 14810 H 1433.49 -0.965269 -2.357 0
M  V30 14811 H 1434.27 -2.6299 -2.20661 0
M  V30 14812 N 1436.71 1.32449 -0.85411 0
M  V30 14813 C 1437.64 2.31383 -0.313697 0
M  V30 14814 C 1438.62 1.59656 0.586858 0
M  V30 14815 O 1439.81 1.87459 0.507216 0
M  V30 14816 C 1436.94 3.43693 0.499235 0
M  V30 14817 C 1435.89 4.26899 -0.306839 0
M  V30 14818 C 1435.22 5.30966 0.630795 0
M  V30 14819 C 1436.52 4.99318 -1.53229 0
M  V30 14820 H 1438.21 2.76832 -1.14037 0
M  V30 14821 H 1435.76 1.33091 -0.549805 0
M  V30 14822 H 1437.71 4.11944 0.887709 0
M  V30 14823 H 1436.44 2.96971 1.35926 0
M  V30 14824 H 1435.1 3.60294 -0.677061 0
M  V30 14825 H 1434.74 4.80498 1.48765 0
M  V30 14826 H 1434.44 5.87522 0.0954635 0
M  V30 14827 H 1435.97 6.0208 1.01646 0
M  V30 14828 H 1437.38 5.60253 -1.21614 0
M  V30 14829 H 1435.78 5.65596 -2.00552 0
M  V30 14830 H 1436.85 4.27213 -2.29383 0
M  V30 14831 N 1438.19 0.611994 1.45232 0
M  V30 14832 C 1439.1 -0.105981 2.3436 0
M  V30 14833 C 1440.12 -0.855785 1.515 0
M  V30 14834 O 1441.29 -0.812376 1.84289 0
M  V30 14835 C 1438.36 -1.08794 3.29188 0
M  V30 14836 C 1437.42 -0.339611 4.27955 0
M  V30 14837 C 1436.65 -1.27479 5.18252 0
M  V30 14838 O 1436.88 -2.51279 5.12069 0
M  V30 14839 O 1435.81 -0.769469 5.96961 0
M  V30 14840 H 1439.64 0.626584 2.97166 0
M  V30 14841 H 1437.22 0.37224 1.44688 0
M  V30 14842 H 1439.1 -1.65338 3.8761 0
M  V30 14843 H 1437.78 -1.80145 2.68941 0
M  V30 14844 H 1436.68 0.268408 3.73136 0
M  V30 14845 H 1438.02 0.333501 4.91069 0
M  V30 14846 N 1439.67 -1.53632 0.351409 0
M  V30 14847 C 1440.58 -2.2899 -0.509985 0
M  V30 14848 C 1441.6 -1.34403 -1.10507 0
M  V30 14849 O 1442.77 -1.67448 -1.11906 0
M  V30 14850 C 1439.84 -3.05392 -1.64124 0
M  V30 14851 C 1438.9 -4.15619 -1.07514 0
M  V30 14852 C 1438.13 -4.88369 -2.15248 0
M  V30 14853 O 1438.35 -4.60854 -3.3611 0
M  V30 14854 O 1437.29 -5.74636 -1.79101 0
M  V30 14855 H 1441.11 -3.03526 0.10283 0
M  V30 14856 H 1438.7 -1.48947 0.116214 0
M  V30 14857 H 1440.58 -3.53146 -2.29926 0
M  V30 14858 H 1439.26 -2.33705 -2.23972 0
M  V30 14859 H 1438.16 -3.7215 -0.381421 0
M  V30 14860 H 1439.5 -4.8943 -0.521413 0
M  V30 14861 N 1441.15 -0.0802183 -1.57396 0
M  V30 14862 C 1442.4 0.586573 -1.92982 0
M  V30 14863 C 1442.71 1.70256 -0.962918 0
M  V30 14864 O 1443.92 2.4295 -1.21193 0
M  V30 14865 C 1442.37 1.09475 -3.42846 0
M  V30 14866 C 1441.98 0.0093098 -4.47999 0
M  V30 14867 C 1443.72 1.73512 -3.87419 0
M  V30 14868 C 1441.63 0.532002 -5.89002 0
M  V30 14869 H 1440.56 0.222878 -0.720306 0
M  V30 14870 H 1443.21 -0.153816 -1.82854 0
M  V30 14871 H 1441.59 1.88836 -3.48076 0
M  V30 14872 H 1442.77 -0.765609 -4.54395 0
M  V30 14873 H 1441.08 -0.535345 -4.12944 0
M  V30 14874 H 1443.68 2.13665 -4.90154 0
M  V30 14875 H 1444.02 2.59845 -3.25248 0
M  V30 14876 H 1444.56 1.00758 -3.84828 0
M  V30 14877 H 1441.29 -0.294364 -6.54839 0
M  V30 14878 H 1440.81 1.27425 -5.86108 0
M  V30 14879 H 1442.49 1.00573 -6.39135 0
M  V30 14880 N 1442.63 1.56409 0.193394 0
M  V30 14881 C 1443.86 1.84569 0.928328 0
M  V30 14882 C 1444.26 0.660788 1.77286 0
M  V30 14883 O 1443.61 -0.379752 1.79732 0
M  V30 14884 C 1443.67 3.06854 1.87299 0
M  V30 14885 C 1443.33 4.40684 1.21025 0
M  V30 14886 C 1444.33 5.16583 0.58635 0
M  V30 14887 C 1442.01 4.87419 1.21359 0
M  V30 14888 C 1444.01 6.37395 -0.0253573 0
M  V30 14889 C 1441.7 6.08167 0.598052 0
M  V30 14890 C 1442.69 6.82997 -0.0203414 0
M  V30 14891 O 1442.38 8.01457 -0.626232 0
M  V30 14892 H 1442.11 0.616966 0.276277 0
M  V30 14893 H 1444.67 2.04373 0.205102 0
M  V30 14894 H 1442.9 2.82938 2.63596 0
M  V30 14895 H 1444.59 3.21645 2.47587 0
M  V30 14896 H 1445.35 4.81569 0.575894 0
M  V30 14897 H 1441.23 4.29129 1.68432 0
M  V30 14898 H 1444.78 6.95743 -0.508644 0
M  V30 14899 H 1440.67 6.42649 0.606017 0
M  V30 14900 H 1441.44 8.16825 -0.523305 0
M  V30 14901 N 1444.1 -0.461169 1.50702 0
M  V30 14902 C 1445.33 -1.24019 1.66235 0
M  V30 14903 C 1445.75 -1.84827 0.349388 0
M  V30 14904 O 1445.11 -1.67743 -0.687888 0
M  V30 14905 C 1445.16 -2.31743 2.76274 0
M  V30 14906 O 1444.26 -3.3664 2.38217 0
M  V30 14907 H 1443.6 -0.364424 0.55506 0
M  V30 14908 H 1446.13 -0.547636 1.97135 0
M  V30 14909 H 1446.14 -2.76902 2.99649 0
M  V30 14910 H 1444.82 -1.86858 3.7156 0
M  V30 14911 H 1443.4 -2.97123 2.25327 0
M  V30 14912 N 1445.58 -1.40446 -0.715026 0
M  V30 14913 C 1446.54 -1.40506 -1.81082 0
M  V30 14914 C 1447.54 -0.298768 -1.58 0
M  V30 14915 O 1448.73 -0.5577 -1.65031 0
M  V30 14916 C 1445.87 -1.19735 -3.19181 0
M  V30 14917 H 1447.06 -2.38034 -1.82427 0
M  V30 14918 H 1444.61 -1.26303 -0.920718 0
M  V30 14919 H 1445.35 -0.229695 -3.23486 0
M  V30 14920 H 1445.13 -1.99871 -3.37334 0
M  V30 14921 H 1446.62 -1.22566 -3.99208 0
M  V30 14922 N 1447.06 0.947303 -1.25952 0
M  V30 14923 C 1448.31 1.68945 -1.10915 0
M  V30 14924 C 1448.63 1.91848 0.349216 0
M  V30 14925 O 1447.9 1.5108 1.24706 0
M  V30 14926 H 1446.48 0.626086 -0.407462 0
M  V30 14927 H 1449.14 1.13854 -1.58187 0
M  V30 14928 H 1448.24 2.6657 -1.62317 0
M  V30 14929 N 1448.54 1.07657 1.15099 0
M  V30 14930 C 1449.82 0.714608 1.82079 0
M  V30 14931 C 1450.2 -0.802578 1.95248 0
M  V30 14932 O 1449.54 -1.71818 1.50634 0
M  V30 14933 C 1449.75 1.43264 3.1824 0
M  V30 14934 C 1451.1 1.58675 3.93837 0
M  V30 14935 O 1452.13 1.39367 3.27804 0
M  V30 14936 O 1450.98 1.9047 5.12234 0
M  V30 14937 H 1448.08 0.254645 0.786819 0
M  V30 14938 H 1450.62 1.17768 1.22183 0
M  V30 14939 H 1449.4 2.46655 3.03772 0
M  V30 14940 H 1449.02 0.960546 3.85823 0
M  V30 14941 N 1450.02 -1.31994 0.861122 0
M  V30 14942 C 1451.24 -2.01745 0.481013 0
M  V30 14943 C 1451.67 -1.6426 -0.916527 0
M  V30 14944 O 1451.02 -0.846603 -1.60319 0
M  V30 14945 C 1451.07 -3.54963 0.635134 0
M  V30 14946 O 1450.18 -4.11083 -0.329337 0
M  V30 14947 H 1449.52 -0.635499 0.192452 0
M  V30 14948 H 1452.05 -1.68394 1.1621 0
M  V30 14949 H 1452.06 -4.04607 0.525089 0
M  V30 14950 H 1450.73 -3.81587 1.65422 0
M  V30 14951 H 1449.31 -3.72489 -0.174989 0
M  V30 14952 N 1451.49 -0.619688 -1.44906 0
M  V30 14953 C 1452.42 0.0791121 -2.33366 0
M  V30 14954 C 1453.41 0.846503 -1.47541 0
M  V30 14955 O 1454.59 0.814657 -1.76287 0
M  V30 14956 C 1451.72 1.06901 -3.30438 0
M  V30 14957 C 1450.67 0.41403 -4.25993 0
M  V30 14958 C 1450 1.51303 -5.12846 0
M  V30 14959 C 1451.3 -0.672483 -5.17953 0
M  V30 14960 H 1452.99 -0.659551 -2.92045 0
M  V30 14961 H 1450.54 -0.318623 -1.40431 0
M  V30 14962 H 1452.49 1.56653 -3.912 0
M  V30 14963 H 1451.22 1.83842 -2.69944 0
M  V30 14964 H 1449.88 -0.0627315 -3.66546 0
M  V30 14965 H 1449.52 2.27303 -4.48712 0
M  V30 14966 H 1449.22 1.08022 -5.77586 0
M  V30 14967 H 1450.75 2.01258 -5.76479 0
M  V30 14968 H 1452.16 -0.258542 -5.72717 0
M  V30 14969 H 1450.56 -1.02776 -5.91234 0
M  V30 14970 H 1451.63 -1.54425 -4.59653 0
M  V30 14971 N 1452.97 1.53444 -0.359552 0
M  V30 14972 C 1453.91 2.21884 0.533192 0
M  V30 14973 C 1454.88 1.20858 1.08776 0
M  V30 14974 O 1456.07 1.49738 1.14502 0
M  V30 14975 C 1453.19 2.90883 1.73507 0
M  V30 14976 C 1452.24 4.05931 1.30851 0
M  V30 14977 S 1453.07 5.34574 0.314859 0
M  V30 14978 C 1454.23 6.07083 1.52321 0
M  V30 14979 H 1454.46 2.97261 -0.0480679 0
M  V30 14980 H 1452 1.5373 -0.143645 0
M  V30 14981 H 1453.95 3.31252 2.42451 0
M  V30 14982 H 1452.61 2.15241 2.28758 0
M  V30 14983 H 1451.81 4.53203 2.20507 0
M  V30 14984 H 1451.41 3.67422 0.698365 0
M  V30 14985 H 1453.7 6.31448 2.45519 0
M  V30 14986 H 1454.64 6.99629 1.09198 0
M  V30 14987 H 1455.05 5.37449 1.72652 0
M  V30 14988 N 1454.45 0.0885642 1.57351 0
M  V30 14989 C 1455.7 -0.57633 1.93291 0
M  V30 14990 C 1456.01 -1.69743 0.971934 0
M  V30 14991 O 1457.22 -2.42304 1.22479 0
M  V30 14992 C 1455.67 -1.07655 3.43422 0
M  V30 14993 C 1455.28 0.0144488 4.47998 0
M  V30 14994 C 1457.03 -1.71455 3.88334 0
M  V30 14995 C 1454.93 -0.500758 5.89276 0
M  V30 14996 H 1453.86 -0.219055 0.721478 0
M  V30 14997 H 1456.51 0.163511 1.8277 0
M  V30 14998 H 1454.9 -1.86988 3.49072 0
M  V30 14999 H 1456.07 0.789696 4.53983 0
M  V30 15000 H 1454.39 0.557237 4.12655 0
M  V30 15001 H 1456.98 -2.11063 4.91281 0
M  V30 15002 H 1457.33 -2.58116 3.26621 0
M  V30 15003 H 1457.86 -0.987159 3.85357 0
M  V30 15004 H 1454.6 0.329088 6.54673 0
M  V30 15005 H 1454.12 -1.24315 5.86776 0
M  V30 15006 H 1455.8 -0.971821 6.3966 0
M  V30 15007 N 1455.93 -1.56509 -0.185096 0
M  V30 15008 C 1457.34 -1.50318 -0.536334 0
M  V30 15009 C 1457.54 -0.790387 -1.85351 0
M  V30 15010 O 1456.6 -0.345039 -2.50131 0
M  V30 15011 C 1457.91 -2.95017 -0.581825 0
M  V30 15012 C 1459.46 -3.05746 -0.669974 0
M  V30 15013 C 1459.94 -4.51876 -0.746485 0
M  V30 15014 N 1461.43 -4.56067 -0.809746 0
M  V30 15015 C 1462.16 -5.66462 -0.889286 0
M  V30 15016 N 1461.66 -6.86523 -0.930509 0
M  V30 15017 N 1463.45 -5.54399 -0.927246 0
M  V30 15018 H 1455.6 -2.01262 0.678778 0
M  V30 15019 H 1457.87 -0.916313 0.243054 0
M  V30 15020 H 1457.57 -3.50268 0.317089 0
M  V30 15021 H 1457.45 -3.48916 -1.43309 0
M  V30 15022 H 1459.83 -2.50538 -1.55932 0
M  V30 15023 H 1459.91 -2.54955 0.207689 0
M  V30 15024 H 1459.56 -5.07711 0.138546 0
M  V30 15025 H 1459.49 -5.00408 -1.6401 0
M  V30 15026 H 1461.98 -3.6962 -0.786729 0
M  V30 15027 H 1462.29 -7.66407 -0.991992 0
M  V30 15028 H 1460.64 -6.89161 -0.899017 0
M  V30 15029 H 1463.83 -4.59524 -0.891947 0
M  V30 15030 H 1464 -6.40458 -0.985773 0
M  V30 15031 N 1457.41 0.45317 -1.50944 0
M  V30 15032 C 1458.65 1.20389 -1.62827 0
M  V30 15033 C 1458.98 1.91559 -0.336982 0
M  V30 15034 O 1458.24 1.83574 0.678153 0
M  V30 15035 C 1458.54 2.25747 -2.7708 0
M  V30 15036 C 1458.2 1.71703 -4.16928 0
M  V30 15037 C 1456.86 1.56686 -4.54976 0
M  V30 15038 C 1459.22 1.31804 -5.04259 0
M  V30 15039 C 1456.54 1.0022 -5.78077 0
M  V30 15040 C 1458.9 0.767738 -6.27924 0
M  V30 15041 C 1457.56 0.604341 -6.64759 0
M  V30 15042 H 1456.83 0.440536 -0.595827 0
M  V30 15043 H 1459.48 0.497234 -1.84932 0
M  V30 15044 H 1457.78 3.0239 -2.49134 0
M  V30 15045 H 1459.48 2.83625 -2.83475 0
M  V30 15046 H 1456.07 1.84364 -3.86921 0
M  V30 15047 H 1460.25 1.42233 -4.75482 0
M  V30 15048 H 1455.51 0.863228 -6.05275 0
M  V30 15049 H 1459.68 0.449994 -6.94945 0
M  V30 15050 H 1457.31 0.164663 -7.60022 0
M  V30 15051 N 1458.88 1.40823 0.707568 0
M  V30 15052 C 1460.3 1.23029 1.01666 0
M  V30 15053 C 1460.5 0.111152 2.01193 0
M  V30 15054 O 1459.56 -0.52836 2.4691 0
M  V30 15055 C 1460.87 2.57509 1.55272 0
M  V30 15056 C 1462.42 2.6459 1.67216 0
M  V30 15057 C 1462.89 3.99357 2.24227 0
M  V30 15058 N 1464.38 4.01141 2.31603 0
M  V30 15059 C 1465.12 5.02211 2.76715 0
M  V30 15060 N 1464.61 6.13674 3.21521 0
M  V30 15061 N 1466.41 4.89577 2.76172 0
M  V30 15062 H 1458.56 2.12346 0.0480107 0
M  V30 15063 H 1460.82 0.944281 0.0838885 0
M  V30 15064 H 1460.53 3.40095 0.896012 0
M  V30 15065 H 1460.4 2.79158 2.53674 0
M  V30 15066 H 1462.79 1.8237 2.32002 0
M  V30 15067 H 1462.87 2.46763 0.673927 0
M  V30 15068 H 1462.51 4.8202 1.6006 0
M  V30 15069 H 1462.44 4.14518 3.2478 0
M  V30 15070 H 1464.93 3.20657 1.99968 0
M  V30 15071 H 1465.25 6.86677 3.54534 0
M  V30 15072 H 1463.59 6.17228 3.1946 0
M  V30 15073 H 1466.78 4.01588 2.40509 0
M  V30 15074 H 1466.96 5.68485 3.11012 0
M  V30 15075 N 1460.36 -0.94061 1.26453 0
M  V30 15076 C 1461.59 -1.72123 1.1481 0
M  V30 15077 C 1462.01 -1.86456 -0.296604 0
M  V30 15078 O 1461.36 -1.37234 -1.20304 0
M  V30 15079 C 1461.41 -3.1277 1.81266 0
M  V30 15080 O 1461.13 -2.99122 3.2009 0
M  V30 15081 C 1462.64 -4.07045 1.75584 0
M  V30 15082 H 1459.86 -0.538908 0.399774 0
M  V30 15083 H 1462.4 -1.17913 1.67083 0
M  V30 15084 H 1460.55 -3.6388 1.32928 0
M  V30 15085 H 1460.97 -3.87946 3.52984 0
M  V30 15086 H 1462.44 -5.03292 2.26719 0
M  V30 15087 H 1462.92 -4.33217 0.722466 0
M  V30 15088 H 1463.53 -3.61855 2.23475 0
M  V30 15089 N 1461.84 -1.08266 -1.14527 0
M  V30 15090 C 1463.12 -0.724254 -1.81697 0
M  V30 15091 C 1463.5 0.792212 -1.95671 0
M  V30 15092 O 1462.85 1.71017 -1.51543 0
M  V30 15093 C 1463.06 -1.44949 -3.17475 0
M  V30 15094 C 1464.4 -1.60761 -3.9299 0
M  V30 15095 O 1465.43 -1.41103 -3.2706 0
M  V30 15096 O 1464.29 -1.93184 -5.11216 0
M  V30 15097 H 1461.38 -0.258814 -0.785458 0
M  V30 15098 H 1463.93 -1.18414 -1.21557 0
M  V30 15099 H 1462.7 -2.48262 -3.02459 0
M  V30 15100 H 1462.32 -0.980993 -3.85308 0
M  V30 15101 N 1463.32 1.31536 -0.86811 0
M  V30 15102 C 1464.6 1.9149 -0.398866 0
M  V30 15103 C 1464.98 1.79008 1.1189 0
M  V30 15104 O 1464.32 1.19659 1.94664 0
M  V30 15105 C 1464.53 3.37771 -0.878173 0
M  V30 15106 C 1465.88 4.14882 -0.903216 0
M  V30 15107 O 1466.91 3.46545 -0.823703 0
M  V30 15108 O 1465.77 5.36936 -1.01794 0
M  V30 15109 H 1462.86 0.818398 -0.118971 0
M  V30 15110 H 1465.41 1.40216 -0.955899 0
M  V30 15111 H 1464.18 3.40861 -1.9217 0
M  V30 15112 H 1463.8 3.96472 -0.299346 0
M  V30 15113 N 1464.8 0.627364 1.44575 0
M  V30 15114 C 1466.03 0.137313 2.06444 0
M  V30 15115 C 1466.44 -1.18655 1.46855 0
M  V30 15116 O 1465.8 -1.72699 0.590018 0
M  V30 15117 C 1465.85 0.0123481 3.61498 0
M  V30 15118 O 1465.57 1.28385 4.18866 0
M  V30 15119 C 1467.07 -0.506841 4.40393 0
M  V30 15120 H 1464.29 0.0779387 0.666458 0
M  V30 15121 H 1466.83 0.860701 1.85505 0
M  V30 15122 H 1464.99 -0.66146 3.81711 0
M  V30 15123 H 1465.4 1.12626 5.12265 0
M  V30 15124 H 1466.88 -0.543304 5.4932 0
M  V30 15125 H 1467.35 -1.53314 4.11572 0
M  V30 15126 H 1467.96 0.133589 4.2509 0
M  V30 15127 N 1466.28 -1.53251 0.367684 0
M  V30 15128 C 1467.52 -2.00469 -0.222481 0
M  V30 15129 C 1467.84 -1.259 -1.49695 0
M  V30 15130 O 1469.04 -1.63717 -2.16585 0
M  V30 15131 C 1467.5 -3.57113 -0.447018 0
M  V30 15132 C 1467.11 -4.40562 0.812946 0
M  V30 15133 C 1468.85 -4.12681 -0.994725 0
M  V30 15134 C 1466.76 -5.88763 0.557877 0
M  V30 15135 H 1465.69 -0.748974 -0.0869144 0
M  V30 15136 H 1468.34 -1.76927 0.48675 0
M  V30 15137 H 1466.72 -3.76818 -1.21756 0
M  V30 15138 H 1467.9 -4.3263 1.58644 0
M  V30 15139 H 1466.21 -3.96108 1.28403 0
M  V30 15140 H 1468.81 -5.2104 -1.20091 0
M  V30 15141 H 1469.15 -3.67408 -1.95748 0
M  V30 15142 H 1469.68 -3.96783 -0.284295 0
M  V30 15143 H 1466.42 -6.38317 1.49102 0
M  V30 15144 H 1465.94 -5.99539 -0.177082 0
M  V30 15145 H 1467.62 -6.46738 0.18419 0
M  V30 15146 N 1467.75 -0.0969077 -1.57302 0
M  V30 15147 C 1468.7 0.878876 -2.15357 0
M  V30 15148 C 1469.7 1.29091 -1.0969 0
M  V30 15149 O 1470.9 1.26523 -1.28031 0
M  V30 15150 H 1467.28 0.301458 -0.688932 0
M  V30 15151 H 1469.25 0.364542 -2.96165 0
M  V30 15152 C 1468 2.12761 -2.75006 0
M  V30 15153 H 1467.32 1.81944 -3.56 0
M  V30 15154 H 1468.76 2.79092 -3.19193 0
M  V30 15155 C 1467.22 2.90283 -1.70989 0
M  V30 15156 O 1467.75 3.84889 -1.14992 0
M  V30 15157 N 1465.95 2.53857 -1.41439 0
M  V30 15158 H 1465.5 1.76993 -1.87166 0
M  V30 15159 H 1465.46 3.06025 -0.720816 0
M  V30 15160 N 1469.23 1.56605 0.176793 0
M  V30 15161 C 1470.18 1.95985 1.21896 0
M  V30 15162 C 1471.15 0.822983 1.44278 0
M  V30 15163 O 1472.33 1.08266 1.57109 0
M  V30 15164 C 1469.47 2.32029 2.55454 0
M  V30 15165 C 1468.59 3.58867 2.40497 0
M  V30 15166 C 1467.72 3.84148 3.66884 0
M  V30 15167 C 1466.76 5.04352 3.46837 0
M  V30 15168 N 1465.9 5.25794 4.6528 0
M  V30 15169 H 1470.74 2.84829 0.876137 0
M  V30 15170 H 1468.27 1.4094 0.421221 0
M  V30 15171 H 1470.23 2.50947 3.33289 0
M  V30 15172 H 1468.86 1.46301 2.87743 0
M  V30 15173 H 1467.91 3.47893 1.53866 0
M  V30 15174 H 1469.23 4.46859 2.21627 0
M  V30 15175 H 1468.38 4.03404 4.53155 0
M  V30 15176 H 1467.12 2.9452 3.88727 0
M  V30 15177 H 1466.12 4.84999 2.58952 0
M  V30 15178 H 1467.35 5.95505 3.26421 0
M  V30 15179 H 1465.3 4.39117 4.87352 0
M  V30 15180 H 1465.21 6.07999 4.49303 0
M  V30 15181 H 1466.48 5.49524 5.5285 0
M  V30 15182 N 1470.71 -0.445159 1.51182 0
M  V30 15183 C 1471.66 -1.53975 1.71931 0
M  V30 15184 C 1472.63 -1.56344 0.560865 0
M  V30 15185 O 1473.81 -1.73475 0.794414 0
M  V30 15186 C 1470.95 -2.91756 1.84316 0
M  V30 15187 C 1470.06 -2.98976 3.11829 0
M  V30 15188 C 1469.2 -4.27831 3.14855 0
M  V30 15189 C 1468.24 -4.2889 4.36715 0
M  V30 15190 N 1467.38 -5.49257 4.37334 0
M  V30 15191 H 1472.22 -1.35586 2.65368 0
M  V30 15192 H 1469.75 -0.658787 1.31523 0
M  V30 15193 H 1471.71 -3.7169 1.89479 0
M  V30 15194 H 1470.34 -3.08721 0.942947 0
M  V30 15195 H 1469.39 -2.11753 3.16014 0
M  V30 15196 H 1470.7 -2.95619 4.01759 0
M  V30 15197 H 1469.86 -5.16134 3.1889 0
M  V30 15198 H 1468.6 -4.33833 2.228 0
M  V30 15199 H 1467.6 -3.38982 4.32864 0
M  V30 15200 H 1468.83 -4.24558 5.30026 0
M  V30 15201 H 1466.77 -5.55995 3.48145 0
M  V30 15202 H 1466.69 -5.47748 5.21064 0
M  V30 15203 H 1467.96 -6.39613 4.45551 0
M  V30 15204 N 1472.19 -1.41197 -0.700089 0
M  V30 15205 C 1473.44 -1.40034 -1.45722 0
M  V30 15206 C 1473.76 -0.00876281 -1.94998 0
M  V30 15207 O 1473.03 0.948647 -1.71399 0
M  V30 15208 H 1471.61 -0.515433 -0.540683 0
M  V30 15209 H 1474.27 -1.76394 -0.828926 0
M  V30 15210 H 1473.36 -2.08477 -2.32258 0
M  V30 15211 N 1473.67 0.933891 -1.2695 0
M  V30 15212 C 1474.91 1.68091 -1.12924 0
M  V30 15213 C 1475.24 1.91747 0.326088 0
M  V30 15214 O 1474.5 1.50126 1.25541 0
M  V30 15215 C 1474.79 3.05706 -1.85145 0
M  V30 15216 C 1474.46 3.01781 -3.35021 0
M  V30 15217 C 1473.12 3.00417 -3.75903 0
M  V30 15218 C 1475.47 2.93537 -4.3068 0
M  V30 15219 C 1472.8 2.88585 -5.10818 0
M  V30 15220 C 1475.15 2.83246 -5.65645 0
M  V30 15221 C 1473.82 2.80229 -6.05828 0
M  V30 15222 H 1473.09 0.615087 -0.413217 0
M  V30 15223 H 1475.74 1.08957 -1.57482 0
M  V30 15224 H 1474.04 3.68508 -1.33077 0
M  V30 15225 H 1475.74 3.62369 -1.71726 0
M  V30 15226 H 1472.33 3.03626 -3.02505 0
M  V30 15227 H 1476.51 2.93693 -4.00073 0
M  V30 15228 H 1471.77 2.84632 -5.41105 0
M  V30 15229 H 1475.94 2.75832 -6.39445 0
M  V30 15230 H 1473.57 2.70818 -7.10325 0
M  V30 15231 N 1475.14 1.08871 1.13951 0
M  V30 15232 C 1476.09 0.692507 2.17229 0
M  V30 15233 C 1477.08 -0.290264 1.5826 0
M  V30 15234 O 1478.27 -0.101531 1.76709 0
M  V30 15235 C 1475.4 0.108487 3.43129 0
M  V30 15236 C 1474.48 1.11733 4.09117 0
M  V30 15237 N 1474.88 2.30244 4.50357 0
M  V30 15238 C 1473.17 0.954172 4.35674 0
M  V30 15239 C 1473.87 2.94373 5.01716 0
M  V30 15240 N 1472.85 2.2196 4.96221 0
M  V30 15241 H 1476.65 1.59489 2.46861 0
M  V30 15242 H 1474.17 0.964113 1.30685 0
M  V30 15243 H 1476.16 -0.193345 4.16451 0
M  V30 15244 H 1474.82 -0.78882 3.14973 0
M  V30 15245 H 1475.83 2.67871 4.43244 0
M  V30 15246 H 1472.51 0.111069 4.17352 0
M  V30 15247 H 1473.9 3.95089 5.43465 0
M  V30 15248 N 1476.62 -1.31073 0.875073 0
M  V30 15249 C 1477.58 -2.26672 0.339481 0
M  V30 15250 C 1478.58 -1.52416 -0.512439 0
M  V30 15251 O 1479.77 -1.71217 -0.321012 0
M  V30 15252 C 1476.91 -3.36952 -0.517311 0
M  V30 15253 H 1478.1 -2.7556 1.18349 0
M  V30 15254 H 1475.65 -1.42093 0.65109 0
M  V30 15255 H 1476.39 -2.93364 -1.38231 0
M  V30 15256 H 1476.17 -3.9199 0.092773 0
M  V30 15257 H 1477.66 -4.08133 -0.884154 0
M  V30 15258 N 1478.1 -0.635022 -1.4424 0
M  V30 15259 C 1479.52 -0.300978 -1.56736 0
M  V30 15260 C 1479.72 1.19571 -1.62188 0
M  V30 15261 O 1478.77 1.97991 -1.56703 0
M  V30 15262 C 1480.09 -0.996327 -2.83714 0
M  V30 15263 C 1481.63 -0.97484 -2.97432 0
M  V30 15264 C 1482.11 -1.65073 -4.27218 0
M  V30 15265 N 1483.6 -1.6175 -4.3404 0
M  V30 15266 C 1484.33 -2.10938 -5.33191 0
M  V30 15267 N 1483.83 -2.68333 -6.38725 0
M  V30 15268 N 1485.62 -2.01544 -5.24725 0
M  V30 15269 H 1477.77 -1.60649 -1.38945 0
M  V30 15270 H 1480.04 -0.674561 -0.666087 0
M  V30 15271 H 1479.74 -2.05128 -2.85684 0
M  V30 15272 H 1479.62 -0.536511 -3.73365 0
M  V30 15273 H 1482 0.071646 -2.95013 0
M  V30 15274 H 1482.09 -1.47318 -2.0912 0
M  V30 15275 H 1481.73 -2.69669 -4.30397 0
M  V30 15276 H 1481.66 -1.12719 -5.14395 0
M  V30 15277 H 1484.15 -1.1985 -3.58392 0
M  V30 15278 H 1484.46 -3.03588 -7.10672 0
M  V30 15279 H 1482.81 -2.72385 -6.39399 0
M  V30 15280 H 1486 -1.56423 -4.41191 0
M  V30 15281 H 1486.17 -2.40187 -6.01842 0
M  V30 15282 N 1479.58 1.53054 -0.375806 0
M  V30 15283 C 1480.81 2.05521 0.210828 0
M  V30 15284 C 1481.22 1.24837 1.4217 0
M  V30 15285 O 1480.56 0.284634 1.81481 0
M  V30 15286 C 1480.62 3.53417 0.658548 0
M  V30 15287 C 1480.29 4.54906 -0.437025 0
M  V30 15288 C 1481.28 5.03638 -1.29016 0
M  V30 15289 C 1478.97 4.98701 -0.600194 0
M  V30 15290 C 1480.96 5.94777 -2.29171 0
M  V30 15291 C 1478.65 5.89644 -1.6051 0
M  V30 15292 C 1479.65 6.37573 -2.44929 0
M  V30 15293 O 1479.33 7.26721 -3.43703 0
M  V30 15294 H 1479.07 0.674893 0.0386627 0
M  V30 15295 H 1481.62 1.98296 -0.535534 0
M  V30 15296 H 1479.85 3.58215 1.45667 0
M  V30 15297 H 1481.54 3.88692 1.16933 0
M  V30 15298 H 1482.31 4.70543 -1.17534 0
M  V30 15299 H 1478.18 4.60976 0.0471346 0
M  V30 15300 H 1481.73 6.3211 -2.95099 0
M  V30 15301 H 1477.63 6.22153 -1.72035 0
M  V30 15302 H 1478.39 7.44746 -3.39553 0
M  V30 15303 N 1481.06 0.105248 1.57248 0
M  V30 15304 C 1482.28 -0.564157 1.9906 0
M  V30 15305 C 1482.7 -1.61092 0.984624 0
M  V30 15306 O 1482.06 -1.82484 -0.0244031 0
M  V30 15307 C 1482.11 -1.20272 3.40906 0
M  V30 15308 O 1481.83 -0.197815 4.37653 0
M  V30 15309 C 1483.33 -1.95677 3.97776 0
M  V30 15310 H 1480.55 -0.150468 0.653912 0
M  V30 15311 H 1483.09 0.187532 2.03638 0
M  V30 15312 H 1481.25 -1.90528 3.3731 0
M  V30 15313 H 1481.66 -0.659998 5.20331 0
M  V30 15314 H 1483.14 -2.35702 4.99148 0
M  V30 15315 H 1483.61 -2.82661 3.36154 0
M  V30 15316 H 1484.22 -1.30215 4.04876 0
M  V30 15317 N 1482.53 -1.56697 -0.168486 0
M  V30 15318 C 1483.76 -1.86652 -0.904195 0
M  V30 15319 C 1484.18 -0.691906 -1.74912 0
M  V30 15320 O 1483.54 0.358971 -1.77711 0
M  V30 15321 C 1483.59 -3.15043 -1.75442 0
M  V30 15322 O 1482.69 -2.97466 -2.85636 0
M  V30 15323 H 1482.04 -0.613859 -0.253128 0
M  V30 15324 H 1484.57 -2.03927 -0.165773 0
M  V30 15325 H 1484.58 -3.4652 -2.15378 0
M  V30 15326 H 1483.25 -4.00147 -1.13381 0
M  V30 15327 H 1481.83 -2.7735 -2.49262 0
M  V30 15328 N 1484.01 0.437135 -1.51416 0
M  V30 15329 C 1485.24 1.20898 -1.67903 0
M  V30 15330 C 1485.66 1.85009 -0.376458 0
M  V30 15331 O 1485.01 1.7072 0.645051 0
M  V30 15332 C 1485.06 2.29286 -2.79482 0
M  V30 15333 O 1484.78 1.67798 -4.04692 0
M  V30 15334 C 1486.29 3.19561 -3.07238 0
M  V30 15335 H 1483.51 0.364381 -0.563442 0
M  V30 15336 H 1486.05 0.517931 -1.97833 0
M  V30 15337 H 1484.2 2.94107 -2.5215 0
M  V30 15338 H 1484.62 2.39433 -4.6666 0
M  V30 15339 H 1486.09 3.91748 -3.88893 0
M  V30 15340 H 1486.57 3.80327 -2.19654 0
M  V30 15341 H 1487.18 2.60441 -3.3623 0
M  V30 15342 N 1485.49 1.41566 0.692592 0
M  V30 15343 C 1486.44 1.43648 1.80648 0
M  V30 15344 C 1487.41 0.290497 1.6354 0
M  V30 15345 O 1488.59 0.491979 1.84348 0
M  V30 15346 C 1485.73 1.32733 3.18553 0
M  V30 15347 C 1484.85 2.57224 3.47073 0
M  V30 15348 C 1483.98 2.38581 4.74608 0
M  V30 15349 C 1483.02 3.58534 4.96105 0
M  V30 15350 N 1482.16 3.38942 6.14868 0
M  V30 15351 H 1487 2.38847 1.78203 0
M  V30 15352 H 1484.53 1.186 0.870193 0
M  V30 15353 H 1486.49 1.24405 3.9822 0
M  V30 15354 H 1485.12 0.411407 3.20168 0
M  V30 15355 H 1484.17 2.7599 2.6179 0
M  V30 15356 H 1485.49 3.46443 3.58858 0
M  V30 15357 H 1484.64 2.27738 5.62335 0
M  V30 15358 H 1483.38 1.46824 4.65074 0
M  V30 15359 H 1482.38 3.69828 4.06826 0
M  V30 15360 H 1483.61 4.51248 5.07496 0
M  V30 15361 H 1481.55 2.49887 6.06541 0
M  V30 15362 H 1481.47 4.21737 6.27434 0
M  V30 15363 H 1482.74 3.31877 7.05321 0
M  V30 15364 N 1486.97 -0.927146 1.27443 0
M  V30 15365 C 1488.22 -1.67489 1.13814 0
M  V30 15366 C 1488.54 -1.91917 -0.315914 0
M  V30 15367 O 1487.8 -1.5079 -1.24743 0
M  V30 15368 C 1488.1 -3.0472 1.86764 0
M  V30 15369 C 1487.76 -3 3.36617 0
M  V30 15370 C 1486.43 -2.9842 3.77491 0
M  V30 15371 C 1488.78 -2.91249 4.32231 0
M  V30 15372 C 1486.11 -2.85872 5.12342 0
M  V30 15373 C 1488.46 -2.80242 5.67139 0
M  V30 15374 C 1487.12 -2.77013 6.07306 0
M  V30 15375 H 1486.39 -0.612887 0.416474 0
M  V30 15376 H 1489.04 -1.0812 1.58058 0
M  V30 15377 H 1487.34 -3.67797 1.35029 0
M  V30 15378 H 1489.04 -3.61453 1.73646 0
M  V30 15379 H 1485.63 -3.02017 3.04111 0
M  V30 15380 H 1489.81 -2.91567 4.01625 0
M  V30 15381 H 1485.07 -2.81758 5.42607 0
M  V30 15382 H 1489.24 -2.72437 6.40899 0
M  V30 15383 H 1486.87 -2.67047 7.11751 0
M  V30 15384 N 1488.45 -1.09474 -1.13372 0
M  V30 15385 C 1489.38 -0.692446 -2.1849 0
M  V30 15386 C 1490.39 0.265942 -1.60613 0
M  V30 15387 O 1491.58 0.0519189 -1.78424 0
M  V30 15388 C 1488.68 0.000306083 -3.389 0
M  V30 15389 C 1487.85 -0.979745 -4.26286 0
M  V30 15390 C 1486.91 -0.320309 -5.25224 0
M  V30 15391 O 1485.94 -0.968089 -5.60907 0
M  V30 15392 N 1487.14 0.92536 -5.73077 0
M  V30 15393 H 1489.91 -1.59681 -2.53618 0
M  V30 15394 H 1487.47 -0.982256 -1.28699 0
M  V30 15395 H 1489.46 0.45268 -4.0216 0
M  V30 15396 H 1488.03 0.806927 -3.02006 0
M  V30 15397 H 1487.25 -1.61067 -3.59793 0
M  V30 15398 H 1488.54 -1.64348 -4.81526 0
M  V30 15399 H 1487.93 1.47119 -5.46235 0
M  V30 15400 H 1486.49 1.32105 -6.38272 0
M  V30 15401 N 1489.92 1.30607 -0.882012 0
M  V30 15402 C 1491.2 1.91056 -0.419153 0
M  V30 15403 C 1491.58 1.80185 1.09985 0
M  V30 15404 O 1490.93 1.21717 1.93384 0
M  V30 15405 C 1491.14 3.3682 -0.913949 0
M  V30 15406 C 1492.49 4.13901 -0.947169 0
M  V30 15407 O 1493.51 3.45652 -0.860412 0
M  V30 15408 O 1492.37 5.35826 -1.07483 0
M  V30 15409 H 1489.46 0.81709 -0.127645 0
M  V30 15410 H 1492.01 1.39195 -0.970717 0
M  V30 15411 H 1490.78 3.38804 -1.95774 0
M  V30 15412 H 1490.41 3.96132 -0.34138 0
M  V30 15413 N 1491.4 0.642663 1.43901 0
M  V30 15414 C 1492.37 -0.0457858 2.29154 0
M  V30 15415 C 1493.37 -0.760988 1.41653 0
M  V30 15416 O 1494.56 -0.603832 1.634 0
M  V30 15417 C 1491.69 -1.07552 3.23489 0
M  V30 15418 H 1492.88 0.704193 2.91515 0
M  V30 15419 H 1490.43 0.403361 1.51006 0
M  V30 15420 H 1491.17 -1.85509 2.66002 0
M  V30 15421 H 1490.95 -0.566468 3.87987 0
M  V30 15422 H 1492.44 -1.55663 3.87503 0
M  V30 15423 N 1492.88 -1.52852 0.383918 0
M  V30 15424 C 1493.81 -2.29213 -0.44539 0
M  V30 15425 C 1494.79 -1.3238 -1.06815 0
M  V30 15426 O 1495.98 -1.61269 -1.08194 0
M  V30 15427 C 1493.11 -3.09497 -1.57573 0
M  V30 15428 C 1492.06 -4.14168 -1.07928 0
M  V30 15429 C 1491.39 -4.82644 -2.30128 0
M  V30 15430 C 1492.69 -5.22082 -0.151035 0
M  V30 15431 H 1494.38 -2.98786 0.19172 0
M  V30 15432 H 1491.93 -1.43695 0.0936471 0
M  V30 15433 H 1493.88 -3.61672 -2.16267 0
M  V30 15434 H 1492.6 -2.37647 -2.24034 0
M  V30 15435 H 1491.26 -3.62966 -0.514909 0
M  V30 15436 H 1490.91 -4.07348 -2.95087 0
M  V30 15437 H 1490.61 -5.53388 -1.97574 0
M  V30 15438 H 1492.14 -5.37621 -2.89475 0
M  V30 15439 H 1493.55 -5.69649 -0.646003 0
M  V30 15440 H 1491.95 -6.00041 0.0844833 0
M  V30 15441 H 1493.02 -4.78228 0.801618 0
M  V30 15442 N 1494.36 -0.113586 -1.5719 0
M  V30 15443 C 1495.31 0.849646 -2.11577 0
M  V30 15444 C 1496.29 1.23174 -1.03523 0
M  V30 15445 O 1497.49 1.20373 -1.29766 0
M  V30 15446 C 1494.61 2.10175 -2.71443 0
M  V30 15447 C 1493.7 1.74427 -3.8657 0
M  V30 15448 N 1494.09 1.09326 -4.93843 0
M  V30 15449 C 1492.39 2.03919 -3.96652 0
M  V30 15450 C 1493.09 0.925979 -5.74283 0
M  V30 15451 N 1492.07 1.44924 -5.23925 0
M  V30 15452 H 1495.87 0.342685 -2.91895 0
M  V30 15453 H 1493.38 0.0890561 -1.62156 0
M  V30 15454 H 1495.38 2.80144 -3.08747 0
M  V30 15455 H 1494.04 2.6142 -1.92587 0
M  V30 15456 H 1495.05 0.757883 -5.12325 0
M  V30 15457 H 1491.73 2.57249 -3.2883 0
M  V30 15458 H 1493.12 0.415406 -6.70615 0
M  V30 15459 N 1495.84 1.56784 0.160173 0
M  V30 15460 C 1496.77 1.92391 1.22723 0
M  V30 15461 C 1497.75 0.788076 1.42226 0
M  V30 15462 O 1498.93 1.04245 1.57052 0
M  V30 15463 C 1496.06 2.18452 2.58836 0
M  V30 15464 C 1495.11 3.41121 2.56005 0
M  V30 15465 S 1495.94 4.95124 2.03991 0
M  V30 15466 C 1497.09 5.24292 3.4186 0
M  V30 15467 H 1497.33 2.82597 0.92337 0
M  V30 15468 H 1494.86 1.50018 0.365226 0
M  V30 15469 H 1496.82 2.34147 3.37172 0
M  V30 15470 H 1495.48 1.28934 2.86417 0
M  V30 15471 H 1494.67 3.56592 3.56172 0
M  V30 15472 H 1494.27 3.246 1.85771 0
M  V30 15473 H 1496.57 5.16953 4.37911 0
M  V30 15474 H 1497.51 6.2584 3.31255 0
M  V30 15475 H 1497.92 4.51834 3.38387 0
M  V30 15476 N 1497.32 -0.429099 1.51646 0
M  V30 15477 C 1498.26 -1.52143 1.73554 0
M  V30 15478 C 1499.23 -1.55741 0.577416 0
M  V30 15479 O 1500.42 -1.72623 0.812768 0
M  V30 15480 C 1497.56 -2.89785 1.874 0
M  V30 15481 C 1496.67 -2.95652 3.14982 0
M  V30 15482 C 1495.81 -4.24468 3.19375 0
M  V30 15483 C 1494.84 -4.24234 4.41239 0
M  V30 15484 N 1493.98 -5.44587 4.43135 0
M  V30 15485 H 1498.82 -1.32764 2.66791 0
M  V30 15486 H 1496.36 -0.6448 1.32215 0
M  V30 15487 H 1498.32 -3.6966 1.9341 0
M  V30 15488 H 1496.95 -3.07703 0.975638 0
M  V30 15489 H 1496 -2.0839 3.18242 0
M  V30 15490 H 1497.31 -2.91342 4.04872 0
M  V30 15491 H 1496.46 -5.12722 3.24347 0
M  V30 15492 H 1495.2 -4.31446 2.27389 0
M  V30 15493 H 1494.21 -3.34371 4.36435 0
M  V30 15494 H 1495.43 -4.18913 5.34499 0
M  V30 15495 H 1493.38 -5.52271 3.54023 0
M  V30 15496 H 1493.3 -5.42191 5.26845 0
M  V30 15497 H 1494.56 -6.34851 4.5231 0
M  V30 15498 N 1498.79 -1.41931 -0.685074 0
M  V30 15499 C 1499.74 -1.44604 -1.79884 0
M  V30 15500 C 1500.71 -0.299166 -1.63384 0
M  V30 15501 O 1501.9 -0.501749 -1.84085 0
M  V30 15502 C 1499.04 -1.3442 -3.17845 0
M  V30 15503 C 1498.15 -2.59061 -3.45704 0
M  V30 15504 C 1497.28 -2.41094 -4.73336 0
M  V30 15505 C 1496.32 -3.61159 -4.94197 0
M  V30 15506 N 1495.46 -3.42198 -6.13062 0
M  V30 15507 H 1500.3 -2.39788 -1.76934 0
M  V30 15508 H 1497.84 -1.1906 -0.863891 0
M  V30 15509 H 1499.79 -1.26515 -3.97555 0
M  V30 15510 H 1498.42 -0.42838 -3.19945 0
M  V30 15511 H 1497.48 -2.77374 -2.60322 0
M  V30 15512 H 1498.79 -3.48341 -3.57016 0
M  V30 15513 H 1497.94 -2.30717 -5.61119 0
M  V30 15514 H 1496.68 -1.49288 -4.64289 0
M  V30 15515 H 1495.69 -3.7198 -4.04859 0
M  V30 15516 H 1496.91 -4.53933 -5.05096 0
M  V30 15517 H 1494.86 -2.531 -6.05208 0
M  V30 15518 H 1494.77 -4.25059 -6.25189 0
M  V30 15519 H 1496.04 -3.35612 -7.03551 0
M  V30 15520 O 1500.31 0.827418 -1.38694 0
M  V30 15521 H 1501 1.47034 -1.26098 0
M  V30 END ATOM
M  V30 BEGIN BOND
M  V30 END BOND
M  V30 END CTAB
M  END
$$$$
