drugbank_target|Q9Y616 Interleukin-1 receptor-associated kinase 3 (DB12010)
 OpenBabel12092121163D

  0  0  0     0  0            999 V3000
M  V30 BEGIN CTAB
M  V30 COUNTS 9483 9595 0 0 0
M  V30 BEGIN ATOM
M  V30 1 H -0.908 1.98254 -0.117106 0
M  V30 2 N 0 1.576 0 0
M  V30 3 C 0.933 2.03868 1.02534 0
M  V30 4 C 1.911 0.928543 1.3348 0
M  V30 5 O 3.095 1.19667 1.45644 0
M  V30 6 C 0.222 2.43627 2.35294 0
M  V30 7 C -0.732 3.65373 2.2001 0
M  V30 8 S 0.101 5.13292 1.52614 0
M  V30 9 C 1.257 5.56322 2.86805 0
M  V30 10 H 1.49 2.90518 0.631377 0
M  V30 11 H -0.977 1.52953 0.210867 0
M  V30 12 H 0.981 2.67203 3.11629 0
M  V30 13 H -0.358 1.57376 2.7183 0
M  V30 14 H -1.165 3.90944 3.18086 0
M  V30 15 H -1.563 3.418 1.51819 0
M  V30 16 H 0.729 5.58782 3.83104 0
M  V30 17 H 1.672 6.56266 2.65933 0
M  V30 18 H 2.08 4.83886 2.90714 0
M  V30 19 N 1.4781 -0.272755 1.55222 0
M  V30 20 C 2.4411 -1.32041 1.87344 0
M  V30 21 C 3.4411 -1.42342 0.74803 0
M  V30 22 O 4.6311 -1.41488 1.0162 0
M  V30 23 C 1.7631 -2.70173 2.07893 0
M  V30 24 H 2.9561 -1.04789 2.80997 0
M  V30 25 H 0.5091 -0.51083 1.47717 0
M  V30 26 H 1.2441 -3.02605 1.16622 0
M  V30 27 H 1.0291 -2.64082 2.89833 0
M  V30 28 H 2.5191 -3.45869 2.34017 0
M  V30 29 N 2.9562 -1.48159 -0.537278 0
M  V30 30 C 4.2042 -1.55497 -1.29094 0
M  V30 31 C 4.5252 -0.227454 -1.93669 0
M  V30 32 O 3.7952 0.750386 -1.80959 0
M  V30 33 H 2.3752 -0.572832 -0.47945 0
M  V30 34 H 5.0372 -1.84579 -0.625818 0
M  V30 35 H 4.1332 -2.33216 -2.07405 0
M  V30 36 N 4.4343 0.785586 -1.36625 0
M  V30 37 C 5.3823 1.91978 -1.31329 0
M  V30 38 C 6.3763 1.68162 -0.204416 0
M  V30 39 O 7.5823 1.76122 -0.371645 0
M  V30 40 H 3.9573 0.631087 -0.408942 0
M  V30 41 H 5.9283 1.93562 -2.27104 0
M  V30 42 C 4.6773 3.29055 -1.12329 0
M  V30 43 H 4.0003 3.4795 -1.96903 0
M  V30 44 H 5.4403 4.08756 -1.12671 0
M  V30 45 C 3.8993 3.36461 0.171861 0
M  V30 46 O 4.4293 3.84576 1.16035 0
M  V30 47 N 2.6353 2.89782 0.217846 0
M  V30 48 H 2.1823 2.50819 -0.587183 0
M  V30 49 H 2.1403 2.95119 1.08408 0
M  V30 50 N 5.9124 1.20967 1.01018 0
M  V30 51 C 7.1524 1.03511 1.76252 0
M  V30 52 C 7.5164 -0.42458 1.87247 0
M  V30 53 O 8.7174 -0.719508 2.58991 0
M  V30 54 C 6.9884 1.70726 3.13986 0
M  V30 55 S 8.5474 1.68458 4.05176 0
M  V30 56 H 5.3654 0.371037 0.606508 0
M  V30 57 H 7.9674 1.53628 1.20908 0
M  V30 58 H 6.6714 2.76128 3.03614 0
M  V30 59 H 6.2024 1.20767 3.74405 0
M  V30 60 H 8.2174 0.721987 4.90919 0
M  V30 61 N 7.3905 -1.2043 1.01659 0
M  V30 62 C 8.6385 -1.89423 0.704522 0
M  V30 63 C 8.9595 -1.79231 -0.768197 0
M  V30 64 O 8.2295 -1.1947 -1.55254 0
M  V30 65 H 6.8095 -0.701178 0.257602 0
M  V30 66 H 9.4715 -1.4626 1.28818 0
M  V30 67 H 8.5675 -2.96052 0.987916 0
M  V30 68 N 8.8686 -0.792821 -1.36206 0
M  V30 69 C 9.8316 -0.199459 -2.2833 0
M  V30 70 C 10.8316 0.605189 -1.48977 0
M  V30 71 O 12.0216 0.425685 -1.68919 0
M  V30 72 C 9.1536 0.723523 -3.33134 0
M  V30 73 H 10.3466 -1.01181 -2.82316 0
M  V30 74 H 7.8996 -0.562485 -1.45828 0
M  V30 75 H 8.6346 1.56008 -2.84309 0
M  V30 76 H 8.4196 0.148436 -3.91819 0
M  V30 77 H 9.9096 1.13344 -4.01924 0
M  V30 78 N 10.3467 1.47872 -0.545128 0
M  V30 79 C 11.7627 1.5829 -0.204032 0
M  V30 80 C 11.9627 1.54529 1.29317 0
M  V30 81 O 11.0187 1.44232 2.07252 0
M  V30 82 C 12.3317 2.89304 -0.819987 0
M  V30 83 C 13.8797 3.02864 -0.790105 0
M  V30 84 C 14.3547 4.3656 -1.38491 0
M  V30 85 N 15.8457 4.43165 -1.34755 0
M  V30 86 C 16.5807 5.45153 -1.77753 0
M  V30 87 N 16.0767 6.54016 -2.2855 0
M  V30 88 N 17.8697 5.36125 -1.68897 0
M  V30 89 H 10.0207 1.4856 -1.51802 0
M  V30 90 H 12.2837 0.706305 -0.632327 0
M  V30 91 H 11.9897 2.97757 -1.87173 0
M  V30 92 H 11.8637 3.75957 -0.305915 0
M  V30 93 H 14.2507 2.94014 0.252913 0
M  V30 94 H 14.3317 2.17782 -1.34181 0
M  V30 95 H 13.9757 4.46164 -2.42693 0
M  V30 96 H 13.9057 5.20353 -0.808754 0
M  V30 97 H 16.3967 3.65083 -0.975855 0
M  V30 98 H 16.7097 7.27994 -2.59314 0
M  V30 99 H 15.0547 6.54938 -2.32553 0
M  V30 100 H 18.2457 4.49975 -1.28998 0
M  V30 101 H 18.4187 6.15472 -2.02726 0
M  V30 102 N 11.8248 0.280983 1.55075 0
M  V30 103 C 13.0728 -0.333455 1.9933 0
M  V30 104 C 13.3938 -1.55937 1.17085 0
M  V30 105 O 12.6638 -1.94143 0.261805 0
M  V30 106 H 11.2438 -0.126197 0.736263 0
M  V30 107 H 13.9058 0.387678 1.91005 0
M  V30 108 H 13.0018 -0.619292 3.05894 0
M  V30 109 N 13.3029 -1.57598 0.00835791 0
M  V30 110 C 14.2659 -2.07884 -0.965242 0
M  V30 111 C 15.2659 -0.989825 -1.26725 0
M  V30 112 O 16.4559 -1.25218 -1.21104 0
M  V30 113 C 13.5879 -2.52731 -2.28779 0
M  V30 114 H 14.7809 -2.95178 -0.530112 0
M  V30 115 H 12.3339 -1.54458 -0.239283 0
M  V30 116 H 13.0689 -1.68705 -2.76964 0
M  V30 117 H 12.8539 -3.32272 -2.08177 0
M  V30 118 H 14.3439 -2.91933 -2.98605 0
M  V30 119 N 14.781 0.264519 -1.55364 0
M  V30 120 C 15.711 1.33121 -1.91836 0
M  V30 121 C 16.692 1.51101 -0.781192 0
M  V30 122 O 17.877 1.64003 -1.04003 0
M  V30 123 C 15.007 2.68921 -2.19769 0
M  V30 124 C 13.961 2.65661 -3.35571 0
M  V30 125 C 13.287 4.05093 -3.49004 0
M  V30 126 C 14.587 2.24187 -4.71739 0
M  V30 127 H 16.281 1.02844 -2.81182 0
M  V30 128 H 13.827 0.493286 -1.35287 0
M  V30 129 H 15.78 3.43663 -2.43872 0
M  V30 130 H 14.504 3.00799 -1.27231 0
M  V30 131 H 13.163 1.93377 -3.1145 0
M  V30 132 H 12.811 4.34206 -2.53917 0
M  V30 133 H 12.511 4.03804 -4.26868 0
M  V30 134 H 14.035 4.81561 -3.75408 0
M  V30 135 H 15.449 2.88654 -4.9533 0
M  V30 136 H 13.846 2.34044 -5.52579 0
M  V30 137 H 14.916 1.19327 -4.69988 0
M  V30 138 N 16.2591 1.48442 0.529413 0
M  V30 139 C 17.4841 1.60406 1.31471 0
M  V30 140 C 17.9091 0.264738 1.86228 0
M  V30 141 O 17.2671 -0.763668 1.64432 0
M  V30 142 C 17.3151 2.65419 2.44101 0
M  V30 143 O 16.4191 2.22618 3.47153 0
M  V30 144 H 15.7601 0.537863 0.389357 0
M  V30 145 H 18.2901 1.94432 0.636965 0
M  V30 146 H 18.3001 2.86709 2.90279 0
M  V30 147 H 16.9751 3.62652 2.03608 0
M  V30 148 H 15.5521 2.11543 3.0709 0
M  V30 149 N 17.7372 -0.778329 1.37039 0
M  V30 150 C 18.7002 -1.87301 1.32102 0
M  V30 151 C 19.7002 -1.59198 0.226405 0
M  V30 152 O 20.8902 -1.67403 0.481861 0
M  V30 153 C 18.0222 -3.24309 1.05055 0
M  V30 154 H 19.2152 -1.93093 2.29467 0
M  V30 155 H 16.7682 -0.977358 1.21973 0
M  V30 156 H 17.5032 -3.24196 0.0819373 0
M  V30 157 H 17.2882 -3.46098 1.84279 0
M  V30 158 H 18.7782 -4.04382 1.04234 0
M  V30 159 N 19.2153 -1.21501 -1.00376 0
M  V30 160 C 20.1653 -0.942843 -2.07592 0
M  V30 161 C 21.1493 0.102384 -1.60574 0
M  V30 162 O 22.3413 -0.10671 -1.76678 0
M  V30 163 C 19.4703 -0.510729 -3.3948 0
M  V30 164 C 18.5563 -1.59009 -3.93163 0
M  V30 165 N 18.9473 -2.81544 -4.20198 0
M  V30 166 C 17.2453 -1.45925 -4.21452 0
M  V30 167 C 17.9463 -3.51261 -4.63671 0
M  V30 168 N 16.9223 -2.78703 -4.66718 0
M  V30 169 H 20.7243 -1.87378 -2.26421 0
M  V30 170 H 18.2383 -1.11093 -1.18458 0
M  V30 171 H 20.2353 -0.297101 -4.1584 0
M  V30 172 H 18.8953 0.413436 -3.22057 0
M  V30 173 H 19.9063 -3.18075 -4.08716 0
M  V30 174 H 16.5833 -0.600467 -4.13159 0
M  V30 175 H 17.9733 -4.56183 -4.93302 0
M  V30 176 N 20.6934 1.19889 -1.02296 0
M  V30 177 C 21.9214 1.9339 -0.735399 0
M  V30 178 C 22.3364 1.75148 0.704887 0
M  V30 179 O 21.6934 1.06954 1.47875 0
M  V30 180 C 21.7444 3.45313 -1.06962 0
M  V30 181 O 21.4654 3.62964 -2.45334 0
M  V30 182 C 22.9664 4.35948 -0.804021 0
M  V30 183 H 20.1864 0.61448 -0.269546 0
M  V30 184 H 22.7304 1.522 -1.36585 0
M  V30 185 H 20.8854 3.84359 -0.484455 0
M  V30 186 H 21.2994 4.56886 -2.57595 0
M  V30 187 H 22.7734 5.41174 -1.0879 0
M  V30 188 H 23.2504 4.3842 0.261691 0
M  V30 189 H 23.8564 4.02574 -1.37164 0
M  V30 190 N 22.1715 0.800033 1.35784 0
M  V30 191 C 23.1015 0.220184 2.3246 0
M  V30 192 C 24.0825 -0.65073 1.57161 0
M  V30 193 O 25.2675 -0.582359 1.85263 0
M  V30 194 C 22.3975 -0.637353 3.41402 0
M  V30 195 C 21.3515 0.134531 4.27789 0
M  V30 196 C 20.6775 -0.844285 5.27992 0
M  V30 197 C 21.9775 1.32979 5.05088 0
M  V30 198 H 23.6715 1.02787 2.81203 0
M  V30 199 H 21.2175 0.495717 1.35199 0
M  V30 200 H 23.1705 -1.05302 4.08031 0
M  V30 201 H 21.8945 -1.47785 2.91251 0
M  V30 202 H 20.5535 0.531296 3.6273 0
M  V30 203 H 20.2015 -1.68011 4.74111 0
M  V30 204 H 19.9015 -0.332184 5.8666 0
M  V30 205 H 21.4255 -1.2583 5.97494 0
M  V30 206 H 22.8395 0.98934 5.64699 0
M  V30 207 H 21.2365 1.77593 5.7322 0
M  V30 208 H 22.3065 2.11978 4.36111 0
M  V30 209 N 23.6496 -1.47581 0.552962 0
M  V30 210 C 24.5796 -2.32762 -0.185451 0
M  V30 211 C 25.5606 -1.43527 -0.912905 0
M  V30 212 O 26.7456 -1.72388 -0.894201 0
M  V30 213 C 23.8756 -3.25219 -1.21859 0
M  V30 214 C 22.8296 -4.23661 -0.607864 0
M  V30 215 C 22.1556 -5.05413 -1.74533 0
M  V30 216 C 23.4556 -5.20481 0.435582 0
M  V30 217 H 25.1496 -2.94749 0.525684 0
M  V30 218 H 22.6956 -1.41738 0.254251 0
M  V30 219 H 24.6486 -3.8365 -1.7433 0
M  V30 220 H 23.3726 -2.61279 -1.95961 0
M  V30 221 H 22.0316 -3.66451 -0.104489 0
M  V30 222 H 21.6796 -4.3788 -2.47529 0
M  V30 223 H 21.3796 -5.72059 -1.34249 0
M  V30 224 H 22.9036 -5.66701 -2.27338 0
M  V30 225 H 24.3176 -5.733 -0.00290157 0
M  V30 226 H 22.7146 -5.95305 0.757067 0
M  V30 227 H 23.7846 -4.66217 1.33303 0
M  V30 228 N 25.1277 -0.289203 -1.54924 0
M  V30 229 C 26.3747 0.323519 -1.99899 0
M  V30 230 C 26.7027 1.54797 -1.17762 0
M  V30 231 O 25.9577 1.94237 -0.238835 0
M  V30 232 C 26.2567 0.736119 -3.49737 0
M  V30 233 C 25.9227 -0.385276 -4.49251 0
M  V30 234 C 24.5847 -0.693156 -4.76181 0
M  V30 235 C 26.9367 -1.14021 -5.08575 0
M  V30 236 C 24.2647 -1.7593 -5.59701 0
M  V30 237 C 26.6167 -2.19619 -5.93254 0
M  V30 238 C 25.2807 -2.51026 -6.185 0
M  V30 239 H 24.5507 0.118384 -0.731482 0
M  V30 240 H 27.1977 -0.405847 -1.8715 0
M  V30 241 H 25.5027 1.54539 -3.60035 0
M  V30 242 H 27.1997 1.22118 -3.81953 0
M  V30 243 H 23.7897 -0.135202 -4.28387 0
M  V30 244 H 27.9737 -0.915611 -4.87781 0
M  V30 245 H 23.2297 -2.0075 -5.77503 0
M  V30 246 H 27.4037 -2.78581 -6.38252 0
M  V30 247 H 25.0307 -3.33772 -6.83008 0
M  V30 248 N 26.6058 1.57591 -0.0167156 0
M  V30 249 C 27.8828 1.82547 0.702564 0
M  V30 250 C 28.2628 0.898018 1.91047 0
M  V30 251 O 27.6108 -0.0493456 2.28447 0
M  V30 252 C 27.8208 3.31459 1.09251 0
M  V30 253 C 29.1688 3.97622 1.48937 0
M  V30 254 O 30.1928 3.35881 1.18584 0
M  V30 255 O 29.0518 5.06415 2.05442 0
M  V30 256 H 26.1458 0.752268 0.343544 0
M  V30 257 H 28.6918 1.69644 -0.0434495 0
M  V30 258 H 27.4638 3.9061 0.23227 0
M  V30 259 H 27.0868 3.49422 1.89709 0
M  V30 260 N 28.0839 -0.256276 1.55502 0
M  V30 261 C 29.0139 -1.32102 1.92539 0
M  V30 262 C 29.9949 -1.50684 0.789194 0
M  V30 263 O 31.1799 -1.63449 1.04872 0
M  V30 264 C 28.3099 -2.67752 2.21192 0
M  V30 265 C 27.2639 -2.63878 3.36975 0
M  V30 266 C 26.5899 -4.03236 3.51147 0
M  V30 267 C 27.8899 -2.21682 4.72921 0
M  V30 268 H 29.5839 -1.01351 2.81724 0
M  V30 269 H 27.1299 -0.486105 1.35547 0
M  V30 270 H 29.0829 -3.42365 2.45691 0
M  V30 271 H 27.8069 -3.0012 1.28824 0
M  V30 272 H 26.4659 -1.91722 3.12471 0
M  V30 273 H 26.1139 -4.32854 2.56216 0
M  V30 274 H 25.8139 -4.01535 4.29003 0
M  V30 275 H 27.3379 -4.79563 3.77957 0
M  V30 276 H 28.7519 -2.86023 4.96854 0
M  V30 277 H 27.1489 -2.3111 5.53812 0
M  V30 278 H 28.2189 -1.16833 4.70615 0
M  V30 279 N 29.562 -1.4872 -0.521534 0
M  V30 280 C 30.973 -1.50607 -1.10337 0
M  V30 281 C 31.324 -0.280612 -1.94183 0
M  V30 282 O 30.449 0.611507 -2.0758 0
M  V30 283 C 31.044 -2.72903 -2.00772 0
M  V30 284 C 29.603 -2.77634 -2.54158 0
M  V30 285 C 28.75 -2.44241 -1.31307 0
M  V30 286 H 31.701 -1.55714 -0.306388 0
M  V30 287 H 31.722 -2.519 -2.85178 0
M  V30 288 H 31.234 -3.62077 -1.39721 0
M  V30 289 H 29.335 -1.92689 -3.18907 0
M  V30 290 H 29.448 -3.79283 -2.92714 0
M  V30 291 H 27.812 -1.95577 -1.63161 0
M  V30 292 H 28.595 -3.35666 -0.719943 0
M  V30 293 N 31.0401 0.771051 -1.3745 0
M  V30 294 C 32.4511 1.34737 -1.29239 0
M  V30 295 C 32.8021 1.96109 0.0596908 0
M  V30 296 O 31.9271 1.93865 0.961534 0
M  V30 297 C 32.5221 2.44973 -2.34037 0
M  V30 298 C 31.0811 2.98372 -2.29458 0
M  V30 299 C 30.2281 1.71595 -2.17831 0
M  V30 300 H 33.1791 0.571256 -1.48062 0
M  V30 301 H 33.2001 3.24471 -1.98744 0
M  V30 302 H 32.7121 2.00276 -3.32432 0
M  V30 303 H 30.8131 3.47443 -1.34589 0
M  V30 304 H 30.9261 3.53939 -3.229 0
M  V30 305 H 29.2901 1.94547 -1.64388 0
M  V30 306 H 30.0731 1.29001 -3.18141 0
M  V30 307 N 32.5182 1.22032 0.997298 0
M  V30 308 C 33.4812 0.987909 2.06816 0
M  V30 309 C 34.4812 -0.0440084 1.6074 0
M  V30 310 O 35.6712 0.194053 1.73116 0
M  V30 311 C 32.8032 0.49132 3.37341 0
M  V30 312 H 33.9962 1.93803 2.28868 0
M  V30 313 H 31.5492 1.03838 1.16822 0
M  V30 314 H 32.2842 -0.463364 3.20973 0
M  V30 315 H 32.0692 1.23575 3.72118 0
M  V30 316 H 33.5592 0.348824 4.16141 0
M  V30 317 N 33.9963 -1.19345 1.0293 0
M  V30 318 C 34.9263 -2.2481 0.631105 0
M  V30 319 C 35.9073 -1.66245 -0.360104 0
M  V30 320 O 37.0923 -1.92677 -0.242726 0
M  V30 321 C 34.2223 -3.47295 -0.0184607 0
M  V30 322 C 33.1763 -4.18536 0.895073 0
M  V30 323 C 32.5023 -5.34586 0.110592 0
M  V30 324 C 33.8023 -4.73287 2.209 0
M  V30 325 H 35.4963 -2.58372 1.51275 0
M  V30 326 H 33.0423 -1.24194 0.728818 0
M  V30 327 H 34.9953 -4.20268 -0.308675 0
M  V30 328 H 33.7193 -3.12933 -0.934907 0
M  V30 329 H 32.3783 -3.47446 1.16949 0
M  V30 330 H 32.0263 -4.96469 -0.807902 0
M  V30 331 H 31.7263 -5.83183 0.719087 0
M  V30 332 H 33.2503 -6.10355 -0.172871 0
M  V30 333 H 34.6643 -5.38013 1.98028 0
M  V30 334 H 33.0613 -5.32373 2.76946 0
M  V30 335 H 34.1313 -3.91331 2.86336 0
M  V30 336 N 35.4744 -0.807222 -1.35358 0
M  V30 337 C 36.4044 -0.232509 -2.3234 0
M  V30 338 C 37.3854 0.642386 -1.57504 0
M  V30 339 O 38.5704 0.572526 -1.85569 0
M  V30 340 C 35.7004 0.619238 -3.41735 0
M  V30 341 C 34.6544 -0.157215 -4.27711 0
M  V30 342 C 33.9804 0.816273 -5.28433 0
M  V30 343 C 35.2804 -1.35656 -5.04376 0
M  V30 344 H 36.9744 -1.04276 -2.80654 0
M  V30 345 H 34.5204 -0.50288 -1.34934 0
M  V30 346 H 36.4734 1.03137 -4.08584 0
M  V30 347 H 35.1974 1.46239 -2.92031 0
M  V30 348 H 33.8564 -0.550525 -3.62443 0
M  V30 349 H 33.5044 1.65494 -4.74996 0
M  V30 350 H 33.2044 0.301067 -5.86828 0
M  V30 351 H 34.7284 1.22659 -5.98153 0
M  V30 352 H 36.1424 -1.01927 -5.64166 0
M  V30 353 H 34.5394 -1.8063 -5.7227 0
M  V30 354 H 35.6094 -2.14288 -4.34981 0
M  V30 355 N 36.9525 1.47285 -0.560781 0
M  V30 356 C 38.2005 2.02064 -0.0379868 0
M  V30 357 C 38.5215 1.43711 1.31803 0
M  V30 358 O 37.7915 0.61362 1.86042 0
M  V30 359 H 36.3715 0.746918 -0.0110531 0
M  V30 360 H 39.0335 1.80648 -0.731598 0
M  V30 361 H 38.1295 3.12064 0.0474463 0
M  V30 362 N 38.4306 0.297415 1.54768 0
M  V30 363 C 39.3406 -0.58983 2.27064 0
M  V30 364 C 40.3566 -1.15144 1.30453 0
M  V30 365 O 41.5326 -1.17699 1.63428 0
M  V30 366 C 38.5976 -1.74714 2.9946 0
M  V30 367 C 37.6586 -1.21997 4.11601 0
M  V30 368 C 36.8916 -2.32212 4.80535 0
M  V30 369 O 37.1146 -3.52036 4.48806 0
M  V30 370 O 36.0486 -1.99106 5.68014 0
M  V30 371 H 39.8746 -0.00348199 3.037 0
M  V30 372 H 37.4596 0.0640035 1.49263 0
M  V30 373 H 39.3416 -2.42147 3.44881 0
M  V30 374 H 38.0166 -2.32016 2.25722 0
M  V30 375 H 36.9236 -0.511458 3.70587 0
M  V30 376 H 38.2566 -0.692419 4.87305 0
M  V30 377 N 39.9087 -1.5758 0.0250728 0
M  V30 378 C 40.8387 -2.13007 -0.956575 0
M  V30 379 C 41.8197 -1.0452 -1.342 0
M  V30 380 O 43.0047 -1.32332 -1.42133 0
M  V30 381 C 40.1347 -2.65386 -2.24026 0
M  V30 382 C 39.0887 -3.78623 -1.99571 0
M  V30 383 C 38.4147 -4.17414 -3.3417 0
M  V30 384 C 39.7147 -5.04867 -1.33814 0
M  V30 385 H 41.4087 -2.9528 -0.494991 0
M  V30 386 H 38.9547 -1.42042 -0.236651 0
M  V30 387 H 40.9077 -3.02794 -2.93076 0
M  V30 388 H 39.6317 -1.80268 -2.72343 0
M  V30 389 H 38.2907 -3.41646 -1.32941 0
M  V30 390 H 37.9387 -3.29284 -3.80238 0
M  V30 391 H 37.6387 -4.93719 -3.18615 0
M  V30 392 H 39.1627 -4.57402 -4.04495 0
M  V30 393 H 40.5767 -5.39888 -1.92857 0
M  V30 394 H 38.9737 -5.86144 -1.28669 0
M  V30 395 H 40.0437 -4.83904 -0.310561 0
M  V30 396 N 41.3868 0.248026 -1.55636 0
M  V30 397 C 42.6268 0.983592 -1.79178 0
M  V30 398 C 42.9908 1.82567 -0.594414 0
M  V30 399 O 44.1918 2.59292 -0.708583 0
M  V30 400 C 42.4628 1.82228 -3.07454 0
M  V30 401 S 44.0218 2.61709 -3.52213 0
M  V30 402 H 40.8398 0.330866 -0.629324 0
M  V30 403 H 43.4418 0.251562 -1.93875 0
M  V30 404 H 42.1458 1.19333 -3.92668 0
M  V30 405 H 41.6768 2.59708 -2.95492 0
M  V30 406 H 43.6918 3.84655 -3.13457 0
M  V30 407 N 42.8649 1.48995 0.513639 0
M  V30 408 C 43.8279 1.64229 1.59879 0
M  V30 409 C 44.8279 0.514696 1.5234 0
M  V30 410 O 46.0179 0.78087 1.55718 0
M  V30 411 C 43.1499 1.62783 2.99524 0
M  V30 412 H 44.3429 2.61004 1.47705 0
M  V30 413 H 41.8959 1.37837 0.736936 0
M  V30 414 H 42.6309 0.675461 3.17188 0
M  V30 415 H 42.4159 2.4466 3.06404 0
M  V30 416 H 43.9059 1.76669 3.78388 0
M  V30 417 N 44.343 -0.763751 1.37857 0
M  V30 418 C 45.589 -1.52483 1.33704 0
M  V30 419 C 45.922 -1.94051 -0.0759612 0
M  V30 420 O 45.197 -1.64675 -1.03501 0
M  V30 421 C 45.48 -2.78441 2.28348 0
M  V30 422 C 45.333 -2.43075 3.78463 0
M  V30 423 C 46.652 -3.80415 2.21298 0
M  V30 424 H 43.771 -0.553169 0.487005 0
M  V30 425 H 46.413 -0.875562 1.68624 0
M  V30 426 H 44.563 -3.33842 1.987 0
M  V30 427 H 46.235 -1.93527 4.18742 0
M  V30 428 H 44.478 -1.75666 3.96641 0
M  V30 429 H 45.149 -3.33149 4.40132 0
M  V30 430 H 47.625 -3.34527 2.47449 0
M  V30 431 H 46.501 -4.66257 2.89647 0
M  V30 432 H 46.762 -4.25262 1.20849 0
M  V30 433 N 45.8211 -1.22559 -0.990812 0
M  V30 434 C 46.7511 -1.0218 -2.09956 0
M  V30 435 C 47.7321 0.0579394 -1.70001 0
M  V30 436 O 48.9171 -0.104684 -1.93918 0
M  V30 437 C 46.0471 -0.601023 -3.4206 0
M  V30 438 C 45.0011 -1.62694 -3.95872 0
M  V30 439 C 44.3271 -1.06193 -5.24049 0
M  V30 440 C 45.6271 -3.01743 -4.2632 0
M  V30 441 H 47.3211 -1.94916 -2.27262 0
M  V30 442 H 44.8671 -0.938566 -1.09211 0
M  V30 443 H 46.8201 -0.445561 -4.19038 0
M  V30 444 H 45.5441 0.362005 -3.24588 0
M  V30 445 H 44.2031 -1.77021 -3.21028 0
M  V30 446 H 43.8511 -0.0901903 -5.02919 0
M  V30 447 H 43.5511 -1.74732 -5.61019 0
M  V30 448 H 45.0751 -0.918092 -6.03658 0
M  V30 449 H 46.4891 -2.90777 -4.94087 0
M  V30 450 H 44.8861 -3.67425 -4.74467 0
M  V30 451 H 45.9561 -3.51518 -3.34011 0
M  V30 452 N 47.2992 1.18797 -1.03562 0
M  V30 453 C 48.5762 1.84469 -0.650434 0
M  V30 454 C 48.9562 1.92319 0.870433 0
M  V30 455 O 48.3042 1.44528 1.76986 0
M  V30 456 C 48.5142 3.2306 -1.32036 0
M  V30 457 C 49.8622 3.9915 -1.44792 0
M  V30 458 O 50.8862 3.32481 -1.27806 0
M  V30 459 O 49.7452 5.18587 -1.72423 0
M  V30 460 H 46.8392 0.795251 -0.226946 0
M  V30 461 H 49.3852 1.26231 -1.13419 0
M  V30 462 H 48.1572 3.1222 -2.3587 0
M  V30 463 H 47.7802 3.88949 -0.8249 0
M  V30 464 N 48.7773 0.814389 1.34928 0
M  V30 465 C 50.0023 0.410097 2.03305 0
M  V30 466 C 50.4273 -0.973464 1.60951 0
M  V30 467 O 49.7853 -1.63185 0.789964 0
M  V30 468 C 49.8333 0.51049 3.56968 0
M  V30 469 O 48.9373 -0.473035 4.09678 0
M  V30 470 H 48.2783 0.170088 0.641846 0
M  V30 471 H 50.8083 1.10244 1.72358 0
M  V30 472 H 50.8183 0.383135 4.06197 0
M  V30 473 H 49.4933 1.51963 3.87144 0
M  V30 474 H 48.0703 -0.305272 3.71648 0
M  V30 475 N 50.2554 -1.46986 0.568584 0
M  V30 476 C 51.4954 -2.04336 0.0512999 0
M  V30 477 C 51.8594 -1.43214 -1.27881 0
M  V30 478 O 53.0604 -1.91679 -1.88448 0
M  V30 479 C 51.3314 -3.57389 -0.0282328 0
M  V30 480 S 52.8904 -4.36056 -0.489991 0
M  V30 481 H 49.7084 -0.71034 0.0306349 0
M  V30 482 H 52.3104 -1.80212 0.757891 0
M  V30 483 H 51.0144 -3.99395 0.944011 0
M  V30 484 H 50.5454 -3.86028 -0.75803 0
M  V30 485 H 52.5604 -4.6441 -1.74752 0
M  V30 486 N 51.7335 -0.305618 -1.54608 0
M  V30 487 C 53.0105 0.355652 -1.92339 0
M  V30 488 C 53.3905 1.71324 -1.23335 0
M  V30 489 O 52.7385 2.25473 -0.370702 0
M  V30 490 C 52.9485 0.46572 -3.45879 0
M  V30 491 C 54.2965 0.734426 -4.182 0
M  V30 492 O 55.3205 0.54935 -3.51938 0
M  V30 493 O 54.1795 1.09024 -5.35515 0
M  V30 494 H 51.2735 0.199666 -0.802535 0
M  V30 495 H 53.8195 -0.354017 -1.65966 0
M  V30 496 H 52.5915 -0.488461 -3.88239 0
M  V30 497 H 52.2145 1.22367 -3.78301 0
M  V30 498 N 53.2116 1.57565 -0.0334293 0
M  V30 499 C 54.4596 1.91598 0.642999 0
M  V30 500 C 54.7806 0.910847 1.7242 0
M  V30 501 O 54.0506 -0.0469931 1.95844 0
M  V30 502 H 52.6306 0.707228 0.240496 0
M  V30 503 H 55.2926 1.94726 -0.0822488 0
M  V30 504 H 54.3886 2.92336 1.09298 0
M  V30 505 N 54.6897 -0.239769 1.55765 0
M  V30 506 C 55.6527 -1.28038 1.90103 0
M  V30 507 C 56.6527 -1.40723 0.778055 0
M  V30 508 O 57.8427 -1.39301 1.04599 0
M  V30 509 C 54.9747 -2.65702 2.13577 0
M  V30 510 H 56.1677 -0.988048 2.83157 0
M  V30 511 H 53.7207 -0.479382 1.48767 0
M  V30 512 H 54.4557 -3.00063 1.23015 0
M  V30 513 H 54.2407 -2.57875 2.95369 0
M  V30 514 H 55.7307 -3.40828 2.41301 0
M  V30 515 N 56.1678 -1.49265 -0.50573 0
M  V30 516 C 57.0978 -1.68495 -1.61653 0
M  V30 517 C 58.0788 -0.53366 -1.61512 0
M  V30 518 O 59.2638 -0.76897 -1.78327 0
M  V30 519 C 56.3938 -1.74709 -3.00157 0
M  V30 520 C 55.3478 -2.89581 -3.15162 0
M  V30 521 C 54.6738 -2.80903 -4.5497 0
M  V30 522 C 55.9738 -4.30578 -2.95634 0
M  V30 523 H 57.6678 -2.61493 -1.45814 0
M  V30 524 H 55.2138 -1.25838 -0.70005 0
M  V30 525 H 57.1668 -1.86748 -3.77761 0
M  V30 526 H 55.8908 -0.783067 -3.17074 0
M  V30 527 H 54.5498 -2.77136 -2.39982 0
M  V30 528 H 54.1978 -1.82419 -4.68756 0
M  V30 529 H 53.8978 -3.57999 -4.65951 0
M  V30 530 H 55.4218 -2.94944 -5.34641 0
M  V30 531 H 56.8358 -4.4373 -3.63011 0
M  V30 532 H 55.2328 -5.0886 -3.18091 0
M  V30 533 H 56.3028 -4.45352 -1.91806 0
M  V30 534 N 57.6459 0.756429 -1.3826 0
M  V30 535 C 58.8939 1.51248 -1.34047 0
M  V30 536 C 59.2149 1.94875 0.0698372 0
M  V30 537 O 58.4849 1.67436 1.01696 0
M  V30 538 H 57.0649 0.561018 -0.493222 0
M  V30 539 H 59.7269 0.899347 -1.7291 0
M  V30 540 H 58.8229 2.40472 -1.98947 0
M  V30 541 N 59.124 1.23083 0.984299 0
M  V30 542 C 60.37 1.07221 1.72845 0
M  V30 543 C 60.725 -0.387453 1.88458 0
M  V30 544 O 60.018 -1.28309 1.42293 0
M  V30 545 C 60.212 1.72673 3.1292 0
M  V30 546 C 60.041 3.24853 3.10967 0
M  V30 547 C 58.811 3.93998 3.16376 0
M  V30 548 C 61.009 4.21674 2.94441 0
M  V30 549 N 58.991 5.33192 3.04268 0
M  V30 550 C 60.362 5.47756 2.90453 0
M  V30 551 C 62.417 4.12457 2.78897 0
M  V30 552 C 61.12 6.6568 2.72512 0
M  V30 553 C 63.146 5.3004 2.62319 0
M  V30 554 C 62.508 6.55046 2.59026 0
M  V30 555 H 58.607 0.44685 0.641755 0
M  V30 556 H 61.191 1.55753 1.16829 0
M  V30 557 H 59.362 1.26679 3.67161 0
M  V30 558 H 61.094 1.49824 3.75945 0
M  V30 559 H 57.849 3.45052 3.24401 0
M  V30 560 H 58.273 6.06157 3.015 0
M  V30 561 H 62.915 3.16588 2.80235 0
M  V30 562 H 60.633 7.61689 2.69919 0
M  V30 563 H 64.219 5.24747 2.5126 0
M  V30 564 H 63.099 7.44498 2.46357 0
M  V30 565 N 60.6021 -1.18246 1.0419 0
M  V30 566 C 62.0181 -1.40269 0.761366 0
M  V30 567 C 62.2181 -1.90777 -0.648578 0
M  V30 568 O 61.2741 -2.0929 -1.41258 0
M  V30 569 C 62.5871 -2.40237 1.8085 0
M  V30 570 C 64.1351 -2.53961 1.82955 0
M  V30 571 C 64.6101 -3.57194 2.86664 0
M  V30 572 N 66.1011 -3.64702 2.85563 0
M  V30 573 C 66.8361 -4.44309 3.6246 0
M  V30 574 N 66.3321 -5.27514 4.49111 0
M  V30 575 N 68.1251 -4.39084 3.50944 0
M  V30 576 H 60.2761 -0.837882 1.95175 0
M  V30 577 H 62.5391 -0.430608 0.84456 0
M  V30 578 H 62.2451 -2.10176 2.81991 0
M  V30 579 H 62.1191 -3.39601 1.64168 0
M  V30 580 H 64.5061 -2.83338 0.824855 0
M  V30 581 H 64.5871 -1.54706 2.03715 0
M  V30 582 H 64.2311 -3.28558 3.87314 0
M  V30 583 H 64.1611 -4.5613 2.6316 0
M  V30 584 H 66.6521 -3.05289 2.22727 0
M  V30 585 H 66.9651 -5.85411 5.04493 0
M  V30 586 H 65.3101 -5.2693 4.53178 0
M  V30 587 H 68.5011 -3.7313 2.82651 0
M  V30 588 H 68.6741 -5.00883 4.11121 0
M  V30 589 N 62.0802 -0.821533 -1.34494 0
M  V30 590 C 63.3282 -0.408139 -1.97936 0
M  V30 591 C 63.6492 1.03193 -1.65457 0
M  V30 592 O 62.9192 1.71622 -0.944595 0
M  V30 593 H 61.4992 -0.147928 -0.732206 0
M  V30 594 H 64.1612 -1.05067 -1.64155 0
M  V30 595 H 63.2572 -0.52601 -3.07635 0
M  V30 596 N 63.5583 1.46682 -0.576371 0
M  V30 597 C 64.4883 2.33028 0.148397 0
M  V30 598 C 65.4693 1.44961 0.889956 0
M  V30 599 O 66.6543 1.73789 0.866662 0
M  V30 600 C 63.7843 3.27117 1.1667 0
M  V30 601 C 62.7383 4.24575 0.540386 0
M  V30 602 C 62.0643 5.08126 1.6647 0
M  V30 603 C 63.3643 5.19722 -0.518331 0
M  V30 604 H 65.0583 2.93875 -0.572509 0
M  V30 605 H 62.6043 1.41315 -0.276768 0
M  V30 606 H 64.5573 3.86374 1.68204 0
M  V30 607 H 63.2813 2.64364 1.9178 0
M  V30 608 H 61.9403 3.66571 0.0461769 0
M  V30 609 H 61.5883 4.41762 2.40531 0
M  V30 610 H 61.2883 5.74122 1.25131 0
M  V30 611 H 62.8123 5.70246 2.18293 0
M  V30 612 H 64.2263 5.73232 -0.0883058 0
M  V30 613 H 62.6233 5.94026 -0.851679 0
M  V30 614 H 63.6933 4.64037 -1.40703 0
M  V30 615 N 65.0364 0.313813 1.54444 0
M  V30 616 C 65.9994 -0.54379 2.22656 0
M  V30 617 C 66.9994 -1.05124 1.21678 0
M  V30 618 O 68.1894 -0.945225 1.46325 0
M  V30 619 C 65.3214 -1.75427 2.92298 0
M  V30 620 H 66.5144 0.0523599 2.99854 0
M  V30 621 H 64.0674 0.0647834 1.56166 0
M  V30 622 H 64.8024 -2.38991 2.19211 0
M  V30 623 H 64.5874 -1.39791 3.66334 0
M  V30 624 H 66.0774 -2.36325 3.44297 0
M  V30 625 N 66.5145 -1.57545 0.0417849 0
M  V30 626 C 67.4245 -2.14451 -0.951213 0
M  V30 627 C 68.4405 -1.09992 -1.34825 0
M  V30 628 O 69.6165 -1.42114 -1.42708 0
M  V30 629 C 66.6815 -2.67063 -2.21084 0
M  V30 630 C 65.7425 -3.86284 -1.87304 0
M  V30 631 C 64.9755 -4.36378 -3.07261 0
M  V30 632 O 65.1985 -3.85587 -4.20332 0
M  V30 633 O 64.1325 -5.28077 -2.88822 0
M  V30 634 H 67.9585 -2.99601 -0.497287 0
M  V30 635 H 65.5435 -1.48317 -0.179567 0
M  V30 636 H 67.4255 -3.00914 -2.95006 0
M  V30 637 H 66.1005 -1.84989 -2.65633 0
M  V30 638 H 65.0075 -3.57338 -1.10727 0
M  V30 639 H 66.3405 -4.6956 -1.47562 0
M  V30 640 N 67.9926 0.231505 -1.5589 0
M  V30 641 C 69.4086 0.580748 -1.48659 0
M  V30 642 C 69.6086 1.87617 -0.73498 0
M  V30 643 O 68.6646 2.51046 -0.270586 0
M  V30 644 C 69.9776 0.669202 -2.93159 0
M  V30 645 C 71.5256 0.760499 -3.03621 0
M  V30 646 C 72.0006 0.880383 -4.49459 0
M  V30 647 N 73.4916 0.944861 -4.53461 0
M  V30 648 C 74.2266 1.05716 -5.63571 0
M  V30 649 N 73.7226 1.13403 -6.83456 0
M  V30 650 N 75.5156 1.09152 -5.514 0
M  V30 651 H 67.6666 -0.618695 -2.03189 0
M  V30 652 H 69.9296 -0.215728 -0.923128 0
M  V30 653 H 69.6356 -0.212904 -3.51055 0
M  V30 654 H 69.5096 1.5361 -3.44505 0
M  V30 655 H 71.8966 1.63305 -2.45796 0
M  V30 656 H 71.9776 -0.131864 -2.5546 0
M  V30 657 H 71.6216 0.0123284 -5.07899 0
M  V30 658 H 71.5516 1.78802 -4.95316 0
M  V30 659 H 74.0426 0.896176 -3.6712 0
M  V30 660 H 74.3556 1.21921 -7.63122 0
M  V30 661 H 72.7006 1.10333 -6.86186 0
M  V30 662 H 75.8916 1.02805 -4.56671 0
M  V30 663 H 76.0646 1.17558 -6.37247 0
M  V30 664 N 69.4707 1.49531 0.497807 0
M  V30 665 C 70.4007 1.6935 1.60757 0
M  V30 666 C 71.3817 0.542218 1.61227 0
M  V30 667 O 72.5667 0.778417 1.77917 0
M  V30 668 C 69.6967 1.76298 2.99226 0
M  V30 669 C 68.6507 2.91248 3.13622 0
M  V30 670 C 67.9767 2.83312 4.53474 0
M  V30 671 C 69.2767 4.3214 2.93346 0
M  V30 672 H 70.9707 2.62263 1.44425 0
M  V30 673 H 68.5167 1.26208 0.693367 0
M  V30 674 H 70.4697 1.88749 3.76765 0
M  V30 675 H 69.1937 0.799871 3.16654 0
M  V30 676 H 67.8527 2.78404 2.38509 0
M  V30 677 H 67.5007 1.84902 4.67782 0
M  V30 678 H 67.2007 3.60465 4.64046 0
M  V30 679 H 68.7247 2.97775 5.33069 0
M  V30 680 H 70.1387 4.45649 3.60652 0
M  V30 681 H 68.5357 5.1054 3.15387 0
M  V30 682 H 69.6057 4.46363 1.89441 0
M  V30 683 N 70.9488 -0.749086 1.3866 0
M  V30 684 C 72.1738 -1.54344 1.38538 0
M  V30 685 C 72.5988 -1.88088 -0.0216655 0
M  V30 686 O 71.9568 -1.50899 -1.00494 0
M  V30 687 C 72.0048 -2.8164 2.25192 0
M  V30 688 O 71.1088 -3.7698 1.67212 0
M  V30 689 H 70.4498 -0.466654 0.472367 0
M  V30 690 H 72.9798 -0.925355 1.82478 0
M  V30 691 H 72.9898 -3.30519 2.3921 0
M  V30 692 H 71.6648 -2.56411 3.27454 0
M  V30 693 H 70.2418 -3.35699 1.6236 0
M  V30 694 N 72.4269 -1.23603 -0.977757 0
M  V30 695 C 73.6519 -1.09735 -1.75991 0
M  V30 696 C 74.0769 0.346858 -1.84874 0
M  V30 697 O 73.4349 1.25093 -1.3123 0
M  V30 698 C 73.4829 -1.73051 -3.16363 0
M  V30 699 O 72.5869 -0.994452 -4.0023 0
M  V30 700 H 71.9279 -0.384476 -0.541364 0
M  V30 701 H 74.4579 -1.6371 -1.2272 0
M  V30 702 H 74.4679 -1.78398 -3.66931 0
M  V30 703 H 73.1429 -2.78137 -3.09213 0
M  V30 704 H 71.7199 -1.01812 -3.58732 0
M  V30 705 N 73.905 1.17692 -1.04816 0
M  V30 706 C 75.13 1.92327 -0.776207 0
M  V30 707 C 75.555 1.76082 0.661581 0
M  V30 708 O 74.913 1.076 1.45917 0
M  V30 709 C 74.961 3.41539 -1.15687 0
M  V30 710 O 74.065 4.11402 -0.286775 0
M  V30 711 H 73.406 0.599735 -0.284981 0
M  V30 712 H 75.936 1.49201 -1.4 0
M  V30 713 H 75.946 3.92269 -1.12202 0
M  V30 714 H 74.621 3.52684 -2.20425 0
M  V30 715 H 73.198 3.70939 -0.381903 0
M  V30 716 N 75.3831 0.828654 1.34056 0
M  V30 717 C 76.6291 0.429279 1.98818 0
M  V30 718 C 76.9841 -0.998011 1.64492 0
M  V30 719 O 76.2771 -1.68652 0.909228 0
M  V30 720 C 76.4711 0.575226 3.52741 0
M  V30 721 C 76.3001 2.01515 4.02022 0
M  V30 722 C 75.0701 2.64825 4.30344 0
M  V30 723 C 77.2681 2.98261 4.18981 0
M  V30 724 N 75.2501 3.99998 4.65698 0
M  V30 725 C 76.6211 4.18356 4.57578 0
M  V30 726 C 78.6761 2.94802 4.01243 0
M  V30 727 C 77.3791 5.35454 4.80293 0
M  V30 728 C 79.4051 4.11121 4.25128 0
M  V30 729 C 78.7671 5.29969 4.64018 0
M  V30 730 H 74.8661 0.205304 0.754569 0
M  V30 731 H 77.4501 1.07457 1.62361 0
M  V30 732 H 75.6211 -0.0401962 3.88379 0
M  V30 733 H 77.3531 0.148292 4.04428 0
M  V30 734 H 74.1081 2.16027 4.21461 0
M  V30 735 H 74.5321 4.69653 4.87601 0
M  V30 736 H 79.1741 2.04054 3.70299 0
M  V30 737 H 76.8921 6.26755 5.10102 0
M  V30 738 H 80.4781 4.0985 4.12934 0
M  V30 739 H 79.3581 6.18479 4.82134 0
M  V30 740 N 76.8612 -1.46375 0.584142 0
M  V30 741 C 77.7912 -2.33103 -0.136037 0
M  V30 742 C 78.7722 -1.45431 -0.882255 0
M  V30 743 O 79.9572 -1.74246 -0.857434 0
M  V30 744 C 77.0872 -3.27731 -1.14933 0
M  V30 745 C 76.0412 -4.24855 -0.517862 0
M  V30 746 C 75.3672 -5.09001 -1.63773 0
M  V30 747 C 76.6672 -5.19439 0.545886 0
M  V30 748 H 78.3612 -2.93568 0.588086 0
M  V30 749 H 75.9072 -1.41166 0.284259 0
M  V30 750 H 77.8602 -3.87261 -1.66153 0
M  V30 751 H 76.5842 -2.65377 -1.90375 0
M  V30 752 H 75.2432 -3.6659 -0.0267361 0
M  V30 753 H 74.8912 -4.43031 -2.38185 0
M  V30 754 H 74.5912 -5.74777 -1.22085 0
M  V30 755 H 76.1152 -5.71396 -2.15266 0
M  V30 756 H 77.5292 -5.73177 0.118704 0
M  V30 757 H 75.9262 -5.93566 0.88317 0
M  V30 758 H 76.9962 -4.63285 1.43162 0
M  V30 759 N 78.3393 -0.321999 -1.54275 0
M  V30 760 C 79.6163 0.335232 -1.92706 0
M  V30 761 C 79.9963 1.70006 -1.25145 0
M  V30 762 O 79.3443 2.25067 -0.394596 0
M  V30 763 C 79.5543 0.429008 -3.46353 0
M  V30 764 C 80.9023 0.690029 -4.18956 0
M  V30 765 O 81.9263 0.511992 -3.52501 0
M  V30 766 O 80.7853 1.03338 -5.36641 0
M  V30 767 H 77.8793 0.191143 -0.804608 0
M  V30 768 H 80.4253 -0.3716 -1.65581 0
M  V30 769 H 79.1973 -0.529611 -3.87699 0
M  V30 770 H 78.8203 1.18348 -3.79578 0
M  V30 771 N 79.8174 1.5752 -0.0501392 0
M  V30 772 C 81.0634 1.92936 0.624798 0
M  V30 773 C 81.3964 0.928685 1.70555 0
M  V30 774 O 80.6714 -0.0454779 1.94447 0
M  V30 775 C 80.9544 3.38737 1.22185 0
M  V30 776 C 80.8074 4.49552 0.149218 0
M  V30 777 C 82.1264 3.84913 2.13378 0
M  V30 778 H 79.2454 0.701604 0.225657 0
M  V30 779 H 81.8874 1.89671 -0.111693 0
M  V30 780 H 80.0374 3.4165 1.84953 0
M  V30 781 H 81.7094 4.58768 -0.482648 0
M  V30 782 H 79.9524 4.30638 -0.522841 0
M  V30 783 H 80.6234 5.48653 0.606966 0
M  V30 784 H 83.0994 3.8387 1.60572 0
M  V30 785 H 81.9754 4.87584 2.52097 0
M  V30 786 H 82.2364 3.21611 3.03346 0
M  V30 787 N 81.2955 -0.223234 1.56011 0
M  V30 788 C 82.7115 -0.572856 1.48965 0
M  V30 789 C 82.9115 -1.87225 0.74492 0
M  V30 790 O 81.9675 -2.50899 0.283896 0
M  V30 791 C 83.2805 -0.653646 2.9351 0
M  V30 792 C 84.8285 -0.744386 3.0402 0
M  V30 793 C 85.3035 -0.856535 4.49919 0
M  V30 794 N 86.7945 -0.9208 4.53955 0
M  V30 795 C 87.5295 -1.02726 5.64123 0
M  V30 796 N 87.0255 -1.09777 6.84047 0
M  V30 797 N 88.8185 -1.06226 5.51971 0
M  V30 798 H 80.9695 0.629462 2.02858 0
M  V30 799 H 83.2325 0.220621 0.921971 0
M  V30 800 H 82.9385 0.231518 3.50937 0
M  V30 801 H 82.8125 -1.51781 3.45315 0
M  V30 802 H 85.1995 -1.61999 2.46658 0
M  V30 803 H 85.2805 0.14541 2.55386 0
M  V30 804 H 84.9245 0.0146069 5.07898 0
M  V30 805 H 84.8545 -1.76172 4.96257 0
M  V30 806 H 87.3455 -0.876694 3.6759 0
M  V30 807 H 87.6585 -1.17872 7.63758 0
M  V30 808 H 86.0035 -1.06693 6.86762 0
M  V30 809 H 89.1945 -1.00382 4.5721 0
M  V30 810 H 89.3675 -1.14177 6.37862 0
M  V30 811 N 82.7736 -1.49793 -0.48987 0
M  V30 812 C 83.7236 -1.63673 -1.5873 0
M  V30 813 C 84.7076 -0.491956 -1.53195 0
M  V30 814 O 85.8996 -0.745461 -1.60536 0
M  V30 815 C 83.0286 -1.71689 -2.97284 0
M  V30 816 C 82.1146 -2.91781 -3.07774 0
M  V30 817 N 82.5056 -4.15714 -2.88124 0
M  V30 818 C 80.8036 -2.89949 -3.38889 0
M  V30 819 C 81.5046 -4.965 -3.03088 0
M  V30 820 N 80.4806 -4.30083 -3.3246 0
M  V30 821 H 84.2826 -2.57204 -1.42208 0
M  V30 822 H 81.7966 -1.46719 -0.69623 0
M  V30 823 H 83.7936 -1.79732 -3.76168 0
M  V30 824 H 82.4536 -0.793024 -3.14867 0
M  V30 825 H 83.4646 -4.45515 -2.64077 0
M  V30 826 H 80.1416 -2.06987 -3.62578 0
M  V30 827 H 81.5316 -6.04991 -2.92294 0
M  V30 828 N 84.2517 0.741722 -1.39055 0
M  V30 829 C 85.5007 1.49656 -1.35225 0
M  V30 830 C 85.8137 1.95533 0.0512708 0
M  V30 831 O 87.0197 2.7067 0.212138 0
M  V30 832 C 85.4757 2.70389 -2.37525 0
M  V30 833 C 85.0837 2.31489 -3.83558 0
M  V30 834 C 86.8277 3.48236 -2.42759 0
M  V30 835 C 84.7347 3.48903 -4.77515 0
M  V30 836 H 83.6647 0.56197 -0.502699 0
M  V30 837 H 86.3157 0.809727 -1.64668 0
M  V30 838 H 84.6977 3.41113 -2.01142 0
M  V30 839 H 85.8717 1.68354 -4.28945 0
M  V30 840 H 84.1867 1.66749 -3.81554 0
M  V30 841 H 86.7837 4.35558 -3.1015 0
M  V30 842 H 87.1267 3.90229 -1.45008 0
M  V30 843 H 87.6597 2.84535 -2.78002 0
M  V30 844 H 84.3987 3.11966 -5.76504 0
M  V30 845 H 83.9187 4.11041 -4.36813 0
M  V30 846 H 85.5977 4.15328 -4.96096 0
M  V30 847 N 85.7298 1.2412 0.971189 0
M  V30 848 C 86.6398 1.04747 2.09917 0
M  V30 849 C 87.6558 -0.0107162 1.73997 0
M  V30 850 O 88.8318 0.186714 2.00533 0
M  V30 851 C 85.8968 0.650828 3.40537 0
M  V30 852 C 84.9578 1.7851 3.90426 0
M  V30 853 C 84.1908 1.40729 5.14812 0
M  V30 854 O 84.4138 0.29557 5.69634 0
M  V30 855 O 83.3478 2.23168 5.58999 0
M  V30 856 H 87.1738 1.99304 2.29154 0
M  V30 857 H 84.7588 1.02908 1.08307 0
M  V30 858 H 86.6408 0.440992 4.19086 0
M  V30 859 H 85.3158 -0.265649 3.22608 0
M  V30 860 H 84.2228 2.04966 3.12953 0
M  V30 861 H 85.5558 2.68023 4.12825 0
M  V30 862 N 87.2079 -1.17134 1.05439 0
M  V30 863 C 88.1549 -2.21235 0.657539 0
M  V30 864 C 89.1249 -1.62551 -0.341543 0
M  V30 865 O 90.3099 -1.89379 -0.232393 0
M  V30 866 C 87.4499 -3.45076 0.0410575 0
M  V30 867 C 86.5629 -4.18042 1.08927 0
M  V30 868 C 85.6979 -5.29376 0.439848 0
M  V30 869 C 84.7369 -5.94132 1.4722 0
M  V30 870 N 83.8739 -6.96975 0.846756 0
M  V30 871 H 88.7139 -2.54534 1.54972 0
M  V30 872 H 86.2509 -1.25028 0.775006 0
M  V30 873 H 88.2089 -4.15862 -0.33383 0
M  V30 874 H 86.8389 -3.12353 -0.814568 0
M  V30 875 H 85.8909 -3.45945 1.58196 0
M  V30 876 H 87.2029 -4.62306 1.87282 0
M  V30 877 H 86.3569 -6.06699 0.0115125 0
M  V30 878 H 85.0959 -4.86251 -0.375656 0
M  V30 879 H 84.1009 -5.15538 1.91052 0
M  V30 880 H 85.3259 -6.39337 2.28965 0
M  V30 881 H 83.2719 -6.5598 0.0518075 0
M  V30 882 H 83.1889 -7.39565 1.5678 0
M  V30 883 H 84.4569 -7.78239 0.443277 0
M  V30 884 N 88.686 -0.835752 -1.33615 0
M  V30 885 C 89.916 -0.442701 -2.01801 0
M  V30 886 C 90.324 0.959807 -1.63047 0
M  V30 887 O 89.667 1.63468 -0.838088 0
M  V30 888 C 89.729 -0.480125 -3.56279 0
M  V30 889 C 89.393 -1.8382 -4.18401 0
M  V30 890 C 90.39 -2.80097 -4.37998 0
M  V30 891 C 88.075 -2.13019 -4.54894 0
M  V30 892 C 90.069 -4.03736 -4.9323 0
M  V30 893 C 87.756 -3.36916 -5.09834 0
M  V30 894 C 88.754 -4.32091 -5.28948 0
M  V30 895 O 88.442 -5.53797 -5.82721 0
M  V30 896 H 88.174 -0.17441 -0.653114 0
M  V30 897 H 90.728 -1.129 -1.71589 0
M  V30 898 H 88.958 0.262931 -3.85805 0
M  V30 899 H 90.647 -0.105335 -4.05763 0
M  V30 900 H 91.413 -2.58838 -4.10156 0
M  V30 901 H 87.292 -1.39733 -4.39313 0
M  V30 902 H 90.836 -4.78034 -5.08064 0
M  V30 903 H 86.733 -3.58033 -5.37106 0
M  V30 904 H 87.501 -5.55494 -6.0114 0
M  V30 905 N 90.1641 1.46063 -0.591896 0
M  V30 906 C 91.4101 2.02638 -0.0811191 0
M  V30 907 C 91.7431 1.4613 1.27905 0
M  V30 908 O 91.0181 0.629908 1.84017 0
M  V30 909 C 91.3011 3.60091 -0.0252436 0
M  V30 910 C 91.1541 4.26965 -1.41496 0
M  V30 911 C 92.4731 4.3496 0.670685 0
M  V30 912 H 89.5921 0.73635 -0.0309524 0
M  V30 913 H 92.2341 1.741 -0.760859 0
M  V30 914 H 90.3841 3.84535 0.553624 0
M  V30 915 H 92.0561 4.13756 -2.0397 0
M  V30 916 H 90.2991 3.85971 -1.98011 0
M  V30 917 H 90.9701 5.35781 -1.32825 0
M  V30 918 H 93.4461 4.15716 0.178825 0
M  V30 919 H 92.3221 5.44686 0.678837 0
M  V30 920 H 92.5831 4.06685 1.73379 0
M  V30 921 N 91.6422 0.330177 1.54103 0
M  V30 922 C 92.9192 -0.325007 1.92881 0
M  V30 923 C 93.2992 -1.6934 1.26045 0
M  V30 924 O 92.6472 -2.24855 0.406526 0
M  V30 925 C 92.8572 -0.410634 3.46576 0
M  V30 926 C 94.2052 -0.667801 4.19316 0
M  V30 927 O 95.2292 -0.49329 3.52768 0
M  V30 928 O 94.0882 -1.00491 5.37181 0
M  V30 929 H 91.1822 -0.186873 0.80561 0
M  V30 930 H 93.7282 0.380376 1.65382 0
M  V30 931 H 92.5002 0.550164 3.87413 0
M  V30 932 H 92.1232 -1.16333 3.802 0
M  V30 933 N 93.1203 -1.57491 0.0584922 0
M  V30 934 C 94.0523 -2.08916 -0.942694 0
M  V30 935 C 95.0653 -1.0185 -1.27006 0
M  V30 936 O 96.2543 -1.29398 -1.22957 0
M  V30 937 C 93.3543 -2.52341 -2.26224 0
M  V30 938 C 92.5273 -3.82827 -2.1157 0
M  V30 939 C 91.5863 -4.12487 -3.26712 0
M  V30 940 O 90.6123 -4.82295 -3.02292 0
M  V30 941 N 91.8143 -3.64978 -4.5141 0
M  V30 942 H 94.5793 -2.95437 -0.503722 0
M  V30 943 H 92.1403 -1.61397 -0.12757 0
M  V30 944 H 94.1323 -2.69254 -3.02133 0
M  V30 945 H 92.7023 -1.7103 -2.61663 0
M  V30 946 H 91.9223 -3.75425 -1.20208 0
M  V30 947 H 93.2103 -4.68263 -1.99015 0
M  V30 948 H 92.6083 -3.08558 -4.7414 0
M  V30 949 H 91.1653 -3.87115 -5.2439 0
M  V30 950 N 94.5984 0.214957 -1.56127 0
M  V30 951 C 95.8464 0.936518 -1.79091 0
M  V30 952 C 96.1674 1.84606 -0.628148 0
M  V30 953 O 95.4374 1.92664 0.35462 0
M  V30 954 H 94.0174 0.3488 -0.660566 0
M  V30 955 H 96.6794 0.22523 -1.93594 0
M  V30 956 H 95.7754 1.53943 -2.71492 0
M  V30 957 N 96.0765 1.50051 0.48192 0
M  V30 958 C 97.0235 1.68122 1.58125 0
M  V30 959 C 97.9935 0.522545 1.57666 0
M  V30 960 O 99.1785 0.751844 1.75362 0
M  V30 961 C 96.3185 1.77142 2.96167 0
M  V30 962 C 95.4315 3.0444 3.06497 0
M  V30 963 C 94.5665 3.04321 4.35387 0
M  V30 964 C 93.6055 4.26118 4.3942 0
M  V30 965 N 92.7425 4.238 5.59766 0
M  V30 966 H 97.5825 2.6198 1.42022 0
M  V30 967 H 95.1195 1.29877 0.690687 0
M  V30 968 H 97.0775 1.80352 3.76203 0
M  V30 969 H 95.7075 0.867329 3.1093 0
M  V30 970 H 94.7595 3.10752 2.19402 0
M  V30 971 H 96.0715 3.94426 3.05336 0
M  V30 972 H 95.2255 3.062 5.23762 0
M  V30 973 H 93.9645 2.12147 4.39141 0
M  V30 974 H 92.9695 4.24463 3.49444 0
M  V30 975 H 94.1945 5.19507 4.37366 0
M  V30 976 H 92.1405 3.34474 5.64326 0
M  V30 977 H 92.0575 5.07542 5.60301 0
M  V30 978 H 93.3255 4.2981 6.50295 0
M  V30 979 N 97.5546 -0.734337 1.39446 0
M  V30 980 C 98.7796 -1.52866 1.40167 0
M  V30 981 C 99.2046 -1.881 -0.00171513 0
M  V30 982 O 98.5626 -1.51957 -0.988879 0
M  V30 983 C 98.6106 -2.79235 2.28167 0
M  V30 984 O 97.7146 -3.75185 1.71201 0
M  V30 985 H 97.0556 -0.461618 0.477289 0
M  V30 986 H 99.5856 -0.905949 1.8345 0
M  V30 987 H 99.5956 -3.27963 2.42702 0
M  V30 988 H 98.2706 -2.52923 3.30156 0
M  V30 989 H 96.8476 -3.33958 1.65912 0
M  V30 990 N 99.0327 -1.24633 -0.964593 0
M  V30 991 C 100.281 -1.08573 -1.70459 0
M  V30 992 C 100.602 0.375655 -1.91347 0
M  V30 993 O 99.8717 1.26779 -1.49345 0
M  V30 994 H 98.4517 -0.398784 -0.631649 0
M  V30 995 H 101.114 -1.56601 -1.16026 0
M  V30 996 H 100.21 -1.58623 -2.68785 0
M  V30 997 N 100.511 1.16574 -1.06058 0
M  V30 998 C 101.739 1.90952 -0.796552 0
M  V30 999 C 102.154 1.77302 0.648808 0
M  V30 1000 O 101.511 1.11605 1.44397 0
M  V30 1001 C 101.562 3.41736 -1.17894 0
M  V30 1002 O 101.283 3.54975 -2.56758 0
M  V30 1003 C 102.784 4.33169 -0.942308 0
M  V30 1004 H 100.004 0.605594 -0.288959 0
M  V30 1005 H 102.548 1.47777 -1.41358 0
M  V30 1006 H 100.703 3.82623 -0.606491 0
M  V30 1007 H 101.117 4.4846 -2.72 0
M  V30 1008 H 102.591 5.37439 -1.25952 0
M  V30 1009 H 103.068 4.3903 0.122078 0
M  V30 1010 H 103.674 3.98007 -1.49902 0
M  V30 1011 N 101.989 0.842826 1.3317 0
M  V30 1012 C 103.405 0.531128 1.50503 0
M  V30 1013 C 103.605 -0.940734 1.78192 0
M  V30 1014 O 102.661 -1.72436 1.84451 0
M  V30 1015 C 103.974 1.40789 2.65705 0
M  V30 1016 C 105.522 1.40708 2.79589 0
M  V30 1017 C 105.997 2.26878 3.97857 0
M  V30 1018 N 107.488 2.24609 4.05099 0
M  V30 1019 C 108.223 2.88019 4.95815 0
M  V30 1020 N 107.719 3.60496 5.9162 0
M  V30 1021 N 109.512 2.77469 4.88843 0
M  V30 1022 H 101.663 1.79557 1.1346 0
M  V30 1023 H 103.926 0.766267 0.558156 0
M  V30 1024 H 103.632 2.454 2.51936 0
M  V30 1025 H 103.506 1.08677 3.61205 0
M  V30 1026 H 105.893 0.368668 2.92788 0
M  V30 1027 H 105.974 1.76829 1.84838 0
M  V30 1028 H 105.618 3.3078 3.85418 0
M  V30 1029 H 105.548 1.88096 4.91861 0
M  V30 1030 H 108.039 1.71906 3.36536 0
M  V30 1031 H 108.352 4.06076 6.57512 0
M  V30 1032 H 106.697 3.64604 5.91683 0
M  V30 1033 H 109.888 2.20406 4.12963 0
M  V30 1034 H 110.061 3.2717 5.59342 0
M  V30 1035 N 103.467 -1.45747 0.599634 0
M  V30 1036 C 104.377 -2.34262 -0.125888 0
M  V30 1037 C 105.393 -1.50768 -0.868625 0
M  V30 1038 O 106.569 -1.83592 -0.828003 0
M  V30 1039 C 103.634 -3.28252 -1.11587 0
M  V30 1040 C 102.695 -4.27651 -0.375956 0
M  V30 1041 C 101.928 -5.1715 -1.31877 0
M  V30 1042 O 102.151 -5.09916 -2.55621 0
M  V30 1043 O 101.085 -5.96286 -0.820157 0
M  V30 1044 H 104.911 -2.97688 0.601315 0
M  V30 1045 H 102.496 -1.44999 0.359934 0
M  V30 1046 H 104.378 -3.86191 -1.68626 0
M  V30 1047 H 103.053 -2.67401 -1.82424 0
M  V30 1048 H 101.96 -3.7335 0.236698 0
M  V30 1049 H 103.293 -4.91334 0.29177 0
M  V30 1050 N 104.945 -0.338344 -1.53925 0
M  V30 1051 C 105.875 0.51328 -2.27789 0
M  V30 1052 C 106.856 1.107 -1.29149 0
M  V30 1053 O 108.041 1.12937 -1.57984 0
M  V30 1054 C 105.171 1.66697 -3.04679 0
M  V30 1055 C 104.125 1.20183 -4.1078 0
M  V30 1056 C 103.451 2.44363 -4.75595 0
M  V30 1057 C 104.751 0.30605 -5.21403 0
M  V30 1058 H 106.445 -0.102883 -2.99223 0
M  V30 1059 H 103.991 -0.0509219 -1.4391 0
M  V30 1060 H 105.944 2.26915 -3.55088 0
M  V30 1061 H 104.668 2.30995 -2.30887 0
M  V30 1062 H 103.327 0.622499 -3.61276 0
M  V30 1063 H 102.975 3.07057 -3.98403 0
M  V30 1064 H 102.675 2.13925 -5.47275 0
M  V30 1065 H 104.199 3.05317 -5.28786 0
M  V30 1066 H 105.613 0.814929 -5.67478 0
M  V30 1067 H 104.01 0.0937929 -6.00027 0
M  V30 1068 H 105.08 -0.65921 -4.80398 0
M  V30 1069 N 106.423 1.57458 -0.0668435 0
M  V30 1070 C 107.353 2.15468 0.899764 0
M  V30 1071 C 108.334 1.08042 1.31381 0
M  V30 1072 O 109.519 1.36054 1.38574 0
M  V30 1073 C 106.649 2.71232 2.16911 0
M  V30 1074 C 105.603 3.83781 1.89463 0
M  V30 1075 C 104.929 4.26127 3.22986 0
M  V30 1076 C 106.229 5.08238 1.20381 0
M  V30 1077 H 107.923 2.96488 0.416529 0
M  V30 1078 H 105.469 1.4262 0.198908 0
M  V30 1079 H 107.422 3.10458 2.84945 0
M  V30 1080 H 106.146 1.87426 2.67468 0
M  V30 1081 H 104.805 3.45051 1.23836 0
M  V30 1082 H 104.453 3.39249 3.71374 0
M  V30 1083 H 104.153 5.01993 3.05413 0
M  V30 1084 H 105.677 4.67966 3.92225 0
M  V30 1085 H 107.091 5.44811 1.78475 0
M  V30 1086 H 105.488 5.89349 1.13083 0
M  V30 1087 H 106.558 4.84558 0.182153 0
M  V30 1088 N 107.901 -0.206675 1.56239 0
M  V30 1089 C 109.147 -0.925733 1.81113 0
M  V30 1090 C 109.502 -1.81368 0.642135 0
M  V30 1091 O 108.795 -1.88126 -0.363211 0
M  V30 1092 C 108.989 -1.78675 3.09532 0
M  V30 1093 C 108.818 -0.98365 4.3881 0
M  V30 1094 C 107.588 -0.672661 5.00803 0
M  V30 1095 C 109.786 -0.341847 5.13163 0
M  V30 1096 N 107.768 0.150283 6.13716 0
M  V30 1097 C 109.139 0.343815 6.19046 0
M  V30 1098 C 111.194 -0.256392 4.97239 0
M  V30 1099 C 109.897 1.10678 7.10734 0
M  V30 1100 C 111.923 0.493142 5.8934 0
M  V30 1101 C 111.285 1.16729 6.94661 0
M  V30 1102 H 107.384 -0.318524 0.714189 0
M  V30 1103 H 109.968 -0.195378 1.93717 0
M  V30 1104 H 108.139 -2.4888 2.98183 0
M  V30 1105 H 109.871 -2.44441 3.22538 0
M  V30 1106 H 106.626 -0.994294 4.63045 0
M  V30 1107 H 107.05 0.551026 6.74754 0
M  V30 1108 H 111.692 -0.763249 4.15854 0
M  V30 1109 H 109.41 1.6251 7.91591 0
M  V30 1110 H 112.996 0.560465 5.79094 0
M  V30 1111 H 111.876 1.738 7.64698 0
M  V30 1112 N 109.379 -1.50304 -0.473955 0
M  V30 1113 C 110.604 -1.65175 -1.25427 0
M  V30 1114 C 111.029 -0.333673 -1.85117 0
M  V30 1115 O 110.387 0.702114 -1.67153 0
M  V30 1116 C 110.435 -2.74295 -2.34082 0
M  V30 1117 O 109.539 -2.35349 -3.38651 0
M  V30 1118 H 108.88 -0.551944 -0.369126 0
M  V30 1119 H 111.41 -1.96662 -0.564364 0
M  V30 1120 H 111.42 -2.97285 -2.79438 0
M  V30 1121 H 110.095 -3.69959 -1.90008 0
M  V30 1122 H 108.672 -2.22794 -2.99027 0
M  V30 1123 N 110.857 0.726932 -1.39834 0
M  V30 1124 C 112.103 1.48771 -1.38704 0
M  V30 1125 C 112.458 1.92394 0.0146387 0
M  V30 1126 O 111.751 1.64474 0.982797 0
M  V30 1127 C 111.945 2.73495 -2.30077 0
M  V30 1128 C 111.774 2.42068 -3.78989 0
M  V30 1129 C 110.544 2.33966 -4.4787 0
M  V30 1130 C 112.742 2.0708 -4.70768 0
M  V30 1131 N 110.724 1.95095 -5.82075 0
M  V30 1132 C 112.095 1.78719 -5.93683 0
M  V30 1133 C 114.15 1.93618 -4.58712 0
M  V30 1134 C 112.853 1.3825 -7.05889 0
M  V30 1135 C 114.879 1.54553 -5.70848 0
M  V30 1136 C 114.241 1.27082 -6.92842 0
M  V30 1137 H 110.34 0.542919 -0.562817 0
M  V30 1138 H 112.924 0.84408 -1.75452 0
M  V30 1139 H 111.095 3.35625 -1.95474 0
M  V30 1140 H 112.827 3.39755 -2.19883 0
M  V30 1141 H 109.582 2.51331 -4.0141 0
M  V30 1142 H 110.006 1.7823 -6.53118 0
M  V30 1143 H 114.648 2.13522 -3.64922 0
M  V30 1144 H 112.366 1.17088 -7.99572 0
M  V30 1145 H 115.952 1.44731 -5.6351 0
M  V30 1146 H 114.832 0.973069 -7.78139 0
M  V30 1147 N 112.336 1.25143 0.95797 0
M  V30 1148 C 113.299 1.05321 2.03569 0
M  V30 1149 C 114.299 0.007152 1.60798 0
M  V30 1150 O 115.489 0.24903 1.72411 0
M  V30 1151 C 112.621 0.598394 3.35607 0
M  V30 1152 H 113.814 2.00986 2.22586 0
M  V30 1153 H 111.367 1.07502 1.13459 0
M  V30 1154 H 112.102 -0.361014 3.22284 0
M  V30 1155 H 111.887 1.35351 3.67998 0
M  V30 1156 H 113.377 0.48104 4.1482 0
M  V30 1157 N 113.814 -1.1601 1.06675 0
M  V30 1158 C 114.746 -2.20115 0.638921 0
M  V30 1159 C 115.759 -1.59916 -0.305057 0
M  V30 1160 O 116.948 -1.78245 -0.0954446 0
M  V30 1161 C 114.048 -3.38798 -0.0830083 0
M  V30 1162 C 113.221 -4.2855 0.875426 0
M  V30 1163 C 112.28 -5.25849 0.192042 0
M  V30 1164 O 111.306 -5.63102 0.830921 0
M  V30 1165 N 112.508 -5.70648 -1.06493 0
M  V30 1166 H 115.273 -2.57439 1.53444 0
M  V30 1167 H 112.834 -1.31057 0.950557 0
M  V30 1168 H 114.826 -4.00936 -0.550685 0
M  V30 1169 H 113.396 -2.99947 -0.880386 0
M  V30 1170 H 112.616 -3.63617 1.52238 0
M  V30 1171 H 113.904 -4.85393 1.52548 0
M  V30 1172 H 113.302 -5.42482 -1.60405 0
M  V30 1173 H 111.859 -6.34859 -1.47641 0
M  V30 1174 N 115.292 -0.849877 -1.32721 0
M  V30 1175 C 116.239 -0.289033 -2.28983 0
M  V30 1176 C 117.209 0.601324 -1.54833 0
M  V30 1177 O 118.394 0.537253 -1.8308 0
M  V30 1178 C 115.534 0.520623 -3.4115 0
M  V30 1179 C 114.647 -0.394989 -4.3019 0
M  V30 1180 C 113.782 0.426834 -5.29482 0
M  V30 1181 C 112.821 -0.486476 -6.10164 0
M  V30 1182 N 111.958 0.297879 -7.01468 0
M  V30 1183 H 116.798 -1.11519 -2.76347 0
M  V30 1184 H 114.335 -0.56138 -1.35967 0
M  V30 1185 H 116.293 1.00563 -4.04899 0
M  V30 1186 H 114.923 1.31165 -2.9495 0
M  V30 1187 H 113.975 -0.99836 -3.67065 0
M  V30 1188 H 115.287 -1.09612 -4.86607 0
M  V30 1189 H 114.441 0.975205 -5.98811 0
M  V30 1190 H 113.18 1.16136 -4.73671 0
M  V30 1191 H 112.185 -1.04677 -5.39743 0
M  V30 1192 H 113.41 -1.21953 -6.6806 0
M  V30 1193 H 111.356 1.01558 -6.48091 0
M  V30 1194 H 111.273 -0.344318 -7.55216 0
M  V30 1195 H 112.541 0.828131 -7.75089 0
M  V30 1196 N 116.77 1.45427 -0.607355 0
M  V30 1197 C 117.718 2.32269 0.12411 0
M  V30 1198 C 118.712 1.45955 0.859854 0
M  V30 1199 O 119.918 1.6244 0.775447 0
M  V30 1200 H 116.293 0.749691 0.0588839 0
M  V30 1201 H 118.264 2.91743 -0.626762 0
M  V30 1202 C 117.013 3.29567 1.1082 0
M  V30 1203 H 116.336 3.95978 0.551492 0
M  V30 1204 H 117.776 3.93061 1.58995 0
M  V30 1205 C 116.235 2.56722 2.18164 0
M  V30 1206 O 116.765 2.34842 3.25902 0
M  V30 1207 N 114.971 2.16861 1.93442 0
M  V30 1208 H 114.518 2.34855 1.05834 0
M  V30 1209 H 114.476 1.68444 2.65469 0
M  V30 1210 N 118.248 0.346503 1.53744 0
M  V30 1211 C 119.195 -0.508914 2.25119 0
M  V30 1212 C 120.165 -1.09315 1.25058 0
M  V30 1213 O 121.35 -1.12921 1.53797 0
M  V30 1214 C 118.49 -1.65246 3.02965 0
M  V30 1215 C 117.603 -1.09525 4.17886 0
M  V30 1216 C 116.738 -2.20634 4.83212 0
M  V30 1217 C 115.777 -1.62279 5.90196 0
M  V30 1218 N 114.914 -2.67143 6.49291 0
M  V30 1219 H 119.754 0.106283 2.9781 0
M  V30 1220 H 117.291 0.0642227 1.4696 0
M  V30 1221 H 119.249 -2.32574 3.4636 0
M  V30 1222 H 117.879 -2.2386 2.32565 0
M  V30 1223 H 116.931 -0.312818 3.79112 0
M  V30 1224 H 118.243 -0.628444 4.94825 0
M  V30 1225 H 117.397 -2.95821 5.29693 0
M  V30 1226 H 116.136 -2.70659 4.05703 0
M  V30 1227 H 115.141 -0.855989 5.43096 0
M  V30 1228 H 116.366 -1.13102 6.69615 0
M  V30 1229 H 114.312 -3.16417 5.74645 0
M  V30 1230 H 114.229 -2.25093 7.21713 0
M  V30 1231 H 115.497 -3.4209 7.00425 0
M  V30 1232 N 119.726 -1.57421 0.075193 0
M  V30 1233 C 120.954 -1.97946 -0.602076 0
M  V30 1234 C 121.369 -0.953674 -1.62943 0
M  V30 1235 O 120.726 0.0592551 -1.82404 0
M  V30 1236 C 120.777 -3.38546 -1.26762 0
M  V30 1237 O 120.498 -4.37195 -0.281376 0
M  V30 1238 C 121.999 -3.93966 -2.03239 0
M  V30 1239 H 119.219 -0.650918 -0.162931 0
M  V30 1240 H 121.763 -2.03959 0.148601 0
M  V30 1241 H 119.918 -3.33609 -1.96936 0
M  V30 1242 H 120.332 -5.18975 -0.759267 0
M  V30 1243 H 121.806 -4.94555 -2.45193 0
M  V30 1244 H 122.283 -3.30693 -2.8903 0
M  V30 1245 H 122.889 -4.02315 -1.37924 0
M  V30 1246 N 121.204 0.198386 -1.56346 0
M  V30 1247 C 122.453 0.917451 -1.79627 0
M  V30 1248 C 122.766 1.8456 -0.64784 0
M  V30 1249 O 123.972 2.60504 -0.764859 0
M  V30 1250 C 122.428 1.68175 -3.18191 0
M  V30 1251 C 122.036 0.798589 -4.40825 0
M  V30 1252 C 123.78 2.39065 -3.50782 0
M  V30 1253 C 121.687 1.56157 -5.70411 0
M  V30 1254 H 120.617 0.346317 -0.669762 0
M  V30 1255 H 123.268 0.170801 -1.82703 0
M  V30 1256 H 121.65 2.47216 -3.09354 0
M  V30 1257 H 122.824 0.0470665 -4.60776 0
M  V30 1258 H 121.139 0.200686 -4.15916 0
M  V30 1259 H 123.736 2.96692 -4.44835 0
M  V30 1260 H 124.079 3.13091 -2.74371 0
M  V30 1261 H 124.612 1.66993 -3.61052 0
M  V30 1262 H 121.351 0.864142 -6.49779 0
M  V30 1263 H 120.871 2.2871 -5.54483 0
M  V30 1264 H 122.55 2.11622 -6.11412 0
M  V30 1265 N 122.682 1.50554 0.465978 0
M  V30 1266 C 123.93 1.61479 1.21528 0
M  V30 1267 C 124.251 0.319596 1.92363 0
M  V30 1268 O 123.521 -0.663194 1.84333 0
M  V30 1269 H 122.101 0.595055 0.451573 0
M  V30 1270 H 124.763 1.87355 0.53704 0
M  V30 1271 H 123.859 2.42846 1.96042 0
M  V30 1272 N 124.16 -0.719506 1.40217 0
M  V30 1273 C 125.437 -1.47221 1.28784 0
M  V30 1274 C 125.817 -2.10883 -0.0956067 0
M  V30 1275 O 125.165 -1.99833 -1.10811 0
M  V30 1276 C 125.375 -2.5111 2.42373 0
M  V30 1277 C 126.723 -3.17053 2.82423 0
M  V30 1278 O 127.747 -2.61429 2.41937 0
M  V30 1279 O 126.606 -4.17742 3.52355 0
M  V30 1280 H 123.7 -0.654491 0.50554 0
M  V30 1281 H 126.246 -0.752014 1.52128 0
M  V30 1282 H 125.018 -2.02556 3.34793 0
M  V30 1283 H 124.641 -3.3067 2.20778 0
M  V30 1284 N 125.638 -1.25649 -0.95132 0
M  V30 1285 C 126.568 -1.08808 -2.06599 0
M  V30 1286 C 127.549 0.00382547 -1.701 0
M  V30 1287 O 128.734 -0.166325 -1.93486 0
M  V30 1288 C 125.864 -0.709542 -3.39975 0
M  V30 1289 C 124.818 -1.75206 -3.90496 0
M  V30 1290 C 124.144 -1.22811 -5.20405 0
M  V30 1291 C 125.444 -3.15153 -4.16504 0
M  V30 1292 H 127.138 -2.02048 -2.20946 0
M  V30 1293 H 124.684 -0.972835 -1.06169 0
M  V30 1294 H 126.637 -0.578649 -4.17408 0
M  V30 1295 H 125.361 0.258556 -3.25575 0
M  V30 1296 H 124.02 -1.87145 -3.15234 0
M  V30 1297 H 123.668 -0.250145 -5.02378 0
M  V30 1298 H 123.368 -1.92492 -5.55176 0
M  V30 1299 H 124.892 -1.10968 -6.00432 0
M  V30 1300 H 126.306 -3.06349 -4.84586 0
M  V30 1301 H 124.703 -3.82333 -4.62538 0
M  V30 1302 H 125.773 -3.61966 -3.22658 0
M  V30 1303 N 127.117 1.15442 -1.07289 0
M  V30 1304 C 128.047 2.22312 -0.714107 0
M  V30 1305 C 129.028 1.67467 0.298155 0
M  V30 1306 O 130.213 1.93445 0.171048 0
M  V30 1307 C 127.343 3.47124 -0.110448 0
M  V30 1308 C 126.297 4.14926 -1.04979 0
M  V30 1309 C 125.623 5.33807 -0.308924 0
M  V30 1310 C 126.923 4.64762 -2.38314 0
M  V30 1311 H 128.617 2.5258 -1.6076 0
M  V30 1312 H 126.163 1.21404 -0.77441 0
M  V30 1313 H 128.116 4.21124 0.152482 0
M  V30 1314 H 126.84 3.16187 0.81812 0
M  V30 1315 H 125.499 3.42866 -1.29764 0
M  V30 1316 H 125.147 4.99126 0.623084 0
M  V30 1317 H 124.847 5.80113 -0.935036 0
M  V30 1318 H 126.371 6.10576 -0.0537771 0
M  V30 1319 H 127.785 5.30292 -2.1786 0
M  V30 1320 H 126.182 5.21728 -2.96514 0
M  V30 1321 H 127.252 3.80434 -3.00663 0
M  V30 1322 N 128.595 0.856903 1.32268 0
M  V30 1323 C 129.527 0.260412 2.27716 0
M  V30 1324 C 130.54 -0.569137 1.52528 0
M  V30 1325 O 131.729 -0.39326 1.74114 0
M  V30 1326 C 128.829 -0.650477 3.32599 0
M  V30 1327 C 128.002 0.14372 4.37164 0
M  V30 1328 C 127.061 -0.69328 5.21613 0
M  V30 1329 O 126.087 -0.12599 5.69061 0
M  V30 1330 N 127.289 -2.00761 5.44679 0
M  V30 1331 H 130.054 1.08059 2.79541 0
M  V30 1332 H 127.615 0.717103 1.45152 0
M  V30 1333 H 129.607 -1.21581 3.86005 0
M  V30 1334 H 128.177 -1.37133 2.80915 0
M  V30 1335 H 127.397 0.890486 3.8401 0
M  V30 1336 H 128.685 0.68915 5.04111 0
M  V30 1337 H 128.083 -2.49181 5.07863 0
M  V30 1338 H 126.64 -2.52103 6.01072 0
M  V30 1339 N 130.073 -1.45103 0.615059 0
M  V30 1340 C 131.319 -2.02483 0.113347 0
M  V30 1341 C 131.652 -1.48146 -1.25564 0
M  V30 1342 O 130.927 -0.659104 -1.82992 0
M  V30 1343 C 131.21 -3.60005 0.0825278 0
M  V30 1344 C 131.063 -4.2466 1.48271 0
M  V30 1345 C 132.382 -4.35972 -0.601401 0
M  V30 1346 H 129.501 -0.735764 0.0426632 0
M  V30 1347 H 132.143 -1.72868 0.788461 0
M  V30 1348 H 130.293 -3.85367 -0.492378 0
M  V30 1349 H 131.965 -4.10458 2.10527 0
M  V30 1350 H 130.208 -3.82772 2.04127 0
M  V30 1351 H 130.879 -5.336 1.41332 0
M  V30 1352 H 133.355 -4.15947 -0.112666 0
M  V30 1353 H 132.231 -5.45697 -0.592097 0
M  V30 1354 H 132.492 -4.09391 -1.66887 0
M  V30 1355 N 131.551 -0.354651 -1.53558 0
M  V30 1356 C 132.481 0.489091 -2.2832 0
M  V30 1357 C 133.462 1.09324 -1.30316 0
M  V30 1358 O 134.647 1.11255 -1.59173 0
M  V30 1359 C 131.777 1.63456 -3.0643 0
M  V30 1360 C 130.731 1.1582 -4.12031 0
M  V30 1361 C 130.057 2.39305 -4.7816 0
M  V30 1362 C 131.357 0.250731 -5.21698 0
M  V30 1363 H 133.051 -0.134614 -2.99097 0
M  V30 1364 H 130.597 -0.0661826 -1.43848 0
M  V30 1365 H 132.55 2.23136 -3.57475 0
M  V30 1366 H 131.274 2.28533 -2.33325 0
M  V30 1367 H 129.933 0.584146 -3.61916 0
M  V30 1368 H 129.581 3.02814 -4.01637 0
M  V30 1369 H 129.281 2.08109 -5.49513 0
M  V30 1370 H 130.805 2.99691 -5.31994 0
M  V30 1371 H 132.219 0.754695 -5.68311 0
M  V30 1372 H 130.616 0.0301468 -6.00092 0
M  V30 1373 H 131.686 -0.710125 -4.79672 0
M  V30 1374 N 133.029 1.57378 -0.0835403 0
M  V30 1375 C 133.961 2.10389 0.909338 0
M  V30 1376 C 134.974 1.03858 1.25369 0
M  V30 1377 O 136.163 1.31338 1.20882 0
M  V30 1378 C 133.263 2.55908 2.2218 0
M  V30 1379 C 132.436 3.86145 2.05453 0
M  V30 1380 C 131.495 4.17633 3.20108 0
M  V30 1381 O 130.521 4.87043 2.94581 0
M  V30 1382 N 131.723 3.72113 4.45547 0
M  V30 1383 H 134.488 2.962 0.456657 0
M  V30 1384 H 132.049 1.61579 0.101877 0
M  V30 1385 H 134.041 2.74027 2.97811 0
M  V30 1386 H 132.611 1.75171 2.58909 0
M  V30 1387 H 131.831 3.7729 1.1422 0
M  V30 1388 H 133.119 4.7137 1.91541 0
M  V30 1389 H 132.517 3.16062 4.69171 0
M  V30 1390 H 131.074 3.95409 5.18165 0
M  V30 1391 N 134.507 -0.190092 1.56449 0
M  V30 1392 C 135.417 -1.25591 1.98152 0
M  V30 1393 C 136.433 -1.49519 0.889944 0
M  V30 1394 O 137.609 -1.62036 1.19609 0
M  V30 1395 C 134.674 -2.57916 2.3169 0
M  V30 1396 C 133.735 -2.42015 3.5458 0
M  V30 1397 C 132.968 -3.6803 3.8651 0
M  V30 1398 O 133.191 -4.72413 3.1966 0
M  V30 1399 O 132.125 -3.6326 4.79923 0
M  V30 1400 H 135.951 -0.931988 2.89046 0
M  V30 1401 H 133.536 -0.395488 1.4407 0
M  V30 1402 H 135.418 -3.36008 2.54316 0
M  V30 1403 H 134.093 -2.89925 1.43963 0
M  V30 1404 H 133 -1.62017 3.37196 0
M  V30 1405 H 134.333 -2.14937 4.4279 0
M  V30 1406 N 135.985 -1.50799 -0.457987 0
M  V30 1407 C 136.918 -1.65273 -1.57353 0
M  V30 1408 C 137.896 -0.500578 -1.54703 0
M  V30 1409 O 139.08 -0.721781 -1.74134 0
M  V30 1410 C 136.207 -1.64737 -2.95938 0
M  V30 1411 C 135.253 -2.8567 -3.16693 0
M  V30 1412 S 136.086 -4.46791 -2.95191 0
M  V30 1413 C 137.242 -4.48968 -4.36095 0
M  V30 1414 H 137.475 -2.59633 -1.44838 0
M  V30 1415 H 135.008 -1.40225 -0.64625 0
M  V30 1416 H 136.966 -1.65112 -3.7583 0
M  V30 1417 H 135.627 -0.715899 -3.05833 0
M  V30 1418 H 134.82 -2.81637 -4.17967 0
M  V30 1419 H 134.422 -2.8293 -2.44594 0
M  V30 1420 H 136.714 -4.23337 -5.28954 0
M  V30 1421 H 137.657 -5.50664 -4.45168 0
M  V30 1422 H 138.065 -3.78522 -4.18786 0
M  V30 1423 N 137.463 0.71206 -1.40597 0
M  V30 1424 C 138.711 1.46907 -1.38791 0
M  V30 1425 C 139.032 1.94998 0.00780391 0
M  V30 1426 O 138.302 1.70587 0.963174 0
M  V30 1427 H 136.882 0.545043 -0.51082 0
M  V30 1428 H 139.544 0.843882 -1.75683 0
M  V30 1429 H 138.64 2.34021 -2.06496 0
M  V30 1430 N 138.941 1.26152 0.944643 0
M  V30 1431 C 139.891 1.04081 2.02857 0
M  V30 1432 C 140.875 -0.0256555 1.6088 0
M  V30 1433 O 142.067 0.190884 1.75968 0
M  V30 1434 C 139.196 0.672118 3.36656 0
M  V30 1435 C 138.282 1.77586 3.85128 0
M  V30 1436 N 138.673 3.01272 4.06287 0
M  V30 1437 C 136.971 1.65867 4.1401 0
M  V30 1438 C 137.672 3.72983 4.46384 0
M  V30 1439 N 136.648 3.00653 4.52889 0
M  V30 1440 H 140.45 1.97968 2.17223 0
M  V30 1441 H 137.964 1.16618 1.13022 0
M  V30 1442 H 139.961 0.495166 4.13949 0
M  V30 1443 H 138.621 -0.259307 3.23663 0
M  V30 1444 H 139.632 3.37213 3.93075 0
M  V30 1445 H 136.309 0.796907 4.09824 0
M  V30 1446 H 137.699 4.792 4.70975 0
M  V30 1447 N 140.419 -1.14872 1.07899 0
M  V30 1448 C 141.835 -1.37776 0.805606 0
M  V30 1449 C 142.035 -1.92743 -0.587555 0
M  V30 1450 O 141.091 -2.13678 -1.34528 0
M  V30 1451 C 142.404 -2.34361 1.88402 0
M  V30 1452 C 143.952 -2.48012 1.90942 0
M  V30 1453 C 144.427 -3.47893 2.97883 0
M  V30 1454 N 145.918 -3.55433 2.97021 0
M  V30 1455 C 146.653 -4.32553 3.76412 0
M  V30 1456 N 146.149 -5.12959 4.65666 0
M  V30 1457 N 147.942 -4.27697 3.64735 0
M  V30 1458 H 140.093 -0.775365 1.97742 0
M  V30 1459 H 142.356 -0.403521 0.857831 0
M  V30 1460 H 142.062 -2.01098 2.88535 0
M  V30 1461 H 141.936 -3.34206 1.74889 0
M  V30 1462 H 144.323 -2.8057 0.914579 0
M  V30 1463 H 144.404 -1.48147 2.08534 0
M  V30 1464 H 144.048 -3.16069 3.97571 0
M  V30 1465 H 143.978 -4.47527 2.77538 0
M  V30 1466 H 146.469 -2.98048 2.32326 0
M  V30 1467 H 146.782 -5.69065 5.22862 0
M  V30 1468 H 145.127 -5.12245 4.69712 0
M  V30 1469 H 148.318 -3.63949 2.94378 0
M  V30 1470 H 148.491 -4.8755 4.26848 0
M  V30 1471 N 141.898 -0.863906 -1.31812 0
M  V30 1472 C 143.314 -0.555004 -1.49639 0
M  V30 1473 C 143.514 0.912266 -1.79666 0
M  V30 1474 O 142.57 1.69479 -1.87171 0
M  V30 1475 C 143.883 -1.44998 -2.63431 0
M  V30 1476 C 145.431 -1.45138 -2.77316 0
M  V30 1477 C 145.906 -2.33179 -3.94197 0
M  V30 1478 N 147.397 -2.31025 -4.01474 0
M  V30 1479 C 148.132 -2.95871 -4.9117 0
M  V30 1480 N 147.628 -3.69863 -5.8581 0
M  V30 1481 N 149.421 -2.85211 -4.84367 0
M  V30 1482 H 141.572 -1.81339 -1.10589 0
M  V30 1483 H 143.835 -0.77505 -0.545895 0
M  V30 1484 H 143.541 -2.49377 -2.48 0
M  V30 1485 H 143.415 -1.14409 -3.59431 0
M  V30 1486 H 145.802 -0.415201 -2.92164 0
M  V30 1487 H 145.883 -1.79747 -1.82001 0
M  V30 1488 H 145.527 -3.3687 -3.80107 0
M  V30 1489 H 145.457 -1.95897 -4.88807 0
M  V30 1490 H 147.948 -1.77238 -3.33759 0
M  V30 1491 H 148.261 -4.16486 -6.50968 0
M  V30 1492 H 146.606 -3.73971 -5.85808 0
M  V30 1493 H 149.797 -2.26948 -4.09405 0
M  V30 1494 H 149.97 -3.36027 -5.54066 0
M  V30 1495 N 143.376 1.44774 -0.622745 0
M  V30 1496 C 144.339 2.29069 0.0774015 0
M  V30 1497 C 145.339 1.4059 0.780461 0
M  V30 1498 O 146.529 1.62551 0.626322 0
M  V30 1499 C 143.661 3.21974 1.12006 0
M  V30 1500 H 144.854 2.92459 -0.663901 0
M  V30 1501 H 142.407 1.51548 -0.382486 0
M  V30 1502 H 143.142 2.63417 1.89162 0
M  V30 1503 H 142.927 3.87168 0.619951 0
M  V30 1504 H 144.417 3.85318 1.60995 0
M  V30 1505 N 144.854 0.36279 1.53368 0
M  V30 1506 C 146.103 -0.22888 2.00397 0
M  V30 1507 C 146.416 -1.50096 1.25421 0
M  V30 1508 O 147.622 -2.17106 1.63025 0
M  V30 1509 C 146.078 -0.458417 3.56969 0
M  V30 1510 C 145.686 0.798877 4.4082 0
M  V30 1511 C 147.43 -1.00789 4.12361 0
M  V30 1512 C 145.337 0.539078 5.88938 0
M  V30 1513 H 144.267 -0.089305 0.748693 0
M  V30 1514 H 146.918 0.481099 1.77081 0
M  V30 1515 H 145.3 -1.22959 3.76427 0
M  V30 1516 H 146.474 1.57262 4.33134 0
M  V30 1517 H 144.789 1.27137 3.96516 0
M  V30 1518 H 147.386 -1.21754 5.20653 0
M  V30 1519 H 147.729 -1.9692 3.66781 0
M  V30 1520 H 148.262 -0.296961 3.9669 0
M  V30 1521 H 145.001 1.47064 6.3879 0
M  V30 1522 H 144.521 -0.196222 5.99479 0
M  V30 1523 H 146.2 0.163542 6.46793 0
M  V30 1524 N 146.332 -1.57332 0.0918853 0
M  V30 1525 C 147.282 -2.10385 -0.87876 0
M  V30 1526 C 148.266 -1.01814 -1.24591 0
M  V30 1527 O 149.458 -1.28093 -1.22152 0
M  V30 1528 C 146.587 -2.68517 -2.13901 0
M  V30 1529 C 145.673 -3.84126 -1.79744 0
M  V30 1530 N 146.064 -4.92288 -1.1613 0
M  V30 1531 C 144.362 -3.93801 -2.09373 0
M  V30 1532 C 145.063 -5.7295 -1.00513 0
M  V30 1533 N 144.039 -5.21876 -1.5214 0
M  V30 1534 H 147.841 -2.91395 -0.38293 0
M  V30 1535 H 145.355 -1.62017 -0.111423 0
M  V30 1536 H 147.352 -3.04852 -2.84378 0
M  V30 1537 H 146.012 -1.88961 -2.64053 0
M  V30 1538 H 147.023 -5.1123 -0.828504 0
M  V30 1539 H 143.7 -3.25249 -2.61762 0
M  V30 1540 H 145.09 -6.69978 -0.507902 0
M  V30 1541 N 147.81 0.181792 -1.56548 0
M  V30 1542 C 148.74 1.22765 -1.98623 0
M  V30 1543 C 149.721 1.46747 -0.860189 0
M  V30 1544 O 150.906 1.58259 -1.12551 0
M  V30 1545 C 148.036 2.56894 -2.33715 0
M  V30 1546 C 146.99 2.475 -3.49182 0
M  V30 1547 C 146.316 3.86023 -3.69986 0
M  V30 1548 C 147.616 1.98866 -4.82959 0
M  V30 1549 H 149.31 0.877942 -2.86239 0
M  V30 1550 H 146.856 0.42088 -1.37712 0
M  V30 1551 H 148.809 3.30253 -2.61746 0
M  V30 1552 H 147.533 2.93632 -1.42997 0
M  V30 1553 H 146.192 1.76596 -3.21262 0
M  V30 1554 H 145.84 4.20136 -2.76576 0
M  V30 1555 H 145.54 3.80609 -4.47672 0
M  V30 1556 H 147.064 4.60984 -4.00407 0
M  V30 1557 H 148.478 2.61992 -5.09934 0
M  V30 1558 H 146.875 2.04424 -5.64208 0
M  V30 1559 H 147.945 0.942465 -4.75653 0
M  V30 1560 N 149.288 1.51039 0.449983 0
M  V30 1561 C 150.537 1.62317 1.19733 0
M  V30 1562 C 150.85 0.339101 1.92638 0
M  V30 1563 O 152.056 0.331069 2.69474 0
M  V30 1564 C 150.512 2.86608 2.17678 0
M  V30 1565 C 150.12 4.21972 1.50479 0
M  V30 1566 C 151.864 3.07239 2.92924 0
M  V30 1567 C 149.771 5.37426 2.46834 0
M  V30 1568 H 148.701 0.604532 0.450619 0
M  V30 1569 H 151.352 1.77494 0.465625 0
M  V30 1570 H 149.734 2.65037 2.94231 0
M  V30 1571 H 150.908 4.53878 0.795716 0
M  V30 1572 H 149.223 4.07117 0.874344 0
M  V30 1573 H 151.82 3.90668 3.65079 0
M  V30 1574 H 152.163 2.19807 3.5354 0
M  V30 1575 H 152.696 3.29091 2.23481 0
M  V30 1576 H 149.435 6.27079 1.90926 0
M  V30 1577 H 148.955 5.09912 3.15832 0
M  V30 1578 H 150.634 5.68862 3.08228 0
M  V30 1579 N 150.766 -0.704594 1.40972 0
M  V30 1580 C 151.994 -1.49354 1.43182 0
M  V30 1581 C 152.409 -1.88768 0.0345508 0
M  V30 1582 O 151.766 -1.56184 -0.944081 0
M  V30 1583 C 151.817 -2.76187 2.33244 0
M  V30 1584 O 151.538 -2.38436 3.67532 0
M  V30 1585 C 153.039 -3.7 2.44162 0
M  V30 1586 H 150.259 -0.460559 0.487982 0
M  V30 1587 H 152.803 -0.868261 1.85153 0
M  V30 1588 H 150.958 -3.34974 1.94606 0
M  V30 1589 H 151.372 -3.20126 4.15475 0
M  V30 1590 H 152.846 -4.55803 3.11364 0
M  V30 1591 H 153.323 -4.13867 1.47006 0
M  V30 1592 H 153.929 -3.17121 2.83398 0
M  V30 1593 N 152.244 -1.26651 -0.937939 0
M  V30 1594 C 153.192 -1.08308 -2.05845 0
M  V30 1595 C 154.186 -0.0090757 -1.69398 0
M  V30 1596 O 155.392 -0.166007 -1.79233 0
M  V30 1597 H 151.767 -0.333416 -0.674046 0
M  V30 1598 H 153.738 -2.03261 -2.18467 0
M  V30 1599 C 152.487 -0.736229 -3.39816 0
M  V30 1600 H 151.81 -1.55453 -3.6834 0
M  V30 1601 H 153.25 -0.64769 -4.19024 0
M  V30 1602 C 151.709 0.558824 -3.32233 0
M  V30 1603 O 152.239 1.59621 -3.68624 0
M  V30 1604 N 150.445 0.550657 -2.85335 0
M  V30 1605 H 149.992 -0.293943 -2.55917 0
M  V30 1606 H 149.95 1.41726 -2.80644 0
M  V30 1607 N 153.722 1.14298 -1.08507 0
M  V30 1608 C 154.952 1.88945 -0.835663 0
M  V30 1609 C 155.36 1.78894 0.615928 0
M  V30 1610 O 154.703 1.1468 1.43506 0
M  V30 1611 C 154.765 3.39585 -1.17994 0
M  V30 1612 C 154.429 3.7342 -2.63451 0
M  V30 1613 C 155.426 3.73454 -3.61702 0
M  V30 1614 C 153.111 4.03368 -2.99332 0
M  V30 1615 C 155.105 4.02961 -4.93864 0
M  V30 1616 C 152.792 4.32538 -4.31687 0
M  V30 1617 C 153.79 4.32318 -5.28763 0
M  V30 1618 O 153.478 4.6078 -6.58739 0
M  V30 1619 H 153.21 0.605307 -0.300965 0
M  V30 1620 H 155.764 1.45673 -1.44806 0
M  V30 1621 H 153.994 3.83315 -0.51055 0
M  V30 1622 H 155.683 3.9554 -0.911182 0
M  V30 1623 H 156.449 3.50403 -3.35325 0
M  V30 1624 H 152.328 4.02692 -2.24411 0
M  V30 1625 H 155.872 4.02704 -5.69627 0
M  V30 1626 H 151.769 4.55059 -4.57812 0
M  V30 1627 H 152.537 4.78492 -6.64069 0
M  V30 1628 N 155.201 0.870884 1.31352 0
M  V30 1629 C 156.449 0.48132 1.96285 0
M  V30 1630 C 156.77 -0.969813 1.69173 0
M  V30 1631 O 156.04 -1.67998 1.00764 0
M  V30 1632 H 154.62 0.175002 0.726212 0
M  V30 1633 H 157.282 1.11087 1.60143 0
M  V30 1634 H 156.378 0.639825 3.05471 0
M  V30 1635 N 156.679 -1.44442 0.630414 0
M  V30 1636 C 157.642 -2.29107 -0.0652523 0
M  V30 1637 C 158.642 -1.41002 -0.772995 0
M  V30 1638 O 159.832 -1.62881 -0.617692 0
M  V30 1639 C 156.964 -3.22564 -1.10296 0
M  V30 1640 H 158.157 -2.92103 0.679401 0
M  V30 1641 H 155.71 -1.51343 0.390517 0
M  V30 1642 H 156.445 -2.64416 -1.87762 0
M  V30 1643 H 156.23 -3.87491 -0.59941 0
M  V30 1644 H 157.72 -3.86167 -1.5895 0
M  V30 1645 N 158.157 -0.370918 -1.53173 0
M  V30 1646 C 159.403 0.217423 -2.01631 0
M  V30 1647 C 159.736 1.47983 -1.25756 0
M  V30 1648 O 159.011 1.91274 -0.352764 0
M  V30 1649 C 159.294 0.503982 -3.56556 0
M  V30 1650 C 159.147 -0.77243 -4.43118 0
M  V30 1651 C 160.466 1.30234 -4.20389 0
M  V30 1652 H 157.585 0.0775486 -0.732909 0
M  V30 1653 H 160.227 -0.496863 -1.83388 0
M  V30 1654 H 158.377 1.11248 -3.72231 0
M  V30 1655 H 160.049 -1.4098 -4.39229 0
M  V30 1656 H 158.292 -1.39167 -4.10871 0
M  V30 1657 H 158.963 -0.526815 -5.4948 0
M  V30 1658 H 161.439 0.787546 -4.08579 0
M  V30 1659 H 160.315 1.47158 -5.28806 0
M  V30 1660 H 160.576 2.31237 -3.76805 0
M  V30 1661 N 159.635 1.57281 -0.100228 0
M  V30 1662 C 160.565 2.17328 0.853857 0
M  V30 1663 C 161.546 1.10804 1.2906 0
M  V30 1664 O 162.731 1.38963 1.35657 0
M  V30 1665 C 159.861 2.75772 2.11109 0
M  V30 1666 C 158.815 3.87713 1.81279 0
M  V30 1667 C 158.141 4.32882 3.13874 0
M  V30 1668 C 159.441 5.10677 1.09574 0
M  V30 1669 H 161.135 2.97305 0.353545 0
M  V30 1670 H 158.681 1.43009 0.168612 0
M  V30 1671 H 160.634 3.16433 2.78296 0
M  V30 1672 H 159.358 1.93057 2.63432 0
M  V30 1673 H 158.017 3.476 1.16489 0
M  V30 1674 H 157.665 3.47051 3.64095 0
M  V30 1675 H 157.365 5.08358 2.94696 0
M  V30 1676 H 158.889 4.7618 3.82211 0
M  V30 1677 H 160.303 5.48474 1.66879 0
M  V30 1678 H 158.7 5.91615 1.00557 0
M  V30 1679 H 159.77 4.84835 0.0793299 0
M  V30 1680 N 161.113 -0.173488 1.56642 0
M  V30 1681 C 162.338 -0.910149 1.86363 0
M  V30 1682 C 162.763 -1.75132 0.686318 0
M  V30 1683 O 162.121 -1.77595 -0.364643 0
M  V30 1684 C 162.169 -1.76447 3.14482 0
M  V30 1685 O 161.273 -2.86584 2.96553 0
M  V30 1686 H 160.614 -0.255086 0.613047 0
M  V30 1687 H 163.144 -0.172283 2.03873 0
M  V30 1688 H 163.154 -2.16483 3.45831 0
M  V30 1689 H 161.829 -1.14658 3.99783 0
M  V30 1690 H 160.406 -2.50146 2.76553 0
M  V30 1691 N 162.591 -1.51276 -0.441967 0
M  V30 1692 C 164.002 -1.56244 -1.02199 0
M  V30 1693 C 164.353 -0.383149 -1.92422 0
M  V30 1694 O 163.478 0.500613 -2.1053 0
M  V30 1695 C 164.073 -2.83162 -1.86024 0
M  V30 1696 C 162.632 -2.90716 -2.39084 0
M  V30 1697 C 161.779 -2.50858 -1.18175 0
M  V30 1698 H 164.73 -1.5712 -0.223416 0
M  V30 1699 H 164.751 -2.66663 -2.71425 0
M  V30 1700 H 164.263 -3.68974 -1.20331 0
M  V30 1701 H 162.364 -2.09323 -3.08244 0
M  V30 1702 H 162.477 -3.94266 -2.72198 0
M  V30 1703 H 160.841 -2.03951 -1.52565 0
M  V30 1704 H 161.624 -3.3901 -0.541001 0
M  V30 1705 N 164.069 0.697108 -1.41344 0
M  V30 1706 C 165.294 1.49096 -1.44171 0
M  V30 1707 C 165.719 1.88038 -0.0481568 0
M  V30 1708 O 165.077 1.54525 0.948243 0
M  V30 1709 C 165.125 2.73088 -2.3549 0
M  V30 1710 O 164.229 3.70514 -1.81088 0
M  V30 1711 H 163.57 0.448801 -0.489361 0
M  V30 1712 H 166.1 0.856992 -1.85787 0
M  V30 1713 H 166.11 3.21413 -2.51312 0
M  V30 1714 H 164.785 2.44081 -3.36745 0
M  V30 1715 H 163.362 3.29441 -1.74708 0
M  V30 1716 N 165.547 1.27147 0.931209 0
M  V30 1717 C 166.457 1.11372 2.06478 0
M  V30 1718 C 167.473 0.044645 1.73943 0
M  V30 1719 O 168.649 0.250417 1.99837 0
M  V30 1720 C 165.714 0.758838 3.38294 0
M  V30 1721 C 164.775 1.90841 3.84549 0
M  V30 1722 C 164.008 1.57036 5.10074 0
M  V30 1723 O 164.231 0.476645 5.68405 0
M  V30 1724 O 163.165 2.40839 5.51616 0
M  V30 1725 H 166.991 2.06493 2.22698 0
M  V30 1726 H 164.576 1.06301 1.04978 0
M  V30 1727 H 166.458 0.574098 4.17471 0
M  V30 1728 H 165.133 -0.162879 3.2329 0
M  V30 1729 H 164.04 2.14819 3.06274 0
M  V30 1730 H 165.373 2.81021 4.04089 0
M  V30 1731 N 167.025 -1.13721 1.09112 0
M  V30 1732 C 167.972 -2.19031 0.727591 0
M  V30 1733 C 168.942 -1.63555 -0.289656 0
M  V30 1734 O 170.127 -1.90023 -0.172026 0
M  V30 1735 C 167.267 -3.4477 0.15082 0
M  V30 1736 C 166.38 -4.14365 1.22172 0
M  V30 1737 C 165.515 -5.27709 0.608042 0
M  V30 1738 C 164.554 -5.89147 1.66047 0
M  V30 1739 N 163.691 -6.93929 1.06806 0
M  V30 1740 H 168.531 -2.49475 1.62991 0
M  V30 1741 H 166.068 -1.22499 0.81439 0
M  V30 1742 H 168.026 -4.16714 -0.201358 0
M  V30 1743 H 166.656 -3.14787 -0.714783 0
M  V30 1744 H 165.708 -3.40737 1.69122 0
M  V30 1745 H 167.02 -4.56114 2.01895 0
M  V30 1746 H 166.174 -6.06355 0.204523 0
M  V30 1747 H 164.913 -4.872 -0.220769 0
M  V30 1748 H 163.918 -5.09198 2.07357 0
M  V30 1749 H 165.143 -6.31729 2.49189 0
M  V30 1750 H 163.089 -6.55483 0.260476 0
M  V30 1751 H 163.006 -7.34202 1.8023 0
M  V30 1752 H 164.274 -7.76434 0.690644 0
M  V30 1753 N 168.503 -0.877838 -1.30888 0
M  V30 1754 C 169.728 -0.506629 -2.01117 0
M  V30 1755 C 170.153 0.895564 -1.65412 0
M  V30 1756 O 169.511 1.5923 -0.866922 0
M  V30 1757 C 169.559 -0.680223 -3.54126 0
M  V30 1758 O 168.663 0.277033 -4.11468 0
M  V30 1759 H 168.004 -0.200518 -0.633 0
M  V30 1760 H 170.534 -1.18342 -1.66902 0
M  V30 1761 H 170.544 -0.5765 -4.03907 0
M  V30 1762 H 169.219 -1.70261 -3.79452 0
M  V30 1763 H 167.796 0.127606 -3.72682 0
M  V30 1764 N 169.982 1.44106 -0.638065 0
M  V30 1765 C 171.212 2.06037 -0.152394 0
M  V30 1766 C 171.62 1.47808 1.18108 0
M  V30 1767 O 170.963 0.598092 1.73691 0
M  V30 1768 C 171.025 3.59488 0.0293714 0
M  V30 1769 C 170.689 4.4022 -1.22702 0
M  V30 1770 C 171.686 4.73256 -2.15232 0
M  V30 1771 C 169.371 4.8048 -1.46437 0
M  V30 1772 C 171.365 5.45444 -3.29802 0
M  V30 1773 C 169.052 5.52417 -2.61303 0
M  V30 1774 C 170.05 5.84819 -3.52811 0
M  V30 1775 O 169.738 6.55289 -4.65673 0
M  V30 1776 H 169.47 0.671233 -0.0801401 0
M  V30 1777 H 172.024 1.85851 -0.874563 0
M  V30 1778 H 170.254 3.78191 0.806758 0
M  V30 1779 H 171.943 4.03164 0.470475 0
M  V30 1780 H 172.709 4.42684 -1.98131 0
M  V30 1781 H 168.588 4.54676 -0.760977 0
M  V30 1782 H 172.132 5.70653 -4.01249 0
M  V30 1783 H 168.029 5.82404 -2.78344 0
M  V30 1784 H 168.797 6.73762 -4.64744 0
M  V30 1785 N 171.46 0.379036 1.52974 0
M  V30 1786 C 172.392 -0.495963 2.2377 0
M  V30 1787 C 173.405 -1.03517 1.25651 0
M  V30 1788 O 174.594 -0.939249 1.51791 0
M  V30 1789 C 171.694 -1.69894 2.93239 0
M  V30 1790 C 170.867 -1.2889 4.17979 0
M  V30 1791 C 169.926 -2.35543 4.70538 0
M  V30 1792 O 168.952 -1.97375 5.33883 0
M  V30 1793 N 170.154 -3.67318 4.49508 0
M  V30 1794 H 172.919 0.110523 2.99496 0
M  V30 1795 H 170.48 0.204878 1.60598 0
M  V30 1796 H 172.472 -2.40747 3.25304 0
M  V30 1797 H 171.042 -2.212 2.20883 0
M  V30 1798 H 170.262 -0.409676 3.92065 0
M  V30 1799 H 171.55 -0.991443 4.99047 0
M  V30 1800 H 170.948 -4.01095 3.98923 0
M  V30 1801 H 169.505 -4.34235 4.8609 0
M  V30 1802 N 172.938 -1.57226 0.108567 0
M  V30 1803 C 173.848 -2.18292 -0.859401 0
M  V30 1804 C 174.864 -1.15612 -1.30038 0
M  V30 1805 O 176.04 -1.48039 -1.36552 0
M  V30 1806 C 173.105 -2.762 -2.09558 0
M  V30 1807 C 172.166 -3.93881 -1.70752 0
M  V30 1808 C 171.399 -4.49018 -2.88477 0
M  V30 1809 O 171.622 -4.03068 -4.036 0
M  V30 1810 O 170.556 -5.39852 -2.66164 0
M  V30 1811 H 174.382 -3.01441 -0.369769 0
M  V30 1812 H 171.967 -1.48945 -0.1165 0
M  V30 1813 H 173.849 -3.13156 -2.81978 0
M  V30 1814 H 172.524 -1.96089 -2.57548 0
M  V30 1815 H 171.431 -3.61713 -0.954714 0
M  V30 1816 H 172.764 -4.75396 -1.27513 0
M  V30 1817 N 174.416 0.165178 -1.56732 0
M  V30 1818 C 175.664 0.879068 -1.8198 0
M  V30 1819 C 175.985 1.82514 -0.686561 0
M  V30 1820 O 175.255 1.93694 0.293146 0
M  V30 1821 H 173.835 0.327608 -0.671329 0
M  V30 1822 H 176.497 0.163526 -1.94213 0
M  V30 1823 H 175.593 1.45228 -2.76252 0
M  V30 1824 N 175.894 1.51508 0.433938 0
M  V30 1825 C 177.142 1.6402 1.18075 0
M  V30 1826 C 177.463 0.360328 1.91642 0
M  V30 1827 O 176.733 -0.623945 1.85698 0
M  V30 1828 H 175.313 0.6045 0.43885 0
M  V30 1829 H 177.975 1.88452 0.497178 0
M  V30 1830 H 177.071 2.46949 1.90847 0
M  V30 1831 N 177.372 -0.689602 1.41712 0
M  V30 1832 C 178.619 -1.44966 1.4139 0
M  V30 1833 C 178.947 -1.94484 0.025105 0
M  V30 1834 O 178.202 -1.70307 -0.964048 0
M  V30 1835 C 178.501 -2.67298 2.37247 0
M  V30 1836 C 178.167 -2.36405 3.83958 0
M  V30 1837 C 176.829 -2.27691 4.23923 0
M  V30 1838 C 179.181 -2.11043 4.76561 0
M  V30 1839 C 176.509 -1.91719 5.54492 0
M  V30 1840 C 178.861 -1.76578 6.07456 0
M  V30 1841 C 177.525 -1.66363 6.46436 0
M  V30 1842 H 176.795 -0.53047 0.517381 0
M  V30 1843 H 179.442 -0.787655 1.74552 0
M  V30 1844 H 177.747 -3.38461 1.9736 0
M  V30 1845 H 179.444 -3.25452 2.34269 0
M  V30 1846 H 176.034 -2.44085 3.52308 0
M  V30 1847 H 180.218 -2.16717 4.46483 0
M  V30 1848 H 175.474 -1.82367 5.83568 0
M  V30 1849 H 179.648 -1.55974 6.78708 0
M  V30 1850 H 177.275 -1.38258 7.47522 0
M  V30 1851 N 178.85 -1.27639 -0.924453 0
M  V30 1852 C 180.261 -1.12834 -1.48746 0
M  V30 1853 C 180.612 0.285505 -1.94112 0
M  V30 1854 O 179.737 1.17874 -1.81479 0
M  V30 1855 C 180.332 -2.04217 -2.70334 0
M  V30 1856 C 178.891 -1.93509 -3.22848 0
M  V30 1857 C 178.038 -1.96583 -1.95577 0
M  V30 1858 H 180.989 -1.40484 -0.738233 0
M  V30 1859 H 181.01 -1.59989 -3.4523 0
M  V30 1860 H 180.522 -3.07111 -2.37285 0
M  V30 1861 H 178.623 -0.936131 -3.60649 0
M  V30 1862 H 178.736 -2.79917 -3.88823 0
M  V30 1863 H 177.1 -1.4085 -2.12211 0
M  V30 1864 H 177.883 -3.01137 -1.64837 0
M  V30 1865 N 180.328 1.1314 -1.09713 0
M  V30 1866 C 181.276 2.20717 -0.733934 0
M  V30 1867 C 182.27 1.6729 0.266506 0
M  V30 1868 O 183.476 1.79547 0.127656 0
M  V30 1869 H 179.851 0.719292 -0.21937 0
M  V30 1870 H 181.822 2.48611 -1.6503 0
M  V30 1871 C 180.571 3.47265 -0.173849 0
M  V30 1872 H 179.894 3.88716 -0.934873 0
M  V30 1873 H 181.334 4.23979 0.0423126 0
M  V30 1874 C 179.793 3.18724 1.09164 0
M  V30 1875 O 180.323 3.37762 2.17439 0
M  V30 1876 N 178.529 2.72583 1.00732 0
M  V30 1877 H 178.076 2.57291 0.126121 0
M  V30 1878 H 178.034 2.53862 1.85476 0
M  V30 1879 N 181.806 0.884767 1.30421 0
M  V30 1880 C 183.055 0.499164 1.95426 0
M  V30 1881 C 183.368 -0.95645 1.70621 0
M  V30 1882 O 184.574 -1.44889 2.29607 0
M  V30 1883 C 183.03 0.84177 3.49917 0
M  V30 1884 C 182.638 2.31514 3.83543 0
M  V30 1885 C 184.382 0.525355 4.21237 0
M  V30 1886 C 182.289 2.59939 5.31212 0
M  V30 1887 H 181.219 0.182944 0.73147 0
M  V30 1888 H 183.87 1.07971 1.48373 0
M  V30 1889 H 182.252 0.190311 3.95542 0
M  V30 1890 H 183.426 3.0109 3.48829 0
M  V30 1891 H 181.741 2.59907 3.25326 0
M  V30 1892 H 184.338 0.714762 5.29901 0
M  V30 1893 H 184.681 -0.535222 4.12845 0
M  V30 1894 H 185.214 1.134 3.81294 0
M  V30 1895 H 181.953 3.64736 5.44654 0
M  V30 1896 H 181.473 1.94972 5.67227 0
M  V30 1897 H 183.152 2.45429 5.98643 0
M  V30 1898 N 183.284 -1.43765 0.645699 0
M  V30 1899 C 184.214 -2.33471 -0.0370477 0
M  V30 1900 C 185.195 -1.49042 -0.819779 0
M  V30 1901 O 186.38 -1.77726 -0.782758 0
M  V30 1902 C 183.51 -3.32311 -1.0093 0
M  V30 1903 C 182.464 -4.2667 -0.337201 0
M  V30 1904 C 181.79 -5.1549 -1.42037 0
M  V30 1905 C 183.09 -5.16657 0.765706 0
M  V30 1906 H 184.784 -2.90809 0.712069 0
M  V30 1907 H 182.33 -1.39834 0.343876 0
M  V30 1908 H 184.283 -3.9396 -1.49578 0
M  V30 1909 H 183.007 -2.73213 -1.78948 0
M  V30 1910 H 181.666 -3.66374 0.128771 0
M  V30 1911 H 181.314 -4.52735 -2.1918 0
M  V30 1912 H 181.014 -5.79438 -0.975966 0
M  V30 1913 H 182.538 -5.80012 -1.90838 0
M  V30 1914 H 183.952 -5.72158 0.361702 0
M  V30 1915 H 182.349 -5.89286 1.13413 0
M  V30 1916 H 183.419 -4.56796 1.62683 0
M  V30 1917 N 184.763 -0.387143 -1.52771 0
M  V30 1918 C 186.01 0.195735 -2.01552 0
M  V30 1919 C 186.338 1.46995 -1.27369 0
M  V30 1920 O 185.593 1.92325 -0.361879 0
M  V30 1921 C 185.892 0.512209 -3.53711 0
M  V30 1922 C 185.558 -0.670202 -4.45891 0
M  V30 1923 C 184.22 -0.994586 -4.70809 0
M  V30 1924 C 186.572 -1.46134 -5.00294 0
M  V30 1925 C 183.9 -2.11169 -5.4738 0
M  V30 1926 C 186.252 -2.56903 -5.78086 0
M  V30 1927 C 184.916 -2.89852 -6.01284 0
M  V30 1928 H 184.186 0.0716246 -0.73753 0
M  V30 1929 H 186.833 -0.524046 -1.8419 0
M  V30 1930 H 185.138 1.31329 -3.69134 0
M  V30 1931 H 186.835 0.975804 -3.88946 0
M  V30 1932 H 183.425 -0.407366 -4.2666 0
M  V30 1933 H 187.609 -1.22397 -4.80971 0
M  V30 1934 H 182.865 -2.3707 -5.63567 0
M  V30 1935 H 187.039 -3.18608 -6.19243 0
M  V30 1936 H 184.666 -3.76533 -6.60399 0
M  V30 1937 N 186.241 1.57166 -0.116904 0
M  V30 1938 C 187.188 2.15202 0.83408 0
M  V30 1939 C 188.158 1.07644 1.26499 0
M  V30 1940 O 189.343 1.35541 1.34288 0
M  V30 1941 C 186.483 2.75405 2.07957 0
M  V30 1942 C 185.596 3.97264 1.69721 0
M  V30 1943 C 184.731 4.45561 2.89221 0
M  V30 1944 C 183.77 5.59956 2.47215 0
M  V30 1945 N 182.907 6.03006 3.59622 0
M  V30 1946 H 187.747 2.96141 0.332335 0
M  V30 1947 H 185.284 1.46309 0.152349 0
M  V30 1948 H 187.242 3.08439 2.80929 0
M  V30 1949 H 185.872 1.97159 2.55594 0
M  V30 1950 H 184.924 3.70404 0.866316 0
M  V30 1951 H 186.236 4.80226 1.34849 0
M  V30 1952 H 185.39 4.80493 3.7042 0
M  V30 1953 H 184.129 3.61544 3.27318 0
M  V30 1954 H 183.134 5.2463 1.64448 0
M  V30 1955 H 184.359 6.45738 2.10238 0
M  V30 1956 H 182.305 5.21931 3.97396 0
M  V30 1957 H 182.222 6.80819 3.28667 0
M  V30 1958 H 183.49 6.42576 4.41267 0
M  V30 1959 N 187.719 -0.156864 1.56817 0
M  V30 1960 C 188.629 -1.2136 2.00771 0
M  V30 1961 C 189.645 -1.47598 0.921459 0
M  V30 1962 O 190.821 -1.59462 1.2302 0
M  V30 1963 C 187.886 -2.52943 2.37109 0
M  V30 1964 C 186.947 -2.34439 3.59634 0
M  V30 1965 C 186.18 -3.59748 3.94229 0
M  V30 1966 O 186.403 -4.65526 3.29609 0
M  V30 1967 O 185.337 -3.52998 4.8752 0
M  V30 1968 H 189.163 -0.870468 2.90958 0
M  V30 1969 H 186.748 -0.36484 1.44877 0
M  V30 1970 H 188.63 -3.30538 2.61386 0
M  V30 1971 H 187.305 -2.86806 1.5008 0
M  V30 1972 H 186.212 -1.54828 3.40557 0
M  V30 1973 H 187.545 -2.05496 4.4725 0
M  V30 1974 N 189.197 -1.51736 -0.425897 0
M  V30 1975 C 190.425 -1.68794 -1.1965 0
M  V30 1976 C 190.84 -0.390164 -1.84725 0
M  V30 1977 O 190.197 0.632376 -1.71194 0
M  V30 1978 C 190.248 -2.81174 -2.27208 0
M  V30 1979 O 189.969 -4.05925 -1.64793 0
M  V30 1980 C 191.47 -3.09599 -3.17275 0
M  V30 1981 H 188.69 -0.566128 -0.360194 0
M  V30 1982 H 191.234 -1.98211 -0.503249 0
M  V30 1983 H 189.389 -2.54324 -2.9223 0
M  V30 1984 H 189.803 -4.68423 -2.35967 0
M  V30 1985 H 191.277 -3.91786 -3.88854 0
M  V30 1986 H 191.754 -2.22468 -3.78688 0
M  V30 1987 H 192.36 -3.38151 -2.57941 0
M  V30 1988 N 190.675 0.682077 -1.42076 0
M  V30 1989 C 191.638 1.77756 -1.44691 0
M  V30 1990 C 192.638 1.5726 -0.335535 0
M  V30 1991 O 193.828 1.63686 -0.596037 0
M  V30 1992 C 190.96 3.16301 -1.27146 0
M  V30 1993 H 192.153 1.76826 -2.42224 0
M  V30 1994 H 189.706 0.891012 -1.28416 0
M  V30 1995 H 190.441 3.22862 -0.305075 0
M  V30 1996 H 190.226 3.32581 -2.07683 0
M  V30 1997 H 191.716 3.96241 -1.31843 0
M  V30 1998 N 192.153 1.28127 0.917671 0
M  V30 1999 C 193.101 1.11569 2.04096 0
M  V30 2000 C 194.095 0.0360242 1.69362 0
M  V30 2001 O 195.301 0.194501 1.78946 0
M  V30 2002 H 191.676 0.344097 0.668656 0
M  V30 2003 H 193.647 2.06711 2.15205 0
M  V30 2004 C 192.396 0.790197 3.38602 0
M  V30 2005 H 191.719 1.61293 3.6582 0
M  V30 2006 H 193.159 0.714271 4.1794 0
M  V30 2007 C 191.618 -0.505897 3.3308 0
M  V30 2008 O 192.148 -1.53736 3.71117 0
M  V30 2009 N 190.354 -0.505193 2.86175 0
M  V30 2010 H 189.901 0.334621 2.55417 0
M  V30 2011 H 189.859 -1.37243 2.82863 0
M  V30 2012 N 193.631 -1.12557 1.10312 0
M  V30 2013 C 194.877 -1.84311 0.846011 0
M  V30 2014 C 195.21 -1.83805 -0.626859 0
M  V30 2015 O 194.485 -1.28268 -1.46211 0
M  V30 2016 C 194.768 -3.32048 1.39341 0
M  V30 2017 C 194.621 -3.41016 2.93305 0
M  V30 2018 C 195.94 -4.27764 1.03468 0
M  V30 2019 H 193.059 -0.669192 0.30879 0
M  V30 2020 H 195.701 -1.32057 1.36605 0
M  V30 2021 H 193.851 -3.76678 0.951087 0
M  V30 2022 H 195.523 -3.05031 3.46055 0
M  V30 2023 H 193.766 -2.81603 3.29973 0
M  V30 2024 H 194.437 -4.44948 3.26689 0
M  V30 2025 H 196.913 -3.91253 1.41633 0
M  V30 2026 H 195.789 -5.29549 1.44463 0
M  V30 2027 H 196.05 -4.42064 -0.0560404 0
M  V30 2028 N 195.109 -0.891671 -1.2995 0
M  V30 2029 C 196.337 -0.52866 -2.00032 0
M  V30 2030 C 196.752 0.884574 -1.66795 0
M  V30 2031 O 196.109 1.5827 -0.908669 0
M  V30 2032 C 196.16 -0.701814 -3.54622 0
M  V30 2033 O 195.881 -2.05942 -3.86678 0
M  V30 2034 C 197.382 -0.342683 -4.41973 0
M  V30 2035 H 194.602 -0.203659 -0.639347 0
M  V30 2036 H 197.146 -1.19881 -1.65677 0
M  V30 2037 H 195.301 -0.0789468 -3.8732 0
M  V30 2038 H 195.715 -2.08291 -4.81368 0
M  V30 2039 H 197.189 -0.514709 -5.49595 0
M  V30 2040 H 197.666 0.71975 -4.33262 0
M  V30 2041 H 198.272 -0.942154 -4.14733 0
M  V30 2042 N 196.587 1.43421 -0.653314 0
M  V30 2043 C 197.833 2.02111 -0.166992 0
M  V30 2044 C 198.166 1.51423 1.21592 0
M  V30 2045 O 197.441 0.707389 1.8118 0
M  V30 2046 C 197.724 3.5966 -0.177948 0
M  V30 2047 C 197.577 4.20579 -1.59478 0
M  V30 2048 C 198.896 4.37413 0.4856 0
M  V30 2049 H 196.015 0.734374 -0.0621557 0
M  V30 2050 H 198.657 1.70717 -0.834016 0
M  V30 2051 H 196.807 3.86537 0.390032 0
M  V30 2052 H 198.479 4.04732 -2.21336 0
M  V30 2053 H 196.722 3.77226 -2.14204 0
M  V30 2054 H 197.393 5.29665 -1.5543 0
M  V30 2055 H 199.869 4.161 0.00234528 0
M  V30 2056 H 198.745 5.47075 0.447207 0
M  V30 2057 H 199.006 4.13672 1.55974 0
M  V30 2058 N 198.065 0.39524 1.52563 0
M  V30 2059 C 199.342 -0.242908 1.94086 0
M  V30 2060 C 199.722 -1.63841 1.33114 0
M  V30 2061 O 199.07 -2.22928 0.501529 0
M  V30 2062 C 199.28 -0.26327 3.48006 0
M  V30 2063 C 200.628 -0.489354 4.21771 0
M  V30 2064 O 201.652 -0.343226 3.54543 0
M  V30 2065 O 200.511 -0.776169 5.4096 0
M  V30 2066 H 197.605 -0.152536 0.812811 0
M  V30 2067 H 200.151 0.450178 1.6362 0
M  V30 2068 H 198.923 0.713985 3.84731 0
M  V30 2069 H 198.546 -1.00103 3.84792 0
M  V30 2070 N 199.544 -1.57102 0.125237 0
M  V30 2071 C 200.492 -2.16905 -0.839927 0
M  V30 2072 C 201.486 -1.11998 -1.27094 0
M  V30 2073 O 202.692 -1.3029 -1.24195 0
M  V30 2074 H 199.067 -0.694252 -0.288995 0
M  V30 2075 H 201.038 -2.96774 -0.311115 0
M  V30 2076 C 199.787 -2.78795 -2.07771 0
M  V30 2077 H 199.11 -3.59221 -1.755 0
M  V30 2078 H 200.55 -3.2417 -2.73295 0
M  V30 2079 C 199.009 -1.76193 -2.87155 0
M  V30 2080 O 199.539 -1.21909 -3.82755 0
M  V30 2081 N 197.745 -1.45991 -2.51267 0
M  V30 2082 H 197.292 -1.90325 -1.73592 0
M  V30 2083 H 197.25 -0.775844 -3.04677 0
M  V30 2084 N 201.022 0.148545 -1.56898 0
M  V30 2085 C 202.268 0.862694 -1.83536 0
M  V30 2086 C 202.601 1.80889 -0.706604 0
M  V30 2087 O 201.876 1.92328 0.289885 0
M  V30 2088 C 202.159 1.63853 -3.20662 0
M  V30 2089 C 202.012 0.713925 -4.44098 0
M  V30 2090 C 203.331 2.60133 -3.54991 0
M  V30 2091 H 200.45 0.312179 -0.667618 0
M  V30 2092 H 203.092 0.127953 -1.89569 0
M  V30 2093 H 201.242 2.26489 -3.1565 0
M  V30 2094 H 202.914 0.098686 -4.61194 0
M  V30 2095 H 201.157 0.0234019 -4.33794 0
M  V30 2096 H 201.828 1.29278 -5.36648 0
M  V30 2097 H 204.304 2.07616 -3.60603 0
M  V30 2098 H 203.18 3.11468 -4.51972 0
M  V30 2099 H 203.441 3.41417 -2.80868 0
M  V30 2100 N 202.5 1.5196 0.417844 0
M  V30 2101 C 203.43 1.77634 1.51554 0
M  V30 2102 C 204.411 0.626918 1.58126 0
M  V30 2103 O 205.596 0.871632 1.7354 0
M  V30 2104 C 202.726 1.91911 2.8946 0
M  V30 2105 C 201.68 3.07463 2.97743 0
M  V30 2106 C 201.006 3.06951 4.37819 0
M  V30 2107 C 202.306 4.47082 2.70027 0
M  V30 2108 H 204 2.6955 1.3032 0
M  V30 2109 H 201.546 1.29706 0.625492 0
M  V30 2110 H 203.499 2.08455 3.6623 0
M  V30 2111 H 202.223 0.966598 3.11969 0
M  V30 2112 H 200.882 2.90656 2.23416 0
M  V30 2113 H 200.53 2.09438 4.57323 0
M  V30 2114 H 200.23 3.84556 4.44286 0
M  V30 2115 H 201.754 3.25613 5.16535 0
M  V30 2116 H 203.168 4.6414 3.36522 0
M  V30 2117 H 201.565 5.2654 2.87881 0
M  V30 2118 H 202.635 4.55777 1.65514 0
M  V30 2119 N 203.978 -0.674533 1.42435 0
M  V30 2120 C 205.227 -1.43034 1.42212 0
M  V30 2121 C 205.54 -1.95555 0.0420788 0
M  V30 2122 O 206.746 -2.71374 -0.0827558 0
M  V30 2123 C 205.202 -2.58748 2.50155 0
M  V30 2124 C 204.81 -2.12925 3.94166 0
M  V30 2125 C 206.554 -3.36257 2.59098 0
M  V30 2126 C 204.461 -3.25723 4.93618 0
M  V30 2127 H 203.391 -0.537345 0.528939 0
M  V30 2128 H 206.042 -0.73024 1.68344 0
M  V30 2129 H 204.424 -3.31128 2.17188 0
M  V30 2130 H 205.598 -1.47697 4.36488 0
M  V30 2131 H 203.913 -1.48354 3.89076 0
M  V30 2132 H 206.51 -4.20264 3.30578 0
M  V30 2133 H 206.853 -3.82866 1.63461 0
M  V30 2134 H 207.386 -2.70947 2.9126 0
M  V30 2135 H 204.125 -2.84105 5.90732 0
M  V30 2136 H 203.645 -3.89732 4.55926 0
M  V30 2137 H 205.324 -3.91186 5.15347 0
M  V30 2138 N 205.456 -1.28612 -0.910864 0
M  V30 2139 C 206.867 -1.14406 -1.47541 0
M  V30 2140 C 207.218 0.264901 -1.94403 0
M  V30 2141 O 206.343 1.15942 -1.82719 0
M  V30 2142 C 206.938 -2.07073 -2.68153 0
M  V30 2143 C 205.497 -1.96923 -3.20778 0
M  V30 2144 C 204.644 -1.98646 -1.93481 0
M  V30 2145 H 207.595 -1.41259 -0.723291 0
M  V30 2146 H 207.616 -1.63642 -3.43514 0
M  V30 2147 H 207.128 -3.09611 -2.34015 0
M  V30 2148 H 205.229 -0.97433 -3.59635 0
M  V30 2149 H 205.342 -2.84026 -3.85832 0
M  V30 2150 H 203.706 -1.43093 -2.10705 0
M  V30 2151 H 204.489 -3.02868 -1.61634 0
M  V30 2152 N 206.934 1.1197 -1.10907 0
M  V30 2153 C 207.844 2.21433 -0.774896 0
M  V30 2154 C 208.86 1.72478 0.229657 0
M  V30 2155 O 210.036 2.01288 0.0672008 0
M  V30 2156 C 207.101 3.4602 -0.216986 0
M  V30 2157 C 206.162 4.09791 -1.27944 0
M  V30 2158 C 205.395 5.28431 -0.748055 0
M  V30 2159 O 205.618 5.68823 0.423833 0
M  V30 2160 O 204.552 5.82644 -1.51027 0
M  V30 2161 H 208.378 2.5242 -1.68873 0
M  V30 2162 H 205.963 1.20399 -0.884555 0
M  V30 2163 H 207.845 4.21304 0.090059 0
M  V30 2164 H 206.52 3.16698 0.669633 0
M  V30 2165 H 205.427 3.36265 -1.63941 0
M  V30 2166 H 206.76 4.4328 -2.13925 0
M  V30 2167 N 208.412 0.89855 1.29475 0
M  V30 2168 C 209.362 0.346767 2.25348 0
M  V30 2169 C 210.346 -0.532509 1.51833 0
M  V30 2170 O 211.538 -0.374714 1.72988 0
M  V30 2171 C 208.667 -0.425681 3.40651 0
M  V30 2172 C 207.753 0.46845 4.21505 0
M  V30 2173 N 208.144 1.57514 4.80648 0
M  V30 2174 C 206.442 0.26603 4.45206 0
M  V30 2175 C 207.143 2.12889 5.41344 0
M  V30 2176 N 206.119 1.42208 5.24669 0
M  V30 2177 H 209.921 1.19219 2.68634 0
M  V30 2178 H 207.435 0.749473 1.44072 0
M  V30 2179 H 209.432 -0.837716 4.08397 0
M  V30 2180 H 208.092 -1.26838 2.98902 0
M  V30 2181 H 209.103 1.95789 4.79465 0
M  V30 2182 H 205.78 -0.538394 4.14014 0
M  V30 2183 H 207.17 3.05901 5.98226 0
M  V30 2184 N 209.89 -1.43072 0.660911 0
M  V30 2185 C 210.838 -2.32569 -0.0378199 0
M  V30 2186 C 211.832 -1.49046 -0.805092 0
M  V30 2187 O 213.038 -1.65206 -0.714624 0
M  V30 2188 H 209.413 -0.75136 -0.031019 0
M  V30 2189 H 211.384 -2.89216 0.734609 0
M  V30 2190 C 210.133 -3.33453 -0.985124 0
M  V30 2191 H 209.456 -3.97752 -0.404147 0
M  V30 2192 H 210.896 -3.98691 -1.44297 0
M  V30 2193 C 209.355 -2.64642 -2.08486 0
M  V30 2194 O 209.885 -2.46776 -3.16961 0
M  V30 2195 N 208.091 -2.23891 -1.8526 0
M  V30 2196 H 207.638 -2.38621 -0.970449 0
M  V30 2197 H 207.596 -1.78181 -2.59034 0
M  V30 2198 N 211.368 -0.403325 -1.52352 0
M  V30 2199 C 212.278 0.432009 -2.30588 0
M  V30 2200 C 213.294 1.05884 -1.38075 0
M  V30 2201 O 214.47 1.06161 -1.71148 0
M  V30 2202 C 211.535 1.53669 -3.10784 0
M  V30 2203 C 210.596 0.933525 -4.19027 0
M  V30 2204 C 209.829 1.98557 -4.9539 0
M  V30 2205 O 210.052 3.20283 -4.71991 0
M  V30 2206 O 208.986 1.59504 -5.80381 0
M  V30 2207 H 212.812 -0.205739 -3.03002 0
M  V30 2208 H 210.397 -0.166675 -1.48467 0
M  V30 2209 H 212.279 2.17814 -3.60742 0
M  V30 2210 H 210.954 2.15915 -2.41169 0
M  V30 2211 H 209.861 0.254954 -3.7323 0
M  V30 2212 H 211.194 0.35508 -4.90918 0
M  V30 2213 N 212.846 1.57033 -0.133567 0
M  V30 2214 C 213.793 2.16074 0.811208 0
M  V30 2215 C 214.763 1.08979 1.2535 0
M  V30 2216 O 215.948 1.36958 1.32843 0
M  V30 2217 C 213.088 2.77595 2.05024 0
M  V30 2218 C 212.201 3.99042 1.65498 0
M  V30 2219 C 211.336 4.48603 2.84479 0
M  V30 2220 C 210.375 5.62547 2.41262 0
M  V30 2221 N 209.512 6.06787 3.53206 0
M  V30 2222 H 214.352 2.96477 0.300906 0
M  V30 2223 H 211.889 1.46462 0.136822 0
M  V30 2224 H 213.847 3.11402 2.77642 0
M  V30 2225 H 212.477 1.99859 2.53488 0
M  V30 2226 H 211.529 3.71302 0.826981 0
M  V30 2227 H 212.841 4.81629 1.29748 0
M  V30 2228 H 211.995 4.84395 3.65303 0
M  V30 2229 H 210.734 3.64995 3.23465 0
M  V30 2230 H 209.739 5.26345 1.58874 0
M  V30 2231 H 210.964 6.47931 2.03377 0
M  V30 2232 H 208.91 5.26117 3.91838 0
M  V30 2233 H 208.827 6.84266 3.21427 0
M  V30 2234 H 210.095 6.4722 4.34427 0
M  V30 2235 N 214.325 -0.140222 1.56975 0
M  V30 2236 C 215.573 -0.850005 1.83356 0
M  V30 2237 C 215.894 -1.81399 0.71551 0
M  V30 2238 O 215.164 -1.94136 -0.262294 0
M  V30 2239 H 213.744 -0.316886 0.676456 0
M  V30 2240 H 216.406 -0.132608 1.94448 0
M  V30 2241 H 215.502 -1.40814 2.78528 0
M  V30 2242 N 215.803 -1.52179 -0.40978 0
M  V30 2243 C 217.052 -1.65434 -1.15388 0
M  V30 2244 C 217.365 -0.390056 -1.91671 0
M  V30 2245 O 218.571 -0.402399 -2.68501 0
M  V30 2246 C 217.027 -2.92279 -2.10003 0
M  V30 2247 C 216.635 -4.25813 -1.39239 0
M  V30 2248 C 218.379 -3.14897 -2.84675 0
M  V30 2249 C 216.286 -5.43782 -2.32498 0
M  V30 2250 H 215.216 -0.616267 -0.434432 0
M  V30 2251 H 217.867 -1.78666 -0.418401 0
M  V30 2252 H 216.249 -2.72744 -2.871 0
M  V30 2253 H 217.423 -4.55828 -0.675099 0
M  V30 2254 H 215.738 -4.09292 -0.766097 0
M  V30 2255 H 218.335 -4.0021 -3.54593 0
M  V30 2256 H 218.678 -2.29103 -3.47588 0
M  V30 2257 H 219.211 -3.34901 -2.14677 0
M  V30 2258 H 215.95 -6.3192 -1.74233 0
M  V30 2259 H 215.47 -5.18106 -3.02201 0
M  V30 2260 H 217.149 -5.76834 -2.93038 0
M  V30 2261 N 217.281 0.66697 -1.42791 0
M  V30 2262 C 218.211 1.79218 -1.49677 0
M  V30 2263 C 219.192 1.66405 -0.352623 0
M  V30 2264 O 220.377 1.85708 -0.567993 0
M  V30 2265 C 217.507 3.17565 -1.40605 0
M  V30 2266 C 216.461 3.45124 -2.53127 0
M  V30 2267 C 215.787 4.83127 -2.29112 0
M  V30 2268 C 217.087 3.41236 -3.95418 0
M  V30 2269 H 218.781 1.73713 -2.43853 0
M  V30 2270 H 216.327 0.83432 -1.17367 0
M  V30 2271 H 218.28 3.96022 -1.44029 0
M  V30 2272 H 217.004 3.23767 -0.429271 0
M  V30 2273 H 215.663 2.69031 -2.49034 0
M  V30 2274 H 215.311 4.85988 -1.29709 0
M  V30 2275 H 215.011 5.02528 -3.04531 0
M  V30 2276 H 216.535 5.63859 -2.34297 0
M  V30 2277 H 217.949 4.09651 -4.01073 0
M  V30 2278 H 216.346 3.72173 -4.70752 0
M  V30 2279 H 217.416 2.39665 -4.21532 0
M  V30 2280 N 218.759 1.29093 0.90403 0
M  V30 2281 C 219.689 1.16401 2.02418 0
M  V30 2282 C 220.67 0.0593085 1.69997 0
M  V30 2283 O 221.855 0.238021 1.92736 0
M  V30 2284 C 218.985 0.835233 3.37107 0
M  V30 2285 C 217.939 1.89578 3.83724 0
M  V30 2286 C 217.265 1.42041 5.15489 0
M  V30 2287 C 218.565 3.30394 4.04521 0
M  V30 2288 H 220.259 2.10109 2.13295 0
M  V30 2289 H 217.805 1.01157 1.02486 0
M  V30 2290 H 219.758 0.733169 4.14973 0
M  V30 2291 H 218.482 -0.137543 3.2631 0
M  V30 2292 H 217.141 1.98715 3.08071 0
M  V30 2293 H 216.789 0.436426 5.01103 0
M  V30 2294 H 216.489 2.12964 5.4765 0
M  V30 2295 H 218.013 1.33176 5.959 0
M  V30 2296 H 219.427 3.24123 4.72882 0
M  V30 2297 H 217.824 3.99237 4.48029 0
M  V30 2298 H 218.894 3.73692 3.09002 0
M  V30 2299 N 220.237 -1.11381 1.11499 0
M  V30 2300 C 221.184 -2.17439 0.773887 0
M  V30 2301 C 222.154 -1.64132 -0.254899 0
M  V30 2302 O 223.339 -1.90345 -0.13168 0
M  V30 2303 C 220.479 -3.44373 0.223917 0
M  V30 2304 C 219.592 -4.1168 1.30934 0
M  V30 2305 C 218.727 -5.263 0.71984 0
M  V30 2306 C 217.766 -5.85493 1.78507 0
M  V30 2307 N 216.903 -6.91507 1.21502 0
M  V30 2308 H 221.743 -2.45962 1.68246 0
M  V30 2309 H 219.28 -1.20744 0.840191 0
M  V30 2310 H 221.238 -4.17047 -0.112921 0
M  V30 2311 H 219.868 -3.16232 -0.647851 0
M  V30 2312 H 218.92 -3.37073 1.76312 0
M  V30 2313 H 220.232 -4.51729 2.11524 0
M  V30 2314 H 219.386 -6.05785 0.333094 0
M  V30 2315 H 218.125 -4.87559 -0.117377 0
M  V30 2316 H 217.13 -5.04686 2.18111 0
M  V30 2317 H 218.355 -6.26301 2.62533 0
M  V30 2318 H 216.301 -6.54783 0.399455 0
M  V30 2319 H 216.218 -7.30214 1.95763 0
M  V30 2320 H 217.486 -7.74795 0.855181 0
M  V30 2321 N 221.715 -0.905404 -1.28997 0
M  V30 2322 C 222.94 -0.549175 -1.99997 0
M  V30 2323 C 223.365 0.860276 -1.67275 0
M  V30 2324 O 222.723 1.57355 -0.900502 0
M  V30 2325 C 222.771 -0.755185 -3.52604 0
M  V30 2326 O 221.875 0.189692 -4.11964 0
M  V30 2327 H 221.216 -0.213899 -0.628604 0
M  V30 2328 H 223.746 -1.21856 -1.64354 0
M  V30 2329 H 223.756 -0.662045 -4.02593 0
M  V30 2330 H 222.431 -1.78271 -3.75755 0
M  V30 2331 H 221.008 0.0485257 -3.72868 0
M  V30 2332 N 223.193 1.4272 -0.668489 0
M  V30 2333 C 224.418 2.06484 -0.194758 0
M  V30 2334 C 224.843 1.49862 1.13679 0
M  V30 2335 O 224.201 0.614582 1.70565 0
M  V30 2336 C 224.249 3.60353 -0.133546 0
M  V30 2337 O 223.353 4.02464 0.899806 0
M  V30 2338 H 222.694 0.656137 -0.10188 0
M  V30 2339 H 225.224 1.82964 -0.915722 0
M  V30 2340 H 225.234 4.07976 0.0447041 0
M  V30 2341 H 223.909 4.00938 -1.1055 0
M  V30 2342 H 222.486 3.66402 0.693109 0
M  V30 2343 N 224.671 0.411399 1.52136 0
M  V30 2344 C 225.92 -0.165009 2.01024 0
M  V30 2345 C 226.233 -1.4603 1.30133 0
M  V30 2346 O 227.439 -2.1181 1.69849 0
M  V30 2347 C 225.895 -0.344618 3.58246 0
M  V30 2348 C 225.503 0.938716 4.38055 0
M  V30 2349 C 227.247 -0.876195 4.15359 0
M  V30 2350 C 225.154 0.726172 5.86925 0
M  V30 2351 H 224.084 -0.0654407 0.751155 0
M  V30 2352 H 226.735 0.537192 1.75461 0
M  V30 2353 H 225.117 -1.10921 3.80148 0
M  V30 2354 H 226.291 1.70963 4.27912 0
M  V30 2355 H 224.606 1.39688 3.92271 0
M  V30 2356 H 227.203 -1.05128 5.24263 0
M  V30 2357 H 227.546 -1.85152 3.7286 0
M  V30 2358 H 228.079 -0.170607 3.97434 0
M  V30 2359 H 224.818 1.67312 6.33788 0
M  V30 2360 H 224.338 -0.00540283 5.998 0
M  V30 2361 H 226.017 0.369231 6.45946 0
M  V30 2362 N 226.149 -1.5696 0.141893 0
M  V30 2363 C 227.374 -2.00754 -0.520838 0
M  V30 2364 C 227.799 -1.0213 -1.57959 0
M  V30 2365 O 227.157 0.00371324 -1.813 0
M  V30 2366 C 227.205 -3.43318 -1.10294 0
M  V30 2367 O 226.309 -3.47679 -2.21795 0
M  V30 2368 H 225.65 -0.651564 -0.127908 0
M  V30 2369 H 228.18 -2.03221 0.23712 0
M  V30 2370 H 228.19 -3.82012 -1.43287 0
M  V30 2371 H 226.865 -4.14608 -0.327574 0
M  V30 2372 H 225.442 -3.20824 -1.9007 0
M  V30 2373 N 227.627 0.131896 -1.57047 0
M  V30 2374 C 228.874 0.841932 -1.84168 0
M  V30 2375 C 229.202 1.8048 -0.725066 0
M  V30 2376 O 228.457 1.93618 0.284692 0
M  V30 2377 C 228.756 1.63703 -3.17704 0
M  V30 2378 C 228.422 0.81961 -4.43388 0
M  V30 2379 C 227.084 0.594148 -4.77518 0
M  V30 2380 C 229.436 0.248977 -5.20605 0
M  V30 2381 C 226.764 -0.212409 -5.86315 0
M  V30 2382 C 229.116 -0.544701 -6.30251 0
M  V30 2383 C 227.78 -0.780599 -6.6292 0
M  V30 2384 H 227.05 0.308085 -0.673917 0
M  V30 2385 H 229.697 0.104867 -1.91213 0
M  V30 2386 H 228.002 2.44464 -3.06177 0
M  V30 2387 H 229.699 2.19015 -3.35907 0
M  V30 2388 H 226.289 1.00542 -4.16641 0
M  V30 2389 H 230.473 0.410408 -4.946 0
M  V30 2390 H 225.729 -0.404524 -6.1006 0
M  V30 2391 H 229.903 -0.993922 -6.89271 0
M  V30 2392 H 227.53 -1.40742 -7.47058 0
M  V30 2393 N 229.106 1.52395 0.401703 0
M  V30 2394 C 230.038 1.72505 1.50912 0
M  V30 2395 C 231.051 0.605468 1.51122 0
M  V30 2396 O 232.24 0.880828 1.55254 0
M  V30 2397 C 229.34 1.75711 2.89791 0
M  V30 2398 C 228.513 3.04824 3.1369 0
M  V30 2399 C 227.572 2.99743 4.32482 0
M  V30 2400 O 226.598 3.73635 4.29402 0
M  V30 2401 N 227.8 2.18047 5.37992 0
M  V30 2402 H 230.565 2.68049 1.34052 0
M  V30 2403 H 228.126 1.50724 0.591084 0
M  V30 2404 H 230.118 1.69834 3.6734 0
M  V30 2405 H 228.688 0.876092 3.00072 0
M  V30 2406 H 227.908 3.2429 2.24119 0
M  V30 2407 H 229.196 3.90221 3.26504 0
M  V30 2408 H 228.594 1.57456 5.43345 0
M  V30 2409 H 227.151 2.18021 6.14256 0
M  V30 2410 N 230.584 -0.659388 1.43143 0
M  V30 2411 C 231.532 -1.79374 1.4808 0
M  V30 2412 C 232.526 -1.65639 0.354988 0
M  V30 2413 O 233.732 -1.7206 0.528704 0
M  V30 2414 H 230.107 -0.591705 0.4641 0
M  V30 2415 H 232.078 -1.72329 2.43609 0
M  V30 2416 C 230.827 -3.17606 1.41499 0
M  V30 2417 H 230.15 -3.28809 2.27431 0
M  V30 2418 H 231.59 -3.96951 1.49015 0
M  V30 2419 C 230.049 -3.36642 0.131765 0
M  V30 2420 O 230.579 -3.93461 -0.809386 0
M  V30 2421 N 228.785 -2.90567 0.0439396 0
M  V30 2422 H 228.332 -2.44513 0.810619 0
M  V30 2423 H 228.29 -3.03681 -0.813969 0
M  V30 2424 N 232.062 -1.29571 -0.897171 0
M  V30 2425 C 233.311 -1.1706 -1.64256 0
M  V30 2426 C 233.624 0.276476 -1.93636 0
M  V30 2427 O 234.83 0.52294 -2.66416 0
M  V30 2428 C 233.286 -2.0475 -2.95982 0
M  V30 2429 C 232.894 -3.54295 -2.74187 0
M  V30 2430 C 234.638 -2.0097 -3.73914 0
M  V30 2431 C 232.545 -4.34081 -4.01656 0
M  V30 2432 H 231.475 -0.43452 -0.616205 0
M  V30 2433 H 234.126 -1.54229 -0.994268 0
M  V30 2434 H 232.508 -1.60452 -3.62038 0
M  V30 2435 H 233.682 -4.06662 -2.1671 0
M  V30 2436 H 231.997 -3.59773 -2.09648 0
M  V30 2437 H 234.594 -2.57838 -4.68427 0
M  V30 2438 H 234.937 -0.990273 -4.0435 0
M  V30 2439 H 235.47 -2.43325 -3.14703 0
M  V30 2440 H 232.209 -5.36671 -3.76384 0
M  V30 2441 H 231.729 -3.86483 -4.58684 0
M  V30 2442 H 233.408 -4.44877 -4.69781 0
M  V30 2443 N 233.54 1.10788 -1.12088 0
M  V30 2444 C 234.789 1.82036 -0.868659 0
M  V30 2445 C 235.102 1.85929 0.607426 0
M  V30 2446 O 236.308 2.53346 0.97613 0
M  V30 2447 C 234.764 3.26951 -1.50435 0
M  V30 2448 C 234.372 3.31367 -3.01496 0
M  V30 2449 C 236.116 4.03053 -1.33225 0
M  V30 2450 C 234.023 4.7072 -3.58017 0
M  V30 2451 H 232.953 0.682108 -0.321318 0
M  V30 2452 H 235.604 1.24618 -1.34694 0
M  V30 2453 H 233.986 3.84343 -0.953735 0
M  V30 2454 H 235.16 2.83819 -3.6302 0
M  V30 2455 H 233.475 2.6875 -3.18061 0
M  V30 2456 H 236.072 5.05981 -1.72878 0
M  V30 2457 H 236.415 4.15387 -0.275529 0
M  V30 2458 H 236.948 3.52066 -1.85188 0
M  V30 2459 H 233.687 4.63585 -4.63432 0
M  V30 2460 H 233.207 5.1865 -3.01268 0
M  V30 2461 H 234.886 5.39685 -3.56859 0
M  V30 2462 N 235.018 0.912232 1.28515 0
M  V30 2463 C 235.928 0.404506 2.31086 0
M  V30 2464 C 236.944 -0.50707 1.66448 0
M  V30 2465 O 238.12 -0.393624 1.97516 0
M  V30 2466 C 235.185 -0.348572 3.44943 0
M  V30 2467 C 234.246 0.59604 4.25142 0
M  V30 2468 C 233.479 -0.121194 5.33562 0
M  V30 2469 O 233.702 -1.34317 5.5436 0
M  V30 2470 O 232.636 0.542716 5.99448 0
M  V30 2471 H 236.462 1.25579 2.76521 0
M  V30 2472 H 234.047 0.676998 1.33181 0
M  V30 2473 H 235.929 -0.77395 4.14232 0
M  V30 2474 H 234.604 -1.17571 3.01594 0
M  V30 2475 H 233.511 1.07079 3.58448 0
M  V30 2476 H 234.844 1.38995 4.72167 0
M  V30 2477 N 236.496 -1.42363 0.676048 0
M  V30 2478 C 237.744 -2.01123 0.198437 0
M  V30 2479 C 238.065 -1.53731 -1.19966 0
M  V30 2480 O 237.335 -0.759518 -1.80577 0
M  V30 2481 H 235.915 -0.743678 0.0703721 0
M  V30 2482 H 238.577 -1.74263 0.872837 0
M  V30 2483 H 237.673 -3.11454 0.200686 0
M  V30 2484 N 237.974 -0.419461 -1.51915 0
M  V30 2485 C 239.202 0.152136 -2.0634 0
M  V30 2486 C 239.617 1.37988 -1.28859 0
M  V30 2487 O 238.974 1.79243 -0.343232 0
M  V30 2488 C 239.025 0.492266 -3.58133 0
M  V30 2489 O 238.746 -0.686736 -4.32684 0
M  V30 2490 C 240.247 1.11648 -4.2901 0
M  V30 2491 H 237.467 0.0158325 -0.670813 0
M  V30 2492 H 240.011 -0.593394 -1.95702 0
M  V30 2493 H 238.166 1.18769 -3.68745 0
M  V30 2494 H 238.58 -0.400341 -5.2297 0
M  V30 2495 H 240.054 1.3046 -5.36362 0
M  V30 2496 H 240.531 2.09251 -3.86148 0
M  V30 2497 H 241.137 0.460958 -4.22795 0
M  V30 2498 N 239.452 1.56882 -0.150215 0
M  V30 2499 C 240.868 1.58263 0.20617 0
M  V30 2500 C 241.068 1.16464 1.64434 0
M  V30 2501 O 240.124 0.866422 2.3717 0
M  V30 2502 C 241.437 3.00649 -0.0555025 0
M  V30 2503 C 242.985 3.12999 0.00795388 0
M  V30 2504 C 243.46 4.5744 -0.226429 0
M  V30 2505 N 244.951 4.62875 -0.173469 0
M  V30 2506 C 245.686 5.72454 -0.329288 0
M  V30 2507 N 245.182 6.90669 -0.543005 0
M  V30 2508 N 246.975 5.61467 -0.266666 0
M  V30 2509 H 239.126 1.82345 -1.08922 0
M  V30 2510 H 241.389 0.844149 -0.431413 0
M  V30 2511 H 241.095 3.3563 -1.05096 0
M  V30 2512 H 240.969 3.71337 0.66246 0
M  V30 2513 H 243.356 2.77857 0.993966 0
M  V30 2514 H 243.437 2.4479 -0.742388 0
M  V30 2515 H 243.081 4.93287 -1.20956 0
M  V30 2516 H 243.011 5.2378 0.544274 0
M  V30 2517 H 245.502 3.77898 -0.0130709 0
M  V30 2518 H 245.815 7.70045 -0.651922 0
M  V30 2519 H 244.16 6.92581 -0.579366 0
M  V30 2520 H 247.351 4.67992 -0.100441 0
M  V30 2521 H 247.524 6.46816 -0.391535 0
M  V30 2522 N 240.93 -0.123565 1.57115 0
M  V30 2523 C 241.878 -1.17082 2.00984 0
M  V30 2524 C 242.872 -1.43136 0.906009 0
M  V30 2525 O 244.078 -1.43152 1.09121 0
M  V30 2526 H 240.453 -0.394653 0.64012 0
M  V30 2527 H 242.424 -0.774292 2.88179 0
M  V30 2528 C 241.173 -2.49057 2.42623 0
M  V30 2529 H 240.496 -2.29846 3.27125 0
M  V30 2530 H 241.936 -3.20906 2.7712 0
M  V30 2531 C 240.395 -3.11305 1.28805 0
M  V30 2532 O 240.925 -3.97171 0.60153 0
M  V30 2533 N 239.131 -2.71111 1.04628 0
M  V30 2534 H 238.678 -2.01382 1.60634 0
M  V30 2535 H 238.636 -3.1309 0.286685 0
M  V30 2536 N 242.408 -1.52605 -0.393616 0
M  V30 2537 C 243.655 -1.67424 -1.1391 0
M  V30 2538 C 243.983 -0.411859 -1.90089 0
M  V30 2539 O 243.238 0.605626 -1.86093 0
M  V30 2540 C 243.537 -2.85721 -2.14705 0
M  V30 2541 C 243.203 -4.23342 -1.55218 0
M  V30 2542 C 241.865 -4.60771 -1.3872 0
M  V30 2543 C 244.217 -5.09041 -1.11924 0
M  V30 2544 C 241.545 -5.81563 -0.774689 0
M  V30 2545 C 243.897 -6.30452 -0.520853 0
M  V30 2546 C 242.561 -6.66617 -0.343134 0
M  V30 2547 H 241.831 -0.612648 -0.416826 0
M  V30 2548 H 244.478 -1.8674 -0.424315 0
M  V30 2549 H 242.783 -2.60803 -2.92385 0
M  V30 2550 H 244.48 -2.94382 -2.72288 0
M  V30 2551 H 241.07 -3.93855 -1.69045 0
M  V30 2552 H 245.254 -4.80695 -1.23473 0
M  V30 2553 H 240.51 -6.08196 -0.625154 0
M  V30 2554 H 244.684 -6.96175 -0.177065 0
M  V30 2555 H 242.311 -7.60083 0.133571 0
M  V30 2556 N 243.887 0.651787 -1.4349 0
M  V30 2557 C 244.837 1.75783 -1.45205 0
M  V30 2558 C 245.821 1.57679 -0.320328 0
M  V30 2559 O 247.013 1.67767 -0.564211 0
M  V30 2560 C 244.142 3.14377 -1.3792 0
M  V30 2561 C 243.228 3.38023 -2.56127 0
M  V30 2562 N 243.619 3.32135 -3.81471 0
M  V30 2563 C 241.917 3.68747 -2.50882 0
M  V30 2564 C 242.618 3.55902 -4.60118 0
M  V30 2565 N 241.594 3.77783 -3.90872 0
M  V30 2566 H 245.396 1.69657 -2.39987 0
M  V30 2567 H 242.91 0.853508 -1.38163 0
M  V30 2568 H 244.907 3.93666 -1.37231 0
M  V30 2569 H 243.567 3.21683 -0.441596 0
M  V30 2570 H 244.578 3.11515 -4.13738 0
M  V30 2571 H 241.255 3.8316 -1.65816 0
M  V30 2572 H 242.645 3.57116 -5.69138 0
M  V30 2573 N 245.365 1.30045 0.890287 0
M  V30 2574 C 246.312 1.15976 1.99545 0
M  V30 2575 C 247.282 0.0506202 1.66023 0
M  V30 2576 O 248.467 0.219847 1.89529 0
M  V30 2577 C 245.607 0.852054 3.34416 0
M  V30 2578 C 244.72 2.04255 3.80662 0
M  V30 2579 C 243.855 1.6734 5.04154 0
M  V30 2580 C 242.894 2.82916 5.42794 0
M  V30 2581 N 242.031 2.46333 6.57468 0
M  V30 2582 H 246.871 2.10524 2.10911 0
M  V30 2583 H 244.408 1.04749 1.03276 0
M  V30 2584 H 246.366 0.654296 4.12037 0
M  V30 2585 H 244.996 -0.0565502 3.2275 0
M  V30 2586 H 244.048 2.35172 2.98995 0
M  V30 2587 H 245.36 2.90826 4.05242 0
M  V30 2588 H 244.514 1.43908 5.89386 0
M  V30 2589 H 243.253 0.779308 4.81433 0
M  V30 2590 H 242.258 3.0702 4.56091 0
M  V30 2591 H 243.483 3.73004 5.6749 0
M  V30 2592 H 241.429 1.59423 6.36334 0
M  V30 2593 H 241.346 3.26436 6.81891 0
M  V30 2594 H 242.614 2.26244 7.45945 0
M  V30 2595 N 246.843 -1.10192 1.12674 0
M  V30 2596 C 248.12 -1.78717 0.794965 0
M  V30 2597 C 248.5 -1.98628 -0.714853 0
M  V30 2598 O 247.848 -1.58135 -1.64941 0
M  V30 2599 C 248.058 -3.11546 1.5729 0
M  V30 2600 C 249.406 -3.86382 1.76052 0
M  V30 2601 O 250.43 -3.21274 1.53823 0
M  V30 2602 O 249.289 -5.03246 2.13087 0
M  V30 2603 H 246.383 -0.774702 0.289423 0
M  V30 2604 H 248.929 -1.16819 1.23091 0
M  V30 2605 H 247.701 -2.92489 2.59935 0
M  V30 2606 H 247.324 -3.81164 1.13137 0
M  V30 2607 N 248.321 -0.919034 -1.28029 0
M  V30 2608 C 249.568 -0.554934 -1.94748 0
M  V30 2609 C 249.896 0.90231 -1.72304 0
M  V30 2610 O 249.151 1.65767 -1.04018 0
M  V30 2611 C 249.45 -0.816855 -3.4794 0
M  V30 2612 C 249.116 -2.25448 -3.90492 0
M  V30 2613 C 247.778 -2.64752 -4.01821 0
M  V30 2614 C 250.13 -3.18977 -4.12193 0
M  V30 2615 C 247.458 -3.96727 -4.32232 0
M  V30 2616 C 249.81 -4.50523 -4.44086 0
M  V30 2617 C 248.474 -4.89673 -4.53626 0
M  V30 2618 H 247.744 -0.203065 -0.712633 0
M  V30 2619 H 250.391 -1.16136 -1.52265 0
M  V30 2620 H 248.696 -0.127677 -3.91592 0
M  V30 2621 H 250.393 -0.514238 -3.97689 0
M  V30 2622 H 246.983 -1.93952 -3.82205 0
M  V30 2623 H 251.167 -2.89817 -4.02889 0
M  V30 2624 H 246.423 -4.26754 -4.37825 0
M  V30 2625 H 250.597 -5.23005 -4.59825 0
M  V30 2626 H 248.224 -5.91969 -4.76946 0
M  V30 2627 N 249.799 1.42003 -0.683588 0
M  V30 2628 C 250.729 2.33487 -0.024866 0
M  V30 2629 C 251.71 1.51163 0.779975 0
M  V30 2630 O 252.895 1.79739 0.735362 0
M  V30 2631 C 250.025 3.3487 0.920836 0
M  V30 2632 C 248.979 4.27414 0.223958 0
M  V30 2633 C 248.305 5.19074 1.2832 0
M  V30 2634 C 249.605 5.14445 -0.90242 0
M  V30 2635 H 251.299 2.88819 -0.788921 0
M  V30 2636 H 248.845 1.38873 -0.38083 0
M  V30 2637 H 250.798 3.97787 1.39081 0
M  V30 2638 H 249.522 2.77861 1.71642 0
M  V30 2639 H 248.181 3.65904 -0.225864 0
M  V30 2640 H 247.829 4.58387 2.071 0
M  V30 2641 H 247.529 5.81822 0.821995 0
M  V30 2642 H 249.053 5.84867 1.75392 0
M  V30 2643 H 250.467 5.70998 -0.513272 0
M  V30 2644 H 248.864 5.86072 -1.28997 0
M  V30 2645 H 249.934 4.52322 -1.74737 0
M  V30 2646 N 251.277 0.427512 1.51691 0
M  V30 2647 C 252.526 -0.143679 2.01188 0
M  V30 2648 C 252.839 -1.44642 1.31674 0
M  V30 2649 O 254.045 -2.09997 1.72086 0
M  V30 2650 C 252.501 -0.306602 3.58592 0
M  V30 2651 C 252.109 0.985125 4.37035 0
M  V30 2652 C 253.853 -0.832091 4.16265 0
M  V30 2653 C 251.76 0.788382 5.86122 0
M  V30 2654 H 250.69 -0.0574701 0.751807 0
M  V30 2655 H 253.341 0.555772 1.74881 0
M  V30 2656 H 251.723 -1.06882 3.81303 0
M  V30 2657 H 252.897 1.75492 4.26074 0
M  V30 2658 H 251.212 1.4384 3.90767 0
M  V30 2659 H 253.809 -0.995617 5.25349 0
M  V30 2660 H 254.152 -1.81186 3.74803 0
M  V30 2661 H 254.685 -0.128444 3.97593 0
M  V30 2662 H 251.424 1.74025 6.31978 0
M  V30 2663 H 250.944 0.0582143 5.99772 0
M  V30 2664 H 252.623 0.437722 6.45518 0
M  V30 2665 N 252.755 -1.56801 0.158532 0
M  V30 2666 C 254.003 -1.96102 -0.488712 0
M  V30 2667 C 254.324 -1.04498 -1.64636 0
M  V30 2668 O 253.594 -0.108783 -1.95598 0
M  V30 2669 H 252.174 -0.724102 -0.183535 0
M  V30 2670 H 254.836 -1.93457 0.236728 0
M  V30 2671 H 253.932 -3.00097 -0.857219 0
M  V30 2672 N 254.233 0.115231 -1.57178 0
M  V30 2673 C 255.143 1.15994 -2.03918 0
M  V30 2674 C 256.159 1.45103 -0.960268 0
M  V30 2675 O 257.335 1.56144 -1.27204 0
M  V30 2676 C 254.4 2.46568 -2.43732 0
M  V30 2677 C 253.461 2.24822 -3.65723 0
M  V30 2678 C 252.694 3.4917 -4.03629 0
M  V30 2679 O 252.917 4.56623 -3.41835 0
M  V30 2680 O 251.851 3.39949 -4.96708 0
M  V30 2681 H 255.677 0.793019 -2.93164 0
M  V30 2682 H 253.262 0.3263 -1.45793 0
M  V30 2683 H 255.144 3.23492 -2.70057 0
M  V30 2684 H 253.819 2.82726 -1.57631 0
M  V30 2685 H 252.726 1.45744 -3.44542 0
M  V30 2686 H 254.059 1.93566 -4.52541 0
M  V30 2687 N 255.711 1.52812 0.385517 0
M  V30 2688 C 256.959 1.67694 1.12797 0
M  V30 2689 C 257.28 0.421115 1.90399 0
M  V30 2690 O 256.55 -0.564551 1.87589 0
M  V30 2691 H 255.13 0.618155 0.419396 0
M  V30 2692 H 257.792 1.89938 0.436972 0
M  V30 2693 H 256.888 2.52896 1.82894 0
M  V30 2694 N 257.189 -0.644168 1.43834 0
M  V30 2695 C 258.099 -1.78563 1.52159 0
M  V30 2696 C 259.115 -1.69147 0.408069 0
M  V30 2697 O 260.291 -1.90156 0.663524 0
M  V30 2698 C 257.356 -3.14888 1.45073 0
M  V30 2699 C 256.417 -3.36034 2.6717 0
M  V30 2700 C 255.65 -4.65855 2.60413 0
M  V30 2701 O 255.873 -5.45805 1.65689 0
M  V30 2702 O 254.807 -4.88918 3.5106 0
M  V30 2703 H 258.633 -1.74494 2.48567 0
M  V30 2704 H 256.218 -0.80378 1.25935 0
M  V30 2705 H 258.1 -3.96179 1.43597 0
M  V30 2706 H 256.775 -3.19528 0.518037 0
M  V30 2707 H 255.682 -2.54472 2.74217 0
M  V30 2708 H 257.015 -3.36247 3.59442 0
M  V30 2709 N 258.668 -1.30515 -0.883378 0
M  V30 2710 C 259.917 -1.18795 -1.63005 0
M  V30 2711 C 260.23 0.255923 -1.93919 0
M  V30 2712 O 261.436 0.494654 -2.66956 0
M  V30 2713 C 259.892 -2.07878 -2.93794 0
M  V30 2714 C 259.5 -3.57184 -2.70414 0
M  V30 2715 C 261.244 -2.04924 -3.71761 0
M  V30 2716 C 259.151 -4.38317 -3.97029 0
M  V30 2717 H 258.081 -0.441031 -0.611562 0
M  V30 2718 H 260.732 -1.55275 -0.977854 0
M  V30 2719 H 259.114 -1.64283 -3.60315 0
M  V30 2720 H 260.288 -4.08937 -2.12384 0
M  V30 2721 H 258.603 -3.61976 -2.0582 0
M  V30 2722 H 261.2 -2.62792 -4.65665 0
M  V30 2723 H 261.543 -1.0331 -4.03277 0
M  V30 2724 H 262.076 -2.46649 -3.12104 0
M  V30 2725 H 258.815 -5.40632 -3.70671 0
M  V30 2726 H 258.335 -3.91326 -4.54559 0
M  V30 2727 H 260.014 -4.49834 -4.65036 0
M  V30 2728 N 260.146 1.09593 -1.13257 0
M  V30 2729 C 261.393 1.81734 -0.893257 0
M  V30 2730 C 261.721 1.8563 0.580656 0
M  V30 2731 O 260.976 1.31906 1.44566 0
M  V30 2732 C 261.275 3.27802 -1.42411 0
M  V30 2733 C 260.941 3.44041 -2.91456 0
M  V30 2734 C 259.603 3.48181 -3.3215 0
M  V30 2735 C 261.955 3.48719 -3.87356 0
M  V30 2736 C 259.283 3.54575 -4.67433 0
M  V30 2737 C 261.635 3.56648 -5.2248 0
M  V30 2738 C 260.299 3.59055 -5.62704 0
M  V30 2739 H 259.569 0.665011 -0.326866 0
M  V30 2740 H 262.216 1.2912 -1.41422 0
M  V30 2741 H 260.521 3.83042 -0.823795 0
M  V30 2742 H 262.218 3.82149 -1.21503 0
M  V30 2743 H 258.808 3.41502 -2.58987 0
M  V30 2744 H 262.992 3.44763 -3.57004 0
M  V30 2745 H 258.248 3.54725 -4.97976 0
M  V30 2746 H 262.422 3.59212 -5.96607 0
M  V30 2747 H 260.049 3.63763 -6.67518 0
M  V30 2748 N 261.624 0.925811 1.2754 0
M  V30 2749 C 262.534 0.428993 2.30644 0
M  V30 2750 C 263.55 -0.489387 1.66976 0
M  V30 2751 O 264.726 -0.372653 1.97922 0
M  V30 2752 C 261.791 -0.311967 3.45294 0
M  V30 2753 C 260.852 0.641098 4.24486 0
M  V30 2754 C 260.085 -0.0645955 5.33661 0
M  V30 2755 O 260.308 -1.28429 5.55754 0
M  V30 2756 O 259.242 0.606265 5.98839 0
M  V30 2757 H 263.068 1.28504 2.75173 0
M  V30 2758 H 260.653 0.691086 1.32455 0
M  V30 2759 H 262.535 -0.729972 4.15029 0
M  V30 2760 H 261.21 -1.14365 3.02824 0
M  V30 2761 H 260.117 1.10874 3.57292 0
M  V30 2762 H 261.45 1.43995 4.70666 0
M  V30 2763 N 263.102 -1.41638 0.69111 0
M  V30 2764 C 264.348 -2.01598 0.220519 0
M  V30 2765 C 264.681 -1.54594 -1.17535 0
M  V30 2766 O 263.956 -0.755177 -1.79241 0
M  V30 2767 C 264.239 -3.59062 0.273243 0
M  V30 2768 C 264.092 -4.16203 1.70573 0
M  V30 2769 C 265.411 -4.38546 -0.369457 0
M  V30 2770 H 262.53 -0.732468 0.0816045 0
M  V30 2771 H 265.172 -1.68445 0.878986 0
M  V30 2772 H 263.322 -3.87435 -0.287411 0
M  V30 2773 H 264.994 -3.98722 2.31989 0
M  V30 2774 H 263.237 -3.71414 2.2413 0
M  V30 2775 H 263.908 -5.25358 1.69419 0
M  V30 2776 H 266.384 -4.1596 0.107977 0
M  V30 2777 H 265.26 -5.48069 -0.302002 0
M  V30 2778 H 265.521 -4.17662 -1.44951 0
M  V30 2779 N 264.58 -0.43555 -1.51462 0
M  V30 2780 C 265.81 0.130053 -2.0619 0
M  V30 2781 C 266.218 1.37164 -1.30317 0
M  V30 2782 O 265.561 1.80225 -0.355598 0
M  V30 2783 C 265.623 0.519418 -3.55728 0
M  V30 2784 C 265.287 -0.615119 -4.52841 0
M  V30 2785 C 266.284 -1.48671 -4.9819 0
M  V30 2786 C 263.969 -0.795341 -4.95963 0
M  V30 2787 C 265.963 -2.52324 -5.8533 0
M  V30 2788 C 263.65 -1.83514 -5.82894 0
M  V30 2789 C 264.648 -2.69748 -6.27475 0
M  V30 2790 O 264.336 -3.71944 -7.1268 0
M  V30 2791 H 264.068 0.0121612 -0.675891 0
M  V30 2792 H 266.622 -0.6129 -1.96043 0
M  V30 2793 H 264.852 1.31505 -3.63653 0
M  V30 2794 H 266.541 1.01597 -3.92979 0
M  V30 2795 H 267.307 -1.359 -4.65571 0
M  V30 2796 H 263.186 -0.133713 -4.60806 0
M  V30 2797 H 266.73 -3.19665 -6.20048 0
M  V30 2798 H 262.627 -1.96306 -6.14926 0
M  V30 2799 H 263.395 -3.68503 -7.30854 0
M  V30 2800 N 266.058 1.56714 -0.166846 0
M  V30 2801 C 267.474 1.58473 0.189372 0
M  V30 2802 C 267.674 1.18201 1.63189 0
M  V30 2803 O 266.73 0.891528 2.36237 0
M  V30 2804 C 268.043 3.00573 -0.0873872 0
M  V30 2805 C 269.591 3.1299 -0.0252443 0
M  V30 2806 C 270.066 4.57174 -0.274934 0
M  V30 2807 N 271.557 4.62665 -0.222553 0
M  V30 2808 C 272.292 5.72072 -0.389985 0
M  V30 2809 N 271.788 6.90054 -0.616229 0
M  V30 2810 N 273.581 5.61153 -0.326202 0
M  V30 2811 H 265.732 1.8118 -1.10849 0
M  V30 2812 H 267.995 0.839525 -0.440342 0
M  V30 2813 H 267.701 3.34497 -1.0865 0
M  V30 2814 H 267.575 3.72019 0.623037 0
M  V30 2815 H 269.962 2.78895 0.96444 0
M  V30 2816 H 270.043 2.43989 -0.768309 0
M  V30 2817 H 269.687 4.91976 -1.26181 0
M  V30 2818 H 269.617 5.24328 0.48869 0
M  V30 2819 H 272.108 3.77863 -0.0531512 0
M  V30 2820 H 272.421 7.69311 -0.733559 0
M  V30 2821 H 270.766 6.91927 -0.652791 0
M  V30 2822 H 273.957 4.67859 -0.150072 0
M  V30 2823 H 274.13 6.46364 -0.460116 0
M  V30 2824 N 267.536 -0.106894 1.57237 0
M  V30 2825 C 268.782 -0.81373 1.85759 0
M  V30 2826 C 269.115 -1.78952 0.754315 0
M  V30 2827 O 268.39 -1.93029 -0.23879 0
M  V30 2828 C 268.673 -1.55293 3.24894 0
M  V30 2829 C 268.526 -0.595929 4.45835 0
M  V30 2830 C 269.845 -2.5063 3.61763 0
M  V30 2831 H 266.964 -0.294369 0.67566 0
M  V30 2832 H 269.606 -0.0776472 1.89841 0
M  V30 2833 H 267.756 -2.1804 3.21544 0
M  V30 2834 H 269.428 0.0236262 4.61294 0
M  V30 2835 H 267.671 0.0916191 4.33703 0
M  V30 2836 H 268.342 -1.15004 5.39887 0
M  V30 2837 H 270.818 -1.97982 3.65981 0
M  V30 2838 H 269.694 -2.99376 4.60071 0
M  V30 2839 H 269.955 -3.3385 2.89821 0
M  V30 2840 N 269.014 -1.53014 -0.377408 0
M  V30 2841 C 269.924 -1.81557 -1.48574 0
M  V30 2842 C 270.94 -0.703102 -1.59162 0
M  V30 2843 O 272.116 -0.99192 -1.75279 0
M  V30 2844 C 269.181 -1.9889 -2.83978 0
M  V30 2845 C 268.242 -3.22801 -2.83016 0
M  V30 2846 C 267.475 -3.39298 -4.11962 0
M  V30 2847 O 267.698 -2.60345 -5.0752 0
M  V30 2848 O 266.632 -4.32604 -4.18494 0
M  V30 2849 H 270.458 -2.75695 -1.27382 0
M  V30 2850 H 268.043 -1.38248 -0.566373 0
M  V30 2851 H 269.925 -2.11931 -3.6423 0
M  V30 2852 H 268.6 -1.07942 -3.05172 0
M  V30 2853 H 267.507 -3.15193 -2.01505 0
M  V30 2854 H 268.84 -4.13632 -2.66775 0
M  V30 2855 N 270.492 0.636531 -1.44174 0
M  V30 2856 C 271.741 1.39213 -1.45954 0
M  V30 2857 C 272.054 1.95374 -0.0939119 0
M  V30 2858 O 273.26 2.71498 0.0107767 0
M  V30 2859 C 271.716 2.52025 -2.56927 0
M  V30 2860 C 271.324 2.024 -3.99673 0
M  V30 2861 C 273.068 3.29269 -2.67922 0
M  V30 2862 C 270.975 3.12521 -5.0208 0
M  V30 2863 H 269.905 0.523132 -0.542999 0
M  V30 2864 H 272.556 0.685349 -1.70221 0
M  V30 2865 H 270.938 3.25253 -2.25891 0
M  V30 2866 H 272.112 1.36073 -4.40251 0
M  V30 2867 H 270.427 1.37987 -3.92872 0
M  V30 2868 H 273.024 4.11352 -3.41605 0
M  V30 2869 H 273.367 3.78397 -1.73555 0
M  V30 2870 H 273.9 2.63129 -2.98342 0
M  V30 2871 H 270.639 2.68343 -5.98057 0
M  V30 2872 H 270.159 3.77507 -4.66099 0
M  V30 2873 H 271.838 3.77385 -5.25538 0
M  V30 2874 N 271.97 1.30982 0.876444 0
M  V30 2875 C 272.902 1.13902 1.98894 0
M  V30 2876 C 273.915 0.0798815 1.62604 0
M  V30 2877 O 275.104 0.326743 1.75484 0
M  V30 2878 C 272.204 0.716699 3.31235 0
M  V30 2879 C 271.377 1.85945 3.95908 0
M  V30 2880 C 270.436 1.42426 5.06558 0
M  V30 2881 O 269.462 2.13287 5.27729 0
M  V30 2882 N 270.664 0.308025 5.79682 0
M  V30 2883 H 273.429 2.09724 2.14094 0
M  V30 2884 H 270.99 1.2323 1.05004 0
M  V30 2885 H 272.982 0.408403 4.02634 0
M  V30 2886 H 271.552 -0.149719 3.12241 0
M  V30 2887 H 270.772 2.33541 3.17573 0
M  V30 2888 H 272.06 2.62503 4.35855 0
M  V30 2889 H 271.458 -0.282241 5.64995 0
M  V30 2890 H 270.015 0.0592282 6.51773 0
M  V30 2891 N 273.449 -1.08991 1.13837 0
M  V30 2892 C 274.397 -2.17841 0.815347 0
M  V30 2893 C 275.391 -1.68164 -0.204233 0
M  V30 2894 O 276.597 -1.79897 -0.0609304 0
M  V30 2895 H 272.972 -0.710654 0.245915 0
M  V30 2896 H 274.943 -2.42315 1.74143 0
M  V30 2897 C 273.692 -3.46381 0.302614 0
M  V30 2898 H 273.015 -3.84979 1.0785 0
M  V30 2899 H 274.455 -4.23844 0.115074 0
M  V30 2900 C 272.914 -3.22556 -0.972591 0
M  V30 2901 O 273.444 -3.45599 -2.04754 0
M  V30 2902 N 271.65 -2.76134 -0.905455 0
M  V30 2903 H 271.197 -2.57582 -0.0305421 0
M  V30 2904 H 271.155 -2.60571 -1.75926 0
M  V30 2905 N 274.927 -0.932562 -1.27047 0
M  V30 2906 C 275.857 -0.452902 -2.29066 0
M  V30 2907 C 276.838 0.489338 -1.62909 0
M  V30 2908 O 278.023 0.393046 -1.90181 0
M  V30 2909 C 275.153 0.290698 -3.46081 0
M  V30 2910 C 274.107 -0.564168 -4.24265 0
M  V30 2911 C 273.433 0.308886 -5.33807 0
M  V30 2912 C 274.733 -1.83112 -4.89149 0
M  V30 2913 H 276.427 -1.30552 -2.69437 0
M  V30 2914 H 273.973 -0.629201 -1.29526 0
M  V30 2915 H 275.926 0.637233 -4.16554 0
M  V30 2916 H 274.65 1.17738 -3.0464 0
M  V30 2917 H 273.309 -0.893477 -3.55545 0
M  V30 2918 H 272.957 1.19467 -4.88607 0
M  V30 2919 H 272.657 -0.259633 -5.87026 0
M  V30 2920 H 274.181 0.650884 -6.07121 0
M  V30 2921 H 275.595 -1.55236 -5.51883 0
M  V30 2922 H 273.992 -2.34353 -5.52448 0
M  V30 2923 H 275.062 -2.54772 -4.12576 0
M  V30 2924 N 276.405 1.4127 -0.698611 0
M  V30 2925 C 277.633 2.05503 -0.239992 0
M  V30 2926 C 278.048 1.52584 1.11191 0
M  V30 2927 O 277.405 0.675323 1.69545 0
M  V30 2928 C 277.456 3.60987 -0.192429 0
M  V30 2929 O 277.177 4.1195 -1.49094 0
M  V30 2930 C 278.678 4.42371 0.28681 0
M  V30 2931 H 275.898 0.661748 -0.111045 0
M  V30 2932 H 278.442 1.80987 -0.95205 0
M  V30 2933 H 276.597 3.84533 0.470472 0
M  V30 2934 H 277.011 5.06018 -1.38007 0
M  V30 2935 H 278.485 5.51344 0.26896 0
M  V30 2936 H 278.962 4.18699 1.32619 0
M  V30 2937 H 279.568 4.23897 -0.345201 0
M  V30 2938 N 277.883 0.443576 1.51229 0
M  V30 2939 C 279.113 -0.119117 2.06256 0
M  V30 2940 C 279.521 -1.36471 1.31043 0
M  V30 2941 O 278.864 -1.80034 0.365151 0
M  V30 2942 C 278.926 -0.500546 3.55998 0
M  V30 2943 C 278.59 0.639125 4.52509 0
M  V30 2944 C 279.587 1.51311 4.97394 0
M  V30 2945 C 277.272 0.821632 4.95535 0
M  V30 2946 C 279.266 2.55425 5.83984 0
M  V30 2947 C 276.953 1.86603 5.81913 0
M  V30 2948 C 277.951 2.73072 6.26036 0
M  V30 2949 O 277.639 3.75718 7.10698 0
M  V30 2950 H 277.371 -0.00857665 0.675946 0
M  V30 2951 H 279.925 0.623288 1.95715 0
M  V30 2952 H 278.155 -1.29575 3.64345 0
M  V30 2953 H 279.844 -0.995116 3.93513 0
M  V30 2954 H 280.61 1.38367 4.64844 0
M  V30 2955 H 276.489 0.158149 4.60729 0
M  V30 2956 H 280.033 3.22949 6.18344 0
M  V30 2957 H 275.93 1.99564 6.13876 0
M  V30 2958 H 276.698 3.72374 7.2889 0
M  V30 2959 N 279.361 -1.56624 0.175154 0
M  V30 2960 C 280.324 -2.16934 -0.739738 0
M  V30 2961 C 281.324 -1.11842 -1.15533 0
M  V30 2962 O 282.514 -1.37335 -1.07167 0
M  V30 2963 C 279.646 -2.75531 -2.00738 0
M  V30 2964 H 280.839 -2.99131 -0.214639 0
M  V30 2965 H 278.392 -1.56123 -0.0744197 0
M  V30 2966 H 279.127 -1.97078 -2.57548 0
M  V30 2967 H 278.912 -3.52444 -1.71831 0
M  V30 2968 H 280.402 -3.21904 -2.66021 0
M  V30 2969 N 280.839 0.0985539 -1.57292 0
M  V30 2970 C 282.085 0.803867 -1.86188 0
M  V30 2971 C 282.418 1.78549 -0.763794 0
M  V30 2972 O 281.693 1.93153 0.22855 0
M  V30 2973 C 281.976 1.53568 -3.25713 0
M  V30 2974 C 281.829 0.572277 -4.46145 0
M  V30 2975 C 283.148 2.48708 -3.63087 0
M  V30 2976 H 280.267 0.290781 -0.677211 0
M  V30 2977 H 282.909 0.0675783 -1.8988 0
M  V30 2978 H 281.059 2.16332 -3.22696 0
M  V30 2979 H 282.731 -0.0480894 -4.61275 0
M  V30 2980 H 280.974 -0.114618 -4.33649 0
M  V30 2981 H 281.645 1.12139 -5.40489 0
M  V30 2982 H 284.121 1.96039 -3.67026 0
M  V30 2983 H 282.997 2.96932 -4.61652 0
M  V30 2984 H 283.258 3.32309 -2.91588 0
M  V30 2985 N 282.317 1.53212 0.369288 0
M  V30 2986 C 283.264 1.79388 1.45219 0
M  V30 2987 C 284.234 0.638059 1.53356 0
M  V30 2988 O 285.419 0.879852 1.69302 0
M  V30 2989 C 282.559 1.98623 2.82211 0
M  V30 2990 C 281.672 3.26337 2.8307 0
M  V30 2991 C 280.807 3.35779 4.11614 0
M  V30 2992 C 279.846 4.5754 4.06601 0
M  V30 2993 N 278.983 4.64155 5.26787 0
M  V30 2994 H 283.823 2.71794 1.22198 0
M  V30 2995 H 281.36 1.34642 0.592444 0
M  V30 2996 H 283.318 2.07761 3.61789 0
M  V30 2997 H 281.948 1.09558 3.03639 0
M  V30 2998 H 281 3.26171 1.95747 0
M  V30 2999 H 282.312 4.15988 2.75237 0
M  V30 3000 H 281.466 3.44208 4.99606 0
M  V30 3001 H 280.205 2.44137 4.22195 0
M  V30 3002 H 279.21 4.49215 3.16996 0
M  V30 3003 H 280.435 5.50519 3.97625 0
M  V30 3004 H 278.381 3.75413 5.3796 0
M  V30 3005 H 278.298 5.47706 5.21109 0
M  V30 3006 H 279.566 4.76863 6.16621 0
M  V30 3007 N 283.795 -0.628877 1.44509 0
M  V30 3008 C 284.725 -1.75187 1.54376 0
M  V30 3009 C 285.706 -1.65411 0.396618 0
M  V30 3010 O 286.891 -1.84137 0.617031 0
M  V30 3011 C 284.021 -3.13725 1.48976 0
M  V30 3012 C 282.975 -3.38291 2.62189 0
M  V30 3013 C 282.301 -4.76883 2.41841 0
M  V30 3014 C 283.601 -3.30632 4.04326 0
M  V30 3015 H 285.295 -1.67187 2.48373 0
M  V30 3016 H 282.841 -0.802909 1.19538 0
M  V30 3017 H 284.794 -3.92064 1.54478 0
M  V30 3018 H 283.518 -3.22515 0.514961 0
M  V30 3019 H 282.177 -2.62334 2.56079 0
M  V30 3020 H 281.825 -4.82378 1.42548 0
M  V30 3021 H 281.525 -4.94278 3.17747 0
M  V30 3022 H 283.049 -5.57449 2.49165 0
M  V30 3023 H 284.463 -3.98873 4.11793 0
M  V30 3024 H 282.86 -3.59561 4.80454 0
M  V30 3025 H 283.93 -2.28404 4.27738 0
M  V30 3026 N 285.273 -1.31445 -0.869486 0
M  V30 3027 C 286.52 -1.21158 -1.62256 0
M  V30 3028 C 286.848 0.230155 -1.93133 0
M  V30 3029 O 286.103 1.17906 -1.56194 0
M  V30 3030 C 286.402 -2.00145 -2.96102 0
M  V30 3031 C 286.068 -3.4964 -2.84715 0
M  V30 3032 C 284.73 -3.90403 -2.81317 0
M  V30 3033 C 287.082 -4.44769 -2.71716 0
M  V30 3034 C 284.41 -5.24561 -2.62778 0
M  V30 3035 C 286.762 -5.79054 -2.54714 0
M  V30 3036 C 285.426 -6.19037 -2.49699 0
M  V30 3037 H 284.696 -0.443348 -0.593737 0
M  V30 3038 H 287.343 -1.62715 -1.00976 0
M  V30 3039 H 285.648 -1.5127 -3.6142 0
M  V30 3040 H 287.345 -1.89566 -3.53363 0
M  V30 3041 H 283.935 -3.17256 -2.88178 0
M  V30 3042 H 288.119 -4.14208 -2.73397 0
M  V30 3043 H 283.375 -5.54613 -2.57321 0
M  V30 3044 H 287.549 -6.52393 -2.43632 0
M  V30 3045 H 285.176 -7.22935 -2.35093 0
M  V30 3046 N 286.751 1.08385 -1.14413 0
M  V30 3047 C 287.698 2.15311 -0.831265 0
M  V30 3048 C 288.668 1.64751 0.211292 0
M  V30 3049 O 289.853 1.90627 0.0811674 0
M  V30 3050 C 286.993 3.43658 -0.315143 0
M  V30 3051 C 286.106 4.08064 -1.41802 0
M  V30 3052 C 285.241 5.24207 -0.859126 0
M  V30 3053 C 284.28 5.80554 -1.93967 0
M  V30 3054 N 283.417 6.88042 -1.39793 0
M  V30 3055 H 288.257 2.41415 -1.74708 0
M  V30 3056 H 285.794 1.18474 -0.871909 0
M  V30 3057 H 287.752 4.172 0.00230884 0
M  V30 3058 H 286.382 3.17839 0.56378 0
M  V30 3059 H 285.434 3.3228 -1.85187 0
M  V30 3060 H 286.746 4.45962 -2.23427 0
M  V30 3061 H 285.9 6.04689 -0.49359 0
M  V30 3062 H 284.639 4.87699 -0.011932 0
M  V30 3063 H 283.644 4.98725 -2.31415 0
M  V30 3064 H 284.869 6.19121 -2.79046 0
M  V30 3065 H 282.815 6.53493 -0.572919 0
M  V30 3066 H 282.732 7.24767 -2.15054 0
M  V30 3067 H 284 7.72255 -1.0603 0
M  V30 3068 N 288.23 0.939286 1.26551 0
M  V30 3069 C 289.162 0.404704 2.25599 0
M  V30 3070 C 290.175 -0.470983 1.55838 0
M  V30 3071 O 291.364 -0.281734 1.76263 0
M  V30 3072 C 288.464 -0.43764 3.36062 0
M  V30 3073 C 287.637 0.421449 4.35365 0
M  V30 3074 C 286.696 -0.36015 5.24966 0
M  V30 3075 O 285.722 0.236167 5.6871 0
M  V30 3076 N 286.924 -1.65715 5.56344 0
M  V30 3077 H 289.689 1.25618 2.72103 0
M  V30 3078 H 287.25 0.807963 1.40298 0
M  V30 3079 H 289.242 -0.967866 3.92956 0
M  V30 3080 H 287.812 -1.18991 2.89067 0
M  V30 3081 H 287.032 1.1329 3.7757 0
M  V30 3082 H 288.32 1.00835 4.98708 0
M  V30 3083 H 287.718 -2.16378 5.22682 0
M  V30 3084 H 286.275 -2.13366 6.15888 0
M  V30 3085 N 289.708 -1.40897 0.706093 0
M  V30 3086 C 290.618 -2.3455 0.0482286 0
M  V30 3087 C 291.634 -1.56796 -0.754396 0
M  V30 3088 O 292.81 -1.89228 -0.689538 0
M  V30 3089 C 289.875 -3.35625 -0.869303 0
M  V30 3090 C 288.936 -4.29261 -0.0576994 0
M  V30 3091 C 288.169 -5.25508 -0.931531 0
M  V30 3092 O 288.392 -5.27472 -2.17092 0
M  V30 3093 O 287.326 -6.00727 -0.375587 0
M  V30 3094 H 291.152 -2.92407 0.820476 0
M  V30 3095 H 288.737 -1.4193 0.4665 0
M  V30 3096 H 290.619 -3.97635 -1.39514 0
M  V30 3097 H 289.294 -2.80196 -1.62086 0
M  V30 3098 H 288.201 -3.70566 0.512988 0
M  V30 3099 H 289.534 -4.87817 0.655426 0
M  V30 3100 N 291.186 -0.45159 -1.50991 0
M  V30 3101 C 292.133 0.352625 -2.2809 0
M  V30 3102 C 293.103 1.0044 -1.32291 0
M  V30 3103 O 294.288 1.02058 -1.6121 0
M  V30 3104 C 291.428 1.43983 -3.13629 0
M  V30 3105 C 290.541 0.804772 -4.24438 0
M  V30 3106 C 289.676 1.86822 -4.97263 0
M  V30 3107 C 288.715 1.21236 -5.99973 0
M  V30 3108 N 287.852 2.2178 -6.66152 0
M  V30 3109 H 292.692 -0.311186 -2.96371 0
M  V30 3110 H 290.229 -0.165308 -1.46168 0
M  V30 3111 H 292.187 2.08161 -3.61559 0
M  V30 3112 H 290.817 2.07307 -2.47434 0
M  V30 3113 H 289.869 0.0509129 -3.80366 0
M  V30 3114 H 291.181 0.286076 -4.97979 0
M  V30 3115 H 290.335 2.58628 -5.48813 0
M  V30 3116 H 289.074 2.42068 -4.23385 0
M  V30 3117 H 288.079 0.479828 -5.47702 0
M  V30 3118 H 289.304 0.667051 -6.75816 0
M  V30 3119 H 287.25 2.76079 -5.95077 0
M  V30 3120 H 287.167 1.74841 -7.35504 0
M  V30 3121 H 288.435 2.93026 -7.22327 0
M  V30 3122 N 292.664 1.56529 -0.183458 0
M  V30 3123 C 293.611 2.18546 0.742055 0
M  V30 3124 C 294.581 1.12912 1.2182 0
M  V30 3125 O 295.766 1.41115 1.28418 0
M  V30 3126 C 292.906 2.83977 1.96089 0
M  V30 3127 C 292.019 4.04105 1.52719 0
M  V30 3128 C 291.154 4.57427 2.70063 0
M  V30 3129 C 290.193 5.69938 2.23243 0
M  V30 3130 N 289.33 6.17717 3.33722 0
M  V30 3131 H 294.17 2.97284 0.206432 0
M  V30 3132 H 291.707 1.46823 0.0901571 0
M  V30 3133 H 293.665 3.20077 2.67594 0
M  V30 3134 H 292.295 2.07822 2.47002 0
M  V30 3135 H 291.347 3.73745 0.708436 0
M  V30 3136 H 292.659 4.85513 1.1436 0
M  V30 3137 H 291.813 4.95772 3.49708 0
M  V30 3138 H 290.552 3.75101 3.11689 0
M  V30 3139 H 289.557 5.31133 1.42048 0
M  V30 3140 H 290.782 6.54073 1.82661 0
M  V30 3141 H 288.728 5.38317 3.74902 0
M  V30 3142 H 288.645 6.94146 2.99495 0
M  V30 3143 H 289.913 6.60713 4.13616 0
M  V30 3144 N 294.142 -0.090211 1.57342 0
M  V30 3145 C 295.075 -1.14035 1.97664 0
M  V30 3146 C 296.053 -1.38576 0.850616 0
M  V30 3147 O 297.237 -1.52255 1.11134 0
M  V30 3148 C 294.364 -2.48854 2.2976 0
M  V30 3149 C 293.41 -2.40564 3.52181 0
M  V30 3150 S 294.243 -1.81745 5.03715 0
M  V30 3151 C 295.399 -3.18178 5.38993 0
M  V30 3152 H 295.632 -0.796636 2.86428 0
M  V30 3153 H 293.165 -0.298072 1.51496 0
M  V30 3154 H 295.123 -3.26413 2.48927 0
M  V30 3155 H 293.784 -2.80393 1.41558 0
M  V30 3156 H 292.977 -3.39942 3.72096 0
M  V30 3157 H 292.579 -1.71135 3.32549 0
M  V30 3158 H 294.871 -4.14461 5.35937 0
M  V30 3159 H 295.814 -3.03062 6.39968 0
M  V30 3160 H 296.222 -3.17935 4.66452 0
M  V30 3161 N 295.62 -1.53406 -0.361157 0
M  V30 3162 C 296.552 -1.76446 -1.46286 0
M  V30 3163 C 297.565 -0.645322 -1.49464 0
M  V30 3164 O 298.754 -0.921681 -1.52864 0
M  V30 3165 C 295.854 -1.83332 -2.85031 0
M  V30 3166 C 295.027 -3.13033 -3.05498 0
M  V30 3167 C 294.086 -3.11104 -4.24383 0
M  V30 3168 O 293.112 -3.84888 -4.19344 0
M  V30 3169 N 294.314 -2.32234 -5.32022 0
M  V30 3170 H 297.079 -2.71508 -1.26899 0
M  V30 3171 H 294.64 -1.52238 -0.550915 0
M  V30 3172 H 296.632 -1.79514 -3.62708 0
M  V30 3173 H 295.202 -0.955342 -2.97644 0
M  V30 3174 H 294.422 -3.30119 -2.15442 0
M  V30 3175 H 295.71 -3.9874 -3.16044 0
M  V30 3176 H 295.108 -1.71807 -5.38979 0
M  V30 3177 H 293.665 -2.3423 -6.08259 0
M  V30 3178 N 297.098 0.621204 -1.44841 0
M  V30 3179 C 298.338 1.39201 -1.49674 0
M  V30 3180 C 298.702 1.91561 -0.129764 0
M  V30 3181 O 299.903 2.68748 -0.0527814 0
M  V30 3182 C 298.174 2.519 -2.53537 0
M  V30 3183 S 299.733 3.39916 -2.77494 0
M  V30 3184 H 296.551 0.474758 -0.529269 0
M  V30 3185 H 299.153 0.718171 -1.81831 0
M  V30 3186 H 297.857 2.11761 -3.51547 0
M  V30 3187 H 297.388 3.241 -2.22986 0
M  V30 3188 H 299.403 4.49646 -2.0984 0
M  V30 3189 N 298.576 1.31904 0.862503 0
M  V30 3190 C 299.523 1.20182 1.9704 0
M  V30 3191 C 300.493 0.0858247 1.65878 0
M  V30 3192 O 301.678 0.26 1.8902 0
M  V30 3193 C 298.818 0.922797 3.32533 0
M  V30 3194 C 297.931 2.12284 3.76244 0
M  V30 3195 C 297.066 1.77996 5.00491 0
M  V30 3196 C 296.105 2.94366 5.36671 0
M  V30 3197 N 295.242 2.60223 6.52095 0
M  V30 3198 H 300.082 2.14951 2.06398 0
M  V30 3199 H 297.619 1.06917 1.01031 0
M  V30 3200 H 299.577 0.741548 4.10557 0
M  V30 3201 H 298.207 0.0119227 3.22798 0
M  V30 3202 H 297.259 2.41461 2.9394 0
M  V30 3203 H 298.571 2.99357 3.98982 0
M  V30 3204 H 297.725 1.56377 5.862 0
M  V30 3205 H 296.464 0.881252 4.79672 0
M  V30 3206 H 295.469 3.16625 4.49476 0
M  V30 3207 H 296.694 3.84957 5.59451 0
M  V30 3208 H 294.64 1.72884 6.32809 0
M  V30 3209 H 294.557 3.40827 6.74814 0
M  V30 3210 H 295.825 2.42016 7.40978 0
M  V30 3211 N 300.054 -1.07777 1.14986 0
M  V30 3212 C 301.001 -2.14867 0.842672 0
M  V30 3213 C 301.971 -1.6486 -0.202552 0
M  V30 3214 O 303.156 -1.90668 -0.0710568 0
M  V30 3215 C 300.296 -3.43486 0.333363 0
M  V30 3216 C 299.409 -4.07306 1.43965 0
M  V30 3217 C 298.544 -5.23744 0.886914 0
M  V30 3218 C 297.583 -5.79517 1.97043 0
M  V30 3219 N 296.72 -6.87291 1.4344 0
M  V30 3220 H 301.56 -2.40485 1.75986 0
M  V30 3221 H 299.097 -1.1801 0.878179 0
M  V30 3222 H 301.055 -4.17195 0.0198163 0
M  V30 3223 H 299.685 -3.18133 -0.546916 0
M  V30 3224 H 298.737 -3.31293 1.86946 0
M  V30 3225 H 300.049 -4.44771 2.25788 0
M  V30 3226 H 299.203 -6.04419 0.525651 0
M  V30 3227 H 297.942 -4.87685 0.0377957 0
M  V30 3228 H 296.947 -4.97491 2.34057 0
M  V30 3229 H 298.172 -6.17632 2.82325 0
M  V30 3230 H 296.118 -6.5318 0.607567 0
M  V30 3231 H 296.035 -7.23617 2.18895 0
M  V30 3232 H 297.303 -7.71682 1.10124 0
M  V30 3233 N 301.532 -0.945985 -1.26051 0
M  V30 3234 C 302.482 -0.430164 -2.23905 0
M  V30 3235 C 303.466 0.47579 -1.53704 0
M  V30 3236 O 304.658 0.310252 -1.7426 0
M  V30 3237 C 301.787 0.298957 -3.41996 0
M  V30 3238 C 300.873 -0.624566 -4.19476 0
M  V30 3239 N 301.264 -1.75245 -4.74471 0
M  V30 3240 C 299.562 -0.431082 -4.43912 0
M  V30 3241 C 300.263 -2.32834 -5.3307 0
M  V30 3242 N 299.239 -1.61583 -5.1903 0
M  V30 3243 H 303.041 -1.29107 -2.64024 0
M  V30 3244 H 300.555 -0.802428 -1.41191 0
M  V30 3245 H 302.552 0.685565 -4.11225 0
M  V30 3246 H 301.212 1.15657 -3.03403 0
M  V30 3247 H 302.223 -2.13449 -4.71868 0
M  V30 3248 H 298.9 0.384364 -4.15727 0
M  V30 3249 H 300.29 -3.27893 -5.86461 0
M  V30 3250 N 303.011 1.40521 -0.713556 0
M  V30 3251 C 304.257 2.01714 -0.261382 0
M  V30 3252 C 304.612 1.55562 1.13217 0
M  V30 3253 O 303.905 0.764893 1.7567 0
M  V30 3254 C 304.099 3.56317 -0.278 0
M  V30 3255 C 303.928 4.17476 -1.67163 0
M  V30 3256 C 302.698 4.50998 -2.2788 0
M  V30 3257 C 304.896 4.42472 -2.6215 0
M  V30 3258 N 302.878 4.9754 -3.5962 0
M  V30 3259 C 304.249 4.90985 -3.78594 0
M  V30 3260 C 306.304 4.24508 -2.60188 0
M  V30 3261 C 305.007 5.2342 -4.9338 0
M  V30 3262 C 307.033 4.58043 -3.741 0
M  V30 3263 C 306.395 5.06743 -4.89276 0
M  V30 3264 H 302.494 0.769104 -0.141434 0
M  V30 3265 H 305.078 1.70785 -0.934915 0
M  V30 3266 H 303.249 3.8668 0.36509 0
M  V30 3267 H 304.981 4.0425 0.190695 0
M  V30 3268 H 301.736 4.38062 -1.79997 0
M  V30 3269 H 302.16 5.25196 -4.27198 0
M  V30 3270 H 306.802 3.86078 -1.72348 0
M  V30 3271 H 304.52 5.60765 -5.81866 0
M  V30 3272 H 308.106 4.45785 -3.73854 0
M  V30 3273 H 306.986 5.32204 -5.75959 0
M  V30 3274 N 304.489 0.459591 1.5075 0
M  V30 3275 C 305.436 -0.340524 2.28274 0
M  V30 3276 C 306.406 -0.997371 1.32822 0
M  V30 3277 O 307.591 -1.01202 1.61749 0
M  V30 3278 C 304.731 -1.42317 3.14388 0
M  V30 3279 C 303.844 -0.782251 4.24859 0
M  V30 3280 C 302.979 -1.84182 4.98247 0
M  V30 3281 C 302.018 -1.18053 6.00608 0
M  V30 3282 N 301.155 -2.18244 6.67319 0
M  V30 3283 H 305.995 0.326899 2.96202 0
M  V30 3284 H 303.532 0.173057 1.46078 0
M  V30 3285 H 305.49 -2.06241 3.62658 0
M  V30 3286 H 304.12 -2.05992 2.4853 0
M  V30 3287 H 303.172 -0.0307404 3.80388 0
M  V30 3288 H 304.484 -0.259663 4.98124 0
M  V30 3289 H 303.638 -2.55714 5.50177 0
M  V30 3290 H 302.377 -2.39819 4.24662 0
M  V30 3291 H 301.382 -0.450776 5.47949 0
M  V30 3292 H 302.607 -0.631202 6.7616 0
M  V30 3293 H 300.553 -2.72919 5.96533 0
M  V30 3294 H 300.47 -1.70938 7.36421 0
M  V30 3295 H 301.738 -2.89191 7.23871 0
M  V30 3296 N 305.967 -1.56429 0.191757 0
M  V30 3297 C 307.383 -1.58754 -0.164137 0
M  V30 3298 C 307.583 -1.20782 -1.61288 0
M  V30 3299 O 306.639 -0.928999 -2.34789 0
M  V30 3300 C 307.952 -3.00396 0.135195 0
M  V30 3301 C 309.5 -3.1291 0.0750351 0
M  V30 3302 C 309.975 -4.56679 0.347632 0
M  V30 3303 N 311.466 -4.62252 0.296131 0
M  V30 3304 C 312.201 -5.71379 0.480948 0
M  V30 3305 N 311.697 -6.88986 0.725933 0
M  V30 3306 N 313.49 -5.60563 0.415435 0
M  V30 3307 H 305.641 -1.79393 1.13718 0
M  V30 3308 H 307.904 -0.832414 0.453643 0
M  V30 3309 H 307.61 -3.32726 1.13958 0
M  V30 3310 H 307.484 -3.72963 -0.563773 0
M  V30 3311 H 309.871 -2.80394 -0.919948 0
M  V30 3312 H 309.952 -2.42736 0.807029 0
M  V30 3313 H 309.596 -4.89907 1.33992 0
M  V30 3314 H 309.526 -5.25039 -0.405212 0
M  V30 3315 H 312.017 -3.7773 0.113259 0
M  V30 3316 H 312.33 -7.68046 0.855857 0
M  V30 3317 H 310.675 -6.90801 0.762788 0
M  V30 3318 H 313.866 -4.67561 0.224486 0
M  V30 3319 H 314.039 -6.45551 0.562889 0
M  V30 3320 N 307.445 0.0818655 -1.57387 0
M  V30 3321 C 308.692 0.782914 -1.86753 0
M  V30 3322 C 309.02 1.78082 -0.782118 0
M  V30 3323 O 308.275 1.94426 0.22295 0
M  V30 3324 C 308.574 1.53513 -3.22752 0
M  V30 3325 C 308.24 0.678134 -4.45771 0
M  V30 3326 C 306.902 0.441929 -4.79166 0
M  V30 3327 C 309.254 0.0832243 -5.21134 0
M  V30 3328 C 306.582 -0.398833 -5.85343 0
M  V30 3329 C 308.934 -0.744935 -6.28199 0
M  V30 3330 C 307.598 -0.991107 -6.60101 0
M  V30 3331 H 306.868 0.286489 -0.683378 0
M  V30 3332 H 309.515 0.0439808 -1.91449 0
M  V30 3333 H 307.82 2.34599 -3.138 0
M  V30 3334 H 309.517 2.08218 -3.42705 0
M  V30 3335 H 306.107 0.872357 -4.19628 0
M  V30 3336 H 310.291 0.252847 -4.95655 0
M  V30 3337 H 305.547 -0.598405 -6.08465 0
M  V30 3338 H 309.721 -1.21271 -6.8576 0
M  V30 3339 H 307.348 -1.64437 -7.42202 0
M  V30 3340 N 308.923 1.53595 0.353017 0
M  V30 3341 C 309.853 1.83902 1.43883 0
M  V30 3342 C 310.834 0.693421 1.55324 0
M  V30 3343 O 312.019 0.944452 1.69687 0
M  V30 3344 C 309.149 2.04016 2.8106 0
M  V30 3345 C 308.103 3.19814 2.84434 0
M  V30 3346 C 307.429 3.25244 4.24406 0
M  V30 3347 C 308.729 4.58133 2.50822 0
M  V30 3348 H 310.423 2.74835 1.1877 0
M  V30 3349 H 307.969 1.32242 0.569917 0
M  V30 3350 H 309.922 2.238 3.57059 0
M  V30 3351 H 308.646 1.09804 3.07588 0
M  V30 3352 H 307.305 2.9987 2.10887 0
M  V30 3353 H 306.953 2.28646 4.48029 0
M  V30 3354 H 306.653 4.03054 4.27576 0
M  V30 3355 H 308.177 3.47228 5.0226 0
M  V30 3356 H 309.591 4.77995 3.16534 0
M  V30 3357 H 307.988 5.38276 2.6529 0
M  V30 3358 H 309.058 4.62387 1.46034 0
M  V30 3359 N 310.401 -0.613514 1.45168 0
M  V30 3360 C 311.626 -1.40437 1.52618 0
M  V30 3361 C 312.051 -1.87438 0.157707 0
M  V30 3362 O 311.409 -1.59791 -0.856537 0
M  V30 3363 C 311.457 -2.58894 2.51011 0
M  V30 3364 O 310.561 -3.59326 2.02382 0
M  V30 3365 H 309.902 -0.419506 0.514695 0
M  V30 3366 H 312.432 -0.747215 1.90467 0
M  V30 3367 H 312.442 -3.06214 2.69624 0
M  V30 3368 H 311.117 -2.24032 3.50403 0
M  V30 3369 H 309.694 -3.18695 1.93618 0
M  V30 3370 N 311.879 -1.3236 -0.855495 0
M  V30 3371 C 312.789 -1.23221 -1.99634 0
M  V30 3372 C 313.805 -0.145983 -1.73387 0
M  V30 3373 O 314.981 -0.366502 -1.98037 0
M  V30 3374 C 312.046 -0.954782 -3.33294 0
M  V30 3375 C 311.107 -2.12937 -3.72769 0
M  V30 3376 C 310.34 -1.86508 -5.00051 0
M  V30 3377 O 310.563 -0.807231 -5.64659 0
M  V30 3378 O 309.497 -2.72591 -5.36636 0
M  V30 3379 H 313.323 -2.19126 -2.1028 0
M  V30 3380 H 310.908 -1.12241 -0.986018 0
M  V30 3381 H 312.79 -0.816519 -4.13414 0
M  V30 3382 H 311.465 -0.0258854 -3.2369 0
M  V30 3383 H 310.372 -2.3231 -2.93228 0
M  V30 3384 H 311.705 -3.04102 -3.87018 0
M  V30 3385 N 313.357 1.07166 -1.15556 0
M  V30 3386 C 314.287 2.16403 -0.877046 0
M  V30 3387 C 315.268 1.69217 0.173111 0
M  V30 3388 O 316.453 1.94181 0.027084 0
M  V30 3389 C 313.583 3.45349 -0.367632 0
M  V30 3390 C 312.537 4.05995 -1.35468 0
M  V30 3391 C 311.863 5.30045 -0.704038 0
M  V30 3392 C 313.163 4.45804 -2.72132 0
M  V30 3393 H 314.857 2.39959 -1.79053 0
M  V30 3394 H 312.403 1.15325 -0.862331 0
M  V30 3395 H 314.356 4.21095 -0.160317 0
M  V30 3396 H 313.08 3.21385 0.581326 0
M  V30 3397 H 311.739 3.32296 -1.54839 0
M  V30 3398 H 311.387 5.02373 0.251128 0
M  V30 3399 H 311.087 5.71579 -1.36277 0
M  V30 3400 H 312.611 6.08495 -0.50654 0
M  V30 3401 H 314.025 5.12671 -2.56595 0
M  V30 3402 H 312.422 4.98296 -3.34397 0
M  V30 3403 H 313.492 3.57083 -3.28054 0
M  V30 3404 N 314.835 0.952656 1.25548 0
M  V30 3405 C 315.745 0.47782 2.29682 0
M  V30 3406 C 316.761 -0.453859 1.67977 0
M  V30 3407 O 317.937 -0.330587 1.98668 0
M  V30 3408 C 315.002 -0.238655 3.45878 0
M  V30 3409 C 314.063 0.730994 4.23031 0
M  V30 3410 C 313.296 0.0486165 5.33678 0
M  V30 3411 O 313.519 -1.16612 5.58353 0
M  V30 3412 O 312.453 0.733152 5.97418 0
M  V30 3413 H 316.279 1.34312 2.72386 0
M  V30 3414 H 313.864 0.719026 1.30959 0
M  V30 3415 H 315.746 -0.641774 4.16484 0
M  V30 3416 H 314.421 -1.07916 3.05181 0
M  V30 3417 H 313.328 1.18428 3.5486 0
M  V30 3418 H 314.661 1.53946 4.67506 0
M  V30 3419 N 316.313 -1.40141 0.720998 0
M  V30 3420 C 317.559 -2.01084 0.263231 0
M  V30 3421 C 317.892 -1.57052 -1.14229 0
M  V30 3422 O 317.167 -0.793027 -1.77599 0
M  V30 3423 C 317.45 -3.58401 0.349344 0
M  V30 3424 C 317.303 -4.12491 1.79363 0
M  V30 3425 C 318.622 -4.39231 -0.276351 0
M  V30 3426 H 315.741 -0.730572 0.0971228 0
M  V30 3427 H 318.383 -1.66543 0.914518 0
M  V30 3428 H 316.533 -3.87958 -0.205165 0
M  V30 3429 H 318.205 -3.93711 2.40394 0
M  V30 3430 H 316.448 -3.66576 2.31958 0
M  V30 3431 H 317.119 -5.21646 1.80524 0
M  V30 3432 H 319.595 -4.15637 0.196184 0
M  V30 3433 H 318.471 -5.48586 -0.185681 0
M  V30 3434 H 318.732 -4.20643 -1.36059 0
M  V30 3435 N 317.792 -0.46758 -1.50504 0
M  V30 3436 C 318.722 0.318381 -2.31319 0
M  V30 3437 C 319.703 0.993564 -1.38066 0
M  V30 3438 O 320.888 0.991411 -1.66987 0
M  V30 3439 C 318.018 1.40275 -3.17711 0
M  V30 3440 C 316.972 0.849373 -4.19487 0
M  V30 3441 C 316.298 2.03177 -4.94594 0
M  V30 3442 C 317.598 -0.136942 -5.2212 0
M  V30 3443 H 319.292 -0.356106 -2.97275 0
M  V30 3444 H 316.838 -0.172703 -1.42961 0
M  V30 3445 H 318.791 1.96004 -3.73042 0
M  V30 3446 H 317.515 2.10596 -2.49634 0
M  V30 3447 H 316.174 0.314076 -3.65252 0
M  V30 3448 H 315.822 2.72187 -4.22993 0
M  V30 3449 H 315.522 1.66774 -5.63436 0
M  V30 3450 H 317.046 2.59403 -5.52759 0
M  V30 3451 H 318.46 0.331056 -5.72343 0
M  V30 3452 H 316.857 -0.41507 -5.98663 0
M  V30 3453 H 317.927 -1.06398 -4.73083 0
M  V30 3454 N 319.27 1.56325 -0.20005 0
M  V30 3455 C 320.2 2.22318 0.713916 0
M  V30 3456 C 321.181 1.18788 1.21752 0
M  V30 3457 O 322.366 1.47309 1.26545 0
M  V30 3458 C 319.496 2.88639 1.93144 0
M  V30 3459 C 318.45 3.98457 1.56255 0
M  V30 3460 C 317.776 4.51967 2.85709 0
M  V30 3461 C 319.076 5.16612 0.768747 0
M  V30 3462 H 320.77 2.98952 0.163755 0
M  V30 3463 H 318.316 1.43792 0.0773219 0
M  V30 3464 H 320.269 3.33491 2.57608 0
M  V30 3465 H 318.993 2.09419 2.50621 0
M  V30 3466 H 317.652 3.54305 0.941471 0
M  V30 3467 H 317.3 3.69503 3.41287 0
M  V30 3468 H 317 5.26071 2.6177 0
M  V30 3469 H 318.524 4.99523 3.51154 0
M  V30 3470 H 319.938 5.57977 1.3166 0
M  V30 3471 H 318.335 5.96812 0.627286 0
M  V30 3472 H 319.405 4.84358 -0.229168 0
M  V30 3473 N 320.748 -0.0735177 1.57428 0
M  V30 3474 C 321.678 -1.0879 2.06608 0
M  V30 3475 C 322.659 -1.40473 0.959237 0
M  V30 3476 O 323.844 -1.5013 1.23185 0
M  V30 3477 C 320.974 -2.40183 2.50857 0
M  V30 3478 C 319.928 -2.22858 3.65402 0
M  V30 3479 C 319.254 -3.59619 3.957 0
M  V30 3480 C 320.554 -1.65123 4.95511 0
M  V30 3481 H 322.248 -0.678673 2.91607 0
M  V30 3482 H 319.794 -0.325013 1.40284 0
M  V30 3483 H 321.747 -3.11437 2.83874 0
M  V30 3484 H 320.471 -2.83083 1.62885 0
M  V30 3485 H 319.13 -1.54045 3.32664 0
M  V30 3486 H 318.778 -4.00086 3.04861 0
M  V30 3487 H 318.478 -3.48866 4.72828 0
M  V30 3488 H 320.002 -4.32306 4.31212 0
M  V30 3489 H 321.416 -2.26241 5.26771 0
M  V30 3490 H 319.813 -1.65071 5.7695 0
M  V30 3491 H 320.883 -0.612559 4.81015 0
M  V30 3492 N 322.226 -1.5378 -0.344866 0
M  V30 3493 C 323.473 -1.70963 -1.08526 0
M  V30 3494 C 323.801 -0.472126 -1.88683 0
M  V30 3495 O 323.056 0.546116 -1.87926 0
M  V30 3496 C 323.355 -2.92407 -2.05506 0
M  V30 3497 C 323.021 -4.28066 -1.41671 0
M  V30 3498 C 321.683 -4.64951 -1.2399 0
M  V30 3499 C 324.035 -5.12344 -0.956726 0
M  V30 3500 C 321.363 -5.83733 -0.589277 0
M  V30 3501 C 323.715 -6.3179 -0.320015 0
M  V30 3502 C 322.379 -6.67372 -0.130881 0
M  V30 3503 H 321.649 -0.625598 -0.397124 0
M  V30 3504 H 324.296 -1.87995 -0.36469 0
M  V30 3505 H 322.601 -2.69973 -2.8394 0
M  V30 3506 H 324.298 -3.02895 -2.62784 0
M  V30 3507 H 320.888 -3.99034 -1.56429 0
M  V30 3508 H 325.072 -4.8438 -1.08118 0
M  V30 3509 H 320.328 -6.09877 -0.431344 0
M  V30 3510 H 324.502 -6.96386 0.0445072 0
M  V30 3511 H 322.129 -7.59273 0.375318 0
M  V30 3512 N 323.704 0.605807 -1.45491 0
M  V30 3513 C 324.654 1.71074 -1.50724 0
M  V30 3514 C 325.638 1.5658 -0.37033 0
M  V30 3515 O 326.83 1.65887 -0.617299 0
M  V30 3516 C 323.959 3.0983 -1.47852 0
M  V30 3517 C 323.045 3.29704 -2.66751 0
M  V30 3518 N 323.436 3.19831 -3.91844 0
M  V30 3519 C 321.734 3.60579 -2.62486 0
M  V30 3520 C 322.435 3.41083 -4.71208 0
M  V30 3521 N 321.411 3.65157 -4.02693 0
M  V30 3522 H 325.213 1.61937 -2.45263 0
M  V30 3523 H 322.727 0.80912 -1.40808 0
M  V30 3524 H 324.724 3.89101 -1.49686 0
M  V30 3525 H 323.384 3.20115 -0.543714 0
M  V30 3526 H 324.395 2.98194 -4.23439 0
M  V30 3527 H 321.072 3.7769 -1.77922 0
M  V30 3528 H 322.462 3.38828 -5.80211 0
M  V30 3529 N 325.182 1.32811 0.848464 0
M  V30 3530 C 326.132 1.18842 1.94578 0
M  V30 3531 C 327.116 0.0937517 1.60627 0
M  V30 3532 O 328.308 0.320887 1.74067 0
M  V30 3533 C 325.437 0.91999 3.30743 0
M  V30 3534 C 324.523 2.05665 3.70894 0
M  V30 3535 N 324.914 3.30579 3.8282 0
M  V30 3536 C 323.212 1.9612 4.00566 0
M  V30 3537 C 323.913 4.05067 4.17487 0
M  V30 3538 N 322.889 3.33419 4.2934 0
M  V30 3539 H 326.691 2.13536 2.0194 0
M  V30 3540 H 324.205 1.2468 1.0406 0
M  V30 3541 H 326.202 0.800859 4.09136 0
M  V30 3542 H 324.862 -0.0185076 3.24695 0
M  V30 3543 H 325.873 3.65441 3.66978 0
M  V30 3544 H 322.55 1.09871 4.02784 0
M  V30 3545 H 323.94 5.12815 4.34131 0
M  V30 3546 N 326.66 -1.06551 1.16123 0
M  V30 3547 C 328.071 -1.60768 0.949232 0
M  V30 3548 C 328.422 -1.89523 -0.507508 0
M  V30 3549 O 327.547 -1.66671 -1.38021 0
M  V30 3550 C 328.142 -2.92086 1.71671 0
M  V30 3551 C 326.701 -3.43015 1.54977 0
M  V30 3552 C 325.848 -2.16947 1.72711 0
M  V30 3553 H 328.799 -0.895354 1.31031 0
M  V30 3554 H 328.82 -3.6138 1.19099 0
M  V30 3555 H 328.332 -2.71127 2.7769 0
M  V30 3556 H 326.433 -3.69039 0.513873 0
M  V30 3557 H 326.546 -4.18516 2.33198 0
M  V30 3558 H 324.91 -2.27041 1.15431 0
M  V30 3559 H 325.693 -1.98473 2.80113 0
M  V30 3560 N 328.138 -0.959301 -1.25041 0
M  V30 3561 C 329.086 -0.474437 -2.2771 0
M  V30 3562 C 330.08 0.457697 -1.631 0
M  V30 3563 O 331.286 0.333912 -1.76876 0
M  V30 3564 H 327.661 -0.134936 -0.739795 0
M  V30 3565 H 329.632 -1.35251 -2.65988 0
M  V30 3566 C 328.381 0.227884 -3.46952 0
M  V30 3567 H 327.704 -0.480248 -3.96905 0
M  V30 3568 H 329.144 0.531091 -4.20661 0
M  V30 3569 C 327.603 1.452 -3.04004 0
M  V30 3570 O 328.133 2.54949 -3.10426 0
M  V30 3571 N 326.339 1.31502 -2.59144 0
M  V30 3572 H 325.886 0.422065 -2.54119 0
M  V30 3573 H 325.844 2.13521 -2.30773 0
M  V30 3574 N 329.616 1.39756 -0.72842 0
M  V30 3575 C 330.865 1.99879 -0.270407 0
M  V30 3576 C 331.178 1.58449 1.14688 0
M  V30 3577 O 332.384 2.11362 1.70407 0
M  V30 3578 C 330.84 3.57292 -0.43252 0
M  V30 3579 C 330.448 4.07688 -1.85727 0
M  V30 3580 C 332.192 4.24485 -0.0359507 0
M  V30 3581 C 330.099 5.5765 -1.96928 0
M  V30 3582 H 329.029 0.747689 -0.0973472 0
M  V30 3583 H 331.68 1.59837 -0.901355 0
M  V30 3584 H 330.062 3.95097 0.267219 0
M  V30 3585 H 331.236 3.81231 -2.58843 0
M  V30 3586 H 329.551 3.53135 -2.20646 0
M  V30 3587 H 332.148 5.34609 -0.0987484 0
M  V30 3588 H 332.491 4.03915 1.00787 0
M  V30 3589 H 333.024 3.9183 -0.686604 0
M  V30 3590 H 329.763 5.8309 -2.99476 0
M  V30 3591 H 329.283 5.8593 -1.28241 0
M  V30 3592 H 330.962 6.22957 -1.74737 0
M  V30 3593 N 331.094 0.475555 1.50254 0
M  V30 3594 C 332.024 -0.30611 2.31485 0
M  V30 3595 C 333.005 -0.986228 1.38591 0
M  V30 3596 O 334.19 -0.982541 1.67511 0
M  V30 3597 C 331.32 -1.38588 3.1845 0
M  V30 3598 C 330.274 -0.827115 4.19932 0
M  V30 3599 C 329.6 -2.00551 4.95665 0
M  V30 3600 C 330.9 0.16463 5.2204 0
M  V30 3601 H 332.594 0.371866 2.97082 0
M  V30 3602 H 330.14 0.180282 1.42867 0
M  V30 3603 H 332.093 -1.94023 3.74076 0
M  V30 3604 H 330.817 -2.09269 2.50747 0
M  V30 3605 H 329.476 -0.294702 3.65414 0
M  V30 3606 H 329.124 -2.6994 4.2443 0
M  V30 3607 H 328.824 -1.63784 5.64313 0
M  V30 3608 H 330.348 -2.56468 5.54127 0
M  V30 3609 H 331.762 -0.300699 5.72511 0
M  V30 3610 H 330.159 0.446813 5.98434 0
M  V30 3611 H 331.229 1.08905 4.72512 0
M  V30 3612 N 332.573 -1.56217 0.208337 0
M  V30 3613 C 333.483 -2.23316 -0.718836 0
M  V30 3614 C 334.499 -1.23648 -1.22422 0
M  V30 3615 O 335.675 -1.56423 -1.26861 0
M  V30 3616 C 332.74 -2.88968 -1.91568 0
M  V30 3617 C 331.801 -4.03943 -1.45357 0
M  V30 3618 C 331.034 -4.66455 -2.59337 0
M  V30 3619 O 331.257 -4.27919 -3.77149 0
M  V30 3620 O 330.191 -5.55686 -2.31293 0
M  V30 3621 H 334.017 -3.03182 -0.177315 0
M  V30 3622 H 331.602 -1.49384 -0.0215402 0
M  V30 3623 H 333.484 -3.30455 -2.61491 0
M  V30 3624 H 332.159 -2.12071 -2.44556 0
M  V30 3625 H 331.066 -3.67052 -0.722746 0
M  V30 3626 H 332.399 -4.82543 -0.970219 0
M  V30 3627 N 334.051 0.0651679 -1.57465 0
M  V30 3628 C 334.981 1.07693 -2.07182 0
M  V30 3629 C 335.962 1.39962 -0.966673 0
M  V30 3630 O 337.147 1.49475 -1.2398 0
M  V30 3631 C 334.277 2.3885 -2.52127 0
M  V30 3632 C 333.231 2.20917 -3.66579 0
M  V30 3633 C 332.557 3.57515 -3.97601 0
M  V30 3634 C 333.857 1.62493 -4.9638 0
M  V30 3635 H 335.551 0.663199 -2.91962 0
M  V30 3636 H 333.097 0.317569 -1.40455 0
M  V30 3637 H 335.05 3.09928 -2.85522 0
M  V30 3638 H 333.774 2.82215 -1.64384 0
M  V30 3639 H 332.433 1.52279 -3.33477 0
M  V30 3640 H 332.081 3.98463 -3.06979 0
M  V30 3641 H 331.781 3.46353 -4.74672 0
M  V30 3642 H 333.305 4.30013 -4.33499 0
M  V30 3643 H 334.719 2.23445 -5.27963 0
M  V30 3644 H 333.116 1.62009 -5.77818 0
M  V30 3645 H 334.186 0.587041 -4.81333 0
M  V30 3646 N 335.529 1.53961 0.336706 0
M  V30 3647 C 336.492 1.81724 1.39675 0
M  V30 3648 C 337.492 0.688532 1.45313 0
M  V30 3649 O 338.682 0.956829 1.45569 0
M  V30 3650 C 335.814 1.96543 2.78538 0
M  V30 3651 H 337.007 2.76424 1.16318 0
M  V30 3652 H 334.56 1.45478 0.571474 0
M  V30 3653 H 335.295 1.0401 3.07168 0
M  V30 3654 H 335.08 2.78665 2.75841 0
M  V30 3655 H 336.57 2.19516 3.5525 0
M  V30 3656 N 337.007 -0.598083 1.45811 0
M  V30 3657 C 337.97 -1.69018 1.54808 0
M  V30 3658 C 338.97 -1.55037 0.426652 0
M  V30 3659 O 340.16 -1.59932 0.690456 0
M  V30 3660 C 337.292 -3.0835 1.45371 0
M  V30 3661 H 338.485 -1.62403 2.52121 0
M  V30 3662 H 336.038 -0.814626 1.33392 0
M  V30 3663 H 336.773 -3.20534 0.492793 0
M  V30 3664 H 336.558 -3.19907 2.26721 0
M  V30 3665 H 338.048 -3.8788 1.54721 0
M  V30 3666 N 338.485 -1.33259 -0.841409 0
M  V30 3667 C 339.715 -1.2742 -1.62628 0
M  V30 3668 C 340.123 0.157604 -1.88542 0
M  V30 3669 O 339.466 1.10938 -1.46419 0
M  V30 3670 C 339.528 -1.97797 -3.00194 0
M  V30 3671 C 339.192 -3.47109 -2.97261 0
M  V30 3672 C 340.189 -4.42358 -2.73159 0
M  V30 3673 C 337.874 -3.89247 -3.17478 0
M  V30 3674 C 339.868 -5.77718 -2.69296 0
M  V30 3675 C 337.555 -5.24713 -3.13241 0
M  V30 3676 C 338.553 -6.1876 -2.89181 0
M  V30 3677 O 338.241 -7.51745 -2.84843 0
M  V30 3678 H 337.973 -0.440436 -0.512827 0
M  V30 3679 H 340.527 -1.76153 -1.05638 0
M  V30 3680 H 338.757 -1.43652 -3.59028 0
M  V30 3681 H 340.446 -1.8549 -3.61038 0
M  V30 3682 H 341.212 -4.11127 -2.57294 0
M  V30 3683 H 337.091 -3.16456 -3.35226 0
M  V30 3684 H 340.635 -6.51097 -2.50436 0
M  V30 3685 H 336.532 -5.55569 -3.28654 0
M  V30 3686 H 337.3 -7.61262 -3.00702 0
M  V30 3687 N 339.963 1.05934 -1.16686 0
M  V30 3688 C 341.21 1.788 -0.950622 0
M  V30 3689 C 341.538 1.87384 0.521305 0
M  V30 3690 O 340.793 1.36438 1.40297 0
M  V30 3691 C 341.092 3.23105 -1.52767 0
M  V30 3692 C 340.758 3.34594 -3.02254 0
M  V30 3693 C 339.42 3.37437 -3.43059 0
M  V30 3694 C 341.772 3.36219 -3.98254 0
M  V30 3695 C 339.1 3.39525 -4.78477 0
M  V30 3696 C 341.452 3.39845 -5.33562 0
M  V30 3697 C 340.116 3.40971 -5.73842 0
M  V30 3698 H 339.386 0.654275 -0.347857 0
M  V30 3699 H 342.033 1.24555 -1.45459 0
M  V30 3700 H 340.338 3.80227 -0.94524 0
M  V30 3701 H 342.035 3.7809 -1.336 0
M  V30 3702 H 338.625 3.3309 -2.6972 0
M  V30 3703 H 342.809 3.33231 -3.67792 0
M  V30 3704 H 338.065 3.38703 -5.09009 0
M  V30 3705 H 342.239 3.4005 -6.07733 0
M  V30 3706 H 339.866 3.42342 -6.78753 0
M  V30 3707 N 341.441 0.965919 1.2453 0
M  V30 3708 C 342.669 0.644385 1.96609 0
M  V30 3709 C 343.084 -0.785823 1.71669 0
M  V30 3710 O 342.441 -1.52703 0.999399 0
M  V30 3711 C 342.492 0.907375 3.49927 0
M  V30 3712 O 342.213 2.28136 3.74013 0
M  V30 3713 C 343.714 0.599784 4.39224 0
M  V30 3714 H 340.934 0.240588 0.626385 0
M  V30 3715 H 343.478 1.29337 1.58405 0
M  V30 3716 H 341.633 0.304631 3.862 0
M  V30 3717 H 342.047 2.36002 4.68405 0
M  V30 3718 H 343.521 0.834263 5.45659 0
M  V30 3719 H 343.998 -0.465921 4.36722 0
M  V30 3720 H 344.604 1.18235 4.08535 0
M  V30 3721 N 342.919 -1.39368 0.735821 0
M  V30 3722 C 343.829 -2.34395 0.0979693 0
M  V30 3723 C 344.845 -1.58361 -0.720968 0
M  V30 3724 O 346.021 -1.90648 -0.649245 0
M  V30 3725 C 343.086 -3.37393 -0.797916 0
M  V30 3726 C 342.147 -4.29287 0.0333662 0
M  V30 3727 C 341.38 -5.27365 -0.819854 0
M  V30 3728 O 341.603 -5.31959 -2.05855 0
M  V30 3729 O 340.537 -6.01389 -0.248079 0
M  V30 3730 H 344.363 -2.90601 0.882315 0
M  V30 3731 H 341.948 -1.40909 0.4965 0
M  V30 3732 H 343.83 -4.00505 -1.31048 0
M  V30 3733 H 342.505 -2.83571 -1.56106 0
M  V30 3734 H 341.412 -3.69395 0.591475 0
M  V30 3735 H 342.745 -4.86317 0.758752 0
M  V30 3736 N 344.397 -0.483516 -1.5 0
M  V30 3737 C 345.625 0.0644831 -2.06799 0
M  V30 3738 C 346.04 1.32399 -1.34596 0
M  V30 3739 O 345.397 1.77626 -0.418946 0
M  V30 3740 C 345.448 0.339927 -3.59898 0
M  V30 3741 O 345.169 -0.869635 -4.29382 0
M  V30 3742 C 346.67 0.933515 -4.33359 0
M  V30 3743 H 343.89 -0.0126333 -0.670881 0
M  V30 3744 H 346.434 -0.675864 -1.93009 0
M  V30 3745 H 344.589 1.03022 -3.7345 0
M  V30 3746 H 345.003 -0.62179 -5.20801 0
M  V30 3747 H 346.477 1.07593 -5.41413 0
M  V30 3748 H 346.954 1.92685 -3.94676 0
M  V30 3749 H 347.56 0.281221 -4.24369 0
M  V30 3750 N 345.875 1.56104 -0.216619 0
M  V30 3751 C 346.785 2.23694 0.706982 0
M  V30 3752 C 347.801 1.24295 1.21765 0
M  V30 3753 O 348.977 1.57094 1.2603 0
M  V30 3754 C 346.042 2.8998 1.90033 0
M  V30 3755 C 345.103 4.04708 1.43213 0
M  V30 3756 C 344.336 4.67824 2.56859 0
M  V30 3757 O 344.559 4.29913 3.74874 0
M  V30 3758 O 343.493 5.56905 2.28343 0
M  V30 3759 H 347.319 3.03272 0.161235 0
M  V30 3760 H 344.904 1.49394 0.0136177 0
M  V30 3761 H 346.786 3.31837 2.59735 0
M  V30 3762 H 345.461 2.13365 2.43428 0
M  V30 3763 H 344.368 3.6743 0.70327 0
M  V30 3764 H 345.701 4.83051 0.944615 0
M  V30 3765 N 347.353 -0.0568162 1.57498 0
M  V30 3766 C 348.3 -1.06591 2.04712 0
M  V30 3767 C 349.27 -1.3758 0.930644 0
M  V30 3768 O 350.455 -1.48392 1.19935 0
M  V30 3769 C 347.595 -2.3701 2.50839 0
M  V30 3770 C 346.708 -2.12421 3.76167 0
M  V30 3771 C 345.843 -3.36511 4.11015 0
M  V30 3772 C 344.882 -3.07353 5.2934 0
M  V30 3773 N 344.019 -4.23816 5.59754 0
M  V30 3774 H 348.859 -0.65631 2.90683 0
M  V30 3775 H 346.396 -0.312481 1.43743 0
M  V30 3776 H 348.354 -3.13175 2.7564 0
M  V30 3777 H 346.984 -2.75744 1.67825 0
M  V30 3778 H 346.036 -1.2688 3.58616 0
M  V30 3779 H 347.348 -1.86894 4.62463 0
M  V30 3780 H 346.502 -4.21062 4.36797 0
M  V30 3781 H 345.241 -3.65128 3.23315 0
M  V30 3782 H 344.246 -2.212 5.03339 0
M  V30 3783 H 345.471 -2.80043 6.1867 0
M  V30 3784 H 343.417 -4.52436 4.75014 0
M  V30 3785 H 343.334 -4.01614 6.40501 0
M  V30 3786 H 344.602 -5.0932 5.90096 0
M  V30 3787 N 348.832 -1.54138 -0.328536 0
M  V30 3788 C 350.079 -1.72105 -1.06706 0
M  V30 3789 C 350.407 -0.492111 -1.88171 0
M  V30 3790 O 349.662 0.526153 -1.88494 0
M  V30 3791 C 349.961 -2.9457 -2.02393 0
M  V30 3792 C 349.627 -4.29544 -1.37122 0
M  V30 3793 C 348.289 -4.6624 -1.19052 0
M  V30 3794 C 350.641 -5.1333 -0.902331 0
M  V30 3795 C 347.969 -5.84325 -0.527331 0
M  V30 3796 C 350.321 -6.32094 -0.252988 0
M  V30 3797 C 348.985 -6.67473 -0.0600901 0
M  V30 3798 H 348.255 -0.629775 -0.390466 0
M  V30 3799 H 350.902 -1.88372 -0.34473 0
M  V30 3800 H 349.207 -2.72969 -2.81061 0
M  V30 3801 H 350.904 -3.05665 -2.59557 0
M  V30 3802 H 347.494 -4.0067 -1.52188 0
M  V30 3803 H 351.678 -4.855 -1.02974 0
M  V30 3804 H 346.934 -6.103 -0.366634 0
M  V30 3805 H 351.108 -6.96299 0.118366 0
M  V30 3806 H 348.735 -7.58832 0.455828 0
M  V30 3807 N 350.31 0.590341 -1.46126 0
M  V30 3808 C 351.55 1.35995 -1.52593 0
M  V30 3809 C 351.914 1.91243 -0.170368 0
M  V30 3810 O 353.115 2.68576 -0.109775 0
M  V30 3811 C 351.386 2.46465 -2.58823 0
M  V30 3812 S 352.945 3.33953 -2.84641 0
M  V30 3813 H 349.763 0.463425 -0.53922 0
M  V30 3814 H 352.365 0.67944 -1.83314 0
M  V30 3815 H 351.069 2.04256 -3.5596 0
M  V30 3816 H 350.6 3.19297 -2.2981 0
M  V30 3817 H 352.615 4.45094 -2.19331 0
M  V30 3818 N 351.788 1.33704 0.83433 0
M  V30 3819 C 352.718 1.26967 1.95963 0
M  V30 3820 C 353.699 0.149337 1.69443 0
M  V30 3821 O 354.884 0.339852 1.91203 0
M  V30 3822 C 352.014 1.01275 3.32206 0
M  V30 3823 C 350.968 2.09652 3.73136 0
M  V30 3824 C 350.294 1.69166 5.07235 0
M  V30 3825 C 351.594 3.51372 3.86439 0
M  V30 3826 H 353.288 2.2112 2.01857 0
M  V30 3827 H 350.834 1.06447 0.969793 0
M  V30 3828 H 352.787 0.952106 4.10503 0
M  V30 3829 H 351.511 0.0356203 3.26581 0
M  V30 3830 H 350.17 2.14766 2.97104 0
M  V30 3831 H 349.818 0.701437 4.98085 0
M  V30 3832 H 349.518 2.41694 5.35591 0
M  V30 3833 H 351.042 1.64576 5.88003 0
M  V30 3834 H 352.456 3.48734 4.55036 0
M  V30 3835 H 350.853 4.22425 4.26236 0
M  V30 3836 H 351.923 3.89546 2.88759 0
M  V30 3837 N 353.266 -1.05314 1.17247 0
M  V30 3838 C 354.515 -1.77685 0.954521 0
M  V30 3839 C 354.828 -1.88616 -0.518025 0
M  V30 3840 O 356.034 -2.57714 -0.854144 0
M  V30 3841 C 354.49 -3.19402 1.65863 0
M  V30 3842 C 354.098 -3.16605 3.16963 0
M  V30 3843 C 355.842 -3.96237 1.52303 0
M  V30 3844 C 353.749 -4.53103 3.80068 0
M  V30 3845 H 352.679 -0.666 0.353496 0
M  V30 3846 H 355.33 -1.1805 1.40486 0
M  V30 3847 H 353.712 -3.79355 1.13602 0
M  V30 3848 H 354.886 -2.66176 3.76148 0
M  V30 3849 H 353.201 -2.53268 3.30521 0
M  V30 3850 H 355.798 -4.97157 1.96822 0
M  V30 3851 H 356.141 -4.136 0.473401 0
M  V30 3852 H 356.674 -3.42829 2.01775 0
M  V30 3853 H 353.413 -4.40946 4.85023 0
M  V30 3854 H 352.933 -5.03686 3.2567 0
M  V30 3855 H 354.612 -5.22045 3.82202 0
M  V30 3856 N 354.744 -0.972509 -1.24016 0
M  V30 3857 C 355.974 -0.653853 -1.9598 0
M  V30 3858 C 356.382 0.781801 -1.72292 0
M  V30 3859 O 355.725 1.53677 -1.00644 0
M  V30 3860 C 355.787 -0.854608 -3.49194 0
M  V30 3861 C 355.451 -2.27082 -3.96589 0
M  V30 3862 C 356.448 -3.24892 -4.05883 0
M  V30 3863 C 354.133 -2.5998 -4.29786 0
M  V30 3864 C 356.127 -4.53684 -4.47716 0
M  V30 3865 C 353.814 -3.88997 -4.71301 0
M  V30 3866 C 354.812 -4.85661 -4.80232 0
M  V30 3867 O 354.5 -6.12376 -5.20818 0
M  V30 3868 H 354.232 -0.242572 -0.630979 0
M  V30 3869 H 356.786 -1.30431 -1.58673 0
M  V30 3870 H 355.016 -0.146985 -3.86421 0
M  V30 3871 H 356.705 -0.534311 -4.02368 0
M  V30 3872 H 357.471 -3.00805 -3.80449 0
M  V30 3873 H 353.35 -1.85457 -4.22051 0
M  V30 3874 H 356.894 -5.29135 -4.54601 0
M  V30 3875 H 352.791 -4.12882 -4.96184 0
M  V30 3876 H 353.559 -6.16013 -5.38953 0
M  V30 3877 N 356.222 1.38976 -0.743202 0
M  V30 3878 C 357.633 1.83123 -0.363732 0
M  V30 3879 C 357.984 1.6205 1.10609 0
M  V30 3880 O 357.109 1.11606 1.854 0
M  V30 3881 C 357.704 3.32439 -0.653408 0
M  V30 3882 C 356.263 3.74974 -0.327338 0
M  V30 3883 C 355.41 2.61878 -0.911875 0
M  V30 3884 H 358.361 1.27852 -0.940191 0
M  V30 3885 H 358.382 3.80432 0.0720031 0
M  V30 3886 H 357.894 3.47745 -1.72323 0
M  V30 3887 H 355.995 3.65252 0.736314 0
M  V30 3888 H 356.108 4.72106 -0.815631 0
M  V30 3889 H 354.472 2.52448 -0.337944 0
M  V30 3890 H 355.255 2.79987 -1.98651 0
M  V30 3891 N 357.7 0.491464 1.49741 0
M  V30 3892 C 358.93 -0.0534375 2.06531 0
M  V30 3893 C 359.338 -1.32233 1.35318 0
M  V30 3894 O 358.681 -1.78781 0.422243 0
M  V30 3895 C 358.743 -0.387034 3.57411 0
M  V30 3896 C 358.407 0.782764 4.50246 0
M  V30 3897 C 359.404 1.67059 4.92329 0
M  V30 3898 C 357.089 0.978866 4.9267 0
M  V30 3899 C 359.083 2.73874 5.75562 0
M  V30 3900 C 356.77 2.05022 5.75682 0
M  V30 3901 C 357.768 2.92851 6.17031 0
M  V30 3902 O 357.456 3.98138 6.98385 0
M  V30 3903 H 357.188 0.0129324 0.675876 0
M  V30 3904 H 359.742 0.685238 1.93633 0
M  V30 3905 H 357.972 -1.17918 3.68283 0
M  V30 3906 H 359.661 -0.869419 3.96479 0
M  V30 3907 H 360.427 1.53086 4.60206 0
M  V30 3908 H 356.306 0.304646 4.59992 0
M  V30 3909 H 359.85 3.42458 6.07757 0
M  V30 3910 H 355.747 2.18993 6.07217 0
M  V30 3911 H 356.515 3.95374 7.16674 0
M  V30 3912 N 359.178 -1.55987 0.224894 0
M  V30 3913 C 360.111 -2.16413 -0.723929 0
M  V30 3914 C 361.089 -1.10952 -1.18863 0
M  V30 3915 O 362.273 -1.39225 -1.27077 0
M  V30 3916 C 359.4 -2.74711 -1.98121 0
M  V30 3917 C 358.446 -3.9303 -1.6562 0
M  V30 3918 S 359.279 -5.29817 -0.778058 0
M  V30 3919 C 360.435 -5.91555 -2.04483 0
M  V30 3920 H 360.668 -2.96555 -0.210347 0
M  V30 3921 H 358.201 -1.54397 0.00955457 0
M  V30 3922 H 360.159 -3.08938 -2.70311 0
M  V30 3923 H 358.82 -1.94555 -2.46591 0
M  V30 3924 H 358.013 -4.32334 -2.59043 0
M  V30 3925 H 357.615 -3.59966 -1.01491 0
M  V30 3926 H 359.907 -6.07732 -2.99446 0
M  V30 3927 H 360.85 -6.87498 -1.69563 0
M  V30 3928 H 361.258 -5.20419 -2.18688 0
M  V30 3929 N 360.656 0.0484629 -1.57525 0
M  V30 3930 C 362.072 0.40375 -1.54409 0
M  V30 3931 C 362.272 1.77786 -0.948384 0
M  V30 3932 O 361.328 2.46189 -0.560983 0
M  V30 3933 C 362.641 0.323394 -2.98956 0
M  V30 3934 C 364.189 0.401892 -3.10409 0
M  V30 3935 C 364.664 0.351195 -4.56652 0
M  V30 3936 N 366.155 0.410576 -4.61377 0
M  V30 3937 C 366.89 0.393933 -5.72045 0
M  V30 3938 N 366.386 0.330724 -6.9201 0
M  V30 3939 N 368.179 0.442227 -5.60358 0
M  V30 3940 H 360.33 -0.851016 -1.94606 0
M  V30 3941 H 362.593 -0.321721 -0.89174 0
M  V30 3942 H 362.299 -0.62011 -3.4619 0
M  V30 3943 H 362.173 1.12463 -3.60044 0
M  V30 3944 H 364.56 1.33582 -2.63134 0
M  V30 3945 H 364.641 -0.428342 -2.52188 0
M  V30 3946 H 364.285 -0.578987 -5.04589 0
M  V30 3947 H 364.215 1.19928 -5.12762 0
M  V30 3948 H 366.706 0.462729 -3.75056 0
M  V30 3949 H 367.019 0.322592 -7.72126 0
M  V30 3950 H 365.364 0.29706 -6.94365 0
M  V30 3951 H 368.555 0.489464 -4.65534 0
M  V30 3952 H 368.728 0.425788 -6.466 0
M  V30 3953 N 362.134 1.5431 0.320358 0
M  V30 3954 C 363.082 1.84647 1.4145 0
M  V30 3955 C 364.076 0.718624 1.53402 0
M  V30 3956 O 365.282 0.902335 1.5575 0
M  V30 3957 H 361.657 0.585349 0.472091 0
M  V30 3958 H 363.628 2.7614 1.13089 0
M  V30 3959 C 362.377 2.09341 2.77617 0
M  V30 3960 H 361.7 2.9559 2.69196 0
M  V30 3961 H 363.14 2.3452 3.53237 0
M  V30 3962 C 361.599 0.885939 3.25043 0
M  V30 3963 O 362.129 0.0967891 4.01583 0
M  V30 3964 N 360.335 0.696682 2.82125 0
M  V30 3965 H 359.882 1.34006 2.2 0
M  V30 3966 H 359.84 -0.109712 3.14209 0
M  V30 3967 N 363.613 -0.582584 1.46437 0
M  V30 3968 C 364.861 -1.33814 1.51453 0
M  V30 3969 C 365.182 -1.94277 0.167792 0
M  V30 3970 O 364.452 -1.78566 -0.805677 0
M  V30 3971 H 363.032 -0.496838 0.557818 0
M  V30 3972 H 365.694 -0.682281 1.82568 0
M  V30 3973 H 364.79 -2.14479 2.26728 0
M  V30 3974 N 365.091 -1.34144 -0.827227 0
M  V30 3975 C 366.319 -1.29325 -1.61501 0
M  V30 3976 C 366.734 0.13354 -1.88327 0
M  V30 3977 O 366.091 1.0793 -1.47164 0
M  V30 3978 C 366.142 -2.07746 -2.95844 0
M  V30 3979 O 365.863 -3.4486 -2.70191 0
M  V30 3980 C 367.364 -2.10273 -3.90256 0
M  V30 3981 H 364.584 -0.445069 -0.50215 0
M  V30 3982 H 367.128 -1.76693 -1.02955 0
M  V30 3983 H 365.283 -1.6403 -3.5096 0
M  V30 3984 H 365.697 -3.85345 -3.55822 0
M  V30 3985 H 367.171 -2.69575 -4.81698 0
M  V30 3986 H 367.648 -1.096 -4.25305 0
M  V30 3987 H 368.254 -2.54059 -3.41078 0
M  V30 3988 N 366.569 1.04691 -1.17803 0
M  V30 3989 C 367.499 2.14494 -0.92275 0
M  V30 3990 C 368.48 1.69546 0.137179 0
M  V30 3991 O 369.665 1.94195 -0.0141108 0
M  V30 3992 C 366.795 3.44491 -0.440803 0
M  V30 3993 C 365.749 4.03031 -1.4405 0
M  V30 3994 C 365.075 5.28432 -0.81631 0
M  V30 3995 C 366.375 4.39932 -2.81527 0
M  V30 3996 H 368.069 2.36107 -1.84103 0
M  V30 3997 H 365.615 1.1347 -0.886599 0
M  V30 3998 H 367.568 4.2066 -0.249602 0
M  V30 3999 H 366.292 3.22546 0.513025 0
M  V30 4000 H 364.951 3.28937 -1.61853 0
M  V30 4001 H 364.599 5.02792 0.144511 0
M  V30 4002 H 364.299 5.68559 -1.48371 0
M  V30 4003 H 365.823 6.07284 -0.635496 0
M  V30 4004 H 367.237 5.07113 -2.67412 0
M  V30 4005 H 365.634 4.9109 -3.44892 0
M  V30 4006 H 366.704 3.50045 -3.35554 0
M  V30 4007 N 368.047 0.979072 1.23499 0
M  V30 4008 C 369.294 0.647219 1.91878 0
M  V30 4009 C 369.622 -0.819074 1.76413 0
M  V30 4010 O 368.877 -1.60616 1.11808 0
M  V30 4011 C 369.176 0.981932 3.43646 0
M  V30 4012 C 368.842 2.43822 3.79291 0
M  V30 4013 C 367.504 2.83622 3.88731 0
M  V30 4014 C 369.856 3.3828 3.96505 0
M  V30 4015 C 367.184 4.16897 4.12812 0
M  V30 4016 C 369.536 4.71197 4.22085 0
M  V30 4017 C 368.2 5.10758 4.29747 0
M  V30 4018 H 367.47 0.236834 0.702133 0
M  V30 4019 H 370.117 1.23268 1.46551 0
M  V30 4020 H 368.422 0.314365 3.90537 0
M  V30 4021 H 370.119 0.703395 3.94783 0
M  V30 4022 H 366.709 2.11966 3.72516 0
M  V30 4023 H 370.893 3.0871 3.88603 0
M  V30 4024 H 366.149 4.47157 4.16966 0
M  V30 4025 H 370.323 5.44348 4.34348 0
M  V30 4026 H 367.95 6.1405 4.48159 0
M  V30 4027 N 369.525 -1.3858 0.750561 0
M  V30 4028 C 370.802 -1.94231 0.231009 0
M  V30 4029 C 371.182 -1.68611 -1.27018 0
M  V30 4030 O 370.53 -1.02296 -2.04323 0
M  V30 4031 C 370.74 -3.44123 0.581428 0
M  V30 4032 C 372.088 -4.2116 0.539389 0
M  V30 4033 O 373.112 -3.52391 0.519541 0
M  V30 4034 O 371.971 -5.43749 0.54765 0
M  V30 4035 H 369.065 -0.825639 0.0474263 0
M  V30 4036 H 371.611 -1.4799 0.830478 0
M  V30 4037 H 370.383 -3.56267 1.61833 0
M  V30 4038 H 370.006 -3.97573 -0.0462047 0
M  V30 4039 N 371.003 -0.499398 -1.49478 0
M  V30 4040 C 372.419 -0.155261 -1.58843 0
M  V30 4041 C 372.619 1.34008 -1.50479 0
M  V30 4042 O 371.675 2.11589 -1.37791 0
M  V30 4043 C 372.988 -0.730636 -2.91689 0
M  V30 4044 C 374.536 -0.696599 -3.0515 0
M  V30 4045 C 375.011 -1.25001 -4.40612 0
M  V30 4046 N 376.502 -1.21064 -4.47099 0
M  V30 4047 C 377.237 -1.60905 -5.50361 0
M  V30 4048 N 376.733 -2.08331 -6.60735 0
M  V30 4049 N 378.526 -1.52331 -5.41065 0
M  V30 4050 H 370.677 -1.47162 -1.53158 0
M  V30 4051 H 372.94 -0.610309 -0.725415 0
M  V30 4052 H 372.646 -1.77928 -3.03372 0
M  V30 4053 H 372.52 -0.190161 -3.7672 0
M  V30 4054 H 374.907 0.343204 -2.93097 0
M  V30 4055 H 374.988 -1.2742 -2.21806 0
M  V30 4056 H 374.632 -2.28859 -4.53416 0
M  V30 4057 H 374.562 -0.64836 -5.22593 0
M  V30 4058 H 377.053 -0.863128 -3.67911 0
M  V30 4059 H 377.366 -2.36805 -7.35624 0
M  V30 4060 H 375.711 -2.12304 -6.6178 0
M  V30 4061 H 378.902 -1.151 -4.53729 0
M  V30 4062 H 379.075 -1.83704 -6.21415 0
M  V30 4063 N 372.481 1.55866 -0.233164 0
M  V30 4064 C 373.411 2.23783 0.666599 0
M  V30 4065 C 374.392 1.21343 1.19205 0
M  V30 4066 O 375.577 1.4996 1.23392 0
M  V30 4067 C 372.707 2.92671 1.86978 0
M  V30 4068 C 371.661 4.01682 1.47768 0
M  V30 4069 C 370.987 4.57926 2.76058 0
M  V30 4070 C 372.287 5.18126 0.658993 0
M  V30 4071 H 373.981 2.99232 0.100306 0
M  V30 4072 H 371.527 1.43924 0.046804 0
M  V30 4073 H 373.48 3.3888 2.50476 0
M  V30 4074 H 372.204 2.14688 2.46123 0
M  V30 4075 H 370.863 3.56222 0.866106 0
M  V30 4076 H 370.511 3.76659 3.33372 0
M  V30 4077 H 370.211 5.31505 2.50552 0
M  V30 4078 H 371.735 5.06859 3.40479 0
M  V30 4079 H 373.149 5.60644 1.19795 0
M  V30 4080 H 371.546 5.98009 0.500552 0
M  V30 4081 H 372.616 4.83763 -0.331856 0
M  V30 4082 N 373.959 -0.0401083 1.57549 0
M  V30 4083 C 374.891 -1.07149 2.02612 0
M  V30 4084 C 375.904 -1.33126 0.937085 0
M  V30 4085 O 377.093 -1.30808 1.21456 0
M  V30 4086 C 374.193 -2.41561 2.37701 0
M  V30 4087 C 373.366 -2.35096 3.68848 0
M  V30 4088 C 372.425 -3.51867 3.91249 0
M  V30 4089 O 371.451 -3.3186 4.62447 0
M  V30 4090 N 372.653 -4.73351 3.36035 0
M  V30 4091 H 375.418 -0.687485 2.91708 0
M  V30 4092 H 372.979 -0.228248 1.60283 0
M  V30 4093 H 374.971 -3.18379 2.49833 0
M  V30 4094 H 373.541 -2.71846 1.54332 0
M  V30 4095 H 372.761 -1.4345 3.67173 0
M  V30 4096 H 374.049 -2.27908 4.54901 0
M  V30 4097 H 373.447 -4.92507 2.78304 0
M  V30 4098 H 372.004 -5.47572 3.53565 0
M  V30 4099 N 375.437 -1.54477 -0.31217 0
M  V30 4100 C 376.677 -1.74958 -1.05684 0
M  V30 4101 C 377.041 -0.518414 -1.84869 0
M  V30 4102 O 378.242 -0.600759 -2.62001 0
M  V30 4103 C 376.513 -2.99656 -1.94785 0
M  V30 4104 S 378.072 -3.4109 -2.76049 0
M  V30 4105 H 374.89 -0.615104 -0.356606 0
M  V30 4106 H 377.492 -1.92669 -0.331514 0
M  V30 4107 H 376.196 -3.87397 -1.35468 0
M  V30 4108 H 375.727 -2.845 -2.71704 0
M  V30 4109 H 377.742 -2.97283 -3.97287 0
M  V30 4110 N 376.915 0.57481 -1.46744 0
M  V30 4111 C 378.161 1.3347 -1.52688 0
M  V30 4112 C 378.494 1.93353 -0.181229 0
M  V30 4113 O 377.769 1.76912 0.808237 0
M  V30 4114 C 378.052 2.45811 -2.63152 0
M  V30 4115 C 377.905 1.90912 -4.07275 0
M  V30 4116 C 379.224 3.47822 -2.69644 0
M  V30 4117 H 376.343 0.483935 -0.555856 0
M  V30 4118 H 378.985 0.644968 -1.78718 0
M  V30 4119 H 377.135 3.04646 -2.41088 0
M  V30 4120 H 378.807 1.36473 -4.4065 0
M  V30 4121 H 377.05 1.21691 -4.16382 0
M  V30 4122 H 377.721 2.72042 -4.80309 0
M  V30 4123 H 380.197 2.9888 -2.895 0
M  V30 4124 H 379.073 4.23876 -3.48742 0
M  V30 4125 H 379.334 4.05555 -1.76005 0
M  V30 4126 N 378.394 1.34581 0.820102 0
M  V30 4127 C 379.642 1.26845 1.57336 0
M  V30 4128 C 379.963 -0.160667 1.94337 0
M  V30 4129 O 379.233 -1.09396 1.6251 0
M  V30 4130 H 377.813 0.466514 0.583415 0
M  V30 4131 H 380.475 1.68526 0.979027 0
M  V30 4132 H 379.571 1.87513 2.4949 0
M  V30 4133 N 379.872 -1.04064 1.18357 0
M  V30 4134 C 381.149 -1.74252 0.888581 0
M  V30 4135 C 381.529 -2.02138 -0.60856 0
M  V30 4136 O 380.877 -1.66656 -1.56327 0
M  V30 4137 C 381.087 -3.0277 1.73584 0
M  V30 4138 C 382.435 -3.76506 1.96286 0
M  V30 4139 O 383.459 -3.12668 1.70637 0
M  V30 4140 O 382.318 -4.91243 2.39464 0
M  V30 4141 H 379.412 -0.758271 0.330082 0
M  V30 4142 H 381.958 -1.1013 1.2911 0
M  V30 4143 H 380.73 -2.78299 2.75073 0
M  V30 4144 H 380.353 -3.74631 1.33183 0
M  V30 4145 N 381.35 -0.985608 -1.22978 0
M  V30 4146 C 382.578 -0.675582 -1.95559 0
M  V30 4147 C 382.993 0.758413 -1.72897 0
M  V30 4148 O 382.35 1.51094 -1.02357 0
M  V30 4149 C 382.401 -0.96293 -3.48439 0
M  V30 4150 O 382.122 -2.34057 -3.70336 0
M  V30 4151 C 383.623 -0.669585 -4.38214 0
M  V30 4152 H 380.843 -0.250523 -0.622478 0
M  V30 4153 H 383.387 -1.3184 -1.56328 0
M  V30 4154 H 381.542 -0.366033 -3.85667 0
M  V30 4155 H 381.956 -2.43424 -4.64591 0
M  V30 4156 H 383.43 -0.920967 -5.44263 0
M  V30 4157 H 383.907 0.396383 -4.37408 0
M  V30 4158 H 384.513 -1.2472 -4.06602 0
M  V30 4159 N 382.828 1.3818 -0.7579 0
M  V30 4160 C 383.791 2.28764 -0.141286 0
M  V30 4161 C 384.791 1.47388 0.642907 0
M  V30 4162 O 385.981 1.67781 0.468536 0
M  V30 4163 C 383.113 3.31184 0.808069 0
M  V30 4164 H 384.306 2.848 -0.939633 0
M  V30 4165 H 381.859 1.47212 -0.525191 0
M  V30 4166 H 382.594 2.80247 1.63193 0
M  V30 4167 H 382.379 3.91314 0.248104 0
M  V30 4168 H 383.869 3.98909 1.23536 0
M  V30 4169 N 384.306 0.507319 1.49211 0
M  V30 4170 C 385.717 0.0611118 1.866 0
M  V30 4171 C 386.068 -1.35488 1.41907 0
M  V30 4172 O 385.193 -2.0108 0.799726 0
M  V30 4173 C 385.788 0.104125 3.3864 0
M  V30 4174 C 384.347 -0.28677 3.75306 0
M  V30 4175 C 383.494 0.473893 2.73221 0
M  V30 4176 H 386.445 0.719775 1.41439 0
M  V30 4177 H 386.466 -0.689672 3.74198 0
M  V30 4178 H 385.978 1.13482 3.71138 0
M  V30 4179 H 384.079 -1.32046 3.48417 0
M  V30 4180 H 384.192 0.0370745 4.79086 0
M  V30 4181 H 382.556 -0.0770644 2.54583 0
M  V30 4182 H 383.339 1.50478 3.08563 0
M  V30 4183 N 385.784 -1.5574 0.241426 0
M  V30 4184 C 386.714 -2.24133 -0.654722 0
M  V30 4185 C 387.695 -1.21974 -1.1856 0
M  V30 4186 O 388.88 -1.50612 -1.22595 0
M  V30 4187 C 386.01 -2.93659 -1.85423 0
M  V30 4188 C 384.964 -4.0246 -1.45636 0
M  V30 4189 C 384.29 -4.59383 -2.73626 0
M  V30 4190 C 385.59 -5.18468 -0.631506 0
M  V30 4191 H 387.284 -2.99281 -0.0844353 0
M  V30 4192 H 384.83 -1.43947 -0.0391707 0
M  V30 4193 H 386.783 -3.40203 -2.48676 0
M  V30 4194 H 385.507 -2.15991 -2.44981 0
M  V30 4195 H 384.166 -3.56676 -0.847202 0
M  V30 4196 H 383.814 -3.78422 -3.3137 0
M  V30 4197 H 383.514 -5.32826 -2.4773 0
M  V30 4198 H 385.038 -5.08658 -3.37786 0
M  V30 4199 H 386.452 -5.61272 -1.1682 0
M  V30 4200 H 384.849 -5.98266 -0.468831 0
M  V30 4201 H 385.919 -4.8358 0.357506 0
M  V30 4202 N 387.262 0.0317525 -1.57568 0
M  V30 4203 C 388.673 0.578692 -1.77505 0
M  V30 4204 C 389.024 1.75749 -0.872164 0
M  V30 4205 O 388.149 2.16298 -0.0663106 0
M  V30 4206 C 388.744 1.05658 -3.21904 0
M  V30 4207 C 387.303 1.54906 -3.43047 0
M  V30 4208 C 386.45 0.485939 -2.73009 0
M  V30 4209 H 389.401 -0.194475 -1.57504 0
M  V30 4210 H 389.422 1.92404 -3.28269 0
M  V30 4211 H 388.934 0.198422 -3.87592 0
M  V30 4212 H 387.035 2.42915 -2.82529 0
M  V30 4213 H 387.148 1.59841 -4.5165 0
M  V30 4214 H 385.512 0.940354 -2.36705 0
M  V30 4215 H 386.295 -0.362709 -3.41379 0
M  V30 4216 N 388.74 1.54641 0.303973 0
M  V30 4217 C 389.986 1.74969 1.03718 0
M  V30 4218 C 390.341 0.527461 1.85029 0
M  V30 4219 O 389.634 -0.480143 1.85486 0
M  V30 4220 C 389.828 2.97753 1.97681 0
M  V30 4221 C 389.657 4.318 1.25613 0
M  V30 4222 C 388.427 4.95616 0.984518 0
M  V30 4223 C 390.625 5.10021 0.662081 0
M  V30 4224 N 388.607 6.13455 0.233794 0
M  V30 4225 C 389.978 6.19984 0.0439736 0
M  V30 4226 C 392.033 4.94663 0.566835 0
M  V30 4227 C 390.736 7.16264 -0.66016 0
M  V30 4228 C 392.762 5.91271 -0.123637 0
M  V30 4229 C 392.124 7.00601 -0.730608 0
M  V30 4230 H 388.223 0.692873 0.362562 0
M  V30 4231 H 390.807 1.92116 0.316135 0
M  V30 4232 H 388.978 2.82036 2.6704 0
M  V30 4233 H 390.71 3.06621 2.64132 0
M  V30 4234 H 387.465 4.55921 1.28191 0
M  V30 4235 H 387.889 6.76879 -0.127996 0
M  V30 4236 H 392.531 4.10267 1.02181 0
M  V30 4237 H 390.249 8.00204 -1.12691 0
M  V30 4238 H 393.835 5.81466 -0.197236 0
M  V30 4239 H 392.715 7.7407 -1.2564 0
M  V30 4240 N 390.218 -0.567019 1.47046 0
M  V30 4241 C 391.168 -1.67018 1.55207 0
M  V30 4242 C 392.152 -1.55543 0.411714 0
M  V30 4243 O 393.344 -1.64192 0.661064 0
M  V30 4244 C 390.473 -3.05801 1.56014 0
M  V30 4245 C 389.559 -3.22515 2.75399 0
M  V30 4246 N 389.95 -3.09329 4.00186 0
M  V30 4247 C 388.248 -3.53493 2.71954 0
M  V30 4248 C 388.949 -3.2847 4.80086 0
M  V30 4249 N 387.925 -3.54352 4.12233 0
M  V30 4250 H 391.727 -1.55377 2.4947 0
M  V30 4251 H 389.241 -0.771503 1.42904 0
M  V30 4252 H 391.238 -3.84996 1.59949 0
M  V30 4253 H 389.898 -3.18561 0.628396 0
M  V30 4254 H 390.909 -2.86863 4.31196 0
M  V30 4255 H 387.586 -3.7284 1.87873 0
M  V30 4256 H 388.976 -3.23326 5.88991 0
M  V30 4257 N 391.696 -1.35014 -0.812953 0
M  V30 4258 C 392.945 -1.27269 -1.56479 0
M  V30 4259 C 393.258 0.152771 -1.95002 0
M  V30 4260 O 394.464 0.352451 -2.69203 0
M  V30 4261 C 392.92 -2.23159 -2.82362 0
M  V30 4262 C 392.528 -3.71016 -2.511 0
M  V30 4263 C 394.272 -2.24342 -3.60376 0
M  V30 4264 C 392.179 -4.58746 -3.73237 0
M  V30 4265 H 391.109 -0.472829 -0.587324 0
M  V30 4266 H 393.76 -1.6024 -0.894171 0
M  V30 4267 H 392.142 -1.83151 -3.51101 0
M  V30 4268 H 393.316 -4.1962 -1.90409 0
M  V30 4269 H 391.631 -3.72378 -1.86343 0
M  V30 4270 H 394.228 -2.87107 -4.51081 0
M  V30 4271 H 394.571 -1.24542 -3.97234 0
M  V30 4272 H 395.104 -2.62846 -2.98591 0
M  V30 4273 H 391.843 -5.59521 -3.41492 0
M  V30 4274 H 391.363 -4.14871 -4.33176 0
M  V30 4275 H 393.042 -4.73852 -4.40537 0
M  V30 4276 N 393.175 1.03435 -1.18907 0
M  V30 4277 C 394.591 1.28973 -0.940111 0
M  V30 4278 C 394.791 1.97676 0.390691 0
M  V30 4279 O 393.847 2.26127 1.12352 0
M  V30 4280 C 395.16 2.14221 -2.11021 0
M  V30 4281 C 396.708 2.27547 -2.14922 0
M  V30 4282 C 397.183 3.16164 -3.31367 0
M  V30 4283 N 398.674 3.23752 -3.31269 0
M  V30 4284 C 399.409 3.92495 -4.18014 0
M  V30 4285 N 398.905 4.63515 -5.14904 0
M  V30 4286 N 400.698 3.88838 -4.05908 0
M  V30 4287 H 392.849 0.57252 -2.04538 0
M  V30 4288 H 395.112 0.315184 -0.894071 0
M  V30 4289 H 394.818 1.71054 -3.073 0
M  V30 4290 H 394.692 3.14919 -2.0762 0
M  V30 4291 H 397.079 2.69947 -1.19217 0
M  V30 4292 H 397.16 1.26418 -2.22378 0
M  V30 4293 H 396.804 2.74474 -4.27348 0
M  V30 4294 H 396.734 4.17339 -3.21148 0
M  V30 4295 H 399.225 2.73167 -2.61129 0
M  V30 4296 H 399.538 5.13583 -5.77453 0
M  V30 4297 H 397.883 4.62398 -5.18857 0
M  V30 4298 H 401.074 3.32491 -3.29495 0
M  V30 4299 H 401.247 4.4214 -4.73726 0
M  V30 4300 N 394.653 0.992116 1.22453 0
M  V30 4301 C 395.902 0.662992 1.90492 0
M  V30 4302 C 396.215 -0.808407 1.78113 0
M  V30 4303 O 397.421 -1.24908 2.41061 0
M  V30 4304 C 395.877 1.1353 3.41524 0
M  V30 4305 C 395.485 2.63187 3.62542 0
M  V30 4306 C 397.229 0.880465 4.15269 0
M  V30 4307 C 395.136 3.04024 5.0727 0
M  V30 4308 H 394.066 0.244278 0.713333 0
M  V30 4309 H 396.717 1.20157 1.38688 0
M  V30 4310 H 395.099 0.52485 3.92506 0
M  V30 4311 H 396.273 3.2957 3.22056 0
M  V30 4312 H 394.588 2.86543 3.02129 0
M  V30 4313 H 397.185 1.16128 5.21937 0
M  V30 4314 H 397.528 -0.183408 4.15896 0
M  V30 4315 H 398.061 1.45307 3.70312 0
M  V30 4316 H 394.8 4.09584 5.11782 0
M  V30 4317 H 394.32 2.42343 5.48662 0
M  V30 4318 H 395.999 2.95282 5.75689 0
M  V30 4319 N 396.131 -1.37776 0.765217 0
M  V30 4320 C 397.379 -1.99454 0.325943 0
M  V30 4321 C 397.7 -1.61049 -1.09947 0
M  V30 4322 O 396.97 -0.872821 -1.75381 0
M  V30 4323 H 395.55 -0.737697 0.117525 0
M  V30 4324 H 398.212 -1.68359 0.981895 0
M  V30 4325 H 397.308 -3.09547 0.398353 0
M  V30 4326 N 397.609 -0.515225 -1.4894 0
M  V30 4327 C 398.858 0.0261361 -2.01683 0
M  V30 4328 C 399.171 1.36719 -1.39883 0
M  V30 4329 O 400.377 1.99606 -1.84037 0
M  V30 4330 C 398.833 0.0970111 -3.59769 0
M  V30 4331 C 398.441 -1.23825 -4.30548 0
M  V30 4332 C 400.185 0.587981 -4.20408 0
M  V30 4333 C 398.092 -1.12877 -5.80528 0
M  V30 4334 H 397.022 0.0135398 -0.753878 0
M  V30 4335 H 399.673 -0.656787 -1.71343 0
M  V30 4336 H 398.055 0.844694 -3.86886 0
M  V30 4337 H 399.229 -2.00034 -4.15118 0
M  V30 4338 H 397.544 -1.66379 -3.81716 0
M  V30 4339 H 400.141 0.68763 -5.3026 0
M  V30 4340 H 400.484 1.59026 -3.84729 0
M  V30 4341 H 401.017 -0.103582 -3.97665 0
M  V30 4342 H 397.756 -2.10575 -6.20756 0
M  V30 4343 H 397.276 -0.407799 -5.98412 0
M  V30 4344 H 398.955 -0.813332 -6.41868 0
M  V30 4345 N 399.087 1.5561 -0.249682 0
M  V30 4346 C 400.017 2.24477 0.642826 0
M  V30 4347 C 400.998 1.22601 1.17911 0
M  V30 4348 O 402.183 1.5126 1.21795 0
M  V30 4349 C 399.313 2.94638 1.83863 0
M  V30 4350 C 398.267 4.03227 1.435 0
M  V30 4351 C 397.593 4.60828 2.71186 0
M  V30 4352 C 398.893 5.18796 0.604002 0
M  V30 4353 H 400.587 2.99321 0.0685625 0
M  V30 4354 H 398.133 1.43965 0.0315363 0
M  V30 4355 H 400.086 3.41517 2.46868 0
M  V30 4356 H 398.81 2.17287 2.43832 0
M  V30 4357 H 397.469 3.57121 0.828275 0
M  V30 4358 H 397.117 3.80174 3.29358 0
M  V30 4359 H 396.817 5.34132 2.44901 0
M  V30 4360 H 398.341 5.10442 3.35084 0
M  V30 4361 H 399.755 5.61883 1.13842 0
M  V30 4362 H 398.152 5.98506 0.437097 0
M  V30 4363 H 399.222 4.83384 -0.383147 0
M  V30 4364 N 400.565 -0.0233959 1.57583 0
M  V30 4365 C 401.814 -0.712133 1.8871 0
M  V30 4366 C 402.127 -1.76217 0.848944 0
M  V30 4367 O 403.333 -2.50389 1.04964 0
M  V30 4368 C 401.789 -1.3177 3.3491 0
M  V30 4369 C 401.397 -0.303715 4.46969 0
M  V30 4370 C 403.141 -1.98598 3.75179 0
M  V30 4371 C 401.048 -0.917945 5.84233 0
M  V30 4372 H 399.978 -0.269735 0.704101 0
M  V30 4373 H 402.629 0.0333114 1.8347 0
M  V30 4374 H 401.011 -2.11304 3.34913 0
M  V30 4375 H 402.185 0.465325 4.58445 0
M  V30 4376 H 400.5 0.2628 4.1557 0
M  V30 4377 H 403.097 -2.45416 4.75053 0
M  V30 4378 H 403.44 -2.80659 3.07468 0
M  V30 4379 H 403.973 -1.25831 3.77374 0
M  V30 4380 H 400.712 -0.136633 6.55358 0
M  V30 4381 H 400.232 -1.65669 5.76467 0
M  V30 4382 H 401.911 -1.4236 6.31144 0
M  V30 4383 N 402.043 -1.548 -0.295768 0
M  V30 4384 C 403.291 -1.73985 -1.02828 0
M  V30 4385 C 403.612 -0.531406 -1.87619 0
M  V30 4386 O 402.882 0.454221 -1.90561 0
M  V30 4387 H 401.462 -0.641556 -0.382642 0
M  V30 4388 H 404.124 -1.92163 -0.325489 0
M  V30 4389 H 403.22 -2.63129 -1.67838 0
M  V30 4390 N 403.521 0.559213 -1.47345 0
M  V30 4391 C 404.77 1.31281 -1.53128 0
M  V30 4392 C 405.083 1.94602 -0.197344 0
M  V30 4393 O 406.289 2.71173 -0.133154 0
M  V30 4394 C 404.745 2.38051 -2.69925 0
M  V30 4395 C 404.353 1.8093 -4.0984 0
M  V30 4396 C 406.097 3.14604 -2.84999 0
M  V30 4397 C 404.004 2.85468 -5.1794 0
M  V30 4398 H 402.934 0.493614 -0.569966 0
M  V30 4399 H 405.585 0.594155 -1.73615 0
M  V30 4400 H 403.967 3.12822 -2.42814 0
M  V30 4401 H 405.141 1.12544 -4.46845 0
M  V30 4402 H 403.456 1.16967 -3.99634 0
M  V30 4403 H 406.053 3.92666 -3.62929 0
M  V30 4404 H 406.396 3.68665 -1.93369 0
M  V30 4405 H 406.929 2.46945 -3.1187 0
M  V30 4406 H 403.668 2.36264 -6.1144 0
M  V30 4407 H 403.188 3.52269 -4.85455 0
M  V30 4408 H 404.867 3.48996 -5.44803 0
M  V30 4409 N 404.999 1.35443 0.805782 0
M  V30 4410 C 406.224 1.32037 1.59941 0
M  V30 4411 C 406.649 -0.0994215 1.87837 0
M  V30 4412 O 406.007 -1.06648 1.46615 0
M  V30 4413 C 406.055 2.13354 2.90711 0
M  V30 4414 O 405.159 1.5148 3.83572 0
M  V30 4415 H 404.5 0.452666 0.485787 0
M  V30 4416 H 407.03 1.78496 1.00002 0
M  V30 4417 H 407.04 2.25338 3.40128 0
M  V30 4418 H 405.715 3.16572 2.69732 0
M  V30 4419 H 404.292 1.4834 3.42125 0
M  V30 4420 N 406.477 -1.02803 1.19454 0
M  V30 4421 C 407.424 -2.11099 0.933046 0
M  V30 4422 C 408.394 -1.65571 -0.132447 0
M  V30 4423 O 409.579 -1.90797 0.00987576 0
M  V30 4424 C 406.719 -3.41763 0.478747 0
M  V30 4425 C 405.832 -4.00833 1.6111 0
M  V30 4426 C 404.967 -5.19511 1.10825 0
M  V30 4427 C 404.006 -5.70639 2.21445 0
M  V30 4428 N 403.143 -6.80589 1.72461 0
M  V30 4429 H 407.983 -2.32804 1.86028 0
M  V30 4430 H 405.52 -1.14179 0.927441 0
M  V30 4431 H 407.478 -4.16736 0.196745 0
M  V30 4432 H 406.108 -3.20166 -0.411493 0
M  V30 4433 H 405.16 -3.23066 2.00829 0
M  V30 4434 H 406.472 -4.34794 2.4445 0
M  V30 4435 H 405.626 -6.01645 0.781533 0
M  V30 4436 H 404.365 -4.87086 0.244606 0
M  V30 4437 H 403.37 -4.87116 2.54947 0
M  V30 4438 H 404.595 -6.05102 3.08267 0
M  V30 4439 H 402.541 -6.50016 0.884056 0
M  V30 4440 H 402.458 -7.13681 2.49389 0
M  V30 4441 H 403.726 -7.66317 1.42755 0
M  V30 4442 N 407.956 -0.998596 -1.21925 0
M  V30 4443 C 408.919 -0.558679 -2.22287 0
M  V30 4444 C 409.919 0.361525 -1.56683 0
M  V30 4445 O 411.109 0.152695 -1.73529 0
M  V30 4446 C 408.241 0.18661 -3.40389 0
M  V30 4447 H 409.434 -1.4463 -2.62721 0
M  V30 4448 H 406.987 -0.786413 -1.35075 0
M  V30 4449 H 407.722 1.08996 -3.05435 0
M  V30 4450 H 407.507 -0.474188 -3.89222 0
M  V30 4451 H 408.997 0.482367 -4.14805 0
M  V30 4452 N 409.434 1.37368 -0.772513 0
M  V30 4453 C 410.683 1.98918 -0.333861 0
M  V30 4454 C 410.996 1.62017 1.09589 0
M  V30 4455 O 412.202 2.16676 1.63596 0
M  V30 4456 C 410.658 3.55735 -0.545971 0
M  V30 4457 C 410.266 4.01573 -1.98603 0
M  V30 4458 C 412.01 4.24156 -0.170979 0
M  V30 4459 C 409.917 5.51102 -2.1457 0
M  V30 4460 H 408.847 0.744214 -0.121085 0
M  V30 4461 H 411.498 1.56888 -0.95175 0
M  V30 4462 H 409.88 3.95748 0.141387 0
M  V30 4463 H 411.054 3.72803 -2.7084 0
M  V30 4464 H 409.369 3.45937 -2.31769 0
M  V30 4465 H 411.966 5.34024 -0.26878 0
M  V30 4466 H 412.309 4.06917 0.878855 0
M  V30 4467 H 412.842 3.89447 -0.810914 0
M  V30 4468 H 409.581 5.73268 -3.17875 0
M  V30 4469 H 409.101 5.81554 -1.46817 0
M  V30 4470 H 410.78 6.17083 -1.94468 0
M  V30 4471 N 410.912 0.523116 1.48665 0
M  V30 4472 C 411.862 -0.263106 2.26477 0
M  V30 4473 C 412.846 -0.916005 1.32281 0
M  V30 4474 O 414.038 -0.819946 1.56863 0
M  V30 4475 C 411.167 -1.31361 3.17174 0
M  V30 4476 C 410.253 -0.665849 4.1884 0
M  V30 4477 N 410.644 0.244434 5.05209 0
M  V30 4478 C 408.942 -0.923863 4.36326 0
M  V30 4479 C 409.643 0.617443 5.78414 0
M  V30 4480 N 408.619 -0.0198686 5.43596 0
M  V30 4481 H 412.421 0.437295 2.90629 0
M  V30 4482 H 409.935 0.340675 1.58787 0
M  V30 4483 H 411.932 -1.89052 3.71571 0
M  V30 4484 H 410.592 -2.01546 2.54576 0
M  V30 4485 H 411.603 0.616621 5.14216 0
M  V30 4486 H 408.28 -1.6168 3.84923 0
M  V30 4487 H 409.67 1.36346 6.57921 0
M  V30 4488 N 412.39 -1.55475 0.257931 0
M  V30 4489 C 413.62 -2.03314 -0.367026 0
M  V30 4490 C 414.028 -1.13625 -1.51281 0
M  V30 4491 O 413.371 -0.145334 -1.83124 0
M  V30 4492 C 413.433 -3.47362 -0.926284 0
M  V30 4493 C 413.097 -4.56914 0.0886584 0
M  V30 4494 C 414.094 -5.12013 0.902123 0
M  V30 4495 C 411.779 -5.01827 0.217936 0
M  V30 4496 C 413.773 -6.10529 1.83122 0
M  V30 4497 C 411.46 -6.00172 1.15052 0
M  V30 4498 C 412.458 -6.54402 1.95568 0
M  V30 4499 O 412.146 -7.50827 2.87253 0
M  V30 4500 H 411.878 -0.669976 -0.0900443 0
M  V30 4501 H 414.432 -2.01804 0.382673 0
M  V30 4502 H 412.662 -3.46056 -1.72575 0
M  V30 4503 H 414.351 -3.78637 -1.46249 0
M  V30 4504 H 415.117 -4.78139 0.812891 0
M  V30 4505 H 410.996 -4.59272 -0.398721 0
M  V30 4506 H 414.54 -6.52783 2.46008 0
M  V30 4507 H 410.437 -6.33465 1.24064 0
M  V30 4508 H 411.205 -7.68483 2.81739 0
M  V30 4509 N 413.868 0.0150385 -1.57593 0
M  V30 4510 C 414.798 1.01047 -2.10503 0
M  V30 4511 C 415.779 1.36816 -1.01071 0
M  V30 4512 O 416.964 1.45455 -1.28672 0
M  V30 4513 C 414.094 2.30708 -2.59598 0
M  V30 4514 C 413.048 2.09142 -3.73421 0
M  V30 4515 C 412.374 3.44685 -4.08774 0
M  V30 4516 C 413.674 1.46619 -5.01298 0
M  V30 4517 H 415.368 0.569978 -2.93925 0
M  V30 4518 H 412.914 0.272724 -1.41394 0
M  V30 4519 H 414.867 3.00687 -2.95238 0
M  V30 4520 H 413.591 2.76843 -1.73279 0
M  V30 4521 H 412.25 1.41592 -3.38153 0
M  V30 4522 H 411.898 3.88495 -3.195 0
M  V30 4523 H 411.598 3.31077 -4.8545 0
M  V30 4524 H 413.122 4.16004 -4.4696 0
M  V30 4525 H 414.536 2.06535 -5.34805 0
M  V30 4526 H 412.933 1.43544 -5.82679 0
M  V30 4527 H 414.003 0.433611 -4.82957 0
M  V30 4528 N 415.346 1.54954 0.287554 0
M  V30 4529 C 416.296 1.8322 1.357 0
M  V30 4530 C 417.28 0.690152 1.45347 0
M  V30 4531 O 418.472 0.951137 1.49273 0
M  V30 4532 C 415.601 2.09481 2.71979 0
M  V30 4533 C 414.687 3.29906 2.66502 0
M  V30 4534 N 415.078 4.50154 2.30641 0
M  V30 4535 C 413.376 3.32203 2.97585 0
M  V30 4536 C 414.077 5.32209 2.34794 0
M  V30 4537 N 413.053 4.70258 2.72688 0
M  V30 4538 H 416.855 2.73746 1.0696 0
M  V30 4539 H 414.369 1.54635 0.496167 0
M  V30 4540 H 416.366 2.27882 3.49107 0
M  V30 4541 H 415.026 1.2023 3.0162 0
M  V30 4542 H 416.037 4.76515 2.02865 0
M  V30 4543 H 412.714 2.53101 3.32034 0
M  V30 4544 H 414.104 6.38321 2.09753 0
M  V30 4545 N 416.824 -0.551391 1.4764 0
M  V30 4546 C 417.772 -1.67896 1.60978 0
M  V30 4547 C 418.766 -1.62549 0.476877 0
M  V30 4548 O 419.972 -1.67664 0.654878 0
M  V30 4549 H 416.347 -0.555649 0.506713 0
M  V30 4550 H 418.318 -1.53784 2.55721 0
M  V30 4551 C 417.067 -3.06234 1.64669 0
M  V30 4552 H 416.39 -3.11033 2.51194 0
M  V30 4553 H 417.83 -3.84804 1.7805 0
M  V30 4554 C 416.289 -3.34737 0.381115 0
M  V30 4555 O 416.819 -3.98381 -0.515297 0
M  V30 4556 N 415.025 -2.8944 0.259354 0
M  V30 4557 H 414.572 -2.37827 0.98976 0
M  V30 4558 H 414.53 -3.08882 -0.586464 0
M  V30 4559 N 418.302 -1.35869 -0.798587 0
M  V30 4560 C 419.548 -1.2978 -1.55836 0
M  V30 4561 C 419.881 0.125322 -1.93795 0
M  V30 4562 O 419.156 1.07658 -1.61987 0
M  V30 4563 C 419.439 -2.21188 -2.84162 0
M  V30 4564 C 419.292 -3.72155 -2.52628 0
M  V30 4565 C 420.611 -2.11545 -3.85923 0
M  V30 4566 H 417.73 -0.472769 -0.565383 0
M  V30 4567 H 420.372 -1.66341 -0.918192 0
M  V30 4568 H 418.522 -1.90139 -3.38791 0
M  V30 4569 H 420.194 -4.13682 -2.04121 0
M  V30 4570 H 418.437 -3.92042 -1.85704 0
M  V30 4571 H 419.108 -4.31511 -3.44242 0
M  V30 4572 H 421.584 -2.38855 -3.40716 0
M  V30 4573 H 420.46 -2.77688 -4.73477 0
M  V30 4574 H 420.721 -1.09987 -4.282 0
M  V30 4575 N 419.78 1.02168 -1.19998 0
M  V30 4576 C 420.712 2.10705 -0.901994 0
M  V30 4577 C 421.725 1.6244 0.108216 0
M  V30 4578 O 422.914 1.78082 -0.12214 0
M  V30 4579 C 420.014 3.37291 -0.329834 0
M  V30 4580 C 419.187 4.14714 -1.39035 0
M  V30 4581 C 418.246 5.19606 -0.830432 0
M  V30 4582 O 417.272 5.48809 -1.50989 0
M  V30 4583 N 418.474 5.79366 0.362696 0
M  V30 4584 H 421.239 2.36856 -1.83628 0
M  V30 4585 H 418.8 1.18518 -1.10296 0
M  V30 4586 H 420.792 4.04657 0.0587633 0
M  V30 4587 H 419.362 3.0843 0.508891 0
M  V30 4588 H 418.582 3.42392 -1.9535 0
M  V30 4589 H 419.87 4.63226 -2.10474 0
M  V30 4590 H 419.268 5.57968 0.932081 0
M  V30 4591 H 417.825 6.48106 0.69299 0
M  V30 4592 N 421.258 1.00505 1.21394 0
M  V30 4593 C 422.669 0.721082 1.72213 0
M  V30 4594 C 423.02 -0.761263 1.80829 0
M  V30 4595 O 422.145 -1.59464 1.46288 0
M  V30 4596 C 422.74 1.30228 3.12772 0
M  V30 4597 C 421.299 1.06743 3.60947 0
M  V30 4598 C 420.446 1.41507 2.38477 0
M  V30 4599 H 423.397 1.17594 1.06571 0
M  V30 4600 H 423.418 0.686955 3.74247 0
M  V30 4601 H 422.93 2.38115 3.06468 0
M  V30 4602 H 421.031 0.00572162 3.726 0
M  V30 4603 H 421.144 1.73936 4.46411 0
M  V30 4604 H 419.508 0.833852 2.40664 0
M  V30 4605 H 420.291 2.50424 2.34824 0
M  V30 4606 N 422.737 -1.36956 0.779787 0
M  V30 4607 C 423.977 -2.01328 0.353043 0
M  V30 4608 C 424.341 -1.60558 -1.05286 0
M  V30 4609 O 425.542 -2.1745 -1.58016 0
M  V30 4610 C 423.813 -3.53874 0.500822 0
M  V30 4611 S 425.372 -4.38506 0.16053 0
M  V30 4612 H 422.19 -0.69799 0.13539 0
M  V30 4613 H 424.792 -1.67016 1.01617 0
M  V30 4614 H 423.496 -3.81034 1.52451 0
M  V30 4615 H 423.027 -3.92994 -0.178574 0
M  V30 4616 H 425.042 -4.85153 -1.04121 0
M  V30 4617 N 424.215 -0.530993 -1.48385 0
M  V30 4618 C 425.44 0.000729535 -2.074 0
M  V30 4619 C 425.865 1.27298 -1.3848 0
M  V30 4620 O 425.223 1.75599 -0.451081 0
M  V30 4621 C 425.271 0.206697 -3.60007 0
M  V30 4622 O 424.375 1.27514 -3.92191 0
M  V30 4623 H 423.716 -0.039583 -0.662819 0
M  V30 4624 H 426.246 -0.739194 -1.9078 0
M  V30 4625 H 426.256 0.42904 -4.05738 0
M  V30 4626 H 424.931 -0.722675 -4.09573 0
M  V30 4627 H 423.508 1.03537 -3.58238 0
M  V30 4628 N 425.693 1.55336 -0.266172 0
M  V30 4629 C 426.939 1.99692 0.353681 0
M  V30 4630 C 427.272 1.1543 1.56172 0
M  V30 4631 O 426.547 0.222218 1.93226 0
M  V30 4632 C 426.83 3.52316 0.74466 0
M  V30 4633 C 426.683 4.47337 -0.470101 0
M  V30 4634 C 428.002 4.10588 1.58447 0
M  V30 4635 H 425.121 0.725961 0.12708 0
M  V30 4636 H 427.763 1.86336 -0.371333 0
M  V30 4637 H 425.913 3.63829 1.36239 0
M  V30 4638 H 427.585 4.4778 -1.10864 0
M  V30 4639 H 425.828 4.19364 -1.10978 0
M  V30 4640 H 426.499 5.51788 -0.15291 0
M  V30 4641 H 428.975 4.02297 1.06286 0
M  V30 4642 H 427.851 5.17607 1.82686 0
M  V30 4643 H 428.112 3.60253 2.56262 0
M  V30 4644 N 427.171 -0.0066808 1.57599 0
M  V30 4645 C 428.42 -0.692078 1.89455 0
M  V30 4646 C 428.733 -1.75306 0.867586 0
M  V30 4647 O 429.939 -2.49262 1.07614 0
M  V30 4648 C 428.395 -1.2821 3.36289 0
M  V30 4649 C 428.003 -0.256291 4.47266 0
M  V30 4650 C 429.747 -1.94608 3.77264 0
M  V30 4651 C 427.654 -0.855927 5.85173 0
M  V30 4652 H 426.584 -0.262252 0.706923 0
M  V30 4653 H 429.235 0.052769 1.83424 0
M  V30 4654 H 427.617 -2.0774 3.37135 0
M  V30 4655 H 428.791 0.513923 4.57925 0
M  V30 4656 H 427.106 0.306862 4.15268 0
M  V30 4657 H 429.703 -2.40364 4.77629 0
M  V30 4658 H 430.046 -2.77382 3.10427 0
M  V30 4659 H 430.579 -1.21822 3.78688 0
M  V30 4660 H 427.318 -0.0671161 6.55466 0
M  V30 4661 H 426.838 -1.59546 5.78191 0
M  V30 4662 H 428.517 -1.35658 6.32618 0
M  V30 4663 N 428.649 -1.55105 -0.279332 0
M  V30 4664 C 429.889 -1.7716 -1.01949 0
M  V30 4665 C 430.253 -0.557511 -1.83728 0
M  V30 4666 O 431.454 -0.656198 -2.60667 0
M  V30 4667 C 429.725 -3.0372 -1.88385 0
M  V30 4668 S 431.284 -3.46868 -2.68752 0
M  V30 4669 H 428.102 -0.62253 -0.343478 0
M  V30 4670 H 430.704 -1.93329 -0.290572 0
M  V30 4671 H 429.408 -3.90184 -1.2722 0
M  V30 4672 H 428.939 -2.902 -2.65608 0
M  V30 4673 H 430.954 -3.05643 -3.90892 0
M  V30 4674 N 430.127 0.543554 -1.4793 0
M  V30 4675 C 431.375 1.29752 -1.54948 0
M  V30 4676 C 431.696 1.93764 -0.219242 0
M  V30 4677 O 430.966 1.80639 0.75805 0
M  V30 4678 H 429.546 0.481874 -0.570795 0
M  V30 4679 H 432.208 0.633636 -1.84312 0
M  V30 4680 H 431.304 2.08392 -2.32334 0
M  V30 4681 N 431.605 1.3629 0.791371 0
M  V30 4682 C 432.83 1.33726 1.58531 0
M  V30 4683 C 433.255 -0.0794933 1.87932 0
M  V30 4684 O 432.613 -1.05087 1.47738 0
M  V30 4685 C 432.661 2.16425 2.88431 0
M  V30 4686 O 431.765 1.5554 3.81944 0
M  V30 4687 H 431.106 0.457793 0.480959 0
M  V30 4688 H 433.636 1.79547 0.981031 0
M  V30 4689 H 433.646 2.28933 3.37718 0
M  V30 4690 H 432.321 3.19415 2.66359 0
M  V30 4691 H 430.898 1.51961 3.40532 0
M  V30 4692 N 433.083 -1.0153 1.20538 0
M  V30 4693 C 434.332 -1.74558 1.01057 0
M  V30 4694 C 434.645 -1.90168 -0.457756 0
M  V30 4695 O 435.851 -2.60301 -0.771722 0
M  V30 4696 C 434.307 -3.13963 1.75941 0
M  V30 4697 C 433.915 -3.06361 3.26875 0
M  V30 4698 C 435.659 -3.91191 1.64832 0
M  V30 4699 C 433.566 -4.40782 3.94291 0
M  V30 4700 H 432.496 -0.654417 0.374505 0
M  V30 4701 H 435.147 -1.13521 1.44171 0
M  V30 4702 H 433.529 -3.75549 1.25614 0
M  V30 4703 H 434.703 -2.54074 3.84425 0
M  V30 4704 H 433.018 -2.42625 3.38411 0
M  V30 4705 H 435.615 -4.90644 2.12539 0
M  V30 4706 H 435.958 -4.11884 0.604745 0
M  V30 4707 H 436.491 -3.36236 2.12579 0
M  V30 4708 H 433.23 -4.25292 4.98805 0
M  V30 4709 H 432.75 -4.9307 3.41529 0
M  V30 4710 H 434.429 -5.09621 3.98617 0
M  V30 4711 N 434.561 -1.01147 -1.20859 0
M  V30 4712 C 435.786 -0.716698 -1.94623 0
M  V30 4713 C 436.211 0.715415 -1.73964 0
M  V30 4714 O 435.569 1.49157 -1.03062 0
M  V30 4715 C 435.617 -1.0513 -3.44935 0
M  V30 4716 O 434.721 -0.160131 -4.12089 0
M  V30 4717 H 434.062 -0.266404 -0.608214 0
M  V30 4718 H 436.592 -1.35346 -1.53436 0
M  V30 4719 H 436.602 -1.00086 -3.95533 0
M  V30 4720 H 435.277 -2.09475 -3.59295 0
M  V30 4721 H 433.854 -0.267657 -3.71938 0
M  V30 4722 N 436.039 1.36541 -0.78704 0
M  V30 4723 C 437.264 2.0409 -0.369053 0
M  V30 4724 C 437.689 1.58957 1.00569 0
M  V30 4725 O 437.047 0.756926 1.64743 0
M  V30 4726 C 437.095 3.57924 -0.438466 0
M  V30 4727 O 436.199 4.08642 0.555479 0
M  V30 4728 H 435.54 0.645142 -0.157122 0
M  V30 4729 H 438.07 1.74545 -1.06749 0
M  V30 4730 H 438.08 4.06887 -0.301218 0
M  V30 4731 H 436.755 3.90127 -1.44132 0
M  V30 4732 H 435.332 3.70958 0.380088 0
M  V30 4733 N 437.518 0.538854 1.48102 0
M  V30 4734 C 438.481 -0.208395 2.28251 0
M  V30 4735 C 439.481 -0.859656 1.35892 0
M  V30 4736 O 440.671 -0.71834 1.58699 0
M  V30 4737 C 437.803 -1.30252 3.15035 0
M  V30 4738 H 438.996 0.495407 2.9578 0
M  V30 4739 H 436.549 0.295112 1.53489 0
M  V30 4740 H 437.284 -2.0393 2.52157 0
M  V30 4741 H 437.069 -0.840551 3.82985 0
M  V30 4742 H 438.559 -1.82787 3.75471 0
M  V30 4743 N 438.996 -1.55193 0.274407 0
M  V30 4744 C 439.944 -2.23924 -0.629362 0
M  V30 4745 C 440.938 -1.23602 -1.1584 0
M  V30 4746 O 442.144 -1.41535 -1.11211 0
M  V30 4747 H 438.519 -0.718637 -0.221507 0
M  V30 4748 H 440.49 -2.98388 -0.0268322 0
M  V30 4749 C 439.239 -2.97329 -1.80252 0
M  V30 4750 H 438.562 -3.74313 -1.40462 0
M  V30 4751 H 440.002 -3.48743 -2.41152 0
M  V30 4752 C 438.461 -2.0276 -2.69054 0
M  V30 4753 O 438.991 -1.57836 -3.69392 0
M  V30 4754 N 437.197 -1.69275 -2.36208 0
M  V30 4755 H 436.744 -2.06004 -1.54661 0
M  V30 4756 H 436.702 -1.06271 -2.95895 0
M  V30 4757 N 440.474 -0.00167713 -1.576 0
M  V30 4758 C 441.723 0.682021 -1.89819 0
M  V30 4759 C 442.036 1.74844 -0.876871 0
M  V30 4760 O 443.242 2.48688 -1.08934 0
M  V30 4761 C 441.698 1.26425 -3.36964 0
M  V30 4762 C 441.306 0.232568 -4.47396 0
M  V30 4763 C 443.05 1.92604 -3.78291 0
M  V30 4764 C 440.957 0.824882 -5.85619 0
M  V30 4765 H 439.887 0.258499 -0.708304 0
M  V30 4766 H 442.538 -0.0624957 -1.83394 0
M  V30 4767 H 440.92 2.05949 -3.38232 0
M  V30 4768 H 442.094 -0.5382 -4.57646 0
M  V30 4769 H 440.409 -0.32888 -4.15099 0
M  V30 4770 H 443.006 2.37827 -4.78897 0
M  V30 4771 H 443.349 2.75732 -3.11894 0
M  V30 4772 H 443.882 1.19812 -3.79328 0
M  V30 4773 H 440.621 0.0323542 -6.55492 0
M  V30 4774 H 440.141 1.56477 -5.79029 0
M  V30 4775 H 441.82 1.32301 -6.33329 0
M  V30 4776 N 441.952 1.55251 0.271103 0
M  V30 4777 C 442.882 1.9127 1.33933 0
M  V30 4778 C 443.863 0.77478 1.5143 0
M  V30 4779 O 445.048 1.03307 1.64442 0
M  V30 4780 C 442.178 2.18627 2.69851 0
M  V30 4781 C 441.132 3.34442 2.67081 0
M  V30 4782 C 440.458 3.47284 4.06569 0
M  V30 4783 C 441.758 4.70784 2.26185 0
M  V30 4784 H 443.452 2.80744 1.04035 0
M  V30 4785 H 440.998 1.35077 0.499017 0
M  V30 4786 H 442.951 2.42413 3.44694 0
M  V30 4787 H 441.675 1.25955 3.01335 0
M  V30 4788 H 440.334 3.10627 1.94695 0
M  V30 4789 H 439.982 2.52074 4.35279 0
M  V30 4790 H 439.682 4.25152 4.0561 0
M  V30 4791 H 441.206 3.73363 4.83148 0
M  V30 4792 H 442.62 4.94102 2.90751 0
M  V30 4793 H 441.017 5.51582 2.36384 0
M  V30 4794 H 442.087 4.69478 1.21319 0
M  V30 4795 N 443.43 -0.535701 1.48216 0
M  V30 4796 C 444.36 -1.65014 1.65204 0
M  V30 4797 C 445.341 -1.62554 0.501011 0
M  V30 4798 O 446.526 -1.7984 0.732886 0
M  V30 4799 C 443.656 -3.03616 1.68626 0
M  V30 4800 C 442.61 -3.20932 2.83172 0
M  V30 4801 C 441.936 -4.60537 2.71679 0
M  V30 4802 C 443.236 -3.04249 4.24535 0
M  V30 4803 H 444.93 -1.51053 2.58502 0
M  V30 4804 H 442.476 -0.725262 1.24402 0
M  V30 4805 H 444.429 -3.81446 1.79099 0
M  V30 4806 H 443.153 -3.18587 0.719026 0
M  V30 4807 H 441.812 -2.45517 2.72244 0
M  V30 4808 H 441.46 -4.72336 1.72937 0
M  V30 4809 H 441.16 -4.73069 3.48538 0
M  V30 4810 H 442.684 -5.40475 2.84112 0
M  V30 4811 H 444.098 -3.71877 4.36326 0
M  V30 4812 H 442.495 -3.28278 5.02348 0
M  V30 4813 H 443.565 -2.00739 4.41397 0
M  V30 4814 N 444.908 -1.36708 -0.784132 0
M  V30 4815 C 446.185 -1.21776 -1.53069 0
M  V30 4816 C 446.565 0.193876 -2.10208 0
M  V30 4817 O 445.913 1.20012 -1.94446 0
M  V30 4818 C 446.123 -2.30395 -2.62143 0
M  V30 4819 C 447.471 -2.67325 -3.29882 0
M  V30 4820 O 448.495 -2.29478 -2.7243 0
M  V30 4821 O 447.354 -3.32485 -4.33724 0
M  V30 4822 H 444.448 -0.474459 -0.677361 0
M  V30 4823 H 446.994 -1.48454 -0.82216 0
M  V30 4824 H 445.766 -3.2498 -2.17953 0
M  V30 4825 H 445.389 -2.05112 -3.40609 0
M  V30 4826 N 446.386 1.0089 -1.21074 0
M  V30 4827 C 447.663 1.71834 -0.934469 0
M  V30 4828 C 448.043 2.0368 0.554753 0
M  V30 4829 O 447.391 1.70742 1.51854 0
M  V30 4830 C 447.601 2.98061 -1.8155 0
M  V30 4831 C 448.949 3.7117 -2.06199 0
M  V30 4832 O 449.973 3.08034 -1.78867 0
M  V30 4833 O 448.832 4.84721 -2.52404 0
M  V30 4834 H 445.926 0.749253 -0.35007 0
M  V30 4835 H 448.472 1.06668 -1.31985 0
M  V30 4836 H 447.244 2.70908 -2.82355 0
M  V30 4837 H 446.867 3.70968 -1.43068 0
M  V30 4838 N 447.864 1.01787 1.20321 0
M  V30 4839 C 448.796 0.547357 2.22568 0
M  V30 4840 C 449.809 -0.370922 1.58518 0
M  V30 4841 O 450.998 -0.169067 1.77698 0
M  V30 4842 C 448.098 -0.223031 3.38165 0
M  V30 4843 C 447.271 0.697472 4.31803 0
M  V30 4844 C 446.33 -0.025562 5.26194 0
M  V30 4845 O 445.356 0.597367 5.66057 0
M  V30 4846 N 446.558 -1.29999 5.65757 0
M  V30 4847 H 449.323 1.42668 2.63564 0
M  V30 4848 H 446.884 0.895552 1.34876 0
M  V30 4849 H 448.876 -0.716002 3.98316 0
M  V30 4850 H 447.446 -1.00366 2.9605 0
M  V30 4851 H 446.666 1.37073 3.69601 0
M  V30 4852 H 447.954 1.32347 4.91286 0
M  V30 4853 H 447.352 -1.827 5.35385 0
M  V30 4854 H 445.909 -1.73766 6.28211 0
M  V30 4855 N 449.342 -1.36122 0.79427 0
M  V30 4856 C 450.589 -1.99111 0.368905 0
M  V30 4857 C 450.917 -1.63032 -1.0607 0
M  V30 4858 O 450.172 -0.879303 -1.74833 0
M  V30 4859 C 450.471 -3.5409 0.48527 0
M  V30 4860 C 450.137 -4.10003 1.87638 0
M  V30 4861 C 448.799 -4.24986 2.257 0
M  V30 4862 C 451.151 -4.40423 2.78706 0
M  V30 4863 C 448.479 -4.67701 3.54221 0
M  V30 4864 C 450.831 -4.84573 4.0666 0
M  V30 4865 C 449.495 -4.97761 4.44737 0
M  V30 4866 H 448.765 -0.7286 0.134992 0
M  V30 4867 H 451.412 -1.62534 1.01267 0
M  V30 4868 H 449.717 -3.91052 -0.241984 0
M  V30 4869 H 451.414 -4.00766 0.137109 0
M  V30 4870 H 448.004 -3.98784 1.57064 0
M  V30 4871 H 452.188 -4.28412 2.50553 0
M  V30 4872 H 447.444 -4.761 3.83587 0
M  V30 4873 H 451.618 -5.07074 4.77336 0
M  V30 4874 H 449.245 -5.30618 5.44379 0
M  V30 4875 N 450.82 -0.546701 -1.47814 0
M  V30 4876 C 451.752 0.244196 -2.27895 0
M  V30 4877 C 452.765 0.88911 -1.36377 0
M  V30 4878 O 453.954 0.764733 -1.61289 0
M  V30 4879 C 451.054 1.36252 -3.10304 0
M  V30 4880 C 450.227 0.816382 -4.29714 0
M  V30 4881 C 449.286 1.81789 -4.93801 0
M  V30 4882 O 448.312 1.36818 -5.52512 0
M  V30 4883 N 449.514 3.15085 -4.87547 0
M  V30 4884 H 452.279 -0.442694 -2.96412 0
M  V30 4885 H 449.84 -0.382095 -1.57327 0
M  V30 4886 H 451.832 2.03102 -3.50045 0
M  V30 4887 H 450.402 1.95281 -2.44099 0
M  V30 4888 H 449.622 -0.0285981 -3.9419 0
M  V30 4889 H 450.91 0.430668 -5.06974 0
M  V30 4890 H 450.308 3.54275 -4.41028 0
M  V30 4891 H 448.865 3.77522 -5.31339 0
M  V30 4892 N 452.299 1.55045 -0.282633 0
M  V30 4893 C 453.71 1.85473 0.213655 0
M  V30 4894 C 454.061 1.20465 1.54863 0
M  V30 4895 O 453.186 0.495676 2.10647 0
M  V30 4896 C 453.781 3.36496 0.394445 0
M  V30 4897 C 452.34 3.67022 0.834961 0
M  V30 4898 C 451.487 2.77218 -0.0674081 0
M  V30 4899 H 454.438 1.50478 -0.504202 0
M  V30 4900 H 454.459 3.60007 1.23186 0
M  V30 4901 H 453.971 3.83782 -0.577326 0
M  V30 4902 H 452.072 3.25241 1.81794 0
M  V30 4903 H 452.185 4.74433 0.667075 0
M  V30 4904 H 450.549 2.5069 0.450196 0
M  V30 4905 H 451.332 3.2732 -1.0352 0
M  V30 4906 N 453.777 0.010035 1.57597 0
M  V30 4907 C 454.724 -0.978122 2.09049 0
M  V30 4908 C 455.694 -1.33509 0.988159 0
M  V30 4909 O 456.879 -1.43172 1.26121 0
M  V30 4910 C 454.019 -2.26158 2.60666 0
M  V30 4911 C 453.132 -1.96275 3.84838 0
M  V30 4912 C 452.267 -3.18776 4.24918 0
M  V30 4913 C 451.306 -2.84625 5.41899 0
M  V30 4914 N 450.443 -3.99693 5.77226 0
M  V30 4915 H 455.283 -0.532431 2.93205 0
M  V30 4916 H 452.82 -0.251234 1.44939 0
M  V30 4917 H 454.778 -3.01202 2.88675 0
M  V30 4918 H 453.408 -2.68378 1.79369 0
M  V30 4919 H 452.46 -1.11555 3.63675 0
M  V30 4920 H 453.772 -1.67111 4.69974 0
M  V30 4921 H 452.926 -4.02157 4.54262 0
M  V30 4922 H 451.665 -3.51087 3.38511 0
M  V30 4923 H 450.67 -1.99653 5.12268 0
M  V30 4924 H 451.895 -2.53551 6.29991 0
M  V30 4925 H 449.841 -4.31882 4.93776 0
M  V30 4926 H 449.758 -3.74087 6.56959 0
M  V30 4927 H 451.026 -4.83834 6.11167 0
M  V30 4928 N 455.255 -1.55392 -0.262866 0
M  V30 4929 C 456.185 -1.91978 -1.32917 0
M  V30 4930 C 457.166 -0.7828 -1.51017 0
M  V30 4931 O 458.351 -1.04178 -1.63892 0
M  V30 4932 C 455.481 -2.20055 -2.68687 0
M  V30 4933 C 454.435 -3.35854 -2.65304 0
M  V30 4934 C 453.761 -3.49435 -4.04721 0
M  V30 4935 C 455.061 -4.71977 -2.23685 0
M  V30 4936 H 456.755 -2.81292 -1.02544 0
M  V30 4937 H 454.301 -1.3534 -0.491846 0
M  V30 4938 H 456.254 -2.44237 -3.43404 0
M  V30 4939 H 454.978 -1.27551 -3.00663 0
M  V30 4940 H 453.637 -3.11655 -1.93045 0
M  V30 4941 H 453.285 -2.54379 -4.33936 0
M  V30 4942 H 452.985 -4.27297 -4.0335 0
M  V30 4943 H 454.509 -3.7592 -4.81161 0
M  V30 4944 H 455.923 -4.95637 -2.88127 0
M  V30 4945 H 454.32 -5.52828 -2.33456 0
M  V30 4946 H 455.39 -4.70115 -1.18827 0
M  V30 4947 N 456.733 0.527833 -1.48498 0
M  V30 4948 C 457.961 1.30823 -1.6029 0
M  V30 4949 C 458.376 1.86945 -0.263974 0
M  V30 4950 O 457.733 1.6651 0.747034 0
M  V30 4951 C 457.784 2.45756 -2.65116 0
M  V30 4952 O 457.505 1.91946 -3.93813 0
M  V30 4953 C 459.006 3.37543 -2.87367 0
M  V30 4954 H 456.226 0.397763 -0.540394 0
M  V30 4955 H 458.77 0.636529 -1.94341 0
M  V30 4956 H 456.925 3.08806 -2.33917 0
M  V30 4957 H 457.339 2.67195 -4.51339 0
M  V30 4958 H 458.813 4.14532 -3.6451 0
M  V30 4959 H 459.29 3.92905 -1.9627 0
M  V30 4960 H 459.896 2.80283 -3.19878 0
M  V30 4961 N 458.211 1.37122 0.776871 0
M  V30 4962 C 459.488 1.22586 1.52421 0
M  V30 4963 C 459.868 -0.182726 2.10308 0
M  V30 4964 O 459.216 -1.18979 1.9508 0
M  V30 4965 C 459.426 2.31782 2.60918 0
M  V30 4966 C 460.774 2.69071 3.2846 0
M  V30 4967 O 461.798 2.3092 2.71209 0
M  V30 4968 O 460.657 3.3478 4.31954 0
M  V30 4969 H 457.751 0.478045 0.674835 0
M  V30 4970 H 460.297 1.48888 0.814275 0
M  V30 4971 H 459.069 3.26131 2.16227 0
M  V30 4972 H 458.692 2.06916 3.39517 0
M  V30 4973 N 459.689 -1.00246 1.21608 0
M  V30 4974 C 460.936 -1.74061 1.03485 0
M  V30 4975 C 461.264 -1.89658 -0.431308 0
M  V30 4976 O 460.519 -1.42976 -1.33627 0
M  V30 4977 C 460.818 -3.15448 1.68009 0
M  V30 4978 C 460.484 -3.19792 3.17874 0
M  V30 4979 C 459.146 -3.20685 3.58768 0
M  V30 4980 C 461.498 -3.16835 4.13842 0
M  V30 4981 C 458.826 -3.16309 4.94131 0
M  V30 4982 C 461.178 -3.14001 5.49169 0
M  V30 4983 C 459.842 -3.13204 5.89457 0
M  V30 4984 H 459.112 -0.636934 0.378677 0
M  V30 4985 H 461.759 -1.17473 1.51236 0
M  V30 4986 H 460.064 -3.75284 1.12557 0
M  V30 4987 H 461.761 -3.71285 1.51487 0
M  V30 4988 H 458.351 -3.19842 2.85305 0
M  V30 4989 H 462.535 -3.15303 3.83272 0
M  V30 4990 H 457.791 -3.14032 5.24589 0
M  V30 4991 H 461.965 -3.10667 6.23265 0
M  V30 4992 H 459.592 -3.09568 6.94314 0
M  V30 4993 N 461.167 -1.02423 -1.1978 0
M  V30 4994 C 462.13 -0.605703 -2.21052 0
M  V30 4995 C 463.13 0.328209 -1.57415 0
M  V30 4996 O 464.32 0.115853 -1.73814 0
M  V30 4997 C 461.452 0.114366 -3.40708 0
M  V30 4998 H 462.645 -1.5017 -2.59594 0
M  V30 4999 H 460.198 -0.814888 -1.33376 0
M  V30 5000 H 460.933 1.02492 -3.07678 0
M  V30 5001 H 460.718 -0.556641 -3.88129 0
M  V30 5002 H 462.208 0.394272 -4.15735 0
M  V30 5003 N 462.645 1.35699 -0.801477 0
M  V30 5004 C 463.578 2.2768 -0.153922 0
M  V30 5005 C 464.556 1.47832 0.67709 0
M  V30 5006 O 465.74 1.77104 0.645474 0
M  V30 5007 C 462.867 3.2943 0.786986 0
M  V30 5008 C 461.913 4.26485 0.0362447 0
M  V30 5009 S 462.746 5.19573 -1.2963 0
M  V30 5010 C 463.902 6.24866 -0.359705 0
M  V30 5011 H 464.135 2.82254 -0.9338 0
M  V30 5012 H 461.668 1.42421 -0.596283 0
M  V30 5013 H 463.626 3.8855 1.32436 0
M  V30 5014 H 462.287 2.73745 1.54021 0
M  V30 5015 H 461.48 4.98378 0.750668 0
M  V30 5016 H 461.082 3.71508 -0.431017 0
M  V30 5017 H 463.374 6.75957 0.456954 0
M  V30 5018 H 464.317 7.00307 -1.04768 0
M  V30 5019 H 464.725 5.64484 0.0423274 0
M  V30 5020 N 464.123 0.554532 1.47522 0
M  V30 5021 C 465.086 -0.184174 2.28459 0
M  V30 5022 C 466.086 -0.845195 1.36796 0
M  V30 5023 O 467.276 -0.701467 1.59452 0
M  V30 5024 C 464.408 -1.26903 3.16399 0
M  V30 5025 H 465.601 0.526751 2.95238 0
M  V30 5026 H 463.154 0.311375 1.53167 0
M  V30 5027 H 463.889 -2.01244 2.54306 0
M  V30 5028 H 463.674 -0.799883 3.83854 0
M  V30 5029 H 465.164 -1.78794 3.77389 0
M  V30 5030 N 465.601 -1.54893 0.290851 0
M  V30 5031 C 466.551 -2.19838 -0.604599 0
M  V30 5032 C 467.535 -1.16805 -1.10659 0
M  V30 5033 O 468.727 -1.42562 -1.04905 0
M  V30 5034 C 465.856 -2.93497 -1.78086 0
M  V30 5035 C 464.942 -4.03835 -1.29531 0
M  V30 5036 N 465.333 -5.03047 -0.527024 0
M  V30 5037 C 463.631 -4.17192 -1.57693 0
M  V30 5038 C 464.332 -5.81074 -0.269728 0
M  V30 5039 N 463.308 -5.36966 -0.846651 0
M  V30 5040 H 467.11 -2.93898 -0.00995032 0
M  V30 5041 H 464.624 -1.62121 0.0951353 0
M  V30 5042 H 466.621 -3.38484 -2.43381 0
M  V30 5043 H 465.281 -2.2095 -2.37931 0
M  V30 5044 H 466.292 -5.17611 -0.172872 0
M  V30 5045 H 462.969 -3.55845 -2.18359 0
M  V30 5046 H 464.359 -6.71005 0.346643 0
M  V30 5047 N 467.08 -0.0183926 -1.57589 0
M  V30 5048 C 468.327 0.662562 -1.91354 0
M  V30 5049 C 468.655 1.72747 -0.893788 0
M  V30 5050 O 467.91 1.9545 0.0988509 0
M  V30 5051 C 468.209 1.32676 -3.31861 0
M  V30 5052 C 467.875 0.393267 -4.49182 0
M  V30 5053 C 466.537 0.136302 -4.81007 0
M  V30 5054 C 468.889 -0.248366 -5.20608 0
M  V30 5055 C 466.217 -0.770282 -5.81621 0
M  V30 5056 C 468.569 -1.14294 -6.22189 0
M  V30 5057 C 467.233 -1.4089 -6.52462 0
M  V30 5058 H 466.503 0.242448 -0.700214 0
M  V30 5059 H 469.15 -0.0778629 -1.91342 0
M  V30 5060 H 467.455 2.14168 -3.28084 0
M  V30 5061 H 469.152 1.86001 -3.55253 0
M  V30 5062 H 465.742 0.603723 -4.24327 0
M  V30 5063 H 469.926 -0.062883 -4.9626 0
M  V30 5064 H 465.182 -0.984154 -6.03427 0
M  V30 5065 H 469.356 -1.64637 -6.76659 0
M  V30 5066 H 466.983 -2.11306 -7.30242 0
M  V30 5067 N 468.558 1.5553 0.254621 0
M  V30 5068 C 469.974 1.4778 0.602753 0
M  V30 5069 C 470.174 0.707047 1.88688 0
M  V30 5070 O 469.23 0.233288 2.5142 0
M  V30 5071 C 470.543 2.92133 0.712648 0
M  V30 5072 C 472.091 3.02458 0.805488 0
M  V30 5073 C 472.566 4.48102 0.947009 0
M  V30 5074 N 474.057 4.52008 1.01207 0
M  V30 5075 C 474.792 5.61939 1.1407 0
M  V30 5076 N 474.288 6.81697 1.23536 0
M  V30 5077 N 476.081 5.49719 1.17325 0
M  V30 5078 H 468.232 2.04085 -0.588463 0
M  V30 5079 H 470.495 0.926229 -0.202001 0
M  V30 5080 H 470.201 3.51332 -0.160766 0
M  V30 5081 H 470.075 3.42187 1.58707 0
M  V30 5082 H 472.462 2.43344 1.66936 0
M  V30 5083 H 472.543 2.55627 -0.0939266 0
M  V30 5084 H 472.187 5.07824 0.087725 0
M  V30 5085 H 472.117 4.92607 1.86135 0
M  V30 5086 H 474.608 3.65749 0.950577 0
M  V30 5087 H 474.921 7.61228 1.33236 0
M  V30 5088 H 473.266 6.84473 1.20508 0
M  V30 5089 H 476.457 4.55095 1.09573 0
M  V30 5090 H 476.63 6.35432 1.27005 0
M  V30 5091 N 470.036 -0.519951 1.48776 0
M  V30 5092 C 471.261 -1.30447 1.6124 0
M  V30 5093 C 471.686 -1.86055 0.276591 0
M  V30 5094 O 471.044 -1.64915 -0.753183 0
M  V30 5095 C 471.092 -2.42406 2.66967 0
M  V30 5096 O 470.196 -3.45728 2.24824 0
M  V30 5097 H 469.537 -0.385924 0.540332 0
M  V30 5098 H 472.067 -0.624572 1.94834 0
M  V30 5099 H 472.077 -2.88447 2.88552 0
M  V30 5100 H 470.752 -2.01294 3.63941 0
M  V30 5101 H 469.329 -3.05737 2.13494 0
M  V30 5102 N 471.514 -1.37532 -0.769588 0
M  V30 5103 C 472.464 -1.29984 -1.87318 0
M  V30 5104 C 473.448 -0.187242 -1.59807 0
M  V30 5105 O 474.64 -0.421827 -1.719 0
M  V30 5106 C 471.769 -1.11126 -3.24817 0
M  V30 5107 C 470.855 -2.26939 -3.58273 0
M  V30 5108 N 471.246 -3.52336 -3.62895 0
M  V30 5109 C 469.544 -2.19141 -3.8845 0
M  V30 5110 C 470.245 -4.28719 -3.9316 0
M  V30 5111 N 469.221 -3.57884 -4.0917 0
M  V30 5112 H 473.023 -2.24946 -1.89147 0
M  V30 5113 H 470.537 -1.30535 -0.966143 0
M  V30 5114 H 472.534 -1.03803 -4.0377 0
M  V30 5115 H 471.194 -0.17083 -3.2425 0
M  V30 5116 H 472.205 -3.86216 -3.45048 0
M  V30 5117 H 468.882 -1.33167 -3.95693 0
M  V30 5118 H 470.272 -5.37254 -4.03494 0
M  V30 5119 N 472.992 0.995999 -1.22138 0
M  V30 5120 C 473.922 2.10387 -1.01289 0
M  V30 5121 C 474.903 1.69975 0.0651454 0
M  V30 5122 O 476.088 1.9396 -0.0964628 0
M  V30 5123 C 473.218 3.42312 -0.586517 0
M  V30 5124 C 472.172 3.96558 -1.61014 0
M  V30 5125 C 471.498 5.24494 -1.0397 0
M  V30 5126 C 472.798 4.27595 -2.99933 0
M  V30 5127 H 474.492 2.28086 -1.93951 0
M  V30 5128 H 472.038 1.09607 -0.933928 0
M  V30 5129 H 473.991 4.19223 -0.427793 0
M  V30 5130 H 472.715 3.24431 0.375761 0
M  V30 5131 H 471.374 3.21776 -1.75658 0
M  V30 5132 H 471.022 5.02953 -0.0688703 0
M  V30 5133 H 470.722 5.61755 -1.72352 0
M  V30 5134 H 472.246 6.04042 -0.892494 0
M  V30 5135 H 473.66 4.95315 -2.8868 0
M  V30 5136 H 472.057 4.76021 -3.6541 0
M  V30 5137 H 473.127 3.35498 -3.50099 0
M  V30 5138 N 474.47 1.03057 1.19235 0
M  V30 5139 C 475.38 0.622922 2.26179 0
M  V30 5140 C 476.396 -0.346113 1.70523 0
M  V30 5141 O 477.572 -0.203572 2.00369 0
M  V30 5142 C 474.637 -0.0182063 3.46695 0
M  V30 5143 C 473.698 0.998546 4.17526 0
M  V30 5144 C 472.931 0.387917 5.32288 0
M  V30 5145 O 473.154 -0.808668 5.64639 0
M  V30 5146 O 472.088 1.1116 5.91546 0
M  V30 5147 H 475.914 1.51363 2.63292 0
M  V30 5148 H 473.499 0.800856 1.26122 0
M  V30 5149 H 475.381 -0.375606 4.19723 0
M  V30 5150 H 474.056 -0.882895 3.11427 0
M  V30 5151 H 472.963 1.40756 3.4661 0
M  V30 5152 H 474.296 1.83366 4.56769 0
M  V30 5153 N 475.948 -1.35272 0.808662 0
M  V30 5154 C 476.898 -2.27181 0.193124 0
M  V30 5155 C 477.882 -1.47871 -0.634265 0
M  V30 5156 O 479.074 -1.70048 -0.491182 0
M  V30 5157 C 476.203 -3.36979 -0.655751 0
M  V30 5158 C 475.289 -4.23712 0.181481 0
M  V30 5159 N 475.68 -4.90225 1.24551 0
M  V30 5160 C 473.978 -4.45985 -0.0365493 0
M  V30 5161 C 474.679 -5.54537 1.75682 0
M  V30 5162 N 473.655 -5.33107 1.06294 0
M  V30 5163 H 477.457 -2.76101 1.00724 0
M  V30 5164 H 474.971 -1.48823 0.650029 0
M  V30 5165 H 476.968 -4.01774 -1.11279 0
M  V30 5166 H 475.628 -2.89611 -1.46819 0
M  V30 5167 H 476.639 -4.91641 1.62818 0
M  V30 5168 H 473.316 -4.09409 -0.817964 0
M  V30 5169 H 474.706 -6.17597 2.64621 0
M  V30 5170 N 477.426 -0.562348 -1.47226 0
M  V30 5171 C 478.358 0.220011 -2.28142 0
M  V30 5172 C 479.371 0.874596 -1.37312 0
M  V30 5173 O 480.56 0.747583 -1.62091 0
M  V30 5174 C 477.66 1.32953 -3.11732 0
M  V30 5175 C 476.833 0.770759 -4.30556 0
M  V30 5176 C 475.892 1.76541 -4.95701 0
M  V30 5177 O 474.918 1.3095 -5.53932 0
M  V30 5178 N 476.12 3.09896 -4.90861 0
M  V30 5179 H 478.885 -0.474107 -2.95926 0
M  V30 5180 H 476.446 -0.398761 -1.56912 0
M  V30 5181 H 478.438 1.99378 -3.5218 0
M  V30 5182 H 477.008 1.92681 -2.46156 0
M  V30 5183 H 476.228 -0.0704056 -3.94137 0
M  V30 5184 H 477.516 0.376872 -5.07402 0
M  V30 5185 H 476.914 3.49577 -4.44761 0
M  V30 5186 H 475.471 3.71865 -5.35313 0
M  V30 5187 N 478.904 1.54736 -0.299062 0
M  V30 5188 C 480.129 2.04975 0.316254 0
M  V30 5189 C 480.554 1.17501 1.46885 0
M  V30 5190 O 479.912 0.178678 1.80417 0
M  V30 5191 C 479.96 3.52672 0.751997 0
M  V30 5192 O 479.064 3.68226 1.85697 0
M  V30 5193 H 478.405 0.661126 0.0617175 0
M  V30 5194 H 480.935 1.99805 -0.440341 0
M  V30 5195 H 480.945 3.94488 1.04133 0
M  V30 5196 H 479.62 4.158 -0.0911482 0
M  V30 5197 H 478.197 3.38316 1.56834 0
M  V30 5198 N 480.382 0.0267497 1.57577 0
M  V30 5199 C 481.622 -0.65659 1.93567 0
M  V30 5200 C 481.986 -1.69429 0.903213 0
M  V30 5201 O 483.187 -2.42994 1.14923 0
M  V30 5202 C 481.458 -1.25912 3.34486 0
M  V30 5203 S 483.017 -1.96386 3.924 0
M  V30 5204 H 479.835 -0.216237 0.67732 0
M  V30 5205 H 482.437 0.0898475 1.95293 0
M  V30 5206 H 481.141 -0.491405 4.07447 0
M  V30 5207 H 480.672 -2.04291 3.36198 0
M  V30 5208 H 482.687 -3.24202 3.75643 0
M  V30 5209 N 481.861 -1.55662 -0.24637 0
M  V30 5210 C 483.089 -1.81575 -0.991876 0
M  V30 5211 C 483.504 -0.602545 -1.78927 0
M  V30 5212 O 482.861 0.428795 -1.77391 0
M  V30 5213 C 482.912 -3.05711 -1.92933 0
M  V30 5214 O 482.633 -4.22348 -1.1642 0
M  V30 5215 C 484.134 -3.44428 -2.79078 0
M  V30 5216 H 481.354 -0.604209 -0.291844 0
M  V30 5217 H 483.898 -2.02722 -0.269095 0
M  V30 5218 H 482.053 -2.86612 -2.60638 0
M  V30 5219 H 482.467 -4.92706 -1.79835 0
M  V30 5220 H 483.941 -4.34388 -3.40603 0
M  V30 5221 H 484.418 -2.65037 -3.50217 0
M  V30 5222 H 485.024 -3.65879 -2.16824 0
M  V30 5223 N 483.339 0.512053 -1.4905 0
M  V30 5224 C 484.588 1.26343 -1.57227 0
M  V30 5225 C 484.901 1.93876 -0.259155 0
M  V30 5226 O 486.107 2.70612 -0.219358 0
M  V30 5227 C 484.563 2.29343 -2.77362 0
M  V30 5228 C 484.171 1.67799 -4.15388 0
M  V30 5229 C 485.915 3.05378 -2.94864 0
M  V30 5230 C 483.822 2.68845 -5.2676 0
M  V30 5231 H 482.752 0.475231 -0.585382 0
M  V30 5232 H 485.403 0.53862 -1.75417 0
M  V30 5233 H 483.785 3.04938 -2.52643 0
M  V30 5234 H 484.959 0.982715 -4.50199 0
M  V30 5235 H 483.274 1.04194 -4.03153 0
M  V30 5236 H 485.871 3.80921 -3.75238 0
M  V30 5237 H 486.214 3.62327 -2.05 0
M  V30 5238 H 486.747 2.36898 -3.19569 0
M  V30 5239 H 483.486 2.16692 -6.18647 0
M  V30 5240 H 483.006 3.36647 -4.96416 0
M  V30 5241 H 484.685 3.31487 -5.5563 0
M  V30 5242 N 484.817 1.37938 0.762283 0
M  V30 5243 C 485.765 1.34569 1.89721 0
M  V30 5244 C 486.759 0.232929 1.67791 0
M  V30 5245 O 487.965 0.401485 1.75465 0
M  V30 5246 H 484.34 0.419594 0.624055 0
M  V30 5247 H 486.311 2.30357 1.8968 0
M  V30 5248 C 485.06 1.17898 3.27101 0
M  V30 5249 H 484.383 2.02781 3.44558 0
M  V30 5250 H 485.823 1.19593 4.06784 0
M  V30 5251 C 484.282 -0.114728 3.36705 0
M  V30 5252 O 484.812 -1.0949 3.8649 0
M  V30 5253 N 483.018 -0.16863 2.9011 0
M  V30 5254 H 482.565 0.62967 2.49786 0
M  V30 5255 H 482.523 -1.03383 2.96916 0
M  V30 5256 N 486.295 -0.989507 1.22664 0
M  V30 5257 C 487.228 -2.07805 0.942985 0
M  V30 5258 C 488.206 -1.6219 -0.115356 0
M  V30 5259 O 489.39 -1.88492 0.0169565 0
M  V30 5260 C 486.517 -3.361 0.418898 0
M  V30 5261 C 485.563 -4.00643 1.46244 0
M  V30 5262 S 486.396 -4.41059 3.03689 0
M  V30 5263 C 487.552 -5.7252 2.52927 0
M  V30 5264 H 487.785 -2.31547 1.86476 0
M  V30 5265 H 485.318 -1.12446 1.05808 0
M  V30 5266 H 487.276 -4.10315 0.123114 0
M  V30 5267 H 485.937 -3.10383 -0.481818 0
M  V30 5268 H 485.13 -4.93033 1.04569 0
M  V30 5269 H 484.732 -3.32767 1.7071 0
M  V30 5270 H 487.024 -6.49017 1.94379 0
M  V30 5271 H 487.967 -6.19026 3.4382 0
M  V30 5272 H 488.375 -5.30083 1.94094 0
M  V30 5273 N 487.773 -1.03688 -1.18687 0
M  V30 5274 C 489.001 -0.757918 -1.92518 0
M  V30 5275 C 489.416 0.684398 -1.75959 0
M  V30 5276 O 488.773 1.46617 -1.08673 0
M  V30 5277 C 488.824 -1.10985 -3.44042 0
M  V30 5278 O 488.545 -2.49554 -3.60076 0
M  V30 5279 C 490.046 -0.854844 -4.3498 0
M  V30 5280 H 487.266 -0.276699 -0.611293 0
M  V30 5281 H 489.81 -1.38352 -1.50595 0
M  V30 5282 H 487.965 -0.529279 -3.83767 0
M  V30 5283 H 488.379 -2.6291 -4.53849 0
M  V30 5284 H 489.853 -1.15098 -5.39867 0
M  V30 5285 H 490.33 0.210507 -4.38695 0
M  V30 5286 H 490.936 -1.41853 -4.00946 0
M  V30 5287 N 489.251 1.34841 -0.815825 0
M  V30 5288 C 490.476 2.03261 -0.41226 0
M  V30 5289 C 490.901 1.61055 0.971751 0
M  V30 5290 O 490.259 0.7917 1.63101 0
M  V30 5291 C 490.307 3.56914 -0.514289 0
M  V30 5292 O 489.411 4.09728 0.468675 0
M  V30 5293 H 488.752 0.641664 -0.170771 0
M  V30 5294 H 491.282 1.72241 -1.10427 0
M  V30 5295 H 491.292 4.06156 -0.387457 0
M  V30 5296 H 489.967 3.86982 -1.52375 0
M  V30 5297 H 488.544 3.71681 0.301316 0
M  V30 5298 N 490.729 0.570148 1.46925 0
M  V30 5299 C 491.954 0.0542592 2.07329 0
M  V30 5300 C 492.379 -1.23582 1.41806 0
M  V30 5301 O 491.737 -1.74341 0.497479 0
M  V30 5302 C 491.785 -0.111175 3.60429 0
M  V30 5303 O 490.889 -1.17071 3.95434 0
M  V30 5304 H 490.23 0.0571425 0.661537 0
M  V30 5305 H 492.76 0.789516 1.88753 0
M  V30 5306 H 492.77 -0.321315 4.06733 0
M  V30 5307 H 491.445 0.831012 4.07513 0
M  V30 5308 H 490.022 -0.940029 3.60857 0
M  V30 5309 N 492.207 -1.54576 0.307264 0
M  V30 5310 C 493.432 -2.05139 -0.305379 0
M  V30 5311 C 493.857 -1.18278 -1.46259 0
M  V30 5312 O 493.215 -0.188243 -1.8032 0
M  V30 5313 C 493.263 -3.53066 -0.733283 0
M  V30 5314 O 492.367 -3.69206 -1.83741 0
M  V30 5315 H 491.708 -0.661444 -0.0582105 0
M  V30 5316 H 494.238 -1.99569 0.450931 0
M  V30 5317 H 494.248 -3.95034 -1.02039 0
M  V30 5318 H 492.923 -4.15746 0.113198 0
M  V30 5319 H 491.5 -3.39143 -1.55037 0
M  V30 5320 N 493.685 -0.035106 -1.57561 0
M  V30 5321 C 494.91 0.655802 -1.96759 0
M  V30 5322 C 495.335 1.64523 -0.911809 0
M  V30 5323 O 494.693 1.80857 0.126673 0
M  V30 5324 C 494.741 1.33326 -3.35047 0
M  V30 5325 O 493.845 2.44866 -3.31835 0
M  V30 5326 H 493.186 0.171807 -0.641388 0
M  V30 5327 H 495.716 -0.0987369 -2.04362 0
M  V30 5328 H 495.726 1.68867 -3.71413 0
M  V30 5329 H 494.401 0.608033 -4.11431 0
M  V30 5330 H 492.978 2.11392 -3.07193 0
M  V30 5331 N 495.163 1.55791 0.238111 0
M  V30 5332 C 496.11 1.9105 1.29493 0
M  V30 5333 C 497.08 0.765733 1.47397 0
M  V30 5334 O 498.265 1.02017 1.61236 0
M  V30 5335 C 495.405 2.21826 2.64362 0
M  V30 5336 C 494.518 3.49153 2.54394 0
M  V30 5337 C 493.653 3.69455 3.81676 0
M  V30 5338 C 492.692 4.90353 3.66361 0
M  V30 5339 N 491.829 5.07131 4.85554 0
M  V30 5340 H 496.669 2.81172 0.987233 0
M  V30 5341 H 494.206 1.39179 0.476203 0
M  V30 5342 H 496.164 2.37675 3.4288 0
M  V30 5343 H 494.794 1.34897 2.93262 0
M  V30 5344 H 493.846 3.41587 1.67399 0
M  V30 5345 H 495.158 4.37818 2.38991 0
M  V30 5346 H 494.312 3.85311 4.68636 0
M  V30 5347 H 493.051 2.7904 3.99985 0
M  V30 5348 H 492.056 4.74464 2.77784 0
M  V30 5349 H 493.281 5.82237 3.49538 0
M  V30 5350 H 491.227 4.19654 5.04209 0
M  V30 5351 H 491.144 5.89899 4.72816 0
M  V30 5352 H 492.412 5.27407 5.73988 0
M  V30 5353 N 496.642 -0.504142 1.49319 0
M  V30 5354 C 497.592 -1.60284 1.62151 0
M  V30 5355 C 498.576 -1.53657 0.477315 0
M  V30 5356 O 499.768 -1.6124 0.730108 0
M  V30 5357 C 496.897 -2.98909 1.68844 0
M  V30 5358 C 495.983 -3.10544 2.8883 0
M  V30 5359 N 496.374 -2.92078 4.12946 0
M  V30 5360 C 494.672 -3.4164 2.86702 0
M  V30 5361 C 495.373 -3.07812 4.93585 0
M  V30 5362 N 494.349 -3.36549 4.26891 0
M  V30 5363 H 498.151 -1.44656 2.55835 0
M  V30 5364 H 495.665 -0.710198 1.46048 0
M  V30 5365 H 497.662 -3.77865 1.76134 0
M  V30 5366 H 496.322 -3.15609 0.762943 0
M  V30 5367 H 497.333 -2.68316 4.42975 0
M  V30 5368 H 494.01 -3.64537 2.03517 0
M  V30 5369 H 495.4 -2.98054 6.02174 0
M  V30 5370 N 498.12 -1.38341 -0.754957 0
M  V30 5371 C 499.05 -1.38176 -1.88227 0
M  V30 5372 C 500.031 -0.247873 -1.68284 0
M  V30 5373 O 501.216 -0.45075 -1.88896 0
M  V30 5374 C 498.346 -1.20471 -3.25736 0
M  V30 5375 C 497.3 -2.3105 -3.60278 0
M  V30 5376 C 496.626 -1.98452 -4.96509 0
M  V30 5377 C 497.926 -3.73305 -3.65295 0
M  V30 5378 H 499.62 -2.32512 -1.88622 0
M  V30 5379 H 497.166 -1.1192 -0.906082 0
M  V30 5380 H 499.119 -1.18982 -4.04254 0
M  V30 5381 H 497.843 -0.225965 -3.25817 0
M  V30 5382 H 496.502 -2.31723 -2.84078 0
M  V30 5383 H 496.15 -0.990641 -4.93148 0
M  V30 5384 H 495.85 -2.7251 -5.20588 0
M  V30 5385 H 497.374 -1.98578 -5.77407 0
M  V30 5386 H 498.788 -3.7467 -4.3393 0
M  V30 5387 H 497.185 -4.46557 -4.00883 0
M  V30 5388 H 498.255 -4.05719 -2.65556 0
M  V30 5389 N 499.598 0.982988 -1.23187 0
M  V30 5390 C 500.844 1.7273 -1.07405 0
M  V30 5391 C 501.199 1.885 0.385447 0
M  V30 5392 O 500.492 1.4243 1.28157 0
M  V30 5393 C 500.686 3.12736 -1.73006 0
M  V30 5394 C 500.515 3.10621 -3.25184 0
M  V30 5395 C 499.285 3.15957 -3.94334 0
M  V30 5396 C 501.483 2.93992 -4.21987 0
M  V30 5397 N 499.465 3.03701 -5.33516 0
M  V30 5398 C 500.836 2.8987 -5.48065 0
M  V30 5399 C 502.891 2.78457 -4.12754 0
M  V30 5400 C 501.594 2.71804 -6.65969 0
M  V30 5401 C 503.62 2.61754 -5.30319 0
M  V30 5402 C 502.982 2.58328 -6.55321 0
M  V30 5403 H 499.081 0.641279 -0.447533 0
M  V30 5404 H 501.665 1.16664 -1.55877 0
M  V30 5405 H 499.836 3.67026 -1.2707 0
M  V30 5406 H 501.568 3.75786 -1.50224 0
M  V30 5407 H 498.323 3.24034 -3.45397 0
M  V30 5408 H 498.747 3.00855 -6.06478 0
M  V30 5409 H 503.389 2.79898 -3.16886 0
M  V30 5410 H 501.107 2.69108 -7.61975 0
M  V30 5411 H 504.693 2.50702 -5.25014 0
M  V30 5412 H 503.573 2.45564 -7.4476 0
M  V30 5413 N 501.076 1.04316 1.18135 0
M  V30 5414 C 502.306 0.767003 1.91835 0
M  V30 5415 C 502.714 -0.68002 1.76557 0
M  V30 5416 O 502.057 -1.47548 1.09432 0
M  V30 5417 C 502.119 1.05674 3.43618 0
M  V30 5418 C 501.783 2.49818 3.82675 0
M  V30 5419 C 502.78 3.48003 3.86251 0
M  V30 5420 C 500.465 2.84596 4.13897 0
M  V30 5421 C 502.459 4.79016 4.20503 0
M  V30 5422 C 500.146 4.15813 4.4782 0
M  V30 5423 C 501.144 5.12834 4.51099 0
M  V30 5424 O 500.832 6.41699 4.84229 0
M  V30 5425 H 500.564 0.278948 0.615763 0
M  V30 5426 H 503.118 1.3946 1.50798 0
M  V30 5427 H 501.348 0.372029 3.84906 0
M  V30 5428 H 503.037 0.767994 3.98568 0
M  V30 5429 H 503.803 3.22475 3.62264 0
M  V30 5430 H 499.682 2.09748 4.1052 0
M  V30 5431 H 503.226 5.54739 4.22978 0
M  V30 5432 H 499.123 4.41109 4.71268 0
M  V30 5433 H 499.891 6.46387 5.02121 0
M  V30 5434 N 502.554 -1.34406 0.822964 0
M  V30 5435 C 503.487 -2.27407 0.190124 0
M  V30 5436 C 504.465 -1.4889 -0.653486 0
M  V30 5437 O 505.649 -1.78109 -0.617216 0
M  V30 5438 C 502.776 -3.3064 -0.734477 0
M  V30 5439 C 501.822 -4.26488 0.0316099 0
M  V30 5440 S 502.655 -5.17445 1.3788 0
M  V30 5441 C 503.811 -6.24214 0.45907 0
M  V30 5442 H 504.044 -2.80733 0.978586 0
M  V30 5443 H 501.577 -1.41455 0.618866 0
M  V30 5444 H 503.535 -3.90607 -1.26238 0
M  V30 5445 H 502.196 -2.76161 -1.49646 0
M  V30 5446 H 501.389 -4.9951 -0.671285 0
M  V30 5447 H 500.991 -3.70775 0.490066 0
M  V30 5448 H 503.283 -6.76599 -0.349357 0
M  V30 5449 H 504.226 -6.98551 1.15896 0
M  V30 5450 H 504.634 -5.6448 0.0474825 0
M  V30 5451 N 504.032 -0.577932 -1.46621 0
M  V30 5452 C 505.443 -0.150071 -1.86096 0
M  V30 5453 C 505.794 1.28563 -1.48209 0
M  V30 5454 O 504.919 1.97036 -0.894754 0
M  V30 5455 C 505.514 -0.265576 -3.37758 0
M  V30 5456 C 504.073 0.10738 -3.76247 0
M  V30 5457 C 503.22 -0.603711 -2.70649 0
M  V30 5458 H 506.171 -0.786438 -1.37844 0
M  V30 5459 H 506.192 0.510352 -3.77062 0
M  V30 5460 H 505.704 -1.3106 -3.65301 0
M  V30 5461 H 503.805 1.15272 -3.54321 0
M  V30 5462 H 503.918 -0.26561 -4.78363 0
M  V30 5463 H 502.282 -0.0444884 -2.54661 0
M  V30 5464 H 503.065 -1.65029 -3.01032 0
M  V30 5465 N 505.51 1.54411 -0.315457 0
M  V30 5466 C 506.42 2.27737 0.56329 0
M  V30 5467 C 507.436 1.31787 1.13614 0
M  V30 5468 O 508.612 1.64791 1.15784 0
M  V30 5469 C 505.677 3.01478 1.71207 0
M  V30 5470 C 504.738 4.12997 1.17185 0
M  V30 5471 C 503.971 4.83212 2.26588 0
M  V30 5472 O 504.194 4.52884 3.46775 0
M  V30 5473 O 503.128 5.70299 1.92463 0
M  V30 5474 H 506.954 3.03683 -0.0319614 0
M  V30 5475 H 504.539 1.49178 -0.0814188 0
M  V30 5476 H 506.421 3.47683 2.38106 0
M  V30 5477 H 505.096 2.28414 2.29366 0
M  V30 5478 H 504.003 3.71159 0.468174 0
M  V30 5479 H 505.336 4.8808 0.635501 0
M  V30 5480 N 506.988 0.0434614 1.5754 0
M  V30 5481 C 507.898 -0.94893 2.14552 0
M  V30 5482 C 508.914 -1.34707 1.10136 0
M  V30 5483 O 510.09 -1.42557 1.42266 0
M  V30 5484 C 507.155 -2.208 2.67298 0
M  V30 5485 C 506.216 -1.86893 3.86484 0
M  V30 5486 C 505.449 -3.06797 4.36705 0
M  V30 5487 O 505.672 -4.19921 3.86034 0
M  V30 5488 O 504.606 -2.8826 5.28384 0
M  V30 5489 H 508.432 -0.494099 2.99654 0
M  V30 5490 H 506.017 -0.177989 1.48336 0
M  V30 5491 H 507.899 -2.94686 3.01228 0
M  V30 5492 H 506.574 -2.65436 1.85272 0
M  V30 5493 H 505.481 -1.10347 3.57455 0
M  V30 5494 H 506.814 -1.47062 4.69716 0
M  V30 5495 N 508.466 -1.55915 -0.229846 0
M  V30 5496 C 509.696 -1.82352 -0.971152 0
M  V30 5497 C 510.104 -0.619231 -1.7878 0
M  V30 5498 O 509.447 0.421597 -1.78797 0
M  V30 5499 C 509.509 -3.02399 -1.9441 0
M  V30 5500 C 509.173 -4.37739 -1.31277 0
M  V30 5501 C 510.17 -5.15074 -0.706757 0
M  V30 5502 C 507.855 -4.84454 -1.32702 0
M  V30 5503 C 509.849 -6.37281 -0.123413 0
M  V30 5504 C 507.536 -6.06605 -0.739831 0
M  V30 5505 C 508.534 -6.82858 -0.139071 0
M  V30 5506 O 508.222 -8.027 0.439007 0
M  V30 5507 H 507.954 -0.61035 -0.290601 0
M  V30 5508 H 510.508 -2.03839 -0.252746 0
M  V30 5509 H 508.738 -2.76709 -2.70128 0
M  V30 5510 H 510.427 -3.15779 -2.55026 0
M  V30 5511 H 511.193 -4.80093 -0.688131 0
M  V30 5512 H 507.072 -4.25081 -1.78402 0
M  V30 5513 H 510.616 -6.96741 0.346124 0
M  V30 5514 H 506.513 -6.4106 -0.755841 0
M  V30 5515 H 507.281 -8.17824 0.332521 0
M  V30 5516 N 509.944 0.496216 -1.49584 0
M  V30 5517 C 511.193 1.24668 -1.58558 0
M  V30 5518 C 511.506 1.9359 -0.279703 0
M  V30 5519 O 512.712 2.70365 -0.248048 0
M  V30 5520 C 511.168 2.26388 -2.79779 0
M  V30 5521 C 510.776 1.63384 -4.17145 0
M  V30 5522 C 512.52 3.02233 -2.98086 0
M  V30 5523 C 510.427 2.63243 -5.29582 0
M  V30 5524 H 509.357 0.468995 -0.590389 0
M  V30 5525 H 512.008 0.519985 -1.75978 0
M  V30 5526 H 510.39 3.02241 -2.55863 0
M  V30 5527 H 511.564 0.93491 -4.51216 0
M  V30 5528 H 509.879 0.999121 -4.04236 0
M  V30 5529 H 512.476 3.76919 -3.79257 0
M  V30 5530 H 512.819 3.60132 -2.08831 0
M  V30 5531 H 513.352 2.33495 -3.22063 0
M  V30 5532 H 510.091 2.10119 -6.20911 0
M  V30 5533 H 509.611 3.31363 -4.99959 0
M  V30 5534 H 511.29 3.25575 -5.59115 0
M  V30 5535 N 511.423 1.38739 0.74761 0
M  V30 5536 C 512.839 1.20067 1.05148 0
M  V30 5537 C 513.039 0.0534835 2.01429 0
M  V30 5538 O 512.095 -0.59886 2.45296 0
M  V30 5539 C 513.408 2.52957 1.62584 0
M  V30 5540 C 514.956 2.59692 1.74726 0
M  V30 5541 C 515.431 3.92772 2.35573 0
M  V30 5542 N 516.922 3.94343 2.42997 0
M  V30 5543 C 517.657 4.9408 2.90985 0
M  V30 5544 N 517.153 6.04214 3.38965 0
M  V30 5545 N 518.946 4.81466 2.9008 0
M  V30 5546 H 511.097 2.12121 0.108808 0
M  V30 5547 H 513.36 0.941491 0.110899 0
M  V30 5548 H 513.066 3.37389 0.993051 0
M  V30 5549 H 512.94 2.71779 2.61565 0
M  V30 5550 H 515.327 1.75651 2.3713 0
M  V30 5551 H 515.408 2.44731 0.744326 0
M  V30 5552 H 515.052 4.77238 1.738 0
M  V30 5553 H 514.982 4.05046 3.36519 0
M  V30 5554 H 517.473 3.14799 2.0907 0
M  V30 5555 H 517.786 6.76241 3.74056 0
M  V30 5556 H 516.131 6.07825 3.37007 0
M  V30 5557 H 519.322 3.94535 2.51912 0
M  V30 5558 H 519.495 5.59344 3.27166 0
M  V30 5559 N 512.901 -0.976442 1.23707 0
M  V30 5560 C 513.833 -2.07212 0.979574 0
M  V30 5561 C 514.846 -1.6273 -0.0478528 0
M  V30 5562 O 516.035 -1.77506 0.18815 0
M  V30 5563 C 513.135 -3.35835 0.45479 0
M  V30 5564 C 512.308 -4.09268 1.54331 0
M  V30 5565 C 511.367 -5.16166 1.02271 0
M  V30 5566 O 510.393 -5.42827 1.71254 0
M  V30 5567 N 511.595 -5.80313 -0.147419 0
M  V30 5568 H 514.36 -2.29878 1.92292 0
M  V30 5569 H 511.921 -1.14343 1.14618 0
M  V30 5570 H 513.913 -4.04597 0.0914631 0
M  V30 5571 H 512.483 -3.10106 -0.394068 0
M  V30 5572 H 511.703 -3.34906 2.07923 0
M  V30 5573 H 512.991 -4.55095 2.27522 0
M  V30 5574 H 512.389 -5.61043 -0.724353 0
M  V30 5575 H 510.946 -6.50231 -0.451972 0
M  V30 5576 N 514.379 -1.04941 -1.1758 0
M  V30 5577 C 515.627 -0.756492 -1.87408 0
M  V30 5578 C 515.948 0.718478 -1.81281 0
M  V30 5579 O 515.218 1.519 -1.23706 0
M  V30 5580 H 513.798 -0.276841 -0.693807 0
M  V30 5581 H 516.46 -1.32803 -1.42652 0
M  V30 5582 H 515.556 -1.06918 -2.93215 0
M  V30 5583 N 515.857 1.33968 -0.830081 0
M  V30 5584 C 516.804 2.29387 -0.255008 0
M  V30 5585 C 517.774 1.53923 0.624243 0
M  V30 5586 O 518.959 1.82262 0.564372 0
M  V30 5587 C 516.099 3.4034 0.571209 0
M  V30 5588 C 515.212 4.30729 -0.331083 0
M  V30 5589 C 514.347 5.2879 0.505389 0
M  V30 5590 C 513.386 6.10819 -0.395843 0
M  V30 5591 N 512.523 7.00948 0.401979 0
M  V30 5592 H 517.363 2.77972 -1.07404 0
M  V30 5593 H 514.9 1.36785 -0.541133 0
M  V30 5594 H 516.858 4.03361 1.06562 0
M  V30 5595 H 515.488 2.9297 1.35529 0
M  V30 5596 H 514.54 3.68507 -0.943759 0
M  V30 5597 H 515.852 4.88181 -1.02377 0
M  V30 5598 H 515.006 5.97297 1.06399 0
M  V30 5599 H 513.745 4.71894 1.23155 0
M  V30 5600 H 512.75 5.41238 -0.966529 0
M  V30 5601 H 513.975 6.69797 -1.12023 0
M  V30 5602 H 511.921 6.46512 1.11168 0
M  V30 5603 H 511.838 7.55643 -0.232167 0
M  V30 5604 H 513.106 7.73774 0.943102 0
M  V30 5605 N 517.335 0.585699 1.46312 0
M  V30 5606 C 518.265 -0.133556 2.33118 0
M  V30 5607 C 519.246 -0.880707 1.45525 0
M  V30 5608 O 520.431 -0.855579 1.74337 0
M  V30 5609 C 517.561 -1.14585 3.27853 0
M  V30 5610 C 516.515 -0.513341 4.2491 0
M  V30 5611 C 515.841 -1.63231 5.09175 0
M  V30 5612 C 517.141 0.551413 5.19381 0
M  V30 5613 H 518.835 0.59121 2.93505 0
M  V30 5614 H 516.381 0.285761 1.41136 0
M  V30 5615 H 518.334 -1.65741 3.87438 0
M  V30 5616 H 517.058 -1.90093 2.65579 0
M  V30 5617 H 515.717 -0.0228349 3.66593 0
M  V30 5618 H 515.365 -2.37713 4.43285 0
M  V30 5619 H 515.065 -1.21473 5.74907 0
M  V30 5620 H 516.589 -2.14658 5.71624 0
M  V30 5621 H 518.003 0.124804 5.73164 0
M  V30 5622 H 516.4 0.889486 5.93471 0
M  V30 5623 H 517.47 1.43655 4.63132 0
M  V30 5624 N 518.813 -1.54241 0.323641 0
M  V30 5625 C 520.038 -2.05452 -0.283605 0
M  V30 5626 C 520.463 -1.19823 -1.44997 0
M  V30 5627 O 519.821 -0.207358 -1.8011 0
M  V30 5628 C 519.869 -3.53823 -0.695795 0
M  V30 5629 O 518.973 -3.71134 -1.79815 0
M  V30 5630 H 518.314 -0.662024 -0.0511917 0
M  V30 5631 H 520.844 -1.99079 0.472073 0
M  V30 5632 H 520.854 -3.96094 -0.978434 0
M  V30 5633 H 519.529 -4.15602 0.157287 0
M  V30 5634 H 518.106 -3.40768 -1.51431 0
M  V30 5635 N 520.291 -0.0518155 -1.57515 0
M  V30 5636 C 521.54 0.621286 -1.91893 0
M  V30 5637 C 521.853 1.71966 -0.932052 0
M  V30 5638 O 523.059 2.45096 -1.16791 0
M  V30 5639 C 521.515 1.15641 -3.40816 0
M  V30 5640 C 521.123 0.0901146 -4.47909 0
M  V30 5641 C 522.867 1.80472 -3.84227 0
M  V30 5642 C 520.774 0.638154 -5.87947 0
M  V30 5643 H 519.704 0.235835 -0.716169 0
M  V30 5644 H 522.355 -0.120809 -1.83102 0
M  V30 5645 H 520.737 1.95084 -3.44613 0
M  V30 5646 H 521.911 -0.683525 -4.55702 0
M  V30 5647 H 520.226 -0.460774 -4.13843 0
M  V30 5648 H 522.823 2.22471 -4.86221 0
M  V30 5649 H 523.166 2.65669 -3.20508 0
M  V30 5650 H 523.699 1.07683 -3.82948 0
M  V30 5651 H 520.438 -0.176202 -6.55263 0
M  V30 5652 H 519.958 1.37976 -5.83714 0
M  V30 5653 H 521.637 1.12085 -6.37217 0
M  V30 5654 N 521.769 1.56035 0.221574 0
M  V30 5655 C 522.716 1.92413 1.27459 0
M  V30 5656 C 523.686 0.781323 1.46576 0
M  V30 5657 O 524.871 1.03721 1.60145 0
M  V30 5658 C 522.011 2.24617 2.61995 0
M  V30 5659 C 521.124 3.51831 2.50677 0
M  V30 5660 C 520.259 3.73482 3.77736 0
M  V30 5661 C 519.298 4.94211 3.6114 0
M  V30 5662 N 518.435 5.12252 4.80148 0
M  V30 5663 H 523.275 2.82203 0.957355 0
M  V30 5664 H 520.812 1.39676 0.461415 0
M  V30 5665 H 522.77 2.41298 3.40339 0
M  V30 5666 H 521.4 1.38 2.91815 0
M  V30 5667 H 520.452 3.43343 1.63767 0
M  V30 5668 H 521.764 4.40328 2.34334 0
M  V30 5669 H 520.918 3.9026 4.64523 0
M  V30 5670 H 519.657 2.83266 3.97003 0
M  V30 5671 H 518.662 4.77384 2.72736 0
M  V30 5672 H 519.887 5.85912 3.43343 0
M  V30 5673 H 517.833 4.24978 4.99729 0
M  V30 5674 H 517.75 5.94881 4.66532 0
M  V30 5675 H 519.018 5.33465 5.68362 0
M  V30 5676 N 523.247 -0.488276 1.49845 0
M  V30 5677 C 524.475 -1.26527 1.63702 0
M  V30 5678 C 524.89 -1.8618 0.313447 0
M  V30 5679 O 524.247 -1.68432 -0.702624 0
M  V30 5680 C 524.298 -2.3864 2.71538 0
M  V30 5681 O 524.019 -1.81437 3.98763 0
M  V30 5682 C 525.52 -3.29805 2.96215 0
M  V30 5683 H 522.74 -0.383295 0.55075 0
M  V30 5684 H 525.284 -0.584779 1.95961 0
M  V30 5685 H 523.439 -3.02496 2.42023 0
M  V30 5686 H 523.853 -2.55135 4.58265 0
M  V30 5687 H 525.327 -4.04722 3.75372 0
M  V30 5688 H 525.804 -3.87563 2.06619 0
M  V30 5689 H 526.41 -2.71703 3.27196 0
M  V30 5690 N 524.725 -1.39134 -0.740242 0
M  V30 5691 C 526.002 -1.26584 -1.49117 0
M  V30 5692 C 526.382 0.126902 -2.10718 0
M  V30 5693 O 525.73 1.13765 -1.98166 0
M  V30 5694 C 525.94 -2.38619 -2.54681 0
M  V30 5695 C 527.288 -2.77685 -3.21211 0
M  V30 5696 O 528.312 -2.38029 -2.64991 0
M  V30 5697 O 527.171 -3.46115 -4.22926 0
M  V30 5698 H 524.265 -0.495769 -0.661923 0
M  V30 5699 H 526.811 -1.50995 -0.774514 0
M  V30 5700 H 525.583 -3.3175 -2.07504 0
M  V30 5701 H 525.206 -2.15845 -3.33911 0
M  V30 5702 N 526.204 0.969867 -1.24223 0
M  V30 5703 C 527.45 1.7151 -1.08223 0
M  V30 5704 C 527.783 1.90478 0.37838 0
M  V30 5705 O 527.058 1.4647 1.27971 0
M  V30 5706 C 527.341 3.10714 -1.82013 0
M  V30 5707 C 527.194 2.9925 -3.35811 0
M  V30 5708 C 528.513 4.10332 -1.59108 0
M  V30 5709 H 525.632 0.622499 -0.394543 0
M  V30 5710 H 528.274 1.1284 -1.52863 0
M  V30 5711 H 526.424 3.608 -1.44068 0
M  V30 5712 H 528.096 2.56608 -3.83341 0
M  V30 5713 H 526.339 2.35512 -3.64303 0
M  V30 5714 H 527.01 3.97857 -3.82641 0
M  V30 5715 H 529.486 3.69097 -1.92111 0
M  V30 5716 H 528.362 5.05804 -2.13198 0
M  V30 5717 H 528.623 4.38926 -0.528832 0
M  V30 5718 N 527.682 1.05563 1.17022 0
M  V30 5719 C 528.912 0.787307 1.91011 0
M  V30 5720 C 529.32 -0.661256 1.77268 0
M  V30 5721 O 528.663 -1.46379 1.10991 0
M  V30 5722 C 528.725 1.09313 3.42478 0
M  V30 5723 C 528.389 2.53863 3.80004 0
M  V30 5724 C 529.386 3.52081 3.82538 0
M  V30 5725 C 527.071 2.88969 4.10855 0
M  V30 5726 C 529.065 4.83449 4.15399 0
M  V30 5727 C 526.752 4.2054 4.43384 0
M  V30 5728 C 527.75 5.17589 4.45635 0
M  V30 5729 O 527.438 6.46799 4.77395 0
M  V30 5730 H 527.17 0.285463 0.61277 0
M  V30 5731 H 529.724 1.41051 1.49311 0
M  V30 5732 H 527.954 0.412833 3.8449 0
M  V30 5733 H 529.643 0.810224 3.97731 0
M  V30 5734 H 530.409 3.26299 3.58823 0
M  V30 5735 H 526.288 2.1409 4.08272 0
M  V30 5736 H 529.832 5.59194 4.1707 0
M  V30 5737 H 525.729 4.46083 4.66563 0
M  V30 5738 H 526.497 6.51677 4.95237 0
M  V30 5739 N 529.16 -1.33526 0.837174 0
M  V30 5740 C 530.385 -2.0258 0.444545 0
M  V30 5741 C 530.81 -1.6258 -0.946006 0
M  V30 5742 O 530.168 -0.817548 -1.6182 0
M  V30 5743 C 530.216 -3.5605 0.571006 0
M  V30 5744 O 529.32 -4.10422 -0.403431 0
M  V30 5745 H 528.661 -0.638866 0.180958 0
M  V30 5746 H 531.191 -1.70462 1.13154 0
M  V30 5747 H 531.201 -4.05488 0.452024 0
M  V30 5748 H 529.876 -3.84509 1.58512 0
M  V30 5749 H 528.453 -3.72113 -0.242147 0
M  V30 5750 N 530.638 -0.59345 -1.46 0
M  V30 5751 C 531.885 -0.0831523 -2.02329 0
M  V30 5752 C 532.213 1.28093 -1.46364 0
M  V30 5753 O 531.468 1.85526 -0.622793 0
M  V30 5754 C 531.767 0.021178 -3.57394 0
M  V30 5755 C 531.433 -1.27671 -4.32448 0
M  V30 5756 C 530.095 -1.63227 -4.5267 0
M  V30 5757 C 532.447 -2.13511 -4.7546 0
M  V30 5758 C 529.775 -2.84401 -5.1316 0
M  V30 5759 C 532.127 -3.33922 -5.37289 0
M  V30 5760 C 530.791 -3.69747 -5.55737 0
M  V30 5761 H 530.061 -0.0304276 -0.740375 0
M  V30 5762 H 532.708 -0.772239 -1.75239 0
M  V30 5763 H 531.013 0.793454 -3.83682 0
M  V30 5764 H 532.71 0.431942 -3.98667 0
M  V30 5765 H 529.3 -0.989937 -4.17011 0
M  V30 5766 H 533.484 -1.87344 -4.59582 0
M  V30 5767 H 528.74 -3.12282 -5.25633 0
M  V30 5768 H 532.914 -4.00698 -5.69574 0
M  V30 5769 H 530.541 -4.6373 -6.02377 0
M  V30 5770 N 532.116 1.54067 -0.331816 0
M  V30 5771 C 533.364 2.00319 0.267739 0
M  V30 5772 C 533.685 1.22148 1.52003 0
M  V30 5773 O 532.955 0.325494 1.93177 0
M  V30 5774 H 531.535 0.740014 0.101922 0
M  V30 5775 H 534.197 1.89628 -0.450267 0
M  V30 5776 H 533.293 3.07765 0.518385 0
M  V30 5777 N 533.594 0.0601682 1.57485 0
M  V30 5778 C 534.843 -0.611101 1.9222 0
M  V30 5779 C 535.156 -1.71469 0.941159 0
M  V30 5780 O 536.362 -2.44473 1.18089 0
M  V30 5781 C 534.818 -1.13832 3.41424 0
M  V30 5782 C 534.426 -0.0663596 4.47951 0
M  V30 5783 C 536.17 -1.78432 3.85178 0
M  V30 5784 C 534.077 -0.606965 5.88277 0
M  V30 5785 H 533.007 -0.232033 0.71741 0
M  V30 5786 H 535.658 0.130518 1.83035 0
M  V30 5787 H 534.04 -1.93254 3.45643 0
M  V30 5788 H 535.214 0.707682 4.55333 0
M  V30 5789 H 533.529 0.482715 4.13593 0
M  V30 5790 H 536.126 -2.1989 4.87394 0
M  V30 5791 H 536.469 -2.63966 3.21913 0
M  V30 5792 H 537.002 -1.05651 3.83514 0
M  V30 5793 H 533.741 0.21095 6.5516 0
M  V30 5794 H 533.261 -1.34879 5.84438 0
M  V30 5795 H 534.94 -1.08704 6.37803 0
M  V30 5796 N 535.072 -1.5615 -0.213296 0
M  V30 5797 C 536.318 -1.79812 -0.937849 0
M  V30 5798 C 536.651 -0.631201 -1.83656 0
M  V30 5799 O 535.926 0.369165 -1.90964 0
M  V30 5800 C 536.209 -3.13613 -1.76972 0
M  V30 5801 C 536.062 -4.40766 -0.89695 0
M  V30 5802 C 537.381 -3.43931 -2.7459 0
M  V30 5803 H 534.5 -0.654138 -0.339518 0
M  V30 5804 H 537.142 -1.88877 -0.20623 0
M  V30 5805 H 535.292 -3.06015 -2.39347 0
M  V30 5806 H 536.964 -4.60392 -0.289306 0
M  V30 5807 H 535.207 -4.33326 -0.202756 0
M  V30 5808 H 535.878 -5.30843 -1.51358 0
M  V30 5809 H 538.354 -3.5171 -2.22349 0
M  V30 5810 H 537.23 -4.38706 -3.29891 0
M  V30 5811 H 537.491 -2.6651 -3.52739 0
M  V30 5812 N 536.55 0.480323 -1.50102 0
M  V30 5813 C 537.799 1.22979 -1.59872 0
M  V30 5814 C 538.112 1.93282 -0.30022 0
M  V30 5815 O 539.318 2.70086 -0.276709 0
M  V30 5816 C 537.774 2.23408 -2.82164 0
M  V30 5817 C 537.382 1.5895 -4.18854 0
M  V30 5818 C 539.126 2.99055 -3.01275 0
M  V30 5819 C 537.033 2.57611 -5.32344 0
M  V30 5820 H 535.963 0.462707 -0.59533 0
M  V30 5821 H 538.614 0.501291 -1.7652 0
M  V30 5822 H 536.996 2.99511 -2.59055 0
M  V30 5823 H 538.17 0.887 -4.52182 0
M  V30 5824 H 536.485 0.956191 -4.05273 0
M  V30 5825 H 539.082 3.72876 -3.83233 0
M  V30 5826 H 539.425 3.57897 -2.12639 0
M  V30 5827 H 539.958 2.30066 -3.24522 0
M  V30 5828 H 536.697 2.03521 -6.23105 0
M  V30 5829 H 536.217 3.26041 -5.03445 0
M  V30 5830 H 537.896 3.19627 -5.62537 0
M  V30 5831 N 538.028 1.39524 0.732853 0
M  V30 5832 C 538.961 1.32806 1.85574 0
M  V30 5833 C 539.939 0.201354 1.61348 0
M  V30 5834 O 541.123 0.38216 1.84585 0
M  V30 5835 C 538.25 1.06271 3.21596 0
M  V30 5836 C 537.296 2.21161 3.64678 0
M  V30 5837 S 538.129 3.83454 3.73796 0
M  V30 5838 C 539.285 3.59149 5.12604 0
M  V30 5839 H 539.518 2.27838 1.9099 0
M  V30 5840 H 537.051 1.25605 0.897927 0
M  V30 5841 H 539.009 0.916461 4.00139 0
M  V30 5842 H 537.67 0.129223 3.13834 0
M  V30 5843 H 536.863 1.98193 4.63396 0
M  V30 5844 H 536.465 2.32 2.93346 0
M  V30 5845 H 538.757 3.16547 5.99003 0
M  V30 5846 H 539.7 4.57335 5.40602 0
M  V30 5847 H 540.108 2.93203 4.82382 0
M  V30 5848 N 539.506 -0.963266 1.24736 0
M  V30 5849 C 540.416 -2.09246 1.06082 0
M  V30 5850 C 541.432 -1.74 0.000363101 0
M  V30 5851 O 542.608 -2.0041 0.199479 0
M  V30 5852 C 539.673 -3.40115 0.672498 0
M  V30 5853 C 538.734 -3.89282 1.80993 0
M  V30 5854 C 537.967 -5.13905 1.44004 0
M  V30 5855 O 538.19 -5.69434 0.331835 0
M  V30 5856 O 537.124 -5.57566 2.26723 0
M  V30 5857 H 540.95 -2.27881 2.00759 0
M  V30 5858 H 538.535 -1.07649 1.03595 0
M  V30 5859 H 540.417 -4.18797 0.467668 0
M  V30 5860 H 539.092 -3.22771 -0.245102 0
M  V30 5861 H 537.999 -3.11642 2.06955 0
M  V30 5862 H 539.332 -4.1111 2.70646 0
M  V30 5863 N 540.985 -1.06182 -1.16461 0
M  V30 5864 C 542.231 -0.779015 -1.87241 0
M  V30 5865 C 542.564 0.692715 -1.81425 0
M  V30 5866 O 541.839 1.5074 -1.22913 0
M  V30 5867 C 542.122 -1.2728 -3.36856 0
M  V30 5868 C 541.975 -2.80821 -3.51368 0
M  V30 5869 C 543.294 -0.879799 -4.31216 0
M  V30 5870 H 540.413 -0.284464 -0.679889 0
M  V30 5871 H 543.055 -1.31755 -1.36896 0
M  V30 5872 H 541.205 -0.814673 -3.79862 0
M  V30 5873 H 542.877 -3.34833 -3.17308 0
M  V30 5874 H 541.12 -3.19606 -2.93316 0
M  V30 5875 H 541.791 -3.10435 -4.56436 0
M  V30 5876 H 544.267 -1.27436 -3.96105 0
M  V30 5877 H 543.143 -1.25278 -5.34412 0
M  V30 5878 H 543.404 0.215372 -4.41575 0
M  V30 5879 N 542.463 1.3308 -0.844243 0
M  V30 5880 C 543.393 2.3161 -0.296493 0
M  V30 5881 C 544.374 1.59215 0.598707 0
M  V30 5882 O 545.559 1.87077 0.521134 0
M  V30 5883 C 542.689 3.43313 0.524762 0
M  V30 5884 C 541.643 4.27115 -0.275106 0
M  V30 5885 C 540.969 5.30483 0.670236 0
M  V30 5886 C 542.269 5.00443 -1.49514 0
M  V30 5887 H 543.963 2.77672 -1.11976 0
M  V30 5888 H 541.509 1.33496 -0.539899 0
M  V30 5889 H 543.462 4.11273 0.918298 0
M  V30 5890 H 542.186 2.95952 1.3813 0
M  V30 5891 H 540.845 3.60787 -0.650267 0
M  V30 5892 H 540.493 4.79379 1.52332 0
M  V30 5893 H 540.193 5.87435 0.139123 0
M  V30 5894 H 541.717 6.01308 1.06117 0
M  V30 5895 H 543.131 5.61141 -1.17447 0
M  V30 5896 H 541.528 5.67071 -1.96343 0
M  V30 5897 H 542.598 4.28906 -2.26202 0
M  V30 5898 N 543.941 0.601185 1.45683 0
M  V30 5899 C 545.169 0.100054 2.06658 0
M  V30 5900 C 545.584 -1.21285 1.44691 0
M  V30 5901 O 544.941 -1.73735 0.558772 0
M  V30 5902 C 544.992 -0.0528579 3.61461 0
M  V30 5903 O 544.713 1.20809 4.21114 0
M  V30 5904 C 546.214 -0.586193 4.39407 0
M  V30 5905 H 543.434 0.065905 0.667756 0
M  V30 5906 H 545.978 0.827101 1.87028 0
M  V30 5907 H 544.133 -0.730203 3.80456 0
M  V30 5908 H 544.547 1.03368 5.14213 0
M  V30 5909 H 546.021 -0.642297 5.4825 0
M  V30 5910 H 546.498 -1.60713 4.0874 0
M  V30 5911 H 547.104 0.0568935 4.25262 0
M  V30 5912 N 545.419 -1.53889 0.339982 0
M  V30 5913 C 546.667 -2.00458 -0.257112 0
M  V30 5914 C 546.988 -1.22953 -1.51353 0
M  V30 5915 O 546.258 -0.335734 -1.93002 0
M  V30 5916 H 544.838 -0.740544 -0.0979965 0
M  V30 5917 H 547.5 -1.89386 0.460317 0
M  V30 5918 H 546.596 -3.08035 -0.502057 0
M  V30 5919 N 546.897 -0.0685191 -1.57451 0
M  V30 5920 C 548.137 0.605038 -1.9524 0
M  V30 5921 C 548.501 1.66974 -0.947816 0
M  V30 5922 O 549.702 2.39862 -1.21325 0
M  V30 5923 C 547.973 1.16999 -3.37707 0
M  V30 5924 S 549.532 1.85913 -3.97469 0
M  V30 5925 H 546.35 0.198203 -0.682815 0
M  V30 5926 H 548.952 -0.141594 -1.94987 0
M  V30 5927 H 547.656 0.383205 -4.08607 0
M  V30 5928 H 547.187 1.95305 -3.41496 0
M  V30 5929 H 549.202 3.14128 -3.84107 0
M  V30 5930 N 548.375 1.56261 0.205012 0
M  V30 5931 C 549.791 1.49623 0.555433 0
M  V30 5932 C 549.991 0.766719 1.86343 0
M  V30 5933 O 549.047 0.313158 2.50551 0
M  V30 5934 C 550.36 2.94253 0.619347 0
M  V30 5935 C 551.908 3.04868 0.708855 0
M  V30 5936 C 552.383 4.50888 0.803969 0
M  V30 5937 N 553.874 4.54999 0.867758 0
M  V30 5938 C 554.609 5.65284 0.96135 0
M  V30 5939 N 554.105 6.85282 1.01786 0
M  V30 5940 N 555.898 5.53174 0.997771 0
M  V30 5941 H 548.049 2.0211 -0.653094 0
M  V30 5942 H 550.312 0.919333 -0.231366 0
M  V30 5943 H 550.018 3.50643 -0.272458 0
M  V30 5944 H 549.892 3.47063 1.47741 0
M  V30 5945 H 552.279 2.48532 1.5911 0
M  V30 5946 H 552.36 2.55199 -0.175205 0
M  V30 5947 H 552.004 5.07846 -0.0738798 0
M  V30 5948 H 551.934 4.98279 1.70369 0
M  V30 5949 H 554.425 3.68588 0.833735 0
M  V30 5950 H 554.738 7.65081 1.08951 0
M  V30 5951 H 553.083 6.8796 0.986706 0
M  V30 5952 H 556.274 4.5835 0.950392 0
M  V30 5953 H 556.447 6.39151 1.06725 0
M  V30 5954 N 549.853 -0.472356 1.50355 0
M  V30 5955 C 551.099 -1.22634 1.6152 0
M  V30 5956 C 551.432 -1.91645 0.313995 0
M  V30 5957 O 550.707 -1.82059 -0.684446 0
M  V30 5958 C 550.99 -2.27099 2.7946 0
M  V30 5959 C 550.843 -1.62402 4.19459 0
M  V30 5960 C 552.162 -3.28421 2.92964 0
M  V30 5961 H 549.281 -0.444494 0.587873 0
M  V30 5962 H 551.923 -0.520321 1.82737 0
M  V30 5963 H 550.073 -2.87314 2.61501 0
M  V30 5964 H 551.745 -1.05793 4.49005 0
M  V30 5965 H 549.988 -0.927184 4.23776 0
M  V30 5966 H 550.659 -2.38309 4.97909 0
M  V30 5967 H 553.135 -2.78227 3.09401 0
M  V30 5968 H 552.011 -3.98845 3.77113 0
M  V30 5969 H 552.272 -3.92467 2.03525 0
M  V30 5970 N 551.331 -1.39911 -0.725443 0
M  V30 5971 C 552.577 -1.37858 -1.48738 0
M  V30 5972 C 552.91 0.0224187 -1.94187 0
M  V30 5973 O 552.185 0.989204 -1.67466 0
M  V30 5974 C 552.468 -2.3594 -2.72038 0
M  V30 5975 C 552.321 -3.85023 -2.32546 0
M  V30 5976 C 553.64 -2.31704 -3.74167 0
M  V30 5977 H 550.759 -0.502074 -0.539528 0
M  V30 5978 H 553.401 -1.70974 -0.828728 0
M  V30 5979 H 551.551 -2.0783 -3.28236 0
M  V30 5980 H 553.223 -4.2392 -1.81905 0
M  V30 5981 H 551.466 -4.01334 -1.64661 0
M  V30 5982 H 552.137 -4.49152 -3.20884 0
M  V30 5983 H 554.613 -2.5658 -3.27576 0
M  V30 5984 H 553.489 -3.02395 -4.58092 0
M  V30 5985 H 553.75 -1.3253 -4.21768 0
M  V30 5986 N 552.809 0.956637 -1.25245 0
M  V30 5987 C 553.739 2.07058 -1.07931 0
M  V30 5988 C 554.72 1.70096 0.0110361 0
M  V30 5989 O 555.905 1.93555 -0.158121 0
M  V30 5990 C 553.035 3.40272 -0.695124 0
M  V30 5991 C 551.989 3.91235 -1.73549 0
M  V30 5992 C 551.315 5.20921 -1.20604 0
M  V30 5993 C 552.615 4.17837 -3.13385 0
M  V30 5994 H 554.309 2.218 -2.01109 0
M  V30 5995 H 551.855 1.06581 -0.968326 0
M  V30 5996 H 553.808 4.1765 -0.560949 0
M  V30 5997 H 552.532 3.25462 0.272355 0
M  V30 5998 H 551.191 3.16025 -1.85807 0
M  V30 5999 H 550.839 5.02479 -0.228846 0
M  V30 6000 H 550.539 5.55987 -1.90136 0
M  V30 6001 H 552.063 6.00897 -1.08421 0
M  V30 6002 H 553.477 4.8588 -3.04292 0
M  V30 6003 H 551.874 4.64154 -3.80369 0
M  V30 6004 H 552.944 3.2419 -3.60595 0
M  V30 6005 N 554.287 1.06798 1.15896 0
M  V30 6006 C 555.564 0.701057 1.82605 0
M  V30 6007 C 555.944 -0.817066 1.94646 0
M  V30 6008 O 555.292 -1.72933 1.49353 0
M  V30 6009 C 555.502 1.40895 3.19296 0
M  V30 6010 C 556.85 1.55744 3.95005 0
M  V30 6011 O 557.874 1.36927 3.28831 0
M  V30 6012 O 556.733 1.86658 5.13635 0
M  V30 6013 H 553.827 0.248791 0.78869 0
M  V30 6014 H 556.373 1.16857 1.23055 0
M  V30 6015 H 555.145 2.4439 3.05596 0
M  V30 6016 H 554.768 0.931847 3.86526 0
M  V30 6017 N 555.766 -1.3263 0.851289 0
M  V30 6018 C 557.043 -1.91982 0.374448 0
M  V30 6019 C 557.423 -1.77568 -1.14161 0
M  V30 6020 O 556.771 -1.1717 -1.96172 0
M  V30 6021 C 556.981 -3.38862 0.835088 0
M  V30 6022 C 558.329 -4.15999 0.850309 0
M  V30 6023 O 559.353 -3.47566 0.779505 0
M  V30 6024 O 558.212 -5.38189 0.949481 0
M  V30 6025 H 555.306 -0.819846 0.10854 0
M  V30 6026 H 557.852 -1.41422 0.937966 0
M  V30 6027 H 556.624 -3.43281 1.87814 0
M  V30 6028 H 556.247 -3.96821 0.248833 0
M  V30 6029 N 557.244 -0.608902 -1.45362 0
M  V30 6030 C 558.655 -0.189511 -1.85736 0
M  V30 6031 C 559.006 1.2539 -1.50903 0
M  V30 6032 O 558.131 1.95094 -0.936347 0
M  V30 6033 C 558.726 -0.33716 -3.37118 0
M  V30 6034 C 557.285 0.0275487 -3.7639 0
M  V30 6035 C 556.432 -0.660983 -2.69307 0
M  V30 6036 H 559.383 -0.815499 -1.36144 0
M  V30 6037 H 559.404 0.430257 -3.7806 0
M  V30 6038 H 558.916 -1.38779 -3.62439 0
M  V30 6039 H 557.017 1.0773 -3.56686 0
M  V30 6040 H 557.13 -0.367018 -4.77692 0
M  V30 6041 H 555.494 -0.0984958 -2.54509 0
M  V30 6042 H 556.277 -1.71377 -2.97464 0
M  V30 6043 N 558.722 1.53707 -0.348139 0
M  V30 6044 C 559.669 2.25173 0.506518 0
M  V30 6045 C 560.639 1.25174 1.09182 0
M  V30 6046 O 561.824 1.53917 1.12757 0
M  V30 6047 C 558.964 3.03141 1.64923 0
M  V30 6048 C 558.077 4.18002 1.0908 0
M  V30 6049 C 557.212 4.83447 2.20119 0
M  V30 6050 C 556.251 5.90369 1.61651 0
M  V30 6051 N 555.388 6.49575 2.66451 0
M  V30 6052 H 560.228 2.97799 -0.109452 0
M  V30 6053 H 557.765 1.46953 -0.0657866 0
M  V30 6054 H 559.723 3.46607 2.32205 0
M  V30 6055 H 558.353 2.32803 2.23612 0
M  V30 6056 H 557.405 3.79145 0.308783 0
M  V30 6057 H 558.717 4.94892 0.623178 0
M  V30 6058 H 557.871 5.30008 2.95257 0
M  V30 6059 H 556.61 4.05991 2.70227 0
M  V30 6060 H 555.615 5.43186 0.850209 0
M  V30 6061 H 556.84 6.69735 1.1239 0
M  V30 6062 H 554.786 5.74981 3.15805 0
M  V30 6063 H 554.703 7.21952 2.24325 0
M  V30 6064 H 555.971 7.00789 3.41344 0
M  V30 6065 N 560.2 0.0768682 1.57412 0
M  V30 6066 C 561.15 -0.898795 2.09537 0
M  V30 6067 C 562.134 -1.25556 1.0062 0
M  V30 6068 O 563.326 -1.23369 1.26921 0
M  V30 6069 C 560.455 -2.16453 2.66464 0
M  V30 6070 C 559.541 -1.83401 3.82393 0
M  V30 6071 N 559.932 -1.20823 4.91157 0
M  V30 6072 C 558.23 -2.13121 3.91785 0
M  V30 6073 C 558.931 -1.05976 5.71965 0
M  V30 6074 N 557.907 -1.57113 5.204 0
M  V30 6075 H 561.709 -0.410718 2.91016 0
M  V30 6076 H 559.223 -0.126878 1.61904 0
M  V30 6077 H 561.22 -2.87274 3.02125 0
M  V30 6078 H 559.88 -2.65844 1.86433 0
M  V30 6079 H 560.891 -0.877249 5.10416 0
M  V30 6080 H 557.568 -2.64854 3.22736 0
M  V30 6081 H 558.958 -0.571809 6.69462 0
M  V30 6082 N 561.678 -1.56367 -0.196722 0
M  V30 6083 C 562.927 -1.79724 -0.915539 0
M  V30 6084 C 563.24 -0.649804 -1.84491 0
M  V30 6085 O 564.446 -0.767631 -2.60422 0
M  V30 6086 C 562.902 -3.18369 -1.67836 0
M  V30 6087 C 562.51 -4.4091 -0.793897 0
M  V30 6088 C 564.254 -3.51037 -2.38691 0
M  V30 6089 C 562.161 -5.70577 -1.55549 0
M  V30 6090 H 561.091 -0.67013 -0.345604 0
M  V30 6091 H 563.742 -1.82721 -0.168856 0
M  V30 6092 H 562.124 -3.09617 -2.46887 0
M  V30 6093 H 563.298 -4.60781 -0.042163 0
M  V30 6094 H 561.613 -4.15937 -0.19626 0
M  V30 6095 H 564.21 -4.4515 -2.96219 0
M  V30 6096 H 564.553 -2.74704 -3.12799 0
M  V30 6097 H 565.086 -3.61229 -1.66608 0
M  V30 6098 H 561.825 -6.49871 -0.857226 0
M  V30 6099 H 561.345 -5.54726 -2.2812 0
M  V30 6100 H 563.024 -6.11637 -2.10971 0
M  V30 6101 N 563.156 0.464375 -1.50603 0
M  V30 6102 C 564.088 1.57916 -1.66118 0
M  V30 6103 C 565.101 1.53497 -0.54246 0
M  V30 6104 O 566.29 1.58763 -0.815877 0
M  V30 6105 C 563.39 2.96809 -1.63577 0
M  V30 6106 C 562.563 3.26026 -2.91592 0
M  V30 6107 C 561.622 4.44506 -2.81604 0
M  V30 6108 O 560.648 4.44484 -3.55559 0
M  V30 6109 N 561.85 5.46549 -1.95614 0
M  V30 6110 H 564.615 1.45022 -2.62276 0
M  V30 6111 H 562.176 0.652903 -1.48151 0
M  V30 6112 H 564.168 3.74048 -1.54499 0
M  V30 6113 H 562.738 3.03438 -0.751262 0
M  V30 6114 H 561.958 2.37337 -3.14746 0
M  V30 6115 H 563.246 3.42361 -3.76386 0
M  V30 6116 H 562.644 5.49391 -1.34854 0
M  V30 6117 H 561.201 6.22746 -1.92435 0
M  V30 6118 N 564.634 1.40294 0.718013 0
M  V30 6119 C 565.564 1.43118 1.84498 0
M  V30 6120 C 566.545 0.292403 1.67568 0
M  V30 6121 O 567.73 0.500675 1.87635 0
M  V30 6122 C 564.86 1.29065 3.22427 0
M  V30 6123 C 563.814 2.40521 3.54025 0
M  V30 6124 C 563.14 2.11546 4.91073 0
M  V30 6125 C 564.44 3.82859 3.55269 0
M  V30 6126 H 566.134 2.37432 1.82391 0
M  V30 6127 H 563.68 1.14283 0.87609 0
M  V30 6128 H 565.633 1.29658 4.00957 0
M  V30 6129 H 564.357 0.312271 3.25104 0
M  V30 6130 H 563.016 2.39173 2.77834 0
M  V30 6131 H 562.664 1.12104 4.90348 0
M  V30 6132 H 562.364 2.86216 5.1318 0
M  V30 6133 H 563.888 2.13817 5.71939 0
M  V30 6134 H 565.302 3.86044 4.23843 0
M  V30 6135 H 563.699 4.57029 3.88902 0
M  V30 6136 H 564.769 4.12617 2.54706 0
M  V30 6137 N 566.112 -0.949982 1.2575 0
M  V30 6138 C 567.528 -1.22191 1.02672 0
M  V30 6139 C 567.728 -1.99898 -0.253588 0
M  V30 6140 O 566.784 -2.33329 -0.965076 0
M  V30 6141 C 568.097 -1.99175 2.25277 0
M  V30 6142 C 569.645 -2.12201 2.30087 0
M  V30 6143 C 570.12 -2.92586 3.5236 0
M  V30 6144 N 571.611 -3.00163 3.52784 0
M  V30 6145 C 572.346 -3.62766 4.44059 0
M  V30 6146 N 571.842 -4.26943 5.45611 0
M  V30 6147 N 573.635 -3.59953 4.3173 0
M  V30 6148 H 565.786 -0.430258 2.07996 0
M  V30 6149 H 568.049 -0.252844 0.91366 0
M  V30 6150 H 567.755 -1.49479 3.18354 0
M  V30 6151 H 567.629 -2.99868 2.28821 0
M  V30 6152 H 570.016 -2.61093 1.3753 0
M  V30 6153 H 570.097 -1.10799 2.30559 0
M  V30 6154 H 569.741 -2.44383 4.45241 0
M  V30 6155 H 569.671 -3.94224 3.49134 0
M  V30 6156 H 572.162 -2.54529 2.79327 0
M  V30 6157 H 572.475 -4.72583 6.11461 0
M  V30 6158 H 570.82 -4.25557 5.49478 0
M  V30 6159 H 574.011 -3.09003 3.51617 0
M  V30 6160 H 574.184 -4.08455 5.03059 0
M  V30 6161 N 567.59 -1.07411 -1.15328 0
M  V30 6162 C 568.867 -0.710732 -1.82231 0
M  V30 6163 C 569.247 0.806732 -1.95077 0
M  V30 6164 O 568.595 1.72139 -1.50268 0
M  V30 6165 C 568.805 -1.42586 -3.18544 0
M  V30 6166 C 570.153 -1.57836 -3.94174 0
M  V30 6167 O 571.177 -1.38669 -3.281 0
M  V30 6168 O 570.036 -1.8938 -5.12638 0
M  V30 6169 H 567.13 -0.25297 -0.78736 0
M  V30 6170 H 569.676 -1.17508 -1.22434 0
M  V30 6171 H 568.448 -2.46008 -3.04296 0
M  V30 6172 H 568.071 -0.952332 -3.86026 0
M  V30 6173 N 569.068 1.32177 -0.85831 0
M  V30 6174 C 569.998 2.31282 -0.321041 0
M  V30 6175 C 570.979 1.59841 0.581786 0
M  V30 6176 O 572.164 1.87619 0.501262 0
M  V30 6177 C 569.294 3.4385 0.48832 0
M  V30 6178 C 568.248 4.26799 -0.320391 0
M  V30 6179 C 567.574 5.31164 0.613934 0
M  V30 6180 C 568.874 4.98829 -1.54813 0
M  V30 6181 H 570.568 2.76469 -1.14915 0
M  V30 6182 H 568.114 1.32916 -0.554028 0
M  V30 6183 H 570.067 4.12224 0.874626 0
M  V30 6184 H 568.791 2.97401 1.34983 0
M  V30 6185 H 567.45 3.60077 -0.688497 0
M  V30 6186 H 567.098 4.80967 1.47239 0
M  V30 6187 H 566.798 5.8755 0.0768097 0
M  V30 6188 H 568.322 6.024 0.997336 0
M  V30 6189 H 569.736 5.59864 -1.23392 0
M  V30 6190 H 568.133 5.64957 -2.02346 0
M  V30 6191 H 569.203 4.26483 -2.30739 0
M  V30 6192 N 570.547 0.616602 1.45037 0
M  V30 6193 C 571.477 -0.0840787 2.33349 0
M  V30 6194 C 572.458 -0.849641 1.4736 0
M  V30 6195 O 573.643 -0.818407 1.76113 0
M  V30 6196 C 570.773 -1.07604 3.3021 0
M  V30 6197 C 569.727 -0.423096 4.25904 0
M  V30 6198 C 569.053 -1.52394 5.12523 0
M  V30 6199 C 570.353 0.661457 5.18095 0
M  V30 6200 H 572.047 0.653333 2.92185 0
M  V30 6201 H 569.593 0.315634 1.40498 0
M  V30 6202 H 571.546 -1.57485 3.90866 0
M  V30 6203 H 570.27 -1.84416 2.69552 0
M  V30 6204 H 568.929 0.05493 3.66559 0
M  V30 6205 H 568.577 -2.28257 4.48227 0
M  V30 6206 H 568.277 -1.09251 5.77354 0
M  V30 6207 H 569.801 -2.02485 5.76049 0
M  V30 6208 H 571.215 0.246353 5.7277 0
M  V30 6209 H 569.612 1.01517 5.91451 0
M  V30 6210 H 570.682 1.53446 4.59981 0
M  V30 6211 N 572.025 -1.5352 0.356285 0
M  V30 6212 C 573.441 -1.59599 0.00485267 0
M  V30 6213 C 573.641 -1.37179 -1.47595 0
M  V30 6214 O 572.697 -1.17234 -2.23635 0
M  V30 6215 C 574.01 -2.97277 0.452454 0
M  V30 6216 C 575.558 -3.10357 0.405881 0
M  V30 6217 C 576.033 -4.50432 0.829148 0
M  V30 6218 N 577.524 -4.5652 0.783838 0
M  V30 6219 C 578.259 -5.63077 1.08315 0
M  V30 6220 N 577.755 -6.77429 1.45126 0
M  V30 6221 N 579.548 -5.53014 1.00655 0
M  V30 6222 H 571.699 -1.66346 1.32071 0
M  V30 6223 H 573.962 -0.77971 0.539218 0
M  V30 6224 H 573.668 -3.18792 1.48542 0
M  V30 6225 H 573.542 -3.76836 -0.165762 0
M  V30 6226 H 575.929 -2.88558 -0.617934 0
M  V30 6227 H 576.01 -2.32828 1.05947 0
M  V30 6228 H 575.654 -4.72968 1.85103 0
M  V30 6229 H 575.584 -5.26378 0.152906 0
M  V30 6230 H 578.075 -3.74408 0.512513 0
M  V30 6231 H 578.388 -7.54669 1.66415 0
M  V30 6232 H 576.733 -6.78844 1.48983 0
M  V30 6233 H 579.924 -4.62557 0.718215 0
M  V30 6234 H 580.097 -6.35964 1.24315 0
M  V30 6235 N 573.503 -0.0852151 -1.57369 0
M  V30 6236 C 574.413 0.891712 -2.16992 0
M  V30 6237 C 575.429 1.3174 -1.13669 0
M  V30 6238 O 576.605 1.38735 -1.45995 0
M  V30 6239 C 573.67 2.13635 -2.73059 0
M  V30 6240 C 572.731 1.7658 -3.91303 0
M  V30 6241 C 571.964 2.95111 -4.44686 0
M  V30 6242 O 572.187 4.09539 -3.97032 0
M  V30 6243 O 571.121 2.74149 -5.35841 0
M  V30 6244 H 574.947 0.414477 -3.00858 0
M  V30 6245 H 572.532 0.138598 -1.48756 0
M  V30 6246 H 574.414 2.86595 -3.08935 0
M  V30 6247 H 573.089 2.6043 -1.92244 0
M  V30 6248 H 571.996 1.00831 -3.60255 0
M  V30 6249 H 573.329 1.34557 -4.7345 0
M  V30 6250 N 574.981 1.5647 0.188427 0
M  V30 6251 C 575.911 1.98101 1.23606 0
M  V30 6252 C 576.892 0.853961 1.47111 0
M  V30 6253 O 578.077 1.11879 1.58735 0
M  V30 6254 C 575.207 2.32624 2.57882 0
M  V30 6255 C 574.161 3.48129 2.48978 0
M  V30 6256 C 573.487 3.68347 3.87588 0
M  V30 6257 C 574.787 4.82112 2.00911 0
M  V30 6258 H 576.481 2.85864 0.890068 0
M  V30 6259 H 574.027 1.37532 0.426714 0
M  V30 6260 H 575.98 2.60343 3.3136 0
M  V30 6261 H 574.704 1.41751 2.94235 0
M  V30 6262 H 573.363 3.20511 1.77956 0
M  V30 6263 H 573.011 2.74793 4.21305 0
M  V30 6264 H 572.711 4.46055 3.82503 0
M  V30 6265 H 574.235 3.98449 4.62678 0
M  V30 6266 H 575.649 5.08819 2.64151 0
M  V30 6267 H 574.046 5.63337 2.06814 0
M  V30 6268 H 575.116 4.75249 0.96262 0
M  V30 6269 N 576.459 -0.456382 1.50847 0
M  V30 6270 C 577.392 -1.57177 1.65441 0
M  V30 6271 C 578.37 -1.54649 0.502224 0
M  V30 6272 O 579.554 -1.74057 0.723633 0
M  V30 6273 C 576.681 -2.95763 1.65052 0
M  V30 6274 C 575.727 -3.16389 2.86007 0
M  V30 6275 S 576.56 -2.94716 4.47105 0
M  V30 6276 C 577.716 -4.35617 4.49432 0
M  V30 6277 H 577.949 -1.44561 2.59787 0
M  V30 6278 H 575.482 -0.644758 1.40293 0
M  V30 6279 H 577.44 -3.75654 1.65512 0
M  V30 6280 H 576.101 -3.05756 0.719153 0
M  V30 6281 H 575.294 -4.17667 2.82081 0
M  V30 6282 H 574.896 -2.44293 2.8319 0
M  V30 6283 H 577.188 -5.28503 4.239 0
M  V30 6284 H 578.131 -4.44582 5.51137 0
M  V30 6285 H 578.539 -4.18382 3.78967 0
M  V30 6286 N 577.937 -1.40673 -0.710563 0
M  V30 6287 C 578.847 -1.43663 -1.85467 0
M  V30 6288 C 579.863 -0.328721 -1.70867 0
M  V30 6289 O 581.039 -0.574098 -1.93044 0
M  V30 6290 C 578.104 -1.30226 -3.21313 0
M  V30 6291 C 577.165 -2.51204 -3.48131 0
M  V30 6292 C 576.398 -2.38398 -4.77495 0
M  V30 6293 O 576.621 -1.40048 -5.5294 0
M  V30 6294 O 575.555 -3.2787 -5.04762 0
M  V30 6295 H 579.381 -2.40156 -1.859 0
M  V30 6296 H 576.966 -1.22049 -0.861652 0
M  V30 6297 H 578.848 -1.2496 -4.02446 0
M  V30 6298 H 577.523 -0.368419 -3.21597 0
M  V30 6299 H 576.43 -2.62048 -2.66987 0
M  V30 6300 H 577.763 -3.43366 -3.52648 0
M  V30 6301 N 579.415 0.9433 -1.26252 0
M  V30 6302 C 580.362 2.0417 -1.07625 0
M  V30 6303 C 581.332 1.6609 0.0180738 0
M  V30 6304 O 582.517 1.90276 -0.141289 0
M  V30 6305 C 579.657 3.37653 -0.713043 0
M  V30 6306 C 578.77 3.88783 -1.8834 0
M  V30 6307 C 577.905 5.10642 -1.4635 0
M  V30 6308 C 576.944 5.54028 -2.60229 0
M  V30 6309 N 576.081 6.67092 -2.18936 0
M  V30 6310 H 580.921 2.19436 -2.01623 0
M  V30 6311 H 578.458 1.07519 -1.00389 0
M  V30 6312 H 580.416 4.14391 -0.483358 0
M  V30 6313 H 579.046 3.22241 0.18996 0
M  V30 6314 H 578.098 3.08464 -2.22608 0
M  V30 6315 H 579.41 4.16922 -2.73821 0
M  V30 6316 H 578.564 5.94832 -1.19414 0
M  V30 6317 H 577.303 4.84244 -0.579568 0
M  V30 6318 H 576.308 4.68396 -2.87898 0
M  V30 6319 H 577.533 5.82429 -3.49219 0
M  V30 6320 H 575.479 6.42381 -1.32974 0
M  V30 6321 H 575.396 6.94806 -2.97961 0
M  V30 6322 H 576.664 7.54662 -1.95206 0
M  V30 6323 N 580.893 1.08022 1.14757 0
M  V30 6324 C 582.309 0.807072 1.3769 0
M  V30 6325 C 582.509 -0.585504 1.92806 0
M  V30 6326 O 581.565 -1.34301 2.13821 0
M  V30 6327 C 582.878 1.88651 2.34161 0
M  V30 6328 C 584.426 1.91206 2.47809 0
M  V30 6329 C 584.901 2.98253 3.47576 0
M  V30 6330 N 586.392 2.974 3.55117 0
M  V30 6331 C 587.127 3.76872 4.32152 0
M  V30 6332 N 586.623 4.66212 5.12463 0
M  V30 6333 N 588.416 3.6519 4.27309 0
M  V30 6334 H 580.567 1.97824 0.77326 0
M  V30 6335 H 582.83 0.85826 0.402608 0
M  V30 6336 H 582.536 2.88749 2.00791 0
M  V30 6337 H 582.41 1.75244 3.3402 0
M  V30 6338 H 584.797 0.917564 2.80472 0
M  V30 6339 H 584.878 2.08691 1.47925 0
M  V30 6340 H 584.522 3.97907 3.15646 0
M  V30 6341 H 584.452 2.78014 4.47231 0
M  V30 6342 H 586.943 2.32643 2.97801 0
M  V30 6343 H 587.256 5.23468 5.68508 0
M  V30 6344 H 585.601 4.70257 5.11745 0
M  V30 6345 H 588.792 2.94765 3.63636 0
M  V30 6346 H 588.965 4.27366 4.87095 0
M  V30 6347 N 582.371 -1.3172 0.865308 0
M  V30 6348 C 583.619 -1.96487 0.472995 0
M  V30 6349 C 583.94 -1.68761 -0.976975 0
M  V30 6350 O 583.21 -1.00051 -1.68424 0
M  V30 6351 H 581.79 -0.726947 0.171922 0
M  V30 6352 H 584.452 -1.60612 1.10407 0
M  V30 6353 H 583.548 -3.0574 0.62687 0
M  V30 6354 N 583.85 -0.624285 -1.44708 0
M  V30 6355 C 584.779 0.0717025 -2.3339 0
M  V30 6356 C 585.76 0.841814 -1.47809 0
M  V30 6357 O 586.946 0.809056 -1.76544 0
M  V30 6358 C 584.076 1.05852 -3.30776 0
M  V30 6359 C 583.029 0.400503 -4.26122 0
M  V30 6360 C 582.356 1.49674 -5.13324 0
M  V30 6361 C 583.656 -0.688924 -5.17737 0
M  V30 6362 H 585.35 -0.668819 -2.91834 0
M  V30 6363 H 582.896 -0.32308 -1.40329 0
M  V30 6364 H 584.849 1.5541 -3.91696 0
M  V30 6365 H 583.572 1.82984 -2.70526 0
M  V30 6366 H 582.231 -0.0743687 -3.66525 0
M  V30 6367 H 581.88 2.25877 -4.49431 0
M  V30 6368 H 581.58 1.06188 -5.77926 0
M  V30 6369 H 583.104 1.99427 -5.77115 0
M  V30 6370 H 584.518 -0.276724 -5.72632 0
M  V30 6371 H 582.915 -1.04652 -5.90904 0
M  V30 6372 H 583.985 -1.55884 -4.5916 0
M  V30 6373 N 585.328 1.53329 -0.364422 0
M  V30 6374 C 586.605 1.93557 0.281962 0
M  V30 6375 C 586.985 1.29786 1.6649 0
M  V30 6376 O 586.333 0.456512 2.23893 0
M  V30 6377 C 586.543 3.47405 0.333331 0
M  V30 6378 C 587.891 4.20699 0.574231 0
M  V30 6379 O 588.915 3.53779 0.414588 0
M  V30 6380 O 587.774 5.39287 0.885002 0
M  V30 6381 H 584.868 0.809573 0.168881 0
M  V30 6382 H 587.414 1.64494 -0.417121 0
M  V30 6383 H 586.186 3.86091 -0.636326 0
M  V30 6384 H 585.809 3.82697 1.07836 0
M  V30 6385 N 586.806 0.0935595 1.57322 0
M  V30 6386 C 588.031 -0.582324 1.99057 0
M  V30 6387 C 588.456 -1.61025 0.972242 0
M  V30 6388 O 587.814 -1.81202 -0.0594622 0
M  V30 6389 C 587.862 -1.20799 3.39765 0
M  V30 6390 O 586.966 -2.32382 3.40694 0
M  V30 6391 H 586.307 -0.147884 0.647323 0
M  V30 6392 H 588.837 0.174516 2.03854 0
M  V30 6393 H 588.847 -1.54966 3.77425 0
M  V30 6394 H 587.522 -0.454914 4.13405 0
M  V30 6395 H 586.099 -1.99845 3.14827 0
M  V30 6396 N 588.284 -1.56567 -0.180126 0
M  V30 6397 C 589.524 -1.83285 -0.904761 0
M  V30 6398 C 589.888 -0.673226 -1.7981 0
M  V30 6399 O 591.089 -0.820645 -2.55967 0
M  V30 6400 C 589.36 -3.15086 -1.68688 0
M  V30 6401 S 590.919 -3.63258 -2.46149 0
M  V30 6402 H 587.737 -0.643114 -0.303193 0
M  V30 6403 H 590.339 -1.94785 -0.167034 0
M  V30 6404 H 589.043 -3.97484 -1.02148 0
M  V30 6405 H 588.574 -3.06504 -2.46615 0
M  V30 6406 H 590.589 -3.29884 -3.70663 0
M  V30 6407 N 589.762 0.448376 -1.51087 0
M  V30 6408 C 590.692 1.55102 -1.74544 0
M  V30 6409 C 591.673 1.59357 -0.594932 0
M  V30 6410 O 592.858 1.75261 -0.836491 0
M  V30 6411 C 589.988 2.93268 -1.86041 0
M  V30 6412 C 588.942 3.03877 -3.01402 0
M  V30 6413 C 588.268 4.43914 -2.98068 0
M  V30 6414 C 589.568 2.7898 -4.41551 0
M  V30 6415 H 591.262 1.35724 -2.66869 0
M  V30 6416 H 588.808 0.651498 -1.28419 0
M  V30 6417 H 590.761 3.70356 -2.01034 0
M  V30 6418 H 589.485 3.13853 -0.903548 0
M  V30 6419 H 588.144 2.29227 -2.86096 0
M  V30 6420 H 587.792 4.6145 -2.00182 0
M  V30 6421 H 587.492 4.51944 -3.75527 0
M  V30 6422 H 589.016 5.22991 -3.1514 0
M  V30 6423 H 590.43 3.45805 -4.57265 0
M  V30 6424 H 588.827 2.98431 -5.20633 0
M  V30 6425 H 589.897 1.74663 -4.5235 0
M  V30 6426 N 591.24 1.41047 0.703093 0
M  V30 6427 C 592.465 1.43537 1.49706 0
M  V30 6428 C 592.89 0.0401853 1.88057 0
M  V30 6429 O 592.248 -0.954785 1.54122 0
M  V30 6430 C 592.296 2.3433 2.74084 0
M  V30 6431 O 591.4 1.79515 3.71279 0
M  V30 6432 H 590.741 0.487454 0.450871 0
M  V30 6433 H 593.271 1.85422 0.86486 0
M  V30 6434 H 593.281 2.49947 3.22476 0
M  V30 6435 H 591.956 3.35708 2.45506 0
M  V30 6436 H 590.533 1.7331 3.30179 0
M  V30 6437 N 592.718 -0.936591 1.26751 0
M  V30 6438 C 593.965 -1.68331 1.12566 0
M  V30 6439 C 594.293 -1.91677 -0.330168 0
M  V30 6440 O 593.548 -1.49859 -1.2586 0
M  V30 6441 C 593.847 -3.06099 1.84494 0
M  V30 6442 C 593.513 -3.02493 3.34378 0
M  V30 6443 C 592.175 -3.01217 3.75262 0
M  V30 6444 C 594.527 -2.94453 4.30055 0
M  V30 6445 C 591.855 -2.89672 5.10203 0
M  V30 6446 C 594.207 -2.84449 5.65041 0
M  V30 6447 C 592.871 -2.81518 6.0523 0
M  V30 6448 H 592.141 -0.615965 0.411907 0
M  V30 6449 H 594.788 -1.09292 1.5725 0
M  V30 6450 H 593.093 -3.6879 1.32292 0
M  V30 6451 H 594.79 -3.62733 1.70955 0
M  V30 6452 H 591.38 -3.04269 3.01858 0
M  V30 6453 H 595.564 -2.94544 3.99447 0
M  V30 6454 H 590.82 -2.85783 5.40498 0
M  V30 6455 H 594.994 -2.77192 6.38856 0
M  V30 6456 H 592.621 -2.72329 7.09747 0
M  V30 6457 N 594.196 -1.08629 -1.14182 0
M  V30 6458 C 595.126 -0.740003 -2.21464 0
M  V30 6459 C 596.107 0.278591 -1.67803 0
M  V30 6460 O 597.292 0.148461 -1.93632 0
M  V30 6461 C 594.422 -0.150952 -3.46972 0
M  V30 6462 C 593.376 -1.09815 -4.13672 0
M  V30 6463 C 592.702 -0.3712 -5.3341 0
M  V30 6464 C 594.002 -2.43722 -4.61949 0
M  V30 6465 H 595.696 -1.63697 -2.50686 0
M  V30 6466 H 593.242 -0.788526 -1.20492 0
M  V30 6467 H 595.195 0.103325 -4.21273 0
M  V30 6468 H 593.919 0.781164 -3.1712 0
M  V30 6469 H 592.578 -1.33756 -3.41328 0
M  V30 6470 H 592.226 0.564792 -4.99819 0
M  V30 6471 H 591.926 -1.00267 -5.78982 0
M  V30 6472 H 593.45 -0.12503 -6.10472 0
M  V30 6473 H 594.864 -2.24034 -5.27714 0
M  V30 6474 H 593.261 -3.02582 -5.18232 0
M  V30 6475 H 594.331 -3.05082 -3.76899 0
M  V30 6476 N 595.674 1.31259 -0.872281 0
M  V30 6477 C 596.951 1.91362 -0.404943 0
M  V30 6478 C 597.331 1.79362 1.11321 0
M  V30 6479 O 596.679 1.20277 1.94283 0
M  V30 6480 C 596.889 3.3749 -0.888893 0
M  V30 6481 C 598.237 4.14593 -0.916384 0
M  V30 6482 O 599.261 3.46282 -0.834701 0
M  V30 6483 O 598.12 5.3661 -1.03498 0
M  V30 6484 H 595.214 0.818016 -0.121569 0
M  V30 6485 H 597.76 1.39912 -0.960346 0
M  V30 6486 H 596.532 3.40249 -1.93251 0
M  V30 6487 H 596.155 3.96375 -0.311932 0
M  V30 6488 N 597.152 0.631951 1.44375 0
M  V30 6489 C 598.099 -0.0724807 2.30686 0
M  V30 6490 C 599.069 -0.835975 1.43529 0
M  V30 6491 O 600.254 -0.816849 1.7243 0
M  V30 6492 C 597.394 -1.04753 3.28817 0
M  V30 6493 C 596.507 -0.282367 4.31076 0
M  V30 6494 C 595.642 -1.2493 5.163 0
M  V30 6495 C 594.681 -0.473349 6.10267 0
M  V30 6496 N 593.818 -1.39079 6.88187 0
M  V30 6497 H 598.658 0.669477 2.90383 0
M  V30 6498 H 596.195 0.341927 1.43071 0
M  V30 6499 H 598.153 -1.62623 3.842 0
M  V30 6500 H 596.783 -1.75661 2.70819 0
M  V30 6501 H 595.835 0.412268 3.78159 0
M  V30 6502 H 597.147 0.321955 4.9776 0
M  V30 6503 H 596.301 -1.89931 5.76204 0
M  V30 6504 H 595.04 -1.88755 4.49692 0
M  V30 6505 H 594.045 0.190142 5.49471 0
M  V30 6506 H 595.27 0.16019 6.78911 0
M  V30 6507 H 593.216 -2.01623 6.24247 0
M  V30 6508 H 593.133 -0.840513 7.51313 0
M  V30 6509 H 594.401 -2.02961 7.52613 0
M  V30 6510 N 598.631 -1.53133 0.372548 0
M  V30 6511 C 599.578 -2.25951 -0.470631 0
M  V30 6512 C 600.548 -1.26895 -1.07176 0
M  V30 6513 O 601.733 -1.55691 -1.10294 0
M  V30 6514 C 598.873 -3.05726 -1.6008 0
M  V30 6515 C 597.986 -4.19684 -1.02416 0
M  V30 6516 C 597.121 -4.86888 -2.124 0
M  V30 6517 C 596.16 -5.92866 -1.52238 0
M  V30 6518 N 595.297 -6.53732 -2.56084 0
M  V30 6519 H 600.137 -2.97587 0.156816 0
M  V30 6520 H 597.674 -1.4683 0.0891571 0
M  V30 6521 H 599.632 -3.50258 -2.26661 0
M  V30 6522 H 598.262 -2.36331 -2.1988 0
M  V30 6523 H 597.314 -3.79588 -0.248426 0
M  V30 6524 H 598.626 -4.95821 -0.544366 0
M  V30 6525 H 597.78 -5.34638 -2.86787 0
M  V30 6526 H 596.519 -4.10239 -2.63734 0
M  V30 6527 H 595.524 -5.4447 -0.763685 0
M  V30 6528 H 596.749 -6.71439 -1.0172 0
M  V30 6529 H 594.695 -5.79932 -3.06618 0
M  V30 6530 H 594.612 -7.25429 -2.12811 0
M  V30 6531 H 595.88 -7.0613 -3.30152 0
M  V30 6532 N 600.109 -0.101901 -1.5727 0
M  V30 6533 C 601.355 0.561027 -1.94885 0
M  V30 6534 C 601.688 1.6741 -0.984258 0
M  V30 6535 O 600.963 1.94491 -0.0184767 0
M  V30 6536 C 601.246 1.10982 -3.42571 0
M  V30 6537 C 601.099 0.00133418 -4.498 0
M  V30 6538 C 602.418 2.00608 -3.9172 0
M  V30 6539 H 599.537 0.202467 -0.708644 0
M  V30 6540 H 602.179 -0.173992 -1.89202 0
M  V30 6541 H 600.329 1.73621 -3.47546 0
M  V30 6542 H 602.001 -0.63322 -4.56933 0
M  V30 6543 H 600.244 -0.664143 -4.28686 0
M  V30 6544 H 600.915 0.426253 -5.50352 0
M  V30 6545 H 603.391 1.47864 -3.88941 0
M  V30 6546 H 602.267 2.3593 -4.95609 0
M  V30 6547 H 602.528 2.92608 -3.3141 0
M  V30 6548 N 601.587 1.56661 0.17182 0
M  V30 6549 C 602.998 1.71652 0.734329 0
M  V30 6550 C 603.349 0.712335 1.82812 0
M  V30 6551 O 602.474 -0.126401 2.16031 0
M  V30 6552 C 603.069 3.11226 1.3388 0
M  V30 6553 C 601.628 3.27904 1.84813 0
M  V30 6554 C 600.775 2.67603 0.726917 0
M  V30 6555 H 603.726 1.5861 -0.0535665 0
M  V30 6556 H 603.747 3.09849 2.20849 0
M  V30 6557 H 603.259 3.8429 0.54249 0
M  V30 6558 H 601.36 2.59796 2.6709 0
M  V30 6559 H 601.473 4.35637 1.99392 0
M  V30 6560 H 599.837 2.274 1.14723 0
M  V30 6561 H 600.62 3.43252 -0.0575334 0
M  V30 6562 N 603.065 -0.440357 1.51323 0
M  V30 6563 C 604.476 -1.02032 1.56353 0
M  V30 6564 C 604.827 -1.92382 0.385197 0
M  V30 6565 O 603.952 -2.10583 -0.498373 0
M  V30 6566 C 604.547 -1.85723 2.83359 0
M  V30 6567 C 603.106 -2.38774 2.90971 0
M  V30 6568 C 602.253 -1.17908 2.50984 0
M  V30 6569 H 605.204 -0.221744 1.57143 0
M  V30 6570 H 605.225 -2.71141 2.66951 0
M  V30 6571 H 604.737 -1.19939 3.69102 0
M  V30 6572 H 602.838 -3.08021 2.09651 0
M  V30 6573 H 602.951 -2.71778 3.94555 0
M  V30 6574 H 601.315 -1.52347 2.04114 0
M  V30 6575 H 602.098 -0.537393 3.39068 0
M  V30 6576 N 604.543 -1.41418 -0.695603 0
M  V30 6577 C 605.783 -1.42241 -1.46788 0
M  V30 6578 C 606.147 -0.0300827 -1.91976 0
M  V30 6579 O 607.348 0.0868914 -2.6866 0
M  V30 6580 C 605.619 -2.4011 -2.6473 0
M  V30 6581 S 607.178 -2.59462 -3.53871 0
M  V30 6582 H 603.996 -0.503893 -0.50161 0
M  V30 6583 H 606.598 -1.77855 -0.811654 0
M  V30 6584 H 605.302 -3.40073 -2.29736 0
M  V30 6585 H 604.833 -2.05849 -3.35246 0
M  V30 6586 H 606.848 -1.862 -4.59939 0
M  V30 6587 N 606.021 0.929856 -1.27246 0
M  V30 6588 C 607.432 1.49223 -1.12203 0
M  V30 6589 C 607.783 1.93989 0.293731 0
M  V30 6590 O 606.908 1.80978 1.18642 0
M  V30 6591 C 607.503 2.71198 -2.0307 0
M  V30 6592 C 606.062 3.23666 -1.92139 0
M  V30 6593 C 605.209 1.96409 -1.95752 0
M  V30 6594 H 608.16 0.744181 -1.4017 0
M  V30 6595 H 608.181 3.45905 -1.58524 0
M  V30 6596 H 607.693 2.38585 -3.06102 0
M  V30 6597 H 605.794 3.61042 -0.920834 0
M  V30 6598 H 605.907 3.90006 -2.78267 0
M  V30 6599 H 604.271 2.12806 -1.39949 0
M  V30 6600 H 605.054 1.66113 -3.00436 0
M  V30 6601 N 607.499 1.09233 1.13605 0
M  V30 6602 C 608.915 0.82163 1.36826 0
M  V30 6603 C 609.115 -0.565021 1.93416 0
M  V30 6604 O 608.171 -1.32026 2.15234 0
M  V30 6605 C 609.484 1.91124 2.32147 0
M  V30 6606 C 611.032 1.93824 2.45767 0
M  V30 6607 C 611.507 3.01923 3.44393 0
M  V30 6608 N 612.998 3.01149 3.51942 0
M  V30 6609 C 613.733 3.81434 4.2813 0
M  V30 6610 N 613.229 4.71621 5.07489 0
M  V30 6611 N 615.022 3.69702 4.23411 0
M  V30 6612 H 607.173 1.98633 0.752234 0
M  V30 6613 H 609.436 0.862482 0.393482 0
M  V30 6614 H 609.142 2.90862 1.97717 0
M  V30 6615 H 609.016 1.78777 3.32142 0
M  V30 6616 H 611.403 0.94726 2.79483 0
M  V30 6617 H 611.484 2.10248 1.45703 0
M  V30 6618 H 611.128 4.01232 3.11408 0
M  V30 6619 H 611.058 2.82742 4.44257 0
M  V30 6620 H 613.549 2.35789 2.95317 0
M  V30 6621 H 613.862 5.29468 5.62924 0
M  V30 6622 H 612.207 4.75658 5.06729 0
M  V30 6623 H 615.398 2.98606 3.60489 0
M  V30 6624 H 615.571 4.32509 4.82535 0
M  V30 6625 N 608.977 -1.30795 0.87923 0
M  V30 6626 C 609.925 -2.30231 0.331112 0
M  V30 6627 C 610.919 -1.59918 -0.558794 0
M  V30 6628 O 612.125 -1.74441 -0.443866 0
M  V30 6629 H 608.5 -0.746785 0.088409 0
M  V30 6630 H 610.471 -2.73925 1.18353 0
M  V30 6631 C 609.22 -3.44848 -0.444401 0
M  V30 6632 H 608.543 -3.99131 0.231106 0
M  V30 6633 H 609.983 -4.16516 -0.793109 0
M  V30 6634 C 608.442 -2.94329 -1.63926 0
M  V30 6635 O 608.972 -2.93875 -2.73862 0
M  V30 6636 N 607.178 -2.50413 -1.4745 0
M  V30 6637 H 606.725 -2.50982 -0.58015 0
M  V30 6638 H 606.683 -2.16969 -2.27534 0
M  V30 6639 N 610.455 -0.639598 -1.44038 0
M  V30 6640 C 611.702 -0.14748 -2.01962 0
M  V30 6641 C 612.03 1.23372 -1.50365 0
M  V30 6642 O 611.285 1.8345 -0.681501 0
M  V30 6643 C 611.584 -0.0925348 -3.5728 0
M  V30 6644 C 611.25 -1.41365 -4.28167 0
M  V30 6645 C 609.912 -1.77545 -4.47248 0
M  V30 6646 C 612.264 -2.2853 -4.68427 0
M  V30 6647 C 609.592 -3.00583 -5.03852 0
M  V30 6648 C 611.944 -3.50846 -5.26393 0
M  V30 6649 C 610.608 -3.8724 -5.43692 0
M  V30 6650 H 609.878 -0.0539666 -0.739032 0
M  V30 6651 H 612.525 -0.827599 -1.72694 0
M  V30 6652 H 610.83 0.670987 -3.86012 0
M  V30 6653 H 612.527 0.304891 -3.99839 0
M  V30 6654 H 609.117 -1.1221 -4.13651 0
M  V30 6655 H 613.301 -2.0187 -4.5339 0
M  V30 6656 H 608.557 -3.28846 -5.15432 0
M  V30 6657 H 612.731 -4.18616 -5.56537 0
M  V30 6658 H 610.358 -4.8266 -5.87319 0
M  V30 6659 N 611.933 1.52934 -0.380664 0
M  V30 6660 C 613.158 2.06363 0.207157 0
M  V30 6661 C 613.583 1.25122 1.4045 0
M  V30 6662 O 612.941 0.274062 1.79217 0
M  V30 6663 C 612.989 3.56162 0.563996 0
M  V30 6664 O 612.093 3.77552 1.65917 0
M  V30 6665 H 611.434 0.663468 0.0265859 0
M  V30 6666 H 613.964 1.9719 -0.545635 0
M  V30 6667 H 613.974 3.99453 0.830752 0
M  V30 6668 H 612.649 4.14732 -0.311427 0
M  V30 6669 H 611.226 3.46154 1.3868 0
M  V30 6670 N 613.412 0.11024 1.57214 0
M  V30 6671 C 614.375 -0.828808 2.1369 0
M  V30 6672 C 615.375 -1.20059 1.06969 0
M  V30 6673 O 616.565 -1.12754 1.32786 0
M  V30 6674 C 613.697 -2.11959 2.66994 0
M  V30 6675 H 614.89 -0.338146 2.97988 0
M  V30 6676 H 612.443 -0.138913 1.55681 0
M  V30 6677 H 613.178 -2.65476 1.8626 0
M  V30 6678 H 612.963 -1.86258 3.45037 0
M  V30 6679 H 614.453 -2.79105 3.10629 0
M  V30 6680 N 614.89 -1.56749 -0.16351 0
M  V30 6681 C 615.837 -1.97011 -1.2023 0
M  V30 6682 C 616.807 -0.835186 -1.43575 0
M  V30 6683 O 617.992 -1.09594 -1.56185 0
M  V30 6684 C 615.132 -2.34186 -2.53478 0
M  V30 6685 C 614.245 -3.60893 -2.37446 0
M  V30 6686 C 613.38 -3.87245 -3.63614 0
M  V30 6687 C 612.419 -5.07274 -3.42548 0
M  V30 6688 N 611.556 -5.29719 -4.60806 0
M  V30 6689 H 616.396 -2.85562 -0.851958 0
M  V30 6690 H 613.933 -1.41292 -0.409257 0
M  V30 6691 H 615.891 -2.53764 -3.31149 0
M  V30 6692 H 614.521 -1.48736 -2.86492 0
M  V30 6693 H 613.573 -3.49185 -1.50911 0
M  V30 6694 H 614.885 -4.48722 -2.1783 0
M  V30 6695 H 614.039 -4.07232 -4.49719 0
M  V30 6696 H 612.778 -2.97806 -3.86216 0
M  V30 6697 H 611.783 -4.87177 -2.5483 0
M  V30 6698 H 613.008 -5.98251 -3.2136 0
M  V30 6699 H 610.954 -4.43233 -4.83612 0
M  V30 6700 H 610.871 -6.11786 -4.44132 0
M  V30 6701 H 612.139 -5.54192 -5.48171 0
M  V30 6702 N 616.368 0.432326 -1.51554 0
M  V30 6703 C 617.298 1.53242 -1.76179 0
M  V30 6704 C 618.279 1.58717 -0.611801 0
M  V30 6705 O 619.464 1.74364 -0.855033 0
M  V30 6706 C 616.594 2.91278 -1.89141 0
M  V30 6707 C 615.548 3.00663 -3.04608 0
M  V30 6708 C 614.874 4.40728 -3.02759 0
M  V30 6709 C 616.174 2.74281 -4.44485 0
M  V30 6710 H 617.868 1.32886 -2.68294 0
M  V30 6711 H 615.414 0.637841 -1.29103 0
M  V30 6712 H 617.367 3.68203 -2.04951 0
M  V30 6713 H 616.091 3.12877 -0.936785 0
M  V30 6714 H 614.75 2.26179 -2.88511 0
M  V30 6715 H 614.398 4.59301 -2.05065 0
M  V30 6716 H 614.098 4.47936 -3.80299 0
M  V30 6717 H 615.622 5.19619 -3.20669 0
M  V30 6718 H 617.036 3.40936 -4.60907 0
M  V30 6719 H 615.433 2.92893 -5.23769 0
M  V30 6720 H 616.503 1.69856 -4.54177 0
M  V30 6721 N 617.846 1.41785 0.688094 0
M  V30 6722 C 619.093 1.41544 1.44816 0
M  V30 6723 C 619.421 0.0271746 1.94481 0
M  V30 6724 O 618.676 -0.962235 1.7041 0
M  V30 6725 C 618.975 2.37532 2.67046 0
M  V30 6726 C 618.641 3.84209 2.35996 0
M  V30 6727 C 617.303 4.24165 2.27239 0
M  V30 6728 C 619.655 4.76785 2.10536 0
M  V30 6729 C 616.983 5.54695 1.91128 0
M  V30 6730 C 619.335 6.07644 1.75931 0
M  V30 6731 C 617.999 6.46613 1.65675 0
M  V30 6732 H 617.269 0.517945 0.529919 0
M  V30 6733 H 619.916 1.74635 0.785797 0
M  V30 6734 H 618.221 1.9772 3.38251 0
M  V30 6735 H 619.918 2.34615 3.25203 0
M  V30 6736 H 616.508 3.52567 2.4371 0
M  V30 6737 H 620.692 4.46714 2.16242 0
M  V30 6738 H 615.948 5.83762 1.81746 0
M  V30 6739 H 620.122 6.78874 1.55252 0
M  V30 6740 H 617.749 7.47668 1.37463 0
M  V30 6741 N 619.324 -0.923095 1.27737 0
M  V30 6742 C 620.564 -1.6858 1.15586 0
M  V30 6743 C 620.928 -1.89758 -0.292562 0
M  V30 6744 O 622.129 -2.6339 -0.536583 0
M  V30 6745 C 620.4 -3.01275 1.92271 0
M  V30 6746 S 621.959 -3.924 1.96387 0
M  V30 6747 H 618.777 -0.579069 0.412554 0
M  V30 6748 H 621.379 -1.09866 1.61709 0
M  V30 6749 H 620.083 -2.83556 2.96689 0
M  V30 6750 H 619.614 -3.6504 1.46661 0
M  V30 6751 H 621.629 -4.84667 1.06361 0
M  V30 6752 N 620.802 -1.09834 -1.13024 0
M  V30 6753 C 621.732 -0.763451 -2.20666 0
M  V30 6754 C 622.713 0.260778 -1.68089 0
M  V30 6755 O 623.898 0.127915 -1.93778 0
M  V30 6756 C 621.028 -0.187744 -3.46792 0
M  V30 6757 C 619.982 -1.14196 -4.12484 0
M  V30 6758 C 619.308 -0.427755 -5.32986 0
M  V30 6759 C 620.608 -2.48607 -4.59338 0
M  V30 6760 H 622.302 -1.66347 -2.48936 0
M  V30 6761 H 619.848 -0.801261 -1.19649 0
M  V30 6762 H 621.801 0.0586375 -4.21359 0
M  V30 6763 H 620.525 0.747485 -3.17931 0
M  V30 6764 H 619.184 -1.37369 -3.3989 0
M  V30 6765 H 618.832 0.511747 -5.0039 0
M  V30 6766 H 618.532 -1.06403 -5.77886 0
M  V30 6767 H 620.056 -0.189772 -6.10305 0
M  V30 6768 H 621.47 -2.29618 -5.25308 0
M  V30 6769 H 619.867 -3.08062 -5.14993 0
M  V30 6770 H 620.937 -3.09062 -3.73642 0
M  V30 6771 N 622.28 1.30327 -0.886154 0
M  V30 6772 C 623.243 2.26376 -0.358687 0
M  V30 6773 C 624.243 1.52845 0.499498 0
M  V30 6774 O 625.433 1.71483 0.306485 0
M  V30 6775 C 622.565 3.37379 0.488726 0
M  V30 6776 H 623.758 2.74547 -1.20681 0
M  V30 6777 H 621.311 1.41536 -0.663113 0
M  V30 6778 H 622.046 2.94526 1.35739 0
M  V30 6779 H 621.831 3.91897 -0.126003 0
M  V30 6780 H 623.321 4.08868 0.84952 0
M  V30 6781 N 623.758 0.647228 1.43697 0
M  V30 6782 C 625.006 0.157876 2.01482 0
M  V30 6783 C 625.327 -1.23039 1.51282 0
M  V30 6784 O 624.597 -1.82071 0.722982 0
M  V30 6785 H 623.177 0.0553745 0.744945 0
M  V30 6786 H 625.839 0.83755 1.75986 0
M  V30 6787 H 624.935 0.137895 3.11795 0
M  V30 6788 N 625.236 -1.5273 0.388769 0
M  V30 6789 C 626.652 -1.59553 0.0387049 0
M  V30 6790 C 626.852 -1.40278 -1.44652 0
M  V30 6791 O 625.908 -1.21951 -2.21098 0
M  V30 6792 C 627.221 -2.9625 0.515409 0
M  V30 6793 C 628.769 -3.09426 0.471621 0
M  V30 6794 C 629.244 -4.48572 0.924505 0
M  V30 6795 N 630.735 -4.54754 0.880496 0
M  V30 6796 C 631.47 -5.60653 1.20234 0
M  V30 6797 N 630.966 -6.74198 1.59463 0
M  V30 6798 N 632.759 -5.50755 1.12363 0
M  V30 6799 H 624.91 -1.63508 1.35569 0
M  V30 6800 H 627.173 -0.768097 0.555636 0
M  V30 6801 H 626.879 -3.15569 1.5527 0
M  V30 6802 H 626.753 -3.77102 -0.085792 0
M  V30 6803 H 629.14 -2.89804 -0.556588 0
M  V30 6804 H 629.221 -2.30528 1.10862 0
M  V30 6805 H 628.865 -4.68936 1.95094 0
M  V30 6806 H 628.795 -5.25935 0.264524 0
M  V30 6807 H 631.286 -3.73237 0.591815 0
M  V30 6808 H 631.599 -7.5097 1.82385 0
M  V30 6809 H 629.944 -6.75531 1.63349 0
M  V30 6810 H 633.135 -4.6093 0.816169 0
M  V30 6811 H 633.308 -6.33184 1.37777 0
M  V30 6812 N 626.714 -0.118576 -1.57153 0
M  V30 6813 C 627.954 0.542618 -1.97066 0
M  V30 6814 C 628.318 1.63874 -1.00046 0
M  V30 6815 O 629.519 2.3588 -1.28895 0
M  V30 6816 C 627.79 1.06196 -3.41258 0
M  V30 6817 S 629.349 1.73174 -4.03183 0
M  V30 6818 H 626.167 0.17638 -0.688775 0
M  V30 6819 H 628.769 -0.203556 -1.94437 0
M  V30 6820 H 627.473 0.253016 -4.09619 0
M  V30 6821 H 627.004 1.84342 -3.47536 0
M  V30 6822 H 629.019 3.01749 -3.93906 0
M  V30 6823 N 628.193 1.56834 0.155195 0
M  V30 6824 C 629.156 1.96748 1.17571 0
M  V30 6825 C 630.156 0.853006 1.3631 0
M  V30 6826 O 631.346 1.11978 1.33441 0
M  V30 6827 C 628.478 2.27631 2.53765 0
M  V30 6828 H 629.671 2.88085 0.833498 0
M  V30 6829 H 627.224 1.51141 0.398242 0
M  V30 6830 H 627.959 1.39059 2.92973 0
M  V30 6831 H 627.744 3.0888 2.41527 0
M  V30 6832 H 629.234 2.59377 3.27282 0
M  V30 6833 N 629.671 -0.424282 1.51781 0
M  V30 6834 C 630.634 -1.49848 1.73431 0
M  V30 6835 C 631.634 -1.49016 0.604225 0
M  V30 6836 O 632.824 -1.50808 0.871935 0
M  V30 6837 C 629.956 -2.89332 1.80277 0
M  V30 6838 H 631.149 -1.3195 2.69312 0
M  V30 6839 H 628.702 -0.653809 1.41968 0
M  V30 6840 H 629.437 -3.12618 0.862568 0
M  V30 6841 H 629.222 -2.9134 2.62419 0
M  V30 6842 H 630.712 -3.67233 1.98821 0
M  V30 6843 N 631.149 -1.42148 -0.680565 0
M  V30 6844 C 632.377 -1.45696 -1.46902 0
M  V30 6845 C 632.792 -0.0665858 -1.88683 0
M  V30 6846 O 632.149 0.917436 -1.57764 0
M  V30 6847 C 632.2 -2.37898 -2.72188 0
M  V30 6848 O 631.921 -3.71526 -2.32163 0
M  V30 6849 C 633.422 -2.50407 -3.65802 0
M  V30 6850 H 630.642 -0.495729 -0.45221 0
M  V30 6851 H 633.186 -1.866 -0.836709 0
M  V30 6852 H 631.341 -2.00263 -3.31622 0
M  V30 6853 H 631.755 -4.20849 -3.13027 0
M  V30 6854 H 633.229 -3.19056 -4.50452 0
M  V30 6855 H 633.706 -1.5401 -4.11312 0
M  V30 6856 H 634.312 -2.8874 -3.12265 0
M  V30 6857 N 632.627 0.916307 -1.28225 0
M  V30 6858 C 634.043 1.19425 -1.05876 0
M  V30 6859 C 634.243 2.005 0.2005 0
M  V30 6860 O 633.299 2.35806 0.902873 0
M  V30 6861 C 634.612 1.93133 -2.30478 0
M  V30 6862 C 636.16 2.06026 -2.35632 0
M  V30 6863 C 636.635 2.83141 -3.59994 0
M  V30 6864 N 638.126 2.90704 -3.60618 0
M  V30 6865 C 638.861 3.50865 -4.53521 0
M  V30 6866 N 638.357 4.12327 -5.56739 0
M  V30 6867 N 640.15 3.48379 -4.41122 0
M  V30 6868 H 632.301 0.37496 -2.09064 0
M  V30 6869 H 634.564 0.228531 -0.920042 0
M  V30 6870 H 634.27 1.40985 -3.22205 0
M  V30 6871 H 634.144 2.93696 -2.36691 0
M  V30 6872 H 636.531 2.57355 -1.44404 0
M  V30 6873 H 636.612 1.04647 -2.33415 0
M  V30 6874 H 636.256 2.32492 -4.51564 0
M  V30 6875 H 636.186 3.84829 -3.59464 0
M  V30 6876 H 638.677 2.47034 -2.85977 0
M  V30 6877 H 638.99 4.56205 -6.23776 0
M  V30 6878 H 637.335 4.10839 -5.60568 0
M  V30 6879 H 640.526 2.99572 -3.59686 0
M  V30 6880 H 640.699 3.94974 -5.13712 0
M  V30 6881 N 634.105 1.10431 1.1244 0
M  V30 6882 C 635.068 0.756542 2.16354 0
M  V30 6883 C 636.068 -0.21899 1.59302 0
M  V30 6884 O 637.258 0.00415969 1.742 0
M  V30 6885 C 634.39 0.120612 3.40687 0
M  V30 6886 H 635.583 1.67696 2.48632 0
M  V30 6887 H 633.136 0.904832 1.27446 0
M  V30 6888 H 633.871 -0.810536 3.14008 0
M  V30 6889 H 633.656 0.822693 3.83372 0
M  V30 6890 H 635.146 -0.106945 4.17463 0
M  V30 6891 N 635.583 -1.29855 0.893053 0
M  V30 6892 C 636.53 -2.27909 0.364161 0
M  V30 6893 C 637.5 -1.56726 -0.550093 0
M  V30 6894 O 638.685 -1.84747 -0.47677 0
M  V30 6895 C 635.825 -3.42678 -0.408178 0
M  V30 6896 C 634.938 -4.28659 0.536212 0
M  V30 6897 C 634.073 -5.30599 -0.252521 0
M  V30 6898 C 633.112 -6.08234 0.686822 0
M  V30 6899 N 632.249 -7.02068 -0.0670902 0
M  V30 6900 H 637.089 -2.72531 1.20544 0
M  V30 6901 H 634.626 -1.34047 0.605779 0
M  V30 6902 H 636.584 -4.07986 -0.871962 0
M  V30 6903 H 635.214 -2.99103 -1.21397 0
M  V30 6904 H 634.266 -3.63584 1.1185 0
M  V30 6905 H 635.578 -4.8274 1.25552 0
M  V30 6906 H 634.732 -6.01694 -0.777801 0
M  V30 6907 H 633.471 -4.77233 -1.005 0
M  V30 6908 H 632.476 -5.3601 1.22366 0
M  V30 6909 H 633.701 -6.63689 1.43852 0
M  V30 6910 H 631.647 -6.5108 -0.801955 0
M  V30 6911 H 631.564 -7.53675 0.59243 0
M  V30 6912 H 632.832 -7.77392 -0.572851 0
M  V30 6913 N 637.061 -0.65484 -1.43351 0
M  V30 6914 C 637.991 0.0221809 -2.33489 0
M  V30 6915 C 638.972 0.810272 -1.49561 0
M  V30 6916 O 640.157 0.771426 -1.78221 0
M  V30 6917 C 637.287 0.988117 -3.32947 0
M  V30 6918 C 636.241 0.310026 -4.26876 0
M  V30 6919 C 635.567 1.38752 -5.16384 0
M  V30 6920 C 636.867 -0.798589 -5.16159 0
M  V30 6921 H 638.561 -0.730571 -2.9035 0
M  V30 6922 H 636.107 -0.352773 -1.39612 0
M  V30 6923 H 638.06 1.47067 -3.94904 0
M  V30 6924 H 636.784 1.77205 -2.74346 0
M  V30 6925 H 635.443 -0.152097 -3.66284 0
M  V30 6926 H 635.091 2.16293 -4.54121 0
M  V30 6927 H 634.791 0.939051 -5.80048 0
M  V30 6928 H 636.315 1.87141 -5.81215 0
M  V30 6929 H 637.729 -0.398126 -5.71916 0
M  V30 6930 H 636.126 -1.17163 -5.88552 0
M  V30 6931 H 637.196 -1.65588 -4.55751 0
M  V30 6932 N 638.539 1.52521 -0.396863 0
M  V30 6933 C 639.955 1.5953 -0.0471659 0
M  V30 6934 C 640.155 1.41044 1.43906 0
M  V30 6935 O 639.211 1.23122 2.20448 0
M  V30 6936 C 640.524 2.95972 -0.531113 0
M  V30 6937 C 642.072 3.09172 -0.488024 0
M  V30 6938 C 642.547 4.48075 -0.948281 0
M  V30 6939 N 644.038 4.54281 -0.9046 0
M  V30 6940 C 644.773 5.60007 -1.23205 0
M  V30 6941 N 644.269 6.73343 -1.63036 0
M  V30 6942 N 646.062 5.50151 -1.15282 0
M  V30 6943 H 638.213 1.62786 -1.36435 0
M  V30 6944 H 640.476 0.76514 -0.559701 0
M  V30 6945 H 640.182 3.14741 -1.56942 0
M  V30 6946 H 640.056 3.77143 0.0657922 0
M  V30 6947 H 642.443 2.90095 0.541211 0
M  V30 6948 H 642.524 2.29937 -1.12083 0
M  V30 6949 H 642.168 4.67894 -1.97578 0
M  V30 6950 H 642.098 5.25788 -0.292412 0
M  V30 6951 H 644.589 3.72918 -0.6116 0
M  V30 6952 H 644.902 7.49992 -1.86365 0
M  V30 6953 H 643.247 6.74655 -1.66929 0
M  V30 6954 H 646.438 4.6049 -0.840602 0
M  V30 6955 H 646.611 6.32444 -1.41133 0
M  V30 6956 N 640.017 0.126909 1.57088 0
M  V30 6957 C 641.428 -0.397201 1.82426 0
M  V30 6958 C 641.779 -1.66084 1.04453 0
M  V30 6959 O 640.904 -2.14534 0.283552 0
M  V30 6960 C 641.499 -0.727411 3.30899 0
M  V30 6961 C 640.058 -1.19612 3.56889 0
M  V30 6962 C 639.205 -0.20885 2.76512 0
M  V30 6963 H 642.156 0.351924 1.54749 0
M  V30 6964 H 642.177 -1.58407 3.45959 0
M  V30 6965 H 641.689 0.19247 3.87622 0
M  V30 6966 H 639.79 -2.13263 3.05532 0
M  V30 6967 H 639.903 -1.13598 4.65438 0
M  V30 6968 H 638.267 -0.697479 2.44964 0
M  V30 6969 H 639.05 0.704267 3.35998 0
M  V30 6970 N 641.495 -1.56914 -0.146875 0
M  V30 6971 C 642.72 -1.87881 -0.878386 0
M  V30 6972 C 643.145 -0.715945 -1.73942 0
M  V30 6973 O 642.503 0.334447 -1.78189 0
M  V30 6974 C 642.551 -3.17431 -1.71084 0
M  V30 6975 O 641.655 -3.01374 -2.81509 0
M  V30 6976 H 640.996 -0.617289 -0.244644 0
M  V30 6977 H 643.526 -2.04136 -0.137654 0
M  V30 6978 H 643.536 -3.49455 -2.10582 0
M  V30 6979 H 642.211 -4.01671 -1.07856 0
M  V30 6980 H 640.788 -2.80758 -2.45416 0
M  V30 6981 N 642.974 0.416227 -1.52004 0
M  V30 6982 C 643.907 1.52736 -1.6955 0
M  V30 6983 C 644.885 1.53264 -0.54305 0
M  V30 6984 O 646.069 1.72077 -0.769527 0
M  V30 6985 C 643.196 2.91283 -1.72835 0
M  V30 6986 C 642.242 3.08695 -2.94295 0
M  V30 6987 S 643.075 2.82758 -4.54762 0
M  V30 6988 C 644.231 4.23548 -4.60823 0
M  V30 6989 H 644.464 1.37623 -2.63528 0
M  V30 6990 H 641.997 0.607335 -1.41954 0
M  V30 6991 H 643.955 3.71134 -1.75413 0
M  V30 6992 H 642.616 3.03742 -0.799966 0
M  V30 6993 H 641.809 4.10042 -2.93056 0
M  V30 6994 H 641.411 2.36699 -2.89568 0
M  V30 6995 H 643.703 5.17078 -4.37763 0
M  V30 6996 H 644.646 4.29813 -5.62731 0
M  V30 6997 H 645.054 4.08188 -3.89927 0
M  V30 6998 N 644.452 1.42507 0.673017 0
M  V30 6999 C 645.729 1.33554 1.42908 0
M  V30 7000 C 646.109 -0.0262211 2.11084 0
M  V30 7001 O 645.457 -1.04181 2.03368 0
M  V30 7002 C 645.667 2.50498 2.43006 0
M  V30 7003 C 647.015 2.92694 3.07596 0
M  V30 7004 O 648.039 2.50401 2.53333 0
M  V30 7005 O 646.898 3.65899 4.05931 0
M  V30 7006 H 643.992 0.526785 0.637516 0
M  V30 7007 H 646.538 1.54518 0.701591 0
M  V30 7008 H 645.31 3.41272 1.9144 0
M  V30 7009 H 644.933 2.3153 3.23233 0
M  V30 7010 N 645.93 -0.909495 1.28709 0
M  V30 7011 C 646.84 -2.04558 1.14861 0
M  V30 7012 C 647.856 -1.73842 0.0741621 0
M  V30 7013 O 649.032 -1.99383 0.2843 0
M  V30 7014 C 646.097 -3.36957 0.816148 0
M  V30 7015 C 645.158 -3.81255 1.97341 0
M  V30 7016 C 644.391 -5.07335 1.65671 0
M  V30 7017 O 644.614 -5.67514 0.573053 0
M  V30 7018 O 643.548 -5.47449 2.50167 0
M  V30 7019 H 647.374 -2.19161 2.10243 0
M  V30 7020 H 644.959 -1.03159 1.08068 0
M  V30 7021 H 646.841 -4.16436 0.644873 0
M  V30 7022 H 645.516 -3.2352 -0.107983 0
M  V30 7023 H 644.423 -3.02584 2.19986 0
M  V30 7024 H 645.756 -3.99261 2.87839 0
M  V30 7025 N 647.408 -1.11026 -1.11852 0
M  V30 7026 C 648.654 -0.857729 -1.83768 0
M  V30 7027 C 648.987 0.615143 -1.842 0
M  V30 7028 O 648.262 1.45391 -1.29196 0
M  V30 7029 C 648.545 -1.41453 -3.31154 0
M  V30 7030 C 648.398 -2.95471 -3.39142 0
M  V30 7031 C 649.717 -1.0619 -4.27097 0
M  V30 7032 H 646.836 -0.313044 -0.667212 0
M  V30 7033 H 649.478 -1.37443 -1.31185 0
M  V30 7034 H 647.628 -0.975052 -3.76065 0
M  V30 7035 H 649.3 -3.4799 -3.02821 0
M  V30 7036 H 647.543 -3.31759 -2.79497 0
M  V30 7037 H 648.214 -3.29515 -4.42859 0
M  V30 7038 H 650.69 -1.44122 -3.90344 0
M  V30 7039 H 649.566 -1.47832 -5.28618 0
M  V30 7040 H 649.827 0.0278912 -4.42091 0
M  V30 7041 N 648.886 1.2938 -0.899927 0
M  V30 7042 C 649.816 2.30144 -0.39446 0
M  V30 7043 C 650.797 1.61611 0.530639 0
M  V30 7044 O 651.982 1.89119 0.441319 0
M  V30 7045 C 649.112 3.45229 0.37868 0
M  V30 7046 C 648.066 4.25564 -0.456012 0
M  V30 7047 C 647.392 5.32848 0.444637 0
M  V30 7048 C 648.692 4.93651 -1.70605 0
M  V30 7049 H 650.386 2.72673 -1.23653 0
M  V30 7050 H 647.932 1.31086 -0.596034 0
M  V30 7051 H 649.885 4.14797 0.743037 0
M  V30 7052 H 648.609 3.01545 1.25453 0
M  V30 7053 H 647.268 3.57704 -0.802704 0
M  V30 7054 H 646.916 4.85408 1.31863 0
M  V30 7055 H 646.616 5.87497 -0.110154 0
M  V30 7056 H 648.14 6.05268 0.805182 0
M  V30 7057 H 649.554 5.55655 -1.41141 0
M  V30 7058 H 647.951 5.58233 -2.20217 0
M  V30 7059 H 649.021 4.18926 -2.4419 0
M  V30 7060 N 650.364 0.662433 1.43002 0
M  V30 7061 C 651.312 -0.035345 2.32573 0
M  V30 7062 C 652.306 -0.803505 1.49131 0
M  V30 7063 O 653.512 -0.712865 1.65282 0
M  V30 7064 H 649.887 -0.0302194 0.751393 0
M  V30 7065 H 651.858 0.737686 2.89138 0
M  V30 7066 C 650.607 -0.981575 3.33557 0
M  V30 7067 H 649.93 -0.399914 3.97795 0
M  V30 7068 H 651.37 -1.43873 3.98844 0
M  V30 7069 C 649.829 -2.08204 2.64863 0
M  V30 7070 O 650.359 -3.16698 2.47113 0
M  V30 7071 N 648.565 -1.85022 2.24088 0
M  V30 7072 H 648.112 -0.967909 2.38724 0
M  V30 7073 H 648.07 -2.58845 1.78457 0
M  V30 7074 N 651.842 -1.52309 0.404946 0
M  V30 7075 C 653.07 -2.06185 -0.171818 0
M  V30 7076 C 653.485 -1.27536 -1.39212 0
M  V30 7077 O 652.842 -0.326112 -1.79563 0
M  V30 7078 C 652.893 -3.57647 -0.526417 0
M  V30 7079 O 652.614 -4.3332 0.645417 0
M  V30 7080 C 654.115 -4.27925 -1.15736 0
M  V30 7081 H 651.335 -0.670632 -0.0222328 0
M  V30 7082 H 653.879 -1.96259 0.574692 0
M  V30 7083 H 652.034 -3.67595 -1.22282 0
M  V30 7084 H 652.448 -5.23328 0.35042 0
M  V30 7085 H 653.922 -5.35093 -1.35572 0
M  V30 7086 H 654.399 -3.84134 -2.12926 0
M  V30 7087 H 655.005 -4.22335 -0.501281 0
M  V30 7088 N 653.32 -0.135238 -1.57019 0
M  V30 7089 C 654.25 0.805235 -2.19176 0
M  V30 7090 C 655.231 1.2656 -1.13651 0
M  V30 7091 O 656.416 1.32528 -1.4195 0
M  V30 7092 C 653.546 2.04914 -2.80406 0
M  V30 7093 C 652.5 1.72598 -3.91655 0
M  V30 7094 C 651.826 3.04154 -4.39766 0
M  V30 7095 C 653.126 0.981709 -5.12991 0
M  V30 7096 H 654.82 0.287232 -2.98019 0
M  V30 7097 H 652.366 0.136714 -1.4335 0
M  V30 7098 H 654.319 2.71178 -3.22553 0
M  V30 7099 H 653.043 2.59067 -1.98877 0
M  V30 7100 H 651.702 1.08717 -3.50109 0
M  V30 7101 H 651.35 3.56274 -3.55075 0
M  V30 7102 H 651.05 2.83299 -5.14796 0
M  V30 7103 H 652.574 3.71509 -4.84576 0
M  V30 7104 H 653.988 1.5462 -5.52056 0
M  V30 7105 H 652.385 0.873533 -5.93708 0
M  V30 7106 H 653.455 -0.0286887 -4.84892 0
M  V30 7107 N 654.798 1.5699 0.138552 0
M  V30 7108 C 655.708 2.02174 1.19008 0
M  V30 7109 C 656.724 0.938622 1.46512 0
M  V30 7110 O 657.9 1.24872 1.58016 0
M  V30 7111 C 654.965 2.40045 2.50159 0
M  V30 7112 C 654.026 3.62346 2.30226 0
M  V30 7113 C 653.259 3.98401 3.55123 0
M  V30 7114 O 653.482 3.35019 4.61647 0
M  V30 7115 O 652.416 4.91606 3.47285 0
M  V30 7116 H 656.242 2.91954 0.836452 0
M  V30 7117 H 653.827 1.45293 0.347907 0
M  V30 7118 H 655.709 2.65225 3.27465 0
M  V30 7119 H 654.384 1.53417 2.85035 0
M  V30 7120 H 653.291 3.42341 1.50843 0
M  V30 7121 H 654.624 4.49617 2.00262 0
M  V30 7122 N 656.276 -0.40816 1.52223 0
M  V30 7123 C 657.501 -1.18127 1.70472 0
M  V30 7124 C 657.926 -1.83491 0.41384 0
M  V30 7125 O 657.284 -1.70047 -0.628778 0
M  V30 7126 C 657.332 -2.21935 2.84213 0
M  V30 7127 O 656.436 -3.28099 2.4985 0
M  V30 7128 H 655.777 -0.344781 0.56747 0
M  V30 7129 H 658.307 -0.478328 1.9893 0
M  V30 7130 H 658.317 -2.66248 3.09153 0
M  V30 7131 H 656.992 -1.73744 3.7787 0
M  V30 7132 H 655.569 -2.89058 2.35584 0
M  V30 7133 N 657.755 -1.42862 -0.66545 0
M  V30 7134 C 658.983 -1.47246 -1.45349 0
M  V30 7135 C 659.398 -0.0865944 -1.88601 0
M  V30 7136 O 658.755 0.900652 -1.58728 0
M  V30 7137 C 658.806 -2.40772 -2.6965 0
M  V30 7138 O 658.527 -3.73968 -2.2821 0
M  V30 7139 C 660.028 -2.54272 -3.63126 0
M  V30 7140 H 657.248 -0.500497 -0.446927 0
M  V30 7141 H 659.792 -1.87477 -0.816871 0
M  V30 7142 H 657.947 -2.0377 -3.29479 0
M  V30 7143 H 658.361 -4.24146 -3.08546 0
M  V30 7144 H 659.835 -3.23815 -4.47043 0
M  V30 7145 H 660.312 -1.58364 -4.09656 0
M  V30 7146 H 660.918 -2.92036 -3.09185 0
M  V30 7147 N 659.233 0.902656 -1.29189 0
M  V30 7148 C 660.165 2.01149 -1.09872 0
M  V30 7149 C 661.178 1.62732 -0.0471046 0
M  V30 7150 O 662.367 1.76107 -0.29132 0
M  V30 7151 C 659.467 3.32612 -0.649818 0
M  V30 7152 C 658.64 3.99574 -1.7793 0
M  V30 7153 C 657.699 5.09325 -1.32191 0
M  V30 7154 O 656.725 5.31919 -2.02611 0
M  V30 7155 N 657.927 5.80185 -0.191171 0
M  V30 7156 H 660.692 2.18276 -2.05368 0
M  V30 7157 H 658.253 1.07466 -1.2109 0
M  V30 7158 H 660.245 4.03375 -0.327199 0
M  V30 7159 H 658.815 3.11876 0.212597 0
M  V30 7160 H 658.035 3.22213 -2.27095 0
M  V30 7161 H 659.323 4.41056 -2.53668 0
M  V30 7162 H 658.721 5.64312 0.396016 0
M  V30 7163 H 657.278 6.5176 0.0721001 0
M  V30 7164 N 660.711 1.11618 1.11262 0
M  V30 7165 C 661.674 0.779447 2.15539 0
M  V30 7166 C 662.674 -0.202081 1.59525 0
M  V30 7167 O 663.864 0.0226356 1.74185 0
M  V30 7168 C 660.996 0.15674 3.40539 0
M  V30 7169 H 662.189 1.70324 2.4684 0
M  V30 7170 H 659.742 0.918298 1.26479 0
M  V30 7171 H 660.477 -0.777186 3.1485 0
M  V30 7172 H 660.262 0.863308 3.82478 0
M  V30 7173 H 661.752 -0.062661 4.17553 0
M  V30 7174 N 662.189 -1.289 0.906776 0
M  V30 7175 C 663.414 -1.99939 0.551303 0
M  V30 7176 C 663.839 -1.67366 -0.858496 0
M  V30 7177 O 663.197 -0.902176 -1.57259 0
M  V30 7178 C 663.245 -3.52523 0.758937 0
M  V30 7179 O 662.349 -4.11983 -0.185308 0
M  V30 7180 H 661.69 -0.628376 0.214568 0
M  V30 7181 H 664.22 -1.64225 1.2203 0
M  V30 7182 H 664.23 -4.02522 0.666329 0
M  V30 7183 H 662.905 -3.75566 1.78671 0
M  V30 7184 H 661.482 -3.72873 -0.0445577 0
M  V30 7185 N 663.667 -0.670007 -1.42649 0
M  V30 7186 C 664.597 -0.00258501 -2.335 0
M  V30 7187 C 665.578 0.794364 -1.50412 0
M  V30 7188 O 666.763 0.75248 -1.79029 0
M  V30 7189 C 663.893 0.952748 -3.33976 0
M  V30 7190 C 662.847 0.264733 -4.2718 0
M  V30 7191 C 662.173 1.33267 -5.17826 0
M  V30 7192 C 663.473 -0.853289 -5.15283 0
M  V30 7193 H 665.167 -0.761326 -2.89559 0
M  V30 7194 H 662.713 -0.367561 -1.3923 0
M  V30 7195 H 664.666 1.4287 -3.96442 0
M  V30 7196 H 663.39 1.74285 -2.7621 0
M  V30 7197 H 662.049 -0.190938 -3.66102 0
M  V30 7198 H 661.697 2.11464 -4.5639 0
M  V30 7199 H 661.397 0.877476 -5.81011 0
M  V30 7200 H 662.921 1.80965 -5.83167 0
M  V30 7201 H 664.335 -0.458763 -5.71462 0
M  V30 7202 H 662.732 -1.23398 -5.87276 0
M  V30 7203 H 663.802 -1.70412 -4.53969 0
M  V30 7204 N 665.145 1.52092 -0.413018 0
M  V30 7205 C 666.375 2.05974 0.160648 0
M  V30 7206 C 666.783 1.28267 1.39084 0
M  V30 7207 O 666.126 0.328805 1.80733 0
M  V30 7208 C 666.188 3.54918 0.572169 0
M  V30 7209 C 665.852 4.53705 -0.547826 0
M  V30 7210 C 666.849 5.00342 -1.41259 0
M  V30 7211 C 664.534 4.97089 -0.721627 0
M  V30 7212 C 666.528 5.89011 -2.43607 0
M  V30 7213 C 664.215 5.85554 -1.74841 0
M  V30 7214 C 665.213 6.3141 -2.60403 0
M  V30 7215 O 664.901 7.18123 -3.61323 0
M  V30 7216 H 664.633 0.675636 0.0221936 0
M  V30 7217 H 667.187 1.96931 -0.58373 0
M  V30 7218 H 665.417 3.61661 1.36889 0
M  V30 7219 H 667.106 3.91428 1.0742 0
M  V30 7220 H 667.872 4.67537 -1.28974 0
M  V30 7221 H 663.751 4.60954 -0.0652911 0
M  V30 7222 H 667.295 6.24725 -3.10425 0
M  V30 7223 H 663.192 6.17773 -1.87156 0
M  V30 7224 H 663.96 7.36244 -3.57613 0
M  V30 7225 N 666.623 0.143563 1.56945 0
M  V30 7226 C 667.87 -0.508407 1.96014 0
M  V30 7227 C 668.198 -1.65099 1.02824 0
M  V30 7228 O 667.453 -1.95618 0.0567764 0
M  V30 7229 C 667.752 -1.05885 3.41355 0
M  V30 7230 C 667.418 -0.0350809 4.50886 0
M  V30 7231 C 666.08 0.246362 4.80569 0
M  V30 7232 C 668.432 0.661282 5.16988 0
M  V30 7233 C 665.76 1.23003 5.73661 0
M  V30 7234 C 668.112 1.63375 6.11139 0
M  V30 7235 C 666.776 1.92292 6.39203 0
M  V30 7236 H 666.046 -0.186039 0.717266 0
M  V30 7237 H 668.693 0.229667 1.90118 0
M  V30 7238 H 666.998 -1.87419 3.44066 0
M  V30 7239 H 668.695 -1.57183 3.6891 0
M  V30 7240 H 665.285 -0.264622 4.27782 0
M  V30 7241 H 669.469 0.457038 4.94191 0
M  V30 7242 H 664.725 1.46056 5.93698 0
M  V30 7243 H 668.899 2.17887 6.61436 0
M  V30 7244 H 666.526 2.68666 7.11142 0
M  V30 7245 N 668.101 -1.57061 -0.130224 0
M  V30 7246 C 669.064 -1.98593 -1.14426 0
M  V30 7247 C 670.064 -0.874584 -1.34936 0
M  V30 7248 O 671.254 -1.14086 -1.31643 0
M  V30 7249 C 668.386 -2.31639 -2.50112 0
M  V30 7250 H 669.579 -2.89374 -0.787561 0
M  V30 7251 H 667.132 -1.51756 -0.374146 0
M  V30 7252 H 667.867 -1.43703 -2.90723 0
M  V30 7253 H 667.652 -3.12684 -2.36583 0
M  V30 7254 H 669.142 -2.64551 -3.23114 0
M  V30 7255 N 669.579 0.400081 -1.52437 0
M  V30 7256 C 670.489 1.51253 -1.79331 0
M  V30 7257 C 671.505 1.60188 -0.679396 0
M  V30 7258 O 672.681 1.76733 -0.965791 0
M  V30 7259 C 669.746 2.869 -1.94652 0
M  V30 7260 C 668.807 2.87777 -3.18564 0
M  V30 7261 C 668.04 4.16954 -3.33145 0
M  V30 7262 O 668.263 5.11329 -2.52783 0
M  V30 7263 O 667.197 4.2487 -4.26343 0
M  V30 7264 H 671.023 1.31461 -2.73773 0
M  V30 7265 H 668.608 0.586834 -1.37392 0
M  V30 7266 H 670.49 3.67336 -2.065 0
M  V30 7267 H 669.165 3.06741 -1.034 0
M  V30 7268 H 668.072 2.06162 -3.12167 0
M  V30 7269 H 669.405 2.72886 -4.09627 0
M  V30 7270 N 671.057 1.43213 0.657864 0
M  V30 7271 C 672.334 1.35063 1.41483 0
M  V30 7272 C 672.714 -0.0038314 2.111 0
M  V30 7273 O 672.062 -1.02018 2.04462 0
M  V30 7274 C 672.272 2.53061 2.40335 0
M  V30 7275 C 673.62 2.9594 3.04474 0
M  V30 7276 O 674.644 2.53074 2.50663 0
M  V30 7277 O 673.503 3.70184 4.02027 0
M  V30 7278 H 670.597 0.533517 0.631893 0
M  V30 7279 H 673.143 1.55253 0.685162 0
M  V30 7280 H 671.915 3.43283 1.87809 0
M  V30 7281 H 671.538 2.34945 3.20759 0
M  V30 7282 N 672.536 -0.895792 1.29666 0
M  V30 7283 C 673.947 -1.46195 1.1612 0
M  V30 7284 C 674.298 -1.94699 -0.242195 0
M  V30 7285 O 673.423 -1.8406 -1.13802 0
M  V30 7286 C 674.018 -2.65718 2.10189 0
M  V30 7287 C 672.577 -3.18458 2.00653 0
M  V30 7288 C 671.724 -1.91149 2.00891 0
M  V30 7289 H 674.675 -0.706756 1.42094 0
M  V30 7290 H 674.696 -3.4158 1.6764 0
M  V30 7291 H 674.208 -2.30386 3.12321 0
M  V30 7292 H 672.309 -3.58474 1.01623 0
M  V30 7293 H 672.422 -3.82491 2.88509 0
M  V30 7294 H 670.786 -2.09021 1.45542 0
M  V30 7295 H 671.569 -1.58089 3.04734 0
M  V30 7296 N 674.014 -1.12206 -1.10668 0
M  V30 7297 C 675.425 -0.890657 -1.64086 0
M  V30 7298 C 675.776 0.575502 -1.8757 0
M  V30 7299 O 674.901 1.4394 -1.61587 0
M  V30 7300 C 675.496 -1.61029 -2.98085 0
M  V30 7301 C 674.055 -1.4251 -3.48379 0
M  V30 7302 C 673.202 -1.64778 -2.23033 0
M  V30 7303 H 676.153 -1.27718 -0.94201 0
M  V30 7304 H 676.174 -1.05993 -3.65439 0
M  V30 7305 H 675.686 -2.67735 -2.80962 0
M  V30 7306 H 673.787 -0.380497 -3.70652 0
M  V30 7307 H 673.9 -2.17959 -4.26651 0
M  V30 7308 H 672.264 -1.07171 -2.31055 0
M  V30 7309 H 673.047 -2.72776 -2.08443 0
M  V30 7310 N 675.492 1.28418 -0.913599 0
M  V30 7311 C 676.72 1.99106 -0.562536 0
M  V30 7312 C 677.135 1.68273 0.856137 0
M  V30 7313 O 676.492 0.935401 1.56705 0
M  V30 7314 C 676.543 3.5338 -0.761903 0
M  V30 7315 O 676.264 3.83127 -2.12475 0
M  V30 7316 C 677.765 4.41328 -0.417651 0
M  V30 7317 H 674.985 0.635798 -0.214481 0
M  V30 7318 H 677.529 1.63618 -1.22676 0
M  V30 7319 H 675.684 3.8713 -0.144676 0
M  V30 7320 H 676.098 4.77763 -2.16431 0
M  V30 7321 H 677.572 5.48642 -0.607919 0
M  V30 7322 H 678.049 4.34422 0.646108 0
M  V30 7323 H 678.655 4.13074 -1.01241 0
M  V30 7324 N 676.97 0.677563 1.42291 0
M  V30 7325 C 678.195 0.207901 2.06355 0
M  V30 7326 C 678.62 -1.12723 1.50583 0
M  V30 7327 O 677.978 -1.70171 0.62543 0
M  V30 7328 C 678.026 0.156489 3.6026 0
M  V30 7329 O 677.13 -0.874162 4.03029 0
M  V30 7330 H 676.471 0.106056 0.655475 0
M  V30 7331 H 679.001 0.927354 1.82377 0
M  V30 7332 H 679.011 -0.0187258 4.07996 0
M  V30 7333 H 677.686 1.13101 4.00226 0
M  V30 7334 H 676.263 -0.669764 3.66836 0
M  V30 7335 N 678.448 -1.51871 0.421078 0
M  V30 7336 C 679.378 -2.30231 -0.389363 0
M  V30 7337 C 680.359 -1.34946 -1.03555 0
M  V30 7338 O 681.544 -1.63859 -1.04229 0
M  V30 7339 C 678.674 -3.13247 -1.49979 0
M  V30 7340 C 677.628 -4.16677 -0.977966 0
M  V30 7341 C 676.954 -4.88112 -2.1829 0
M  V30 7342 C 678.254 -5.22295 -0.0236775 0
M  V30 7343 H 679.948 -2.98229 0.264524 0
M  V30 7344 H 677.494 -1.43424 0.12866 0
M  V30 7345 H 679.447 -3.66838 -2.07383 0
M  V30 7346 H 678.171 -2.4304 -2.18173 0
M  V30 7347 H 676.83 -3.64114 -0.426245 0
M  V30 7348 H 676.478 -4.14423 -2.85066 0
M  V30 7349 H 676.178 -5.58041 -1.84021 0
M  V30 7350 H 677.702 -5.44521 -2.76278 0
M  V30 7351 H 679.116 -5.71055 -0.506899 0
M  V30 7352 H 677.513 -5.99656 0.230782 0
M  V30 7353 H 678.583 -4.76131 0.917999 0
M  V30 7354 N 679.926 -0.151884 -1.56866 0
M  V30 7355 C 680.873 0.785936 -2.17006 0
M  V30 7356 C 681.843 1.2407 -1.10435 0
M  V30 7357 O 683.028 1.31235 -1.38499 0
M  V30 7358 C 680.168 2.01771 -2.79969 0
M  V30 7359 C 679.281 1.6083 -4.00946 0
M  V30 7360 C 678.416 2.79224 -4.51893 0
M  V30 7361 C 677.455 2.3468 -5.65324 0
M  V30 7362 N 676.592 3.461 -6.10867 0
M  V30 7363 H 681.432 0.266286 -2.96808 0
M  V30 7364 H 678.969 0.11972 -1.46612 0
M  V30 7365 H 680.927 2.73989 -3.14621 0
M  V30 7366 H 679.557 2.51139 -2.02803 0
M  V30 7367 H 678.609 0.783592 -3.72242 0
M  V30 7368 H 679.921 1.24119 -4.83111 0
M  V30 7369 H 679.075 3.59625 -4.88625 0
M  V30 7370 H 677.814 3.19183 -3.68746 0
M  V30 7371 H 676.819 1.52721 -5.28163 0
M  V30 7372 H 678.044 1.95801 -6.5026 0
M  V30 7373 H 675.99 3.85671 -5.30654 0
M  V30 7374 H 675.907 3.1342 -6.87971 0
M  V30 7375 H 677.175 4.26844 -6.52246 0
M  V30 7376 N 681.404 1.57128 0.121893 0
M  V30 7377 C 682.629 1.89254 0.848385 0
M  V30 7378 C 683.054 0.743527 1.72781 0
M  V30 7379 O 682.412 -0.306056 1.78698 0
M  V30 7380 C 682.46 3.20113 1.66012 0
M  V30 7381 O 681.564 3.05815 2.76679 0
M  V30 7382 H 680.905 0.621103 0.234793 0
M  V30 7383 H 683.435 2.0433 0.10516 0
M  V30 7384 H 683.445 3.52761 2.04996 0
M  V30 7385 H 682.12 4.03336 1.01452 0
M  V30 7386 H 680.697 2.84627 2.40918 0
M  V30 7387 N 682.882 -0.391992 1.52647 0
M  V30 7388 C 684.129 -1.13732 1.67545 0
M  V30 7389 C 684.457 -1.90045 0.413881 0
M  V30 7390 O 683.712 -1.86157 -0.603646 0
M  V30 7391 C 684.011 -2.14401 2.85949 0
M  V30 7392 C 683.677 -1.54767 4.23507 0
M  V30 7393 C 682.339 -1.38229 4.60919 0
M  V30 7394 C 684.691 -1.11382 5.0916 0
M  V30 7395 C 682.019 -0.7685 5.81645 0
M  V30 7396 C 684.371 -0.514143 6.30507 0
M  V30 7397 C 683.035 -0.33604 6.66654 0
M  V30 7398 H 682.305 -0.416174 0.613091 0
M  V30 7399 H 684.952 -0.422327 1.86785 0
M  V30 7400 H 683.257 -2.92108 2.61114 0
M  V30 7401 H 684.954 -2.71974 2.94671 0
M  V30 7402 H 681.544 -1.68626 3.94035 0
M  V30 7403 H 685.728 -1.22962 4.80826 0
M  V30 7404 H 680.984 -0.618681 6.08262 0
M  V30 7405 H 685.158 -0.169657 6.96193 0
M  V30 7406 H 682.785 0.14166 7.60068 0
M  V30 7407 N 684.36 -1.4356 -0.65026 0
M  V30 7408 C 685.776 -1.27025 -0.966269 0
M  V30 7409 C 685.976 -0.192117 -2.00582 0
M  V30 7410 O 685.032 0.428459 -2.48838 0
M  V30 7411 C 686.345 -2.63556 -1.44772 0
M  V30 7412 C 687.893 -2.71111 -1.56421 0
M  V30 7413 C 688.368 -4.08067 -2.07956 0
M  V30 7414 N 689.859 -4.10146 -2.15254 0
M  V30 7415 C 690.594 -5.12952 -2.56258 0
M  V30 7416 N 690.09 -6.26129 -2.96537 0
M  V30 7417 N 691.883 -5.00306 -2.56224 0
M  V30 7418 H 684.034 -2.12367 0.0375758 0
M  V30 7419 H 686.297 -0.946894 -0.0457782 0
M  V30 7420 H 686.003 -3.43429 -0.758271 0
M  V30 7421 H 685.877 -2.89152 -2.42221 0
M  V30 7422 H 688.264 -1.91569 -2.24467 0
M  V30 7423 H 688.345 -2.49277 -0.573967 0
M  V30 7424 H 687.989 -4.88077 -1.40511 0
M  V30 7425 H 687.919 -4.27266 -3.07817 0
M  V30 7426 H 690.41 -3.28453 -1.86887 0
M  V30 7427 H 690.723 -7.00403 -3.26582 0
M  V30 7428 H 689.068 -6.29597 -2.94334 0
M  V30 7429 H 692.259 -4.10952 -2.24135 0
M  V30 7430 H 692.432 -5.80553 -2.87857 0
M  V30 7431 N 685.838 0.888903 -1.30139 0
M  V30 7432 C 687.078 1.65456 -1.20015 0
M  V30 7433 C 687.442 1.90467 0.242148 0
M  V30 7434 O 688.643 2.6472 0.466561 0
M  V30 7435 C 686.914 2.96071 -2.00191 0
M  V30 7436 S 688.473 3.87055 -2.06721 0
M  V30 7437 H 685.291 0.567927 -0.427761 0
M  V30 7438 H 687.893 1.05539 -1.64565 0
M  V30 7439 H 686.597 2.7559 -3.04103 0
M  V30 7440 H 686.128 3.61023 -1.56288 0
M  V30 7441 H 688.143 4.81676 -1.19174 0
M  V30 7442 N 687.317 1.12792 1.10072 0
M  V30 7443 C 688.728 0.899346 1.63611 0
M  V30 7444 C 689.079 -0.565547 1.87872 0
M  V30 7445 O 688.204 -1.43081 1.62348 0
M  V30 7446 C 688.799 1.62608 2.97227 0
M  V30 7447 C 687.358 1.44356 3.47618 0
M  V30 7448 C 686.505 1.65958 2.22156 0
M  V30 7449 H 689.456 1.28216 0.935223 0
M  V30 7450 H 689.477 1.0793 3.64872 0
M  V30 7451 H 688.989 2.69221 2.79538 0
M  V30 7452 H 687.09 0.400148 3.70445 0
M  V30 7453 H 687.203 2.20218 4.25489 0
M  V30 7454 H 685.567 1.08395 2.30484 0
M  V30 7455 H 686.35 2.73877 2.06993 0
M  V30 7456 N 688.795 -1.27931 0.920396 0
M  V30 7457 C 690.02 -1.99343 0.572478 0
M  V30 7458 C 690.445 -1.68267 -0.840696 0
M  V30 7459 O 689.803 -0.918805 -1.56294 0
M  V30 7460 C 689.851 -3.51698 0.796284 0
M  V30 7461 O 688.955 -4.12157 -0.141602 0
M  V30 7462 H 688.296 -0.626065 0.221221 0
M  V30 7463 H 690.826 -1.62921 1.23765 0
M  V30 7464 H 690.836 -4.01793 0.708984 0
M  V30 7465 H 689.511 -3.73649 1.82644 0
M  V30 7466 H 688.088 -3.729 -0.005007 0
M  V30 7467 N 690.273 -0.685099 -1.4193 0
M  V30 7468 C 691.684 -0.287699 -1.8447 0
M  V30 7469 C 692.035 1.17215 -1.57338 0
M  V30 7470 O 691.16 1.89856 -1.03845 0
M  V30 7471 C 691.755 -0.515385 -3.34857 0
M  V30 7472 C 690.314 -0.172006 -3.76007 0
M  V30 7473 C 689.461 -0.802808 -2.65425 0
M  V30 7474 H 692.412 -0.88652 -1.3163 0
M  V30 7475 H 692.433 0.229251 -3.79809 0
M  V30 7476 H 691.945 -1.57796 -3.54573 0
M  V30 7477 H 690.046 0.886716 -3.61895 0
M  V30 7478 H 690.159 -0.619717 -4.75075 0
M  V30 7479 H 688.523 -0.233267 -2.5363 0
M  V30 7480 H 689.306 -1.86904 -2.87961 0
M  V30 7481 N 691.751 1.51645 -0.429126 0
M  V30 7482 C 692.681 2.30434 0.377148 0
M  V30 7483 C 693.662 1.35493 1.02838 0
M  V30 7484 O 694.847 1.6441 1.03359 0
M  V30 7485 C 691.977 3.14038 1.48315 0
M  V30 7486 C 690.931 4.1719 0.955855 0
M  V30 7487 C 690.257 4.89263 2.15698 0
M  V30 7488 C 691.557 5.223 -0.00402136 0
M  V30 7489 H 693.251 2.98085 -0.280336 0
M  V30 7490 H 690.797 1.43354 -0.136265 0
M  V30 7491 H 692.75 3.67933 2.05435 0
M  V30 7492 H 691.474 2.44193 2.16881 0
M  V30 7493 H 690.133 3.64335 0.406929 0
M  V30 7494 H 689.781 4.15929 2.82864 0
M  V30 7495 H 689.481 5.59009 1.81059 0
M  V30 7496 H 691.005 5.45978 2.73387 0
M  V30 7497 H 692.419 5.71315 0.476607 0
M  V30 7498 H 690.816 5.99525 -0.26258 0
M  V30 7499 H 691.886 4.75638 -0.943236 0
M  V30 7500 N 693.229 0.160201 1.56784 0
M  V30 7501 C 694.476 -0.487588 1.96542 0
M  V30 7502 C 694.804 -1.63999 1.04569 0
M  V30 7503 O 694.059 -1.95546 0.0775211 0
M  V30 7504 C 694.358 -1.02259 3.42459 0
M  V30 7505 C 694.024 0.0127436 4.50898 0
M  V30 7506 C 692.686 0.297318 4.80281 0
M  V30 7507 C 695.038 0.716078 5.16257 0
M  V30 7508 C 692.366 1.29081 5.72324 0
M  V30 7509 C 694.718 1.69847 6.09372 0
M  V30 7510 C 693.382 1.99061 6.37127 0
M  V30 7511 H 692.652 -0.178421 0.719199 0
M  V30 7512 H 695.299 0.249818 1.89864 0
M  V30 7513 H 693.604 -1.8376 3.46034 0
M  V30 7514 H 695.301 -1.53261 3.70556 0
M  V30 7515 H 691.891 -0.219235 4.28039 0
M  V30 7516 H 696.075 0.509428 4.93679 0
M  V30 7517 H 691.331 1.52344 5.92116 0
M  V30 7518 H 695.505 2.2489 6.59088 0
M  V30 7519 H 693.132 2.76194 7.08252 0
M  V30 7520 N 694.707 -1.5719 -0.113559 0
M  V30 7521 C 695.637 -2.03772 -1.14013 0
M  V30 7522 C 696.618 -0.923176 -1.42869 0
M  V30 7523 O 697.803 -1.19325 -1.53216 0
M  V30 7524 C 694.933 -2.44663 -2.4649 0
M  V30 7525 C 693.887 -3.59612 -2.32085 0
M  V30 7526 C 693.213 -3.8642 -3.69573 0
M  V30 7527 C 694.513 -4.91149 -1.7768 0
M  V30 7528 H 696.207 -2.89785 -0.752665 0
M  V30 7529 H 693.753 -1.39412 -0.360609 0
M  V30 7530 H 695.706 -2.75857 -3.18561 0
M  V30 7531 H 694.43 -1.55628 -2.87137 0
M  V30 7532 H 693.089 -3.28636 -1.62461 0
M  V30 7533 H 692.737 -2.94581 -4.07715 0
M  V30 7534 H 692.437 -4.63797 -3.60786 0
M  V30 7535 H 693.961 -4.2007 -4.4314 0
M  V30 7536 H 695.375 -5.20843 -2.39574 0
M  V30 7537 H 693.772 -5.72562 -1.79701 0
M  V30 7538 H 694.842 -4.79301 -0.734776 0
M  V30 7539 N 696.185 0.383891 -1.52853 0
M  V30 7540 C 697.095 1.49343 -1.80925 0
M  V30 7541 C 698.111 1.59458 -0.696348 0
M  V30 7542 O 699.287 1.75698 -0.984481 0
M  V30 7543 C 696.352 2.84819 -1.97684 0
M  V30 7544 C 695.413 2.84382 -3.21598 0
M  V30 7545 C 694.646 4.13397 -3.37548 0
M  V30 7546 O 694.869 5.08619 -2.58192 0
M  V30 7547 O 693.803 4.20325 -4.30826 0
M  V30 7548 H 697.629 1.2855 -2.75152 0
M  V30 7549 H 695.214 0.572229 -1.38007 0
M  V30 7550 H 697.096 3.65125 -2.10385 0
M  V30 7551 H 695.771 3.05627 -1.06647 0
M  V30 7552 H 694.678 2.0284 -3.14336 0
M  V30 7553 H 696.011 2.68526 -4.12498 0
M  V30 7554 N 697.663 1.43903 0.642637 0
M  V30 7555 C 698.611 1.50164 1.77634 0
M  V30 7556 C 699.605 0.374294 1.65213 0
M  V30 7557 O 700.811 0.548748 1.71431 0
M  V30 7558 H 697.186 0.470974 0.586249 0
M  V30 7559 H 699.157 2.45603 1.69474 0
M  V30 7560 C 697.906 1.45196 3.15933 0
M  V30 7561 H 697.229 2.31253 3.26132 0
M  V30 7562 H 698.669 1.53638 3.95185 0
M  V30 7563 C 697.128 0.171043 3.36466 0
M  V30 7564 O 697.658 -0.763413 3.94379 0
M  V30 7565 N 695.864 0.077847 2.90496 0
M  V30 7566 H 695.411 0.8391 2.43551 0
M  V30 7567 H 695.369 -0.778473 3.0461 0
M  V30 7568 N 699.141 -0.881989 1.30609 0
M  V30 7569 C 700.387 -1.63647 1.19781 0
M  V30 7570 C 700.72 -1.92632 -0.246265 0
M  V30 7571 O 699.995 -1.54938 -1.17577 0
M  V30 7572 C 700.278 -2.97437 2.02985 0
M  V30 7573 C 700.131 -2.75406 3.55628 0
M  V30 7574 C 701.45 -3.98397 1.86997 0
M  V30 7575 H 698.569 -0.593841 0.436488 0
M  V30 7576 H 701.211 -1.02041 1.60273 0
M  V30 7577 H 699.361 -3.50018 1.68581 0
M  V30 7578 H 701.033 -2.2959 4.00107 0
M  V30 7579 H 699.276 -2.09856 3.79662 0
M  V30 7580 H 699.947 -3.70552 4.09139 0
M  V30 7581 H 702.423 -3.54986 2.17081 0
M  V30 7582 H 701.299 -4.89916 2.47536 0
M  V30 7583 H 701.56 -4.3424 0.829943 0
M  V30 7584 N 700.619 -1.13374 -1.09472 0
M  V30 7585 C 702.03 -0.90801 -1.63132 0
M  V30 7586 C 702.381 0.555576 -1.8817 0
M  V30 7587 O 701.506 1.42218 -1.63104 0
M  V30 7588 C 702.101 -1.64182 -2.96361 0
M  V30 7589 C 700.66 -1.46197 -3.46848 0
M  V30 7590 C 699.807 -1.67134 -2.21273 0
M  V30 7591 H 702.758 -1.2871 -0.928411 0
M  V30 7592 H 702.779 -1.09863 -3.64294 0
M  V30 7593 H 702.291 -2.707 -2.78106 0
M  V30 7594 H 700.392 -0.419788 -3.70228 0
M  V30 7595 H 700.505 -2.22472 -4.24315 0
M  V30 7596 H 698.869 -1.09616 -2.29905 0
M  V30 7597 H 699.652 -2.74971 -2.05538 0
M  V30 7598 N 702.098 1.27442 -0.927168 0
M  V30 7599 C 703.323 1.99036 -0.583042 0
M  V30 7600 C 703.748 1.68711 0.83176 0
M  V30 7601 O 703.106 0.927081 1.55804 0
M  V30 7602 C 703.154 3.51271 -0.814925 0
M  V30 7603 O 702.258 4.12226 0.119742 0
M  V30 7604 H 701.599 0.624883 -0.224538 0
M  V30 7605 H 704.129 1.62263 -1.24628 0
M  V30 7606 H 704.139 4.01411 -0.730282 0
M  V30 7607 H 702.814 3.72676 -1.84623 0
M  V30 7608 H 701.391 3.72897 -0.0147688 0
M  V30 7609 N 703.576 0.692616 1.41565 0
M  V30 7610 C 704.825 0.219452 2.00503 0
M  V30 7611 C 705.138 -1.18683 1.55479 0
M  V30 7612 O 706.344 -1.75731 2.06956 0
M  V30 7613 C 704.8 0.341451 3.58277 0
M  V30 7614 C 704.408 1.75291 4.12283 0
M  V30 7615 C 706.152 -0.0720899 4.24439 0
M  V30 7616 C 704.059 1.82673 5.62481 0
M  V30 7617 H 702.989 0.0782874 0.749925 0
M  V30 7618 H 705.64 0.860386 1.62079 0
M  V30 7619 H 704.022 -0.367683 3.94289 0
M  V30 7620 H 705.196 2.49057 3.87695 0
M  V30 7621 H 703.511 2.11587 3.58636 0
M  V30 7622 H 706.108 -0.0373385 5.34687 0
M  V30 7623 H 706.451 -1.11034 4.0122 0
M  V30 7624 H 706.984 0.586663 3.9345 0
M  V30 7625 H 703.723 2.84539 5.90523 0
M  V30 7626 H 703.243 1.13288 5.89004 0
M  V30 7627 H 704.922 1.58827 6.27203 0
M  V30 7628 N 705.054 -1.51416 0.437162 0
M  V30 7629 C 706.465 -1.86682 -0.0260005 0
M  V30 7630 C 706.816 -1.35432 -1.4196 0
M  V30 7631 O 705.941 -0.705055 -2.04592 0
M  V30 7632 C 706.536 -3.38757 -0.0539577 0
M  V30 7633 C 705.095 -3.7356 -0.461532 0
M  V30 7634 C 704.242 -2.75134 0.345924 0
M  V30 7635 H 707.193 -1.44642 0.653013 0
M  V30 7636 H 707.214 -3.70573 -0.863478 0
M  V30 7637 H 706.726 -3.76028 0.96045 0
M  V30 7638 H 704.827 -3.41878 -1.48155 0
M  V30 7639 H 704.94 -4.78737 -0.186451 0
M  V30 7640 H 703.304 -2.53947 -0.195739 0
M  V30 7641 H 704.087 -3.15247 1.35921 0
M  V30 7642 N 706.532 -0.168513 -1.56696 0
M  V30 7643 C 707.778 0.477865 -1.9709 0
M  V30 7644 C 708.111 1.63084 -1.05438 0
M  V30 7645 O 707.386 1.94238 -0.10095 0
M  V30 7646 C 707.669 0.963521 -3.4697 0
M  V30 7647 C 707.522 -0.189443 -4.49401 0
M  V30 7648 C 708.841 1.83813 -3.99876 0
M  V30 7649 H 705.96 0.172229 -0.716593 0
M  V30 7650 H 708.602 -0.254083 -1.88293 0
M  V30 7651 H 706.752 1.58724 -3.54597 0
M  V30 7652 H 708.424 -0.826451 -4.53836 0
M  V30 7653 H 706.667 -0.845366 -4.25483 0
M  V30 7654 H 707.338 0.192446 -5.51664 0
M  V30 7655 H 709.814 1.31235 -3.94863 0
M  V30 7656 H 708.69 2.14697 -5.0517 0
M  V30 7657 H 708.951 2.78289 -3.43523 0
M  V30 7658 N 708.01 1.57248 0.105221 0
M  V30 7659 C 708.92 2.04653 1.14693 0
M  V30 7660 C 709.936 0.969488 1.44489 0
M  V30 7661 O 711.112 1.28196 1.55331 0
M  V30 7662 C 708.177 2.45297 2.45011 0
M  V30 7663 C 707.238 3.67148 2.22489 0
M  V30 7664 C 706.471 4.05844 3.46592 0
M  V30 7665 O 706.694 3.44736 4.54437 0
M  V30 7666 O 705.628 4.98862 3.36779 0
M  V30 7667 H 709.454 2.93663 0.774336 0
M  V30 7668 H 707.039 1.45998 0.31701 0
M  V30 7669 H 708.921 2.72112 3.21766 0
M  V30 7670 H 707.596 1.59429 2.81717 0
M  V30 7671 H 706.503 3.45463 1.43547 0
M  V30 7672 H 707.836 4.53764 1.9068 0
M  V30 7673 N 709.488 -0.375779 1.53054 0
M  V30 7674 C 710.765 -1.13453 1.59336 0
M  V30 7675 C 711.145 -2.07379 0.394614 0
M  V30 7676 O 710.493 -2.2004 -0.616 0
M  V30 7677 C 710.703 -1.8826 2.93869 0
M  V30 7678 C 712.051 -2.43155 3.48081 0
M  V30 7679 O 713.075 -1.984 2.95831 0
M  V30 7680 O 711.934 -3.24944 4.39401 0
M  V30 7681 H 709.028 -0.519856 0.643179 0
M  V30 7682 H 711.574 -0.379865 1.65394 0
M  V30 7683 H 710.346 -1.19652 3.72558 0
M  V30 7684 H 709.969 -2.70658 2.91256 0
M  V30 7685 N 710.966 -1.44241 -0.634997 0
M  V30 7686 C 712.243 -1.37296 -1.39317 0
M  V30 7687 C 712.623 -0.0297532 -2.11079 0
M  V30 7688 O 711.971 0.987524 -2.06059 0
M  V30 7689 C 712.181 -2.56853 -2.36279 0
M  V30 7690 C 713.529 -3.00747 -2.99728 0
M  V30 7691 O 714.553 -2.5703 -2.46605 0
M  V30 7692 O 713.412 -3.76533 -3.96087 0
M  V30 7693 H 710.506 -0.543503 -0.623325 0
M  V30 7694 H 713.052 -1.56324 -0.660376 0
M  V30 7695 H 711.824 -3.46228 -1.82324 0
M  V30 7696 H 711.447 -2.40019 -3.16981 0
M  V30 7697 N 712.444 0.87505 -1.31075 0
M  V30 7698 C 713.354 2.01441 -1.20244 0
M  V30 7699 C 714.37 1.73584 -0.120227 0
M  V30 7700 O 715.546 1.98559 -0.337063 0
M  V30 7701 C 712.611 3.34675 -0.905199 0
M  V30 7702 C 711.672 3.75889 -2.0738 0
M  V30 7703 C 710.905 5.02764 -1.79064 0
M  V30 7704 O 711.128 5.65795 -0.723318 0
M  V30 7705 O 710.062 5.40623 -2.64594 0
M  V30 7706 H 713.888 2.13509 -2.1598 0
M  V30 7707 H 711.473 1.00257 -1.10765 0
M  V30 7708 H 713.355 4.1458 -0.755057 0
M  V30 7709 H 712.03 3.23692 0.0221695 0
M  V30 7710 H 710.937 2.96645 -2.27931 0
M  V30 7711 H 712.27 3.91489 -2.98324 0
M  V30 7712 N 713.922 1.13953 1.08869 0
M  V30 7713 C 715.147 0.928559 1.85452 0
M  V30 7714 C 715.572 -0.517642 1.80837 0
M  V30 7715 O 714.93 -1.36779 1.19001 0
M  V30 7716 C 714.978 1.42814 3.31114 0
M  V30 7717 O 714.082 0.617129 4.07756 0
M  V30 7718 H 713.423 0.33235 0.574839 0
M  V30 7719 H 715.953 1.5156 1.37443 0
M  V30 7720 H 715.963 1.43425 3.8196 0
M  V30 7721 H 714.638 2.48109 3.33788 0
M  V30 7722 H 713.215 0.679365 3.66659 0
M  V30 7723 N 715.4 -1.26948 0.933913 0
M  V30 7724 C 716.332 -2.25768 0.395137 0
M  V30 7725 C 717.345 -1.55637 -0.477585 0
M  V30 7726 O 718.534 -1.76142 -0.289204 0
M  V30 7727 C 715.634 -3.35874 -0.451882 0
M  V30 7728 C 714.807 -4.3554 0.40299 0
M  V30 7729 C 713.866 -5.24809 -0.3824 0
M  V30 7730 O 712.892 -5.68805 0.212057 0
M  V30 7731 N 714.094 -5.55636 -1.68072 0
M  V30 7732 H 716.859 -2.72634 1.24463 0
M  V30 7733 H 714.42 -1.40639 0.802008 0
M  V30 7734 H 716.412 -3.92542 -0.984516 0
M  V30 7735 H 714.982 -2.8856 -1.20215 0
M  V30 7736 H 714.202 -3.78047 1.11688 0
M  V30 7737 H 715.49 -4.99131 0.987201 0
M  V30 7738 H 714.888 -5.2176 -2.18592 0
M  V30 7739 H 713.445 -6.14978 -2.15975 0
M  V30 7740 N 716.879 -0.700114 -1.41195 0
M  V30 7741 C 717.827 -0.0263301 -2.32585 0
M  V30 7742 C 718.821 0.763683 -1.51209 0
M  V30 7743 O 720.027 0.668793 -1.67114 0
M  V30 7744 H 716.402 0.0102869 -0.75193 0
M  V30 7745 H 718.373 -0.814087 -2.8708 0
M  V30 7746 C 717.122 0.892793 -3.36042 0
M  V30 7747 H 716.445 0.294306 -3.98715 0
M  V30 7748 H 717.885 1.33247 -4.02518 0
M  V30 7749 C 716.344 2.01109 -2.7029 0
M  V30 7750 O 716.874 3.10035 -2.55423 0
M  V30 7751 N 715.08 1.79015 -2.28915 0
M  V30 7752 H 714.627 0.904275 -2.41207 0
M  V30 7753 H 714.585 2.54022 -1.85257 0
M  V30 7754 N 718.357 1.51182 -0.445186 0
M  V30 7755 C 719.305 2.29531 0.376597 0
M  V30 7756 C 720.299 1.35711 1.01385 0
M  V30 7757 O 721.505 1.53018 0.947922 0
M  V30 7758 H 717.88 0.738803 0.140267 0
M  V30 7759 H 719.851 2.96838 -0.304958 0
M  V30 7760 C 718.6 3.1552 1.4609 0
M  V30 7761 H 717.923 3.87605 0.979912 0
M  V30 7762 H 719.363 3.73384 2.009 0
M  V30 7763 C 717.822 2.31406 2.44852 0
M  V30 7764 O 718.352 1.97912 3.49562 0
M  V30 7765 N 716.558 1.94478 2.15932 0
M  V30 7766 H 716.105 2.21917 1.30808 0
M  V30 7767 H 716.063 1.38498 2.82251 0
M  V30 7768 N 719.835 0.176821 1.56605 0
M  V30 7769 C 720.783 -0.768159 2.1955 0
M  V30 7770 C 721.777 -1.23343 1.16116 0
M  V30 7771 O 722.983 -1.19844 1.34303 0
M  V30 7772 H 719.358 -0.266013 0.703378 0
M  V30 7773 H 721.329 -0.213374 2.97636 0
M  V30 7774 C 720.078 -1.98492 2.85475 0
M  V30 7775 H 719.401 -1.63595 3.64797 0
M  V30 7776 H 720.841 -2.62489 3.3298 0
M  V30 7777 C 719.3 -2.81207 1.85538 0
M  V30 7778 O 719.83 -3.7854 1.34427 0
M  V30 7779 N 718.036 -2.46331 1.54173 0
M  V30 7780 H 717.583 -1.67241 1.95929 0
M  V30 7781 H 717.541 -3.01961 0.875595 0
M  V30 7782 N 721.313 -1.57302 -0.09688 0
M  V30 7783 C 722.243 -2.0497 -1.11846 0
M  V30 7784 C 723.224 -0.938278 -1.41882 0
M  V30 7785 O 724.409 -1.20943 -1.51942 0
M  V30 7786 C 721.539 -2.47264 -2.43881 0
M  V30 7787 C 720.493 -3.62053 -2.28257 0
M  V30 7788 C 719.819 -3.90318 -3.65453 0
M  V30 7789 C 721.119 -4.93005 -1.72461 0
M  V30 7790 H 722.813 -2.90567 -0.721888 0
M  V30 7791 H 720.359 -1.39786 -0.345803 0
M  V30 7792 H 722.312 -2.7922 -3.15617 0
M  V30 7793 H 721.036 -1.58664 -2.8547 0
M  V30 7794 H 719.695 -3.30341 -1.58967 0
M  V30 7795 H 719.343 -2.98889 -4.04567 0
M  V30 7796 H 719.043 -4.67597 -3.55846 0
M  V30 7797 H 720.567 -4.24747 -4.3866 0
M  V30 7798 H 721.981 -5.23354 -2.34036 0
M  V30 7799 H 720.378 -5.74436 -1.73618 0
M  V30 7800 H 721.448 -4.80053 -0.683898 0
M  V30 7801 N 722.791 0.367657 -1.53252 0
M  V30 7802 C 723.721 1.45632 -1.8252 0
M  V30 7803 C 724.702 1.55979 -0.678568 0
M  V30 7804 O 725.887 1.70581 -0.928217 0
M  V30 7805 C 723.017 2.82994 -2.01325 0
M  V30 7806 C 721.971 2.87473 -3.17086 0
M  V30 7807 C 721.297 4.2749 -3.21179 0
M  V30 7808 C 722.597 2.55182 -4.55719 0
M  V30 7809 H 724.291 1.21387 -2.73689 0
M  V30 7810 H 721.837 0.58251 -1.31692 0
M  V30 7811 H 723.79 3.59179 -2.20383 0
M  V30 7812 H 722.514 3.08622 -1.06864 0
M  V30 7813 H 721.173 2.13739 -2.97844 0
M  V30 7814 H 720.821 4.5019 -2.24361 0
M  V30 7815 H 720.521 4.31403 -3.98955 0
M  V30 7816 H 722.045 5.0555 -3.42419 0
M  V30 7817 H 723.459 3.21081 -4.74953 0
M  V30 7818 H 721.856 2.70414 -5.3572 0
M  V30 7819 H 722.926 1.5044 -4.60973 0
M  V30 7820 N 724.269 1.44576 0.627338 0
M  V30 7821 C 725.68 1.42266 1.20902 0
M  V30 7822 C 726.031 0.139964 1.957 0
M  V30 7823 O 725.156 -0.759489 2.02634 0
M  V30 7824 C 725.751 2.57727 2.19914 0
M  V30 7825 C 724.31 2.58599 2.73502 0
M  V30 7826 C 723.457 2.34145 1.48564 0
M  V30 7827 H 726.408 1.53102 0.417791 0
M  V30 7828 H 726.429 2.30697 3.02588 0
M  V30 7829 H 725.941 3.51068 1.65447 0
M  V30 7830 H 724.042 1.6921 3.31962 0
M  V30 7831 H 724.155 3.57205 3.19282 0
M  V30 7832 H 722.519 1.83313 1.76829 0
M  V30 7833 H 723.302 3.29606 0.959935 0
M  V30 7834 N 725.747 -0.868086 1.31537 0
M  V30 7835 C 726.972 -1.65926 1.24432 0
M  V30 7836 C 727.397 -1.87169 -0.186936 0
M  V30 7837 O 726.755 -1.4148 -1.13371 0
M  V30 7838 C 726.803 -3.00347 1.9956 0
M  V30 7839 O 725.907 -3.90221 1.33422 0
M  V30 7840 H 725.248 -0.506375 0.429512 0
M  V30 7841 H 727.778 -1.0822 1.73637 0
M  V30 7842 H 727.788 -3.50269 2.09226 0
M  V30 7843 H 726.463 -2.84205 3.03645 0
M  V30 7844 H 725.04 -3.48672 1.32219 0
M  V30 7845 N 727.225 -1.14528 -1.08264 0
M  V30 7846 C 728.502 -0.825185 -1.77342 0
M  V30 7847 C 728.882 0.681037 -1.99813 0
M  V30 7848 O 728.23 1.62234 -1.60912 0
M  V30 7849 C 728.44 -1.62556 -3.08831 0
M  V30 7850 C 729.788 -1.82585 -3.83338 0
M  V30 7851 O 730.812 -1.59254 -3.18617 0
M  V30 7852 O 729.671 -2.21598 -4.99556 0
M  V30 7853 H 726.765 -0.302531 -0.769678 0
M  V30 7854 H 729.311 -1.25056 -1.14713 0
M  V30 7855 H 728.083 -2.64862 -2.88035 0
M  V30 7856 H 727.706 -1.1959 -3.79189 0
M  V30 7857 N 728.703 1.26451 -0.940633 0
M  V30 7858 C 729.613 2.30128 -0.455881 0
M  V30 7859 C 730.629 1.67536 0.469867 0
M  V30 7860 O 731.805 1.98344 0.349529 0
M  V30 7861 C 728.87 3.45634 0.271648 0
M  V30 7862 C 727.931 4.23709 -0.690594 0
M  V30 7863 C 727.164 5.337 0.00231047 0
M  V30 7864 O 727.387 5.57215 1.21935 0
M  V30 7865 O 726.321 5.98091 -0.676111 0
M  V30 7866 H 730.147 2.73655 -1.31707 0
M  V30 7867 H 727.732 1.3164 -0.706497 0
M  V30 7868 H 729.614 4.15853 0.681486 0
M  V30 7869 H 728.289 3.04138 1.10824 0
M  V30 7870 H 727.196 3.55974 -1.15037 0
M  V30 7871 H 728.529 4.68953 -1.49478 0
M  V30 7872 N 730.181 0.707592 1.40822 0
M  V30 7873 C 731.429 0.243189 2.00632 0
M  V30 7874 C 731.75 -1.16512 1.56365 0
M  V30 7875 O 731.02 -1.78841 0.799553 0
M  V30 7876 H 729.6 0.0869203 0.741926 0
M  V30 7877 H 732.262 0.911438 1.72275 0
M  V30 7878 H 731.358 0.270014 3.1093 0
M  V30 7879 N 731.66 -1.50943 0.453197 0
M  V30 7880 C 732.59 -2.31005 -0.34044 0
M  V30 7881 C 733.571 -1.37112 -1.00669 0
M  V30 7882 O 734.756 -1.66033 -1.0073 0
M  V30 7883 C 731.886 -3.16358 -1.433 0
M  V30 7884 C 730.84 -4.18658 -0.889363 0
M  V30 7885 C 730.166 -4.92633 -2.07887 0
M  V30 7886 C 731.466 -5.22227 0.0871142 0
M  V30 7887 H 733.16 -2.97601 0.327723 0
M  V30 7888 H 730.706 -1.43119 0.159054 0
M  V30 7889 H 732.659 -3.71155 -1.99555 0
M  V30 7890 H 731.383 -2.47613 -2.12968 0
M  V30 7891 H 730.042 -3.64936 -0.348915 0
M  V30 7892 H 729.69 -4.20376 -2.76211 0
M  V30 7893 H 729.39 -5.61819 -1.72143 0
M  V30 7894 H 730.914 -5.50258 -2.64666 0
M  V30 7895 H 732.328 -5.72001 -0.385656 0
M  V30 7896 H 730.725 -5.99032 0.357926 0
M  V30 7897 H 731.795 -4.74077 1.01879 0
M  V30 7898 N 733.138 -0.185124 -1.56509 0
M  V30 7899 C 734.554 0.170865 -1.58683 0
M  V30 7900 C 734.754 1.61799 -1.20098 0
M  V30 7901 O 733.81 2.35181 -0.919038 0
M  V30 7902 C 735.123 -0.122459 -3.00451 0
M  V30 7903 C 736.671 -0.0617699 -3.12939 0
M  V30 7904 C 737.146 -0.328269 -4.56822 0
M  V30 7905 N 738.637 -0.276533 -4.62374 0
M  V30 7906 C 739.372 -0.456722 -5.71578 0
M  V30 7907 N 738.868 -0.69672 -6.89288 0
M  V30 7908 N 740.661 -0.391669 -5.60734 0
M  V30 7909 H 732.812 -1.12956 -1.79874 0
M  V30 7910 H 735.075 -0.45011 -0.834329 0
M  V30 7911 H 734.781 -1.12546 -3.33206 0
M  V30 7912 H 734.655 0.579578 -3.72721 0
M  V30 7913 H 737.042 0.931826 -2.80002 0
M  V30 7914 H 737.123 -0.796732 -2.43076 0
M  V30 7915 H 736.767 -1.31914 -4.9047 0
M  V30 7916 H 736.697 0.427465 -5.24862 0
M  V30 7917 H 739.188 -0.0972458 -3.77775 0
M  V30 7918 H 739.501 -0.823291 -7.68402 0
M  V30 7919 H 737.846 -0.733497 -6.91119 0
M  V30 7920 H 741.037 -0.204663 -4.67652 0
M  V30 7921 H 741.21 -0.535518 -6.45783 0
M  V30 7922 N 734.616 1.57351 0.0885366 0
M  V30 7923 C 735.865 1.85604 0.789556 0
M  V30 7924 C 736.178 0.775352 1.79576 0
M  V30 7925 O 737.384 0.945206 2.54515 0
M  V30 7926 C 735.84 3.29175 1.45506 0
M  V30 7927 C 735.448 4.45331 0.488278 0
M  V30 7928 C 737.192 3.66646 2.13942 0
M  V30 7929 C 735.099 5.79937 1.15874 0
M  V30 7930 H 734.029 0.692346 0.298619 0
M  V30 7931 H 736.68 1.83451 0.0425821 0
M  V30 7932 H 735.062 3.25889 2.24972 0
M  V30 7933 H 736.236 4.59977 -0.275359 0
M  V30 7934 H 734.551 4.16301 -0.0907363 0
M  V30 7935 H 737.148 4.64498 2.6485 0
M  V30 7936 H 737.491 2.956 2.93132 0
M  V30 7937 H 738.024 3.71848 1.41328 0
M  V30 7938 H 734.763 6.54232 0.407508 0
M  V30 7939 H 734.283 5.69123 1.89364 0
M  V30 7940 H 735.962 6.24718 1.68336 0
M  V30 7941 N 736.094 -0.359525 1.53444 0
M  V30 7942 C 737.371 -1.11756 1.6053 0
M  V30 7943 C 737.751 -2.06949 0.416587 0
M  V30 7944 O 737.099 -2.20681 -0.592628 0
M  V30 7945 C 737.309 -1.85133 2.95849 0
M  V30 7946 C 738.657 -2.3945 3.50641 0
M  V30 7947 O 739.681 -1.95251 2.97918 0
M  V30 7948 O 738.54 -3.20266 4.42823 0
M  V30 7949 H 735.634 -0.513005 0.648656 0
M  V30 7950 H 738.18 -0.362301 1.65787 0
M  V30 7951 H 736.952 -1.15694 3.73806 0
M  V30 7952 H 736.575 -2.67554 2.9411 0
M  V30 7953 N 737.572 -1.44907 -0.619662 0
M  V30 7954 C 738.988 -1.29046 -0.939107 0
M  V30 7955 C 739.188 -0.23462 -2.00129 0
M  V30 7956 O 738.244 0.37558 -2.49691 0
M  V30 7957 C 739.557 -2.66567 -1.39149 0
M  V30 7958 C 741.105 -2.74368 -1.50635 0
M  V30 7959 C 741.58 -4.12386 -1.99253 0
M  V30 7960 N 743.071 -4.1462 -2.06506 0
M  V30 7961 C 743.806 -5.18272 -2.4532 0
M  V30 7962 N 743.302 -6.32278 -2.83189 0
M  V30 7963 N 745.095 -5.05628 -2.45554 0
M  V30 7964 H 737.246 -2.12239 0.0826135 0
M  V30 7965 H 739.509 -0.947652 -0.0256829 0
M  V30 7966 H 739.215 -3.4496 -0.685254 0
M  V30 7967 H 739.089 -2.94224 -2.36034 0
M  V30 7968 H 741.476 -1.96287 -2.20353 0
M  V30 7969 H 741.557 -2.50439 -0.520963 0
M  V30 7970 H 741.201 -4.90947 -1.30127 0
M  V30 7971 H 741.131 -4.33699 -2.98684 0
M  V30 7972 H 743.622 -3.32343 -1.79878 0
M  V30 7973 H 743.935 -7.07172 -3.11652 0
M  V30 7974 H 742.28 -6.35699 -2.80913 0
M  V30 7975 H 745.471 -4.15613 -2.15367 0
M  V30 7976 H 745.644 -5.86529 -2.75478 0
M  V30 7977 N 739.05 0.861098 -1.31996 0
M  V30 7978 C 739.983 1.97266 -1.14724 0
M  V30 7979 C 740.961 1.62528 -0.0483789 0
M  V30 7980 O 742.145 1.87366 -0.206478 0
M  V30 7981 C 739.272 3.30181 -0.754861 0
M  V30 7982 C 738.318 3.839 -1.85804 0
M  V30 7983 S 739.151 4.08274 -3.46515 0
M  V30 7984 C 740.307 5.44174 -3.09235 0
M  V30 7985 H 740.54 2.11614 -2.08822 0
M  V30 7986 H 738.073 1.01232 -1.16582 0
M  V30 7987 H 740.031 4.06996 -0.535232 0
M  V30 7988 H 738.692 3.13655 0.167155 0
M  V30 7989 H 737.885 4.80013 -1.53633 0
M  V30 7990 H 737.487 3.13907 -2.03318 0
M  V30 7991 H 739.779 6.26172 -2.58679 0
M  V30 7992 H 740.722 5.81301 -4.04345 0
M  V30 7993 H 741.13 5.0787 -2.46431 0
M  V30 7994 N 740.528 1.15101 1.07655 0
M  V30 7995 C 741.756 0.947731 1.83918 0
M  V30 7996 C 742.171 -0.503927 1.81951 0
M  V30 7997 O 741.528 -1.34941 1.2287 0
M  V30 7998 C 741.579 1.4503 3.31132 0
M  V30 7999 O 741.3 2.84508 3.33146 0
M  V30 8000 C 742.801 1.28806 4.24174 0
M  V30 8001 H 740.021 0.336786 0.580358 0
M  V30 8002 H 742.565 1.52799 1.35914 0
M  V30 8003 H 740.72 0.912632 3.76497 0
M  V30 8004 H 741.134 3.0723 4.251 0
M  V30 8005 H 742.608 1.6882 5.25551 0
M  V30 8006 H 743.085 0.231851 4.38588 0
M  V30 8007 H 743.691 1.81465 3.84643 0
M  V30 8008 N 742.006 -1.2595 0.947325 0
M  V30 8009 C 742.938 -2.25336 0.41906 0
M  V30 8010 C 743.951 -1.56135 -0.461051 0
M  V30 8011 O 745.14 -1.76438 -0.270505 0
M  V30 8012 C 742.24 -3.36334 -0.416233 0
M  V30 8013 C 741.413 -4.35088 0.449162 0
M  V30 8014 C 740.472 -5.25185 -0.326716 0
M  V30 8015 O 739.498 -5.68548 0.272374 0
M  V30 8016 N 740.7 -5.57388 -1.6217 0
M  V30 8017 H 743.465 -2.71298 1.27348 0
M  V30 8018 H 741.026 -1.39781 0.81688 0
M  V30 8019 H 743.018 -3.93564 -0.942826 0
M  V30 8020 H 741.588 -2.89819 -1.17148 0
M  V30 8021 H 740.808 -3.76841 1.15692 0
M  V30 8022 H 742.096 -4.98056 1.04008 0
M  V30 8023 H 741.494 -5.2405 -2.13046 0
M  V30 8024 H 740.051 -6.17234 -2.0944 0
M  V30 8025 N 743.484 -0.715051 -1.40445 0
M  V30 8026 C 744.431 -0.0621393 -2.30716 0
M  V30 8027 C 745.401 0.750871 -1.48159 0
M  V30 8028 O 746.586 0.714928 -1.76899 0
M  V30 8029 C 743.726 0.854036 -3.34365 0
M  V30 8030 C 742.839 0.0305565 -4.31989 0
M  V30 8031 C 741.974 0.946162 -5.22706 0
M  V30 8032 C 741.013 0.116741 -6.11989 0
M  V30 8033 N 740.15 0.987194 -6.95125 0
M  V30 8034 H 744.99 -0.83764 -2.85985 0
M  V30 8035 H 742.527 -0.424759 -1.40834 0
M  V30 8036 H 744.485 1.39946 -3.93028 0
M  V30 8037 H 743.115 1.59572 -2.806 0
M  V30 8038 H 742.167 -0.632044 -3.75112 0
M  V30 8039 H 743.479 -0.611615 -4.95036 0
M  V30 8040 H 742.633 1.56014 -5.86297 0
M  V30 8041 H 741.372 1.62216 -4.59932 0
M  V30 8042 H 740.377 -0.510176 -5.47428 0
M  V30 8043 H 741.602 -0.555742 -6.76822 0
M  V30 8044 H 739.548 1.64885 -6.3494 0
M  V30 8045 H 739.465 0.401046 -7.54936 0
M  V30 8046 H 740.733 1.58737 -7.63166 0
M  V30 8047 N 744.962 1.50701 -0.461195 0
M  V30 8048 C 746.19 2.06681 0.0951756 0
M  V30 8049 C 746.605 1.32615 1.34382 0
M  V30 8050 O 745.962 0.392531 1.78229 0
M  V30 8051 C 746.013 3.59354 0.393316 0
M  V30 8052 O 745.734 4.30626 -0.805797 0
M  V30 8053 C 747.235 4.31926 0.997744 0
M  V30 8054 H 744.455 0.670995 -0.00267259 0
M  V30 8055 H 746.999 1.93991 -0.647137 0
M  V30 8056 H 745.154 3.7188 1.08555 0
M  V30 8057 H 745.568 5.21667 -0.544409 0
M  V30 8058 H 747.042 5.39756 1.15619 0
M  V30 8059 H 747.519 3.91772 1.98523 0
M  V30 8060 H 748.125 4.23905 0.344188 0
M  V30 8061 N 746.441 0.193421 1.56409 0
M  V30 8062 C 747.852 -0.319471 1.83946 0
M  V30 8063 C 748.203 -1.61505 1.11403 0
M  V30 8064 O 747.328 -2.13139 0.374289 0
M  V30 8065 C 747.923 -0.586411 3.33686 0
M  V30 8066 C 746.482 -1.04368 3.61641 0
M  V30 8067 C 745.629 -0.0913834 2.77149 0
M  V30 8068 H 748.58 0.417242 1.53117 0
M  V30 8069 H 748.601 -1.43591 3.52366 0
M  V30 8070 H 748.113 0.356701 3.86457 0
M  V30 8071 H 746.214 -2.00113 3.14302 0
M  V30 8072 H 746.327 -0.937549 4.69837 0
M  V30 8073 H 744.691 -0.592954 2.47702 0
M  V30 8074 H 745.474 0.846142 3.32709 0
M  V30 8075 N 747.919 -1.57396 -0.0801906 0
M  V30 8076 C 749.166 -1.86836 -0.780927 0
M  V30 8077 C 749.494 -0.784012 -1.77999 0
M  V30 8078 O 748.749 0.220881 -1.94449 0
M  V30 8079 C 749.048 -3.22915 -1.53169 0
M  V30 8080 C 748.714 -4.45843 -0.67339 0
M  V30 8081 C 747.376 -4.79213 -0.436829 0
M  V30 8082 C 749.728 -5.21142 -0.0776786 0
M  V30 8083 C 747.056 -5.853 0.405062 0
M  V30 8084 C 749.408 -6.28119 0.751619 0
M  V30 8085 C 748.072 -6.59995 0.998131 0
M  V30 8086 H 747.342 -0.683682 -0.285761 0
M  V30 8087 H 749.989 -1.91454 -0.0419435 0
M  V30 8088 H 748.294 -3.14049 -2.34265 0
M  V30 8089 H 749.991 -3.42926 -2.07853 0
M  V30 8090 H 746.581 -4.19721 -0.867891 0
M  V30 8091 H 750.765 -4.95682 -0.247572 0
M  V30 8092 H 746.021 -6.084 0.60488 0
M  V30 8093 H 750.195 -6.8563 1.22 0
M  V30 8094 H 747.822 -7.42027 1.65227 0
M  V30 8095 N 749.397 0.351382 -1.53633 0
M  V30 8096 C 750.307 1.45471 -1.84052 0
M  V30 8097 C 751.323 1.57945 -0.730015 0
M  V30 8098 O 752.499 1.73571 -1.02153 0
M  V30 8099 C 749.564 2.80562 -2.03681 0
M  V30 8100 C 748.625 2.77497 -3.27558 0
M  V30 8101 C 747.858 4.06144 -3.46241 0
M  V30 8102 O 748.081 5.03028 -2.68922 0
M  V30 8103 O 747.015 4.11092 -4.39645 0
M  V30 8104 H 750.841 1.22684 -2.77817 0
M  V30 8105 H 748.426 0.542827 -1.3919 0
M  V30 8106 H 750.308 3.6058 -2.18082 0
M  V30 8107 H 748.983 3.03296 -1.13106 0
M  V30 8108 H 747.89 1.96126 -3.18568 0
M  V30 8109 H 749.223 2.59716 -4.18101 0
M  V30 8110 N 750.875 1.45233 0.611969 0
M  V30 8111 C 752.115 1.50558 1.38245 0
M  V30 8112 C 752.479 0.141959 1.91474 0
M  V30 8113 O 753.68 0.0698926 2.68709 0
M  V30 8114 C 751.951 2.55136 2.50281 0
M  V30 8115 S 753.51 2.79652 3.38142 0
M  V30 8116 H 750.328 0.532281 0.471378 0
M  V30 8117 H 752.93 1.82285 0.706578 0
M  V30 8118 H 751.634 3.52888 2.09518 0
M  V30 8119 H 751.165 2.25045 3.22674 0
M  V30 8120 H 753.18 2.12699 4.48301 0
M  V30 8121 N 752.353 -0.854086 1.3245 0
M  V30 8122 C 753.578 -1.64597 1.26185 0
M  V30 8123 C 754.003 -1.87357 -0.167074 0
M  V30 8124 O 753.361 -1.42675 -1.11864 0
M  V30 8125 C 753.409 -2.98213 2.02734 0
M  V30 8126 O 752.513 -3.88784 1.37554 0
M  V30 8127 H 751.854 -0.50179 0.434859 0
M  V30 8128 H 754.384 -1.06372 1.74775 0
M  V30 8129 H 754.394 -3.4803 2.1293 0
M  V30 8130 H 753.069 -2.80969 3.06642 0
M  V30 8131 H 751.646 -3.4725 1.3591 0
M  V30 8132 N 753.831 -1.1567 -1.07043 0
M  V30 8133 C 754.763 -0.814095 -2.14255 0
M  V30 8134 C 755.776 0.175293 -1.61854 0
M  V30 8135 O 756.965 -0.0483984 -1.78434 0
M  V30 8136 C 754.065 -0.190082 -3.38367 0
M  V30 8137 C 753.238 -1.21768 -4.20109 0
M  V30 8138 C 752.297 -0.614863 -5.22595 0
M  V30 8139 O 751.323 -1.28167 -5.54583 0
M  V30 8140 N 752.525 0.601955 -5.77371 0
M  V30 8141 H 755.29 -1.73677 -2.44247 0
M  V30 8142 H 752.851 -1.05301 -1.22977 0
M  V30 8143 H 754.843 0.22604 -4.04068 0
M  V30 8144 H 753.413 0.635992 -3.06062 0
M  V30 8145 H 752.633 -1.81025 -3.50177 0
M  V30 8146 H 753.921 -1.9114 -4.71533 0
M  V30 8147 H 753.319 1.162 -5.53637 0
M  V30 8148 H 751.876 0.96039 -6.44686 0
M  V30 8149 N 755.309 1.25446 -0.953992 0
M  V30 8150 C 756.534 1.97755 -0.625129 0
M  V30 8151 C 756.959 1.70437 0.795787 0
M  V30 8152 O 756.317 0.95992 1.53803 0
M  V30 8153 C 756.365 3.49463 -0.889251 0
M  V30 8154 O 755.469 4.12387 0.0322757 0
M  V30 8155 H 754.81 0.61998 -0.237742 0
M  V30 8156 H 757.34 1.59582 -1.28041 0
M  V30 8157 H 757.35 3.99772 -0.815263 0
M  V30 8158 H 756.025 3.68676 -1.92487 0
M  V30 8159 H 754.602 3.72782 -0.0938625 0
M  V30 8160 N 756.787 0.722489 1.40064 0
M  V30 8161 C 757.697 0.0755984 2.34478 0
M  V30 8162 C 758.713 -0.736046 1.57665 0
M  V30 8163 O 759.889 -0.667407 1.9002 0
M  V30 8164 C 756.954 -0.830075 3.36616 0
M  V30 8165 C 756.015 -0.00759884 4.29299 0
M  V30 8166 C 755.248 -0.870139 5.26559 0
M  V30 8167 O 755.471 -2.10921 5.2997 0
M  V30 8168 O 754.405 -0.305454 6.01124 0
M  V30 8169 H 758.231 0.854545 2.9143 0
M  V30 8170 H 755.816 0.483032 1.41376 0
M  V30 8171 H 757.698 -1.34864 3.99236 0
M  V30 8172 H 756.373 -1.58805 2.82069 0
M  V30 8173 H 755.28 0.556199 3.69942 0
M  V30 8174 H 756.613 0.712312 4.87018 0
M  V30 8175 N 758.265 -1.50454 0.469181 0
M  V30 8176 C 759.511 -2.02615 -0.0865971 0
M  V30 8177 C 759.844 -1.35062 -1.39542 0
M  V30 8178 O 759.119 -0.475701 -1.88593 0
M  V30 8179 C 759.402 -3.59068 -0.272385 0
M  V30 8180 C 759.255 -4.37196 1.05733 0
M  V30 8181 C 760.574 -4.2793 -1.0278 0
M  V30 8182 H 757.693 -0.736389 -0.0299977 0
M  V30 8183 H 760.335 -1.79792 0.614399 0
M  V30 8184 H 758.485 -3.78646 -0.869471 0
M  V30 8185 H 760.157 -4.29195 1.69084 0
M  V30 8186 H 758.4 -4.01013 1.65442 0
M  V30 8187 H 759.071 -5.44924 0.880997 0
M  V30 8188 H 761.547 -4.12816 -0.521718 0
M  V30 8189 H 760.423 -5.37214 -1.12659 0
M  V30 8190 H 760.684 -3.90968 -2.0639 0
M  V30 8191 N 759.743 -0.201713 -1.56304 0
M  V30 8192 C 760.676 0.755976 -2.15314 0
M  V30 8193 C 761.654 1.20497 -1.09175 0
M  V30 8194 O 762.838 1.2913 -1.37323 0
M  V30 8195 C 759.965 2.02177 -2.71739 0
M  V30 8196 C 759.011 1.71436 -3.90528 0
M  V30 8197 S 759.844 0.856624 -5.28604 0
M  V30 8198 C 761 2.13242 -5.88455 0
M  V30 8199 H 761.233 0.254348 -2.9621 0
M  V30 8200 H 758.766 0.0133669 -1.54394 0
M  V30 8201 H 760.724 2.74867 -3.04891 0
M  V30 8202 H 759.385 2.49452 -1.90873 0
M  V30 8203 H 758.578 2.65433 -4.28441 0
M  V30 8204 H 758.18 1.06823 -3.5842 0
M  V30 8205 H 760.472 3.08435 -6.0322 0
M  V30 8206 H 761.415 1.7975 -6.84905 0
M  V30 8207 H 761.823 2.2639 -5.17115 0
M  V30 8208 N 761.222 1.57436 0.0718424 0
M  V30 8209 C 762.469 1.87248 0.771007 0
M  V30 8210 C 762.797 0.793441 1.7758 0
M  V30 8211 O 762.052 -0.210565 1.94564 0
M  V30 8212 C 762.351 3.23723 1.51455 0
M  V30 8213 C 762.017 4.46194 0.649736 0
M  V30 8214 C 760.679 4.79438 0.411409 0
M  V30 8215 C 763.031 5.21176 0.05004 0
M  V30 8216 C 760.359 5.85077 -0.436096 0
M  V30 8217 C 762.711 6.27712 -0.784919 0
M  V30 8218 C 761.375 6.59457 -1.03312 0
M  V30 8219 H 760.645 0.685188 0.282132 0
M  V30 8220 H 763.292 1.91474 0.0317896 0
M  V30 8221 H 761.597 3.15287 2.32597 0
M  V30 8222 H 763.294 3.44023 2.06031 0
M  V30 8223 H 759.884 4.20175 0.84562 0
M  V30 8224 H 764.068 4.95806 0.221282 0
M  V30 8225 H 759.324 6.08071 -0.637136 0
M  V30 8226 H 763.498 6.84974 -1.25635 0
M  V30 8227 H 761.125 7.4114 -1.6916 0
M  V30 8228 N 762.7 -0.34323 1.53817 0
M  V30 8229 C 763.63 -1.42709 1.84814 0
M  V30 8230 C 764.611 -1.5488 0.703297 0
M  V30 8231 O 765.796 -1.69082 0.955237 0
M  V30 8232 C 762.926 -2.79756 2.05801 0
M  V30 8233 C 761.88 -2.82392 3.21619 0
M  V30 8234 C 761.206 -4.22326 3.2794 0
M  V30 8235 C 762.506 -2.479 4.59721 0
M  V30 8236 H 764.2 -1.17018 2.75585 0
M  V30 8237 H 761.746 -0.561485 1.32602 0
M  V30 8238 H 763.699 -3.55627 2.26069 0
M  V30 8239 H 762.423 -3.06883 1.11761 0
M  V30 8240 H 761.082 -2.08974 3.01207 0
M  V30 8241 H 760.73 -4.46564 2.31494 0
M  V30 8242 H 760.43 -4.25001 4.05768 0
M  V30 8243 H 761.954 -5.00039 3.50419 0
M  V30 8244 H 763.368 -3.13484 4.80001 0
M  V30 8245 H 761.765 -2.61857 5.39954 0
M  V30 8246 H 762.835 -1.43087 4.63308 0
M  V30 8247 N 764.178 -1.45556 -0.604258 0
M  V30 8248 C 765.403 -1.53509 -1.39462 0
M  V30 8249 C 765.828 -0.169638 -1.87333 0
M  V30 8250 O 765.186 0.846346 -1.60333 0
M  V30 8251 C 765.234 -2.52654 -2.5729 0
M  V30 8252 O 764.338 -2.04666 -3.5803 0
M  V30 8253 H 763.679 -0.517355 -0.416221 0
M  V30 8254 H 766.209 -1.90939 -0.735072 0
M  V30 8255 H 766.219 -2.71568 -3.04491 0
M  V30 8256 H 764.894 -3.51823 -2.21797 0
M  V30 8257 H 763.471 -1.95643 -3.17456 0
M  V30 8258 N 765.656 0.84705 -1.32902 0
M  V30 8259 C 766.586 1.97166 -1.25091 0
M  V30 8260 C 767.567 1.69578 -0.133161 0
M  V30 8261 O 768.752 1.91519 -0.321591 0
M  V30 8262 C 765.882 3.33157 -0.981006 0
M  V30 8263 C 764.836 3.75119 -2.06082 0
M  V30 8264 C 764.162 5.08826 -1.64318 0
M  V30 8265 C 765.462 3.89774 -3.47669 0
M  V30 8266 H 767.156 2.03958 -2.19184 0
M  V30 8267 H 764.702 0.979907 -1.05517 0
M  V30 8268 H 766.655 4.11393 -0.912891 0
M  V30 8269 H 765.379 3.266 -0.00445559 0
M  V30 8270 H 764.038 2.9914 -2.11921 0
M  V30 8271 H 763.686 4.98732 -0.653876 0
M  V30 8272 H 763.386 5.37873 -2.36572 0
M  V30 8273 H 764.91 5.89546 -1.58958 0
M  V30 8274 H 766.324 4.58343 -3.44376 0
M  V30 8275 H 764.721 4.30248 -4.18338 0
M  V30 8276 H 765.791 2.92463 -3.86773 0
M  V30 8277 N 767.134 1.16236 1.06428 0
M  V30 8278 C 768.411 0.853294 1.76006 0
M  V30 8279 C 768.791 -0.649162 2.00871 0
M  V30 8280 O 768.139 -1.59653 1.63472 0
M  V30 8281 C 768.349 1.67448 3.06206 0
M  V30 8282 C 769.697 1.8866 3.80385 0
M  V30 8283 O 770.721 1.64303 3.16043 0
M  V30 8284 O 769.58 2.29518 4.95968 0
M  V30 8285 H 766.674 0.314737 0.764767 0
M  V30 8286 H 769.22 1.26865 1.12709 0
M  V30 8287 H 767.992 2.69411 2.83784 0
M  V30 8288 H 767.615 1.25608 3.77238 0
M  V30 8289 N 768.612 -1.24939 0.960631 0
M  V30 8290 C 769.559 -2.25658 0.484459 0
M  V30 8291 C 770.529 -1.59422 -0.466242 0
M  V30 8292 O 771.714 -1.87015 -0.378169 0
M  V30 8293 C 768.854 -3.44359 -0.225958 0
M  V30 8294 C 767.967 -4.25214 0.762682 0
M  V30 8295 C 767.102 -5.31192 0.0290931 0
M  V30 8296 C 766.141 -6.03739 1.00827 0
M  V30 8297 N 765.278 -7.01437 0.305155 0
M  V30 8298 H 770.118 -2.65758 1.34821 0
M  V30 8299 H 767.655 -1.30648 0.675983 0
M  V30 8300 H 769.613 -4.12035 -0.654472 0
M  V30 8301 H 768.243 -3.05118 -1.05371 0
M  V30 8302 H 767.295 -3.57144 1.30966 0
M  V30 8303 H 768.607 -4.75406 1.50964 0
M  V30 8304 H 767.761 -6.04971 -0.457763 0
M  V30 8305 H 766.5 -4.81889 -0.750614 0
M  V30 8306 H 765.505 -5.2877 1.50607 0
M  V30 8307 H 766.73 -6.55131 1.7883 0
M  V30 8308 H 764.676 -6.54415 -0.455704 0
M  V30 8309 H 764.593 -7.49475 0.991104 0
M  V30 8310 H 765.861 -7.79336 -0.159966 0
M  V30 8311 N 770.09 -0.729906 -1.39679 0
M  V30 8312 C 771.037 -0.0866063 -2.30637 0
M  V30 8313 C 772.007 0.735115 -1.48947 0
M  V30 8314 O 773.192 0.696125 -1.77648 0
M  V30 8315 C 770.332 0.818524 -3.35252 0
M  V30 8316 C 769.445 -0.0152635 -4.31997 0
M  V30 8317 C 768.58 0.890669 -5.2368 0
M  V30 8318 C 767.619 0.0518246 -6.12078 0
M  V30 8319 N 766.756 0.913411 -6.96133 0
M  V30 8320 H 771.596 -0.867925 -2.85081 0
M  V30 8321 H 769.133 -0.439673 -1.40376 0
M  V30 8322 H 771.091 1.3577 -3.9449 0
M  V30 8323 H 769.721 1.56587 -2.82277 0
M  V30 8324 H 768.773 -0.671794 -3.74421 0
M  V30 8325 H 770.085 -0.664086 -4.9436 0
M  V30 8326 H 769.239 1.49787 -5.87919 0
M  V30 8327 H 767.978 1.57328 -4.61627 0
M  V30 8328 H 766.983 -0.568209 -5.46856 0
M  V30 8329 H 768.208 -0.627497 -6.76195 0
M  V30 8330 H 766.154 1.58141 -6.36653 0
M  V30 8331 H 766.071 0.320952 -7.55318 0
M  V30 8332 H 767.339 1.50633 -7.64807 0
M  V30 8333 N 771.568 1.50203 -0.477153 0
M  V30 8334 C 772.979 1.86685 -0.0235041 0
M  V30 8335 C 773.33 1.39148 1.38319 0
M  V30 8336 O 772.455 0.759051 2.02651 0
M  V30 8337 C 773.05 3.38781 -0.0358767 0
M  V30 8338 C 771.609 3.74652 0.362327 0
M  V30 8339 C 770.756 2.7412 -0.41875 0
M  V30 8340 H 773.707 1.4286 -0.691133 0
M  V30 8341 H 773.728 3.72732 0.764924 0
M  V30 8342 H 773.24 3.73349 -1.05981 0
M  V30 8343 H 771.341 3.45686 1.39039 0
M  V30 8344 H 771.454 4.79063 0.059457 0
M  V30 8345 H 769.818 2.54376 0.128341 0
M  V30 8346 H 770.601 3.11532 -1.44231 0
M  V30 8347 N 773.046 0.209999 1.56195 0
M  V30 8348 C 773.956 -0.716459 2.23392 0
M  V30 8349 C 774.972 -1.22291 1.23778 0
M  V30 8350 O 776.148 -1.26694 1.56558 0
M  V30 8351 C 773.213 -1.91261 2.89172 0
M  V30 8352 C 772.274 -1.44927 4.04097 0
M  V30 8353 C 771.507 -2.5884 4.66731 0
M  V30 8354 O 771.73 -3.76693 4.2832 0
M  V30 8355 O 770.664 -2.30701 5.55932 0
M  V30 8356 H 774.49 -0.174089 3.03201 0
M  V30 8357 H 772.075 -0.0199505 1.49387 0
M  V30 8358 H 773.957 -2.6114 3.30733 0
M  V30 8359 H 772.632 -2.4433 2.12331 0
M  V30 8360 H 771.539 -0.718839 3.67129 0
M  V30 8361 H 772.872 -0.965084 4.82646 0
M  V30 8362 N 774.524 -1.57472 -0.0634922 0
M  V30 8363 C 775.749 -1.92273 -0.77756 0
M  V30 8364 C 776.174 -0.807141 -1.69902 0
M  V30 8365 O 775.532 0.239523 -1.79711 0
M  V30 8366 C 775.58 -3.26054 -1.54017 0
M  V30 8367 O 774.684 -3.15873 -2.65138 0
M  V30 8368 H 774.025 -0.629389 -0.211579 0
M  V30 8369 H 776.555 -2.04579 -0.0292523 0
M  V30 8370 H 776.565 -3.60127 -1.91763 0
M  V30 8371 H 775.24 -4.06824 -0.864128 0
M  V30 8372 H 773.817 -2.93373 -2.30189 0
M  V30 8373 N 776.003 0.335068 -1.53997 0
M  V30 8374 C 776.95 1.41187 -1.82579 0
M  V30 8375 C 777.92 1.51897 -0.672061 0
M  V30 8376 O 779.105 1.673 -0.917346 0
M  V30 8377 C 776.245 2.77717 -2.0486 0
M  V30 8378 C 775.358 2.7573 -3.32561 0
M  V30 8379 C 774.493 4.04032 -3.44864 0
M  V30 8380 C 773.532 3.96308 -4.66483 0
M  V30 8381 N 772.669 5.16317 -4.75774 0
M  V30 8382 H 777.509 1.16113 -2.74448 0
M  V30 8383 H 775.046 0.562305 -1.35928 0
M  V30 8384 H 777.004 3.57071 -2.15768 0
M  V30 8385 H 775.634 3.01124 -1.16294 0
M  V30 8386 H 774.686 1.88432 -3.3045 0
M  V30 8387 H 775.998 2.65902 -4.22016 0
M  V30 8388 H 775.152 4.91814 -3.55251 0
M  V30 8389 H 773.891 4.16652 -2.53481 0
M  V30 8390 H 772.896 3.06911 -4.56164 0
M  V30 8391 H 774.121 3.85263 -5.5924 0
M  V30 8392 H 772.067 5.29464 -3.87303 0
M  V30 8393 H 771.984 5.08779 -5.59178 0
M  V30 8394 H 773.252 6.05846 -4.9048 0
M  V30 8395 N 777.481 1.45874 0.596531 0
M  V30 8396 C 778.897 1.30524 0.918459 0
M  V30 8397 C 779.097 0.266429 1.99731 0
M  V30 8398 O 778.153 -0.335809 2.50257 0
M  V30 8399 C 779.466 2.68747 1.3489 0
M  V30 8400 C 781.014 2.7673 1.46251 0
M  V30 8401 C 781.489 4.15504 1.92667 0
M  V30 8402 N 782.98 4.17853 1.99883 0
M  V30 8403 C 783.715 5.22109 2.37044 0
M  V30 8404 N 783.211 6.36704 2.73094 0
M  V30 8405 N 785.004 5.09471 2.37479 0
M  V30 8406 H 777.155 2.12081 -0.116368 0
M  V30 8407 H 779.418 0.947941 0.0106033 0
M  V30 8408 H 779.124 3.46006 0.630288 0
M  V30 8409 H 778.998 2.97942 2.31323 0
M  V30 8410 H 781.385 1.99768 2.17202 0
M  V30 8411 H 781.466 2.51236 0.481054 0
M  V30 8412 H 781.11 4.92956 1.223 0
M  V30 8413 H 781.04 4.38396 2.91747 0
M  V30 8414 H 783.531 3.35163 1.74568 0
M  V30 8415 H 783.844 7.12041 3.00362 0
M  V30 8416 H 782.189 6.40087 2.70764 0
M  V30 8417 H 785.38 4.18987 2.08728 0
M  V30 8418 H 785.553 5.90837 2.66112 0
M  V30 8419 N 778.959 -0.83999 1.33349 0
M  V30 8420 C 779.907 -1.97113 1.23488 0
M  V30 8421 C 780.901 -1.68849 0.136503 0
M  V30 8422 O 782.107 -1.77476 0.300389 0
M  V30 8423 H 778.482 -0.647049 0.383185 0
M  V30 8424 H 780.453 -2.02554 2.19122 0
M  V30 8425 C 779.202 -3.33314 0.989815 0
M  V30 8426 H 778.525 -3.556 1.82726 0
M  V30 8427 H 779.965 -4.12963 0.961123 0
M  V30 8428 C 778.424 -3.35496 -0.307272 0
M  V30 8429 O 778.954 -3.79589 -1.31434 0
M  V30 8430 N 777.16 -2.88669 -0.334414 0
M  V30 8431 H 776.707 -2.5298 0.485659 0
M  V30 8432 H 776.665 -2.90512 -1.20209 0
M  V30 8433 N 780.437 -1.16799 -1.0581 0
M  V30 8434 C 781.347 -0.893492 -2.16919 0
M  V30 8435 C 782.363 0.136061 -1.73467 0
M  V30 8436 O 783.539 -0.0417348 -2.01357 0
M  V30 8437 C 780.604 -0.403763 -3.44341 0
M  V30 8438 C 779.665 -1.49914 -4.02274 0
M  V30 8439 C 778.898 -1.03269 -5.23614 0
M  V30 8440 O 779.121 0.115647 -5.70283 0
M  V30 8441 O 778.055 -1.8231 -5.73626 0
M  V30 8442 H 781.881 -1.82274 -2.42919 0
M  V30 8443 H 779.466 -0.948361 -1.1544 0
M  V30 8444 H 781.348 -0.137874 -4.21174 0
M  V30 8445 H 780.023 0.497413 -3.19855 0
M  V30 8446 H 778.93 -1.81883 -3.26909 0
M  V30 8447 H 780.263 -2.3758 -4.31064 0
M  V30 8448 N 781.915 1.24427 -0.967243 0
M  V30 8449 C 782.825 2.29109 -0.504592 0
M  V30 8450 C 783.841 1.68495 0.434224 0
M  V30 8451 O 785.017 1.99041 0.307379 0
M  V30 8452 C 782.082 3.46133 0.198273 0
M  V30 8453 C 781.143 4.22149 -0.780313 0
M  V30 8454 C 780.376 5.33585 -0.110896 0
M  V30 8455 O 780.599 5.59676 1.10088 0
M  V30 8456 O 779.533 5.96522 -0.802823 0
M  V30 8457 H 783.359 2.708 -1.37482 0
M  V30 8458 H 780.944 1.30111 -0.73426 0
M  V30 8459 H 782.826 4.17205 0.593124 0
M  V30 8460 H 781.501 3.0642 1.04347 0
M  V30 8461 H 780.408 3.53454 -1.22561 0
M  V30 8462 H 781.741 4.65677 -1.59392 0
M  V30 8463 N 783.393 0.737304 1.3929 0
M  V30 8464 C 784.356 0.10731 2.28949 0
M  V30 8465 C 785.356 -0.664716 1.46418 0
M  V30 8466 O 786.546 -0.493392 1.67067 0
M  V30 8467 C 783.678 -0.857145 3.29948 0
M  V30 8468 H 784.871 0.89725 2.86163 0
M  V30 8469 H 782.424 0.503279 1.47976 0
M  V30 8470 H 783.159 -1.67336 2.77794 0
M  V30 8471 H 782.944 -0.306167 3.90903 0
M  V30 8472 H 784.434 -1.29444 3.97031 0
M  V30 8473 N 784.871 -1.49948 0.485112 0
M  V30 8474 C 786.111 -2.04301 -0.0635728 0
M  V30 8475 C 786.475 -1.35804 -1.35725 0
M  V30 8476 O 787.676 -1.80789 -1.98919 0
M  V30 8477 C 785.947 -3.56666 -0.228962 0
M  V30 8478 S 787.506 -4.32614 -0.734185 0
M  V30 8479 H 784.324 -0.710939 -0.00931895 0
M  V30 8480 H 786.926 -1.84185 0.655455 0
M  V30 8481 H 785.63 -4.04068 0.718148 0
M  V30 8482 H 785.161 -3.8116 -0.973696 0
M  V30 8483 H 787.176 -4.53859 -2.00565 0
M  V30 8484 N 786.349 -0.21828 -1.56081 0
M  V30 8485 C 787.297 0.709679 -2.21509 0
M  V30 8486 C 788.291 1.20221 -1.19346 0
M  V30 8487 O 789.497 1.16241 -1.37433 0
M  V30 8488 H 785.872 0.247271 -0.710184 0
M  V30 8489 H 787.843 0.134386 -2.98097 0
M  V30 8490 C 786.592 1.90853 -2.90638 0
M  V30 8491 H 785.915 1.53865 -3.69006 0
M  V30 8492 H 787.355 2.53568 -3.39822 0
M  V30 8493 C 785.814 2.76189 -1.92929 0
M  V30 8494 O 786.344 3.74842 -1.44416 0
M  V30 8495 N 784.55 2.42157 -1.6065 0
M  V30 8496 H 784.097 1.61987 -2.00294 0
M  V30 8497 H 784.055 2.99534 -0.955347 0
M  V30 8498 N 787.827 1.57504 0.0551401 0
M  V30 8499 C 788.76 2.00155 1.09604 0
M  V30 8500 C 789.738 0.881274 1.36647 0
M  V30 8501 O 790.922 1.14498 1.49742 0
M  V30 8502 C 788.049 2.35246 2.43674 0
M  V30 8503 C 787.095 3.57452 2.32659 0
M  V30 8504 S 787.928 5.07639 1.7048 0
M  V30 8505 C 789.084 5.45947 3.06093 0
M  V30 8506 H 789.317 2.88131 0.732635 0
M  V30 8507 H 786.85 1.52122 0.264252 0
M  V30 8508 H 788.808 2.56136 3.20787 0
M  V30 8509 H 787.469 1.47769 2.7717 0
M  V30 8510 H 786.662 3.79576 3.31569 0
M  V30 8511 H 786.264 3.36279 1.63685 0
M  V30 8512 H 788.556 5.45036 4.0242 0
M  V30 8513 H 789.499 6.4656 2.88732 0
M  V30 8514 H 789.907 4.73419 3.07466 0
M  V30 8515 N 789.305 -0.326896 1.54172 0
M  V30 8516 C 790.716 -0.901533 1.63491 0
M  V30 8517 C 791.067 -1.88994 0.52684 0
M  V30 8518 O 790.192 -2.137 -0.340794 0
M  V30 8519 C 790.787 -1.64192 2.96355 0
M  V30 8520 C 789.346 -2.16533 3.07881 0
M  V30 8521 C 788.493 -0.98966 2.59039 0
M  V30 8522 H 791.444 -0.104568 1.58355 0
M  V30 8523 H 791.465 -2.50592 2.86328 0
M  V30 8524 H 790.977 -0.922291 3.76982 0
M  V30 8525 H 789.078 -2.91622 2.31922 0
M  V30 8526 H 789.191 -2.41762 4.13628 0
M  V30 8527 H 787.555 -1.36787 2.14852 0
M  V30 8528 H 788.338 -0.284401 3.4212 0
M  V30 8529 N 790.784 -1.46188 -0.588786 0
M  V30 8530 C 792.009 -1.5498 -1.37826 0
M  V30 8531 C 792.434 -0.189498 -1.87143 0
M  V30 8532 O 791.792 0.829293 -1.61222 0
M  V30 8533 C 791.84 -2.55369 -2.54596 0
M  V30 8534 O 790.944 -2.08452 -3.55839 0
M  V30 8535 H 790.285 -0.521741 -0.41071 0
M  V30 8536 H 792.815 -1.91708 -0.714779 0
M  V30 8537 H 792.825 -2.74782 -3.01594 0
M  V30 8538 H 791.5 -3.54155 -2.18052 0
M  V30 8539 H 790.077 -1.98999 -3.15363 0
M  V30 8540 N 792.262 0.832906 -1.33792 0
M  V30 8541 C 793.487 1.62568 -1.28788 0
M  V30 8542 C 793.912 1.87599 0.137246 0
M  V30 8543 O 793.27 1.44436 1.0958 0
M  V30 8544 C 793.318 2.9495 -2.07453 0
M  V30 8545 O 792.422 3.86546 -1.43722 0
M  V30 8546 H 791.763 0.494809 -0.442787 0
M  V30 8547 H 794.293 1.03578 -1.76445 0
M  V30 8548 H 794.303 3.44599 -2.1844 0
M  V30 8549 H 792.978 2.76055 -3.11073 0
M  V30 8550 H 791.555 3.45044 -1.41417 0
M  V30 8551 N 793.74 1.17359 1.05189 0
M  V30 8552 C 794.965 0.98709 1.82404 0
M  V30 8553 C 795.39 -0.459848 1.82392 0
M  V30 8554 O 794.748 -1.32924 1.23292 0
M  V30 8555 C 794.796 1.53276 3.26403 0
M  V30 8556 O 793.9 0.746541 4.05587 0
M  V30 8557 H 793.241 0.35047 0.563974 0
M  V30 8558 H 795.771 1.55856 1.32552 0
M  V30 8559 H 795.781 1.55504 3.77203 0
M  V30 8560 H 794.456 2.58603 3.25726 0
M  V30 8561 H 793.033 0.795671 3.64312 0
M  V30 8562 N 795.218 -1.23913 0.973828 0
M  V30 8563 C 796.458 -1.93889 0.647015 0
M  V30 8564 C 796.822 -1.74368 -0.803735 0
M  V30 8565 O 798.023 -2.38435 -1.24106 0
M  V30 8566 C 796.294 -3.4257 1.01885 0
M  V30 8567 S 797.853 -4.31306 0.807517 0
M  V30 8568 H 794.671 -0.670279 0.237165 0
M  V30 8569 H 797.273 -1.50144 1.25208 0
M  V30 8570 H 795.977 -3.54286 2.07146 0
M  V30 8571 H 795.508 -3.91312 0.404812 0
M  V30 8572 H 797.523 -4.95218 -0.311986 0
M  V30 8573 N 796.696 -0.74468 -1.38897 0
M  V30 8574 C 797.606 -0.112892 -2.34328 0
M  V30 8575 C 798.622 0.71087 -1.58816 0
M  V30 8576 O 799.798 0.637092 -1.91058 0
M  V30 8577 C 796.863 0.776417 -3.37894 0
M  V30 8578 C 795.924 -0.0606999 -4.29257 0
M  V30 8579 C 795.157 0.786258 -5.27877 0
M  V30 8580 O 795.38 2.02463 -5.33259 0
M  V30 8581 O 794.314 0.209781 -6.01534 0
M  V30 8582 H 798.14 -0.900801 -2.90033 0
M  V30 8583 H 795.725 -0.505462 -1.4059 0
M  V30 8584 H 797.607 1.28496 -4.01331 0
M  V30 8585 H 796.282 1.54297 -2.84559 0
M  V30 8586 H 795.189 -0.614984 -3.69011 0
M  V30 8587 H 796.522 -0.789702 -4.85824 0
M  V30 8588 N 798.174 1.49689 -0.493057 0
M  V30 8589 C 799.084 2.32746 0.294358 0
M  V30 8590 C 800.1 1.44117 0.975003 0
M  V30 8591 O 801.276 1.77149 0.958138 0
M  V30 8592 C 798.341 3.19358 1.34949 0
M  V30 8593 C 797.402 4.2383 0.683122 0
M  V30 8594 C 796.635 5.06303 1.68798 0
M  V30 8595 O 796.858 4.90172 2.91698 0
M  V30 8596 O 795.792 5.88826 1.24768 0
M  V30 8597 H 799.618 3.01247 -0.385254 0
M  V30 8598 H 797.203 1.47216 -0.254519 0
M  V30 8599 H 799.085 3.73037 1.96014 0
M  V30 8600 H 797.76 2.53561 2.01217 0
M  V30 8601 H 796.667 3.74086 0.0329351 0
M  V30 8602 H 798 4.9216 0.0630192 0
M  V30 8603 N 799.652 0.226554 1.55963 0
M  V30 8604 C 800.877 -0.411527 2.03276 0
M  V30 8605 C 801.302 -1.52206 1.10521 0
M  V30 8606 O 800.66 -1.81054 0.0943217 0
M  V30 8607 C 800.708 -0.915694 3.4878 0
M  V30 8608 O 799.812 -2.02672 3.59163 0
M  V30 8609 H 799.153 -0.0924907 0.657527 0
M  V30 8610 H 801.683 0.346656 2.01642 0
M  V30 8611 H 801.693 -1.22421 3.892 0
M  V30 8612 H 800.368 -0.102915 4.15773 0
M  V30 8613 H 798.945 -1.72445 3.30632 0
M  V30 8614 N 801.13 -1.57531 -0.0467866 0
M  V30 8615 C 802.376 -1.89584 -0.736837 0
M  V30 8616 C 802.731 -0.82317 -1.73901 0
M  V30 8617 O 802.024 0.170098 -1.90843 0
M  V30 8618 C 802.218 -3.26091 -1.46285 0
M  V30 8619 C 802.047 -4.46536 -0.532502 0
M  V30 8620 C 800.817 -5.05046 -0.160109 0
M  V30 8621 C 803.015 -5.13979 0.181555 0
M  V30 8622 N 800.997 -6.09009 0.773349 0
M  V30 8623 C 802.368 -6.12345 0.971297 0
M  V30 8624 C 804.423 -4.9727 0.250382 0
M  V30 8625 C 803.126 -6.95802 1.82351 0
M  V30 8626 C 805.152 -5.81275 1.08965 0
M  V30 8627 C 804.514 -6.79197 1.86737 0
M  V30 8628 H 800.613 -0.742868 -0.244277 0
M  V30 8629 H 803.197 -1.947 0.0025481 0
M  V30 8630 H 801.368 -3.21938 -2.1728 0
M  V30 8631 H 803.1 -3.45715 -2.10389 0
M  V30 8632 H 799.855 -4.70754 -0.518457 0
M  V30 8633 H 800.279 -6.65658 1.23406 0
M  V30 8634 H 804.921 -4.21458 -0.336578 0
M  V30 8635 H 802.639 -7.70971 2.42134 0
M  V30 8636 H 806.225 -5.70397 1.14621 0
M  V30 8637 H 805.105 -7.4307 2.50631 0
M  V30 8638 N 802.608 0.318715 -1.54344 0
M  V30 8639 C 803.855 1.05608 -1.72781 0
M  V30 8640 C 804.183 1.87854 -0.504083 0
M  V30 8641 O 803.438 1.88826 0.51414 0
M  V30 8642 C 803.737 2.00514 -2.95853 0
M  V30 8643 C 803.403 1.34385 -4.30409 0
M  V30 8644 C 802.065 1.16081 -4.66989 0
M  V30 8645 C 804.417 0.869627 -5.13894 0
M  V30 8646 C 801.745 0.490114 -5.84649 0
M  V30 8647 C 804.097 0.212735 -6.32242 0
M  V30 8648 C 802.761 0.0175882 -6.67498 0
M  V30 8649 H 802.031 0.386449 -0.632249 0
M  V30 8650 H 804.678 0.332729 -1.88587 0
M  V30 8651 H 802.983 2.79317 -2.74753 0
M  V30 8652 H 804.68 2.57605 -3.07312 0
M  V30 8653 H 801.27 1.49634 -4.01631 0
M  V30 8654 H 805.454 0.998809 -4.86146 0
M  V30 8655 H 800.71 0.327767 -6.10521 0
M  V30 8656 H 804.884 -0.162699 -6.9621 0
M  V30 8657 H 802.511 -0.504137 -7.58527 0
M  V30 8658 N 804.086 1.46499 0.581025 0
M  V30 8659 C 805.497 1.4604 1.16315 0
M  V30 8660 C 805.848 0.202154 1.95156 0
M  V30 8661 O 804.973 -0.694638 2.04948 0
M  V30 8662 C 805.568 2.64593 2.11604 0
M  V30 8663 C 804.127 2.6717 2.65136 0
M  V30 8664 C 803.274 2.38753 1.4104 0
M  V30 8665 H 806.225 1.54354 0.368871 0
M  V30 8666 H 806.246 2.40207 2.95095 0
M  V30 8667 H 805.758 3.56154 1.54194 0
M  V30 8668 H 803.859 1.79685 3.26411 0
M  V30 8669 H 803.972 3.67182 3.07757 0
M  V30 8670 H 802.336 1.88845 1.70908 0
M  V30 8671 H 803.119 3.32493 0.854588 0
M  V30 8672 N 805.565 -0.825799 1.34232 0
M  V30 8673 C 806.512 -1.93651 1.2557 0
M  V30 8674 C 807.482 -1.65578 0.131536 0
M  V30 8675 O 808.667 -1.88231 0.312027 0
M  V30 8676 C 805.807 -3.29862 1.01415 0
M  V30 8677 C 804.92 -3.70247 2.22579 0
M  V30 8678 C 804.055 -4.95392 1.91731 0
M  V30 8679 C 803.094 -5.28349 3.09053 0
M  V30 8680 N 802.231 -6.44671 2.78107 0
M  V30 8681 H 807.071 -2.00392 2.20561 0
M  V30 8682 H 804.608 -0.980441 1.09662 0
M  V30 8683 H 806.566 -4.08356 0.854485 0
M  V30 8684 H 805.196 -3.22642 0.100936 0
M  V30 8685 H 804.248 -2.87169 2.49476 0
M  V30 8686 H 805.56 -3.90575 3.10246 0
M  V30 8687 H 804.714 -5.81665 1.72484 0
M  V30 8688 H 803.453 -4.77059 1.0132 0
M  V30 8689 H 802.458 -4.40574 3.289 0
M  V30 8690 H 803.683 -5.48622 4.00239 0
M  V30 8691 H 801.629 -6.278 1.9027 0
M  V30 8692 H 801.546 -6.65158 3.59306 0
M  V30 8693 H 802.814 -7.34022 2.62358 0
M  V30 8694 N 807.043 -1.17915 -1.04565 0
M  V30 8695 C 808.273 -0.994716 -1.81077 0
M  V30 8696 C 808.681 0.460146 -1.83519 0
M  V30 8697 O 808.024 1.33136 -1.26572 0
M  V30 8698 C 808.086 -1.46698 -3.28207 0
M  V30 8699 C 807.75 -2.94523 -3.49436 0
M  V30 8700 C 808.747 -3.92414 -3.41038 0
M  V30 8701 C 806.432 -3.32841 -3.76194 0
M  V30 8702 C 808.426 -5.2662 -3.59096 0
M  V30 8703 C 806.113 -4.67212 -3.93899 0
M  V30 8704 C 807.111 -5.6391 -3.8535 0
M  V30 8705 O 806.799 -6.95849 -4.02554 0
M  V30 8706 H 806.531 -0.351797 -0.577248 0
M  V30 8707 H 809.085 -1.56772 -1.32709 0
M  V30 8708 H 807.315 -0.837592 -3.7752 0
M  V30 8709 H 809.004 -1.24724 -3.86263 0
M  V30 8710 H 809.77 -3.64157 -3.20336 0
M  V30 8711 H 805.649 -2.58139 -3.81949 0
M  V30 8712 H 809.193 -6.02082 -3.52339 0
M  V30 8713 H 805.09 -4.95172 -4.14095 0
M  V30 8714 H 805.858 -7.02679 -4.19743 0
M  V30 8715 N 808.521 1.23394 -0.980386 0
M  V30 8716 C 809.77 1.91116 -0.644785 0
M  V30 8717 C 810.083 1.77333 0.825367 0
M  V30 8718 O 811.289 2.39858 1.27203 0
M  V30 8719 C 809.745 3.42592 -1.10266 0
M  V30 8720 C 809.353 3.65037 -2.59715 0
M  V30 8721 C 811.097 4.1609 -0.8408 0
M  V30 8722 C 809.004 5.10148 -2.9917 0
M  V30 8723 H 807.934 0.715632 -0.23746 0
M  V30 8724 H 810.585 1.39829 -1.18828 0
M  V30 8725 H 808.967 3.92989 -0.487372 0
M  V30 8726 H 810.141 3.25186 -3.26482 0
M  V30 8727 H 808.456 3.04849 -2.83647 0
M  V30 8728 H 811.053 5.23021 -1.11143 0
M  V30 8729 H 811.396 4.15702 0.223085 0
M  V30 8730 H 811.929 3.71681 -1.41767 0
M  V30 8731 H 808.668 5.15668 -4.04682 0
M  V30 8732 H 808.188 5.50949 -2.37097 0
M  V30 8733 H 809.867 5.7848 -2.89775 0
M  V30 8734 N 809.999 0.752036 1.385 0
M  V30 8735 C 811.245 0.307958 2.00448 0
M  V30 8736 C 811.578 -1.10702 1.59558 0
M  V30 8737 O 810.853 -1.75788 0.832391 0
M  V30 8738 C 811.136 0.429092 3.57534 0
M  V30 8739 C 810.989 1.88507 4.08393 0
M  V30 8740 C 812.308 -0.178442 4.39738 0
M  V30 8741 H 809.427 0.113373 0.728228 0
M  V30 8742 H 812.069 0.951389 1.64465 0
M  V30 8743 H 810.219 -0.118695 3.88319 0
M  V30 8744 H 811.891 2.49104 3.88259 0
M  V30 8745 H 810.134 2.40066 3.61318 0
M  V30 8746 H 810.805 1.92099 5.17496 0
M  V30 8747 H 813.281 0.28872 4.15097 0
M  V30 8748 H 812.157 -0.0634349 5.48863 0
M  V30 8749 H 812.418 -1.26655 4.23569 0
M  V30 8750 N 811.477 -1.49425 0.500989 0
M  V30 8751 C 812.888 -1.86624 0.0532011 0
M  V30 8752 C 813.239 -1.41331 -1.36088 0
M  V30 8753 O 812.364 -0.791195 -2.01418 0
M  V30 8754 C 812.959 -3.38681 0.0897693 0
M  V30 8755 C 811.518 -3.75181 -0.302677 0
M  V30 8756 C 810.665 -2.73419 0.462307 0
M  V30 8757 H 813.616 -1.41743 0.713773 0
M  V30 8758 H 813.637 -3.73902 -0.705528 0
M  V30 8759 H 813.149 -3.71616 1.11907 0
M  V30 8760 H 811.25 -3.47855 -1.33521 0
M  V30 8761 H 811.363 -4.79097 0.0167653 0
M  V30 8762 H 809.727 -2.54548 -0.0878557 0
M  V30 8763 H 810.51 -3.09198 1.49169 0
M  V30 8764 N 812.955 -0.234822 -1.55841 0
M  V30 8765 C 814.18 0.400741 -2.03492 0
M  V30 8766 C 814.605 1.51618 -1.11327 0
M  V30 8767 O 813.963 1.81002 -0.103922 0
M  V30 8768 C 814.011 0.897184 -3.49261 0
M  V30 8769 O 813.115 2.00764 -3.60233 0
M  V30 8770 H 812.456 0.0890023 -0.658008 0
M  V30 8771 H 814.986 -0.357345 -2.01455 0
M  V30 8772 H 814.996 1.20356 -3.89844 0
M  V30 8773 H 813.671 0.0808639 -4.15821 0
M  V30 8774 H 812.248 1.70689 -3.31541 0
M  V30 8775 N 814.433 1.57553 0.0384317 0
M  V30 8776 C 815.365 2.02726 1.06934 0
M  V30 8777 C 816.378 0.938502 1.33026 0
M  V30 8778 O 817.567 1.21595 1.30678 0
M  V30 8779 C 814.667 2.37958 2.41308 0
M  V30 8780 C 813.84 3.69098 2.34703 0
M  V30 8781 C 812.899 3.91623 3.51451 0
M  V30 8782 O 811.925 4.628 3.31368 0
M  V30 8783 N 813.127 3.36538 4.72993 0
M  V30 8784 H 815.892 2.91781 0.684381 0
M  V30 8785 H 813.453 1.60307 0.226542 0
M  V30 8786 H 815.445 2.50172 3.18113 0
M  V30 8787 H 814.015 1.54621 2.71682 0
M  V30 8788 H 813.235 3.67325 1.43059 0
M  V30 8789 H 814.523 4.55144 2.27424 0
M  V30 8790 H 813.921 2.78828 4.92211 0
M  V30 8791 H 812.478 3.54148 5.47195 0
M  V30 8792 N 815.911 -0.310526 1.54511 0
M  V30 8793 C 817.188 -1.06593 1.64004 0
M  V30 8794 C 817.568 -2.05519 0.482216 0
M  V30 8795 O 816.916 -2.22455 -0.52212 0
M  V30 8796 C 817.126 -1.75627 3.01589 0
M  V30 8797 C 818.474 -2.28173 3.58081 0
M  V30 8798 O 819.498 -1.85674 3.03979 0
M  V30 8799 O 818.357 -3.06015 4.52788 0
M  V30 8800 H 815.451 -0.492109 0.664649 0
M  V30 8801 H 817.997 -0.309374 1.66856 0
M  V30 8802 H 816.769 -1.03743 3.77297 0
M  V30 8803 H 816.392 -2.58061 3.02473 0
M  V30 8804 N 817.389 -1.46805 -0.573248 0
M  V30 8805 C 818.319 -1.60951 -1.69165 0
M  V30 8806 C 819.3 -0.45948 -1.63777 0
M  V30 8807 O 820.485 -0.68688 -1.81647 0
M  V30 8808 C 817.615 -1.60844 -3.07809 0
M  V30 8809 C 816.569 -2.74913 -3.28035 0
M  V30 8810 C 815.895 -2.59871 -4.67302 0
M  V30 8811 C 817.195 -4.16654 -3.14955 0
M  V30 8812 H 818.889 -2.54574 -1.57582 0
M  V30 8813 H 816.435 -1.22516 -0.756686 0
M  V30 8814 H 818.388 -1.69334 -3.85881 0
M  V30 8815 H 817.112 -0.637714 -3.20314 0
M  V30 8816 H 815.771 -2.65908 -2.52366 0
M  V30 8817 H 815.419 -1.60861 -4.76585 0
M  V30 8818 H 815.119 -3.36386 -4.81786 0
M  V30 8819 H 816.643 -2.70265 -5.4753 0
M  V30 8820 H 818.057 -4.26721 -3.82861 0
M  V30 8821 H 816.454 -4.93831 -3.40956 0
M  V30 8822 H 817.524 -4.36146 -2.11908 0
M  V30 8823 N 818.867 0.818669 -1.34668 0
M  V30 8824 C 820.283 1.11243 -1.14443 0
M  V30 8825 C 820.483 2.01435 0.0512212 0
M  V30 8826 O 819.539 2.41854 0.725471 0
M  V30 8827 C 820.852 1.75504 -2.4417 0
M  V30 8828 C 822.4 1.8798 -2.50265 0
M  V30 8829 C 822.875 2.55657 -3.80004 0
M  V30 8830 N 824.366 2.63153 -3.81189 0
M  V30 8831 C 825.101 3.16258 -4.78298 0
M  V30 8832 N 824.597 3.69893 -5.85791 0
M  V30 8833 N 826.39 3.14698 -4.65748 0
M  V30 8834 H 818.541 0.218848 -2.1127 0
M  V30 8835 H 820.804 0.159655 -0.934459 0
M  V30 8836 H 820.51 1.16697 -3.31775 0
M  V30 8837 H 820.384 2.75329 -2.57825 0
M  V30 8838 H 822.771 2.45934 -1.63096 0
M  V30 8839 H 822.852 0.870447 -2.40535 0
M  V30 8840 H 822.496 1.98356 -4.67565 0
M  V30 8841 H 822.426 3.57105 -3.87019 0
M  V30 8842 H 824.917 2.2514 -3.03513 0
M  V30 8843 H 825.23 4.08678 -6.55898 0
M  V30 8844 H 823.575 3.68125 -5.89499 0
M  V30 8845 H 826.766 2.72066 -3.80917 0
M  V30 8846 H 826.939 3.5578 -5.41594 0
M  V30 8847 N 820.346 1.18468 1.03938 0
M  V30 8848 C 821.757 0.984808 1.58614 0
M  V30 8849 C 822.108 -0.465165 1.90606 0
M  V30 8850 O 821.233 -1.34274 1.69704 0
M  V30 8851 C 821.828 1.78135 2.8819 0
M  V30 8852 C 820.387 1.62579 3.39478 0
M  V30 8853 C 819.534 1.77501 2.13046 0
M  V30 8854 H 822.485 1.32993 0.865944 0
M  V30 8855 H 822.506 1.27119 3.58638 0
M  V30 8856 H 822.018 2.83661 2.64874 0
M  V30 8857 H 820.119 0.59595 3.67803 0
M  V30 8858 H 820.232 2.42463 4.13217 0
M  V30 8859 H 818.596 1.2046 2.24414 0
M  V30 8860 H 819.379 2.84464 1.92185 0
M  V30 8861 N 821.824 -1.22873 0.986916 0
M  V30 8862 C 823.054 -1.95204 0.67668 0
M  V30 8863 C 823.462 -1.73193 -0.761641 0
M  V30 8864 O 822.805 -1.0243 -1.52492 0
M  V30 8865 C 822.867 -3.48173 0.895302 0
M  V30 8866 C 822.531 -3.93912 2.31695 0
M  V30 8867 C 823.528 -4.02064 3.29607 0
M  V30 8868 C 821.213 -4.26722 2.64978 0
M  V30 8869 C 823.207 -4.42391 4.58878 0
M  V30 8870 C 820.894 -4.66729 3.94471 0
M  V30 8871 C 821.892 -4.74531 4.91232 0
M  V30 8872 O 821.58 -5.13636 6.18412 0
M  V30 8873 H 821.312 -0.628105 0.24992 0
M  V30 8874 H 823.866 -1.5714 1.32274 0
M  V30 8875 H 822.096 -3.86223 0.192072 0
M  V30 8876 H 823.785 -4.01717 0.581233 0
M  V30 8877 H 824.551 -3.76912 3.05225 0
M  V30 8878 H 820.43 -4.19858 1.9037 0
M  V30 8879 H 823.974 -4.48395 5.34404 0
M  V30 8880 H 819.871 -4.91332 4.18645 0
M  V30 8881 H 820.639 -5.31728 6.2226 0
M  V30 8882 N 823.302 -0.75937 -1.38099 0
M  V30 8883 C 824.249 -0.135508 -2.30402 0
M  V30 8884 C 825.219 0.703356 -1.50473 0
M  V30 8885 O 826.404 0.658287 -1.79084 0
M  V30 8886 C 823.544 0.747228 -3.36913 0
M  V30 8887 C 822.657 -0.106893 -4.31868 0
M  V30 8888 C 821.792 0.779388 -5.25451 0
M  V30 8889 C 820.831 -0.0780179 -6.1205 0
M  V30 8890 N 819.968 0.765545 -6.97914 0
M  V30 8891 H 824.808 -0.9282 -2.83176 0
M  V30 8892 H 822.345 -0.46935 -1.39411 0
M  V30 8893 H 824.303 1.27371 -3.97281 0
M  V30 8894 H 822.933 1.50565 -2.85535 0
M  V30 8895 H 821.985 -0.751063 -3.72912 0
M  V30 8896 H 823.297 -0.768798 -4.9284 0
M  V30 8897 H 822.451 1.37282 -5.90964 0
M  V30 8898 H 821.19 1.47501 -4.6486 0
M  V30 8899 H 820.195 -0.684078 -5.45528 0
M  V30 8900 H 821.42 -0.770786 -6.74712 0
M  V30 8901 H 819.366 1.44601 -6.39864 0
M  V30 8902 H 819.283 0.160666 -7.55829 0
M  V30 8903 H 820.551 1.34377 -7.6783 0
M  V30 8904 N 824.78 1.49157 -0.508906 0
M  V30 8905 C 826.026 2.02773 0.0328469 0
M  V30 8906 C 826.359 1.38714 1.35912 0
M  V30 8907 O 825.634 0.525536 1.87266 0
M  V30 8908 C 825.917 3.59664 0.177088 0
M  V30 8909 C 825.77 4.34239 -1.17287 0
M  V30 8910 C 827.089 4.30505 0.913977 0
M  V30 8911 H 824.208 0.736926 0.0104631 0
M  V30 8912 H 826.85 1.781 -0.661851 0
M  V30 8913 H 825 3.80818 0.768774 0
M  V30 8914 H 826.672 4.24561 -1.80404 0
M  V30 8915 H 824.915 3.96486 -1.76016 0
M  V30 8916 H 825.586 5.42397 -1.02516 0
M  V30 8917 H 828.062 4.14054 0.412084 0
M  V30 8918 H 826.938 5.40012 0.983759 0
M  V30 8919 H 827.199 3.96302 1.95951 0
M  V30 8920 N 826.258 0.243083 1.55714 0
M  V30 8921 C 827.206 -0.674349 2.2261 0
M  V30 8922 C 828.2 -1.18307 1.21243 0
M  V30 8923 O 829.406 -1.1404 1.39265 0
M  V30 8924 H 825.781 -0.235941 0.714028 0
M  V30 8925 H 827.752 -0.0869446 2.98273 0
M  V30 8926 C 826.501 -1.86206 2.93637 0
M  V30 8927 H 825.824 -1.47975 3.71407 0
M  V30 8928 H 827.264 -2.4813 3.43813 0
M  V30 8929 C 825.723 -2.73084 1.97298 0
M  V30 8930 O 826.253 -3.72497 1.50361 0
M  V30 8931 N 824.459 -2.39571 1.64482 0
M  V30 8932 H 824.006 -1.5878 2.02846 0
M  V30 8933 H 823.964 -2.97976 1.00288 0
M  V30 8934 N 827.736 -1.57571 -0.0300757 0
M  V30 8935 C 828.985 -1.88407 -0.720126 0
M  V30 8936 C 829.298 -0.841466 -1.76575 0
M  V30 8937 O 830.504 -1.03902 -2.50832 0
M  V30 8938 C 828.96 -3.34348 -1.33188 0
M  V30 8939 C 828.568 -4.46837 -0.32266 0
M  V30 8940 C 830.312 -3.74333 -2.00187 0
M  V30 8941 C 828.219 -5.83838 -0.942703 0
M  V30 8942 H 827.149 -0.702952 -0.272718 0
M  V30 8943 H 829.8 -1.83482 0.0255337 0
M  V30 8944 H 828.182 -3.34014 -2.12721 0
M  V30 8945 H 829.356 -4.58638 0.445887 0
M  V30 8946 H 827.671 -4.15678 0.245181 0
M  V30 8947 H 830.268 -4.74008 -2.47428 0
M  V30 8948 H 830.611 -3.06275 -2.81959 0
M  V30 8949 H 831.144 -3.76837 -1.2743 0
M  V30 8950 H 827.883 -6.55294 -0.164413 0
M  V30 8951 H 827.403 -5.75759 -1.68111 0
M  V30 8952 H 829.082 -6.30535 -1.45034 0
M  V30 8953 N 829.214 0.302327 -1.54673 0
M  V30 8954 C 830.491 1.05721 -1.64567 0
M  V30 8955 C 830.871 2.0526 -0.493108 0
M  V30 8956 O 830.219 2.22729 0.510315 0
M  V30 8957 C 830.429 1.74025 -3.02517 0
M  V30 8958 C 831.777 2.26271 -3.59286 0
M  V30 8959 O 832.801 1.8406 -3.0496 0
M  V30 8960 O 831.66 3.0361 -4.54404 0
M  V30 8961 H 828.754 0.488577 -0.667249 0
M  V30 8962 H 831.3 0.300521 -1.67018 0
M  V30 8963 H 830.072 1.0174 -3.77842 0
M  V30 8964 H 829.695 2.56454 -3.03838 0
M  V30 8965 N 830.692 1.47107 0.565454 0
M  V30 8966 C 832.103 1.47266 1.1476 0
M  V30 8967 C 832.454 0.222841 1.9493 0
M  V30 8968 O 831.579 -0.672862 2.05673 0
M  V30 8969 C 832.174 2.66822 2.08785 0
M  V30 8970 C 830.733 2.69967 2.62288 0
M  V30 8971 C 829.88 2.40236 1.38499 0
M  V30 8972 H 832.831 1.54736 0.352479 0
M  V30 8973 H 832.852 2.43323 2.92531 0
M  V30 8974 H 832.364 3.5777 1.50408 0
M  V30 8975 H 830.465 1.83137 3.24487 0
M  V30 8976 H 830.578 3.70426 3.03845 0
M  V30 8977 H 828.942 1.90648 1.68895 0
M  V30 8978 H 829.725 3.33381 0.819274 0
M  V30 8979 N 832.17 -0.811516 1.35101 0
M  V30 8980 C 833.395 -1.60499 1.31358 0
M  V30 8981 C 833.82 -1.87793 -0.107383 0
M  V30 8982 O 833.178 -1.46161 -1.07268 0
M  V30 8983 C 833.226 -2.91612 2.12119 0
M  V30 8984 O 832.33 -3.84211 1.49853 0
M  V30 8985 H 831.671 -0.487702 0.450603 0
M  V30 8986 H 834.201 -1.00758 1.7807 0
M  V30 8987 H 834.211 -3.4108 2.23894 0
M  V30 8988 H 832.886 -2.71071 3.15426 0
M  V30 8989 H 831.463 -3.42751 1.46889 0
M  V30 8990 N 833.648 -1.19017 -1.03309 0
M  V30 8991 C 834.873 -1.01598 -1.80811 0
M  V30 8992 C 835.298 0.430773 -1.83101 0
M  V30 8993 O 834.656 1.30946 -1.25391 0
M  V30 8994 C 834.704 -1.5845 -3.23923 0
M  V30 8995 O 833.808 -0.810972 -4.04348 0
M  V30 8996 H 833.149 -0.359398 -0.558327 0
M  V30 8997 H 835.679 -1.57945 -1.30055 0
M  V30 8998 H 835.689 -1.61486 -3.74682 0
M  V30 8999 H 834.364 -2.63752 -3.21571 0
M  V30 9000 H 832.941 -0.85353 -3.63 0
M  V30 9001 N 835.127 1.22348 -0.993418 0
M  V30 9002 C 836.037 2.27987 -0.553076 0
M  V30 9003 C 837.053 1.69378 0.398386 0
M  V30 9004 O 838.229 1.99648 0.26509 0
M  V30 9005 C 835.294 3.46475 0.124809 0
M  V30 9006 C 834.355 4.20399 -0.869682 0
M  V30 9007 C 833.588 5.33229 -0.224052 0
M  V30 9008 O 833.811 5.61885 0.981915 0
M  V30 9009 O 832.745 5.94685 -0.929174 0
M  V30 9010 H 836.571 2.67822 -1.43195 0
M  V30 9011 H 834.156 1.28525 -0.761694 0
M  V30 9012 H 836.038 4.18369 0.504496 0
M  V30 9013 H 834.713 3.08565 0.978243 0
M  V30 9014 H 833.62 3.50774 -1.30031 0
M  V30 9015 H 834.953 4.62191 -1.69233 0
M  V30 9016 N 836.605 0.766683 1.37694 0
M  V30 9017 C 837.568 0.155849 2.2867 0
M  V30 9018 C 838.568 -0.633509 1.47795 0
M  V30 9019 O 839.758 -0.457844 1.68076 0
M  V30 9020 C 836.89 -0.786965 3.31692 0
M  V30 9021 H 838.083 0.957748 2.84196 0
M  V30 9022 H 835.636 0.534554 1.46875 0
M  V30 9023 H 836.371 -1.61406 2.8128 0
M  V30 9024 H 836.156 -0.223182 3.91464 0
M  V30 9025 H 837.646 -1.20994 3.99688 0
M  V30 9026 N 838.083 -1.48885 0.516809 0
M  V30 9027 C 839.494 -1.86557 0.0729921 0
M  V30 9028 C 839.845 -1.42767 -1.34581 0
M  V30 9029 O 838.97 -0.812514 -2.00567 0
M  V30 9030 C 839.565 -3.38567 0.125686 0
M  V30 9031 C 838.124 -3.75481 -0.262867 0
M  V30 9032 C 837.271 -2.72913 0.491281 0
M  V30 9033 H 840.222 -1.40978 0.728767 0
M  V30 9034 H 840.243 -3.74629 -0.665831 0
M  V30 9035 H 839.755 -3.70408 1.15842 0
M  V30 9036 H 837.856 -3.49251 -1.29824 0
M  V30 9037 H 837.969 -4.79052 0.067579 0
M  V30 9038 H 836.333 -2.54627 -0.0608525 0
M  V30 9039 H 837.116 -3.07599 1.5244 0
M  V30 9040 N 839.561 -0.251338 -1.55583 0
M  V30 9041 C 840.809 0.371434 -1.98657 0
M  V30 9042 C 841.13 1.58143 -1.14087 0
M  V30 9043 O 840.4 1.94607 -0.224708 0
M  V30 9044 H 838.98 0.140225 -0.733721 0
M  V30 9045 H 841.642 -0.351157 -1.9171 0
M  V30 9046 H 840.738 0.677554 -3.04657 0
M  V30 9047 N 841.039 1.57585 0.0217189 0
M  V30 9048 C 841.989 2.03506 1.02807 0
M  V30 9049 C 842.973 0.925716 1.31603 0
M  V30 9050 O 844.165 1.18958 1.31065 0
M  V30 9051 C 841.294 2.52407 2.32693 0
M  V30 9052 C 840.38 3.70176 2.06955 0
M  V30 9053 N 840.771 4.82641 1.513 0
M  V30 9054 C 839.069 3.77691 2.37204 0
M  V30 9055 C 839.77 5.64218 1.41536 0
M  V30 9056 N 838.746 5.09557 1.89348 0
M  V30 9057 H 842.548 2.87878 0.591899 0
M  V30 9058 H 840.062 1.60793 0.227875 0
M  V30 9059 H 842.059 2.83569 3.05605 0
M  V30 9060 H 840.719 1.69444 2.76982 0
M  V30 9061 H 841.73 5.03931 1.19472 0
M  V30 9062 H 838.407 3.05542 2.84517 0
M  V30 9063 H 839.797 6.64576 0.989333 0
M  V30 9064 N 842.517 -0.29412 1.54831 0
M  V30 9065 C 843.742 -1.05156 1.78765 0
M  V30 9066 C 844.167 -1.79916 0.548809 0
M  V30 9067 O 843.525 -1.74243 -0.500909 0
M  V30 9068 C 843.573 -2.00242 2.99893 0
M  V30 9069 O 842.677 -3.08662 2.73499 0
M  V30 9070 H 842.018 -0.301737 0.591482 0
M  V30 9071 H 844.548 -0.329449 2.0193 0
M  V30 9072 H 844.558 -2.42583 3.28051 0
M  V30 9073 H 843.233 -1.45235 3.89717 0
M  V30 9074 H 841.81 -2.70786 2.56377 0
M  V30 9075 N 843.995 -1.47404 -0.557645 0
M  V30 9076 C 845.235 -1.55585 -1.32562 0
M  V30 9077 C 845.599 -0.212926 -1.90816 0
M  V30 9078 O 846.8 -0.169574 -2.68265 0
M  V30 9079 C 845.071 -2.64249 -2.40639 0
M  V30 9080 S 846.63 -2.9201 -3.2753 0
M  V30 9081 H 843.448 -0.549409 -0.451298 0
M  V30 9082 H 846.05 -1.84782 -0.638438 0
M  V30 9083 H 844.754 -3.60421 -1.96277 0
M  V30 9084 H 844.285 -2.36866 -3.14099 0
M  V30 9085 H 846.3 -2.29191 -4.40098 0
M  V30 9086 N 845.473 0.80434 -1.35529 0
M  V30 9087 C 846.889 1.10023 -1.15616 0
M  V30 9088 C 847.089 2.01478 0.0298535 0
M  V30 9089 O 846.145 2.42609 0.699778 0
M  V30 9090 C 847.458 1.72905 -2.46017 0
M  V30 9091 C 849.006 1.85315 -2.52245 0
M  V30 9092 C 849.481 2.51612 -3.82695 0
M  V30 9093 N 850.972 2.59095 -3.83958 0
M  V30 9094 C 851.707 3.11167 -4.81625 0
M  V30 9095 N 851.203 3.63659 -5.89681 0
M  V30 9096 N 852.996 3.09741 -4.6906 0
M  V30 9097 H 845.147 0.196428 -2.1149 0
M  V30 9098 H 847.41 0.149735 -0.9361 0
M  V30 9099 H 847.116 1.13171 -3.32994 0
M  V30 9100 H 846.99 2.72579 -2.6073 0
M  V30 9101 H 849.377 2.44191 -1.65695 0
M  V30 9102 H 849.458 0.844886 -2.41444 0
M  V30 9103 H 849.102 1.93385 -4.69643 0
M  V30 9104 H 849.032 3.5298 -3.90785 0
M  V30 9105 H 851.523 2.21908 -3.05884 0
M  V30 9106 H 851.836 4.01699 -6.60195 0
M  V30 9107 H 850.181 3.61852 -5.9337 0
M  V30 9108 H 853.372 2.68011 -3.83781 0
M  V30 9109 H 853.545 3.50016 -5.45338 0
M  V30 9110 N 846.951 1.19563 1.02676 0
M  V30 9111 C 848.176 1.02556 1.80269 0
M  V30 9112 C 848.601 -0.421056 1.83327 0
M  V30 9113 O 847.959 -1.30279 1.26084 0
M  V30 9114 C 848.007 1.60165 3.23078 0
M  V30 9115 O 847.111 0.832404 4.03912 0
M  V30 9116 H 846.452 0.362354 0.556413 0
M  V30 9117 H 848.982 1.58633 1.29216 0
M  V30 9118 H 848.992 1.6347 3.7382 0
M  V30 9119 H 847.667 2.65454 3.20167 0
M  V30 9120 H 846.244 0.872768 3.62543 0
M  V30 9121 N 848.429 -1.21819 0.999893 0
M  V30 9122 C 849.845 -1.42847 0.711824 0
M  V30 9123 C 850.045 -1.88391 -0.714928 0
M  V30 9124 O 849.101 -2.0422 -1.48494 0
M  V30 9125 C 850.414 -2.46417 1.72334 0
M  V30 9126 C 851.962 -2.60207 1.73958 0
M  V30 9127 C 852.437 -3.67005 2.73992 0
M  V30 9128 N 853.928 -3.7447 2.72628 0
M  V30 9129 C 854.663 -4.56718 3.46693 0
M  V30 9130 N 854.159 -5.42904 4.3038 0
M  V30 9131 N 855.952 -4.51094 3.35366 0
M  V30 9132 H 848.103 -0.905656 1.92124 0
M  V30 9133 H 850.366 -0.459893 0.828977 0
M  V30 9134 H 850.072 -2.19914 2.74465 0
M  V30 9135 H 849.946 -3.45137 1.52186 0
M  V30 9136 H 852.333 -2.8605 0.725217 0
M  V30 9137 H 852.414 -1.61739 1.98177 0
M  V30 9138 H 852.058 -3.41908 3.75582 0
M  V30 9139 H 851.988 -4.65058 2.4704 0
M  V30 9140 H 854.479 -3.12895 2.11909 0
M  V30 9141 H 854.792 -6.02704 4.83702 0
M  V30 9142 H 853.137 -5.42463 4.34464 0
M  V30 9143 H 856.328 -3.82791 2.69423 0
M  V30 9144 H 856.501 -5.1496 3.93344 0
M  V30 9145 N 849.908 -0.773975 -1.37286 0
M  V30 9146 C 851.319 -0.404433 -1.82267 0
M  V30 9147 C 851.67 1.06971 -1.64474 0
M  V30 9148 O 850.795 1.82867 -1.15708 0
M  V30 9149 C 851.39 -0.727298 -3.30902 0
M  V30 9150 C 849.949 -0.410784 -3.74152 0
M  V30 9151 C 849.096 -0.969983 -2.59782 0
M  V30 9152 H 852.047 -0.968437 -1.25726 0
M  V30 9153 H 852.068 -0.0127575 -3.80498 0
M  V30 9154 H 851.58 -1.80026 -3.4382 0
M  V30 9155 H 849.681 0.65477 -3.66802 0
M  V30 9156 H 849.794 -0.920592 -4.70172 0
M  V30 9157 H 848.158 -0.394094 -2.51633 0
M  V30 9158 H 848.941 -2.04839 -2.75492 0
M  V30 9159 N 851.386 1.48609 -0.524698 0
M  V30 9160 C 852.632 2.02797 0.0113382 0
M  V30 9161 C 852.965 1.40147 1.34433 0
M  V30 9162 O 852.24 0.545368 1.86698 0
M  V30 9163 C 852.523 3.59832 0.138931 0
M  V30 9164 C 852.376 4.32971 -1.21886 0
M  V30 9165 C 853.695 4.3145 0.868265 0
M  V30 9166 H 850.814 0.736995 0.00264645 0
M  V30 9167 H 853.456 1.77388 -0.680704 0
M  V30 9168 H 851.606 3.81612 0.72834 0
M  V30 9169 H 853.278 4.22624 -1.84897 0
M  V30 9170 H 851.521 3.94597 -1.80211 0
M  V30 9171 H 852.192 5.41279 -1.08263 0
M  V30 9172 H 854.668 4.14468 0.368145 0
M  V30 9173 H 853.544 5.41025 0.926428 0
M  V30 9174 H 853.805 3.98358 1.91737 0
M  V30 9175 N 852.864 0.259585 1.55447 0
M  V30 9176 C 853.774 -0.645026 2.25558 0
M  V30 9177 C 854.79 -1.18291 1.27606 0
M  V30 9178 O 855.966 -1.21649 1.6051 0
M  V30 9179 C 853.031 -1.81964 2.9511 0
M  V30 9180 C 852.092 -1.31997 4.08504 0
M  V30 9181 C 851.325 -2.43861 4.74729 0
M  V30 9182 O 851.548 -3.62876 4.40088 0
M  V30 9183 O 850.482 -2.12898 5.6299 0
M  V30 9184 H 854.308 -0.0775399 3.03601 0
M  V30 9185 H 851.893 0.0275859 1.49375 0
M  V30 9186 H 853.775 -2.50485 3.38873 0
M  V30 9187 H 852.45 -2.37451 2.19997 0
M  V30 9188 H 851.357 -0.601676 3.6923 0
M  V30 9189 H 852.69 -0.811045 4.85472 0
M  V30 9190 N 854.342 -1.57594 -0.0133615 0
M  V30 9191 C 855.567 -1.94649 -0.715996 0
M  V30 9192 C 855.992 -0.860786 -1.67249 0
M  V30 9193 O 855.35 0.182228 -1.80382 0
M  V30 9194 C 855.398 -3.30789 -1.43566 0
M  V30 9195 O 854.502 -3.24148 -2.54955 0
M  V30 9196 H 853.843 -0.635801 -0.191449 0
M  V30 9197 H 856.373 -2.04569 0.0358478 0
M  V30 9198 H 856.383 -3.66045 -1.80208 0
M  V30 9199 H 855.058 -4.09367 -0.734263 0
M  V30 9200 H 853.635 -3.00548 -2.20739 0
M  V30 9201 N 855.82 0.285905 -1.54985 0
M  V30 9202 C 857.045 1.04207 -1.7932 0
M  V30 9203 C 857.47 1.79622 -0.558343 0
M  V30 9204 O 856.828 1.74506 0.491661 0
M  V30 9205 C 856.876 1.98648 -3.0095 0
M  V30 9206 O 855.98 3.07207 -2.75132 0
M  V30 9207 H 855.321 0.298596 -0.593074 0
M  V30 9208 H 857.851 0.318736 -2.02102 0
M  V30 9209 H 857.861 2.4084 -3.29333 0
M  V30 9210 H 856.536 1.43167 -3.90482 0
M  V30 9211 H 855.113 2.69423 -2.57809 0
M  V30 9212 N 857.298 1.47698 0.54982 0
M  V30 9213 C 858.538 1.56286 1.31735 0
M  V30 9214 C 858.902 0.223042 1.907 0
M  V30 9215 O 860.103 0.183798 2.68171 0
M  V30 9216 C 858.374 2.65522 2.39234 0
M  V30 9217 S 859.933 2.93742 3.25977 0
M  V30 9218 H 856.751 0.551795 0.448378 0
M  V30 9219 H 859.353 1.85118 0.628629 0
M  V30 9220 H 858.057 3.61457 1.94362 0
M  V30 9221 H 857.588 2.38528 3.12838 0
M  V30 9222 H 859.603 2.31522 4.38876 0
M  V30 9223 N 858.776 -0.797141 1.35954 0
M  V30 9224 C 860.001 -1.59097 1.33053 0
M  V30 9225 C 860.426 -1.87897 -0.0874592 0
M  V30 9226 O 859.784 -1.47291 -1.05712 0
M  V30 9227 C 859.832 -2.89346 2.152 0
M  V30 9228 O 858.936 -3.826 1.5392 0
M  V30 9229 H 858.277 -0.482895 0.45575 0
M  V30 9230 H 860.807 -0.988633 1.79129 0
M  V30 9231 H 860.817 -3.38686 2.27499 0
M  V30 9232 H 859.492 -2.6771 3.18283 0
M  V30 9233 H 858.069 -3.41174 1.50516 0
M  V30 9234 N 860.254 -1.20106 -1.0204 0
M  V30 9235 C 861.479 -1.0351 -1.79723 0
M  V30 9236 C 861.904 0.411328 -1.83548 0
M  V30 9237 O 861.262 1.29608 -1.26773 0
M  V30 9238 C 861.31 -1.61876 -3.22224 0
M  V30 9239 O 860.414 -0.853813 -4.03465 0
M  V30 9240 H 859.755 -0.365299 -0.554484 0
M  V30 9241 H 862.285 -1.59316 -1.28373 0
M  V30 9242 H 862.295 -1.65451 -3.72948 0
M  V30 9243 H 860.97 -2.67148 -3.18755 0
M  V30 9244 H 859.547 -0.891983 -3.62075 0
M  V30 9245 N 861.732 1.21287 -1.00634 0
M  V30 9246 C 862.679 2.23705 -0.567876 0
M  V30 9247 C 863.649 1.61043 0.406753 0
M  V30 9248 O 864.834 1.88289 0.308499 0
M  V30 9249 C 861.974 3.44961 0.097996 0
M  V30 9250 C 861.087 4.22091 -0.919972 0
M  V30 9251 C 860.222 5.30718 -0.226222 0
M  V30 9252 C 859.261 5.99581 -1.23165 0
M  V30 9253 N 858.398 6.99821 -0.565278 0
M  V30 9254 H 863.238 2.60571 -1.44592 0
M  V30 9255 H 860.775 1.28049 -0.724006 0
M  V30 9256 H 862.733 4.1418 0.501097 0
M  V30 9257 H 861.363 3.08818 0.939744 0
M  V30 9258 H 860.415 3.52038 -1.44131 0
M  V30 9259 H 861.727 4.69476 -1.68505 0
M  V30 9260 H 860.881 6.06253 0.232917 0
M  V30 9261 H 859.62 4.84343 0.571247 0
M  V30 9262 H 858.625 5.22816 -1.70128 0
M  V30 9263 H 859.85 6.48042 -2.03022 0
M  V30 9264 H 857.796 6.55656 0.212508 0
M  V30 9265 H 857.713 7.4528 -1.26858 0
M  V30 9266 H 858.981 7.79393 -0.129389 0
M  V30 9267 N 863.21 0.781244 1.36873 0
M  V30 9268 C 864.457 0.349889 1.99454 0
M  V30 9269 C 864.785 -1.07621 1.62013 0
M  V30 9270 O 864.04 -1.75665 0.86258 0
M  V30 9271 C 864.339 0.45146 3.54537 0
M  V30 9272 C 864.005 1.83718 4.11775 0
M  V30 9273 C 862.667 2.21634 4.2712 0
M  V30 9274 C 865.019 2.7449 4.43063 0
M  V30 9275 C 862.347 3.49742 4.7106 0
M  V30 9276 C 864.699 4.02017 4.88431 0
M  V30 9277 C 863.363 4.39967 5.01982 0
M  V30 9278 H 862.633 0.128033 0.729855 0
M  V30 9279 H 865.28 0.997117 1.63493 0
M  V30 9280 H 863.585 -0.279288 3.90803 0
M  V30 9281 H 865.282 0.0988609 4.00878 0
M  V30 9282 H 861.872 1.53251 4.00265 0
M  V30 9283 H 866.056 2.46453 4.30783 0
M  V30 9284 H 861.312 3.79026 4.79738 0
M  V30 9285 H 865.486 4.72475 5.11605 0
M  V30 9286 H 863.113 5.39291 5.35788 0
M  V30 9287 N 864.689 -1.48329 0.532571 0
M  V30 9288 C 865.914 -2.074 0.00147755 0
M  V30 9289 C 866.339 -1.38615 -1.27151 0
M  V30 9290 O 865.697 -0.452949 -1.75551 0
M  V30 9291 C 865.745 -3.60029 -0.202866 0
M  V30 9292 O 864.849 -3.92327 -1.27097 0
M  V30 9293 H 864.19 -0.662777 0.0402883 0
M  V30 9294 H 866.72 -1.90701 0.741224 0
M  V30 9295 H 866.73 -4.05783 -0.424722 0
M  V30 9296 H 865.405 -4.09496 0.727033 0
M  V30 9297 H 863.982 -3.58348 -1.03156 0
M  V30 9298 N 866.167 -0.267825 -1.55308 0
M  V30 9299 C 867.413 0.34458 -2.0046 0
M  V30 9300 C 867.768 1.54028 -1.15296 0
M  V30 9301 O 867.061 1.90409 -0.213316 0
M  V30 9302 C 867.255 0.784247 -3.48689 0
M  V30 9303 C 867.084 -0.367304 -4.48197 0
M  V30 9304 C 865.854 -0.848746 -4.98121 0
M  V30 9305 C 868.052 -1.20136 -5.00072 0
M  V30 9306 N 866.034 -1.97052 -5.81415 0
M  V30 9307 C 867.405 -2.17115 -5.80742 0
M  V30 9308 C 869.46 -1.23553 -4.82327 0
M  V30 9309 C 868.163 -3.17248 -6.45559 0
M  V30 9310 C 870.189 -2.22527 -5.47938 0
M  V30 9311 C 869.551 -3.1824 -6.28413 0
M  V30 9312 H 865.65 0.091465 -0.776633 0
M  V30 9313 H 868.234 -0.390184 -1.9075 0
M  V30 9314 H 866.405 1.48825 -3.58756 0
M  V30 9315 H 868.137 1.37337 -3.80684 0
M  V30 9316 H 864.892 -0.429291 -4.7165 0
M  V30 9317 H 865.316 -2.53481 -6.27755 0
M  V30 9318 H 869.958 -0.50937 -4.1972 0
M  V30 9319 H 867.676 -3.90801 -7.07319 0
M  V30 9320 H 871.262 -2.25904 -5.36152 0
M  V30 9321 H 870.142 -3.93573 -6.78285 0
M  V30 9322 N 867.645 1.57599 0.00500368 0
M  V30 9323 C 868.922 1.81561 0.727654 0
M  V30 9324 C 869.302 0.871604 1.92266 0
M  V30 9325 O 868.65 -0.0808232 2.28357 0
M  V30 9326 C 868.86 3.29922 1.13809 0
M  V30 9327 C 870.208 3.95531 1.54403 0
M  V30 9328 O 871.232 3.34215 1.23202 0
M  V30 9329 O 870.091 5.03535 2.12402 0
M  V30 9330 H 867.185 0.747462 0.353878 0
M  V30 9331 H 869.731 1.69688 -0.0200667 0
M  V30 9332 H 868.503 3.90253 0.286078 0
M  V30 9333 H 868.126 3.46775 1.94507 0
M  V30 9334 N 869.123 -0.277682 1.55134 0
M  V30 9335 C 870.033 -1.36524 1.90783 0
M  V30 9336 C 871.049 -1.54283 0.804542 0
M  V30 9337 O 872.225 -1.68499 1.10318 0
M  V30 9338 C 869.29 -2.70524 2.16835 0
M  V30 9339 C 868.351 -2.61552 3.40424 0
M  V30 9340 C 867.584 -3.89162 3.65224 0
M  V30 9341 O 867.807 -4.89624 2.92616 0
M  V30 9342 O 866.741 -3.89647 4.58758 0
M  V30 9343 H 870.567 -1.0929 2.83354 0
M  V30 9344 H 868.152 -0.475799 1.41621 0
M  V30 9345 H 870.034 -3.49765 2.35038 0
M  V30 9346 H 868.709 -2.97555 1.27448 0
M  V30 9347 H 867.616 -1.80704 3.27562 0
M  V30 9348 H 868.949 -2.39472 4.30016 0
M  V30 9349 N 870.601 -1.47988 -0.541979 0
M  V30 9350 C 871.831 -1.58804 -1.32155 0
M  V30 9351 C 872.239 -0.242893 -1.87634 0
M  V30 9352 O 871.582 0.776239 -1.66494 0
M  V30 9353 C 871.644 -2.56567 -2.51821 0
M  V30 9354 C 871.308 -4.01915 -2.17517 0
M  V30 9355 C 872.305 -4.89954 -1.73901 0
M  V30 9356 C 869.99 -4.47365 -2.28408 0
M  V30 9357 C 871.984 -6.21467 -1.41625 0
M  V30 9358 C 869.671 -5.78902 -1.95745 0
M  V30 9359 C 870.669 -6.65775 -1.52423 0
M  V30 9360 O 870.357 -7.94866 -1.20183 0
M  V30 9361 H 870.089 -0.538536 -0.408601 0
M  V30 9362 H 872.643 -1.94446 -0.661818 0
M  V30 9363 H 870.873 -2.16023 -3.20735 0
M  V30 9364 H 872.562 -2.57347 -3.13891 0
M  V30 9365 H 873.328 -4.56082 -1.64966 0
M  V30 9366 H 869.207 -3.79942 -2.61084 0
M  V30 9367 H 872.751 -6.8923 -1.07738 0
M  V30 9368 H 868.648 -6.12311 -2.04316 0
M  V30 9369 H 869.416 -8.07509 -1.33683 0
M  V30 9370 N 872.079 0.78992 -1.36375 0
M  V30 9371 C 872.989 1.93386 -1.32812 0
M  V30 9372 C 874.005 1.72468 -0.230377 0
M  V30 9373 O 875.181 1.96014 -0.462657 0
M  V30 9374 C 872.246 3.2824 -1.11621 0
M  V30 9375 C 871.307 3.61939 -2.30865 0
M  V30 9376 C 870.54 4.90359 -2.10675 0
M  V30 9377 O 870.763 5.6005 -1.08168 0
M  V30 9378 O 869.697 5.22702 -2.9844 0
M  V30 9379 H 873.523 1.99342 -2.29121 0
M  V30 9380 H 871.108 0.9301 -1.16917 0
M  V30 9381 H 872.99 4.08939 -1.01719 0
M  V30 9382 H 871.665 3.23178 -0.183732 0
M  V30 9383 H 870.572 2.81549 -2.46335 0
M  V30 9384 H 871.905 3.71725 -3.22617 0
M  V30 9385 N 873.557 1.20646 1.01402 0
M  V30 9386 C 874.489 0.915392 2.10127 0
M  V30 9387 C 875.502 -0.0978705 1.62506 0
M  V30 9388 O 876.691 0.133477 1.78 0
M  V30 9389 C 873.791 0.351304 3.37074 0
M  V30 9390 C 872.964 1.41673 4.13821 0
M  V30 9391 C 872.023 0.8635 5.19067 0
M  V30 9392 O 871.049 1.54481 5.47836 0
M  V30 9393 N 872.251 -0.325799 5.79585 0
M  V30 9394 H 875.016 1.85132 2.35682 0
M  V30 9395 H 872.577 1.11048 1.17813 0
M  V30 9396 H 874.569 -0.032996 4.04687 0
M  V30 9397 H 873.139 -0.489242 3.08748 0
M  V30 9398 H 872.359 1.97526 3.41141 0
M  V30 9399 H 873.647 2.1342 4.61876 0
M  V30 9400 H 873.045 -0.896534 5.58551 0
M  V30 9401 H 871.602 -0.651708 6.48534 0
M  V30 9402 N 875.035 -1.20752 1.01276 0
M  V30 9403 C 876.265 -1.93725 0.717934 0
M  V30 9404 C 876.673 -1.74769 -0.724732 0
M  V30 9405 O 876.016 -1.05642 -1.50285 0
M  V30 9406 C 876.078 -3.46196 0.968954 0
M  V30 9407 C 875.742 -3.88909 2.39998 0
M  V30 9408 C 876.739 -3.94982 3.38061 0
M  V30 9409 C 874.424 -4.21006 2.7397 0
M  V30 9410 C 876.418 -4.32558 4.68159 0
M  V30 9411 C 874.105 -4.58257 4.04282 0
M  V30 9412 C 875.103 -4.64004 5.01187 0
M  V30 9413 O 874.791 -5.00403 6.29168 0
M  V30 9414 H 874.523 -0.622663 0.263186 0
M  V30 9415 H 877.077 -1.54299 1.35577 0
M  V30 9416 H 875.307 -3.85728 0.273952 0
M  V30 9417 H 876.996 -4.00394 0.666312 0
M  V30 9418 H 877.762 -3.70353 3.13151 0
M  V30 9419 H 873.641 -4.15725 1.99233 0
M  V30 9420 H 877.185 -4.36959 5.43795 0
M  V30 9421 H 873.082 -4.82341 4.28973 0
M  V30 9422 H 873.85 -5.18409 6.33399 0
M  V30 9423 N 876.513 -0.788492 -1.36457 0
M  V30 9424 C 877.46 -0.18435 -2.30063 0
M  V30 9425 C 878.43 0.67128 -1.51931 0
M  V30 9426 O 879.615 0.620152 -1.8044 0
M  V30 9427 C 876.755 0.675596 -3.38422 0
M  V30 9428 C 875.868 -0.198475 -4.31544 0
M  V30 9429 C 875.003 0.667757 -5.26986 0
M  V30 9430 C 874.042 -0.207825 -6.11747 0
M  V30 9431 N 873.179 0.617335 -6.99381 0
M  V30 9432 H 878.019 -0.988056 -2.81143 0
M  V30 9433 H 875.556 -0.498815 -1.38384 0
M  V30 9434 H 877.514 1.18916 -3.99894 0
M  V30 9435 H 876.144 1.44474 -2.88664 0
M  V30 9436 H 875.196 -0.829995 -3.71235 0
M  V30 9437 H 876.508 -0.873163 -4.91098 0
M  V30 9438 H 875.662 1.24716 -5.93743 0
M  V30 9439 H 874.401 1.37607 -4.67884 0
M  V30 9440 H 873.406 -0.799638 -5.43954 0
M  V30 9441 H 874.631 -0.913729 -6.72925 0
M  V30 9442 H 872.577 1.30996 -6.42788 0
M  V30 9443 H 872.494 0.000307255 -7.56 0
M  V30 9444 H 873.762 1.1806 -7.70508 0
M  V30 9445 N 877.991 1.48044 -0.54043 0
M  V30 9446 C 878.938 2.29781 0.216597 0
M  V30 9447 C 879.908 1.38021 0.924094 0
M  V30 9448 O 881.093 1.66985 0.923078 0
M  V30 9449 C 878.233 3.21623 1.2511 0
M  V30 9450 C 877.346 4.28467 0.551384 0
M  V30 9451 C 876.481 5.07477 1.56972 0
M  V30 9452 C 875.52 6.06113 0.854048 0
M  V30 9453 N 874.657 6.78143 1.81842 0
M  V30 9454 H 879.497 2.94001 -0.486578 0
M  V30 9455 H 877.034 1.44929 -0.251789 0
M  V30 9456 H 878.992 3.73279 1.8633 0
M  V30 9457 H 877.622 2.59305 1.92252 0
M  V30 9458 H 876.674 3.79997 -0.174982 0
M  V30 9459 H 877.986 4.98799 -0.0100542 0
M  V30 9460 H 877.14 5.63199 2.25592 0
M  V30 9461 H 875.879 4.37008 2.16507 0
M  V30 9462 H 874.884 5.49585 0.153838 0
M  V30 9463 H 876.109 6.78584 0.264675 0
M  V30 9464 H 874.055 6.10417 2.40265 0
M  V30 9465 H 873.972 7.44587 1.3087 0
M  V30 9466 H 875.24 7.38448 2.49628 0
M  V30 9467 N 879.47 0.276058 1.55163 0
M  V30 9468 C 880.38 -0.621066 2.2623 0
M  V30 9469 C 881.396 -1.16931 1.28853 0
M  V30 9470 O 882.572 -1.1994 1.61791 0
M  V30 9471 C 879.637 -1.78824 2.97023 0
M  V30 9472 C 878.698 -1.27657 4.09881 0
M  V30 9473 C 877.931 -2.38812 4.77289 0
M  V30 9474 O 878.154 -3.58188 4.43912 0
M  V30 9475 O 877.088 -2.06915 5.65217 0
M  V30 9476 H 880.914 -0.0453346 3.03666 0
M  V30 9477 H 878.499 0.0434275 1.49337 0
M  V30 9478 H 880.381 -2.46877 3.41511 0
M  V30 9479 H 879.056 -2.35104 2.22503 0
M  V30 9480 H 877.963 -0.56248 3.69847 0
M  V30 9481 H 879.296 -0.759509 4.86305 0
M  V30 9482 O 880.987 -1.60877 0.141725 0
M  V30 9483 H 881.678 -1.88325 -0.453148 0
M  V30 END ATOM
M  V30 BEGIN BOND
M  V30 END BOND
M  V30 END CTAB
M  END
$$$$
