drugbank_target|Q9Y6Q6 Tumor necrosis factor receptor superfamily member 11A (DB05959)
 OpenBabel12092120323D

  0  0  0     0  0            999 V3000
M  V30 BEGIN CTAB
M  V30 COUNTS 9011 9119 0 0 0
M  V30 BEGIN ATOM
M  V30 1 H -0.908 1.98254 -0.117106 0
M  V30 2 N 0 1.576 0 0
M  V30 3 C 0.933 2.03868 1.02534 0
M  V30 4 C 1.911 0.928543 1.3348 0
M  V30 5 O 3.095 1.19667 1.45644 0
M  V30 6 C 0.222 2.43627 2.35294 0
M  V30 7 C -0.732 3.65373 2.2001 0
M  V30 8 S 0.101 5.13292 1.52614 0
M  V30 9 C 1.257 5.56322 2.86805 0
M  V30 10 H 1.49 2.90518 0.631377 0
M  V30 11 H -0.977 1.52953 0.210867 0
M  V30 12 H 0.981 2.67203 3.11629 0
M  V30 13 H -0.358 1.57376 2.7183 0
M  V30 14 H -1.165 3.90944 3.18086 0
M  V30 15 H -1.563 3.418 1.51819 0
M  V30 16 H 0.729 5.58782 3.83104 0
M  V30 17 H 1.672 6.56266 2.65933 0
M  V30 18 H 2.08 4.83886 2.90714 0
M  V30 19 N 1.4781 -0.272755 1.55222 0
M  V30 20 C 2.4411 -1.32041 1.87344 0
M  V30 21 C 3.4411 -1.42342 0.74803 0
M  V30 22 O 4.6311 -1.41488 1.0162 0
M  V30 23 C 1.7631 -2.70173 2.07893 0
M  V30 24 H 2.9561 -1.04789 2.80997 0
M  V30 25 H 0.5091 -0.51083 1.47717 0
M  V30 26 H 1.2441 -3.02605 1.16622 0
M  V30 27 H 1.0291 -2.64082 2.89833 0
M  V30 28 H 2.5191 -3.45869 2.34017 0
M  V30 29 N 2.9562 -1.48159 -0.537278 0
M  V30 30 C 4.3672 -1.49429 -1.11928 0
M  V30 31 C 4.7182 -0.26 -1.9447 0
M  V30 32 O 3.8432 0.633489 -2.0692 0
M  V30 33 C 4.4382 -2.70758 -2.03656 0
M  V30 34 C 2.9972 -2.74923 -2.57088 0
M  V30 35 C 2.1442 -2.42835 -1.3389 0
M  V30 36 H 5.0952 -1.55381 -0.322886 0
M  V30 37 H 5.1162 -2.48861 -2.87834 0
M  V30 38 H 4.6282 -3.60575 -1.43553 0
M  V30 39 H 2.7292 -1.89296 -3.20933 0
M  V30 40 H 2.8422 -3.76157 -2.9672 0
M  V30 41 H 1.2062 -1.93836 -1.65226 0
M  V30 42 H 1.9892 -3.34884 -0.755504 0
M  V30 43 N 4.4343 0.785586 -1.36625 0
M  V30 44 C 5.8503 1.08419 -1.17122 0
M  V30 45 C 6.0503 2.015 0.00208491 0
M  V30 46 O 5.1063 2.43551 0.666278 0
M  V30 47 C 6.4193 1.69498 -2.48377 0
M  V30 48 C 7.9673 1.81821 -2.54775 0
M  V30 49 C 8.4423 2.46315 -3.86126 0
M  V30 50 N 9.9333 2.53779 -3.87492 0
M  V30 51 C 10.6683 3.045 -4.85868 0
M  V30 52 N 10.1643 3.55499 -5.94637 0
M  V30 53 N 11.9573 3.03247 -4.73284 0
M  V30 54 H 4.1083 0.167264 -2.1174 0
M  V30 55 H 6.3713 0.13682 -0.938075 0
M  V30 56 H 6.0773 1.08571 -3.34522 0
M  V30 57 H 5.9513 2.6896 -2.64462 0
M  V30 58 H 8.3383 2.41884 -1.69045 0
M  V30 59 H 8.4193 0.811532 -2.42586 0
M  V30 60 H 8.0633 1.86895 -4.72263 0
M  V30 61 H 7.9933 3.47561 -3.95612 0
M  V30 62 H 10.4843 2.17672 -3.08913 0
M  V30 63 H 10.7973 3.92562 -6.65669 0
M  V30 64 H 9.1423 3.5364 -5.98301 0
M  V30 65 H 12.3333 2.62696 -3.87438 0
M  V30 66 H 12.5063 3.42467 -5.50109 0
M  V30 67 N 5.9124 1.20967 1.01018 0
M  V30 68 C 6.8754 0.965918 2.07853 0
M  V30 69 C 7.8754 -0.0610545 1.60684 0
M  V30 70 O 9.0654 0.175681 1.73312 0
M  V30 71 C 6.1974 0.455513 3.37843 0
M  V30 72 H 7.3904 1.91365 2.3091 0
M  V30 73 H 4.9434 1.02594 1.17916 0
M  V30 74 H 5.6784 -0.497381 3.20463 0
M  V30 75 H 5.4634 1.19622 3.73407 0
M  V30 76 H 6.9534 0.304667 4.16487 0
M  V30 77 N 7.3905 -1.2043 1.01659 0
M  V30 78 C 8.8065 -1.41852 0.731442 0
M  V30 79 C 9.0065 -1.89358 -0.688898 0
M  V30 80 O 8.0625 -2.06247 -1.45666 0
M  V30 81 C 9.3755 -2.44019 1.75714 0
M  V30 82 C 10.9235 -2.57785 1.77527 0
M  V30 83 C 11.3985 -3.63194 2.79023 0
M  V30 84 N 12.8895 -3.70678 2.77763 0
M  V30 85 C 13.6245 -4.51897 3.52954 0
M  V30 86 N 13.1205 -5.36921 4.37821 0
M  V30 87 N 14.9135 -4.4643 3.41551 0
M  V30 88 H 7.0645 -0.879093 1.93354 0
M  V30 89 H 9.3275 -0.448425 0.835236 0
M  V30 90 H 9.0335 -2.1611 2.77469 0
M  V30 91 H 8.9075 -3.43007 1.56927 0
M  V30 92 H 11.2945 -2.85023 0.764569 0
M  V30 93 H 11.3755 -1.58992 2.00387 0
M  V30 94 H 11.0195 -3.36699 3.80258 0
M  V30 95 H 10.9495 -4.61609 2.53425 0
M  V30 96 H 13.4405 -3.09944 2.16201 0
M  V30 97 H 13.7535 -5.95981 4.91962 0
M  V30 98 H 12.0985 -5.36424 4.41899 0
M  V30 99 H 15.2895 -3.79042 2.74672 0
M  V30 100 H 15.4625 -5.09491 4.00404 0
M  V30 101 N 8.8686 -0.792821 -1.36206 0
M  V30 102 C 10.2846 -0.474903 -1.52371 0
M  V30 103 C 10.4846 1.00622 -1.74578 0
M  V30 104 O 9.5406 1.79162 -1.77924 0
M  V30 105 C 10.8536 -1.3083 -2.70747 0
M  V30 106 C 12.4016 -1.30234 -2.84619 0
M  V30 107 C 12.8766 -2.11956 -4.06004 0
M  V30 108 N 14.3676 -2.09419 -4.13156 0
M  V30 109 C 15.1026 -2.69419 -5.06163 0
M  V30 110 N 14.5986 -3.3829 -6.04592 0
M  V30 111 N 16.3916 -2.59134 -4.98804 0
M  V30 112 H 8.5426 -1.75222 -1.20046 0
M  V30 113 H 10.8056 -0.745024 -0.586211 0
M  V30 114 H 10.5116 -2.35881 -2.6087 0
M  V30 115 H 10.3856 -0.95196 -3.6499 0
M  V30 116 H 12.7726 -0.259748 -2.93955 0
M  V30 117 H 12.8536 -1.69847 -1.91274 0
M  V30 118 H 12.4976 -3.16248 -3.97429 0
M  V30 119 H 12.4276 -1.69711 -4.98503 0
M  V30 120 H 14.9186 -1.59297 -3.42685 0
M  V30 121 H 15.2316 -3.81394 -6.7213 0
M  V30 122 H 13.5766 -3.42393 -6.04807 0
M  V30 123 H 16.7676 -2.04927 -4.20859 0
M  V30 124 H 16.9406 -3.06185 -5.711 0
M  V30 125 N 10.3467 1.47872 -0.545128 0
M  V30 126 C 11.7627 1.5829 -0.204032 0
M  V30 127 C 11.9627 1.54529 1.29317 0
M  V30 128 O 11.0187 1.44232 2.07252 0
M  V30 129 C 12.3317 2.89304 -0.819987 0
M  V30 130 C 13.8797 3.02864 -0.790105 0
M  V30 131 C 14.3547 4.3656 -1.38491 0
M  V30 132 N 15.8457 4.43165 -1.34755 0
M  V30 133 C 16.5807 5.45153 -1.77753 0
M  V30 134 N 16.0767 6.54016 -2.2855 0
M  V30 135 N 17.8697 5.36125 -1.68897 0
M  V30 136 H 10.0207 1.4856 -1.51802 0
M  V30 137 H 12.2837 0.706305 -0.632327 0
M  V30 138 H 11.9897 2.97757 -1.87173 0
M  V30 139 H 11.8637 3.75957 -0.305915 0
M  V30 140 H 14.2507 2.94014 0.252913 0
M  V30 141 H 14.3317 2.17782 -1.34181 0
M  V30 142 H 13.9757 4.46164 -2.42693 0
M  V30 143 H 13.9057 5.20353 -0.808754 0
M  V30 144 H 16.3967 3.65083 -0.975855 0
M  V30 145 H 16.7097 7.27994 -2.59314 0
M  V30 146 H 15.0547 6.54938 -2.32553 0
M  V30 147 H 18.2457 4.49975 -1.28998 0
M  V30 148 H 18.4187 6.15472 -2.02726 0
M  V30 149 N 11.8248 0.280983 1.55075 0
M  V30 150 C 13.2408 -0.0729964 1.59433 0
M  V30 151 C 13.4408 -1.5411 1.29817 0
M  V30 152 O 12.4968 -2.29086 1.06187 0
M  V30 153 C 13.8098 0.306921 2.9913 0
M  V30 154 C 15.3578 0.254023 3.11968 0
M  V30 155 C 15.8328 0.608467 4.5394 0
M  V30 156 N 17.3238 0.560241 4.59799 0
M  V30 157 C 18.0588 0.80722 5.6769 0
M  V30 158 N 17.5548 1.11912 6.83701 0
M  V30 159 N 19.3478 0.735623 5.57266 0
M  V30 160 H 11.4988 1.238 1.7259 0
M  V30 161 H 13.7618 0.500547 0.805082 0
M  V30 162 H 13.4678 1.32816 3.25657 0
M  V30 163 H 13.3418 -0.349363 3.75579 0
M  V30 164 H 15.7288 -0.75794 2.852 0
M  V30 165 H 15.8098 0.944649 2.37718 0
M  V30 166 H 15.4538 1.61814 4.81434 0
M  V30 167 H 15.3838 -0.104013 5.26497 0
M  V30 168 H 17.8748 0.329288 3.76463 0
M  V30 169 H 18.1878 1.29409 7.61888 0
M  V30 170 H 16.5328 1.15695 6.85303 0
M  V30 171 H 19.7238 0.491752 4.6551 0
M  V30 172 H 19.8968 0.931482 6.4127 0
M  V30 173 N 13.3029 -1.57598 0.00835791 0
M  V30 174 C 14.7139 -1.7892 -0.53333 0
M  V30 175 C 15.0649 -0.916609 -1.73473 0
M  V30 176 O 14.1899 -0.121336 -2.1606 0
M  V30 177 C 14.7849 -3.24488 -0.974313 0
M  V30 178 C 13.3439 -3.46878 -1.46125 0
M  V30 179 C 12.4909 -2.74157 -0.416302 0
M  V30 180 H 15.4419 -1.56958 0.234495 0
M  V30 181 H 15.4629 -3.3306 -1.83988 0
M  V30 182 H 14.9749 -3.87972 -0.099718 0
M  V30 183 H 13.0759 -2.8862 -2.35646 0
M  V30 184 H 13.1889 -4.55572 -1.48295 0
M  V30 185 H 11.5529 -2.39022 -0.87981 0
M  V30 186 H 12.3359 -3.40345 0.44947 0
M  V30 187 N 14.781 0.264519 -1.55364 0
M  V30 188 C 15.711 1.33121 -1.91836 0
M  V30 189 C 16.692 1.51101 -0.781192 0
M  V30 190 O 17.877 1.64003 -1.04003 0
M  V30 191 C 15.007 2.68921 -2.19769 0
M  V30 192 C 13.961 2.65661 -3.35571 0
M  V30 193 C 13.287 4.05093 -3.49004 0
M  V30 194 C 14.587 2.24187 -4.71739 0
M  V30 195 H 16.281 1.02844 -2.81182 0
M  V30 196 H 13.827 0.493286 -1.35287 0
M  V30 197 H 15.78 3.43663 -2.43872 0
M  V30 198 H 14.504 3.00799 -1.27231 0
M  V30 199 H 13.163 1.93377 -3.1145 0
M  V30 200 H 12.811 4.34206 -2.53917 0
M  V30 201 H 12.511 4.03804 -4.26868 0
M  V30 202 H 14.035 4.81561 -3.75408 0
M  V30 203 H 15.449 2.88654 -4.9533 0
M  V30 204 H 13.846 2.34044 -5.52579 0
M  V30 205 H 14.916 1.19327 -4.69988 0
M  V30 206 N 16.2591 1.48442 0.529413 0
M  V30 207 C 17.5061 1.56488 1.28521 0
M  V30 208 C 17.8341 0.239042 1.93025 0
M  V30 209 O 17.0891 -0.770713 1.79885 0
M  V30 210 C 17.3881 2.6523 2.39558 0
M  V30 211 C 17.0541 4.07648 1.92702 0
M  V30 212 C 15.7161 4.46411 1.79641 0
M  V30 213 C 18.0681 4.96896 1.573 0
M  V30 214 C 15.3961 5.72226 1.29514 0
M  V30 215 C 17.7481 6.23202 1.08636 0
M  V30 216 C 16.4121 6.60821 0.941919 0
M  V30 217 H 15.6821 0.572631 0.470292 0
M  V30 218 H 18.3291 1.82161 0.59072 0
M  V30 219 H 16.6341 2.33419 3.14679 0
M  V30 220 H 18.3311 2.68671 2.97686 0
M  V30 221 H 14.9211 3.77036 2.03819 0
M  V30 222 H 19.1051 4.67626 1.66251 0
M  V30 223 H 14.3611 6.00097 1.17019 0
M  V30 224 H 18.5351 6.91753 0.803136 0
M  V30 225 H 16.1621 7.58198 0.5513 0
M  V30 226 N 17.7372 -0.778329 1.37039 0
M  V30 227 C 18.7002 -1.87301 1.32102 0
M  V30 228 C 19.7002 -1.59198 0.226405 0
M  V30 229 O 20.8902 -1.67403 0.481861 0
M  V30 230 C 18.0222 -3.24309 1.05055 0
M  V30 231 H 19.2152 -1.93093 2.29467 0
M  V30 232 H 16.7682 -0.977358 1.21973 0
M  V30 233 H 17.5032 -3.24196 0.0819373 0
M  V30 234 H 17.2882 -3.46098 1.84279 0
M  V30 235 H 18.7782 -4.04382 1.04234 0
M  V30 236 N 19.2153 -1.21501 -1.00376 0
M  V30 237 C 20.1453 -0.999478 -2.11028 0
M  V30 238 C 21.1263 0.0759671 -1.6993 0
M  V30 239 O 22.3113 -0.0841106 -1.94018 0
M  V30 240 C 19.4413 -0.564709 -3.42678 0
M  V30 241 C 18.3953 -1.58486 -3.97576 0
M  V30 242 C 17.7213 -1.00628 -5.25146 0
M  V30 243 C 19.0213 -2.97204 -4.29496 0
M  V30 244 H 20.7153 -1.92495 -2.29317 0
M  V30 245 H 18.2613 -0.92693 -1.102 0
M  V30 246 H 20.2143 -0.401091 -4.19487 0
M  V30 247 H 18.9383 0.396411 -3.24185 0
M  V30 248 H 17.5973 -1.73606 -3.22888 0
M  V30 249 H 17.2453 -0.0368439 -5.02987 0
M  V30 250 H 16.9453 -1.68771 -5.62841 0
M  V30 251 H 18.4693 -0.854015 -6.04598 0
M  V30 252 H 19.8833 -2.8552 -4.97143 0
M  V30 253 H 18.2803 -3.62372 -4.78338 0
M  V30 254 H 19.3503 -3.47956 -3.3772 0
M  V30 255 N 20.6934 1.19889 -1.02296 0
M  V30 256 C 21.6234 2.25141 -0.619174 0
M  V30 257 C 22.6044 1.66051 0.368915 0
M  V30 258 O 23.7894 1.92546 0.252941 0
M  V30 259 C 20.9194 3.4728 0.0368783 0
M  V30 260 C 19.8734 4.19005 -0.872865 0
M  V30 261 C 19.1994 5.34637 -0.0822402 0
M  V30 262 C 20.4994 4.74452 -2.18387 0
M  V30 263 H 22.1934 2.59171 -1.49903 0
M  V30 264 H 19.7394 1.24579 -0.722222 0
M  V30 265 H 21.6924 4.20098 0.330958 0
M  V30 266 H 20.4164 3.12433 0.95149 0
M  V30 267 H 19.0754 3.48061 -1.15105 0
M  V30 268 H 18.7234 4.96034 0.83422 0
M  V30 269 H 18.4234 5.83557 -0.688149 0
M  V30 270 H 19.9474 6.10255 0.205238 0
M  V30 271 H 21.3614 5.39055 -1.95172 0
M  V30 272 H 19.7584 5.33834 -2.74119 0
M  V30 273 H 20.8284 3.92844 -2.84257 0
M  V30 274 N 22.1715 0.800033 1.35784 0
M  V30 275 C 23.1015 0.220184 2.3246 0
M  V30 276 C 24.0825 -0.65073 1.57161 0
M  V30 277 O 25.2675 -0.582359 1.85263 0
M  V30 278 C 22.3975 -0.637353 3.41402 0
M  V30 279 C 21.3515 0.134531 4.27789 0
M  V30 280 C 20.6775 -0.844285 5.27992 0
M  V30 281 C 21.9775 1.32979 5.05088 0
M  V30 282 H 23.6715 1.02787 2.81203 0
M  V30 283 H 21.2175 0.495717 1.35199 0
M  V30 284 H 23.1705 -1.05302 4.08031 0
M  V30 285 H 21.8945 -1.47785 2.91251 0
M  V30 286 H 20.5535 0.531296 3.6273 0
M  V30 287 H 20.2015 -1.68011 4.74111 0
M  V30 288 H 19.9015 -0.332184 5.8666 0
M  V30 289 H 21.4255 -1.2583 5.97494 0
M  V30 290 H 22.8395 0.98934 5.64699 0
M  V30 291 H 21.2365 1.77593 5.7322 0
M  V30 292 H 22.3065 2.11978 4.36111 0
M  V30 293 N 23.6496 -1.47581 0.552962 0
M  V30 294 C 24.5796 -2.32762 -0.185451 0
M  V30 295 C 25.5606 -1.43527 -0.912905 0
M  V30 296 O 26.7456 -1.72388 -0.894201 0
M  V30 297 C 23.8756 -3.25219 -1.21859 0
M  V30 298 C 22.8296 -4.23661 -0.607864 0
M  V30 299 C 22.1556 -5.05413 -1.74533 0
M  V30 300 C 23.4556 -5.20481 0.435582 0
M  V30 301 H 25.1496 -2.94749 0.525684 0
M  V30 302 H 22.6956 -1.41738 0.254251 0
M  V30 303 H 24.6486 -3.8365 -1.7433 0
M  V30 304 H 23.3726 -2.61279 -1.95961 0
M  V30 305 H 22.0316 -3.66451 -0.104489 0
M  V30 306 H 21.6796 -4.3788 -2.47529 0
M  V30 307 H 21.3796 -5.72059 -1.34249 0
M  V30 308 H 22.9036 -5.66701 -2.27338 0
M  V30 309 H 24.3176 -5.733 -0.00290157 0
M  V30 310 H 22.7146 -5.95305 0.757067 0
M  V30 311 H 23.7846 -4.66217 1.33303 0
M  V30 312 N 25.1277 -0.289203 -1.54924 0
M  V30 313 C 26.3677 0.324536 -2.01807 0
M  V30 314 C 26.7317 1.5199 -1.17316 0
M  V30 315 O 27.9327 2.20422 -1.53843 0
M  V30 316 C 26.2037 0.683578 -3.50802 0
M  V30 317 S 27.7627 1.28185 -4.19659 0
M  V30 318 H 24.5807 0.100236 -0.703899 0
M  V30 319 H 27.1827 -0.414325 -1.91059 0
M  V30 320 H 25.8867 -0.195073 -4.09936 0
M  V30 321 H 25.4177 1.45354 -3.65562 0
M  V30 322 H 27.4327 2.57006 -4.24456 0
M  V30 323 N 26.6058 1.57591 -0.0167156 0
M  V30 324 C 27.5688 2.08393 0.954204 0
M  V30 325 C 28.5688 0.996531 1.26198 0
M  V30 326 O 29.7588 1.25858 1.20438 0
M  V30 327 C 26.8908 2.5394 2.27436 0
M  V30 328 H 28.0838 2.95455 0.514451 0
M  V30 329 H 25.6368 1.54582 0.231089 0
M  V30 330 H 26.3718 1.70171 2.76066 0
M  V30 331 H 26.1568 3.33371 2.06412 0
M  V30 332 H 27.6468 2.93512 2.97053 0
M  V30 333 N 28.0839 -0.256276 1.55502 0
M  V30 334 C 29.0139 -1.32102 1.92539 0
M  V30 335 C 29.9949 -1.50684 0.789194 0
M  V30 336 O 31.1799 -1.63449 1.04872 0
M  V30 337 C 28.3099 -2.67752 2.21192 0
M  V30 338 C 27.2639 -2.63878 3.36975 0
M  V30 339 C 26.5899 -4.03236 3.51147 0
M  V30 340 C 27.8899 -2.21682 4.72921 0
M  V30 341 H 29.5839 -1.01351 2.81724 0
M  V30 342 H 27.1299 -0.486105 1.35547 0
M  V30 343 H 29.0829 -3.42365 2.45691 0
M  V30 344 H 27.8069 -3.0012 1.28824 0
M  V30 345 H 26.4659 -1.91722 3.12471 0
M  V30 346 H 26.1139 -4.32854 2.56216 0
M  V30 347 H 25.8139 -4.01535 4.29003 0
M  V30 348 H 27.3379 -4.79563 3.77957 0
M  V30 349 H 28.7519 -2.86023 4.96854 0
M  V30 350 H 27.1489 -2.3111 5.53812 0
M  V30 351 H 28.2189 -1.16833 4.70615 0
M  V30 352 N 29.562 -1.4872 -0.521534 0
M  V30 353 C 30.492 -1.66771 -1.63431 0
M  V30 354 C 31.473 -0.516499 -1.62069 0
M  V30 355 O 32.658 -0.750013 -1.79132 0
M  V30 356 C 29.788 -1.71515 -3.01993 0
M  V30 357 C 28.742 -2.86222 -3.18216 0
M  V30 358 C 28.068 -2.76061 -4.57924 0
M  V30 359 C 29.368 -4.27419 -3.00184 0
M  V30 360 H 31.062 -2.59932 -1.48579 0
M  V30 361 H 28.608 -1.25089 -0.713358 0
M  V30 362 H 30.561 -1.82731 -3.7972 0
M  V30 363 H 29.285 -0.749393 -3.17886 0
M  V30 364 H 27.944 -2.74575 -2.42908 0
M  V30 365 H 27.592 -1.77437 -4.70665 0
M  V30 366 H 27.292 -3.53037 -4.69722 0
M  V30 367 H 28.816 -2.89256 -5.37739 0
M  V30 368 H 30.23 -4.39855 -3.67697 0
M  V30 369 H 28.627 -5.05458 -3.2347 0
M  V30 370 H 29.697 -4.43293 -1.96518 0
M  V30 371 N 31.0401 0.771051 -1.3745 0
M  V30 372 C 32.0031 1.86598 -1.33093 0
M  V30 373 C 33.0031 1.59076 -0.234845 0
M  V30 374 O 34.1931 1.67145 -0.490732 0
M  V30 375 C 31.3251 3.23747 -1.06773 0
M  V30 376 H 32.5181 1.91873 -2.30488 0
M  V30 377 H 30.0711 0.970876 -1.2249 0
M  V30 378 H 30.8061 3.24148 -0.099129 0
M  V30 379 H 30.5911 3.45115 -1.86112 0
M  V30 380 H 32.0811 4.03824 -1.06377 0
M  V30 381 N 32.5182 1.22032 0.997298 0
M  V30 382 C 33.9342 0.979326 1.26021 0
M  V30 383 C 34.1342 -0.32972 1.98784 0
M  V30 384 O 33.1902 -1.05345 2.29475 0
M  V30 385 C 34.5032 2.17509 2.07631 0
M  V30 386 C 36.0512 2.21817 2.2083 0
M  V30 387 C 36.5262 3.40933 3.05825 0
M  V30 388 N 38.0172 3.41067 3.13412 0
M  V30 389 C 38.7522 4.29885 3.79455 0
M  V30 390 N 38.2482 5.28914 4.47462 0
M  V30 391 N 40.0412 4.17673 3.76173 0
M  V30 392 H 32.1922 2.06202 0.509352 0
M  V30 393 H 34.4552 0.90334 0.287541 0
M  V30 394 H 34.1612 3.12415 1.61524 0
M  V30 395 H 34.0352 2.17206 3.08385 0
M  V30 396 H 36.4222 1.27462 2.66153 0
M  V30 397 H 36.5032 2.2616 1.1952 0
M  V30 398 H 36.1472 4.35586 2.61203 0
M  V30 399 H 36.0772 3.33829 4.07266 0
M  V30 400 H 38.5682 2.69406 2.65007 0
M  V30 401 H 38.8812 5.92973 4.95583 0
M  V30 402 H 37.2262 5.32831 4.46224 0
M  V30 403 H 40.4172 3.39564 3.22202 0
M  V30 404 H 40.5902 4.87098 4.27363 0
M  V30 405 N 33.9963 -1.19345 1.0293 0
M  V30 406 C 34.9263 -2.2481 0.631105 0
M  V30 407 C 35.9073 -1.66245 -0.360104 0
M  V30 408 O 37.0923 -1.92677 -0.242726 0
M  V30 409 C 34.2223 -3.47295 -0.0184607 0
M  V30 410 C 33.1763 -4.18536 0.895073 0
M  V30 411 C 32.5023 -5.34586 0.110592 0
M  V30 412 C 33.8023 -4.73287 2.209 0
M  V30 413 H 35.4963 -2.58372 1.51275 0
M  V30 414 H 33.0423 -1.24194 0.728818 0
M  V30 415 H 34.9953 -4.20268 -0.308675 0
M  V30 416 H 33.7193 -3.12933 -0.934907 0
M  V30 417 H 32.3783 -3.47446 1.16949 0
M  V30 418 H 32.0263 -4.96469 -0.807902 0
M  V30 419 H 31.7263 -5.83183 0.719087 0
M  V30 420 H 33.2503 -6.10355 -0.172871 0
M  V30 421 H 34.6643 -5.38013 1.98028 0
M  V30 422 H 33.0613 -5.32373 2.76946 0
M  V30 423 H 34.1313 -3.91331 2.86336 0
M  V30 424 N 35.4744 -0.807222 -1.35358 0
M  V30 425 C 36.4064 -0.175717 -2.28525 0
M  V30 426 C 37.4194 0.625354 -1.5031 0
M  V30 427 O 38.6084 0.457611 -1.72535 0
M  V30 428 C 35.7084 0.773471 -3.29956 0
M  V30 429 C 34.8814 0.0186296 -4.37396 0
M  V30 430 C 33.9404 0.886395 -5.18681 0
M  V30 431 O 32.9664 0.337106 -5.68201 0
M  V30 432 N 34.1684 2.20839 -5.36852 0
M  V30 433 H 36.9334 -0.976091 -2.83359 0
M  V30 434 H 34.4944 -0.662737 -1.47714 0
M  V30 435 H 36.4864 1.35824 -3.81227 0
M  V30 436 H 35.0564 1.47465 -2.75632 0
M  V30 437 H 34.2764 -0.747349 -3.87051 0
M  V30 438 H 35.5644 -0.501577 -5.06322 0
M  V30 439 H 34.9624 2.67858 -4.98265 0
M  V30 440 H 33.5194 2.74237 -5.91301 0
M  V30 441 N 36.9525 1.47285 -0.560781 0
M  V30 442 C 38.1985 2.02764 -0.0381184 0
M  V30 443 C 38.5315 1.43384 1.30976 0
M  V30 444 O 37.8065 0.590733 1.85312 0
M  V30 445 C 38.0895 3.60064 0.0511427 0
M  V30 446 C 37.9425 4.2987 -1.32408 0
M  V30 447 C 39.2615 4.33439 0.762795 0
M  V30 448 H 36.3805 0.736841 -0.0153264 0
M  V30 449 H 39.0225 1.75675 -0.723759 0
M  V30 450 H 37.1725 3.83274 0.635065 0
M  V30 451 H 38.8445 4.17989 -1.95148 0
M  V30 452 H 37.0875 3.90085 -1.8978 0
M  V30 453 H 37.7585 5.38478 -1.21431 0
M  V30 454 H 40.2345 4.15243 0.266965 0
M  V30 455 H 39.1105 5.43124 0.794221 0
M  V30 456 H 39.3715 4.02915 1.81966 0
M  V30 457 N 38.4306 0.297415 1.54768 0
M  V30 458 C 39.3936 -0.567375 2.22066 0
M  V30 459 C 40.3936 -1.06409 1.20556 0
M  V30 460 O 41.5836 -0.960691 1.45315 0
M  V30 461 C 38.7156 -1.78517 2.90421 0
M  V30 462 H 39.9086 0.0205534 2.99893 0
M  V30 463 H 37.4616 0.0482163 1.56226 0
M  V30 464 H 38.1966 -2.41303 2.16664 0
M  V30 465 H 37.9816 -1.43669 3.64831 0
M  V30 466 H 39.4716 -2.39964 3.41771 0
M  V30 467 N 39.9087 -1.5758 0.0250728 0
M  V30 468 C 40.8387 -2.13007 -0.956575 0
M  V30 469 C 41.8197 -1.0452 -1.342 0
M  V30 470 O 43.0047 -1.32332 -1.42133 0
M  V30 471 C 40.1347 -2.65386 -2.24026 0
M  V30 472 C 39.0887 -3.78623 -1.99571 0
M  V30 473 C 38.4147 -4.17414 -3.3417 0
M  V30 474 C 39.7147 -5.04867 -1.33814 0
M  V30 475 H 41.4087 -2.9528 -0.494991 0
M  V30 476 H 38.9547 -1.42042 -0.236651 0
M  V30 477 H 40.9077 -3.02794 -2.93076 0
M  V30 478 H 39.6317 -1.80268 -2.72343 0
M  V30 479 H 38.2907 -3.41646 -1.32941 0
M  V30 480 H 37.9387 -3.29284 -3.80238 0
M  V30 481 H 37.6387 -4.93719 -3.18615 0
M  V30 482 H 39.1627 -4.57402 -4.04495 0
M  V30 483 H 40.5767 -5.39888 -1.92857 0
M  V30 484 H 38.9737 -5.86144 -1.28669 0
M  V30 485 H 40.0437 -4.83904 -0.310561 0
M  V30 486 N 41.3868 0.248026 -1.55636 0
M  V30 487 C 42.3188 1.32993 -1.8667 0
M  V30 488 C 43.3318 1.44345 -0.752877 0
M  V30 489 O 44.5208 1.45715 -1.03098 0
M  V30 490 C 41.6208 2.70863 -2.03682 0
M  V30 491 C 40.7938 2.81792 -3.34532 0
M  V30 492 C 39.8528 4.005 -3.41301 0
M  V30 493 O 38.8788 3.9008 -4.14519 0
M  V30 494 N 40.0808 5.13618 -2.70512 0
M  V30 495 H 42.8458 1.06707 -2.8006 0
M  V30 496 H 40.4068 0.438129 -1.55859 0
M  V30 497 H 42.3988 3.48612 -2.05553 0
M  V30 498 H 40.9688 2.89862 -1.17041 0
M  V30 499 H 40.1888 1.90729 -3.44987 0
M  V30 500 H 41.4768 2.86043 -4.20781 0
M  V30 501 H 40.8748 5.24975 -2.10755 0
M  V30 502 H 39.4318 5.89505 -2.78077 0
M  V30 503 N 42.8649 1.48995 0.513639 0
M  V30 504 C 44.1139 1.57093 1.2651 0
M  V30 505 C 44.4269 0.257091 1.93903 0
M  V30 506 O 45.6329 0.216478 2.70636 0
M  V30 507 C 44.0889 2.77118 2.29638 0
M  V30 508 C 43.6969 4.15209 1.68241 0
M  V30 509 C 45.4409 2.94538 3.05692 0
M  V30 510 C 43.3479 5.26474 2.69406 0
M  V30 511 H 42.2779 0.584876 0.475854 0
M  V30 512 H 44.9289 1.7536 0.540487 0
M  V30 513 H 43.3109 2.52319 3.05207 0
M  V30 514 H 44.4849 4.50094 0.987505 0
M  V30 515 H 42.7999 4.03042 1.04623 0
M  V30 516 H 45.3969 3.74832 3.8132 0
M  V30 517 H 45.7399 2.04614 3.62545 0
M  V30 518 H 46.2729 3.19316 2.37238 0
M  V30 519 H 43.0119 6.18417 2.17351 0
M  V30 520 H 42.5319 4.96058 3.37175 0
M  V30 521 H 44.2109 5.55277 3.32078 0
M  V30 522 N 44.343 -0.763751 1.37857 0
M  V30 523 C 45.306 -1.85889 1.34081 0
M  V30 524 C 46.306 -1.58949 0.243277 0
M  V30 525 O 47.496 -1.66882 0.499589 0
M  V30 526 C 44.628 -3.23176 1.08489 0
M  V30 527 H 45.821 -1.90648 2.31502 0
M  V30 528 H 43.374 -0.964367 1.23003 0
M  V30 529 H 44.109 -3.24091 0.116318 0
M  V30 530 H 43.894 -3.44124 1.8794 0
M  V30 531 H 45.384 -4.03254 1.08517 0
M  V30 532 N 45.8211 -1.22559 -0.990812 0
M  V30 533 C 47.2321 -1.04791 -1.54518 0
M  V30 534 C 47.5831 0.387998 -1.92325 0
M  V30 535 O 46.7081 1.27328 -1.74976 0
M  V30 536 C 47.3031 -1.896 -2.80779 0
M  V30 537 C 45.8621 -1.76124 -3.32652 0
M  V30 538 C 45.0091 -1.8594 -2.05722 0
M  V30 539 H 47.9601 -1.36374 -0.811662 0
M  V30 540 H 47.9811 -1.41464 -3.53225 0
M  V30 541 H 47.4931 -2.94101 -2.53231 0
M  V30 542 H 45.5941 -0.743643 -3.65104 0
M  V30 543 H 45.7071 -2.58913 -4.03114 0
M  V30 544 H 44.0711 -1.29403 -2.19379 0
M  V30 545 H 44.8541 -2.91976 -1.80568 0
M  V30 546 N 47.2992 1.18797 -1.03562 0
M  V30 547 C 48.7102 1.70322 -0.764676 0
M  V30 548 C 49.0612 1.82708 0.714996 0
M  V30 549 O 48.1862 1.50299 1.55689 0
M  V30 550 C 48.7812 3.09356 -1.38145 0
M  V30 551 C 47.3402 3.58114 -1.15895 0
M  V30 552 C 46.4872 2.34798 -1.4753 0
M  V30 553 H 49.4382 1.03543 -1.20268 0
M  V30 554 H 49.4592 3.72378 -0.781977 0
M  V30 555 H 48.9712 3.00309 -2.45837 0
M  V30 556 H 47.0722 3.72464 -0.100544 0
M  V30 557 H 47.1852 4.4184 -1.8524 0
M  V30 558 H 45.5492 2.38464 -0.894829 0
M  V30 559 H 46.3322 2.28375 -2.56319 0
M  V30 560 N 48.7773 0.814389 1.34928 0
M  V30 561 C 50.0173 0.404165 2.00364 0
M  V30 562 C 50.3813 -1.01166 1.63185 0
M  V30 563 O 51.5823 -1.52431 2.21401 0
M  V30 564 C 49.8533 0.590718 3.52484 0
M  V30 565 S 51.4123 0.272075 4.37956 0
M  V30 566 H 48.2303 0.15311 0.694319 0
M  V30 567 H 50.8323 1.05834 1.64376 0
M  V30 568 H 49.5363 1.62099 3.77031 0
M  V30 569 H 49.0673 -0.0785013 3.93322 0
M  V30 570 H 51.0823 -0.917405 4.87645 0
M  V30 571 N 50.2554 -1.46986 0.568584 0
M  V30 572 C 51.4834 -2.0683 0.0539956 0
M  V30 573 C 51.8984 -1.41953 -1.24478 0
M  V30 574 O 51.2554 -0.519933 -1.74937 0
M  V30 575 C 51.3064 -3.61254 -0.133362 0
M  V30 576 O 51.0274 -4.237 1.11399 0
M  V30 577 C 52.5284 -4.37992 -0.683927 0
M  V30 578 H 49.7484 -0.669058 0.0510141 0
M  V30 579 H 52.2924 -1.88824 0.785234 0
M  V30 580 H 50.4474 -3.78735 -0.81477 0
M  V30 581 H 50.8614 -5.16388 0.91888 0
M  V30 582 H 52.3354 -5.46684 -0.764263 0
M  V30 583 H 52.8124 -4.05058 -1.69778 0
M  V30 584 H 53.4184 -4.25283 -0.0378494 0
M  V30 585 N 51.7335 -0.305618 -1.54608 0
M  V30 586 C 52.9585 0.307562 -2.05107 0
M  V30 587 C 53.3835 1.46385 -1.18123 0
M  V30 588 O 52.7415 1.8034 -0.186324 0
M  V30 589 C 52.7895 0.73704 -3.52987 0
M  V30 590 O 51.8935 1.84134 -3.6901 0
M  V30 591 H 51.2345 0.0589143 -0.661381 0
M  V30 592 H 53.7645 -0.448807 -1.99617 0
M  V30 593 H 53.7745 1.02459 -3.94925 0
M  V30 594 H 52.4495 -0.108773 -4.15758 0
M  V30 595 H 51.0265 1.55398 -3.38978 0
M  V30 596 N 53.2116 1.57565 -0.0334293 0
M  V30 597 C 54.1216 2.13943 0.962572 0
M  V30 598 C 55.1376 1.09276 1.35406 0
M  V30 599 O 56.3136 1.41355 1.4346 0
M  V30 600 C 53.3786 2.65887 2.22497 0
M  V30 601 C 52.4396 3.85286 1.8935 0
M  V30 602 C 51.6726 4.34743 3.09571 0
M  V30 603 O 51.8956 3.83352 4.22371 0
M  V30 604 O 50.8296 5.26538 2.91618 0
M  V30 605 H 54.6556 2.99333 0.513169 0
M  V30 606 H 52.2406 1.4822 0.18743 0
M  V30 607 H 54.1226 2.99346 2.96598 0
M  V30 608 H 52.7976 1.83578 2.6661 0
M  V30 609 H 51.7046 3.56746 1.1262 0
M  V30 610 H 53.0376 4.68771 1.5005 0
M  V30 611 N 54.6897 -0.239769 1.55765 0
M  V30 612 C 55.6367 -1.29696 1.90913 0
M  V30 613 C 56.6067 -1.47478 0.764164 0
M  V30 614 O 57.7917 -1.61345 1.01845 0
M  V30 615 C 54.9317 -2.64598 2.21544 0
M  V30 616 C 54.0447 -2.54765 3.48882 0
M  V30 617 C 53.1797 -3.82069 3.69049 0
M  V30 618 C 52.2187 -3.66883 4.89963 0
M  V30 619 N 51.3557 -4.86094 5.06614 0
M  V30 620 H 56.1957 -0.990224 2.81067 0
M  V30 621 H 53.7327 -0.477684 1.39128 0
M  V30 622 H 55.6907 -3.43132 2.3731 0
M  V30 623 H 54.3207 -2.93405 1.34585 0
M  V30 624 H 53.3727 -1.67763 3.41409 0
M  V30 625 H 54.6847 -2.39457 4.37563 0
M  V30 626 H 53.8387 -4.69046 3.84812 0
M  V30 627 H 52.5777 -4.00282 2.78614 0
M  V30 628 H 51.5827 -2.78289 4.74168 0
M  V30 629 H 52.8077 -3.50157 5.81865 0
M  V30 630 H 50.7537 -5.04655 4.19117 0
M  V30 631 H 50.6707 -4.73443 5.89396 0
M  V30 632 H 51.9387 -5.74549 5.26795 0
M  V30 633 N 56.1678 -1.49265 -0.50573 0
M  V30 634 C 57.1178 -1.6198 -1.60457 0
M  V30 635 C 58.1018 -0.47568 -1.53708 0
M  V30 636 O 59.2938 -0.728392 -1.61318 0
M  V30 637 C 56.4228 -1.68526 -2.99089 0
M  V30 638 C 55.5088 -2.885 -3.10852 0
M  V30 639 N 55.8998 -4.12635 -2.92517 0
M  V30 640 C 54.1978 -2.86338 -3.41945 0
M  V30 641 C 54.8988 -4.93258 -3.08337 0
M  V30 642 N 53.8748 -4.26533 -3.37003 0
M  V30 643 H 57.6768 -2.55681 -1.44928 0
M  V30 644 H 55.1908 -1.45972 -0.711752 0
M  V30 645 H 57.1878 -1.75732 -3.78053 0
M  V30 646 H 55.8478 -0.759584 -3.1569 0
M  V30 647 H 56.8588 -4.42689 -2.68787 0
M  V30 648 H 53.5358 -2.03129 -3.64753 0
M  V30 649 H 54.9258 -6.01856 -2.98695 0
M  V30 650 N 57.6459 0.756429 -1.3826 0
M  V30 651 C 58.8759 1.54341 -1.3734 0
M  V30 652 C 59.2839 1.89159 0.0393917 0
M  V30 653 O 58.6269 1.5307 1.01565 0
M  V30 654 C 58.6889 2.87238 -2.16182 0
M  V30 655 C 58.3529 2.74973 -3.65019 0
M  V30 656 C 59.3499 2.44962 -4.58574 0
M  V30 657 C 57.0349 2.92515 -4.08338 0
M  V30 658 C 59.0289 2.32642 -5.93428 0
M  V30 659 C 56.7159 2.79815 -5.43274 0
M  V30 660 C 57.7139 2.49921 -6.35632 0
M  V30 661 O 57.4019 2.37275 -7.68086 0
M  V30 662 H 57.1339 0.484281 -0.471643 0
M  V30 663 H 59.6879 0.944152 -1.82414 0
M  V30 664 H 57.9179 3.49342 -1.65822 0
M  V30 665 H 59.6069 3.48731 -2.07705 0
M  V30 666 H 60.3729 2.31081 -4.26412 0
M  V30 667 H 56.2519 3.14781 -3.368 0
M  V30 668 H 59.7959 2.0923 -6.65484 0
M  V30 669 H 55.6929 2.93269 -5.75034 0
M  V30 670 H 56.4609 2.52509 -7.78577 0
M  V30 671 N 59.124 1.23083 0.984299 0
M  V30 672 C 60.034 1.02515 2.11016 0
M  V30 673 C 61.05 -0.0291702 1.73976 0
M  V30 674 O 62.226 0.165434 2.00719 0
M  V30 675 C 59.291 0.614673 3.41208 0
M  V30 676 C 58.352 1.74359 3.92297 0
M  V30 677 C 57.585 1.35261 5.16275 0
M  V30 678 O 57.808 0.235136 5.69915 0
M  V30 679 O 56.742 2.17227 5.61334 0
M  V30 680 H 60.568 1.96862 2.31255 0
M  V30 681 H 58.153 1.01753 1.09392 0
M  V30 682 H 60.035 0.396518 4.1953 0
M  V30 683 H 58.71 -0.299851 3.22308 0
M  V30 684 H 57.617 2.01635 3.1511 0
M  V30 685 H 58.95 2.63629 4.15645 0
M  V30 686 N 60.6021 -1.18246 1.0419 0
M  V30 687 C 61.5521 -2.19843 0.604392 0
M  V30 688 C 62.5361 -1.56962 -0.353814 0
M  V30 689 O 63.7281 -1.76156 -0.17267 0
M  V30 690 C 60.8571 -3.43287 -0.0298975 0
M  V30 691 C 59.9431 -4.13288 0.951531 0
M  V30 692 N 60.3341 -4.59271 2.11906 0
M  V30 693 C 58.6321 -4.39165 0.7778 0
M  V30 694 C 59.3331 -5.13173 2.73912 0
M  V30 695 N 58.3091 -5.04763 2.01779 0
M  V30 696 H 62.1111 -2.53089 1.4941 0
M  V30 697 H 59.6251 -1.34465 0.910658 0
M  V30 698 H 61.6221 -4.15334 -0.361037 0
M  V30 699 H 60.2821 -3.11537 -0.915127 0
M  V30 700 H 61.2931 -4.5368 2.49789 0
M  V30 701 H 57.9701 -4.17461 -0.0572331 0
M  V30 702 H 59.3601 -5.58947 3.72864 0
M  V30 703 N 62.0802 -0.821533 -1.34494 0
M  V30 704 C 63.0102 -0.257138 -2.3208 0
M  V30 705 C 63.9912 0.625645 -1.58176 0
M  V30 706 O 65.1762 0.552811 -1.86166 0
M  V30 707 C 62.3062 0.582958 -3.42372 0
M  V30 708 C 61.2602 -0.202571 -4.2752 0
M  V30 709 C 60.5862 0.760179 -5.29269 0
M  V30 710 C 61.8862 -1.40998 -5.02908 0
M  V30 711 H 63.5802 -1.07247 -2.79532 0
M  V30 712 H 61.1262 -0.517163 -1.34393 0
M  V30 713 H 63.0792 0.987972 -4.09655 0
M  V30 714 H 61.8032 1.43133 -2.93565 0
M  V30 715 H 60.4622 -0.588936 -3.61838 0
M  V30 716 H 60.1102 1.60447 -4.76724 0
M  V30 717 H 59.8102 0.238809 -5.87115 0
M  V30 718 H 61.3342 1.16308 -5.9942 0
M  V30 719 H 62.7482 -1.07905 -5.63054 0
M  V30 720 H 61.1452 -1.86689 -5.70322 0
M  V30 721 H 62.2152 -2.1889 -4.32684 0
M  V30 722 N 63.5583 1.46682 -0.576371 0
M  V30 723 C 64.8063 2.02013 -0.0594163 0
M  V30 724 C 65.1273 1.45101 1.30271 0
M  V30 725 O 64.3973 0.633317 1.8538 0
M  V30 726 H 62.9773 0.746759 -0.0189745 0
M  V30 727 H 65.6393 1.79862 -0.750717 0
M  V30 728 H 64.7353 3.12097 0.014345 0
M  V30 729 N 65.0364 0.313813 1.54444 0
M  V30 730 C 66.4524 -0.0391619 1.59552 0
M  V30 731 C 66.6524 -1.51322 1.33056 0
M  V30 732 O 65.7084 -2.26782 1.11022 0
M  V30 733 C 67.0214 0.370302 2.98411 0
M  V30 734 C 68.5694 0.320139 3.11358 0
M  V30 735 C 69.0444 0.704617 4.52547 0
M  V30 736 N 70.5354 0.657645 4.58508 0
M  V30 737 C 71.2704 0.927453 5.6585 0
M  V30 738 N 70.7664 1.26389 6.81174 0
M  V30 739 N 72.5594 0.853662 5.5558 0
M  V30 740 H 64.7104 1.27433 1.69925 0
M  V30 741 H 66.9734 0.517511 0.794284 0
M  V30 742 H 66.6794 1.39694 3.22767 0
M  V30 743 H 66.5534 -0.269619 3.76235 0
M  V30 744 H 68.9404 -0.697275 2.86744 0
M  V30 745 H 69.0214 0.99486 2.35661 0
M  V30 746 H 68.6654 1.7199 4.77893 0
M  V30 747 H 68.5954 0.00768843 5.26599 0
M  V30 748 H 71.0864 0.409067 3.75679 0
M  V30 749 H 71.3994 1.4554 7.58972 0
M  V30 750 H 69.7444 1.30206 6.82694 0
M  V30 751 H 72.9354 0.590383 4.64362 0
M  V30 752 H 73.1084 1.0673 6.3915 0
M  V30 753 N 66.5145 -1.57545 0.0417849 0
M  V30 754 C 67.7545 -1.94185 -0.63809 0
M  V30 755 C 68.1185 -0.919339 -1.68559 0
M  V30 756 O 69.3195 -1.17236 -2.41886 0
M  V30 757 C 67.5905 -3.35672 -1.22714 0
M  V30 758 S 69.1495 -3.94256 -1.92633 0
M  V30 759 H 65.9675 -0.679353 -0.209764 0
M  V30 760 H 68.5695 -1.95199 0.108479 0
M  V30 761 H 67.2735 -4.07898 -0.452503 0
M  V30 762 H 66.8045 -3.38132 -2.01073 0
M  V30 763 H 68.8195 -3.7872 -3.20602 0
M  V30 764 N 67.9926 0.231505 -1.5589 0
M  V30 765 C 69.2326 0.964533 -1.80211 0
M  V30 766 C 69.5966 1.81926 -0.613744 0
M  V30 767 O 70.7976 2.58526 -0.736045 0
M  V30 768 C 69.0686 1.78956 -3.09369 0
M  V30 769 S 70.6276 2.57959 -3.54969 0
M  V30 770 H 67.4456 0.324173 -0.632798 0
M  V30 771 H 70.0476 0.230985 -1.94131 0
M  V30 772 H 68.7516 1.15161 -3.93911 0
M  V30 773 H 68.2826 2.56559 -2.9823 0
M  V30 774 H 70.2976 3.81309 -3.17519 0
M  V30 775 N 69.4707 1.49531 0.497807 0
M  V30 776 C 70.4187 1.66926 1.61983 0
M  V30 777 C 71.4127 0.535167 1.60724 0
M  V30 778 O 72.6187 0.714896 1.65195 0
M  V30 779 H 68.9937 0.526415 0.537021 0
M  V30 780 H 70.9647 2.61098 1.44465 0
M  V30 781 C 69.7137 1.75602 3.00099 0
M  V30 782 H 69.0367 2.62244 3.01775 0
M  V30 783 H 70.4767 1.91807 3.78135 0
M  V30 784 C 68.9357 0.501543 3.33146 0
M  V30 785 O 69.4657 -0.371342 3.9998 0
M  V30 786 N 67.6717 0.363531 2.88317 0
M  V30 787 H 67.2187 1.07485 2.34104 0
M  V30 788 H 67.1767 -0.474728 3.10795 0
M  V30 789 N 70.9488 -0.749086 1.3866 0
M  V30 790 C 71.8958 -1.86291 1.36251 0
M  V30 791 C 72.8658 -1.64578 0.224347 0
M  V30 792 O 74.0508 -1.86181 0.417279 0
M  V30 793 C 71.1908 -3.23644 1.19786 0
M  V30 794 C 70.3038 -3.57158 2.43027 0
M  V30 795 C 69.4388 -4.83838 2.19258 0
M  V30 796 C 68.4778 -5.10152 3.38247 0
M  V30 797 N 67.6148 -6.28029 3.13884 0
M  V30 798 H 72.4548 -1.87685 2.3147 0
M  V30 799 H 69.9918 -0.917287 1.14997 0
M  V30 800 H 71.9498 -4.0291 1.08254 0
M  V30 801 H 70.5798 -3.21566 0.282031 0
M  V30 802 H 69.6318 -2.72701 2.65214 0
M  V30 803 H 70.9438 -3.7253 3.31697 0
M  V30 804 H 70.0978 -5.71057 2.04888 0
M  V30 805 H 68.8368 -4.70614 1.2796 0
M  V30 806 H 67.8418 -4.21401 3.53131 0
M  V30 807 H 69.0668 -5.25271 4.30427 0
M  V30 808 H 67.0128 -6.1612 2.25238 0
M  V30 809 H 66.9298 -6.43922 3.96106 0
M  V30 810 H 68.1978 -7.18124 3.03179 0
M  V30 811 N 72.4269 -1.23603 -0.977757 0
M  V30 812 C 73.6669 -1.08148 -1.73446 0
M  V30 813 C 74.0309 0.374785 -1.88307 0
M  V30 814 O 75.2319 0.650588 -2.60808 0
M  V30 815 C 73.5029 -1.78991 -3.0935 0
M  V30 816 S 75.0619 -1.79141 -4.00567 0
M  V30 817 H 71.8799 -0.386987 -0.596458 0
M  V30 818 H 74.4819 -1.5678 -1.16792 0
M  V30 819 H 73.1859 -2.8408 -2.96187 0
M  V30 820 H 72.7169 -1.30651 -3.71071 0
M  V30 821 H 74.7319 -0.851892 -4.88833 0
M  V30 822 N 73.905 1.17692 -1.04816 0
M  V30 823 C 74.815 2.25229 -0.65643 0
M  V30 824 C 75.831 1.71018 0.320761 0
M  V30 825 O 77.007 2.00649 0.173805 0
M  V30 826 C 74.072 3.46684 -0.0332629 0
M  V30 827 C 73.133 4.15997 -1.06042 0
M  V30 828 C 72.366 5.31654 -0.466893 0
M  V30 829 O 72.589 5.65777 0.724758 0
M  V30 830 O 71.523 5.89831 -1.1993 0
M  V30 831 H 75.349 2.61016 -1.55255 0
M  V30 832 H 72.934 1.24919 -0.81949 0
M  V30 833 H 74.816 4.20234 0.313256 0
M  V30 834 H 73.491 3.12703 0.836566 0
M  V30 835 H 72.398 3.44482 -1.45886 0
M  V30 836 H 73.731 4.53996 -1.90127 0
M  V30 837 N 75.3831 0.828654 1.34056 0
M  V30 838 C 76.7941 0.477534 1.8049 0
M  V30 839 C 77.1451 -1.00258 1.6865 0
M  V30 840 O 76.2701 -1.78057 1.22982 0
M  V30 841 C 76.8651 0.860018 3.27703 0
M  V30 842 C 75.4241 0.561185 3.72193 0
M  V30 843 C 74.5711 1.07385 2.55663 0
M  V30 844 H 77.5221 1.0183 1.21722 0
M  V30 845 H 77.5431 0.166038 3.80138 0
M  V30 846 H 77.0551 1.93731 3.36288 0
M  V30 847 H 75.1561 -0.506465 3.69142 0
M  V30 848 H 75.2691 1.10926 4.66082 0
M  V30 849 H 73.6331 0.495149 2.49841 0
M  V30 850 H 74.4161 2.15771 2.67016 0
M  V30 851 N 76.8612 -1.46375 0.584142 0
M  V30 852 C 78.1092 -2.01978 0.0701287 0
M  V30 853 C 78.4302 -1.4579 -1.295 0
M  V30 854 O 77.7002 -0.64314 -1.85042 0
M  V30 855 H 76.2802 -0.746648 0.0229345 0
M  V30 856 H 78.9422 -1.79461 0.760245 0
M  V30 857 H 78.0382 -3.121 0.0022064 0
M  V30 858 N 78.3393 -0.321999 -1.54275 0
M  V30 859 C 79.2863 0.544664 -2.24281 0
M  V30 860 C 80.2563 1.1129 -1.23303 0
M  V30 861 O 81.4413 1.15354 -1.51981 0
M  V30 862 C 78.5813 1.70045 -3.00298 0
M  V30 863 C 77.6943 1.16159 -4.1609 0
M  V30 864 C 76.8293 2.28293 -4.79641 0
M  V30 865 C 75.8683 1.71648 -5.8754 0
M  V30 866 N 75.0053 2.77438 -6.44959 0
M  V30 867 H 79.8453 -0.0588907 -2.97942 0
M  V30 868 H 77.3823 -0.0408345 -1.47043 0
M  V30 869 H 79.3403 2.38054 -3.42616 0
M  V30 870 H 77.9703 2.27531 -2.28975 0
M  V30 871 H 77.0223 0.373092 -3.78566 0
M  V30 872 H 78.3343 0.707087 -4.93763 0
M  V30 873 H 77.4883 3.0421 -5.2492 0
M  V30 874 H 76.2273 2.77079 -4.01346 0
M  V30 875 H 75.2323 0.942282 -5.41665 0
M  V30 876 H 76.4573 1.23741 -6.67731 0
M  V30 877 H 74.4033 3.25519 -5.69538 0
M  V30 878 H 74.3203 2.36547 -7.1804 0
M  V30 879 H 75.5883 3.53189 -6.94894 0
M  V30 880 N 79.8174 1.5752 -0.0501392 0
M  V30 881 C 81.0474 1.96678 0.632573 0
M  V30 882 C 81.4554 0.926298 1.64974 0
M  V30 883 O 80.7984 -0.09802 1.83438 0
M  V30 884 C 80.8604 3.32068 1.37735 0
M  V30 885 C 80.5244 4.54076 0.516131 0
M  V30 886 C 81.5214 5.19445 -0.217357 0
M  V30 887 C 79.2064 5.00304 0.44736 0
M  V30 888 C 81.2004 6.29378 -1.00807 0
M  V30 889 C 78.8874 6.10114 -0.347038 0
M  V30 890 C 79.8854 6.74512 -1.07344 0
M  V30 891 O 79.5734 7.82211 -1.85477 0
M  V30 892 H 79.3054 0.652193 0.177821 0
M  V30 893 H 81.8594 2.05091 -0.112543 0
M  V30 894 H 80.0894 3.20206 2.16807 0
M  V30 895 H 81.7784 3.55981 1.95019 0
M  V30 896 H 82.5444 4.84689 -0.173688 0
M  V30 897 H 78.4234 4.49971 1.00235 0
M  V30 898 H 81.9674 6.79575 -1.57556 0
M  V30 899 H 77.8644 6.44307 -0.392349 0
M  V30 900 H 78.6324 7.98982 -1.77678 0
M  V30 901 N 81.2955 -0.223234 1.56011 0
M  V30 902 C 82.2285 -1.30377 1.87289 0
M  V30 903 C 83.2065 -1.45286 0.730112 0
M  V30 904 O 84.3905 -1.61126 0.978302 0
M  V30 905 C 81.5175 -2.67431 2.07843 0
M  V30 906 C 80.5635 -2.69546 3.30526 0
M  V30 907 S 81.3965 -2.23781 4.865 0
M  V30 908 C 82.5525 -3.62714 5.10088 0
M  V30 909 H 82.7855 -1.03652 2.78646 0
M  V30 910 H 80.3185 -0.425393 1.48424 0
M  V30 911 H 82.2765 -3.46336 2.20368 0
M  V30 912 H 80.9375 -2.91381 1.17285 0
M  V30 913 H 80.1305 -3.70255 3.41947 0
M  V30 914 H 79.7325 -1.98703 3.16849 0
M  V30 915 H 82.0245 -4.58391 4.98883 0
M  V30 916 H 82.9675 -3.5621 6.11981 0
M  V30 917 H 83.3755 -3.56323 4.37829 0
M  V30 918 N 82.7736 -1.49793 -0.48987 0
M  V30 919 C 83.9986 -1.63836 -1.27172 0
M  V30 920 C 84.4236 -0.31402 -1.8546 0
M  V30 921 O 83.7816 0.719803 -1.66399 0
M  V30 922 C 83.8296 -2.71797 -2.36978 0
M  V30 923 O 82.9336 -2.31744 -3.41128 0
M  V30 924 H 82.2746 -0.547997 -0.37496 0
M  V30 925 H 84.8046 -1.96053 -0.585191 0
M  V30 926 H 84.8146 -2.94305 -2.82575 0
M  V30 927 H 83.4896 -3.67923 -1.93921 0
M  V30 928 H 82.0666 -2.1961 -3.01373 0
M  V30 929 N 84.2517 0.741722 -1.39055 0
M  V30 930 C 85.4767 1.53607 -1.39354 0
M  V30 931 C 85.9017 1.88096 0.0116905 0
M  V30 932 O 85.2597 1.5143 0.996924 0
M  V30 933 C 85.3077 2.80441 -2.26682 0
M  V30 934 O 84.4117 3.76088 -1.69208 0
M  V30 935 H 83.7527 0.464142 -0.474835 0
M  V30 936 H 86.2827 0.915665 -1.82967 0
M  V30 937 H 86.2927 3.29246 -2.40959 0
M  V30 938 H 84.9677 2.5467 -3.2881 0
M  V30 939 H 83.5447 3.34833 -1.64138 0
M  V30 940 N 85.7298 1.2412 0.971189 0
M  V30 941 C 86.6768 1.0305 2.06517 0
M  V30 942 C 87.6468 -0.0550666 1.66009 0
M  V30 943 O 88.8318 0.0988688 1.90544 0
M  V30 944 C 85.9718 0.637653 3.39158 0
M  V30 945 C 85.0848 1.79633 3.92882 0
M  V30 946 C 84.2198 1.34939 5.13775 0
M  V30 947 C 83.2588 2.47823 5.59687 0
M  V30 948 N 82.3958 2.04022 6.71803 0
M  V30 949 H 87.2358 1.96685 2.23873 0
M  V30 950 H 84.7728 0.979694 1.09729 0
M  V30 951 H 86.7308 0.390931 4.15364 0
M  V30 952 H 85.3608 -0.261693 3.21737 0
M  V30 953 H 84.4128 2.15681 3.13346 0
M  V30 954 H 85.7248 2.64466 4.22918 0
M  V30 955 H 84.8788 1.06134 5.97345 0
M  V30 956 H 83.6178 0.471557 4.85415 0
M  V30 957 H 82.6228 2.77392 4.74693 0
M  V30 958 H 83.8478 3.36158 5.90063 0
M  V30 959 H 81.7938 1.18632 6.45184 0
M  V30 960 H 81.7108 2.82409 7.01271 0
M  V30 961 H 82.9788 1.78347 7.58823 0
M  V30 962 N 87.2079 -1.17134 1.05439 0
M  V30 963 C 88.4479 -1.89137 0.77502 0
M  V30 964 C 88.8119 -1.79345 -0.685526 0
M  V30 965 O 90.0129 -2.46188 -1.0791 0
M  V30 966 C 88.2839 -3.35003 1.2453 0
M  V30 967 S 89.8429 -4.24952 1.09367 0
M  V30 968 H 86.6609 -0.652949 0.281387 0
M  V30 969 H 89.2629 -1.4145 1.34953 0
M  V30 970 H 87.9669 -3.39666 2.30338 0
M  V30 971 H 87.4979 -3.87736 0.665166 0
M  V30 972 H 89.5129 -4.96196 0.0193397 0
M  V30 973 N 88.686 -0.835752 -1.33615 0
M  V30 974 C 89.914 -0.443344 -2.02094 0
M  V30 975 C 90.329 0.954522 -1.62894 0
M  V30 976 O 89.686 1.61982 -0.840723 0
M  V30 977 C 89.737 -0.550775 -3.5728 0
M  V30 978 O 89.458 -1.89356 -3.95065 0
M  V30 979 C 90.959 -0.154919 -4.43029 0
M  V30 980 H 88.179 -0.176359 -0.647409 0
M  V30 981 H 90.723 -1.12746 -1.70612 0
M  V30 982 H 88.878 0.0853997 -3.87306 0
M  V30 983 H 89.292 -1.87687 -4.89769 0
M  V30 984 H 90.766 -0.281144 -5.51284 0
M  V30 985 H 91.243 0.902863 -4.2982 0
M  V30 986 H 91.849 -0.765404 -4.18356 0
M  V30 987 N 90.1641 1.46063 -0.591896 0
M  V30 988 C 91.3921 2.06717 -0.0868936 0
M  V30 989 C 91.8071 1.43916 1.22203 0
M  V30 990 O 91.1641 0.547698 1.74088 0
M  V30 991 C 91.2151 3.6142 0.0758725 0
M  V30 992 O 90.9361 4.21874 -1.18126 0
M  V30 993 C 92.4371 4.39025 0.61416 0
M  V30 994 H 89.6571 0.668162 -0.0616518 0
M  V30 995 H 92.2011 1.8755 -0.815175 0
M  V30 996 H 90.3561 3.79983 0.754413 0
M  V30 997 H 90.7701 5.14861 -1.00092 0
M  V30 998 H 92.2441 5.4783 0.677193 0
M  V30 999 H 92.7211 4.07708 1.63312 0
M  V30 1000 H 93.3271 4.2529 -0.0298142 0
M  V30 1001 N 91.6422 0.330177 1.54103 0
M  V30 1002 C 92.8702 -0.272179 2.05102 0
M  V30 1003 C 93.2852 -1.45267 1.20595 0
M  V30 1004 O 92.6422 -1.8094 0.238144 0
M  V30 1005 C 92.6932 -0.70023 3.54653 0
M  V30 1006 O 92.4142 0.433301 4.35952 0
M  V30 1007 C 93.9152 -1.3647 4.21771 0
M  V30 1008 H 91.1352 -0.0549159 0.668749 0
M  V30 1009 H 93.6792 0.478285 1.98828 0
M  V30 1010 H 91.8342 -1.40066 3.61193 0
M  V30 1011 H 92.2482 0.0947539 5.24414 0
M  V30 1012 H 93.7222 -1.61509 5.27843 0
M  V30 1013 H 94.1992 -2.31409 3.73292 0
M  V30 1014 H 94.8052 -0.706675 4.19388 0
M  V30 1015 N 93.1203 -1.57491 0.0584922 0
M  V30 1016 C 94.3453 -1.97711 -0.62652 0
M  V30 1017 C 94.7703 -0.936132 -1.63151 0
M  V30 1018 O 94.1283 0.099811 -1.81025 0
M  V30 1019 C 94.1763 -3.36989 -1.28338 0
M  V30 1020 O 93.2803 -3.35433 -2.39913 0
M  V30 1021 H 92.6213 -0.643868 -0.162266 0
M  V30 1022 H 95.1513 -2.04193 0.129064 0
M  V30 1023 H 95.1613 -3.73879 -1.63335 0
M  V30 1024 H 93.8363 -4.12289 -0.546889 0
M  V30 1025 H 92.4133 -3.10298 -2.06809 0
M  V30 1026 N 94.5984 0.214957 -1.56127 0
M  V30 1027 C 95.8754 0.963093 -1.70247 0
M  V30 1028 C 96.2554 2.02166 -0.60764 0
M  V30 1029 O 95.6034 2.25244 0.384385 0
M  V30 1030 C 95.8134 1.56756 -3.11815 0
M  V30 1031 C 97.1614 2.0573 -3.7143 0
M  V30 1032 O 98.1854 1.66637 -3.14818 0
M  V30 1033 O 97.0444 2.77603 -4.70743 0
M  V30 1034 H 94.1384 0.450321 -0.693643 0
M  V30 1035 H 96.6844 0.206219 -1.68442 0
M  V30 1036 H 95.4564 0.803533 -3.82961 0
M  V30 1037 H 95.0794 2.3898 -3.17765 0
M  V30 1038 N 96.0765 1.50051 0.48192 0
M  V30 1039 C 97.3015 1.64508 1.26301 0
M  V30 1040 C 97.7265 0.323851 1.85291 0
M  V30 1041 O 97.0845 -0.710969 1.66778 0
M  V30 1042 C 97.1325 2.7305 2.35533 0
M  V30 1043 O 96.2365 2.3355 3.39895 0
M  V30 1044 H 95.5775 0.549978 0.372048 0
M  V30 1045 H 98.1075 1.9636 0.574786 0
M  V30 1046 H 98.1175 2.95799 2.8101 0
M  V30 1047 H 96.7925 3.68946 1.91967 0
M  V30 1048 H 95.3695 2.21205 3.00204 0
M  V30 1049 N 97.5546 -0.734337 1.39446 0
M  V30 1050 C 98.8006 -1.49613 1.36908 0
M  V30 1051 C 99.1336 -1.94169 -0.0347829 0
M  V30 1052 O 98.4086 -1.66833 -0.999847 0
M  V30 1053 C 98.6916 -2.73534 2.34203 0
M  V30 1054 C 98.5446 -2.34993 3.83534 0
M  V30 1055 C 99.8636 -3.75635 2.29317 0
M  V30 1056 H 96.9826 -0.542714 0.498629 0
M  V30 1057 H 99.6246 -0.839597 1.70443 0
M  V30 1058 H 97.7746 -3.29553 2.05736 0
M  V30 1059 H 99.4466 -1.84601 4.22753 0
M  V30 1060 H 97.6896 -1.67213 4.00278 0
M  V30 1061 H 98.3606 -3.23738 4.47099 0
M  V30 1062 H 100.837 -3.29203 2.54489 0
M  V30 1063 H 99.7126 -4.60008 2.99472 0
M  V30 1064 H 99.9736 -4.22603 1.29842 0
M  V30 1065 N 99.0327 -1.24633 -0.964593 0
M  V30 1066 C 100.273 -1.09981 -1.72289 0
M  V30 1067 C 100.637 0.354792 -1.88693 0
M  V30 1068 O 101.838 0.62289 -2.61483 0
M  V30 1069 C 100.109 -1.82262 -3.07434 0
M  V30 1070 S 101.668 -1.83379 -3.98645 0
M  V30 1071 H 98.4857 -0.393292 -0.59232 0
M  V30 1072 H 101.088 -1.58009 -1.15123 0
M  V30 1073 H 99.7917 -2.87206 -2.93157 0
M  V30 1074 H 99.3227 -1.3458 -3.69664 0
M  V30 1075 H 101.338 -0.903691 -4.87901 0
M  V30 1076 N 100.511 1.16574 -1.06058 0
M  V30 1077 C 101.441 2.23057 -0.690488 0
M  V30 1078 C 102.422 1.67141 0.315901 0
M  V30 1079 O 103.607 1.93253 0.191556 0
M  V30 1080 C 100.737 3.47222 -0.073625 0
M  V30 1081 C 99.6908 4.16016 -1.00573 0
M  V30 1082 C 99.0168 5.34104 -0.252289 0
M  V30 1083 C 100.317 4.67264 -2.33371 0
M  V30 1084 H 102.011 2.54271 -1.58072 0
M  V30 1085 H 99.5568 1.22218 -0.76149 0
M  V30 1086 H 101.51 4.20939 0.19714 0
M  V30 1087 H 100.234 3.15302 0.85161 0
M  V30 1088 H 98.8928 3.44223 -1.2612 0
M  V30 1089 H 98.5408 4.98437 0.675988 0
M  V30 1090 H 98.2408 5.81072 -0.873455 0
M  V30 1091 H 99.7648 6.10599 0.0109857 0
M  V30 1092 H 101.179 5.32573 -2.12223 0
M  V30 1093 H 99.5758 5.24843 -2.90963 0
M  V30 1094 H 100.646 3.83602 -2.96611 0
M  V30 1095 N 101.989 0.842826 1.3317 0
M  V30 1096 C 103.4 0.496651 1.79973 0
M  V30 1097 C 103.751 -0.984641 1.69703 0
M  V30 1098 O 102.876 -1.76743 1.24863 0
M  V30 1099 C 103.471 0.894727 3.26772 0
M  V30 1100 C 102.03 0.600629 3.71577 0
M  V30 1101 C 101.177 1.10091 2.5451 0
M  V30 1102 H 104.128 1.03116 1.20635 0
M  V30 1103 H 104.149 0.206347 3.7994 0
M  V30 1104 H 103.661 1.97287 3.34215 0
M  V30 1105 H 101.762 -0.467284 3.69658 0
M  V30 1106 H 101.875 1.15863 4.64879 0
M  V30 1107 H 100.239 0.52162 2.49301 0
M  V30 1108 H 101.022 2.18591 2.64713 0
M  V30 1109 N 103.467 -1.45747 0.599634 0
M  V30 1110 C 104.707 -2.04181 0.0946309 0
M  V30 1111 C 105.071 -1.45895 -1.24815 0
M  V30 1112 O 106.272 -1.95633 -1.8434 0
M  V30 1113 C 104.543 -3.57368 0.047581 0
M  V30 1114 S 106.102 -4.36997 -0.397387 0
M  V30 1115 H 102.92 -0.70953 0.0456954 0
M  V30 1116 H 105.522 -1.78564 0.795946 0
M  V30 1117 H 104.226 -3.97303 1.02852 0
M  V30 1118 H 103.757 -3.87549 -0.675977 0
M  V30 1119 H 105.772 -4.68012 -1.64862 0
M  V30 1120 N 104.945 -0.338344 -1.53925 0
M  V30 1121 C 106.193 0.259245 -2.0043 0
M  V30 1122 C 106.514 1.51484 -1.22791 0
M  V30 1123 O 105.784 1.93037 -0.33368 0
M  V30 1124 H 104.364 0.0987845 -0.740439 0
M  V30 1125 H 107.026 -0.458302 -1.89435 0
M  V30 1126 H 106.122 0.505334 -3.07982 0
M  V30 1127 N 106.423 1.57458 -0.0668435 0
M  V30 1128 C 107.834 1.80776 0.466558 0
M  V30 1129 C 108.185 0.980361 1.69951 0
M  V30 1130 O 107.31 0.201441 2.1546 0
M  V30 1131 C 107.905 3.27881 0.85321 0
M  V30 1132 C 106.464 3.52062 1.3315 0
M  V30 1133 C 105.611 2.75513 0.314264 0
M  V30 1134 H 108.562 1.5598 -0.292588 0
M  V30 1135 H 108.583 3.39659 1.715 0
M  V30 1136 H 108.095 3.88075 -0.0443439 0
M  V30 1137 H 106.196 2.97167 2.24772 0
M  V30 1138 H 106.309 4.60762 1.31285 0
M  V30 1139 H 104.673 2.42123 0.790492 0
M  V30 1140 H 105.456 3.38442 -0.575477 0
M  V30 1141 N 107.901 -0.206675 1.56239 0
M  V30 1142 C 109.178 -0.954051 1.70755 0
M  V30 1143 C 109.558 -2.01841 0.618353 0
M  V30 1144 O 108.906 -2.25444 -0.372434 0
M  V30 1145 C 109.116 -1.551 3.12642 0
M  V30 1146 C 110.464 -2.03757 3.72516 0
M  V30 1147 O 111.488 -1.64965 3.15698 0
M  V30 1148 O 110.347 -2.75103 4.72208 0
M  V30 1149 H 107.441 -0.446636 0.696021 0
M  V30 1150 H 109.987 -0.197283 1.68549 0
M  V30 1151 H 108.759 -0.783212 3.83382 0
M  V30 1152 H 108.382 -2.37291 3.19028 0
M  V30 1153 N 109.379 -1.50304 -0.473955 0
M  V30 1154 C 110.289 -1.7174 -1.5982 0
M  V30 1155 C 111.305 -0.600457 -1.63311 0
M  V30 1156 O 112.481 -0.878441 -1.81233 0
M  V30 1157 C 109.546 -1.80427 -2.96052 0
M  V30 1158 C 108.607 -3.04148 -3.02972 0
M  V30 1159 C 107.84 -3.12411 -4.32706 0
M  V30 1160 O 108.063 -2.27542 -5.23049 0
M  V30 1161 O 106.997 -4.05113 -4.45159 0
M  V30 1162 H 110.823 -2.67035 -1.44657 0
M  V30 1163 H 108.408 -1.34366 -0.653148 0
M  V30 1164 H 110.29 -1.88338 -3.7697 0
M  V30 1165 H 108.965 -0.883156 -3.11419 0
M  V30 1166 H 107.872 -3.0174 -2.21142 0
M  V30 1167 H 109.205 -3.95829 -2.92541 0
M  V30 1168 N 110.857 0.726932 -1.39834 0
M  V30 1169 C 112.087 1.51393 -1.40583 0
M  V30 1170 C 112.495 1.892 -0.000740625 0
M  V30 1171 O 111.838 1.55189 0.982951 0
M  V30 1172 C 111.9 2.82588 -2.22226 0
M  V30 1173 C 111.564 2.67169 -3.70769 0
M  V30 1174 C 112.561 2.3518 -4.63666 0
M  V30 1175 C 110.246 2.83788 -4.14451 0
M  V30 1176 C 112.24 2.20002 -5.98229 0
M  V30 1177 C 109.927 2.68229 -5.49087 0
M  V30 1178 C 110.925 2.36382 -6.4079 0
M  V30 1179 O 110.613 2.2093 -7.72946 0
M  V30 1180 H 110.345 0.474168 -0.48181 0
M  V30 1181 H 112.899 0.905247 -1.84376 0
M  V30 1182 H 111.129 3.45746 -1.73195 0
M  V30 1183 H 112.818 3.44247 -2.15055 0
M  V30 1184 H 113.584 2.21984 -4.31217 0
M  V30 1185 H 109.463 3.07566 -3.43401 0
M  V30 1186 H 113.007 1.95067 -6.69772 0
M  V30 1187 H 108.904 2.81006 -5.81125 0
M  V30 1188 H 109.672 2.35937 -7.83757 0
M  V30 1189 N 112.336 1.25143 0.95797 0
M  V30 1190 C 113.266 1.07711 2.07173 0
M  V30 1191 C 114.247 -0.0128462 1.70095 0
M  V30 1192 O 115.432 0.156061 1.93572 0
M  V30 1193 C 112.562 0.691503 3.40346 0
M  V30 1194 C 111.516 1.73132 3.9142 0
M  V30 1195 C 110.842 1.20049 5.21049 0
M  V30 1196 C 112.142 3.1294 4.1817 0
M  V30 1197 H 113.836 2.00873 2.22014 0
M  V30 1198 H 111.382 0.967191 1.06684 0
M  V30 1199 H 113.335 0.556505 4.17709 0
M  V30 1200 H 112.059 -0.275819 3.25433 0
M  V30 1201 H 110.718 1.8547 3.16222 0
M  V30 1202 H 110.366 0.223499 5.02503 0
M  V30 1203 H 110.066 1.89545 5.56189 0
M  V30 1204 H 111.59 1.07782 6.01012 0
M  V30 1205 H 113.004 3.03775 4.86203 0
M  V30 1206 H 111.401 3.79875 4.64559 0
M  V30 1207 H 112.471 3.6025 3.24573 0
M  V30 1208 N 113.814 -1.1601 1.06675 0
M  V30 1209 C 115.091 -1.82679 0.699114 0
M  V30 1210 C 115.471 -1.94559 -0.819137 0
M  V30 1211 O 114.819 -1.49169 -1.73092 0
M  V30 1212 C 115.029 -3.19445 1.40555 0
M  V30 1213 C 116.377 -3.95171 1.55323 0
M  V30 1214 O 117.401 -3.28976 1.36577 0
M  V30 1215 O 116.26 -5.13833 1.86112 0
M  V30 1216 H 113.354 -0.788954 0.247951 0
M  V30 1217 H 115.9 -1.23179 1.16726 0
M  V30 1218 H 114.672 -3.05856 2.44065 0
M  V30 1219 H 114.295 -3.86625 0.927733 0
M  V30 1220 N 115.292 -0.849877 -1.32721 0
M  V30 1221 C 116.517 -0.463856 -2.02146 0
M  V30 1222 C 116.942 0.930449 -1.63476 0
M  V30 1223 O 116.3 1.61033 -0.832952 0
M  V30 1224 C 116.348 -0.604955 -3.55489 0
M  V30 1225 O 115.452 0.36425 -4.10788 0
M  V30 1226 H 114.793 -0.187046 -0.637111 0
M  V30 1227 H 117.323 -1.14775 -1.69375 0
M  V30 1228 H 117.333 -0.490696 -4.05038 0
M  V30 1229 H 116.008 -1.62174 -3.82978 0
M  V30 1230 H 114.585 0.206628 -3.72327 0
M  V30 1231 N 116.77 1.45427 -0.607355 0
M  V30 1232 C 118.016 2.03097 -0.111035 0
M  V30 1233 C 118.371 1.46735 1.24445 0
M  V30 1234 O 117.664 0.632478 1.8086 0
M  V30 1235 C 117.858 3.57398 -0.0129263 0
M  V30 1236 C 117.687 4.28726 -1.35735 0
M  V30 1237 C 116.457 4.66659 -1.93798 0
M  V30 1238 C 118.655 4.60699 -2.28607 0
M  V30 1239 N 116.637 5.22845 -3.21723 0
M  V30 1240 C 118.008 5.17716 -3.41131 0
M  V30 1241 C 120.063 4.42638 -2.27982 0
M  V30 1242 C 118.766 5.58576 -4.53194 0
M  V30 1243 C 120.792 4.84531 -3.39093 0
M  V30 1244 C 120.154 5.4164 -4.50339 0
M  V30 1245 H 116.253 0.777476 -0.083994 0
M  V30 1246 H 118.837 1.77249 -0.805655 0
M  V30 1247 H 117.008 3.82907 0.650914 0
M  V30 1248 H 118.74 4.01722 0.490033 0
M  V30 1249 H 115.495 4.50207 -1.47007 0
M  V30 1250 H 115.919 5.55438 -3.87063 0
M  V30 1251 H 120.561 3.97798 -1.43235 0
M  V30 1252 H 118.279 6.02382 -5.38667 0
M  V30 1253 H 121.865 4.72289 -3.39757 0
M  V30 1254 H 120.745 5.73461 -5.34895 0
M  V30 1255 N 118.248 0.346503 1.53744 0
M  V30 1256 C 119.196 -0.52422 2.26616 0
M  V30 1257 C 120.19 -1.09948 1.28871 0
M  V30 1258 O 121.396 -1.04488 1.46568 0
M  V30 1259 H 117.771 -0.187743 0.728187 0
M  V30 1260 H 119.742 0.11239 2.98188 0
M  V30 1261 C 118.491 -1.66186 3.05414 0
M  V30 1262 H 117.814 -1.22848 3.80458 0
M  V30 1263 H 119.254 -2.24622 3.59612 0
M  V30 1264 C 117.713 -2.59302 2.1509 0
M  V30 1265 O 118.243 -3.61628 1.74895 0
M  V30 1266 N 116.449 -2.28055 1.8011 0
M  V30 1267 H 115.996 -1.44883 2.12994 0
M  V30 1268 H 115.954 -2.90615 1.19958 0
M  V30 1269 N 119.726 -1.57421 0.075193 0
M  V30 1270 C 120.636 -2.1642 -0.905511 0
M  V30 1271 C 121.652 -1.12828 -1.32461 0
M  V30 1272 O 122.828 -1.45109 -1.39661 0
M  V30 1273 C 119.893 -2.71693 -2.15369 0
M  V30 1274 C 118.954 -3.90171 -1.79068 0
M  V30 1275 C 118.187 -4.42798 -2.97936 0
M  V30 1276 O 118.41 -3.94416 -4.12058 0
M  V30 1277 O 117.344 -5.34085 -2.77555 0
M  V30 1278 H 121.17 -3.00588 -0.433626 0
M  V30 1279 H 118.755 -1.48664 -0.148067 0
M  V30 1280 H 120.637 -3.07104 -2.88557 0
M  V30 1281 H 119.312 -1.90582 -2.61649 0
M  V30 1282 H 118.219 -3.59606 -1.03122 0
M  V30 1283 H 119.552 -4.72584 -1.37569 0
M  V30 1284 N 121.204 0.198386 -1.56346 0
M  V30 1285 C 122.114 1.2664 -1.97483 0
M  V30 1286 C 123.13 1.49989 -0.882002 0
M  V30 1287 O 124.306 1.62668 -1.18748 0
M  V30 1288 C 121.371 2.59141 -2.30319 0
M  V30 1289 C 120.432 2.43892 -3.53292 0
M  V30 1290 C 119.665 3.70074 -3.84553 0
M  V30 1291 O 119.888 4.74101 -3.1715 0
M  V30 1292 O 118.822 3.658 -4.7799 0
M  V30 1293 H 122.648 0.947304 -2.88548 0
M  V30 1294 H 120.233 0.403123 -1.43859 0
M  V30 1295 H 122.115 3.37352 -2.5253 0
M  V30 1296 H 120.79 2.90684 -1.42423 0
M  V30 1297 H 119.697 1.63803 -3.36332 0
M  V30 1298 H 121.03 2.17282 -4.41644 0
M  V30 1299 N 122.682 1.50554 0.465978 0
M  V30 1300 C 123.959 1.5232 1.22712 0
M  V30 1301 C 124.339 0.270807 2.09356 0
M  V30 1302 O 123.687 -0.745541 2.15995 0
M  V30 1303 C 123.897 2.82175 2.05374 0
M  V30 1304 C 125.245 3.33033 2.6339 0
M  V30 1305 O 126.269 2.83531 2.15612 0
M  V30 1306 O 125.128 4.19336 3.50456 0
M  V30 1307 H 122.222 0.611183 0.557122 0
M  V30 1308 H 124.768 1.62847 0.477381 0
M  V30 1309 H 123.54 3.64797 1.41558 0
M  V30 1310 H 123.163 2.74675 2.87471 0
M  V30 1311 N 124.16 -0.719506 1.40217 0
M  V30 1312 C 125.107 -1.83359 1.40172 0
M  V30 1313 C 126.077 -1.64065 0.259206 0
M  V30 1314 O 127.262 -1.85254 0.456677 0
M  V30 1315 C 124.402 -3.2103 1.26624 0
M  V30 1316 C 123.515 -3.51923 2.50548 0
M  V30 1317 C 122.65 -4.79079 2.29471 0
M  V30 1318 C 121.689 -5.02863 3.48992 0
M  V30 1319 N 120.826 -6.2123 3.27135 0
M  V30 1320 H 125.666 -1.82733 2.35399 0
M  V30 1321 H 123.203 -0.892688 1.16917 0
M  V30 1322 H 125.161 -4.00524 1.16776 0
M  V30 1323 H 123.791 -3.20895 0.350176 0
M  V30 1324 H 122.843 -2.67014 2.70939 0
M  V30 1325 H 124.155 -3.6541 3.39525 0
M  V30 1326 H 123.309 -5.66582 2.16955 0
M  V30 1327 H 122.048 -4.67794 1.37913 0
M  V30 1328 H 121.053 -4.13816 3.6199 0
M  V30 1329 H 122.278 -5.16023 4.41472 0
M  V30 1330 H 120.224 -6.11204 2.38256 0
M  V30 1331 H 120.141 -6.35375 4.09675 0
M  V30 1332 H 121.409 -7.11532 3.18344 0
M  V30 1333 N 125.638 -1.25649 -0.95132 0
M  V30 1334 C 126.878 -1.11802 -1.71113 0
M  V30 1335 C 127.242 0.334758 -1.89059 0
M  V30 1336 O 128.443 0.595121 -2.62129 0
M  V30 1337 C 126.714 -1.85512 -3.05483 0
M  V30 1338 S 128.273 -1.87597 -3.96677 0
M  V30 1339 H 125.091 -0.399552 -0.588115 0
M  V30 1340 H 127.693 -1.59222 -1.1344 0
M  V30 1341 H 126.397 -2.90299 -2.90094 0
M  V30 1342 H 125.928 -1.38493 -3.68216 0
M  V30 1343 H 127.943 -0.955389 -4.86916 0
M  V30 1344 N 127.117 1.15442 -1.07289 0
M  V30 1345 C 128.047 2.22312 -0.714107 0
M  V30 1346 C 129.028 1.67467 0.298155 0
M  V30 1347 O 130.213 1.93445 0.171048 0
M  V30 1348 C 127.343 3.47124 -0.110448 0
M  V30 1349 C 126.297 4.14926 -1.04979 0
M  V30 1350 C 125.623 5.33807 -0.308924 0
M  V30 1351 C 126.923 4.64762 -2.38314 0
M  V30 1352 H 128.617 2.5258 -1.6076 0
M  V30 1353 H 126.163 1.21404 -0.77441 0
M  V30 1354 H 128.116 4.21124 0.152482 0
M  V30 1355 H 126.84 3.16187 0.81812 0
M  V30 1356 H 125.499 3.42866 -1.29764 0
M  V30 1357 H 125.147 4.99126 0.623084 0
M  V30 1358 H 124.847 5.80113 -0.935036 0
M  V30 1359 H 126.371 6.10576 -0.0537771 0
M  V30 1360 H 127.785 5.30292 -2.1786 0
M  V30 1361 H 126.182 5.21728 -2.96514 0
M  V30 1362 H 127.252 3.80434 -3.00663 0
M  V30 1363 N 128.595 0.856903 1.32268 0
M  V30 1364 C 129.525 0.31858 2.31316 0
M  V30 1365 C 130.506 -0.583487 1.59779 0
M  V30 1366 O 131.691 -0.503259 1.87566 0
M  V30 1367 C 128.821 -0.491979 3.43798 0
M  V30 1368 C 127.775 0.315849 4.26833 0
M  V30 1369 C 127.101 -0.619586 5.31098 0
M  V30 1370 C 128.401 1.54282 4.98993 0
M  V30 1371 H 130.095 1.14621 2.76591 0
M  V30 1372 H 127.641 0.552613 1.32974 0
M  V30 1373 H 129.594 -0.879012 4.1213 0
M  V30 1374 H 128.318 -1.35299 2.97257 0
M  V30 1375 H 126.977 0.684664 3.6015 0
M  V30 1376 H 126.625 -1.47751 4.8081 0
M  V30 1377 H 126.325 -0.0830621 5.87541 0
M  V30 1378 H 127.849 -1.00375 6.02293 0
M  V30 1379 H 129.263 1.22796 5.59995 0
M  V30 1380 H 127.66 2.01745 5.65172 0
M  V30 1381 H 128.73 2.30285 4.26728 0
M  V30 1382 N 130.073 -1.45103 0.615059 0
M  V30 1383 C 131.023 -2.27679 -0.120966 0
M  V30 1384 C 132.007 -1.3775 -0.831491 0
M  V30 1385 O 133.199 -1.61683 -0.720249 0
M  V30 1386 C 130.328 -3.24767 -1.1127 0
M  V30 1387 C 129.414 -4.22184 -0.402627 0
M  V30 1388 N 129.805 -5.02692 0.559884 0
M  V30 1389 C 128.103 -4.4125 -0.649202 0
M  V30 1390 C 128.804 -5.73421 0.977942 0
M  V30 1391 N 127.78 -5.42657 0.320104 0
M  V30 1392 H 131.582 -2.87325 0.618181 0
M  V30 1393 H 129.096 -1.56345 0.439304 0
M  V30 1394 H 131.093 -3.82666 -1.65446 0
M  V30 1395 H 129.753 -2.66682 -1.85232 0
M  V30 1396 H 130.764 -5.09354 0.936976 0
M  V30 1397 H 127.441 -3.9428 -1.37293 0
M  V30 1398 H 128.831 -6.48107 1.77222 0
M  V30 1399 N 131.551 -0.354651 -1.53558 0
M  V30 1400 C 132.498 0.496968 -2.25386 0
M  V30 1401 C 133.468 1.0865 -1.25636 0
M  V30 1402 O 134.653 1.12104 -1.54394 0
M  V30 1403 C 131.793 1.63637 -3.03837 0
M  V30 1404 C 130.906 1.07307 -4.18461 0
M  V30 1405 C 130.041 2.18068 -4.84376 0
M  V30 1406 C 129.08 1.59147 -5.91049 0
M  V30 1407 N 128.217 2.63695 -6.50699 0
M  V30 1408 H 133.057 -0.122075 -2.9775 0
M  V30 1409 H 130.594 -0.0720154 -1.46924 0
M  V30 1410 H 132.552 2.30734 -3.47589 0
M  V30 1411 H 131.182 2.22623 -2.33749 0
M  V30 1412 H 130.234 0.292708 -3.79272 0
M  V30 1413 H 131.546 0.602193 -4.95152 0
M  V30 1414 H 130.7 2.93007 -5.31255 0
M  V30 1415 H 129.439 2.68504 -4.07133 0
M  V30 1416 H 128.444 0.827175 -5.43542 0
M  V30 1417 H 129.669 1.09549 -6.70206 0
M  V30 1418 H 127.615 3.13365 -5.76315 0
M  V30 1419 H 127.532 2.21263 -7.22896 0
M  V30 1420 H 128.8 3.3837 -7.02229 0
M  V30 1421 N 133.029 1.57378 -0.0835403 0
M  V30 1422 C 134.275 1.94217 0.583733 0
M  V30 1423 C 134.608 0.964653 1.68547 0
M  V30 1424 O 133.883 -0.00422258 1.945 0
M  V30 1425 C 134.166 3.41253 1.14972 0
M  V30 1426 C 134.019 4.49768 0.0538277 0
M  V30 1427 C 135.338 3.89352 2.05166 0
M  V30 1428 H 132.457 0.706233 0.210724 0
M  V30 1429 H 135.099 1.89392 -0.1519 0
M  V30 1430 H 133.249 3.45496 1.77665 0
M  V30 1431 H 134.921 4.57641 -0.579851 0
M  V30 1432 H 133.164 4.29432 -0.614068 0
M  V30 1433 H 133.835 5.49817 0.490452 0
M  V30 1434 H 136.311 3.87189 1.52393 0
M  V30 1435 H 135.187 4.92822 2.41698 0
M  V30 1436 H 135.448 3.27973 2.96456 0
M  V30 1437 N 134.507 -0.190092 1.56449 0
M  V30 1438 C 135.747 -0.916414 1.82705 0
M  V30 1439 C 136.111 -1.80235 0.661763 0
M  V30 1440 O 137.312 -2.56484 0.80433 0
M  V30 1441 C 135.583 -1.70691 3.14005 0
M  V30 1442 S 137.142 -2.48457 3.61683 0
M  V30 1443 H 133.96 -0.307281 0.64117 0
M  V30 1444 H 136.562 -0.179433 1.94675 0
M  V30 1445 H 135.266 -1.04677 3.96826 0
M  V30 1446 H 134.797 -2.48562 3.04927 0
M  V30 1447 H 136.812 -3.72756 3.27517 0
M  V30 1448 N 135.985 -1.50799 -0.457987 0
M  V30 1449 C 137.262 -1.52968 -1.21902 0
M  V30 1450 C 137.642 -0.281906 -2.09209 0
M  V30 1451 O 136.99 0.734076 -2.16388 0
M  V30 1452 C 137.2 -2.8326 -2.03875 0
M  V30 1453 C 138.548 -3.34425 -2.6162 0
M  V30 1454 O 139.572 -2.8467 -2.14106 0
M  V30 1455 O 138.431 -4.21188 -3.48228 0
M  V30 1456 H 135.525 -0.614129 -0.553873 0
M  V30 1457 H 138.071 -1.63098 -0.468739 0
M  V30 1458 H 136.843 -3.65543 -1.39621 0
M  V30 1459 H 136.466 -2.76195 -2.8601 0
M  V30 1460 N 137.463 0.71206 -1.40597 0
M  V30 1461 C 138.691 1.50111 -1.42388 0
M  V30 1462 C 139.106 1.88784 -0.0245395 0
M  V30 1463 O 138.463 1.55681 0.952351 0
M  V30 1464 C 138.514 2.7742 -2.31776 0
M  V30 1465 O 138.235 2.40382 -3.66262 0
M  V30 1466 C 139.736 3.7129 -2.42196 0
M  V30 1467 H 136.956 0.46314 -0.485533 0
M  V30 1468 H 139.5 0.878068 -1.8469 0
M  V30 1469 H 137.655 3.36001 -1.92827 0
M  V30 1470 H 138.069 3.22324 -4.13772 0
M  V30 1471 H 139.543 4.57448 -3.08943 0
M  V30 1472 H 140.02 4.14641 -1.44809 0
M  V30 1473 H 140.626 3.18619 -2.81712 0
M  V30 1474 N 138.941 1.26152 0.944643 0
M  V30 1475 C 140.189 1.11271 1.6871 0
M  V30 1476 C 140.51 -0.345166 1.91921 0
M  V30 1477 O 139.78 -1.24387 1.51343 0
M  V30 1478 H 138.36 0.408783 0.625224 0
M  V30 1479 H 141.022 1.58427 1.1352 0
M  V30 1480 H 140.118 1.62879 2.66227 0
M  V30 1481 N 140.419 -1.14872 1.07899 0
M  V30 1482 C 141.366 -2.19791 0.704319 0
M  V30 1483 C 142.336 -1.63238 -0.306987 0
M  V30 1484 O 143.521 -1.8983 -0.192171 0
M  V30 1485 C 140.661 -3.44911 0.114244 0
M  V30 1486 C 139.774 -4.15637 1.1777 0
M  V30 1487 C 138.909 -5.28324 0.552037 0
M  V30 1488 C 137.948 -5.90875 1.59789 0
M  V30 1489 N 137.085 -6.95022 0.994404 0
M  V30 1490 H 141.925 -2.5119 1.60336 0
M  V30 1491 H 139.462 -1.23356 0.801352 0
M  V30 1492 H 141.42 -4.16477 -0.245544 0
M  V30 1493 H 140.05 -3.14011 -0.74813 0
M  V30 1494 H 139.102 -3.42512 1.65499 0
M  V30 1495 H 140.414 -4.5823 1.97046 0
M  V30 1496 H 139.568 -6.06538 0.1402 0
M  V30 1497 H 138.307 -4.86939 -0.272431 0
M  V30 1498 H 137.312 -5.11369 2.01945 0
M  V30 1499 H 138.537 -6.34337 2.42474 0
M  V30 1500 H 136.483 -6.55722 0.190939 0
M  V30 1501 H 136.4 -7.36073 1.72432 0
M  V30 1502 H 137.668 -7.77123 0.608253 0
M  V30 1503 N 141.898 -0.863906 -1.31812 0
M  V30 1504 C 142.861 -0.320212 -2.26952 0
M  V30 1505 C 143.861 0.525369 -1.51975 0
M  V30 1506 O 145.051 0.335547 -1.70938 0
M  V30 1507 C 142.183 0.545919 -3.365 0
M  V30 1508 H 143.376 -1.16004 -2.76556 0
M  V30 1509 H 140.929 -0.638995 -1.42641 0
M  V30 1510 H 141.664 1.40718 -2.92179 0
M  V30 1511 H 141.449 -0.0594674 -3.92055 0
M  V30 1512 H 142.939 0.918796 -4.07367 0
M  V30 1513 N 143.376 1.44774 -0.622745 0
M  V30 1514 C 144.306 2.33382 0.0741861 0
M  V30 1515 C 145.287 1.47719 0.843387 0
M  V30 1516 O 146.472 1.76458 0.810934 0
M  V30 1517 C 143.602 3.30663 1.06204 0
M  V30 1518 C 142.556 4.26079 0.405037 0
M  V30 1519 C 141.882 5.13165 1.5022 0
M  V30 1520 C 143.182 5.1781 -0.683414 0
M  V30 1521 H 144.876 2.91905 -0.665713 0
M  V30 1522 H 142.422 1.40363 -0.321587 0
M  V30 1523 H 144.375 3.9153 1.55827 0
M  V30 1524 H 143.099 2.70331 1.83272 0
M  V30 1525 H 141.758 3.66532 -0.0704683 0
M  V30 1526 H 141.406 4.49191 2.26355 0
M  V30 1527 H 141.106 5.77812 1.06803 0
M  V30 1528 H 142.63 5.76902 2.00041 0
M  V30 1529 H 144.044 5.72661 -0.270631 0
M  V30 1530 H 142.441 5.91015 -1.04023 0
M  V30 1531 H 143.511 4.59326 -1.55395 0
M  V30 1532 N 144.854 0.36279 1.53368 0
M  V30 1533 C 146.1 -0.228113 2.01513 0
M  V30 1534 C 146.433 -1.48648 1.2497 0
M  V30 1535 O 145.708 -1.91459 0.342616 0
M  V30 1536 C 145.991 -0.522884 3.56284 0
M  V30 1537 C 145.844 0.74892 4.43521 0
M  V30 1538 C 147.163 -1.32461 4.19693 0
M  V30 1539 H 144.282 -0.0814343 0.732487 0
M  V30 1540 H 146.924 0.48713 1.83649 0
M  V30 1541 H 145.074 -1.1322 3.71636 0
M  V30 1542 H 146.746 1.38648 4.39971 0
M  V30 1543 H 144.989 1.36986 4.11603 0
M  V30 1544 H 145.66 0.497667 5.49752 0
M  V30 1545 H 148.136 -0.809203 4.08156 0
M  V30 1546 H 147.012 -1.49961 5.28018 0
M  V30 1547 H 147.273 -2.33232 3.75573 0
M  V30 1548 N 146.332 -1.57332 0.0918853 0
M  V30 1549 C 147.295 -2.12708 -0.85369 0
M  V30 1550 C 148.295 -1.05561 -1.213 0
M  V30 1551 O 149.485 -1.31461 -1.14296 0
M  V30 1552 C 146.617 -2.64503 -2.15061 0
M  V30 1553 H 147.81 -2.97573 -0.3729 0
M  V30 1554 H 145.363 -1.55509 -0.157072 0
M  V30 1555 H 146.098 -1.83149 -2.67632 0
M  V30 1556 H 145.883 -3.4284 -1.90272 0
M  V30 1557 H 147.373 -3.07351 -2.82711 0
M  V30 1558 N 147.81 0.181792 -1.56548 0
M  V30 1559 C 149.056 0.901431 -1.81665 0
M  V30 1560 C 149.389 1.82347 -0.668075 0
M  V30 1561 O 148.664 1.91669 0.330615 0
M  V30 1562 C 148.947 1.70618 -3.17115 0
M  V30 1563 C 148.8 0.807964 -4.42484 0
M  V30 1564 C 150.119 2.67605 -3.49393 0
M  V30 1565 H 147.238 0.32627 -0.660846 0
M  V30 1566 H 149.88 0.168134 -1.89255 0
M  V30 1567 H 148.03 2.33133 -3.10775 0
M  V30 1568 H 149.702 0.19649 -4.60881 0
M  V30 1569 H 147.945 0.115411 -4.33646 0
M  V30 1570 H 148.616 1.40632 -5.33785 0
M  V30 1571 H 151.092 2.15218 -3.56118 0
M  V30 1572 H 149.968 3.20985 -4.45264 0
M  V30 1573 H 150.229 3.47298 -2.73563 0
M  V30 1574 N 149.288 1.51039 0.449983 0
M  V30 1575 C 150.534 1.63322 1.20223 0
M  V30 1576 C 150.867 0.34241 1.91158 0
M  V30 1577 O 150.142 -0.657344 1.83055 0
M  V30 1578 C 150.425 2.82801 2.22925 0
M  V30 1579 C 150.278 4.21823 1.56157 0
M  V30 1580 C 151.597 2.97807 3.24035 0
M  V30 1581 H 148.716 0.594407 0.435718 0
M  V30 1582 H 151.358 1.83489 0.493136 0
M  V30 1583 H 149.508 2.65738 2.834 0
M  V30 1584 H 151.18 4.50526 0.991162 0
M  V30 1585 H 149.423 4.25105 0.864172 0
M  V30 1586 H 150.094 5.01391 2.30891 0
M  V30 1587 H 152.57 3.13497 2.73603 0
M  V30 1588 H 151.446 3.82992 3.93202 0
M  V30 1589 H 151.707 2.09328 3.89402 0
M  V30 1590 N 150.766 -0.704594 1.40972 0
M  V30 1591 C 151.729 -1.80035 1.41845 0
M  V30 1592 C 152.729 -1.57774 0.310474 0
M  V30 1593 O 153.919 -1.64613 0.56992 0
M  V30 1594 C 151.051 -3.18284 1.22098 0
M  V30 1595 H 152.244 -1.80658 2.3938 0
M  V30 1596 H 149.797 -0.911329 1.26982 0
M  V30 1597 H 150.532 -3.23306 0.253672 0
M  V30 1598 H 150.317 -3.35843 2.02366 0
M  V30 1599 H 151.807 -3.98289 1.25522 0
M  V30 1600 N 152.244 -1.26651 -0.937939 0
M  V30 1601 C 153.492 -1.12165 -1.68118 0
M  V30 1602 C 153.813 0.334983 -1.92101 0
M  V30 1603 O 153.083 1.23583 -1.52 0
M  V30 1604 H 151.663 -0.412093 -0.623048 0
M  V30 1605 H 154.325 -1.59027 -1.12678 0
M  V30 1606 H 153.421 -1.64289 -2.6536 0
M  V30 1607 N 153.722 1.14298 -1.08507 0
M  V30 1608 C 154.67 2.21483 -0.710483 0
M  V30 1609 C 155.664 1.66998 0.284234 0
M  V30 1610 O 156.87 1.79401 0.146692 0
M  V30 1611 H 153.245 0.721578 -0.211729 0
M  V30 1612 H 155.216 2.50348 -1.62384 0
M  V30 1613 C 153.965 3.4743 -0.137007 0
M  V30 1614 H 153.288 3.89686 -0.893592 0
M  V30 1615 H 154.728 4.2391 0.0872789 0
M  V30 1616 C 153.187 3.17548 1.12538 0
M  V30 1617 O 153.717 3.35437 2.21009 0
M  V30 1618 N 151.923 2.71499 1.03617 0
M  V30 1619 H 151.47 2.57143 0.153403 0
M  V30 1620 H 151.428 2.51881 1.88158 0
M  V30 1621 N 155.201 0.870884 1.31352 0
M  V30 1622 C 156.426 0.495957 2.01383 0
M  V30 1623 C 156.851 -0.904324 1.64935 0
M  V30 1624 O 156.209 -1.59687 0.858466 0
M  V30 1625 C 156.257 0.661433 3.54482 0
M  V30 1626 O 155.361 -0.298851 4.11316 0
M  V30 1627 H 154.702 0.197158 0.634054 0
M  V30 1628 H 157.232 1.17455 1.67527 0
M  V30 1629 H 157.242 0.555072 4.04207 0
M  V30 1630 H 155.917 1.68246 3.8035 0
M  V30 1631 H 154.494 -0.147368 3.72609 0
M  V30 1632 N 156.679 -1.44442 0.630414 0
M  V30 1633 C 157.907 -2.06414 0.141671 0
M  V30 1634 C 158.322 -1.47105 -1.18345 0
M  V30 1635 O 157.679 -0.593662 -1.72574 0
M  V30 1636 C 157.73 -3.61494 0.0199784 0
M  V30 1637 O 157.451 -4.18594 1.29269 0
M  V30 1638 C 158.952 -4.40499 -0.497544 0
M  V30 1639 H 156.172 -0.666292 0.0793452 0
M  V30 1640 H 158.716 -1.85323 0.864614 0
M  V30 1641 H 156.871 -3.8185 -0.653402 0
M  V30 1642 H 157.285 -5.12026 1.13707 0
M  V30 1643 H 158.759 -5.49433 -0.531708 0
M  V30 1644 H 159.236 -4.11895 -1.52445 0
M  V30 1645 H 159.842 -4.25061 0.142562 0
M  V30 1646 N 158.157 -0.370918 -1.53173 0
M  V30 1647 C 159.385 0.217704 -2.05751 0
M  V30 1648 C 159.8 1.42018 -1.24404 0
M  V30 1649 O 159.157 1.80245 -0.286033 0
M  V30 1650 C 159.208 0.605954 -3.56385 0
M  V30 1651 O 158.929 -0.548734 -4.3465 0
M  V30 1652 C 160.43 1.2524 -4.25241 0
M  V30 1653 H 157.65 0.0371659 -0.66997 0
M  V30 1654 H 160.194 -0.530832 -1.9749 0
M  V30 1655 H 158.349 1.3044 -3.6478 0
M  V30 1656 H 158.763 -0.23376 -5.23979 0
M  V30 1657 H 160.237 1.47458 -5.3194 0
M  V30 1658 H 160.714 2.2143 -3.79296 0
M  V30 1659 H 161.32 0.595233 -4.21114 0
M  V30 1660 N 159.635 1.57281 -0.100228 0
M  V30 1661 C 161.046 1.81725 0.428107 0
M  V30 1662 C 161.397 1.01619 1.67833 0
M  V30 1663 O 160.522 0.247098 2.14985 0
M  V30 1664 C 161.117 3.29617 0.78347 0
M  V30 1665 C 159.676 3.54808 1.25653 0
M  V30 1666 C 158.823 2.76118 0.255752 0
M  V30 1667 H 161.774 1.55324 -0.325608 0
M  V30 1668 H 161.795 3.4322 1.64256 0
M  V30 1669 H 161.307 3.87893 -0.12665 0
M  V30 1670 H 159.408 3.01868 2.18418 0
M  V30 1671 H 159.521 4.63443 1.21482 0
M  V30 1672 H 157.885 2.43745 0.738956 0
M  V30 1673 H 158.668 3.37145 -0.647136 0
M  V30 1674 N 161.113 -0.173488 1.56642 0
M  V30 1675 C 162.529 -0.525174 1.50712 0
M  V30 1676 C 162.729 -1.8476 0.804107 0
M  V30 1677 O 161.785 -2.49869 0.363574 0
M  V30 1678 C 163.098 -0.559937 2.95441 0
M  V30 1679 C 164.646 -0.647288 3.06234 0
M  V30 1680 C 165.121 -0.712963 4.52417 0
M  V30 1681 N 166.612 -0.775911 4.56655 0
M  V30 1682 C 167.347 -0.847264 5.67106 0
M  V30 1683 N 166.843 -0.879585 6.87194 0
M  V30 1684 N 168.636 -0.886117 5.55071 0
M  V30 1685 H 160.787 0.693681 2.00753 0
M  V30 1686 H 163.05 0.249841 0.914485 0
M  V30 1687 H 162.756 0.343049 3.50023 0
M  V30 1688 H 162.63 -1.40718 3.49969 0
M  V30 1689 H 165.017 -1.5407 2.51687 0
M  V30 1690 H 165.098 0.226586 2.54794 0
M  V30 1691 H 164.742 0.176183 5.07594 0
M  V30 1692 H 164.672 -1.60295 5.0161 0
M  V30 1693 H 167.163 -0.759304 3.70193 0
M  V30 1694 H 167.476 -0.935144 7.67121 0
M  V30 1695 H 165.821 -0.847898 6.89808 0
M  V30 1696 H 169.012 -0.857853 4.60172 0
M  V30 1697 H 169.185 -0.938263 6.41171 0
M  V30 1698 N 162.591 -1.51276 -0.441967 0
M  V30 1699 C 164.007 -1.39349 -0.778083 0
M  V30 1700 C 164.207 -0.472212 -1.95889 0
M  V30 1701 O 163.263 0.0743551 -2.5239 0
M  V30 1702 C 164.576 -2.81292 -1.0628 0
M  V30 1703 C 166.124 -2.9041 -1.16751 0
M  V30 1704 C 166.599 -4.33251 -1.48519 0
M  V30 1705 N 168.09 -4.36336 -1.55453 0
M  V30 1706 C 168.825 -5.43885 -1.81596 0
M  V30 1707 N 168.321 -6.61601 -2.05562 0
M  V30 1708 N 170.114 -5.3136 -1.8334 0
M  V30 1709 H 162.265 -2.09729 0.335774 0
M  V30 1710 H 164.528 -0.943925 0.0878028 0
M  V30 1711 H 164.234 -3.50678 -0.267905 0
M  V30 1712 H 164.108 -3.20334 -1.99163 0
M  V30 1713 H 166.495 -2.21225 -1.95304 0
M  V30 1714 H 166.576 -2.54871 -0.217801 0
M  V30 1715 H 166.22 -5.02984 -0.704958 0
M  V30 1716 H 166.15 -4.66299 -2.44689 0
M  V30 1717 H 168.641 -3.51466 -1.38853 0
M  V30 1718 H 168.954 -7.39361 -2.24867 0
M  V30 1719 H 167.299 -6.64725 -2.02894 0
M  V30 1720 H 170.49 -4.38382 -1.64132 0
M  V30 1721 H 170.663 -6.15258 -2.03377 0
M  V30 1722 N 164.069 0.697108 -1.41344 0
M  V30 1723 C 165.309 1.46939 -1.42085 0
M  V30 1724 C 165.673 1.9198 -0.0280397 0
M  V30 1725 O 166.874 2.6865 0.0897504 0
M  V30 1726 C 165.145 2.64985 -2.39828 0
M  V30 1727 S 166.704 3.54147 -2.59085 0
M  V30 1728 H 163.522 0.502146 -0.503359 0
M  V30 1729 H 166.124 0.813546 -1.77769 0
M  V30 1730 H 164.828 2.30098 -3.39828 0
M  V30 1731 H 164.359 3.35464 -2.05493 0
M  V30 1732 H 166.374 4.60137 -1.85711 0
M  V30 1733 N 165.547 1.27147 0.931209 0
M  V30 1734 C 166.51 1.09615 2.01289 0
M  V30 1735 C 167.51 0.0412581 1.60747 0
M  V30 1736 O 168.7 0.285545 1.71844 0
M  V30 1737 C 165.832 0.669447 3.34262 0
M  V30 1738 H 167.025 2.05662 2.18273 0
M  V30 1739 H 164.578 1.09885 1.11153 0
M  V30 1740 H 165.313 -0.292572 3.22978 0
M  V30 1741 H 165.098 1.43127 3.65044 0
M  V30 1742 H 166.588 0.568921 4.13706 0
M  V30 1743 N 167.025 -1.13721 1.09112 0
M  V30 1744 C 168.265 -1.86576 0.834801 0
M  V30 1745 C 168.629 -1.81435 -0.628122 0
M  V30 1746 O 169.83 -2.49497 -1.00024 0
M  V30 1747 C 168.101 -3.30872 1.35124 0
M  V30 1748 S 169.66 -4.21257 1.22832 0
M  V30 1749 H 166.478 -0.643666 0.302017 0
M  V30 1750 H 169.08 -1.37085 1.39385 0
M  V30 1751 H 167.784 -3.32166 2.41027 0
M  V30 1752 H 167.315 -3.85423 0.788185 0
M  V30 1753 H 169.33 -4.95884 0.177191 0
M  V30 1754 N 168.503 -0.877838 -1.30888 0
M  V30 1755 C 169.731 -0.507414 -2.00581 0
M  V30 1756 C 170.146 0.902216 -1.65848 0
M  V30 1757 O 169.503 1.59225 -0.891831 0
M  V30 1758 C 169.554 -0.664162 -3.55347 0
M  V30 1759 O 169.275 -2.01829 -3.8884 0
M  V30 1760 C 170.776 -0.295787 -4.42312 0
M  V30 1761 H 167.996 -0.196866 -0.641471 0
M  V30 1762 H 170.54 -1.18117 -1.66939 0
M  V30 1763 H 168.695 -0.0378619 -3.87381 0
M  V30 1764 H 169.109 -2.03174 -4.8355 0
M  V30 1765 H 170.583 -0.456388 -5.5011 0
M  V30 1766 H 171.06 0.765663 -4.32475 0
M  V30 1767 H 171.666 -0.898113 -4.15709 0
M  V30 1768 N 169.982 1.44106 -0.638065 0
M  V30 1769 C 170.945 2.29138 0.0531013 0
M  V30 1770 C 171.945 1.41409 0.765506 0
M  V30 1771 O 173.135 1.63206 0.609046 0
M  V30 1772 C 170.267 3.23144 1.08584 0
M  V30 1773 H 171.46 2.91739 -0.694883 0
M  V30 1774 H 169.013 1.51134 -0.398538 0
M  V30 1775 H 169.748 2.65408 1.86357 0
M  V30 1776 H 169.533 3.87804 0.578852 0
M  V30 1777 H 171.023 3.87004 1.56899 0
M  V30 1778 N 171.46 0.379036 1.52974 0
M  V30 1779 C 172.708 -0.206014 2.01047 0
M  V30 1780 C 173.029 -1.48175 1.26765 0
M  V30 1781 O 172.299 -1.92085 0.384743 0
M  V30 1782 H 170.879 -0.0791184 0.742798 0
M  V30 1783 H 173.541 0.508366 1.88153 0
M  V30 1784 H 172.637 -0.423501 3.09213 0
M  V30 1785 N 172.938 -1.57226 0.108567 0
M  V30 1786 C 174.168 -1.9889 -0.559142 0
M  V30 1787 C 174.576 -0.986889 -1.61422 0
M  V30 1788 O 173.919 0.0298705 -1.83676 0
M  V30 1789 C 173.981 -3.36952 -1.25315 0
M  V30 1790 C 173.645 -4.55679 -0.347248 0
M  V30 1791 C 174.642 -5.18281 0.409996 0
M  V30 1792 C 172.327 -5.0162 -0.261367 0
M  V30 1793 C 174.321 -6.25203 1.24096 0
M  V30 1794 C 172.008 -6.08405 0.573238 0
M  V30 1795 C 173.006 -6.70063 1.32304 0
M  V30 1796 O 172.694 -7.74788 2.14381 0
M  V30 1797 H 172.426 -0.658343 -0.153492 0
M  V30 1798 H 174.98 -2.04532 0.188584 0
M  V30 1799 H 173.21 -3.28032 -2.04773 0
M  V30 1800 H 174.899 -3.62974 -1.81673 0
M  V30 1801 H 175.665 -4.8371 0.353457 0
M  V30 1802 H 171.544 -4.53381 -0.834656 0
M  V30 1803 H 175.088 -6.73259 1.82669 0
M  V30 1804 H 170.985 -6.42406 0.631208 0
M  V30 1805 H 171.753 -7.91837 2.07209 0
M  V30 1806 N 174.416 0.165178 -1.56732 0
M  V30 1807 C 175.366 1.20917 -1.93295 0
M  V30 1808 C 176.35 1.39488 -0.801985 0
M  V30 1809 O 177.542 1.41356 -1.06525 0
M  V30 1810 C 174.671 2.54718 -2.3016 0
M  V30 1811 C 173.757 2.39815 -3.49785 0
M  V30 1812 N 174.148 1.94637 -4.66851 0
M  V30 1813 C 172.446 2.70623 -3.54513 0
M  V30 1814 C 173.147 1.92344 -5.4898 0
M  V30 1815 N 172.123 2.34978 -4.9019 0
M  V30 1816 H 175.925 0.851675 -2.81289 0
M  V30 1817 H 173.439 0.373399 -1.58049 0
M  V30 1818 H 175.436 3.30165 -2.54552 0
M  V30 1819 H 174.096 2.91265 -1.43508 0
M  V30 1820 H 175.107 1.6488 -4.90953 0
M  V30 1821 H 171.784 3.11167 -2.78354 0
M  V30 1822 H 173.174 1.5906 -6.52801 0
M  V30 1823 N 175.894 1.51508 0.433938 0
M  V30 1824 C 177.14 1.65549 1.18173 0
M  V30 1825 C 177.495 0.368751 1.88833 0
M  V30 1826 O 176.788 -0.635616 1.8075 0
M  V30 1827 C 176.982 2.79928 2.22205 0
M  V30 1828 C 176.811 4.19601 1.61756 0
M  V30 1829 C 175.581 4.85489 1.40101 0
M  V30 1830 C 177.779 5.02574 1.09194 0
M  V30 1831 N 175.761 6.09266 0.752859 0
M  V30 1832 C 177.132 6.17381 0.569255 0
M  V30 1833 C 179.187 4.88079 0.984025 0
M  V30 1834 C 177.89 7.19282 -0.0507472 0
M  V30 1835 C 179.916 5.90191 0.377912 0
M  V30 1836 C 179.278 7.04272 -0.134216 0
M  V30 1837 H 175.377 0.659653 0.419979 0
M  V30 1838 H 177.961 1.88746 0.477818 0
M  V30 1839 H 176.132 2.5839 2.89982 0
M  V30 1840 H 177.864 2.83132 2.89168 0
M  V30 1841 H 174.619 4.43417 1.66369 0
M  V30 1842 H 175.043 6.75528 0.446123 0
M  V30 1843 H 179.685 4.00131 1.36583 0
M  V30 1844 H 177.403 8.06876 -0.444676 0
M  V30 1845 H 180.989 5.81045 0.296269 0
M  V30 1846 H 179.869 7.81933 -0.59585 0
M  V30 1847 N 177.372 -0.689602 1.41712 0
M  V30 1848 C 178.597 -1.48329 1.44959 0
M  V30 1849 C 179.022 -1.8801 0.0581283 0
M  V30 1850 O 178.38 -1.55026 -0.940035 0
M  V30 1851 C 178.428 -2.71835 2.36935 0
M  V30 1852 O 177.532 -3.69549 1.8305 0
M  V30 1853 H 176.873 -0.446199 0.491734 0
M  V30 1854 H 179.403 -0.847127 1.86239 0
M  V30 1855 H 179.413 -3.20076 2.53013 0
M  V30 1856 H 178.088 -2.42291 3.38035 0
M  V30 1857 H 176.665 -3.2851 1.76452 0
M  V30 1858 N 178.85 -1.27639 -0.924453 0
M  V30 1859 C 179.782 -1.06442 -2.02985 0
M  V30 1860 C 180.795 -0.0194771 -1.62788 0
M  V30 1861 O 181.984 -0.261388 -1.76576 0
M  V30 1862 C 179.084 -0.59327 -3.33667 0
M  V30 1863 C 178.257 -1.71123 -4.02537 0
M  V30 1864 C 177.316 -1.23527 -5.11495 0
M  V30 1865 O 176.342 -1.93553 -5.35281 0
M  V30 1866 N 177.544 -0.0926678 -5.80426 0
M  V30 1867 H 180.309 -2.01633 -2.2173 0
M  V30 1868 H 177.87 -1.19248 -1.09505 0
M  V30 1869 H 179.862 -0.258686 -4.03872 0
M  V30 1870 H 178.432 0.265502 -3.1147 0
M  V30 1871 H 177.652 -2.21593 -3.26022 0
M  V30 1872 H 178.94 -2.46145 -4.45298 0
M  V30 1873 H 178.338 0.491741 -5.63559 0
M  V30 1874 H 176.895 0.182714 -6.51544 0
M  V30 1875 N 180.328 1.1314 -1.09713 0
M  V30 1876 C 181.605 1.80762 -0.747302 0
M  V30 1877 C 181.985 1.96663 0.767265 0
M  V30 1878 O 181.333 1.53706 1.69076 0
M  V30 1879 C 181.543 3.15606 -1.48975 0
M  V30 1880 C 182.891 3.90914 -1.65746 0
M  V30 1881 O 183.915 3.25239 -1.45251 0
M  V30 1882 O 182.774 5.08718 -1.9967 0
M  V30 1883 H 179.868 0.782103 -0.268782 0
M  V30 1884 H 182.414 1.20041 -1.19951 0
M  V30 1885 H 181.186 2.99278 -2.52088 0
M  V30 1886 H 180.809 3.84029 -1.02991 0
M  V30 1887 N 181.806 0.884767 1.30421 0
M  V30 1888 C 183.046 0.509806 1.9794 0
M  V30 1889 C 183.41 -0.923736 1.68319 0
M  V30 1890 O 184.611 -1.40481 2.29169 0
M  V30 1891 C 182.882 0.776732 3.48858 0
M  V30 1892 S 184.441 0.503843 4.35898 0
M  V30 1893 H 181.259 0.189699 0.685227 0
M  V30 1894 H 183.861 1.14399 1.58535 0
M  V30 1895 H 182.565 1.81857 3.67908 0
M  V30 1896 H 182.096 0.1301 3.93185 0
M  V30 1897 H 184.111 -0.657625 4.91823 0
M  V30 1898 N 183.284 -1.43765 0.645699 0
M  V30 1899 C 184.194 -2.34544 -0.0512957 0
M  V30 1900 C 185.21 -1.53455 -0.82022 0
M  V30 1901 O 186.386 -1.86133 -0.769176 0
M  V30 1902 C 183.451 -3.31636 -1.01087 0
M  V30 1903 C 182.512 -4.2863 -0.239712 0
M  V30 1904 C 181.745 -5.21084 -1.15358 0
M  V30 1905 O 181.968 -5.1779 -2.39269 0
M  V30 1906 O 180.902 -5.98593 -0.630038 0
M  V30 1907 H 184.728 -2.95624 0.695718 0
M  V30 1908 H 182.313 -1.43781 0.405882 0
M  V30 1909 H 184.195 -3.9136 -1.56254 0
M  V30 1910 H 182.87 -2.73069 -1.73824 0
M  V30 1911 H 181.777 -3.72408 0.355356 0
M  V30 1912 H 183.11 -4.90157 0.447936 0
M  V30 1913 N 184.763 -0.387143 -1.52771 0
M  V30 1914 C 186.003 0.195537 -2.03463 0
M  V30 1915 C 186.367 1.44222 -1.26744 0
M  V30 1916 O 187.568 2.10192 -1.67549 0
M  V30 1917 C 185.839 0.459097 -3.54439 0
M  V30 1918 S 187.398 1.01237 -4.26962 0
M  V30 1919 H 184.216 0.0552675 -0.708849 0
M  V30 1920 H 186.818 -0.534992 -1.88037 0
M  V30 1921 H 185.522 -0.455382 -4.07866 0
M  V30 1922 H 185.053 1.21811 -3.74066 0
M  V30 1923 H 187.068 2.29492 -4.39941 0
M  V30 1924 N 186.241 1.57166 -0.116904 0
M  V30 1925 C 187.481 1.97008 0.544715 0
M  V30 1926 C 187.845 0.998713 1.63981 0
M  V30 1927 O 189.046 1.28644 2.36018 0
M  V30 1928 C 187.317 3.41145 1.06559 0
M  V30 1929 S 188.876 4.02998 1.73603 0
M  V30 1930 H 185.694 0.688587 0.177112 0
M  V30 1931 H 188.296 1.94459 -0.201487 0
M  V30 1932 H 187 4.09592 0.257374 0
M  V30 1933 H 186.531 3.4734 1.84712 0
M  V30 1934 H 188.546 3.93585 3.02168 0
M  V30 1935 N 187.719 -0.156864 1.56817 0
M  V30 1936 C 189.135 -0.50916 1.5126 0
M  V30 1937 C 189.335 -1.83897 0.823658 0
M  V30 1938 O 188.391 -2.49469 0.390055 0
M  V30 1939 C 189.704 -0.52857 2.96018 0
M  V30 1940 C 191.252 -0.614771 3.06903 0
M  V30 1941 C 191.727 -0.664938 4.53147 0
M  V30 1942 N 193.218 -0.727433 4.57452 0
M  V30 1943 C 193.953 -0.787067 5.67973 0
M  V30 1944 N 193.449 -0.806649 6.88088 0
M  V30 1945 N 195.242 -0.827195 5.5598 0
M  V30 1946 H 187.393 0.714935 2.00006 0
M  V30 1947 H 189.656 0.259526 0.911784 0
M  V30 1948 H 189.362 0.380154 3.49639 0
M  V30 1949 H 189.236 -1.36998 3.51442 0
M  V30 1950 H 191.623 -1.51392 2.53307 0
M  V30 1951 H 191.704 0.253597 2.5454 0
M  V30 1952 H 191.348 0.230011 5.07379 0
M  V30 1953 H 191.278 -1.54966 5.03282 0
M  V30 1954 H 193.769 -0.719998 3.70978 0
M  V30 1955 H 194.082 -0.853727 7.6807 0
M  V30 1956 H 192.427 -0.774687 6.90669 0
M  V30 1957 H 195.618 -0.808998 4.61056 0
M  V30 1958 H 195.791 -0.870206 6.4213 0
M  V30 1959 N 189.197 -1.51736 -0.425897 0
M  V30 1960 C 190.613 -1.40166 -0.76326 0
M  V30 1961 C 190.813 -0.492962 -1.95377 0
M  V30 1962 O 189.869 0.0475815 -2.52455 0
M  V30 1963 C 191.182 -2.82403 -1.03291 0
M  V30 1964 C 192.73 -2.91632 -1.13665 0
M  V30 1965 C 193.205 -4.34801 -1.43916 0
M  V30 1966 N 194.696 -4.3796 -1.50816 0
M  V30 1967 C 195.431 -5.4578 -1.75817 0
M  V30 1968 N 194.927 -6.63744 -1.98534 0
M  V30 1969 N 196.72 -5.33274 -1.77694 0
M  V30 1970 H 188.871 -2.09361 0.358 0
M  V30 1971 H 191.134 -0.942941 0.0978094 0
M  V30 1972 H 190.84 -3.50943 -0.230696 0
M  V30 1973 H 190.714 -3.22428 -1.95754 0
M  V30 1974 H 193.101 -2.23284 -1.92947 0
M  V30 1975 H 193.182 -2.55088 -0.190756 0
M  V30 1976 H 192.826 -5.03703 -0.65157 0
M  V30 1977 H 192.756 -4.68868 -2.39729 0
M  V30 1978 H 195.247 -3.52919 -1.35118 0
M  V30 1979 H 195.56 -7.41704 -2.17013 0
M  V30 1980 H 193.905 -6.66839 -1.95832 0
M  V30 1981 H 197.096 -4.40098 -1.59473 0
M  V30 1982 H 197.269 -6.1738 -1.9684 0
M  V30 1983 N 190.675 0.682077 -1.42076 0
M  V30 1984 C 191.623 1.81707 -1.45208 0
M  V30 1985 C 192.617 1.66183 -0.328591 0
M  V30 1986 O 193.823 1.7288 -0.501264 0
M  V30 1987 H 190.198 0.599014 -0.454628 0
M  V30 1988 H 192.169 1.76183 -2.40836 0
M  V30 1989 C 190.918 3.19816 -1.36428 0
M  V30 1990 H 190.241 3.32385 -2.22171 0
M  V30 1991 H 191.681 3.99272 -1.42681 0
M  V30 1992 C 190.14 3.36809 -0.078191 0
M  V30 1993 O 190.67 3.92124 0.87188 0
M  V30 1994 N 188.876 2.906 0.00229266 0
M  V30 1995 H 188.423 2.45772 -0.771616 0
M  V30 1996 H 188.381 3.02347 0.862179 0
M  V30 1997 N 192.153 1.28127 0.917671 0
M  V30 1998 C 193.381 1.17892 1.70026 0
M  V30 1999 C 193.796 -0.262958 1.8696 0
M  V30 2000 O 193.153 -1.17811 1.3938 0
M  V30 2001 C 193.204 1.86872 3.09453 0
M  V30 2002 O 192.925 3.25428 2.93306 0
M  V30 2003 C 194.426 1.8289 4.03815 0
M  V30 2004 H 191.646 0.40942 0.531617 0
M  V30 2005 H 194.19 1.69181 1.14883 0
M  V30 2006 H 192.345 1.39464 3.61426 0
M  V30 2007 H 192.759 3.59918 3.81523 0
M  V30 2008 H 194.233 2.35751 4.99125 0
M  V30 2009 H 194.71 0.800412 4.31845 0
M  V30 2010 H 195.316 2.29959 3.57769 0
M  V30 2011 N 193.631 -1.12557 1.10312 0
M  V30 2012 C 194.541 -2.21841 0.763142 0
M  V30 2013 C 195.557 -1.72354 -0.238801 0
M  V30 2014 O 196.733 -2.01249 -0.0778746 0
M  V30 2015 C 193.798 -3.46131 0.198632 0
M  V30 2016 C 192.859 -4.10464 1.25769 0
M  V30 2017 C 192.092 -5.28821 0.72002 0
M  V30 2018 O 192.315 -5.6859 -0.453993 0
M  V30 2019 O 191.249 -5.83437 1.47935 0
M  V30 2020 H 195.075 -2.53312 1.67532 0
M  V30 2021 H 192.66 -1.20867 0.878157 0
M  V30 2022 H 194.542 -4.2125 -0.112401 0
M  V30 2023 H 193.217 -3.16338 -0.686419 0
M  V30 2024 H 192.124 -3.3713 1.62156 0
M  V30 2025 H 193.457 -4.44408 2.11571 0
M  V30 2026 N 195.109 -0.891671 -1.2995 0
M  V30 2027 C 196.349 -0.520296 -1.97667 0
M  V30 2028 C 196.713 0.914797 -1.68806 0
M  V30 2029 O 197.914 1.39263 -2.29911 0
M  V30 2030 C 196.185 -0.795222 -3.48441 0
M  V30 2031 S 197.744 -0.526953 -4.35624 0
M  V30 2032 H 194.562 -0.19333 -0.684211 0
M  V30 2033 H 197.164 -1.15238 -1.57926 0
M  V30 2034 H 195.868 -1.83805 -3.66938 0
M  V30 2035 H 195.399 -0.15095 -3.9311 0
M  V30 2036 H 197.414 0.631533 -4.92165 0
M  V30 2037 N 196.587 1.43421 -0.653314 0
M  V30 2038 C 197.55 2.29182 0.0287951 0
M  V30 2039 C 198.55 1.42213 0.750465 0
M  V30 2040 O 199.74 1.63843 0.591701 0
M  V30 2041 C 196.872 3.24278 1.05151 0
M  V30 2042 H 198.065 2.90985 -0.725786 0
M  V30 2043 H 195.618 1.50702 -0.414545 0
M  V30 2044 H 196.353 2.6737 1.83532 0
M  V30 2045 H 196.138 3.88396 0.537687 0
M  V30 2046 H 197.628 3.88647 1.52786 0
M  V30 2047 N 198.065 0.39524 1.52563 0
M  V30 2048 C 199.476 -0.0774719 1.86539 0
M  V30 2049 C 199.827 -1.45641 1.31466 0
M  V30 2050 O 198.952 -2.06459 0.648367 0
M  V30 2051 C 199.547 -0.147356 3.38479 0
M  V30 2052 C 198.106 -0.564373 3.72145 0
M  V30 2053 C 197.253 0.269919 2.75983 0
M  V30 2054 H 200.204 0.612876 1.46388 0
M  V30 2055 H 200.225 -0.965343 3.68051 0
M  V30 2056 H 199.737 0.856387 3.78534 0
M  V30 2057 H 197.838 -1.57527 3.37663 0
M  V30 2058 H 197.951 -0.318402 4.78041 0
M  V30 2059 H 196.315 -0.265696 2.5331 0
M  V30 2060 H 197.098 1.27175 3.18875 0
M  V30 2061 N 199.544 -1.57102 0.125237 0
M  V30 2062 C 200.792 -1.95021 -0.530198 0
M  V30 2063 C 201.113 -1.00982 -1.66816 0
M  V30 2064 O 200.383 -0.0672693 -1.95784 0
M  V30 2065 H 198.963 -0.720046 -0.198853 0
M  V30 2066 H 201.625 -1.93916 0.19564 0
M  V30 2067 H 200.721 -2.98211 -0.920681 0
M  V30 2068 N 201.022 0.148545 -1.56898 0
M  V30 2069 C 201.952 1.18524 -2.01182 0
M  V30 2070 C 202.933 1.4489 -0.891123 0
M  V30 2071 O 204.118 1.55836 -1.15882 0
M  V30 2072 C 201.248 2.51879 -2.39112 0
M  V30 2073 C 200.202 2.40038 -3.54353 0
M  V30 2074 C 199.528 3.78089 -3.78091 0
M  V30 2075 C 200.828 1.88577 -4.87069 0
M  V30 2076 H 202.522 0.817029 -2.88036 0
M  V30 2077 H 200.068 0.391575 -1.38574 0
M  V30 2078 H 202.021 3.24627 -2.68692 0
M  V30 2079 H 200.745 2.90532 -1.49193 0
M  V30 2080 H 199.404 1.69742 -3.24936 0
M  V30 2081 H 199.052 4.14175 -2.85426 0
M  V30 2082 H 198.752 3.71028 -4.55645 0
M  V30 2083 H 200.276 4.52387 -4.10095 0
M  V30 2084 H 201.69 2.51117 -5.15377 0
M  V30 2085 H 200.087 1.9241 -5.68417 0
M  V30 2086 H 201.157 0.84136 -4.77545 0
M  V30 2087 N 202.5 1.5196 0.417844 0
M  V30 2088 C 203.748 1.65263 1.16329 0
M  V30 2089 C 204.069 0.380634 1.91249 0
M  V30 2090 O 203.339 -0.604214 1.86349 0
M  V30 2091 H 201.919 0.60912 0.432414 0
M  V30 2092 H 204.581 1.88969 0.477162 0
M  V30 2093 H 203.677 2.4896 1.88217 0
M  V30 2094 N 203.978 -0.674533 1.42435 0
M  V30 2095 C 204.941 -1.76986 1.45632 0
M  V30 2096 C 205.941 -1.5708 0.343871 0
M  V30 2097 O 207.131 -1.63367 0.604709 0
M  V30 2098 C 204.263 -3.15623 1.28822 0
M  V30 2099 H 205.456 -1.75539 2.43158 0
M  V30 2100 H 203.009 -0.884189 1.28887 0
M  V30 2101 H 203.744 -3.22696 0.322193 0
M  V30 2102 H 203.529 -3.31475 2.09444 0
M  V30 2103 H 205.019 -3.95537 1.33942 0
M  V30 2104 N 205.456 -1.28612 -0.910864 0
M  V30 2105 C 206.388 -1.08589 -2.01844 0
M  V30 2106 C 207.401 -0.0367419 -1.62759 0
M  V30 2107 O 208.59 -0.280101 -1.76289 0
M  V30 2108 C 205.69 -0.628626 -3.33019 0
M  V30 2109 C 204.863 -1.75382 -4.00699 0
M  V30 2110 C 203.922 -1.28945 -5.10156 0
M  V30 2111 O 202.948 -1.9922 -5.33198 0
M  V30 2112 N 204.15 -0.154224 -5.80295 0
M  V30 2113 H 206.915 -2.03973 -2.19579 0
M  V30 2114 H 204.476 -1.20403 -1.08234 0
M  V30 2115 H 206.468 -0.301508 -4.03575 0
M  V30 2116 H 205.038 0.232451 -3.11735 0
M  V30 2117 H 204.258 -2.25039 -3.23653 0
M  V30 2118 H 205.546 -2.50854 -4.42662 0
M  V30 2119 H 204.944 0.43194 -5.64049 0
M  V30 2120 H 203.501 0.113599 -6.51701 0
M  V30 2121 N 206.934 1.1197 -1.10907 0
M  V30 2122 C 207.884 2.15946 -0.731538 0
M  V30 2123 C 208.868 1.58758 0.261699 0
M  V30 2124 O 210.06 1.76863 0.0696722 0
M  V30 2125 C 207.189 3.42877 -0.170299 0
M  V30 2126 C 206.275 4.07037 -1.19087 0
M  V30 2127 N 206.666 4.46135 -2.38322 0
M  V30 2128 C 204.964 4.33884 -1.03252 0
M  V30 2129 C 205.665 4.96331 -3.03366 0
M  V30 2130 N 204.641 4.9214 -2.30865 0
M  V30 2131 H 208.443 2.43947 -1.63912 0
M  V30 2132 H 205.957 1.28927 -0.987505 0
M  V30 2133 H 207.954 4.16732 0.118271 0
M  V30 2134 H 206.614 3.16343 0.731935 0
M  V30 2135 H 207.625 4.38345 -2.75815 0
M  V30 2136 H 204.302 4.17084 -0.186256 0
M  V30 2137 H 205.692 5.36257 -4.04818 0
M  V30 2138 N 208.412 0.89855 1.29475 0
M  V30 2139 C 209.823 0.572537 1.77705 0
M  V30 2140 C 210.174 -0.911778 1.73727 0
M  V30 2141 O 209.299 -1.71288 1.32247 0
M  V30 2142 C 209.894 1.03252 3.22683 0
M  V30 2143 C 208.453 0.757687 3.68695 0
M  V30 2144 C 207.6 1.20787 2.49612 0
M  V30 2145 H 210.551 1.08139 1.16153 0
M  V30 2146 H 210.572 0.367307 3.78723 0
M  V30 2147 H 210.084 2.11285 3.25546 0
M  V30 2148 H 208.185 -0.310079 3.71308 0
M  V30 2149 H 208.298 1.35476 4.59547 0
M  V30 2150 H 206.662 0.626888 2.46865 0
M  V30 2151 H 207.445 2.29622 2.55203 0
M  V30 2152 N 209.89 -1.43072 0.660911 0
M  V30 2153 C 210.82 -2.33497 -0.0122829 0
M  V30 2154 C 211.801 -1.49903 -0.803925 0
M  V30 2155 O 212.986 -1.78546 -0.763864 0
M  V30 2156 C 210.116 -3.33363 -0.973994 0
M  V30 2157 C 209.07 -4.27003 -0.291928 0
M  V30 2158 C 208.396 -5.16967 -1.36562 0
M  V30 2159 C 209.696 -5.15816 0.820462 0
M  V30 2160 H 211.39 -2.90038 0.742873 0
M  V30 2161 H 208.936 -1.39461 0.358688 0
M  V30 2162 H 210.889 -3.95524 -1.45392 0
M  V30 2163 H 209.613 -2.75095 -1.7604 0
M  V30 2164 H 208.272 -3.66217 0.167623 0
M  V30 2165 H 207.92 -4.55034 -2.14366 0
M  V30 2166 H 207.62 -5.80441 -0.914454 0
M  V30 2167 H 209.144 -5.82003 -1.84675 0
M  V30 2168 H 210.558 -5.71742 0.422366 0
M  V30 2169 H 208.955 -5.8805 1.19656 0
M  V30 2170 H 210.025 -4.55045 1.67518 0
M  V30 2171 N 211.368 -0.403325 -1.52352 0
M  V30 2172 C 212.3 0.4603 -2.2453 0
M  V30 2173 C 213.313 1.01505 -1.27282 0
M  V30 2174 O 214.502 0.914982 -1.53266 0
M  V30 2175 C 211.602 1.65208 -2.95905 0
M  V30 2176 C 210.775 1.22224 -4.19976 0
M  V30 2177 C 209.834 2.28028 -4.74226 0
M  V30 2178 O 208.86 1.88857 -5.36956 0
M  V30 2179 N 210.062 3.6012 -4.55295 0
M  V30 2180 H 212.827 -0.158156 -2.99282 0
M  V30 2181 H 210.388 -0.230402 -1.60252 0
M  V30 2182 H 212.38 2.35541 -3.29093 0
M  V30 2183 H 210.95 2.17658 -2.24374 0
M  V30 2184 H 210.17 0.34725 -3.92668 0
M  V30 2185 H 211.458 0.911924 -5.00561 0
M  V30 2186 H 210.856 3.94698 -4.05253 0
M  V30 2187 H 209.413 4.26447 -4.92936 0
M  V30 2188 N 212.846 1.57033 -0.133567 0
M  V30 2189 C 213.776 2.1909 0.807567 0
M  V30 2190 C 214.757 1.13517 1.26681 0
M  V30 2191 O 215.942 1.41809 1.32679 0
M  V30 2192 C 213.072 2.80188 2.05212 0
M  V30 2193 C 212.026 3.91471 1.73015 0
M  V30 2194 C 211.352 4.39443 3.04622 0
M  V30 2195 C 212.652 5.12886 0.987168 0
M  V30 2196 H 214.346 2.97988 0.290403 0
M  V30 2197 H 211.892 1.43335 0.138239 0
M  V30 2198 H 213.845 3.22264 2.71521 0
M  V30 2199 H 212.569 1.98601 2.59278 0
M  V30 2200 H 211.228 3.49993 1.0909 0
M  V30 2201 H 210.876 3.54695 3.56651 0
M  V30 2202 H 210.576 5.14495 2.83847 0
M  V30 2203 H 212.1 4.8418 3.72024 0
M  V30 2204 H 213.514 5.51891 1.55208 0
M  V30 2205 H 211.911 5.93615 0.87985 0
M  V30 2206 H 212.981 4.84894 -0.0235286 0
M  V30 2207 N 214.325 -0.140222 1.56975 0
M  V30 2208 C 215.273 -1.19207 1.99731 0
M  V30 2209 C 216.267 -1.44089 0.890777 0
M  V30 2210 O 217.473 -1.44301 1.07597 0
M  V30 2211 H 213.848 -0.40142 0.635898 0
M  V30 2212 H 215.819 -0.804813 2.87342 0
M  V30 2213 C 214.568 -2.51617 2.39967 0
M  V30 2214 H 213.891 -2.33303 3.24669 0
M  V30 2215 H 215.331 -3.23827 2.73701 0
M  V30 2216 C 213.79 -3.12654 1.25496 0
M  V30 2217 O 214.32 -3.97786 0.559371 0
M  V30 2218 N 212.526 -2.72206 1.01746 0
M  V30 2219 H 212.073 -2.03074 1.58489 0
M  V30 2220 H 212.031 -3.13377 0.253461 0
M  V30 2221 N 215.803 -1.52179 -0.40978 0
M  V30 2222 C 216.75 -1.75475 -1.49924 0
M  V30 2223 C 217.72 -0.597175 -1.54994 0
M  V30 2224 O 218.905 -0.834655 -1.71575 0
M  V30 2225 C 216.045 -1.9107 -2.87378 0
M  V30 2226 C 215.158 -3.18717 -2.91622 0
M  V30 2227 C 214.293 -3.24747 -4.20372 0
M  V30 2228 C 213.332 -4.46598 -4.18588 0
M  V30 2229 N 212.469 -4.50025 -5.38908 0
M  V30 2230 H 217.309 -2.68458 -1.29361 0
M  V30 2231 H 214.846 -1.33024 -0.627934 0
M  V30 2232 H 216.804 -1.98096 -3.6717 0
M  V30 2233 H 215.434 -1.01469 -3.06437 0
M  V30 2234 H 214.486 -3.20866 -2.04326 0
M  V30 2235 H 215.798 -4.08544 -2.86169 0
M  V30 2236 H 214.952 -3.30841 -5.08556 0
M  V30 2237 H 213.691 -2.32857 -4.28519 0
M  V30 2238 H 212.696 -4.40652 -3.28794 0
M  V30 2239 H 213.921 -5.39783 -4.12081 0
M  V30 2240 H 211.867 -3.61017 -5.47725 0
M  V30 2241 H 211.784 -5.33697 -5.35447 0
M  V30 2242 H 213.052 -4.60347 -6.29048 0
M  V30 2243 N 217.281 0.66697 -1.42791 0
M  V30 2244 C 218.558 1.4234 -1.34159 0
M  V30 2245 C 218.938 2.11093 0.0172729 0
M  V30 2246 O 218.286 2.03808 1.03318 0
M  V30 2247 C 218.496 2.41942 -2.51526 0
M  V30 2248 C 219.844 3.06353 -2.93995 0
M  V30 2249 O 220.868 2.52269 -2.51473 0
M  V30 2250 O 219.727 4.04376 -3.67617 0
M  V30 2251 H 216.821 0.635277 -0.529483 0
M  V30 2252 H 219.367 0.695034 -1.54814 0
M  V30 2253 H 218.139 1.89991 -3.42081 0
M  V30 2254 H 217.762 3.22249 -2.32898 0
M  V30 2255 N 218.759 1.29093 0.90403 0
M  V30 2256 C 219.987 1.19689 1.68766 0
M  V30 2257 C 220.402 -0.243113 1.87228 0
M  V30 2258 O 219.759 -1.16326 1.40621 0
M  V30 2259 C 219.81 1.90144 3.07453 0
M  V30 2260 O 219.531 3.2852 2.89838 0
M  V30 2261 C 221.032 1.87162 4.01852 0
M  V30 2262 H 218.252 0.415035 0.527244 0
M  V30 2263 H 220.796 1.7039 1.13082 0
M  V30 2264 H 218.951 1.43289 3.59926 0
M  V30 2265 H 219.365 3.63944 3.77684 0
M  V30 2266 H 220.839 2.41032 4.96596 0
M  V30 2267 H 221.316 0.84617 4.30972 0
M  V30 2268 H 221.922 2.33741 3.5531 0
M  V30 2269 N 220.237 -1.11381 1.11499 0
M  V30 2270 C 221.483 -1.83403 0.865512 0
M  V30 2271 C 221.816 -1.84459 -0.607329 0
M  V30 2272 O 221.091 -1.29811 -1.44842 0
M  V30 2273 C 221.374 -3.30552 1.42855 0
M  V30 2274 C 221.227 -3.37886 2.96906 0
M  V30 2275 C 222.546 -4.26643 1.08 0
M  V30 2276 H 219.665 -0.665879 0.31587 0
M  V30 2277 H 222.307 -1.30601 1.37998 0
M  V30 2278 H 220.457 -3.75648 0.990985 0
M  V30 2279 H 222.129 -3.01343 3.49271 0
M  V30 2280 H 220.372 -2.78088 3.32941 0
M  V30 2281 H 221.043 -4.41458 3.31389 0
M  V30 2282 H 223.519 -3.89729 1.45775 0
M  V30 2283 H 222.395 -5.27986 1.50072 0
M  V30 2284 H 222.656 -4.42099 -0.00915037 0
M  V30 2285 N 221.715 -0.905404 -1.28997 0
M  V30 2286 C 222.955 -0.541232 -1.97104 0
M  V30 2287 C 223.319 0.896841 -1.69767 0
M  V30 2288 O 224.52 1.36817 -2.31375 0
M  V30 2289 C 222.791 -0.832134 -3.47578 0
M  V30 2290 S 224.35 -0.573127 -4.35041 0
M  V30 2291 H 221.168 -0.200576 -0.682122 0
M  V30 2292 H 223.77 -1.16906 -1.56694 0
M  V30 2293 H 222.474 -1.87687 -3.64968 0
M  V30 2294 H 222.005 -0.192636 -3.92928 0
M  V30 2295 H 224.02 0.579297 -4.92807 0
M  V30 2296 N 223.193 1.4272 -0.668489 0
M  V30 2297 C 224.14 2.30796 0.0137489 0
M  V30 2298 C 225.11 1.4561 0.799177 0
M  V30 2299 O 226.295 1.74453 0.772702 0
M  V30 2300 C 223.435 3.31377 0.963507 0
M  V30 2301 C 222.548 4.31655 0.172569 0
M  V30 2302 C 221.683 5.19312 1.1175 0
M  V30 2303 C 220.722 6.11274 0.317886 0
M  V30 2304 N 219.859 6.91504 1.2152 0
M  V30 2305 H 224.699 2.88585 -0.743161 0
M  V30 2306 H 222.236 1.42154 -0.378226 0
M  V30 2307 H 224.194 3.88214 1.52792 0
M  V30 2308 H 222.824 2.75202 1.68712 0
M  V30 2309 H 221.876 3.76988 -0.508374 0
M  V30 2310 H 223.188 4.96779 -0.448527 0
M  V30 2311 H 222.342 5.80851 1.75206 0
M  V30 2312 H 221.081 4.5435 1.77249 0
M  V30 2313 H 220.086 5.48809 -0.329918 0
M  V30 2314 H 221.311 6.78283 -0.332917 0
M  V30 2315 H 219.257 6.29176 1.85671 0
M  V30 2316 H 219.174 7.53209 0.649036 0
M  V30 2317 H 220.442 7.57535 1.83742 0
M  V30 2318 N 224.671 0.411399 1.52136 0
M  V30 2319 C 226.082 -0.0576826 1.86611 0
M  V30 2320 C 226.433 -1.44238 1.33003 0
M  V30 2321 O 225.558 -2.05759 0.670228 0
M  V30 2322 C 226.153 -0.111448 3.38617 0
M  V30 2323 C 224.712 -0.52487 3.72723 0
M  V30 2324 C 223.859 0.299176 2.75681 0
M  V30 2325 H 226.81 0.628368 1.4573 0
M  V30 2326 H 226.831 -0.926252 3.69054 0
M  V30 2327 H 226.343 0.896488 3.77604 0
M  V30 2328 H 224.444 -1.53936 3.39315 0
M  V30 2329 H 224.557 -0.267681 4.78352 0
M  V30 2330 H 222.921 -0.238814 2.53578 0
M  V30 2331 H 223.704 1.3055 3.17508 0
M  V30 2332 N 226.149 -1.5696 0.141893 0
M  V30 2333 C 227.389 -1.9785 -0.513304 0
M  V30 2334 C 227.753 -1.02467 -1.62371 0
M  V30 2335 O 228.954 -1.32382 -2.33941 0
M  V30 2336 C 227.225 -3.42797 -1.01118 0
M  V30 2337 S 228.784 -4.05709 -1.67169 0
M  V30 2338 H 225.602 -0.691318 -0.166135 0
M  V30 2339 H 228.204 -1.94114 0.232398 0
M  V30 2340 H 226.908 -4.0995 -0.192179 0
M  V30 2341 H 226.439 -3.50235 -1.79162 0
M  V30 2342 H 228.454 -3.98342 -2.95868 0
M  V30 2343 N 227.627 0.131896 -1.57047 0
M  V30 2344 C 228.557 1.16384 -2.02428 0
M  V30 2345 C 229.538 1.43936 -0.90644 0
M  V30 2346 O 230.723 1.54599 -1.17528 0
M  V30 2347 C 227.853 2.49328 -2.4177 0
M  V30 2348 C 226.807 2.36266 -3.56879 0
M  V30 2349 C 226.133 3.74057 -3.8208 0
M  V30 2350 C 227.433 1.834 -4.89042 0
M  V30 2351 H 229.127 0.786433 -2.88887 0
M  V30 2352 H 226.673 0.376855 -1.38981 0
M  V30 2353 H 228.626 3.21759 -2.7212 0
M  V30 2354 H 227.35 2.88934 -1.52266 0
M  V30 2355 H 226.009 1.66286 -3.26718 0
M  V30 2356 H 225.657 4.11125 -2.89803 0
M  V30 2357 H 225.357 3.66174 -4.59554 0
M  V30 2358 H 226.881 4.48012 -4.1487 0
M  V30 2359 H 228.295 2.45636 -5.18011 0
M  V30 2360 H 226.692 1.8637 -5.70426 0
M  V30 2361 H 227.762 0.790662 -4.7841 0
M  V30 2362 N 229.106 1.52395 0.401703 0
M  V30 2363 C 230.069 1.75636 1.47257 0
M  V30 2364 C 231.069 0.62628 1.48103 0
M  V30 2365 O 232.259 0.894227 1.49497 0
M  V30 2366 C 229.391 1.84553 2.86624 0
M  V30 2367 H 230.584 2.71241 1.27938 0
M  V30 2368 H 228.137 1.42923 0.632662 0
M  V30 2369 H 228.872 0.908882 3.11303 0
M  V30 2370 H 228.657 2.66715 2.87412 0
M  V30 2371 H 230.147 2.04251 3.64241 0
M  V30 2372 N 230.584 -0.659388 1.43143 0
M  V30 2373 C 231.832 -1.41654 1.44147 0
M  V30 2374 C 232.153 -1.94893 0.0645739 0
M  V30 2375 O 231.423 -1.74044 -0.899198 0
M  V30 2376 H 230.003 -0.525708 0.530697 0
M  V30 2377 H 232.665 -0.778097 1.78694 0
M  V30 2378 H 231.761 -2.26195 2.1504 0
M  V30 2379 N 232.062 -1.29571 -0.897171 0
M  V30 2380 C 233.292 -1.20408 -1.67886 0
M  V30 2381 C 233.7 0.237429 -1.87704 0
M  V30 2382 O 233.043 1.17048 -1.41582 0
M  V30 2383 C 233.105 -1.84887 -3.08314 0
M  V30 2384 C 232.769 -3.34189 -3.11716 0
M  V30 2385 C 233.766 -4.30374 -2.91675 0
M  V30 2386 C 231.451 -3.75431 -3.33701 0
M  V30 2387 C 233.445 -5.65776 -2.93557 0
M  V30 2388 C 231.132 -5.10955 -3.35214 0
M  V30 2389 C 232.13 -6.05938 -3.15164 0
M  V30 2390 O 231.818 -7.38987 -3.1647 0
M  V30 2391 H 231.55 -0.418289 -0.531046 0
M  V30 2392 H 234.104 -1.71514 -1.13014 0
M  V30 2393 H 232.334 -1.28295 -3.64798 0
M  V30 2394 H 234.023 -1.70011 -3.6858 0
M  V30 2395 H 234.789 -3.99844 -2.74499 0
M  V30 2396 H 230.668 -3.01953 -3.48347 0
M  V30 2397 H 234.212 -6.39889 -2.77826 0
M  V30 2398 H 230.109 -5.4113 -3.51922 0
M  V30 2399 H 230.877 -7.47823 -3.3272 0
M  V30 2400 N 233.54 1.10788 -1.12088 0
M  V30 2401 C 234.787 1.82671 -0.873931 0
M  V30 2402 C 235.115 1.85004 0.600311 0
M  V30 2403 O 234.37 1.30365 1.45957 0
M  V30 2404 C 234.669 3.29294 -1.38926 0
M  V30 2405 C 234.335 3.47113 -2.87791 0
M  V30 2406 C 232.997 3.51684 -3.28439 0
M  V30 2407 C 235.349 3.52808 -3.83635 0
M  V30 2408 C 232.677 3.59513 -4.63646 0
M  V30 2409 C 235.029 3.62169 -5.18668 0
M  V30 2410 C 233.693 3.65003 -5.58864 0
M  V30 2411 H 232.963 0.668441 -0.319794 0
M  V30 2412 H 235.61 1.30613 -1.40045 0
M  V30 2413 H 233.915 3.83894 -0.783122 0
M  V30 2414 H 235.612 3.83416 -1.17443 0
M  V30 2415 H 232.202 3.4423 -2.5535 0
M  V30 2416 H 236.386 3.4853 -3.53328 0
M  V30 2417 H 231.642 3.59987 -4.94185 0
M  V30 2418 H 235.816 3.6552 -5.92763 0
M  V30 2419 H 233.443 3.70822 -6.63623 0
M  V30 2420 N 235.018 0.912232 1.28515 0
M  V30 2421 C 236.243 0.559774 1.99703 0
M  V30 2422 C 236.668 -0.851393 1.67729 0
M  V30 2423 O 236.026 -1.56875 0.908834 0
M  V30 2424 C 236.074 0.773874 3.52198 0
M  V30 2425 O 235.178 -0.167842 4.12058 0
M  V30 2426 H 234.519 0.21723 0.627461 0
M  V30 2427 H 237.049 1.22725 1.63706 0
M  V30 2428 H 237.059 0.683386 4.02236 0
M  V30 2429 H 235.734 1.80261 3.74805 0
M  V30 2430 H 234.311 -0.0287509 3.72889 0
M  V30 2431 N 236.496 -1.42363 0.676048 0
M  V30 2432 C 237.773 -1.95183 0.127726 0
M  V30 2433 C 238.153 -1.61641 -1.35777 0
M  V30 2434 O 237.501 -0.913216 -2.09458 0
M  V30 2435 C 237.711 -3.46721 0.398199 0
M  V30 2436 C 239.059 -4.23427 0.315383 0
M  V30 2437 O 240.083 -3.54649 0.332016 0
M  V30 2438 O 238.942 -5.45888 0.25865 0
M  V30 2439 H 236.036 -0.826992 0.00359427 0
M  V30 2440 H 238.582 -1.52184 0.750864 0
M  V30 2441 H 237.354 -3.64344 1.4272 0
M  V30 2442 H 236.977 -3.96769 -0.256885 0
M  V30 2443 N 237.974 -0.419461 -1.51915 0
M  V30 2444 C 238.937 0.389116 -2.25873 0
M  V30 2445 C 239.937 0.964924 -1.28631 0
M  V30 2446 O 241.127 0.842179 -1.52489 0
M  V30 2447 C 238.259 1.54874 -3.03689 0
M  V30 2448 H 239.452 -0.258799 -2.98781 0
M  V30 2449 H 237.005 -0.172209 -1.55348 0
M  V30 2450 H 237.74 2.23323 -2.35154 0
M  V30 2451 H 237.525 1.14223 -3.75094 0
M  V30 2452 H 239.015 2.12046 -3.59759 0
M  V30 2453 N 239.452 1.56882 -0.150215 0
M  V30 2454 C 240.699 1.96228 0.500093 0
M  V30 2455 C 241.027 1.03522 1.64661 0
M  V30 2456 O 240.282 0.0650683 1.95592 0
M  V30 2457 C 240.581 3.41801 1.04437 0
M  V30 2458 C 240.247 4.50897 0.0159671 0
M  V30 2459 C 238.909 4.8046 -0.266731 0
M  V30 2460 C 241.261 5.16703 -0.683192 0
M  V30 2461 C 238.589 5.73135 -1.25434 0
M  V30 2462 C 240.941 6.10441 -1.65964 0
M  V30 2463 C 239.605 6.38382 -1.95 0
M  V30 2464 H 238.875 0.718048 0.182997 0
M  V30 2465 H 241.522 1.90019 -0.237724 0
M  V30 2466 H 239.827 3.44857 1.85959 0
M  V30 2467 H 241.524 3.69573 1.55618 0
M  V30 2468 H 238.114 4.27891 0.246485 0
M  V30 2469 H 242.298 4.93993 -0.477983 0
M  V30 2470 H 237.554 5.93074 -1.48571 0
M  V30 2471 H 241.728 6.60507 -2.20689 0
M  V30 2472 H 239.355 7.09996 -2.71679 0
M  V30 2473 N 240.93 -0.123565 1.57115 0
M  V30 2474 C 242.155 -0.850398 1.89164 0
M  V30 2475 C 242.58 -1.7286 0.741688 0
M  V30 2476 O 241.938 -1.78665 -0.307958 0
M  V30 2477 C 241.986 -1.66353 3.19936 0
M  V30 2478 O 241.09 -2.77004 3.0552 0
M  V30 2479 H 240.431 -0.235454 0.620852 0
M  V30 2480 H 242.961 -0.107335 2.04318 0
M  V30 2481 H 242.971 -2.05372 3.52543 0
M  V30 2482 H 241.646 -1.01881 4.03228 0
M  V30 2483 H 240.223 -2.41221 2.84371 0
M  V30 2484 N 242.408 -1.52605 -0.393616 0
M  V30 2485 C 243.633 -1.71592 -1.16495 0
M  V30 2486 C 244.058 -0.43133 -1.83088 0
M  V30 2487 O 243.416 0.612523 -1.7064 0
M  V30 2488 C 243.464 -2.86318 -2.19213 0
M  V30 2489 O 242.568 -2.52969 -3.257 0
M  V30 2490 H 241.909 -0.570734 -0.33935 0
M  V30 2491 H 244.439 -1.99377 -0.459324 0
M  V30 2492 H 244.449 -3.1168 -2.63286 0
M  V30 2493 H 243.124 -3.79511 -1.7013 0
M  V30 2494 H 241.701 -2.38332 -2.86797 0
M  V30 2495 N 243.887 0.651787 -1.4349 0
M  V30 2496 C 245.115 1.43937 -1.48626 0
M  V30 2497 C 245.53 1.8851 -0.104587 0
M  V30 2498 O 244.887 1.5958 0.885464 0
M  V30 2499 C 244.938 2.6734 -2.43334 0
M  V30 2500 O 244.659 2.24631 -3.76128 0
M  V30 2501 C 246.16 3.60683 -2.57726 0
M  V30 2502 H 243.38 0.44213 -0.504739 0
M  V30 2503 H 245.924 0.798944 -1.88248 0
M  V30 2504 H 244.079 3.2752 -2.06904 0
M  V30 2505 H 244.493 3.04485 -4.2707 0
M  V30 2506 H 245.967 4.43933 -3.28067 0
M  V30 2507 H 246.444 4.08126 -1.62265 0
M  V30 2508 H 247.05 3.06384 -2.94973 0
M  V30 2509 N 245.365 1.30045 0.890287 0
M  V30 2510 C 246.642 1.09227 1.62262 0
M  V30 2511 C 247.022 -0.360305 2.08002 0
M  V30 2512 O 246.37 -1.35084 1.84295 0
M  V30 2513 C 246.58 2.08835 2.79623 0
M  V30 2514 C 247.928 2.40266 3.50082 0
M  V30 2515 O 248.952 2.07104 2.89804 0
M  V30 2516 O 247.811 2.96967 4.58773 0
M  V30 2517 H 244.905 0.419132 0.712922 0
M  V30 2518 H 247.451 1.41451 0.937529 0
M  V30 2519 H 246.223 3.06633 2.43089 0
M  V30 2520 H 245.846 1.77397 3.55832 0
M  V30 2521 N 246.843 -1.10192 1.12674 0
M  V30 2522 C 247.79 -2.16606 0.796906 0
M  V30 2523 C 248.76 -1.64394 -0.237476 0
M  V30 2524 O 249.945 -1.90474 -0.111484 0
M  V30 2525 C 247.085 -3.44116 0.26043 0
M  V30 2526 C 246.198 -4.10268 1.35293 0
M  V30 2527 C 245.333 -5.25507 0.775621 0
M  V30 2528 C 244.372 -5.83567 1.84706 0
M  V30 2529 N 243.509 -6.90179 1.28829 0
M  V30 2530 H 248.349 -2.44163 1.70846 0
M  V30 2531 H 245.886 -1.19846 0.85295 0
M  V30 2532 H 247.844 -4.17143 -0.0686814 0
M  V30 2533 H 246.474 -3.16901 -0.614274 0
M  V30 2534 H 245.526 -3.35184 1.79877 0
M  V30 2535 H 246.838 -4.4946 2.16303 0
M  V30 2536 H 245.992 -6.05398 0.397327 0
M  V30 2537 H 244.731 -4.87656 -0.0656581 0
M  V30 2538 H 243.736 -5.02344 2.23452 0
M  V30 2539 H 244.961 -6.23482 2.69161 0
M  V30 2540 H 242.907 -6.54322 0.468881 0
M  V30 2541 H 242.824 -7.28097 2.03497 0
M  V30 2542 H 244.092 -7.73844 0.937311 0
M  V30 2543 N 248.321 -0.919034 -1.28029 0
M  V30 2544 C 249.561 -0.562107 -1.96519 0
M  V30 2545 C 249.925 0.878784 -1.70708 0
M  V30 2546 O 251.126 1.34355 -2.32813 0
M  V30 2547 C 249.397 -0.868953 -3.46676 0
M  V30 2548 S 250.956 -0.619237 -4.34409 0
M  V30 2549 H 247.774 -0.2078 -0.679956 0
M  V30 2550 H 250.376 -1.18562 -1.55446 0
M  V30 2551 H 249.08 -1.91547 -3.62957 0
M  V30 2552 H 248.611 -0.234301 -3.92702 0
M  V30 2553 H 250.626 0.526995 -4.93394 0
M  V30 2554 N 249.799 1.42003 -0.683588 0
M  V30 2555 C 251.215 1.55625 -0.353976 0
M  V30 2556 C 251.415 1.66151 1.14 0
M  V30 2557 O 250.471 1.63329 1.92561 0
M  V30 2558 C 251.784 2.80171 -1.092 0
M  V30 2559 C 253.332 2.93954 -1.07518 0
M  V30 2560 C 253.807 4.21372 -1.79471 0
M  V30 2561 N 255.298 4.28303 -1.76381 0
M  V30 2562 C 256.033 5.25729 -2.28904 0
M  V30 2563 N 255.529 6.29254 -2.89846 0
M  V30 2564 N 257.322 5.17586 -2.19228 0
M  V30 2565 H 249.473 1.33415 -1.6527 0
M  V30 2566 H 251.736 0.64282 -0.696769 0
M  V30 2567 H 251.442 2.78561 -2.14701 0
M  V30 2568 H 251.316 3.7133 -0.662862 0
M  V30 2569 H 253.703 2.95086 -0.028475 0
M  V30 2570 H 253.784 2.04002 -1.54328 0
M  V30 2571 H 253.428 4.21001 -2.84114 0
M  V30 2572 H 253.358 5.10275 -1.30104 0
M  V30 2573 H 255.849 3.54119 -1.31939 0
M  V30 2574 H 256.162 6.99964 -3.27522 0
M  V30 2575 H 254.507 6.29791 -2.93919 0
M  V30 2576 H 257.698 4.35631 -1.71299 0
M  V30 2577 H 257.871 5.93348 -2.60466 0
M  V30 2578 N 251.277 0.427512 1.51691 0
M  V30 2579 C 252.688 -0.0378867 1.86662 0
M  V30 2580 C 253.039 -1.42819 1.34525 0
M  V30 2581 O 252.164 -2.05037 0.692014 0
M  V30 2582 C 252.759 -0.0755266 3.38716 0
M  V30 2583 C 251.318 -0.485309 3.73258 0
M  V30 2584 C 250.465 0.328399 2.75349 0
M  V30 2585 H 253.416 0.64379 1.45055 0
M  V30 2586 H 253.437 -0.887056 3.70016 0
M  V30 2587 H 252.949 0.936487 3.76632 0
M  V30 2588 H 251.05 -1.50329 3.40928 0
M  V30 2589 H 251.163 -0.21693 4.78609 0
M  V30 2590 H 249.527 -0.211905 2.53817 0
M  V30 2591 H 250.31 1.3391 3.16106 0
M  V30 2592 N 252.755 -1.56801 0.158532 0
M  V30 2593 C 254.001 -1.97559 -0.483957 0
M  V30 2594 C 254.356 -1.04239 -1.61716 0
M  V30 2595 O 253.649 -0.079603 -1.91435 0
M  V30 2596 C 253.843 -3.4235 -1.02623 0
M  V30 2597 C 253.672 -4.49669 0.0528929 0
M  V30 2598 C 252.442 -5.02838 0.498234 0
M  V30 2599 C 254.64 -5.0725 0.848616 0
M  V30 2600 N 252.622 -5.93775 1.559 0
M  V30 2601 C 253.993 -5.94506 1.7596 0
M  V30 2602 C 256.048 -4.89788 0.895121 0
M  V30 2603 C 254.751 -6.66169 2.71314 0
M  V30 2604 C 256.777 -5.62161 1.83654 0
M  V30 2605 C 256.139 -6.49134 2.73503 0
M  V30 2606 H 252.238 -0.768332 -0.145566 0
M  V30 2607 H 254.822 -1.93012 0.255799 0
M  V30 2608 H 252.993 -3.47467 -1.73555 0
M  V30 2609 H 254.725 -3.70145 -1.63629 0
M  V30 2610 H 251.48 -4.73498 0.0983222 0
M  V30 2611 H 251.904 -6.43948 2.08949 0
M  V30 2612 H 256.546 -4.22255 0.21453 0
M  V30 2613 H 254.264 -7.32923 3.40367 0
M  V30 2614 H 257.85 -5.5064 1.87847 0
M  V30 2615 H 256.73 -7.04153 3.45163 0
M  V30 2616 N 254.233 0.115231 -1.57178 0
M  V30 2617 C 255.461 0.836437 -1.89239 0
M  V30 2618 C 255.876 1.73256 -0.750175 0
M  V30 2619 O 255.233 1.80357 0.278832 0
M  V30 2620 C 255.284 1.66671 -3.20785 0
M  V30 2621 O 255.005 0.806652 -4.3061 0
M  V30 2622 C 256.506 2.49274 -3.66575 0
M  V30 2623 H 253.726 0.240253 -0.626514 0
M  V30 2624 H 256.27 0.0984932 -2.04263 0
M  V30 2625 H 254.425 2.35737 -3.0742 0
M  V30 2626 H 254.839 1.37969 -5.06028 0
M  V30 2627 H 256.313 3.03055 -4.6137 0
M  V30 2628 H 256.79 3.26807 -2.93417 0
M  V30 2629 H 257.396 1.85443 -3.82741 0
M  V30 2630 N 255.711 1.52812 0.385517 0
M  V30 2631 C 256.659 1.78482 1.49155 0
M  V30 2632 C 257.653 0.652914 1.56312 0
M  V30 2633 O 258.859 0.835464 1.59436 0
M  V30 2634 H 255.234 0.5648 0.496493 0
M  V30 2635 H 257.205 2.71095 1.24699 0
M  V30 2636 C 255.954 1.97378 2.86247 0
M  V30 2637 H 255.277 2.83907 2.81491 0
M  V30 2638 H 256.717 2.19327 3.62866 0
M  V30 2639 C 255.176 0.74728 3.28508 0
M  V30 2640 O 255.706 -0.0736232 4.01633 0
M  V30 2641 N 253.912 0.576396 2.84826 0
M  V30 2642 H 253.459 1.24555 2.25486 0
M  V30 2643 H 253.417 -0.24288 3.1346 0
M  V30 2644 N 257.189 -0.644168 1.43834 0
M  V30 2645 C 258.429 -1.41565 1.47441 0
M  V30 2646 C 258.793 -1.91743 0.0992723 0
M  V30 2647 O 259.994 -2.68798 0.0100192 0
M  V30 2648 C 258.265 -2.55902 2.49498 0
M  V30 2649 S 259.824 -3.44287 2.72051 0
M  V30 2650 H 256.642 -0.483118 0.521649 0
M  V30 2651 H 259.244 -0.747008 1.80666 0
M  V30 2652 H 257.948 -2.17327 3.48134 0
M  V30 2653 H 257.479 -3.27607 2.17801 0
M  V30 2654 H 259.494 -4.52927 2.0266 0
M  V30 2655 N 258.668 -1.30515 -0.883378 0
M  V30 2656 C 259.896 -1.22359 -1.66841 0
M  V30 2657 C 260.311 0.213296 -1.87591 0
M  V30 2658 O 259.668 1.14075 -1.42454 0
M  V30 2659 C 259.719 -1.95011 -3.04389 0
M  V30 2660 O 259.44 -3.3309 -2.84575 0
M  V30 2661 C 260.941 -1.93532 -3.98824 0
M  V30 2662 H 258.161 -0.423371 -0.520575 0
M  V30 2663 H 260.705 -1.72167 -1.10357 0
M  V30 2664 H 258.86 -1.48997 -3.57601 0
M  V30 2665 H 259.274 -3.69907 -3.71846 0
M  V30 2666 H 260.748 -2.48902 -4.92699 0
M  V30 2667 H 261.225 -0.914627 -4.29571 0
M  V30 2668 H 261.831 -2.39364 -3.51547 0
M  V30 2669 N 260.146 1.09593 -1.13257 0
M  V30 2670 C 261.393 1.81734 -0.893257 0
M  V30 2671 C 261.721 1.8563 0.580656 0
M  V30 2672 O 260.976 1.31906 1.44566 0
M  V30 2673 C 261.275 3.27802 -1.42411 0
M  V30 2674 C 260.941 3.44041 -2.91456 0
M  V30 2675 C 259.603 3.48181 -3.3215 0
M  V30 2676 C 261.955 3.48719 -3.87356 0
M  V30 2677 C 259.283 3.54575 -4.67433 0
M  V30 2678 C 261.635 3.56648 -5.2248 0
M  V30 2679 C 260.299 3.59055 -5.62704 0
M  V30 2680 H 259.569 0.665011 -0.326866 0
M  V30 2681 H 262.216 1.2912 -1.41422 0
M  V30 2682 H 260.521 3.83042 -0.823795 0
M  V30 2683 H 262.218 3.82149 -1.21503 0
M  V30 2684 H 258.808 3.41502 -2.58987 0
M  V30 2685 H 262.992 3.44763 -3.57004 0
M  V30 2686 H 258.248 3.54725 -4.97976 0
M  V30 2687 H 262.422 3.59212 -5.96607 0
M  V30 2688 H 260.049 3.63763 -6.67518 0
M  V30 2689 N 261.624 0.925811 1.2754 0
M  V30 2690 C 262.554 0.440748 2.29303 0
M  V30 2691 C 263.535 -0.497971 1.62648 0
M  V30 2692 O 264.72 -0.403126 1.8997 0
M  V30 2693 C 261.85 -0.309048 3.45922 0
M  V30 2694 C 260.804 0.54166 4.24559 0
M  V30 2695 C 260.13 -0.337191 5.33636 0
M  V30 2696 C 261.43 1.80516 4.90114 0
M  V30 2697 H 263.124 1.29121 2.70126 0
M  V30 2698 H 260.67 0.622323 1.29858 0
M  V30 2699 H 262.623 -0.659315 4.1621 0
M  V30 2700 H 261.347 -1.19352 3.04011 0
M  V30 2701 H 260.006 0.874609 3.56014 0
M  V30 2702 H 259.654 -1.22056 4.87966 0
M  V30 2703 H 259.354 0.228497 5.87156 0
M  V30 2704 H 260.878 -0.683072 6.06767 0
M  V30 2705 H 262.292 1.52307 5.52698 0
M  V30 2706 H 260.689 2.3142 5.53683 0
M  V30 2707 H 261.759 2.52581 4.13921 0
M  V30 2708 N 263.102 -1.41638 0.69111 0
M  V30 2709 C 264.35 -2.00902 0.219758 0
M  V30 2710 C 264.671 -1.54994 -1.18329 0
M  V30 2711 O 263.941 -0.778628 -1.79762 0
M  V30 2712 H 262.521 -0.74289 0.0782558 0
M  V30 2713 H 265.183 -1.73327 0.891271 0
M  V30 2714 H 264.279 -3.11224 0.233708 0
M  V30 2715 N 264.58 -0.43555 -1.51462 0
M  V30 2716 C 265.527 0.376797 -2.27703 0
M  V30 2717 C 266.497 1.01838 -1.31219 0
M  V30 2718 O 267.682 1.03762 -1.60119 0
M  V30 2719 C 264.822 1.47301 -3.12084 0
M  V30 2720 C 263.935 0.849744 -4.2356 0
M  V30 2721 C 263.07 1.92086 -4.95254 0
M  V30 2722 C 262.109 1.27593 -5.98654 0
M  V30 2723 N 261.246 2.28833 -6.63762 0
M  V30 2724 H 266.086 -0.279734 -2.96684 0
M  V30 2725 H 263.623 -0.149795 -1.46335 0
M  V30 2726 H 265.581 2.11984 -3.59331 0
M  V30 2727 H 264.211 2.0992 -2.45221 0
M  V30 2728 H 263.263 0.0912529 -3.80291 0
M  V30 2729 H 264.575 0.338878 -4.97648 0
M  V30 2730 H 263.729 2.64435 -5.46039 0
M  V30 2731 H 262.468 2.46545 -4.20793 0
M  V30 2732 H 261.473 0.537893 -5.47162 0
M  V30 2733 H 262.698 0.738693 -6.7507 0
M  V30 2734 H 260.644 2.82375 -5.92115 0
M  V30 2735 H 260.561 1.82632 -7.33608 0
M  V30 2736 H 261.829 3.00671 -7.19178 0
M  V30 2737 N 266.058 1.56714 -0.166846 0
M  V30 2738 C 267.474 1.58473 0.189372 0
M  V30 2739 C 267.674 1.18201 1.63189 0
M  V30 2740 O 266.73 0.891528 2.36237 0
M  V30 2741 C 268.043 3.00573 -0.0873872 0
M  V30 2742 C 269.591 3.1299 -0.0252443 0
M  V30 2743 C 270.066 4.57174 -0.274934 0
M  V30 2744 N 271.557 4.62665 -0.222553 0
M  V30 2745 C 272.292 5.72072 -0.389985 0
M  V30 2746 N 271.788 6.90054 -0.616229 0
M  V30 2747 N 273.581 5.61153 -0.326202 0
M  V30 2748 H 265.732 1.8118 -1.10849 0
M  V30 2749 H 267.995 0.839525 -0.440342 0
M  V30 2750 H 267.701 3.34497 -1.0865 0
M  V30 2751 H 267.575 3.72019 0.623037 0
M  V30 2752 H 269.962 2.78895 0.96444 0
M  V30 2753 H 270.043 2.43989 -0.768309 0
M  V30 2754 H 269.687 4.91976 -1.26181 0
M  V30 2755 H 269.617 5.24328 0.48869 0
M  V30 2756 H 272.108 3.77863 -0.0531512 0
M  V30 2757 H 272.421 7.69311 -0.733559 0
M  V30 2758 H 270.766 6.91927 -0.652791 0
M  V30 2759 H 273.957 4.67859 -0.150072 0
M  V30 2760 H 274.13 6.46364 -0.460116 0
M  V30 2761 N 267.536 -0.106894 1.57237 0
M  V30 2762 C 268.782 -0.81373 1.85759 0
M  V30 2763 C 269.115 -1.78952 0.754315 0
M  V30 2764 O 268.39 -1.93029 -0.23879 0
M  V30 2765 C 268.673 -1.55293 3.24894 0
M  V30 2766 C 268.526 -0.595929 4.45835 0
M  V30 2767 C 269.845 -2.5063 3.61763 0
M  V30 2768 H 266.964 -0.294369 0.67566 0
M  V30 2769 H 269.606 -0.0776472 1.89841 0
M  V30 2770 H 267.756 -2.1804 3.21544 0
M  V30 2771 H 269.428 0.0236262 4.61294 0
M  V30 2772 H 267.671 0.0916191 4.33703 0
M  V30 2773 H 268.342 -1.15004 5.39887 0
M  V30 2774 H 270.818 -1.97982 3.65981 0
M  V30 2775 H 269.694 -2.99376 4.60071 0
M  V30 2776 H 269.955 -3.3385 2.89821 0
M  V30 2777 N 269.014 -1.53014 -0.377408 0
M  V30 2778 C 269.924 -1.81557 -1.48574 0
M  V30 2779 C 270.94 -0.703102 -1.59162 0
M  V30 2780 O 272.116 -0.99192 -1.75279 0
M  V30 2781 C 269.181 -1.9889 -2.83978 0
M  V30 2782 C 268.242 -3.22801 -2.83016 0
M  V30 2783 C 267.475 -3.39298 -4.11962 0
M  V30 2784 O 267.698 -2.60345 -5.0752 0
M  V30 2785 O 266.632 -4.32604 -4.18494 0
M  V30 2786 H 270.458 -2.75695 -1.27382 0
M  V30 2787 H 268.043 -1.38248 -0.566373 0
M  V30 2788 H 269.925 -2.11931 -3.6423 0
M  V30 2789 H 268.6 -1.07942 -3.05172 0
M  V30 2790 H 267.507 -3.15193 -2.01505 0
M  V30 2791 H 268.84 -4.13632 -2.66775 0
M  V30 2792 N 270.492 0.636531 -1.44174 0
M  V30 2793 C 271.442 1.74233 -1.47061 0
M  V30 2794 C 272.426 1.57331 -0.337034 0
M  V30 2795 O 273.618 1.67159 -0.581973 0
M  V30 2796 C 270.747 3.12897 -1.41246 0
M  V30 2797 C 269.833 3.35288 -2.59698 0
M  V30 2798 N 270.224 3.2807 -3.84972 0
M  V30 2799 C 268.522 3.66065 -2.54778 0
M  V30 2800 C 269.223 3.51001 -4.63867 0
M  V30 2801 N 268.199 3.73616 -3.94857 0
M  V30 2802 H 272.001 1.67103 -2.41773 0
M  V30 2803 H 269.515 0.838806 -1.3906 0
M  V30 2804 H 271.512 3.92189 -1.41398 0
M  V30 2805 H 270.172 3.21197 -0.47569 0
M  V30 2806 H 271.183 3.07109 -4.17019 0
M  V30 2807 H 267.86 3.81379 -1.6987 0
M  V30 2808 H 269.25 3.51059 -5.72894 0
M  V30 2809 N 271.97 1.30982 0.876444 0
M  V30 2810 C 272.92 1.14688 1.97055 0
M  V30 2811 C 273.904 0.0596593 1.60789 0
M  V30 2812 O 275.096 0.283892 1.74708 0
M  V30 2813 C 272.225 0.849627 3.3262 0
M  V30 2814 C 271.311 1.97752 3.75173 0
M  V30 2815 N 271.702 3.22384 3.89746 0
M  V30 2816 C 270 1.8758 4.04635 0
M  V30 2817 C 270.701 3.96121 4.25985 0
M  V30 2818 N 269.677 3.24237 4.36315 0
M  V30 2819 H 273.479 2.09204 2.06424 0
M  V30 2820 H 270.993 1.22445 1.06682 0
M  V30 2821 H 272.99 0.713895 4.10742 0
M  V30 2822 H 271.65 -0.087376 3.24582 0
M  V30 2823 H 272.661 3.57575 3.74647 0
M  V30 2824 H 269.338 1.01303 4.05024 0
M  V30 2825 H 270.728 5.03491 4.44911 0
M  V30 2826 N 273.449 -1.08991 1.13837 0
M  V30 2827 C 274.697 -1.80899 0.901098 0
M  V30 2828 C 275.018 -1.86356 -0.574134 0
M  V30 2829 O 274.288 -1.35235 -1.41733 0
M  V30 2830 H 272.868 -0.669966 0.330386 0
M  V30 2831 H 275.53 -1.318 1.43578 0
M  V30 2832 H 274.626 -2.83929 1.29578 0
M  V30 2833 N 274.927 -0.932562 -1.27047 0
M  V30 2834 C 276.155 -0.592031 -1.98249 0
M  V30 2835 C 276.57 0.831062 -1.69525 0
M  V30 2836 O 275.927 1.55299 -0.958561 0
M  V30 2837 C 275.978 -0.814279 -3.5221 0
M  V30 2838 O 275.699 -2.18139 -3.7993 0
M  V30 2839 C 277.2 -0.483121 -4.4066 0
M  V30 2840 H 274.42 -0.223896 -0.632544 0
M  V30 2841 H 276.964 -1.25091 -1.61779 0
M  V30 2842 H 275.119 -0.20213 -3.86872 0
M  V30 2843 H 275.533 -2.235 -4.74498 0
M  V30 2844 H 277.007 -0.689298 -5.47679 0
M  V30 2845 H 277.484 0.581546 -4.35333 0
M  V30 2846 H 278.09 -1.07362 -4.11526 0
M  V30 2847 N 276.405 1.4127 -0.698611 0
M  V30 2848 C 277.315 2.34573 -0.0357891 0
M  V30 2849 C 278.331 1.56393 0.762701 0
M  V30 2850 O 279.507 1.8886 0.699564 0
M  V30 2851 C 276.572 3.35159 0.887089 0
M  V30 2852 C 275.633 4.29225 0.0804634 0
M  V30 2853 C 274.866 5.25006 0.959387 0
M  V30 2854 O 275.089 5.26314 2.19886 0
M  V30 2855 O 274.023 6.00519 0.407439 0
M  V30 2856 H 277.849 2.92838 -0.804957 0
M  V30 2857 H 275.434 1.42175 -0.458966 0
M  V30 2858 H 277.316 3.9689 1.41621 0
M  V30 2859 H 275.991 2.79333 1.6357 0
M  V30 2860 H 274.898 3.70833 -0.493328 0
M  V30 2861 H 276.231 4.88157 -0.629547 0
M  V30 2862 N 277.883 0.443576 1.51229 0
M  V30 2863 C 278.83 -0.364716 2.279 0
M  V30 2864 C 279.8 -1.0114 1.31757 0
M  V30 2865 O 280.985 -1.02912 1.60667 0
M  V30 2866 C 278.125 -1.45644 3.12861 0
M  V30 2867 C 277.238 -0.827269 4.24005 0
M  V30 2868 C 276.373 -1.89456 4.96266 0
M  V30 2869 C 275.412 -1.24416 5.99322 0
M  V30 2870 N 274.549 -2.25309 6.64966 0
M  V30 2871 H 279.389 0.295464 2.96532 0
M  V30 2872 H 276.926 0.157554 1.46254 0
M  V30 2873 H 278.884 -2.10076 3.6045 0
M  V30 2874 H 277.514 -2.08616 2.46331 0
M  V30 2875 H 276.566 -0.0710839 3.80334 0
M  V30 2876 H 277.878 -0.312481 4.9782 0
M  V30 2877 H 277.032 -2.61535 5.47434 0
M  V30 2878 H 275.771 -2.4431 4.22095 0
M  V30 2879 H 274.776 -0.508868 5.4744 0
M  V30 2880 H 276.001 -0.702882 6.75453 0
M  V30 2881 H 273.947 -2.79231 5.93604 0
M  V30 2882 H 273.864 -1.78739 7.34567 0
M  V30 2883 H 275.132 -2.96853 7.20763 0
M  V30 2884 N 279.361 -1.56624 0.175154 0
M  V30 2885 C 280.586 -2.01813 -0.478137 0
M  V30 2886 C 281.011 -1.05457 -1.55757 0
M  V30 2887 O 280.369 -0.0347439 -1.81267 0
M  V30 2888 C 280.417 -3.45581 -1.02987 0
M  V30 2889 O 279.521 -3.52305 -2.14371 0
M  V30 2890 H 278.862 -0.65413 -0.114059 0
M  V30 2891 H 281.392 -2.02673 0.280173 0
M  V30 2892 H 281.402 -3.84965 -1.35151 0
M  V30 2893 H 280.077 -4.1521 -0.239556 0
M  V30 2894 H 278.654 -3.24783 -1.83222 0
M  V30 2895 N 280.839 0.0985539 -1.57292 0
M  V30 2896 C 282.116 0.834155 -1.76921 0
M  V30 2897 C 282.496 1.97101 -0.755928 0
M  V30 2898 O 281.844 2.27474 0.216245 0
M  V30 2899 C 282.054 1.33194 -3.22584 0
M  V30 2900 C 283.402 1.77611 -3.85668 0
M  V30 2901 O 284.426 1.42825 -3.26312 0
M  V30 2902 O 283.285 2.4192 -4.90038 0
M  V30 2903 H 280.379 0.397628 -0.725135 0
M  V30 2904 H 282.925 0.0807044 -1.69508 0
M  V30 2905 H 281.697 0.517248 -3.87866 0
M  V30 2906 H 281.32 2.1475 -3.34616 0
M  V30 2907 N 282.317 1.53212 0.369288 0
M  V30 2908 C 283.28 1.7872 1.43498 0
M  V30 2909 C 284.28 0.657554 1.46741 0
M  V30 2910 O 285.47 0.925736 1.47566 0
M  V30 2911 C 282.602 1.90591 2.82645 0
M  V30 2912 H 283.795 2.73894 1.22156 0
M  V30 2913 H 281.348 1.44233 0.602203 0
M  V30 2914 H 282.083 0.974709 3.09306 0
M  V30 2915 H 281.868 2.72751 2.8169 0
M  V30 2916 H 283.358 2.11931 3.59826 0
M  V30 2917 N 283.795 -0.628877 1.44509 0
M  V30 2918 C 285.041 -1.39045 1.47629 0
M  V30 2919 C 285.374 -1.93892 0.109343 0
M  V30 2920 O 284.649 -1.7379 -0.87334 0
M  V30 2921 C 284.932 -2.55408 2.53848 0
M  V30 2922 C 284.785 -2.05896 3.99909 0
M  V30 2923 C 286.104 -3.5759 2.56549 0
M  V30 2924 H 283.223 -0.504232 0.537512 0
M  V30 2925 H 285.865 -0.710854 1.76201 0
M  V30 2926 H 284.015 -3.13384 2.29615 0
M  V30 2927 H 285.687 -1.52734 4.35282 0
M  V30 2928 H 283.93 -1.37061 4.11578 0
M  V30 2929 H 284.601 -2.89681 4.69882 0
M  V30 2930 H 287.077 -3.09419 2.78207 0
M  V30 2931 H 285.953 -4.36527 3.32769 0
M  V30 2932 H 286.214 -4.11808 1.60832 0
M  V30 2933 N 285.273 -1.31445 -0.869486 0
M  V30 2934 C 286.513 -1.22458 -1.63656 0
M  V30 2935 C 286.877 0.213846 -1.90805 0
M  V30 2936 O 288.078 0.427212 -2.65383 0
M  V30 2937 C 286.349 -2.04564 -2.93067 0
M  V30 2938 S 287.908 -2.12445 -3.83944 0
M  V30 2939 H 284.726 -0.436145 -0.561514 0
M  V30 2940 H 287.328 -1.66114 -1.03085 0
M  V30 2941 H 286.032 -3.0816 -2.71045 0
M  V30 2942 H 285.563 -1.6163 -3.58663 0
M  V30 2943 H 287.578 -1.26312 -4.79854 0
M  V30 2944 N 286.751 1.08385 -1.14413 0
M  V30 2945 C 287.976 1.85057 -0.936413 0
M  V30 2946 C 288.401 1.81055 0.509971 0
M  V30 2947 O 287.759 1.1958 1.36273 0
M  V30 2948 C 287.807 3.30505 -1.44217 0
M  V30 2949 O 286.911 4.07491 -0.634409 0
M  V30 2950 H 286.252 0.573425 -0.334784 0
M  V30 2951 H 288.782 1.36799 -1.52142 0
M  V30 2952 H 288.792 3.81348 -1.45043 0
M  V30 2953 H 287.467 3.32734 -2.49522 0
M  V30 2954 H 286.044 3.66368 -0.694902 0
M  V30 2955 N 288.23 0.939286 1.26551 0
M  V30 2956 C 289.455 0.602008 1.98471 0
M  V30 2957 C 289.88 -0.815624 1.69497 0
M  V30 2958 O 289.238 -1.54912 0.941905 0
M  V30 2959 C 289.286 0.848407 3.50477 0
M  V30 2960 O 288.39 -0.0804009 4.12322 0
M  V30 2961 H 287.731 0.23049 0.622712 0
M  V30 2962 H 290.261 1.2617 1.61066 0
M  V30 2963 H 290.271 0.768553 4.00696 0
M  V30 2964 H 288.946 1.88171 3.70897 0
M  V30 2965 H 287.523 0.0503508 3.72866 0
M  V30 2966 N 289.708 -1.40897 0.706093 0
M  V30 2967 C 290.933 -2.05895 0.249435 0
M  V30 2968 C 291.358 -1.52823 -1.09666 0
M  V30 2969 O 290.716 -0.659589 -1.68876 0
M  V30 2970 C 290.764 -3.59872 0.22904 0
M  V30 2971 O 289.868 -4.04708 -0.792784 0
M  V30 2972 H 289.209 -0.653206 0.119241 0
M  V30 2973 H 291.739 -1.80471 0.96391 0
M  V30 2974 H 291.749 -4.07951 0.0634791 0
M  V30 2975 H 290.424 -3.97866 1.21141 0
M  V30 2976 H 289.001 -3.68111 -0.59572 0
M  V30 2977 N 291.186 -0.45159 -1.50991 0
M  V30 2978 C 292.116 0.342898 -2.30969 0
M  V30 2979 C 293.097 1.00815 -1.37005 0
M  V30 2980 O 294.282 1.00907 -1.65926 0
M  V30 2981 C 291.412 1.43637 -3.16205 0
M  V30 2982 C 290.366 0.893818 -4.18563 0
M  V30 2983 C 289.692 2.08411 -4.92411 0
M  V30 2984 C 290.992 -0.0815568 -5.22236 0
M  V30 2985 H 292.686 -0.324556 -2.97636 0
M  V30 2986 H 290.232 -0.157531 -1.43136 0
M  V30 2987 H 292.185 1.9995 -3.70942 0
M  V30 2988 H 290.909 2.13232 -2.47386 0
M  V30 2989 H 289.568 0.352798 -3.64898 0
M  V30 2990 H 289.216 2.76658 -4.20082 0
M  V30 2991 H 288.916 1.72741 -5.61636 0
M  V30 2992 H 290.44 2.65251 -5.49976 0
M  V30 2993 H 291.854 0.391742 -5.7196 0
M  V30 2994 H 290.251 -0.351551 -5.99069 0
M  V30 2995 H 291.321 -1.01374 -4.74185 0
M  V30 2996 N 292.664 1.56529 -0.183458 0
M  V30 2997 C 294.075 1.83739 0.331177 0
M  V30 2998 C 294.426 1.10373 1.62211 0
M  V30 2999 O 293.551 0.36071 2.13373 0
M  V30 3000 C 294.146 3.33306 0.607646 0
M  V30 3001 C 292.705 3.60969 1.06668 0
M  V30 3002 C 291.852 2.77086 0.109029 0
M  V30 3003 H 294.803 1.53379 -0.407484 0
M  V30 3004 H 294.824 3.51444 1.45832 0
M  V30 3005 H 294.336 3.86677 -0.332086 0
M  V30 3006 H 292.437 3.13021 2.0211 0
M  V30 3007 H 292.55 4.69231 0.967447 0
M  V30 3008 H 290.914 2.47319 0.608714 0
M  V30 3009 H 291.697 3.33241 -0.82494 0
M  V30 3010 N 294.142 -0.090211 1.57342 0
M  V30 3011 C 295.105 -1.09335 2.01441 0
M  V30 3012 C 296.105 -1.32666 0.908641 0
M  V30 3013 O 297.295 -1.28697 1.174 0
M  V30 3014 C 294.427 -2.44136 2.3793 0
M  V30 3015 H 295.62 -0.713662 2.91285 0
M  V30 3016 H 293.173 -0.335404 1.52659 0
M  V30 3017 H 293.908 -2.86972 1.51055 0
M  V30 3018 H 293.693 -2.28548 3.18603 0
M  V30 3019 H 295.183 -3.16277 2.72688 0
M  V30 3020 N 295.62 -1.53406 -0.361157 0
M  V30 3021 C 297.036 -1.43277 -0.703124 0
M  V30 3022 C 297.236 -0.575384 -1.9311 0
M  V30 3023 O 296.292 -0.0595362 -2.5243 0
M  V30 3024 C 297.605 -2.8653 -0.9122 0
M  V30 3025 C 299.153 -2.96191 -1.01193 0
M  V30 3026 C 299.628 -4.40514 -1.25345 0
M  V30 3027 N 301.119 -4.43962 -1.32105 0
M  V30 3028 C 301.854 -5.52746 -1.5251 0
M  V30 3029 N 301.35 -6.71567 -1.70203 0
M  V30 3030 N 303.143 -5.40331 -1.54916 0
M  V30 3031 H 295.294 -2.07654 0.446475 0
M  V30 3032 H 297.557 -0.937944 0.137715 0
M  V30 3033 H 297.263 -3.51605 -0.0816414 0
M  V30 3034 H 297.137 -3.30441 -1.81903 0
M  V30 3035 H 299.524 -2.31266 -1.83303 0
M  V30 3036 H 299.605 -2.55667 -0.0823929 0
M  V30 3037 H 299.249 -5.06014 -0.437346 0
M  V30 3038 H 299.179 -4.78614 -2.19627 0
M  V30 3039 H 301.67 -3.58332 -1.20028 0
M  V30 3040 H 301.983 -7.50241 -1.85359 0
M  V30 3041 H 300.328 -6.74545 -1.67373 0
M  V30 3042 H 303.519 -4.46465 -1.40663 0
M  V30 3043 H 303.692 -6.25173 -1.70477 0
M  V30 3044 N 297.098 0.621204 -1.44841 0
M  V30 3045 C 298.045 1.73267 -1.5247 0
M  V30 3046 C 299.015 1.6189 -0.371611 0
M  V30 3047 O 300.2 1.81668 -0.58321 0
M  V30 3048 C 297.34 3.11545 -1.48438 0
M  V30 3049 C 296.453 3.33827 -2.74196 0
M  V30 3050 C 295.588 4.62133 -2.61929 0
M  V30 3051 C 294.627 4.77627 -3.82804 0
M  V30 3052 N 293.764 5.97219 -3.69153 0
M  V30 3053 H 298.604 1.66082 -2.47428 0
M  V30 3054 H 296.141 0.810026 -1.22788 0
M  V30 3055 H 298.099 3.91528 -1.4409 0
M  V30 3056 H 296.729 3.1772 -0.570402 0
M  V30 3057 H 295.781 2.47715 -2.88689 0
M  V30 3058 H 297.093 3.41153 -3.6389 0
M  V30 3059 H 296.247 5.50291 -2.5547 0
M  V30 3060 H 294.986 4.57182 -1.69811 0
M  V30 3061 H 293.991 3.87896 -3.89637 0
M  V30 3062 H 295.216 4.84385 -4.75971 0
M  V30 3063 H 293.162 5.93339 -2.79794 0
M  V30 3064 H 293.079 6.05644 -4.52472 0
M  V30 3065 H 294.347 6.87912 -3.66603 0
M  V30 3066 N 298.576 1.31904 0.862503 0
M  V30 3067 C 299.987 1.19803 1.43193 0
M  V30 3068 C 300.338 -0.192567 1.95253 0
M  V30 3069 O 299.463 -1.09081 1.86896 0
M  V30 3070 C 300.058 2.16883 2.60283 0
M  V30 3071 C 298.617 2.08692 3.13248 0
M  V30 3072 C 297.764 2.05691 1.85975 0
M  V30 3073 H 300.715 1.43846 0.670365 0
M  V30 3074 H 300.736 1.76278 3.37204 0
M  V30 3075 H 300.248 3.18083 2.22363 0
M  V30 3076 H 298.349 1.10713 3.55771 0
M  V30 3077 H 298.462 2.9815 3.75025 0
M  V30 3078 H 296.826 1.50814 2.05249 0
M  V30 3079 H 297.609 3.08659 1.50282 0
M  V30 3080 N 300.054 -1.07777 1.14986 0
M  V30 3081 C 301.465 -1.61766 0.932127 0
M  V30 3082 C 301.816 -1.88974 -0.527581 0
M  V30 3083 O 300.941 -1.65198 -1.39781 0
M  V30 3084 C 301.536 -2.93891 1.68563 0
M  V30 3085 C 300.095 -3.44639 1.5133 0
M  V30 3086 C 299.242 -2.18767 1.704 0
M  V30 3087 H 302.193 -0.909201 1.30074 0
M  V30 3088 H 302.214 -3.62623 1.15259 0
M  V30 3089 H 301.726 -2.74057 2.74799 0
M  V30 3090 H 299.827 -3.69564 0.474702 0
M  V30 3091 H 299.94 -4.20966 2.28746 0
M  V30 3092 H 298.304 -2.28253 1.13016 0
M  V30 3093 H 299.087 -2.01433 2.77992 0
M  V30 3094 N 301.532 -0.945985 -1.26051 0
M  V30 3095 C 302.48 -0.450259 -2.282 0
M  V30 3096 C 303.474 0.47497 -1.62605 0
M  V30 3097 O 304.68 0.352653 -1.76512 0
M  V30 3098 H 301.055 -0.127081 -0.741184 0
M  V30 3099 H 303.026 -1.32422 -2.67408 0
M  V30 3100 C 301.775 0.26467 -3.46691 0
M  V30 3101 H 301.098 -0.438123 -3.97392 0
M  V30 3102 H 302.538 0.575678 -4.20074 0
M  V30 3103 C 300.997 1.48416 -3.02447 0
M  V30 3104 O 301.527 2.58227 -3.07704 0
M  V30 3105 N 299.733 1.34243 -2.57735 0
M  V30 3106 H 299.28 0.448994 -2.53657 0
M  V30 3107 H 299.238 2.15957 -2.28495 0
M  V30 3108 N 303.011 1.40521 -0.713556 0
M  V30 3109 C 303.921 2.34522 -0.0606667 0
M  V30 3110 C 304.937 1.57193 0.74607 0
M  V30 3111 O 306.113 1.89591 0.679493 0
M  V30 3112 C 303.178 3.36081 0.851491 0
M  V30 3113 C 302.239 4.29286 0.0349339 0
M  V30 3114 C 301.472 5.25994 0.903649 0
M  V30 3115 O 301.695 5.28616 2.14292 0
M  V30 3116 O 300.629 6.00918 0.343723 0
M  V30 3117 H 304.455 2.91968 -0.835972 0
M  V30 3118 H 302.04 1.41681 -0.47402 0
M  V30 3119 H 303.922 3.98369 1.37404 0
M  V30 3120 H 302.597 2.81052 1.60598 0
M  V30 3121 H 301.504 3.70289 -0.532633 0
M  V30 3122 H 302.837 4.87462 -0.681287 0
M  V30 3123 N 304.489 0.459591 1.5075 0
M  V30 3124 C 305.9 0.00171547 1.867 0
M  V30 3125 C 306.251 -1.39934 1.37525 0
M  V30 3126 O 305.376 -2.03523 0.735349 0
M  V30 3127 C 305.971 -0.00366298 3.388 0
M  V30 3128 C 304.53 -0.406026 3.74204 0
M  V30 3129 C 303.677 0.38673 2.7459 0
M  V30 3130 H 306.628 0.674413 1.43657 0
M  V30 3131 H 306.649 -0.808371 3.71814 0
M  V30 3132 H 306.161 1.01617 3.74561 0
M  V30 3133 H 304.262 -1.43063 3.4404 0
M  V30 3134 H 304.375 -0.115362 4.78961 0
M  V30 3135 H 302.739 -0.158019 2.54209 0
M  V30 3136 H 303.522 1.40585 3.13194 0
M  V30 3137 N 305.967 -1.56429 0.191757 0
M  V30 3138 C 306.917 -2.15548 -0.743184 0
M  V30 3139 C 307.901 -1.09531 -1.17863 0
M  V30 3140 O 309.093 -1.35602 -1.13759 0
M  V30 3141 C 306.222 -2.81577 -1.96391 0
M  V30 3142 C 305.308 -3.9478 -1.54951 0
M  V30 3143 N 305.699 -4.98677 -0.845876 0
M  V30 3144 C 303.997 -4.06319 -1.83905 0
M  V30 3145 C 304.698 -5.78183 -0.638724 0
M  V30 3146 N 303.674 -5.30495 -1.18643 0
M  V30 3147 H 307.476 -2.9324 -0.196839 0
M  V30 3148 H 304.99 -1.62398 -0.0081603 0
M  V30 3149 H 306.987 -3.22321 -2.64415 0
M  V30 3150 H 305.647 -2.05371 -2.51501 0
M  V30 3151 H 306.658 -5.15464 -0.501704 0
M  V30 3152 H 303.335 -3.41238 -2.40548 0
M  V30 3153 H 304.725 -6.71851 -0.0807929 0
M  V30 3154 N 307.445 0.0818655 -1.57387 0
M  V30 3155 C 308.691 0.784074 -1.8703 0
M  V30 3156 C 309.024 1.77729 -0.782689 0
M  V30 3157 O 308.299 1.93384 0.208051 0
M  V30 3158 C 308.582 1.50105 -3.27323 0
M  V30 3159 C 308.435 0.524925 -4.46727 0
M  V30 3160 C 309.754 2.44843 -3.65705 0
M  V30 3161 H 306.873 0.283582 -0.680257 0
M  V30 3162 H 309.515 0.0474352 -1.89941 0
M  V30 3163 H 307.665 2.12897 -3.24972 0
M  V30 3164 H 309.337 -0.0970111 -4.61198 0
M  V30 3165 H 307.58 -0.160606 -4.33503 0
M  V30 3166 H 308.251 1.064 -5.41648 0
M  V30 3167 H 310.727 1.92135 -3.69085 0
M  V30 3168 H 309.603 2.92018 -4.64776 0
M  V30 3169 H 309.864 3.29197 -2.95096 0
M  V30 3170 N 308.923 1.53595 0.353017 0
M  V30 3171 C 310.153 1.74058 1.11299 0
M  V30 3172 C 310.561 0.475205 1.83135 0
M  V30 3173 O 309.904 -0.562344 1.74881 0
M  V30 3174 C 309.966 2.85994 2.17825 0
M  V30 3175 C 309.63 4.25923 1.65647 0
M  V30 3176 C 310.627 5.07829 1.11383 0
M  V30 3177 C 308.312 4.72377 1.7078 0
M  V30 3178 C 310.306 6.34285 0.629439 0
M  V30 3179 C 307.993 5.98808 1.21953 0
M  V30 3180 C 308.991 6.79594 0.681265 0
M  V30 3181 O 308.679 8.03651 0.200248 0
M  V30 3182 H 308.411 0.585327 0.338183 0
M  V30 3183 H 310.965 2.01186 0.413927 0
M  V30 3184 H 309.195 2.54368 2.91262 0
M  V30 3185 H 310.884 2.94515 2.79313 0
M  V30 3186 H 311.65 4.73107 1.06746 0
M  V30 3187 H 307.529 4.0956 2.11617 0
M  V30 3188 H 311.073 6.97288 0.208636 0
M  V30 3189 H 306.97 6.33026 1.26287 0
M  V30 3190 H 307.738 8.1788 0.318416 0
M  V30 3191 N 310.401 -0.613514 1.45168 0
M  V30 3192 C 311.331 -1.7354 1.56225 0
M  V30 3193 C 312.312 -1.64981 0.41414 0
M  V30 3194 O 313.497 -1.83472 0.636526 0
M  V30 3195 C 310.627 -3.12128 1.52295 0
M  V30 3196 C 309.581 -3.35491 2.65762 0
M  V30 3197 C 308.907 -4.74291 2.46885 0
M  V30 3198 C 310.207 -3.26325 4.0781 0
M  V30 3199 H 311.901 -1.64543 2.50132 0
M  V30 3200 H 309.447 -0.790185 1.20383 0
M  V30 3201 H 311.4 -3.90404 1.58628 0
M  V30 3202 H 310.124 -3.2195 0.549139 0
M  V30 3203 H 308.783 -2.59603 2.58847 0
M  V30 3204 H 308.431 -4.80839 1.47657 0
M  V30 3205 H 308.131 -4.9088 3.22972 0
M  V30 3206 H 309.655 -5.54775 2.55063 0
M  V30 3207 H 311.069 -3.94483 4.16 0
M  V30 3208 H 309.466 -3.54445 4.8424 0
M  V30 3209 H 310.536 -2.23855 4.30136 0
M  V30 3210 N 311.879 -1.3236 -0.855495 0
M  V30 3211 C 313.29 -1.2056 -1.42556 0
M  V30 3212 C 313.641 0.182209 -1.95352 0
M  V30 3213 O 312.766 1.08088 -1.87472 0
M  V30 3214 C 313.361 -2.1826 -2.59129 0
M  V30 3215 C 311.92 -2.10351 -3.12137 0
M  V30 3216 C 311.067 -2.06674 -1.84882 0
M  V30 3217 H 314.018 -1.442 -0.662727 0
M  V30 3218 H 314.039 -1.78064 -3.36264 0
M  V30 3219 H 313.551 -3.19257 -2.20673 0
M  V30 3220 H 311.652 -1.12599 -3.55179 0
M  V30 3221 H 311.765 -3.00135 -3.73438 0
M  V30 3222 H 310.129 -1.51901 -2.04446 0
M  V30 3223 H 310.912 -3.09451 -1.48643 0
M  V30 3224 N 313.357 1.07166 -1.15556 0
M  V30 3225 C 314.605 1.79443 -0.929764 0
M  V30 3226 C 314.926 1.87246 0.544414 0
M  V30 3227 O 314.196 1.37473 1.39564 0
M  V30 3228 H 312.776 0.664625 -0.341003 0
M  V30 3229 H 315.438 1.29499 -1.45657 0
M  V30 3230 H 314.534 2.81832 -1.34079 0
M  V30 3231 N 314.835 0.952656 1.25548 0
M  V30 3232 C 315.765 0.489287 2.28316 0
M  V30 3233 C 316.746 -0.463359 1.63667 0
M  V30 3234 O 317.931 -0.36274 1.90782 0
M  V30 3235 C 315.061 -0.235603 3.465 0
M  V30 3236 C 314.015 0.631593 4.23314 0
M  V30 3237 C 313.341 -0.223923 5.34231 0
M  V30 3238 C 314.641 1.90871 4.86174 0
M  V30 3239 H 316.335 1.34822 2.67326 0
M  V30 3240 H 313.881 0.649728 1.28509 0
M  V30 3241 H 315.834 -0.570882 4.17515 0
M  V30 3242 H 314.558 -1.12877 3.06474 0
M  V30 3243 H 313.217 0.949929 3.54079 0
M  V30 3244 H 312.865 -1.11678 4.90446 0
M  V30 3245 H 312.565 0.35299 5.86539 0
M  V30 3246 H 314.089 -0.554214 6.0808 0
M  V30 3247 H 315.503 1.63997 5.49343 0
M  V30 3248 H 313.9 2.43112 5.4865 0
M  V30 3249 H 314.97 2.61304 4.08471 0
M  V30 3250 N 316.313 -1.40141 0.720998 0
M  V30 3251 C 317.562 -2.0002 0.259804 0
M  V30 3252 C 317.875 -1.57839 -1.15526 0
M  V30 3253 O 319.081 -2.10455 -1.71525 0
M  V30 3254 C 317.537 -3.57516 0.413566 0
M  V30 3255 C 317.145 -4.08667 1.83562 0
M  V30 3256 C 318.889 -4.24498 0.0134387 0
M  V30 3257 C 316.796 -5.58686 1.93968 0
M  V30 3258 H 315.726 -0.748195 0.0933806 0
M  V30 3259 H 318.377 -1.60313 0.892866 0
M  V30 3260 H 316.759 -3.9495 -0.288169 0
M  V30 3261 H 317.933 -3.82598 2.56817 0
M  V30 3262 H 316.248 -3.543 2.1877 0
M  V30 3263 H 318.845 -5.34654 0.0703954 0
M  V30 3264 H 319.188 -4.03375 -1.02927 0
M  V30 3265 H 319.721 -3.92188 0.665815 0
M  V30 3266 H 316.46 -5.8467 2.96379 0
M  V30 3267 H 315.98 -5.86602 1.25131 0
M  V30 3268 H 317.659 -6.23875 1.71431 0
M  V30 3269 N 317.792 -0.46758 -1.50504 0
M  V30 3270 C 319.041 0.0902868 -2.01498 0
M  V30 3271 C 319.354 1.411 -1.35463 0
M  V30 3272 O 320.56 2.0536 -1.77594 0
M  V30 3273 C 319.016 0.21142 -3.59278 0
M  V30 3274 C 318.624 -1.10065 -4.34269 0
M  V30 3275 C 320.368 0.721433 -4.18325 0
M  V30 3276 C 318.275 -0.943505 -5.83825 0
M  V30 3277 H 317.205 0.037517 -0.753066 0
M  V30 3278 H 319.856 -0.601943 -1.73346 0
M  V30 3279 H 318.238 0.967352 -3.84003 0
M  V30 3280 H 319.412 -1.86726 -4.21272 0
M  V30 3281 H 317.727 -1.5415 -3.86816 0
M  V30 3282 H 320.324 0.85598 -5.27804 0
M  V30 3283 H 320.667 1.71186 -3.79475 0
M  V30 3284 H 321.2 0.0229843 -3.97793 0
M  V30 3285 H 317.939 -1.90719 -6.27141 0
M  V30 3286 H 317.459 -0.217213 -5.99407 0
M  V30 3287 H 319.138 -0.608715 -6.4413 0
M  V30 3288 N 319.27 1.56325 -0.20005 0
M  V30 3289 C 320.2 2.22318 0.713916 0
M  V30 3290 C 321.181 1.18788 1.21752 0
M  V30 3291 O 322.366 1.47309 1.26545 0
M  V30 3292 C 319.496 2.88639 1.93144 0
M  V30 3293 C 318.45 3.98457 1.56255 0
M  V30 3294 C 317.776 4.51967 2.85709 0
M  V30 3295 C 319.076 5.16612 0.768747 0
M  V30 3296 H 320.77 2.98952 0.163755 0
M  V30 3297 H 318.316 1.43792 0.0773219 0
M  V30 3298 H 320.269 3.33491 2.57608 0
M  V30 3299 H 318.993 2.09419 2.50621 0
M  V30 3300 H 317.652 3.54305 0.941471 0
M  V30 3301 H 317.3 3.69503 3.41287 0
M  V30 3302 H 317 5.26071 2.6177 0
M  V30 3303 H 318.524 4.99523 3.51154 0
M  V30 3304 H 319.938 5.57977 1.3166 0
M  V30 3305 H 318.335 5.96812 0.627286 0
M  V30 3306 H 319.405 4.84358 -0.229168 0
M  V30 3307 N 320.748 -0.0735177 1.57428 0
M  V30 3308 C 321.678 -1.0879 2.06608 0
M  V30 3309 C 322.659 -1.40473 0.959237 0
M  V30 3310 O 323.844 -1.5013 1.23185 0
M  V30 3311 C 320.974 -2.40183 2.50857 0
M  V30 3312 C 319.928 -2.22858 3.65402 0
M  V30 3313 C 319.254 -3.59619 3.957 0
M  V30 3314 C 320.554 -1.65123 4.95511 0
M  V30 3315 H 322.248 -0.678673 2.91607 0
M  V30 3316 H 319.794 -0.325013 1.40284 0
M  V30 3317 H 321.747 -3.11437 2.83874 0
M  V30 3318 H 320.471 -2.83083 1.62885 0
M  V30 3319 H 319.13 -1.54045 3.32664 0
M  V30 3320 H 318.778 -4.00086 3.04861 0
M  V30 3321 H 318.478 -3.48866 4.72828 0
M  V30 3322 H 320.002 -4.32306 4.31212 0
M  V30 3323 H 321.416 -2.26241 5.26771 0
M  V30 3324 H 319.813 -1.65071 5.7695 0
M  V30 3325 H 320.883 -0.612559 4.81015 0
M  V30 3326 N 322.226 -1.5378 -0.344866 0
M  V30 3327 C 323.156 -1.84662 -1.42906 0
M  V30 3328 C 324.137 -0.701648 -1.54955 0
M  V30 3329 O 325.322 -0.953438 -1.69184 0
M  V30 3330 C 322.452 -2.05503 -2.79974 0
M  V30 3331 C 321.406 -3.21318 -2.82734 0
M  V30 3332 C 320.732 -3.2749 -4.22675 0
M  V30 3333 C 322.032 -4.59456 -2.48389 0
M  V30 3334 H 323.726 -2.75461 -1.17311 0
M  V30 3335 H 321.272 -1.32542 -0.562896 0
M  V30 3336 H 323.225 -2.25691 -3.55867 0
M  V30 3337 H 321.949 -1.11434 -3.07002 0
M  V30 3338 H 320.608 -3.00984 -2.09294 0
M  V30 3339 H 320.256 -2.31019 -4.4681 0
M  V30 3340 H 319.956 -4.05316 -4.25433 0
M  V30 3341 H 321.48 -3.49887 -5.00412 0
M  V30 3342 H 322.894 -4.79667 -3.13995 0
M  V30 3343 H 321.291 -5.39675 -2.62432 0
M  V30 3344 H 322.361 -4.63155 -1.4358 0
M  V30 3345 N 323.704 0.605807 -1.45491 0
M  V30 3346 C 324.951 1.36476 -1.49601 0
M  V30 3347 C 325.279 1.94007 -0.138452 0
M  V30 3348 O 324.534 1.75638 0.863114 0
M  V30 3349 C 324.833 2.53012 -2.52428 0
M  V30 3350 C 324.499 2.13617 -3.97087 0
M  V30 3351 C 323.161 2.02587 -4.36477 0
M  V30 3352 C 325.513 1.82899 -4.88055 0
M  V30 3353 C 322.841 1.59064 -5.64726 0
M  V30 3354 C 325.193 1.40861 -6.16718 0
M  V30 3355 C 323.857 1.28391 -6.55036 0
M  V30 3356 H 323.127 0.499402 -0.547429 0
M  V30 3357 H 325.774 0.684546 -1.78847 0
M  V30 3358 H 324.079 3.26379 -2.16758 0
M  V30 3359 H 325.776 3.1124 -2.52845 0
M  V30 3360 H 322.366 2.23129 -3.65939 0
M  V30 3361 H 326.55 1.90317 -4.58359 0
M  V30 3362 H 321.806 1.48034 -5.93208 0
M  V30 3363 H 325.98 1.16138 -6.86648 0
M  V30 3364 H 323.607 0.944403 -7.54311 0
M  V30 3365 N 325.182 1.32811 0.848464 0
M  V30 3366 C 326.145 1.22194 1.9391 0
M  V30 3367 C 327.145 0.143404 1.60159 0
M  V30 3368 O 328.335 0.394253 1.6968 0
M  V30 3369 C 325.467 0.88067 3.29328 0
M  V30 3370 H 326.66 2.19127 2.04752 0
M  V30 3371 H 324.213 1.16731 1.0394 0
M  V30 3372 H 324.948 -0.0865776 3.24184 0
M  V30 3373 H 324.733 1.66052 3.55203 0
M  V30 3374 H 326.223 0.830871 4.09251 0
M  V30 3375 N 326.66 -1.06551 1.16123 0
M  V30 3376 C 327.885 -1.83544 0.965735 0
M  V30 3377 C 328.31 -1.81843 -0.481102 0
M  V30 3378 O 327.668 -1.21732 -1.34354 0
M  V30 3379 C 327.716 -3.28169 1.49457 0
M  V30 3380 O 326.82 -4.0643 0.699157 0
M  V30 3381 H 326.161 -0.568026 0.343864 0
M  V30 3382 H 328.691 -1.34362 1.54299 0
M  V30 3383 H 328.701 -3.78992 1.51092 0
M  V30 3384 H 327.376 -3.28722 2.54784 0
M  V30 3385 H 325.953 -3.65216 0.7531 0
M  V30 3386 N 328.138 -0.959301 -1.25041 0
M  V30 3387 C 329.384 -0.617525 -1.9317 0
M  V30 3388 C 329.717 0.843981 -1.74902 0
M  V30 3389 O 328.992 1.60615 -1.09696 0
M  V30 3390 C 329.275 -0.982736 -3.46431 0
M  V30 3391 C 329.128 -2.50032 -3.73904 0
M  V30 3392 C 330.447 -0.511176 -4.37121 0
M  V30 3393 H 327.566 -0.22582 -0.701552 0
M  V30 3394 H 330.208 -1.19679 -1.4757 0
M  V30 3395 H 328.358 -0.489806 -3.854 0
M  V30 3396 H 330.03 -3.06737 -3.44544 0
M  V30 3397 H 328.273 -2.93598 -3.19348 0
M  V30 3398 H 328.944 -2.70635 -4.81103 0
M  V30 3399 H 331.42 -0.934075 -4.0548 0
M  V30 3400 H 330.296 -0.795361 -5.43107 0
M  V30 3401 H 330.557 0.588834 -4.38161 0
M  V30 3402 N 329.616 1.39756 -0.72842 0
M  V30 3403 C 330.579 2.29012 -0.0927297 0
M  V30 3404 C 331.579 1.45992 0.674025 0
M  V30 3405 O 332.769 1.66749 0.50402 0
M  V30 3406 C 329.901 3.29396 0.878137 0
M  V30 3407 H 331.094 2.86729 -0.879011 0
M  V30 3408 H 328.647 1.48293 -0.493847 0
M  V30 3409 H 329.382 2.76722 1.69101 0
M  V30 3410 H 329.167 3.907 0.331051 0
M  V30 3411 H 330.657 3.96199 1.3197 0
M  V30 3412 N 331.094 0.475555 1.50254 0
M  V30 3413 C 332.024 -0.30611 2.31485 0
M  V30 3414 C 333.005 -0.986228 1.38591 0
M  V30 3415 O 334.19 -0.982541 1.67511 0
M  V30 3416 C 331.32 -1.38588 3.1845 0
M  V30 3417 C 330.274 -0.827115 4.19932 0
M  V30 3418 C 329.6 -2.00551 4.95665 0
M  V30 3419 C 330.9 0.16463 5.2204 0
M  V30 3420 H 332.594 0.371866 2.97082 0
M  V30 3421 H 330.14 0.180282 1.42867 0
M  V30 3422 H 332.093 -1.94023 3.74076 0
M  V30 3423 H 330.817 -2.09269 2.50747 0
M  V30 3424 H 329.476 -0.294702 3.65414 0
M  V30 3425 H 329.124 -2.6994 4.2443 0
M  V30 3426 H 328.824 -1.63784 5.64313 0
M  V30 3427 H 330.348 -2.56468 5.54127 0
M  V30 3428 H 331.762 -0.300699 5.72511 0
M  V30 3429 H 330.159 0.446813 5.98434 0
M  V30 3430 H 331.229 1.08905 4.72512 0
M  V30 3431 N 332.573 -1.56217 0.208337 0
M  V30 3432 C 333.819 -1.98242 -0.427552 0
M  V30 3433 C 334.152 -1.09554 -1.60348 0
M  V30 3434 O 333.427 -0.15035 -1.93918 0
M  V30 3435 C 333.71 -3.4931 -0.874907 0
M  V30 3436 C 333.563 -4.48773 0.303751 0
M  V30 3437 C 334.882 -4.04424 -1.73577 0
M  V30 3438 H 332.001 -0.720744 -0.153936 0
M  V30 3439 H 334.643 -1.87586 0.30192 0
M  V30 3440 H 332.793 -3.58522 -1.49648 0
M  V30 3441 H 334.465 -4.51586 0.941682 0
M  V30 3442 H 332.708 -4.23194 0.953375 0
M  V30 3443 H 333.379 -5.51976 -0.0519883 0
M  V30 3444 H 335.855 -3.98075 -1.21143 0
M  V30 3445 H 334.731 -5.1047 -2.01771 0
M  V30 3446 H 334.992 -3.50494 -2.69456 0
M  V30 3447 N 334.051 0.0651679 -1.57465 0
M  V30 3448 C 335.014 1.06117 -2.03155 0
M  V30 3449 C 336.014 1.31204 -0.929632 0
M  V30 3450 O 337.204 1.26813 -1.19432 0
M  V30 3451 C 334.336 2.4032 -2.41783 0
M  V30 3452 H 335.529 0.667231 -2.92383 0
M  V30 3453 H 333.082 0.311075 -1.53173 0
M  V30 3454 H 333.817 2.84532 -1.55601 0
M  V30 3455 H 333.602 2.23451 -3.22199 0
M  V30 3456 H 335.092 3.11898 -2.77685 0
M  V30 3457 N 335.529 1.53961 0.336706 0
M  V30 3458 C 336.492 1.81724 1.39675 0
M  V30 3459 C 337.492 0.688532 1.45313 0
M  V30 3460 O 338.682 0.956829 1.45569 0
M  V30 3461 C 335.814 1.96543 2.78538 0
M  V30 3462 H 337.007 2.76424 1.16318 0
M  V30 3463 H 334.56 1.45478 0.571474 0
M  V30 3464 H 335.295 1.0401 3.07168 0
M  V30 3465 H 335.08 2.78665 2.75841 0
M  V30 3466 H 336.57 2.19516 3.5525 0
M  V30 3467 N 337.007 -0.598083 1.45811 0
M  V30 3468 C 338.256 -1.35295 1.49594 0
M  V30 3469 C 338.569 -1.95057 0.145679 0
M  V30 3470 O 339.775 -2.71431 0.0612099 0
M  V30 3471 C 338.231 -2.45124 2.63519 0
M  V30 3472 C 337.839 -1.91732 4.04899 0
M  V30 3473 C 339.583 -3.2205 2.76558 0
M  V30 3474 C 337.49 -2.991 5.1019 0
M  V30 3475 H 336.42 -0.508552 0.556679 0
M  V30 3476 H 339.071 -0.639977 1.71978 0
M  V30 3477 H 337.453 -3.19149 2.34435 0
M  V30 3478 H 338.627 -1.24352 4.43704 0
M  V30 3479 H 336.942 -1.27522 3.96393 0
M  V30 3480 H 339.539 -4.0215 3.52391 0
M  V30 3481 H 339.882 -3.73663 1.83526 0
M  V30 3482 H 340.415 -2.55127 3.05213 0
M  V30 3483 H 337.154 -2.52393 6.04961 0
M  V30 3484 H 336.674 -3.65017 4.75944 0
M  V30 3485 H 338.353 -3.63318 5.35359 0
M  V30 3486 N 338.485 -1.33259 -0.841409 0
M  V30 3487 C 339.734 -1.23921 -1.59143 0
M  V30 3488 C 340.047 0.1941 -1.94635 0
M  V30 3489 O 341.253 0.409474 -2.68394 0
M  V30 3490 C 339.709 -2.17119 -2.87032 0
M  V30 3491 C 339.317 -3.65606 -2.58914 0
M  V30 3492 C 341.061 -2.16648 -3.65053 0
M  V30 3493 C 338.968 -4.50726 -3.82884 0
M  V30 3494 H 337.898 -0.460264 -0.597221 0
M  V30 3495 H 340.549 -1.58307 -0.927959 0
M  V30 3496 H 338.931 -1.75663 -3.54906 0
M  V30 3497 H 340.105 -4.15487 -1.99267 0
M  V30 3498 H 338.42 -3.68341 -1.942 0
M  V30 3499 H 341.017 -2.77474 -4.57069 0
M  V30 3500 H 341.36 -1.16088 -3.99787 0
M  V30 3501 H 341.893 -2.56453 -3.041 0
M  V30 3502 H 338.632 -5.52151 -3.53283 0
M  V30 3503 H 338.152 -4.0559 -4.41879 0
M  V30 3504 H 339.831 -4.64401 -4.50489 0
M  V30 3505 N 339.963 1.05934 -1.16686 0
M  V30 3506 C 341.21 1.788 -0.950622 0
M  V30 3507 C 341.538 1.87384 0.521305 0
M  V30 3508 O 340.793 1.36438 1.40297 0
M  V30 3509 C 341.092 3.23105 -1.52767 0
M  V30 3510 C 340.758 3.34594 -3.02254 0
M  V30 3511 C 339.42 3.37437 -3.43059 0
M  V30 3512 C 341.772 3.36219 -3.98254 0
M  V30 3513 C 339.1 3.39525 -4.78477 0
M  V30 3514 C 341.452 3.39845 -5.33562 0
M  V30 3515 C 340.116 3.40971 -5.73842 0
M  V30 3516 H 339.386 0.654275 -0.347857 0
M  V30 3517 H 342.033 1.24555 -1.45459 0
M  V30 3518 H 340.338 3.80227 -0.94524 0
M  V30 3519 H 342.035 3.7809 -1.336 0
M  V30 3520 H 338.625 3.3309 -2.6972 0
M  V30 3521 H 342.809 3.33231 -3.67792 0
M  V30 3522 H 338.065 3.38703 -5.09009 0
M  V30 3523 H 342.239 3.4005 -6.07733 0
M  V30 3524 H 339.866 3.42342 -6.78753 0
M  V30 3525 N 341.441 0.965919 1.2453 0
M  V30 3526 C 342.689 0.625593 1.92174 0
M  V30 3527 C 343.01 -0.841652 1.75901 0
M  V30 3528 O 342.28 -1.60061 1.12948 0
M  V30 3529 H 340.86 0.228388 0.71123 0
M  V30 3530 H 343.522 1.2266 1.51461 0
M  V30 3531 H 342.618 0.864653 2.99884 0
M  V30 3532 N 342.919 -1.39368 0.735821 0
M  V30 3533 C 344.165 -2.00794 0.284544 0
M  V30 3534 C 344.498 -1.58255 -1.12557 0
M  V30 3535 O 343.773 -0.811819 -1.76748 0
M  V30 3536 C 344.056 -3.58011 0.387337 0
M  V30 3537 C 343.909 -4.10566 1.83728 0
M  V30 3538 C 345.228 -4.395 -0.22975 0
M  V30 3539 H 342.347 -0.729501 0.104866 0
M  V30 3540 H 344.989 -1.65564 0.93213 0
M  V30 3541 H 343.139 -3.88154 -0.164006 0
M  V30 3542 H 344.811 -3.91139 2.44556 0
M  V30 3543 H 343.054 -3.64095 2.35833 0
M  V30 3544 H 343.725 -5.19702 1.86047 0
M  V30 3545 H 346.201 -4.15406 0.240257 0
M  V30 3546 H 345.077 -5.48752 -0.127485 0
M  V30 3547 H 345.338 -4.22062 -1.3159 0
M  V30 3548 N 344.397 -0.483516 -1.5 0
M  V30 3549 C 345.637 0.0657469 -2.04294 0
M  V30 3550 C 346.001 1.35869 -1.35659 0
M  V30 3551 O 347.202 1.99111 -1.80578 0
M  V30 3552 C 345.473 0.232758 -3.56641 0
M  V30 3553 S 347.032 0.738788 -4.32536 0
M  V30 3554 H 343.85 0.0100755 -0.710929 0
M  V30 3555 H 346.452 -0.653494 -1.84254 0
M  V30 3556 H 345.156 -0.713847 -4.04144 0
M  V30 3557 H 344.687 0.977751 -3.81056 0
M  V30 3558 H 346.702 2.01048 -4.53645 0
M  V30 3559 N 345.875 1.56104 -0.216619 0
M  V30 3560 C 347.105 2.02269 0.420802 0
M  V30 3561 C 347.513 1.09575 1.5424 0
M  V30 3562 O 346.856 0.0967308 1.83445 0
M  V30 3563 C 346.918 3.44784 1.01806 0
M  V30 3564 C 346.582 4.56988 0.0325154 0
M  V30 3565 C 347.579 5.14225 -0.766055 0
M  V30 3566 C 345.264 5.02228 -0.0848092 0
M  V30 3567 C 347.258 6.15169 -1.6687 0
M  V30 3568 C 344.945 6.03011 -0.990994 0
M  V30 3569 C 345.943 6.59357 -1.78149 0
M  V30 3570 O 345.631 7.58179 -2.67245 0
M  V30 3571 H 345.363 0.667353 0.107776 0
M  V30 3572 H 347.917 2.02747 -0.329034 0
M  V30 3573 H 346.147 3.41359 1.81689 0
M  V30 3574 H 347.836 3.74626 1.56237 0
M  V30 3575 H 348.602 4.80126 -0.685836 0
M  V30 3576 H 344.481 4.58054 0.520349 0
M  V30 3577 H 348.025 6.59076 -2.28615 0
M  V30 3578 H 343.922 6.36532 -1.07225 0
M  V30 3579 H 344.69 7.75682 -2.61265 0
M  V30 3580 N 347.353 -0.0568162 1.57498 0
M  V30 3581 C 348.769 -0.411933 1.54192 0
M  V30 3582 C 348.969 -1.78287 0.938942 0
M  V30 3583 O 348.025 -2.46483 0.547919 0
M  V30 3584 C 349.338 -0.339244 2.9878 0
M  V30 3585 C 350.886 -0.418348 3.10192 0
M  V30 3586 C 351.361 -0.375407 4.56459 0
M  V30 3587 N 352.852 -0.435038 4.61153 0
M  V30 3588 C 353.587 -0.424265 5.71828 0
M  V30 3589 N 353.083 -0.367418 6.91825 0
M  V30 3590 N 354.876 -0.471938 5.60115 0
M  V30 3591 H 347.027 0.840684 1.95055 0
M  V30 3592 H 349.29 0.316987 0.893433 0
M  V30 3593 H 348.996 0.601742 3.46514 0
M  V30 3594 H 348.87 -1.14371 3.59443 0
M  V30 3595 H 351.257 -1.34976 2.62422 0
M  V30 3596 H 351.338 0.414962 2.52412 0
M  V30 3597 H 350.982 0.552219 5.04889 0
M  V30 3598 H 350.912 -1.22645 5.12119 0
M  V30 3599 H 353.403 -0.482612 3.74806 0
M  V30 3600 H 353.716 -0.363535 7.71944 0
M  V30 3601 H 352.061 -0.333879 6.94198 0
M  V30 3602 H 355.252 -0.514145 4.65268 0
M  V30 3603 H 355.425 -0.460073 6.46365 0
M  V30 3604 N 348.832 -1.54138 -0.328536 0
M  V30 3605 C 349.779 -1.83176 -1.40411 0
M  V30 3606 C 350.749 -0.678494 -1.5161 0
M  V30 3607 O 351.934 -0.92443 -1.6691 0
M  V30 3608 C 349.074 -2.06035 -2.76846 0
M  V30 3609 C 348.187 -3.33727 -2.74318 0
M  V30 3610 C 347.322 -3.46574 -4.02567 0
M  V30 3611 C 346.361 -4.68159 -3.94327 0
M  V30 3612 N 345.498 -4.77959 -5.14296 0
M  V30 3613 H 350.338 -2.74938 -1.14948 0
M  V30 3614 H 347.875 -1.36166 -0.556538 0
M  V30 3615 H 349.833 -2.1728 -3.56153 0
M  V30 3616 H 348.463 -1.1757 -3.00628 0
M  V30 3617 H 347.515 -3.31246 -1.8703 0
M  V30 3618 H 348.827 -4.23139 -2.64111 0
M  V30 3619 H 347.981 -3.57333 -4.90304 0
M  V30 3620 H 346.72 -2.55245 -4.15574 0
M  V30 3621 H 345.725 -4.57461 -3.04974 0
M  V30 3622 H 346.95 -5.60868 -3.82889 0
M  V30 3623 H 344.896 -3.89544 -5.27818 0
M  V30 3624 H 344.813 -5.6133 -5.06404 0
M  V30 3625 H 346.081 -4.93044 -6.03761 0
M  V30 3626 N 350.31 0.590341 -1.46126 0
M  V30 3627 C 351.257 1.69994 -1.56111 0
M  V30 3628 C 352.227 1.61065 -0.405867 0
M  V30 3629 O 353.412 1.8039 -0.621613 0
M  V30 3630 C 350.552 3.08326 -1.55013 0
M  V30 3631 C 349.665 3.27936 -2.81215 0
M  V30 3632 C 348.8 4.56473 -2.71673 0
M  V30 3633 C 347.839 4.694 -3.92849 0
M  V30 3634 N 346.976 5.89254 -3.81738 0
M  V30 3635 H 351.816 1.60797 -2.50895 0
M  V30 3636 H 349.353 0.783799 -1.24479 0
M  V30 3637 H 351.311 3.88383 -1.52362 0
M  V30 3638 H 349.941 3.16439 -0.637667 0
M  V30 3639 H 348.993 2.41536 -2.93879 0
M  V30 3640 H 350.305 3.33357 -3.71045 0
M  V30 3641 H 349.459 5.44748 -2.67085 0
M  V30 3642 H 348.198 4.53477 -1.7947 0
M  V30 3643 H 347.203 3.79544 -3.97777 0
M  V30 3644 H 348.428 4.7418 -4.86138 0
M  V30 3645 H 346.374 5.87271 -2.92317 0
M  V30 3646 H 346.291 5.95911 -4.65217 0
M  V30 3647 H 347.559 6.79981 -3.81112 0
M  V30 3648 N 351.788 1.33704 0.83433 0
M  V30 3649 C 353.036 1.25169 1.58673 0
M  V30 3650 C 353.357 -0.18127 1.94156 0
M  V30 3651 O 352.627 -1.11113 1.6134 0
M  V30 3652 H 351.207 0.4603 0.58833 0
M  V30 3653 H 353.869 1.67478 0.996847 0
M  V30 3654 H 352.965 1.84856 2.51465 0
M  V30 3655 N 353.266 -1.05314 1.17247 0
M  V30 3656 C 354.213 -2.13031 0.888058 0
M  V30 3657 C 355.183 -1.65253 -0.167537 0
M  V30 3658 O 356.368 -1.90775 -0.0305974 0
M  V30 3659 C 353.508 -3.42702 0.406147 0
M  V30 3660 C 352.621 -4.04161 1.52572 0
M  V30 3661 C 351.756 -5.21744 0.997808 0
M  V30 3662 C 350.795 -5.75207 2.09291 0
M  V30 3663 N 349.932 -6.84094 1.57986 0
M  V30 3664 H 354.772 -2.36698 1.81048 0
M  V30 3665 H 352.309 -1.16121 0.903013 0
M  V30 3666 H 354.267 -4.17059 0.108305 0
M  V30 3667 H 352.897 -3.19222 -0.479313 0
M  V30 3668 H 351.949 -3.27253 1.93931 0
M  V30 3669 H 353.261 -4.39881 2.35172 0
M  V30 3670 H 352.415 -6.03168 0.653739 0
M  V30 3671 H 351.154 -4.87495 0.141232 0
M  V30 3672 H 350.159 -4.92414 2.44557 0
M  V30 3673 H 351.384 -6.11505 2.95362 0
M  V30 3674 H 349.33 -6.51745 0.74598 0
M  V30 3675 H 349.247 -7.18811 2.34195 0
M  V30 3676 H 350.515 -7.69172 1.26468 0
M  V30 3677 N 354.744 -0.972509 -1.24016 0
M  V30 3678 C 355.707 -0.511403 -2.23422 0
M  V30 3679 C 356.707 0.394679 -1.55881 0
M  V30 3680 O 357.897 0.189469 -1.73167 0
M  V30 3681 C 355.029 0.258769 -3.39916 0
M  V30 3682 H 356.222 -1.39024 -2.6573 0
M  V30 3683 H 353.775 -0.757585 -1.36713 0
M  V30 3684 H 354.51 1.1545 -3.03054 0
M  V30 3685 H 354.295 -0.391522 -3.9014 0
M  V30 3686 H 355.785 0.570244 -4.13688 0
M  V30 3687 N 356.222 1.38976 -0.743202 0
M  V30 3688 C 357.152 2.33171 -0.123873 0
M  V30 3689 C 358.133 1.54336 0.71516 0
M  V30 3690 O 359.318 1.82696 0.658467 0
M  V30 3691 C 356.448 3.38474 0.777978 0
M  V30 3692 C 355.402 4.27979 0.0424758 0
M  V30 3693 C 354.728 5.2405 1.06189 0
M  V30 3694 C 356.028 5.10155 -1.1198 0
M  V30 3695 H 357.722 2.85213 -0.910709 0
M  V30 3696 H 355.268 1.37133 -0.439388 0
M  V30 3697 H 357.221 4.03328 1.22084 0
M  V30 3698 H 355.945 2.84891 1.59702 0
M  V30 3699 H 354.604 3.64616 -0.380853 0
M  V30 3700 H 354.252 4.66758 1.87472 0
M  V30 3701 H 353.952 5.84785 0.574485 0
M  V30 3702 H 355.476 5.9178 1.50428 0
M  V30 3703 H 356.89 5.68307 -0.75499 0
M  V30 3704 H 355.287 5.80073 -1.53738 0
M  V30 3705 H 356.357 4.44504 -1.93764 0
M  V30 3706 N 357.7 0.491464 1.49741 0
M  V30 3707 C 358.928 -0.0535151 2.06831 0
M  V30 3708 C 359.343 -1.31683 1.35296 0
M  V30 3709 O 358.7 -1.77402 0.42836 0
M  V30 3710 C 358.751 -0.320835 3.60073 0
M  V30 3711 O 358.472 0.892394 4.28915 0
M  V30 3712 C 359.973 -0.910519 4.33848 0
M  V30 3713 H 357.193 0.0161909 0.670805 0
M  V30 3714 H 359.737 0.68609 1.92647 0
M  V30 3715 H 357.892 -1.0104 3.73991 0
M  V30 3716 H 358.306 0.649401 5.20464 0
M  V30 3717 H 359.78 -1.04721 5.41976 0
M  V30 3718 H 360.257 -1.90589 3.95692 0
M  V30 3719 H 360.863 -0.258712 4.24512 0
M  V30 3720 N 359.178 -1.55987 0.224894 0
M  V30 3721 C 360.141 -2.19178 -0.670348 0
M  V30 3722 C 361.141 -1.15461 -1.11917 0
M  V30 3723 O 362.331 -1.40675 -1.02743 0
M  V30 3724 C 359.463 -2.81777 -1.9187 0
M  V30 3725 H 360.656 -2.99662 -0.119364 0
M  V30 3726 H 358.209 -1.5628 -0.0247128 0
M  V30 3727 H 358.944 -2.05172 -2.51147 0
M  V30 3728 H 358.729 -3.57732 -1.60531 0
M  V30 3729 H 360.219 -3.30205 -2.55645 0
M  V30 3730 N 360.656 0.0484629 -1.57525 0
M  V30 3731 C 361.604 1.07359 -2.06341 0
M  V30 3732 C 362.598 1.3865 -0.973269 0
M  V30 3733 O 363.804 1.37783 -1.15827 0
M  V30 3734 H 360.179 0.363662 -0.65822 0
M  V30 3735 H 362.15 0.635916 -2.91545 0
M  V30 3736 C 360.899 2.37198 -2.54229 0
M  V30 3737 H 360.222 2.13977 -3.37719 0
M  V30 3738 H 361.662 3.07319 -2.92115 0
M  V30 3739 C 360.121 3.04805 -1.43511 0
M  V30 3740 O 360.651 3.93848 -0.79034 0
M  V30 3741 N 358.857 2.65811 -1.17444 0
M  V30 3742 H 358.404 1.93488 -1.70059 0
M  V30 3743 H 358.362 3.11366 -0.435737 0
M  V30 3744 N 362.134 1.5431 0.320358 0
M  V30 3745 C 363.064 1.86912 1.3995 0
M  V30 3746 C 364.045 0.726211 1.53819 0
M  V30 3747 O 365.23 0.980233 1.67646 0
M  V30 3748 C 362.36 2.09932 2.7667 0
M  V30 3749 C 361.314 3.25776 2.77586 0
M  V30 3750 C 360.64 3.34173 4.17412 0
M  V30 3751 C 361.94 4.6335 2.41048 0
M  V30 3752 H 363.634 2.77292 1.12914 0
M  V30 3753 H 361.18 1.33421 0.541738 0
M  V30 3754 H 363.133 2.31324 3.52232 0
M  V30 3755 H 361.857 1.16304 3.0519 0
M  V30 3756 H 360.516 3.04276 2.04479 0
M  V30 3757 H 360.164 2.38098 4.43078 0
M  V30 3758 H 359.864 4.12033 4.18931 0
M  V30 3759 H 361.388 3.57803 4.94782 0
M  V30 3760 H 362.802 4.84602 3.06324 0
M  V30 3761 H 361.199 5.43782 2.53813 0
M  V30 3762 H 362.269 4.65381 1.36193 0
M  V30 3763 N 363.613 -0.582584 1.46437 0
M  V30 3764 C 364.859 -1.34064 1.52965 0
M  V30 3765 C 365.214 -1.91566 0.178968 0
M  V30 3766 O 364.507 -1.73526 -0.812365 0
M  V30 3767 C 364.701 -2.48964 2.56421 0
M  V30 3768 C 364.53 -2.02717 4.01417 0
M  V30 3769 C 363.3 -1.87728 4.69134 0
M  V30 3770 C 365.498 -1.58675 4.8921 0
M  V30 3771 N 363.48 -1.35554 5.98747 0
M  V30 3772 C 364.851 -1.18093 6.08649 0
M  V30 3773 C 366.906 -1.46494 4.75861 0
M  V30 3774 C 365.609 -0.665427 7.16215 0
M  V30 3775 C 367.635 -0.96347 5.83499 0
M  V30 3776 C 366.997 -0.567432 7.02111 0
M  V30 3777 H 363.096 -0.483551 0.614575 0
M  V30 3778 H 365.68 -0.663309 1.83053 0
M  V30 3779 H 363.851 -3.1426 2.28244 0
M  V30 3780 H 365.583 -3.15913 2.52944 0
M  V30 3781 H 362.338 -2.09678 4.24655 0
M  V30 3782 H 362.762 -1.11628 6.67734 0
M  V30 3783 H 367.404 -1.75731 3.8455 0
M  V30 3784 H 365.122 -0.360639 8.07295 0
M  V30 3785 H 368.708 -0.873129 5.75211 0
M  V30 3786 H 367.588 -0.185389 7.83981 0
M  V30 3787 N 365.091 -1.34144 -0.827227 0
M  V30 3788 C 366.041 -1.21923 -1.92663 0
M  V30 3789 C 367.025 -0.119294 -1.60457 0
M  V30 3790 O 368.217 -0.348539 -1.73534 0
M  V30 3791 C 365.346 -0.972492 -3.29238 0
M  V30 3792 C 364.432 -2.1154 -3.67576 0
M  V30 3793 N 364.823 -3.36627 -3.77512 0
M  V30 3794 C 363.121 -2.02468 -3.97395 0
M  V30 3795 C 363.822 -4.11658 -4.1099 0
M  V30 3796 N 362.798 -3.40207 -4.23981 0
M  V30 3797 H 366.6 -2.16721 -1.98517 0
M  V30 3798 H 364.114 -1.2632 -1.02064 0
M  V30 3799 H 366.111 -0.865847 -4.0781 0
M  V30 3800 H 364.771 -0.0331509 -3.24683 0
M  V30 3801 H 365.782 -3.71234 -3.61118 0
M  V30 3802 H 362.459 -1.16265 -4.00985 0
M  V30 3803 H 363.849 -5.19657 -4.25918 0
M  V30 3804 N 366.569 1.04691 -1.17803 0
M  V30 3805 C 367.815 1.78181 -0.980977 0
M  V30 3806 C 368.17 1.86191 0.484825 0
M  V30 3807 O 367.463 1.35436 1.35527 0
M  V30 3808 C 367.657 3.21467 -1.56186 0
M  V30 3809 C 367.486 3.27422 -3.08261 0
M  V30 3810 C 366.256 3.36415 -3.77032 0
M  V30 3811 C 368.454 3.15947 -4.0581 0
M  V30 3812 N 366.436 3.31554 -5.16667 0
M  V30 3813 C 367.807 3.18514 -5.31929 0
M  V30 3814 C 369.862 2.99945 -3.97413 0
M  V30 3815 C 368.565 3.06723 -6.50625 0
M  V30 3816 C 370.591 2.89497 -5.15699 0
M  V30 3817 C 369.953 2.92702 -6.40706 0
M  V30 3818 H 366.052 0.6641 -0.412911 0
M  V30 3819 H 368.636 1.24762 -1.49474 0
M  V30 3820 H 366.807 3.73245 -1.07436 0
M  V30 3821 H 368.539 3.8322 -1.30093 0
M  V30 3822 H 365.294 3.41887 -3.27735 0
M  V30 3823 H 365.718 3.3258 -5.89678 0
M  V30 3824 H 370.36 2.96302 -3.01604 0
M  V30 3825 H 368.078 3.0912 -7.46639 0
M  V30 3826 H 371.664 2.78179 -5.10987 0
M  V30 3827 H 370.544 2.84697 -7.30696 0
M  V30 3828 N 368.047 0.979072 1.23499 0
M  V30 3829 C 369.296 0.642751 1.91185 0
M  V30 3830 C 369.609 -0.827253 1.77245 0
M  V30 3831 O 370.815 -1.27458 2.39722 0
M  V30 3832 C 369.271 1.09901 3.42709 0
M  V30 3833 C 368.879 2.59327 3.65313 0
M  V30 3834 C 370.623 0.836371 4.16179 0
M  V30 3835 C 368.53 2.98627 5.10467 0
M  V30 3836 H 367.46 0.236698 0.715884 0
M  V30 3837 H 370.111 1.1868 1.39955 0
M  V30 3838 H 368.493 0.48319 3.93041 0
M  V30 3839 H 369.667 3.26136 3.25533 0
M  V30 3840 H 367.982 2.83323 3.05151 0
M  V30 3841 H 370.579 1.10586 5.23139 0
M  V30 3842 H 370.922 -0.227509 4.15678 0
M  V30 3843 H 371.455 1.41371 3.71832 0
M  V30 3844 H 368.194 4.04133 5.16098 0
M  V30 3845 H 367.714 2.3651 5.51201 0
M  V30 3846 H 369.393 2.89159 5.78788 0
M  V30 3847 N 369.525 -1.3858 0.750561 0
M  V30 3848 C 370.473 -2.32339 0.110162 0
M  V30 3849 C 371.467 -1.53864 -0.708674 0
M  V30 3850 O 372.673 -1.69417 -0.608112 0
M  V30 3851 H 369.048 -0.751812 0.0168275 0
M  V30 3852 H 371.019 -2.83959 0.917053 0
M  V30 3853 C 369.768 -3.39043 -0.771067 0
M  V30 3854 H 369.091 -3.99517 -0.150374 0
M  V30 3855 H 370.531 -4.07061 -1.1865 0
M  V30 3856 C 368.99 -2.77365 -1.91234 0
M  V30 3857 O 369.52 -2.66434 -3.00626 0
M  V30 3858 N 367.726 -2.35219 -1.70646 0
M  V30 3859 H 367.273 -2.4431 -0.81673 0
M  V30 3860 H 367.231 -1.94294 -2.47178 0
M  V30 3861 N 371.003 -0.499398 -1.49478 0
M  V30 3862 C 371.913 0.284489 -2.32869 0
M  V30 3863 C 372.929 0.968885 -1.44529 0
M  V30 3864 O 374.105 0.95062 -1.77553 0
M  V30 3865 C 371.17 1.33594 -3.19928 0
M  V30 3866 C 370.231 0.665149 -4.24116 0
M  V30 3867 C 369.464 1.6665 -5.07014 0
M  V30 3868 O 369.687 2.89618 -4.91404 0
M  V30 3869 O 368.621 1.22271 -5.8935 0
M  V30 3870 H 372.447 -0.39802 -3.01081 0
M  V30 3871 H 370.032 -0.260758 -1.47107 0
M  V30 3872 H 371.914 1.94431 -3.73864 0
M  V30 3873 H 370.589 2.0014 -2.54412 0
M  V30 3874 H 369.496 0.0170769 -3.74096 0
M  V30 3875 H 370.829 0.0421555 -4.92182 0
M  V30 3876 N 372.481 1.55866 -0.233164 0
M  V30 3877 C 373.444 2.1953 0.658715 0
M  V30 3878 C 374.444 1.16053 1.11303 0
M  V30 3879 O 375.634 1.41218 1.01996 0
M  V30 3880 C 372.766 2.82791 1.90373 0
M  V30 3881 H 373.959 2.99721 0.10347 0
M  V30 3882 H 371.512 1.56291 0.0164245 0
M  V30 3883 H 372.247 2.06501 2.50056 0
M  V30 3884 H 372.032 3.58578 1.58632 0
M  V30 3885 H 373.522 3.31556 2.53891 0
M  V30 3886 N 373.959 -0.0401083 1.57549 0
M  V30 3887 C 375.199 -0.738098 1.90608 0
M  V30 3888 C 375.563 -1.73107 0.830539 0
M  V30 3889 O 376.764 -2.4765 1.04513 0
M  V30 3890 C 375.035 -1.39985 3.28845 0
M  V30 3891 S 376.594 -2.12852 3.83718 0
M  V30 3892 H 373.412 -0.24477 0.667539 0
M  V30 3893 H 376.014 0.00693599 1.95499 0
M  V30 3894 H 374.718 -0.663775 4.04997 0
M  V30 3895 H 374.249 -2.18366 3.2723 0
M  V30 3896 H 376.264 -3.39842 3.61555 0
M  V30 3897 N 375.437 -1.54477 -0.31217 0
M  V30 3898 C 376.685 -1.72884 -1.04668 0
M  V30 3899 C 377.006 -0.511477 -1.88173 0
M  V30 3900 O 376.276 0.474407 -1.90069 0
M  V30 3901 H 374.856 -0.637461 -0.389425 0
M  V30 3902 H 377.518 -1.91807 -0.345852 0
M  V30 3903 H 376.614 -2.61334 -1.70619 0
M  V30 3904 N 376.915 0.57481 -1.46744 0
M  V30 3905 C 378.331 0.898981 -1.31873 0
M  V30 3906 C 378.531 1.99313 -0.29605 0
M  V30 3907 O 377.587 2.50728 0.298621 0
M  V30 3908 C 378.9 1.30886 -2.7072 0
M  V30 3909 C 380.448 1.42127 -2.78871 0
M  V30 3910 C 380.923 1.86478 -4.18318 0
M  V30 3911 N 382.414 1.93658 -4.20774 0
M  V30 3912 C 383.149 2.29267 -5.2557 0
M  V30 3913 N 382.645 2.63612 -6.40688 0
M  V30 3914 N 384.438 2.29889 -5.1294 0
M  V30 3915 H 376.589 -0.147839 -2.11885 0
M  V30 3916 H 378.852 -0.00347013 -0.947994 0
M  V30 3917 H 378.558 0.578853 -3.46904 0
M  V30 3918 H 378.432 2.26874 -3.01343 0
M  V30 3919 H 380.819 2.14213 -2.0297 0
M  V30 3920 H 380.9 0.443705 -2.51922 0
M  V30 3921 H 380.544 1.14968 -4.94717 0
M  V30 3922 H 380.474 2.85207 -4.42679 0
M  V30 3923 H 382.965 1.69574 -3.37718 0
M  V30 3924 H 383.278 2.89759 -7.16421 0
M  V30 3925 H 381.623 2.61232 -6.44036 0
M  V30 3926 H 384.814 2.02485 -4.22039 0
M  V30 3927 H 384.987 2.57312 -5.94722 0
M  V30 3928 N 378.394 1.34581 0.820102 0
M  V30 3929 C 379.324 1.29038 1.94606 0
M  V30 3930 C 380.305 0.1673 1.69275 0
M  V30 3931 O 381.49 0.360112 1.90832 0
M  V30 3932 C 378.62 1.04793 3.31113 0
M  V30 3933 C 377.574 2.13597 3.70891 0
M  V30 3934 C 376.9 1.74537 5.05412 0
M  V30 3935 C 378.2 3.55451 3.8269 0
M  V30 3936 H 379.894 2.23248 1.99501 0
M  V30 3937 H 377.44 1.0747 0.958449 0
M  V30 3938 H 379.393 0.995592 4.0947 0
M  V30 3939 H 378.117 0.0702565 3.26524 0
M  V30 3940 H 376.776 2.17905 2.9481 0
M  V30 3941 H 376.424 0.754226 4.97313 0
M  V30 3942 H 376.124 2.47361 5.32997 0
M  V30 3943 H 377.648 1.70803 5.86224 0
M  V30 3944 H 379.062 3.5354 4.51312 0
M  V30 3945 H 377.459 4.26922 4.21732 0
M  V30 3946 H 378.529 3.92587 2.84611 0
M  V30 3947 N 379.872 -1.04064 1.18357 0
M  V30 3948 C 381.097 -1.81454 1.00445 0
M  V30 3949 C 381.522 -1.82823 -0.442423 0
M  V30 3950 O 380.88 -1.24555 -1.31741 0
M  V30 3951 C 380.928 -3.24925 1.56384 0
M  V30 3952 O 380.032 -4.04856 0.785209 0
M  V30 3953 H 379.373 -0.560604 0.355835 0
M  V30 3954 H 381.903 -1.31059 1.57114 0
M  V30 3955 H 381.913 -3.75702 1.59097 0
M  V30 3956 H 380.588 -3.23244 2.61699 0
M  V30 3957 H 379.165 -3.63537 0.830399 0
M  V30 3958 N 381.35 -0.985608 -1.22978 0
M  V30 3959 C 382.598 -0.656087 -1.91154 0
M  V30 3960 C 382.919 0.813561 -1.77218 0
M  V30 3961 O 382.189 1.58244 -1.1548 0
M  V30 3962 H 380.769 -0.239674 -0.707506 0
M  V30 3963 H 383.431 -1.25054 -1.49491 0
M  V30 3964 H 382.527 -0.912253 -2.9847 0
M  V30 3965 N 382.828 1.3818 -0.7579 0
M  V30 3966 C 384.105 1.94106 -0.241306 0
M  V30 3967 C 384.485 1.69282 1.26122 0
M  V30 3968 O 383.833 1.03378 2.03777 0
M  V30 3969 C 384.043 3.43809 -0.59967 0
M  V30 3970 C 385.391 4.20868 -0.561717 0
M  V30 3971 O 386.415 3.5211 -0.538222 0
M  V30 3972 O 385.274 5.43451 -0.576478 0
M  V30 3973 H 382.368 0.825376 -0.0518042 0
M  V30 3974 H 384.914 1.47548 -0.838315 0
M  V30 3975 H 383.686 3.55403 -1.6372 0
M  V30 3976 H 383.309 3.97592 0.0251197 0
M  V30 3977 N 384.306 0.507319 1.49211 0
M  V30 3978 C 385.253 -0.267728 2.29242 0
M  V30 3979 C 386.223 -0.954609 1.35928 0
M  V30 3980 O 387.408 -0.960046 1.64887 0
M  V30 3981 C 384.548 -1.32243 3.18756 0
M  V30 3982 C 383.661 -0.64669 4.27132 0
M  V30 3983 C 382.796 -1.68238 5.03855 0
M  V30 3984 C 381.835 -0.98885 6.0406 0
M  V30 3985 N 380.972 -1.96903 6.73924 0
M  V30 3986 H 385.812 0.420968 2.95012 0
M  V30 3987 H 383.349 0.219443 1.45454 0
M  V30 3988 H 385.307 -1.94599 3.69036 0
M  V30 3989 H 383.937 -1.97981 2.54958 0
M  V30 3990 H 382.989 0.0902926 3.80293 0
M  V30 3991 H 384.301 -0.101058 4.98698 0
M  V30 3992 H 383.455 -2.38081 5.58034 0
M  V30 3993 H 382.194 -2.26187 4.32077 0
M  V30 3994 H 381.199 -0.276222 5.49106 0
M  V30 3995 H 382.424 -0.415767 6.77826 0
M  V30 3996 H 380.37 -2.53803 6.04913 0
M  V30 3997 H 380.287 -1.47423 7.41487 0
M  V30 3998 H 381.555 -2.66015 7.32705 0
M  V30 3999 N 385.784 -1.5574 0.241426 0
M  V30 4000 C 386.694 -2.2479 -0.671305 0
M  V30 4001 C 387.71 -1.26217 -1.19772 0
M  V30 4002 O 388.886 -1.59079 -1.23514 0
M  V30 4003 C 385.951 -2.92966 -1.85396 0
M  V30 4004 C 385.012 -4.06935 -1.36756 0
M  V30 4005 C 384.245 -4.71851 -2.49384 0
M  V30 4006 O 384.468 -4.35823 -3.67987 0
M  V30 4007 O 383.402 -5.60467 -2.19454 0
M  V30 4008 H 387.228 -3.0349 -0.112966 0
M  V30 4009 H 384.813 -1.49397 0.0101513 0
M  V30 4010 H 386.695 -3.35927 -2.54423 0
M  V30 4011 H 385.37 -2.17211 -2.40002 0
M  V30 4012 H 384.277 -3.68503 -0.644726 0
M  V30 4013 H 385.61 -4.84492 -0.867647 0
M  V30 4014 N 387.262 0.0317525 -1.57568 0
M  V30 4015 C 388.487 0.738664 -1.938 0
M  V30 4016 C 388.912 1.68242 -0.841208 0
M  V30 4017 O 388.27 1.80157 0.203267 0
M  V30 4018 C 388.318 1.47417 -3.29091 0
M  V30 4019 O 387.422 2.5872 -3.2115 0
M  V30 4020 H 386.763 0.198856 -0.633524 0
M  V30 4021 H 389.293 -0.0119713 -2.04596 0
M  V30 4022 H 389.303 1.84468 -3.63917 0
M  V30 4023 H 387.978 0.781988 -4.08482 0
M  V30 4024 H 386.555 2.24231 -2.97951 0
M  V30 4025 N 388.74 1.54641 0.303973 0
M  V30 4026 C 389.965 1.78092 1.06292 0
M  V30 4027 C 390.39 0.537342 1.80262 0
M  V30 4028 O 389.748 -0.511993 1.7392 0
M  V30 4029 C 389.796 2.98612 2.02147 0
M  V30 4030 O 388.9 2.71528 3.10397 0
M  V30 4031 H 388.241 0.589548 0.305497 0
M  V30 4032 H 390.771 2.01716 0.3423 0
M  V30 4033 H 390.781 3.265 2.44667 0
M  V30 4034 H 389.456 3.88785 1.47714 0
M  V30 4035 H 388.033 2.54648 2.72413 0
M  V30 4036 N 390.218 -0.567019 1.47046 0
M  V30 4037 C 391.466 -1.322 1.52864 0
M  V30 4038 C 391.787 -1.94088 0.188388 0
M  V30 4039 O 391.057 -1.7941 -0.786693 0
M  V30 4040 H 389.637 -0.490894 0.563056 0
M  V30 4041 H 392.299 -0.662879 1.83281 0
M  V30 4042 H 391.395 -2.12062 2.2899 0
M  V30 4043 N 391.696 -1.35014 -0.812953 0
M  V30 4044 C 392.973 -1.18502 -1.55617 0
M  V30 4045 C 393.353 0.238421 -2.09749 0
M  V30 4046 O 392.701 1.2411 -1.91857 0
M  V30 4047 C 392.911 -2.24783 -2.66971 0
M  V30 4048 C 394.259 -2.60268 -3.35478 0
M  V30 4049 O 395.283 -2.23648 -2.77236 0
M  V30 4050 O 394.142 -3.2321 -4.40678 0
M  V30 4051 H 391.236 -0.459984 -0.687272 0
M  V30 4052 H 393.782 -1.46677 -0.853464 0
M  V30 4053 H 392.554 -3.20284 -2.24798 0
M  V30 4054 H 392.177 -1.97841 -3.44884 0
M  V30 4055 N 393.175 1.03435 -1.18907 0
M  V30 4056 C 394.4 1.80919 -1.01406 0
M  V30 4057 C 394.825 1.83055 0.432721 0
M  V30 4058 O 394.183 1.25252 1.31079 0
M  V30 4059 C 394.231 3.24091 -1.58105 0
M  V30 4060 O 393.335 4.04434 -0.806669 0
M  V30 4061 H 392.676 0.558709 -0.358803 0
M  V30 4062 H 395.206 1.30223 -1.57807 0
M  V30 4063 H 395.216 3.74853 -1.61087 0
M  V30 4064 H 393.891 3.21851 -2.6341 0
M  V30 4065 H 392.468 3.63091 -0.849666 0
M  V30 4066 N 394.653 0.992116 1.22453 0
M  V30 4067 C 395.893 0.675727 1.92907 0
M  V30 4068 C 396.257 -0.777762 1.75542 0
M  V30 4069 O 397.458 -1.20553 2.40251 0
M  V30 4070 C 395.729 1.0696 3.4102 0
M  V30 4071 S 397.288 0.871456 4.30059 0
M  V30 4072 H 394.106 0.247089 0.666684 0
M  V30 4073 H 396.708 1.27423 1.48269 0
M  V30 4074 H 395.412 2.12383 3.51172 0
M  V30 4075 H 394.943 0.462858 3.90668 0
M  V30 4076 H 396.958 -0.238436 4.95627 0
M  V30 4077 N 396.131 -1.37776 0.765217 0
M  V30 4078 C 397.377 -2.00145 0.327072 0
M  V30 4079 C 397.71 -1.60607 -1.09175 0
M  V30 4080 O 396.985 -0.849127 -1.74986 0
M  V30 4081 C 397.268 -3.57109 0.46319 0
M  V30 4082 C 397.121 -4.06576 1.92395 0
M  V30 4083 C 398.44 -4.39888 -0.136473 0
M  V30 4084 H 395.559 -0.727113 0.120316 0
M  V30 4085 H 398.201 -1.63549 0.967039 0
M  V30 4086 H 396.351 -3.88414 -0.0816358 0
M  V30 4087 H 398.023 -3.85864 2.52798 0
M  V30 4088 H 396.266 -3.59011 2.43503 0
M  V30 4089 H 396.937 -5.15639 1.97028 0
M  V30 4090 H 399.413 -4.14803 0.328317 0
M  V30 4091 H 398.289 -5.48899 -0.0110582 0
M  V30 4092 H 398.55 -4.24758 -1.22608 0
M  V30 4093 N 397.609 -0.515225 -1.4894 0
M  V30 4094 C 398.834 0.022727 -2.07388 0
M  V30 4095 C 399.259 1.2876 -1.37122 0
M  V30 4096 O 398.617 1.76067 -0.432431 0
M  V30 4097 C 398.665 0.244869 -3.59768 0
M  V30 4098 O 397.769 1.31667 -3.90817 0
M  V30 4099 H 397.11 -0.0325506 -0.663202 0
M  V30 4100 H 399.64 -0.718918 -1.91553 0
M  V30 4101 H 399.65 0.47205 -4.0526 0
M  V30 4102 H 398.325 -0.679194 -4.10317 0
M  V30 4103 H 396.902 1.07331 -3.5712 0
M  V30 4104 N 399.087 1.5561 -0.249682 0
M  V30 4105 C 400.315 2.03411 0.378352 0
M  V30 4106 C 400.73 1.12886 1.51335 0
M  V30 4107 O 400.087 0.143833 1.81932 0
M  V30 4108 C 400.138 3.50537 0.88351 0
M  V30 4109 O 399.859 4.37614 -0.20626 0
M  V30 4110 C 401.36 4.14113 1.58195 0
M  V30 4111 H 398.58 0.664994 0.08958 0
M  V30 4112 H 401.124 2.01044 -0.374357 0
M  V30 4113 H 399.279 3.5343 1.58639 0
M  V30 4114 H 399.693 5.24199 0.177782 0
M  V30 4115 H 401.167 5.18741 1.8871 0
M  V30 4116 H 401.644 3.60767 2.50487 0
M  V30 4117 H 402.25 4.15151 0.923573 0
M  V30 4118 N 400.565 -0.0233959 1.57583 0
M  V30 4119 C 401.515 -1.03023 2.03397 0
M  V30 4120 C 402.499 -1.31701 0.924315 0
M  V30 4121 O 403.691 -1.31191 1.18819 0
M  V30 4122 C 400.82 -2.32961 2.52159 0
M  V30 4123 C 399.906 -2.07349 3.69956 0
M  V30 4124 N 400.297 -1.51814 4.82479 0
M  V30 4125 C 398.595 -2.37606 3.77438 0
M  V30 4126 C 399.296 -1.42136 5.64068 0
M  V30 4127 N 398.272 -1.89891 5.09355 0
M  V30 4128 H 402.074 -0.594962 2.87815 0
M  V30 4129 H 399.588 -0.229586 1.60769 0
M  V30 4130 H 401.585 -3.05906 2.83244 0
M  V30 4131 H 400.245 -2.77162 1.69149 0
M  V30 4132 H 401.256 -1.20008 5.03804 0
M  V30 4133 H 397.933 -2.84842 3.05239 0
M  V30 4134 H 399.323 -0.996405 6.64471 0
M  V30 4135 N 402.043 -1.548 -0.295768 0
M  V30 4136 C 403.271 -1.78327 -1.04914 0
M  V30 4137 C 403.686 -0.545316 -1.80753 0
M  V30 4138 O 403.043 0.485013 -1.75937 0
M  V30 4139 C 403.094 -2.99418 -2.02561 0
M  V30 4140 O 402.815 -4.18431 -1.29798 0
M  V30 4141 C 404.316 -3.35375 -2.89895 0
M  V30 4142 H 401.536 -0.594618 -0.310918 0
M  V30 4143 H 404.08 -2.01763 -0.333454 0
M  V30 4144 H 402.235 -2.78175 -2.69624 0
M  V30 4145 H 402.649 -4.86736 -1.95419 0
M  V30 4146 H 404.123 -4.23332 -3.54251 0
M  V30 4147 H 404.6 -2.53761 -3.58472 0
M  V30 4148 H 405.206 -3.58796 -2.28355 0
M  V30 4149 N 403.521 0.559213 -1.47345 0
M  V30 4150 C 404.484 1.64854 -1.59235 0
M  V30 4151 C 405.484 1.53851 -0.467607 0
M  V30 4152 O 406.674 1.58045 -0.732617 0
M  V30 4153 C 403.806 3.04388 -1.53496 0
M  V30 4154 H 404.999 1.55662 -2.56339 0
M  V30 4155 H 402.552 0.778973 -1.35505 0
M  V30 4156 H 403.287 3.19115 -0.577604 0
M  V30 4157 H 403.072 3.13783 -2.35123 0
M  V30 4158 H 404.562 3.83642 -1.6495 0
M  V30 4159 N 404.999 1.35443 0.805782 0
M  V30 4160 C 405.947 1.28465 1.93906 0
M  V30 4161 C 406.941 0.17943 1.68447 0
M  V30 4162 O 408.147 0.345459 1.76654 0
M  V30 4163 H 404.522 0.399528 0.637088 0
M  V30 4164 H 406.493 2.24206 1.96912 0
M  V30 4165 C 405.242 1.07432 3.30687 0
M  V30 4166 H 404.565 1.91716 3.50835 0
M  V30 4167 H 406.005 1.06591 4.10383 0
M  V30 4168 C 404.464 -0.22179 3.36169 0
M  V30 4169 O 404.994 -1.21731 3.82811 0
M  V30 4170 N 403.2 -0.260841 2.89427 0
M  V30 4171 H 402.747 0.549884 2.51663 0
M  V30 4172 H 402.705 -1.12777 2.93477 0
M  V30 4173 N 406.477 -1.02803 1.19454 0
M  V30 4174 C 407.724 -1.76217 0.997693 0
M  V30 4175 C 408.052 -1.887 -0.47144 0
M  V30 4176 O 407.307 -1.4011 -1.3663 0
M  V30 4177 C 407.606 -3.18941 1.6128 0
M  V30 4178 C 407.272 -3.26463 3.11019 0
M  V30 4179 C 405.934 -3.28223 3.51885 0
M  V30 4180 C 408.286 -3.25542 4.07028 0
M  V30 4181 C 405.614 -3.26719 4.8731 0
M  V30 4182 C 407.966 -3.25579 5.42385 0
M  V30 4183 C 406.63 -3.25637 5.82681 0
M  V30 4184 H 405.9 -0.644823 0.365082 0
M  V30 4185 H 408.547 -1.20655 1.4871 0
M  V30 4186 H 406.852 -3.77587 1.04572 0
M  V30 4187 H 408.549 -3.74415 1.43577 0
M  V30 4188 H 405.139 -3.25822 2.78457 0
M  V30 4189 H 409.323 -3.23362 3.76498 0
M  V30 4190 H 404.579 -3.25089 5.1781 0
M  V30 4191 H 408.753 -3.23817 6.16535 0
M  V30 4192 H 406.38 -3.24226 6.87591 0
M  V30 4193 N 407.956 -0.998596 -1.21925 0
M  V30 4194 C 409.204 -0.676325 -1.90448 0
M  V30 4195 C 409.525 0.794719 -1.78071 0
M  V30 4196 O 408.795 1.5701 -1.17152 0
M  V30 4197 H 407.375 -0.247165 -0.704925 0
M  V30 4198 H 410.037 -1.26633 -1.48156 0
M  V30 4199 H 409.133 -0.943858 -2.97486 0
M  V30 4200 N 409.434 1.37368 -0.772513 0
M  V30 4201 C 410.366 2.28899 -0.117502 0
M  V30 4202 C 411.379 1.4867 0.663405 0
M  V30 4203 O 412.568 1.71314 0.501372 0
M  V30 4204 C 409.668 3.2788 0.857192 0
M  V30 4205 C 408.841 4.37207 0.129938 0
M  V30 4206 C 407.9 5.16257 1.01811 0
M  V30 4207 O 406.926 5.67159 0.481601 0
M  V30 4208 N 408.128 5.31058 2.3443 0
M  V30 4209 H 410.893 2.85752 -0.903662 0
M  V30 4210 H 408.454 1.49353 -0.62493 0
M  V30 4211 H 410.446 3.77647 1.45482 0
M  V30 4212 H 409.016 2.7179 1.54432 0
M  V30 4213 H 408.236 3.88827 -0.648605 0
M  V30 4214 H 409.524 5.07434 -0.372559 0
M  V30 4215 H 408.922 4.91287 2.80452 0
M  V30 4216 H 407.479 5.84131 2.89197 0
M  V30 4217 N 410.912 0.523116 1.48665 0
M  V30 4218 C 411.844 -0.280421 2.27478 0
M  V30 4219 C 412.857 -0.910694 1.34945 0
M  V30 4220 O 414.046 -0.790295 1.60052 0
M  V30 4221 C 411.146 -1.41171 3.08097 0
M  V30 4222 C 410.319 -0.884642 4.28361 0
M  V30 4223 C 409.378 -1.89622 4.90846 0
M  V30 4224 O 408.404 -1.4559 5.50265 0
M  V30 4225 N 409.606 -3.22801 4.82472 0
M  V30 4226 H 412.371 0.395481 2.97079 0
M  V30 4227 H 409.932 0.357018 1.57915 0
M  V30 4228 H 411.924 -2.08645 3.4677 0
M  V30 4229 H 410.494 -1.99139 2.40961 0
M  V30 4230 H 409.714 -0.0341177 3.94185 0
M  V30 4231 H 411.002 -0.511268 5.06225 0
M  V30 4232 H 410.4 -3.61246 4.35336 0
M  V30 4233 H 408.957 -3.85927 5.25265 0
M  V30 4234 N 412.39 -1.55475 0.257931 0
M  V30 4235 C 413.638 -1.98813 -0.363009 0
M  V30 4236 C 413.959 -1.14757 -1.57657 0
M  V30 4237 O 413.229 -0.232956 -1.9451 0
M  V30 4238 H 411.809 -0.734308 -0.137113 0
M  V30 4239 H 414.471 -1.9156 0.359281 0
M  V30 4240 H 413.567 -3.04941 -0.664634 0
M  V30 4241 N 413.868 0.0150385 -1.57593 0
M  V30 4242 C 414.831 0.995996 -2.06428 0
M  V30 4243 C 415.831 1.2818 -0.970903 0
M  V30 4244 O 417.021 1.22949 -1.23406 0
M  V30 4245 C 414.153 2.32506 -2.49307 0
M  V30 4246 H 415.346 0.573873 -2.94358 0
M  V30 4247 H 412.899 0.262186 -1.54085 0
M  V30 4248 H 413.634 2.79438 -1.64575 0
M  V30 4249 H 413.419 2.13087 -3.29145 0
M  V30 4250 H 414.909 3.02906 -2.87468 0
M  V30 4251 N 415.346 1.54954 0.287554 0
M  V30 4252 C 416.586 1.76617 1.02887 0
M  V30 4253 C 416.95 0.547759 1.84021 0
M  V30 4254 O 418.151 0.642365 2.61012 0
M  V30 4255 C 416.422 3.02717 1.89993 0
M  V30 4256 S 417.981 3.45438 2.70588 0
M  V30 4257 H 414.799 0.6207 0.346775 0
M  V30 4258 H 417.401 1.93172 0.30082 0
M  V30 4259 H 416.105 3.89503 1.29287 0
M  V30 4260 H 415.636 2.88787 2.67144 0
M  V30 4261 H 417.651 3.03566 3.92508 0
M  V30 4262 N 416.824 -0.551391 1.4764 0
M  V30 4263 C 417.734 -1.68525 1.63207 0
M  V30 4264 C 418.75 -1.6621 0.514815 0
M  V30 4265 O 419.926 -1.85551 0.783113 0
M  V30 4266 C 416.991 -3.05025 1.64805 0
M  V30 4267 C 416.052 -3.18362 2.88 0
M  V30 4268 C 415.285 -4.4835 2.89513 0
M  V30 4269 O 415.508 -5.34163 2.00065 0
M  V30 4270 O 414.442 -4.65602 3.81443 0
M  V30 4271 H 418.268 -1.58333 2.59161 0
M  V30 4272 H 415.853 -0.722063 1.30792 0
M  V30 4273 H 417.735 -3.86245 1.68502 0
M  V30 4274 H 416.41 -3.15587 0.720197 0
M  V30 4275 H 415.317 -2.36518 2.89845 0
M  V30 4276 H 416.65 -3.12707 3.80099 0
M  V30 4277 N 418.302 -1.35869 -0.798587 0
M  V30 4278 C 419.55 -1.29332 -1.55298 0
M  V30 4279 C 419.871 0.129729 -1.94568 0
M  V30 4280 O 419.141 1.06796 -1.6423 0
M  V30 4281 H 417.721 -0.475737 -0.57592 0
M  V30 4282 H 420.383 -1.70062 -0.952093 0
M  V30 4283 H 419.479 -1.91458 -2.46476 0
M  V30 4284 N 419.78 1.02168 -1.19998 0
M  V30 4285 C 421.026 1.75945 -1.00852 0
M  V30 4286 C 421.359 1.88702 0.458828 0
M  V30 4287 O 420.634 1.40911 1.34069 0
M  V30 4288 C 420.917 3.18154 -1.68671 0
M  V30 4289 C 420.77 3.13224 -3.22817 0
M  V30 4290 C 422.089 4.16711 -1.41561 0
M  V30 4291 H 419.208 0.638673 -0.367785 0
M  V30 4292 H 421.85 1.19222 -1.4794 0
M  V30 4293 H 420 3.66586 -1.28636 0
M  V30 4294 H 421.672 2.72635 -3.72112 0
M  V30 4295 H 419.915 2.50751 -3.53986 0
M  V30 4296 H 420.586 4.13728 -3.65422 0
M  V30 4297 H 423.062 3.76913 -1.76284 0
M  V30 4298 H 421.938 5.14391 -1.91553 0
M  V30 4299 H 422.199 4.40774 -0.342193 0
M  V30 4300 N 421.258 1.00505 1.21394 0
M  V30 4301 C 422.188 0.585684 2.26035 0
M  V30 4302 C 423.169 -0.393525 1.65485 0
M  V30 4303 O 424.354 -0.281497 1.92149 0
M  V30 4304 C 421.484 -0.0884283 3.47187 0
M  V30 4305 C 420.438 0.810567 4.20254 0
M  V30 4306 C 419.764 0.00286382 5.347 0
M  V30 4307 C 421.064 2.1132 4.77641 0
M  V30 4308 H 422.758 1.46039 2.61368 0
M  V30 4309 H 420.304 0.703648 1.25638 0
M  V30 4310 H 422.257 -0.393286 4.19561 0
M  V30 4311 H 420.981 -0.997766 3.10986 0
M  V30 4312 H 419.64 1.09925 3.49731 0
M  V30 4313 H 419.288 -0.907765 4.94741 0
M  V30 4314 H 418.988 0.601444 5.84514 0
M  V30 4315 H 420.512 -0.295808 6.09883 0
M  V30 4316 H 421.926 1.87148 5.41893 0
M  V30 4317 H 420.323 2.66164 5.37845 0
M  V30 4318 H 421.393 2.78393 3.9702 0
M  V30 4319 N 422.737 -1.36956 0.779787 0
M  V30 4320 C 423.667 -2.32761 0.185651 0
M  V30 4321 C 424.648 -1.56177 -0.673989 0
M  V30 4322 O 425.833 -1.84378 -0.609797 0
M  V30 4323 C 422.963 -3.40418 -0.687964 0
M  V30 4324 C 421.917 -4.27941 0.0710102 0
M  V30 4325 C 421.243 -5.26681 -0.922573 0
M  V30 4326 C 422.543 -5.07006 1.25467 0
M  V30 4327 H 424.237 -2.82698 0.986008 0
M  V30 4328 H 421.783 -1.3592 0.475592 0
M  V30 4329 H 423.736 -4.06423 -1.11348 0
M  V30 4330 H 422.46 -2.89025 -1.52093 0
M  V30 4331 H 421.119 -3.63478 0.47739 0
M  V30 4332 H 420.767 -4.71565 -1.7503 0
M  V30 4333 H 420.467 -5.86103 -0.419237 0
M  V30 4334 H 421.991 -5.9556 -1.34686 0
M  V30 4335 H 423.405 -5.66105 0.905401 0
M  V30 4336 H 421.802 -5.75793 1.69063 0
M  V30 4337 H 422.872 -4.3921 2.05481 0
M  V30 4338 N 424.215 -0.530993 -1.48385 0
M  V30 4339 C 425.145 0.219985 -2.32461 0
M  V30 4340 C 426.126 0.934111 -1.42156 0
M  V30 4341 O 427.311 0.919694 -1.71042 0
M  V30 4342 C 424.441 1.26674 -3.23375 0
M  V30 4343 C 423.395 0.67069 -4.22712 0
M  V30 4344 C 422.721 1.82017 -5.02766 0
M  V30 4345 C 424.021 -0.358268 -5.2107 0
M  V30 4346 H 425.715 -0.48187 -2.95497 0
M  V30 4347 H 423.261 -0.233182 -1.42099 0
M  V30 4348 H 425.214 1.80006 -3.81019 0
M  V30 4349 H 423.938 1.99818 -2.58341 0
M  V30 4350 H 422.597 0.158878 -3.66256 0
M  V30 4351 H 422.245 2.54002 -4.34157 0
M  V30 4352 H 421.945 1.42727 -5.70003 0
M  V30 4353 H 423.469 2.35725 -5.63264 0
M  V30 4354 H 424.883 0.0880081 -5.73232 0
M  V30 4355 H 423.28 -0.66861 -5.96364 0
M  V30 4356 H 424.35 -1.26367 -4.68145 0
M  V30 4357 N 425.693 1.55336 -0.266172 0
M  V30 4358 C 426.921 2.03801 0.356756 0
M  V30 4359 C 427.336 1.14485 1.50129 0
M  V30 4360 O 426.693 0.163121 1.8177 0
M  V30 4361 C 426.744 3.51455 0.846281 0
M  V30 4362 O 426.465 4.37371 -0.252663 0
M  V30 4363 C 427.966 4.15767 1.53794 0
M  V30 4364 H 425.186 0.665906 0.0825218 0
M  V30 4365 H 427.73 2.00636 -0.39566 0
M  V30 4366 H 425.885 3.55092 1.54881 0
M  V30 4367 H 426.299 5.24358 0.122173 0
M  V30 4368 H 427.773 5.20714 1.83198 0
M  V30 4369 H 428.25 3.63404 2.46646 0
M  V30 4370 H 428.856 4.16107 0.879488 0
M  V30 4371 N 427.171 -0.0066808 1.57599 0
M  V30 4372 C 428.101 -0.999296 2.11036 0
M  V30 4373 C 429.082 -1.36278 1.01795 0
M  V30 4374 O 430.267 -1.4477 1.29442 0
M  V30 4375 C 427.397 -2.29328 2.60818 0
M  V30 4376 C 426.351 -2.07159 3.74525 0
M  V30 4377 C 425.677 -3.42512 4.10596 0
M  V30 4378 C 426.977 -1.43959 5.02069 0
M  V30 4379 H 428.671 -0.554382 2.94223 0
M  V30 4380 H 426.217 -0.265221 1.41536 0
M  V30 4381 H 428.17 -2.99117 2.96828 0
M  V30 4382 H 426.894 -2.7592 1.74745 0
M  V30 4383 H 425.553 -1.39797 3.38899 0
M  V30 4384 H 425.201 -3.86795 3.21556 0
M  V30 4385 H 424.901 -3.28498 4.87199 0
M  V30 4386 H 426.425 -4.13628 4.4916 0
M  V30 4387 H 427.839 -2.03696 5.35893 0
M  V30 4388 H 426.236 -1.40452 5.83432 0
M  V30 4389 H 427.306 -0.407992 4.83181 0
M  V30 4390 N 428.649 -1.55105 -0.279332 0
M  V30 4391 C 429.559 -1.90638 -1.36727 0
M  V30 4392 C 430.575 -0.802899 -1.54368 0
M  V30 4393 O 431.751 -1.10138 -1.68616 0
M  V30 4394 C 428.816 -2.16547 -2.70755 0
M  V30 4395 C 427.877 -3.40146 -2.61915 0
M  V30 4396 C 427.11 -3.6481 -3.8955 0
M  V30 4397 O 427.333 -2.92095 -4.89935 0
M  V30 4398 O 426.267 -4.58343 -3.90135 0
M  V30 4399 H 430.093 -2.83237 -1.09591 0
M  V30 4400 H 427.678 -1.4157 -0.477306 0
M  V30 4401 H 429.56 -2.34665 -3.50014 0
M  V30 4402 H 428.235 -1.27131 -2.9769 0
M  V30 4403 H 427.142 -3.2737 -1.81052 0
M  V30 4404 H 428.475 -4.29761 -2.3993 0
M  V30 4405 N 430.127 0.543554 -1.4793 0
M  V30 4406 C 431.037 1.67657 -1.64098 0
M  V30 4407 C 432.053 1.65934 -0.523622 0
M  V30 4408 O 433.229 1.85133 -0.792943 0
M  V30 4409 C 430.294 3.04146 -1.66421 0
M  V30 4410 C 429.355 3.16831 -2.89684 0
M  V30 4411 C 428.588 4.46809 -2.91886 0
M  V30 4412 O 428.811 5.33095 -2.02895 0
M  V30 4413 O 427.745 4.63573 -3.83906 0
M  V30 4414 H 431.571 1.56957 -2.59997 0
M  V30 4415 H 429.156 0.715116 -1.31173 0
M  V30 4416 H 431.038 3.85346 -1.70548 0
M  V30 4417 H 429.713 3.152 -0.736923 0
M  V30 4418 H 428.62 2.34977 -2.91095 0
M  V30 4419 H 429.953 3.10687 -3.81752 0
M  V30 4420 N 431.605 1.3629 0.791371 0
M  V30 4421 C 432.552 1.30458 1.90393 0
M  V30 4422 C 433.522 0.173632 1.6519 0
M  V30 4423 O 434.707 0.35983 1.87376 0
M  V30 4424 C 431.847 1.09777 3.27174 0
M  V30 4425 C 430.96 2.31929 3.64462 0
M  V30 4426 C 430.095 2.04276 4.90352 0
M  V30 4427 C 429.134 3.224 5.20312 0
M  V30 4428 N 428.271 2.94424 6.37385 0
M  V30 4429 H 433.111 2.25589 1.94714 0
M  V30 4430 H 430.648 1.12122 0.952216 0
M  V30 4431 H 432.606 0.958133 4.06049 0
M  V30 4432 H 431.236 0.183014 3.22281 0
M  V30 4433 H 430.288 2.56703 2.80727 0
M  V30 4434 H 431.6 3.20085 3.82553 0
M  V30 4435 H 430.754 1.87231 5.77087 0
M  V30 4436 H 429.493 1.13428 4.74326 0
M  V30 4437 H 428.498 3.40005 4.32061 0
M  V30 4438 H 429.723 4.14071 5.38258 0
M  V30 4439 H 427.669 2.06185 6.22755 0
M  V30 4440 H 427.586 3.76118 6.55798 0
M  V30 4441 H 428.854 2.80953 7.27108 0
M  V30 4442 N 433.083 -1.0153 1.20538 0
M  V30 4443 C 434.311 -1.78746 1.04199 0
M  V30 4444 C 434.726 -1.84323 -0.408733 0
M  V30 4445 O 434.083 -1.29714 -1.28377 0
M  V30 4446 C 434.134 -3.23152 1.62035 0
M  V30 4447 O 433.855 -3.17918 3.0143 0
M  V30 4448 C 435.356 -4.16911 1.50666 0
M  V30 4449 H 432.576 -0.56208 0.366479 0
M  V30 4450 H 435.12 -1.27794 1.59653 0
M  V30 4451 H 433.275 -3.71248 1.10697 0
M  V30 4452 H 433.689 -4.08567 3.28897 0
M  V30 4453 H 435.163 -5.16072 1.95892 0
M  V30 4454 H 435.64 -4.36791 0.459363 0
M  V30 4455 H 436.246 -3.74698 2.01201 0
M  V30 4456 N 434.561 -1.01147 -1.20859 0
M  V30 4457 C 435.808 -0.697865 -1.90095 0
M  V30 4458 C 436.136 0.772014 -1.78522 0
M  V30 4459 O 435.391 1.57595 -1.16027 0
M  V30 4460 C 435.69 -1.0727 -3.40922 0
M  V30 4461 C 435.356 -2.53792 -3.72693 0
M  V30 4462 C 434.018 -2.93829 -3.81075 0
M  V30 4463 C 436.37 -3.48674 -3.87397 0
M  V30 4464 C 433.698 -4.27696 -4.01613 0
M  V30 4465 C 436.05 -4.82223 -4.09444 0
M  V30 4466 C 434.714 -5.21973 -4.16054 0
M  V30 4467 H 433.984 -0.255367 -0.695607 0
M  V30 4468 H 436.631 -1.27111 -1.43231 0
M  V30 4469 H 434.936 -0.417799 -3.89566 0
M  V30 4470 H 436.633 -0.807818 -3.92779 0
M  V30 4471 H 433.223 -2.21768 -3.66765 0
M  V30 4472 H 437.407 -3.18904 -3.80281 0
M  V30 4473 H 432.663 -4.58055 -4.04964 0
M  V30 4474 H 436.837 -5.55672 -4.19763 0
M  V30 4475 H 434.464 -6.25717 -4.31721 0
M  V30 4476 N 436.039 1.36541 -0.78704 0
M  V30 4477 C 437.45 1.81873 -0.421807 0
M  V30 4478 C 437.801 1.65487 1.05397 0
M  V30 4479 O 436.926 1.17448 1.81755 0
M  V30 4480 C 437.521 3.30192 -0.758841 0
M  V30 4481 C 436.08 3.73743 -0.446468 0
M  V30 4482 C 435.227 2.58844 -0.994728 0
M  V30 4483 H 438.178 1.24796 -0.98039 0
M  V30 4484 H 438.199 3.80468 -0.0490648 0
M  V30 4485 H 437.711 3.42087 -1.83299 0
M  V30 4486 H 435.812 3.6741 0.619739 0
M  V30 4487 H 435.925 4.69272 -0.965415 0
M  V30 4488 H 434.289 2.51245 -0.418087 0
M  V30 4489 H 435.072 2.73525 -2.07458 0
M  V30 4490 N 437.518 0.538854 1.48102 0
M  V30 4491 C 438.428 -0.222648 2.33541 0
M  V30 4492 C 439.444 -0.930225 1.47047 0
M  V30 4493 O 440.62 -0.903211 1.80011 0
M  V30 4494 C 437.685 -1.25064 3.23357 0
M  V30 4495 C 436.746 -0.552469 4.2573 0
M  V30 4496 C 435.979 -1.53149 5.11254 0
M  V30 4497 O 436.202 -2.76487 4.9891 0
M  V30 4498 O 435.136 -1.06602 5.92385 0
M  V30 4499 H 438.962 0.477707 2.99919 0
M  V30 4500 H 436.547 0.299669 1.46364 0
M  V30 4501 H 438.429 -1.8445 3.78888 0
M  V30 4502 H 437.104 -1.93325 2.59629 0
M  V30 4503 H 436.011 0.082114 3.7401 0
M  V30 4504 H 437.344 0.0883526 4.92121 0
M  V30 4505 N 438.996 -1.55193 0.274407 0
M  V30 4506 C 440.273 -1.91584 -0.394331 0
M  V30 4507 C 440.653 -1.19858 -1.73774 0
M  V30 4508 O 440.001 -0.3252 -2.26174 0
M  V30 4509 C 440.211 -3.4487 -0.535311 0
M  V30 4510 C 441.559 -4.16636 -0.818534 0
M  V30 4511 O 442.583 -3.5076 -0.620146 0
M  V30 4512 O 441.442 -5.33209 -1.19792 0
M  V30 4513 H 438.536 -0.798349 -0.215794 0
M  V30 4514 H 441.082 -1.66646 0.320507 0
M  V30 4515 H 439.854 -3.89145 0.410141 0
M  V30 4516 H 439.477 -3.75759 -1.29964 0
M  V30 4517 N 440.474 -0.00167713 -1.576 0
M  V30 4518 C 441.407 1.02317 -2.03977 0
M  V30 4519 C 442.385 1.33381 -0.929963 0
M  V30 4520 O 443.569 1.45517 -1.19822 0
M  V30 4521 C 440.696 2.35035 -2.43878 0
M  V30 4522 C 439.742 2.19621 -3.65607 0
M  V30 4523 S 440.575 1.52068 -5.13455 0
M  V30 4524 C 441.731 2.86212 -5.56627 0
M  V30 4525 H 441.964 0.628285 -2.90585 0
M  V30 4526 H 439.497 0.209239 -1.52976 0
M  V30 4527 H 441.455 3.11345 -2.67534 0
M  V30 4528 H 440.116 2.71663 -1.57665 0
M  V30 4529 H 439.309 3.1767 -3.91282 0
M  V30 4530 H 438.911 1.51455 -3.41961 0
M  V30 4531 H 441.203 3.82509 -5.59189 0
M  V30 4532 H 442.146 2.65235 -6.56549 0
M  V30 4533 H 442.554 2.90199 -4.84195 0
M  V30 4534 N 441.952 1.55251 0.271103 0
M  V30 4535 C 443.192 1.77698 1.01008 0
M  V30 4536 C 443.556 0.567246 1.83429 0
M  V30 4537 O 444.757 0.670013 2.60316 0
M  V30 4538 C 443.028 3.04715 1.86772 0
M  V30 4539 S 444.587 3.48289 2.66909 0
M  V30 4540 H 441.405 0.624343 0.340172 0
M  V30 4541 H 444.007 1.9348 0.280315 0
M  V30 4542 H 442.711 3.90853 1.25149 0
M  V30 4543 H 442.242 2.91604 2.64066 0
M  V30 4544 H 444.257 3.07712 3.89266 0
M  V30 4545 N 443.43 -0.535701 1.48216 0
M  V30 4546 C 444.66 -1.3148 1.59363 0
M  V30 4547 C 445.068 -1.8753 0.250844 0
M  V30 4548 O 444.411 -1.66821 -0.769174 0
M  V30 4549 C 444.473 -2.50731 2.57632 0
M  V30 4550 C 444.137 -2.15811 4.02833 0
M  V30 4551 C 445.134 -1.71822 4.90686 0
M  V30 4552 C 442.819 -2.26509 4.48329 0
M  V30 4553 C 444.813 -1.3899 6.22062 0
M  V30 4554 C 442.5 -1.93289 5.79726 0
M  V30 4555 C 443.498 -1.49599 6.66415 0
M  V30 4556 O 443.186 -1.16812 7.95368 0
M  V30 4557 H 442.918 -0.406315 0.540263 0
M  V30 4558 H 445.472 -0.653569 1.94725 0
M  V30 4559 H 443.702 -3.19817 2.1738 0
M  V30 4560 H 445.391 -3.12797 2.58675 0
M  V30 4561 H 446.157 -1.63031 4.56778 0
M  V30 4562 H 442.036 -2.59471 3.81045 0
M  V30 4563 H 445.58 -1.04816 6.89681 0
M  V30 4564 H 441.477 -2.01718 6.13172 0
M  V30 4565 H 442.245 -1.30259 8.08069 0
M  V30 4566 N 444.908 -1.36708 -0.784132 0
M  V30 4567 C 446.319 -1.27947 -1.35965 0
M  V30 4568 C 446.67 0.0784013 -1.96043 0
M  V30 4569 O 445.795 0.979989 -1.92938 0
M  V30 4570 C 446.39 -2.31689 -2.47195 0
M  V30 4571 C 444.949 -2.26601 -3.00548 0
M  V30 4572 C 444.096 -2.16184 -1.73666 0
M  V30 4573 H 447.047 -1.4751 -0.585358 0
M  V30 4574 H 447.068 -1.95638 -3.26352 0
M  V30 4575 H 446.58 -3.30506 -2.03439 0
M  V30 4576 H 444.681 -1.31268 -3.48711 0
M  V30 4577 H 444.794 -3.19508 -3.57004 0
M  V30 4578 H 443.158 -1.62524 -1.96107 0
M  V30 4579 H 443.941 -3.16896 -1.32031 0
M  V30 4580 N 446.386 1.0089 -1.21074 0
M  V30 4581 C 447.663 1.71834 -0.934469 0
M  V30 4582 C 448.043 2.0368 0.554753 0
M  V30 4583 O 447.391 1.70742 1.51854 0
M  V30 4584 C 447.601 2.98061 -1.8155 0
M  V30 4585 C 448.949 3.7117 -2.06199 0
M  V30 4586 O 449.973 3.08034 -1.78867 0
M  V30 4587 O 448.832 4.84721 -2.52404 0
M  V30 4588 H 445.926 0.749253 -0.35007 0
M  V30 4589 H 448.472 1.06668 -1.31985 0
M  V30 4590 H 447.244 2.70908 -2.82355 0
M  V30 4591 H 446.867 3.70968 -1.43068 0
M  V30 4592 N 447.864 1.01787 1.20321 0
M  V30 4593 C 448.796 0.547357 2.22568 0
M  V30 4594 C 449.809 -0.370922 1.58518 0
M  V30 4595 O 450.998 -0.169067 1.77698 0
M  V30 4596 C 448.098 -0.223031 3.38165 0
M  V30 4597 C 447.271 0.697472 4.31803 0
M  V30 4598 C 446.33 -0.025562 5.26194 0
M  V30 4599 O 445.356 0.597367 5.66057 0
M  V30 4600 N 446.558 -1.29999 5.65757 0
M  V30 4601 H 449.323 1.42668 2.63564 0
M  V30 4602 H 446.884 0.895552 1.34876 0
M  V30 4603 H 448.876 -0.716002 3.98316 0
M  V30 4604 H 447.446 -1.00366 2.9605 0
M  V30 4605 H 446.666 1.37073 3.69601 0
M  V30 4606 H 447.954 1.32347 4.91286 0
M  V30 4607 H 447.352 -1.827 5.35385 0
M  V30 4608 H 445.909 -1.73766 6.28211 0
M  V30 4609 N 449.342 -1.36122 0.79427 0
M  V30 4610 C 450.59 -1.98718 0.368177 0
M  V30 4611 C 450.911 -1.63345 -1.06506 0
M  V30 4612 O 450.181 -0.909825 -1.73491 0
M  V30 4613 H 448.761 -0.735038 0.133146 0
M  V30 4614 H 451.423 -1.66239 1.01739 0
M  V30 4615 H 450.519 -3.08633 0.463923 0
M  V30 4616 N 450.82 -0.546701 -1.47814 0
M  V30 4617 C 452.068 -0.0187037 -2.02091 0
M  V30 4618 C 452.389 1.33168 -1.42447 0
M  V30 4619 O 451.659 1.86619 -0.595839 0
M  V30 4620 H 450.239 -0.00392531 -0.74699 0
M  V30 4621 H 452.901 -0.714327 -1.81338 0
M  V30 4622 H 451.997 0.0772219 -3.12004 0
M  V30 4623 N 452.299 1.55045 -0.282633 0
M  V30 4624 C 453.545 2.00056 0.332481 0
M  V30 4625 C 453.878 1.1708 1.54939 0
M  V30 4626 O 453.153 0.2427 1.9298 0
M  V30 4627 C 453.436 3.53086 0.70725 0
M  V30 4628 C 453.289 4.46813 -0.517521 0
M  V30 4629 C 454.608 4.12245 1.54084 0
M  V30 4630 H 451.727 0.727268 0.119373 0
M  V30 4631 H 454.369 1.85932 -0.391076 0
M  V30 4632 H 452.519 3.65253 1.32372 0
M  V30 4633 H 454.191 4.46579 -1.15607 0
M  V30 4634 H 452.434 4.18163 -1.1542 0
M  V30 4635 H 453.105 5.51595 -0.211426 0
M  V30 4636 H 455.581 4.03401 1.02013 0
M  V30 4637 H 454.457 5.19515 1.77186 0
M  V30 4638 H 454.718 3.62951 2.52427 0
M  V30 4639 N 453.777 0.010035 1.57597 0
M  V30 4640 C 455.017 -0.677084 1.9286 0
M  V30 4641 C 455.381 -1.70377 0.885192 0
M  V30 4642 O 456.582 -2.44199 1.12339 0
M  V30 4643 C 454.853 -1.29452 3.33132 0
M  V30 4644 S 456.412 -2.00537 3.90295 0
M  V30 4645 H 453.23 -0.223409 0.674989 0
M  V30 4646 H 455.832 0.0691289 1.95378 0
M  V30 4647 H 454.536 -0.534593 4.06903 0
M  V30 4648 H 454.067 -2.07845 3.34012 0
M  V30 4649 H 456.082 -3.28168 3.72183 0
M  V30 4650 N 455.255 -1.55392 -0.262866 0
M  V30 4651 C 456.187 -1.85392 -1.34768 0
M  V30 4652 C 457.2 -0.739069 -1.45057 0
M  V30 4653 O 458.389 -1.01703 -1.46693 0
M  V30 4654 C 455.489 -2.01088 -2.72795 0
M  V30 4655 C 454.662 -3.31828 -2.84972 0
M  V30 4656 C 453.721 -3.37464 -4.03738 0
M  V30 4657 O 452.747 -4.10778 -3.94018 0
M  V30 4658 N 453.949 -2.65599 -5.16176 0
M  V30 4659 H 456.714 -2.79029 -1.09375 0
M  V30 4660 H 454.275 -1.55434 -0.452981 0
M  V30 4661 H 456.267 -2.02217 -3.50557 0
M  V30 4662 H 454.837 -1.1427 -2.90966 0
M  V30 4663 H 454.057 -3.43152 -1.94012 0
M  V30 4664 H 455.345 -4.18032 -2.90045 0
M  V30 4665 H 454.743 -2.05736 -5.26962 0
M  V30 4666 H 453.3 -2.72439 -5.92132 0
M  V30 4667 N 456.733 0.527833 -1.48498 0
M  V30 4668 C 457.981 1.28101 -1.56316 0
M  V30 4669 C 458.302 1.9352 -0.239781 0
M  V30 4670 O 457.572 1.81433 0.738849 0
M  V30 4671 H 456.152 0.475793 -0.575873 0
M  V30 4672 H 458.814 0.614052 -1.84974 0
M  V30 4673 H 457.91 2.05916 -2.34532 0
M  V30 4674 N 458.211 1.37122 0.776871 0
M  V30 4675 C 459.439 1.3523 1.5659 0
M  V30 4676 C 459.854 -0.0635518 1.88693 0
M  V30 4677 O 459.211 -1.02394 1.51069 0
M  V30 4678 C 459.262 2.18583 2.8793 0
M  V30 4679 O 458.983 3.5465 2.57206 0
M  V30 4680 C 460.484 2.24612 3.82183 0
M  V30 4681 H 457.704 0.4634 0.485285 0
M  V30 4682 H 460.248 1.80392 0.963266 0
M  V30 4683 H 458.403 1.76943 3.4463 0
M  V30 4684 H 458.817 3.98286 3.41275 0
M  V30 4685 H 460.291 2.87267 4.71361 0
M  V30 4686 H 460.768 1.25309 4.20944 0
M  V30 4687 H 461.374 2.66543 3.31414 0
M  V30 4688 N 459.689 -1.00246 1.21608 0
M  V30 4689 C 460.929 -1.75589 1.04631 0
M  V30 4690 C 461.293 -1.87513 -0.412648 0
M  V30 4691 O 462.494 -2.59444 -0.703003 0
M  V30 4692 C 460.765 -3.12893 1.72722 0
M  V30 4693 S 462.324 -4.04095 1.71034 0
M  V30 4694 H 459.142 -0.604133 0.374892 0
M  V30 4695 H 461.744 -1.19927 1.54395 0
M  V30 4696 H 460.448 -3.0185 2.78055 0
M  V30 4697 H 459.979 -3.73628 1.23149 0
M  V30 4698 H 461.994 -4.9045 0.753231 0
M  V30 4699 N 461.167 -1.02423 -1.1978 0
M  V30 4700 C 462.413 -0.719051 -1.89625 0
M  V30 4701 C 462.746 0.750083 -1.7913 0
M  V30 4702 O 462.021 1.54574 -1.18056 0
M  V30 4703 C 462.304 -1.16499 -3.40735 0
M  V30 4704 C 462.157 -2.695 -3.60125 0
M  V30 4705 C 463.476 -0.742166 -4.33797 0
M  V30 4706 H 460.595 -0.26269 -0.688595 0
M  V30 4707 H 463.237 -1.27333 -1.41018 0
M  V30 4708 H 461.387 -0.69341 -3.82262 0
M  V30 4709 H 463.059 -3.24569 -3.278 0
M  V30 4710 H 461.302 -3.10113 -3.03336 0
M  V30 4711 H 461.973 -2.95757 -4.66081 0
M  V30 4712 H 464.449 -1.1477 -3.99959 0
M  V30 4713 H 463.325 -1.08213 -5.38127 0
M  V30 4714 H 463.586 0.355747 -4.40666 0
M  V30 4715 N 462.645 1.35699 -0.801477 0
M  V30 4716 C 463.893 1.9852 -0.37871 0
M  V30 4717 C 464.214 1.63907 1.05638 0
M  V30 4718 O 463.484 0.919013 1.73006 0
M  V30 4719 H 462.064 0.734322 -0.137042 0
M  V30 4720 H 464.726 1.65697 -1.02619 0
M  V30 4721 H 463.822 3.08382 -0.480284 0
M  V30 4722 N 464.123 0.554532 1.47522 0
M  V30 4723 C 465.371 0.0294208 2.02079 0
M  V30 4724 C 465.692 -1.32411 1.43151 0
M  V30 4725 O 464.962 -1.863 0.605728 0
M  V30 4726 H 463.542 0.00788672 0.746958 0
M  V30 4727 H 466.204 0.723934 1.80956 0
M  V30 4728 H 465.3 -0.0606745 3.12041 0
M  V30 4729 N 465.601 -1.54893 0.290851 0
M  V30 4730 C 466.849 -1.99538 -0.320756 0
M  V30 4731 C 467.17 -1.18075 -1.55188 0
M  V30 4732 O 466.44 -0.274162 -1.93972 0
M  V30 4733 H 465.02 -0.737052 -0.121507 0
M  V30 4734 H 467.682 -1.90755 0.399832 0
M  V30 4735 H 466.778 -3.06282 -0.599802 0
M  V30 4736 N 467.08 -0.0183926 -1.57589 0
M  V30 4737 C 468.491 0.521927 -1.79256 0
M  V30 4738 C 468.842 1.72885 -0.927636 0
M  V30 4739 O 467.967 2.15978 -0.135091 0
M  V30 4740 C 468.562 0.953632 -3.25102 0
M  V30 4741 C 467.121 1.43913 -3.47801 0
M  V30 4742 C 466.268 0.398837 -2.74417 0
M  V30 4743 H 469.219 -0.244485 -1.56805 0
M  V30 4744 H 469.24 1.81863 -3.34224 0
M  V30 4745 H 468.752 0.0750123 -3.88028 0
M  V30 4746 H 466.853 2.33804 -2.90115 0
M  V30 4747 H 466.966 1.45391 -4.56507 0
M  V30 4748 H 465.33 0.864572 -2.39577 0
M  V30 4749 H 466.113 -0.471132 -3.40052 0
M  V30 4750 N 468.558 1.5553 0.254621 0
M  V30 4751 C 469.788 1.80784 1.00004 0
M  V30 4752 C 470.196 0.59071 1.79742 0
M  V30 4753 O 469.539 -0.449988 1.78103 0
M  V30 4754 C 469.601 2.99268 1.99196 0
M  V30 4755 C 469.265 4.35595 1.38224 0
M  V30 4756 C 470.262 5.13884 0.788611 0
M  V30 4757 C 467.947 4.82281 1.40393 0
M  V30 4758 C 469.941 6.37004 0.224783 0
M  V30 4759 C 467.628 6.05351 0.836243 0
M  V30 4760 C 468.626 6.82551 0.24769 0
M  V30 4761 O 468.314 8.03297 -0.311249 0
M  V30 4762 H 468.046 0.60565 0.300274 0
M  V30 4763 H 470.6 2.03411 0.285143 0
M  V30 4764 H 468.83 2.72377 2.74496 0
M  V30 4765 H 470.519 3.11682 2.60018 0
M  V30 4766 H 471.285 4.78938 0.764423 0
M  V30 4767 H 467.164 4.22189 1.85142 0
M  V30 4768 H 470.708 6.97203 -0.235235 0
M  V30 4769 H 466.605 6.39776 0.857733 0
M  V30 4770 H 467.373 8.1825 -0.20237 0
M  V30 4771 N 470.036 -0.519951 1.48776 0
M  V30 4772 C 470.999 -1.60574 1.6355 0
M  V30 4773 C 471.999 -1.52557 0.508234 0
M  V30 4774 O 473.189 -1.56047 0.774262 0
M  V30 4775 C 470.321 -3.00211 1.61512 0
M  V30 4776 H 471.514 -1.4881 2.60376 0
M  V30 4777 H 469.067 -0.742772 1.37523 0
M  V30 4778 H 469.802 -3.17471 0.662009 0
M  V30 4779 H 469.587 -3.07439 2.43359 0
M  V30 4780 H 471.077 -3.79134 1.75064 0
M  V30 4781 N 471.514 -1.37532 -0.769588 0
M  V30 4782 C 472.446 -1.29347 -1.89214 0
M  V30 4783 C 473.459 -0.208842 -1.61455 0
M  V30 4784 O 474.648 -0.465158 -1.72333 0
M  V30 4785 C 471.748 -0.977649 -3.24492 0
M  V30 4786 C 470.921 -2.16817 -3.7988 0
M  V30 4787 C 469.98 -1.82229 -4.93639 0
M  V30 4788 O 469.006 -2.54548 -5.09111 0
M  V30 4789 N 470.208 -0.767696 -5.75401 0
M  V30 4790 H 472.973 -2.26073 -1.96751 0
M  V30 4791 H 470.534 -1.31185 -0.948795 0
M  V30 4792 H 472.526 -0.727065 -3.98115 0
M  V30 4793 H 471.096 -0.0988777 -3.12444 0
M  V30 4794 H 470.316 -2.58038 -2.9801 0
M  V30 4795 H 471.604 -2.96308 -4.13617 0
M  V30 4796 H 471.002 -0.167626 -5.65452 0
M  V30 4797 H 469.559 -0.576973 -6.49241 0
M  V30 4798 N 472.992 0.995999 -1.22138 0
M  V30 4799 C 474.24 1.73167 -1.042 0
M  V30 4800 C 474.561 1.90329 0.42423 0
M  V30 4801 O 473.831 1.4607 1.30539 0
M  V30 4802 H 472.411 0.641593 -0.38258 0
M  V30 4803 H 475.073 1.19974 -1.53598 0
M  V30 4804 H 474.169 2.72734 -1.51731 0
M  V30 4805 N 474.47 1.03057 1.19235 0
M  V30 4806 C 475.38 0.622922 2.26179 0
M  V30 4807 C 476.396 -0.346113 1.70523 0
M  V30 4808 O 477.572 -0.203572 2.00369 0
M  V30 4809 C 474.637 -0.0182063 3.46695 0
M  V30 4810 C 473.698 0.998546 4.17526 0
M  V30 4811 C 472.931 0.387917 5.32288 0
M  V30 4812 O 473.154 -0.808668 5.64639 0
M  V30 4813 O 472.088 1.1116 5.91546 0
M  V30 4814 H 475.914 1.51363 2.63292 0
M  V30 4815 H 473.499 0.800856 1.26122 0
M  V30 4816 H 475.381 -0.375606 4.19723 0
M  V30 4817 H 474.056 -0.882895 3.11427 0
M  V30 4818 H 472.963 1.40756 3.4661 0
M  V30 4819 H 474.296 1.83366 4.56769 0
M  V30 4820 N 475.948 -1.35272 0.808662 0
M  V30 4821 C 477.225 -1.93077 0.313181 0
M  V30 4822 C 477.605 -1.73847 -1.19752 0
M  V30 4823 O 476.953 -1.1087 -1.998 0
M  V30 4824 C 477.163 -3.41347 0.726859 0
M  V30 4825 C 478.511 -4.18493 0.717532 0
M  V30 4826 O 479.535 -3.4987 0.668535 0
M  V30 4827 O 478.394 -5.40937 0.777779 0
M  V30 4828 H 475.488 -0.822885 0.0824018 0
M  V30 4829 H 478.034 -1.44335 0.892499 0
M  V30 4830 H 476.806 -3.49082 1.76797 0
M  V30 4831 H 476.429 -3.97411 0.122461 0
M  V30 4832 N 477.426 -0.562348 -1.47226 0
M  V30 4833 C 478.389 0.172056 -2.28553 0
M  V30 4834 C 479.389 0.837928 -1.37242 0
M  V30 4835 O 480.579 0.693001 -1.59822 0
M  V30 4836 C 477.711 1.25223 -3.17068 0
M  V30 4837 H 478.904 -0.542401 -2.94954 0
M  V30 4838 H 476.457 -0.319493 -1.53 0
M  V30 4839 H 477.192 1.99892 -2.55369 0
M  V30 4840 H 476.977 0.779515 -3.84273 0
M  V30 4841 H 478.467 1.76791 -3.78332 0
M  V30 4842 N 478.904 1.54736 -0.299062 0
M  V30 4843 C 480.32 1.59507 0.0543849 0
M  V30 4844 C 480.52 1.31606 1.52585 0
M  V30 4845 O 479.576 1.08853 2.27832 0
M  V30 4846 C 480.889 2.98751 -0.34181 0
M  V30 4847 C 482.437 3.1165 -0.290414 0
M  V30 4848 C 482.912 4.53199 -0.661402 0
M  V30 4849 N 484.403 4.59114 -0.613863 0
M  V30 4850 C 485.138 5.66709 -0.873417 0
M  V30 4851 N 484.634 6.82349 -1.19884 0
M  V30 4852 N 486.427 5.56369 -0.800608 0
M  V30 4853 H 478.578 1.71133 -1.25806 0
M  V30 4854 H 480.841 0.799186 -0.509908 0
M  V30 4855 H 480.547 3.24085 -1.36608 0
M  V30 4856 H 480.421 3.75961 0.305508 0
M  V30 4857 H 482.808 2.86066 0.724605 0
M  V30 4858 H 482.889 2.366 -0.972327 0
M  V30 4859 H 482.533 4.79513 -1.67422 0
M  V30 4860 H 482.463 5.26583 0.0425612 0
M  V30 4861 H 484.954 3.76053 -0.3732 0
M  V30 4862 H 485.267 7.60326 -1.38291 0
M  V30 4863 H 483.612 6.83906 -1.23685 0
M  V30 4864 H 486.803 4.64904 -0.546045 0
M  V30 4865 H 486.976 6.40139 -1.00626 0
M  V30 4866 N 480.382 0.0267497 1.57577 0
M  V30 4867 C 481.315 -0.99059 2.05579 0
M  V30 4868 C 482.293 -1.31884 0.951065 0
M  V30 4869 O 483.477 -1.43592 1.22121 0
M  V30 4870 C 480.604 -2.31125 2.47586 0
M  V30 4871 C 479.65 -2.13777 3.69055 0
M  V30 4872 S 480.483 -1.4388 5.15809 0
M  V30 4873 C 481.639 -2.77321 5.6111 0
M  V30 4874 H 481.872 -0.581976 2.91548 0
M  V30 4875 H 479.405 -0.184876 1.53289 0
M  V30 4876 H 481.363 -3.07049 2.72454 0
M  V30 4877 H 480.024 -2.6912 1.61967 0
M  V30 4878 H 479.217 -3.11405 3.96287 0
M  V30 4879 H 478.819 -1.45996 3.44327 0
M  V30 4880 H 481.111 -3.73565 5.65204 0
M  V30 4881 H 482.054 -2.54756 6.60685 0
M  V30 4882 H 482.462 -2.82459 4.88751 0
M  V30 4883 N 481.861 -1.55662 -0.24637 0
M  V30 4884 C 482.791 -1.93377 -1.30873 0
M  V30 4885 C 483.772 -0.798773 -1.50179 0
M  V30 4886 O 484.957 -1.0591 -1.62778 0
M  V30 4887 C 482.087 -2.22893 -2.66338 0
M  V30 4888 C 481.041 -3.38649 -2.61727 0
M  V30 4889 C 480.367 -3.53708 -4.00992 0
M  V30 4890 C 481.667 -4.74323 -2.18666 0
M  V30 4891 H 483.361 -2.82363 -0.995552 0
M  V30 4892 H 480.907 -1.35854 -0.477464 0
M  V30 4893 H 482.86 -2.47866 -3.40794 0
M  V30 4894 H 481.584 -1.30733 -2.99293 0
M  V30 4895 H 480.243 -3.13685 -1.89729 0
M  V30 4896 H 479.891 -2.58967 -4.31214 0
M  V30 4897 H 479.591 -4.31551 -3.98795 0
M  V30 4898 H 481.115 -3.81003 -4.77147 0
M  V30 4899 H 482.529 -4.98665 -2.82854 0
M  V30 4900 H 480.926 -5.55273 -2.27579 0
M  V30 4901 H 481.996 -4.71349 -1.13834 0
M  V30 4902 N 483.339 0.512053 -1.4905 0
M  V30 4903 C 484.564 1.2959 -1.6193 0
M  V30 4904 C 484.989 1.85906 -0.286454 0
M  V30 4905 O 484.347 1.65312 0.744426 0
M  V30 4906 C 484.395 2.40987 -2.68249 0
M  V30 4907 O 483.499 3.44531 -2.26654 0
M  V30 4908 H 482.84 0.383053 -0.542371 0
M  V30 4909 H 485.37 0.614231 -1.95162 0
M  V30 4910 H 485.38 2.86913 -2.90078 0
M  V30 4911 H 484.055 1.99361 -3.65004 0
M  V30 4912 H 482.632 3.046 -2.15112 0
M  V30 4913 N 484.817 1.37938 0.762283 0
M  V30 4914 C 485.747 1.37176 1.88958 0
M  V30 4915 C 486.728 0.238945 1.68413 0
M  V30 4916 O 487.913 0.440726 1.89133 0
M  V30 4917 C 485.043 1.18742 3.2637 0
M  V30 4918 C 483.997 2.29136 3.61498 0
M  V30 4919 C 483.323 1.95816 4.97554 0
M  V30 4920 C 484.623 3.71363 3.6727 0
M  V30 4921 H 486.317 2.31509 1.89853 0
M  V30 4922 H 483.863 1.11438 0.912005 0
M  V30 4923 H 485.816 1.16837 4.04879 0
M  V30 4924 H 484.54 0.208683 3.25933 0
M  V30 4925 H 483.199 2.30213 2.85303 0
M  V30 4926 H 482.847 0.964475 4.93667 0
M  V30 4927 H 482.547 2.69745 5.22026 0
M  V30 4928 H 484.071 1.95513 5.78452 0
M  V30 4929 H 485.485 3.72364 4.35911 0
M  V30 4930 H 483.882 4.44425 4.03245 0
M  V30 4931 H 484.952 4.04305 2.67704 0
M  V30 4932 N 486.295 -0.989507 1.22664 0
M  V30 4933 C 487.541 -1.7321 1.05481 0
M  V30 4934 C 487.874 -1.89852 -0.408635 0
M  V30 4935 O 487.149 -1.44416 -1.30285 0
M  V30 4936 C 487.432 -3.1357 1.77047 0
M  V30 4937 C 487.285 -3.04555 3.31008 0
M  V30 4938 C 488.604 -4.12812 1.5256 0
M  V30 4939 H 485.723 -0.628697 0.384589 0
M  V30 4940 H 488.365 -1.15258 1.51049 0
M  V30 4941 H 486.515 -3.63046 1.3831 0
M  V30 4942 H 488.187 -2.62674 3.7921 0
M  V30 4943 H 486.43 -2.41278 3.6051 0
M  V30 4944 H 487.101 -4.03894 3.76263 0
M  V30 4945 H 489.577 -3.72106 1.86215 0
M  V30 4946 H 488.453 -5.09132 2.05124 0
M  V30 4947 H 488.714 -4.39711 0.458936 0
M  V30 4948 N 487.773 -1.03688 -1.18687 0
M  V30 4949 C 488.998 -0.757819 -1.93059 0
M  V30 4950 C 489.423 0.678353 -1.75442 0
M  V30 4951 O 488.781 1.46938 -1.06203 0
M  V30 4952 C 488.829 -1.12423 -3.42627 0
M  V30 4953 O 487.933 -0.247505 -4.11657 0
M  V30 4954 H 487.274 -0.279245 -0.602427 0
M  V30 4955 H 489.804 -1.3857 -1.5053 0
M  V30 4956 H 489.814 -1.08454 -3.93322 0
M  V30 4957 H 488.489 -2.17049 -3.54771 0
M  V30 4958 H 487.066 -0.34649 -3.71287 0
M  V30 4959 N 489.251 1.34841 -0.815825 0
M  V30 4960 C 490.198 2.29644 -0.230664 0
M  V30 4961 C 491.168 1.53253 0.640533 0
M  V30 4962 O 492.353 1.81653 0.583672 0
M  V30 4963 C 489.493 3.39715 0.607275 0
M  V30 4964 C 488.606 4.31056 -0.28538 0
M  V30 4965 C 487.741 5.28225 0.561446 0
M  V30 4966 C 486.78 6.11204 -0.331035 0
M  V30 4967 N 485.917 7.00483 0.476302 0
M  V30 4968 H 490.757 2.79095 -1.0445 0
M  V30 4969 H 488.294 1.37351 -0.526595 0
M  V30 4970 H 490.252 4.02208 1.10835 0
M  V30 4971 H 488.882 2.91517 1.38629 0
M  V30 4972 H 487.934 3.69487 -0.904621 0
M  V30 4973 H 489.246 4.89239 -0.97193 0
M  V30 4974 H 488.4 5.96135 1.12728 0
M  V30 4975 H 487.139 4.70562 1.28153 0
M  V30 4976 H 486.144 5.42232 -0.909069 0
M  V30 4977 H 487.369 6.70947 -1.04912 0
M  V30 4978 H 485.315 6.45296 1.18019 0
M  V30 4979 H 485.232 7.55847 -0.152008 0
M  V30 4980 H 486.5 7.7273 1.02512 0
M  V30 4981 N 490.729 0.570148 1.46925 0
M  V30 4982 C 491.957 0.0561966 2.06824 0
M  V30 4983 C 492.372 -1.24326 1.42086 0
M  V30 4984 O 491.729 -1.74882 0.521794 0
M  V30 4985 C 491.78 -0.129517 3.61268 0
M  V30 4986 O 491.501 1.1185 4.23581 0
M  V30 4987 C 493.002 -0.679266 4.38065 0
M  V30 4988 H 490.222 0.0517261 0.669003 0
M  V30 4989 H 492.766 0.787243 1.8874 0
M  V30 4990 H 490.921 -0.810739 3.78822 0
M  V30 4991 H 491.335 0.924375 5.1629 0
M  V30 4992 H 492.809 -0.758445 5.46765 0
M  V30 4993 H 493.286 -1.69346 4.05239 0
M  V30 4994 H 493.892 -0.0333237 4.25287 0
M  V30 4995 N 492.207 -1.54576 0.307264 0
M  V30 4996 C 493.117 -2.27435 -0.57536 0
M  V30 4997 C 494.133 -1.31183 -1.14311 0
M  V30 4998 O 495.309 -1.64175 -1.16656 0
M  V30 4999 C 492.374 -3.00566 -1.72803 0
M  V30 5000 C 491.435 -4.12369 -1.19373 0
M  V30 5001 C 490.668 -4.82003 -2.29147 0
M  V30 5002 O 490.891 -4.51038 -3.49171 0
M  V30 5003 O 489.825 -5.69271 -1.95485 0
M  V30 5004 H 493.651 -3.03696 0.0158558 0
M  V30 5005 H 491.236 -1.49219 0.0735064 0
M  V30 5006 H 493.118 -3.46416 -2.39946 0
M  V30 5007 H 491.793 -2.27195 -2.30574 0
M  V30 5008 H 490.7 -3.70905 -0.487851 0
M  V30 5009 H 492.033 -4.87736 -0.661376 0
M  V30 5010 N 493.685 -0.035106 -1.57561 0
M  V30 5011 C 494.934 0.641604 -1.91223 0
M  V30 5012 C 495.247 1.72944 -0.913761 0
M  V30 5013 O 496.453 2.46321 -1.14185 0
M  V30 5014 C 494.909 1.19249 -3.3957 0
M  V30 5015 C 494.517 0.137616 -4.47789 0
M  V30 5016 C 496.261 1.84537 -3.82291 0
M  V30 5017 C 494.168 0.700478 -5.87237 0
M  V30 5018 H 493.098 0.243417 -0.713627 0
M  V30 5019 H 495.749 -0.101382 -1.8322 0
M  V30 5020 H 494.131 1.98728 -3.42525 0
M  V30 5021 H 495.305 -0.635153 -4.56402 0
M  V30 5022 H 493.62 -0.416855 -4.14308 0
M  V30 5023 H 496.217 2.27616 -4.83834 0
M  V30 5024 H 496.56 2.69054 -3.17672 0
M  V30 5025 H 497.093 1.11739 -3.81784 0
M  V30 5026 H 493.832 -0.106693 -6.55413 0
M  V30 5027 H 493.352 1.4416 -5.82218 0
M  V30 5028 H 495.031 1.18837 -6.35993 0
M  V30 5029 N 495.163 1.55791 0.238111 0
M  V30 5030 C 496.073 1.94196 1.31625 0
M  V30 5031 C 497.089 0.843545 1.52185 0
M  V30 5032 O 498.265 1.1457 1.65637 0
M  V30 5033 C 495.33 2.2365 2.64918 0
M  V30 5034 C 494.391 3.46971 2.52804 0
M  V30 5035 C 493.624 3.7501 3.79741 0
M  V30 5036 O 493.847 3.04982 4.82019 0
M  V30 5037 O 492.781 4.68525 3.77846 0
M  V30 5038 H 496.607 2.86044 1.02043 0
M  V30 5039 H 494.192 1.42786 0.439603 0
M  V30 5040 H 496.074 2.43863 3.4367 0
M  V30 5041 H 494.749 1.34979 2.94215 0
M  V30 5042 H 493.656 3.32055 1.72309 0
M  V30 5043 H 494.989 4.35971 2.28451 0
M  V30 5044 N 496.642 -0.504142 1.49319 0
M  V30 5045 C 497.552 -1.63248 1.68486 0
M  V30 5046 C 498.568 -1.64488 0.567432 0
M  V30 5047 O 499.744 -1.82966 0.841749 0
M  V30 5048 C 496.809 -2.99627 1.74426 0
M  V30 5049 C 495.87 -3.09039 2.97982 0
M  V30 5050 C 495.103 -4.38913 3.0363 0
M  V30 5051 O 495.326 -5.27528 2.16958 0
M  V30 5052 O 494.26 -4.53231 3.96062 0
M  V30 5053 H 498.086 -1.50008 2.64067 0
M  V30 5054 H 495.671 -0.680086 1.33023 0
M  V30 5055 H 497.553 -3.80689 1.80705 0
M  V30 5056 H 496.228 -3.13136 0.820233 0
M  V30 5057 H 495.135 -2.27177 2.97223 0
M  V30 5058 H 496.468 -3.00456 3.89855 0
M  V30 5059 N 498.12 -1.38341 -0.754957 0
M  V30 5060 C 499.397 -1.24995 -1.50451 0
M  V30 5061 C 499.777 0.149244 -2.10572 0
M  V30 5062 O 499.125 1.15861 -1.96948 0
M  V30 5063 C 499.335 -2.35904 -2.57197 0
M  V30 5064 C 500.683 -2.74262 -3.24138 0
M  V30 5065 O 501.707 -2.35205 -2.67501 0
M  V30 5066 O 500.566 -3.4161 -4.26574 0
M  V30 5067 H 497.66 -0.48872 -0.667144 0
M  V30 5068 H 500.206 -1.50165 -0.790486 0
M  V30 5069 H 498.978 -3.2953 -2.11011 0
M  V30 5070 H 498.601 -2.12291 -3.36182 0
M  V30 5071 N 499.598 0.982988 -1.23187 0
M  V30 5072 C 500.823 1.76455 -1.08988 0
M  V30 5073 C 501.248 1.84726 0.354691 0
M  V30 5074 O 500.606 1.30699 1.25649 0
M  V30 5075 C 500.654 3.17094 -1.71708 0
M  V30 5076 O 499.758 4.00648 -0.977477 0
M  V30 5077 H 499.099 0.542988 -0.382177 0
M  V30 5078 H 501.629 1.23413 -1.63188 0
M  V30 5079 H 501.639 3.67684 -1.76841 0
M  V30 5080 H 500.314 3.10389 -2.76823 0
M  V30 5081 H 498.891 3.59161 -1.0029 0
M  V30 5082 N 501.076 1.04316 1.18135 0
M  V30 5083 C 502.323 0.74802 1.88178 0
M  V30 5084 C 502.651 -0.72441 1.80506 0
M  V30 5085 O 501.906 -1.54463 1.20165 0
M  V30 5086 C 502.205 1.16271 3.37958 0
M  V30 5087 C 501.871 2.63585 3.65833 0
M  V30 5088 C 500.533 3.03829 3.73151 0
M  V30 5089 C 502.885 3.58822 3.78016 0
M  V30 5090 C 500.213 4.38194 3.90132 0
M  V30 5091 C 502.565 4.92909 3.96514 0
M  V30 5092 C 501.229 5.3282 4.02068 0
M  V30 5093 H 500.499 0.27372 0.688592 0
M  V30 5094 H 503.146 1.30863 1.39811 0
M  V30 5095 H 501.451 0.520938 3.88321 0
M  V30 5096 H 503.148 0.911672 3.90499 0
M  V30 5097 H 499.738 2.31414 3.60757 0
M  V30 5098 H 503.922 3.28875 3.71692 0
M  V30 5099 H 499.178 4.68631 3.92677 0
M  V30 5100 H 503.352 5.66606 4.04883 0
M  V30 5101 H 500.979 6.36943 4.14979 0
M  V30 5102 N 502.554 -1.34406 0.822964 0
M  V30 5103 C 503.97 -1.51275 0.508727 0
M  V30 5104 C 504.17 -1.76776 -0.967083 0
M  V30 5105 O 503.226 -1.81871 -1.75155 0
M  V30 5106 C 504.539 -2.67765 1.36829 0
M  V30 5107 C 506.087 -2.81647 1.36542 0
M  V30 5108 C 506.562 -4.01181 2.20947 0
M  V30 5109 N 508.053 -4.08388 2.18571 0
M  V30 5110 C 508.788 -5.00036 2.80627 0
M  V30 5111 N 508.284 -5.96906 3.51674 0
M  V30 5112 N 510.077 -4.92908 2.70181 0
M  V30 5113 H 502.228 -1.16113 1.77852 0
M  V30 5114 H 504.491 -0.56947 0.757897 0
M  V30 5115 H 504.197 -2.55551 2.41633 0
M  V30 5116 H 504.071 -3.62779 1.03303 0
M  V30 5117 H 506.458 -2.93303 0.325163 0
M  V30 5118 H 506.539 -1.87443 1.74066 0
M  V30 5119 H 506.183 -3.90286 3.25022 0
M  V30 5120 H 506.113 -4.94599 1.80774 0
M  V30 5121 H 508.604 -3.39051 1.66891 0
M  V30 5122 H 508.917 -6.63468 3.96271 0
M  V30 5123 H 507.262 -5.9703 3.5578 0
M  V30 5124 H 510.453 -4.1619 2.14251 0
M  V30 5125 H 510.626 -5.64137 3.18831 0
M  V30 5126 N 504.032 -0.577932 -1.46621 0
M  V30 5127 C 504.964 0.195801 -2.28362 0
M  V30 5128 C 505.977 0.859983 -1.38232 0
M  V30 5129 O 507.166 0.730349 -1.62875 0
M  V30 5130 C 504.266 1.29639 -3.13124 0
M  V30 5131 C 503.439 0.725049 -4.31349 0
M  V30 5132 C 502.498 1.71274 -4.97546 0
M  V30 5133 O 501.524 1.25067 -5.5529 0
M  V30 5134 N 502.726 3.04672 -4.94121 0
M  V30 5135 H 505.491 -0.505468 -2.95407 0
M  V30 5136 H 503.052 -0.415381 -1.56481 0
M  V30 5137 H 505.044 1.95631 -3.54275 0
M  V30 5138 H 503.614 1.90059 -2.48186 0
M  V30 5139 H 502.834 -0.112205 -3.9404 0
M  V30 5140 H 504.122 0.323034 -5.07774 0
M  V30 5141 H 503.52 3.4484 -4.48444 0
M  V30 5142 H 502.077 3.66166 -5.39227 0
M  V30 5143 N 505.51 1.54411 -0.315457 0
M  V30 5144 C 506.443 2.20265 0.596522 0
M  V30 5145 C 507.421 1.17693 1.12192 0
M  V30 5146 O 508.605 1.46397 1.18744 0
M  V30 5147 C 505.732 2.85794 1.81767 0
M  V30 5148 C 504.778 4.02017 1.42424 0
M  V30 5149 S 505.611 5.33452 0.467836 0
M  V30 5150 C 506.767 6.02471 1.69645 0
M  V30 5151 H 507 2.97277 0.0370896 0
M  V30 5152 H 504.533 1.54079 -0.0995562 0
M  V30 5153 H 506.491 3.24172 2.51839 0
M  V30 5154 H 505.152 2.08601 2.34828 0
M  V30 5155 H 504.345 4.46701 2.33396 0
M  V30 5156 H 503.947 3.65271 0.803311 0
M  V30 5157 H 506.239 6.24157 2.63504 0
M  V30 5158 H 507.182 6.96215 1.29192 0
M  V30 5159 H 507.59 5.32284 1.87974 0
M  V30 5160 N 506.988 0.0434614 1.5754 0
M  V30 5161 C 508.399 -0.493343 1.80064 0
M  V30 5162 C 508.75 -1.71388 0.955023 0
M  V30 5163 O 507.875 -2.15736 0.169434 0
M  V30 5164 C 508.47 -0.90179 3.26578 0
M  V30 5165 C 507.029 -1.38362 3.50047 0
M  V30 5166 C 506.176 -0.355129 2.75017 0
M  V30 5167 H 509.127 0.2694 1.56397 0
M  V30 5168 H 509.148 -1.76523 3.37075 0
M  V30 5169 H 508.66 -0.013271 3.88098 0
M  V30 5170 H 506.761 -2.29159 2.93798 0
M  V30 5171 H 506.874 -1.3811 4.58762 0
M  V30 5172 H 505.238 -0.826348 2.40922 0
M  V30 5173 H 506.021 0.525172 3.39259 0
M  V30 5174 N 508.466 -1.55915 -0.229846 0
M  V30 5175 C 509.694 -1.82617 -0.972562 0
M  V30 5176 C 510.109 -0.621488 -1.78278 0
M  V30 5177 O 509.466 0.409956 -1.77836 0
M  V30 5178 C 509.517 -3.0774 -1.89679 0
M  V30 5179 O 509.238 -4.23559 -1.11934 0
M  V30 5180 C 510.739 -3.47368 -2.75409 0
M  V30 5181 H 507.959 -0.60727 -0.285419 0
M  V30 5182 H 510.503 -2.02996 -0.247579 0
M  V30 5183 H 508.658 -2.89361 -2.57583 0
M  V30 5184 H 509.072 -4.94586 -1.74599 0
M  V30 5185 H 510.546 -4.37977 -3.35977 0
M  V30 5186 H 511.023 -2.68737 -3.47386 0
M  V30 5187 H 511.629 -3.68158 -2.12931 0
M  V30 5188 N 509.944 0.496216 -1.49584 0
M  V30 5189 C 510.854 1.62352 -1.69349 0
M  V30 5190 C 511.87 1.64184 -0.576147 0
M  V30 5191 O 513.046 1.82517 -0.85144 0
M  V30 5192 C 510.111 2.98698 -1.76013 0
M  V30 5193 C 509.172 3.07454 -2.99617 0
M  V30 5194 C 508.405 4.37296 -3.05953 0
M  V30 5195 O 508.628 5.2637 -2.19752 0
M  V30 5196 O 507.562 4.51124 -3.9846 0
M  V30 5197 H 511.388 1.48606 -2.64859 0
M  V30 5198 H 508.973 0.673022 -1.33382 0
M  V30 5199 H 510.855 3.79725 -1.82721 0
M  V30 5200 H 509.53 3.12696 -0.836828 0
M  V30 5201 H 508.437 2.25597 -2.98424 0
M  V30 5202 H 509.77 2.98385 -3.91443 0
M  V30 5203 N 511.423 1.38739 0.74761 0
M  V30 5204 C 512.7 1.25791 1.49786 0
M  V30 5205 C 513.08 -0.138075 2.10648 0
M  V30 5206 O 512.428 -1.14815 1.9756 0
M  V30 5207 C 512.638 2.37265 2.55942 0
M  V30 5208 C 513.986 2.75978 3.22679 0
M  V30 5209 O 515.01 2.36621 2.6625 0
M  V30 5210 O 513.869 3.43867 4.24756 0
M  V30 5211 H 510.963 0.492251 0.664543 0
M  V30 5212 H 513.509 1.50582 0.782511 0
M  V30 5213 H 512.281 3.30644 2.0926 0
M  V30 5214 H 511.904 2.14071 3.35051 0
M  V30 5215 N 512.901 -0.976442 1.23707 0
M  V30 5216 C 513.811 -2.10359 1.03856 0
M  V30 5217 C 514.827 -1.73991 -0.0180919 0
M  V30 5218 O 516.003 -2.0061 0.178211 0
M  V30 5219 C 513.068 -3.40809 0.636387 0
M  V30 5220 C 512.129 -3.91179 1.76854 0
M  V30 5221 C 511.362 -5.15404 1.38546 0
M  V30 5222 O 511.585 -5.69754 0.27142 0
M  V30 5223 O 510.519 -5.5994 2.20797 0
M  V30 5224 H 514.345 -2.29997 1.98331 0
M  V30 5225 H 511.93 -1.08742 1.02448 0
M  V30 5226 H 513.812 -4.19269 0.423223 0
M  V30 5227 H 512.487 -3.22493 -0.279322 0
M  V30 5228 H 511.394 -3.13819 2.03638 0
M  V30 5229 H 512.727 -4.13958 2.6627 0
M  V30 5230 N 514.379 -1.04941 -1.1758 0
M  V30 5231 C 515.609 -0.777166 -1.91425 0
M  V30 5232 C 516.017 0.670647 -1.76915 0
M  V30 5233 O 515.36 1.46965 -1.10213 0
M  V30 5234 C 515.422 -1.07495 -3.43052 0
M  V30 5235 C 515.086 -2.51844 -3.81345 0
M  V30 5236 C 516.083 -3.50047 -3.844 0
M  V30 5237 C 513.768 -2.86787 -4.12382 0
M  V30 5238 C 515.762 -4.81239 -4.17957 0
M  V30 5239 C 513.449 -4.18182 -4.45608 0
M  V30 5240 C 514.447 -5.15219 -4.48373 0
M  V30 5241 O 514.135 -6.44258 -4.80819 0
M  V30 5242 H 513.867 -0.282209 -0.614275 0
M  V30 5243 H 516.421 -1.40258 -1.50056 0
M  V30 5244 H 514.651 -0.392437 -3.84704 0
M  V30 5245 H 516.34 -0.78912 -3.98155 0
M  V30 5246 H 517.106 -3.24391 -3.60548 0
M  V30 5247 H 512.985 -2.11922 -4.09402 0
M  V30 5248 H 516.529 -5.56974 -4.2003 0
M  V30 5249 H 512.426 -4.43602 -4.68922 0
M  V30 5250 H 513.194 -6.49041 -4.98686 0
M  V30 5251 N 515.857 1.33968 -0.830081 0
M  V30 5252 C 516.79 2.27303 -0.202182 0
M  V30 5253 C 517.768 1.49235 0.645581 0
M  V30 5254 O 518.952 1.78433 0.607762 0
M  V30 5255 C 516.079 3.31025 0.716932 0
M  V30 5256 C 515.125 4.26466 -0.0542271 0
M  V30 5257 S 515.958 5.16707 -1.40622 0
M  V30 5258 C 517.114 6.23962 -0.492167 0
M  V30 5259 H 517.347 2.8021 -0.99346 0
M  V30 5260 H 514.88 1.41124 -0.626359 0
M  V30 5261 H 516.838 3.91271 1.24165 0
M  V30 5262 H 515.499 2.76951 1.4818 0
M  V30 5263 H 514.692 4.99858 0.644785 0
M  V30 5264 H 514.294 3.7051 -0.509722 0
M  V30 5265 H 516.586 6.76774 0.31347 0
M  V30 5266 H 517.529 6.97927 -1.19599 0
M  V30 5267 H 517.937 5.64447 -0.0774176 0
M  V30 5268 N 517.335 0.585699 1.46312 0
M  V30 5269 C 518.612 0.00542031 1.95599 0
M  V30 5270 C 518.992 -1.45619 1.52834 0
M  V30 5271 O 518.34 -2.14759 0.780446 0
M  V30 5272 C 518.55 0.180601 3.48532 0
M  V30 5273 C 519.898 0.049979 4.24571 0
M  V30 5274 O 520.922 0.109589 3.56031 0
M  V30 5275 O 519.781 -0.0832226 5.46437 0
M  V30 5276 H 516.875 -0.0481281 0.825598 0
M  V30 5277 H 519.421 0.654227 1.56582 0
M  V30 5278 H 518.193 1.19657 3.72556 0
M  V30 5279 H 517.816 -0.504498 3.94386 0
M  V30 5280 N 518.813 -1.54241 0.323641 0
M  V30 5281 C 520.229 -1.59574 -0.0290018 0
M  V30 5282 C 520.429 -1.34017 -1.50472 0
M  V30 5283 O 519.485 -1.12464 -2.26071 0
M  V30 5284 C 520.798 -2.98169 0.389295 0
M  V30 5285 C 522.346 -3.11148 0.339958 0
M  V30 5286 C 522.821 -4.5209 0.733418 0
M  V30 5287 N 524.312 -4.5808 0.686827 0
M  V30 5288 C 525.047 -5.65248 0.963464 0
M  V30 5289 N 524.543 -6.80355 1.30724 0
M  V30 5290 N 526.336 -5.55025 0.88902 0
M  V30 5291 H 518.487 -1.6911 1.28512 0
M  V30 5292 H 520.75 -0.790972 0.522558 0
M  V30 5293 H 520.456 -3.21871 1.41746 0
M  V30 5294 H 520.33 -3.76399 -0.245657 0
M  V30 5295 H 522.717 -2.87182 -0.679002 0
M  V30 5296 H 522.798 -2.35023 1.00985 0
M  V30 5297 H 522.442 -4.76788 1.75029 0
M  V30 5298 H 522.372 -5.26584 0.0412189 0
M  V30 5299 H 524.863 -3.75411 0.43298 0
M  V30 5300 H 525.176 -7.58029 1.5037 0
M  V30 5301 H 523.521 -6.81851 1.3455 0
M  V30 5302 H 526.712 -4.63977 0.619939 0
M  V30 5303 H 526.885 -6.38458 1.10797 0
M  V30 5304 N 520.291 -0.0518155 -1.57515 0
M  V30 5305 C 521.702 0.483787 -1.80323 0
M  V30 5306 C 522.053 1.70879 -0.964099 0
M  V30 5307 O 521.178 2.15643 -0.180872 0
M  V30 5308 C 521.773 0.884459 -3.27052 0
M  V30 5309 C 520.332 1.36504 -3.50776 0
M  V30 5310 C 519.479 0.340539 -2.75201 0
M  V30 5311 H 522.43 -0.277691 -1.56252 0
M  V30 5312 H 522.451 1.74733 -3.38007 0
M  V30 5313 H 521.963 -0.00731093 -3.88099 0
M  V30 5314 H 520.064 2.27598 -2.95009 0
M  V30 5315 H 520.177 1.35675 -4.59488 0
M  V30 5316 H 518.541 0.81356 -2.41357 0
M  V30 5317 H 519.324 -0.543156 -3.38976 0
M  V30 5318 N 521.769 1.56035 0.221574 0
M  V30 5319 C 522.994 1.83476 0.967026 0
M  V30 5320 C 523.419 0.632139 1.7716 0
M  V30 5321 O 522.777 -0.419082 1.7639 0
M  V30 5322 C 522.825 3.08907 1.86034 0
M  V30 5323 O 521.929 2.876 2.95567 0
M  V30 5324 H 521.27 0.604913 0.273817 0
M  V30 5325 H 523.8 2.03247 0.234893 0
M  V30 5326 H 523.81 3.3901 2.27016 0
M  V30 5327 H 522.485 3.96068 1.26898 0
M  V30 5328 H 521.062 2.6873 2.58532 0
M  V30 5329 N 523.247 -0.488276 1.49845 0
M  V30 5330 C 524.179 -1.60539 1.63584 0
M  V30 5331 C 525.192 -1.5434 0.517972 0
M  V30 5332 O 526.381 -1.60041 0.790516 0
M  V30 5333 C 523.481 -2.99374 1.58835 0
M  V30 5334 C 522.654 -3.30624 2.86368 0
M  V30 5335 C 521.713 -4.4893 2.74496 0
M  V30 5336 O 520.739 -4.50085 3.48443 0
M  V30 5337 N 521.941 -5.49591 1.86894 0
M  V30 5338 H 524.706 -1.49176 2.59936 0
M  V30 5339 H 522.267 -0.67639 1.47094 0
M  V30 5340 H 524.259 -3.76459 1.48529 0
M  V30 5341 H 522.829 -3.04595 0.702892 0
M  V30 5342 H 522.049 -2.42314 3.1093 0
M  V30 5343 H 523.337 -3.48305 3.70892 0
M  V30 5344 H 522.735 -5.51467 1.26097 0
M  V30 5345 H 521.292 -6.25728 1.82503 0
M  V30 5346 N 524.725 -1.39134 -0.740242 0
M  V30 5347 C 526.136 -1.32208 -1.31825 0
M  V30 5348 C 526.487 0.0159919 -1.96193 0
M  V30 5349 O 525.612 0.918111 -1.95958 0
M  V30 5350 C 526.207 -2.39436 -2.39699 0
M  V30 5351 C 524.766 -2.36048 -2.93187 0
M  V30 5352 C 523.913 -2.21599 -1.66701 0
M  V30 5353 H 526.864 -1.49298 -0.538133 0
M  V30 5354 H 526.885 -2.05922 -3.19963 0
M  V30 5355 H 526.397 -3.36811 -1.92821 0
M  V30 5356 H 524.498 -1.42295 -3.44359 0
M  V30 5357 H 524.611 -3.30704 -3.46658 0
M  V30 5358 H 522.975 -1.68681 -1.90837 0
M  V30 5359 H 523.758 -3.20936 -1.21882 0
M  V30 5360 N 526.204 0.969867 -1.24223 0
M  V30 5361 C 527.432 1.74756 -1.10761 0
M  V30 5362 C 527.847 1.85713 0.340041 0
M  V30 5363 O 527.204 1.34389 1.23474 0
M  V30 5364 C 527.255 3.16915 -1.73917 0
M  V30 5365 O 526.976 3.06511 -3.13021 0
M  V30 5366 C 528.477 4.11032 -1.66036 0
M  V30 5367 H 525.697 0.548092 -0.387087 0
M  V30 5368 H 528.241 1.2178 -1.64286 0
M  V30 5369 H 526.396 3.66884 -1.244 0
M  V30 5370 H 526.81 3.96079 -3.43834 0
M  V30 5371 H 528.284 5.08446 -2.14911 0
M  V30 5372 H 528.761 4.34785 -0.621159 0
M  V30 5373 H 529.367 3.66972 -2.14969 0
M  V30 5374 N 527.682 1.05563 1.17022 0
M  V30 5375 C 528.959 0.68165 1.83338 0
M  V30 5376 C 529.339 -0.837665 1.93769 0
M  V30 5377 O 528.687 -1.74507 1.47511 0
M  V30 5378 C 528.897 1.375 3.20772 0
M  V30 5379 C 530.245 1.51545 3.96635 0
M  V30 5380 O 531.269 1.33431 3.30264 0
M  V30 5381 O 530.128 1.812 5.15586 0
M  V30 5382 H 527.222 0.240412 0.791285 0
M  V30 5383 H 529.768 1.15545 1.24288 0
M  V30 5384 H 528.54 2.41135 3.08171 0
M  V30 5385 H 528.163 0.890798 3.87493 0
M  V30 5386 N 529.16 -1.33526 0.837174 0
M  V30 5387 C 530.092 -2.28077 0.226579 0
M  V30 5388 C 531.105 -1.51666 -0.591717 0
M  V30 5389 O 532.294 -1.73511 -0.419064 0
M  V30 5390 C 529.394 -3.31597 -0.69978 0
M  V30 5391 C 528.567 -4.37329 0.0788067 0
M  V30 5392 C 527.626 -5.20526 -0.770637 0
M  V30 5393 O 526.652 -5.68811 -0.210453 0
M  V30 5394 N 527.854 -5.41639 -2.08825 0
M  V30 5395 H 530.619 -2.81115 1.03897 0
M  V30 5396 H 528.18 -1.46201 0.695476 0
M  V30 5397 H 530.172 -3.84158 -1.27298 0
M  V30 5398 H 528.742 -2.78848 -1.41288 0
M  V30 5399 H 527.962 -3.8529 0.833381 0
M  V30 5400 H 529.25 -5.05079 0.614238 0
M  V30 5401 H 528.648 -5.04108 -2.56693 0
M  V30 5402 H 527.205 -5.97263 -2.60998 0
M  V30 5403 N 530.638 -0.59345 -1.46 0
M  V30 5404 C 531.568 0.121192 -2.33185 0
M  V30 5405 C 532.549 0.872977 -1.4599 0
M  V30 5406 O 533.734 0.846321 -1.74789 0
M  V30 5407 C 530.864 1.12844 -3.28456 0
M  V30 5408 C 529.818 0.4908 -4.25177 0
M  V30 5409 C 529.144 1.60529 -5.10034 0
M  V30 5410 C 530.444 -0.578949 -5.19081 0
M  V30 5411 H 532.138 -0.606767 -2.93187 0
M  V30 5412 H 529.684 -0.293242 -1.40983 0
M  V30 5413 H 531.637 1.63684 -3.88311 0
M  V30 5414 H 530.361 1.88681 -2.66584 0
M  V30 5415 H 529.02 0.00339328 -3.666 0
M  V30 5416 H 528.668 2.35359 -4.44539 0
M  V30 5417 H 528.368 1.18422 -5.75543 0
M  V30 5418 H 529.892 2.11623 -5.72755 0
M  V30 5419 H 531.306 -0.155199 -5.7309 0
M  V30 5420 H 529.703 -0.920947 -5.92991 0
M  V30 5421 H 530.773 -1.46109 -4.62364 0
M  V30 5422 N 532.116 1.54067 -0.331816 0
M  V30 5423 C 533.046 2.27569 0.522932 0
M  V30 5424 C 534.027 1.28679 1.11247 0
M  V30 5425 O 535.212 1.57504 1.13605 0
M  V30 5426 C 532.342 3.0397 1.67987 0
M  V30 5427 C 531.296 4.10267 1.21924 0
M  V30 5428 C 530.622 4.74555 2.46377 0
M  V30 5429 C 531.922 5.21268 0.32815 0
M  V30 5430 H 533.616 2.99264 -0.0901977 0
M  V30 5431 H 531.162 1.4393 -0.044821 0
M  V30 5432 H 533.115 3.54123 2.28418 0
M  V30 5433 H 531.839 2.29906 2.31971 0
M  V30 5434 H 530.498 3.61009 0.637809 0
M  V30 5435 H 530.146 3.97098 3.08743 0
M  V30 5436 H 529.846 5.46363 2.16243 0
M  V30 5437 H 531.37 5.27487 3.07555 0
M  V30 5438 H 532.784 5.67128 0.838978 0
M  V30 5439 H 531.181 5.99982 0.119228 0
M  V30 5440 H 532.251 4.80673 -0.638839 0
M  V30 5441 N 533.594 0.0601682 1.57485 0
M  V30 5442 C 534.841 -0.611594 1.93043 0
M  V30 5443 C 535.169 -1.70317 0.939274 0
M  V30 5444 O 534.424 -1.95644 -0.046996 0
M  V30 5445 C 534.723 -1.23831 3.35262 0
M  V30 5446 C 534.389 -0.274037 4.50066 0
M  V30 5447 C 533.051 -0.00872394 4.81199 0
M  V30 5448 C 535.403 0.386308 5.19766 0
M  V30 5449 C 532.731 0.924218 5.79375 0
M  V30 5450 C 535.083 1.3075 6.1894 0
M  V30 5451 C 533.747 1.58139 6.48497 0
M  V30 5452 H 533.017 -0.223798 0.706396 0
M  V30 5453 H 535.664 0.128566 1.91068 0
M  V30 5454 H 533.969 -2.05394 3.33647 0
M  V30 5455 H 535.666 -1.76517 3.60059 0
M  V30 5456 H 532.256 -0.491008 4.25778 0
M  V30 5457 H 536.44 0.194436 4.95919 0
M  V30 5458 H 531.696 1.1438 6.00606 0
M  V30 5459 H 535.87 1.82519 6.72056 0
M  V30 5460 H 533.497 2.30593 7.24383 0
M  V30 5461 N 535.072 -1.5615 -0.213296 0
M  V30 5462 C 536.002 -1.96109 -1.26742 0
M  V30 5463 C 536.983 -0.830448 -1.48451 0
M  V30 5464 O 538.168 -1.09339 -1.60495 0
M  V30 5465 C 535.298 -2.28492 -2.61551 0
M  V30 5466 C 534.252 -3.44124 -2.54485 0
M  V30 5467 C 533.578 -3.62134 -3.93399 0
M  V30 5468 C 534.878 -4.78855 -2.08556 0
M  V30 5469 H 536.572 -2.84412 -0.935434 0
M  V30 5470 H 534.118 -1.36836 -0.44854 0
M  V30 5471 H 536.071 -2.55039 -3.3546 0
M  V30 5472 H 534.795 -1.37052 -2.96453 0
M  V30 5473 H 533.454 -3.17639 -1.83033 0
M  V30 5474 H 533.102 -2.68055 -4.25623 0
M  V30 5475 H 532.802 -4.39913 -3.89551 0
M  V30 5476 H 534.326 -3.91038 -4.68958 0
M  V30 5477 H 535.74 -5.04552 -2.72213 0
M  V30 5478 H 534.137 -5.59975 -2.1575 0
M  V30 5479 H 535.207 -4.73657 -1.03811 0
M  V30 5480 N 536.55 0.480323 -1.50102 0
M  V30 5481 C 537.778 1.25657 -1.64371 0
M  V30 5482 C 538.193 1.86011 -0.323316 0
M  V30 5483 O 537.55 1.68803 0.693682 0
M  V30 5484 C 537.601 2.37197 -2.728 0
M  V30 5485 O 537.322 1.7932 -3.9972 0
M  V30 5486 C 538.823 3.2823 -2.9796 0
M  V30 5487 H 536.043 0.380369 -0.552775 0
M  V30 5488 H 538.587 0.574379 -1.96268 0
M  V30 5489 H 536.742 3.01208 -2.43623 0
M  V30 5490 H 537.156 2.52701 -4.59611 0
M  V30 5491 H 538.63 4.02725 -3.77513 0
M  V30 5492 H 539.107 3.86462 -2.08671 0
M  V30 5493 H 539.713 2.69964 -3.28633 0
M  V30 5494 N 538.028 1.39524 0.732853 0
M  V30 5495 C 538.938 1.40695 1.87729 0
M  V30 5496 C 539.954 0.301496 1.71368 0
M  V30 5497 O 541.13 0.543313 1.93933 0
M  V30 5498 C 538.195 1.25098 3.23344 0
M  V30 5499 C 537.256 2.45634 3.52083 0
M  V30 5500 C 536.489 2.30772 4.81228 0
M  V30 5501 O 536.712 1.31233 5.55098 0
M  V30 5502 O 535.646 3.19799 5.09914 0
M  V30 5503 H 539.472 2.37168 1.89697 0
M  V30 5504 H 537.057 1.20663 0.880959 0
M  V30 5505 H 538.939 1.18541 4.04383 0
M  V30 5506 H 537.614 0.317209 3.22142 0
M  V30 5507 H 536.521 2.57767 2.71122 0
M  V30 5508 H 537.854 3.37712 3.58066 0
M  V30 5509 N 539.506 -0.963266 1.24736 0
M  V30 5510 C 540.917 -1.52145 1.08207 0
M  V30 5511 C 541.268 -1.93142 -0.345061 0
M  V30 5512 O 540.393 -1.77769 -1.23399 0
M  V30 5513 C 540.988 -2.76486 1.95808 0
M  V30 5514 C 539.547 -3.28646 1.8349 0
M  V30 5515 C 538.694 -2.01529 1.90476 0
M  V30 5516 H 541.645 -0.781083 1.38148 0
M  V30 5517 H 541.666 -3.49986 1.49297 0
M  V30 5518 H 541.178 -2.46617 2.99669 0
M  V30 5519 H 539.279 -3.63357 0.824787 0
M  V30 5520 H 539.392 -3.97246 2.67829 0
M  V30 5521 H 537.756 -2.16442 1.34258 0
M  V30 5522 H 538.539 -1.7402 2.95926 0
M  V30 5523 N 540.985 -1.06182 -1.16461 0
M  V30 5524 C 542.233 -0.776326 -1.86595 0
M  V30 5525 C 542.554 0.69921 -1.82033 0
M  V30 5526 O 541.824 1.50579 -1.2531 0
M  V30 5527 H 540.404 -0.284184 -0.690832 0
M  V30 5528 H 543.066 -1.34308 -1.41235 0
M  V30 5529 H 542.162 -1.10022 -2.92064 0
M  V30 5530 N 542.463 1.3308 -0.844243 0
M  V30 5531 C 543.688 2.02341 -0.455282 0
M  V30 5532 C 544.113 1.6308 0.93737 0
M  V30 5533 O 543.471 0.826118 1.61385 0
M  V30 5534 C 543.519 3.55743 -0.58988 0
M  V30 5535 O 542.623 4.1063 0.38166 0
M  V30 5536 H 541.964 0.637898 -0.184343 0
M  V30 5537 H 544.494 1.6986 -1.14056 0
M  V30 5538 H 544.504 4.05243 -0.473522 0
M  V30 5539 H 543.179 3.83662 -1.60549 0
M  V30 5540 H 541.756 3.72236 0.22241 0
M  V30 5541 N 543.941 0.601185 1.45683 0
M  V30 5542 C 544.888 -0.121396 2.30481 0
M  V30 5543 C 545.858 -0.866232 1.41724 0
M  V30 5544 O 547.043 -0.85324 1.70659 0
M  V30 5545 C 544.183 -1.11704 3.26521 0
M  V30 5546 C 543.296 -0.373741 4.3038 0
M  V30 5547 C 542.431 -1.35854 5.13534 0
M  V30 5548 C 541.47 -0.602689 6.09126 0
M  V30 5549 N 540.607 -1.53645 6.85082 0
M  V30 5550 H 545.447 0.607732 2.91737 0
M  V30 5551 H 542.984 0.311502 1.43764 0
M  V30 5552 H 544.942 -1.70735 3.80664 0
M  V30 5553 H 543.572 -1.81366 2.67032 0
M  V30 5554 H 542.624 0.331962 3.78949 0
M  V30 5555 H 543.936 0.2163 4.98331 0
M  V30 5556 H 543.09 -2.02111 5.72046 0
M  V30 5557 H 541.829 -1.98251 4.45587 0
M  V30 5558 H 540.834 0.0735482 5.49751 0
M  V30 5559 H 542.059 0.0161467 6.79098 0
M  V30 5560 H 540.005 -2.14819 6.1983 0
M  V30 5561 H 539.922 -0.999688 7.49361 0
M  V30 5562 H 541.19 -2.1888 7.48139 0
M  V30 5563 N 545.419 -1.53889 0.339982 0
M  V30 5564 C 546.644 -2.05741 -0.261798 0
M  V30 5565 C 547.069 -1.21354 -1.43718 0
M  V30 5566 O 546.427 -0.22645 -1.7988 0
M  V30 5567 C 546.475 -3.54542 -0.658228 0
M  V30 5568 O 545.579 -3.7302 -1.75869 0
M  V30 5569 H 544.92 -0.662529 -0.0441672 0
M  V30 5570 H 547.45 -1.98568 0.493161 0
M  V30 5571 H 547.46 -3.9711 -0.936368 0
M  V30 5572 H 546.135 -4.15412 0.201358 0
M  V30 5573 H 544.712 -3.42355 -1.47809 0
M  V30 5574 N 546.897 -0.0685191 -1.57451 0
M  V30 5575 C 548.125 0.610462 -1.97689 0
M  V30 5576 C 548.54 1.63346 -0.946758 0
M  V30 5577 O 547.897 1.82377 0.0669868 0
M  V30 5578 C 547.948 1.28196 -3.38006 0
M  V30 5579 O 547.669 0.299906 -4.37072 0
M  V30 5580 C 549.17 2.04907 -3.931 0
M  V30 5581 H 546.39 0.165689 -0.650222 0
M  V30 5582 H 548.934 -0.139953 -2.04021 0
M  V30 5583 H 547.089 1.98348 -3.32771 0
M  V30 5584 H 547.503 0.78126 -5.18649 0
M  V30 5585 H 548.977 2.47287 -4.93511 0
M  V30 5586 H 549.454 2.9043 -3.29465 0
M  V30 5587 H 550.06 1.39629 -4.01726 0
M  V30 5588 N 548.375 1.56261 0.205012 0
M  V30 5589 C 549.786 1.70056 0.770574 0
M  V30 5590 C 550.137 0.673398 1.84282 0
M  V30 5591 O 549.262 -0.172196 2.15714 0
M  V30 5592 C 549.857 3.08316 1.40451 0
M  V30 5593 C 548.416 3.2391 1.91727 0
M  V30 5594 C 547.563 2.66001 0.783516 0
M  V30 5595 H 550.514 1.58688 -0.019911 0
M  V30 5596 H 550.535 3.05094 2.27371 0
M  V30 5597 H 550.047 3.83053 0.623882 0
M  V30 5598 H 548.148 2.54072 2.7254 0
M  V30 5599 H 548.261 4.3131 2.08588 0
M  V30 5600 H 546.625 2.24915 1.19521 0
M  V30 5601 H 547.408 3.43297 0.0152883 0
M  V30 5602 N 549.853 -0.472356 1.50355 0
M  V30 5603 C 551.264 -1.05326 1.54154 0
M  V30 5604 C 551.615 -1.93155 0.344303 0
M  V30 5605 O 550.74 -2.09479 -0.542928 0
M  V30 5606 C 551.335 -1.91691 2.79356 0
M  V30 5607 C 549.894 -2.44892 2.8584 0
M  V30 5608 C 549.041 -1.23205 2.48426 0
M  V30 5609 H 551.992 -0.255027 1.56637 0
M  V30 5610 H 552.013 -2.76742 2.6114 0
M  V30 5611 H 551.525 -1.27741 3.66475 0
M  V30 5612 H 549.626 -3.12399 2.0307 0
M  V30 5613 H 549.739 -2.80086 3.88701 0
M  V30 5614 H 548.103 -1.56643 2.00836 0
M  V30 5615 H 548.886 -0.609194 3.37852 0
M  V30 5616 N 551.331 -1.39911 -0.725443 0
M  V30 5617 C 552.578 -1.37654 -1.48518 0
M  V30 5618 C 552.906 0.0243982 -1.94485 0
M  V30 5619 O 552.161 1.00708 -1.67799 0
M  V30 5620 C 552.46 -2.30368 -2.7325 0
M  V30 5621 C 552.126 -3.77817 -2.461 0
M  V30 5622 C 550.788 -4.17991 -2.38405 0
M  V30 5623 C 553.14 -4.71036 -2.23103 0
M  V30 5624 C 550.468 -5.49433 -2.05768 0
M  V30 5625 C 552.82 -6.02766 -1.9198 0
M  V30 5626 C 551.484 -6.41993 -1.82761 0
M  V30 5627 H 550.754 -0.503713 -0.543465 0
M  V30 5628 H 553.401 -1.7249 -0.831822 0
M  V30 5629 H 551.706 -1.88683 -3.43375 0
M  V30 5630 H 553.403 -2.2591 -3.31309 0
M  V30 5631 H 549.993 -3.45982 -2.52972 0
M  V30 5632 H 554.177 -4.40823 -2.2801 0
M  V30 5633 H 549.433 -5.78738 -1.9716 0
M  V30 5634 H 553.607 -6.74519 -1.73197 0
M  V30 5635 H 551.234 -7.43761 -1.57237 0
M  V30 5636 N 552.809 0.956637 -1.25245 0
M  V30 5637 C 554.034 1.74104 -1.12706 0
M  V30 5638 C 554.459 1.85436 0.315429 0
M  V30 5639 O 553.817 1.33334 1.22848 0
M  V30 5640 C 553.865 3.1338 -1.78396 0
M  V30 5641 O 552.969 3.98485 -1.06224 0
M  V30 5642 H 552.31 0.53476 -0.393609 0
M  V30 5643 H 554.84 1.19924 -1.65769 0
M  V30 5644 H 554.85 3.6385 -1.846 0
M  V30 5645 H 553.525 3.04448 -2.83345 0
M  V30 5646 H 552.102 3.56952 -1.07886 0
M  V30 5647 N 554.287 1.06798 1.15896 0
M  V30 5648 C 555.197 0.694564 2.24083 0
M  V30 5649 C 556.213 -0.291687 1.71538 0
M  V30 5650 O 557.389 -0.139723 2.00915 0
M  V30 5651 C 554.454 0.0921014 3.46578 0
M  V30 5652 C 553.515 1.13087 4.14137 0
M  V30 5653 C 552.748 0.557064 5.30785 0
M  V30 5654 O 552.971 -0.628623 5.66925 0
M  V30 5655 O 551.905 1.29924 5.8771 0
M  V30 5656 H 555.731 1.59663 2.58344 0
M  V30 5657 H 553.316 0.840575 1.2351 0
M  V30 5658 H 555.198 -0.241884 4.20705 0
M  V30 5659 H 553.873 -0.78337 3.14078 0
M  V30 5660 H 552.78 1.51712 3.41957 0
M  V30 5661 H 554.113 1.97805 4.50704 0
M  V30 5662 N 555.766 -1.3263 0.851289 0
M  V30 5663 C 557.177 -1.79653 0.5081 0
M  V30 5664 C 557.528 -1.70327 -0.973815 0
M  V30 5665 O 556.653 -1.25986 -1.75944 0
M  V30 5666 C 557.248 -3.26196 0.915515 0
M  V30 5667 C 555.807 -3.71187 0.624277 0
M  V30 5668 C 554.954 -2.53804 1.11709 0
M  V30 5669 H 557.905 -1.19976 1.03882 0
M  V30 5670 H 557.926 -3.79801 0.230535 0
M  V30 5671 H 557.438 -3.32952 1.99411 0
M  V30 5672 H 555.539 -3.69948 -0.443737 0
M  V30 5673 H 555.652 -4.64132 1.18821 0
M  V30 5674 H 554.016 -2.48964 0.537484 0
M  V30 5675 H 554.799 -2.63315 2.20272 0
M  V30 5676 N 557.244 -0.608902 -1.45362 0
M  V30 5677 C 558.174 0.0964526 -2.33301 0
M  V30 5678 C 559.155 0.857444 -1.46908 0
M  V30 5679 O 560.34 0.827735 -1.75676 0
M  V30 5680 C 557.47 1.09354 -3.29635 0
M  V30 5681 C 556.424 0.445676 -4.25673 0
M  V30 5682 C 555.75 1.5511 -5.11708 0
M  V30 5683 C 557.05 -0.633972 -5.18438 0
M  V30 5684 H 558.744 -0.637829 -2.92527 0
M  V30 5685 H 556.29 -0.308178 -1.40664 0
M  V30 5686 H 558.243 1.59556 -3.90025 0
M  V30 5687 H 556.967 1.85843 -2.6857 0
M  V30 5688 H 555.626 -0.0354897 -3.66583 0
M  V30 5689 H 555.274 2.30631 -4.4701 0
M  V30 5690 H 554.974 1.12311 -5.76767 0
M  V30 5691 H 556.498 2.05537 -5.74967 0
M  V30 5692 H 557.912 -0.215974 -5.72893 0
M  V30 5693 H 556.309 -0.983789 -5.91981 0
M  V30 5694 H 557.379 -1.51005 -4.60788 0
M  V30 5695 N 558.722 1.53707 -0.348139 0
M  V30 5696 C 559.632 2.28881 0.514857 0
M  V30 5697 C 560.648 1.34168 1.10793 0
M  V30 5698 O 561.824 1.6721 1.12262 0
M  V30 5699 C 558.889 3.05042 1.64774 0
M  V30 5700 C 557.95 4.15389 1.08398 0
M  V30 5701 C 557.183 4.87909 2.16287 0
M  V30 5702 O 557.406 4.60137 3.3709 0
M  V30 5703 O 556.34 5.74254 1.80323 0
M  V30 5704 H 560.166 3.03547 -0.0963699 0
M  V30 5705 H 557.751 1.48972 -0.113043 0
M  V30 5706 H 559.633 3.52656 2.30677 0
M  V30 5707 H 558.308 2.33228 2.24469 0
M  V30 5708 H 557.215 3.72068 0.389341 0
M  V30 5709 H 558.548 4.89318 0.531829 0
M  V30 5710 N 560.2 0.0768682 1.57412 0
M  V30 5711 C 561.446 -0.591961 1.93968 0
M  V30 5712 C 561.779 -1.68954 0.9575 0
M  V30 5713 O 561.054 -1.94496 -0.0124675 0
M  V30 5714 C 561.337 -1.16418 3.40762 0
M  V30 5715 C 561.19 -0.0728933 4.49741 0
M  V30 5716 C 562.509 -2.06814 3.88479 0
M  V30 5717 H 559.628 -0.213716 0.705333 0
M  V30 5718 H 562.27 0.14387 1.89455 0
M  V30 5719 H 560.42 -1.79128 3.4474 0
M  V30 5720 H 562.092 0.560446 4.57883 0
M  V30 5721 H 560.335 0.595859 4.29688 0
M  V30 5722 H 561.006 -0.513755 5.49604 0
M  V30 5723 H 563.482 -1.54033 3.8654 0
M  V30 5724 H 562.358 -2.43785 4.91793 0
M  V30 5725 H 562.619 -2.97844 3.26713 0
M  V30 5726 N 561.678 -1.56367 -0.196722 0
M  V30 5727 C 562.926 -1.80172 -0.915554 0
M  V30 5728 C 563.247 -0.649649 -1.8386 0
M  V30 5729 O 562.517 0.332111 -1.93064 0
M  V30 5730 H 561.097 -0.664592 -0.341067 0
M  V30 5731 H 563.759 -1.93844 -0.202622 0
M  V30 5732 H 562.855 -2.7327 -1.50764 0
M  V30 5733 N 563.156 0.464375 -1.50603 0
M  V30 5734 C 564.066 1.58723 -1.72754 0
M  V30 5735 C 565.082 1.62925 -0.610844 0
M  V30 5736 O 566.258 1.8067 -0.889963 0
M  V30 5737 C 563.323 2.94897 -1.82309 0
M  V30 5738 C 562.384 3.0103 -3.06071 0
M  V30 5739 C 561.617 4.30708 -3.1516 0
M  V30 5740 O 561.84 5.2159 -2.30868 0
M  V30 5741 O 560.774 4.42571 -4.0794 0
M  V30 5742 H 564.6 1.42954 -2.67951 0
M  V30 5743 H 562.185 0.644579 -1.3478 0
M  V30 5744 H 564.067 3.75764 -1.90735 0
M  V30 5745 H 562.742 3.10851 -0.902967 0
M  V30 5746 H 561.649 2.19217 -3.03142 0
M  V30 5747 H 562.982 2.90014 -3.97684 0
M  V30 5748 N 564.634 1.40294 0.718013 0
M  V30 5749 C 565.582 1.40536 1.85344 0
M  V30 5750 C 566.576 0.286192 1.66965 0
M  V30 5751 O 567.782 0.457105 1.74099 0
M  V30 5752 H 564.157 0.439236 0.61039 0
M  V30 5753 H 566.128 2.36275 1.82255 0
M  V30 5754 C 564.877 1.28245 3.23185 0
M  V30 5755 H 564.2 2.1364 3.37932 0
M  V30 5756 H 565.64 1.32474 4.02774 0
M  V30 5757 C 564.099 -0.0075503 3.36899 0
M  V30 5758 O 564.629 -0.971391 3.89778 0
M  V30 5759 N 562.835 -0.0762479 2.905 0
M  V30 5760 H 562.382 0.708819 2.47656 0
M  V30 5761 H 562.34 -0.938846 3.00055 0
M  V30 5762 N 566.112 -0.949982 1.2575 0
M  V30 5763 C 567.389 -1.6718 1.01539 0
M  V30 5764 C 567.769 -2.06095 -0.456942 0
M  V30 5765 O 567.117 -1.77792 -1.43534 0
M  V30 5766 C 567.327 -2.8906 1.95564 0
M  V30 5767 C 568.675 -3.60909 2.23673 0
M  V30 5768 O 569.699 -2.9915 1.9336 0
M  V30 5769 O 568.558 -4.72127 2.75243 0
M  V30 5770 H 565.652 -0.731697 0.385419 0
M  V30 5771 H 568.198 -1.00249 1.36924 0
M  V30 5772 H 566.97 -2.57128 2.94959 0
M  V30 5773 H 566.593 -3.63719 1.60605 0
M  V30 5774 N 567.59 -1.07411 -1.15328 0
M  V30 5775 C 568.815 -0.818856 -1.90551 0
M  V30 5776 C 569.24 0.622194 -1.77512 0
M  V30 5777 O 568.598 1.43484 -1.10824 0
M  V30 5778 C 568.646 -1.23267 -3.38877 0
M  V30 5779 O 567.75 -0.378345 -4.10661 0
M  V30 5780 H 567.091 -0.29827 -0.593238 0
M  V30 5781 H 569.621 -1.43289 -1.46046 0
M  V30 5782 H 569.631 -1.20912 -3.89672 0
M  V30 5783 H 568.306 -2.28226 -3.47686 0
M  V30 5784 H 566.883 -0.464437 -3.69996 0
M  V30 5785 N 569.068 1.32177 -0.85831 0
M  V30 5786 C 569.998 2.31282 -0.321041 0
M  V30 5787 C 570.979 1.59841 0.581786 0
M  V30 5788 O 572.164 1.87619 0.501262 0
M  V30 5789 C 569.294 3.4385 0.48832 0
M  V30 5790 C 568.248 4.26799 -0.320391 0
M  V30 5791 C 567.574 5.31164 0.613934 0
M  V30 5792 C 568.874 4.98829 -1.54813 0
M  V30 5793 H 570.568 2.76469 -1.14915 0
M  V30 5794 H 568.114 1.32916 -0.554028 0
M  V30 5795 H 570.067 4.12224 0.874626 0
M  V30 5796 H 568.791 2.97401 1.34983 0
M  V30 5797 H 567.45 3.60077 -0.688497 0
M  V30 5798 H 567.098 4.80967 1.47239 0
M  V30 5799 H 566.798 5.8755 0.0768097 0
M  V30 5800 H 568.322 6.024 0.997336 0
M  V30 5801 H 569.736 5.59864 -1.23392 0
M  V30 5802 H 568.133 5.64957 -2.02346 0
M  V30 5803 H 569.203 4.26483 -2.30739 0
M  V30 5804 N 570.547 0.616602 1.45037 0
M  V30 5805 C 571.772 0.120192 2.07051 0
M  V30 5806 C 572.197 -1.19008 1.45666 0
M  V30 5807 O 571.555 -1.7267 0.552692 0
M  V30 5808 C 571.603 0.00354901 3.606 0
M  V30 5809 O 570.707 -1.04431 3.98958 0
M  V30 5810 H 570.048 0.0781599 0.659384 0
M  V30 5811 H 572.578 0.849167 1.86146 0
M  V30 5812 H 572.588 -0.191754 4.07549 0
M  V30 5813 H 571.263 0.960239 4.04663 0
M  V30 5814 H 569.84 -0.824749 3.63665 0
M  V30 5815 N 572.025 -1.5352 0.356285 0
M  V30 5816 C 572.957 -2.23009 -0.529127 0
M  V30 5817 C 573.97 -1.241 -1.05371 0
M  V30 5818 O 575.159 -1.50379 -0.961679 0
M  V30 5819 C 572.259 -2.90685 -1.74229 0
M  V30 5820 C 571.432 -4.16019 -1.35081 0
M  V30 5821 C 570.491 -4.66989 -2.42502 0
M  V30 5822 O 569.517 -5.30895 -2.05279 0
M  V30 5823 N 570.719 -4.44006 -3.7395 0
M  V30 5824 H 573.484 -2.99627 0.0660501 0
M  V30 5825 H 571.045 -1.60885 0.181014 0
M  V30 5826 H 573.037 -3.21695 -2.4555 0
M  V30 5827 H 571.607 -2.17575 -2.24454 0
M  V30 5828 H 570.827 -3.91414 -0.467833 0
M  V30 5829 H 572.115 -4.9752 -1.06542 0
M  V30 5830 H 571.513 -3.92924 -4.06973 0
M  V30 5831 H 570.07 -4.7959 -4.41403 0
M  V30 5832 N 573.503 -0.0852151 -1.57369 0
M  V30 5833 C 574.743 0.584297 -1.95871 0
M  V30 5834 C 575.107 1.6596 -0.965473 0
M  V30 5835 O 576.308 2.38561 -1.23862 0
M  V30 5836 C 574.579 1.13411 -3.38929 0
M  V30 5837 S 576.138 1.81687 -3.99419 0
M  V30 5838 H 572.956 0.19095 -0.684879 0
M  V30 5839 H 575.558 -0.162267 -1.94825 0
M  V30 5840 H 574.262 0.339845 -4.0899 0
M  V30 5841 H 573.793 1.91672 -3.43548 0
M  V30 5842 H 575.808 3.10037 -3.87417 0
M  V30 5843 N 574.981 1.5647 0.188427 0
M  V30 5844 C 576.228 1.81013 0.907779 0
M  V30 5845 C 576.556 0.65953 1.82977 0
M  V30 5846 O 575.811 -0.354308 1.92466 0
M  V30 5847 C 576.11 3.11596 1.7505 0
M  V30 5848 C 575.776 4.40145 0.978922 0
M  V30 5849 C 574.438 4.75066 0.765912 0
M  V30 5850 C 576.79 5.19369 0.436498 0
M  V30 5851 C 574.118 5.867 -0.00089868 0
M  V30 5852 C 576.47 6.31805 -0.317136 0
M  V30 5853 C 575.134 6.65303 -0.541103 0
M  V30 5854 H 574.404 0.662373 0.33218 0
M  V30 5855 H 577.051 1.9071 0.173732 0
M  V30 5856 H 575.356 2.97165 2.55343 0
M  V30 5857 H 577.053 3.27793 2.30983 0
M  V30 5858 H 573.643 4.12745 1.15497 0
M  V30 5859 H 577.827 4.92799 0.588449 0
M  V30 5860 H 573.083 6.11122 -0.184329 0
M  V30 5861 H 577.257 6.92406 -0.744788 0
M  V30 5862 H 574.884 7.51646 -1.13718 0
M  V30 5863 N 576.459 -0.456382 1.50847 0
M  V30 5864 C 577.687 -1.23026 1.66349 0
M  V30 5865 C 578.102 -1.85473 0.352868 0
M  V30 5866 O 577.459 -1.69885 -0.666739 0
M  V30 5867 C 577.51 -2.32827 2.76539 0
M  V30 5868 O 577.231 -1.72938 4.02522 0
M  V30 5869 C 578.732 -3.23448 3.03144 0
M  V30 5870 H 575.952 -0.371527 0.558756 0
M  V30 5871 H 578.496 -0.543082 1.97157 0
M  V30 5872 H 576.651 -2.97294 2.48384 0
M  V30 5873 H 577.065 -2.45357 4.63573 0
M  V30 5874 H 578.539 -3.96669 3.83872 0
M  V30 5875 H 579.016 -3.83094 2.14793 0
M  V30 5876 H 579.622 -2.64702 3.32886 0
M  V30 5877 N 577.937 -1.40673 -0.710563 0
M  V30 5878 C 579.185 -1.38947 -1.46759 0
M  V30 5879 C 579.506 0.00572879 -1.94999 0
M  V30 5880 O 578.776 0.961358 -1.70689 0
M  V30 5881 H 577.356 -0.5114 -0.544499 0
M  V30 5882 H 580.018 -1.75773 -0.842012 0
M  V30 5883 H 579.114 -2.06745 -2.33801 0
M  V30 5884 N 579.415 0.9433 -1.26252 0
M  V30 5885 C 580.643 1.72367 -1.14443 0
M  V30 5886 C 581.058 1.86392 0.300572 0
M  V30 5887 O 580.415 1.36978 1.20596 0
M  V30 5888 C 580.466 3.13155 -1.806 0
M  V30 5889 O 580.187 2.99803 -3.19452 0
M  V30 5890 C 581.688 4.07417 -1.74717 0
M  V30 5891 H 578.908 0.539758 -0.398626 0
M  V30 5892 H 581.452 1.18268 -1.66832 0
M  V30 5893 H 579.607 3.64162 -1.32154 0
M  V30 5894 H 580.021 3.88697 -3.52158 0
M  V30 5895 H 581.495 5.03773 -2.25647 0
M  V30 5896 H 581.972 4.3337 -0.713244 0
M  V30 5897 H 582.578 3.6233 -2.22704 0
M  V30 5898 N 580.893 1.08022 1.14757 0
M  V30 5899 C 581.825 0.664566 2.19354 0
M  V30 5900 C 582.838 -0.286374 1.60261 0
M  V30 5901 O 584.027 -0.0746362 1.78344 0
M  V30 5902 C 581.127 -0.0434634 3.38872 0
M  V30 5903 C 580.3 0.925381 4.27499 0
M  V30 5904 C 579.359 0.253398 5.2559 0
M  V30 5905 O 578.385 0.896581 5.62094 0
M  V30 5906 N 579.587 -0.998263 5.71852 0
M  V30 5907 H 582.352 1.56438 2.55631 0
M  V30 5908 H 579.913 0.965788 1.29939 0
M  V30 5909 H 581.905 -0.503857 4.01551 0
M  V30 5910 H 580.475 -0.845321 3.00954 0
M  V30 5911 H 579.695 1.56472 3.61815 0
M  V30 5912 H 580.983 1.58203 4.8358 0
M  V30 5913 H 580.381 -1.54063 5.44317 0
M  V30 5914 H 578.938 -1.40222 6.36538 0
M  V30 5915 N 582.371 -1.3172 0.865308 0
M  V30 5916 C 583.596 -2.01591 0.487415 0
M  V30 5917 C 584.021 -1.6455 -0.911307 0
M  V30 5918 O 583.379 -0.851689 -1.6005 0
M  V30 5919 C 583.427 -3.54759 0.646401 0
M  V30 5920 O 582.531 -4.11185 -0.316284 0
M  V30 5921 H 581.872 -0.634884 0.194468 0
M  V30 5922 H 584.402 -1.68024 1.16744 0
M  V30 5923 H 584.412 -4.04438 0.537932 0
M  V30 5924 H 583.087 -3.8106 1.66632 0
M  V30 5925 H 581.664 -3.72543 -0.163162 0
M  V30 5926 N 583.85 -0.624285 -1.44708 0
M  V30 5927 C 585.077 -0.132919 -2.06473 0
M  V30 5928 C 585.493 1.18967 -1.46602 0
M  V30 5929 O 584.85 1.72824 -0.586341 0
M  V30 5930 C 584.901 -0.00465418 -3.615 0
M  V30 5931 O 584.622 -1.27494 -4.19138 0
M  V30 5932 C 586.123 0.516213 -4.40284 0
M  V30 5933 H 583.343 -0.0765201 -0.666623 0
M  V30 5934 H 585.887 -0.856751 -1.85688 0
M  V30 5935 H 584.042 0.669583 -3.8157 0
M  V30 5936 H 584.456 -1.11536 -5.12504 0
M  V30 5937 H 585.93 0.554994 -5.49203 0
M  V30 5938 H 586.407 1.5419 -4.11245 0
M  V30 5939 H 587.013 -0.124542 -4.25118 0
M  V30 5940 N 585.328 1.53329 -0.364422 0
M  V30 5941 C 586.574 2.01537 0.225969 0
M  V30 5942 C 586.907 1.25128 1.48515 0
M  V30 5943 O 586.182 0.344653 1.91422 0
M  V30 5944 C 586.465 3.56339 0.519092 0
M  V30 5945 C 586.318 4.43441 -0.753639 0
M  V30 5946 C 587.637 4.19833 1.32015 0
M  V30 5947 H 584.756 0.732573 0.0806548 0
M  V30 5948 H 587.398 1.83597 -0.489084 0
M  V30 5949 H 585.548 3.71756 1.12825 0
M  V30 5950 H 587.22 4.39823 -1.39116 0
M  V30 5951 H 585.463 4.11457 -1.37424 0
M  V30 5952 H 586.134 5.49699 -0.503517 0
M  V30 5953 H 588.61 4.08242 0.804859 0
M  V30 5954 H 587.486 5.28177 1.49399 0
M  V30 5955 H 587.747 3.75821 2.32832 0
M  V30 5956 N 586.806 0.0935595 1.57322 0
M  V30 5957 C 588.054 -0.569383 1.93913 0
M  V30 5958 C 588.375 -1.68817 0.976009 0
M  V30 5959 O 587.645 -1.9588 0.0278099 0
M  V30 5960 H 586.225 -0.21332 0.715894 0
M  V30 5961 H 588.887 0.156531 1.9427 0
M  V30 5962 H 587.983 -0.980577 2.96296 0
M  V30 5963 N 588.284 -1.56567 -0.180126 0
M  V30 5964 C 589.509 -1.85975 -0.918041 0
M  V30 5965 C 589.934 -0.678888 -1.75422 0
M  V30 5966 O 589.292 0.372168 -1.77439 0
M  V30 5967 C 589.34 -3.13731 -1.77779 0
M  V30 5968 O 588.444 -2.95335 -2.87838 0
M  V30 5969 H 587.785 -0.61196 -0.257683 0
M  V30 5970 H 590.315 -2.03798 -0.180923 0
M  V30 5971 H 590.325 -3.4491 -2.17948 0
M  V30 5972 H 589 -3.99293 -1.16352 0
M  V30 5973 H 587.577 -2.7549 -2.51316 0
M  V30 5974 N 589.762 0.448376 -1.51087 0
M  V30 5975 C 590.672 1.56882 -1.74428 0
M  V30 5976 C 591.688 1.62268 -0.62809 0
M  V30 5977 O 592.864 1.79716 -0.909075 0
M  V30 5978 C 589.929 2.92947 -1.85426 0
M  V30 5979 C 588.99 2.97766 -3.09247 0
M  V30 5980 C 588.223 4.27341 -3.19711 0
M  V30 5981 O 588.446 5.19112 -2.36387 0
M  V30 5982 O 587.38 4.38219 -4.12611 0
M  V30 5983 H 591.206 1.40104 -2.69452 0
M  V30 5984 H 588.791 0.630247 -1.35456 0
M  V30 5985 H 590.673 3.73719 -1.94709 0
M  V30 5986 H 589.348 3.09876 -0.935887 0
M  V30 5987 H 588.255 2.15989 -3.0545 0
M  V30 5988 H 589.588 2.8578 -4.00738 0
M  V30 5989 N 591.24 1.41047 0.703093 0
M  V30 5990 C 592.465 1.43537 1.49706 0
M  V30 5991 C 592.89 0.0401853 1.88057 0
M  V30 5992 O 592.248 -0.954785 1.54122 0
M  V30 5993 C 592.296 2.3433 2.74084 0
M  V30 5994 O 591.4 1.79515 3.71279 0
M  V30 5995 H 590.741 0.487454 0.450871 0
M  V30 5996 H 593.271 1.85422 0.86486 0
M  V30 5997 H 593.281 2.49947 3.22476 0
M  V30 5998 H 591.956 3.35708 2.45506 0
M  V30 5999 H 590.533 1.7331 3.30179 0
M  V30 6000 N 592.718 -0.936591 1.26751 0
M  V30 6001 C 593.958 -1.69796 1.13792 0
M  V30 6002 C 594.322 -1.89437 -0.312671 0
M  V30 6003 O 595.523 -2.62806 -0.564489 0
M  V30 6004 C 593.794 -3.03297 1.89065 0
M  V30 6005 S 595.353 -3.94461 1.92214 0
M  V30 6006 H 592.171 -0.583412 0.406389 0
M  V30 6007 H 594.773 -1.11575 1.60535 0
M  V30 6008 H 593.477 -2.86687 2.93665 0
M  V30 6009 H 593.008 -3.66575 1.42781 0
M  V30 6010 H 595.023 -4.85767 1.01215 0
M  V30 6011 N 594.196 -1.08629 -1.14182 0
M  V30 6012 C 595.144 -0.71284 -2.21408 0
M  V30 6013 C 596.138 0.282457 -1.67029 0
M  V30 6014 O 597.344 0.144783 -1.79417 0
M  V30 6015 H 593.719 -0.212497 -0.721352 0
M  V30 6016 H 595.69 -1.6265 -2.50175 0
M  V30 6017 C 594.439 -0.140704 -3.47415 0
M  V30 6018 H 593.762 -0.897739 -3.8959 0
M  V30 6019 H 595.202 0.0827677 -4.23919 0
M  V30 6020 C 593.661 1.122 -3.17668 0
M  V30 6021 O 594.191 2.20652 -3.35672 0
M  V30 6022 N 592.397 1.03328 -2.71609 0
M  V30 6023 H 591.944 0.150666 -2.57159 0
M  V30 6024 H 591.902 1.8789 -2.52081 0
M  V30 6025 N 595.674 1.31259 -0.872281 0
M  V30 6026 C 596.914 1.98418 -0.490894 0
M  V30 6027 C 597.278 1.67429 0.939755 0
M  V30 6028 O 598.479 2.27818 1.42661 0
M  V30 6029 C 596.75 3.49583 -0.743408 0
M  V30 6030 S 598.309 4.36359 -0.462226 0
M  V30 6031 H 595.127 0.687005 -0.183151 0
M  V30 6032 H 597.729 1.59619 -1.12881 0
M  V30 6033 H 596.433 3.69627 -1.78338 0
M  V30 6034 H 595.964 3.93291 -0.0925758 0
M  V30 6035 H 597.979 4.91173 0.704525 0
M  V30 6036 N 597.152 0.631951 1.44375 0
M  V30 6037 C 598.38 0.143867 2.06399 0
M  V30 6038 C 598.795 -1.18188 1.47231 0
M  V30 6039 O 598.152 -1.72511 0.595498 0
M  V30 6040 C 598.203 0.0238253 3.61492 0
M  V30 6041 O 597.924 1.29715 4.18456 0
M  V30 6042 C 599.425 -0.492856 4.40552 0
M  V30 6043 H 596.645 0.0800542 0.666207 0
M  V30 6044 H 599.189 0.866586 1.85231 0
M  V30 6045 H 597.344 -0.649338 3.81919 0
M  V30 6046 H 597.758 1.14252 5.11905 0
M  V30 6047 H 599.232 -0.525861 5.49489 0
M  V30 6048 H 599.709 -1.52006 4.12057 0
M  V30 6049 H 600.315 0.147085 4.25046 0
M  V30 6050 N 598.631 -1.53133 0.372548 0
M  V30 6051 C 599.541 -2.29671 -0.478379 0
M  V30 6052 C 600.557 -1.35913 -1.08644 0
M  V30 6053 O 601.733 -1.68975 -1.09588 0
M  V30 6054 C 598.798 -3.07625 -1.599 0
M  V30 6055 C 597.859 -4.17061 -1.01776 0
M  V30 6056 C 597.092 -4.91289 -2.08497 0
M  V30 6057 O 597.315 -4.65442 -3.29727 0
M  V30 6058 O 596.249 -5.7705 -1.71164 0
M  V30 6059 H 600.075 -3.03355 0.144649 0
M  V30 6060 H 597.66 -1.48773 0.136729 0
M  V30 6061 H 599.542 -3.56281 -2.25038 0
M  V30 6062 H 598.217 -2.3677 -2.2073 0
M  V30 6063 H 597.124 -3.72641 -0.330098 0
M  V30 6064 H 598.457 -4.90102 -0.453915 0
M  V30 6065 N 600.109 -0.101901 -1.5727 0
M  V30 6066 C 601.52 0.426173 -1.81771 0
M  V30 6067 C 601.871 1.67725 -1.01797 0
M  V30 6068 O 600.996 2.14958 -0.249386 0
M  V30 6069 C 601.591 0.779962 -3.297 0
M  V30 6070 C 600.15 1.25275 -3.54941 0
M  V30 6071 C 599.297 0.252814 -2.76145 0
M  V30 6072 H 602.248 -0.32726 -1.55289 0
M  V30 6073 H 602.269 1.63891 -3.43395 0
M  V30 6074 H 601.781 -0.130778 -3.8788 0
M  V30 6075 H 599.882 2.18097 -3.021 0
M  V30 6076 H 599.995 1.20988 -4.63572 0
M  V30 6077 H 598.359 0.736362 -2.43823 0
M  V30 6078 H 599.142 -0.650724 -3.37076 0
M  V30 6079 N 601.587 1.56661 0.17182 0
M  V30 6080 C 602.517 1.99401 1.21498 0
M  V30 6081 C 603.498 0.869516 1.46197 0
M  V30 6082 O 604.683 1.13556 1.57539 0
M  V30 6083 C 601.813 2.35346 2.55401 0
M  V30 6084 C 600.767 3.5075 2.45272 0
M  V30 6085 C 600.093 3.72437 3.8366 0
M  V30 6086 C 601.393 4.84216 1.95787 0
M  V30 6087 H 603.087 2.86792 0.859699 0
M  V30 6088 H 600.633 1.37977 0.412103 0
M  V30 6089 H 602.586 2.63843 3.2858 0
M  V30 6090 H 601.31 1.44864 2.92715 0
M  V30 6091 H 599.969 3.2238 1.74547 0
M  V30 6092 H 599.617 2.79246 4.18367 0
M  V30 6093 H 599.317 4.50087 3.77751 0
M  V30 6094 H 600.841 4.03334 4.58426 0
M  V30 6095 H 602.255 5.11592 2.5874 0
M  V30 6096 H 600.652 5.65498 2.00827 0
M  V30 6097 H 601.722 4.76243 0.912159 0
M  V30 6098 N 603.065 -0.440357 1.51323 0
M  V30 6099 C 604.305 -1.19956 1.65499 0
M  V30 6100 C 604.669 -1.88559 0.361878 0
M  V30 6101 O 605.87 -2.66109 0.379383 0
M  V30 6102 C 604.141 -2.1918 2.82303 0
M  V30 6103 S 605.7 -3.03627 3.1679 0
M  V30 6104 H 602.518 -0.406833 0.583102 0
M  V30 6105 H 605.12 -0.491596 1.89218 0
M  V30 6106 H 603.824 -1.67414 3.74701 0
M  V30 6107 H 603.355 -2.94561 2.60763 0
M  V30 6108 H 605.37 -4.20773 2.62991 0
M  V30 6109 N 604.543 -1.41418 -0.695603 0
M  V30 6110 C 605.959 -1.23887 -1.00619 0
M  V30 6111 C 606.159 -0.128206 -2.01092 0
M  V30 6112 O 605.215 0.507408 -2.47349 0
M  V30 6113 C 606.528 -2.58816 -1.53083 0
M  V30 6114 C 608.076 -2.65998 -1.64967 0
M  V30 6115 C 608.551 -4.01244 -2.20833 0
M  V30 6116 N 610.042 -4.0309 -2.28194 0
M  V30 6117 C 610.777 -5.04539 -2.72448 0
M  V30 6118 N 610.273 -6.16378 -3.16306 0
M  V30 6119 N 612.066 -4.91901 -2.72011 0
M  V30 6120 H 604.217 -2.12379 -0.0300061 0
M  V30 6121 H 606.48 -0.944958 -0.0758797 0
M  V30 6122 H 606.186 -3.40842 -0.867147 0
M  V30 6123 H 606.06 -2.81299 -2.51298 0
M  V30 6124 H 608.447 -1.84331 -2.30448 0
M  V30 6125 H 608.528 -2.47325 -0.652982 0
M  V30 6126 H 608.172 -4.83359 -1.55968 0
M  V30 6127 H 608.102 -4.17257 -3.21254 0
M  V30 6128 H 610.593 -3.22341 -1.97242 0
M  V30 6129 H 610.906 -6.89658 -3.487 0
M  V30 6130 H 609.251 -6.19914 -3.14215 0
M  V30 6131 H 612.442 -4.03613 -2.37095 0
M  V30 6132 H 612.615 -5.71102 -3.06181 0
M  V30 6133 N 606.021 0.929856 -1.27246 0
M  V30 6134 C 607.249 1.71144 -1.16265 0
M  V30 6135 C 607.664 1.867 0.280786 0
M  V30 6136 O 607.021 1.38249 1.19136 0
M  V30 6137 C 607.072 3.11222 -1.83911 0
M  V30 6138 O 606.793 2.96398 -3.22614 0
M  V30 6139 C 608.294 4.05541 -1.79028 0
M  V30 6140 H 605.514 0.535499 -0.404328 0
M  V30 6141 H 608.058 1.16492 -1.68077 0
M  V30 6142 H 606.213 3.6274 -1.36009 0
M  V30 6143 H 606.627 3.8494 -3.56261 0
M  V30 6144 H 608.101 5.01351 -2.30978 0
M  V30 6145 H 608.578 4.32589 -0.759168 0
M  V30 6146 H 609.184 3.59947 -2.26535 0
M  V30 6147 N 607.499 1.09233 1.13605 0
M  V30 6148 C 608.776 0.739633 1.81077 0
M  V30 6149 C 609.156 -0.775595 1.96336 0
M  V30 6150 O 608.504 -1.69726 1.52988 0
M  V30 6151 C 608.714 1.47636 3.16235 0
M  V30 6152 C 610.062 1.64087 3.91613 0
M  V30 6153 O 611.086 1.43871 3.25852 0
M  V30 6154 O 609.945 1.97511 5.0956 0
M  V30 6155 H 607.039 0.265464 0.783236 0
M  V30 6156 H 609.585 1.19441 1.20549 0
M  V30 6157 H 608.357 2.50818 3.00344 0
M  V30 6158 H 607.98 1.01362 3.84462 0
M  V30 6159 N 608.977 -1.30795 0.87923 0
M  V30 6160 C 610.223 -1.97035 0.50487 0
M  V30 6161 C 610.578 -1.68182 -0.934484 0
M  V30 6162 O 609.871 -0.972953 -1.65058 0
M  V30 6163 C 610.065 -3.50287 0.709476 0
M  V30 6164 C 609.894 -3.94035 2.16717 0
M  V30 6165 C 608.664 -4.1992 2.81061 0
M  V30 6166 C 610.862 -4.07288 3.1404 0
M  V30 6167 N 608.844 -4.50088 4.17486 0
M  V30 6168 C 610.215 -4.41273 4.35521 0
M  V30 6169 C 612.27 -3.89696 3.09906 0
M  V30 6170 C 610.973 -4.59501 5.534 0
M  V30 6171 C 612.999 -4.09122 4.27052 0
M  V30 6172 C 612.361 -4.43447 5.47297 0
M  V30 6173 H 608.46 -0.746181 0.233962 0
M  V30 6174 H 611.044 -1.5814 1.13577 0
M  V30 6175 H 609.215 -3.8825 0.108108 0
M  V30 6176 H 610.947 -4.03567 0.302585 0
M  V30 6177 H 607.702 -4.12906 2.3196 0
M  V30 6178 H 608.126 -4.69316 4.87926 0
M  V30 6179 H 612.768 -3.62239 2.18043 0
M  V30 6180 H 610.486 -4.85802 6.45773 0
M  V30 6181 H 614.072 -3.96985 4.25316 0
M  V30 6182 H 612.952 -4.58171 6.36435 0
M  V30 6183 N 610.455 -0.639598 -1.44038 0
M  V30 6184 C 611.683 -0.154811 -2.0632 0
M  V30 6185 C 612.098 1.17406 -1.47856 0
M  V30 6186 O 611.455 1.72193 -0.604638 0
M  V30 6187 C 611.506 -0.0429958 -3.61474 0
M  V30 6188 O 611.227 -1.31932 -4.17763 0
M  V30 6189 C 612.728 0.469486 -4.40807 0
M  V30 6190 H 609.948 -0.0835862 -0.665773 0
M  V30 6191 H 612.492 -0.876397 -1.84769 0
M  V30 6192 H 610.647 0.629075 -3.82258 0
M  V30 6193 H 611.061 -1.16965 -5.11292 0
M  V30 6194 H 612.535 0.496712 -5.49761 0
M  V30 6195 H 613.012 1.49819 -4.12857 0
M  V30 6196 H 613.618 -0.169624 -4.24962 0
M  V30 6197 N 611.933 1.52934 -0.380664 0
M  V30 6198 C 613.344 1.86457 0.0952684 0
M  V30 6199 C 613.695 1.3007 1.46889 0
M  V30 6200 O 612.82 0.628636 2.07068 0
M  V30 6201 C 613.415 3.38323 0.179648 0
M  V30 6202 C 611.974 3.71589 0.599858 0
M  V30 6203 C 611.121 2.76228 -0.243572 0
M  V30 6204 H 614.072 1.46966 -0.59888 0
M  V30 6205 H 614.093 3.67113 1.00042 0
M  V30 6206 H 613.605 3.79333 -0.820228 0
M  V30 6207 H 611.706 3.36144 1.60742 0
M  V30 6208 H 611.819 4.77715 0.364003 0
M  V30 6209 H 610.183 2.53045 0.289855 0
M  V30 6210 H 610.966 3.20074 -1.24127 0
M  V30 6211 N 613.412 0.11024 1.57214 0
M  V30 6212 C 614.345 -0.880224 2.1054 0
M  V30 6213 C 615.323 -1.26658 1.01964 0
M  V30 6214 O 616.507 -1.36917 1.29561 0
M  V30 6215 C 613.634 -2.17676 2.59489 0
M  V30 6216 C 612.68 -1.93914 3.79868 0
M  V30 6217 S 613.513 -1.16336 5.2271 0
M  V30 6218 C 614.669 -2.47188 5.75021 0
M  V30 6219 H 614.902 -0.426614 2.94223 0
M  V30 6220 H 612.435 -0.10336 1.54054 0
M  V30 6221 H 614.393 -2.92175 2.88347 0
M  V30 6222 H 613.054 -2.60156 1.76005 0
M  V30 6223 H 612.247 -2.8996 4.12236 0
M  V30 6224 H 611.849 -1.27539 3.51582 0
M  V30 6225 H 614.141 -3.43079 5.84211 0
M  V30 6226 H 615.084 -2.19377 6.7326 0
M  V30 6227 H 615.492 -2.56154 5.03036 0
M  V30 6228 N 614.89 -1.56749 -0.16351 0
M  V30 6229 C 616.115 -1.86938 -0.898264 0
M  V30 6230 C 616.54 -0.697456 -1.74692 0
M  V30 6231 O 615.898 0.353327 -1.77824 0
M  V30 6232 C 615.946 -3.15599 -1.74441 0
M  V30 6233 O 615.05 -2.98371 -2.8469 0
M  V30 6234 H 614.391 -0.614659 -0.251178 0
M  V30 6235 H 616.921 -2.03979 -0.159298 0
M  V30 6236 H 616.931 -3.47202 -2.14277 0
M  V30 6237 H 615.606 -4.00505 -1.1211 0
M  V30 6238 H 614.183 -2.7814 -2.4838 0
M  V30 6239 N 616.368 0.432326 -1.51554 0
M  V30 6240 C 617.593 1.20824 -1.68571 0
M  V30 6241 C 618.018 1.84126 -0.384596 0
M  V30 6242 O 617.376 1.69025 0.655751 0
M  V30 6243 C 617.424 2.26429 -2.80646 0
M  V30 6244 O 616.528 3.32032 -2.44598 0
M  V30 6245 H 615.869 0.353765 -0.561913 0
M  V30 6246 H 618.399 0.509916 -1.98144 0
M  V30 6247 H 618.409 2.71133 -3.04878 0
M  V30 6248 H 617.084 1.79733 -3.75058 0
M  V30 6249 H 615.661 2.92769 -2.30956 0
M  V30 6250 N 617.846 1.41785 0.688094 0
M  V30 6251 C 618.756 1.46596 1.83158 0
M  V30 6252 C 619.772 0.355862 1.70322 0
M  V30 6253 O 620.948 0.604737 1.92106 0
M  V30 6254 C 618.013 1.35322 3.192 0
M  V30 6255 C 617.074 2.56711 3.4409 0
M  V30 6256 C 616.307 2.45965 4.73642 0
M  V30 6257 O 616.53 1.48827 5.50642 0
M  V30 6258 O 615.464 3.35859 4.99482 0
M  V30 6259 H 619.29 2.43083 1.82056 0
M  V30 6260 H 616.875 1.23404 0.842126 0
M  V30 6261 H 618.757 1.31347 4.00407 0
M  V30 6262 H 617.432 0.419536 3.2097 0
M  V30 6263 H 616.339 2.66262 2.62784 0
M  V30 6264 H 617.672 3.48933 3.47141 0
M  V30 6265 N 619.324 -0.923095 1.27737 0
M  V30 6266 C 620.272 -2.04567 1.10703 0
M  V30 6267 C 621.266 -1.69375 0.0288445 0
M  V30 6268 O 622.472 -1.79027 0.186913 0
M  V30 6269 H 618.847 -0.670109 0.34126 0
M  V30 6270 H 620.818 -2.1608 2.05796 0
M  V30 6271 C 619.567 -3.38934 0.775837 0
M  V30 6272 H 618.89 -3.66501 1.59741 0
M  V30 6273 H 620.33 -4.18239 0.696548 0
M  V30 6274 C 618.789 -3.32863 -0.520012 0
M  V30 6275 O 619.319 -3.70462 -1.55308 0
M  V30 6276 N 617.525 -2.85958 -0.51732 0
M  V30 6277 H 617.072 -2.55557 0.32379 0
M  V30 6278 H 617.03 -2.82279 -1.38441 0
M  V30 6279 N 620.802 -1.09834 -1.13024 0
M  V30 6280 C 622.032 -0.857657 -1.87957 0
M  V30 6281 C 622.44 0.595008 -1.796 0
M  V30 6282 O 621.783 1.42158 -1.16347 0
M  V30 6283 C 621.845 -1.21949 -3.38185 0
M  V30 6284 C 621.509 -2.67791 -3.7032 0
M  V30 6285 C 622.506 -3.66036 -3.69207 0
M  V30 6286 C 620.191 -3.04019 -3.99847 0
M  V30 6287 C 622.185 -4.98533 -3.9717 0
M  V30 6288 C 619.872 -4.36706 -4.27471 0
M  V30 6289 C 620.87 -5.33772 -4.26118 0
M  V30 6290 O 620.558 -6.64072 -4.53061 0
M  V30 6291 H 620.29 -0.308009 -0.601753 0
M  V30 6292 H 622.844 -1.46496 -1.43973 0
M  V30 6293 H 621.074 -0.555249 -3.82693 0
M  V30 6294 H 622.763 -0.957281 -3.9445 0
M  V30 6295 H 623.529 -3.39392 -3.46465 0
M  V30 6296 H 619.408 -2.29096 -4.00045 0
M  V30 6297 H 622.952 -5.74288 -3.96029 0
M  V30 6298 H 618.849 -4.63091 -4.49685 0
M  V30 6299 H 619.617 -6.69608 -4.7071 0
M  V30 6300 N 622.28 1.30327 -0.886154 0
M  V30 6301 C 623.21 2.30549 -0.370028 0
M  V30 6302 C 624.191 1.61039 0.547751 0
M  V30 6303 O 625.376 1.8864 0.461353 0
M  V30 6304 C 622.506 3.44808 0.415275 0
M  V30 6305 C 621.46 4.26024 -0.41085 0
M  V30 6306 C 620.786 5.32347 0.501128 0
M  V30 6307 C 622.086 4.95433 -1.65359 0
M  V30 6308 H 623.78 2.73969 -1.20754 0
M  V30 6309 H 621.326 1.3171 -0.582097 0
M  V30 6310 H 623.279 4.13986 0.78699 0
M  V30 6311 H 622.003 3.00197 1.28644 0
M  V30 6312 H 620.662 3.58535 -0.764719 0
M  V30 6313 H 620.31 4.83982 1.37004 0
M  V30 6314 H 620.01 5.87581 -0.0478356 0
M  V30 6315 H 621.534 6.0438 0.869333 0
M  V30 6316 H 622.948 5.5712 -1.35239 0
M  V30 6317 H 621.345 5.60537 -2.14284 0
M  V30 6318 H 622.415 4.21493 -2.39733 0
M  V30 6319 N 623.758 0.647228 1.43697 0
M  V30 6320 C 624.69 -0.0866232 2.29036 0
M  V30 6321 C 625.703 -0.793051 1.42178 0
M  V30 6322 O 626.892 -0.651807 1.66174 0
M  V30 6323 C 623.992 -1.14552 3.18953 0
M  V30 6324 C 623.165 -0.518422 4.34317 0
M  V30 6325 C 622.224 -1.4734 5.05151 0
M  V30 6326 O 621.25 -0.984312 5.60625 0
M  V30 6327 N 622.452 -2.8075 5.08094 0
M  V30 6328 H 625.217 0.645834 2.92659 0
M  V30 6329 H 622.778 0.489567 1.54321 0
M  V30 6330 H 624.77 -1.78505 3.63205 0
M  V30 6331 H 623.34 -1.78001 2.56971 0
M  V30 6332 H 622.56 0.300079 3.93056 0
M  V30 6333 H 623.848 -0.080401 5.08736 0
M  V30 6334 H 623.246 -3.23052 4.64386 0
M  V30 6335 H 621.803 -3.40022 5.56083 0
M  V30 6336 N 625.236 -1.5273 0.388769 0
M  V30 6337 C 626.183 -2.26437 -0.446639 0
M  V30 6338 C 627.153 -1.28025 -1.05824 0
M  V30 6339 O 628.338 -1.56852 -1.08637 0
M  V30 6340 C 625.478 -3.07407 -1.56828 0
M  V30 6341 C 624.591 -4.20747 -0.979589 0
M  V30 6342 C 623.726 -4.89113 -2.07224 0
M  V30 6343 C 622.765 -5.94447 -1.45942 0
M  V30 6344 N 621.902 -6.56411 -2.49135 0
M  V30 6345 H 626.742 -2.97404 0.18837 0
M  V30 6346 H 624.279 -1.46727 0.104725 0
M  V30 6347 H 626.237 -3.52642 -2.22934 0
M  V30 6348 H 624.867 -2.3865 -2.17361 0
M  V30 6349 H 623.919 -3.7983 -0.208151 0
M  V30 6350 H 625.231 -4.9637 -0.491747 0
M  V30 6351 H 624.385 -5.3765 -2.81101 0
M  V30 6352 H 623.124 -4.13013 -2.59368 0
M  V30 6353 H 622.129 -5.4525 -0.705894 0
M  V30 6354 H 623.354 -6.7248 -0.945932 0
M  V30 6355 H 621.3 -5.83152 -3.00449 0
M  V30 6356 H 621.217 -7.27645 -2.05105 0
M  V30 6357 H 622.485 -7.09592 -3.22644 0
M  V30 6358 N 626.714 -0.118576 -1.57153 0
M  V30 6359 C 627.624 0.845484 -2.18835 0
M  V30 6360 C 628.64 1.29299 -1.16438 0
M  V30 6361 O 629.816 1.35607 -1.48905 0
M  V30 6362 C 626.881 2.07795 -2.77529 0
M  V30 6363 C 625.942 1.6824 -3.9496 0
M  V30 6364 C 625.175 2.85612 -4.50845 0
M  V30 6365 O 625.398 4.01025 -4.05629 0
M  V30 6366 O 624.332 2.62721 -5.41536 0
M  V30 6367 H 628.158 0.350568 -3.0167 0
M  V30 6368 H 625.743 0.107013 -1.49016 0
M  V30 6369 H 627.625 2.79978 -3.14945 0
M  V30 6370 H 626.3 2.56294 -1.97725 0
M  V30 6371 H 625.207 0.931663 -3.62313 0
M  V30 6372 H 626.54 1.24484 -4.76198 0
M  V30 6373 N 628.193 1.56834 0.155195 0
M  V30 6374 C 629.439 1.83169 0.870467 0
M  V30 6375 C 629.772 0.698929 1.81187 0
M  V30 6376 O 629.047 -0.298035 1.92203 0
M  V30 6377 C 629.33 3.19965 1.65211 0
M  V30 6378 C 629.183 4.43792 0.732744 0
M  V30 6379 C 630.502 3.53885 2.61636 0
M  V30 6380 H 627.621 0.666288 0.315006 0
M  V30 6381 H 630.263 1.89513 0.135988 0
M  V30 6382 H 628.413 3.14687 2.27825 0
M  V30 6383 H 630.085 4.61148 0.118236 0
M  V30 6384 H 628.328 4.3378 0.0417906 0
M  V30 6385 H 628.999 5.36095 1.31552 0
M  V30 6386 H 631.475 3.5972 2.09143 0
M  V30 6387 H 630.351 4.50648 3.13381 0
M  V30 6388 H 630.612 2.79418 3.42605 0
M  V30 6389 N 629.671 -0.424282 1.51781 0
M  V30 6390 C 630.948 -1.18464 1.55646 0
M  V30 6391 C 631.328 -2.08529 0.328438 0
M  V30 6392 O 630.676 -2.17969 -0.685693 0
M  V30 6393 C 630.886 -1.97514 2.87731 0
M  V30 6394 C 632.234 -2.54106 3.40169 0
M  V30 6395 O 633.258 -2.07711 2.89369 0
M  V30 6396 O 632.117 -3.38759 4.28841 0
M  V30 6397 H 629.211 -0.540055 0.626314 0
M  V30 6398 H 631.757 -0.432291 1.64102 0
M  V30 6399 H 630.529 -1.31444 3.68562 0
M  V30 6400 H 630.152 -2.79787 2.82498 0
M  V30 6401 N 631.149 -1.42148 -0.680565 0
M  V30 6402 C 632.374 -1.45901 -1.47403 0
M  V30 6403 C 632.799 -0.0700985 -1.87969 0
M  V30 6404 O 632.157 0.930145 -1.55621 0
M  V30 6405 C 632.205 -2.38661 -2.70321 0
M  V30 6406 O 631.309 -1.85399 -3.68376 0
M  V30 6407 H 630.65 -0.494565 -0.443059 0
M  V30 6408 H 633.18 -1.86774 -0.835251 0
M  V30 6409 H 633.19 -2.55046 -3.18458 0
M  V30 6410 H 631.865 -3.39571 -2.40134 0
M  V30 6411 H 630.442 -1.78541 -3.2738 0
M  V30 6412 N 632.627 0.916307 -1.28225 0
M  V30 6413 C 633.875 1.6619 -1.15002 0
M  V30 6414 C 634.196 1.92642 0.302329 0
M  V30 6415 O 633.466 1.54076 1.20985 0
M  V30 6416 H 632.046 0.615964 -0.422608 0
M  V30 6417 H 634.708 1.09963 -1.60917 0
M  V30 6418 H 633.804 2.62533 -1.68769 0
M  V30 6419 N 634.105 1.10431 1.1244 0
M  V30 6420 C 635.055 0.722378 2.16254 0
M  V30 6421 C 636.039 -0.268427 1.58645 0
M  V30 6422 O 637.231 -0.077169 1.76832 0
M  V30 6423 C 634.36 0.155763 3.42946 0
M  V30 6424 C 633.446 1.17361 4.07538 0
M  V30 6425 N 633.837 2.36429 4.47141 0
M  V30 6426 C 632.135 1.01412 4.34317 0
M  V30 6427 C 632.836 3.01259 4.97612 0
M  V30 6428 N 631.812 2.28777 4.93115 0
M  V30 6429 H 635.614 1.62876 2.4464 0
M  V30 6430 H 633.128 0.982031 1.29344 0
M  V30 6431 H 635.125 -0.135936 4.16678 0
M  V30 6432 H 633.785 -0.745339 3.1603 0
M  V30 6433 H 634.796 2.73954 4.39511 0
M  V30 6434 H 631.473 0.168574 4.1716 0
M  V30 6435 H 632.863 4.02541 5.37968 0
M  V30 6436 N 635.583 -1.29855 0.893053 0
M  V30 6437 C 636.823 -1.97612 0.522399 0
M  V30 6438 C 637.187 -1.68903 -0.913 0
M  V30 6439 O 638.388 -2.30059 -1.39019 0
M  V30 6440 C 636.659 -3.48356 0.79893 0
M  V30 6441 S 638.218 -4.35568 0.531588 0
M  V30 6442 H 635.036 -0.684005 0.194058 0
M  V30 6443 H 637.638 -1.57803 1.15406 0
M  V30 6444 H 636.342 -3.66743 1.84196 0
M  V30 6445 H 635.873 -3.93094 0.155133 0
M  V30 6446 H 637.888 -4.92232 -0.626295 0
M  V30 6447 N 637.061 -0.65484 -1.43351 0
M  V30 6448 C 638.472 -0.248506 -1.85039 0
M  V30 6449 C 638.823 1.20526 -1.54816 0
M  V30 6450 O 637.948 1.92016 -0.99794 0
M  V30 6451 C 638.543 -0.444241 -3.35875 0
M  V30 6452 C 637.102 -0.0922108 -3.76287 0
M  V30 6453 C 636.249 -0.746327 -2.67068 0
M  V30 6454 H 639.2 -0.8584 -1.33481 0
M  V30 6455 H 639.221 0.309762 -3.79237 0
M  V30 6456 H 638.733 -1.50239 -3.5784 0
M  V30 6457 H 636.834 0.96328 -3.59933 0
M  V30 6458 H 636.947 -0.518807 -4.76283 0
M  V30 6459 H 635.311 -0.179416 -2.54067 0
M  V30 6460 H 636.094 -1.80754 -2.91861 0
M  V30 6461 N 638.539 1.52521 -0.396863 0
M  V30 6462 C 639.489 2.2348 0.451722 0
M  V30 6463 C 640.473 1.2415 1.0235 0
M  V30 6464 O 641.665 1.4945 0.948348 0
M  V30 6465 C 638.794 3.05067 1.57445 0
M  V30 6466 C 637.88 4.11799 1.01404 0
M  V30 6467 N 638.271 5.05482 0.179234 0
M  V30 6468 C 636.569 4.27064 1.28578 0
M  V30 6469 C 637.27 5.81552 -0.131202 0
M  V30 6470 N 636.246 5.41523 0.474735 0
M  V30 6471 H 640.048 2.93269 -0.192534 0
M  V30 6472 H 637.562 1.61081 -0.206591 0
M  V30 6473 H 639.559 3.54446 2.19485 0
M  V30 6474 H 638.219 2.36816 2.22145 0
M  V30 6475 H 639.23 5.17573 -0.18411 0
M  V30 6476 H 635.907 3.70042 1.93327 0
M  V30 6477 H 637.297 6.67023 -0.808061 0
M  V30 6478 N 640.017 0.126909 1.57088 0
M  V30 6479 C 641.263 -0.523662 1.96543 0
M  V30 6480 C 641.618 -1.63783 1.0096 0
M  V30 6481 O 640.911 -1.91556 0.0410175 0
M  V30 6482 C 641.105 -1.095 3.40212 0
M  V30 6483 C 640.934 -0.037715 4.49684 0
M  V30 6484 C 639.704 0.396823 5.03739 0
M  V30 6485 C 641.902 0.746245 5.08857 0
M  V30 6486 N 639.884 1.43905 5.96795 0
M  V30 6487 C 641.255 1.63947 5.97931 0
M  V30 6488 C 643.31 0.796259 4.91492 0
M  V30 6489 C 642.013 2.57837 6.715 0
M  V30 6490 C 644.039 1.7229 5.65747 0
M  V30 6491 C 643.401 2.60369 6.54513 0
M  V30 6492 H 639.5 -0.161016 0.765244 0
M  V30 6493 H 642.084 0.21686 1.93489 0
M  V30 6494 H 640.255 -1.80521 3.43899 0
M  V30 6495 H 641.987 -1.71054 3.66773 0
M  V30 6496 H 638.742 0.00290406 4.736 0
M  V30 6497 H 639.166 1.95932 6.48027 0
M  V30 6498 H 643.808 0.129412 4.22602 0
M  V30 6499 H 641.526 3.25532 7.39631 0
M  V30 6500 H 645.112 1.76715 5.54313 0
M  V30 6501 H 643.992 3.30906 7.10965 0
M  V30 6502 N 641.495 -1.56914 -0.146875 0
M  V30 6503 C 642.458 -1.97368 -1.16526 0
M  V30 6504 C 643.458 -0.860223 -1.35856 0
M  V30 6505 O 644.648 -1.12684 -1.32846 0
M  V30 6506 C 641.78 -2.28974 -2.52555 0
M  V30 6507 H 642.973 -2.88523 -0.818209 0
M  V30 6508 H 640.526 -1.5135 -0.390221 0
M  V30 6509 H 641.261 -1.40611 -2.92231 0
M  V30 6510 H 641.046 -3.10157 -2.39886 0
M  V30 6511 H 642.536 -2.61109 -3.25902 0
M  V30 6512 N 642.974 0.416227 -1.52004 0
M  V30 6513 C 643.937 1.48926 -1.74223 0
M  V30 6514 C 644.937 1.48693 -0.612119 0
M  V30 6515 O 646.127 1.50343 -0.879921 0
M  V30 6516 C 643.259 2.88372 -1.81809 0
M  V30 6517 H 644.452 1.3052 -2.70008 0
M  V30 6518 H 642.005 0.646271 -1.42313 0
M  V30 6519 H 642.74 3.12157 -0.879135 0
M  V30 6520 H 642.525 2.89944 -2.6396 0
M  V30 6521 H 644.015 3.66173 -2.00766 0
M  V30 6522 N 644.452 1.42507 0.673017 0
M  V30 6523 C 645.677 1.4668 1.46627 0
M  V30 6524 C 646.102 0.080066 1.8793 0
M  V30 6525 O 645.46 -0.921879 1.56112 0
M  V30 6526 C 645.508 2.40091 2.69051 0
M  V30 6527 O 644.612 1.8735 3.67387 0
M  V30 6528 H 643.953 0.496908 0.44043 0
M  V30 6529 H 646.483 1.87215 0.825334 0
M  V30 6530 H 646.493 2.56731 3.17101 0
M  V30 6531 H 645.168 3.4084 2.3833 0
M  V30 6532 H 643.745 1.80274 3.26429 0
M  V30 6533 N 645.93 -0.909495 1.28709 0
M  V30 6534 C 647.341 -1.47419 1.14563 0
M  V30 6535 C 647.692 -1.94432 -0.262832 0
M  V30 6536 O 646.817 -1.82842 -1.15748 0
M  V30 6537 C 647.412 -2.67933 2.07358 0
M  V30 6538 C 645.971 -3.20568 1.97264 0
M  V30 6539 C 645.118 -1.93269 1.98852 0
M  V30 6540 H 648.069 -0.721787 1.41336 0
M  V30 6541 H 648.09 -3.43339 1.64007 0
M  V30 6542 H 647.602 -2.33685 3.09859 0
M  V30 6543 H 645.703 -3.59531 0.978157 0
M  V30 6544 H 645.816 -3.85529 2.84436 0
M  V30 6545 H 644.18 -2.10553 1.43317 0
M  V30 6546 H 644.963 -1.61312 3.0304 0
M  V30 6547 N 647.408 -1.11026 -1.11852 0
M  V30 6548 C 648.633 -0.879064 -1.87849 0
M  V30 6549 C 649.058 0.565406 -1.79401 0
M  V30 6550 O 648.416 1.39886 -1.15333 0
M  V30 6551 C 648.464 -1.33985 -3.34784 0
M  V30 6552 O 647.568 -0.508803 -4.09249 0
M  V30 6553 H 646.909 -0.316992 -0.583448 0
M  V30 6554 H 649.439 -1.47863 -1.41413 0
M  V30 6555 H 649.449 -1.33248 -3.85628 0
M  V30 6556 H 648.124 -2.39172 -3.40249 0
M  V30 6557 H 646.701 -0.581913 -3.68332 0
M  V30 6558 N 648.886 1.2938 -0.899927 0
M  V30 6559 C 650.297 1.77644 -0.574427 0
M  V30 6560 C 650.648 1.73824 0.909928 0
M  V30 6561 O 649.773 1.32429 1.71147 0
M  V30 6562 C 650.368 3.22573 -1.03595 0
M  V30 6563 C 648.927 3.68614 -0.76161 0
M  V30 6564 C 648.074 2.49483 -1.21052 0
M  V30 6565 H 651.025 1.16038 -1.08263 0
M  V30 6566 H 651.046 3.78684 -0.371337 0
M  V30 6567 H 650.558 3.25321 -2.11631 0
M  V30 6568 H 648.659 3.7134 0.306127 0
M  V30 6569 H 648.772 4.59402 -1.35965 0
M  V30 6570 H 647.136 2.46798 -0.629515 0
M  V30 6571 H 647.919 2.54959 -2.29893 0
M  V30 6572 N 650.364 0.662433 1.43002 0
M  V30 6573 C 651.312 -0.035345 2.32573 0
M  V30 6574 C 652.306 -0.803505 1.49131 0
M  V30 6575 O 653.512 -0.712865 1.65282 0
M  V30 6576 H 649.887 -0.0302194 0.751393 0
M  V30 6577 H 651.858 0.737686 2.89138 0
M  V30 6578 C 650.607 -0.981575 3.33557 0
M  V30 6579 H 649.93 -0.399914 3.97795 0
M  V30 6580 H 651.37 -1.43873 3.98844 0
M  V30 6581 C 649.829 -2.08204 2.64863 0
M  V30 6582 O 650.359 -3.16698 2.47113 0
M  V30 6583 N 648.565 -1.85022 2.24088 0
M  V30 6584 H 648.112 -0.967909 2.38724 0
M  V30 6585 H 648.07 -2.58845 1.78457 0
M  V30 6586 N 651.842 -1.52309 0.404946 0
M  V30 6587 C 653.088 -2.02731 -0.164857 0
M  V30 6588 C 653.443 -1.28543 -1.43159 0
M  V30 6589 O 652.736 -0.381883 -1.87756 0
M  V30 6590 C 652.93 -3.54284 -0.470895 0
M  V30 6591 C 652.759 -4.43152 0.764625 0
M  V30 6592 C 651.529 -4.88594 1.28858 0
M  V30 6593 C 653.727 -4.874 1.64152 0
M  V30 6594 N 651.709 -5.61577 2.48001 0
M  V30 6595 C 653.08 -5.59121 2.67924 0
M  V30 6596 C 655.135 -4.69421 1.65978 0
M  V30 6597 C 653.838 -6.14772 3.73427 0
M  V30 6598 C 655.864 -5.25966 2.70396 0
M  V30 6599 C 655.226 -5.97606 3.7289 0
M  V30 6600 H 651.325 -0.78169 -0.0220025 0
M  V30 6601 H 653.909 -1.86522 0.558354 0
M  V30 6602 H 652.08 -3.70574 -1.16315 0
M  V30 6603 H 653.812 -3.91394 -1.02921 0
M  V30 6604 H 650.567 -4.6596 0.847232 0
M  V30 6605 H 650.991 -6.02712 3.08329 0
M  V30 6606 H 655.633 -4.13524 0.88079 0
M  V30 6607 H 653.351 -6.69743 4.52184 0
M  V30 6608 H 656.937 -5.13926 2.72711 0
M  V30 6609 H 655.817 -6.40577 4.52361 0
M  V30 6610 N 653.32 -0.135238 -1.57019 0
M  V30 6611 C 654.283 0.794707 -2.14981 0
M  V30 6612 C 655.283 1.18342 -1.08866 0
M  V30 6613 O 656.473 1.10627 -1.34563 0
M  V30 6614 C 653.605 2.07685 -2.70333 0
M  V30 6615 H 654.798 0.290696 -2.98488 0
M  V30 6616 H 652.351 0.114128 -1.55883 0
M  V30 6617 H 653.086 2.6248 -1.9046 0
M  V30 6618 H 652.871 1.80745 -3.47957 0
M  V30 6619 H 654.361 2.74127 -3.1503 0
M  V30 6620 N 654.798 1.5699 0.138552 0
M  V30 6621 C 656.075 1.74741 0.87891 0
M  V30 6622 C 656.455 0.705522 1.98961 0
M  V30 6623 O 655.803 -0.274066 2.2685 0
M  V30 6624 C 656.013 3.1909 1.4136 0
M  V30 6625 C 657.361 3.81023 1.87368 0
M  V30 6626 O 658.385 3.22571 1.51084 0
M  V30 6627 O 657.244 4.83722 2.54312 0
M  V30 6628 H 654.338 0.714781 0.415953 0
M  V30 6629 H 656.884 1.69248 0.123817 0
M  V30 6630 H 655.656 3.86424 0.61579 0
M  V30 6631 H 655.279 3.29043 2.23196 0
M  V30 6632 N 656.276 -0.40816 1.52223 0
M  V30 6633 C 657.522 -1.15673 1.66576 0
M  V30 6634 C 657.855 -1.90141 0.394996 0
M  V30 6635 O 657.13 -1.84798 -0.606613 0
M  V30 6636 C 657.413 -2.15042 2.88841 0
M  V30 6637 C 657.266 -1.44465 4.25969 0
M  V30 6638 C 658.585 -3.15699 3.0663 0
M  V30 6639 H 655.704 -0.41916 0.606196 0
M  V30 6640 H 658.346 -0.442348 1.84779 0
M  V30 6641 H 656.496 -2.75964 2.73452 0
M  V30 6642 H 658.168 -0.866544 4.53088 0
M  V30 6643 H 656.411 -0.746612 4.27327 0
M  V30 6644 H 657.082 -2.16976 5.07568 0
M  V30 6645 H 659.558 -2.64854 3.20923 0
M  V30 6646 H 658.434 -3.82491 3.9369 0
M  V30 6647 H 658.695 -3.83481 2.19987 0
M  V30 6648 N 657.755 -1.42862 -0.66545 0
M  V30 6649 C 658.995 -1.45323 -1.43738 0
M  V30 6650 C 659.359 -0.0707969 -1.91869 0
M  V30 6651 O 660.56 0.0298852 -2.68783 0
M  V30 6652 C 658.831 -2.45671 -2.59577 0
M  V30 6653 S 660.39 -2.6691 -3.48288 0
M  V30 6654 H 657.208 -0.51442 -0.490809 0
M  V30 6655 H 659.81 -1.79537 -0.773745 0
M  V30 6656 H 658.514 -3.44869 -2.22471 0
M  V30 6657 H 658.045 -2.12914 -3.30804 0
M  V30 6658 H 660.06 -1.95914 -4.55886 0
M  V30 6659 N 659.233 0.902656 -1.29189 0
M  V30 6660 C 660.461 1.68639 -1.19869 0
M  V30 6661 C 660.876 1.87254 0.241121 0
M  V30 6662 O 660.233 1.40745 1.16177 0
M  V30 6663 C 660.284 3.07251 -1.90471 0
M  V30 6664 O 660.005 2.89488 -3.28829 0
M  V30 6665 C 661.506 4.01653 -1.8759 0
M  V30 6666 H 658.726 0.526802 -0.415596 0
M  V30 6667 H 661.27 1.12901 -1.7051 0
M  V30 6668 H 659.425 3.59774 -1.43672 0
M  V30 6669 H 659.839 3.77296 -3.64346 0
M  V30 6670 H 661.313 4.96339 -2.4156 0
M  V30 6671 H 661.79 4.30881 -0.850756 0
M  V30 6672 H 662.396 3.55061 -2.34119 0
M  V30 6673 N 660.711 1.11618 1.11262 0
M  V30 6674 C 661.959 0.864469 1.82678 0
M  V30 6675 C 662.28 -0.611564 1.85162 0
M  V30 6676 O 661.55 -1.44429 1.32352 0
M  V30 6677 H 660.13 0.316821 0.676486 0
M  V30 6678 H 662.792 1.40894 1.34666 0
M  V30 6679 H 661.888 1.23832 2.86482 0
M  V30 6680 N 662.189 -1.289 0.906776 0
M  V30 6681 C 663.429 -1.97046 0.543329 0
M  V30 6682 C 663.793 -1.69862 -0.895034 0
M  V30 6683 O 664.994 -2.31521 -1.36571 0
M  V30 6684 C 663.265 -3.47489 0.835833 0
M  V30 6685 S 664.824 -4.3498 0.577756 0
M  V30 6686 H 661.642 -0.681908 0.201302 0
M  V30 6687 H 664.244 -1.5657 1.17073 0
M  V30 6688 H 662.948 -3.64768 1.88075 0
M  V30 6689 H 662.479 -3.92907 0.196817 0
M  V30 6690 H 664.494 -4.92868 -0.574052 0
M  V30 6691 N 663.667 -0.670007 -1.42649 0
M  V30 6692 C 665.083 -0.33911 -1.55956 0
M  V30 6693 C 665.283 1.1558 -1.65056 0
M  V30 6694 O 664.339 1.94111 -1.61485 0
M  V30 6695 C 665.652 -1.06522 -2.812 0
M  V30 6696 C 667.2 -1.04708 -2.94966 0
M  V30 6697 C 667.675 -1.75442 -4.23065 0
M  V30 6698 N 669.166 -1.72286 -4.29967 0
M  V30 6699 C 669.901 -2.23877 -5.27889 0
M  V30 6700 N 669.397 -2.83829 -6.31991 0
M  V30 6701 N 671.19 -2.14279 -5.19654 0
M  V30 6702 H 663.341 -1.6399 -1.34986 0
M  V30 6703 H 665.604 -0.690603 -0.649439 0
M  V30 6704 H 665.31 -2.12033 -2.80597 0
M  V30 6705 H 665.184 -0.627398 -3.71946 0
M  V30 6706 H 667.571 -0.000315966 -2.951 0
M  V30 6707 H 667.652 -1.52374 -2.05465 0
M  V30 6708 H 667.296 -2.80084 -4.23693 0
M  V30 6709 H 667.226 -1.25229 -5.11493 0
M  V30 6710 H 669.717 -1.28554 -3.55362 0
M  V30 6711 H 670.03 -3.20827 -7.03057 0
M  V30 6712 H 668.375 -2.87896 -6.32567 0
M  V30 6713 H 671.566 -1.67135 -4.37245 0
M  V30 6714 H 671.739 -2.54792 -5.95806 0
M  V30 6715 N 665.145 1.52092 -0.413018 0
M  V30 6716 C 666.093 2.28681 0.425199 0
M  V30 6717 C 667.087 1.3353 1.04241 0
M  V30 6718 O 668.293 1.50973 0.980166 0
M  V30 6719 H 664.668 0.735661 0.155906 0
M  V30 6720 H 666.639 2.97418 -0.241926 0
M  V30 6721 C 665.388 3.1235 1.5275 0
M  V30 6722 H 664.711 3.85439 1.06191 0
M  V30 6723 H 666.151 3.69038 2.08774 0
M  V30 6724 C 664.61 2.26161 2.49706 0
M  V30 6725 O 665.14 1.90452 3.53682 0
M  V30 6726 N 663.346 1.89854 2.20008 0
M  V30 6727 H 662.893 2.19092 1.35486 0
M  V30 6728 H 662.851 1.3248 2.85125 0
M  V30 6729 N 666.623 0.143563 1.56945 0
M  V30 6730 C 668.034 -0.37783 1.82837 0
M  V30 6731 C 668.385 -1.64967 1.06209 0
M  V30 6732 O 667.51 -2.14221 0.306291 0
M  V30 6733 C 668.105 -0.692274 3.31652 0
M  V30 6734 C 666.664 -1.1582 3.58138 0
M  V30 6735 C 665.811 -0.17951 2.76718 0
M  V30 6736 H 668.762 0.368317 1.54367 0
M  V30 6737 H 668.783 -1.54729 3.47619 0
M  V30 6738 H 668.295 0.233572 3.87397 0
M  V30 6739 H 666.396 -2.10011 3.07776 0
M  V30 6740 H 666.509 -1.08655 4.66616 0
M  V30 6741 H 664.873 -0.671458 2.4569 0
M  V30 6742 H 665.656 0.739865 3.35233 0
M  V30 6743 N 668.101 -1.57061 -0.130224 0
M  V30 6744 C 669.512 -1.73539 -0.68856 0
M  V30 6745 C 669.863 -0.760554 -1.80859 0
M  V30 6746 O 668.988 0.0690796 -2.1629 0
M  V30 6747 C 669.583 -3.14666 -1.25581 0
M  V30 6748 C 668.142 -3.32689 -1.76055 0
M  V30 6749 C 667.289 -2.69436 -0.655712 0
M  V30 6750 H 670.24 -1.58412 0.0956002 0
M  V30 6751 H 670.261 -3.15595 -2.12556 0
M  V30 6752 H 669.773 -3.85593 -0.440412 0
M  V30 6753 H 667.874 -2.66786 -2.60108 0
M  V30 6754 H 667.987 -4.4077 -1.87772 0
M  V30 6755 H 666.351 -2.30362 -1.08654 0
M  V30 6756 H 667.134 -3.42979 0.14852 0
M  V30 6757 N 669.579 0.400081 -1.52437 0
M  V30 6758 C 670.827 1.14392 -1.6661 0
M  V30 6759 C 671.148 1.90792 -0.402927 0
M  V30 6760 O 670.418 1.87042 0.582425 0
M  V30 6761 H 668.998 0.425275 -0.614125 0
M  V30 6762 H 671.66 0.455076 -1.89513 0
M  V30 6763 H 670.756 1.85298 -2.51139 0
M  V30 6764 N 671.057 1.43213 0.657864 0
M  V30 6765 C 671.967 1.50448 1.80007 0
M  V30 6766 C 672.983 0.39191 1.69529 0
M  V30 6767 O 674.159 0.645349 1.90781 0
M  V30 6768 C 671.224 1.42062 3.16258 0
M  V30 6769 C 670.285 2.63951 3.38568 0
M  V30 6770 C 669.518 2.55956 4.68318 0
M  V30 6771 O 669.741 1.60473 5.47361 0
M  V30 6772 O 668.675 3.46378 4.92245 0
M  V30 6773 H 672.501 2.4689 1.76858 0
M  V30 6774 H 670.086 1.25163 0.81576 0
M  V30 6775 H 671.968 1.3981 3.97531 0
M  V30 6776 H 670.643 0.487524 3.20008 0
M  V30 6777 H 669.55 2.71776 2.57077 0
M  V30 6778 H 670.883 3.56217 3.39662 0
M  V30 6779 N 672.536 -0.895792 1.29666 0
M  V30 6780 C 673.813 -1.62723 1.08538 0
M  V30 6781 C 674.193 -2.07848 -0.369119 0
M  V30 6782 O 673.541 -1.8372 -1.35864 0
M  V30 6783 C 673.751 -2.80505 2.07648 0
M  V30 6784 C 675.099 -3.51098 2.3878 0
M  V30 6785 O 676.123 -2.90679 2.05874 0
M  V30 6786 O 674.982 -4.60028 2.9502 0
M  V30 6787 H 672.076 -0.714692 0.416106 0
M  V30 6788 H 674.622 -0.943517 1.41053 0
M  V30 6789 H 673.394 -2.44386 3.05599 0
M  V30 6790 H 673.017 -3.5658 1.75887 0
M  V30 6791 N 674.014 -1.12206 -1.10668 0
M  V30 6792 C 675.254 -0.885935 -1.84202 0
M  V30 6793 C 675.618 0.577849 -1.83098 0
M  V30 6794 O 676.819 0.931051 -2.5216 0
M  V30 6795 C 675.09 -1.44197 -3.2702 0
M  V30 6796 S 676.649 -1.34402 -4.1771 0
M  V30 6797 H 673.467 -0.319653 -0.635093 0
M  V30 6798 H 676.069 -1.43112 -1.33189 0
M  V30 6799 H 674.773 -2.50096 -3.25392 0
M  V30 6800 H 674.304 -0.894173 -3.83103 0
M  V30 6801 H 676.319 -0.313873 -4.95206 0
M  V30 6802 N 675.492 1.28418 -0.913599 0
M  V30 6803 C 676.402 2.31043 -0.406965 0
M  V30 6804 C 677.418 1.66501 0.505298 0
M  V30 6805 O 678.594 1.97558 0.391522 0
M  V30 6806 C 675.659 3.4498 0.344901 0
M  V30 6807 C 674.72 4.25078 -0.600563 0
M  V30 6808 C 673.953 5.33575 0.115516 0
M  V30 6809 O 674.176 5.54503 1.33727 0
M  V30 6810 O 673.11 5.9939 -0.549095 0
M  V30 6811 H 676.936 2.76387 -1.25873 0
M  V30 6812 H 674.521 1.33109 -0.678415 0
M  V30 6813 H 676.403 4.14314 0.769542 0
M  V30 6814 H 675.078 3.01719 1.1725 0
M  V30 6815 H 673.985 3.58334 -1.0746 0
M  V30 6816 H 675.318 4.72018 -1.39497 0
M  V30 6817 N 676.97 0.677563 1.42291 0
M  V30 6818 C 678.381 0.277912 1.8462 0
M  V30 6819 C 678.732 -1.18048 1.56714 0
M  V30 6820 O 677.857 -1.90404 1.02836 0
M  V30 6821 C 678.452 0.497619 3.35126 0
M  V30 6822 C 677.011 0.152063 3.76093 0
M  V30 6823 C 676.158 0.78872 2.65847 0
M  V30 6824 H 679.109 0.879527 1.32098 0
M  V30 6825 H 679.13 -0.24939 3.79682 0
M  V30 6826 H 678.642 1.55913 3.55405 0
M  V30 6827 H 676.743 -0.905896 3.6142 0
M  V30 6828 H 676.856 0.594514 4.75397 0
M  V30 6829 H 675.22 0.219813 2.5375 0
M  V30 6830 H 676.003 1.85374 2.88949 0
M  V30 6831 N 678.448 -1.51871 0.421078 0
M  V30 6832 C 679.378 -2.30231 -0.389363 0
M  V30 6833 C 680.359 -1.34946 -1.03555 0
M  V30 6834 O 681.544 -1.63859 -1.04229 0
M  V30 6835 C 678.674 -3.13247 -1.49979 0
M  V30 6836 C 677.628 -4.16677 -0.977966 0
M  V30 6837 C 676.954 -4.88112 -2.1829 0
M  V30 6838 C 678.254 -5.22295 -0.0236775 0
M  V30 6839 H 679.948 -2.98229 0.264524 0
M  V30 6840 H 677.494 -1.43424 0.12866 0
M  V30 6841 H 679.447 -3.66838 -2.07383 0
M  V30 6842 H 678.171 -2.4304 -2.18173 0
M  V30 6843 H 676.83 -3.64114 -0.426245 0
M  V30 6844 H 676.478 -4.14423 -2.85066 0
M  V30 6845 H 676.178 -5.58041 -1.84021 0
M  V30 6846 H 677.702 -5.44521 -2.76278 0
M  V30 6847 H 679.116 -5.71055 -0.506899 0
M  V30 6848 H 677.513 -5.99656 0.230782 0
M  V30 6849 H 678.583 -4.76131 0.917999 0
M  V30 6850 N 679.926 -0.151884 -1.56866 0
M  V30 6851 C 681.172 0.498742 -1.96572 0
M  V30 6852 C 681.505 1.64194 -1.03702 0
M  V30 6853 O 680.78 1.94334 -0.0803432 0
M  V30 6854 C 681.063 1.00027 -3.45929 0
M  V30 6855 C 680.916 -0.141767 -4.49577 0
M  V30 6856 C 682.235 1.88044 -3.97904 0
M  V30 6857 H 679.354 0.17982 -0.714726 0
M  V30 6858 H 681.996 -0.234097 -1.88552 0
M  V30 6859 H 680.146 1.62476 -3.52894 0
M  V30 6860 H 681.818 -0.778269 -4.54687 0
M  V30 6861 H 680.061 -0.80019 -4.26356 0
M  V30 6862 H 680.732 0.250947 -5.51429 0
M  V30 6863 H 683.208 1.35416 -3.93449 0
M  V30 6864 H 682.084 2.20043 -5.02864 0
M  V30 6865 H 682.345 2.81916 -3.40552 0
M  V30 6866 N 681.404 1.57128 0.121893 0
M  V30 6867 C 682.652 1.84335 0.828548 0
M  V30 6868 C 682.973 0.736632 1.80551 0
M  V30 6869 O 682.243 -0.23962 1.94429 0
M  V30 6870 H 680.823 0.680108 0.30897 0
M  V30 6871 H 683.485 1.9459 0.109906 0
M  V30 6872 H 682.581 2.80152 1.37554 0
M  V30 6873 N 682.882 -0.391992 1.52647 0
M  V30 6874 C 684.107 -1.16312 1.71716 0
M  V30 6875 C 684.532 -1.83042 0.433279 0
M  V30 6876 O 683.89 -1.70705 -0.610707 0
M  V30 6877 C 683.938 -2.18908 2.86551 0
M  V30 6878 O 683.042 -3.2543 2.53316 0
M  V30 6879 H 682.383 -0.338743 0.571095 0
M  V30 6880 H 684.913 -0.457202 1.99426 0
M  V30 6881 H 684.923 -2.62954 3.1196 0
M  V30 6882 H 683.598 -1.69726 3.79692 0
M  V30 6883 H 682.175 -2.86543 2.38637 0
M  V30 6884 N 684.36 -1.4356 -0.65026 0
M  V30 6885 C 685.771 -1.40324 -1.2315 0
M  V30 6886 C 686.122 -0.108812 -1.95898 0
M  V30 6887 O 685.247 0.79163 -2.01401 0
M  V30 6888 C 685.842 -2.54195 -2.23987 0
M  V30 6889 C 684.401 -2.54215 -2.77582 0
M  V30 6890 C 683.548 -2.31752 -1.5227 0
M  V30 6891 H 686.499 -1.52418 -0.442095 0
M  V30 6892 H 686.52 -2.25854 -3.0622 0
M  V30 6893 H 686.032 -3.48392 -1.71011 0
M  V30 6894 H 684.133 -1.63907 -3.34612 0
M  V30 6895 H 684.246 -3.52081 -3.24925 0
M  V30 6896 H 682.61 -1.80476 -1.79723 0
M  V30 6897 H 683.393 -3.28037 -1.01225 0
M  V30 6898 N 685.838 0.888903 -1.30139 0
M  V30 6899 C 686.785 1.99422 -1.16188 0
M  V30 6900 C 687.755 1.66017 -0.0523869 0
M  V30 6901 O 688.94 1.89506 -0.221864 0
M  V30 6902 C 686.08 3.34325 -0.855612 0
M  V30 6903 C 685.193 3.80445 -2.0466 0
M  V30 6904 C 684.328 5.03975 -1.67876 0
M  V30 6905 C 683.367 5.42492 -2.83493 0
M  V30 6906 N 682.504 6.57206 -2.47032 0
M  V30 6907 H 687.344 2.10687 -2.10749 0
M  V30 6908 H 684.881 1.03165 -1.04859 0
M  V30 6909 H 686.839 4.11968 -0.658681 0
M  V30 6910 H 685.469 3.22756 0.0531155 0
M  V30 6911 H 684.521 2.98745 -2.3549 0
M  V30 6912 H 685.833 4.04933 -2.91257 0
M  V30 6913 H 684.987 5.89232 -1.44535 0
M  V30 6914 H 683.726 4.8135 -0.784431 0
M  V30 6915 H 682.731 4.55764 -3.07505 0
M  V30 6916 H 683.956 5.67093 -3.73607 0
M  V30 6917 H 681.902 6.36164 -1.601 0
M  V30 6918 H 681.819 6.81543 -3.27161 0
M  V30 6919 H 683.087 7.45704 -2.27038 0
M  V30 6920 N 687.317 1.12792 1.10072 0
M  V30 6921 C 688.733 0.864745 1.34143 0
M  V30 6922 C 688.933 -0.503201 1.95116 0
M  V30 6923 O 687.989 -1.25111 2.19325 0
M  V30 6924 C 689.302 1.98413 2.25949 0
M  V30 6925 C 690.85 2.01545 2.39476 0
M  V30 6926 C 691.325 3.12727 3.34613 0
M  V30 6927 N 692.816 3.12194 3.42183 0
M  V30 6928 C 693.551 3.94862 4.15779 0
M  V30 6929 N 693.047 4.87528 4.92228 0
M  V30 6930 N 694.84 3.82985 4.11435 0
M  V30 6931 H 686.991 2.00926 0.68866 0
M  V30 6932 H 689.254 0.874564 0.365844 0
M  V30 6933 H 688.96 2.97005 1.88364 0
M  V30 6934 H 688.834 1.89254 3.26287 0
M  V30 6935 H 691.221 1.0357 2.76328 0
M  V30 6936 H 691.302 2.14777 1.3894 0
M  V30 6937 H 690.946 4.10936 2.98486 0
M  V30 6938 H 690.876 2.96732 4.35037 0
M  V30 6939 H 693.367 2.45065 2.87666 0
M  V30 6940 H 693.68 5.47109 5.45794 0
M  V30 6941 H 692.025 4.91539 4.9134 0
M  V30 6942 H 695.216 3.09923 3.50807 0
M  V30 6943 H 695.389 4.47641 4.68531 0
M  V30 6944 N 688.795 -1.27931 0.920396 0
M  V30 6945 C 690.043 -1.94304 0.555906 0
M  V30 6946 C 690.364 -1.72753 -0.904519 0
M  V30 6947 O 689.634 -1.07104 -1.64029 0
M  V30 6948 H 688.214 -0.719001 0.202599 0
M  V30 6949 H 690.876 -1.55785 1.1712 0
M  V30 6950 H 689.972 -3.02806 0.755981 0
M  V30 6951 N 690.273 -0.685099 -1.4193 0
M  V30 6952 C 691.684 -0.287699 -1.8447 0
M  V30 6953 C 692.035 1.17215 -1.57338 0
M  V30 6954 O 691.16 1.89856 -1.03845 0
M  V30 6955 C 691.755 -0.515385 -3.34857 0
M  V30 6956 C 690.314 -0.172006 -3.76007 0
M  V30 6957 C 689.461 -0.802808 -2.65425 0
M  V30 6958 H 692.412 -0.88652 -1.3163 0
M  V30 6959 H 692.433 0.229251 -3.79809 0
M  V30 6960 H 691.945 -1.57796 -3.54573 0
M  V30 6961 H 690.046 0.886716 -3.61895 0
M  V30 6962 H 690.159 -0.619717 -4.75075 0
M  V30 6963 H 688.523 -0.233267 -2.5363 0
M  V30 6964 H 689.306 -1.86904 -2.87961 0
M  V30 6965 N 691.751 1.51645 -0.429126 0
M  V30 6966 C 692.681 2.30434 0.377148 0
M  V30 6967 C 693.662 1.35493 1.02838 0
M  V30 6968 O 694.847 1.6441 1.03359 0
M  V30 6969 C 691.977 3.14038 1.48315 0
M  V30 6970 C 690.931 4.1719 0.955855 0
M  V30 6971 C 690.257 4.89263 2.15698 0
M  V30 6972 C 691.557 5.223 -0.00402136 0
M  V30 6973 H 693.251 2.98085 -0.280336 0
M  V30 6974 H 690.797 1.43354 -0.136265 0
M  V30 6975 H 692.75 3.67933 2.05435 0
M  V30 6976 H 691.474 2.44193 2.16881 0
M  V30 6977 H 690.133 3.64335 0.406929 0
M  V30 6978 H 689.781 4.15929 2.82864 0
M  V30 6979 H 689.481 5.59009 1.81059 0
M  V30 6980 H 691.005 5.45978 2.73387 0
M  V30 6981 H 692.419 5.71315 0.476607 0
M  V30 6982 H 690.816 5.99525 -0.26258 0
M  V30 6983 H 691.886 4.75638 -0.943236 0
M  V30 6984 N 693.229 0.160201 1.56784 0
M  V30 6985 C 694.64 -0.358417 1.83227 0
M  V30 6986 C 694.991 -1.63831 1.07952 0
M  V30 6987 O 694.116 -2.13885 0.328995 0
M  V30 6988 C 694.711 -0.657058 3.32368 0
M  V30 6989 C 693.27 -1.12015 3.59346 0
M  V30 6990 C 692.417 -0.15015 2.76893 0
M  V30 6991 H 695.368 0.384669 1.53967 0
M  V30 6992 H 695.389 -1.51033 3.49241 0
M  V30 6993 H 694.901 0.274647 3.87127 0
M  V30 6994 H 693.002 -2.06734 3.09987 0
M  V30 6995 H 693.115 -1.037 4.67743 0
M  V30 6996 H 691.479 -0.645361 2.46388 0
M  V30 6997 H 692.262 0.775379 3.34429 0
M  V30 6998 N 694.707 -1.5719 -0.113559 0
M  V30 6999 C 695.639 -1.97393 -1.16484 0
M  V30 7000 C 696.652 -0.873964 -1.37352 0
M  V30 7001 O 697.841 -1.15222 -1.36331 0
M  V30 7002 C 694.941 -2.26174 -2.52386 0
M  V30 7003 C 694.114 -3.57479 -2.52046 0
M  V30 7004 C 693.173 -3.74409 -3.69735 0
M  V30 7005 O 692.199 -4.46463 -3.53071 0
M  V30 7006 N 693.401 -3.13588 -4.88511 0
M  V30 7007 H 696.166 -2.88184 -0.822814 0
M  V30 7008 H 693.727 -1.59044 -0.302769 0
M  V30 7009 H 695.719 -2.3471 -3.29687 0
M  V30 7010 H 694.289 -1.41483 -2.7875 0
M  V30 7011 H 693.509 -3.60081 -1.60421 0
M  V30 7012 H 694.797 -4.43775 -2.48881 0
M  V30 7013 H 694.195 -2.55026 -5.04953 0
M  V30 7014 H 692.752 -3.27637 -5.63469 0
M  V30 7015 N 696.185 0.383891 -1.52853 0
M  V30 7016 C 697.425 1.13731 -1.69837 0
M  V30 7017 C 697.789 1.87086 -0.431611 0
M  V30 7018 O 698.99 2.64518 -0.477886 0
M  V30 7019 C 697.261 2.08551 -2.90243 0
M  V30 7020 S 698.82 2.9166 -3.27841 0
M  V30 7021 H 695.638 0.384911 -0.5978 0
M  V30 7022 H 698.24 0.42103 -1.90913 0
M  V30 7023 H 696.944 1.53392 -3.80656 0
M  V30 7024 H 696.475 2.8468 -2.71516 0
M  V30 7025 H 698.49 4.10723 -2.78426 0
M  V30 7026 N 697.663 1.43903 0.642637 0
M  V30 7027 C 698.626 1.49538 1.73698 0
M  V30 7028 C 699.626 0.378776 1.56275 0
M  V30 7029 O 700.816 0.64095 1.6198 0
M  V30 7030 C 697.948 1.35821 3.12675 0
M  V30 7031 H 699.141 2.47008 1.70079 0
M  V30 7032 H 696.694 1.30824 0.85526 0
M  V30 7033 H 697.429 0.393994 3.21898 0
M  V30 7034 H 697.214 2.16776 3.26727 0
M  V30 7035 H 698.704 1.4272 3.92455 0
M  V30 7036 N 699.141 -0.881989 1.30609 0
M  V30 7037 C 700.371 -1.66469 1.22359 0
M  V30 7038 C 700.779 -1.87969 -0.215507 0
M  V30 7039 O 700.122 -1.42938 -1.15388 0
M  V30 7040 C 700.184 -3.06135 1.88472 0
M  V30 7041 C 699.848 -3.07795 3.37804 0
M  V30 7042 C 700.845 -2.86633 4.33749 0
M  V30 7043 C 698.53 -3.29297 3.793 0
M  V30 7044 C 700.524 -2.86934 5.69164 0
M  V30 7045 C 698.211 -3.29228 5.14832 0
M  V30 7046 C 699.209 -3.08071 6.09574 0
M  V30 7047 O 698.897 -3.07824 7.4263 0
M  V30 7048 H 698.629 -0.526129 0.424458 0
M  V30 7049 H 701.183 -1.11004 1.72821 0
M  V30 7050 H 699.413 -3.63276 1.32543 0
M  V30 7051 H 701.102 -3.66571 1.74301 0
M  V30 7052 H 701.868 -2.69814 4.0302 0
M  V30 7053 H 697.747 -3.44799 3.05998 0
M  V30 7054 H 701.291 -2.70339 6.43088 0
M  V30 7055 H 697.188 -3.45583 5.452 0
M  V30 7056 H 697.956 -3.2397 7.51656 0
M  V30 7057 N 700.619 -1.13374 -1.09472 0
M  V30 7058 C 701.867 -0.893422 -1.8128 0
M  V30 7059 C 702.188 0.582029 -1.86111 0
M  V30 7060 O 701.458 1.42305 -1.34633 0
M  V30 7061 H 700.038 -0.327543 -0.67136 0
M  V30 7062 H 702.7 -1.43018 -1.32408 0
M  V30 7063 H 701.796 -1.28374 -2.84476 0
M  V30 7064 N 702.098 1.27442 -0.927168 0
M  V30 7065 C 703.031 2.25177 -0.370232 0
M  V30 7066 C 704.009 1.53612 0.533103 0
M  V30 7067 O 705.193 1.8245 0.47373 0
M  V30 7068 C 702.32 3.35431 0.469411 0
M  V30 7069 C 701.366 4.24888 -0.370419 0
M  V30 7070 S 702.199 5.04852 -1.78562 0
M  V30 7071 C 703.355 6.18592 -0.953651 0
M  V30 7072 H 703.588 2.72069 -1.19858 0
M  V30 7073 H 701.121 1.36089 -0.729316 0
M  V30 7074 H 703.079 3.99404 0.947992 0
M  V30 7075 H 701.74 2.87179 1.27228 0
M  V30 7076 H 700.933 5.03264 0.272226 0
M  V30 7077 H 700.535 3.65709 -0.783153 0
M  V30 7078 H 702.827 6.77235 -0.189408 0
M  V30 7079 H 703.77 6.87132 -1.7104 0
M  V30 7080 H 704.178 5.62318 -0.495897 0
M  V30 7081 N 703.576 0.692616 1.41565 0
M  V30 7082 C 704.824 0.221896 2.00878 0
M  V30 7083 C 705.145 -1.18164 1.5512 0
M  V30 7084 O 704.415 -1.79679 0.78054 0
M  V30 7085 H 702.995 0.0790463 0.742806 0
M  V30 7086 H 705.657 0.893115 1.73232 0
M  V30 7087 H 704.753 0.23702 3.11199 0
M  V30 7088 N 705.054 -1.51416 0.437162 0
M  V30 7089 C 705.984 -2.30631 -0.364922 0
M  V30 7090 C 706.965 -1.36037 -1.02118 0
M  V30 7091 O 708.15 -1.64956 -1.02485 0
M  V30 7092 C 705.28 -3.1482 -1.46648 0
M  V30 7093 C 704.234 -4.17691 -0.933717 0
M  V30 7094 C 703.56 -4.904 -2.13101 0
M  V30 7095 C 704.86 -5.2229 0.0317201 0
M  V30 7096 H 706.554 -2.97932 0.29614 0
M  V30 7097 H 704.1 -1.4328 0.143865 0
M  V30 7098 H 706.053 -3.69017 -2.03481 0
M  V30 7099 H 704.777 -2.4534 -2.15583 0
M  V30 7100 H 703.436 -3.64545 -0.387602 0
M  V30 7101 H 703.084 -4.17423 -2.80654 0
M  V30 7102 H 702.784 -5.59962 -1.78092 0
M  V30 7103 H 704.308 -5.4742 -2.70487 0
M  V30 7104 H 705.722 -5.7156 -0.446302 0
M  V30 7105 H 704.119 -5.99378 0.29437 0
M  V30 7106 H 705.189 -4.75131 0.968447 0
M  V30 7107 N 706.532 -0.168513 -1.56696 0
M  V30 7108 C 707.943 0.348694 -1.83415 0
M  V30 7109 C 708.294 1.63257 -1.0882 0
M  V30 7110 O 707.419 2.13707 -0.340333 0
M  V30 7111 C 708.014 0.639423 -3.32711 0
M  V30 7112 C 706.573 1.10108 -3.59935 0
M  V30 7113 C 705.72 0.135464 -2.76969 0
M  V30 7114 H 708.671 -0.392829 -1.53761 0
M  V30 7115 H 708.692 1.49179 -3.50037 0
M  V30 7116 H 708.204 -0.295173 -3.86976 0
M  V30 7117 H 706.305 2.05088 -3.11079 0
M  V30 7118 H 706.418 1.01218 -4.68286 0
M  V30 7119 H 704.782 0.632286 -2.46727 0
M  V30 7120 H 705.565 -0.793104 -3.34013 0
M  V30 7121 N 708.01 1.57248 0.105221 0
M  V30 7122 C 709.421 1.74612 0.660865 0
M  V30 7123 C 709.772 0.789231 1.79626 0
M  V30 7124 O 708.897 -0.0346611 2.16372 0
M  V30 7125 C 709.492 3.16624 1.20559 0
M  V30 7126 C 708.051 3.35447 1.7074 0
M  V30 7127 C 707.198 2.70445 0.612764 0
M  V30 7128 H 710.149 1.5824 -0.12079 0
M  V30 7129 H 710.17 3.18937 2.07508 0
M  V30 7130 H 709.682 3.86245 0.379012 0
M  V30 7131 H 707.783 2.7089 2.5583 0
M  V30 7132 H 707.896 4.43702 1.80736 0
M  V30 7133 H 706.26 2.32061 1.04975 0
M  V30 7134 H 707.043 3.42699 -0.203066 0
M  V30 7135 N 709.488 -0.375779 1.53054 0
M  V30 7136 C 710.398 -1.48381 1.81715 0
M  V30 7137 C 711.414 -1.59087 0.704795 0
M  V30 7138 O 712.59 -1.75174 0.993785 0
M  V30 7139 C 709.655 -2.83767 1.99192 0
M  V30 7140 C 708.716 -2.82673 3.23102 0
M  V30 7141 C 707.949 -4.11601 3.39736 0
M  V30 7142 O 708.172 -5.07243 2.60885 0
M  V30 7143 O 707.106 -4.18034 4.33049 0
M  V30 7144 H 710.932 -1.27089 2.7583 0
M  V30 7145 H 708.517 -0.564902 1.38308 0
M  V30 7146 H 710.399 -3.64004 2.12318 0
M  V30 7147 H 709.074 -3.05057 1.08267 0
M  V30 7148 H 707.981 -2.0117 3.15407 0
M  V30 7149 H 709.314 -2.66335 4.13916 0
M  V30 7150 N 710.966 -1.44241 -0.634997 0
M  V30 7151 C 711.876 -1.53293 -1.77591 0
M  V30 7152 C 712.892 -0.418831 -1.68884 0
M  V30 7153 O 714.068 -0.675619 -1.8973 0
M  V30 7154 C 711.133 -1.47075 -3.13958 0
M  V30 7155 C 710.194 -2.69304 -3.34326 0
M  V30 7156 C 709.427 -2.63374 -4.64187 0
M  V30 7157 O 709.65 -1.69161 -5.44739 0
M  V30 7158 O 708.584 -3.54166 -4.86673 0
M  V30 7159 H 712.41 -2.49673 -1.72908 0
M  V30 7160 H 709.995 -1.26445 -0.795745 0
M  V30 7161 H 711.877 -1.46117 -3.95257 0
M  V30 7162 H 710.552 -0.538373 -3.19192 0
M  V30 7163 H 709.459 -2.75831 -2.52721 0
M  V30 7164 H 710.792 -3.61576 -3.33951 0
M  V30 7165 N 712.444 0.87505 -1.31075 0
M  V30 7166 C 713.354 2.01441 -1.20244 0
M  V30 7167 C 714.37 1.73584 -0.120227 0
M  V30 7168 O 715.546 1.98559 -0.337063 0
M  V30 7169 C 712.611 3.34675 -0.905199 0
M  V30 7170 C 711.672 3.75889 -2.0738 0
M  V30 7171 C 710.905 5.02764 -1.79064 0
M  V30 7172 O 711.128 5.65795 -0.723318 0
M  V30 7173 O 710.062 5.40623 -2.64594 0
M  V30 7174 H 713.888 2.13509 -2.1598 0
M  V30 7175 H 711.473 1.00257 -1.10765 0
M  V30 7176 H 713.355 4.1458 -0.755057 0
M  V30 7177 H 712.03 3.23692 0.0221695 0
M  V30 7178 H 710.937 2.96645 -2.27931 0
M  V30 7179 H 712.27 3.91489 -2.98324 0
M  V30 7180 N 713.922 1.13953 1.08869 0
M  V30 7181 C 714.885 0.824991 2.13838 0
M  V30 7182 C 715.885 -0.168198 1.59918 0
M  V30 7183 O 717.075 0.0595778 1.74098 0
M  V30 7184 C 714.207 0.228938 3.4013 0
M  V30 7185 H 715.4 1.75521 2.43171 0
M  V30 7186 H 712.953 0.94492 1.24503 0
M  V30 7187 H 713.688 -0.710227 3.16427 0
M  V30 7188 H 713.473 0.944243 3.80561 0
M  V30 7189 H 714.963 0.0259223 4.17592 0
M  V30 7190 N 715.4 -1.26948 0.933913 0
M  V30 7191 C 716.625 -1.98724 0.593589 0
M  V30 7192 C 717.05 -1.6915 -0.822801 0
M  V30 7193 O 716.408 -0.93533 -1.5531 0
M  V30 7194 C 716.456 -3.50834 0.833542 0
M  V30 7195 O 715.56 -4.12284 -0.0978788 0
M  V30 7196 H 714.901 -0.623683 0.227849 0
M  V30 7197 H 717.431 -1.61599 1.25486 0
M  V30 7198 H 717.441 -4.01018 0.75156 0
M  V30 7199 H 716.116 -3.71691 1.86597 0
M  V30 7200 H 714.693 -3.72884 0.0345443 0
M  V30 7201 N 716.879 -0.700114 -1.41195 0
M  V30 7202 C 718.295 -0.372114 -1.55201 0
M  V30 7203 C 718.495 1.12053 -1.6747 0
M  V30 7204 O 717.551 1.90642 -1.65566 0
M  V30 7205 C 718.864 -1.12462 -2.78878 0
M  V30 7206 C 720.412 -1.10941 -2.92679 0
M  V30 7207 C 720.887 -1.84376 -4.19249 0
M  V30 7208 N 722.378 -1.81368 -4.26216 0
M  V30 7209 C 723.113 -2.35024 -5.23021 0
M  V30 7210 N 722.609 -2.9717 -6.25829 0
M  V30 7211 N 724.402 -2.25254 -5.14992 0
M  V30 7212 H 716.553 -1.66816 -1.31477 0
M  V30 7213 H 718.816 -0.704223 -0.634644 0
M  V30 7214 H 718.522 -2.17937 -2.76037 0
M  V30 7215 H 718.396 -0.706152 -3.70531 0
M  V30 7216 H 720.783 -0.062911 -2.95033 0
M  V30 7217 H 720.864 -1.56698 -2.02187 0
M  V30 7218 H 720.508 -2.89008 -4.17656 0
M  V30 7219 H 720.438 -1.3605 -5.08722 0
M  V30 7220 H 722.929 -1.36062 -3.52556 0
M  V30 7221 H 723.242 -3.35668 -6.96094 0
M  V30 7222 H 721.587 -3.01249 -6.26318 0
M  V30 7223 H 724.778 -1.76372 -4.33602 0
M  V30 7224 H 724.951 -2.67373 -5.90268 0
M  V30 7225 N 718.357 1.51182 -0.445186 0
M  V30 7226 C 719.585 2.06568 0.117091 0
M  V30 7227 C 720 1.31182 1.35781 0
M  V30 7228 O 719.357 0.373605 1.78635 0
M  V30 7229 C 719.408 3.58917 0.431408 0
M  V30 7230 O 719.129 4.31456 -0.760078 0
M  V30 7231 C 720.63 4.30843 1.0435 0
M  V30 7232 H 717.85 0.670985 0.00444436 0
M  V30 7233 H 720.394 1.94666 -0.626525 0
M  V30 7234 H 718.549 3.70708 1.12493 0
M  V30 7235 H 718.963 5.22215 -0.489048 0
M  V30 7236 H 720.437 5.38499 1.21337 0
M  V30 7237 H 720.914 3.89644 2.02667 0
M  V30 7238 H 721.52 4.23516 0.38913 0
M  V30 7239 N 719.835 0.176821 1.56605 0
M  V30 7240 C 720.745 -0.763682 2.21822 0
M  V30 7241 C 721.761 -1.24889 1.21156 0
M  V30 7242 O 722.937 -1.29987 1.53836 0
M  V30 7243 C 720.002 -1.97352 2.8505 0
M  V30 7244 C 719.063 -1.53466 4.00932 0
M  V30 7245 C 718.296 -2.68682 4.61135 0
M  V30 7246 O 718.519 -3.85694 4.20234 0
M  V30 7247 O 717.453 -2.42442 5.50913 0
M  V30 7248 H 721.279 -0.238363 3.02763 0
M  V30 7249 H 718.864 -0.0516331 1.49311 0
M  V30 7250 H 720.746 -2.68096 3.25119 0
M  V30 7251 H 719.421 -2.48779 2.07101 0
M  V30 7252 H 718.328 -0.796551 3.65521 0
M  V30 7253 H 719.661 -1.06724 4.8049 0
M  V30 7254 N 721.313 -1.57302 -0.09688 0
M  V30 7255 C 722.276 -2.00976 -1.10188 0
M  V30 7256 C 723.276 -0.903009 -1.3305 0
M  V30 7257 O 724.466 -1.16853 -1.29194 0
M  V30 7258 C 721.598 -2.36893 -2.45142 0
M  V30 7259 H 722.791 -2.9098 -0.726003 0
M  V30 7260 H 720.344 -1.52515 -0.341872 0
M  V30 7261 H 721.079 -1.49837 -2.8761 0
M  V30 7262 H 720.864 -3.17632 -2.29897 0
M  V30 7263 H 722.354 -2.71345 -3.1743 0
M  V30 7264 N 722.791 0.367657 -1.53252 0
M  V30 7265 C 724.207 0.709191 -1.42978 0
M  V30 7266 C 724.407 1.93352 -0.567193 0
M  V30 7267 O 723.463 2.52453 -0.0488349 0
M  V30 7268 C 724.776 0.924338 -2.86141 0
M  V30 7269 C 726.324 1.02448 -2.95759 0
M  V30 7270 C 726.799 1.27211 -4.39979 0
M  V30 7271 N 728.29 1.33986 -4.43398 0
M  V30 7272 C 729.025 1.54852 -5.52095 0
M  V30 7273 N 728.521 1.73049 -6.7084 0
M  V30 7274 N 730.314 1.57205 -5.39669 0
M  V30 7275 H 722.465 -0.437669 -2.07842 0
M  V30 7276 H 724.728 -0.133737 -0.938519 0
M  V30 7277 H 724.434 0.0965455 -3.51567 0
M  V30 7278 H 724.308 1.83302 -3.29667 0
M  V30 7279 H 726.695 1.84282 -2.30487 0
M  V30 7280 H 726.776 0.0932301 -2.5563 0
M  V30 7281 H 726.42 0.458792 -5.05824 0
M  V30 7282 H 726.35 2.21654 -4.77679 0
M  V30 7283 H 728.841 1.21545 -3.5782 0
M  V30 7284 H 729.154 1.88538 -7.49449 0
M  V30 7285 H 727.499 1.70231 -6.7383 0
M  V30 7286 H 730.69 1.42555 -4.45865 0
M  V30 7287 H 730.863 1.73126 -6.24445 0
M  V30 7288 N 724.269 1.44576 0.627338 0
M  V30 7289 C 725.546 1.38033 1.38586 0
M  V30 7290 C 725.926 0.0409468 2.1106 0
M  V30 7291 O 725.274 -0.976582 2.0658 0
M  V30 7292 C 725.484 2.58102 2.34913 0
M  V30 7293 C 726.832 3.02332 2.98129 0
M  V30 7294 O 727.856 2.58334 2.45238 0
M  V30 7295 O 726.715 3.78628 3.94085 0
M  V30 7296 H 723.809 0.546801 0.620434 0
M  V30 7297 H 726.355 1.56672 0.652077 0
M  V30 7298 H 725.127 3.4719 1.80485 0
M  V30 7299 H 724.75 2.41696 3.15703 0
M  V30 7300 N 725.747 -0.868086 1.31537 0
M  V30 7301 C 726.679 -1.98165 1.15166 0
M  V30 7302 C 727.692 -1.6255 0.0902335 0
M  V30 7303 O 728.881 -1.75272 0.33791 0
M  V30 7304 C 725.981 -3.30772 0.737776 0
M  V30 7305 C 725.154 -3.94716 1.88462 0
M  V30 7306 C 724.213 -5.05641 1.45648 0
M  V30 7307 O 723.239 -5.2636 2.16642 0
M  V30 7308 N 724.441 -5.79474 0.34493 0
M  V30 7309 H 727.206 -2.12754 2.11083 0
M  V30 7310 H 724.767 -1.04217 1.23897 0
M  V30 7311 H 726.759 -4.02366 0.434032 0
M  V30 7312 H 725.329 -3.1233 -0.129834 0
M  V30 7313 H 724.549 -3.16079 2.35558 0
M  V30 7314 H 725.837 -4.34175 2.65273 0
M  V30 7315 H 725.235 -5.65164 -0.246259 0
M  V30 7316 H 723.792 -6.51722 0.100728 0
M  V30 7317 N 727.225 -1.14528 -1.08264 0
M  V30 7318 C 728.636 -0.925261 -1.6216 0
M  V30 7319 C 728.987 0.535587 -1.88748 0
M  V30 7320 O 728.112 1.4048 -1.64604 0
M  V30 7321 C 728.707 -1.67316 -2.94603 0
M  V30 7322 C 727.266 -1.49868 -3.45278 0
M  V30 7323 C 726.413 -1.69471 -2.19487 0
M  V30 7324 H 729.364 -1.29687 -0.914707 0
M  V30 7325 H 729.385 -1.13721 -3.63109 0
M  V30 7326 H 728.897 -2.73635 -2.75219 0
M  V30 7327 H 726.998 -0.459032 -3.69762 0
M  V30 7328 H 727.111 -2.2696 -4.21931 0
M  V30 7329 H 725.475 -1.12048 -2.2873 0
M  V30 7330 H 726.258 -2.77136 -2.0261 0
M  V30 7331 N 728.703 1.26451 -0.940633 0
M  V30 7332 C 729.613 2.30128 -0.455881 0
M  V30 7333 C 730.629 1.67536 0.469867 0
M  V30 7334 O 731.805 1.98344 0.349529 0
M  V30 7335 C 728.87 3.45634 0.271648 0
M  V30 7336 C 727.931 4.23709 -0.690594 0
M  V30 7337 C 727.164 5.337 0.00231047 0
M  V30 7338 O 727.387 5.57215 1.21935 0
M  V30 7339 O 726.321 5.98091 -0.676111 0
M  V30 7340 H 730.147 2.73655 -1.31707 0
M  V30 7341 H 727.732 1.3164 -0.706497 0
M  V30 7342 H 729.614 4.15853 0.681486 0
M  V30 7343 H 728.289 3.04138 1.10824 0
M  V30 7344 H 727.196 3.55974 -1.15037 0
M  V30 7345 H 728.529 4.68953 -1.49478 0
M  V30 7346 N 730.181 0.707592 1.40822 0
M  V30 7347 C 731.458 0.171172 1.9485 0
M  V30 7348 C 731.838 -1.32143 1.64625 0
M  V30 7349 O 731.186 -2.07372 0.959647 0
M  V30 7350 C 731.396 0.475334 3.45748 0
M  V30 7351 C 732.744 0.409625 4.22619 0
M  V30 7352 O 733.768 0.410934 3.53822 0
M  V30 7353 O 732.627 0.380185 5.45176 0
M  V30 7354 H 729.721 0.022015 0.826707 0
M  V30 7355 H 732.267 0.784577 1.50474 0
M  V30 7356 H 731.039 1.50801 3.61075 0
M  V30 7357 H 730.662 -0.168439 3.97243 0
M  V30 7358 N 731.66 -1.50943 0.453197 0
M  V30 7359 C 732.908 -2.01813 -0.107709 0
M  V30 7360 C 733.229 -1.33841 -1.41816 0
M  V30 7361 O 732.499 -0.477973 -1.8998 0
M  V30 7362 H 731.079 -0.745773 -0.0427948 0
M  V30 7363 H 733.741 -1.8545 0.599531 0
M  V30 7364 H 732.837 -3.10911 -0.27218 0
M  V30 7365 N 733.138 -0.185124 -1.56509 0
M  V30 7366 C 734.101 0.72591 -2.17401 0
M  V30 7367 C 735.101 1.14819 -1.12575 0
M  V30 7368 O 736.291 1.0629 -1.38015 0
M  V30 7369 C 733.423 1.98979 -2.76803 0
M  V30 7370 H 734.616 0.195588 -2.99262 0
M  V30 7371 H 732.169 0.0644772 -1.56167 0
M  V30 7372 H 732.904 2.56287 -1.98714 0
M  V30 7373 H 732.689 1.69583 -3.53531 0
M  V30 7374 H 734.179 2.63966 -3.23592 0
M  V30 7375 N 734.616 1.57351 0.0885366 0
M  V30 7376 C 735.893 1.77449 0.822873 0
M  V30 7377 C 736.273 0.768463 1.96616 0
M  V30 7378 O 735.621 -0.201757 2.27608 0
M  V30 7379 C 735.831 3.23425 1.31137 0
M  V30 7380 C 737.179 3.86791 1.75152 0
M  V30 7381 O 738.203 3.27215 1.40745 0
M  V30 7382 O 737.062 4.91568 2.38794 0
M  V30 7383 H 734.156 0.727653 0.393002 0
M  V30 7384 H 736.702 1.69556 0.0699095 0
M  V30 7385 H 735.474 3.88188 0.49254 0
M  V30 7386 H 735.097 3.35977 2.12615 0
M  V30 7387 N 736.094 -0.359525 1.53444 0
M  V30 7388 C 737.342 -1.09935 1.69584 0
M  V30 7389 C 737.663 -1.89656 0.453371 0
M  V30 7390 O 736.933 -1.8852 -0.53263 0
M  V30 7391 H 735.513 -0.408843 0.625185 0
M  V30 7392 H 738.175 -0.40467 1.90653 0
M  V30 7393 H 737.271 -1.78575 2.55964 0
M  V30 7394 N 737.572 -1.44907 -0.619662 0
M  V30 7395 C 738.988 -1.29046 -0.939107 0
M  V30 7396 C 739.188 -0.23462 -2.00129 0
M  V30 7397 O 738.244 0.37558 -2.49691 0
M  V30 7398 C 739.557 -2.66567 -1.39149 0
M  V30 7399 C 741.105 -2.74368 -1.50635 0
M  V30 7400 C 741.58 -4.12386 -1.99253 0
M  V30 7401 N 743.071 -4.1462 -2.06506 0
M  V30 7402 C 743.806 -5.18272 -2.4532 0
M  V30 7403 N 743.302 -6.32278 -2.83189 0
M  V30 7404 N 745.095 -5.05628 -2.45554 0
M  V30 7405 H 737.246 -2.12239 0.0826135 0
M  V30 7406 H 739.509 -0.947652 -0.0256829 0
M  V30 7407 H 739.215 -3.4496 -0.685254 0
M  V30 7408 H 739.089 -2.94224 -2.36034 0
M  V30 7409 H 741.476 -1.96287 -2.20353 0
M  V30 7410 H 741.557 -2.50439 -0.520963 0
M  V30 7411 H 741.201 -4.90947 -1.30127 0
M  V30 7412 H 741.131 -4.33699 -2.98684 0
M  V30 7413 H 743.622 -3.32343 -1.79878 0
M  V30 7414 H 743.935 -7.07172 -3.11652 0
M  V30 7415 H 742.28 -6.35699 -2.80913 0
M  V30 7416 H 745.471 -4.15613 -2.15367 0
M  V30 7417 H 745.644 -5.86529 -2.75478 0
M  V30 7418 N 739.05 0.861098 -1.31996 0
M  V30 7419 C 739.98 1.98482 -1.22993 0
M  V30 7420 C 740.961 1.6971 -0.115168 0
M  V30 7421 O 742.146 1.91849 -0.30126 0
M  V30 7422 C 739.276 3.34179 -0.945615 0
M  V30 7423 C 738.23 3.77284 -2.02091 0
M  V30 7424 C 737.556 5.1054 -1.58912 0
M  V30 7425 C 738.856 3.93439 -3.43515 0
M  V30 7426 H 740.55 2.06271 -2.17008 0
M  V30 7427 H 738.096 0.991043 -1.04472 0
M  V30 7428 H 740.049 4.12338 -0.869206 0
M  V30 7429 H 738.773 3.26586 0.0301849 0
M  V30 7430 H 737.432 3.01371 -2.08737 0
M  V30 7431 H 737.08 4.99397 -0.600942 0
M  V30 7432 H 736.78 5.40352 -2.30854 0
M  V30 7433 H 738.304 5.91199 -1.52696 0
M  V30 7434 H 739.718 4.6197 -3.39495 0
M  V30 7435 H 738.115 4.34661 -4.13751 0
M  V30 7436 H 739.185 2.96548 -3.8365 0
M  V30 7437 N 740.528 1.15101 1.07655 0
M  V30 7438 C 741.939 0.933848 1.61667 0
M  V30 7439 C 742.29 -0.525569 1.8903 0
M  V30 7440 O 741.415 -1.39605 1.65346 0
M  V30 7441 C 742.01 1.68876 2.93711 0
M  V30 7442 C 740.569 1.51697 3.44478 0
M  V30 7443 C 739.716 1.70633 2.18586 0
M  V30 7444 H 742.667 1.30171 0.907816 0
M  V30 7445 H 742.688 1.15645 3.625 0
M  V30 7446 H 742.2 2.7509 2.73764 0
M  V30 7447 H 740.301 0.478635 3.69513 0
M  V30 7448 H 740.414 2.29194 4.20722 0
M  V30 7449 H 738.778 1.13259 2.28132 0
M  V30 7450 H 739.561 2.78206 2.01137 0
M  V30 7451 N 742.006 -1.2595 0.947325 0
M  V30 7452 C 743.231 -1.98083 0.614633 0
M  V30 7453 C 743.656 -1.70013 -0.804815 0
M  V30 7454 O 743.014 -0.95175 -1.54309 0
M  V30 7455 C 743.062 -3.4993 0.870706 0
M  V30 7456 O 742.166 -4.12364 -0.0541451 0
M  V30 7457 H 741.507 -0.621232 0.234451 0
M  V30 7458 H 744.037 -1.60259 1.27193 0
M  V30 7459 H 744.047 -4.00198 0.794051 0
M  V30 7460 H 742.722 -3.69691 1.90529 0
M  V30 7461 H 741.299 -3.72826 0.0740917 0
M  V30 7462 N 743.484 -0.715051 -1.40445 0
M  V30 7463 C 744.709 -0.26254 -2.05732 0
M  V30 7464 C 745.134 1.08691 -1.53519 0
M  V30 7465 O 744.492 1.68453 -0.670328 0
M  V30 7466 C 744.54 -0.25195 -3.59719 0
M  V30 7467 O 743.644 0.766998 -4.05205 0
M  V30 7468 H 742.985 -0.123398 -0.652433 0
M  V30 7469 H 745.515 -0.975382 -1.79854 0
M  V30 7470 H 745.525 -0.0894537 -4.07902 0
M  V30 7471 H 744.2 -1.23672 -3.97087 0
M  V30 7472 H 742.777 0.572269 -3.68483 0
M  V30 7473 N 744.962 1.50701 -0.461195 0
M  V30 7474 C 745.925 2.2686 0.326679 0
M  V30 7475 C 746.925 1.31243 0.929085 0
M  V30 7476 O 748.115 1.54754 0.799807 0
M  V30 7477 C 745.247 3.07844 1.46441 0
M  V30 7478 H 746.44 2.97954 -0.341095 0
M  V30 7479 H 743.993 1.54814 -0.214984 0
M  V30 7480 H 744.728 2.41223 2.16753 0
M  V30 7481 H 744.513 3.78101 1.03836 0
M  V30 7482 H 746.003 3.65469 2.02044 0
M  V30 7483 N 746.441 0.193421 1.56409 0
M  V30 7484 C 747.857 -0.162447 1.58771 0
M  V30 7485 C 748.057 -1.6116 1.20954 0
M  V30 7486 O 747.113 -2.3469 0.931497 0
M  V30 7487 C 748.426 0.138391 3.00381 0
M  V30 7488 C 749.974 0.0783649 3.12902 0
M  V30 7489 C 750.449 0.352491 4.56642 0
M  V30 7490 N 751.94 0.30105 4.62221 0
M  V30 7491 C 752.675 0.487028 5.71328 0
M  V30 7492 N 752.171 0.733265 6.88909 0
M  V30 7493 N 753.964 0.4214 5.60518 0
M  V30 7494 H 746.115 1.13909 1.79272 0
M  V30 7495 H 748.378 0.454528 0.83193 0
M  V30 7496 H 748.084 1.14312 3.32604 0
M  V30 7497 H 747.958 -0.559804 3.73023 0
M  V30 7498 H 750.345 -0.916963 2.80492 0
M  V30 7499 H 750.426 0.809611 2.4265 0
M  V30 7500 H 750.07 1.34513 4.89764 0
M  V30 7501 H 750 -0.399624 5.25081 0
M  V30 7502 H 752.491 0.117279 3.77718 0
M  V30 7503 H 752.804 0.86403 7.67955 0
M  V30 7504 H 751.149 0.770138 6.9072 0
M  V30 7505 H 754.34 0.229461 4.67537 0
M  V30 7506 H 754.513 0.569758 6.4549 0
M  V30 7507 N 747.919 -1.57396 -0.0801906 0
M  V30 7508 C 748.882 -2.02133 -1.0805 0
M  V30 7509 C 749.882 -0.91707 -1.32085 0
M  V30 7510 O 751.072 -1.18217 -1.27947 0
M  V30 7511 C 748.204 -2.39479 -2.42616 0
M  V30 7512 H 749.397 -2.91733 -0.6951 0
M  V30 7513 H 746.95 -1.52869 -0.325677 0
M  V30 7514 H 747.685 -1.52879 -2.86004 0
M  V30 7515 H 747.47 -3.20052 -2.26515 0
M  V30 7516 H 748.96 -2.74697 -3.14534 0
M  V30 7517 N 749.397 0.351382 -1.53633 0
M  V30 7518 C 750.645 1.09034 -1.70165 0
M  V30 7519 C 750.966 1.89413 -0.463422 0
M  V30 7520 O 750.236 1.888 0.522624 0
M  V30 7521 H 748.816 0.405522 -0.627344 0
M  V30 7522 H 751.478 0.394554 -1.90865 0
M  V30 7523 H 750.574 1.77215 -2.56907 0
M  V30 7524 N 750.875 1.45233 0.611969 0
M  V30 7525 C 751.838 1.53189 1.70487 0
M  V30 7526 C 752.838 0.411839 1.55437 0
M  V30 7527 O 754.028 0.675164 1.60584 0
M  V30 7528 C 751.16 1.42422 3.09723 0
M  V30 7529 H 752.353 2.5056 1.64802 0
M  V30 7530 H 749.906 1.32609 0.827318 0
M  V30 7531 H 750.641 0.462185 3.2099 0
M  V30 7532 H 750.426 2.23658 3.22055 0
M  V30 7533 H 751.916 1.51012 3.89339 0
M  V30 7534 N 752.353 -0.854086 1.3245 0
M  V30 7535 C 753.601 -1.60513 1.228 0
M  V30 7536 C 753.922 -1.93865 -0.210073 0
M  V30 7537 O 753.192 -1.59673 -1.13496 0
M  V30 7538 H 751.772 -0.595099 0.451516 0
M  V30 7539 H 754.434 -1.0216 1.6598 0
M  V30 7540 H 753.53 -2.54182 1.81102 0
M  V30 7541 N 753.831 -1.1567 -1.07043 0
M  V30 7542 C 755.056 -0.957946 -1.83952 0
M  V30 7543 C 755.481 0.488807 -1.81638 0
M  V30 7544 O 754.839 1.34869 -1.21162 0
M  V30 7545 C 754.887 -1.48064 -3.288 0
M  V30 7546 O 753.991 -0.681921 -4.06723 0
M  V30 7547 H 753.332 -0.341453 -0.569479 0
M  V30 7548 H 755.862 -1.53728 -1.35015 0
M  V30 7549 H 755.872 -1.49484 -3.7963 0
M  V30 7550 H 754.547 -2.53388 -3.29799 0
M  V30 7551 H 753.124 -0.737612 -3.65532 0
M  V30 7552 N 755.309 1.25446 -0.953992 0
M  V30 7553 C 756.557 1.92762 -0.607227 0
M  V30 7554 C 756.878 1.7509 0.858399 0
M  V30 7555 O 756.148 1.11416 1.61132 0
M  V30 7556 H 754.728 0.713377 -0.221591 0
M  V30 7557 H 757.39 1.52625 -1.21209 0
M  V30 7558 H 756.486 3.00695 -0.835998 0
M  V30 7559 N 756.787 0.722489 1.40064 0
M  V30 7560 C 758.012 0.273446 2.05589 0
M  V30 7561 C 758.437 -1.07875 1.54093 0
M  V30 7562 O 757.795 -1.68095 0.679252 0
M  V30 7563 C 757.843 0.271023 3.5958 0
M  V30 7564 O 756.947 -0.745499 4.05606 0
M  V30 7565 H 756.288 0.126856 0.65177 0
M  V30 7566 H 758.818 0.984906 1.79334 0
M  V30 7567 H 758.828 0.111084 4.07849 0
M  V30 7568 H 757.503 1.25776 3.96425 0
M  V30 7569 H 756.08 -0.552719 3.68781 0
M  V30 7570 N 758.265 -1.50454 0.469181 0
M  V30 7571 C 759.49 -2.0722 -0.0864892 0
M  V30 7572 C 759.915 -1.33098 -1.32916 0
M  V30 7573 O 759.273 -0.378084 -1.77314 0
M  V30 7574 C 759.321 -3.58845 -0.355384 0
M  V30 7575 O 758.425 -3.86583 -1.43622 0
M  V30 7576 H 757.766 -0.663889 0.0121414 0
M  V30 7577 H 760.296 -1.93674 0.659674 0
M  V30 7578 H 760.306 -4.03617 -0.596447 0
M  V30 7579 H 758.981 -4.12211 0.552698 0
M  V30 7580 H 757.558 -3.5365 -1.18262 0
M  V30 7581 N 759.743 -0.201713 -1.56304 0
M  V30 7582 C 761.154 0.309711 -1.84113 0
M  V30 7583 C 761.505 1.60912 -1.12258 0
M  V30 7584 O 760.63 2.12937 -0.385587 0
M  V30 7585 C 761.225 0.568706 -3.33993 0
M  V30 7586 C 759.784 1.02448 -3.6219 0
M  V30 7587 C 758.931 0.0766842 -2.77194 0
M  V30 7588 H 761.882 -0.425356 -1.52893 0
M  V30 7589 H 761.903 1.41721 -3.53122 0
M  V30 7590 H 761.415 -0.37719 -3.86263 0
M  V30 7591 H 759.516 1.98443 -3.15359 0
M  V30 7592 H 759.629 0.912619 -4.70328 0
M  V30 7593 H 757.993 0.579809 -2.48013 0
M  V30 7594 H 758.776 -0.863774 -3.32256 0
M  V30 7595 N 761.222 1.57436 0.0718424 0
M  V30 7596 C 762.47 1.86878 0.769484 0
M  V30 7597 C 762.791 0.7937 1.78116 0
M  V30 7598 O 762.061 -0.177642 1.95093 0
M  V30 7599 H 760.641 0.689593 0.287177 0
M  V30 7600 H 763.303 1.94841 0.0479427 0
M  V30 7601 H 762.399 2.84387 1.28572 0
M  V30 7602 N 762.7 -0.34323 1.53817 0
M  V30 7603 C 763.948 -1.0813 1.70741 0
M  V30 7604 C 764.269 -1.89165 0.473461 0
M  V30 7605 O 763.539 -1.89075 -0.512605 0
M  V30 7606 H 762.119 -0.40219 0.629486 0
M  V30 7607 H 764.781 -0.384426 1.91071 0
M  V30 7608 H 763.877 -1.7585 2.57843 0
M  V30 7609 N 764.178 -1.45556 -0.604258 0
M  V30 7610 C 765.11 -1.50494 -1.72871 0
M  V30 7611 C 766.123 -0.395368 -1.57926 0
M  V30 7612 O 767.312 -0.662603 -1.65746 0
M  V30 7613 C 764.412 -1.34874 -3.10906 0
M  V30 7614 C 763.585 -2.59564 -3.52058 0
M  V30 7615 C 762.644 -2.38453 -4.6907 0
M  V30 7616 O 761.67 -3.12082 -4.76018 0
M  V30 7617 N 762.872 -1.43229 -5.62553 0
M  V30 7618 H 765.637 -2.4744 -1.69097 0
M  V30 7619 H 763.198 -1.41338 -0.789636 0
M  V30 7620 H 765.19 -1.18556 -3.86945 0
M  V30 7621 H 763.76 -0.461913 -3.09168 0
M  V30 7622 H 762.98 -2.90974 -2.65946 0
M  V30 7623 H 764.268 -3.42441 -3.76313 0
M  V30 7624 H 763.666 -0.824714 -5.59656 0
M  V30 7625 H 762.223 -1.32882 -6.38111 0
M  V30 7626 N 765.656 0.84705 -1.32902 0
M  V30 7627 C 766.881 1.63925 -1.27056 0
M  V30 7628 C 767.306 1.87443 0.157136 0
M  V30 7629 O 766.664 1.43266 1.11106 0
M  V30 7630 C 766.712 2.97134 -2.04313 0
M  V30 7631 O 765.816 3.88049 -1.39614 0
M  V30 7632 H 765.157 0.499477 -0.437514 0
M  V30 7633 H 767.687 1.05443 -1.75336 0
M  V30 7634 H 767.697 3.46896 -2.14772 0
M  V30 7635 H 766.372 2.79339 -3.08128 0
M  V30 7636 H 764.949 3.46525 -1.3775 0
M  V30 7637 N 767.134 1.16236 1.06428 0
M  V30 7638 C 768.545 0.950942 1.60667 0
M  V30 7639 C 768.896 -0.505491 1.89576 0
M  V30 7640 O 768.021 -1.37843 1.66818 0
M  V30 7641 C 768.616 1.71982 2.91904 0
M  V30 7642 C 767.175 1.55342 3.4285 0
M  V30 7643 C 766.322 1.72942 2.16763 0
M  V30 7644 H 769.273 1.31126 0.893959 0
M  V30 7645 H 769.294 1.19483 3.61253 0
M  V30 7646 H 768.806 2.77978 2.70831 0
M  V30 7647 H 766.907 0.5178 3.68985 0
M  V30 7648 H 767.02 2.33643 4.18267 0
M  V30 7649 H 765.384 1.15673 2.26918 0
M  V30 7650 H 766.167 2.80324 1.98175 0
M  V30 7651 N 768.612 -1.24939 0.960631 0
M  V30 7652 C 769.575 -2.239 0.49006 0
M  V30 7653 C 770.575 -1.55497 -0.409535 0
M  V30 7654 O 771.765 -1.72978 -0.205984 0
M  V30 7655 C 768.897 -3.39654 -0.291193 0
M  V30 7656 H 770.09 -2.67044 1.36482 0
M  V30 7657 H 767.643 -1.37429 0.744505 0
M  V30 7658 H 768.378 -3.01939 -1.18336 0
M  V30 7659 H 768.163 -3.90496 0.354276 0
M  V30 7660 H 769.653 -4.13125 -0.609693 0
M  V30 7661 N 770.09 -0.729906 -1.39679 0
M  V30 7662 C 771.315 -0.284345 -2.05442 0
M  V30 7663 C 771.74 1.07056 -1.54663 0
M  V30 7664 O 771.098 1.67732 -0.688157 0
M  V30 7665 C 771.146 -0.290089 -3.59431 0
M  V30 7666 O 770.25 0.723978 -4.05995 0
M  V30 7667 H 769.591 -0.130311 -0.651088 0
M  V30 7668 H 772.121 -0.994403 -1.78809 0
M  V30 7669 H 772.131 -0.132712 -4.07784 0
M  V30 7670 H 770.806 -1.27877 -3.95753 0
M  V30 7671 H 769.383 0.533154 -3.69069 0
M  V30 7672 N 771.568 1.50203 -0.477153 0
M  V30 7673 C 772.816 2.01959 0.0755889 0
M  V30 7674 C 773.137 1.3608 1.39668 0
M  V30 7675 O 772.407 0.508136 1.89195 0
M  V30 7676 H 770.987 0.74636 0.0309248 0
M  V30 7677 H 773.649 1.84473 -0.628959 0
M  V30 7678 H 772.745 3.11305 0.222683 0
M  V30 7679 N 773.046 0.209999 1.56195 0
M  V30 7680 C 773.994 -0.721416 2.2113 0
M  V30 7681 C 774.988 -1.20852 1.18706 0
M  V30 7682 O 776.194 -1.16968 1.36815 0
M  V30 7683 H 772.569 -0.251033 0.708863 0
M  V30 7684 H 774.54 -0.150193 2.98022 0
M  V30 7685 C 773.289 -1.92392 2.89621 0
M  V30 7686 H 772.612 -1.5582 3.68185 0
M  V30 7687 H 774.052 -2.55367 3.38473 0
M  V30 7688 C 772.511 -2.77208 1.91461 0
M  V30 7689 O 773.041 -3.75603 1.42426 0
M  V30 7690 N 771.247 -2.43006 1.59363 0
M  V30 7691 H 770.794 -1.63047 1.99433 0
M  V30 7692 H 770.752 -3.00036 0.939449 0
M  V30 7693 N 774.524 -1.57472 -0.0634922 0
M  V30 7694 C 775.77 -1.87932 -0.762194 0
M  V30 7695 C 776.103 -0.803377 -1.76804 0
M  V30 7696 O 775.378 0.185468 -1.93614 0
M  V30 7697 C 775.661 -3.29053 -1.46275 0
M  V30 7698 C 775.514 -4.47309 -0.472755 0
M  V30 7699 C 776.833 -3.68537 -2.40558 0
M  V30 7700 H 773.952 -0.683521 -0.275624 0
M  V30 7701 H 776.594 -1.89983 -0.0252651 0
M  V30 7702 H 774.744 -3.27435 -2.0909 0
M  V30 7703 H 776.416 -4.61053 0.150828 0
M  V30 7704 H 774.659 -4.33286 0.211187 0
M  V30 7705 H 775.33 -5.42853 -1.00072 0
M  V30 7706 H 777.806 -3.71302 -1.87814 0
M  V30 7707 H 776.682 -4.68152 -2.86574 0
M  V30 7708 H 776.943 -2.98917 -3.25731 0
M  V30 7709 N 776.003 0.335068 -1.53997 0
M  V30 7710 C 777.231 1.09418 -1.756 0
M  V30 7711 C 777.646 1.82083 -0.499138 0
M  V30 7712 O 777.003 1.74646 0.529631 0
M  V30 7713 C 777.054 2.10115 -2.94166 0
M  V30 7714 O 776.775 1.40404 -4.14992 0
M  V30 7715 C 778.276 2.98336 -3.27888 0
M  V30 7716 H 775.496 0.32595 -0.586513 0
M  V30 7717 H 778.04 0.384693 -2.00849 0
M  V30 7718 H 776.195 2.76616 -2.71224 0
M  V30 7719 H 776.609 2.07743 -4.81605 0
M  V30 7720 H 778.083 3.6491 -4.1418 0
M  V30 7721 H 778.56 3.64814 -2.44556 0
M  V30 7722 H 779.166 2.37412 -3.52868 0
M  V30 7723 N 777.481 1.45874 0.596531 0
M  V30 7724 C 778.729 1.5017 1.35253 0
M  V30 7725 C 779.05 0.149246 1.94428 0
M  V30 7726 O 778.32 -0.82268 1.77789 0
M  V30 7727 H 776.9 0.553052 0.502138 0
M  V30 7728 H 779.562 1.81908 0.699671 0
M  V30 7729 H 778.658 2.24671 2.16632 0
M  V30 7730 N 778.959 -0.83999 1.33349 0
M  V30 7731 C 779.907 -1.97113 1.23488 0
M  V30 7732 C 780.901 -1.68849 0.136503 0
M  V30 7733 O 782.107 -1.77476 0.300389 0
M  V30 7734 H 778.482 -0.647049 0.383185 0
M  V30 7735 H 780.453 -2.02554 2.19122 0
M  V30 7736 C 779.202 -3.33314 0.989815 0
M  V30 7737 H 778.525 -3.556 1.82726 0
M  V30 7738 H 779.965 -4.12963 0.961123 0
M  V30 7739 C 778.424 -3.35496 -0.307272 0
M  V30 7740 O 778.954 -3.79589 -1.31434 0
M  V30 7741 N 777.16 -2.88669 -0.334414 0
M  V30 7742 H 776.707 -2.5298 0.485659 0
M  V30 7743 H 776.665 -2.90512 -1.20209 0
M  V30 7744 N 780.437 -1.16799 -1.0581 0
M  V30 7745 C 781.662 -0.977402 -1.82925 0
M  V30 7746 C 782.087 0.469514 -1.82146 0
M  V30 7747 O 781.445 1.33576 -1.22585 0
M  V30 7748 C 781.493 -1.51543 -3.27211 0
M  V30 7749 O 780.597 -0.725021 -4.05977 0
M  V30 7750 H 779.938 -0.347474 -0.565825 0
M  V30 7751 H 782.468 -1.55151 -1.33376 0
M  V30 7752 H 782.478 -1.53502 -3.78023 0
M  V30 7753 H 781.153 -2.56872 -3.27093 0
M  V30 7754 H 779.73 -0.77634 -3.64729 0
M  V30 7755 N 781.915 1.24427 -0.967243 0
M  V30 7756 C 782.863 2.27403 -0.488927 0
M  V30 7757 C 783.857 1.63388 0.447302 0
M  V30 7758 O 785.063 1.77085 0.322643 0
M  V30 7759 H 781.438 0.738921 -0.139643 0
M  V30 7760 H 783.409 2.65122 -1.36942 0
M  V30 7761 C 782.158 3.4709 0.205787 0
M  V30 7762 H 781.481 3.96591 -0.50551 0
M  V30 7763 H 782.921 4.2099 0.504296 0
M  V30 7764 C 781.38 3.04923 1.43261 0
M  V30 7765 O 781.91 3.12043 2.52967 0
M  V30 7766 N 780.116 2.59976 1.29849 0
M  V30 7767 H 779.663 2.54382 0.405876 0
M  V30 7768 H 779.621 2.32128 2.12047 0
M  V30 7769 N 783.393 0.737304 1.3929 0
M  V30 7770 C 784.618 0.295237 2.05288 0
M  V30 7771 C 785.043 -1.06235 1.55228 0
M  V30 7772 O 784.401 -1.67365 0.697043 0
M  V30 7773 C 784.449 0.309146 3.59272 0
M  V30 7774 O 783.553 -0.702437 4.06374 0
M  V30 7775 H 782.894 0.133762 0.650387 0
M  V30 7776 H 785.424 1.00387 1.78279 0
M  V30 7777 H 785.434 0.154336 4.07708 0
M  V30 7778 H 784.109 1.29974 3.95069 0
M  V30 7779 H 782.686 -0.513574 3.69346 0
M  V30 7780 N 784.871 -1.49948 0.485112 0
M  V30 7781 C 786.099 -2.06806 -0.0622824 0
M  V30 7782 C 786.514 -1.34736 -1.32256 0
M  V30 7783 O 785.871 -0.420836 -1.77582 0
M  V30 7784 C 785.922 -3.59934 -0.336096 0
M  V30 7785 O 785.643 -4.29289 0.874203 0
M  V30 7786 C 787.144 -4.33459 -0.928903 0
M  V30 7787 H 784.364 -0.670867 0.0133472 0
M  V30 7788 H 786.908 -1.92937 0.677917 0
M  V30 7789 H 785.063 -3.7356 -1.02625 0
M  V30 7790 H 785.477 -5.20735 0.627332 0
M  V30 7791 H 786.951 -5.41527 -1.07017 0
M  V30 7792 H 787.428 -3.94881 -1.92265 0
M  V30 7793 H 788.034 -4.24399 -0.276705 0
M  V30 7794 N 786.349 -0.21828 -1.56081 0
M  V30 7795 C 787.596 0.414307 -1.98216 0
M  V30 7796 C 787.924 1.60005 -1.10584 0
M  V30 7797 O 787.179 1.95124 -0.150043 0
M  V30 7798 C 787.478 0.894782 -3.46018 0
M  V30 7799 C 787.144 -0.180083 -4.5054 0
M  V30 7800 C 785.806 -0.475367 -4.78846 0
M  V30 7801 C 788.158 -0.907191 -5.13244 0
M  V30 7802 C 785.486 -1.50233 -5.67139 0
M  V30 7803 C 787.838 -1.92347 -6.02649 0
M  V30 7804 C 786.502 -2.22571 -6.293 0
M  V30 7805 H 785.772 0.151606 -0.725325 0
M  V30 7806 H 788.419 -0.320113 -1.88806 0
M  V30 7807 H 786.724 1.7079 -3.52616 0
M  V30 7808 H 788.421 1.39403 -3.75989 0
M  V30 7809 H 785.011 0.06022 -4.28558 0
M  V30 7810 H 789.195 -0.692303 -4.91448 0
M  V30 7811 H 784.451 -1.74215 -5.86054 0
M  V30 7812 H 788.625 -2.49197 -6.50288 0
M  V30 7813 H 786.252 -3.0229 -6.97513 0
M  V30 7814 N 787.827 1.57504 0.0551401 0
M  V30 7815 C 789.076 1.87237 0.750009 0
M  V30 7816 C 789.389 0.813268 1.77891 0
M  V30 7817 O 790.595 0.99898 2.52453 0
M  V30 7818 C 789.051 3.32187 1.38491 0
M  V30 7819 C 788.659 4.46267 0.393707 0
M  V30 7820 C 790.403 3.71101 2.06117 0
M  V30 7821 C 788.31 5.82265 1.03547 0
M  V30 7822 H 787.24 0.698524 0.283866 0
M  V30 7823 H 789.891 1.835 0.00365997 0
M  V30 7824 H 788.273 3.30588 2.18008 0
M  V30 7825 H 789.447 4.59289 -0.372865 0
M  V30 7826 H 787.762 4.16015 -0.17902 0
M  V30 7827 H 790.359 4.70012 2.54937 0
M  V30 7828 H 790.702 3.01751 2.86796 0
M  V30 7829 H 791.235 3.74762 1.33409 0
M  V30 7830 H 787.974 6.54949 0.268644 0
M  V30 7831 H 787.494 5.73012 1.7725 0
M  V30 7832 H 789.173 6.28148 1.55047 0
M  V30 7833 N 789.305 -0.326896 1.54172 0
M  V30 7834 C 790.53 -1.08924 1.76494 0
M  V30 7835 C 790.955 -1.81039 0.510523 0
M  V30 7836 O 790.313 -1.73141 -0.537756 0
M  V30 7837 C 790.361 -2.06558 2.95578 0
M  V30 7838 O 789.465 -3.14394 2.6689 0
M  V30 7839 H 788.806 -0.314216 0.584948 0
M  V30 7840 H 791.336 -0.372207 2.01186 0
M  V30 7841 H 791.346 -2.49487 3.22832 0
M  V30 7842 H 790.021 -1.53469 3.86549 0
M  V30 7843 H 788.598 -2.76164 2.50576 0
M  V30 7844 N 790.784 -1.46188 -0.588786 0
M  V30 7845 C 792.009 -1.5498 -1.37826 0
M  V30 7846 C 792.434 -0.189498 -1.87143 0
M  V30 7847 O 791.792 0.829293 -1.61222 0
M  V30 7848 C 791.84 -2.55369 -2.54596 0
M  V30 7849 O 790.944 -2.08452 -3.55839 0
M  V30 7850 H 790.285 -0.521741 -0.41071 0
M  V30 7851 H 792.815 -1.91708 -0.714779 0
M  V30 7852 H 792.825 -2.74782 -3.01594 0
M  V30 7853 H 791.5 -3.54155 -2.18052 0
M  V30 7854 H 790.077 -1.98999 -3.15363 0
M  V30 7855 N 792.262 0.832906 -1.33792 0
M  V30 7856 C 793.51 1.58539 -1.25338 0
M  V30 7857 C 793.831 1.94175 0.179204 0
M  V30 7858 O 793.101 1.61458 1.10941 0
M  V30 7859 H 791.681 0.58784 -0.460926 0
M  V30 7860 H 794.343 0.995064 -1.67584 0
M  V30 7861 H 793.439 2.51268 -1.85123 0
M  V30 7862 N 793.74 1.17359 1.05189 0
M  V30 7863 C 794.672 0.848078 2.12933 0
M  V30 7864 C 795.685 -0.149521 1.62112 0
M  V30 7865 O 796.874 0.0767797 1.78335 0
M  V30 7866 C 793.974 0.243889 3.38021 0
M  V30 7867 C 793.147 1.28436 4.18118 0
M  V30 7868 C 792.206 0.697926 5.21551 0
M  V30 7869 O 791.232 1.36973 5.52473 0
M  V30 7870 N 792.434 -0.510024 5.78255 0
M  V30 7871 H 795.199 1.7754 2.41453 0
M  V30 7872 H 792.76 1.07244 1.21286 0
M  V30 7873 H 794.752 -0.161727 4.04377 0
M  V30 7874 H 793.322 -0.58722 3.07035 0
M  V30 7875 H 792.542 1.86573 3.47252 0
M  V30 7876 H 793.83 1.98617 4.68432 0
M  V30 7877 H 793.228 -1.07378 5.55416 0
M  V30 7878 H 791.785 -0.857705 6.46132 0
M  V30 7879 N 795.218 -1.23913 0.973828 0
M  V30 7880 C 796.464 -1.92436 0.640026 0
M  V30 7881 C 796.797 -1.75875 -0.823512 0
M  V30 7882 O 796.072 -1.11563 -1.59323 0
M  V30 7883 C 796.355 -3.4526 1.0231 0
M  V30 7884 C 796.208 -3.70961 2.54378 0
M  V30 7885 C 797.527 -4.36495 0.562155 0
M  V30 7886 H 794.646 -0.698868 0.233992 0
M  V30 7887 H 797.288 -1.46163 1.21393 0
M  V30 7888 H 795.438 -3.84802 0.534751 0
M  V30 7889 H 797.11 -3.40941 3.10737 0
M  V30 7890 H 795.353 -3.15899 2.97305 0
M  V30 7891 H 796.024 -4.77912 2.76232 0
M  V30 7892 H 798.5 -4.04363 0.981333 0
M  V30 7893 H 797.376 -5.42142 0.858689 0
M  V30 7894 H 797.637 -4.38818 -0.537659 0
M  V30 7895 N 796.696 -0.74468 -1.38897 0
M  V30 7896 C 797.629 -0.0596441 -2.28122 0
M  V30 7897 C 798.607 0.73764 -1.44906 0
M  V30 7898 O 799.791 0.718155 -1.74284 0
M  V30 7899 C 796.918 0.922533 -3.25894 0
M  V30 7900 C 795.964 0.212566 -4.2597 0
M  V30 7901 S 796.797 -1.08035 -5.24489 0
M  V30 7902 C 797.953 -0.101014 -6.25818 0
M  V30 7903 H 798.186 -0.816289 -2.85874 0
M  V30 7904 H 795.719 -0.536882 -1.44765 0
M  V30 7905 H 797.677 1.4839 -3.82741 0
M  V30 7906 H 796.338 1.65209 -2.67142 0
M  V30 7907 H 795.531 0.956106 -4.94848 0
M  V30 7908 H 795.133 -0.277029 -3.72973 0
M  V30 7909 H 797.425 0.736072 -6.7349 0
M  V30 7910 H 798.368 -0.757206 -7.0404 0
M  V30 7911 H 798.776 0.275706 -5.63826 0
M  V30 7912 N 798.174 1.49689 -0.493057 0
M  V30 7913 C 799.122 2.30613 0.303383 0
M  V30 7914 C 800.116 1.38867 0.970165 0
M  V30 7915 O 801.322 1.55956 0.898761 0
M  V30 7916 H 797.697 0.742891 0.116691 0
M  V30 7917 H 799.668 2.95717 -0.39924 0
M  V30 7918 C 798.417 3.20008 1.35978 0
M  V30 7919 H 797.74 3.90526 0.856103 0
M  V30 7920 H 799.18 3.79586 1.88919 0
M  V30 7921 C 797.639 2.39079 2.37367 0
M  V30 7922 O 798.169 2.08933 3.43089 0
M  V30 7923 N 796.375 2.0125 2.09635 0
M  V30 7924 H 795.922 2.25966 1.23682 0
M  V30 7925 H 795.88 1.47408 2.77702 0
M  V30 7926 N 799.652 0.226554 1.55963 0
M  V30 7927 C 800.899 -0.403789 1.98433 0
M  V30 7928 C 801.227 -1.59416 1.1143 0
M  V30 7929 O 800.482 -1.95042 0.160389 0
M  V30 7930 C 800.781 -0.87642 3.46488 0
M  V30 7931 C 800.447 0.203973 4.50438 0
M  V30 7932 C 799.109 0.500754 4.78587 0
M  V30 7933 C 801.461 0.934396 5.12756 0
M  V30 7934 C 798.789 1.53239 5.66334 0
M  V30 7935 C 801.141 1.9554 6.0162 0
M  V30 7936 C 799.805 2.25905 6.28111 0
M  V30 7937 H 799.075 -0.147757 0.726119 0
M  V30 7938 H 801.722 0.330121 1.88633 0
M  V30 7939 H 800.027 -1.68918 3.53517 0
M  V30 7940 H 801.724 -1.37407 3.76723 0
M  V30 7941 H 798.314 -0.0374917 4.28584 0
M  V30 7942 H 802.498 0.718355 4.91074 0
M  V30 7943 H 797.754 1.77321 5.85122 0
M  V30 7944 H 801.928 2.52642 6.48957 0
M  V30 7945 H 799.555 3.05985 6.959 0
M  V30 7946 N 801.13 -1.57531 -0.0467866 0
M  V30 7947 C 802.077 -2.05387 -1.05285 0
M  V30 7948 C 803.047 -0.939385 -1.36985 0
M  V30 7949 O 804.232 -1.20877 -1.47626 0
M  V30 7950 C 801.372 -2.52343 -2.35408 0
M  V30 7951 C 800.485 -3.77512 -2.10022 0
M  V30 7952 C 799.62 -4.1315 -3.33887 0
M  V30 7953 C 798.659 -5.31286 -3.03976 0
M  V30 7954 N 797.796 -5.62441 -4.20243 0
M  V30 7955 H 802.636 -2.91095 -0.637788 0
M  V30 7956 H 800.173 -1.43939 -0.303322 0
M  V30 7957 H 802.131 -2.77628 -3.11413 0
M  V30 7958 H 800.761 -1.69577 -2.7467 0
M  V30 7959 H 799.813 -3.59417 -1.24594 0
M  V30 7960 H 801.125 -4.63644 -1.83945 0
M  V30 7961 H 800.279 -4.39469 -4.18273 0
M  V30 7962 H 799.018 -3.25634 -3.63062 0
M  V30 7963 H 798.023 -5.04738 -2.17991 0
M  V30 7964 H 799.248 -6.20441 -2.76098 0
M  V30 7965 H 797.194 -4.77885 -4.49402 0
M  V30 7966 H 797.111 -6.43046 -3.97528 0
M  V30 7967 H 798.379 -5.93327 -5.05553 0
M  V30 7968 N 802.608 0.318715 -1.54344 0
M  V30 7969 C 803.856 1.054 -1.72439 0
M  V30 7970 C 804.177 1.88388 -0.503495 0
M  V30 7971 O 803.447 1.89866 0.48246 0
M  V30 7972 H 802.027 0.392124 -0.635805 0
M  V30 7973 H 804.689 0.35398 -1.91659 0
M  V30 7974 H 803.785 1.71726 -2.60608 0
M  V30 7975 N 804.086 1.46499 0.581025 0
M  V30 7976 C 805.363 1.42372 1.34125 0
M  V30 7977 C 805.743 0.108073 2.10823 0
M  V30 7978 O 805.091 -0.910366 2.09582 0
M  V30 7979 C 805.301 2.65445 2.26583 0
M  V30 7980 C 806.649 3.11664 2.88359 0
M  V30 7981 O 807.673 2.66006 2.36896 0
M  V30 7982 O 806.532 3.90974 3.81839 0
M  V30 7983 H 803.626 0.566262 0.602724 0
M  V30 7984 H 806.172 1.58667 0.601903 0
M  V30 7985 H 804.944 3.52756 1.69348 0
M  V30 7986 H 804.567 2.51618 3.07854 0
M  V30 7987 N 805.565 -0.825799 1.34232 0
M  V30 7988 C 806.814 -1.57686 1.2577 0
M  V30 7989 C 807.127 -1.94848 -0.171372 0
M  V30 7990 O 808.333 -2.68854 -0.378123 0
M  V30 7991 C 806.789 -2.84478 2.20454 0
M  V30 7992 C 806.397 -2.54629 3.68603 0
M  V30 7993 C 808.141 -3.625 2.20893 0
M  V30 7994 C 806.048 -3.77597 4.55164 0
M  V30 7995 H 804.978 -0.591809 0.467203 0
M  V30 7996 H 807.629 -0.909421 1.59379 0
M  V30 7997 H 806.011 -3.52832 1.79793 0
M  V30 7998 H 807.185 -1.94404 4.17784 0
M  V30 7999 H 805.5 -1.89888 3.70582 0
M  V30 8000 H 808.097 -4.538 2.82789 0
M  V30 8001 H 808.44 -3.98404 1.20746 0
M  V30 8002 H 808.973 -3.01086 2.59985 0
M  V30 8003 H 805.712 -3.46815 5.56237 0
M  V30 8004 H 805.232 -4.37116 4.10719 0
M  V30 8005 H 806.911 -4.45039 4.69627 0
M  V30 8006 N 807.043 -1.17915 -1.04565 0
M  V30 8007 C 808.292 -0.965816 -1.77073 0
M  V30 8008 C 808.605 0.506005 -1.88942 0
M  V30 8009 O 809.811 0.837717 -2.58253 0
M  V30 8010 C 808.267 -1.67894 -3.18339 0
M  V30 8011 C 807.875 -3.18972 -3.1458 0
M  V30 8012 C 809.619 -1.54823 -3.9526 0
M  V30 8013 C 807.526 -3.82946 -4.50674 0
M  V30 8014 H 806.456 -0.357729 -0.663736 0
M  V30 8015 H 809.107 -1.41235 -1.17153 0
M  V30 8016 H 807.489 -1.16016 -3.78624 0
M  V30 8017 H 808.663 -3.77835 -2.63776 0
M  V30 8018 H 806.978 -3.32127 -2.51159 0
M  V30 8019 H 809.575 -1.99984 -4.95894 0
M  V30 8020 H 809.918 -0.499727 -4.1329 0
M  V30 8021 H 810.451 -2.03953 -3.41538 0
M  V30 8022 H 807.19 -4.8782 -4.37849 0
M  V30 8023 H 806.71 -3.2887 -5.01602 0
M  V30 8024 H 808.389 -3.85518 -5.196 0
M  V30 8025 N 808.521 1.23394 -0.980386 0
M  V30 8026 C 809.767 1.92094 -0.650223 0
M  V30 8027 C 810.1 1.76309 0.814173 0
M  V30 8028 O 809.375 1.12406 1.5873 0
M  V30 8029 C 809.658 3.44713 -1.04139 0
M  V30 8030 C 809.511 3.69606 -2.56342 0
M  V30 8031 C 810.83 4.36191 -0.585296 0
M  V30 8032 H 807.949 0.697618 -0.237695 0
M  V30 8033 H 810.591 1.45517 -1.22167 0
M  V30 8034 H 808.741 3.84513 -0.55515 0
M  V30 8035 H 810.413 3.39288 -3.1254 0
M  V30 8036 H 808.656 3.14318 -2.98976 0
M  V30 8037 H 809.327 4.76441 -2.78762 0
M  V30 8038 H 811.803 4.03836 -1.00276 0
M  V30 8039 H 810.679 5.41679 -0.887428 0
M  V30 8040 H 810.94 4.39097 0.51438 0
M  V30 8041 N 809.999 0.752036 1.385 0
M  V30 8042 C 811.245 0.307958 2.00448 0
M  V30 8043 C 811.578 -1.10702 1.59558 0
M  V30 8044 O 810.853 -1.75788 0.832391 0
M  V30 8045 C 811.136 0.429092 3.57534 0
M  V30 8046 C 810.989 1.88507 4.08393 0
M  V30 8047 C 812.308 -0.178442 4.39738 0
M  V30 8048 H 809.427 0.113373 0.728228 0
M  V30 8049 H 812.069 0.951389 1.64465 0
M  V30 8050 H 810.219 -0.118695 3.88319 0
M  V30 8051 H 811.891 2.49104 3.88259 0
M  V30 8052 H 810.134 2.40066 3.61318 0
M  V30 8053 H 810.805 1.92099 5.17496 0
M  V30 8054 H 813.281 0.28872 4.15097 0
M  V30 8055 H 812.157 -0.0634349 5.48863 0
M  V30 8056 H 812.418 -1.26655 4.23569 0
M  V30 8057 N 811.477 -1.49425 0.500989 0
M  V30 8058 C 812.707 -2.06561 -0.0402858 0
M  V30 8059 C 813.115 -1.36157 -1.31369 0
M  V30 8060 O 812.458 -0.433618 -1.78509 0
M  V30 8061 C 812.52 -3.5765 -0.364269 0
M  V30 8062 C 812.184 -4.49739 0.811417 0
M  V30 8063 C 813.181 -4.91255 1.7019 0
M  V30 8064 C 810.866 -4.92036 1.01022 0
M  V30 8065 C 812.86 -5.73806 2.77534 0
M  V30 8066 C 810.547 -5.74364 2.08683 0
M  V30 8067 C 811.545 -6.15154 2.96774 0
M  V30 8068 O 811.233 -6.95836 4.02577 0
M  V30 8069 H 810.965 -0.67578 0.0172357 0
M  V30 8070 H 813.519 -1.93193 0.697553 0
M  V30 8071 H 811.749 -3.69026 -1.1557 0
M  V30 8072 H 813.438 -3.97025 -0.844156 0
M  V30 8073 H 814.204 -4.59222 1.56013 0
M  V30 8074 H 810.083 -4.59789 0.333929 0
M  V30 8075 H 813.627 -6.05564 3.4632 0
M  V30 8076 H 809.524 -6.0581 2.22855 0
M  V30 8077 H 810.292 -7.14142 3.9993 0
M  V30 8078 N 812.955 -0.234822 -1.55841 0
M  V30 8079 C 814.201 0.393843 -1.98939 0
M  V30 8080 C 814.534 1.58466 -1.1226 0
M  V30 8081 O 813.809 1.93635 -0.183242 0
M  V30 8082 C 814.092 0.815492 -3.50745 0
M  V30 8083 C 813.945 -0.379878 -4.48193 0
M  V30 8084 C 815.264 1.66687 -4.07312 0
M  V30 8085 H 812.383 0.141681 -0.723253 0
M  V30 8086 H 815.025 -0.333716 -1.87046 0
M  V30 8087 H 813.175 1.43541 -3.6101 0
M  V30 8088 H 814.847 -1.0182 -4.49923 0
M  V30 8089 H 813.09 -1.02507 -4.21515 0
M  V30 8090 H 813.761 -0.0417069 -5.51984 0
M  V30 8091 H 816.237 1.14369 -4.00074 0
M  V30 8092 H 815.113 1.93078 -5.13821 0
M  V30 8093 H 815.374 2.63468 -3.55017 0
M  V30 8094 N 814.433 1.57553 0.0384317 0
M  V30 8095 C 815.658 1.93485 0.746872 0
M  V30 8096 C 816.083 0.834069 1.68597 0
M  V30 8097 O 815.441 -0.210902 1.80069 0
M  V30 8098 C 815.489 3.28463 1.4881 0
M  V30 8099 O 814.593 3.20051 2.60079 0
M  V30 8100 H 813.934 0.632675 0.201539 0
M  V30 8101 H 816.464 2.046 -0.00329815 0
M  V30 8102 H 816.474 3.63132 1.86009 0
M  V30 8103 H 815.149 4.08147 0.799297 0
M  V30 8104 H 813.726 2.96998 2.25492 0
M  V30 8105 N 815.911 -0.310526 1.54511 0
M  V30 8106 C 816.843 -1.40405 1.8116 0
M  V30 8107 C 817.856 -1.47261 0.694114 0
M  V30 8108 O 819.045 -1.49751 0.971441 0
M  V30 8109 C 816.145 -2.78849 1.92604 0
M  V30 8110 C 815.318 -2.95041 3.22908 0
M  V30 8111 C 814.377 -4.13925 3.24889 0
M  V30 8112 O 813.403 -4.06463 3.98467 0
M  V30 8113 N 814.605 -5.24099 2.496 0
M  V30 8114 H 817.37 -1.17903 2.75534 0
M  V30 8115 H 814.931 -0.500564 1.53967 0
M  V30 8116 H 816.923 -3.5661 1.91342 0
M  V30 8117 H 815.493 -2.94342 1.05268 0
M  V30 8118 H 814.713 -2.04472 3.37023 0
M  V30 8119 H 816.001 -3.02763 4.08916 0
M  V30 8120 H 815.399 -5.33039 1.89435 0
M  V30 8121 H 813.956 -6.0023 2.54102 0
M  V30 8122 N 817.389 -1.46805 -0.573248 0
M  V30 8123 C 818.617 -1.56191 -1.3569 0
M  V30 8124 C 819.032 -0.206362 -1.87669 0
M  V30 8125 O 818.389 0.797883 -1.64134 0
M  V30 8126 C 818.44 -2.57433 -2.53792 0
M  V30 8127 O 818.161 -3.87724 -2.03965 0
M  V30 8128 C 819.662 -2.76851 -3.4622 0
M  V30 8129 H 816.882 -0.527907 -0.414192 0
M  V30 8130 H 819.426 -1.92292 -0.695989 0
M  V30 8131 H 817.581 -2.24311 -3.15854 0
M  V30 8132 H 817.995 -4.42909 -2.80948 0
M  V30 8133 H 819.469 -3.5159 -4.25545 0
M  V30 8134 H 819.946 -1.84095 -3.98755 0
M  V30 8135 H 820.552 -3.11107 -2.89987 0
M  V30 8136 N 818.867 0.818669 -1.34668 0
M  V30 8137 C 820.092 1.61193 -1.30505 0
M  V30 8138 C 820.517 1.87734 0.117341 0
M  V30 8139 O 819.875 1.45591 1.08042 0
M  V30 8140 C 819.923 2.92733 -2.1057 0
M  V30 8141 O 819.027 3.85 -1.47813 0
M  V30 8142 H 818.368 0.490085 -0.44801 0
M  V30 8143 H 820.898 1.01701 -1.77534 0
M  V30 8144 H 820.908 3.42262 -2.22082 0
M  V30 8145 H 819.583 2.7274 -3.13984 0
M  V30 8146 H 818.16 3.43525 -1.45069 0
M  V30 8147 N 820.346 1.18468 1.03938 0
M  V30 8148 C 821.278 0.870615 2.12021 0
M  V30 8149 C 822.291 -0.132318 1.62261 0
M  V30 8150 O 823.48 0.0956901 1.78243 0
M  V30 8151 C 820.58 0.279727 3.37744 0
M  V30 8152 C 819.753 1.32863 4.16733 0
M  V30 8153 C 818.812 0.753204 5.20781 0
M  V30 8154 O 817.838 1.42825 5.5099 0
M  V30 8155 N 819.04 -0.448664 5.78764 0
M  V30 8156 H 821.805 1.80091 2.39556 0
M  V30 8157 H 819.366 1.08524 1.20142 0
M  V30 8158 H 821.358 -0.118829 4.04526 0
M  V30 8159 H 819.928 -0.554621 3.07641 0
M  V30 8160 H 819.148 1.90245 3.45254 0
M  V30 8161 H 820.436 2.03574 4.66299 0
M  V30 8162 H 819.834 -1.01481 5.56523 0
M  V30 8163 H 818.391 -0.789125 6.47005 0
M  V30 8164 N 821.824 -1.22873 0.986916 0
M  V30 8165 C 822.734 -2.28277 0.540978 0
M  V30 8166 C 823.75 -1.69164 -0.407363 0
M  V30 8167 O 824.926 -1.99504 -0.275674 0
M  V30 8168 C 821.991 -3.46404 -0.143181 0
M  V30 8169 C 821.052 -4.20854 0.847375 0
M  V30 8170 C 820.285 -5.33341 0.19577 0
M  V30 8171 O 820.508 -5.61356 -1.0117 0
M  V30 8172 O 819.442 -5.95169 0.897623 0
M  V30 8173 H 823.268 -2.68578 1.41773 0
M  V30 8174 H 820.853 -1.28927 0.754867 0
M  V30 8175 H 822.735 -4.18096 -0.526676 0
M  V30 8176 H 821.41 -3.08041 -0.994593 0
M  V30 8177 H 820.317 -3.51459 1.28169 0
M  V30 8178 H 821.65 -4.63082 1.6678 0
M  V30 8179 N 823.302 -0.75937 -1.38099 0
M  V30 8180 C 824.55 -0.317485 -1.99591 0
M  V30 8181 C 824.871 1.10628 -1.60581 0
M  V30 8182 O 824.141 1.7575 -0.865378 0
M  V30 8183 H 822.721 -0.114397 -0.738189 0
M  V30 8184 H 825.383 -0.974749 -1.68774 0
M  V30 8185 H 824.479 -0.385227 -3.09713 0
M  V30 8186 N 824.78 1.49157 -0.508906 0
M  V30 8187 C 825.743 2.27784 0.25434 0
M  V30 8188 C 826.743 1.34132 0.88686 0
M  V30 8189 O 827.933 1.5722 0.750168 0
M  V30 8190 C 825.065 3.12347 1.36573 0
M  V30 8191 H 826.258 2.96718 -0.435714 0
M  V30 8192 H 823.811 1.54052 -0.264128 0
M  V30 8193 H 824.546 2.47997 2.08969 0
M  V30 8194 H 824.331 3.81213 0.917543 0
M  V30 8195 H 825.821 3.71712 1.90315 0
M  V30 8196 N 826.258 0.243083 1.55714 0
M  V30 8197 C 827.221 -0.644723 2.19945 0
M  V30 8198 C 828.221 -1.10562 1.16759 0
M  V30 8199 O 829.411 -1.01095 1.41865 0
M  V30 8200 C 826.543 -1.88569 2.83997 0
M  V30 8201 H 827.736 -0.0843839 2.99781 0
M  V30 8202 H 825.289 -0.00647246 1.56299 0
M  V30 8203 H 826.024 -2.48736 2.08089 0
M  V30 8204 H 825.809 -1.56345 3.59581 0
M  V30 8205 H 827.299 -2.51774 3.33166 0
M  V30 8206 N 827.736 -1.57571 -0.0300757 0
M  V30 8207 C 828.699 -2.05468 -1.01565 0
M  V30 8208 C 829.699 -0.958628 -1.29101 0
M  V30 8209 O 830.889 -1.22228 -1.24121 0
M  V30 8210 C 828.021 -2.47077 -2.34874 0
M  V30 8211 H 829.214 -2.93797 -0.601936 0
M  V30 8212 H 826.767 -1.53828 -0.276878 0
M  V30 8213 H 827.502 -1.61901 -2.80996 0
M  V30 8214 H 827.287 -3.27097 -2.16218 0
M  V30 8215 H 828.777 -2.84564 -3.05635 0
M  V30 8216 N 829.214 0.302327 -1.54673 0
M  V30 8217 C 830.177 1.35592 -1.8479 0
M  V30 8218 C 831.177 1.43743 -0.72073 0
M  V30 8219 O 832.367 1.43402 -0.989017 0
M  V30 8220 C 829.499 2.74091 -2.02699 0
M  V30 8221 H 830.692 1.10132 -2.78946 0
M  V30 8222 H 828.245 0.538926 -1.46715 0
M  V30 8223 H 828.98 3.04775 -1.10826 0
M  V30 8224 H 828.765 2.69565 -2.8474 0
M  V30 8225 H 830.255 3.50272 -2.27374 0
M  V30 8226 N 830.692 1.47107 0.565454 0
M  V30 8227 C 831.655 1.58535 1.65527 0
M  V30 8228 C 832.655 0.461081 1.54048 0
M  V30 8229 O 833.845 0.725911 1.58355 0
M  V30 8230 C 830.977 1.52204 3.05036 0
M  V30 8231 H 832.17 2.55676 1.56747 0
M  V30 8232 H 829.723 1.35174 0.78471 0
M  V30 8233 H 830.458 0.564071 3.19357 0
M  V30 8234 H 830.243 2.3379 3.14777 0
M  V30 8235 H 831.733 1.63322 3.84338 0
M  V30 8236 N 832.17 -0.811516 1.35101 0
M  V30 8237 C 833.08 -1.95475 1.29718 0
M  V30 8238 C 834.096 -1.72813 0.202909 0
M  V30 8239 O 835.272 -1.96725 0.431414 0
M  V30 8240 C 832.337 -3.29975 1.06385 0
M  V30 8241 C 831.398 -3.65566 2.25077 0
M  V30 8242 C 830.631 -4.93648 2.02848 0
M  V30 8243 O 830.854 -5.617 0.992442 0
M  V30 8244 O 829.788 -5.27384 2.90087 0
M  V30 8245 H 833.614 -2.02961 2.25921 0
M  V30 8246 H 831.199 -0.948583 1.15422 0
M  V30 8247 H 833.081 -4.10506 0.951999 0
M  V30 8248 H 831.756 -3.2343 0.132294 0
M  V30 8249 H 830.663 -2.85432 2.41825 0
M  V30 8250 H 831.996 -3.7681 3.16662 0
M  V30 8251 N 833.648 -1.19017 -1.03309 0
M  V30 8252 C 835.059 -0.993206 -1.5809 0
M  V30 8253 C 835.41 0.45505 -1.9085 0
M  V30 8254 O 834.535 1.33372 -1.70414 0
M  V30 8255 C 835.13 -1.79661 -2.87241 0
M  V30 8256 C 833.689 -1.64377 -3.38611 0
M  V30 8257 C 832.836 -1.78628 -2.12102 0
M  V30 8258 H 835.787 -1.3345 -0.858879 0
M  V30 8259 H 835.808 -1.29019 -3.57958 0
M  V30 8260 H 835.32 -2.85061 -2.63366 0
M  V30 8261 H 833.421 -0.615447 -3.67482 0
M  V30 8262 H 833.534 -2.44651 -4.11926 0
M  V30 8263 H 831.898 -1.21648 -2.23772 0
M  V30 8264 H 832.681 -2.8548 -1.90673 0
M  V30 8265 N 835.127 1.22348 -0.993418 0
M  V30 8266 C 836.06 2.22898 -0.489073 0
M  V30 8267 C 837.038 1.56222 0.450927 0
M  V30 8268 O 838.222 1.84705 0.376351 0
M  V30 8269 C 835.349 3.37448 0.290946 0
M  V30 8270 C 834.395 4.22328 -0.595123 0
M  V30 8271 S 835.228 4.94677 -2.05072 0
M  V30 8272 C 836.384 6.12667 -1.28021 0
M  V30 8273 H 836.617 2.65333 -1.34111 0
M  V30 8274 H 834.15 1.32032 -0.800429 0
M  V30 8275 H 836.108 4.03867 0.734944 0
M  V30 8276 H 834.769 2.93519 1.11826 0
M  V30 8277 H 833.962 5.04 0.00507413 0
M  V30 8278 H 833.564 3.61043 -0.975906 0
M  V30 8279 H 835.856 6.75279 -0.548129 0
M  V30 8280 H 836.799 6.771 -2.07223 0
M  V30 8281 H 837.207 5.58898 -0.793272 0
M  V30 8282 N 836.605 0.766683 1.37694 0
M  V30 8283 C 837.853 0.328065 1.9942 0
M  V30 8284 C 838.174 -1.09775 1.61166 0
M  V30 8285 O 837.444 -1.75288 0.874686 0
M  V30 8286 H 836.024 0.11831 0.737572 0
M  V30 8287 H 838.686 0.983686 1.68255 0
M  V30 8288 H 837.782 0.401647 3.09505 0
M  V30 8289 N 838.083 -1.48885 0.516809 0
M  V30 8290 C 839.499 -1.58651 0.173788 0
M  V30 8291 C 839.699 -1.52033 -1.32243 0
M  V30 8292 O 838.755 -1.40251 -2.09967 0
M  V30 8293 C 840.068 -2.90816 0.764628 0
M  V30 8294 C 841.616 -3.04316 0.732164 0
M  V30 8295 C 842.091 -4.39123 1.30135 0
M  V30 8296 N 843.582 -4.45656 1.26273 0
M  V30 8297 C 844.317 -5.48446 1.67317 0
M  V30 8298 N 843.813 -6.58258 2.16028 0
M  V30 8299 N 845.606 -5.39251 1.58635 0
M  V30 8300 H 837.757 -1.5143 1.48939 0
M  V30 8301 H 840.02 -0.718243 0.618733 0
M  V30 8302 H 839.726 -3.01275 1.81456 0
M  V30 8303 H 839.6 -3.76473 0.234113 0
M  V30 8304 H 841.987 -2.93478 -0.308975 0
M  V30 8305 H 842.068 -2.20303 1.3 0
M  V30 8306 H 841.712 -4.50714 2.34135 0
M  V30 8307 H 841.642 -5.21801 0.709305 0
M  V30 8308 H 844.133 -3.66879 0.906006 0
M  V30 8309 H 844.446 -7.32811 2.45374 0
M  V30 8310 H 842.791 -6.59257 2.20013 0
M  V30 8311 H 845.982 -4.52354 1.20387 0
M  V30 8312 H 846.155 -6.19229 1.90944 0
M  V30 8313 N 839.561 -0.251338 -1.55583 0
M  V30 8314 C 840.972 0.25098 -1.85005 0
M  V30 8315 C 841.323 1.57259 -1.17321 0
M  V30 8316 O 840.448 2.11603 -0.453136 0
M  V30 8317 C 841.043 0.462161 -3.35633 0
M  V30 8318 C 839.602 0.908737 -3.65266 0
M  V30 8319 C 838.749 -0.0115418 -2.77298 0
M  V30 8320 H 841.7 -0.473782 -1.51463 0
M  V30 8321 H 841.721 1.30415 -3.57452 0
M  V30 8322 H 841.233 -0.499886 -3.84867 0
M  V30 8323 H 839.334 1.8831 -3.21512 0
M  V30 8324 H 839.447 0.762526 -4.72993 0
M  V30 8325 H 837.811 0.500612 -2.49732 0
M  V30 8326 H 838.594 -0.969042 -3.29339 0
M  V30 8327 N 841.039 1.57585 0.0217189 0
M  V30 8328 C 842.285 1.89887 0.712099 0
M  V30 8329 C 842.618 0.849971 1.74611 0
M  V30 8330 O 841.893 -0.13407 1.94037 0
M  V30 8331 C 842.176 3.32815 1.37499 0
M  V30 8332 C 842.029 4.48405 0.353993 0
M  V30 8333 C 843.348 3.74786 2.30703 0
M  V30 8334 H 840.467 0.690588 0.257405 0
M  V30 8335 H 843.109 1.89983 -0.0251145 0
M  V30 8336 H 841.259 3.32863 2.00335 0
M  V30 8337 H 842.931 4.60491 -0.273015 0
M  V30 8338 H 841.174 4.32573 -0.32599 0
M  V30 8339 H 841.845 5.45316 0.85644 0
M  V30 8340 H 844.321 3.76151 1.77904 0
M  V30 8341 H 843.197 4.75585 2.74061 0
M  V30 8342 H 843.458 3.07449 3.17691 0
M  V30 8343 N 842.517 -0.29412 1.54831 0
M  V30 8344 C 843.449 -1.38476 1.82639 0
M  V30 8345 C 844.462 -1.46517 0.709694 0
M  V30 8346 O 845.651 -1.48712 0.987269 0
M  V30 8347 C 842.751 -2.76791 1.95551 0
M  V30 8348 C 841.924 -2.91599 3.26019 0
M  V30 8349 C 840.983 -4.10456 3.29261 0
M  V30 8350 O 840.009 -4.02214 4.02756 0
M  V30 8351 N 841.211 -5.21422 2.55145 0
M  V30 8352 H 843.976 -1.14974 2.76769 0
M  V30 8353 H 841.537 -0.484206 1.5449 0
M  V30 8354 H 843.529 -3.5456 1.95113 0
M  V30 8355 H 842.099 -2.93209 1.08384 0
M  V30 8356 H 841.319 -2.00886 3.39173 0
M  V30 8357 H 842.607 -2.98409 4.12104 0
M  V30 8358 H 842.005 -5.31 1.95078 0
M  V30 8359 H 840.562 -5.97501 2.60454 0
M  V30 8360 N 843.995 -1.47404 -0.557645 0
M  V30 8361 C 844.905 -1.62491 -1.69216 0
M  V30 8362 C 845.921 -0.507764 -1.66426 0
M  V30 8363 O 847.097 -0.775241 -1.85882 0
M  V30 8364 C 844.162 -1.63511 -3.05721 0
M  V30 8365 C 843.223 -2.86648 -3.1958 0
M  V30 8366 C 842.456 -2.87609 -4.49574 0
M  V30 8367 O 842.679 -1.97799 -5.35006 0
M  V30 8368 O 841.613 -3.79465 -4.67215 0
M  V30 8369 H 845.439 -2.58487 -1.59431 0
M  V30 8370 H 843.024 -1.30485 -0.7276 0
M  V30 8371 H 844.906 -1.66863 -3.86956 0
M  V30 8372 H 843.581 -0.706812 -3.15889 0
M  V30 8373 H 842.488 -2.8884 -2.37744 0
M  V30 8374 H 843.821 -3.7877 -3.14316 0
M  V30 8375 N 845.473 0.80434 -1.35529 0
M  V30 8376 C 846.383 1.94784 -1.30753 0
M  V30 8377 C 847.399 1.72703 -0.212071 0
M  V30 8378 O 848.575 1.96494 -0.441841 0
M  V30 8379 C 845.64 3.29406 -1.08133 0
M  V30 8380 C 844.701 3.64367 -2.27013 0
M  V30 8381 C 843.934 4.92566 -2.05463 0
M  V30 8382 O 844.157 5.61166 -1.02222 0
M  V30 8383 O 843.091 5.25838 -2.92879 0
M  V30 8384 H 846.917 2.01761 -2.26994 0
M  V30 8385 H 844.502 0.942448 -1.15924 0
M  V30 8386 H 846.384 4.09995 -0.973756 0
M  V30 8387 H 845.059 3.23355 -0.149444 0
M  V30 8388 H 843.966 2.84146 -2.43335 0
M  V30 8389 H 845.299 3.75125 -3.18656 0
M  V30 8390 N 846.951 1.19563 1.02676 0
M  V30 8391 C 848.179 1.02488 1.79732 0
M  V30 8392 C 848.594 -0.426302 1.83924 0
M  V30 8393 O 847.951 -1.29609 1.28483 0
M  V30 8394 C 848.002 1.58944 3.24683 0
M  V30 8395 O 847.723 2.98382 3.2078 0
M  V30 8396 C 849.224 1.46681 4.1833 0
M  V30 8397 H 846.444 0.361098 0.565552 0
M  V30 8398 H 848.988 1.58426 1.29311 0
M  V30 8399 H 847.143 1.0715 3.72287 0
M  V30 8400 H 847.557 3.24983 4.11687 0
M  V30 8401 H 849.031 1.90959 5.17918 0
M  V30 8402 H 849.508 0.417663 4.3721 0
M  V30 8403 H 850.114 1.97616 3.76601 0
M  V30 8404 N 848.429 -1.21819 0.999893 0
M  V30 8405 C 849.359 -2.26282 0.576096 0
M  V30 8406 C 850.34 -1.65317 -0.400537 0
M  V30 8407 O 851.525 -1.92028 -0.28964 0
M  V30 8408 C 848.655 -3.47147 -0.103145 0
M  V30 8409 C 847.609 -4.20594 0.792745 0
M  V30 8410 C 846.935 -5.34696 -0.0198026 0
M  V30 8411 C 848.235 -4.78533 2.09293 0
M  V30 8412 H 849.929 -2.61984 1.4493 0
M  V30 8413 H 847.475 -1.25935 0.698316 0
M  V30 8414 H 849.428 -4.1939 -0.411068 0
M  V30 8415 H 848.152 -3.1056 -1.01094 0
M  V30 8416 H 846.811 -3.50194 1.08442 0
M  V30 8417 H 846.459 -4.94352 -0.928729 0
M  V30 8418 H 846.159 -5.84764 0.576661 0
M  V30 8419 H 847.683 -6.09752 -0.321659 0
M  V30 8420 H 849.097 -5.42682 1.8485 0
M  V30 8421 H 847.494 -5.38968 2.63881 0
M  V30 8422 H 848.564 -3.98197 2.76708 0
M  V30 8423 N 849.908 -0.773975 -1.37286 0
M  V30 8424 C 850.871 -0.167974 -2.28584 0
M  V30 8425 C 851.871 0.625662 -1.48129 0
M  V30 8426 O 853.061 0.448924 -1.68316 0
M  V30 8427 C 850.193 0.769364 -3.32105 0
M  V30 8428 H 851.386 -0.972806 -2.83684 0
M  V30 8429 H 848.939 -0.542335 -1.46589 0
M  V30 8430 H 849.674 1.59912 -2.82132 0
M  V30 8431 H 849.459 0.202419 -3.91577 0
M  V30 8432 H 850.949 1.18872 -4.00324 0
M  V30 8433 N 851.386 1.48609 -0.524698 0
M  V30 8434 C 852.802 1.58557 -0.182199 0
M  V30 8435 C 853.002 1.52732 1.31435 0
M  V30 8436 O 852.058 1.41362 2.0922 0
M  V30 8437 C 853.371 2.90406 -0.78004 0
M  V30 8438 C 854.919 3.03924 -0.748293 0
M  V30 8439 C 855.394 4.38427 -1.32462 0
M  V30 8440 N 856.885 4.4498 -1.28635 0
M  V30 8441 C 857.62 5.47551 -1.70223 0
M  V30 8442 N 857.116 6.57103 -2.19515 0
M  V30 8443 N 858.909 5.38402 -1.61493 0
M  V30 8444 H 851.06 1.50638 -1.4974 0
M  V30 8445 H 853.323 0.714952 -0.622533 0
M  V30 8446 H 853.029 3.00308 -1.83052 0
M  V30 8447 H 852.903 3.76343 -0.254075 0
M  V30 8448 H 855.29 2.93638 0.293407 0
M  V30 8449 H 855.371 2.19611 -1.31167 0
M  V30 8450 H 855.015 4.49466 -2.36522 0
M  V30 8451 H 854.945 5.21418 -0.736967 0
M  V30 8452 H 857.436 3.66393 -0.92545 0
M  V30 8453 H 857.749 7.31499 -2.49257 0
M  V30 8454 H 856.094 6.58081 -2.23506 0
M  V30 8455 H 859.285 4.5171 -1.22785 0
M  V30 8456 H 859.458 6.18208 -1.94225 0
M  V30 8457 N 852.864 0.259585 1.55447 0
M  V30 8458 C 854.28 -0.094961 1.59317 0
M  V30 8459 C 854.48 -1.55884 1.2768 0
M  V30 8460 O 853.536 -2.30528 1.0302 0
M  V30 8461 C 854.849 0.265669 2.99524 0
M  V30 8462 C 856.397 0.211007 3.12288 0
M  V30 8463 C 856.872 0.545851 4.54736 0
M  V30 8464 N 858.363 0.496823 4.60528 0
M  V30 8465 C 859.098 0.728909 5.68748 0
M  V30 8466 N 858.594 1.02479 6.85179 0
M  V30 8467 N 860.387 0.658756 5.58226 0
M  V30 8468 H 852.538 1.2141 1.7428 0
M  V30 8469 H 854.801 0.489404 0.811904 0
M  V30 8470 H 854.507 1.28316 3.27457 0
M  V30 8471 H 854.381 -0.401089 3.75061 0
M  V30 8472 H 856.768 -0.797172 2.84129 0
M  V30 8473 H 856.849 0.911799 2.38998 0
M  V30 8474 H 856.493 1.55164 4.83618 0
M  V30 8475 H 856.423 -0.17656 5.26304 0
M  V30 8476 H 858.914 0.277376 3.76881 0
M  V30 8477 H 859.227 1.18897 7.63599 0
M  V30 8478 H 857.572 1.0624 6.86832 0
M  V30 8479 H 860.763 0.427553 4.66143 0
M  V30 8480 H 860.936 0.84302 6.42493 0
M  V30 8481 N 854.342 -1.57594 -0.0133615 0
M  V30 8482 C 855.619 -1.81173 -0.737273 0
M  V30 8483 C 855.999 -0.861395 -1.92726 0
M  V30 8484 O 855.347 0.0929324 -2.28311 0
M  V30 8485 C 855.557 -3.29314 -1.15557 0
M  V30 8486 C 856.905 -3.94707 -1.56498 0
M  V30 8487 O 857.929 -3.33557 -1.24973 0
M  V30 8488 O 856.788 -5.02402 -2.15069 0
M  V30 8489 H 853.882 -0.745575 -0.357837 0
M  V30 8490 H 856.428 -1.69696 0.0110674 0
M  V30 8491 H 855.2 -3.90096 -0.30677 0
M  V30 8492 H 854.823 -3.45739 -1.96343 0
M  V30 8493 N 855.82 0.285905 -1.54985 0
M  V30 8494 C 857.045 1.04207 -1.7932 0
M  V30 8495 C 857.47 1.79622 -0.558343 0
M  V30 8496 O 856.828 1.74506 0.491661 0
M  V30 8497 C 856.876 1.98648 -3.0095 0
M  V30 8498 O 855.98 3.07207 -2.75132 0
M  V30 8499 H 855.321 0.298596 -0.593074 0
M  V30 8500 H 857.851 0.318736 -2.02102 0
M  V30 8501 H 857.861 2.4084 -3.29333 0
M  V30 8502 H 856.536 1.43167 -3.90482 0
M  V30 8503 H 855.113 2.69423 -2.57809 0
M  V30 8504 N 857.298 1.47698 0.54982 0
M  V30 8505 C 858.545 1.54702 1.30665 0
M  V30 8506 C 858.873 0.212418 1.93337 0
M  V30 8507 O 858.128 -0.79543 1.78805 0
M  V30 8508 C 858.427 2.61903 2.4319 0
M  V30 8509 C 858.093 4.04953 1.98302 0
M  V30 8510 C 856.755 4.43893 1.85776 0
M  V30 8511 C 859.107 4.94682 1.64133 0
M  V30 8512 C 856.435 5.70387 1.37388 0
M  V30 8513 C 858.787 6.21646 1.17214 0
M  V30 8514 C 857.451 6.5946 1.0329 0
M  V30 8515 H 856.721 0.566096 0.478139 0
M  V30 8516 H 859.368 1.8133 0.615767 0
M  V30 8517 H 857.673 2.2906 3.17866 0
M  V30 8518 H 859.37 2.64543 3.0136 0
M  V30 8519 H 855.96 3.74191 2.08995 0
M  V30 8520 H 860.144 4.65291 1.72679 0
M  V30 8521 H 855.4 5.98427 1.25278 0
M  V30 8522 H 859.574 6.90581 0.898391 0
M  V30 8523 H 857.201 7.57367 0.655735 0
M  V30 8524 N 858.776 -0.797141 1.35954 0
M  V30 8525 C 859.739 -1.89104 1.29508 0
M  V30 8526 C 860.739 -1.59495 0.204444 0
M  V30 8527 O 861.929 -1.68051 0.458746 0
M  V30 8528 C 859.061 -3.25726 1.00576 0
M  V30 8529 H 860.254 -1.96237 2.26785 0
M  V30 8530 H 857.807 -0.994075 1.20614 0
M  V30 8531 H 858.542 -3.24279 0.0372519 0
M  V30 8532 H 858.327 -3.48604 1.79492 0
M  V30 8533 H 859.817 -4.0578 0.986508 0
M  V30 8534 N 860.254 -1.20106 -1.0204 0
M  V30 8535 C 861.502 -1.0069 -1.75231 0
M  V30 8536 C 861.823 0.462491 -1.89436 0
M  V30 8537 O 861.093 1.33455 -1.4341 0
M  V30 8538 H 859.673 -0.369576 -0.649171 0
M  V30 8539 H 862.335 -1.51149 -1.23044 0
M  V30 8540 H 861.431 -1.46205 -2.75736 0
M  V30 8541 N 861.732 1.21287 -1.00634 0
M  V30 8542 C 862.68 2.25733 -0.561026 0
M  V30 8543 C 863.674 1.64728 0.395095 0
M  V30 8544 O 864.88 1.78022 0.266141 0
M  V30 8545 H 861.255 0.734104 -0.163081 0
M  V30 8546 H 863.226 2.60631 -1.45307 0
M  V30 8547 C 861.975 3.47569 0.0952587 0
M  V30 8548 H 861.298 3.94782 -0.631427 0
M  V30 8549 H 862.738 4.22382 0.370105 0
M  V30 8550 C 861.197 3.09326 1.33488 0
M  V30 8551 O 861.727 3.19933 2.42912 0
M  V30 8552 N 859.933 2.63976 1.21512 0
M  V30 8553 H 859.48 2.55545 0.324741 0
M  V30 8554 H 859.438 2.38757 2.04555 0
M  V30 8555 N 863.21 0.781244 1.36873 0
M  V30 8556 C 864.458 0.349198 1.9906 0
M  V30 8557 C 864.779 -1.0806 1.62321 0
M  V30 8558 O 864.049 -1.74351 0.893229 0
M  V30 8559 H 862.629 0.126126 0.736275 0
M  V30 8560 H 865.291 1.00148 1.67202 0
M  V30 8561 H 864.387 0.434451 3.09061 0
M  V30 8562 N 864.689 -1.48329 0.532571 0
M  V30 8563 C 866.1 -1.86469 0.0927749 0
M  V30 8564 C 866.451 -1.44186 -1.3306 0
M  V30 8565 O 865.576 -0.833741 -1.99694 0
M  V30 8566 C 866.171 -3.38414 0.161588 0
M  V30 8567 C 864.73 -3.75739 -0.223028 0
M  V30 8568 C 863.877 -2.72377 0.520199 0
M  V30 8569 H 866.828 -1.40197 0.743678 0
M  V30 8570 H 866.849 -3.75314 -0.626059 0
M  V30 8571 H 866.361 -3.69159 1.19765 0
M  V30 8572 H 864.462 -3.50608 -1.26113 0
M  V30 8573 H 864.575 -4.78954 0.118385 0
M  V30 8574 H 862.939 -2.54678 -0.0338425 0
M  V30 8575 H 863.722 -3.05965 1.55694 0
M  V30 8576 N 866.167 -0.267825 -1.55308 0
M  V30 8577 C 867.583 0.0865107 -1.59365 0
M  V30 8578 C 867.783 1.55205 -1.28505 0
M  V30 8579 O 866.839 2.29978 -1.04241 0
M  V30 8580 C 868.152 -0.28155 -2.99379 0
M  V30 8581 C 869.7 -0.227565 -3.12172 0
M  V30 8582 C 870.175 -0.569959 -4.5444 0
M  V30 8583 N 871.666 -0.521238 -4.60258 0
M  V30 8584 C 872.401 -0.759061 -5.68354 0
M  V30 8585 N 871.897 -1.06112 -6.84626 0
M  V30 8586 N 873.69 -0.688351 -5.57869 0
M  V30 8587 H 865.841 -1.22332 -1.73633 0
M  V30 8588 H 868.104 -0.493703 -0.809297 0
M  V30 8589 H 867.81 -1.3005 -3.26772 0
M  V30 8590 H 867.684 0.381192 -3.75269 0
M  V30 8591 H 870.071 0.782093 -2.84548 0
M  V30 8592 H 870.152 -0.924461 -2.38511 0
M  V30 8593 H 869.796 -1.57727 -4.82788 0
M  V30 8594 H 869.726 0.148646 -5.2639 0
M  V30 8595 H 872.217 -0.297359 -3.76728 0
M  V30 8596 H 872.53 -1.22945 -7.62958 0
M  V30 8597 H 870.875 -1.09881 -6.86259 0
M  V30 8598 H 874.066 -0.452268 -4.6591 0
M  V30 8599 H 874.239 -0.877081 -6.42037 0
M  V30 8600 N 867.645 1.57599 0.00500368 0
M  V30 8601 C 868.892 1.90349 0.690895 0
M  V30 8602 C 869.22 0.868045 1.74055 0
M  V30 8603 O 868.475 -0.127855 1.95282 0
M  V30 8604 C 868.774 3.29855 1.37588 0
M  V30 8605 C 868.44 4.48548 0.459906 0
M  V30 8606 C 867.102 4.80752 0.207693 0
M  V30 8607 C 869.454 5.20919 -0.171054 0
M  V30 8608 C 866.782 5.82701 -0.683855 0
M  V30 8609 C 869.134 6.23818 -1.05045 0
M  V30 8610 C 867.798 6.54481 -1.31189 0
M  V30 8611 H 867.068 0.696538 0.252816 0
M  V30 8612 H 869.715 1.91436 -0.0494495 0
M  V30 8613 H 868.02 3.24869 2.19015 0
M  V30 8614 H 869.717 3.52452 1.91255 0
M  V30 8615 H 866.307 4.23384 0.666648 0
M  V30 8616 H 870.491 4.96299 0.0107942 0
M  V30 8617 H 865.747 6.04822 -0.894467 0
M  V30 8618 H 869.921 6.79029 -1.54574 0
M  V30 8619 H 867.548 7.33299 -2.00442 0
M  V30 8620 N 869.123 -0.277682 1.55134 0
M  V30 8621 C 870.534 -0.849063 1.66276 0
M  V30 8622 C 870.885 -1.87223 0.5867 0
M  V30 8623 O 870.01 -2.14676 -0.272635 0
M  V30 8624 C 870.605 -1.54681 3.01429 0
M  V30 8625 C 869.164 -2.06628 3.14614 0
M  V30 8626 C 868.311 -0.906748 2.62056 0
M  V30 8627 H 871.262 -0.0541357 1.58608 0
M  V30 8628 H 871.283 -2.41356 2.94156 0
M  V30 8629 H 870.795 -0.80189 3.79725 0
M  V30 8630 H 868.896 -2.84095 2.41082 0
M  V30 8631 H 869.009 -2.2848 4.2111 0
M  V30 8632 H 867.373 -1.29882 2.19095 0
M  V30 8633 H 868.156 -0.175414 3.42852 0
M  V30 8634 N 870.601 -1.47988 -0.541979 0
M  V30 8635 C 871.878 -1.45878 -1.30303 0
M  V30 8636 C 872.258 -0.163931 -2.10463 0
M  V30 8637 O 871.606 0.854479 -2.11922 0
M  V30 8638 C 871.816 -2.71359 -2.19466 0
M  V30 8639 C 873.164 -3.19199 -2.79995 0
M  V30 8640 O 874.188 -2.72193 -2.2976 0
M  V30 8641 O 873.047 -4.00961 -3.71339 0
M  V30 8642 H 870.141 -0.582043 -0.587498 0
M  V30 8643 H 872.687 -1.60207 -0.559623 0
M  V30 8644 H 871.459 -3.57122 -1.59936 0
M  V30 8645 H 871.082 -2.59692 -3.01075 0
M  V30 8646 N 872.079 0.78992 -1.36375 0
M  V30 8647 C 873.49 1.36506 -1.2737 0
M  V30 8648 C 873.841 1.96008 0.086711 0
M  V30 8649 O 872.966 1.92521 0.988159 0
M  V30 8650 C 873.561 2.48175 -2.30639 0
M  V30 8651 C 872.12 3.01506 -2.25325 0
M  V30 8652 C 871.267 1.74581 -2.15445 0
M  V30 8653 H 874.218 0.591606 -1.47261 0
M  V30 8654 H 874.239 3.27179 -1.94253 0
M  V30 8655 H 873.751 2.04838 -3.2964 0
M  V30 8656 H 871.852 3.49265 -1.29788 0
M  V30 8657 H 871.965 3.58355 -3.17992 0
M  V30 8658 H 870.329 1.96794 -1.61692 0
M  V30 8659 H 871.112 1.33373 -3.16333 0
M  V30 8660 N 873.557 1.20646 1.01402 0
M  V30 8661 C 874.797 1.02951 1.7658 0
M  V30 8662 C 875.161 -0.430522 1.87111 0
M  V30 8663 O 876.362 -0.727727 2.58762 0
M  V30 8664 C 874.633 1.69728 3.14527 0
M  V30 8665 S 876.192 1.6717 4.05709 0
M  V30 8666 H 873.01 0.36911 0.607683 0
M  V30 8667 H 875.612 1.53243 1.21395 0
M  V30 8668 H 874.316 2.75162 3.0449 0
M  V30 8669 H 873.847 1.19578 3.74786 0
M  V30 8670 H 875.862 0.706397 4.91146 0
M  V30 8671 N 875.035 -1.20752 1.01276 0
M  V30 8672 C 876.283 -1.89645 0.698505 0
M  V30 8673 C 876.604 -1.78986 -0.773883 0
M  V30 8674 O 875.874 -1.18977 -1.55632 0
M  V30 8675 H 874.454 -0.701992 0.255375 0
M  V30 8676 H 877.116 -1.46668 1.28353 0
M  V30 8677 H 876.212 -2.96364 0.978512 0
M  V30 8678 N 876.513 -0.788492 -1.36457 0
M  V30 8679 C 877.761 -0.359749 -1.98872 0
M  V30 8680 C 878.082 1.07197 -1.62892 0
M  V30 8681 O 877.352 1.73875 -0.902463 0
M  V30 8682 H 875.932 -0.130029 -0.735596 0
M  V30 8683 H 878.594 -1.01033 -1.66668 0
M  V30 8684 H 877.69 -0.450835 -3.08827 0
M  V30 8685 N 877.991 1.48044 -0.54043 0
M  V30 8686 C 879.402 1.86418 -0.102662 0
M  V30 8687 C 879.753 1.4489 1.32293 0
M  V30 8688 O 878.878 0.844319 1.99249 0
M  V30 8689 C 879.473 3.38324 -0.179533 0
M  V30 8690 C 878.032 3.75852 0.203098 0
M  V30 8691 C 877.179 2.72097 -0.534637 0
M  V30 8692 H 880.13 1.398 -0.751103 0
M  V30 8693 H 880.151 3.75641 0.606147 0
M  V30 8694 H 879.663 3.68518 -1.21721 0
M  V30 8695 H 877.764 3.51272 1.24252 0
M  V30 8696 H 877.877 4.78884 -0.143784 0
M  V30 8697 H 876.241 2.54692 0.0203358 0
M  V30 8698 H 877.024 3.05135 -1.57314 0
M  V30 8699 N 879.47 0.276058 1.55163 0
M  V30 8700 C 880.38 -0.621066 2.2623 0
M  V30 8701 C 881.396 -1.16931 1.28853 0
M  V30 8702 O 882.572 -1.1994 1.61791 0
M  V30 8703 C 879.637 -1.78824 2.97023 0
M  V30 8704 C 878.698 -1.27657 4.09881 0
M  V30 8705 C 877.931 -2.38812 4.77289 0
M  V30 8706 O 878.154 -3.58188 4.43912 0
M  V30 8707 O 877.088 -2.06915 5.65217 0
M  V30 8708 H 880.914 -0.0453346 3.03666 0
M  V30 8709 H 878.499 0.0434275 1.49337 0
M  V30 8710 H 880.381 -2.46877 3.41511 0
M  V30 8711 H 879.056 -2.35104 2.22503 0
M  V30 8712 H 877.963 -0.56248 3.69847 0
M  V30 8713 H 879.296 -0.759509 4.86305 0
M  V30 8714 N 880.948 -1.576 0.00335426 0
M  V30 8715 C 882.196 -1.90336 -0.679446 0
M  V30 8716 C 882.517 -0.877777 -1.74127 0
M  V30 8717 O 881.787 0.0843585 -1.95718 0
M  V30 8718 H 880.367 -0.702509 -0.253948 0
M  V30 8719 H 883.029 -1.94848 0.0450731 0
M  V30 8720 H 882.125 -2.90197 -1.14857 0
M  V30 8721 N 882.426 0.269451 -1.5528 0
M  V30 8722 C 883.356 1.33729 -1.91413 0
M  V30 8723 C 884.337 1.51348 -0.776391 0
M  V30 8724 O 885.522 1.64332 -1.03482 0
M  V30 8725 C 882.652 2.69618 -2.18914 0
M  V30 8726 C 881.606 2.66725 -3.34726 0
M  V30 8727 C 880.932 4.06199 -3.47716 0
M  V30 8728 C 882.232 2.25684 -4.71025 0
M  V30 8729 H 883.926 1.03736 -2.80854 0
M  V30 8730 H 881.472 0.497579 -1.3513 0
M  V30 8731 H 883.425 3.44436 -2.42779 0
M  V30 8732 H 882.149 3.01201 -1.26275 0
M  V30 8733 H 880.808 1.94365 -3.10834 0
M  V30 8734 H 880.456 4.3501 -2.52537 0
M  V30 8735 H 880.156 4.05157 -4.25583 0
M  V30 8736 H 881.68 4.8275 -3.73877 0
M  V30 8737 H 883.094 2.90225 -4.94411 0
M  V30 8738 H 881.491 2.35797 -5.51833 0
M  V30 8739 H 882.561 1.20819 -4.69607 0
M  V30 8740 N 883.904 1.48273 0.534124 0
M  V30 8741 C 885.32 1.34302 0.862272 0
M  V30 8742 C 885.52 0.350902 1.98421 0
M  V30 8743 O 884.576 -0.229364 2.51456 0
M  V30 8744 C 885.889 2.74227 1.23371 0
M  V30 8745 C 887.437 2.82684 1.34383 0
M  V30 8746 C 887.912 4.23301 1.74871 0
M  V30 8747 N 889.403 4.25954 1.81981 0
M  V30 8748 C 890.138 5.31693 2.14686 0
M  V30 8749 N 889.634 6.47714 2.45844 0
M  V30 8750 N 891.427 5.19084 2.15657 0
M  V30 8751 H 883.578 2.11397 -0.206215 0
M  V30 8752 H 885.841 0.947537 -0.0296116 0
M  V30 8753 H 885.547 3.48368 0.482967 0
M  V30 8754 H 885.421 3.07485 2.18478 0
M  V30 8755 H 887.808 2.08801 2.08534 0
M  V30 8756 H 887.889 2.5305 0.374063 0
M  V30 8757 H 887.533 4.97699 1.01282 0
M  V30 8758 H 887.463 4.50376 2.7289 0
M  V30 8759 H 889.954 3.42266 1.60196 0
M  V30 8760 H 890.267 7.2414 2.69892 0
M  V30 8761 H 888.612 6.50995 2.43372 0
M  V30 8762 H 891.803 4.27463 1.9077 0
M  V30 8763 H 891.976 6.01592 2.40813 0
M  V30 8764 N 885.382 -0.782676 1.36792 0
M  V30 8765 C 886.292 -1.92679 1.33835 0
M  V30 8766 C 887.308 -1.72344 0.23952 0
M  V30 8767 O 888.484 -1.95766 0.473045 0
M  V30 8768 C 885.549 -3.27644 1.1336 0
M  V30 8769 C 884.61 -3.6071 2.32781 0
M  V30 8770 C 883.843 -4.89234 2.13273 0
M  V30 8771 O 884.066 -5.59468 1.11136 0
M  V30 8772 O 883 -5.21112 3.01208 0
M  V30 8773 H 886.826 -1.98124 2.30175 0
M  V30 8774 H 884.411 -0.923887 1.17408 0
M  V30 8775 H 886.293 -4.08394 1.03886 0
M  V30 8776 H 884.968 -3.23076 0.200868 0
M  V30 8777 H 883.875 -2.80238 2.47825 0
M  V30 8778 H 885.208 -3.70008 3.24584 0
M  V30 8779 N 886.86 -1.21182 -1.00761 0
M  V30 8780 C 888.271 -1.02652 -1.55947 0
M  V30 8781 C 888.622 0.414466 -1.91772 0
M  V30 8782 O 887.747 1.29727 -1.73204 0
M  V30 8783 C 888.342 -1.85713 -2.83366 0
M  V30 8784 C 886.901 -1.71523 -3.35048 0
M  V30 8785 C 886.048 -1.83087 -2.08265 0
M  V30 8786 H 888.999 -1.35242 -0.830379 0
M  V30 8787 H 889.02 -1.36583 -3.55141 0
M  V30 8788 H 888.532 -2.90584 -2.5726 0
M  V30 8789 H 886.633 -0.693257 -3.66094 0
M  V30 8790 H 886.746 -2.53333 -4.06644 0
M  V30 8791 H 885.11 -1.26367 -2.21141 0
M  V30 8792 H 885.893 -2.8946 -1.84575 0
M  V30 8793 N 888.338 1.20213 -1.01915 0
M  V30 8794 C 889.248 2.26763 -0.601311 0
M  V30 8795 C 890.264 1.70185 0.362369 0
M  V30 8796 O 891.44 2.00165 0.222682 0
M  V30 8797 C 888.505 3.46662 0.0512879 0
M  V30 8798 C 887.566 4.18459 -0.958659 0
M  V30 8799 C 886.799 5.32634 -0.337107 0
M  V30 8800 O 887.022 5.63841 0.86251 0
M  V30 8801 O 885.956 5.9258 -1.05511 0
M  V30 8802 H 889.782 2.64725 -1.48844 0
M  V30 8803 H 887.367 1.2688 -0.788784 0
M  V30 8804 H 889.249 4.19345 0.41564 0
M  V30 8805 H 887.924 3.1057 0.912572 0
M  V30 8806 H 886.831 3.47937 -1.37442 0
M  V30 8807 H 888.164 4.58498 -1.78999 0
M  V30 8808 N 889.816 0.795718 1.36037 0
M  V30 8809 C 890.763 0.196548 2.29962 0
M  V30 8810 C 891.733 -0.663213 1.52285 0
M  V30 8811 O 892.918 -0.610574 1.80767 0
M  V30 8812 C 890.058 -0.657639 3.38776 0
M  V30 8813 C 889.171 0.221358 4.31433 0
M  V30 8814 C 888.306 -0.6398 5.27333 0
M  V30 8815 C 887.345 0.240265 6.11628 0
M  V30 8816 N 886.482 -0.580237 6.99698 0
M  V30 8817 H 891.322 1.00295 2.80615 0
M  V30 8818 H 888.859 0.506147 1.38118 0
M  V30 8819 H 890.817 -1.16793 4.00519 0
M  V30 8820 H 889.447 -1.42941 2.89426 0
M  V30 8821 H 888.499 0.84967 3.70789 0
M  V30 8822 H 889.811 0.899195 4.90628 0
M  V30 8823 H 888.965 -1.21566 5.94396 0
M  V30 8824 H 887.704 -1.35124 4.68607 0
M  V30 8825 H 886.709 0.828474 5.43522 0
M  V30 8826 H 887.934 0.949403 6.72431 0
M  V30 8827 H 885.88 -1.27585 6.43473 0
M  V30 8828 H 885.797 0.0397853 7.5599 0
M  V30 8829 H 887.065 -1.13972 7.71123 0
M  V30 8830 N 891.294 -1.47756 0.548274 0
M  V30 8831 C 892.257 -2.28379 -0.193857 0
M  V30 8832 C 893.257 -1.36436 -0.850986 0
M  V30 8833 O 894.447 -1.59154 -0.70822 0
M  V30 8834 C 891.579 -3.15858 -1.28243 0
M  V30 8835 H 892.772 -2.95458 0.514231 0
M  V30 8836 H 890.325 -1.53298 0.304879 0
M  V30 8837 H 891.06 -2.5345 -2.0232 0
M  V30 8838 H 890.845 -3.83512 -0.816148 0
M  V30 8839 H 892.335 -3.76627 -1.80393 0
M  V30 8840 N 892.772 -0.284283 -1.55015 0
M  V30 8841 C 893.997 0.335799 -2.04664 0
M  V30 8842 C 894.422 1.47999 -1.16094 0
M  V30 8843 O 893.78 1.8058 -0.161454 0
M  V30 8844 C 893.828 0.785615 -3.51938 0
M  V30 8845 O 892.932 1.89202 -3.66437 0
M  V30 8846 H 892.273 0.0680233 -0.660506 0
M  V30 8847 H 894.803 -0.421255 -2.00216 0
M  V30 8848 H 894.813 1.07892 -3.93476 0
M  V30 8849 H 893.488 -0.0514675 -4.15868 0
M  V30 8850 H 892.065 1.60055 -3.36804 0
M  V30 8851 N 894.251 1.57596 -0.0117121 0
M  V30 8852 C 895.667 1.55837 0.344506 0
M  V30 8853 C 895.867 1.01557 1.74036 0
M  V30 8854 O 894.923 0.654563 2.43868 0
M  V30 8855 C 896.236 2.99973 0.209023 0
M  V30 8856 C 897.784 3.11717 0.283092 0
M  V30 8857 C 898.259 4.57659 0.176599 0
M  V30 8858 N 899.75 4.62608 0.234133 0
M  V30 8859 C 900.485 5.73132 0.175252 0
M  V30 8860 N 899.981 6.92768 0.0662888 0
M  V30 8861 N 901.774 5.61638 0.227972 0
M  V30 8862 H 893.925 1.91215 -0.924692 0
M  V30 8863 H 896.188 0.878807 -0.355531 0
M  V30 8864 H 895.894 3.4357 -0.751826 0
M  V30 8865 H 895.768 3.64075 0.98635 0
M  V30 8866 H 898.155 2.68043 1.23439 0
M  V30 8867 H 898.236 2.50369 -0.52431 0
M  V30 8868 H 897.88 5.02011 -0.771205 0
M  V30 8869 H 897.81 5.16967 1.00264 0
M  V30 8870 H 900.301 3.76549 0.319203 0
M  V30 8871 H 900.614 7.72795 0.0275765 0
M  V30 8872 H 898.959 6.94993 0.0317502 0
M  V30 8873 H 902.15 4.67063 0.311377 0
M  V30 8874 H 902.323 6.47754 0.178621 0
M  V30 8875 N 895.729 -0.261212 1.5542 0
M  V30 8876 C 897.14 -0.83138 1.67167 0
M  V30 8877 C 897.491 -1.8659 0.606525 0
M  V30 8878 O 896.616 -2.14953 -0.24985 0
M  V30 8879 C 897.211 -1.51475 3.03052 0
M  V30 8880 C 895.77 -2.0328 3.16787 0
M  V30 8881 C 894.917 -0.878903 2.63003 0
M  V30 8882 H 897.868 -0.0373102 1.58656 0
M  V30 8883 H 897.889 -2.38222 2.96699 0
M  V30 8884 H 897.401 -0.76157 3.80554 0
M  V30 8885 H 895.502 -2.81523 2.44082 0
M  V30 8886 H 895.615 -2.24001 4.2351 0
M  V30 8887 H 893.979 -1.27551 2.2046 0
M  V30 8888 H 894.762 -0.13904 3.43018 0
M  V30 8889 N 897.207 -1.48554 -0.526253 0
M  V30 8890 C 898.453 -1.56994 -1.28378 0
M  V30 8891 C 898.786 -0.244701 -1.92652 0
M  V30 8892 O 898.061 0.749636 -1.79473 0
M  V30 8893 C 898.344 -2.71092 -2.37026 0
M  V30 8894 C 898.197 -4.13331 -1.77418 0
M  V30 8895 C 899.516 -2.80934 -3.38769 0
M  V30 8896 H 896.635 -0.571466 -0.465398 0
M  V30 8897 H 899.277 -1.80742 -0.585861 0
M  V30 8898 H 897.427 -2.50973 -2.96555 0
M  V30 8899 H 899.099 -4.44899 -1.21912 0
M  V30 8900 H 897.342 -4.20158 -1.07936 0
M  V30 8901 H 898.013 -4.88994 -2.56104 0
M  V30 8902 H 900.489 -2.9917 -2.892 0
M  V30 8903 H 899.365 -3.62489 -4.12181 0
M  V30 8904 H 899.626 -1.89244 -3.99549 0
M  V30 8905 N 898.685 0.775411 -1.37205 0
M  V30 8906 C 899.617 1.89761 -1.28544 0
M  V30 8907 C 900.63 1.61542 -0.201996 0
M  V30 8908 O 901.819 1.72528 -0.457848 0
M  V30 8909 C 898.919 3.24904 -0.963885 0
M  V30 8910 C 898.092 3.80796 -2.15205 0
M  V30 8911 C 897.151 4.94407 -1.80135 0
M  V30 8912 O 896.177 5.10185 -2.52388 0
M  V30 8913 N 897.379 5.75722 -0.743298 0
M  V30 8914 H 900.144 1.97708 -2.25237 0
M  V30 8915 H 897.705 0.954348 -1.30782 0
M  V30 8916 H 899.697 3.9842 -0.710182 0
M  V30 8917 H 898.267 3.12483 -0.085632 0
M  V30 8918 H 897.487 2.99101 -2.56773 0
M  V30 8919 H 898.775 4.1487 -2.94552 0
M  V30 8920 H 898.173 5.65518 -0.143655 0
M  V30 8921 H 896.73 6.4948 -0.549446 0
M  V30 8922 N 900.163 1.21714 1.00117 0
M  V30 8923 C 901.073 0.99597 2.12409 0
M  V30 8924 C 902.089 -0.0531431 1.73919 0
M  V30 8925 O 903.265 0.137757 2.00928 0
M  V30 8926 C 900.33 0.567593 3.42022 0
M  V30 8927 C 899.391 1.68936 3.94663 0
M  V30 8928 C 898.624 1.28133 5.1809 0
M  V30 8929 O 898.847 0.156574 5.70185 0
M  V30 8930 O 897.781 2.0947 5.64275 0
M  V30 8931 H 901.607 1.93657 2.33946 0
M  V30 8932 H 899.192 1.00236 1.10784 0
M  V30 8933 H 901.074 0.338664 4.20037 0
M  V30 8934 H 899.749 -0.34424 3.21864 0
M  V30 8935 H 898.656 1.97274 3.17858 0
M  V30 8936 H 899.989 2.57876 4.19238 0
M  V30 8937 N 901.641 -1.19671 1.02551 0
M  V30 8938 C 902.573 -2.22215 0.561517 0
M  V30 8939 C 903.586 -1.58751 -0.360821 0
M  V30 8940 O 904.775 -1.77802 -0.157749 0
M  V30 8941 C 901.875 -3.383 -0.201494 0
M  V30 8942 C 901.048 -4.3135 0.724952 0
M  V30 8943 C 900.107 -5.26199 0.00794334 0
M  V30 8944 O 899.133 -5.65665 0.633398 0
M  V30 8945 N 900.335 -5.66573 -1.26394 0
M  V30 8946 H 903.1 -2.6265 1.44343 0
M  V30 8947 H 900.661 -1.34303 0.904122 0
M  V30 8948 H 902.653 -3.98764 -0.690625 0
M  V30 8949 H 901.223 -2.96683 -0.98479 0
M  V30 8950 H 900.443 -3.6872 1.39423 0
M  V30 8951 H 901.731 -4.90433 1.35472 0
M  V30 8952 H 901.129 -5.36538 -1.79287 0
M  V30 8953 H 899.686 -6.29304 -1.69763 0
M  V30 8954 N 903.119 -0.802921 -1.35613 0
M  V30 8955 C 904.367 -0.380822 -1.9848 0
M  V30 8956 C 904.688 1.05464 -1.6402 0
M  V30 8957 O 903.958 1.72908 -0.920854 0
M  V30 8958 H 902.538 -0.137824 -0.734176 0
M  V30 8959 H 905.2 -1.02795 -1.65587 0
M  V30 8960 H 904.296 -0.483565 -3.08331 0
M  V30 8961 N 904.597 1.47463 -0.556102 0
M  V30 8962 C 905.845 2.02075 -0.0315712 0
M  V30 8963 C 906.166 1.43292 1.32259 0
M  V30 8964 O 905.436 0.60771 1.86236 0
M  V30 8965 H 904.016 0.74695 -0.0086816 0
M  V30 8966 H 906.678 1.80879 -0.725859 0
M  V30 8967 H 905.774 3.12047 0.0573538 0
M  V30 8968 N 906.075 0.2925 1.54862 0
M  V30 8969 C 907.038 -0.574423 2.21885 0
M  V30 8970 C 908.038 -1.06791 1.20218 0
M  V30 8971 O 909.228 -0.9653 1.45009 0
M  V30 8972 C 906.36 -1.79438 2.89853 0
M  V30 8973 H 907.553 0.0110319 2.99898 0
M  V30 8974 H 905.106 0.043256 1.5624 0
M  V30 8975 H 905.841 -2.4199 2.15897 0
M  V30 8976 H 905.626 -1.44827 3.64373 0
M  V30 8977 H 907.116 -2.41048 3.41007 0
M  V30 8978 N 907.553 -1.57587 0.0200696 0
M  V30 8979 C 908.5 -2.09667 -0.964791 0
M  V30 8980 C 909.47 -0.99664 -1.32877 0
M  V30 8981 O 910.655 -1.2703 -1.42366 0
M  V30 8982 C 907.795 -2.62101 -2.24493 0
M  V30 8983 C 906.908 -3.8608 -1.93821 0
M  V30 8984 C 906.043 -4.26939 -3.16064 0
M  V30 8985 C 905.082 -5.43701 -2.81169 0
M  V30 8986 N 904.219 -5.79759 -3.9601 0
M  V30 8987 H 909.059 -2.93538 -0.513751 0
M  V30 8988 H 906.596 -1.45096 -0.242 0
M  V30 8989 H 908.554 -2.90587 -2.99358 0
M  V30 8990 H 907.184 -1.81074 -2.6723 0
M  V30 8991 H 906.236 -3.64378 -1.09237 0
M  V30 8992 H 907.548 -4.71028 -1.64115 0
M  V30 8993 H 906.702 -4.56814 -3.99257 0
M  V30 8994 H 905.441 -3.40739 -3.48924 0
M  V30 8995 H 904.446 -5.13529 -1.96387 0
M  V30 8996 H 905.671 -6.31593 -2.49535 0
M  V30 8997 H 903.617 -4.96516 -4.28729 0
M  V30 8998 H 903.534 -6.59327 -3.69896 0
M  V30 8999 H 904.802 -6.14235 -4.79933 0
M  V30 9000 N 909.032 0.252966 -1.55557 0
M  V30 9001 C 909.995 1.29645 -1.8901 0
M  V30 9002 C 910.995 1.41378 -0.766096 0
M  V30 9003 O 912.185 1.40183 -1.03414 0
M  V30 9004 C 909.317 2.67504 -2.11316 0
M  V30 9005 H 910.51 1.01202 -2.82309 0
M  V30 9006 H 908.063 0.491977 -1.48355 0
M  V30 9007 H 908.798 3.01095 -1.20466 0
M  V30 9008 H 908.583 2.6037 -2.93172 0
M  V30 9009 H 910.073 3.42861 -2.38403 0
M  V30 9010 O 910.549 1.56503 0.398638 0
M  V30 9011 H 911.24 1.62719 1.05083 0
M  V30 END ATOM
M  V30 BEGIN BOND
M  V30 END BOND
M  V30 END CTAB
M  END
$$$$
