drugbank_target|Q9Y6M9 NADH dehydrogenase [ubiquinone] 1 beta subcomplex subunit 9 (DB00157)
 OpenBabel12092119353D

  0  0  0     0  0            999 V3000
M  V30 BEGIN CTAB
M  V30 COUNTS 3032 3087 0 0 0
M  V30 BEGIN ATOM
M  V30 1 H -0.908 1.98254 -0.117106 0
M  V30 2 N 0 1.576 0 0
M  V30 3 C 0.933 2.03868 1.02534 0
M  V30 4 C 1.911 0.928543 1.3348 0
M  V30 5 O 3.095 1.19667 1.45644 0
M  V30 6 C 0.222 2.43627 2.35294 0
M  V30 7 C -0.732 3.65373 2.2001 0
M  V30 8 S 0.101 5.13292 1.52614 0
M  V30 9 C 1.257 5.56322 2.86805 0
M  V30 10 H 1.49 2.90518 0.631377 0
M  V30 11 H -0.977 1.52953 0.210867 0
M  V30 12 H 0.981 2.67203 3.11629 0
M  V30 13 H -0.358 1.57376 2.7183 0
M  V30 14 H -1.165 3.90944 3.18086 0
M  V30 15 H -1.563 3.418 1.51819 0
M  V30 16 H 0.729 5.58782 3.83104 0
M  V30 17 H 1.672 6.56266 2.65933 0
M  V30 18 H 2.08 4.83886 2.90714 0
M  V30 19 N 1.4781 -0.272755 1.55222 0
M  V30 20 C 2.4411 -1.32041 1.87344 0
M  V30 21 C 3.4411 -1.42342 0.74803 0
M  V30 22 O 4.6311 -1.41488 1.0162 0
M  V30 23 C 1.7631 -2.70173 2.07893 0
M  V30 24 H 2.9561 -1.04789 2.80997 0
M  V30 25 H 0.5091 -0.51083 1.47717 0
M  V30 26 H 1.2441 -3.02605 1.16622 0
M  V30 27 H 1.0291 -2.64082 2.89833 0
M  V30 28 H 2.5191 -3.45869 2.34017 0
M  V30 29 N 2.9562 -1.48159 -0.537278 0
M  V30 30 C 4.2032 -1.55804 -1.29349 0
M  V30 31 C 4.5312 -0.228802 -1.9315 0
M  V30 32 O 3.7862 0.780242 -1.79473 0
M  V30 33 C 4.0852 -2.63956 -2.40961 0
M  V30 34 C 3.7512 -4.0662 -1.94861 0
M  V30 35 C 2.4132 -4.45452 -1.82006 0
M  V30 36 C 4.7652 -4.96055 -1.59933 0
M  V30 37 C 2.0932 -5.71531 -1.32547 0
M  V30 38 C 4.4452 -6.22617 -1.11939 0
M  V30 39 C 3.1092 -6.60312 -0.976951 0
M  V30 40 H 2.3792 -0.570129 -0.473322 0
M  V30 41 H 5.0262 -1.81845 -0.600372 0
M  V30 42 H 3.3312 -2.31747 -3.15912 0
M  V30 43 H 5.0282 -2.67089 -2.99107 0
M  V30 44 H 1.6182 -3.75949 -2.05815 0
M  V30 45 H 5.8022 -4.66738 -1.68728 0
M  V30 46 H 1.0582 -5.99468 -1.202 0
M  V30 47 H 5.2322 -6.91318 -0.839811 0
M  V30 48 H 2.8592 -7.57895 -0.591501 0
M  V30 49 N 4.4343 0.785586 -1.36625 0
M  V30 50 C 5.3643 1.91259 -1.33949 0
M  V30 51 C 6.3453 1.68795 -0.210325 0
M  V30 52 O 7.5303 1.89854 -0.408561 0
M  V30 53 C 4.6603 3.28339 -1.13186 0
M  V30 54 C 3.6143 3.65335 -2.22967 0
M  V30 55 C 2.9403 5.00806 -1.87342 0
M  V30 56 C 4.2403 3.7352 -3.65075 0
M  V30 57 H 5.9343 1.93755 -2.28253 0
M  V30 58 H 3.4803 0.930788 -1.09874 0
M  V30 59 H 5.4333 4.06804 -1.09948 0
M  V30 60 H 4.1573 3.2624 -0.153332 0
M  V30 61 H 2.8163 2.89169 -2.25337 0
M  V30 62 H 2.4643 4.95233 -0.880545 0
M  V30 63 H 2.1643 5.26529 -2.60846 0
M  V30 64 H 3.6883 5.81687 -1.85667 0
M  V30 65 H 5.1023 4.42168 -3.64911 0
M  V30 66 H 3.4993 4.10731 -4.37516 0
M  V30 67 H 4.5693 2.74527 -3.99703 0
M  V30 68 N 5.9124 1.20967 1.01018 0
M  V30 69 C 6.8754 0.965918 2.07853 0
M  V30 70 C 7.8754 -0.0610545 1.60684 0
M  V30 71 O 9.0654 0.175681 1.73312 0
M  V30 72 C 6.1974 0.455513 3.37843 0
M  V30 73 H 7.3904 1.91365 2.3091 0
M  V30 74 H 4.9434 1.02594 1.17916 0
M  V30 75 H 5.6784 -0.497381 3.20463 0
M  V30 76 H 5.4634 1.19622 3.73407 0
M  V30 77 H 6.9534 0.304667 4.16487 0
M  V30 78 N 7.3905 -1.2043 1.01659 0
M  V30 79 C 8.6155 -1.94318 0.724942 0
M  V30 80 C 9.0405 -1.74266 -0.708034 0
M  V30 81 O 8.3985 -1.03694 -1.48719 0
M  V30 82 C 8.4465 -3.44486 1.06591 0
M  V30 83 O 7.5505 -4.12017 0.177599 0
M  V30 84 H 6.8915 -0.60708 0.26898 0
M  V30 85 H 9.4215 -1.52861 1.35995 0
M  V30 86 H 9.4315 -3.95106 1.01762 0
M  V30 87 H 8.1065 -3.58404 2.10997 0
M  V30 88 H 6.6835 -3.71821 0.283421 0
M  V30 89 N 8.8686 -0.792821 -1.36206 0
M  V30 90 C 10.1166 -0.366062 -1.98757 0
M  V30 91 C 10.4376 1.0668 -1.63231 0
M  V30 92 O 9.7076 1.73587 -0.907978 0
M  V30 93 H 8.2876 -0.132364 -0.735179 0
M  V30 94 H 10.9496 -1.01562 -1.66347 0
M  V30 95 H 10.0456 -0.460638 -3.08682 0
M  V30 96 N 10.3467 1.47872 -0.545128 0
M  V30 97 C 11.7577 1.86384 -0.108581 0
M  V30 98 C 12.1087 1.45309 1.31832 0
M  V30 99 O 11.2337 0.850641 1.9898 0
M  V30 100 C 11.8287 3.38265 -0.190274 0
M  V30 101 C 10.3877 3.75914 0.191164 0
M  V30 102 C 9.5347 2.71926 -0.543273 0
M  V30 103 H 12.4857 1.39561 -0.755537 0
M  V30 104 H 12.5067 3.75831 0.594217 0
M  V30 105 H 12.0187 3.6813 -1.2289 0
M  V30 106 H 10.1197 3.51665 1.23136 0
M  V30 107 H 10.2327 4.78836 -0.158987 0
M  V30 108 H 8.5967 2.54697 0.0122495 0
M  V30 109 H 9.3797 3.04634 -1.58282 0
M  V30 110 N 11.8248 0.280983 1.55075 0
M  V30 111 C 13.0548 -0.336804 2.03836 0
M  V30 112 C 13.4628 -1.49577 1.15859 0
M  V30 113 O 12.8058 -1.82888 0.172503 0
M  V30 114 C 12.8678 -0.874616 3.48699 0
M  V30 115 C 12.5318 0.156478 4.56732 0
M  V30 116 C 13.5288 0.978032 5.10618 0
M  V30 117 C 11.2138 0.292409 5.01448 0
M  V30 118 C 13.2078 1.92165 6.07743 0
M  V30 119 C 10.8948 1.23949 5.98398 0
M  V30 120 C 11.8928 2.05261 6.51427 0
M  V30 121 O 11.5808 2.98367 7.4648 0
M  V30 122 H 11.3128 -0.0800885 0.671239 0
M  V30 123 H 13.8668 0.412589 2.01213 0
M  V30 124 H 12.0968 -1.67418 3.4858 0
M  V30 125 H 13.7858 -1.40612 3.80766 0
M  V30 126 H 14.5518 0.883782 4.7688 0
M  V30 127 H 10.4308 -0.330498 4.59814 0
M  V30 128 H 13.9748 2.55672 6.49059 0
M  V30 129 H 9.8718 1.33454 6.31554 0
M  V30 130 H 10.6398 2.93116 7.64215 0
M  V30 131 N 13.3029 -1.57598 0.00835791 0
M  V30 132 C 14.2329 -2.1198 -0.979113 0
M  V30 133 C 15.2139 -1.03091 -1.35301 0
M  V30 134 O 16.3989 -1.30818 -1.43528 0
M  V30 135 C 13.5289 -2.62995 -2.26828 0
M  V30 136 C 12.4829 -3.76485 -2.03576 0
M  V30 137 C 11.8089 -4.13846 -3.38579 0
M  V30 138 C 13.1089 -5.0342 -1.39161 0
M  V30 139 H 14.8029 -2.94738 -0.526281 0
M  V30 140 H 12.3489 -1.41783 -0.251704 0
M  V30 141 H 14.3019 -2.99669 -2.96271 0
M  V30 142 H 13.0259 -1.7737 -2.7424 0
M  V30 143 H 11.6849 -3.40217 -1.36557 0
M  V30 144 H 11.3329 -3.25232 -3.83709 0
M  V30 145 H 11.0329 -4.90312 -3.23834 0
M  V30 146 H 12.5569 -4.53086 -4.09323 0
M  V30 147 H 13.9709 -5.37812 -1.98573 0
M  V30 148 H 12.3679 -5.84746 -1.34878 0
M  V30 149 H 13.4379 -4.83548 -0.361868 0
M  V30 150 N 14.781 0.264519 -1.55364 0
M  V30 151 C 16.009 1.013 -1.80405 0
M  V30 152 C 16.424 1.79618 -0.581622 0
M  V30 153 O 15.781 1.76879 0.449468 0
M  V30 154 C 15.832 1.96487 -3.03439 0
M  V30 155 O 15.553 1.21341 -4.20961 0
M  V30 156 C 17.054 2.83079 -3.41147 0
M  V30 157 H 14.274 0.298875 -0.600762 0
M  V30 158 H 16.818 0.292736 -2.02394 0
M  V30 159 H 14.973 2.63965 -2.83551 0
M  V30 160 H 15.387 1.85573 -4.90574 0
M  V30 161 H 16.861 3.4565 -4.30384 0
M  V30 162 H 17.338 3.53286 -2.60932 0
M  V30 163 H 17.944 2.2108 -3.63323 0
M  V30 164 N 16.2591 1.48442 0.529413 0
M  V30 165 C 17.2091 1.59407 1.63014 0
M  V30 166 C 18.1931 0.451166 1.54445 0
M  V30 167 O 19.3851 0.702635 1.62456 0
M  V30 168 C 16.5141 1.63746 3.01732 0
M  V30 169 C 15.6001 2.83518 3.15402 0
M  V30 170 N 15.9911 4.07929 2.99045 0
M  V30 171 C 14.2891 2.80862 3.46457 0
M  V30 172 C 14.9901 4.8829 3.16146 0
M  V30 173 N 13.9661 4.21117 3.43746 0
M  V30 174 H 17.7681 2.53343 1.48978 0
M  V30 175 H 15.2821 1.44821 0.734885 0
M  V30 176 H 17.2791 1.69695 3.80801 0
M  V30 177 H 15.9391 0.709264 3.16859 0
M  V30 178 H 16.9501 4.38357 2.75796 0
M  V30 179 H 13.6271 1.97301 3.67938 0
M  V30 180 H 15.0171 5.97028 3.08232 0
M  V30 181 N 17.7372 -0.778329 1.37039 0
M  V30 182 C 18.6692 -1.90034 1.2814 0
M  V30 183 C 19.6822 -1.61585 0.198558 0
M  V30 184 O 20.8712 -1.72625 0.454175 0
M  V30 185 C 17.9712 -3.25108 0.956968 0
M  V30 186 C 17.1442 -3.81253 2.14394 0
M  V30 187 C 16.2032 -4.94789 1.79082 0
M  V30 188 O 15.2292 -5.10721 2.51301 0
M  V30 189 N 16.4312 -5.75878 0.731043 0
M  V30 190 H 19.1962 -1.98186 2.24816 0
M  V30 191 H 16.7572 -0.957129 1.30578 0
M  V30 192 H 18.7492 -3.9857 0.701701 0
M  V30 193 H 17.3192 -3.125 0.0789812 0
M  V30 194 H 16.5392 -2.99647 2.56135 0
M  V30 195 H 17.8272 -4.15495 2.93668 0
M  V30 196 H 17.2252 -5.65547 0.131618 0
M  V30 197 H 15.7822 -6.49596 0.535622 0
M  V30 198 N 19.2153 -1.21501 -1.00376 0
M  V30 199 C 20.1473 -0.933174 -2.09343 0
M  V30 200 C 21.1603 0.0840896 -1.62583 0
M  V30 201 O 22.3493 -0.148563 -1.77881 0
M  V30 202 C 19.4493 -0.379869 -3.36764 0
M  V30 203 C 18.6223 -1.45176 -4.12605 0
M  V30 204 C 17.6813 -0.907476 -5.18316 0
M  V30 205 O 16.7073 -1.5912 -5.46507 0
M  V30 206 N 17.9093 0.276649 -5.7984 0
M  V30 207 H 20.6743 -1.87124 -2.34104 0
M  V30 208 H 18.2353 -1.12043 -1.16867 0
M  V30 209 H 20.2273 -0.00131488 -4.047 0
M  V30 210 H 18.7973 0.463048 -3.09151 0
M  V30 211 H 18.0173 -2.00411 -3.39454 0
M  V30 212 H 19.3053 -2.17328 -4.6005 0
M  V30 213 H 18.7033 0.849147 -5.59291 0
M  V30 214 H 17.2603 0.596702 -6.49063 0
M  V30 215 N 20.6934 1.19889 -1.02296 0
M  V30 216 C 21.6404 2.22901 -0.598651 0
M  V30 217 C 22.6104 1.61588 0.384521 0
M  V30 218 O 23.7954 1.88697 0.282522 0
M  V30 219 C 20.9354 3.45063 0.0504476 0
M  V30 220 C 20.0484 4.20783 -0.978053 0
M  V30 221 C 19.1834 5.30356 -0.299338 0
M  V30 222 C 18.2224 5.97826 -1.31416 0
M  V30 223 N 17.3594 6.98975 -0.661667 0
M  V30 224 H 22.1994 2.58554 -1.48169 0
M  V30 225 H 19.7364 1.27039 -0.741584 0
M  V30 226 H 21.6944 4.14831 0.443971 0
M  V30 227 H 20.3244 3.10084 0.897097 0
M  V30 228 H 19.3764 3.50018 -1.48969 0
M  V30 229 H 20.6884 4.67109 -1.74958 0
M  V30 230 H 19.8424 6.06516 0.149347 0
M  V30 231 H 18.5814 4.85084 0.504445 0
M  V30 232 H 17.5864 5.20422 -1.77317 0
M  V30 233 H 18.8114 6.45183 -2.11933 0
M  V30 234 H 16.7574 6.55886 0.122132 0
M  V30 235 H 16.6744 7.43461 -1.37117 0
M  V30 236 H 17.9424 7.7914 -0.236785 0
M  V30 237 N 22.1715 0.800033 1.35784 0
M  V30 238 C 23.4175 0.377901 1.99248 0
M  V30 239 C 23.7505 -1.05052 1.63333 0
M  V30 240 O 23.0255 -1.72768 0.893385 0
M  V30 241 C 23.3085 0.553922 3.55814 0
M  V30 242 C 23.1615 2.0268 4.01548 0
M  V30 243 C 24.4805 -0.0244802 4.40093 0
M  V30 244 H 21.5995 0.138782 0.723815 0
M  V30 245 H 24.2415 1.00835 1.61035 0
M  V30 246 H 22.3915 0.0172398 3.88496 0
M  V30 247 H 24.0635 2.62536 3.79305 0
M  V30 248 H 22.3065 2.5256 3.52698 0
M  V30 249 H 22.9775 2.10087 5.10458 0
M  V30 250 H 25.4535 0.433775 4.13833 0
M  V30 251 H 24.3295 0.128637 5.48749 0
M  V30 252 H 24.5905 -1.11758 4.27741 0
M  V30 253 N 23.6496 -1.47581 0.552962 0
M  V30 254 C 24.5796 -2.32762 -0.185451 0
M  V30 255 C 25.5606 -1.43527 -0.912905 0
M  V30 256 O 26.7456 -1.72388 -0.894201 0
M  V30 257 C 23.8756 -3.25219 -1.21859 0
M  V30 258 C 22.8296 -4.23661 -0.607864 0
M  V30 259 C 22.1556 -5.05413 -1.74533 0
M  V30 260 C 23.4556 -5.20481 0.435582 0
M  V30 261 H 25.1496 -2.94749 0.525684 0
M  V30 262 H 22.6956 -1.41738 0.254251 0
M  V30 263 H 24.6486 -3.8365 -1.7433 0
M  V30 264 H 23.3726 -2.61279 -1.95961 0
M  V30 265 H 22.0316 -3.66451 -0.104489 0
M  V30 266 H 21.6796 -4.3788 -2.47529 0
M  V30 267 H 21.3796 -5.72059 -1.34249 0
M  V30 268 H 22.9036 -5.66701 -2.27338 0
M  V30 269 H 24.3176 -5.733 -0.00290157 0
M  V30 270 H 22.7146 -5.95305 0.757067 0
M  V30 271 H 23.7846 -4.66217 1.33303 0
M  V30 272 N 25.1277 -0.289203 -1.54924 0
M  V30 273 C 26.5437 0.0645403 -1.59469 0
M  V30 274 C 26.7437 1.53419 -1.30632 0
M  V30 275 O 25.7997 2.2852 -1.074 0
M  V30 276 C 27.1127 -0.32278 -2.98963 0
M  V30 277 C 28.6607 -0.270564 -3.11828 0
M  V30 278 C 29.1357 -0.632532 -4.53611 0
M  V30 279 N 30.6267 -0.584617 -4.59496 0
M  V30 280 C 31.3617 -0.837314 -5.67254 0
M  V30 281 N 30.8577 -1.15536 -6.83098 0
M  V30 282 N 32.6507 -0.765166 -5.56868 0
M  V30 283 H 24.8017 -1.24714 -1.71931 0
M  V30 284 H 27.0647 -0.504809 -0.802416 0
M  V30 285 H 26.7707 -1.34541 -3.24948 0
M  V30 286 H 26.6447 0.32944 -3.75759 0
M  V30 287 H 29.0317 0.742805 -2.85598 0
M  V30 288 H 29.1127 -0.957242 -2.37214 0
M  V30 289 H 28.7567 -1.64365 -4.80569 0
M  V30 290 H 28.6867 0.07609 -5.26545 0
M  V30 291 H 31.1777 -0.349248 -3.76283 0
M  V30 292 H 31.4907 -1.33447 -7.61191 0
M  V30 293 H 29.8357 -1.19328 -6.84679 0
M  V30 294 H 33.0267 -0.516432 -4.65243 0
M  V30 295 H 33.1997 -0.965477 -6.40767 0
M  V30 296 N 26.6058 1.57591 -0.0167156 0
M  V30 297 C 27.5358 2.12496 0.967858 0
M  V30 298 C 28.5168 1.03807 1.34752 0
M  V30 299 O 29.7018 1.31577 1.42833 0
M  V30 300 C 26.8318 2.64194 2.25431 0
M  V30 301 C 25.7858 3.77559 2.01576 0
M  V30 302 C 25.1118 4.15636 3.36379 0
M  V30 303 C 26.4118 5.04151 1.36489 0
M  V30 304 H 28.1058 2.95013 0.510643 0
M  V30 305 H 25.6518 1.41915 0.244181 0
M  V30 306 H 27.6048 3.01236 2.94678 0
M  V30 307 H 26.3288 1.78821 2.73296 0
M  V30 308 H 24.9878 3.40937 1.34751 0
M  V30 309 H 24.6358 3.27263 3.81979 0
M  V30 310 H 24.3358 4.92022 3.21229 0
M  V30 311 H 25.8598 4.5525 4.06915 0
M  V30 312 H 27.2738 5.38857 1.95718 0
M  V30 313 H 25.6708 5.85453 1.31776 0
M  V30 314 H 26.7408 4.83733 0.336219 0
M  V30 315 N 28.0839 -0.256276 1.55502 0
M  V30 316 C 29.3139 -1.00196 1.80677 0
M  V30 317 C 29.7219 -1.79805 0.588797 0
M  V30 318 O 29.0649 -1.78055 -0.451883 0
M  V30 319 C 29.1269 -1.99515 2.99055 0
M  V30 320 C 28.7909 -1.38688 4.35448 0
M  V30 321 C 29.7879 -0.794079 5.138 0
M  V30 322 C 27.4729 -1.40906 4.82132 0
M  V30 323 C 29.4669 -0.231562 6.36979 0
M  V30 324 C 27.1539 -0.842684 6.05262 0
M  V30 325 C 28.1519 -0.254953 6.82524 0
M  V30 326 O 27.8399 0.3027 8.0333 0
M  V30 327 H 27.5719 -0.300919 0.60533 0
M  V30 328 H 30.1259 -0.287307 2.03381 0
M  V30 329 H 28.3559 -2.74785 2.72084 0
M  V30 330 H 30.0449 -2.60349 3.11405 0
M  V30 331 H 30.8109 -0.769519 4.78856 0
M  V30 332 H 26.6899 -1.85591 4.21992 0
M  V30 333 H 30.2339 0.227816 6.97228 0
M  V30 334 H 26.1309 -0.86454 6.39684 0
M  V30 335 H 26.8989 0.193662 8.18271 0
M  V30 336 N 29.562 -1.4872 -0.521534 0
M  V30 337 C 30.509 -1.63871 -1.62527 0
M  V30 338 C 31.479 -0.480559 -1.58996 0
M  V30 339 O 32.664 -0.705085 -1.77294 0
M  V30 340 C 29.804 -1.69227 -3.00759 0
M  V30 341 C 28.917 -2.96207 -3.14461 0
M  V30 342 C 28.052 -2.92671 -4.43303 0
M  V30 343 C 27.091 -4.14318 -4.50563 0
M  V30 344 N 26.228 -4.0881 -5.70805 0
M  V30 345 H 31.068 -2.58123 -1.48918 0
M  V30 346 H 28.605 -1.28 -0.724878 0
M  V30 347 H 30.563 -1.70314 -3.80853 0
M  V30 348 H 29.193 -0.784586 -3.1312 0
M  V30 349 H 28.245 -3.04826 -2.27564 0
M  V30 350 H 29.557 -3.86192 -3.15686 0
M  V30 351 H 28.711 -2.92206 -5.31696 0
M  V30 352 H 27.45 -2.00429 -4.44612 0
M  V30 353 H 26.455 -4.15049 -3.60575 0
M  V30 354 H 27.68 -5.07729 -4.50986 0
M  V30 355 H 25.626 -3.19394 -5.72995 0
M  V30 356 H 25.543 -4.92509 -5.7356 0
M  V30 357 H 26.811 -4.12418 -6.61462 0
M  V30 358 N 31.0401 0.771051 -1.3745 0
M  V30 359 C 32.4561 1.07171 -1.18265 0
M  V30 360 C 32.6561 2.01491 -0.019287 0
M  V30 361 O 31.7121 2.44244 0.640408 0
M  V30 362 C 33.0251 1.66854 -2.50161 0
M  V30 363 C 34.5731 1.79109 -2.56689 0
M  V30 364 C 35.0481 2.42205 -3.88717 0
M  V30 365 N 36.5391 2.49655 -3.90162 0
M  V30 366 C 37.2741 2.9933 -4.8907 0
M  V30 367 N 36.7701 3.49172 -5.98374 0
M  V30 368 N 38.5631 2.9821 -4.76474 0
M  V30 369 H 30.7141 0.144796 -2.11906 0
M  V30 370 H 32.9771 0.126863 -0.939473 0
M  V30 371 H 32.6831 1.05017 -3.35655 0
M  V30 372 H 32.5571 2.6614 -2.673 0
M  V30 373 H 34.9441 2.40077 -1.71601 0
M  V30 374 H 35.0251 0.785757 -2.43433 0
M  V30 375 H 34.6691 1.81875 -4.74219 0
M  V30 376 H 34.5991 3.43345 -3.99276 0
M  V30 377 H 37.0901 2.14383 -3.11205 0
M  V30 378 H 37.4031 3.8548 -6.69795 0
M  V30 379 H 35.7481 3.47275 -6.02018 0
M  V30 380 H 38.9391 2.58572 -3.90203 0
M  V30 381 H 39.1121 3.36613 -5.53711 0
M  V30 382 N 32.5182 1.22032 0.997298 0
M  V30 383 C 33.4812 0.987909 2.06816 0
M  V30 384 C 34.4812 -0.0440084 1.6074 0
M  V30 385 O 35.6712 0.194053 1.73116 0
M  V30 386 C 32.8032 0.49132 3.37341 0
M  V30 387 H 33.9962 1.93803 2.28868 0
M  V30 388 H 31.5492 1.03838 1.16822 0
M  V30 389 H 32.2842 -0.463364 3.20973 0
M  V30 390 H 32.0692 1.23575 3.72118 0
M  V30 391 H 33.5592 0.348824 4.16141 0
M  V30 392 N 33.9963 -1.19345 1.0293 0
M  V30 393 C 34.9263 -2.2481 0.631105 0
M  V30 394 C 35.9073 -1.66245 -0.360104 0
M  V30 395 O 37.0923 -1.92677 -0.242726 0
M  V30 396 C 34.2223 -3.47295 -0.0184607 0
M  V30 397 C 33.1763 -4.18536 0.895073 0
M  V30 398 C 32.5023 -5.34586 0.110592 0
M  V30 399 C 33.8023 -4.73287 2.209 0
M  V30 400 H 35.4963 -2.58372 1.51275 0
M  V30 401 H 33.0423 -1.24194 0.728818 0
M  V30 402 H 34.9953 -4.20268 -0.308675 0
M  V30 403 H 33.7193 -3.12933 -0.934907 0
M  V30 404 H 32.3783 -3.47446 1.16949 0
M  V30 405 H 32.0263 -4.96469 -0.807902 0
M  V30 406 H 31.7263 -5.83183 0.719087 0
M  V30 407 H 33.2503 -6.10355 -0.172871 0
M  V30 408 H 34.6643 -5.38013 1.98028 0
M  V30 409 H 33.0613 -5.32373 2.76946 0
M  V30 410 H 34.1313 -3.91331 2.86336 0
M  V30 411 N 35.4744 -0.807222 -1.35358 0
M  V30 412 C 36.8904 -0.491038 -1.51858 0
M  V30 413 C 37.0904 0.987648 -1.75635 0
M  V30 414 O 36.1464 1.77265 -1.79815 0
M  V30 415 C 37.4594 -1.33695 -2.69344 0
M  V30 416 C 39.0074 -1.33246 -2.83222 0
M  V30 417 C 39.4824 -2.1625 -4.03733 0
M  V30 418 N 40.9734 -2.1379 -4.10911 0
M  V30 419 C 41.7084 -2.74772 -5.03277 0
M  V30 420 N 41.2044 -3.44684 -6.0097 0
M  V30 421 N 42.9974 -2.6441 -4.96028 0
M  V30 422 H 35.1484 -1.76485 -1.18181 0
M  V30 423 H 37.4114 -0.751199 -0.578276 0
M  V30 424 H 37.1174 -2.38634 -2.58354 0
M  V30 425 H 36.9914 -0.990618 -3.6396 0
M  V30 426 H 39.3784 -0.290911 -2.93663 0
M  V30 427 H 39.4594 -1.71866 -1.89461 0
M  V30 428 H 39.1034 -3.20445 -3.94052 0
M  V30 429 H 39.0334 -1.74989 -4.96675 0
M  V30 430 H 41.5244 -1.62923 -3.40976 0
M  V30 431 H 41.8374 -3.88501 -6.68047 0
M  V30 432 H 40.1824 -3.48788 -6.01142 0
M  V30 433 H 43.3734 -2.0938 -4.18662 0
M  V30 434 H 43.5464 -3.12225 -5.6782 0
M  V30 435 N 36.9525 1.47285 -0.560781 0
M  V30 436 C 37.9025 2.27073 0.205384 0
M  V30 437 C 38.8865 1.34569 0.882044 0
M  V30 438 O 40.0785 1.58899 0.77976 0
M  V30 439 C 37.2075 3.20414 1.23247 0
M  V30 440 C 36.2935 4.20399 0.559041 0
M  V30 441 N 36.6845 5.04423 -0.372927 0
M  V30 442 C 34.9825 4.38536 0.812522 0
M  V30 443 C 35.6835 5.76655 -0.764446 0
M  V30 444 N 34.6595 5.43471 -0.11848 0
M  V30 445 H 38.4615 2.89422 -0.511117 0
M  V30 446 H 35.9755 1.57868 -0.380975 0
M  V30 447 H 37.9725 3.76262 1.79534 0
M  V30 448 H 36.6325 2.59623 1.95002 0
M  V30 449 H 37.6435 5.1248 -0.747287 0
M  V30 450 H 34.3205 3.88913 1.51832 0
M  V30 451 H 35.7105 6.54238 -1.53045 0
M  V30 452 N 38.4306 0.297415 1.54768 0
M  V30 453 C 39.3606 -0.573494 2.26348 0
M  V30 454 C 40.3416 -1.14085 1.26169 0
M  V30 455 O 41.5266 -1.17086 1.54934 0
M  V30 456 C 38.6566 -1.74716 3.00153 0
M  V30 457 C 37.6106 -1.31032 4.07449 0
M  V30 458 C 36.9366 -2.56887 4.68949 0
M  V30 459 C 38.2366 -0.444183 5.20408 0
M  V30 460 H 39.9306 0.0235131 2.99391 0
M  V30 461 H 37.4766 0.0127488 1.43994 0
M  V30 462 H 39.4296 -2.3625 3.48947 0
M  V30 463 H 38.1536 -2.37035 2.24682 0
M  V30 464 H 36.8126 -0.718066 3.59499 0
M  V30 465 H 36.4606 -3.17512 3.90122 0
M  V30 466 H 36.1606 -2.2836 5.41411 0
M  V30 467 H 37.6846 -3.19229 5.20505 0
M  V30 468 H 39.0986 -0.9651 5.65118 0
M  V30 469 H 37.4956 -0.252846 5.99567 0
M  V30 470 H 38.5656 0.531609 4.81977 0
M  V30 471 N 39.9087 -1.5758 0.0250728 0
M  V30 472 C 40.8187 -2.1343 -0.973905 0
M  V30 473 C 41.8347 -1.08556 -1.35984 0
M  V30 474 O 43.0107 -1.40592 -1.44207 0
M  V30 475 C 40.0757 -2.64703 -2.23904 0
M  V30 476 C 39.1367 -3.84276 -1.91391 0
M  V30 477 C 38.3697 -4.33095 -3.11873 0
M  V30 478 O 38.5927 -3.81107 -4.24398 0
M  V30 479 O 37.5267 -5.24984 -2.94406 0
M  V30 480 H 41.3527 -2.99057 -0.529036 0
M  V30 481 H 38.9377 -1.48118 -0.195288 0
M  V30 482 H 40.8197 -2.97769 -2.98181 0
M  V30 483 H 39.4947 -1.82161 -2.6758 0
M  V30 484 H 38.4017 -3.56143 -1.14511 0
M  V30 485 H 39.7347 -4.67968 -1.52534 0
M  V30 486 N 41.3868 0.248026 -1.55636 0
M  V30 487 C 42.6118 0.998028 -1.81808 0
M  V30 488 C 43.0368 1.78207 -0.601979 0
M  V30 489 O 42.3948 1.75653 0.448961 0
M  V30 490 C 42.4428 1.9125 -3.05705 0
M  V30 491 O 41.5468 3.00406 -2.82542 0
M  V30 492 H 40.8878 0.284045 -0.600179 0
M  V30 493 H 43.4178 0.269357 -2.02819 0
M  V30 494 H 43.4278 2.32737 -3.35108 0
M  V30 495 H 42.1028 1.33602 -3.93857 0
M  V30 496 H 40.6798 2.63056 -2.64303 0
M  V30 497 N 42.8649 1.48995 0.513639 0
M  V30 498 C 44.1109 1.59053 1.26783 0
M  V30 499 C 44.4659 0.268136 1.90522 0
M  V30 500 O 43.7589 -0.730534 1.77126 0
M  V30 501 C 43.9529 2.67756 2.36731 0
M  V30 502 C 43.7819 4.10437 1.83771 0
M  V30 503 C 42.5519 4.7738 1.65639 0
M  V30 504 C 44.7499 4.9608 1.35681 0
M  V30 505 N 42.7319 6.04419 1.07476 0
M  V30 506 C 44.1029 6.13496 0.895715 0
M  V30 507 C 46.1579 4.82177 1.24136 0
M  V30 508 C 44.8609 7.1854 0.3306 0
M  V30 509 C 46.8869 5.87358 0.690229 0
M  V30 510 C 46.2489 7.03993 0.239292 0
M  V30 511 H 42.3479 0.636463 0.454355 0
M  V30 512 H 44.9319 1.85948 0.577196 0
M  V30 513 H 43.1029 2.42655 3.03271 0
M  V30 514 H 44.8349 2.67406 3.0377 0
M  V30 515 H 41.5899 4.33974 1.8964 0
M  V30 516 H 42.0139 6.72214 0.803579 0
M  V30 517 H 46.6559 3.92329 1.57601 0
M  V30 518 H 44.3739 8.08098 -0.0163435 0
M  V30 519 H 47.9599 5.78658 0.603852 0
M  V30 520 H 46.8399 7.83992 -0.180526 0
M  V30 521 N 44.343 -0.763751 1.37857 0
M  V30 522 C 45.583 -1.53551 1.34913 0
M  V30 523 C 45.947 -1.91895 -0.0635882 0
M  V30 524 O 47.148 -2.67916 -0.217825 0
M  V30 525 C 45.419 -2.76126 2.26912 0
M  V30 526 S 46.978 -3.66105 2.41893 0
M  V30 527 H 43.796 -0.52559 0.478828 0
M  V30 528 H 46.398 -0.897435 1.73685 0
M  V30 529 H 45.102 -2.4605 3.28463 0
M  V30 530 H 44.633 -3.44887 1.89253 0
M  V30 531 H 46.648 -4.68473 1.63545 0
M  V30 532 N 45.8211 -1.22559 -0.990812 0
M  V30 533 C 47.0671 -1.05297 -1.73322 0
M  V30 534 C 47.4001 0.410655 -1.89808 0
M  V30 535 O 46.6751 1.30439 -1.44277 0
M  V30 536 C 46.9581 -1.76713 -3.13759 0
M  V30 537 C 46.8111 -3.30684 -3.04907 0
M  V30 538 C 48.1301 -1.52121 -4.12974 0
M  V30 539 H 45.2491 -0.38392 -0.629106 0
M  V30 540 H 47.8911 -1.50926 -1.15418 0
M  V30 541 H 46.0411 -1.37924 -3.63193 0
M  V30 542 H 47.7131 -3.7893 -2.63077 0
M  V30 543 H 45.9561 -3.60253 -2.41661 0
M  V30 544 H 46.6271 -3.75833 -4.04294 0
M  V30 545 H 49.1031 -1.85819 -3.72304 0
M  V30 546 H 47.9791 -2.04582 -5.0935 0
M  V30 547 H 48.2401 -0.454257 -4.3976 0
M  V30 548 N 47.2992 1.18797 -1.03562 0
M  V30 549 C 48.2312 2.21731 -0.580337 0
M  V30 550 C 49.2442 1.59051 0.347349 0
M  V30 551 O 50.4332 1.77929 0.142669 0
M  V30 552 C 47.5332 3.38459 0.172805 0
M  V30 553 C 46.7062 4.3072 -0.761496 0
M  V30 554 C 45.7652 5.26174 -0.0525547 0
M  V30 555 O 44.7912 5.65108 -0.681333 0
M  V30 556 N 45.9932 5.67624 1.21586 0
M  V30 557 H 48.7582 2.61417 -1.46565 0
M  V30 558 H 46.3192 1.33531 -0.915476 0
M  V30 559 H 48.3112 3.99335 0.656793 0
M  V30 560 H 46.8812 2.97507 0.959602 0
M  V30 561 H 46.1012 3.67525 -1.42544 0
M  V30 562 H 47.3892 4.89267 -1.39626 0
M  V30 563 H 46.7872 5.38038 1.74732 0
M  V30 564 H 45.3442 6.30721 1.64421 0
M  V30 565 N 48.7773 0.814389 1.34928 0
M  V30 566 C 50.1933 0.499084 1.51596 0
M  V30 567 C 50.3933 -0.978319 1.76157 0
M  V30 568 O 49.4493 -1.76309 1.80752 0
M  V30 569 C 50.7623 1.35121 2.68631 0
M  V30 570 C 52.3103 1.34746 2.82511 0
M  V30 571 C 52.7853 2.18388 4.0258 0
M  V30 572 N 54.2763 2.15966 4.09772 0
M  V30 573 C 55.0113 2.77437 5.01813 0
M  V30 574 N 54.5073 3.47866 5.99134 0
M  V30 575 N 56.3003 2.67037 4.94619 0
M  V30 576 H 48.4513 1.7711 1.17243 0
M  V30 577 H 50.7143 0.754256 0.574284 0
M  V30 578 H 50.4203 2.40001 2.57085 0
M  V30 579 H 50.2943 1.00991 3.63429 0
M  V30 580 H 52.6813 0.30648 2.93504 0
M  V30 581 H 52.7623 1.72869 1.88547 0
M  V30 582 H 52.4063 3.2253 3.92347 0
M  V30 583 H 52.3363 1.77621 4.9574 0
M  V30 584 H 54.8273 1.64729 3.40107 0
M  V30 585 H 55.1403 3.92038 6.65977 0
M  V30 586 H 53.4853 3.51972 5.99284 0
M  V30 587 H 56.6763 2.11597 4.17546 0
M  V30 588 H 56.8493 3.15232 5.66156 0
M  V30 589 N 50.2554 -1.46986 0.568584 0
M  V30 590 C 51.5324 -1.95592 -0.0174074 0
M  V30 591 C 51.9124 -1.51124 -1.47393 0
M  V30 592 O 51.2604 -0.755329 -2.15655 0
M  V30 593 C 51.4704 -3.48719 0.139913 0
M  V30 594 C 52.8184 -4.246 0.000426376 0
M  V30 595 O 53.8424 -3.56135 0.0680316 0
M  V30 596 O 52.7014 -5.46302 -0.146988 0
M  V30 597 H 49.7954 -0.82498 -0.0577599 0
M  V30 598 H 52.3414 -1.57335 0.635909 0
M  V30 599 H 51.1134 -3.73927 1.15301 0
M  V30 600 H 50.7364 -3.93771 -0.550491 0
M  V30 601 N 51.7335 -0.305618 -1.54608 0
M  V30 602 C 52.6805 0.568421 -2.23691 0
M  V30 603 C 53.6505 1.12592 -1.22116 0
M  V30 604 O 54.8355 1.16959 -1.50749 0
M  V30 605 C 51.9755 1.7322 -2.98477 0
M  V30 606 C 51.0885 1.20566 -4.14835 0
M  V30 607 C 50.2235 2.33368 -4.77193 0
M  V30 608 C 49.2625 1.7787 -5.85686 0
M  V30 609 N 48.3995 2.84263 -6.4198 0
M  V30 610 H 53.2395 -0.0272867 -2.97988 0
M  V30 611 H 50.7765 -0.0252363 -1.47078 0
M  V30 612 H 52.7345 2.41675 -3.40072 0
M  V30 613 H 51.3645 2.29947 -2.26548 0
M  V30 614 H 50.4165 0.413223 -3.78149 0
M  V30 615 H 51.7285 0.759417 -4.92985 0
M  V30 616 H 50.8825 3.09761 -5.21664 0
M  V30 617 H 49.6215 2.8132 -3.98385 0
M  V30 618 H 48.6265 0.99968 -5.40635 0
M  V30 619 H 49.8515 1.30816 -6.66381 0
M  V30 620 H 47.7975 3.31541 -5.66053 0
M  V30 621 H 47.7145 2.44149 -7.15491 0
M  V30 622 H 48.9825 3.6054 -6.91109 0
M  V30 623 N 53.2116 1.57565 -0.0334293 0
M  V30 624 C 54.4416 1.95996 0.653398 0
M  V30 625 C 54.8496 0.908749 1.65947 0
M  V30 626 O 54.1926 -0.117471 1.83324 0
M  V30 627 C 54.2546 3.30589 1.41249 0
M  V30 628 C 53.9186 4.53503 0.564263 0
M  V30 629 C 54.9156 5.19647 -0.16225 0
M  V30 630 C 52.6006 4.99801 0.500398 0
M  V30 631 C 54.5946 6.30412 -0.941255 0
M  V30 632 C 52.2816 6.10448 -0.282308 0
M  V30 633 C 53.2796 6.75612 -1.00184 0
M  V30 634 O 52.9676 7.84134 -1.77171 0
M  V30 635 H 52.6996 0.65027 0.184728 0
M  V30 636 H 55.2536 2.05199 -0.0907841 0
M  V30 637 H 53.4836 3.17888 2.20191 0
M  V30 638 H 55.1726 3.53892 1.98784 0
M  V30 639 H 55.9386 4.84846 -0.12227 0
M  V30 640 H 51.8176 4.48883 1.05002 0
M  V30 641 H 55.3616 6.81208 -1.50339 0
M  V30 642 H 51.2586 6.44686 -0.323989 0
M  V30 643 H 52.0266 8.00822 -1.69194 0
M  V30 644 N 54.6897 -0.239769 1.55765 0
M  V30 645 C 56.1057 -0.588624 1.48349 0
M  V30 646 C 56.3057 -1.88005 0.72502 0
M  V30 647 O 55.3617 -2.51186 0.257269 0
M  V30 648 C 56.6747 -0.68474 2.928 0
M  V30 649 C 58.2227 -0.77659 3.03213 0
M  V30 650 C 58.6977 -0.904207 4.48986 0
M  V30 651 N 60.1887 -0.968896 4.52953 0
M  V30 652 C 60.9237 -1.08703 5.63002 0
M  V30 653 N 60.4197 -1.17026 6.82845 0
M  V30 654 N 62.2127 -1.12074 5.50814 0
M  V30 655 H 54.3637 0.607911 2.03515 0
M  V30 656 H 56.6267 0.21083 0.924259 0
M  V30 657 H 56.3327 0.194284 3.51163 0
M  V30 658 H 56.2067 -1.55435 3.43686 0
M  V30 659 H 58.5937 -1.64606 2.44926 0
M  V30 660 H 58.6747 0.118315 2.55526 0
M  V30 661 H 58.3187 -0.0392633 5.07885 0
M  V30 662 H 58.2487 -1.81426 4.9436 0
M  V30 663 H 60.7397 -0.915633 3.6664 0
M  V30 664 H 61.0527 -1.25966 7.62465 0
M  V30 665 H 59.3977 -1.13971 6.85591 0
M  V30 666 H 62.5887 -1.05226 4.5612 0
M  V30 667 H 62.7617 -1.20936 6.36615 0
M  V30 668 N 56.1678 -1.49265 -0.50573 0
M  V30 669 C 57.3978 -1.61979 -1.28243 0
M  V30 670 C 57.8058 -0.288576 -1.86986 0
M  V30 671 O 57.1488 0.735408 -1.68337 0
M  V30 672 C 57.2108 -2.62632 -2.45489 0
M  V30 673 C 56.8748 -4.071 -2.07651 0
M  V30 674 C 57.8718 -4.94049 -1.61901 0
M  V30 675 C 55.5568 -4.52801 -2.17431 0
M  V30 676 C 57.5508 -6.24736 -1.26428 0
M  V30 677 C 55.2378 -5.83503 -1.8157 0
M  V30 678 C 56.2358 -6.69294 -1.36142 0
M  V30 679 O 55.9238 -7.9756 -1.00764 0
M  V30 680 H 55.6558 -0.54834 -0.395347 0
M  V30 681 H 58.2098 -1.96002 -0.614204 0
M  V30 682 H 56.4398 -2.2378 -3.15372 0
M  V30 683 H 58.1288 -2.64925 -3.07522 0
M  V30 684 H 58.8948 -4.5997 -1.53795 0
M  V30 685 H 54.7738 -3.86196 -2.51742 0
M  V30 686 H 58.3178 -6.91652 -0.908992 0
M  V30 687 H 54.2148 -6.17112 -1.89324 0
M  V30 688 H 54.9828 -8.10529 -1.13952 0
M  V30 689 N 57.6459 0.756429 -1.3826 0
M  V30 690 C 58.8929 1.51547 -1.34312 0
M  V30 691 C 59.2209 1.94382 0.0677144 0
M  V30 692 O 58.4759 1.65514 1.04421 0
M  V30 693 C 58.7749 2.78313 -2.24224 0
M  V30 694 C 58.4409 2.54455 -3.72241 0
M  V30 695 C 57.1029 2.47657 -4.12576 0
M  V30 696 C 59.4549 2.3354 -4.65949 0
M  V30 697 C 56.7829 2.17956 -5.44713 0
M  V30 698 C 59.1349 2.05359 -5.9834 0
M  V30 699 C 57.7989 1.97016 -6.37762 0
M  V30 700 H 57.0689 0.55455 -0.491482 0
M  V30 701 H 59.7159 0.870039 -1.70595 0
M  V30 702 H 58.0209 3.47492 -1.80987 0
M  V30 703 H 59.7179 3.36259 -2.18474 0
M  V30 704 H 56.3079 2.60616 -3.40261 0
M  V30 705 H 60.4919 2.37772 -4.35635 0
M  V30 706 H 55.7479 2.10003 -5.74203 0
M  V30 707 H 59.9219 1.88179 -6.70494 0
M  V30 708 H 57.5489 1.73766 -7.40074 0
M  V30 709 N 59.124 1.23083 0.984299 0
M  V30 710 C 60.087 1.00979 2.05757 0
M  V30 711 C 61.087 -0.0269573 1.60777 0
M  V30 712 O 62.277 0.212403 1.729 0
M  V30 713 C 59.409 0.527072 3.36801 0
M  V30 714 H 60.602 1.9622 2.26799 0
M  V30 715 H 58.155 1.05072 1.15714 0
M  V30 716 H 58.89 -0.429294 3.21446 0
M  V30 717 H 58.675 1.27515 3.70786 0
M  V30 718 H 60.165 0.392942 4.15747 0
M  V30 719 N 60.6021 -1.18246 1.0419 0
M  V30 720 C 61.8421 -1.89948 0.754916 0
M  V30 721 C 62.2061 -1.78608 -0.70451 0
M  V30 722 O 63.4071 -2.4503 -1.10516 0
M  V30 723 C 61.6781 -3.36305 1.20969 0
M  V30 724 S 63.2371 -4.26088 1.04854 0
M  V30 725 H 60.0551 -0.655897 0.274446 0
M  V30 726 H 62.6571 -1.42873 1.33445 0
M  V30 727 H 61.3611 -3.42089 2.26722 0
M  V30 728 H 60.8921 -3.8842 0.624004 0
M  V30 729 H 62.9071 -4.96189 -0.0332896 0
M  V30 730 N 62.0802 -0.821533 -1.34494 0
M  V30 731 C 63.0102 -0.257138 -2.3208 0
M  V30 732 C 63.9912 0.625645 -1.58176 0
M  V30 733 O 65.1762 0.552811 -1.86166 0
M  V30 734 C 62.3062 0.582958 -3.42372 0
M  V30 735 C 61.2602 -0.202571 -4.2752 0
M  V30 736 C 60.5862 0.760179 -5.29269 0
M  V30 737 C 61.8862 -1.40998 -5.02908 0
M  V30 738 H 63.5802 -1.07247 -2.79532 0
M  V30 739 H 61.1262 -0.517163 -1.34393 0
M  V30 740 H 63.0792 0.987972 -4.09655 0
M  V30 741 H 61.8032 1.43133 -2.93565 0
M  V30 742 H 60.4622 -0.588936 -3.61838 0
M  V30 743 H 60.1102 1.60447 -4.76724 0
M  V30 744 H 59.8102 0.238809 -5.87115 0
M  V30 745 H 61.3342 1.16308 -5.9942 0
M  V30 746 H 62.7482 -1.07905 -5.63054 0
M  V30 747 H 61.1452 -1.86689 -5.70322 0
M  V30 748 H 62.2152 -2.1889 -4.32684 0
M  V30 749 N 63.5583 1.46682 -0.576371 0
M  V30 750 C 64.4913 2.27243 0.208731 0
M  V30 751 C 65.4693 1.35238 0.902746 0
M  V30 752 O 66.6533 1.64641 0.917904 0
M  V30 753 C 63.7803 3.12802 1.29896 0
M  V30 754 C 62.8263 4.20524 0.711457 0
M  V30 755 S 63.6593 5.33548 -0.456781 0
M  V30 756 C 64.8153 6.22673 0.634798 0
M  V30 757 H 65.0483 2.93484 -0.474838 0
M  V30 758 H 62.5813 1.50069 -0.363118 0
M  V30 759 H 64.5393 3.62661 1.92321 0
M  V30 760 H 63.2003 2.45887 1.95444 0
M  V30 761 H 62.3933 4.80191 1.53076 0
M  V30 762 H 61.9953 3.73645 0.162999 0
M  V30 763 H 64.2873 6.60181 1.52209 0
M  V30 764 H 65.2303 7.0806 0.0750311 0
M  V30 765 H 65.6383 5.56684 0.936092 0
M  V30 766 N 65.0364 0.313813 1.54444 0
M  V30 767 C 66.4524 -0.0391619 1.59552 0
M  V30 768 C 66.6524 -1.51322 1.33056 0
M  V30 769 O 65.7084 -2.26782 1.11022 0
M  V30 770 C 67.0214 0.370302 2.98411 0
M  V30 771 C 68.5694 0.320139 3.11358 0
M  V30 772 C 69.0444 0.704617 4.52547 0
M  V30 773 N 70.5354 0.657645 4.58508 0
M  V30 774 C 71.2704 0.927453 5.6585 0
M  V30 775 N 70.7664 1.26389 6.81174 0
M  V30 776 N 72.5594 0.853662 5.5558 0
M  V30 777 H 64.7104 1.27433 1.69925 0
M  V30 778 H 66.9734 0.517511 0.794284 0
M  V30 779 H 66.6794 1.39694 3.22767 0
M  V30 780 H 66.5534 -0.269619 3.76235 0
M  V30 781 H 68.9404 -0.697275 2.86744 0
M  V30 782 H 69.0214 0.99486 2.35661 0
M  V30 783 H 68.6654 1.7199 4.77893 0
M  V30 784 H 68.5954 0.00768843 5.26599 0
M  V30 785 H 71.0864 0.409067 3.75679 0
M  V30 786 H 71.3994 1.4554 7.58972 0
M  V30 787 H 69.7444 1.30206 6.82694 0
M  V30 788 H 72.9354 0.590383 4.64362 0
M  V30 789 H 73.1084 1.0673 6.3915 0
M  V30 790 N 66.5145 -1.57545 0.0417849 0
M  V30 791 C 67.4775 -2.09885 -0.92093 0
M  V30 792 C 68.4775 -1.01648 -1.24596 0
M  V30 793 O 69.6675 -1.27759 -1.1842 0
M  V30 794 C 66.7995 -2.57527 -2.23367 0
M  V30 795 H 67.9925 -2.96236 -0.467382 0
M  V30 796 H 65.5455 -1.5493 -0.206467 0
M  V30 797 H 66.2805 -1.74542 -2.73323 0
M  V30 798 H 66.0655 -3.36613 -2.01083 0
M  V30 799 H 67.5555 -2.98201 -2.92346 0
M  V30 800 N 67.9926 0.231505 -1.5589 0
M  V30 801 C 69.4086 0.580748 -1.48659 0
M  V30 802 C 69.6086 1.87617 -0.73498 0
M  V30 803 O 68.6646 2.51046 -0.270586 0
M  V30 804 C 69.9776 0.669202 -2.93159 0
M  V30 805 C 71.5256 0.760499 -3.03621 0
M  V30 806 C 72.0006 0.880383 -4.49459 0
M  V30 807 N 73.4916 0.944861 -4.53461 0
M  V30 808 C 74.2266 1.05716 -5.63571 0
M  V30 809 N 73.7226 1.13403 -6.83456 0
M  V30 810 N 75.5156 1.09152 -5.514 0
M  V30 811 H 67.6666 -0.618695 -2.03189 0
M  V30 812 H 69.9296 -0.215728 -0.923128 0
M  V30 813 H 69.6356 -0.212904 -3.51055 0
M  V30 814 H 69.5096 1.5361 -3.44505 0
M  V30 815 H 71.8966 1.63305 -2.45796 0
M  V30 816 H 71.9776 -0.131864 -2.5546 0
M  V30 817 H 71.6216 0.0123284 -5.07899 0
M  V30 818 H 71.5516 1.78802 -4.95316 0
M  V30 819 H 74.0426 0.896176 -3.6712 0
M  V30 820 H 74.3556 1.21921 -7.63122 0
M  V30 821 H 72.7006 1.10333 -6.86186 0
M  V30 822 H 75.8916 1.02805 -4.56671 0
M  V30 823 H 76.0646 1.17558 -6.37247 0
M  V30 824 N 69.4707 1.49531 0.497807 0
M  V30 825 C 70.7177 1.59179 1.25173 0
M  V30 826 C 71.0457 0.279932 1.92475 0
M  V30 827 O 70.3007 -0.732383 1.81479 0
M  V30 828 C 70.5997 2.70252 2.33878 0
M  V30 829 C 70.2657 4.11644 1.84012 0
M  V30 830 C 68.9277 4.50121 1.70132 0
M  V30 831 C 71.2797 5.00121 1.46725 0
M  V30 832 C 68.6077 5.74845 1.17348 0
M  V30 833 C 70.9597 6.25366 0.95392 0
M  V30 834 C 69.6237 6.6267 0.801538 0
M  V30 835 H 68.8937 0.582478 0.45804 0
M  V30 836 H 71.5407 1.83373 0.551948 0
M  V30 837 H 69.8457 2.40041 3.09657 0
M  V30 838 H 71.5427 2.74925 2.9192 0
M  V30 839 H 68.1327 3.81274 1.95775 0
M  V30 840 H 72.3167 4.71048 1.56294 0
M  V30 841 H 67.5727 6.02444 1.04264 0
M  V30 842 H 71.7467 6.93301 0.656225 0
M  V30 843 H 69.3737 7.59197 0.390351 0
M  V30 844 N 70.9488 -0.749086 1.3866 0
M  V30 845 C 71.8588 -1.89358 1.38494 0
M  V30 846 C 72.8748 -1.71708 0.281476 0
M  V30 847 O 74.0508 -1.94554 0.520643 0
M  V30 848 C 71.1158 -3.24782 1.21316 0
M  V30 849 C 70.1768 -3.54926 2.41508 0
M  V30 850 C 69.4098 -4.83888 2.2514 0
M  V30 851 O 69.6328 -5.56592 1.24746 0
M  V30 852 O 68.5668 -5.13612 3.13826 0
M  V30 853 H 72.3928 -1.92452 2.34938 0
M  V30 854 H 69.9778 -0.894981 1.19626 0
M  V30 855 H 71.8598 -4.05739 1.13814 0
M  V30 856 H 70.5348 -3.2249 0.279592 0
M  V30 857 H 69.4418 -2.74112 2.54585 0
M  V30 858 H 70.7748 -3.61983 3.3351 0
M  V30 859 N 72.4269 -1.23603 -0.977757 0
M  V30 860 C 73.3369 -1.03632 -2.1047 0
M  V30 861 C 74.3529 0.0199435 -1.73989 0
M  V30 862 O 75.5289 -0.176076 -2.00629 0
M  V30 863 C 72.5939 -0.63276 -3.40877 0
M  V30 864 C 71.6549 -1.76437 -3.91367 0
M  V30 865 C 70.8879 -1.37997 -5.15551 0
M  V30 866 O 71.1109 -0.265357 -5.69782 0
M  V30 867 O 70.0449 -2.20201 -5.60174 0
M  V30 868 H 73.8709 -1.98086 -2.30208 0
M  V30 869 H 71.4559 -1.02332 -1.08851 0
M  V30 870 H 73.3379 -0.418761 -4.19314 0
M  V30 871 H 72.0129 0.282754 -3.22463 0
M  V30 872 H 70.9199 -2.03304 -3.14036 0
M  V30 873 H 72.2529 -2.6583 -4.14241 0
M  V30 874 N 73.905 1.17692 -1.04816 0
M  V30 875 C 74.855 2.1952 -0.616042 0
M  V30 876 C 75.839 1.57147 0.345485 0
M  V30 877 O 77.031 1.76245 0.163325 0
M  V30 878 C 74.16 3.43298 0.0116917 0
M  V30 879 C 73.246 4.12777 -0.973435 0
M  V30 880 N 73.637 4.5814 -2.14339 0
M  V30 881 C 71.935 4.38747 -0.80108 0
M  V30 882 C 72.636 5.11713 -2.7663 0
M  V30 883 N 71.612 5.03686 -2.04453 0
M  V30 884 H 75.414 2.52293 -1.5075 0
M  V30 885 H 72.928 1.3398 -0.917776 0
M  V30 886 H 74.925 4.15519 0.339006 0
M  V30 887 H 73.585 3.12018 0.898593 0
M  V30 888 H 74.596 4.52349 -2.52191 0
M  V30 889 H 71.273 4.17485 0.0350934 0
M  V30 890 H 72.663 5.56962 -3.75823 0
M  V30 891 N 75.3831 0.828654 1.34056 0
M  V30 892 C 76.3301 0.252567 2.29414 0
M  V30 893 C 77.3001 -0.62588 1.53857 0
M  V30 894 O 78.4851 -0.566312 1.82202 0
M  V30 895 C 75.6251 -0.574831 3.40279 0
M  V30 896 C 74.7381 0.326499 4.30764 0
M  V30 897 C 73.8731 -0.511016 5.28736 0
M  V30 898 C 72.9121 0.389342 6.1086 0
M  V30 899 N 72.0491 -0.409439 7.00905 0
M  V30 900 H 76.8891 1.07108 2.78086 0
M  V30 901 H 74.4261 0.539677 1.36843 0
M  V30 902 H 76.3841 -1.06992 4.03248 0
M  V30 903 H 75.0141 -1.35841 2.92826 0
M  V30 904 H 74.0661 0.939837 3.68607 0
M  V30 905 H 75.3781 1.01857 4.88289 0
M  V30 906 H 74.5321 -1.07035 5.97184 0
M  V30 907 H 73.2711 -1.23657 4.71763 0
M  V30 908 H 72.2761 0.960769 5.4134 0
M  V30 909 H 73.5011 1.1131 6.69916 0
M  V30 910 H 71.4471 -1.11856 6.46393 0
M  V30 911 H 71.3641 0.224126 7.55668 0
M  V30 912 H 72.6321 -0.951336 7.73673 0
M  V30 913 N 76.8612 -1.46375 0.584142 0
M  V30 914 C 77.8092 -2.32042 -0.161047 0
M  V30 915 C 78.8032 -1.44569 -0.882966 0
M  V30 916 O 80.0092 -1.61186 -0.801191 0
M  V30 917 H 76.3842 -0.748659 -0.0708033 0
M  V30 918 H 78.3552 -2.92704 0.580269 0
M  V30 919 C 77.1042 -3.27762 -1.1605 0
M  V30 920 H 76.4272 -3.95051 -0.614419 0
M  V30 921 H 77.8672 -3.90481 -1.65228 0
M  V30 922 C 76.3262 -2.53218 -2.22221 0
M  V30 923 O 76.8562 -2.29628 -3.29597 0
M  V30 924 N 75.0622 -2.13756 -1.96868 0
M  V30 925 H 74.6092 -2.33142 -1.09557 0
M  V30 926 H 74.5672 -1.642 -2.68115 0
M  V30 927 N 78.3393 -0.321999 -1.54275 0
M  V30 928 C 79.2493 0.553631 -2.27974 0
M  V30 929 C 80.2653 1.13054 -1.32268 0
M  V30 930 O 81.4413 1.15084 -1.6528 0
M  V30 931 C 78.5063 1.69927 -3.02201 0
M  V30 932 C 77.5673 1.15433 -4.1349 0
M  V30 933 C 76.8003 2.24537 -4.84168 0
M  V30 934 O 77.0233 3.44852 -4.5435 0
M  V30 935 O 75.9573 1.90044 -5.7111 0
M  V30 936 H 79.7833 -0.0448345 -3.03667 0
M  V30 937 H 77.3683 -0.0877418 -1.49142 0
M  V30 938 H 79.2503 2.3663 -3.48689 0
M  V30 939 H 77.9253 2.28395 -2.29385 0
M  V30 940 H 76.8323 0.452436 -3.71354 0
M  V30 941 H 78.1653 0.614805 -4.88345 0
M  V30 942 N 79.8174 1.5752 -0.0501392 0
M  V30 943 C 80.7644 2.1147 0.924603 0
M  V30 944 C 81.7344 1.02182 1.30951 0
M  V30 945 O 82.9194 1.29723 1.39916 0
M  V30 946 C 80.0594 2.66337 2.19451 0
M  V30 947 C 79.1724 3.89708 1.86418 0
M  V30 948 C 78.3074 4.32893 3.07859 0
M  V30 949 C 77.3464 5.48967 2.70742 0
M  V30 950 N 76.4834 5.87211 3.84874 0
M  V30 951 H 81.3234 2.94465 0.457639 0
M  V30 952 H 78.8604 1.45531 0.214266 0
M  V30 953 H 80.8184 2.96247 2.93758 0
M  V30 954 H 79.4484 1.86141 2.63726 0
M  V30 955 H 78.5004 3.66396 1.02264 0
M  V30 956 H 79.8124 4.74074 1.55096 0
M  V30 957 H 78.9664 4.6435 3.90466 0
M  V30 958 H 77.7054 3.47336 3.42358 0
M  V30 959 H 76.7104 5.17183 1.86551 0
M  V30 960 H 77.9354 6.3624 2.37436 0
M  V30 961 H 75.8814 5.04607 4.19175 0
M  V30 962 H 75.7984 6.66266 3.57247 0
M  V30 963 H 77.0664 6.23282 4.68123 0
M  V30 964 N 81.2955 -0.223234 1.56011 0
M  V30 965 C 82.5725 -0.972108 1.69733 0
M  V30 966 C 82.9525 -2.02485 0.59691 0
M  V30 967 O 82.3005 -2.25037 -0.396324 0
M  V30 968 C 82.5105 -1.58407 3.10979 0
M  V30 969 C 83.8585 -2.07696 3.70334 0
M  V30 970 O 84.8825 -1.68304 3.1393 0
M  V30 971 O 83.7415 -2.80096 4.69264 0
M  V30 972 H 80.8355 -0.453993 0.691245 0
M  V30 973 H 83.3815 -0.215149 1.68331 0
M  V30 974 H 82.1535 -0.823831 3.82529 0
M  V30 975 H 81.7765 -2.40661 3.16493 0
M  V30 976 N 82.7736 -1.49793 -0.48987 0
M  V30 977 C 83.7066 -1.61898 -1.60823 0
M  V30 978 C 84.6846 -0.467651 -1.5573 0
M  V30 979 O 85.8686 -0.684682 -1.75626 0
M  V30 980 C 82.9956 -1.58422 -2.99366 0
M  V30 981 C 82.0416 -2.78889 -3.22682 0
M  V30 982 S 82.8746 -4.40429 -3.04602 0
M  V30 983 C 84.0306 -4.39617 -4.4552 0
M  V30 984 H 84.2636 -2.56502 -1.50312 0
M  V30 985 H 81.7966 -1.38822 -0.675849 0
M  V30 986 H 83.7546 -1.57103 -3.79248 0
M  V30 987 H 82.4156 -0.650866 -3.07283 0
M  V30 988 H 81.6086 -2.72708 -4.23847 0
M  V30 989 H 81.2106 -2.77678 -2.50541 0
M  V30 990 H 83.5026 -4.12022 -5.37814 0
M  V30 991 H 84.4456 -5.41097 -4.56749 0
M  V30 992 H 84.8536 -3.69554 -4.2672 0
M  V30 993 N 84.2517 0.741722 -1.39055 0
M  V30 994 C 85.2147 1.83733 -1.37021 0
M  V30 995 C 86.2147 1.58542 -0.268534 0
M  V30 996 O 87.4047 1.66067 -0.526076 0
M  V30 997 C 84.5367 3.2141 -1.13617 0
M  V30 998 H 85.7297 1.86941 -2.34506 0
M  V30 999 H 83.2827 0.944676 -1.24521 0
M  V30 1000 H 84.0177 3.23865 -0.167863 0
M  V30 1001 H 83.8027 3.4109 -1.93391 0
M  V30 1002 H 85.2927 4.01477 -1.14918 0
M  V30 1003 N 85.7298 1.2412 0.971189 0
M  V30 1004 C 86.6768 1.0305 2.06517 0
M  V30 1005 C 87.6468 -0.0550666 1.66009 0
M  V30 1006 O 88.8318 0.0988688 1.90544 0
M  V30 1007 C 85.9718 0.637653 3.39158 0
M  V30 1008 C 85.0848 1.79633 3.92882 0
M  V30 1009 C 84.2198 1.34939 5.13775 0
M  V30 1010 C 83.2588 2.47823 5.59687 0
M  V30 1011 N 82.3958 2.04022 6.71803 0
M  V30 1012 H 87.2358 1.96685 2.23873 0
M  V30 1013 H 84.7728 0.979694 1.09729 0
M  V30 1014 H 86.7308 0.390931 4.15364 0
M  V30 1015 H 85.3608 -0.261693 3.21737 0
M  V30 1016 H 84.4128 2.15681 3.13346 0
M  V30 1017 H 85.7248 2.64466 4.22918 0
M  V30 1018 H 84.8788 1.06134 5.97345 0
M  V30 1019 H 83.6178 0.471557 4.85415 0
M  V30 1020 H 82.6228 2.77392 4.74693 0
M  V30 1021 H 83.8478 3.36158 5.90063 0
M  V30 1022 H 81.7938 1.18632 6.45184 0
M  V30 1023 H 81.7108 2.82409 7.01271 0
M  V30 1024 H 82.9788 1.78347 7.58823 0
M  V30 1025 N 87.2079 -1.17134 1.05439 0
M  V30 1026 C 88.1709 -2.19439 0.661764 0
M  V30 1027 C 89.1709 -1.58199 -0.288042 0
M  V30 1028 O 90.3609 -1.74053 -0.0715803 0
M  V30 1029 C 87.4929 -3.40889 -0.0276209 0
M  V30 1030 H 88.6859 -2.55688 1.56728 0
M  V30 1031 H 86.2389 -1.31259 0.848567 0
M  V30 1032 H 86.9739 -3.10187 -0.94629 0
M  V30 1033 H 86.7589 -3.86586 0.655238 0
M  V30 1034 H 88.2489 -4.16603 -0.288342 0
M  V30 1035 N 88.686 -0.835752 -1.33615 0
M  V30 1036 C 89.914 -0.443344 -2.02094 0
M  V30 1037 C 90.329 0.954522 -1.62894 0
M  V30 1038 O 89.686 1.61982 -0.840723 0
M  V30 1039 C 89.737 -0.550775 -3.5728 0
M  V30 1040 O 89.458 -1.89356 -3.95065 0
M  V30 1041 C 90.959 -0.154919 -4.43029 0
M  V30 1042 H 88.179 -0.176359 -0.647409 0
M  V30 1043 H 90.723 -1.12746 -1.70612 0
M  V30 1044 H 88.878 0.0853997 -3.87306 0
M  V30 1045 H 89.292 -1.87687 -4.89769 0
M  V30 1046 H 90.766 -0.281144 -5.51284 0
M  V30 1047 H 91.243 0.902863 -4.2982 0
M  V30 1048 H 91.849 -0.765404 -4.18356 0
M  V30 1049 N 90.1641 1.46063 -0.591896 0
M  V30 1050 C 91.0961 2.28539 0.174001 0
M  V30 1051 C 92.1091 1.39047 0.846753 0
M  V30 1052 O 93.2981 1.63564 0.714774 0
M  V30 1053 C 90.3981 3.14347 1.26645 0
M  V30 1054 C 89.5711 4.32021 0.683856 0
M  V30 1055 C 88.6301 4.99157 1.66518 0
M  V30 1056 O 87.6561 5.56458 1.19763 0
M  V30 1057 N 88.8581 4.97005 2.99943 0
M  V30 1058 H 91.6231 2.94911 -0.533633 0
M  V30 1059 H 89.1841 1.56077 -0.430294 0
M  V30 1060 H 91.1761 3.56125 1.92242 0
M  V30 1061 H 89.7461 2.49988 1.87682 0
M  V30 1062 H 88.9661 3.93915 -0.1498 0
M  V30 1063 H 90.2541 5.08059 0.274567 0
M  V30 1064 H 89.6521 4.51714 3.40545 0
M  V30 1065 H 88.2091 5.42696 3.61004 0
M  V30 1066 N 91.6422 0.330177 1.54103 0
M  V30 1067 C 92.5722 -0.525353 2.27513 0
M  V30 1068 C 93.5532 -1.11383 1.2856 0
M  V30 1069 O 94.7382 -1.13773 1.57383 0
M  V30 1070 C 91.8682 -1.6831 3.03791 0
M  V30 1071 C 90.8222 -1.2236 4.10137 0
M  V30 1072 C 90.1482 -2.46882 4.74293 0
M  V30 1073 C 91.4482 -0.333697 5.21233 0
M  V30 1074 H 93.1422 0.087013 2.99274 0
M  V30 1075 H 90.6882 0.0432893 1.43935 0
M  V30 1076 H 92.6412 -2.28795 3.5388 0
M  V30 1077 H 91.3652 -2.32216 2.29659 0
M  V30 1078 H 90.0242 -0.64165 3.60941 0
M  V30 1079 H 89.6722 -3.09165 3.96769 0
M  V30 1080 H 89.3722 -2.16825 5.46133 0
M  V30 1081 H 90.8962 -3.08117 5.27159 0
M  V30 1082 H 92.3102 -0.845013 5.67038 0
M  V30 1083 H 90.7072 -0.125612 5.99969 0
M  V30 1084 H 91.7772 0.633724 4.80741 0
M  V30 1085 N 93.1203 -1.57491 0.0584922 0
M  V30 1086 C 94.0503 -2.14988 -0.911178 0
M  V30 1087 C 95.0313 -1.07343 -1.31952 0
M  V30 1088 O 96.2163 -1.35318 -1.39294 0
M  V30 1089 C 93.3463 -2.70078 -2.18347 0
M  V30 1090 C 92.3003 -3.82771 -1.91495 0
M  V30 1091 C 91.6263 -4.24408 -3.25241 0
M  V30 1092 C 92.9263 -5.07592 -1.23075 0
M  V30 1093 H 94.6203 -2.96263 -0.432246 0
M  V30 1094 H 92.1663 -1.42512 -0.206469 0
M  V30 1095 H 94.1193 -3.08943 -2.86587 0
M  V30 1096 H 92.8433 -1.86005 -2.68458 0
M  V30 1097 H 91.5023 -3.44389 -1.25664 0
M  V30 1098 H 91.1503 -3.37275 -3.73168 0
M  V30 1099 H 90.8503 -5.00366 -3.08071 0
M  V30 1100 H 92.3743 -4.65879 -3.94701 0
M  V30 1101 H 93.7883 -5.43857 -1.81362 0
M  V30 1102 H 92.1853 -5.88741 -1.16207 0
M  V30 1103 H 93.2553 -4.84454 -0.207847 0
M  V30 1104 N 94.5984 0.214957 -1.56127 0
M  V30 1105 C 95.5454 1.26642 -1.92952 0
M  V30 1106 C 96.5154 1.46244 -0.78753 0
M  V30 1107 O 97.7004 1.59704 -1.04399 0
M  V30 1108 C 94.8404 2.6104 -2.25726 0
M  V30 1109 C 93.9534 2.49183 -3.52891 0
M  V30 1110 C 93.0884 3.76149 -3.7508 0
M  V30 1111 C 92.1274 3.59041 -4.95738 0
M  V30 1112 N 91.2644 4.77972 -5.14283 0
M  V30 1113 H 96.1044 0.945384 -2.82607 0
M  V30 1114 H 93.6414 0.455489 -1.3987 0
M  V30 1115 H 95.5994 3.39313 -2.42739 0
M  V30 1116 H 94.2294 2.91227 -1.39236 0
M  V30 1117 H 93.2814 1.6231 -3.44034 0
M  V30 1118 H 94.5934 2.32466 -4.41318 0
M  V30 1119 H 93.7474 4.62865 -3.92226 0
M  V30 1120 H 92.4864 3.95799 -2.84947 0
M  V30 1121 H 91.4914 2.7071 -4.78535 0
M  V30 1122 H 92.7164 3.40856 -5.87362 0
M  V30 1123 H 90.6624 4.97923 -4.27093 0
M  V30 1124 H 90.5794 4.64006 -5.96853 0
M  V30 1125 H 91.8474 5.66096 -5.35869 0
M  V30 1126 N 96.0765 1.50051 0.48192 0
M  V30 1127 C 96.9865 1.7089 1.60728 0
M  V30 1128 C 98.0025 0.591788 1.63627 0
M  V30 1129 O 99.1785 0.868817 1.81696 0
M  V30 1130 C 96.2435 1.78855 2.97005 0
M  V30 1131 C 95.3045 3.02537 3.04581 0
M  V30 1132 C 94.5375 3.10112 4.34357 0
M  V30 1133 O 94.7605 2.24765 5.24249 0
M  V30 1134 O 93.6945 4.02747 4.47301 0
M  V30 1135 H 97.5205 2.66264 1.46072 0
M  V30 1136 H 95.1055 1.34018 0.660264 0
M  V30 1137 H 96.9875 1.86336 3.77964 0
M  V30 1138 H 95.6625 0.866628 3.11883 0
M  V30 1139 H 94.5695 3.00563 2.22739 0
M  V30 1140 H 95.9025 3.94272 2.94636 0
M  V30 1141 N 97.5546 -0.734337 1.39446 0
M  V30 1142 C 98.5176 -1.83004 1.37994 0
M  V30 1143 C 99.5176 -1.58397 0.276938 0
M  V30 1144 O 100.708 -1.65785 0.534875 0
M  V30 1145 C 97.8396 -3.20802 1.1532 0
M  V30 1146 H 99.0326 -1.85694 2.35494 0
M  V30 1147 H 96.5856 -0.938059 1.25021 0
M  V30 1148 H 97.3206 -3.23772 0.185036 0
M  V30 1149 H 97.1056 -3.4006 1.95197 0
M  V30 1150 H 98.5956 -4.00862 1.17046 0
M  V30 1151 N 99.0327 -1.24633 -0.964593 0
M  V30 1152 C 99.9427 -1.05859 -2.09359 0
M  V30 1153 C 100.959 0.00148855 -1.74 0
M  V30 1154 O 102.135 -0.197346 -2.00431 0
M  V30 1155 C 99.1997 -0.668879 -3.40187 0
M  V30 1156 C 98.2607 -1.80578 -3.89474 0
M  V30 1157 C 97.4937 -1.43457 -5.14058 0
M  V30 1158 O 97.7167 -0.325775 -5.69469 0
M  V30 1159 O 96.6507 -2.2613 -5.57807 0
M  V30 1160 H 100.477 -2.00516 -2.28094 0
M  V30 1161 H 98.0617 -1.03481 -1.0776 0
M  V30 1162 H 99.9437 -0.463211 -4.18846 0
M  V30 1163 H 98.6187 0.248536 -3.22744 0
M  V30 1164 H 97.5257 -2.06623 -3.11862 0
M  V30 1165 H 98.8587 -2.70208 -4.11398 0
M  V30 1166 N 100.511 1.16574 -1.06058 0
M  V30 1167 C 101.421 2.2452 -0.680282 0
M  V30 1168 C 102.437 1.71348 0.302604 0
M  V30 1169 O 103.613 2.00822 0.152513 0
M  V30 1170 C 100.678 3.46629 -0.0700315 0
M  V30 1171 C 99.7388 4.14849 -1.10448 0
M  V30 1172 C 98.9718 5.31129 -0.523256 0
M  V30 1173 O 99.1948 5.66514 0.664709 0
M  V30 1174 O 98.1288 5.88526 -1.26179 0
M  V30 1175 H 101.955 2.59355 -1.58015 0
M  V30 1176 H 99.5398 1.24043 -0.832694 0
M  V30 1177 H 101.422 4.20543 0.268667 0
M  V30 1178 H 100.097 3.13573 0.803353 0
M  V30 1179 H 99.0038 3.42916 -1.49532 0
M  V30 1180 H 100.337 4.51954 -1.94931 0
M  V30 1181 N 101.989 0.842826 1.3317 0
M  V30 1182 C 102.899 0.281444 2.32906 0
M  V30 1183 C 103.915 -0.594587 1.63526 0
M  V30 1184 O 105.091 -0.49777 1.95152 0
M  V30 1185 C 102.156 -0.530929 3.42611 0
M  V30 1186 C 101.217 0.369843 4.27704 0
M  V30 1187 C 100.45 -0.403853 5.3217 0
M  V30 1188 O 100.673 -1.63513 5.46461 0
M  V30 1189 O 99.6069 0.224199 6.01482 0
M  V30 1190 H 103.433 1.10744 2.82789 0
M  V30 1191 H 101.018 0.60545 1.36582 0
M  V30 1192 H 102.9 -0.992437 4.09547 0
M  V30 1193 H 101.575 -1.33392 2.94938 0
M  V30 1194 H 100.482 0.879275 3.6362 0
M  V30 1195 H 101.815 1.13771 4.78871 0
M  V30 1196 N 103.467 -1.45747 0.599634 0
M  V30 1197 C 104.714 -2.02292 0.0917284 0
M  V30 1198 C 105.042 -1.46906 -1.27472 0
M  V30 1199 O 104.297 -0.630652 -1.8526 0
M  V30 1200 C 104.596 -3.57399 -0.00602758 0
M  V30 1201 C 104.262 -4.31902 1.29503 0
M  V30 1202 C 102.924 -4.51974 1.65144 0
M  V30 1203 C 105.276 -4.74551 2.15525 0
M  V30 1204 C 102.604 -5.11949 2.86574 0
M  V30 1205 C 104.956 -5.35868 3.36196 0
M  V30 1206 C 103.62 -5.54165 3.72099 0
M  V30 1207 H 102.89 -0.740239 0.0335658 0
M  V30 1208 H 105.537 -1.7491 0.779661 0
M  V30 1209 H 103.842 -3.84014 -0.777183 0
M  V30 1210 H 105.539 -3.98846 -0.415038 0
M  V30 1211 H 102.129 -4.16588 1.00761 0
M  V30 1212 H 106.313 -4.58784 1.8929 0
M  V30 1213 H 101.569 -5.24305 3.14507 0
M  V30 1214 H 105.743 -5.6787 4.03109 0
M  V30 1215 H 103.37 -6.00406 4.6628 0
M  V30 1216 N 104.945 -0.338344 -1.53925 0
M  V30 1217 C 106.191 0.252842 -2.01822 0
M  V30 1218 C 106.546 1.48612 -1.22197 0
M  V30 1219 O 105.839 1.89238 -0.299892 0
M  V30 1220 C 106.033 0.62448 -3.51902 0
M  V30 1221 C 105.862 -0.571235 -4.46057 0
M  V30 1222 C 104.632 -1.07493 -4.93734 0
M  V30 1223 C 106.83 -1.42807 -4.94076 0
M  V30 1224 N 104.812 -2.23351 -5.71828 0
M  V30 1225 C 106.183 -2.43362 -5.70241 0
M  V30 1226 C 108.238 -1.45412 -4.76193 0
M  V30 1227 C 106.941 -3.46346 -6.30426 0
M  V30 1228 C 108.967 -2.47274 -5.37224 0
M  V30 1229 C 108.329 -3.46555 -6.13253 0
M  V30 1230 H 104.428 0.0559669 -0.779995 0
M  V30 1231 H 107.012 -0.476732 -1.88773 0
M  V30 1232 H 105.183 1.32317 -3.65167 0
M  V30 1233 H 106.915 1.19841 -3.86549 0
M  V30 1234 H 103.67 -0.643848 -4.69203 0
M  V30 1235 H 104.094 -2.81834 -6.15548 0
M  V30 1236 H 108.736 -0.700171 -4.16962 0
M  V30 1237 H 106.454 -4.22638 -6.88769 0
M  V30 1238 H 110.04 -2.50109 -5.25297 0
M  V30 1239 H 108.92 -4.24083 -6.59638 0
M  V30 1240 N 106.423 1.57458 -0.0668435 0
M  V30 1241 C 107.653 1.97337 0.611677 0
M  V30 1242 C 108.061 0.943744 1.63982 0
M  V30 1243 O 107.404 -0.0785584 1.83532 0
M  V30 1244 C 107.466 3.33511 1.34205 0
M  V30 1245 C 107.13 4.54598 0.467941 0
M  V30 1246 C 108.127 5.19186 -0.272439 0
M  V30 1247 C 105.812 5.0075 0.39427 0
M  V30 1248 C 107.806 6.28274 -1.07476 0
M  V30 1249 C 105.493 6.09711 -0.411729 0
M  V30 1250 C 106.491 6.73335 -1.14492 0
M  V30 1251 O 106.179 7.80199 -1.93763 0
M  V30 1252 H 105.911 0.654042 0.170893 0
M  V30 1253 H 108.465 2.04961 -0.134289 0
M  V30 1254 H 106.695 3.22487 2.13398 0
M  V30 1255 H 108.384 3.58029 1.91233 0
M  V30 1256 H 109.15 4.84477 -0.225086 0
M  V30 1257 H 105.029 4.51009 0.954569 0
M  V30 1258 H 108.573 6.77866 -1.64755 0
M  V30 1259 H 104.47 6.43854 -0.460664 0
M  V30 1260 H 105.238 7.97053 -1.86142 0
M  V30 1261 N 107.901 -0.206675 1.56239 0
M  V30 1262 C 109.317 -0.557025 1.49564 0
M  V30 1263 C 109.517 -1.86424 0.764735 0
M  V30 1264 O 108.573 -2.50584 0.310491 0
M  V30 1265 C 109.886 -0.622478 2.94186 0
M  V30 1266 C 111.434 -0.712099 3.04792 0
M  V30 1267 C 111.909 -0.808767 4.50803 0
M  V30 1268 N 113.4 -0.8726 4.54907 0
M  V30 1269 C 114.135 -0.967365 5.65181 0
M  V30 1270 N 113.631 -1.02515 6.85173 0
M  V30 1271 N 115.424 -1.00366 5.53067 0
M  V30 1272 H 107.575 0.650943 2.02179 0
M  V30 1273 H 109.838 0.230387 0.919579 0
M  V30 1274 H 109.544 0.268727 3.50672 0
M  V30 1275 H 109.418 -1.4811 3.46905 0
M  V30 1276 H 111.805 -1.59374 2.48363 0
M  V30 1277 H 111.886 0.172489 2.55218 0
M  V30 1278 H 111.53 0.0684754 5.07854 0
M  V30 1279 H 111.46 -1.70899 4.98098 0
M  V30 1280 H 113.951 -0.837657 3.68499 0
M  V30 1281 H 114.264 -1.09765 7.64965 0
M  V30 1282 H 112.609 -0.994026 6.87855 0
M  V30 1283 H 115.8 -0.95527 4.58249 0
M  V30 1284 H 115.973 -1.07405 6.39037 0
M  V30 1285 N 109.379 -1.50304 -0.473955 0
M  V30 1286 C 110.311 -1.65109 -1.58971 0
M  V30 1287 C 111.324 -0.532676 -1.53839 0
M  V30 1288 O 112.513 -0.805751 -1.59279 0
M  V30 1289 C 109.613 -1.61684 -2.97845 0
M  V30 1290 C 108.786 -2.8951 -3.27876 0
M  V30 1291 C 107.845 -2.78768 -4.4629 0
M  V30 1292 O 106.871 -3.52722 -4.46739 0
M  V30 1293 N 108.073 -1.9213 -5.47783 0
M  V30 1294 H 110.838 -2.61347 -1.46689 0
M  V30 1295 H 108.399 -1.47732 -0.662324 0
M  V30 1296 H 110.391 -1.52114 -3.75024 0
M  V30 1297 H 108.961 -0.731925 -3.03911 0
M  V30 1298 H 108.181 -3.13228 -2.39336 0
M  V30 1299 H 109.469 -3.74199 -3.4475 0
M  V30 1300 H 108.867 -1.31353 -5.50239 0
M  V30 1301 H 107.424 -1.88466 -6.23958 0
M  V30 1302 N 110.857 0.726932 -1.39834 0
M  V30 1303 C 111.807 1.83232 -1.35683 0
M  V30 1304 C 112.791 1.59155 -0.236295 0
M  V30 1305 O 113.983 1.70522 -0.474488 0
M  V30 1306 C 111.112 3.21246 -1.21062 0
M  V30 1307 C 110.198 3.51125 -2.37849 0
M  V30 1308 N 110.589 3.51889 -3.63329 0
M  V30 1309 C 108.887 3.81527 -2.30982 0
M  V30 1310 C 109.588 3.79791 -4.40606 0
M  V30 1311 N 108.564 3.97971 -3.70297 0
M  V30 1312 H 112.366 1.8214 -2.30656 0
M  V30 1313 H 109.88 0.925545 -1.33444 0
M  V30 1314 H 111.877 4.00387 -1.16171 0
M  V30 1315 H 110.537 3.23572 -0.270458 0
M  V30 1316 H 111.548 3.33008 -3.96643 0
M  V30 1317 H 108.225 3.91411 -1.45272 0
M  V30 1318 H 109.615 3.86783 -5.49408 0
M  V30 1319 N 112.336 1.25143 0.95797 0
M  V30 1320 C 113.747 1.08851 1.51685 0
M  V30 1321 C 114.098 -0.33687 1.93286 0
M  V30 1322 O 113.223 -1.22644 1.7829 0
M  V30 1323 C 113.818 1.96978 2.75654 0
M  V30 1324 C 112.377 1.84881 3.27866 0
M  V30 1325 C 111.524 1.91329 2.0072 0
M  V30 1326 H 114.475 1.38478 0.77522 0
M  V30 1327 H 114.496 1.5078 3.4935 0
M  V30 1328 H 114.008 3.00712 2.45345 0
M  V30 1329 H 112.109 0.840182 3.63004 0
M  V30 1330 H 112.222 2.6951 3.96107 0
M  V30 1331 H 110.586 1.35174 2.15871 0
M  V30 1332 H 111.369 2.96661 1.72764 0
M  V30 1333 N 113.814 -1.1601 1.06675 0
M  V30 1334 C 114.746 -2.20115 0.638921 0
M  V30 1335 C 115.759 -1.59916 -0.305057 0
M  V30 1336 O 116.948 -1.78245 -0.0954446 0
M  V30 1337 C 114.048 -3.38798 -0.0830083 0
M  V30 1338 C 113.221 -4.2855 0.875426 0
M  V30 1339 C 112.28 -5.25849 0.192042 0
M  V30 1340 O 111.306 -5.63102 0.830921 0
M  V30 1341 N 112.508 -5.70648 -1.06493 0
M  V30 1342 H 115.273 -2.57439 1.53444 0
M  V30 1343 H 112.834 -1.31057 0.950557 0
M  V30 1344 H 114.826 -4.00936 -0.550685 0
M  V30 1345 H 113.396 -2.99947 -0.880386 0
M  V30 1346 H 112.616 -3.63617 1.52238 0
M  V30 1347 H 113.904 -4.85393 1.52548 0
M  V30 1348 H 113.302 -5.42482 -1.60405 0
M  V30 1349 H 111.859 -6.34859 -1.47641 0
M  V30 1350 N 115.292 -0.849877 -1.32721 0
M  V30 1351 C 116.703 -0.506188 -1.79707 0
M  V30 1352 C 117.054 0.975627 -1.70223 0
M  V30 1353 O 116.179 1.76078 -1.25799 0
M  V30 1354 C 116.774 -0.912044 -3.26293 0
M  V30 1355 C 115.333 -0.620326 -3.71253 0
M  V30 1356 C 114.48 -1.11439 -2.53922 0
M  V30 1357 H 117.431 -1.03754 -1.20087 0
M  V30 1358 H 117.452 -0.226493 -3.79825 0
M  V30 1359 H 116.964 -1.99057 -3.33164 0
M  V30 1360 H 115.065 0.447674 -3.69901 0
M  V30 1361 H 115.178 -1.18327 -4.64258 0
M  V30 1362 H 113.542 -0.534834 -2.49021 0
M  V30 1363 H 114.325 -2.19992 -2.6355 0
M  V30 1364 N 116.77 1.45427 -0.607355 0
M  V30 1365 C 118 2.06314 -0.108656 0
M  V30 1366 C 118.408 1.45269 1.21217 0
M  V30 1367 O 117.751 0.561115 1.74921 0
M  V30 1368 C 117.813 3.59345 0.105618 0
M  V30 1369 C 117.477 4.42723 -1.13337 0
M  V30 1370 C 118.474 4.77715 -2.05145 0
M  V30 1371 C 116.159 4.83478 -1.36213 0
M  V30 1372 C 118.153 5.52317 -3.18158 0
M  V30 1373 C 115.84 5.57835 -2.49527 0
M  V30 1374 C 116.838 5.92171 -3.40327 0
M  V30 1375 O 116.526 6.65019 -4.51669 0
M  V30 1376 H 116.258 0.672782 -0.0658842 0
M  V30 1377 H 118.812 1.87664 -0.834945 0
M  V30 1378 H 117.042 3.76394 0.886796 0
M  V30 1379 H 118.731 4.02076 0.555886 0
M  V30 1380 H 119.497 4.46787 -1.88697 0
M  V30 1381 H 115.376 4.56188 -0.664362 0
M  V30 1382 H 118.92 5.79036 -3.89054 0
M  V30 1383 H 114.817 5.88177 -2.65928 0
M  V30 1384 H 115.585 6.83469 -4.50348 0
M  V30 1385 N 118.248 0.346503 1.53744 0
M  V30 1386 C 119.497 -0.250122 2.00143 0
M  V30 1387 C 119.81 -1.51418 1.23822 0
M  V30 1388 O 121.016 -2.18823 1.60713 0
M  V30 1389 C 119.472 -0.496252 3.56462 0
M  V30 1390 C 119.08 0.752077 4.41642 0
M  V30 1391 C 120.824 -1.05157 4.11269 0
M  V30 1392 C 118.731 0.476583 5.89477 0
M  V30 1393 H 117.661 -0.0972409 0.747703 0
M  V30 1394 H 120.312 0.46229 1.77581 0
M  V30 1395 H 118.694 -1.26944 3.75102 0
M  V30 1396 H 119.868 1.5266 4.34778 0
M  V30 1397 H 118.183 1.22925 3.97842 0
M  V30 1398 H 120.78 -1.27269 5.19333 0
M  V30 1399 H 121.123 -2.00799 3.64672 0
M  V30 1400 H 121.656 -0.339019 3.96353 0
M  V30 1401 H 118.395 1.4028 6.40314 0
M  V30 1402 H 117.915 -0.259794 5.99237 0
M  V30 1403 H 119.594 0.0949315 6.4693 0
M  V30 1404 N 119.726 -1.57421 0.075193 0
M  V30 1405 C 120.973 -1.93618 -0.593146 0
M  V30 1406 C 121.301 -0.955484 -1.69413 0
M  V30 1407 O 120.556 0.0283251 -1.9568 0
M  V30 1408 C 120.855 -3.36428 -1.20626 0
M  V30 1409 C 120.521 -4.50307 -0.231078 0
M  V30 1410 C 119.183 -4.81186 0.0371936 0
M  V30 1411 C 121.535 -5.19374 0.435888 0
M  V30 1412 C 118.863 -5.78466 0.979461 0
M  V30 1413 C 121.215 -6.17665 1.3665 0
M  V30 1414 C 119.879 -6.46958 1.6432 0
M  V30 1415 H 119.149 -0.708499 -0.217047 0
M  V30 1416 H 121.796 -1.90937 0.146793 0
M  V30 1417 H 120.101 -3.35592 -2.02201 0
M  V30 1418 H 121.798 -3.61727 -1.73073 0
M  V30 1419 H 118.388 -4.26227 -0.450357 0
M  V30 1420 H 122.572 -4.95711 0.241748 0
M  V30 1421 H 117.828 -5.99487 1.20106 0
M  V30 1422 H 122.002 -6.70284 1.88924 0
M  V30 1423 H 119.629 -7.2215 2.37494 0
M  V30 1424 N 121.204 0.198386 -1.56346 0
M  V30 1425 C 122.615 0.763358 -1.70381 0
M  V30 1426 C 122.966 1.83995 -0.681203 0
M  V30 1427 O 122.091 2.15785 0.16305 0
M  V30 1428 C 122.686 1.39143 -3.08909 0
M  V30 1429 C 121.245 1.90352 -3.2472 0
M  V30 1430 C 120.392 0.772233 -2.6633 0
M  V30 1431 H 123.343 -0.0266377 -1.58678 0
M  V30 1432 H 123.364 2.26076 -3.06055 0
M  V30 1433 H 122.876 0.607638 -3.83314 0
M  V30 1434 H 120.977 2.71461 -2.55225 0
M  V30 1435 H 121.09 2.06757 -4.3219 0
M  V30 1436 H 119.454 1.18566 -2.2542 0
M  V30 1437 H 120.237 0.00073556 -3.433 0
M  V30 1438 N 122.682 1.50554 0.465978 0
M  V30 1439 C 123.959 1.5232 1.22712 0
M  V30 1440 C 124.339 0.270807 2.09356 0
M  V30 1441 O 123.687 -0.745541 2.15995 0
M  V30 1442 C 123.897 2.82175 2.05374 0
M  V30 1443 C 125.245 3.33033 2.6339 0
M  V30 1444 O 126.269 2.83531 2.15612 0
M  V30 1445 O 125.128 4.19336 3.50456 0
M  V30 1446 H 122.222 0.611183 0.557122 0
M  V30 1447 H 124.768 1.62847 0.477381 0
M  V30 1448 H 123.54 3.64797 1.41558 0
M  V30 1449 H 123.163 2.74675 2.87471 0
M  V30 1450 N 124.16 -0.719506 1.40217 0
M  V30 1451 C 125.385 -1.51371 1.4178 0
M  V30 1452 C 125.81 -1.88091 0.0182355 0
M  V30 1453 O 125.168 -1.52997 -0.972707 0
M  V30 1454 C 125.216 -2.768 2.31115 0
M  V30 1455 O 124.32 -3.73349 1.7517 0
M  V30 1456 H 123.661 -0.456529 0.482159 0
M  V30 1457 H 126.191 -0.88644 1.844 0
M  V30 1458 H 126.201 -3.25371 2.46167 0
M  V30 1459 H 124.876 -2.49407 3.3282 0
M  V30 1460 H 123.453 -3.32179 1.69444 0
M  V30 1461 N 125.638 -1.25649 -0.95132 0
M  V30 1462 C 127.049 -1.09654 -1.51106 0
M  V30 1463 C 127.4 0.326615 -1.93462 0
M  V30 1464 O 126.525 1.21697 -1.78938 0
M  V30 1465 C 127.12 -1.98437 -2.74605 0
M  V30 1466 C 125.679 -1.86618 -3.2688 0
M  V30 1467 C 124.826 -1.9239 -1.99703 0
M  V30 1468 H 127.777 -1.38887 -0.767865 0
M  V30 1469 H 127.798 -1.5263 -3.48546 0
M  V30 1470 H 127.31 -3.02009 -2.43746 0
M  V30 1471 H 125.411 -0.859421 -3.62553 0
M  V30 1472 H 125.524 -2.71607 -3.94673 0
M  V30 1473 H 123.888 -1.36317 -2.15151 0
M  V30 1474 H 124.671 -2.97573 -1.71188 0
M  V30 1475 N 127.117 1.15442 -1.07289 0
M  V30 1476 C 128.365 1.85845 -0.794096 0
M  V30 1477 C 128.686 1.82692 0.681809 0
M  V30 1478 O 127.956 1.26741 1.49377 0
M  V30 1479 H 126.536 0.688089 -0.290763 0
M  V30 1480 H 129.198 1.39947 -1.3565 0
M  V30 1481 H 128.294 2.91001 -1.12804 0
M  V30 1482 N 128.595 0.856903 1.32268 0
M  V30 1483 C 129.843 0.460474 1.96784 0
M  V30 1484 C 130.164 -0.987701 1.68135 0
M  V30 1485 O 129.434 -1.69058 0.989765 0
M  V30 1486 H 128.014 0.167289 0.728027 0
M  V30 1487 H 130.676 1.09383 1.61312 0
M  V30 1488 H 129.772 0.60739 3.06133 0
M  V30 1489 N 130.073 -1.45103 0.615059 0
M  V30 1490 C 131.301 -2.06553 0.11977 0
M  V30 1491 C 131.716 -1.45842 -1.19898 0
M  V30 1492 O 131.073 -0.575325 -1.73194 0
M  V30 1493 C 131.124 -3.61495 -0.018364 0
M  V30 1494 O 130.845 -4.19942 1.24822 0
M  V30 1495 C 132.346 -4.39947 -0.544237 0
M  V30 1496 H 129.566 -0.667096 0.0722739 0
M  V30 1497 H 132.11 -1.8623 0.84491 0
M  V30 1498 H 130.265 -3.81135 -0.693865 0
M  V30 1499 H 130.679 -5.13204 1.0827 0
M  V30 1500 H 132.153 -5.48838 -0.589953 0
M  V30 1501 H 132.63 -4.10255 -1.56805 0
M  V30 1502 H 133.236 -4.25188 0.0974703 0
M  V30 1503 N 131.551 -0.354651 -1.53558 0
M  V30 1504 C 132.776 0.242153 -2.05981 0
M  V30 1505 C 133.201 1.42553 -1.2272 0
M  V30 1506 O 132.559 1.79656 -0.243604 0
M  V30 1507 C 132.607 0.624367 -3.55154 0
M  V30 1508 O 131.711 1.72301 -3.74681 0
M  V30 1509 H 131.052 0.0378432 -0.662921 0
M  V30 1510 H 133.582 -0.512087 -1.98088 0
M  V30 1511 H 133.592 0.898433 -3.97985 0
M  V30 1512 H 132.267 -0.240989 -4.15201 0
M  V30 1513 H 130.844 1.44535 -3.4375 0
M  V30 1514 N 133.029 1.57378 -0.0835403 0
M  V30 1515 C 134.259 1.97975 0.590713 0
M  V30 1516 C 134.667 0.961083 1.62972 0
M  V30 1517 O 134.01 -0.0590879 1.83605 0
M  V30 1518 C 134.072 3.34915 1.3066 0
M  V30 1519 C 133.736 4.55069 0.419698 0
M  V30 1520 C 134.733 5.18868 -0.32749 0
M  V30 1521 C 132.418 5.0114 0.341137 0
M  V30 1522 C 134.412 6.27098 -1.14134 0
M  V30 1523 C 132.099 6.0924 -0.476374 0
M  V30 1524 C 133.097 6.72083 -1.21627 0
M  V30 1525 O 132.785 7.781 -2.02028 0
M  V30 1526 H 132.517 0.655818 0.163947 0
M  V30 1527 H 135.071 2.04807 -0.156021 0
M  V30 1528 H 133.301 3.24733 2.09966 0
M  V30 1529 H 134.99 3.60037 1.87424 0
M  V30 1530 H 135.756 4.84211 -0.276459 0
M  V30 1531 H 131.635 4.51996 0.90668 0
M  V30 1532 H 135.179 6.7608 -1.71935 0
M  V30 1533 H 131.076 6.43329 -0.528927 0
M  V30 1534 H 131.844 7.95034 -1.94586 0
M  V30 1535 N 134.507 -0.190092 1.56449 0
M  V30 1536 C 135.417 -1.25591 1.98152 0
M  V30 1537 C 136.433 -1.49519 0.889944 0
M  V30 1538 O 137.609 -1.62036 1.19609 0
M  V30 1539 C 134.674 -2.57916 2.3169 0
M  V30 1540 C 133.735 -2.42015 3.5458 0
M  V30 1541 C 132.968 -3.6803 3.8651 0
M  V30 1542 O 133.191 -4.72413 3.1966 0
M  V30 1543 O 132.125 -3.6326 4.79923 0
M  V30 1544 H 135.951 -0.931988 2.89046 0
M  V30 1545 H 133.536 -0.395488 1.4407 0
M  V30 1546 H 135.418 -3.36008 2.54316 0
M  V30 1547 H 134.093 -2.89925 1.43963 0
M  V30 1548 H 133 -1.62017 3.37196 0
M  V30 1549 H 134.333 -2.14937 4.4279 0
M  V30 1550 N 135.985 -1.50799 -0.457987 0
M  V30 1551 C 137.401 -1.38515 -0.792819 0
M  V30 1552 C 137.601 -0.451409 -1.96379 0
M  V30 1553 O 136.657 0.10112 -2.52297 0
M  V30 1554 C 137.97 -2.80149 -1.09258 0
M  V30 1555 C 139.518 -2.89156 -1.19825 0
M  V30 1556 C 139.993 -4.31651 -1.53106 0
M  V30 1557 N 141.484 -4.34662 -1.60072 0
M  V30 1558 C 142.219 -5.41928 -1.87354 0
M  V30 1559 N 141.715 -6.59384 -2.12568 0
M  V30 1560 N 143.508 -5.29385 -1.88965 0
M  V30 1561 H 135.659 -2.10073 0.313511 0
M  V30 1562 H 137.922 -0.944803 0.0777862 0
M  V30 1563 H 137.628 -3.50374 -0.305084 0
M  V30 1564 H 137.502 -3.18204 -2.02549 0
M  V30 1565 H 139.889 -2.19141 -1.97639 0
M  V30 1566 H 139.97 -2.54626 -0.244821 0
M  V30 1567 H 139.614 -5.02208 -0.758266 0
M  V30 1568 H 139.544 -4.63678 -2.49621 0
M  V30 1569 H 142.035 -3.49973 -1.42573 0
M  V30 1570 H 142.348 -7.36934 -2.32696 0
M  V30 1571 H 140.693 -6.62535 -2.09933 0
M  V30 1572 H 143.884 -4.36616 -1.68772 0
M  V30 1573 H 144.057 -6.13066 -2.09891 0
M  V30 1574 N 137.463 0.71206 -1.40597 0
M  V30 1575 C 138.693 1.49894 -1.42181 0
M  V30 1576 C 139.101 1.89189 -0.0208078 0
M  V30 1577 O 138.444 1.56223 0.966436 0
M  V30 1578 C 138.506 2.80215 -2.25211 0
M  V30 1579 C 138.17 2.63221 -3.73582 0
M  V30 1580 C 139.167 2.30249 -4.66135 0
M  V30 1581 C 136.852 2.79376 -4.17438 0
M  V30 1582 C 138.846 2.13645 -6.00529 0
M  V30 1583 C 136.533 2.6239 -5.51901 0
M  V30 1584 C 137.531 2.29573 -6.43262 0
M  V30 1585 O 137.219 2.12719 -7.75246 0
M  V30 1586 H 136.951 0.469031 -0.486812 0
M  V30 1587 H 139.505 0.88564 -1.85326 0
M  V30 1588 H 137.735 3.4389 -1.76852 0
M  V30 1589 H 139.424 3.41947 -2.18694 0
M  V30 1590 H 140.19 2.17398 -4.33547 0
M  V30 1591 H 136.069 3.03906 -3.46644 0
M  V30 1592 H 139.613 1.87953 -6.71803 0
M  V30 1593 H 135.51 2.74826 -5.84073 0
M  V30 1594 H 136.278 2.27611 -7.86216 0
M  V30 1595 N 138.941 1.26152 0.944643 0
M  V30 1596 C 140.218 1.02247 1.66748 0
M  V30 1597 C 140.598 -0.448202 2.06287 0
M  V30 1598 O 139.946 -1.42779 1.78399 0
M  V30 1599 C 140.156 1.96788 2.88228 0
M  V30 1600 C 141.504 2.25201 3.59958 0
M  V30 1601 O 142.528 1.94626 2.98327 0
M  V30 1602 O 141.387 2.77242 4.70956 0
M  V30 1603 H 138.481 0.388517 0.730057 0
M  V30 1604 H 141.027 1.37348 0.99668 0
M  V30 1605 H 139.799 2.96047 2.55875 0
M  V30 1606 H 139.422 1.62145 3.63035 0
M  V30 1607 N 140.419 -1.14872 1.07899 0
M  V30 1608 C 141.659 -1.8745 0.814965 0
M  V30 1609 C 142.023 -1.80758 -0.64733 0
M  V30 1610 O 143.224 -2.48422 -1.02664 0
M  V30 1611 C 141.495 -3.32286 1.31607 0
M  V30 1612 S 143.054 -4.22537 1.18357 0
M  V30 1613 H 139.872 -0.646833 0.295174 0
M  V30 1614 H 142.474 -1.38555 1.37923 0
M  V30 1615 H 141.178 -3.34703 2.37491 0
M  V30 1616 H 140.709 -3.86238 0.747261 0
M  V30 1617 H 142.724 -4.96044 0.124586 0
M  V30 1618 N 141.898 -0.863906 -1.31812 0
M  V30 1619 C 143.128 -0.485406 -2.00817 0
M  V30 1620 C 143.536 0.925007 -1.65046 0
M  V30 1621 O 142.879 1.61653 -0.872574 0
M  V30 1622 C 142.941 -0.555589 -3.55181 0
M  V30 1623 C 142.605 -1.92654 -4.14407 0
M  V30 1624 C 143.602 -2.89324 -4.31958 0
M  V30 1625 C 141.287 -2.2262 -4.50273 0
M  V30 1626 C 143.281 -4.14108 -4.84555 0
M  V30 1627 C 140.968 -3.47654 -5.02573 0
M  V30 1628 C 141.966 -4.43214 -5.19664 0
M  V30 1629 O 141.654 -5.66033 -5.70843 0
M  V30 1630 H 141.386 -0.188224 -0.649267 0
M  V30 1631 H 143.94 -1.16514 -1.69156 0
M  V30 1632 H 142.17 0.181037 -3.86276 0
M  V30 1633 H 143.859 -0.19138 -4.05449 0
M  V30 1634 H 144.625 -2.6748 -4.04573 0
M  V30 1635 H 140.504 -1.4902 -4.3625 0
M  V30 1636 H 144.048 -4.88703 -4.9781 0
M  V30 1637 H 139.945 -3.69345 -5.29391 0
M  V30 1638 H 140.713 -5.6812 -5.89222 0
M  V30 1639 N 143.376 1.44774 -0.622745 0
M  V30 1640 C 144.323 2.30635 0.0871679 0
M  V30 1641 C 145.293 1.42994 0.845097 0
M  V30 1642 O 146.478 1.71907 0.827812 0
M  V30 1643 C 143.618 3.28144 1.06844 0
M  V30 1644 C 142.731 4.30888 0.309809 0
M  V30 1645 C 141.866 5.15494 1.28215 0
M  V30 1646 C 140.905 6.09953 0.512198 0
M  V30 1647 N 140.042 6.87287 1.43458 0
M  V30 1648 H 144.882 2.90803 -0.650974 0
M  V30 1649 H 142.419 1.43286 -0.33281 0
M  V30 1650 H 144.377 3.83157 1.65066 0
M  V30 1651 H 143.007 2.69695 1.77382 0
M  V30 1652 H 142.059 3.78414 -0.388181 0
M  V30 1653 H 143.371 4.97955 -0.290254 0
M  V30 1654 H 142.525 5.74983 1.93596 0
M  V30 1655 H 141.264 4.48481 1.91614 0
M  V30 1656 H 140.269 5.49581 -0.155151 0
M  V30 1657 H 141.494 6.78999 -0.116958 0
M  V30 1658 H 139.44 6.2295 2.05594 0
M  V30 1659 H 139.357 7.50763 0.888335 0
M  V30 1660 H 140.625 7.51306 2.07749 0
M  V30 1661 N 144.854 0.36279 1.53368 0
M  V30 1662 C 146.1 -0.228113 2.01513 0
M  V30 1663 C 146.433 -1.48648 1.2497 0
M  V30 1664 O 145.708 -1.91459 0.342616 0
M  V30 1665 C 145.991 -0.522884 3.56284 0
M  V30 1666 C 145.844 0.74892 4.43521 0
M  V30 1667 C 147.163 -1.32461 4.19693 0
M  V30 1668 H 144.282 -0.0814343 0.732487 0
M  V30 1669 H 146.924 0.48713 1.83649 0
M  V30 1670 H 145.074 -1.1322 3.71636 0
M  V30 1671 H 146.746 1.38648 4.39971 0
M  V30 1672 H 144.989 1.36986 4.11603 0
M  V30 1673 H 145.66 0.497667 5.49752 0
M  V30 1674 H 148.136 -0.809203 4.08156 0
M  V30 1675 H 147.012 -1.49961 5.28018 0
M  V30 1676 H 147.273 -2.33232 3.75573 0
M  V30 1677 N 146.332 -1.57332 0.0918853 0
M  V30 1678 C 147.743 -1.81496 -0.437739 0
M  V30 1679 C 148.094 -1.00727 -1.6837 0
M  V30 1680 O 147.219 -0.235694 -2.15113 0
M  V30 1681 C 147.814 -3.29197 -0.800939 0
M  V30 1682 C 146.373 -3.54136 -1.27532 0
M  V30 1683 C 145.52 -2.75979 -0.270392 0
M  V30 1684 H 148.471 -1.55494 0.317366 0
M  V30 1685 H 148.492 -3.42344 -1.66074 0
M  V30 1686 H 148.004 -3.87955 0.106078 0
M  V30 1687 H 146.105 -3.00705 -2.20016 0
M  V30 1688 H 146.218 -4.62792 -1.23938 0
M  V30 1689 H 144.582 -2.43349 -0.751872 0
M  V30 1690 H 145.365 -3.37484 0.629248 0
M  V30 1691 N 147.81 0.181792 -1.56548 0
M  V30 1692 C 148.72 1.24538 -1.98815 0
M  V30 1693 C 149.736 1.49045 -0.897861 0
M  V30 1694 O 150.912 1.61399 -1.20467 0
M  V30 1695 C 147.977 2.56683 -2.33055 0
M  V30 1696 C 147.038 2.40131 -3.55859 0
M  V30 1697 C 146.271 3.65975 -3.88456 0
M  V30 1698 O 146.494 4.70711 -3.22161 0
M  V30 1699 O 145.428 3.6071 -4.81842 0
M  V30 1700 H 149.254 0.916647 -2.89536 0
M  V30 1701 H 146.839 0.387842 -1.44278 0
M  V30 1702 H 148.721 3.34655 -2.56094 0
M  V30 1703 H 147.396 2.89157 -1.45498 0
M  V30 1704 H 146.303 1.60226 -3.38051 0
M  V30 1705 H 147.636 2.12585 -4.43924 0
M  V30 1706 N 149.288 1.51039 0.449983 0
M  V30 1707 C 150.534 1.64287 1.19923 0
M  V30 1708 C 150.889 0.348701 1.89214 0
M  V30 1709 O 150.182 -0.654751 1.80065 0
M  V30 1710 C 150.376 2.77556 2.25161 0
M  V30 1711 C 150.205 4.17862 1.66198 0
M  V30 1712 C 148.975 4.83976 1.45243 0
M  V30 1713 C 151.173 5.01388 1.14519 0
M  V30 1714 N 149.155 6.08433 0.817437 0
M  V30 1715 C 150.526 6.16743 0.634705 0
M  V30 1716 C 152.581 4.87008 1.03574 0
M  V30 1717 C 151.284 7.19295 0.0255452 0
M  V30 1718 C 153.31 5.89757 0.440489 0
M  V30 1719 C 152.672 7.04375 -0.0595112 0
M  V30 1720 H 148.771 0.655161 0.426952 0
M  V30 1721 H 151.355 1.88228 0.49781 0
M  V30 1722 H 149.526 2.553 2.92706 0
M  V30 1723 H 151.258 2.80049 2.92155 0
M  V30 1724 H 148.013 4.41627 1.71063 0
M  V30 1725 H 148.437 6.75017 0.517747 0
M  V30 1726 H 153.079 3.9866 1.4082 0
M  V30 1727 H 150.797 8.07302 -0.359071 0
M  V30 1728 H 154.383 5.80698 0.35788 0
M  V30 1729 H 153.263 7.82521 -0.512882 0
M  V30 1730 N 150.766 -0.704594 1.40972 0
M  V30 1731 C 152.006 -1.47691 1.41304 0
M  V30 1732 C 152.37 -1.91992 0.0178582 0
M  V30 1733 O 153.571 -2.68599 -0.103996 0
M  V30 1734 C 151.842 -2.66254 2.38419 0
M  V30 1735 S 153.401 -3.55516 2.57204 0
M  V30 1736 H 150.219 -0.504808 0.500689 0
M  V30 1737 H 152.821 -0.822962 1.77335 0
M  V30 1738 H 151.525 -2.31897 3.38603 0
M  V30 1739 H 151.056 -3.3655 2.03711 0
M  V30 1740 H 153.071 -4.61115 1.83268 0
M  V30 1741 N 152.244 -1.26651 -0.937939 0
M  V30 1742 C 153.174 -1.10993 -2.05433 0
M  V30 1743 C 154.155 -0.0142161 -1.70094 0
M  V30 1744 O 155.34 -0.186837 -1.93299 0
M  V30 1745 C 152.47 -0.745561 -3.39203 0
M  V30 1746 C 151.424 -1.79337 -3.88616 0
M  V30 1747 C 150.75 -1.28324 -5.19073 0
M  V30 1748 C 152.05 -3.19553 -4.13138 0
M  V30 1749 H 153.744 -2.0438 -2.1879 0
M  V30 1750 H 151.29 -0.984041 -1.05131 0
M  V30 1751 H 153.243 -0.622888 -4.16771 0
M  V30 1752 H 151.967 0.22401 -3.25831 0
M  V30 1753 H 150.626 -1.90477 -3.13231 0
M  V30 1754 H 150.274 -0.303414 -5.02084 0
M  V30 1755 H 149.974 -1.98369 -5.53103 0
M  V30 1756 H 151.498 -1.1733 -5.99221 0
M  V30 1757 H 152.912 -3.11471 -4.81309 0
M  V30 1758 H 151.309 -3.87218 -4.58457 0
M  V30 1759 H 152.379 -3.65368 -3.18801 0
M  V30 1760 N 153.722 1.14298 -1.08507 0
M  V30 1761 C 154.999 1.81544 -0.728088 0
M  V30 1762 C 155.379 1.95838 0.78808 0
M  V30 1763 O 154.727 1.51904 1.70697 0
M  V30 1764 C 154.937 3.17169 -1.45619 0
M  V30 1765 C 156.285 3.9265 -1.61591 0
M  V30 1766 O 157.309 3.26762 -1.41793 0
M  V30 1767 O 156.168 5.10807 -1.94263 0
M  V30 1768 H 153.262 0.78491 -0.260471 0
M  V30 1769 H 155.808 1.21307 -1.18671 0
M  V30 1770 H 154.58 3.01934 -2.489 0
M  V30 1771 H 154.203 3.851 -0.989124 0
M  V30 1772 N 155.201 0.870884 1.31352 0
M  V30 1773 C 156.478 0.402907 1.91405 0
M  V30 1774 C 156.858 -1.11512 1.79244 0
M  V30 1775 O 156.206 -1.94411 1.2007 0
M  V30 1776 C 156.416 0.885301 3.37585 0
M  V30 1777 C 157.764 0.911971 4.14691 0
M  V30 1778 O 158.788 0.831016 3.46371 0
M  V30 1779 O 157.647 1.02927 5.3672 0
M  V30 1780 H 154.741 0.120698 0.818145 0
M  V30 1781 H 157.287 0.958857 1.40014 0
M  V30 1782 H 156.059 1.92889 3.40455 0
M  V30 1783 H 155.682 0.307714 3.96407 0
M  V30 1784 N 156.679 -1.44442 0.630414 0
M  V30 1785 C 157.925 -2.02894 0.143332 0
M  V30 1786 C 158.28 -1.48697 -1.22094 0
M  V30 1787 O 157.573 -0.661171 -1.79831 0
M  V30 1788 C 157.767 -3.57332 0.0697835 0
M  V30 1789 C 157.596 -4.26512 1.42539 0
M  V30 1790 C 156.366 -4.63516 2.01198 0
M  V30 1791 C 158.564 -4.57004 2.35907 0
M  V30 1792 N 156.546 -5.17661 3.30001 0
M  V30 1793 C 157.917 -5.12223 3.49324 0
M  V30 1794 C 159.972 -4.38955 2.34995 0
M  V30 1795 C 158.675 -5.51295 4.62024 0
M  V30 1796 C 160.701 -4.79075 3.46758 0
M  V30 1797 C 160.063 -5.34407 4.58899 0
M  V30 1798 H 156.162 -0.776041 0.0963523 0
M  V30 1799 H 158.746 -1.75945 0.833752 0
M  V30 1800 H 156.917 -3.83894 -0.589915 0
M  V30 1801 H 158.649 -4.02451 -0.42606 0
M  V30 1802 H 155.404 -4.47811 1.54151 0
M  V30 1803 H 155.828 -5.4921 3.95851 0
M  V30 1804 H 160.47 -3.95469 1.49545 0
M  V30 1805 H 158.188 -5.93736 5.48182 0
M  V30 1806 H 161.774 -4.66824 3.47227 0
M  V30 1807 H 160.654 -5.64878 5.4395 0
M  V30 1808 N 158.157 -0.370918 -1.53173 0
M  V30 1809 C 159.107 0.489588 -2.22681 0
M  V30 1810 C 160.091 1.04442 -1.22395 0
M  V30 1811 O 161.283 0.973578 -1.47819 0
M  V30 1812 C 158.412 1.626 -3.02351 0
M  V30 1813 C 157.498 1.08379 -4.10018 0
M  V30 1814 N 157.889 0.265004 -5.05105 0
M  V30 1815 C 156.187 1.35809 -4.2482 0
M  V30 1816 C 156.888 -0.0324755 -5.81691 0
M  V30 1817 N 155.864 0.566581 -5.40639 0
M  V30 1818 H 159.666 -0.142729 -2.93553 0
M  V30 1819 H 157.18 -0.179221 -1.61408 0
M  V30 1820 H 159.177 2.2547 -3.50669 0
M  V30 1821 H 157.837 2.26132 -2.33011 0
M  V30 1822 H 158.848 -0.0962352 -5.17811 0
M  V30 1823 H 155.525 1.9958 -3.66707 0
M  V30 1824 H 156.915 -0.69473 -6.68299 0
M  V30 1825 N 159.635 1.57281 -0.100228 0
M  V30 1826 C 161.046 1.81725 0.428107 0
M  V30 1827 C 161.397 1.01619 1.67833 0
M  V30 1828 O 160.522 0.247098 2.14985 0
M  V30 1829 C 161.117 3.29617 0.78347 0
M  V30 1830 C 159.676 3.54808 1.25653 0
M  V30 1831 C 158.823 2.76118 0.255752 0
M  V30 1832 H 161.774 1.55324 -0.325608 0
M  V30 1833 H 161.795 3.4322 1.64256 0
M  V30 1834 H 161.307 3.87893 -0.12665 0
M  V30 1835 H 159.408 3.01868 2.18418 0
M  V30 1836 H 159.521 4.63443 1.21482 0
M  V30 1837 H 157.885 2.43745 0.738956 0
M  V30 1838 H 158.668 3.37145 -0.647136 0
M  V30 1839 N 161.113 -0.173488 1.56642 0
M  V30 1840 C 162.338 -0.910149 1.86363 0
M  V30 1841 C 162.763 -1.75132 0.686318 0
M  V30 1842 O 162.121 -1.77595 -0.364643 0
M  V30 1843 C 162.169 -1.76447 3.14482 0
M  V30 1844 O 161.273 -2.86584 2.96553 0
M  V30 1845 H 160.614 -0.255086 0.613047 0
M  V30 1846 H 163.144 -0.172283 2.03873 0
M  V30 1847 H 163.154 -2.16483 3.45831 0
M  V30 1848 H 161.829 -1.14658 3.99783 0
M  V30 1849 H 160.406 -2.50146 2.76553 0
M  V30 1850 N 162.591 -1.51276 -0.441967 0
M  V30 1851 C 163.501 -1.75092 -1.56141 0
M  V30 1852 C 164.517 -0.634963 -1.62001 0
M  V30 1853 O 165.693 -0.916686 -1.79329 0
M  V30 1854 C 162.758 -1.86666 -2.92158 0
M  V30 1855 C 161.819 -3.10506 -2.96453 0
M  V30 1856 C 161.052 -3.21519 -4.25982 0
M  V30 1857 O 161.275 -2.38586 -5.18105 0
M  V30 1858 O 160.209 -4.14465 -4.36466 0
M  V30 1859 H 164.035 -2.70044 -1.38961 0
M  V30 1860 H 161.62 -1.35722 -0.624499 0
M  V30 1861 H 163.502 -1.96292 -3.72891 0
M  V30 1862 H 162.177 -0.949014 -3.09476 0
M  V30 1863 H 161.084 -3.06363 -2.14692 0
M  V30 1864 H 162.417 -4.01945 -2.84079 0
M  V30 1865 N 164.069 0.697108 -1.41344 0
M  V30 1866 C 165.016 1.81106 -1.43071 0
M  V30 1867 C 165.986 1.63632 -0.285275 0
M  V30 1868 O 167.171 1.84504 -0.486091 0
M  V30 1869 C 164.311 3.18975 -1.31715 0
M  V30 1870 C 163.424 3.47892 -2.56115 0
M  V30 1871 C 162.559 4.75367 -2.37064 0
M  V30 1872 C 161.598 4.97247 -3.56948 0
M  V30 1873 N 160.735 6.15947 -3.36977 0
M  V30 1874 H 165.575 1.78965 -2.38276 0
M  V30 1875 H 163.112 0.873975 -1.18322 0
M  V30 1876 H 165.07 3.98615 -1.23133 0
M  V30 1877 H 163.7 3.20297 -0.401183 0
M  V30 1878 H 162.752 2.62669 -2.75153 0
M  V30 1879 H 164.064 3.59962 -3.45295 0
M  V30 1880 H 163.218 5.63059 -2.25941 0
M  V30 1881 H 161.957 4.65541 -1.45338 0
M  V30 1882 H 160.962 4.08004 -3.68527 0
M  V30 1883 H 162.187 5.08934 -4.49626 0
M  V30 1884 H 160.133 6.07336 -2.47949 0
M  V30 1885 H 160.05 6.28777 -4.19732 0
M  V30 1886 H 161.318 7.06377 -3.29623 0
M  V30 1887 N 165.547 1.27147 0.931209 0
M  V30 1888 C 166.51 1.09615 2.01289 0
M  V30 1889 C 167.51 0.0412581 1.60747 0
M  V30 1890 O 168.7 0.285545 1.71844 0
M  V30 1891 C 165.832 0.669447 3.34262 0
M  V30 1892 H 167.025 2.05662 2.18273 0
M  V30 1893 H 164.578 1.09885 1.11153 0
M  V30 1894 H 165.313 -0.292572 3.22978 0
M  V30 1895 H 165.098 1.43127 3.65044 0
M  V30 1896 H 166.588 0.568921 4.13706 0
M  V30 1897 N 167.025 -1.13721 1.09112 0
M  V30 1898 C 167.958 -2.18094 0.67158 0
M  V30 1899 C 168.936 -1.59414 -0.320299 0
M  V30 1900 O 170.12 -1.87183 -0.222444 0
M  V30 1901 C 167.247 -3.38698 -0.0111189 0
M  V30 1902 C 166.293 -4.15966 0.942055 0
M  V30 1903 S 167.126 -4.7604 2.45246 0
M  V30 1904 C 168.282 -5.99994 1.78208 0
M  V30 1905 H 168.515 -2.53344 1.55577 0
M  V30 1906 H 166.048 -1.24967 0.906789 0
M  V30 1907 H 168.006 -4.08559 -0.398716 0
M  V30 1908 H 166.667 -3.01756 -0.871905 0
M  V30 1909 H 165.86 -5.02318 0.411396 0
M  V30 1910 H 165.462 -3.51745 1.2709 0
M  V30 1911 H 167.754 -6.68441 1.10424 0
M  V30 1912 H 168.697 -6.57662 2.62463 0
M  V30 1913 H 169.105 -5.50432 1.25238 0
M  V30 1914 N 168.503 -0.877838 -1.30888 0
M  V30 1915 C 169.733 -0.506678 -2.00291 0
M  V30 1916 C 170.141 0.907449 -1.66018 0
M  V30 1917 O 169.484 1.60719 -0.88967 0
M  V30 1918 C 169.546 -0.59323 -3.54572 0
M  V30 1919 C 169.21 -1.97038 -4.12341 0
M  V30 1920 C 170.207 -2.93889 -4.28865 0
M  V30 1921 C 167.892 -2.27383 -4.47886 0
M  V30 1922 C 169.886 -4.19224 -4.80136 0
M  V30 1923 C 167.573 -3.52965 -4.98857 0
M  V30 1924 C 168.571 -4.48701 -5.14934 0
M  V30 1925 O 168.259 -5.72056 -5.64808 0
M  V30 1926 H 167.991 -0.1951 -0.647234 0
M  V30 1927 H 170.545 -1.18301 -1.6791 0
M  V30 1928 H 168.775 0.140057 -3.86446 0
M  V30 1929 H 170.464 -0.234372 -4.05223 0
M  V30 1930 H 171.23 -2.71756 -4.01714 0
M  V30 1931 H 167.109 -1.53639 -4.34645 0
M  V30 1932 H 170.653 -4.93956 -4.92599 0
M  V30 1933 H 166.55 -3.74939 -5.25443 0
M  V30 1934 H 167.318 -5.74337 -5.83163 0
M  V30 1935 N 169.982 1.44106 -0.638065 0
M  V30 1936 C 171.393 1.85316 -0.226894 0
M  V30 1937 C 171.744 1.53399 1.22324 0
M  V30 1938 O 170.869 0.975463 1.93167 0
M  V30 1939 C 171.464 3.3637 -0.405013 0
M  V30 1940 C 170.023 3.76369 -0.0482902 0
M  V30 1941 C 169.17 2.67921 -0.715108 0
M  V30 1942 H 172.121 1.34474 -0.842764 0
M  V30 1943 H 172.142 3.7885 0.354 0
M  V30 1944 H 171.654 3.59569 -1.46053 0
M  V30 1945 H 169.755 3.58784 1.00522 0
M  V30 1946 H 169.868 4.76856 -0.463187 0
M  V30 1947 H 168.232 2.54259 -0.149753 0
M  V30 1948 H 169.015 2.93951 -1.77335 0
M  V30 1949 N 171.46 0.379036 1.52974 0
M  V30 1950 C 172.737 -0.263479 1.93817 0
M  V30 1951 C 173.117 -1.65244 1.31368 0
M  V30 1952 O 172.465 -2.23448 0.477856 0
M  V30 1953 C 172.675 -0.300166 3.47707 0
M  V30 1954 C 174.023 -0.534061 4.21228 0
M  V30 1955 O 175.047 -0.38081 3.54159 0
M  V30 1956 O 173.906 -0.833501 5.40106 0
M  V30 1957 H 171 -0.161149 0.811147 0
M  V30 1958 H 173.546 0.432798 1.64088 0
M  V30 1959 H 172.318 0.673138 3.85467 0
M  V30 1960 H 171.941 -1.04179 3.83709 0
M  V30 1961 N 172.938 -1.57226 0.108567 0
M  V30 1962 C 174.168 -1.9889 -0.559142 0
M  V30 1963 C 174.576 -0.986889 -1.61422 0
M  V30 1964 O 173.919 0.0298705 -1.83676 0
M  V30 1965 C 173.981 -3.36952 -1.25315 0
M  V30 1966 C 173.645 -4.55679 -0.347248 0
M  V30 1967 C 174.642 -5.18281 0.409996 0
M  V30 1968 C 172.327 -5.0162 -0.261367 0
M  V30 1969 C 174.321 -6.25203 1.24096 0
M  V30 1970 C 172.008 -6.08405 0.573238 0
M  V30 1971 C 173.006 -6.70063 1.32304 0
M  V30 1972 O 172.694 -7.74788 2.14381 0
M  V30 1973 H 172.426 -0.658343 -0.153492 0
M  V30 1974 H 174.98 -2.04532 0.188584 0
M  V30 1975 H 173.21 -3.28032 -2.04773 0
M  V30 1976 H 174.899 -3.62974 -1.81673 0
M  V30 1977 H 175.665 -4.8371 0.353457 0
M  V30 1978 H 171.544 -4.53381 -0.834656 0
M  V30 1979 H 175.088 -6.73259 1.82669 0
M  V30 1980 H 170.985 -6.42406 0.631208 0
M  V30 1981 H 171.753 -7.91837 2.07209 0
M  V30 1982 N 174.416 0.165178 -1.56732 0
M  V30 1983 C 175.663 0.880807 -1.8234 0
M  V30 1984 C 175.991 1.81977 -0.686621 0
M  V30 1985 O 175.246 1.92971 0.325697 0
M  V30 1986 C 175.545 1.70405 -3.1416 0
M  V30 1987 C 175.211 0.913475 -4.4155 0
M  V30 1988 C 173.873 0.695303 -4.7615 0
M  V30 1989 C 176.225 0.359349 -5.1996 0
M  V30 1990 C 173.553 -0.0879947 -5.86634 0
M  V30 1991 C 175.905 -0.410893 -6.31264 0
M  V30 1992 C 174.569 -0.639808 -6.64427 0
M  V30 1993 H 173.839 0.32231 -0.667231 0
M  V30 1994 H 176.486 0.145402 -1.90947 0
M  V30 1995 H 174.791 2.50903 -3.00923 0
M  V30 1996 H 176.488 2.26091 -3.31186 0
M  V30 1997 H 173.078 1.09357 -4.14414 0
M  V30 1998 H 177.262 0.515228 -4.93618 0
M  V30 1999 H 172.518 -0.27503 -6.10781 0
M  V30 2000 H 176.692 -0.847494 -6.91224 0
M  V30 2001 H 174.319 -1.24864 -7.49875 0
M  V30 2002 N 175.894 1.51508 0.433938 0
M  V30 2003 C 176.857 1.72473 1.50949 0
M  V30 2004 C 177.857 0.594725 1.49398 0
M  V30 2005 O 179.047 0.862315 1.5136 0
M  V30 2006 C 176.179 1.78431 2.90474 0
M  V30 2007 H 177.372 2.68467 1.33662 0
M  V30 2008 H 174.925 1.41549 0.662836 0
M  V30 2009 H 175.66 0.842645 3.13161 0
M  V30 2010 H 175.445 2.60558 2.93005 0
M  V30 2011 H 176.935 1.96479 3.68491 0
M  V30 2012 N 177.372 -0.689602 1.41712 0
M  V30 2013 C 178.319 -1.80345 1.44029 0
M  V30 2014 C 179.289 -1.63478 0.293948 0
M  V30 2015 O 180.474 -1.84244 0.495869 0
M  V30 2016 C 177.614 -3.18272 1.33405 0
M  V30 2017 C 176.727 -3.46529 2.57956 0
M  V30 2018 C 175.862 -4.74103 2.39582 0
M  V30 2019 C 174.901 -4.95347 3.5958 0
M  V30 2020 N 174.038 -6.14151 3.40239 0
M  V30 2021 H 178.878 -1.77698 2.39222 0
M  V30 2022 H 176.415 -0.867688 1.18784 0
M  V30 2023 H 178.373 -3.97956 1.25246 0
M  V30 2024 H 177.003 -3.2008 0.418164 0
M  V30 2025 H 176.055 -2.61207 2.76542 0
M  V30 2026 H 177.367 -3.58126 3.47199 0
M  V30 2027 H 176.521 -5.61853 2.28924 0
M  V30 2028 H 175.26 -4.64763 1.47805 0
M  V30 2029 H 174.265 -4.06044 3.70686 0
M  V30 2030 H 175.49 -5.06542 4.52318 0
M  V30 2031 H 173.436 -6.06013 2.51167 0
M  V30 2032 H 173.353 -6.26543 4.23061 0
M  V30 2033 H 174.621 -7.04619 3.33365 0
M  V30 2034 N 178.85 -1.27639 -0.924453 0
M  V30 2035 C 180.266 -1.05113 -1.20097 0
M  V30 2036 C 180.466 0.213262 -2.00368 0
M  V30 2037 O 179.522 0.91787 -2.35226 0
M  V30 2038 C 180.835 -2.29244 -1.94596 0
M  V30 2039 C 182.383 -2.34315 -2.07522 0
M  V30 2040 C 182.858 -3.58183 -2.85427 0
M  V30 2041 N 184.349 -3.5876 -2.92994 0
M  V30 2042 C 185.084 -4.51277 -3.53746 0
M  V30 2043 N 184.58 -5.54102 -4.15863 0
M  V30 2044 N 186.373 -4.38894 -3.51181 0
M  V30 2045 H 178.524 -2.08821 -0.388264 0
M  V30 2046 H 180.787 -0.918568 -0.234385 0
M  V30 2047 H 180.493 -3.21301 -1.43034 0
M  V30 2048 H 180.367 -2.34816 -2.95197 0
M  V30 2049 H 182.754 -1.42762 -2.58269 0
M  V30 2050 H 182.835 -2.32744 -1.06131 0
M  V30 2051 H 182.479 -4.50074 -2.35363 0
M  V30 2052 H 182.409 -3.57006 -3.8711 0
M  V30 2053 H 184.9 -2.84398 -2.4885 0
M  V30 2054 H 185.213 -6.20859 -4.60168 0
M  V30 2055 H 183.558 -5.57941 -4.144 0
M  V30 2056 H 186.749 -3.57772 -3.01856 0
M  V30 2057 H 186.922 -5.11186 -3.98237 0
M  V30 2058 N 180.328 1.1314 -1.09713 0
M  V30 2059 C 181.238 2.22242 -0.751367 0
M  V30 2060 C 182.254 1.72224 0.247938 0
M  V30 2061 O 183.43 2.01205 0.0885463 0
M  V30 2062 C 180.495 3.46231 -0.180274 0
M  V30 2063 C 179.556 4.11125 -1.2359 0
M  V30 2064 C 178.789 5.29195 -0.691966 0
M  V30 2065 O 179.012 5.68342 0.48414 0
M  V30 2066 O 177.946 5.84214 -1.44838 0
M  V30 2067 H 181.772 2.54197 -1.66186 0
M  V30 2068 H 179.357 1.21331 -0.871735 0
M  V30 2069 H 181.239 4.21185 0.134739 0
M  V30 2070 H 179.914 3.1597 0.703185 0
M  V30 2071 H 178.821 3.37985 -1.60366 0
M  V30 2072 H 180.154 4.45524 -2.09211 0
M  V30 2073 N 181.806 0.884767 1.30421 0
M  V30 2074 C 182.738 0.308655 2.27112 0
M  V30 2075 C 183.751 -0.536655 1.53701 0
M  V30 2076 O 184.94 -0.35624 1.74909 0
M  V30 2077 C 182.04 -0.579782 3.33904 0
M  V30 2078 C 181.213 0.236417 4.36761 0
M  V30 2079 C 180.272 -0.582482 5.22966 0
M  V30 2080 O 179.298 -0.00525502 5.692 0
M  V30 2081 N 180.5 -1.89163 5.48815 0
M  V30 2082 H 183.265 1.13964 2.77186 0
M  V30 2083 H 180.826 0.747731 1.43599 0
M  V30 2084 H 182.818 -1.13366 3.88497 0
M  V30 2085 H 181.388 -1.31144 2.83761 0
M  V30 2086 H 180.608 0.97174 3.82035 0
M  V30 2087 H 181.896 0.795924 5.02536 0
M  V30 2088 H 181.294 -2.38352 5.13035 0
M  V30 2089 H 179.851 -2.39296 6.06284 0
M  V30 2090 N 183.284 -1.43765 0.645699 0
M  V30 2091 C 184.53 -2.02731 0.164844 0
M  V30 2092 C 184.885 -1.49983 -1.2051 0
M  V30 2093 O 184.178 -0.680208 -1.79119 0
M  V30 2094 C 184.372 -3.57238 0.107679 0
M  V30 2095 C 184.201 -4.24977 1.47054 0
M  V30 2096 C 182.971 -4.61356 2.06103 0
M  V30 2097 C 185.169 -4.54476 2.40741 0
M  V30 2098 N 183.151 -5.14132 3.35473 0
M  V30 2099 C 184.522 -5.08489 3.54737 0
M  V30 2100 C 186.577 -4.36438 2.39637 0
M  V30 2101 C 185.28 -5.46364 4.67845 0
M  V30 2102 C 187.306 -4.7537 3.5182 0
M  V30 2103 C 186.668 -5.2951 4.64541 0
M  V30 2104 H 182.767 -0.774976 0.104578 0
M  V30 2105 H 185.351 -1.75051 0.852367 0
M  V30 2106 H 183.522 -3.84498 -0.549165 0
M  V30 2107 H 185.254 -4.0288 -0.383351 0
M  V30 2108 H 182.009 -4.46151 1.58892 0
M  V30 2109 H 182.433 -5.4498 4.01654 0
M  V30 2110 H 187.075 -3.93861 1.53731 0
M  V30 2111 H 184.793 -5.87888 5.54448 0
M  V30 2112 H 188.379 -4.63115 3.52159 0
M  V30 2113 H 187.259 -5.59077 5.49911 0
M  V30 2114 N 184.763 -0.387143 -1.52771 0
M  V30 2115 C 185.71 0.449048 -2.26389 0
M  V30 2116 C 186.68 1.05961 -1.27912 0
M  V30 2117 O 187.865 1.08804 -1.56737 0
M  V30 2118 C 185.005 1.57155 -3.0724 0
M  V30 2119 C 184.118 0.984066 -4.20643 0
M  V30 2120 C 183.253 2.07745 -4.88892 0
M  V30 2121 C 182.292 1.46574 -5.94292 0
M  V30 2122 N 181.429 2.49834 -6.56146 0
M  V30 2123 H 186.269 -0.185205 -2.97424 0
M  V30 2124 H 183.806 -0.103164 -1.46738 0
M  V30 2125 H 185.764 2.23309 -3.52405 0
M  V30 2126 H 184.394 2.17615 -2.38419 0
M  V30 2127 H 183.446 0.212193 -3.79808 0
M  V30 2128 H 184.758 0.497029 -4.96318 0
M  V30 2129 H 183.912 2.81673 -5.3735 0
M  V30 2130 H 182.651 2.59807 -4.12737 0
M  V30 2131 H 181.656 0.711696 -5.45174 0
M  V30 2132 H 182.881 0.953088 -6.72379 0
M  V30 2133 H 180.827 3.0107 -5.82832 0
M  V30 2134 H 180.744 2.05879 -7.27427 0
M  V30 2135 H 182.012 3.23399 -7.09249 0
M  V30 2136 N 186.241 1.57166 -0.116904 0
M  V30 2137 C 187.188 2.15202 0.83408 0
M  V30 2138 C 188.158 1.07644 1.26499 0
M  V30 2139 O 189.343 1.35541 1.34288 0
M  V30 2140 C 186.483 2.75405 2.07957 0
M  V30 2141 C 185.596 3.97264 1.69721 0
M  V30 2142 C 184.731 4.45561 2.89221 0
M  V30 2143 C 183.77 5.59956 2.47215 0
M  V30 2144 N 182.907 6.03006 3.59622 0
M  V30 2145 H 187.747 2.96141 0.332335 0
M  V30 2146 H 185.284 1.46309 0.152349 0
M  V30 2147 H 187.242 3.08439 2.80929 0
M  V30 2148 H 185.872 1.97159 2.55594 0
M  V30 2149 H 184.924 3.70404 0.866316 0
M  V30 2150 H 186.236 4.80226 1.34849 0
M  V30 2151 H 185.39 4.80493 3.7042 0
M  V30 2152 H 184.129 3.61544 3.27318 0
M  V30 2153 H 183.134 5.2463 1.64448 0
M  V30 2154 H 184.359 6.45738 2.10238 0
M  V30 2155 H 182.305 5.21931 3.97396 0
M  V30 2156 H 182.222 6.80819 3.28667 0
M  V30 2157 H 183.49 6.42576 4.41267 0
M  V30 2158 N 187.719 -0.156864 1.56817 0
M  V30 2159 C 188.649 -1.19589 2.00551 0
M  V30 2160 C 189.63 -1.4536 0.883426 0
M  V30 2161 O 190.815 -1.56449 1.15054 0
M  V30 2162 C 187.945 -2.53143 2.37773 0
M  V30 2163 C 186.899 -2.41913 3.53075 0
M  V30 2164 C 186.225 -3.80088 3.76081 0
M  V30 2165 C 187.525 -1.91157 4.86062 0
M  V30 2166 H 189.219 -0.832293 2.87599 0
M  V30 2167 H 186.765 -0.398918 1.38364 0
M  V30 2168 H 188.718 -3.26047 2.66967 0
M  V30 2169 H 187.442 -2.91319 1.4765 0
M  V30 2170 H 186.101 -1.71462 3.24031 0
M  V30 2171 H 185.749 -4.15683 2.83225 0
M  V30 2172 H 185.449 -3.73439 4.53671 0
M  V30 2173 H 186.973 -4.54556 4.0769 0
M  V30 2174 H 188.387 -2.53846 5.14038 0
M  V30 2175 H 186.784 -1.95422 5.67389 0
M  V30 2176 H 187.854 -0.866673 4.77092 0
M  V30 2177 N 189.197 -1.51736 -0.425897 0
M  V30 2178 C 190.613 -1.40166 -0.76326 0
M  V30 2179 C 190.813 -0.492962 -1.95377 0
M  V30 2180 O 189.869 0.0475815 -2.52455 0
M  V30 2181 C 191.182 -2.82403 -1.03291 0
M  V30 2182 C 192.73 -2.91632 -1.13665 0
M  V30 2183 C 193.205 -4.34801 -1.43916 0
M  V30 2184 N 194.696 -4.3796 -1.50816 0
M  V30 2185 C 195.431 -5.4578 -1.75817 0
M  V30 2186 N 194.927 -6.63744 -1.98534 0
M  V30 2187 N 196.72 -5.33274 -1.77694 0
M  V30 2188 H 188.871 -2.09361 0.358 0
M  V30 2189 H 191.134 -0.942941 0.0978094 0
M  V30 2190 H 190.84 -3.50943 -0.230696 0
M  V30 2191 H 190.714 -3.22428 -1.95754 0
M  V30 2192 H 193.101 -2.23284 -1.92947 0
M  V30 2193 H 193.182 -2.55088 -0.190756 0
M  V30 2194 H 192.826 -5.03703 -0.65157 0
M  V30 2195 H 192.756 -4.68868 -2.39729 0
M  V30 2196 H 195.247 -3.52919 -1.35118 0
M  V30 2197 H 195.56 -7.41704 -2.17013 0
M  V30 2198 H 193.905 -6.66839 -1.95832 0
M  V30 2199 H 197.096 -4.40098 -1.59473 0
M  V30 2200 H 197.269 -6.1738 -1.9684 0
M  V30 2201 N 190.675 0.682077 -1.42076 0
M  V30 2202 C 192.091 0.994324 -1.24841 0
M  V30 2203 C 192.291 2.0096 -0.147389 0
M  V30 2204 O 191.347 2.47822 0.483782 0
M  V30 2205 C 192.66 1.50607 -2.60265 0
M  V30 2206 C 194.208 1.62421 -2.6756 0
M  V30 2207 C 194.683 2.16994 -4.03333 0
M  V30 2208 N 196.174 2.24337 -4.0525 0
M  V30 2209 C 196.909 2.67621 -5.07116 0
M  V30 2210 N 196.405 3.1041 -6.19368 0
M  V30 2211 N 198.198 2.67305 -4.94474 0
M  V30 2212 H 190.349 0.00973908 -2.12398 0
M  V30 2213 H 192.612 0.0668593 -0.945639 0
M  V30 2214 H 192.318 0.834583 -3.41654 0
M  V30 2215 H 192.192 2.48602 -2.83684 0
M  V30 2216 H 194.579 2.28678 -1.86521 0
M  V30 2217 H 194.66 0.629352 -2.47937 0
M  V30 2218 H 194.304 1.51349 -4.84826 0
M  V30 2219 H 194.234 3.17258 -4.20304 0
M  V30 2220 H 196.725 1.94158 -3.24209 0
M  V30 2221 H 197.038 3.42103 -6.92954 0
M  V30 2222 H 195.383 3.08286 -6.22884 0
M  V30 2223 H 198.574 2.33233 -4.05857 0
M  V30 2224 H 198.747 3.00718 -5.73997 0
M  V30 2225 N 192.153 1.28127 0.917671 0
M  V30 2226 C 193.063 1.13556 2.05286 0
M  V30 2227 C 194.079 0.0630914 1.73886 0
M  V30 2228 O 195.255 0.271598 1.9956 0
M  V30 2229 C 192.32 0.794676 3.3747 0
M  V30 2230 C 191.381 1.94909 3.82504 0
M  V30 2231 C 190.614 1.62437 5.0838 0
M  V30 2232 O 190.837 0.536905 5.67867 0
M  V30 2233 O 189.771 2.46677 5.4903 0
M  V30 2234 H 193.597 2.08844 2.20495 0
M  V30 2235 H 191.182 1.07409 1.03845 0
M  V30 2236 H 193.064 0.618344 4.16839 0
M  V30 2237 H 191.739 -0.128581 3.23445 0
M  V30 2238 H 190.646 2.18055 3.03978 0
M  V30 2239 H 191.979 2.85291 4.01086 0
M  V30 2240 N 193.631 -1.12557 1.10312 0
M  V30 2241 C 194.856 -1.88405 0.867085 0
M  V30 2242 C 195.281 -1.79038 -0.576817 0
M  V30 2243 O 194.639 -1.14439 -1.40618 0
M  V30 2244 C 194.687 -3.3563 1.31851 0
M  V30 2245 O 193.791 -4.09565 0.482734 0
M  V30 2246 H 193.132 -0.585455 0.313271 0
M  V30 2247 H 195.662 -1.42352 1.4696 0
M  V30 2248 H 195.672 -3.86469 1.3079 0
M  V30 2249 H 194.347 -3.41765 2.37001 0
M  V30 2250 H 192.924 -3.68695 0.558448 0
M  V30 2251 N 195.109 -0.891671 -1.2995 0
M  V30 2252 C 196.355 -0.523649 -1.96544 0
M  V30 2253 C 196.71 0.918394 -1.69066 0
M  V30 2254 O 196.003 1.64122 -0.988659 0
M  V30 2255 C 196.197 -0.742868 -3.49594 0
M  V30 2256 C 196.026 -2.20467 -3.9195 0
M  V30 2257 C 194.796 -2.85055 -4.17219 0
M  V30 2258 C 196.994 -3.17912 -4.04273 0
M  V30 2259 N 194.976 -4.21762 -4.46083 0
M  V30 2260 C 196.347 -4.39712 -4.37097 0
M  V30 2261 C 198.402 -3.1361 -3.86721 0
M  V30 2262 C 197.105 -5.5776 -4.54199 0
M  V30 2263 C 199.131 -4.30936 -4.05028 0
M  V30 2264 C 198.493 -5.51504 -4.38204 0
M  V30 2265 H 194.592 -0.241072 -0.743914 0
M  V30 2266 H 197.176 -1.15081 -1.5705 0
M  V30 2267 H 195.347 -0.14515 -3.88129 0
M  V30 2268 H 197.079 -0.341081 -4.0326 0
M  V30 2269 H 193.834 -2.35889 -4.10674 0
M  V30 2270 H 194.258 -4.92382 -4.64638 0
M  V30 2271 H 198.9 -2.21489 -3.60142 0
M  V30 2272 H 196.618 -6.50379 -4.79618 0
M  V30 2273 H 200.204 -4.29085 -3.92909 0
M  V30 2274 H 199.084 -6.40778 -4.52077 0
M  V30 2275 N 196.587 1.43421 -0.653314 0
M  V30 2276 C 197.497 2.34568 0.0388565 0
M  V30 2277 C 198.513 1.53888 0.81207 0
M  V30 2278 O 199.689 1.86539 0.759294 0
M  V30 2279 C 196.754 3.32167 0.993269 0
M  V30 2280 C 195.815 4.28751 0.216977 0
M  V30 2281 C 195.048 5.21688 1.12593 0
M  V30 2282 O 195.271 5.19052 2.36519 0
M  V30 2283 O 194.205 5.98919 0.598284 0
M  V30 2284 H 198.031 2.95251 -0.711386 0
M  V30 2285 H 195.616 1.43564 -0.413502 0
M  V30 2286 H 197.498 3.92183 1.54176 0
M  V30 2287 H 196.173 2.73987 1.72374 0
M  V30 2288 H 195.08 3.72215 -0.375101 0
M  V30 2289 H 196.413 4.89913 -0.473924 0
M  V30 2290 N 198.065 0.39524 1.52563 0
M  V30 2291 C 199.481 0.0454682 1.59535 0
M  V30 2292 C 199.681 -1.44056 1.4089 0
M  V30 2293 O 198.737 -2.20579 1.22888 0
M  V30 2294 C 200.05 0.527963 2.96029 0
M  V30 2295 C 201.598 0.484733 3.09224 0
M  V30 2296 C 202.073 0.943512 4.48176 0
M  V30 2297 N 203.564 0.899765 4.54377 0
M  V30 2298 C 204.299 1.22609 5.60138 0
M  V30 2299 N 203.795 1.62319 6.73516 0
M  V30 2300 N 205.588 1.14696 5.50274 0
M  V30 2301 H 197.739 1.36261 1.62931 0
M  V30 2302 H 200.002 0.558887 0.765735 0
M  V30 2303 H 199.708 1.56607 3.14908 0
M  V30 2304 H 199.582 -0.0698056 3.77135 0
M  V30 2305 H 201.969 -0.544298 2.90037 0
M  V30 2306 H 202.05 1.11838 2.30056 0
M  V30 2307 H 201.694 1.9708 4.68104 0
M  V30 2308 H 201.624 0.286817 5.25818 0
M  V30 2309 H 204.115 0.607632 3.72983 0
M  V30 2310 H 204.428 1.85567 7.5019 0
M  V30 2311 H 202.773 1.66211 6.74833 0
M  V30 2312 H 205.964 0.835701 4.6058 0
M  V30 2313 H 206.137 1.40459 6.32594 0
M  V30 2314 N 199.544 -1.57102 0.125237 0
M  V30 2315 C 200.454 -2.19191 -0.8362 0
M  V30 2316 C 201.47 -1.16985 -1.28805 0
M  V30 2317 O 202.646 -1.49479 -1.34974 0
M  V30 2318 C 199.711 -2.78407 -2.06617 0
M  V30 2319 C 198.772 -3.9567 -1.66565 0
M  V30 2320 C 198.005 -4.52052 -2.83698 0
M  V30 2321 O 198.228 -4.07326 -3.99302 0
M  V30 2322 O 197.162 -5.42645 -2.60423 0
M  V30 2323 H 200.988 -3.01816 -0.337776 0
M  V30 2324 H 198.573 -1.4906 -0.100695 0
M  V30 2325 H 200.455 -3.16129 -2.7864 0
M  V30 2326 H 199.13 -1.9881 -2.55453 0
M  V30 2327 H 198.037 -3.62705 -0.916296 0
M  V30 2328 H 199.37 -4.76722 -1.22464 0
M  V30 2329 N 201.022 0.148545 -1.56898 0
M  V30 2330 C 202.268 0.862694 -1.83536 0
M  V30 2331 C 202.601 1.80889 -0.706604 0
M  V30 2332 O 201.876 1.92328 0.289885 0
M  V30 2333 C 202.159 1.63853 -3.20662 0
M  V30 2334 C 202.012 0.713925 -4.44098 0
M  V30 2335 C 203.331 2.60133 -3.54991 0
M  V30 2336 H 200.45 0.312179 -0.667618 0
M  V30 2337 H 203.092 0.127953 -1.89569 0
M  V30 2338 H 201.242 2.26489 -3.1565 0
M  V30 2339 H 202.914 0.098686 -4.61194 0
M  V30 2340 H 201.157 0.0234019 -4.33794 0
M  V30 2341 H 201.828 1.29278 -5.36648 0
M  V30 2342 H 204.304 2.07616 -3.60603 0
M  V30 2343 H 203.18 3.11468 -4.51972 0
M  V30 2344 H 203.441 3.41417 -2.80868 0
M  V30 2345 N 202.5 1.5196 0.417844 0
M  V30 2346 C 203.447 1.74678 1.50852 0
M  V30 2347 C 204.417 0.588947 1.55308 0
M  V30 2348 O 205.602 0.825544 1.72016 0
M  V30 2349 C 202.742 1.89544 2.88387 0
M  V30 2350 C 201.855 3.17166 2.93309 0
M  V30 2351 C 200.99 3.22513 4.22088 0
M  V30 2352 C 200.029 4.44372 4.20951 0
M  V30 2353 N 199.166 4.47161 5.41287 0
M  V30 2354 H 204.006 2.67768 1.30783 0
M  V30 2355 H 201.543 1.32689 0.63498 0
M  V30 2356 H 203.501 1.96146 3.68216 0
M  V30 2357 H 202.131 0.998424 3.06971 0
M  V30 2358 H 201.183 3.19778 2.06024 0
M  V30 2359 H 202.495 4.07021 2.88332 0
M  V30 2360 H 201.649 3.28139 5.10303 0
M  V30 2361 H 200.388 2.30581 4.29748 0
M  V30 2362 H 199.393 4.38902 3.31127 0
M  V30 2363 H 200.618 5.3759 4.14938 0
M  V30 2364 H 198.564 3.58108 5.49632 0
M  V30 2365 H 198.481 5.3085 5.3827 0
M  V30 2366 H 199.749 4.57005 6.3148 0
M  V30 2367 N 203.978 -0.674533 1.42435 0
M  V30 2368 C 204.91 -1.80005 1.41883 0
M  V30 2369 C 205.923 -1.59667 0.31787 0
M  V30 2370 O 207.112 -1.68781 0.580973 0
M  V30 2371 C 204.212 -3.17114 1.19549 0
M  V30 2372 C 203.385 -3.64299 2.42084 0
M  V30 2373 C 202.444 -4.80142 2.15291 0
M  V30 2374 O 201.47 -4.90673 2.88493 0
M  V30 2375 N 202.672 -5.68869 1.1562 0
M  V30 2376 H 205.437 -1.80964 2.38898 0
M  V30 2377 H 202.998 -0.857633 1.37318 0
M  V30 2378 H 204.99 -3.92267 0.995417 0
M  V30 2379 H 203.56 -3.11053 0.310569 0
M  V30 2380 H 202.78 -2.79822 2.77657 0
M  V30 2381 H 204.068 -3.92567 3.23679 0
M  V30 2382 H 203.466 -5.63012 0.550765 0
M  V30 2383 H 202.023 -6.43833 1.016 0
M  V30 2384 N 205.456 -1.28612 -0.910864 0
M  V30 2385 C 206.386 -1.15326 -2.03032 0
M  V30 2386 C 207.367 -0.0502924 -1.70026 0
M  V30 2387 O 208.552 -0.227797 -1.92859 0
M  V30 2388 C 205.682 -0.817343 -3.37545 0
M  V30 2389 C 204.636 -1.8754 -3.84724 0
M  V30 2390 C 203.962 -1.39305 -5.16235 0
M  V30 2391 C 205.262 -3.28244 -4.06267 0
M  V30 2392 H 206.956 -2.08975 -2.14406 0
M  V30 2393 H 204.502 -1.00612 -1.03021 0
M  V30 2394 H 206.455 -0.711151 -4.15356 0
M  V30 2395 H 205.179 0.154846 -3.26233 0
M  V30 2396 H 203.838 -1.97079 -3.09121 0
M  V30 2397 H 203.486 -0.409846 -5.01328 0
M  V30 2398 H 203.186 -2.10057 -5.48771 0
M  V30 2399 H 204.71 -1.30014 -5.96598 0
M  V30 2400 H 206.124 -3.21611 -4.74594 0
M  V30 2401 H 204.521 -3.96855 -4.5014 0
M  V30 2402 H 205.591 -3.72048 -3.10979 0
M  V30 2403 N 206.934 1.1197 -1.10907 0
M  V30 2404 C 207.866 2.17592 -0.720175 0
M  V30 2405 C 208.879 1.60938 0.245495 0
M  V30 2406 O 210.068 1.78476 0.0292245 0
M  V30 2407 C 207.168 3.38873 -0.0427917 0
M  V30 2408 C 206.341 4.25006 -1.03388 0
M  V30 2409 C 205.4 5.24774 -0.387075 0
M  V30 2410 O 204.426 5.59631 -1.03934 0
M  V30 2411 N 205.628 5.74208 0.852407 0
M  V30 2412 H 208.393 2.51567 -1.62893 0
M  V30 2413 H 205.954 1.27439 -0.998543 0
M  V30 2414 H 207.946 4.02703 0.401501 0
M  V30 2415 H 206.516 3.03007 0.768456 0
M  V30 2416 H 205.736 3.57716 -1.65629 0
M  V30 2417 H 207.024 4.79397 -1.70458 0
M  V30 2418 H 206.422 5.48062 1.40161 0
M  V30 2419 H 204.979 6.39901 1.23977 0
M  V30 2420 N 208.412 0.89855 1.29475 0
M  V30 2421 C 209.322 0.379974 2.31502 0
M  V30 2422 C 210.338 -0.524695 1.659 0
M  V30 2423 O 211.514 -0.414551 1.97087 0
M  V30 2424 C 208.579 -0.385138 3.44554 0
M  V30 2425 C 207.64 0.550914 4.2575 0
M  V30 2426 C 206.873 -0.177778 5.33404 0
M  V30 2427 O 207.096 -1.40189 5.52904 0
M  V30 2428 O 206.03 0.479106 5.9999 0
M  V30 2429 H 209.856 1.22639 2.77837 0
M  V30 2430 H 207.441 0.662834 1.33891 0
M  V30 2431 H 209.323 -0.817841 4.13388 0
M  V30 2432 H 207.998 -1.20763 3.0033 0
M  V30 2433 H 206.905 1.03271 3.59564 0
M  V30 2434 H 208.238 1.33979 4.73614 0
M  V30 2435 N 209.89 -1.43072 0.660911 0
M  V30 2436 C 210.8 -2.34585 -0.0264163 0
M  V30 2437 C 211.816 -1.54316 -0.803898 0
M  V30 2438 O 212.992 -1.86939 -0.749391 0
M  V30 2439 C 210.057 -3.32689 -0.975639 0
M  V30 2440 C 209.118 -4.2886 -0.194236 0
M  V30 2441 C 208.351 -5.22278 -1.09825 0
M  V30 2442 O 208.574 -5.20299 -2.33763 0
M  V30 2443 O 207.508 -5.99228 -0.566513 0
M  V30 2444 H 211.334 -2.94869 0.727034 0
M  V30 2445 H 208.919 -1.43342 0.42111 0
M  V30 2446 H 210.801 -3.92995 -1.52094 0
M  V30 2447 H 209.476 -2.74898 -1.70918 0
M  V30 2448 H 208.383 -3.72011 0.394835 0
M  V30 2449 H 209.716 -4.89655 0.499899 0
M  V30 2450 N 211.368 -0.403325 -1.52352 0
M  V30 2451 C 212.596 0.174012 -2.06167 0
M  V30 2452 C 213.011 1.39347 -1.27388 0
M  V30 2453 O 212.368 1.79597 -0.324201 0
M  V30 2454 C 212.419 0.530223 -3.5759 0
M  V30 2455 O 212.14 -0.640806 -4.33388 0
M  V30 2456 C 213.641 1.16192 -4.27802 0
M  V30 2457 H 210.861 0.0229464 -0.670608 0
M  V30 2458 H 213.405 -0.572604 -1.9632 0
M  V30 2459 H 211.56 1.22673 -3.67464 0
M  V30 2460 H 211.974 -0.344851 -5.23365 0
M  V30 2461 H 213.448 1.36141 -5.34948 0
M  V30 2462 H 213.925 2.13335 -3.83907 0
M  V30 2463 H 214.531 0.505775 -4.22282 0
M  V30 2464 N 212.846 1.57033 -0.133567 0
M  V30 2465 C 214.257 1.82593 0.389464 0
M  V30 2466 C 214.608 1.05156 1.6564 0
M  V30 2467 O 213.733 0.292644 2.14412 0
M  V30 2468 C 214.328 3.31204 0.713377 0
M  V30 2469 C 212.887 3.57393 1.18098 0
M  V30 2470 C 212.034 2.76598 0.197126 0
M  V30 2471 H 214.985 1.54598 -0.358481 0
M  V30 2472 H 215.006 3.46627 1.56939 0
M  V30 2473 H 214.518 3.87537 -0.2089 0
M  V30 2474 H 212.619 3.06433 2.11966 0
M  V30 2475 H 212.732 4.65915 1.11624 0
M  V30 2476 H 211.096 2.45257 0.687088 0
M  V30 2477 H 211.879 3.35697 -0.718504 0
M  V30 2478 N 214.325 -0.140222 1.56975 0
M  V30 2479 C 215.736 -0.699596 1.73097 0
M  V30 2480 C 216.087 -1.8134 0.749022 0
M  V30 2481 O 215.212 -2.16241 -0.0828503 0
M  V30 2482 C 215.807 -1.27582 3.1386 0
M  V30 2483 C 214.366 -1.78169 3.31561 0
M  V30 2484 C 213.513 -0.672855 2.69013 0
M  V30 2485 H 216.464 0.0855115 1.58469 0
M  V30 2486 H 216.485 -2.14561 3.14235 0
M  V30 2487 H 215.997 -0.464955 3.85305 0
M  V30 2488 H 214.098 -2.61801 2.65124 0
M  V30 2489 H 214.211 -1.90574 4.39566 0
M  V30 2490 H 212.575 -1.10118 2.29665 0
M  V30 2491 H 213.358 0.126679 3.43066 0
M  V30 2492 N 215.803 -1.52179 -0.40978 0
M  V30 2493 C 217.051 -1.65878 -1.15451 0
M  V30 2494 C 217.372 -0.390771 -1.91044 0
M  V30 2495 O 216.642 0.594323 -1.86667 0
M  V30 2496 H 215.222 -0.611405 -0.429177 0
M  V30 2497 H 217.884 -1.89219 -0.467134 0
M  V30 2498 H 216.98 -2.49954 -1.86894 0
M  V30 2499 N 217.281 0.66697 -1.42791 0
M  V30 2500 C 218.529 1.42417 -1.43394 0
M  V30 2501 C 218.85 1.94925 -0.0542373 0
M  V30 2502 O 218.12 1.73564 0.908415 0
M  V30 2503 H 216.7 0.528515 -0.527902 0
M  V30 2504 H 219.362 0.787562 -1.78279 0
M  V30 2505 H 218.458 2.27333 -2.13837 0
M  V30 2506 N 218.759 1.29093 0.90403 0
M  V30 2507 C 220.17 1.15186 1.46932 0
M  V30 2508 C 220.521 -0.254587 1.94541 0
M  V30 2509 O 219.646 -1.14972 1.83332 0
M  V30 2510 C 220.241 2.08492 2.67051 0
M  V30 2511 C 218.8 1.98621 3.19729 0
M  V30 2512 C 217.947 1.9967 1.92425 0
M  V30 2513 H 220.898 1.41641 0.715789 0
M  V30 2514 H 220.919 1.65461 3.42641 0
M  V30 2515 H 220.431 3.10847 2.3237 0
M  V30 2516 H 218.532 0.993389 3.59114 0
M  V30 2517 H 218.645 2.86068 3.8432 0
M  V30 2518 H 217.009 1.44208 2.09943 0
M  V30 2519 H 217.792 3.03721 1.60026 0
M  V30 2520 N 220.237 -1.11381 1.11499 0
M  V30 2521 C 221.167 -2.19509 0.796125 0
M  V30 2522 C 222.148 -1.68458 -0.235796 0
M  V30 2523 O 223.333 -1.93947 -0.0991344 0
M  V30 2524 C 220.463 -3.46475 0.239205 0
M  V30 2525 C 219.417 -4.10744 1.20307 0
M  V30 2526 C 218.743 -5.32293 0.50683 0
M  V30 2527 C 220.043 -4.55597 2.55399 0
M  V30 2528 H 221.737 -2.46439 1.70024 0
M  V30 2529 H 219.283 -1.18446 0.818935 0
M  V30 2530 H 221.236 -4.214 0.00392006 0
M  V30 2531 H 219.96 -3.19006 -0.700206 0
M  V30 2532 H 218.619 -3.37813 1.42399 0
M  V30 2533 H 218.267 -5.01095 -0.437408 0
M  V30 2534 H 217.967 -5.76243 1.1497 0
M  V30 2535 H 219.491 -6.09956 0.280351 0
M  V30 2536 H 220.905 -5.21841 2.37391 0
M  V30 2537 H 219.302 -5.10363 3.15673 0
M  V30 2538 H 220.372 -3.69013 3.14575 0
M  V30 2539 N 221.715 -0.905404 -1.28997 0
M  V30 2540 C 222.943 -0.549846 -1.9946 0
M  V30 2541 C 223.358 0.866834 -1.67724 0
M  V30 2542 O 222.715 1.57298 -0.925404 0
M  V30 2543 C 222.766 -0.739387 -3.53858 0
M  V30 2544 O 222.487 -2.10031 -3.84472 0
M  V30 2545 C 223.988 -0.389541 -4.41585 0
M  V30 2546 H 221.208 -0.210429 -0.637151 0
M  V30 2547 H 223.752 -1.21632 -1.64396 0
M  V30 2548 H 221.907 -0.120023 -3.87214 0
M  V30 2549 H 222.321 -2.13385 -4.79132 0
M  V30 2550 H 223.795 -0.572972 -5.49018 0
M  V30 2551 H 224.272 0.673756 -4.34001 0
M  V30 2552 H 224.878 -0.986089 -4.1371 0
M  V30 2553 N 223.193 1.4272 -0.668489 0
M  V30 2554 C 224.103 2.34596 0.0139753 0
M  V30 2555 C 225.119 1.5474 0.795703 0
M  V30 2556 O 226.295 1.87334 0.739466 0
M  V30 2557 C 223.36 3.33202 0.957982 0
M  V30 2558 C 222.421 4.28957 0.17149 0
M  V30 2559 C 221.654 5.22853 1.07053 0
M  V30 2560 O 221.877 5.21531 2.31001 0
M  V30 2561 O 220.811 5.9952 0.534727 0
M  V30 2562 H 224.637 2.9448 -0.742661 0
M  V30 2563 H 222.222 1.43117 -0.428705 0
M  V30 2564 H 224.104 3.93796 1.50008 0
M  V30 2565 H 222.779 2.758 1.69458 0
M  V30 2566 H 221.686 3.71796 -0.414558 0
M  V30 2567 H 223.019 4.89383 -0.52586 0
M  V30 2568 N 224.671 0.411399 1.52136 0
M  V30 2569 C 225.634 -0.401089 2.25663 0
M  V30 2570 C 226.634 -0.971732 1.28117 0
M  V30 2571 O 227.824 -0.850254 1.52041 0
M  V30 2572 C 224.956 -1.56483 3.02863 0
M  V30 2573 H 226.149 0.24295 2.98914 0
M  V30 2574 H 223.702 0.163968 1.55438 0
M  V30 2575 H 224.437 -2.24567 2.33967 0
M  V30 2576 H 224.222 -1.16211 3.74483 0
M  V30 2577 H 225.712 -2.13951 3.58629 0
M  V30 2578 N 226.149 -1.5696 0.141893 0
M  V30 2579 C 227.079 -2.19516 -0.795936 0
M  V30 2580 C 228.06 -1.14187 -1.26077 0
M  V30 2581 O 229.245 -1.42511 -1.31925 0
M  V30 2582 C 226.375 -2.81272 -2.03723 0
M  V30 2583 C 225.329 -3.92384 -1.70936 0
M  V30 2584 C 224.655 -4.41052 -3.02287 0
M  V30 2585 C 225.955 -5.13403 -0.959954 0
M  V30 2586 H 227.649 -2.98138 -0.274596 0
M  V30 2587 H 225.195 -1.43406 -0.130636 0
M  V30 2588 H 227.148 -3.237 -2.69808 0
M  V30 2589 H 225.872 -1.99973 -2.58221 0
M  V30 2590 H 224.531 -3.50566 -1.07232 0
M  V30 2591 H 224.179 -3.56582 -3.54765 0
M  V30 2592 H 223.879 -5.15993 -2.81114 0
M  V30 2593 H 225.403 -4.86146 -3.69451 0
M  V30 2594 H 226.817 -5.52706 -1.52279 0
M  V30 2595 H 225.214 -5.94073 -0.848357 0
M  V30 2596 H 226.284 -4.84875 0.0492434 0
M  V30 2597 N 227.627 0.131896 -1.57047 0
M  V30 2598 C 229.038 0.690407 -1.73465 0
M  V30 2599 C 229.389 1.8094 -0.758629 0
M  V30 2600 O 228.514 2.16282 0.0713813 0
M  V30 2601 C 229.109 1.25916 -3.14532 0
M  V30 2602 C 227.668 1.76409 -3.32501 0
M  V30 2603 C 226.815 0.658579 -2.69366 0
M  V30 2604 H 229.766 -0.0939144 -1.58422 0
M  V30 2605 H 229.787 2.12892 -3.15369 0
M  V30 2606 H 229.299 0.444515 -3.85546 0
M  V30 2607 H 227.4 2.60391 -2.66509 0
M  V30 2608 H 227.513 1.88241 -4.4057 0
M  V30 2609 H 225.877 1.08899 -2.30246 0
M  V30 2610 H 226.66 -0.14487 -3.42994 0
M  V30 2611 N 229.106 1.52395 0.401703 0
M  V30 2612 C 230.517 1.58899 0.980202 0
M  V30 2613 C 230.868 0.434032 1.91339 0
M  V30 2614 O 229.993 -0.444619 2.11783 0
M  V30 2615 C 230.588 2.87994 1.78451 0
M  V30 2616 C 229.147 2.96953 2.31292 0
M  V30 2617 C 228.294 2.53903 1.11483 0
M  V30 2618 H 231.245 1.57657 0.18168 0
M  V30 2619 H 231.266 2.73765 2.64259 0
M  V30 2620 H 230.778 3.72035 1.10506 0
M  V30 2621 H 228.879 2.17422 3.02586 0
M  V30 2622 H 228.992 4.01344 2.61649 0
M  V30 2623 H 227.356 2.07925 1.47104 0
M  V30 2624 H 228.139 3.40326 0.450928 0
M  V30 2625 N 230.584 -0.659388 1.43143 0
M  V30 2626 C 231.547 -1.75432 1.47501 0
M  V30 2627 C 232.547 -1.56707 0.360512 0
M  V30 2628 O 233.737 -1.62717 0.622002 0
M  V30 2629 C 230.869 -3.14239 1.32162 0
M  V30 2630 H 232.062 -1.7295 2.45006 0
M  V30 2631 H 229.615 -0.870469 1.29817 0
M  V30 2632 H 230.35 -3.22336 0.356401 0
M  V30 2633 H 230.135 -3.29235 2.12948 0
M  V30 2634 H 231.625 -3.94094 1.3813 0
M  V30 2635 N 232.062 -1.29571 -0.897171 0
M  V30 2636 C 233.478 -1.07637 -1.17841 0
M  V30 2637 C 233.678 0.170713 -2.00776 0
M  V30 2638 O 232.734 0.867768 -2.3712 0
M  V30 2639 C 234.047 -2.3332 -1.8969 0
M  V30 2640 C 235.595 -2.38664 -2.02505 0
M  V30 2641 C 236.07 -3.64157 -2.77765 0
M  V30 2642 N 237.561 -3.64894 -2.85318 0
M  V30 2643 C 238.296 -4.58679 -3.44094 0
M  V30 2644 N 237.792 -5.62799 -4.04017 0
M  V30 2645 N 239.585 -4.46245 -3.41793 0
M  V30 2646 H 231.736 -2.09598 -0.343883 0
M  V30 2647 H 233.999 -0.923333 -0.214848 0
M  V30 2648 H 233.705 -3.24262 -1.36187 0
M  V30 2649 H 233.579 -2.41025 -2.9015 0
M  V30 2650 H 235.966 -1.48208 -2.55183 0
M  V30 2651 H 236.047 -2.34943 -1.01171 0
M  V30 2652 H 235.691 -4.54965 -2.25763 0
M  V30 2653 H 235.621 -3.65137 -3.7945 0
M  V30 2654 H 238.112 -2.89613 -2.42761 0
M  V30 2655 H 238.425 -6.3048 -4.46895 0
M  V30 2656 H 236.77 -5.66605 -4.02472 0
M  V30 2657 H 239.961 -3.64094 -2.94199 0
M  V30 2658 H 240.134 -5.19518 -3.87304 0
M  V30 2659 N 233.54 1.10788 -1.12088 0
M  V30 2660 C 234.487 2.17025 -0.785407 0
M  V30 2661 C 235.457 1.64265 0.246191 0
M  V30 2662 O 236.642 1.90412 0.121584 0
M  V30 2663 C 233.782 3.44249 -0.242177 0
M  V30 2664 C 232.895 4.1098 -1.33115 0
M  V30 2665 C 232.03 5.25911 -0.747741 0
M  V30 2666 C 231.069 5.84538 -1.81609 0
M  V30 2667 N 230.206 6.90853 -1.25167 0
M  V30 2668 H 235.046 2.45066 -1.69548 0
M  V30 2669 H 232.583 1.20297 -0.846582 0
M  V30 2670 H 234.541 4.17101 0.0908026 0
M  V30 2671 H 233.171 3.16571 0.631072 0
M  V30 2672 H 232.223 3.36133 -1.78097 0
M  V30 2673 H 233.535 4.50601 -2.13917 0
M  V30 2674 H 232.689 6.056 -0.365216 0
M  V30 2675 H 231.428 4.87614 0.0915188 0
M  V30 2676 H 230.433 5.03522 -2.20785 0
M  V30 2677 H 231.658 6.249 -2.6585 0
M  V30 2678 H 229.604 6.54562 -0.434174 0
M  V30 2679 H 229.521 7.29166 -1.99633 0
M  V30 2680 H 230.789 7.7433 -0.896259 0
M  V30 2681 N 235.018 0.912232 1.28515 0
M  V30 2682 C 235.928 0.404506 2.31086 0
M  V30 2683 C 236.944 -0.50707 1.66448 0
M  V30 2684 O 238.12 -0.393624 1.97516 0
M  V30 2685 C 235.185 -0.348572 3.44943 0
M  V30 2686 C 234.246 0.59604 4.25142 0
M  V30 2687 C 233.479 -0.121194 5.33562 0
M  V30 2688 O 233.702 -1.34317 5.5436 0
M  V30 2689 O 232.636 0.542716 5.99448 0
M  V30 2690 H 236.462 1.25579 2.76521 0
M  V30 2691 H 234.047 0.676998 1.33181 0
M  V30 2692 H 235.929 -0.77395 4.14232 0
M  V30 2693 H 234.604 -1.17571 3.01594 0
M  V30 2694 H 233.511 1.07079 3.58448 0
M  V30 2695 H 234.844 1.38995 4.72167 0
M  V30 2696 N 236.496 -1.42363 0.676048 0
M  V30 2697 C 237.744 -2.01123 0.198437 0
M  V30 2698 C 238.065 -1.53731 -1.19966 0
M  V30 2699 O 237.335 -0.759518 -1.80577 0
M  V30 2700 H 235.915 -0.743678 0.0703721 0
M  V30 2701 H 238.577 -1.74263 0.872837 0
M  V30 2702 H 237.673 -3.11454 0.200686 0
M  V30 2703 N 237.974 -0.419461 -1.51915 0
M  V30 2704 C 239.251 0.211999 -1.94448 0
M  V30 2705 C 239.631 1.61703 -1.35703 0
M  V30 2706 O 238.979 2.22102 -0.536931 0
M  V30 2707 C 239.189 0.207872 -3.4838 0
M  V30 2708 C 240.537 0.422192 -4.22496 0
M  V30 2709 O 241.561 0.286778 -3.55044 0
M  V30 2710 O 240.42 0.690009 -5.42126 0
M  V30 2711 H 237.514 0.139586 -0.815135 0
M  V30 2712 H 240.06 -0.476151 -1.62883 0
M  V30 2713 H 238.832 -0.775102 -3.83546 0
M  V30 2714 H 238.455 0.939688 -3.86336 0
M  V30 2715 N 239.452 1.56882 -0.150215 0
M  V30 2716 C 240.382 2.19935 0.784284 0
M  V30 2717 C 241.363 1.14854 1.25469 0
M  V30 2718 O 242.548 1.43209 1.31168 0
M  V30 2719 C 239.678 2.82349 2.02229 0
M  V30 2720 C 238.632 3.93285 1.68853 0
M  V30 2721 C 237.958 4.42649 2.99944 0
M  V30 2722 C 239.258 5.13904 0.932714 0
M  V30 2723 H 240.952 2.9828 0.258781 0
M  V30 2724 H 238.498 1.43473 0.123029 0
M  V30 2725 H 240.451 3.25126 2.68088 0
M  V30 2726 H 239.175 2.0134 2.57157 0
M  V30 2727 H 237.834 3.5113 1.05371 0
M  V30 2728 H 237.482 3.58458 3.52869 0
M  V30 2729 H 237.182 5.17476 2.78374 0
M  V30 2730 H 238.706 4.88099 3.66868 0
M  V30 2731 H 240.12 5.53506 1.49345 0
M  V30 2732 H 238.517 5.94515 0.81684 0
M  V30 2733 H 239.587 4.84842 -0.0749568 0
M  V30 2734 N 240.93 -0.123565 1.57115 0
M  V30 2735 C 242.341 -0.681198 1.73829 0
M  V30 2736 C 242.692 -1.80535 0.768214 0
M  V30 2737 O 241.817 -2.16317 -0.0599103 0
M  V30 2738 C 242.412 -1.24246 3.15196 0
M  V30 2739 C 240.971 -1.74643 3.33432 0
M  V30 2740 C 240.118 -0.644284 2.69711 0
M  V30 2741 H 243.069 0.102315 1.5837 0
M  V30 2742 H 243.09 -2.11216 3.16493 0
M  V30 2743 H 242.602 -0.424062 3.85776 0
M  V30 2744 H 240.703 -2.58974 2.67886 0
M  V30 2745 H 240.816 -1.85902 4.41562 0
M  V30 2746 H 239.18 -1.07676 2.3082 0
M  V30 2747 H 239.963 0.163058 3.42913 0
M  V30 2748 N 242.408 -1.52605 -0.393616 0
M  V30 2749 C 243.819 -1.59417 -0.971761 0
M  V30 2750 C 244.17 -0.444173 -1.91106 0
M  V30 2751 O 243.295 0.433382 -2.12016 0
M  V30 2752 C 243.89 -2.88936 -1.76921 0
M  V30 2753 C 242.449 -2.98175 -2.29714 0
M  V30 2754 C 241.596 -2.54491 -1.10135 0
M  V30 2755 H 244.547 -1.57751 -0.173317 0
M  V30 2756 H 244.568 -2.75163 -2.62804 0
M  V30 2757 H 244.08 -3.72616 -1.08532 0
M  V30 2758 H 242.181 -2.19024 -3.01429 0
M  V30 2759 H 242.294 -4.02726 -2.59517 0
M  V30 2760 H 240.658 -2.08702 -1.45999 0
M  V30 2761 H 241.441 -3.4056 -0.432874 0
M  V30 2762 N 243.887 0.651787 -1.4349 0
M  V30 2763 C 244.817 1.77621 -1.51569 0
M  V30 2764 C 245.798 1.66022 -0.370253 0
M  V30 2765 O 246.983 1.85095 -0.587658 0
M  V30 2766 C 244.113 3.16056 -1.43966 0
M  V30 2767 C 243.067 3.4242 -2.56774 0
M  V30 2768 C 242.393 4.8067 -2.34223 0
M  V30 2769 C 243.693 3.37023 -3.99015 0
M  V30 2770 H 245.387 1.71117 -2.45681 0
M  V30 2771 H 242.933 0.821825 -1.18246 0
M  V30 2772 H 244.886 3.94472 -1.48221 0
M  V30 2773 H 243.61 3.23293 -0.463586 0
M  V30 2774 H 242.269 2.66375 -2.51873 0
M  V30 2775 H 241.917 4.84585 -1.34856 0
M  V30 2776 H 241.617 4.9927 -3.09844 0
M  V30 2777 H 243.141 5.61342 -2.40265 0
M  V30 2778 H 244.555 4.05374 -4.05395 0
M  V30 2779 H 242.952 3.67159 -4.74673 0
M  V30 2780 H 244.022 2.3518 -4.2405 0
M  V30 2781 N 245.365 1.30045 0.890287 0
M  V30 2782 C 246.611 1.19747 1.64415 0
M  V30 2783 C 246.966 -0.246591 1.90813 0
M  V30 2784 O 246.259 -1.174 1.51419 0
M  V30 2785 C 246.453 1.95409 2.99249 0
M  V30 2786 C 246.282 3.47025 2.86013 0
M  V30 2787 C 245.052 4.1638 2.86279 0
M  V30 2788 C 247.25 4.42353 2.62351 0
M  V30 2789 N 245.232 5.54293 2.63879 0
M  V30 2790 C 246.603 5.67792 2.49022 0
M  V30 2791 C 248.658 4.32009 2.47533 0
M  V30 2792 C 247.361 6.8406 2.22383 0
M  V30 2793 C 249.387 5.48038 2.22279 0
M  V30 2794 C 248.749 6.72455 2.09722 0
M  V30 2795 H 244.848 0.493223 0.60684 0
M  V30 2796 H 247.432 1.6399 1.04954 0
M  V30 2797 H 245.603 1.53565 3.56752 0
M  V30 2798 H 247.335 1.77298 3.63796 0
M  V30 2799 H 244.09 3.68164 2.97913 0
M  V30 2800 H 244.514 6.26852 2.55706 0
M  V30 2801 H 249.156 3.36503 2.55979 0
M  V30 2802 H 246.874 7.79612 2.12675 0
M  V30 2803 H 250.46 5.41939 2.11643 0
M  V30 2804 H 249.34 7.60722 1.90453 0
M  V30 2805 N 246.843 -1.10192 1.12674 0
M  V30 2806 C 248.089 -1.82658 0.894847 0
M  V30 2807 C 248.444 -1.83666 -0.573107 0
M  V30 2808 O 247.737 -1.28816 -1.41835 0
M  V30 2809 C 247.931 -3.28552 1.4067 0
M  V30 2810 C 247.76 -3.41756 2.92289 0
M  V30 2811 C 246.53 -3.54021 3.60551 0
M  V30 2812 C 248.728 -3.34949 3.90274 0
M  V30 2813 N 246.71 -3.55827 5.0026 0
M  V30 2814 C 248.081 -3.43531 5.16127 0
M  V30 2815 C 250.136 -3.18565 3.8265 0
M  V30 2816 C 248.839 -3.37416 6.3525 0
M  V30 2817 C 250.865 -3.13772 5.01299 0
M  V30 2818 C 250.227 -3.22938 6.26012 0
M  V30 2819 H 246.326 -0.683044 0.380756 0
M  V30 2820 H 248.91 -1.31752 1.43351 0
M  V30 2821 H 247.081 -3.77946 0.895055 0
M  V30 2822 H 248.813 -3.88991 1.11661 0
M  V30 2823 H 245.568 -3.57135 3.1105 0
M  V30 2824 H 245.992 -3.60335 5.73138 0
M  V30 2825 H 250.634 -3.10354 2.87124 0
M  V30 2826 H 248.352 -3.44391 7.3104 0
M  V30 2827 H 251.938 -3.02242 4.97133 0
M  V30 2828 H 250.818 -3.19235 7.16281 0
M  V30 2829 N 248.321 -0.919034 -1.28029 0
M  V30 2830 C 249.551 -0.570143 -1.98577 0
M  V30 2831 C 249.959 0.854172 -1.68821 0
M  V30 2832 O 249.302 1.57807 -0.940351 0
M  V30 2833 C 249.364 -0.705734 -3.52505 0
M  V30 2834 C 249.028 -2.10057 -4.05863 0
M  V30 2835 C 250.025 -3.07385 -4.19298 0
M  V30 2836 C 247.71 -2.41517 -4.40426 0
M  V30 2837 C 249.704 -4.34287 -4.66555 0
M  V30 2838 C 247.391 -3.68657 -4.87376 0
M  V30 2839 C 248.389 -4.64856 -5.00398 0
M  V30 2840 O 248.077 -5.89735 -5.46322 0
M  V30 2841 H 247.809 -0.215592 -0.6407 0
M  V30 2842 H 250.363 -1.23583 -1.64062 0
M  V30 2843 H 248.593 0.0170414 -3.86696 0
M  V30 2844 H 250.282 -0.363172 -4.04272 0
M  V30 2845 H 251.048 -2.84398 -3.92865 0
M  V30 2846 H 246.927 -1.67389 -4.29537 0
M  V30 2847 H 250.471 -5.09377 -4.76635 0
M  V30 2848 H 246.368 -3.91466 -5.13249 0
M  V30 2849 H 247.136 -5.92599 -5.64596 0
M  V30 2850 N 249.799 1.42003 -0.683588 0
M  V30 2851 C 251.048 2.00638 -0.206681 0
M  V30 2852 C 251.361 1.5472 1.19671 0
M  V30 2853 O 252.567 2.05833 1.77045 0
M  V30 2854 C 251.023 3.58487 -0.318632 0
M  V30 2855 C 250.631 4.1339 -1.72663 0
M  V30 2856 C 252.375 4.24384 0.0991141 0
M  V30 2857 C 250.282 5.63633 -1.79087 0
M  V30 2858 H 249.212 0.750408 -0.0735107 0
M  V30 2859 H 251.863 1.62624 -0.850048 0
M  V30 2860 H 250.245 3.94047 0.392781 0
M  V30 2861 H 251.419 3.89273 -2.46583 0
M  V30 2862 H 249.734 3.59976 -2.09299 0
M  V30 2863 H 252.331 5.34652 0.0713833 0
M  V30 2864 H 252.674 4.00505 1.13586 0
M  V30 2865 H 253.207 3.93816 -0.561599 0
M  V30 2866 H 249.946 5.92323 -2.80774 0
M  V30 2867 H 249.466 5.89714 -1.09535 0
M  V30 2868 H 251.145 6.28201 -1.5483 0
M  V30 2869 N 251.277 0.427512 1.51691 0
M  V30 2870 C 252.523 -0.142439 2.02299 0
M  V30 2871 C 252.856 -1.43214 1.31162 0
M  V30 2872 O 252.131 -1.89833 0.423511 0
M  V30 2873 C 252.414 -0.371301 3.58181 0
M  V30 2874 C 252.267 0.936358 4.39946 0
M  V30 2875 C 253.586 -1.14542 4.24933 0
M  V30 2876 H 250.705 -0.0502937 0.735282 0
M  V30 2877 H 253.347 0.564584 1.81418 0
M  V30 2878 H 251.497 -0.973559 3.76104 0
M  V30 2879 H 253.169 1.57184 4.33694 0
M  V30 2880 H 251.412 1.5432 4.05423 0
M  V30 2881 H 252.083 0.730388 5.47147 0
M  V30 2882 H 254.559 -0.635362 4.11221 0
M  V30 2883 H 253.435 -1.27431 5.33903 0
M  V30 2884 H 253.696 -2.17093 3.85127 0
M  V30 2885 N 252.755 -1.56801 0.158532 0
M  V30 2886 C 253.983 -2.00859 -0.496303 0
M  V30 2887 C 254.398 -1.03871 -1.57659 0
M  V30 2888 O 253.755 -0.0375165 -1.82461 0
M  V30 2889 C 253.806 -3.4479 -1.08638 0
M  V30 2890 O 253.527 -4.38072 -0.0492322 0
M  V30 2891 C 255.028 -4.04185 -1.8207 0
M  V30 2892 H 252.248 -0.65864 -0.128199 0
M  V30 2893 H 254.792 -2.02885 0.256506 0
M  V30 2894 H 252.947 -3.43579 -1.78975 0
M  V30 2895 H 253.361 -5.2227 -0.483102 0
M  V30 2896 H 254.835 -5.06857 -2.18633 0
M  V30 2897 H 255.312 -3.45549 -2.71095 0
M  V30 2898 H 255.918 -4.0906 -1.16405 0
M  V30 2899 N 254.233 0.115231 -1.57178 0
M  V30 2900 C 255.649 0.468877 -1.52557 0
M  V30 2901 C 255.849 1.81649 -0.872125 0
M  V30 2902 O 254.905 2.48347 -0.45606 0
M  V30 2903 C 256.218 0.4499 -2.97315 0
M  V30 2904 C 257.766 0.533185 -3.08425 0
M  V30 2905 C 258.241 0.54456 -4.54751 0
M  V30 2906 N 259.732 0.605892 -4.5922 0
M  V30 2907 C 260.467 0.636203 -5.6986 0
M  V30 2908 N 259.963 0.623931 -6.89985 0
M  V30 2909 N 261.756 0.679496 -5.57978 0
M  V30 2910 H 253.907 -0.767712 -1.9804 0
M  V30 2911 H 256.17 -0.283609 -0.904583 0
M  V30 2912 H 255.876 -0.472721 -3.48509 0
M  V30 2913 H 255.75 1.27632 -3.5495 0
M  V30 2914 H 258.137 1.44623 -2.57232 0
M  V30 2915 H 258.218 -0.320995 -2.53778 0
M  V30 2916 H 257.862 -0.364452 -5.06591 0
M  V30 2917 H 257.792 1.41568 -5.07214 0
M  V30 2918 H 260.283 0.621386 -3.72756 0
M  V30 2919 H 260.596 0.649787 -7.70063 0
M  V30 2920 H 258.941 0.591296 -6.9248 0
M  V30 2921 H 262.132 0.686472 -4.63039 0
M  V30 2922 H 262.305 0.69965 -6.44212 0
M  V30 2923 N 255.711 1.52812 0.385517 0
M  V30 2924 C 257.122 1.5993 0.963293 0
M  V30 2925 C 257.473 0.454302 1.90868 0
M  V30 2926 O 256.598 -0.422132 2.12243 0
M  V30 2927 C 257.193 2.89871 1.75387 0
M  V30 2928 C 255.752 2.99389 2.28129 0
M  V30 2929 C 254.899 2.55071 1.08783 0
M  V30 2930 H 257.85 1.5784 0.164948 0
M  V30 2931 H 257.871 2.76553 2.61341 0
M  V30 2932 H 257.383 3.73186 1.06554 0
M  V30 2933 H 255.484 2.20619 3.00263 0
M  V30 2934 H 255.597 4.04096 2.57377 0
M  V30 2935 H 253.961 2.09473 1.4489 0
M  V30 2936 H 254.744 3.40785 0.414807 0
M  V30 2937 N 257.189 -0.644168 1.43834 0
M  V30 2938 C 258.605 -0.960875 1.27434 0
M  V30 2939 C 258.805 -2.00499 0.200618 0
M  V30 2940 O 257.861 -2.49018 -0.417906 0
M  V30 2941 C 259.174 -1.43653 2.64167 0
M  V30 2942 C 260.722 -1.55271 2.71772 0
M  V30 2943 C 261.197 -2.06224 4.08944 0
M  V30 2944 N 262.688 -2.13513 4.11055 0
M  V30 2945 C 263.423 -2.54081 5.14033 0
M  V30 2946 N 262.919 -2.9388 6.27381 0
M  V30 2947 N 264.712 -2.54101 5.01387 0
M  V30 2948 H 256.863 0.0465779 2.12349 0
M  V30 2949 H 259.126 -0.0417638 0.94708 0
M  V30 2950 H 258.832 -0.743706 3.43747 0
M  V30 2951 H 258.706 -2.40993 2.90176 0
M  V30 2952 H 261.093 -2.23653 1.92519 0
M  V30 2953 H 261.174 -0.563395 2.49519 0
M  V30 2954 H 260.818 -1.38441 4.88668 0
M  V30 2955 H 260.748 -3.06003 4.28567 0
M  V30 2956 H 263.239 -1.85493 3.29242 0
M  V30 2957 H 263.552 -3.2361 7.01781 0
M  V30 2958 H 261.897 -2.91663 6.30839 0
M  V30 2959 H 265.088 -2.22391 4.11898 0
M  V30 2960 H 265.261 -2.85394 5.81768 0
M  V30 2961 N 258.668 -1.30515 -0.883378 0
M  V30 2962 C 259.578 -1.18959 -2.02203 0
M  V30 2963 C 260.594 -0.109172 -1.73657 0
M  V30 2964 O 261.77 -0.324413 -1.9877 0
M  V30 2965 C 258.835 -0.883871 -3.35244 0
M  V30 2966 C 257.896 -2.04982 -3.77201 0
M  V30 2967 C 257.129 -1.75859 -5.03894 0
M  V30 2968 O 257.352 -0.687276 -5.66244 0
M  V30 2969 O 256.286 -2.61146 -5.42297 0
M  V30 2970 H 260.112 -2.14616 -2.1488 0
M  V30 2971 H 257.697 -1.10124 -1.0096 0
M  V30 2972 H 259.579 -0.728644 -4.15053 0
M  V30 2973 H 258.254 0.0427798 -3.23672 0
M  V30 2974 H 257.161 -2.26038 -2.9809 0
M  V30 2975 H 258.494 -2.95825 -3.93381 0
M  V30 2976 N 260.146 1.09593 -1.13257 0
M  V30 2977 C 261.562 1.33775 -0.870423 0
M  V30 2978 C 261.762 1.95327 0.494926 0
M  V30 2979 O 260.818 2.19853 1.2418 0
M  V30 2980 C 262.131 2.25106 -1.99369 0
M  V30 2981 C 263.679 2.3862 -2.02558 0
M  V30 2982 C 264.154 3.33285 -3.14142 0
M  V30 2983 N 265.645 3.40857 -3.13641 0
M  V30 2984 C 266.38 4.14101 -3.96621 0
M  V30 2985 N 265.876 4.90157 -4.8961 0
M  V30 2986 N 267.669 4.09808 -3.84726 0
M  V30 2987 H 259.82 0.680136 -2.01216 0
M  V30 2988 H 262.083 0.362133 -0.876107 0
M  V30 2989 H 261.789 1.87103 -2.97801 0
M  V30 2990 H 261.663 3.25481 -1.90635 0
M  V30 2991 H 264.05 2.75887 -1.0474 0
M  V30 2992 H 264.131 1.38028 -2.15364 0
M  V30 2993 H 263.775 2.96741 -4.12198 0
M  V30 2994 H 263.705 4.33776 -2.98574 0
M  V30 2995 H 266.196 2.86624 -2.46282 0
M  V30 2996 H 266.509 5.4347 -5.49418 0
M  V30 2997 H 264.854 4.89251 -4.93617 0
M  V30 2998 H 268.045 3.4949 -3.11408 0
M  V30 2999 H 268.218 4.66629 -4.49623 0
M  V30 3000 N 261.624 0.925811 1.2754 0
M  V30 3001 C 263.035 0.610102 1.7645 0
M  V30 3002 C 263.386 -0.874723 1.75622 0
M  V30 3003 O 262.511 -1.68444 1.35851 0
M  V30 3004 C 263.106 1.10073 3.20421 0
M  V30 3005 C 261.665 0.835723 3.67005 0
M  V30 3006 C 260.812 1.26054 2.46993 0
M  V30 3007 H 263.763 1.10579 1.13833 0
M  V30 3008 H 263.784 0.447557 3.77859 0
M  V30 3009 H 263.296 2.18143 3.20991 0
M  V30 3010 H 261.397 -0.231249 3.71882 0
M  V30 3011 H 261.51 1.45193 4.56569 0
M  V30 3012 H 259.874 0.679111 2.45479 0
M  V30 3013 H 260.657 2.34984 2.50275 0
M  V30 3014 N 263.102 -1.41638 0.69111 0
M  V30 3015 C 264.035 -2.28183 -0.0274913 0
M  V30 3016 C 265.013 -1.41984 -0.792424 0
M  V30 3017 O 266.197 -1.71415 -0.784169 0
M  V30 3018 C 263.324 -3.22135 -1.04628 0
M  V30 3019 C 262.37 -4.24848 -0.375037 0
M  V30 3020 S 263.203 -5.28231 0.879321 0
M  V30 3021 C 264.359 -6.25748 -0.137983 0
M  V30 3022 H 264.592 -2.88782 0.706553 0
M  V30 3023 H 262.125 -1.46709 0.481222 0
M  V30 3024 H 264.083 -3.76797 -1.62894 0
M  V30 3025 H 262.744 -2.6064 -1.75287 0
M  V30 3026 H 261.937 -4.90837 -1.14433 0
M  V30 3027 H 261.539 -3.73758 0.134434 0
M  V30 3028 H 263.831 -6.70188 -0.992659 0
M  V30 3029 H 264.774 -7.06417 0.487867 0
M  V30 3030 H 265.182 -5.62363 -0.490762 0
M  V30 3031 O 264.619 -0.577603 -1.50818 0
M  V30 3032 H 265.31 -0.0808444 -1.93531 0
M  V30 END ATOM
M  V30 BEGIN BOND
M  V30 END BOND
M  V30 END CTAB
M  END
$$$$
