drugbank_target|Q9Y6L6 Solute carrier organic anion transporter family member 1B1 (DB01211; DB01241; DB05521)
 OpenBabel12092119453D

  0  0  0     0  0            999 V3000
M  V30 BEGIN CTAB
M  V30 COUNTS 10795 10916 0 0 0
M  V30 BEGIN ATOM
M  V30 1 H -0.908 1.98254 -0.117106 0
M  V30 2 N 0 1.576 0 0
M  V30 3 C 0.933 2.03868 1.02534 0
M  V30 4 C 1.911 0.928543 1.3348 0
M  V30 5 O 3.095 1.19667 1.45644 0
M  V30 6 C 0.222 2.43627 2.35294 0
M  V30 7 C -0.732 3.65373 2.2001 0
M  V30 8 S 0.101 5.13292 1.52614 0
M  V30 9 C 1.257 5.56322 2.86805 0
M  V30 10 H 1.49 2.90518 0.631377 0
M  V30 11 H -0.977 1.52953 0.210867 0
M  V30 12 H 0.981 2.67203 3.11629 0
M  V30 13 H -0.358 1.57376 2.7183 0
M  V30 14 H -1.165 3.90944 3.18086 0
M  V30 15 H -1.563 3.418 1.51819 0
M  V30 16 H 0.729 5.58782 3.83104 0
M  V30 17 H 1.672 6.56266 2.65933 0
M  V30 18 H 2.08 4.83886 2.90714 0
M  V30 19 N 1.4781 -0.272755 1.55222 0
M  V30 20 C 2.7551 -1.02562 1.66555 0
M  V30 21 C 3.1351 -2.04282 0.532189 0
M  V30 22 O 2.4831 -2.23662 -0.467717 0
M  V30 23 C 2.6931 -1.6822 3.05782 0
M  V30 24 C 4.0411 -2.19373 3.63539 0
M  V30 25 O 5.0651 -1.78206 3.08417 0
M  V30 26 O 3.9241 -2.94883 4.60115 0
M  V30 27 H 1.0181 -0.475755 0.676451 0
M  V30 28 H 3.5641 -0.268593 1.67561 0
M  V30 29 H 2.3361 -0.945112 3.79715 0
M  V30 30 H 1.9591 -2.50609 3.08676 0
M  V30 31 N 2.9562 -1.48159 -0.537278 0
M  V30 32 C 3.8882 -1.58218 -1.65831 0
M  V30 33 C 4.9012 -0.466948 -1.5596 0
M  V30 34 O 6.0902 -0.73747 -1.62553 0
M  V30 35 C 3.1902 -1.48906 -3.04434 0
M  V30 36 C 2.3632 -2.75343 -3.3986 0
M  V30 37 C 1.4222 -2.59588 -4.57712 0
M  V30 38 O 0.4482 -3.33457 -4.61297 0
M  V30 39 N 1.6502 -1.68724 -5.55439 0
M  V30 40 H 4.4152 -2.54891 -1.57641 0
M  V30 41 H 1.9762 -1.4479 -0.724386 0
M  V30 42 H 3.9682 -1.36072 -3.81139 0
M  V30 43 H 2.5382 -0.602368 -3.06741 0
M  V30 44 H 1.7582 -3.02795 -2.52406 0
M  V30 45 H 3.0462 -3.5924 -3.60311 0
M  V30 46 H 2.4442 -1.07898 -5.55315 0
M  V30 47 H 1.0012 -1.61832 -6.3139 0
M  V30 48 N 4.4343 0.785586 -1.36625 0
M  V30 49 C 5.3823 1.91978 -1.31329 0
M  V30 50 C 6.3763 1.68162 -0.204416 0
M  V30 51 O 7.5823 1.76122 -0.371645 0
M  V30 52 H 3.9573 0.631087 -0.408942 0
M  V30 53 H 5.9283 1.93562 -2.27104 0
M  V30 54 C 4.6773 3.29055 -1.12329 0
M  V30 55 H 4.0003 3.4795 -1.96903 0
M  V30 56 H 5.4403 4.08756 -1.12671 0
M  V30 57 C 3.8993 3.36461 0.171861 0
M  V30 58 O 4.4293 3.84576 1.16035 0
M  V30 59 N 2.6353 2.89782 0.217846 0
M  V30 60 H 2.1823 2.50819 -0.587183 0
M  V30 61 H 2.1403 2.95119 1.08408 0
M  V30 62 N 5.9124 1.20967 1.01018 0
M  V30 63 C 6.8444 0.922059 2.09835 0
M  V30 64 C 7.8574 -0.0927106 1.62536 0
M  V30 65 O 9.0464 0.139127 1.77957 0
M  V30 66 C 6.1464 0.362004 3.36961 0
M  V30 67 C 5.3194 1.42986 4.13369 0
M  V30 68 C 4.3784 0.879976 5.1879 0
M  V30 69 O 3.4044 1.56219 5.47343 0
M  V30 70 N 4.6064 -0.307396 5.79686 0
M  V30 71 H 7.3714 1.8588 2.35093 0
M  V30 72 H 4.9324 1.11422 1.1746 0
M  V30 73 H 6.9244 -0.0201474 4.04695 0
M  V30 74 H 5.4944 -0.479437 3.08902 0
M  V30 75 H 4.7144 1.98608 3.40512 0
M  V30 76 H 6.0024 2.14885 4.61196 0
M  V30 77 H 5.4004 -0.878796 5.58832 0
M  V30 78 H 3.9574 -0.631115 6.48737 0
M  V30 79 N 7.3905 -1.2043 1.01659 0
M  V30 80 C 8.3405 -2.21076 0.557623 0
M  V30 81 C 9.3245 -1.56176 -0.387029 0
M  V30 82 O 10.5165 -1.7575 -0.209996 0
M  V30 83 C 7.6455 -3.43146 -0.102707 0
M  V30 84 C 6.7315 -4.15213 0.863652 0
M  V30 85 N 7.1225 -4.63662 2.02117 0
M  V30 86 C 5.4205 -4.40716 0.684472 0
M  V30 87 C 6.1215 -5.18868 2.62966 0
M  V30 88 N 5.0975 -5.0893 1.91027 0
M  V30 89 H 8.8995 -2.56201 1.44008 0
M  V30 90 H 6.4135 -1.36366 0.881931 0
M  V30 91 H 8.4105 -4.14475 -0.449054 0
M  V30 92 H 7.0705 -3.09526 -0.981003 0
M  V30 93 H 8.0815 -4.58877 2.40109 0
M  V30 94 H 4.7585 -4.17245 -0.14577 0
M  V30 95 H 6.1485 -5.6673 3.60924 0
M  V30 96 N 8.8686 -0.792821 -1.36206 0
M  V30 97 C 9.7986 -0.207853 -2.32573 0
M  V30 98 C 10.7796 0.659055 -1.56813 0
M  V30 99 O 11.9646 0.592176 -1.84951 0
M  V30 100 C 9.0946 0.655449 -3.41059 0
M  V30 101 C 8.0486 -0.111842 -4.27854 0
M  V30 102 C 7.3746 0.872274 -5.27537 0
M  V30 103 C 8.6746 -1.30299 -5.05786 0
M  V30 104 H 10.3686 -1.01294 -2.81744 0
M  V30 105 H 7.9146 -0.48854 -1.3546 0
M  V30 106 H 9.8676 1.07464 -4.07467 0
M  V30 107 H 8.5916 1.49328 -2.90463 0
M  V30 108 H 7.2506 -0.512053 -3.63006 0
M  V30 109 H 6.8986 1.70523 -4.73214 0
M  V30 110 H 6.5986 0.363291 -5.86476 0
M  V30 111 H 8.1226 1.28996 -5.96818 0
M  V30 112 H 9.5366 -0.959379 -5.65216 0
M  V30 113 H 7.9336 -1.7455 -5.74154 0
M  V30 114 H 9.0036 -2.09663 -4.37229 0
M  V30 115 N 10.3467 1.47872 -0.545128 0
M  V30 116 C 11.2947 2.31533 0.222512 0
M  V30 117 C 12.2887 1.42177 0.920985 0
M  V30 118 O 13.4947 1.59005 0.843645 0
M  V30 119 H 9.8697 0.746519 0.0906278 0
M  V30 120 H 11.8407 2.94139 -0.50246 0
M  V30 121 C 10.5897 3.2457 1.24699 0
M  V30 122 H 9.9127 3.93283 0.718944 0
M  V30 123 H 11.3527 3.85963 1.75523 0
M  V30 124 C 9.8117 2.47237 2.28856 0
M  V30 125 O 10.3417 2.20808 3.35569 0
M  V30 126 N 8.5477 2.08461 2.02466 0
M  V30 127 H 8.0947 2.30155 1.157 0
M  V30 128 H 8.0527 1.57033 2.72375 0
M  V30 129 N 11.8248 0.280983 1.55075 0
M  V30 130 C 12.7718 -0.603937 2.22758 0
M  V30 131 C 13.7418 -1.1452 1.20309 0
M  V30 132 O 14.9268 -1.19343 1.48869 0
M  V30 133 C 12.0668 -1.77947 2.95684 0
M  V30 134 C 11.1798 -1.2715 4.12864 0
M  V30 135 C 10.3148 -2.4093 4.7342 0
M  V30 136 C 9.3538 -1.87165 5.82783 0
M  V30 137 N 8.4908 -2.94441 6.37377 0
M  V30 138 H 13.3308 -0.020124 2.97993 0
M  V30 139 H 10.8678 0.00183425 1.471 0
M  V30 140 H 12.8258 -2.47055 3.36184 0
M  V30 141 H 11.4558 -2.33522 2.22861 0
M  V30 142 H 10.5078 -0.473331 3.77444 0
M  V30 143 H 11.8198 -0.837751 4.91715 0
M  V30 144 H 10.9738 -3.18021 5.1667 0
M  V30 145 H 9.7128 -2.87623 3.93859 0
M  V30 146 H 8.7178 -1.08556 5.38976 0
M  V30 147 H 9.9428 -1.41401 6.64216 0
M  V30 148 H 7.8888 -3.40505 5.60707 0
M  V30 149 H 7.8058 -2.55501 7.11516 0
M  V30 150 H 9.0738 -3.71489 6.85285 0
M  V30 151 N 13.3029 -1.57598 0.00835791 0
M  V30 152 C 14.5309 -1.95214 -0.68549 0
M  V30 153 C 14.9459 -0.883706 -1.66841 0
M  V30 154 O 14.3029 0.136565 -1.81988 0
M  V30 155 C 14.3539 -3.32865 -1.41007 0
M  V30 156 O 14.0749 -4.35609 -0.466552 0
M  V30 157 C 15.5759 -3.84991 -2.19765 0
M  V30 158 H 12.7959 -0.643422 -0.190392 0
M  V30 159 H 15.3399 -2.04406 0.0619607 0
M  V30 160 H 13.4949 -3.24956 -2.10908 0
M  V30 161 H 13.9089 -5.15288 -0.978699 0
M  V30 162 H 15.3829 -4.8371 -2.65948 0
M  V30 163 H 15.8599 -3.18137 -3.02796 0
M  V30 164 H 16.4659 -3.96103 -1.54864 0
M  V30 165 N 14.781 0.264519 -1.55364 0
M  V30 166 C 15.744 1.31046 -1.88042 0
M  V30 167 C 16.744 1.41943 -0.755569 0
M  V30 168 O 17.934 1.40947 -1.02369 0
M  V30 169 C 15.066 2.69067 -2.09323 0
M  V30 170 H 16.259 1.03297 -2.81549 0
M  V30 171 H 13.812 0.502989 -1.47986 0
M  V30 172 H 14.547 3.01982 -1.18226 0
M  V30 173 H 14.332 2.62542 -2.91229 0
M  V30 174 H 15.822 3.44623 -2.35848 0
M  V30 175 N 16.2591 1.48442 0.529413 0
M  V30 176 C 17.1691 1.6569 1.66084 0
M  V30 177 C 18.1851 0.539432 1.65427 0
M  V30 178 O 19.3611 0.810572 1.84368 0
M  V30 179 C 16.4261 1.69315 3.02545 0
M  V30 180 C 15.4871 2.92694 3.14052 0
M  V30 181 C 14.7201 2.96137 4.44003 0
M  V30 182 O 14.9431 2.07973 5.31134 0
M  V30 183 O 13.8771 3.88312 4.59888 0
M  V30 184 H 17.7031 2.61483 1.54469 0
M  V30 185 H 15.2881 1.3185 0.702567 0
M  V30 186 H 17.1701 1.74217 3.83701 0
M  V30 187 H 15.8451 0.766966 3.14483 0
M  V30 188 H 14.7521 2.93324 2.32189 0
M  V30 189 H 16.0851 3.84699 3.0703 0
M  V30 190 N 17.7372 -0.778329 1.37039 0
M  V30 191 C 18.7002 -1.87301 1.32102 0
M  V30 192 C 19.7002 -1.59198 0.226405 0
M  V30 193 O 20.8902 -1.67403 0.481861 0
M  V30 194 C 18.0222 -3.24309 1.05055 0
M  V30 195 H 19.2152 -1.93093 2.29467 0
M  V30 196 H 16.7682 -0.977358 1.21973 0
M  V30 197 H 17.5032 -3.24196 0.0819373 0
M  V30 198 H 17.2882 -3.46098 1.84279 0
M  V30 199 H 18.7782 -4.04382 1.04234 0
M  V30 200 N 19.2153 -1.21501 -1.00376 0
M  V30 201 C 20.1473 -0.933174 -2.09343 0
M  V30 202 C 21.1603 0.0840896 -1.62583 0
M  V30 203 O 22.3493 -0.148563 -1.77881 0
M  V30 204 C 19.4493 -0.379869 -3.36764 0
M  V30 205 C 18.6223 -1.45176 -4.12605 0
M  V30 206 C 17.6813 -0.907476 -5.18316 0
M  V30 207 O 16.7073 -1.5912 -5.46507 0
M  V30 208 N 17.9093 0.276649 -5.7984 0
M  V30 209 H 20.6743 -1.87124 -2.34104 0
M  V30 210 H 18.2353 -1.12043 -1.16867 0
M  V30 211 H 20.2273 -0.00131488 -4.047 0
M  V30 212 H 18.7973 0.463048 -3.09151 0
M  V30 213 H 18.0173 -2.00411 -3.39454 0
M  V30 214 H 19.3053 -2.17328 -4.6005 0
M  V30 215 H 18.7033 0.849147 -5.59291 0
M  V30 216 H 17.2603 0.596702 -6.49063 0
M  V30 217 N 20.6934 1.19889 -1.02296 0
M  V30 218 C 22.1044 1.71124 -0.746568 0
M  V30 219 C 22.4554 1.81939 0.734335 0
M  V30 220 O 21.5804 1.48639 1.57275 0
M  V30 221 C 22.1754 3.10804 -1.34857 0
M  V30 222 C 20.7344 3.59323 -1.1209 0
M  V30 223 C 19.8814 2.3635 -1.45031 0
M  V30 224 H 22.8324 1.04813 -1.19163 0
M  V30 225 H 22.8534 3.73186 -0.742437 0
M  V30 226 H 22.3654 3.029 -2.42638 0
M  V30 227 H 20.4664 3.7255 -0.0610337 0
M  V30 228 H 20.5794 4.4378 -1.80544 0
M  V30 229 H 18.9434 2.39399 -0.869487 0
M  V30 230 H 19.7264 2.31081 -2.53883 0
M  V30 231 N 22.1715 0.800033 1.35784 0
M  V30 232 C 23.3965 0.388511 2.03729 0
M  V30 233 C 23.8215 -0.990481 1.5991 0
M  V30 234 O 23.1795 -1.64013 0.772612 0
M  V30 235 C 23.2275 0.4726 3.5749 0
M  V30 236 O 22.3315 -0.51646 4.09153 0
M  V30 237 H 21.6725 0.163271 0.643614 0
M  V30 238 H 24.2025 1.0841 1.73518 0
M  V30 239 H 24.2125 0.34003 4.06581 0
M  V30 240 H 22.8875 1.47848 3.88734 0
M  V30 241 H 21.4645 -0.344673 3.71304 0
M  V30 242 N 23.6496 -1.47581 0.552962 0
M  V30 243 C 24.5596 -2.33743 -0.200353 0
M  V30 244 C 25.5756 -1.47928 -0.916151 0
M  V30 245 O 26.7516 -1.80865 -0.885993 0
M  V30 246 C 23.8166 -3.24536 -1.21973 0
M  V30 247 C 22.8776 -4.26238 -0.511819 0
M  V30 248 C 22.1106 -5.12693 -1.48263 0
M  V30 249 O 22.3336 -5.01525 -2.71714 0
M  V30 250 O 21.2676 -5.93375 -1.00945 0
M  V30 251 H 25.0936 -2.9945 0.506304 0
M  V30 252 H 22.6786 -1.46071 0.313622 0
M  V30 253 H 24.5606 -3.80631 -1.80827 0
M  V30 254 H 23.2356 -2.61462 -1.90839 0
M  V30 255 H 22.1426 -3.73914 0.117799 0
M  V30 256 H 23.4756 -4.92014 0.135308 0
M  V30 257 N 25.1277 -0.289203 -1.54924 0
M  V30 258 C 26.0757 0.607966 -2.24514 0
M  V30 259 C 27.0697 1.14655 -1.24702 0
M  V30 260 O 28.2757 1.09856 -1.4259 0
M  V30 261 H 24.6507 0.21464 -0.720718 0
M  V30 262 H 26.6217 -0.00164182 -2.984 0
M  V30 263 C 25.3707 1.77406 -2.99036 0
M  V30 264 H 24.6937 1.36884 -3.75637 0
M  V30 265 H 26.1337 2.37814 -3.51028 0
M  V30 266 C 24.5927 2.67107 -2.05318 0
M  V30 267 O 25.1227 3.6787 -1.61353 0
M  V30 268 N 23.3287 2.34582 -1.71521 0
M  V30 269 H 22.8757 1.52688 -2.07471 0
M  V30 270 H 22.8337 2.94867 -1.0909 0
M  V30 271 N 26.6058 1.57591 -0.0167156 0
M  V30 272 C 27.5528 2.09462 0.969251 0
M  V30 273 C 28.5228 0.99381 1.33089 0
M  V30 274 O 29.7078 1.26726 1.42636 0
M  V30 275 C 26.8478 2.61622 2.25051 0
M  V30 276 C 25.9608 3.85666 1.94642 0
M  V30 277 C 25.0958 4.26266 3.16972 0
M  V30 278 C 24.1348 5.43101 2.82326 0
M  V30 279 N 23.2718 5.78915 3.97243 0
M  V30 280 H 28.1118 2.93428 0.519997 0
M  V30 281 H 25.6488 1.45044 0.245087 0
M  V30 282 H 27.6068 2.89949 2.99976 0
M  V30 283 H 26.2368 1.80505 2.67615 0
M  V30 284 H 25.2888 3.64145 1.10013 0
M  V30 285 H 26.6008 4.70678 1.65117 0
M  V30 286 H 25.7548 4.55963 4.00228 0
M  V30 287 H 24.4938 3.39996 3.49648 0
M  V30 288 H 23.4988 5.1311 1.97479 0
M  V30 289 H 24.7238 6.3106 2.50879 0
M  V30 290 H 22.6698 4.95602 4.29785 0
M  V30 291 H 22.5868 6.58539 3.71299 0
M  V30 292 H 23.8548 6.13212 4.81239 0
M  V30 293 N 28.0839 -0.256276 1.55502 0
M  V30 294 C 29.0309 -1.31714 1.89526 0
M  V30 295 C 30.0009 -1.4828 0.748479 0
M  V30 296 O 31.1859 -1.62416 1.00128 0
M  V30 297 C 28.3259 -2.66933 2.18725 0
M  V30 298 C 27.4389 -2.58452 3.4616 0
M  V30 299 C 26.5739 -3.85961 3.64976 0
M  V30 300 C 25.6129 -3.72059 4.86044 0
M  V30 301 N 24.7499 -4.9144 5.01429 0
M  V30 302 H 29.5899 -1.01998 2.80001 0
M  V30 303 H 27.1269 -0.492413 1.38613 0
M  V30 304 H 29.0849 -3.4563 2.33657 0
M  V30 305 H 27.7149 -2.94816 1.31466 0
M  V30 306 H 26.7669 -1.71374 3.3961 0
M  V30 307 H 28.0789 -2.44085 4.34999 0
M  V30 308 H 27.2329 -4.73101 3.79816 0
M  V30 309 H 25.9719 -4.03215 2.74353 0
M  V30 310 H 24.9769 -2.83302 4.7119 0
M  V30 311 H 26.2019 -3.56309 5.78118 0
M  V30 312 H 24.1479 -5.09072 4.13741 0
M  V30 313 H 24.0649 -4.79668 5.84341 0
M  V30 314 H 25.3329 -5.80104 5.20672 0
M  V30 315 N 29.562 -1.4872 -0.521534 0
M  V30 316 C 30.79 -1.60843 -1.30142 0
M  V30 317 C 31.205 -0.271897 -1.86832 0
M  V30 318 O 30.562 0.739969 -1.66825 0
M  V30 319 C 30.613 -2.66155 -2.4463 0
M  V30 320 O 30.334 -3.94623 -1.90275 0
M  V30 321 C 31.835 -2.88795 -3.36322 0
M  V30 322 H 29.055 -0.542075 -0.395468 0
M  V30 323 H 31.599 -1.94609 -0.628285 0
M  V30 324 H 29.754 -2.35224 -3.07812 0
M  V30 325 H 30.168 -4.52468 -2.65279 0
M  V30 326 H 31.642 -3.66264 -4.12983 0
M  V30 327 H 32.119 -1.97934 -3.9207 0
M  V30 328 H 32.725 -3.21063 -2.78924 0
M  V30 329 N 31.0401 0.771051 -1.3745 0
M  V30 330 C 32.4561 1.07171 -1.18265 0
M  V30 331 C 32.6561 2.01491 -0.019287 0
M  V30 332 O 31.7121 2.44244 0.640408 0
M  V30 333 C 33.0251 1.66854 -2.50161 0
M  V30 334 C 34.5731 1.79109 -2.56689 0
M  V30 335 C 35.0481 2.42205 -3.88717 0
M  V30 336 N 36.5391 2.49655 -3.90162 0
M  V30 337 C 37.2741 2.9933 -4.8907 0
M  V30 338 N 36.7701 3.49172 -5.98374 0
M  V30 339 N 38.5631 2.9821 -4.76474 0
M  V30 340 H 30.7141 0.144796 -2.11906 0
M  V30 341 H 32.9771 0.126863 -0.939473 0
M  V30 342 H 32.6831 1.05017 -3.35655 0
M  V30 343 H 32.5571 2.6614 -2.673 0
M  V30 344 H 34.9441 2.40077 -1.71601 0
M  V30 345 H 35.0251 0.785757 -2.43433 0
M  V30 346 H 34.6691 1.81875 -4.74219 0
M  V30 347 H 34.5991 3.43345 -3.99276 0
M  V30 348 H 37.0901 2.14383 -3.11205 0
M  V30 349 H 37.4031 3.8548 -6.69795 0
M  V30 350 H 35.7481 3.47275 -6.02018 0
M  V30 351 H 38.9391 2.58572 -3.90203 0
M  V30 352 H 39.1121 3.36613 -5.53711 0
M  V30 353 N 32.5182 1.22032 0.997298 0
M  V30 354 C 33.7482 1.06686 1.76923 0
M  V30 355 C 34.1562 -0.385838 1.85224 0
M  V30 356 O 33.4992 -1.27929 1.31833 0
M  V30 357 C 33.5612 1.59802 3.22031 0
M  V30 358 C 33.2252 3.08362 3.37286 0
M  V30 359 C 34.2222 4.05835 3.24952 0
M  V30 360 C 31.9072 3.47727 3.6248 0
M  V30 361 C 33.9012 5.4066 3.37588 0
M  V30 362 C 31.5882 4.82701 3.74757 0
M  V30 363 C 32.5862 5.78977 3.62319 0
M  V30 364 O 32.2742 7.11502 3.74193 0
M  V30 365 H 32.0062 0.374767 0.562606 0
M  V30 366 H 34.5602 1.61991 1.26286 0
M  V30 367 H 32.7902 0.989003 3.73839 0
M  V30 368 H 34.4792 1.40184 3.80924 0
M  V30 369 H 35.2452 3.76766 3.05405 0
M  V30 370 H 31.1242 2.73317 3.7124 0
M  V30 371 H 34.6682 6.15788 3.27796 0
M  V30 372 H 30.5652 5.11453 3.9381 0
M  V30 373 H 31.3332 7.19019 3.91093 0
M  V30 374 N 33.9963 -1.19345 1.0293 0
M  V30 375 C 35.2363 -1.90738 0.734727 0
M  V30 376 C 35.6003 -1.7785 -0.723414 0
M  V30 377 O 36.8013 -2.43844 -1.13108 0
M  V30 378 C 35.0723 -3.37569 1.17396 0
M  V30 379 S 36.6313 -4.27176 1.00329 0
M  V30 380 H 33.4493 -0.658771 0.267474 0
M  V30 381 H 36.0513 -1.4428 1.31922 0
M  V30 382 H 34.7553 -3.44475 2.23081 0
M  V30 383 H 34.2863 -3.8906 0.582772 0
M  V30 384 H 36.3013 -4.96126 -0.0859152 0
M  V30 385 N 35.4744 -0.807222 -1.35358 0
M  V30 386 C 36.4224 -0.20614 -2.31685 0
M  V30 387 C 37.4164 0.644445 -1.56663 0
M  V30 388 O 38.6224 0.537538 -1.71786 0
M  V30 389 H 34.9974 -0.0479006 -0.750473 0
M  V30 390 H 36.9684 -1.03369 -2.79924 0
M  V30 391 C 35.7174 0.630212 -3.41941 0
M  V30 392 H 35.0404 -0.0149558 -3.99797 0
M  V30 393 H 36.4804 1.01716 -4.11619 0
M  V30 394 C 34.9394 1.79601 -2.85035 0
M  V30 395 O 35.4694 2.89351 -2.78637 0
M  V30 396 N 33.6754 1.60774 -2.42074 0
M  V30 397 H 33.2224 0.715009 -2.47478 0
M  V30 398 H 33.1804 2.38933 -2.04349 0
M  V30 399 N 36.9525 1.47285 -0.560781 0
M  V30 400 C 38.2005 2.02064 -0.0379868 0
M  V30 401 C 38.5215 1.43711 1.31803 0
M  V30 402 O 37.7915 0.61362 1.86042 0
M  V30 403 H 36.3715 0.746918 -0.0110531 0
M  V30 404 H 39.0335 1.80648 -0.731598 0
M  V30 405 H 38.1295 3.12064 0.0474463 0
M  V30 406 N 38.4306 0.297415 1.54768 0
M  V30 407 C 39.3606 -0.573494 2.26348 0
M  V30 408 C 40.3416 -1.14085 1.26169 0
M  V30 409 O 41.5266 -1.17086 1.54934 0
M  V30 410 C 38.6566 -1.74716 3.00153 0
M  V30 411 C 37.6106 -1.31032 4.07449 0
M  V30 412 C 36.9366 -2.56887 4.68949 0
M  V30 413 C 38.2366 -0.444183 5.20408 0
M  V30 414 H 39.9306 0.0235131 2.99391 0
M  V30 415 H 37.4766 0.0127488 1.43994 0
M  V30 416 H 39.4296 -2.3625 3.48947 0
M  V30 417 H 38.1536 -2.37035 2.24682 0
M  V30 418 H 36.8126 -0.718066 3.59499 0
M  V30 419 H 36.4606 -3.17512 3.90122 0
M  V30 420 H 36.1606 -2.2836 5.41411 0
M  V30 421 H 37.6846 -3.19229 5.20505 0
M  V30 422 H 39.0986 -0.9651 5.65118 0
M  V30 423 H 37.4956 -0.252846 5.99567 0
M  V30 424 H 38.5656 0.531609 4.81977 0
M  V30 425 N 39.9087 -1.5758 0.0250728 0
M  V30 426 C 40.8557 -2.09973 -0.958129 0
M  V30 427 C 41.8257 -1.00085 -1.3256 0
M  V30 428 O 43.0107 -1.27481 -1.41962 0
M  V30 429 C 40.1507 -2.62812 -2.2366 0
M  V30 430 C 39.2637 -3.86693 -1.92594 0
M  V30 431 C 38.3987 -4.27941 -3.14707 0
M  V30 432 C 37.4377 -5.44591 -2.79442 0
M  V30 433 N 36.5747 -5.81014 -3.94167 0
M  V30 434 H 41.4147 -2.937 -0.504428 0
M  V30 435 H 38.9517 -1.45172 -0.237392 0
M  V30 436 H 40.9097 -2.91536 -2.98434 0
M  V30 437 H 39.5397 -1.81922 -2.66654 0
M  V30 438 H 38.5917 -3.64723 -1.0808 0
M  V30 439 H 39.9037 -4.71547 -1.62619 0
M  V30 440 H 39.0577 -4.58079 -3.97804 0
M  V30 441 H 37.7967 -3.41845 -3.4784 0
M  V30 442 H 36.8017 -5.1415 -1.94755 0
M  V30 443 H 38.0267 -6.32382 -2.47528 0
M  V30 444 H 35.9727 -4.97874 -4.2715 0
M  V30 445 H 35.8897 -6.60498 -3.67801 0
M  V30 446 H 37.1577 -6.15756 -4.7798 0
M  V30 447 N 41.3868 0.248026 -1.55636 0
M  V30 448 C 42.3198 1.3334 -1.85191 0
M  V30 449 C 43.2978 1.46429 -0.706906 0
M  V30 450 O 44.4818 1.62662 -0.952544 0
M  V30 451 C 41.6088 2.70703 -2.03562 0
M  V30 452 C 40.6548 2.7477 -3.26196 0
M  V30 453 S 41.4878 2.31493 -4.82878 0
M  V30 454 C 42.6438 3.70783 -5.04253 0
M  V30 455 H 42.8768 1.08072 -2.76962 0
M  V30 456 H 40.4098 0.448952 -1.47729 0
M  V30 457 H 42.3678 3.49798 -2.1483 0
M  V30 458 H 41.0288 2.9321 -1.12635 0
M  V30 459 H 40.2218 3.75648 -3.36013 0
M  V30 460 H 39.8238 2.03719 -3.13647 0
M  V30 461 H 42.1158 4.6627 -4.91527 0
M  V30 462 H 43.0588 3.65901 -6.06236 0
M  V30 463 H 43.4668 3.63244 -4.32105 0
M  V30 464 N 42.8649 1.48995 0.513639 0
M  V30 465 C 44.1119 1.57843 1.26854 0
M  V30 466 C 44.4399 0.259501 1.92761 0
M  V30 467 O 43.6949 -0.75159 1.80692 0
M  V30 468 C 43.9939 2.67756 2.36731 0
M  V30 469 C 43.6599 4.09669 1.88368 0
M  V30 470 C 42.3219 4.48291 1.74896 0
M  V30 471 C 44.6739 4.98537 1.52021 0
M  V30 472 C 42.0019 5.73568 1.23438 0
M  V30 473 C 44.3539 6.24319 1.0202 0
M  V30 474 C 43.0179 6.61783 0.871778 0
M  V30 475 H 42.2879 0.577587 0.464192 0
M  V30 476 H 44.9349 1.82778 0.571366 0
M  V30 477 H 43.2399 2.36743 3.12185 0
M  V30 478 H 44.9369 2.71813 2.9482 0
M  V30 479 H 41.5269 3.79176 1.99808 0
M  V30 480 H 45.7109 4.69363 1.61281 0
M  V30 481 H 40.9669 6.01304 1.10648 0
M  V30 482 H 45.1409 6.92566 0.729722 0
M  V30 483 H 42.7679 7.5874 0.470852 0
M  V30 484 N 44.343 -0.763751 1.37857 0
M  V30 485 C 45.273 -1.89103 1.36975 0
M  V30 486 C 46.254 -1.68439 0.237152 0
M  V30 487 O 47.439 -1.8918 0.438713 0
M  V30 488 C 44.569 -3.26496 1.18395 0
M  V30 489 C 43.523 -3.61741 2.28751 0
M  V30 490 C 42.849 -4.97762 1.95286 0
M  V30 491 C 44.149 -3.67665 3.70972 0
M  V30 492 H 45.843 -1.90099 2.31307 0
M  V30 493 H 43.389 -0.91319 1.11341 0
M  V30 494 H 45.342 -4.05003 1.16406 0
M  V30 495 H 44.066 -3.25955 0.205215 0
M  V30 496 H 42.725 -2.85547 2.29909 0
M  V30 497 H 42.373 -4.93769 0.959221 0
M  V30 498 H 42.073 -5.22313 2.69189 0
M  V30 499 H 43.597 -5.7866 1.94898 0
M  V30 500 H 45.011 -4.36307 3.719 0
M  V30 501 H 43.408 -4.03718 4.43995 0
M  V30 502 H 44.478 -2.68134 4.0402 0
M  V30 503 N 45.8211 -1.22559 -0.990812 0
M  V30 504 C 46.7841 -0.998863 -2.0629 0
M  V30 505 C 47.7841 0.0354834 -1.60761 0
M  V30 506 O 48.9741 -0.203231 -1.7301 0
M  V30 507 C 46.1061 -0.509203 -3.37076 0
M  V30 508 H 47.2991 -1.95014 -2.27837 0
M  V30 509 H 44.8521 -1.04456 -1.16269 0
M  V30 510 H 45.5871 0.446335 -3.21214 0
M  V30 511 H 45.3721 -1.25547 -3.71457 0
M  V30 512 H 46.8621 -0.370888 -4.1595 0
M  V30 513 N 47.2992 1.18797 -1.03562 0
M  V30 514 C 48.2622 2.20464 -0.626769 0
M  V30 515 C 49.2622 1.57721 0.313173 0
M  V30 516 O 50.4522 1.73917 0.0992615 0
M  V30 517 C 47.5842 3.40802 0.0818498 0
M  V30 518 H 48.7772 2.58149 -1.5264 0
M  V30 519 H 46.3302 1.32593 -0.827578 0
M  V30 520 H 47.0652 3.08642 0.995518 0
M  V30 521 H 46.8502 3.8758 -0.593652 0
M  V30 522 H 48.3402 4.16092 0.354584 0
M  V30 523 N 48.7773 0.814389 1.34928 0
M  V30 524 C 49.7073 0.244827 2.32213 0
M  V30 525 C 50.6883 -0.634024 1.57842 0
M  V30 526 O 51.8733 -0.562676 1.8587 0
M  V30 527 C 49.0033 -0.601106 3.42058 0
M  V30 528 C 47.9573 0.179896 4.27622 0
M  V30 529 C 47.2833 -0.788237 5.28858 0
M  V30 530 C 48.5833 1.38329 5.03649 0
M  V30 531 H 50.2773 1.05763 2.80097 0
M  V30 532 H 47.8233 0.510029 1.34665 0
M  V30 533 H 49.7763 -1.00968 4.09125 0
M  V30 534 H 48.5003 -1.44688 2.92802 0
M  V30 535 H 47.1593 0.569739 3.62146 0
M  V30 536 H 46.8073 -1.62973 4.75866 0
M  V30 537 H 46.5073 -0.269942 5.8698 0
M  V30 538 H 48.0313 -1.19485 5.98795 0
M  V30 539 H 49.4453 1.04918 5.63618 0
M  V30 540 H 47.8423 1.83662 5.71304 0
M  V30 541 H 48.9123 2.16592 4.33839 0
M  V30 542 N 50.2554 -1.46986 0.568584 0
M  V30 543 C 51.4804 -2.07335 0.0520528 0
M  V30 544 C 51.9054 -1.41675 -1.23733 0
M  V30 545 O 51.2634 -0.495623 -1.74394 0
M  V30 546 C 51.3114 -3.60417 -0.11501 0
M  V30 547 O 50.4154 -3.95309 -1.17492 0
M  V30 548 H 49.7564 -0.661597 0.0564385 0
M  V30 549 H 52.2864 -1.88837 0.787507 0
M  V30 550 H 52.2964 -4.06698 -0.325644 0
M  V30 551 H 50.9714 -4.07601 0.826675 0
M  V30 552 H 49.5484 -3.60757 -0.943869 0
M  V30 553 N 51.7335 -0.305618 -1.54608 0
M  V30 554 C 52.6635 0.561482 -2.26649 0
M  V30 555 C 53.6445 1.13415 -1.26772 0
M  V30 556 O 54.8295 1.16262 -1.55553 0
M  V30 557 C 51.9595 1.73122 -3.01075 0
M  V30 558 C 50.9135 1.2887 -4.08138 0
M  V30 559 C 50.2395 2.54396 -4.70305 0
M  V30 560 C 51.5395 0.416578 -5.20636 0
M  V30 561 H 53.2335 -0.0393902 -2.99374 0
M  V30 562 H 50.7795 -0.020385 -1.43986 0
M  V30 563 H 52.7325 2.34396 -3.50195 0
M  V30 564 H 51.4565 2.3584 -2.25936 0
M  V30 565 H 50.1155 0.698991 -3.59875 0
M  V30 566 H 49.7635 3.15439 -3.918 0
M  V30 567 H 49.4635 2.25486 -5.42614 0
M  V30 568 H 50.9875 3.16464 -5.2219 0
M  V30 569 H 52.4015 0.935116 -5.65622 0
M  V30 570 H 50.7985 0.221046 -5.99693 0
M  V30 571 H 51.8685 -0.557162 -4.81688 0
M  V30 572 N 53.2116 1.57565 -0.0334293 0
M  V30 573 C 54.4366 1.96689 0.657895 0
M  V30 574 C 54.8616 0.910057 1.64619 0
M  V30 575 O 54.2196 -0.128598 1.80843 0
M  V30 576 C 54.2676 3.34905 1.33683 0
M  V30 577 O 53.3716 3.31574 2.45219 0
M  V30 578 H 52.7126 0.641205 0.172489 0
M  V30 579 H 55.2426 2.04372 -0.0965621 0
M  V30 580 H 55.2526 3.71234 1.69262 0
M  V30 581 H 53.9276 4.11366 0.612411 0
M  V30 582 H 52.5046 3.06968 2.11719 0
M  V30 583 N 54.6897 -0.239769 1.55765 0
M  V30 584 C 55.9367 -0.966801 1.7793 0
M  V30 585 C 56.2647 -1.85046 0.599015 0
M  V30 586 O 55.5197 -1.91197 -0.417395 0
M  V30 587 C 55.8187 -1.852 3.05672 0
M  V30 588 C 55.4847 -1.1231 4.36689 0
M  V30 589 C 54.1467 -0.921689 4.72291 0
M  V30 590 C 56.4987 -0.607019 5.17653 0
M  V30 591 C 53.8267 -0.191996 5.86386 0
M  V30 592 C 56.1787 0.109241 6.32506 0
M  V30 593 C 54.8427 0.322073 6.66723 0
M  V30 594 H 54.1127 -0.353778 0.651093 0
M  V30 595 H 56.7597 -0.23634 1.90036 0
M  V30 596 H 55.0647 -2.64975 2.8861 0
M  V30 597 H 56.7617 -2.41635 3.20021 0
M  V30 598 H 53.3517 -1.29004 4.08725 0
M  V30 599 H 57.5357 -0.750153 4.90598 0
M  V30 600 H 52.7917 -0.0166949 6.11398 0
M  V30 601 H 56.9657 0.516737 6.9448 0
M  V30 602 H 54.5927 0.88944 7.54979 0
M  V30 603 N 56.1678 -1.49265 -0.50573 0
M  V30 604 C 57.4168 -1.57761 -1.25675 0
M  V30 605 C 57.7298 -0.267371 -1.93764 0
M  V30 606 O 58.9358 -0.230827 -2.70517 0
M  V30 607 C 57.3918 -2.78332 -2.28165 0
M  V30 608 C 56.9998 -4.16096 -1.66037 0
M  V30 609 C 58.7438 -2.96155 -3.04125 0
M  V30 610 C 56.6508 -5.27895 -2.6661 0
M  V30 611 H 55.5808 -0.587391 -0.472745 0
M  V30 612 H 58.2318 -1.75644 -0.53118 0
M  V30 613 H 56.6138 -2.53934 -3.03865 0
M  V30 614 H 57.7878 -4.50612 -0.963622 0
M  V30 615 H 56.1028 -4.03591 -1.02484 0
M  V30 616 H 58.6998 -3.76849 -3.79327 0
M  V30 617 H 59.0428 -2.06534 -3.61455 0
M  V30 618 H 59.5758 -3.2057 -2.35541 0
M  V30 619 H 56.3148 -6.1956 -2.14068 0
M  V30 620 H 55.8348 -4.97839 -3.34539 0
M  V30 621 H 57.5138 -5.57031 -3.29129 0
M  V30 622 N 57.6459 0.756429 -1.3826 0
M  V30 623 C 58.6089 1.85176 -1.35065 0
M  V30 624 C 59.6089 1.58818 -0.251703 0
M  V30 625 O 60.7989 1.66615 -0.508433 0
M  V30 626 C 57.9309 3.22596 -1.10201 0
M  V30 627 H 59.1239 1.89417 -2.3251 0
M  V30 628 H 56.6769 0.95783 -1.23512 0
M  V30 629 H 57.4119 3.24025 -0.133504 0
M  V30 630 H 57.1969 3.43122 -1.89762 0
M  V30 631 H 58.6869 4.02673 -1.10654 0
M  V30 632 N 59.124 1.23083 0.984299 0
M  V30 633 C 60.071 1.00854 2.07598 0
M  V30 634 C 61.041 -0.0726709 1.65941 0
M  V30 635 O 62.226 0.0786535 1.90638 0
M  V30 636 C 59.366 0.601645 3.39815 0
M  V30 637 C 58.479 1.75456 3.94765 0
M  V30 638 C 57.614 1.29482 5.15177 0
M  V30 639 C 56.653 2.41873 5.62284 0
M  V30 640 N 55.79 1.96885 6.73929 0
M  V30 641 H 60.63 1.943 2.25946 0
M  V30 642 H 58.167 0.968001 1.10762 0
M  V30 643 H 60.125 0.346854 4.15756 0
M  V30 644 H 58.755 -0.295803 3.21442 0
M  V30 645 H 57.807 2.12346 3.15616 0
M  V30 646 H 59.119 2.59965 4.25699 0
M  V30 647 H 58.273 0.997923 5.98437 0
M  V30 648 H 57.012 0.420046 4.85888 0
M  V30 649 H 56.017 2.72342 4.77608 0
M  V30 650 H 57.242 3.29881 5.93595 0
M  V30 651 H 55.188 1.11782 6.46406 0
M  V30 652 H 55.105 2.74956 7.04227 0
M  V30 653 H 56.373 1.70289 7.60672 0
M  V30 654 N 60.6021 -1.18246 1.0419 0
M  V30 655 C 61.8301 -1.92195 0.766072 0
M  V30 656 C 62.2451 -1.76247 -0.676933 0
M  V30 657 O 61.6021 -1.09293 -1.46155 0
M  V30 658 C 61.6531 -3.43568 1.12442 0
M  V30 659 O 61.3741 -3.59015 2.51078 0
M  V30 660 C 62.8751 -4.34613 0.873275 0
M  V30 661 H 60.0951 -0.610114 0.279288 0
M  V30 662 H 62.6391 -1.50007 1.38989 0
M  V30 663 H 60.7941 -3.8354 0.545542 0
M  V30 664 H 61.2081 -4.5273 2.64831 0
M  V30 665 H 62.6821 -5.39374 1.17385 0
M  V30 666 H 63.1591 -4.38781 -0.191909 0
M  V30 667 H 63.7651 -4.00341 1.43551 0
M  V30 668 N 62.0802 -0.821533 -1.34494 0
M  V30 669 C 63.0102 -0.257138 -2.3208 0
M  V30 670 C 63.9912 0.625645 -1.58176 0
M  V30 671 O 65.1762 0.552811 -1.86166 0
M  V30 672 C 62.3062 0.582958 -3.42372 0
M  V30 673 C 61.2602 -0.202571 -4.2752 0
M  V30 674 C 60.5862 0.760179 -5.29269 0
M  V30 675 C 61.8862 -1.40998 -5.02908 0
M  V30 676 H 63.5802 -1.07247 -2.79532 0
M  V30 677 H 61.1262 -0.517163 -1.34393 0
M  V30 678 H 63.0792 0.987972 -4.09655 0
M  V30 679 H 61.8032 1.43133 -2.93565 0
M  V30 680 H 60.4622 -0.588936 -3.61838 0
M  V30 681 H 60.1102 1.60447 -4.76724 0
M  V30 682 H 59.8102 0.238809 -5.87115 0
M  V30 683 H 61.3342 1.16308 -5.9942 0
M  V30 684 H 62.7482 -1.07905 -5.63054 0
M  V30 685 H 61.1452 -1.86689 -5.70322 0
M  V30 686 H 62.2152 -2.1889 -4.32684 0
M  V30 687 N 63.5583 1.46682 -0.576371 0
M  V30 688 C 64.8063 2.02013 -0.0594163 0
M  V30 689 C 65.1273 1.45101 1.30271 0
M  V30 690 O 64.3973 0.633317 1.8538 0
M  V30 691 H 62.9773 0.746759 -0.0189745 0
M  V30 692 H 65.6393 1.79862 -0.750717 0
M  V30 693 H 64.7353 3.12097 0.014345 0
M  V30 694 N 65.0364 0.313813 1.54444 0
M  V30 695 C 65.9994 -0.54379 2.22656 0
M  V30 696 C 66.9994 -1.05124 1.21678 0
M  V30 697 O 68.1894 -0.945225 1.46325 0
M  V30 698 C 65.3214 -1.75427 2.92298 0
M  V30 699 H 66.5144 0.0523599 2.99854 0
M  V30 700 H 64.0674 0.0647834 1.56166 0
M  V30 701 H 64.8024 -2.38991 2.19211 0
M  V30 702 H 64.5874 -1.39791 3.66334 0
M  V30 703 H 66.0774 -2.36325 3.44297 0
M  V30 704 N 66.5145 -1.57545 0.0417849 0
M  V30 705 C 67.7635 -1.91494 -0.633492 0
M  V30 706 C 68.0765 -0.921084 -1.72556 0
M  V30 707 O 69.2825 -1.15228 -2.45835 0
M  V30 708 C 67.7385 -3.40072 -1.17808 0
M  V30 709 C 67.3465 -4.47843 -0.118633 0
M  V30 710 C 69.0905 -3.8307 -1.82915 0
M  V30 711 C 66.9975 -5.87529 -0.675578 0
M  V30 712 H 65.9275 -0.714653 -0.24039 0
M  V30 713 H 68.5785 -1.83175 0.109148 0
M  V30 714 H 66.9605 -3.43364 -1.97274 0
M  V30 715 H 68.1345 -4.56128 0.654494 0
M  V30 716 H 66.4495 -4.14128 0.434414 0
M  V30 717 H 69.0465 -4.84794 -2.25563 0
M  V30 718 H 69.3895 -3.1881 -2.67705 0
M  V30 719 H 69.9225 -3.82255 -1.10119 0
M  V30 720 H 66.6615 -6.55362 0.134475 0
M  V30 721 H 66.1815 -5.82824 -1.4169 0
M  V30 722 H 67.8605 -6.36491 -1.1614 0
M  V30 723 N 67.9926 0.231505 -1.5589 0
M  V30 724 C 69.2416 0.955346 -1.7764 0
M  V30 725 C 69.5546 1.85893 -0.608546 0
M  V30 726 O 70.7606 2.62067 -0.70943 0
M  V30 727 C 69.2166 1.74886 -3.14552 0
M  V30 728 C 68.8246 0.891915 -4.39032 0
M  V30 729 C 70.5686 2.46452 -3.45633 0
M  V30 730 C 68.4756 1.68221 -5.66971 0
M  V30 731 H 67.4056 0.360446 -0.662265 0
M  V30 732 H 70.0566 0.209516 -1.823 0
M  V30 733 H 68.4386 2.53723 -3.04041 0
M  V30 734 H 69.6126 0.144793 -4.60572 0
M  V30 735 H 67.9276 0.288863 -4.15397 0
M  V30 736 H 70.5246 3.06061 -4.38441 0
M  V30 737 H 70.8676 3.18841 -2.67668 0
M  V30 738 H 71.4006 1.74613 -3.57428 0
M  V30 739 H 68.1396 1.00178 -6.478 0
M  V30 740 H 67.6596 2.4042 -5.49507 0
M  V30 741 H 69.3386 2.24544 -6.06786 0
M  V30 742 N 69.4707 1.49531 0.497807 0
M  V30 743 C 70.4037 1.61043 1.6168 0
M  V30 744 C 71.3817 0.459386 1.55976 0
M  V30 745 O 72.5657 0.675358 1.75986 0
M  V30 746 C 69.6927 1.56833 3.00202 0
M  V30 747 C 68.7387 2.77173 3.24156 0
M  V30 748 S 69.5717 4.38808 3.06933 0
M  V30 749 C 70.7277 4.37248 4.47845 0
M  V30 750 H 70.9607 2.55702 1.51671 0
M  V30 751 H 68.4937 1.38462 0.683201 0
M  V30 752 H 70.4517 1.55089 3.80076 0
M  V30 753 H 69.1127 0.634561 3.07623 0
M  V30 754 H 68.3057 2.70456 4.25288 0
M  V30 755 H 67.9077 2.76346 2.5201 0
M  V30 756 H 70.1997 4.09164 5.39992 0
M  V30 757 H 71.1427 5.38668 4.59612 0
M  V30 758 H 71.5507 3.67286 4.28674 0
M  V30 759 N 70.9488 -0.749086 1.3866 0
M  V30 760 C 71.8958 -1.86291 1.36251 0
M  V30 761 C 72.8658 -1.64578 0.224347 0
M  V30 762 O 74.0508 -1.86181 0.417279 0
M  V30 763 C 71.1908 -3.23644 1.19786 0
M  V30 764 C 70.3038 -3.57158 2.43027 0
M  V30 765 C 69.4388 -4.83838 2.19258 0
M  V30 766 C 68.4778 -5.10152 3.38247 0
M  V30 767 N 67.6148 -6.28029 3.13884 0
M  V30 768 H 72.4548 -1.87685 2.3147 0
M  V30 769 H 69.9918 -0.917287 1.14997 0
M  V30 770 H 71.9498 -4.0291 1.08254 0
M  V30 771 H 70.5798 -3.21566 0.282031 0
M  V30 772 H 69.6318 -2.72701 2.65214 0
M  V30 773 H 70.9438 -3.7253 3.31697 0
M  V30 774 H 70.0978 -5.71057 2.04888 0
M  V30 775 H 68.8368 -4.70614 1.2796 0
M  V30 776 H 67.8418 -4.21401 3.53131 0
M  V30 777 H 69.0668 -5.25271 4.30427 0
M  V30 778 H 67.0128 -6.1612 2.25238 0
M  V30 779 H 66.9298 -6.43922 3.96106 0
M  V30 780 H 68.1978 -7.18124 3.03179 0
M  V30 781 N 72.4269 -1.23603 -0.977757 0
M  V30 782 C 73.6519 -1.09735 -1.75991 0
M  V30 783 C 74.0769 0.346858 -1.84874 0
M  V30 784 O 73.4349 1.25093 -1.3123 0
M  V30 785 C 73.4829 -1.73051 -3.16363 0
M  V30 786 O 72.5869 -0.994452 -4.0023 0
M  V30 787 H 71.9279 -0.384476 -0.541364 0
M  V30 788 H 74.4579 -1.6371 -1.2272 0
M  V30 789 H 74.4679 -1.78398 -3.66931 0
M  V30 790 H 73.1429 -2.78137 -3.09213 0
M  V30 791 H 71.7199 -1.01812 -3.58732 0
M  V30 792 N 73.905 1.17692 -1.04816 0
M  V30 793 C 75.13 1.92327 -0.776207 0
M  V30 794 C 75.555 1.76082 0.661581 0
M  V30 795 O 74.913 1.076 1.45917 0
M  V30 796 C 74.961 3.41539 -1.15687 0
M  V30 797 O 74.065 4.11402 -0.286775 0
M  V30 798 H 73.406 0.599735 -0.284981 0
M  V30 799 H 75.936 1.49201 -1.4 0
M  V30 800 H 75.946 3.92269 -1.12202 0
M  V30 801 H 74.621 3.52684 -2.20425 0
M  V30 802 H 73.198 3.70939 -0.381903 0
M  V30 803 N 75.3831 0.828654 1.34056 0
M  V30 804 C 76.6321 0.415828 1.97367 0
M  V30 805 C 76.9451 -1.02796 1.6641 0
M  V30 806 O 78.1511 -1.54497 2.23255 0
M  V30 807 C 76.6071 0.692601 3.53173 0
M  V30 808 C 76.2151 2.15038 3.93017 0
M  V30 809 C 77.9591 0.346222 4.23086 0
M  V30 810 C 75.8661 2.37174 5.41758 0
M  V30 811 H 74.7961 0.151755 0.738571 0
M  V30 812 H 77.4471 1.01581 1.52819 0
M  V30 813 H 75.8291 0.0223764 3.95994 0
M  V30 814 H 77.0031 2.86024 3.61285 0
M  V30 815 H 75.3181 2.45875 3.36057 0
M  V30 816 H 77.9151 0.48937 5.32456 0
M  V30 817 H 78.2581 -0.709842 4.10204 0
M  V30 818 H 78.7911 0.971258 3.85761 0
M  V30 819 H 75.5301 3.41308 5.59633 0
M  V30 820 H 75.0501 1.70738 5.74986 0
M  V30 821 H 76.7291 2.19818 6.08514 0
M  V30 822 N 76.8612 -1.46375 0.584142 0
M  V30 823 C 78.1102 -2.01585 0.0679741 0
M  V30 824 C 78.4232 -1.46109 -1.30045 0
M  V30 825 O 79.6292 -1.93148 -1.90804 0
M  V30 826 C 78.0852 -3.5983 0.0709207 0
M  V30 827 C 77.6932 -4.24303 1.43775 0
M  V30 828 C 79.4372 -4.22693 -0.391228 0
M  V30 829 C 77.3442 -5.74631 1.39834 0
M  V30 830 H 76.2742 -0.753689 0.0216421 0
M  V30 831 H 78.9252 -1.68093 0.736001 0
M  V30 832 H 77.3072 -3.90405 -0.663299 0
M  V30 833 H 78.4812 -4.05335 2.19181 0
M  V30 834 H 76.7962 -3.73539 1.84004 0
M  V30 835 H 79.3932 -5.3289 -0.439524 0
M  V30 836 H 79.7362 -3.91728 -1.40906 0
M  V30 837 H 80.2692 -3.96749 0.288974 0
M  V30 838 H 77.0082 -6.10258 2.39303 0
M  V30 839 H 76.5282 -5.95858 0.686505 0
M  V30 840 H 78.2072 -6.37375 1.11187 0
M  V30 841 N 78.3393 -0.321999 -1.54275 0
M  V30 842 C 79.2893 0.560185 -2.21011 0
M  V30 843 C 80.2733 1.08283 -1.19011 0
M  V30 844 O 81.4653 1.02011 -1.44647 0
M  V30 845 C 78.5943 1.72137 -2.97025 0
M  V30 846 C 77.6803 1.21369 -4.06363 0
M  V30 847 N 78.0713 0.425566 -5.04007 0
M  V30 848 C 76.3693 1.49255 -4.20284 0
M  V30 849 C 77.0703 0.152601 -5.815 0
M  V30 850 N 76.0463 0.738294 -5.38563 0
M  V30 851 H 79.8483 -0.049265 -2.93859 0
M  V30 852 H 77.3623 -0.127779 -1.61897 0
M  V30 853 H 79.3593 2.36512 -3.43319 0
M  V30 854 H 78.0193 2.33431 -2.25699 0
M  V30 855 H 79.0303 0.068551 -5.17855 0
M  V30 856 H 75.7073 2.11145 -3.60172 0
M  V30 857 H 77.0973 -0.481764 -6.70171 0
M  V30 858 N 79.8174 1.5752 -0.0501392 0
M  V30 859 C 81.0664 1.91827 0.623328 0
M  V30 860 C 81.3794 0.930222 1.72065 0
M  V30 861 O 82.5854 1.1653 2.4522 0
M  V30 862 C 81.0414 3.40692 1.16003 0
M  V30 863 C 80.6494 4.479 0.0948811 0
M  V30 864 C 82.3934 3.84034 1.80881 0
M  V30 865 C 80.3004 5.87879 0.644411 0
M  V30 866 H 79.2304 0.715918 0.236596 0
M  V30 867 H 81.8814 1.83115 -0.118861 0
M  V30 868 H 80.2634 3.44405 1.9545 0
M  V30 869 H 81.4374 4.55775 -0.678675 0
M  V30 870 H 79.7524 4.13892 -0.45637 0
M  V30 871 H 82.3494 4.85984 2.22988 0
M  V30 872 H 82.6924 3.20225 2.6601 0
M  V30 873 H 83.2254 3.82833 1.0809 0
M  V30 874 H 79.9644 6.55282 -0.169229 0
M  V30 875 H 79.4844 5.83567 1.38598 0
M  V30 876 H 81.1634 6.37098 1.12763 0
M  V30 877 N 81.2955 -0.223234 1.56011 0
M  V30 878 C 82.2055 -1.29766 1.95443 0
M  V30 879 C 83.2215 -1.51373 0.858028 0
M  V30 880 O 84.3975 -1.64536 1.16146 0
M  V30 881 C 81.4625 -2.62772 2.26167 0
M  V30 882 C 80.5235 -2.49482 3.49367 0
M  V30 883 C 79.7565 -3.76145 3.78616 0
M  V30 884 O 79.9795 -4.79087 3.09568 0
M  V30 885 O 78.9135 -3.73358 4.72109 0
M  V30 886 H 82.7395 -0.99309 2.87004 0
M  V30 887 H 80.3245 -0.425958 1.43199 0
M  V30 888 H 82.2065 -3.41327 2.47131 0
M  V30 889 H 80.8815 -2.92913 1.37781 0
M  V30 890 H 79.7885 -1.69133 3.33684 0
M  V30 891 H 81.1215 -2.2428 4.38131 0
M  V30 892 N 82.7736 -1.49793 -0.48987 0
M  V30 893 C 84.1896 -1.36803 -0.822022 0
M  V30 894 C 84.3896 -0.409652 -1.97292 0
M  V30 895 O 83.4456 0.154614 -2.52026 0
M  V30 896 C 84.7586 -2.77768 -1.15175 0
M  V30 897 C 86.3066 -2.86549 -1.25931 0
M  V30 898 C 86.7816 -4.28306 -1.62228 0
M  V30 899 N 88.2726 -4.31169 -1.69256 0
M  V30 900 C 89.0076 -5.37832 -1.98807 0
M  V30 901 N 88.5036 -6.54726 -2.26507 0
M  V30 902 N 90.2966 -5.25258 -2.00152 0
M  V30 903 H 82.4476 -2.10691 0.268881 0
M  V30 904 H 84.7106 -0.946241 0.057728 0
M  V30 905 H 84.4166 -3.49648 -0.379335 0
M  V30 906 H 84.2906 -3.13836 -2.09253 0
M  V30 907 H 86.6776 -2.14899 -2.02243 0
M  V30 908 H 86.7586 -2.54049 -0.298776 0
M  V30 909 H 86.4026 -5.00486 -0.864622 0
M  V30 910 H 86.3326 -4.58279 -2.594 0
M  V30 911 H 88.8236 -3.4687 -1.49965 0
M  V30 912 H 89.1366 -7.31833 -2.48276 0
M  V30 913 H 87.4816 -6.57933 -2.23939 0
M  V30 914 H 90.6726 -4.32938 -1.77996 0
M  V30 915 H 90.8456 -6.08476 -2.22848 0
M  V30 916 N 84.2517 0.741722 -1.39055 0
M  V30 917 C 85.6677 1.04638 -1.20512 0
M  V30 918 C 85.8677 2.01405 -0.0620218 0
M  V30 919 O 84.9237 2.45547 0.588457 0
M  V30 920 C 86.2367 1.6151 -2.53643 0
M  V30 921 C 87.7847 1.73623 -2.6043 0
M  V30 922 C 88.2597 2.33906 -3.93767 0
M  V30 923 N 89.7507 2.41323 -3.9537 0
M  V30 924 C 90.4857 2.88888 -4.95309 0
M  V30 925 N 89.9817 3.36401 -6.05645 0
M  V30 926 N 91.7747 2.88037 -4.82692 0
M  V30 927 H 83.9257 0.0998155 -2.12165 0
M  V30 928 H 86.1887 0.106907 -0.941953 0
M  V30 929 H 85.8947 0.978739 -3.37807 0
M  V30 930 H 85.7687 2.60411 -2.72885 0
M  V30 931 H 88.1557 2.36384 -1.76655 0
M  V30 932 H 88.2367 0.733945 -2.45045 0
M  V30 933 H 87.8807 1.71776 -4.7797 0
M  V30 934 H 87.8107 3.34799 -4.06469 0
M  V30 935 H 90.3017 2.07734 -3.15682 0
M  V30 936 H 90.6147 3.71186 -6.77821 0
M  V30 937 H 88.9597 3.34427 -6.09248 0
M  V30 938 H 92.1507 2.50237 -3.95599 0
M  V30 939 H 92.3237 3.24792 -5.60726 0
M  V30 940 N 85.7298 1.2412 0.971189 0
M  V30 941 C 86.9768 1.07881 1.71371 0
M  V30 942 C 87.3048 -0.382901 1.90694 0
M  V30 943 O 86.5598 -1.29945 1.46331 0
M  V30 944 C 86.8588 1.75983 3.11071 0
M  V30 945 C 86.5248 3.25909 3.11599 0
M  V30 946 C 85.1868 3.66813 3.11451 0
M  V30 947 C 87.5388 4.21771 3.062 0
M  V30 948 C 84.8668 5.02021 3.03631 0
M  V30 949 C 87.2188 5.56982 2.99923 0
M  V30 950 C 85.8828 5.97237 2.98102 0
M  V30 951 H 85.1528 0.394764 0.62709 0
M  V30 952 H 87.7998 1.54176 1.13587 0
M  V30 953 H 86.1048 1.22072 3.72298 0
M  V30 954 H 87.8018 1.60887 3.6731 0
M  V30 955 H 84.3918 2.93353 3.12477 0
M  V30 956 H 88.5758 3.91172 3.05447 0
M  V30 957 H 83.8318 5.32411 3.0058 0
M  V30 958 H 88.0058 6.30969 2.94704 0
M  V30 959 H 85.6328 7.01967 2.91798 0
M  V30 960 N 87.2079 -1.17134 1.05439 0
M  V30 961 C 88.1179 -2.24878 0.668365 0
M  V30 962 C 89.1339 -1.71186 -0.311687 0
M  V30 963 O 90.3099 -2.00738 -0.163161 0
M  V30 964 C 87.3749 -3.46662 0.051648 0
M  V30 965 C 86.4359 -4.15429 1.08246 0
M  V30 966 C 85.6689 -5.31399 0.495082 0
M  V30 967 O 85.8919 -5.66153 -0.694743 0
M  V30 968 O 84.8259 -5.89187 1.23056 0
M  V30 969 H 88.6519 -2.60189 1.56637 0
M  V30 970 H 86.2369 -1.24482 0.826104 0
M  V30 971 H 88.1189 -4.20394 -0.290966 0
M  V30 972 H 86.7939 -3.13142 -0.819971 0
M  V30 973 H 85.7009 -3.43704 1.47711 0
M  V30 974 H 87.0339 -4.52982 1.92532 0
M  V30 975 N 88.686 -0.835752 -1.33615 0
M  V30 976 C 89.935 -0.426289 -1.97144 0
M  V30 977 C 90.248 1.01912 -1.66953 0
M  V30 978 O 91.454 1.53311 -2.24072 0
M  V30 979 C 89.91 -0.711321 -3.52801 0
M  V30 980 C 89.518 -2.1712 -3.91871 0
M  V30 981 C 91.262 -0.368654 -4.22896 0
M  V30 982 C 89.169 -2.40044 -5.40493 0
M  V30 983 H 88.099 -0.15567 -0.737755 0
M  V30 984 H 90.75 -1.0239 -1.52278 0
M  V30 985 H 89.132 -0.0433766 -3.95976 0
M  V30 986 H 90.306 -2.87936 -3.59763 0
M  V30 987 H 88.621 -2.47654 -3.34749 0
M  V30 988 H 91.218 -0.517601 -5.32189 0
M  V30 989 H 91.561 0.688078 -4.10574 0
M  V30 990 H 92.094 -0.991702 -3.8524 0
M  V30 991 H 88.833 -3.44271 -5.57815 0
M  V30 992 H 88.353 -1.73785 -5.74072 0
M  V30 993 H 90.032 -2.23042 -6.0734 0
M  V30 994 N 90.1641 1.46063 -0.591896 0
M  V30 995 C 91.3891 2.07226 -0.0850314 0
M  V30 996 C 91.8141 1.43625 1.21463 0
M  V30 997 O 91.1721 0.523305 1.73583 0
M  V30 998 C 91.2201 3.60554 0.0576567 0
M  V30 999 O 90.3241 3.97128 1.11188 0
M  V30 1000 H 89.6651 0.660615 -0.0669568 0
M  V30 1001 H 92.1951 1.8756 -0.81745 0
M  V30 1002 H 92.2051 4.07165 0.2609 0
M  V30 1003 H 90.8801 4.06235 -0.891416 0
M  V30 1004 H 89.4571 3.62213 0.886356 0
M  V30 1005 N 91.6422 0.330177 1.54103 0
M  V30 1006 C 92.8672 -0.274893 2.0557 0
M  V30 1007 C 93.2922 -1.44487 1.20437 0
M  V30 1008 O 92.6502 -1.80021 0.214991 0
M  V30 1009 C 92.6982 -0.68079 3.54115 0
M  V30 1010 O 91.8022 -1.7824 3.71893 0
M  V30 1011 H 91.1432 -0.0483849 0.662235 0
M  V30 1012 H 93.6732 0.480508 1.98878 0
M  V30 1013 H 93.6832 -0.961635 3.96505 0
M  V30 1014 H 92.3582 0.174903 4.15532 0
M  V30 1015 H 90.9352 -1.49985 3.41407 0
M  V30 1016 N 93.1203 -1.57491 0.0584922 0
M  V30 1017 C 94.3453 -1.97711 -0.62652 0
M  V30 1018 C 94.7703 -0.936132 -1.63151 0
M  V30 1019 O 94.1283 0.099811 -1.81025 0
M  V30 1020 C 94.1763 -3.36989 -1.28338 0
M  V30 1021 O 93.2803 -3.35433 -2.39913 0
M  V30 1022 H 92.6213 -0.643868 -0.162266 0
M  V30 1023 H 95.1513 -2.04193 0.129064 0
M  V30 1024 H 95.1613 -3.73879 -1.63335 0
M  V30 1025 H 93.8363 -4.12289 -0.546889 0
M  V30 1026 H 92.4133 -3.10298 -2.06809 0
M  V30 1027 N 94.5984 0.214957 -1.56127 0
M  V30 1028 C 95.5284 1.2695 -1.95974 0
M  V30 1029 C 96.5094 1.48539 -0.828868 0
M  V30 1030 O 97.6944 1.60611 -1.09168 0
M  V30 1031 C 94.8244 2.61794 -2.28214 0
M  V30 1032 C 93.7784 2.54851 -3.43853 0
M  V30 1033 C 93.1044 3.93785 -3.61715 0
M  V30 1034 C 94.4044 2.09065 -4.78632 0
M  V30 1035 H 96.0984 0.93846 -2.84312 0
M  V30 1036 H 93.6444 0.449996 -1.36788 0
M  V30 1037 H 95.5974 3.35731 -2.54682 0
M  V30 1038 H 94.3214 2.96599 -1.36736 0
M  V30 1039 H 92.9804 1.8337 -3.17444 0
M  V30 1040 H 92.6284 4.25908 -2.67602 0
M  V30 1041 H 92.3284 3.90019 -4.39498 0
M  V30 1042 H 93.8524 4.69374 -3.90539 0
M  V30 1043 H 95.2664 2.7275 -5.04262 0
M  V30 1044 H 93.6634 2.16346 -5.59745 0
M  V30 1045 H 94.7334 1.04315 -4.73547 0
M  V30 1046 N 96.0765 1.50051 0.48192 0
M  V30 1047 C 97.3225 1.60736 1.2366 0
M  V30 1048 C 97.6555 0.301786 1.91841 0
M  V30 1049 O 96.9305 -0.696025 1.8162 0
M  V30 1050 C 97.2135 2.78009 2.28874 0
M  V30 1051 C 97.0665 4.18416 1.65069 0
M  V30 1052 C 98.3855 2.90867 3.30279 0
M  V30 1053 H 95.5045 0.585031 0.448228 0
M  V30 1054 H 98.1465 1.82402 0.531946 0
M  V30 1055 H 96.2965 2.59667 2.88973 0
M  V30 1056 H 97.9685 4.48322 1.0865 0
M  V30 1057 H 96.2115 4.23177 0.954148 0
M  V30 1058 H 96.8825 4.96381 2.41474 0
M  V30 1059 H 99.3585 3.07623 2.80191 0
M  V30 1060 H 98.2345 3.74566 4.01238 0
M  V30 1061 H 98.4955 2.01021 3.93755 0
M  V30 1062 N 97.5546 -0.734337 1.39446 0
M  V30 1063 C 98.8026 -1.49096 1.36436 0
M  V30 1064 C 99.1236 -1.94961 -0.0388255 0
M  V30 1065 O 98.3936 -1.69033 -0.990191 0
M  V30 1066 H 96.9736 -0.5531 0.502085 0
M  V30 1067 H 99.6356 -0.871725 1.74319 0
M  V30 1068 H 98.7316 -2.37276 2.02747 0
M  V30 1069 N 99.0327 -1.24633 -0.964593 0
M  V30 1070 C 100.28 -1.08788 -1.70796 0
M  V30 1071 C 100.608 0.372783 -1.90894 0
M  V30 1072 O 99.8627 1.29167 -1.47018 0
M  V30 1073 C 100.162 -1.7763 -3.10133 0
M  V30 1074 C 99.8277 -3.27557 -3.09866 0
M  V30 1075 C 98.4897 -3.6846 -3.09501 0
M  V30 1076 C 100.842 -4.23389 -3.03959 0
M  V30 1077 C 98.1697 -5.03624 -3.00965 0
M  V30 1078 C 100.522 -5.58565 -2.96965 0
M  V30 1079 C 99.1857 -5.98809 -2.9493 0
M  V30 1080 H 98.4557 -0.398084 -0.624988 0
M  V30 1081 H 101.103 -1.54777 -1.12767 0
M  V30 1082 H 99.4077 -1.24044 -3.71645 0
M  V30 1083 H 101.105 -1.62832 -3.66451 0
M  V30 1084 H 97.6947 -2.95006 -3.10917 0
M  V30 1085 H 101.879 -3.92787 -3.03368 0
M  V30 1086 H 97.1347 -5.33998 -2.97752 0
M  V30 1087 H 101.309 -6.32523 -2.91354 0
M  V30 1088 H 98.9357 -7.03505 -2.88071 0
M  V30 1089 N 100.511 1.16574 -1.06058 0
M  V30 1090 C 101.76 1.86385 -0.770944 0
M  V30 1091 C 102.073 1.82448 0.705129 0
M  V30 1092 O 103.279 2.47815 1.10905 0
M  V30 1093 C 101.735 3.34466 -1.32893 0
M  V30 1094 C 101.343 3.46883 -2.83507 0
M  V30 1095 C 103.087 4.09548 -1.11672 0
M  V30 1096 C 100.994 4.89036 -3.32562 0
M  V30 1097 H 99.9238 0.698181 -0.284709 0
M  V30 1098 H 102.575 1.31583 -1.27899 0
M  V30 1099 H 100.957 3.88859 -0.748662 0
M  V30 1100 H 102.131 3.02663 -3.47465 0
M  V30 1101 H 100.446 2.85232 -3.03368 0
M  V30 1102 H 103.043 5.14434 -1.45814 0
M  V30 1103 H 103.386 4.16264 -0.0549535 0
M  V30 1104 H 103.919 3.61387 -1.66265 0
M  V30 1105 H 100.658 4.87499 -4.38207 0
M  V30 1106 H 100.178 5.3389 -2.73351 0
M  V30 1107 H 101.857 5.57843 -3.2775 0
M  V30 1108 N 101.989 0.842826 1.3317 0
M  V30 1109 C 103.266 0.362216 1.92217 0
M  V30 1110 C 103.646 -1.15289 1.76838 0
M  V30 1111 O 102.994 -1.96914 1.15919 0
M  V30 1112 C 103.204 0.813495 3.39387 0
M  V30 1113 C 104.552 0.823804 4.16532 0
M  V30 1114 O 105.576 0.757358 3.48055 0
M  V30 1115 O 104.435 0.915193 5.38782 0
M  V30 1116 H 101.529 0.103317 0.820521 0
M  V30 1117 H 104.075 0.928942 1.42017 0
M  V30 1118 H 102.847 1.85624 3.4447 0
M  V30 1119 H 102.47 0.223561 3.96971 0
M  V30 1120 N 103.467 -1.45747 0.599634 0
M  V30 1121 C 104.715 -2.01893 0.0915472 0
M  V30 1122 C 105.036 -1.47155 -1.27946 0
M  V30 1123 O 104.306 -0.66273 -1.84349 0
M  V30 1124 H 102.886 -0.746363 0.0308524 0
M  V30 1125 H 105.548 -1.78645 0.779237 0
M  V30 1126 H 104.644 -3.1208 0.0353086 0
M  V30 1127 N 104.945 -0.338344 -1.53925 0
M  V30 1128 C 106.17 0.263987 -2.05713 0
M  V30 1129 C 106.595 1.43847 -1.21201 0
M  V30 1130 O 105.953 1.79904 -0.224535 0
M  V30 1131 C 106.001 0.662 -3.54471 0
M  V30 1132 O 105.105 1.76265 -3.72833 0
M  V30 1133 H 104.446 0.0448722 -0.662482 0
M  V30 1134 H 106.976 -0.491048 -1.9862 0
M  V30 1135 H 106.986 0.940594 -3.9701 0
M  V30 1136 H 105.661 -0.196937 -4.15433 0
M  V30 1137 H 104.238 1.48173 -3.42198 0
M  V30 1138 N 106.423 1.57458 -0.0668435 0
M  V30 1139 C 107.67 1.93301 0.603406 0
M  V30 1140 C 107.998 0.946486 1.69917 0
M  V30 1141 O 107.253 -0.0387021 1.95662 0
M  V30 1142 C 107.552 3.35784 1.22409 0
M  V30 1143 C 107.218 4.50179 0.254955 0
M  V30 1144 C 105.88 4.81199 -0.0116746 0
M  V30 1145 C 108.232 5.19598 -0.408338 0
M  V30 1146 C 105.56 5.78978 -0.94877 0
M  V30 1147 C 107.912 6.18381 -1.33372 0
M  V30 1148 C 106.576 6.47821 -1.60887 0
M  V30 1149 H 105.846 0.707338 0.220802 0
M  V30 1150 H 108.493 1.91012 -0.136665 0
M  V30 1151 H 106.798 3.34515 2.03978 0
M  V30 1152 H 108.495 3.60804 1.74989 0
M  V30 1153 H 105.085 4.25983 0.472954 0
M  V30 1154 H 109.269 4.95832 -0.215456 0
M  V30 1155 H 104.525 6.00115 -1.16925 0
M  V30 1156 H 108.699 6.71277 -1.85367 0
M  V30 1157 H 106.326 7.23399 -2.33661 0
M  V30 1158 N 107.901 -0.206675 1.56239 0
M  V30 1159 C 108.811 -1.27686 1.96808 0
M  V30 1160 C 109.827 -1.50455 0.874035 0
M  V30 1161 O 111.003 -1.63295 1.17884 0
M  V30 1162 C 108.068 -2.60358 2.28942 0
M  V30 1163 C 107.129 -2.45762 3.51994 0
M  V30 1164 C 106.362 -3.72108 3.82585 0
M  V30 1165 O 106.585 -4.75776 3.14631 0
M  V30 1166 O 105.519 -3.6833 4.76043 0
M  V30 1167 H 109.345 -0.962593 2.88041 0
M  V30 1168 H 106.93 -0.410746 1.43643 0
M  V30 1169 H 108.812 -3.38687 2.50737 0
M  V30 1170 H 107.487 -2.91435 1.4088 0
M  V30 1171 H 106.394 -1.65584 3.35459 0
M  V30 1172 H 107.727 -2.19621 4.40486 0
M  V30 1173 N 109.379 -1.50304 -0.473955 0
M  V30 1174 C 110.628 -1.60392 -1.22301 0
M  V30 1175 C 110.941 -0.308411 -1.93153 0
M  V30 1176 O 112.147 -0.288156 -2.69966 0
M  V30 1177 C 110.603 -2.83109 -2.2221 0
M  V30 1178 C 110.211 -4.19524 -1.57173 0
M  V30 1179 C 111.955 -3.0254 -2.97775 0
M  V30 1180 C 109.862 -5.33431 -2.55353 0
M  V30 1181 H 108.792 -0.597286 -0.460179 0
M  V30 1182 H 111.443 -1.76731 -0.493803 0
M  V30 1183 H 109.825 -2.60322 -2.9841 0
M  V30 1184 H 110.999 -4.52554 -0.867824 0
M  V30 1185 H 109.314 -4.05674 -0.939002 0
M  V30 1186 H 111.911 -3.84811 -3.71248 0
M  V30 1187 H 112.254 -2.14154 -3.56992 0
M  V30 1188 H 112.787 -3.25494 -2.28688 0
M  V30 1189 H 109.526 -6.23962 -2.00878 0
M  V30 1190 H 109.046 -5.04823 -3.23904 0
M  V30 1191 H 110.725 -5.63887 -3.17239 0
M  V30 1192 N 110.857 0.726932 -1.39834 0
M  V30 1193 C 112.105 1.4837 -1.37225 0
M  V30 1194 C 112.426 1.94979 0.0284857 0
M  V30 1195 O 111.696 1.69555 0.981213 0
M  V30 1196 H 110.276 0.55043 -0.505011 0
M  V30 1197 H 112.938 0.862468 -1.74778 0
M  V30 1198 H 112.034 2.36198 -2.04003 0
M  V30 1199 N 112.336 1.25143 0.95797 0
M  V30 1200 C 113.284 1.05019 2.07542 0
M  V30 1201 C 114.278 -0.0178751 1.69391 0
M  V30 1202 O 115.484 0.137472 1.79474 0
M  V30 1203 H 111.859 0.32265 0.679265 0
M  V30 1204 H 113.83 1.99759 2.21673 0
M  V30 1205 C 112.579 0.682074 3.40944 0
M  V30 1206 H 111.902 1.49573 3.70767 0
M  V30 1207 H 113.342 0.580945 4.20001 0
M  V30 1208 C 111.801 -0.611608 3.31302 0
M  V30 1209 O 112.331 -1.65465 3.66038 0
M  V30 1210 N 110.537 -0.595982 2.84423 0
M  V30 1211 H 110.084 0.253192 2.56353 0
M  V30 1212 H 110.042 -1.46173 2.78354 0
M  V30 1213 N 113.814 -1.1601 1.06675 0
M  V30 1214 C 114.744 -2.22688 0.702307 0
M  V30 1215 C 115.725 -1.67306 -0.307032 0
M  V30 1216 O 116.91 -1.93352 -0.181305 0
M  V30 1217 C 114.04 -3.47178 0.092038 0
M  V30 1218 C 112.994 -4.15477 1.02777 0
M  V30 1219 C 112.32 -5.33963 0.28061 0
M  V30 1220 C 113.62 -4.66019 2.35846 0
M  V30 1221 H 115.314 -2.53429 1.59419 0
M  V30 1222 H 112.86 -1.21813 0.767961 0
M  V30 1223 H 114.813 -4.21037 -0.174814 0
M  V30 1224 H 113.537 -3.15749 -0.834877 0
M  V30 1225 H 112.196 -3.43549 1.27944 0
M  V30 1226 H 111.844 -4.98788 -0.649545 0
M  V30 1227 H 111.544 -5.806 0.904258 0
M  V30 1228 H 113.068 -6.10596 0.021396 0
M  V30 1229 H 114.482 -5.3144 2.15045 0
M  V30 1230 H 112.879 -5.23293 2.93743 0
M  V30 1231 H 113.949 -3.82023 2.98641 0
M  V30 1232 N 115.292 -0.849877 -1.32721 0
M  V30 1233 C 116.222 -0.306308 -2.31482 0
M  V30 1234 C 117.203 0.591952 -1.59468 0
M  V30 1235 O 118.388 0.513199 -1.87296 0
M  V30 1236 C 115.518 0.510204 -3.43532 0
M  V30 1237 C 114.472 -0.293209 -4.26994 0
M  V30 1238 C 113.798 0.647743 -5.30762 0
M  V30 1239 C 115.098 -1.51634 -4.99804 0
M  V30 1240 H 116.792 -1.13153 -2.77195 0
M  V30 1241 H 114.338 -0.545553 -1.33266 0
M  V30 1242 H 116.291 0.900856 -4.11658 0
M  V30 1243 H 115.015 1.36874 -2.96535 0
M  V30 1244 H 113.674 -0.665555 -3.60508 0
M  V30 1245 H 113.322 1.50299 -4.8002 0
M  V30 1246 H 113.022 0.11422 -5.87489 0
M  V30 1247 H 114.546 1.03567 -6.01753 0
M  V30 1248 H 115.96 -1.19824 -5.60638 0
M  V30 1249 H 114.357 -1.98745 -5.66234 0
M  V30 1250 H 115.427 -2.28018 -4.27943 0
M  V30 1251 N 116.77 1.45427 -0.607355 0
M  V30 1252 C 118.016 2.0254 -0.102607 0
M  V30 1253 C 118.349 1.47478 1.26348 0
M  V30 1254 O 117.624 0.64939 1.83339 0
M  V30 1255 C 117.907 3.60044 -0.0634347 0
M  V30 1256 C 117.76 4.2544 -1.46017 0
M  V30 1257 C 119.079 4.35646 0.624514 0
M  V30 1258 H 116.198 0.73598 -0.0387607 0
M  V30 1259 H 118.84 1.73284 -0.779282 0
M  V30 1260 H 116.99 3.85101 0.512808 0
M  V30 1261 H 118.662 4.11569 -2.08347 0
M  V30 1262 H 116.905 3.83849 -2.02094 0
M  V30 1263 H 117.576 5.34342 -1.385 0
M  V30 1264 H 120.052 4.15882 0.134723 0
M  V30 1265 H 118.928 5.45376 0.621028 0
M  V30 1266 H 119.189 4.08501 1.69055 0
M  V30 1267 N 118.248 0.346503 1.53744 0
M  V30 1268 C 119.497 -0.250122 2.00143 0
M  V30 1269 C 119.81 -1.51418 1.23822 0
M  V30 1270 O 121.016 -2.18823 1.60713 0
M  V30 1271 C 119.472 -0.496252 3.56462 0
M  V30 1272 C 119.08 0.752077 4.41642 0
M  V30 1273 C 120.824 -1.05157 4.11269 0
M  V30 1274 C 118.731 0.476583 5.89477 0
M  V30 1275 H 117.661 -0.0972409 0.747703 0
M  V30 1276 H 120.312 0.46229 1.77581 0
M  V30 1277 H 118.694 -1.26944 3.75102 0
M  V30 1278 H 119.868 1.5266 4.34778 0
M  V30 1279 H 118.183 1.22925 3.97842 0
M  V30 1280 H 120.78 -1.27269 5.19333 0
M  V30 1281 H 121.123 -2.00799 3.64672 0
M  V30 1282 H 121.656 -0.339019 3.96353 0
M  V30 1283 H 118.395 1.4028 6.40314 0
M  V30 1284 H 117.915 -0.259794 5.99237 0
M  V30 1285 H 119.594 0.0949315 6.4693 0
M  V30 1286 N 119.726 -1.57421 0.075193 0
M  V30 1287 C 120.972 -1.93905 -0.594025 0
M  V30 1288 C 121.305 -0.955701 -1.69056 0
M  V30 1289 O 120.58 0.0145373 -1.94495 0
M  V30 1290 C 120.863 -3.40638 -1.1678 0
M  V30 1291 C 120.716 -4.49733 -0.0776792 0
M  V30 1292 C 122.035 -3.88259 -2.07228 0
M  V30 1293 H 119.154 -0.705105 -0.214466 0
M  V30 1294 H 121.796 -1.8947 0.141854 0
M  V30 1295 H 119.946 -3.44549 -1.79494 0
M  V30 1296 H 121.618 -4.57942 0.555573 0
M  V30 1297 H 119.861 -4.29751 0.591286 0
M  V30 1298 H 120.532 -5.49549 -0.519603 0
M  V30 1299 H 123.008 -3.86376 -1.54445 0
M  V30 1300 H 121.884 -4.91533 -2.44308 0
M  V30 1301 H 122.145 -3.26396 -2.98191 0
M  V30 1302 N 121.204 0.198386 -1.56346 0
M  V30 1303 C 122.451 0.919286 -1.80431 0
M  V30 1304 C 122.779 1.83393 -0.647866 0
M  V30 1305 O 122.034 1.92236 0.366556 0
M  V30 1306 C 122.333 1.77031 -3.10475 0
M  V30 1307 C 121.999 1.00693 -4.39513 0
M  V30 1308 C 120.661 0.796145 -4.74568 0
M  V30 1309 C 123.013 0.469559 -5.19081 0
M  V30 1310 C 120.341 0.0364588 -5.86689 0
M  V30 1311 C 122.693 -0.2769 -6.31994 0
M  V30 1312 C 121.357 -0.49873 -6.65634 0
M  V30 1313 H 120.627 0.336391 -0.660244 0
M  V30 1314 H 123.274 0.185872 -1.90596 0
M  V30 1315 H 121.579 2.5723 -2.95533 0
M  V30 1316 H 123.276 2.33065 -3.26315 0
M  V30 1317 H 119.866 1.18122 -4.12001 0
M  V30 1318 H 124.05 0.619816 -4.92414 0
M  V30 1319 H 119.306 -0.145412 -6.11227 0
M  V30 1320 H 123.48 -0.700684 -6.92866 0
M  V30 1321 H 121.107 -1.0893 -7.52355 0
M  V30 1322 N 122.682 1.50554 0.465978 0
M  V30 1323 C 123.928 1.62038 1.21949 0
M  V30 1324 C 124.261 0.322116 1.9151 0
M  V30 1325 O 123.536 -0.676723 1.82348 0
M  V30 1326 C 123.819 2.80421 2.25912 0
M  V30 1327 C 123.672 4.20144 1.60622 0
M  V30 1328 C 124.991 2.94354 3.27176 0
M  V30 1329 H 122.11 0.589752 0.441998 0
M  V30 1330 H 124.752 1.82956 0.51257 0
M  V30 1331 H 122.902 2.62717 2.86203 0
M  V30 1332 H 124.574 4.49449 1.03889 0
M  V30 1333 H 122.817 4.24165 0.909211 0
M  V30 1334 H 123.488 4.98914 2.36196 0
M  V30 1335 H 125.964 3.10578 2.76913 0
M  V30 1336 H 124.84 3.788 3.97242 0
M  V30 1337 H 125.101 2.05186 3.916 0
M  V30 1338 N 124.16 -0.719506 1.40217 0
M  V30 1339 C 125.385 -1.51371 1.4178 0
M  V30 1340 C 125.81 -1.88091 0.0182355 0
M  V30 1341 O 125.168 -1.52997 -0.972707 0
M  V30 1342 C 125.216 -2.768 2.31115 0
M  V30 1343 O 124.32 -3.73349 1.7517 0
M  V30 1344 H 123.661 -0.456529 0.482159 0
M  V30 1345 H 126.191 -0.88644 1.844 0
M  V30 1346 H 126.201 -3.25371 2.46167 0
M  V30 1347 H 124.876 -2.49407 3.3282 0
M  V30 1348 H 123.453 -3.32179 1.69444 0
M  V30 1349 N 125.638 -1.25649 -0.95132 0
M  V30 1350 C 126.868 -1.13179 -1.72841 0
M  V30 1351 C 127.276 0.316827 -1.86528 0
M  V30 1352 O 126.619 1.22948 -1.3649 0
M  V30 1353 C 126.681 -1.71644 -3.15878 0
M  V30 1354 C 126.345 -3.20667 -3.25609 0
M  V30 1355 C 127.342 -4.17616 -3.09666 0
M  V30 1356 C 125.027 -3.6094 -3.49324 0
M  V30 1357 C 127.021 -5.52817 -3.17289 0
M  V30 1358 C 124.708 -4.96278 -3.56584 0
M  V30 1359 C 125.706 -5.92025 -3.40581 0
M  V30 1360 O 125.394 -7.24899 -3.47528 0
M  V30 1361 H 125.126 -0.395389 -0.54831 0
M  V30 1362 H 127.68 -1.66566 -1.20187 0
M  V30 1363 H 125.91 -1.12707 -3.69911 0
M  V30 1364 H 127.599 -1.54225 -3.75459 0
M  V30 1365 H 128.365 -3.87842 -2.91211 0
M  V30 1366 H 124.244 -2.86907 -3.6084 0
M  V30 1367 H 127.788 -6.2753 -3.04716 0
M  V30 1368 H 123.685 -5.25716 -3.74556 0
M  V30 1369 H 124.453 -7.33039 -3.64138 0
M  V30 1370 N 127.117 1.15442 -1.07289 0
M  V30 1371 C 128.364 1.86213 -0.795668 0
M  V30 1372 C 128.692 1.82291 0.678238 0
M  V30 1373 O 127.947 1.24057 1.51355 0
M  V30 1374 C 128.246 3.3489 -1.24834 0
M  V30 1375 C 127.912 3.59007 -2.72809 0
M  V30 1376 C 126.574 3.65298 -3.13227 0
M  V30 1377 C 128.926 3.68762 -3.68326 0
M  V30 1378 C 126.254 3.78854 -4.4798 0
M  V30 1379 C 128.606 3.83842 -5.0284 0
M  V30 1380 C 127.27 3.88378 -5.4288 0
M  V30 1381 H 126.54 0.681403 -0.291155 0
M  V30 1382 H 129.187 1.36435 -1.34379 0
M  V30 1383 H 127.492 3.8687 -0.619595 0
M  V30 1384 H 129.189 3.88052 -1.01076 0
M  V30 1385 H 125.779 3.5475 -2.40521 0
M  V30 1386 H 129.963 3.63202 -3.38227 0
M  V30 1387 H 125.219 3.80623 -4.78472 0
M  V30 1388 H 129.393 3.90332 -5.76727 0
M  V30 1389 H 127.02 3.98635 -6.47298 0
M  V30 1390 N 128.595 0.856903 1.32268 0
M  V30 1391 C 129.843 0.460474 1.96784 0
M  V30 1392 C 130.164 -0.987701 1.68135 0
M  V30 1393 O 129.434 -1.69058 0.989765 0
M  V30 1394 H 128.014 0.167289 0.728027 0
M  V30 1395 H 130.676 1.09383 1.61312 0
M  V30 1396 H 129.772 0.60739 3.06133 0
M  V30 1397 N 130.073 -1.45103 0.615059 0
M  V30 1398 C 131.298 -2.07064 0.117988 0
M  V30 1399 C 131.723 -1.4554 -1.19163 0
M  V30 1400 O 131.081 -0.550855 -1.72729 0
M  V30 1401 C 131.129 -3.606 -0.000288387 0
M  V30 1402 O 130.233 -3.98847 -1.04856 0
M  V30 1403 H 129.574 -0.659467 0.0774581 0
M  V30 1404 H 132.104 -1.86236 0.847186 0
M  V30 1405 H 132.114 -4.07529 -0.196091 0
M  V30 1406 H 130.789 -4.04765 0.955932 0
M  V30 1407 H 129.366 -3.63577 -0.828619 0
M  V30 1408 N 131.551 -0.354651 -1.53558 0
M  V30 1409 C 132.498 0.496968 -2.25386 0
M  V30 1410 C 133.468 1.0865 -1.25636 0
M  V30 1411 O 134.653 1.12104 -1.54394 0
M  V30 1412 C 131.793 1.63637 -3.03837 0
M  V30 1413 C 130.906 1.07307 -4.18461 0
M  V30 1414 C 130.041 2.18068 -4.84376 0
M  V30 1415 C 129.08 1.59147 -5.91049 0
M  V30 1416 N 128.217 2.63695 -6.50699 0
M  V30 1417 H 133.057 -0.122075 -2.9775 0
M  V30 1418 H 130.594 -0.0720154 -1.46924 0
M  V30 1419 H 132.552 2.30734 -3.47589 0
M  V30 1420 H 131.182 2.22623 -2.33749 0
M  V30 1421 H 130.234 0.292708 -3.79272 0
M  V30 1422 H 131.546 0.602193 -4.95152 0
M  V30 1423 H 130.7 2.93007 -5.31255 0
M  V30 1424 H 129.439 2.68504 -4.07133 0
M  V30 1425 H 128.444 0.827175 -5.43542 0
M  V30 1426 H 129.669 1.09549 -6.70206 0
M  V30 1427 H 127.615 3.13365 -5.76315 0
M  V30 1428 H 127.532 2.21263 -7.22896 0
M  V30 1429 H 128.8 3.3837 -7.02229 0
M  V30 1430 N 133.029 1.57378 -0.0835403 0
M  V30 1431 C 133.959 2.1641 0.87686 0
M  V30 1432 C 134.94 1.09429 1.30228 0
M  V30 1433 O 136.125 1.37516 1.37124 0
M  V30 1434 C 133.255 2.73517 2.14022 0
M  V30 1435 C 132.209 3.85769 1.85381 0
M  V30 1436 C 131.535 4.29529 3.18448 0
M  V30 1437 C 132.835 5.09486 1.14984 0
M  V30 1438 H 134.529 2.96914 0.385059 0
M  V30 1439 H 132.075 1.42823 0.18377 0
M  V30 1440 H 134.028 3.13463 2.81636 0
M  V30 1441 H 132.752 1.90252 2.65465 0
M  V30 1442 H 131.411 3.46345 1.20169 0
M  V30 1443 H 131.059 3.43169 3.67755 0
M  V30 1444 H 130.759 5.05204 3.00071 0
M  V30 1445 H 132.283 4.72099 3.8724 0
M  V30 1446 H 133.697 5.46674 1.72687 0
M  V30 1447 H 132.094 5.90515 1.06826 0
M  V30 1448 H 133.164 4.84724 0.130749 0
M  V30 1449 N 134.507 -0.190092 1.56449 0
M  V30 1450 C 135.457 -1.23977 1.91347 0
M  V30 1451 C 136.441 -1.40747 0.779693 0
M  V30 1452 O 137.633 -1.43033 1.04262 0
M  V30 1453 C 134.762 -2.58347 2.26079 0
M  V30 1454 C 133.848 -2.4535 3.45925 0
M  V30 1455 N 134.239 -2.02039 4.63696 0
M  V30 1456 C 132.537 -2.76229 3.50162 0
M  V30 1457 C 133.238 -2.01053 5.4585 0
M  V30 1458 N 132.214 -2.42747 4.8639 0
M  V30 1459 H 136.016 -0.896318 2.79899 0
M  V30 1460 H 133.53 -0.398496 1.57435 0
M  V30 1461 H 135.527 -3.34173 2.49267 0
M  V30 1462 H 134.187 -2.93512 1.38856 0
M  V30 1463 H 135.198 -1.7267 4.88268 0
M  V30 1464 H 131.875 -3.15556 2.73369 0
M  V30 1465 H 133.265 -1.69426 6.50188 0
M  V30 1466 N 135.985 -1.50799 -0.457987 0
M  V30 1467 C 137.401 -1.38515 -0.792819 0
M  V30 1468 C 137.601 -0.451409 -1.96379 0
M  V30 1469 O 136.657 0.10112 -2.52297 0
M  V30 1470 C 137.97 -2.80149 -1.09258 0
M  V30 1471 C 139.518 -2.89156 -1.19825 0
M  V30 1472 C 139.993 -4.31651 -1.53106 0
M  V30 1473 N 141.484 -4.34662 -1.60072 0
M  V30 1474 C 142.219 -5.41928 -1.87354 0
M  V30 1475 N 141.715 -6.59384 -2.12568 0
M  V30 1476 N 143.508 -5.29385 -1.88965 0
M  V30 1477 H 135.659 -2.10073 0.313511 0
M  V30 1478 H 137.922 -0.944803 0.0777862 0
M  V30 1479 H 137.628 -3.50374 -0.305084 0
M  V30 1480 H 137.502 -3.18204 -2.02549 0
M  V30 1481 H 139.889 -2.19141 -1.97639 0
M  V30 1482 H 139.97 -2.54626 -0.244821 0
M  V30 1483 H 139.614 -5.02208 -0.758266 0
M  V30 1484 H 139.544 -4.63678 -2.49621 0
M  V30 1485 H 142.035 -3.49973 -1.42573 0
M  V30 1486 H 142.348 -7.36934 -2.32696 0
M  V30 1487 H 140.693 -6.62535 -2.09933 0
M  V30 1488 H 143.884 -4.36616 -1.68772 0
M  V30 1489 H 144.057 -6.13066 -2.09891 0
M  V30 1490 N 137.463 0.71206 -1.40597 0
M  V30 1491 C 138.874 1.29135 -1.34837 0
M  V30 1492 C 139.225 1.96186 -0.0235395 0
M  V30 1493 O 138.35 1.97768 0.878444 0
M  V30 1494 C 138.945 2.34827 -2.44217 0
M  V30 1495 C 137.504 2.88371 -2.41907 0
M  V30 1496 C 136.651 1.62202 -2.24913 0
M  V30 1497 H 139.602 0.507944 -1.50352 0
M  V30 1498 H 139.623 3.15749 -2.12327 0
M  V30 1499 H 139.135 1.85996 -3.40627 0
M  V30 1500 H 137.236 3.41422 -1.49204 0
M  V30 1501 H 137.349 3.39925 -3.37621 0
M  V30 1502 H 135.713 1.874 -1.72492 0
M  V30 1503 H 136.496 1.15391 -3.23326 0
M  V30 1504 N 138.941 1.26152 0.944643 0
M  V30 1505 C 139.888 1.07408 2.04285 0
M  V30 1506 C 140.858 -0.0198413 1.66088 0
M  V30 1507 O 142.043 0.139264 1.90291 0
M  V30 1508 C 139.183 0.70945 3.37729 0
M  V30 1509 C 138.296 1.87926 3.88983 0
M  V30 1510 C 137.431 1.45807 5.10797 0
M  V30 1511 C 136.47 2.5964 5.54305 0
M  V30 1512 N 135.607 2.18226 6.67324 0
M  V30 1513 H 140.447 2.01389 2.1965 0
M  V30 1514 H 137.984 1.00275 1.07626 0
M  V30 1515 H 139.942 0.478948 4.14442 0
M  V30 1516 H 138.572 -0.193389 3.2222 0
M  V30 1517 H 137.624 2.22279 3.08701 0
M  V30 1518 H 138.936 2.73377 4.17213 0
M  V30 1519 H 138.09 1.18781 5.94959 0
M  V30 1520 H 136.829 0.574414 4.84305 0
M  V30 1521 H 135.834 2.87399 4.68702 0
M  V30 1522 H 137.059 3.48599 5.828 0
M  V30 1523 H 135.005 1.3229 6.42523 0
M  V30 1524 H 134.922 2.97221 6.95123 0
M  V30 1525 H 136.19 1.94403 7.54869 0
M  V30 1526 N 140.419 -1.14872 1.07899 0
M  V30 1527 C 141.349 -2.2193 0.725887 0
M  V30 1528 C 142.33 -1.67622 -0.28927 0
M  V30 1529 O 143.515 -1.93533 -0.160787 0
M  V30 1530 C 140.645 -3.47061 0.128856 0
M  V30 1531 C 139.599 -4.14363 1.07178 0
M  V30 1532 C 138.925 -5.33636 0.337229 0
M  V30 1533 C 140.225 -4.63492 2.40775 0
M  V30 1534 H 141.919 -2.51724 1.62097 0
M  V30 1535 H 139.465 -1.20991 0.780838 0
M  V30 1536 H 141.418 -4.21199 -0.130147 0
M  V30 1537 H 140.142 -3.16617 -0.80134 0
M  V30 1538 H 138.801 -3.42173 1.3158 0
M  V30 1539 H 138.449 -4.99449 -0.596606 0
M  V30 1540 H 138.149 -5.79609 0.965788 0
M  V30 1541 H 139.673 -6.10539 0.0861567 0
M  V30 1542 H 141.087 -5.2913 2.20669 0
M  V30 1543 H 139.484 -5.20148 2.99276 0
M  V30 1544 H 140.554 -3.78834 3.02676 0
M  V30 1545 N 141.898 -0.863906 -1.31812 0
M  V30 1546 C 143.147 -0.46801 -1.96195 0
M  V30 1547 C 143.46 0.983474 -1.69077 0
M  V30 1548 O 144.666 1.48523 -2.27273 0
M  V30 1549 C 143.122 -0.785995 -3.51212 0
M  V30 1550 C 142.73 -2.25383 -3.87178 0
M  V30 1551 C 144.474 -0.458274 -4.22019 0
M  V30 1552 C 142.381 -2.51455 -5.3528 0
M  V30 1553 H 141.311 -0.171283 -0.734287 0
M  V30 1554 H 143.962 -1.05597 -1.50072 0
M  V30 1555 H 142.344 -0.127359 -3.95795 0
M  V30 1556 H 143.518 -2.95502 -3.53575 0
M  V30 1557 H 141.833 -2.54698 -3.2942 0
M  V30 1558 H 144.43 -0.630369 -5.30971 0
M  V30 1559 H 144.773 0.600834 -4.11941 0
M  V30 1560 H 145.306 -1.07319 -3.8305 0
M  V30 1561 H 142.045 -3.56025 -5.50387 0
M  V30 1562 H 141.565 -1.85923 -5.70257 0
M  V30 1563 H 143.244 -2.35874 -6.02472 0
M  V30 1564 N 143.376 1.44774 -0.622745 0
M  V30 1565 C 144.624 2.01721 -0.123655 0
M  V30 1566 C 144.945 1.49172 1.25589 0
M  V30 1567 O 144.215 0.691974 1.83272 0
M  V30 1568 H 142.795 0.745777 -0.0427225 0
M  V30 1569 H 145.457 1.77382 -0.807559 0
M  V30 1570 H 144.553 3.11984 -0.0849534 0
M  V30 1571 N 144.854 0.36279 1.53368 0
M  V30 1572 C 146.103 -0.22888 2.00397 0
M  V30 1573 C 146.416 -1.50096 1.25421 0
M  V30 1574 O 147.622 -2.17106 1.63025 0
M  V30 1575 C 146.078 -0.458417 3.56969 0
M  V30 1576 C 145.686 0.798877 4.4082 0
M  V30 1577 C 147.43 -1.00789 4.12361 0
M  V30 1578 C 145.337 0.539078 5.88938 0
M  V30 1579 H 144.267 -0.089305 0.748693 0
M  V30 1580 H 146.918 0.481099 1.77081 0
M  V30 1581 H 145.3 -1.22959 3.76427 0
M  V30 1582 H 146.474 1.57262 4.33134 0
M  V30 1583 H 144.789 1.27137 3.96516 0
M  V30 1584 H 147.386 -1.21754 5.20653 0
M  V30 1585 H 147.729 -1.9692 3.66781 0
M  V30 1586 H 148.262 -0.296961 3.9669 0
M  V30 1587 H 145.001 1.47064 6.3879 0
M  V30 1588 H 144.521 -0.196222 5.99479 0
M  V30 1589 H 146.2 0.163542 6.46793 0
M  V30 1590 N 146.332 -1.57332 0.0918853 0
M  V30 1591 C 147.58 -1.93853 -0.571446 0
M  V30 1592 C 147.901 -0.974212 -1.6892 0
M  V30 1593 O 147.171 -0.0257254 -1.95883 0
M  V30 1594 H 145.751 -0.715666 -0.214082 0
M  V30 1595 H 148.413 -1.94287 0.154464 0
M  V30 1596 H 147.509 -2.96191 -0.983729 0
M  V30 1597 N 147.81 0.181792 -1.56548 0
M  V30 1598 C 149.05 0.906711 -1.83189 0
M  V30 1599 C 149.414 1.79882 -0.671312 0
M  V30 1600 O 150.615 2.56054 -0.81792 0
M  V30 1601 C 148.886 1.69023 -3.14906 0
M  V30 1602 S 150.445 2.46535 -3.62996 0
M  V30 1603 H 147.263 0.303877 -0.642791 0
M  V30 1604 H 149.865 0.169107 -1.94767 0
M  V30 1605 H 148.569 1.02571 -3.97376 0
M  V30 1606 H 148.1 2.46941 -3.06241 0
M  V30 1607 H 150.115 3.71014 -3.29489 0
M  V30 1608 N 149.288 1.51039 0.449983 0
M  V30 1609 C 150.535 1.63081 1.20045 0
M  V30 1610 C 150.863 0.341024 1.91487 0
M  V30 1611 O 150.118 -0.674276 1.83717 0
M  V30 1612 C 150.417 2.77556 2.25161 0
M  V30 1613 C 150.083 4.17289 1.70823 0
M  V30 1614 C 148.745 4.55305 1.55725 0
M  V30 1615 C 151.097 5.04536 1.3074 0
M  V30 1616 C 148.425 5.78287 0.989999 0
M  V30 1617 C 150.777 6.28085 0.754482 0
M  V30 1618 C 149.441 6.64885 0.590308 0
M  V30 1619 H 148.711 0.596755 0.439277 0
M  V30 1620 H 151.358 1.85037 0.49333 0
M  V30 1621 H 149.663 2.49771 3.01863 0
M  V30 1622 H 151.36 2.84073 2.83026 0
M  V30 1623 H 147.95 3.8731 1.83546 0
M  V30 1624 H 152.134 4.75782 1.41229 0
M  V30 1625 H 147.39 6.05456 0.850451 0
M  V30 1626 H 151.564 6.95038 0.435324 0
M  V30 1627 H 149.191 7.60055 0.14862 0
M  V30 1628 N 150.766 -0.704594 1.40972 0
M  V30 1629 C 152.015 -1.46018 1.39146 0
M  V30 1630 C 152.328 -1.956 0.000589254 0
M  V30 1631 O 153.534 -2.71137 -0.1403 0
M  V30 1632 C 151.99 -2.63996 2.4461 0
M  V30 1633 C 151.598 -2.21238 3.89561 0
M  V30 1634 C 153.342 -3.41677 2.51907 0
M  V30 1635 C 151.249 -3.3612 4.86598 0
M  V30 1636 H 150.179 -0.548444 0.517422 0
M  V30 1637 H 152.83 -0.765784 1.66757 0
M  V30 1638 H 151.212 -3.3566 2.10115 0
M  V30 1639 H 152.386 -1.56923 4.33257 0
M  V30 1640 H 150.701 -1.56574 3.85841 0
M  V30 1641 H 153.298 -4.27182 3.2159 0
M  V30 1642 H 153.641 -3.86247 1.55303 0
M  V30 1643 H 154.174 -2.77064 2.85448 0
M  V30 1644 H 150.913 -2.96572 5.84573 0
M  V30 1645 H 150.433 -3.99315 4.47557 0
M  V30 1646 H 152.112 -4.02029 5.06934 0
M  V30 1647 N 152.244 -1.26651 -0.937939 0
M  V30 1648 C 153.177 -1.02811 -2.03728 0
M  V30 1649 C 154.155 0.0481915 -1.62529 0
M  V30 1650 O 155.339 -0.0948839 -1.88261 0
M  V30 1651 C 152.466 -0.557517 -3.3408 0
M  V30 1652 C 151.512 -1.62686 -3.94253 0
M  V30 1653 S 152.345 -3.21667 -4.28125 0
M  V30 1654 C 153.501 -2.76384 -5.61572 0
M  V30 1655 H 153.734 -1.95891 -2.23638 0
M  V30 1656 H 151.267 -1.10367 -1.07974 0
M  V30 1657 H 153.225 -0.292674 -4.09455 0
M  V30 1658 H 151.886 0.353062 -3.12109 0
M  V30 1659 H 151.079 -1.24866 -4.88287 0
M  V30 1660 H 150.681 -1.84324 -3.25424 0
M  V30 1661 H 152.973 -2.2105 -6.40424 0
M  V30 1662 H 153.916 -3.69123 -6.0428 0
M  V30 1663 H 154.324 -2.15847 -5.21604 0
M  V30 1664 N 153.722 1.14298 -1.08507 0
M  V30 1665 C 154.97 1.84993 -0.813763 0
M  V30 1666 C 155.291 1.83405 0.662393 0
M  V30 1667 O 154.561 1.28319 1.48024 0
M  V30 1668 H 153.141 0.684966 -0.298045 0
M  V30 1669 H 155.803 1.385 -1.37126 0
M  V30 1670 H 154.899 2.89788 -1.15884 0
M  V30 1671 N 155.201 0.870884 1.31352 0
M  V30 1672 C 156.45 0.478408 1.95944 0
M  V30 1673 C 156.763 -0.974493 1.69597 0
M  V30 1674 O 157.969 -1.47316 2.28058 0
M  V30 1675 C 156.425 0.804609 3.50791 0
M  V30 1676 C 156.033 2.27433 3.85977 0
M  V30 1677 C 157.777 0.480648 4.2177 0
M  V30 1678 C 155.684 2.5429 5.33939 0
M  V30 1679 H 154.614 0.175175 0.733369 0
M  V30 1680 H 157.265 1.06391 1.4951 0
M  V30 1681 H 155.647 0.148347 3.95722 0
M  V30 1682 H 156.821 2.97373 3.52002 0
M  V30 1683 H 155.136 2.56442 3.28065 0
M  V30 1684 H 157.733 0.658519 5.30629 0
M  V30 1685 H 158.076 -0.578979 4.12254 0
M  V30 1686 H 158.609 1.09349 3.82476 0
M  V30 1687 H 155.348 3.58939 5.48491 0
M  V30 1688 H 154.868 1.88945 5.69263 0
M  V30 1689 H 156.547 2.39066 6.01212 0
M  V30 1690 N 156.679 -1.44442 0.630414 0
M  V30 1691 C 157.927 -2.01653 0.134351 0
M  V30 1692 C 158.248 -1.49836 -1.24796 0
M  V30 1693 O 157.518 -0.701684 -1.82902 0
M  V30 1694 H 156.098 -0.74554 0.0466769 0
M  V30 1695 H 158.76 -1.76952 0.816955 0
M  V30 1696 H 157.856 -3.11935 0.101498 0
M  V30 1697 N 158.157 -0.370918 -1.53173 0
M  V30 1698 C 159.405 0.216673 -2.00935 0
M  V30 1699 C 159.726 1.48845 -1.25977 0
M  V30 1700 O 158.996 1.92286 -0.374551 0
M  V30 1701 H 157.576 0.0830565 -0.742368 0
M  V30 1702 H 160.238 -0.49838 -1.8842 0
M  V30 1703 H 159.334 0.439893 -3.08984 0
M  V30 1704 N 159.635 1.57281 -0.100228 0
M  V30 1705 C 160.881 1.94826 0.563101 0
M  V30 1706 C 161.214 0.982475 1.67514 0
M  V30 1707 O 160.489 0.0164069 1.94493 0
M  V30 1708 C 160.772 3.42453 1.11346 0
M  V30 1709 C 160.625 4.498 0.00612081 0
M  V30 1710 C 161.944 3.91506 2.01024 0
M  V30 1711 H 159.063 0.708428 0.203221 0
M  V30 1712 H 161.705 1.8922 -0.171979 0
M  V30 1713 H 159.855 3.47361 1.7399 0
M  V30 1714 H 161.527 4.57 -0.628357 0
M  V30 1715 H 159.77 4.28756 -0.659581 0
M  V30 1716 H 160.441 5.50306 0.432109 0
M  V30 1717 H 162.917 3.88784 1.48278 0
M  V30 1718 H 161.793 4.95358 2.36457 0
M  V30 1719 H 162.054 3.31099 2.92961 0
M  V30 1720 N 161.113 -0.173488 1.56642 0
M  V30 1721 C 162.043 -1.2171 1.99271 0
M  V30 1722 C 163.024 -1.46289 0.867959 0
M  V30 1723 O 164.209 -1.5766 1.13388 0
M  V30 1724 C 161.339 -2.55651 2.35074 0
M  V30 1725 C 160.293 -2.45645 3.50489 0
M  V30 1726 C 159.619 -3.84056 3.72028 0
M  V30 1727 C 160.919 -1.96302 4.84007 0
M  V30 1728 H 162.613 -0.86275 2.867 0
M  V30 1729 H 160.159 -0.413571 1.37933 0
M  V30 1730 H 162.112 -3.2886 2.63494 0
M  V30 1731 H 160.836 -2.92869 1.44552 0
M  V30 1732 H 159.495 -1.7489 3.22194 0
M  V30 1733 H 159.143 -4.18664 2.788 0
M  V30 1734 H 158.843 -3.7823 4.49684 0
M  V30 1735 H 160.367 -4.58854 4.02846 0
M  V30 1736 H 161.781 -2.59284 5.11317 0
M  V30 1737 H 160.178 -2.01429 5.65284 0
M  V30 1738 H 161.248 -0.917226 4.76146 0
M  V30 1739 N 162.591 -1.51276 -0.441967 0
M  V30 1740 C 163.819 -1.67516 -1.21434 0
M  V30 1741 C 164.234 -0.37055 -1.85128 0
M  V30 1742 O 163.591 0.650498 -1.70513 0
M  V30 1743 C 163.642 -2.78748 -2.30177 0
M  V30 1744 O 163.363 -4.04154 -1.69089 0
M  V30 1745 C 164.864 -3.06217 -3.20541 0
M  V30 1746 H 162.084 -0.562276 -0.366178 0
M  V30 1747 H 164.628 -1.97666 -0.524244 0
M  V30 1748 H 162.783 -2.5121 -2.94911 0
M  V30 1749 H 163.197 -4.65894 -2.40922 0
M  V30 1750 H 164.671 -3.8764 -3.92987 0
M  V30 1751 H 165.148 -2.18439 -3.81026 0
M  V30 1752 H 165.754 -3.35397 -2.61513 0
M  V30 1753 N 164.069 0.697108 -1.41344 0
M  V30 1754 C 165.032 1.79281 -1.42797 0
M  V30 1755 C 166.032 1.57607 -0.318837 0
M  V30 1756 O 167.222 1.64309 -0.578642 0
M  V30 1757 C 164.354 3.17632 -1.23785 0
M  V30 1758 H 165.547 1.79385 -2.40335 0
M  V30 1759 H 163.1 0.904582 -1.27464 0
M  V30 1760 H 163.835 3.23167 -0.270814 0
M  V30 1761 H 163.62 3.34765 -2.04144 0
M  V30 1762 H 165.11 3.97617 -1.27633 0
M  V30 1763 N 165.547 1.27147 0.931209 0
M  V30 1764 C 166.477 1.12081 2.04842 0
M  V30 1765 C 167.458 0.0232364 1.70084 0
M  V30 1766 O 168.643 0.197085 1.93197 0
M  V30 1767 C 165.773 0.76354 3.38803 0
M  V30 1768 C 164.727 1.81396 3.87659 0
M  V30 1769 C 164.053 1.31075 5.18385 0
M  V30 1770 C 165.353 3.21739 4.11438 0
M  V30 1771 H 167.047 2.05537 2.17703 0
M  V30 1772 H 164.593 0.989603 1.04608 0
M  V30 1773 H 166.546 0.644982 4.16435 0
M  V30 1774 H 165.27 -0.206727 3.25945 0
M  V30 1775 H 163.929 1.92136 3.12217 0
M  V30 1776 H 163.577 0.330037 5.01916 0
M  V30 1777 H 163.277 2.013 5.52044 0
M  V30 1778 H 164.801 1.20506 5.98591 0
M  V30 1779 H 166.215 3.14019 4.79651 0
M  V30 1780 H 164.612 3.89644 4.56397 0
M  V30 1781 H 165.682 3.67054 3.16859 0
M  V30 1782 N 167.025 -1.13721 1.09112 0
M  V30 1783 C 168.436 -1.6648 0.845068 0
M  V30 1784 C 168.787 -1.85911 -0.62701 0
M  V30 1785 O 167.912 -1.57556 -1.48341 0
M  V30 1786 C 168.507 -3.02413 1.52748 0
M  V30 1787 C 167.066 -3.52176 1.32849 0
M  V30 1788 C 166.213 -2.27492 1.58564 0
M  V30 1789 H 169.164 -0.976872 1.25072 0
M  V30 1790 H 169.185 -3.68223 0.958752 0
M  V30 1791 H 168.697 -2.88238 2.59885 0
M  V30 1792 H 166.798 -3.7156 0.278137 0
M  V30 1793 H 166.911 -4.32499 2.0611 0
M  V30 1794 H 165.275 -2.33923 1.00758 0
M  V30 1795 H 166.058 -2.15886 2.66924 0
M  V30 1796 N 168.503 -0.877838 -1.30888 0
M  V30 1797 C 169.453 -0.310872 -2.25871 0
M  V30 1798 C 170.437 0.556596 -1.50966 0
M  V30 1799 O 171.629 0.402187 -1.7237 0
M  V30 1800 C 168.758 0.479821 -3.3993 0
M  V30 1801 C 167.844 -0.401333 -4.22197 0
M  V30 1802 N 168.235 -1.49848 -4.83093 0
M  V30 1803 C 166.533 -0.195167 -4.45573 0
M  V30 1804 C 167.234 -2.0425 -5.44662 0
M  V30 1805 N 166.21 -1.33843 -5.26865 0
M  V30 1806 H 170.012 -1.1493 -2.70496 0
M  V30 1807 H 167.526 -0.726458 -1.45246 0
M  V30 1808 H 169.523 0.902582 -4.07012 0
M  V30 1809 H 168.183 1.31577 -2.96846 0
M  V30 1810 H 169.194 -1.88137 -4.82519 0
M  V30 1811 H 165.871 0.604192 -4.13105 0
M  V30 1812 H 167.261 -2.96345 -6.03017 0
M  V30 1813 N 169.982 1.44106 -0.638065 0
M  V30 1814 C 171.229 2.01978 -0.14533 0
M  V30 1815 C 171.557 1.50234 1.23532 0
M  V30 1816 O 170.812 0.679548 1.83523 0
M  V30 1817 C 171.111 3.5729 -0.0887327 0
M  V30 1818 C 170.777 4.28317 -1.40909 0
M  V30 1819 C 169.439 4.47437 -1.77069 0
M  V30 1820 C 171.791 4.6867 -2.28031 0
M  V30 1821 C 169.119 5.04171 -3.00047 0
M  V30 1822 C 171.471 5.26766 -3.50286 0
M  V30 1823 C 170.135 5.44104 -3.86661 0
M  V30 1824 H 169.405 0.739089 -0.0531801 0
M  V30 1825 H 172.052 1.72781 -0.825761 0
M  V30 1826 H 170.357 3.8594 0.675095 0
M  V30 1827 H 172.054 3.99807 0.309145 0
M  V30 1828 H 168.644 4.1377 -1.1177 0
M  V30 1829 H 172.828 4.53604 -2.01388 0
M  V30 1830 H 168.084 5.15782 -3.28298 0
M  V30 1831 H 172.258 5.56983 -4.18023 0
M  V30 1832 H 169.885 5.87832 -4.82034 0
M  V30 1833 N 171.46 0.379036 1.52974 0
M  V30 1834 C 172.707 -0.206421 2.01445 0
M  V30 1835 C 173.035 -1.47668 1.26587 0
M  V30 1836 O 172.29 -1.92514 0.351675 0
M  V30 1837 C 172.589 -0.53096 3.53434 0
M  V30 1838 C 172.255 0.646546 4.46241 0
M  V30 1839 C 170.917 0.969604 4.7133 0
M  V30 1840 C 173.269 1.43479 5.01062 0
M  V30 1841 C 170.597 2.08263 5.48492 0
M  V30 1842 C 172.949 2.53834 5.7944 0
M  V30 1843 C 171.613 2.86659 6.02812 0
M  V30 1844 H 170.883 -0.0755349 0.73714 0
M  V30 1845 H 173.53 0.514271 1.84465 0
M  V30 1846 H 171.835 -1.33285 3.68432 0
M  V30 1847 H 173.532 -0.996417 3.88423 0
M  V30 1848 H 170.122 0.384734 4.2687 0
M  V30 1849 H 174.306 1.19844 4.81613 0
M  V30 1850 H 169.562 2.34078 5.64816 0
M  V30 1851 H 173.736 3.15319 6.20924 0
M  V30 1852 H 171.363 3.73026 6.62387 0
M  V30 1853 N 172.938 -1.57226 0.108567 0
M  V30 1854 C 173.871 -2.10447 -0.882464 0
M  V30 1855 C 174.849 -1.01829 -1.26766 0
M  V30 1856 O 176.033 -1.29415 -1.37054 0
M  V30 1857 C 173.16 -2.59258 -2.17952 0
M  V30 1858 C 172.206 -3.79662 -1.94318 0
M  V30 1859 S 173.039 -5.22586 -1.16892 0
M  V30 1860 C 174.195 -5.74758 -2.47799 0
M  V30 1861 H 174.428 -2.94178 -0.429745 0
M  V30 1862 H 171.961 -1.54043 -0.105 0
M  V30 1863 H 173.919 -2.88036 -2.92482 0
M  V30 1864 H 172.58 -1.75728 -2.60343 0
M  V30 1865 H 171.773 -4.11928 -2.90399 0
M  V30 1866 H 171.375 -3.51446 -1.27913 0
M  V30 1867 H 173.667 -5.83846 -3.43701 0
M  V30 1868 H 174.61 -6.73027 -2.20093 0
M  V30 1869 H 175.018 -5.02763 -2.56689 0
M  V30 1870 N 174.416 0.165178 -1.56732 0
M  V30 1871 C 175.664 0.879068 -1.8198 0
M  V30 1872 C 175.985 1.82514 -0.686561 0
M  V30 1873 O 175.255 1.93694 0.293146 0
M  V30 1874 H 173.835 0.327608 -0.671329 0
M  V30 1875 H 176.497 0.163526 -1.94213 0
M  V30 1876 H 175.593 1.45228 -2.76252 0
M  V30 1877 N 175.894 1.51508 0.433938 0
M  V30 1878 C 177.124 1.67914 1.20369 0
M  V30 1879 C 177.532 0.377461 1.85397 0
M  V30 1880 O 176.875 -0.654255 1.71654 0
M  V30 1881 C 176.937 2.74045 2.32679 0
M  V30 1882 C 176.601 4.16543 1.87991 0
M  V30 1883 C 177.598 5.01211 1.38145 0
M  V30 1884 C 175.283 4.6266 1.95579 0
M  V30 1885 C 177.277 6.30056 0.964774 0
M  V30 1886 C 174.964 5.91501 1.53523 0
M  V30 1887 C 175.962 6.75027 1.04055 0
M  V30 1888 O 175.65 8.01459 0.625964 0
M  V30 1889 H 175.382 0.566578 0.368735 0
M  V30 1890 H 177.936 1.98709 0.51999 0
M  V30 1891 H 176.166 2.38572 3.04336 0
M  V30 1892 H 177.855 2.79295 2.94532 0
M  V30 1893 H 178.621 4.66783 1.31675 0
M  V30 1894 H 174.5 3.97767 2.33029 0
M  V30 1895 H 178.044 6.95202 0.57796 0
M  V30 1896 H 173.941 6.25442 1.59665 0
M  V30 1897 H 174.709 8.15043 0.751509 0
M  V30 1898 N 177.372 -0.689602 1.41712 0
M  V30 1899 C 178.602 -1.47613 1.44548 0
M  V30 1900 C 179.01 -1.89132 0.0509034 0
M  V30 1901 O 178.353 -1.57741 -0.94146 0
M  V30 1902 C 178.415 -2.76596 2.2964 0
M  V30 1903 C 178.079 -2.57245 3.77722 0
M  V30 1904 C 179.076 -2.22804 4.69739 0
M  V30 1905 C 176.761 -2.727 4.2183 0
M  V30 1906 C 178.755 -2.04064 6.03851 0
M  V30 1907 C 176.442 -2.53576 5.56006 0
M  V30 1908 C 177.44 -2.1931 6.46832 0
M  V30 1909 O 177.128 -2.00359 7.78532 0
M  V30 1910 H 176.86 -0.461227 0.494212 0
M  V30 1911 H 179.414 -0.856045 1.86711 0
M  V30 1912 H 177.644 -3.41033 1.82301 0
M  V30 1913 H 179.333 -3.38424 2.24107 0
M  V30 1914 H 180.099 -2.10473 4.36951 0
M  V30 1915 H 175.978 -2.98353 3.51435 0
M  V30 1916 H 179.522 -1.77241 6.74708 0
M  V30 1917 H 175.419 -2.65499 5.88371 0
M  V30 1918 H 176.187 -2.15075 7.89737 0
M  V30 1919 N 178.85 -1.27639 -0.924453 0
M  V30 1920 C 180.266 -1.05113 -1.20097 0
M  V30 1921 C 180.466 0.213262 -2.00368 0
M  V30 1922 O 179.522 0.91787 -2.35226 0
M  V30 1923 C 180.835 -2.29244 -1.94596 0
M  V30 1924 C 182.383 -2.34315 -2.07522 0
M  V30 1925 C 182.858 -3.58183 -2.85427 0
M  V30 1926 N 184.349 -3.5876 -2.92994 0
M  V30 1927 C 185.084 -4.51277 -3.53746 0
M  V30 1928 N 184.58 -5.54102 -4.15863 0
M  V30 1929 N 186.373 -4.38894 -3.51181 0
M  V30 1930 H 178.524 -2.08821 -0.388264 0
M  V30 1931 H 180.787 -0.918568 -0.234385 0
M  V30 1932 H 180.493 -3.21301 -1.43034 0
M  V30 1933 H 180.367 -2.34816 -2.95197 0
M  V30 1934 H 182.754 -1.42762 -2.58269 0
M  V30 1935 H 182.835 -2.32744 -1.06131 0
M  V30 1936 H 182.479 -4.50074 -2.35363 0
M  V30 1937 H 182.409 -3.57006 -3.8711 0
M  V30 1938 H 184.9 -2.84398 -2.4885 0
M  V30 1939 H 185.213 -6.20859 -4.60168 0
M  V30 1940 H 183.558 -5.57941 -4.144 0
M  V30 1941 H 186.749 -3.57772 -3.01856 0
M  V30 1942 H 186.922 -5.11186 -3.98237 0
M  V30 1943 N 180.328 1.1314 -1.09713 0
M  V30 1944 C 181.558 1.88048 -0.855656 0
M  V30 1945 C 181.966 1.79537 0.596919 0
M  V30 1946 O 181.309 1.16196 1.42282 0
M  V30 1947 C 181.371 3.38314 -1.21589 0
M  V30 1948 C 181.035 3.70605 -2.67397 0
M  V30 1949 C 182.032 3.69596 -3.65643 0
M  V30 1950 C 179.717 4.0017 -3.03593 0
M  V30 1951 C 181.711 3.977 -4.9811 0
M  V30 1952 C 179.398 4.27935 -4.36251 0
M  V30 1953 C 180.396 4.26685 -5.33318 0
M  V30 1954 O 180.084 4.53767 -6.63589 0
M  V30 1955 H 179.816 0.60208 -0.307368 0
M  V30 1956 H 182.37 1.44128 -1.46343 0
M  V30 1957 H 180.6 3.82752 -0.551177 0
M  V30 1958 H 182.289 3.94552 -0.953083 0
M  V30 1959 H 183.055 3.46826 -3.39023 0
M  V30 1960 H 178.934 4.00289 -2.2867 0
M  V30 1961 H 182.478 3.9664 -5.73866 0
M  V30 1962 H 178.375 4.50178 -4.62613 0
M  V30 1963 H 179.143 4.71422 -6.69107 0
M  V30 1964 N 181.806 0.884767 1.30421 0
M  V30 1965 C 183.031 0.517288 2.00845 0
M  V30 1966 C 183.456 -0.886779 1.65885 0
M  V30 1967 O 182.814 -1.58768 0.875354 0
M  V30 1968 C 182.862 0.698994 3.5376 0
M  V30 1969 O 181.966 -0.255208 4.1161 0
M  V30 1970 H 181.307 0.203872 0.631927 0
M  V30 1971 H 183.837 1.19225 1.66272 0
M  V30 1972 H 183.847 0.597912 4.03595 0
M  V30 1973 H 182.522 1.72271 3.78544 0
M  V30 1974 H 181.099 -0.10784 3.72744 0
M  V30 1975 N 183.284 -1.43765 0.645699 0
M  V30 1976 C 184.231 -2.30745 -0.0504648 0
M  V30 1977 C 185.201 -1.4432 -0.822241 0
M  V30 1978 O 186.386 -1.73202 -0.800358 0
M  V30 1979 C 183.526 -3.29802 -1.0161 0
M  V30 1980 C 182.639 -4.31326 -0.241219 0
M  V30 1981 C 181.774 -5.17469 -1.19998 0
M  V30 1982 C 180.813 -6.10691 -0.415094 0
M  V30 1983 N 179.95 -6.89483 -1.32506 0
M  V30 1984 H 184.79 -2.8973 0.697155 0
M  V30 1985 H 182.327 -1.42738 0.355563 0
M  V30 1986 H 184.285 -3.85734 -1.58949 0
M  V30 1987 H 182.915 -2.72483 -1.73069 0
M  V30 1988 H 181.967 -3.77749 0.448334 0
M  V30 1989 H 183.279 -4.9743 0.369437 0
M  V30 1990 H 182.433 -5.7799 -1.84424 0
M  V30 1991 H 181.172 -4.51473 -1.84455 0
M  V30 1992 H 180.177 -5.49265 0.242565 0
M  V30 1993 H 181.402 -6.78727 0.224966 0
M  V30 1994 H 179.348 -6.26142 -1.95657 0
M  V30 1995 H 179.265 -7.52081 -0.768783 0
M  V30 1996 H 180.533 -7.54516 -1.9577 0
M  V30 1997 N 184.763 -0.387143 -1.52771 0
M  V30 1998 C 185.673 0.456442 -2.30117 0
M  V30 1999 C 186.689 1.07342 -1.36944 0
M  V30 2000 O 187.865 1.07971 -1.70013 0
M  V30 2001 C 184.93 1.56957 -3.09136 0
M  V30 2002 C 183.991 0.977916 -4.18014 0
M  V30 2003 C 183.224 2.038 -4.93256 0
M  V30 2004 O 183.447 3.25271 -4.68567 0
M  V30 2005 O 182.381 1.6565 -5.78657 0
M  V30 2006 H 186.207 -0.17359 -3.03203 0
M  V30 2007 H 183.792 -0.150919 -1.48636 0
M  V30 2008 H 185.674 2.21628 -3.58412 0
M  V30 2009 H 184.349 2.18461 -2.38865 0
M  V30 2010 H 183.256 0.294525 -3.72939 0
M  V30 2011 H 184.589 0.407128 -4.90513 0
M  V30 2012 N 186.241 1.57166 -0.116904 0
M  V30 2013 C 187.469 1.99473 0.549383 0
M  V30 2014 C 187.884 0.996541 1.60357 0
M  V30 2015 O 187.241 -0.0108731 1.82497 0
M  V30 2016 C 187.292 3.41788 1.17741 0
M  V30 2017 O 187.013 4.37788 0.165362 0
M  V30 2018 C 188.514 3.99216 1.92722 0
M  V30 2019 H 185.734 0.655009 0.145616 0
M  V30 2020 H 188.278 2.03494 -0.202625 0
M  V30 2021 H 186.433 3.38713 1.88021 0
M  V30 2022 H 186.847 5.20806 0.621403 0
M  V30 2023 H 188.321 5.00882 2.31995 0
M  V30 2024 H 188.798 3.3824 2.80161 0
M  V30 2025 H 189.404 4.0583 1.27209 0
M  V30 2026 N 187.719 -0.156864 1.56817 0
M  V30 2027 C 188.667 -1.21319 1.98455 0
M  V30 2028 C 189.661 -1.45025 0.875444 0
M  V30 2029 O 190.867 -1.45435 1.0606 0
M  V30 2030 H 187.242 -0.408142 0.631605 0
M  V30 2031 H 189.213 -0.835244 2.86472 0
M  V30 2032 C 187.962 -2.54148 2.37285 0
M  V30 2033 H 187.285 -2.36733 3.22176 0
M  V30 2034 H 188.725 -3.26712 2.70251 0
M  V30 2035 C 187.184 -3.13967 1.22173 0
M  V30 2036 O 187.714 -3.98357 0.517149 0
M  V30 2037 N 185.92 -2.7327 0.988536 0
M  V30 2038 H 185.467 -2.04744 1.56326 0
M  V30 2039 H 185.425 -3.13628 0.220209 0
M  V30 2040 N 189.197 -1.51736 -0.425897 0
M  V30 2041 C 190.446 -1.64201 -1.17136 0
M  V30 2042 C 190.759 -0.369705 -1.92074 0
M  V30 2043 O 191.965 -0.373898 -2.68913 0
M  V30 2044 C 190.421 -2.90035 -2.13091 0
M  V30 2045 C 190.029 -4.24312 -1.43747 0
M  V30 2046 C 191.773 -3.1186 -2.87999 0
M  V30 2047 C 189.68 -5.41285 -2.38253 0
M  V30 2048 H 188.61 -0.611624 -0.440944 0
M  V30 2049 H 191.261 -1.78212 -0.437328 0
M  V30 2050 H 189.643 -2.69684 -2.89977 0
M  V30 2051 H 190.817 -4.55086 -0.723408 0
M  V30 2052 H 189.132 -4.08456 -0.809465 0
M  V30 2053 H 191.729 -3.96427 -3.58817 0
M  V30 2054 H 192.072 -2.25403 -3.49999 0
M  V30 2055 H 192.605 -3.32605 -2.18217 0
M  V30 2056 H 189.344 -6.30037 -1.80925 0
M  V30 2057 H 188.864 -5.14872 -3.0768 0
M  V30 2058 H 190.543 -5.73694 -2.99139 0
M  V30 2059 N 190.675 0.682077 -1.42076 0
M  V30 2060 C 191.623 1.81707 -1.45208 0
M  V30 2061 C 192.617 1.66183 -0.328591 0
M  V30 2062 O 193.823 1.7288 -0.501264 0
M  V30 2063 H 190.198 0.599014 -0.454628 0
M  V30 2064 H 192.169 1.76183 -2.40836 0
M  V30 2065 C 190.918 3.19816 -1.36428 0
M  V30 2066 H 190.241 3.32385 -2.22171 0
M  V30 2067 H 191.681 3.99272 -1.42681 0
M  V30 2068 C 190.14 3.36809 -0.078191 0
M  V30 2069 O 190.67 3.92124 0.87188 0
M  V30 2070 N 188.876 2.906 0.00229266 0
M  V30 2071 H 188.423 2.45772 -0.771616 0
M  V30 2072 H 188.381 3.02347 0.862179 0
M  V30 2073 N 192.153 1.28127 0.917671 0
M  V30 2074 C 193.378 1.18007 1.70555 0
M  V30 2075 C 193.803 -0.258257 1.86319 0
M  V30 2076 O 193.161 -1.1869 1.37049 0
M  V30 2077 C 193.209 1.87948 3.07746 0
M  V30 2078 O 192.313 1.18427 3.9503 0
M  V30 2079 H 191.654 0.409867 0.522403 0
M  V30 2080 H 194.184 1.69379 1.1477 0
M  V30 2081 H 194.194 1.95701 3.58001 0
M  V30 2082 H 192.869 2.92573 2.95591 0
M  V30 2083 H 191.446 1.18811 3.53466 0
M  V30 2084 N 193.631 -1.12557 1.10312 0
M  V30 2085 C 194.856 -1.88405 0.867085 0
M  V30 2086 C 195.281 -1.79038 -0.576817 0
M  V30 2087 O 194.639 -1.14439 -1.40618 0
M  V30 2088 C 194.687 -3.3563 1.31851 0
M  V30 2089 O 193.791 -4.09565 0.482734 0
M  V30 2090 H 193.132 -0.585455 0.313271 0
M  V30 2091 H 195.662 -1.42352 1.4696 0
M  V30 2092 H 195.672 -3.86469 1.3079 0
M  V30 2093 H 194.347 -3.41765 2.37001 0
M  V30 2094 H 192.924 -3.68695 0.558448 0
M  V30 2095 N 195.109 -0.891671 -1.2995 0
M  V30 2096 C 196.019 -0.367691 -2.31701 0
M  V30 2097 C 197.035 0.533486 -1.6562 0
M  V30 2098 O 198.211 0.424997 -1.96865 0
M  V30 2099 C 195.276 0.403406 -3.44345 0
M  V30 2100 C 194.337 -0.528328 -4.26037 0
M  V30 2101 C 193.57 0.206063 -5.33302 0
M  V30 2102 O 193.793 1.43119 -5.52153 0
M  V30 2103 O 192.727 -0.447281 -6.00236 0
M  V30 2104 H 196.553 -1.21163 -2.78484 0
M  V30 2105 H 194.138 -0.655725 -1.34241 0
M  V30 2106 H 196.02 0.839753 -4.12948 0
M  V30 2107 H 194.695 1.22354 -2.99685 0
M  V30 2108 H 193.602 -1.01362 -3.60106 0
M  V30 2109 H 194.935 -1.31465 -4.74318 0
M  V30 2110 N 196.587 1.43421 -0.653314 0
M  V30 2111 C 197.535 2.32546 0.0501531 0
M  V30 2112 C 198.529 1.48617 0.812985 0
M  V30 2113 O 199.735 1.64825 0.723375 0
M  V30 2114 H 196.11 0.751185 0.0350032 0
M  V30 2115 H 198.081 2.89602 -0.719261 0
M  V30 2116 C 196.83 3.32925 1.00279 0
M  V30 2117 H 196.153 3.97532 0.425236 0
M  V30 2118 H 197.593 3.9792 1.46409 0
M  V30 2119 C 196.052 2.63532 2.09886 0
M  V30 2120 O 196.582 2.45092 3.18265 0
M  V30 2121 N 194.788 2.22905 1.86445 0
M  V30 2122 H 194.335 2.38103 0.98309 0
M  V30 2123 H 194.293 1.76805 2.59976 0
M  V30 2124 N 198.065 0.39524 1.52563 0
M  V30 2125 C 199.29 -0.187456 2.06551 0
M  V30 2126 C 199.715 -1.39249 1.26457 0
M  V30 2127 O 199.073 -1.78947 0.291151 0
M  V30 2128 C 199.121 -0.529985 3.56684 0
M  V30 2129 O 198.225 -1.62307 3.79118 0
M  V30 2130 H 197.566 -0.0202537 0.663691 0
M  V30 2131 H 200.096 0.564426 1.96661 0
M  V30 2132 H 200.106 -0.792598 4.00227 0
M  V30 2133 H 198.781 0.350987 4.14416 0
M  V30 2134 H 197.358 -1.3537 3.47461 0
M  V30 2135 N 199.544 -1.57102 0.125237 0
M  V30 2136 C 200.772 -1.99761 -0.538797 0
M  V30 2137 C 201.187 -1.00503 -1.59827 0
M  V30 2138 O 200.544 0.00119474 -1.825 0
M  V30 2139 C 200.595 -3.42408 -1.15927 0
M  V30 2140 O 200.316 -4.37869 -0.142143 0
M  V30 2141 C 201.817 -4.00232 -1.90602 0
M  V30 2142 H 199.037 -0.655772 -0.14214 0
M  V30 2143 H 201.581 -2.03383 0.213413 0
M  V30 2144 H 199.736 -3.39706 -1.86223 0
M  V30 2145 H 200.15 -5.21128 -0.593775 0
M  V30 2146 H 201.624 -5.02105 -2.29335 0
M  V30 2147 H 202.101 -3.39721 -2.78363 0
M  V30 2148 H 202.707 -4.06499 -1.25055 0
M  V30 2149 N 201.022 0.148545 -1.56898 0
M  V30 2150 C 202.247 0.880385 -1.87787 0
M  V30 2151 C 202.672 1.74018 -0.714093 0
M  V30 2152 O 202.03 1.78153 0.336343 0
M  V30 2153 C 202.078 1.71422 -3.17249 0
M  V30 2154 O 201.182 2.8183 -3.01074 0
M  V30 2155 H 200.523 0.245301 -0.617028 0
M  V30 2156 H 203.053 0.139826 -2.04122 0
M  V30 2157 H 203.063 2.10954 -3.49231 0
M  V30 2158 H 201.738 1.08284 -4.01556 0
M  V30 2159 H 200.315 2.45715 -2.80497 0
M  V30 2160 N 202.5 1.5196 0.417844 0
M  V30 2161 C 203.728 1.69426 1.18753 0
M  V30 2162 C 204.143 0.399955 1.84515 0
M  V30 2163 O 203.5 -0.623288 1.71527 0
M  V30 2164 C 203.551 2.82375 2.25714 0
M  V30 2165 O 203.272 4.06793 1.62638 0
M  V30 2166 C 204.773 3.11277 3.15628 0
M  V30 2167 H 201.993 0.568031 0.357186 0
M  V30 2168 H 204.537 1.98475 0.49273 0
M  V30 2169 H 202.692 2.5587 2.90877 0
M  V30 2170 H 203.106 4.69667 2.3348 0
M  V30 2171 H 204.58 3.93843 3.86771 0
M  V30 2172 H 205.057 2.24473 3.77503 0
M  V30 2173 H 205.663 3.39515 2.56144 0
M  V30 2174 N 203.978 -0.674533 1.42435 0
M  V30 2175 C 204.908 -1.80009 1.48724 0
M  V30 2176 C 205.889 -1.6659 0.343793 0
M  V30 2177 O 207.074 -1.86007 0.558137 0
M  V30 2178 C 204.204 -3.18306 1.38919 0
M  V30 2179 C 203.158 -3.46461 2.51294 0
M  V30 2180 C 202.484 -4.84335 2.26547 0
M  V30 2181 C 203.784 -3.43328 3.93603 0
M  V30 2182 H 205.478 -1.75004 2.42928 0
M  V30 2183 H 203.024 -0.840533 1.16923 0
M  V30 2184 H 204.977 -3.9678 1.41927 0
M  V30 2185 H 203.701 -3.2399 0.412094 0
M  V30 2186 H 202.36 -2.70348 2.47604 0
M  V30 2187 H 202.008 -4.86669 1.2713 0
M  V30 2188 H 201.708 -5.04136 3.01861 0
M  V30 2189 H 203.232 -5.65094 2.31304 0
M  V30 2190 H 204.646 -4.11772 3.98894 0
M  V30 2191 H 203.043 -3.74664 4.68771 0
M  V30 2192 H 204.113 -2.41897 4.20255 0
M  V30 2193 N 205.456 -1.28612 -0.910864 0
M  V30 2194 C 206.681 -1.1891 -1.69927 0
M  V30 2195 C 207.106 0.248372 -1.86453 0
M  V30 2196 O 206.464 1.17961 -1.37676 0
M  V30 2197 C 206.512 -1.89578 -3.06745 0
M  V30 2198 O 205.616 -1.20521 -3.94396 0
M  V30 2199 H 204.957 -0.412632 -0.520222 0
M  V30 2200 H 207.487 -1.69985 -1.1387 0
M  V30 2201 H 207.497 -1.97597 -3.56958 0
M  V30 2202 H 206.172 -2.94136 -2.94035 0
M  V30 2203 H 204.749 -1.20684 -3.52831 0
M  V30 2204 N 206.934 1.1197 -1.10907 0
M  V30 2205 C 208.162 1.87402 -0.876824 0
M  V30 2206 C 208.577 1.79894 0.573025 0
M  V30 2207 O 207.934 1.17629 1.39534 0
M  V30 2208 C 207.985 3.36428 -1.32282 0
M  V30 2209 O 207.706 3.43765 -2.71582 0
M  V30 2210 C 209.207 4.28783 -1.12518 0
M  V30 2211 H 206.427 0.592793 -0.314384 0
M  V30 2212 H 208.971 1.41649 -1.47499 0
M  V30 2213 H 207.126 3.79706 -0.768229 0
M  V30 2214 H 207.54 4.3652 -2.90776 0
M  V30 2215 H 209.014 5.31613 -1.48633 0
M  V30 2216 H 209.491 4.39153 -0.0642394 0
M  V30 2217 H 210.097 3.91291 -1.66648 0
M  V30 2218 N 208.412 0.89855 1.29475 0
M  V30 2219 C 209.652 0.530771 1.97388 0
M  V30 2220 C 210.016 -0.905832 1.69289 0
M  V30 2221 O 211.217 -1.38042 2.30646 0
M  V30 2222 C 209.488 0.81369 3.48014 0
M  V30 2223 S 211.047 0.550048 4.35339 0
M  V30 2224 H 207.865 0.196956 0.683176 0
M  V30 2225 H 210.467 1.16074 1.57312 0
M  V30 2226 H 209.171 1.85749 3.65958 0
M  V30 2227 H 208.702 0.171795 3.93025 0
M  V30 2228 H 210.717 -0.605423 4.92493 0
M  V30 2229 N 209.89 -1.43072 0.660911 0
M  V30 2230 C 210.82 -2.33497 -0.0122829 0
M  V30 2231 C 211.801 -1.49903 -0.803925 0
M  V30 2232 O 212.986 -1.78546 -0.763864 0
M  V30 2233 C 210.116 -3.33363 -0.973994 0
M  V30 2234 C 209.07 -4.27003 -0.291928 0
M  V30 2235 C 208.396 -5.16967 -1.36562 0
M  V30 2236 C 209.696 -5.15816 0.820462 0
M  V30 2237 H 211.39 -2.90038 0.742873 0
M  V30 2238 H 208.936 -1.39461 0.358688 0
M  V30 2239 H 210.889 -3.95524 -1.45392 0
M  V30 2240 H 209.613 -2.75095 -1.7604 0
M  V30 2241 H 208.272 -3.66217 0.167623 0
M  V30 2242 H 207.92 -4.55034 -2.14366 0
M  V30 2243 H 207.62 -5.80441 -0.914454 0
M  V30 2244 H 209.144 -5.82003 -1.84675 0
M  V30 2245 H 210.558 -5.71742 0.422366 0
M  V30 2246 H 208.955 -5.8805 1.19656 0
M  V30 2247 H 210.025 -4.55045 1.67518 0
M  V30 2248 N 211.368 -0.403325 -1.52352 0
M  V30 2249 C 212.617 0.175668 -2.00934 0
M  V30 2250 C 212.93 1.46718 -1.29356 0
M  V30 2251 O 214.136 2.12708 -1.68724 0
M  V30 2252 C 212.592 0.363612 -3.58058 0
M  V30 2253 C 212.2 -0.915472 -4.38547 0
M  V30 2254 C 213.944 0.89821 -4.14888 0
M  V30 2255 C 211.851 -0.695035 -5.87302 0
M  V30 2256 H 210.781 0.0694234 -0.750797 0
M  V30 2257 H 213.432 -0.527879 -1.75743 0
M  V30 2258 H 211.814 1.12935 -3.79555 0
M  V30 2259 H 212.988 -1.68691 -4.28812 0
M  V30 2260 H 211.303 -1.37606 -3.93006 0
M  V30 2261 H 213.9 1.07907 -5.23699 0
M  V30 2262 H 214.243 1.87126 -3.71873 0
M  V30 2263 H 214.776 0.191681 -3.97338 0
M  V30 2264 H 211.515 -1.63948 -6.34666 0
M  V30 2265 H 211.035 0.0372116 -5.99788 0
M  V30 2266 H 212.714 -0.33497 -6.46132 0
M  V30 2267 N 212.846 1.57033 -0.133567 0
M  V30 2268 C 213.794 2.17348 0.828412 0
M  V30 2269 C 214.788 1.12671 1.26498 0
M  V30 2270 O 215.994 1.30947 1.23502 0
M  V30 2271 H 212.369 0.695775 0.285309 0
M  V30 2272 H 214.34 2.96935 0.295372 0
M  V30 2273 C 213.089 2.79893 2.06289 0
M  V30 2274 H 212.412 3.60147 1.73592 0
M  V30 2275 H 213.852 3.25615 2.71572 0
M  V30 2276 C 212.311 1.77713 2.86216 0
M  V30 2277 O 212.841 1.23937 3.82103 0
M  V30 2278 N 211.047 1.47321 2.50489 0
M  V30 2279 H 210.594 1.91243 1.7258 0
M  V30 2280 H 210.552 0.79199 3.04261 0
M  V30 2281 N 214.325 -0.140222 1.56975 0
M  V30 2282 C 215.257 -1.19818 1.95388 0
M  V30 2283 C 216.27 -1.38816 0.850525 0
M  V30 2284 O 217.459 -1.38267 1.12891 0
M  V30 2285 C 214.559 -2.56189 2.21857 0
M  V30 2286 C 213.732 -2.58077 3.5315 0
M  V30 2287 C 212.791 -3.76037 3.6808 0
M  V30 2288 O 211.817 -3.60598 4.40406 0
M  V30 2289 N 213.019 -4.93763 3.05251 0
M  V30 2290 H 215.784 -0.871609 2.86746 0
M  V30 2291 H 213.345 -0.32972 1.58507 0
M  V30 2292 H 215.337 -3.33623 2.2908 0
M  V30 2293 H 213.907 -2.81111 1.36731 0
M  V30 2294 H 213.127 -1.6651 3.57307 0
M  V30 2295 H 214.415 -2.56377 4.39486 0
M  V30 2296 H 213.813 -5.09209 2.46419 0
M  V30 2297 H 212.37 -5.68949 3.18026 0
M  V30 2298 N 215.803 -1.52179 -0.40978 0
M  V30 2299 C 217.052 -1.65434 -1.15388 0
M  V30 2300 C 217.365 -0.390056 -1.91671 0
M  V30 2301 O 218.571 -0.402399 -2.68501 0
M  V30 2302 C 217.027 -2.92279 -2.10003 0
M  V30 2303 C 216.635 -4.25813 -1.39239 0
M  V30 2304 C 218.379 -3.14897 -2.84675 0
M  V30 2305 C 216.286 -5.43782 -2.32498 0
M  V30 2306 H 215.216 -0.616267 -0.434432 0
M  V30 2307 H 217.867 -1.78666 -0.418401 0
M  V30 2308 H 216.249 -2.72744 -2.871 0
M  V30 2309 H 217.423 -4.55828 -0.675099 0
M  V30 2310 H 215.738 -4.09292 -0.766097 0
M  V30 2311 H 218.335 -4.0021 -3.54593 0
M  V30 2312 H 218.678 -2.29103 -3.47588 0
M  V30 2313 H 219.211 -3.34901 -2.14677 0
M  V30 2314 H 215.95 -6.3192 -1.74233 0
M  V30 2315 H 215.47 -5.18106 -3.02201 0
M  V30 2316 H 217.149 -5.76834 -2.93038 0
M  V30 2317 N 217.281 0.66697 -1.42791 0
M  V30 2318 C 218.211 1.79218 -1.49677 0
M  V30 2319 C 219.192 1.66405 -0.352623 0
M  V30 2320 O 220.377 1.85708 -0.567993 0
M  V30 2321 C 217.507 3.17565 -1.40605 0
M  V30 2322 C 216.461 3.45124 -2.53127 0
M  V30 2323 C 215.787 4.83127 -2.29112 0
M  V30 2324 C 217.087 3.41236 -3.95418 0
M  V30 2325 H 218.781 1.73713 -2.43853 0
M  V30 2326 H 216.327 0.83432 -1.17367 0
M  V30 2327 H 218.28 3.96022 -1.44029 0
M  V30 2328 H 217.004 3.23767 -0.429271 0
M  V30 2329 H 215.663 2.69031 -2.49034 0
M  V30 2330 H 215.311 4.85988 -1.29709 0
M  V30 2331 H 215.011 5.02528 -3.04531 0
M  V30 2332 H 216.535 5.63859 -2.34297 0
M  V30 2333 H 217.949 4.09651 -4.01073 0
M  V30 2334 H 216.346 3.72173 -4.70752 0
M  V30 2335 H 217.416 2.39665 -4.21532 0
M  V30 2336 N 218.759 1.29093 0.90403 0
M  V30 2337 C 219.984 1.19809 1.69294 0
M  V30 2338 C 220.409 -0.238481 1.86582 0
M  V30 2339 O 219.767 -1.1723 1.383 0
M  V30 2340 C 219.815 1.91202 3.05736 0
M  V30 2341 O 218.919 1.22611 3.93752 0
M  V30 2342 H 218.26 0.415385 0.518027 0
M  V30 2343 H 220.79 1.70586 1.12967 0
M  V30 2344 H 220.8 1.99487 3.55906 0
M  V30 2345 H 219.475 2.95692 2.92471 0
M  V30 2346 H 218.052 1.22554 3.52186 0
M  V30 2347 N 220.237 -1.11381 1.11499 0
M  V30 2348 C 221.167 -2.19509 0.796125 0
M  V30 2349 C 222.148 -1.68458 -0.235796 0
M  V30 2350 O 223.333 -1.93947 -0.0991344 0
M  V30 2351 C 220.463 -3.46475 0.239205 0
M  V30 2352 C 219.417 -4.10744 1.20307 0
M  V30 2353 C 218.743 -5.32293 0.50683 0
M  V30 2354 C 220.043 -4.55597 2.55399 0
M  V30 2355 H 221.737 -2.46439 1.70024 0
M  V30 2356 H 219.283 -1.18446 0.818935 0
M  V30 2357 H 221.236 -4.214 0.00392006 0
M  V30 2358 H 219.96 -3.19006 -0.700206 0
M  V30 2359 H 218.619 -3.37813 1.42399 0
M  V30 2360 H 218.267 -5.01095 -0.437408 0
M  V30 2361 H 217.967 -5.76243 1.1497 0
M  V30 2362 H 219.491 -6.09956 0.280351 0
M  V30 2363 H 220.905 -5.21841 2.37391 0
M  V30 2364 H 219.302 -5.10363 3.15673 0
M  V30 2365 H 220.372 -3.69013 3.14575 0
M  V30 2366 N 221.715 -0.905404 -1.28997 0
M  V30 2367 C 222.663 -0.377431 -2.29517 0
M  V30 2368 C 223.657 0.526461 -1.61012 0
M  V30 2369 O 224.863 0.40863 -1.753 0
M  V30 2370 H 221.238 -0.103437 -0.744852 0
M  V30 2371 H 223.209 -1.23848 -2.71485 0
M  V30 2372 C 221.958 0.374833 -3.45674 0
M  V30 2373 H 221.281 -0.311474 -3.98585 0
M  V30 2374 H 222.721 0.70903 -4.1803 0
M  V30 2375 C 221.18 1.57963 -2.97572 0
M  V30 2376 O 221.71 2.67886 -2.99333 0
M  V30 2377 N 219.916 1.42375 -2.53333 0
M  V30 2378 H 219.463 0.529466 -2.521 0
M  V30 2379 H 219.421 2.23117 -2.21509 0
M  V30 2380 N 223.193 1.4272 -0.668489 0
M  V30 2381 C 224.609 1.55992 -0.33745 0
M  V30 2382 C 224.809 1.64933 1.15756 0
M  V30 2383 O 223.865 1.61278 1.94282 0
M  V30 2384 C 225.178 2.81314 -1.06222 0
M  V30 2385 C 226.726 2.95078 -1.04394 0
M  V30 2386 C 227.201 4.23252 -1.74991 0
M  V30 2387 N 228.692 4.3015 -1.71829 0
M  V30 2388 C 229.427 5.28127 -2.23315 0
M  V30 2389 N 228.923 6.32293 -2.83156 0
M  V30 2390 N 230.716 5.19882 -2.13726 0
M  V30 2391 H 222.867 1.3516 -1.63846 0
M  V30 2392 H 225.13 0.650174 -0.689912 0
M  V30 2393 H 224.836 2.80823 -2.11734 0
M  V30 2394 H 224.71 3.72012 -0.62344 0
M  V30 2395 H 227.097 2.951 0.0028244 0
M  V30 2396 H 227.178 2.05627 -1.52155 0
M  V30 2397 H 226.822 4.2399 -2.79633 0
M  V30 2398 H 226.752 5.11626 -1.24685 0
M  V30 2399 H 229.243 3.55499 -1.28175 0
M  V30 2400 H 229.556 7.03398 -3.20079 0
M  V30 2401 H 227.901 6.32873 -2.87223 0
M  V30 2402 H 231.092 4.37423 -1.66669 0
M  V30 2403 H 231.265 5.96077 -2.54158 0
M  V30 2404 N 224.671 0.411399 1.52136 0
M  V30 2405 C 225.634 -0.401089 2.25663 0
M  V30 2406 C 226.634 -0.971732 1.28117 0
M  V30 2407 O 227.824 -0.850254 1.52041 0
M  V30 2408 C 224.956 -1.56483 3.02863 0
M  V30 2409 H 226.149 0.24295 2.98914 0
M  V30 2410 H 223.702 0.163968 1.55438 0
M  V30 2411 H 224.437 -2.24567 2.33967 0
M  V30 2412 H 224.222 -1.16211 3.74483 0
M  V30 2413 H 225.712 -2.13951 3.58629 0
M  V30 2414 N 226.149 -1.5696 0.141893 0
M  V30 2415 C 227.374 -2.00754 -0.520838 0
M  V30 2416 C 227.799 -1.0213 -1.57959 0
M  V30 2417 O 227.157 0.00371324 -1.813 0
M  V30 2418 C 227.205 -3.43318 -1.10294 0
M  V30 2419 O 226.309 -3.47679 -2.21795 0
M  V30 2420 H 225.65 -0.651564 -0.127908 0
M  V30 2421 H 228.18 -2.03221 0.23712 0
M  V30 2422 H 228.19 -3.82012 -1.43287 0
M  V30 2423 H 226.865 -4.14608 -0.327574 0
M  V30 2424 H 225.442 -3.20824 -1.9007 0
M  V30 2425 N 227.627 0.131896 -1.57047 0
M  V30 2426 C 229.038 0.690407 -1.73465 0
M  V30 2427 C 229.389 1.8094 -0.758629 0
M  V30 2428 O 228.514 2.16282 0.0713813 0
M  V30 2429 C 229.109 1.25916 -3.14532 0
M  V30 2430 C 227.668 1.76409 -3.32501 0
M  V30 2431 C 226.815 0.658579 -2.69366 0
M  V30 2432 H 229.766 -0.0939144 -1.58422 0
M  V30 2433 H 229.787 2.12892 -3.15369 0
M  V30 2434 H 229.299 0.444515 -3.85546 0
M  V30 2435 H 227.4 2.60391 -2.66509 0
M  V30 2436 H 227.513 1.88241 -4.4057 0
M  V30 2437 H 225.877 1.08899 -2.30246 0
M  V30 2438 H 226.66 -0.14487 -3.42994 0
M  V30 2439 N 229.106 1.52395 0.401703 0
M  V30 2440 C 230.016 1.7917 1.51444 0
M  V30 2441 C 231.032 0.677691 1.6026 0
M  V30 2442 O 232.208 0.963909 1.76835 0
M  V30 2443 C 229.273 1.94347 2.87107 0
M  V30 2444 C 228.334 3.18257 2.88116 0
M  V30 2445 C 227.567 3.32701 4.17308 0
M  V30 2446 O 227.79 2.52238 5.11598 0
M  V30 2447 O 226.724 4.25891 4.25324 0
M  V30 2448 H 230.55 2.73633 1.31752 0
M  V30 2449 H 228.135 1.3733 0.588296 0
M  V30 2450 H 230.017 2.06109 3.67555 0
M  V30 2451 H 228.692 1.03073 3.06851 0
M  V30 2452 H 227.599 3.11947 2.06494 0
M  V30 2453 H 228.932 4.09336 2.73322 0
M  V30 2454 N 230.584 -0.659388 1.43143 0
M  V30 2455 C 231.833 -1.41518 1.43721 0
M  V30 2456 C 232.146 -1.95499 0.0628176 0
M  V30 2457 O 233.352 -2.71446 -0.0539683 0
M  V30 2458 C 231.808 -2.5608 2.52885 0
M  V30 2459 C 231.416 -2.08733 3.96402 0
M  V30 2460 C 233.16 -3.3349 2.62649 0
M  V30 2461 C 231.067 -3.20469 4.97045 0
M  V30 2462 H 229.997 -0.531705 0.534608 0
M  V30 2463 H 232.648 -0.712343 1.69109 0
M  V30 2464 H 231.03 -3.28805 2.20688 0
M  V30 2465 H 232.204 -1.43059 4.3803 0
M  V30 2466 H 230.519 -1.44219 3.90627 0
M  V30 2467 H 233.116 -4.16734 3.35017 0
M  V30 2468 H 233.459 -3.8111 1.67513 0
M  V30 2469 H 233.992 -2.67842 2.94118 0
M  V30 2470 H 230.731 -2.77824 5.93712 0
M  V30 2471 H 230.251 -3.84874 4.60034 0
M  V30 2472 H 231.93 -3.85698 5.19467 0
M  V30 2473 N 232.062 -1.29571 -0.897171 0
M  V30 2474 C 233.308 -1.17863 -1.65034 0
M  V30 2475 C 233.641 0.268729 -1.92332 0
M  V30 2476 O 232.916 1.19378 -1.53555 0
M  V30 2477 C 233.199 -1.995 -2.99786 0
M  V30 2478 C 233.052 -3.5239 -2.79538 0
M  V30 2479 C 234.371 -1.82335 -4.00552 0
M  V30 2480 H 231.49 -0.429528 -0.598895 0
M  V30 2481 H 234.132 -1.59072 -1.03905 0
M  V30 2482 H 232.282 -1.64485 -3.51962 0
M  V30 2483 H 233.954 -3.97401 -2.34244 0
M  V30 2484 H 232.197 -3.77187 -2.14273 0
M  V30 2485 H 232.868 -4.04787 -3.75302 0
M  V30 2486 H 235.344 -2.12924 -3.57495 0
M  V30 2487 H 234.22 -2.41801 -4.92771 0
M  V30 2488 H 234.481 -0.779209 -4.35179 0
M  V30 2489 N 233.54 1.10788 -1.12088 0
M  V30 2490 C 234.788 1.8231 -0.872205 0
M  V30 2491 C 235.109 1.85419 0.603709 0
M  V30 2492 O 234.379 1.32963 1.43867 0
M  V30 2493 H 232.959 0.675137 -0.319686 0
M  V30 2494 H 235.621 1.34068 -1.41463 0
M  V30 2495 H 234.717 2.85955 -1.25045 0
M  V30 2496 N 235.018 0.912232 1.28515 0
M  V30 2497 C 235.965 0.397954 2.27343 0
M  V30 2498 C 236.935 -0.526766 1.57526 0
M  V30 2499 O 238.12 -0.449292 1.85435 0
M  V30 2500 C 235.26 -0.357263 3.43246 0
M  V30 2501 C 234.373 0.599788 4.27816 0
M  V30 2502 C 233.508 -0.173725 5.30916 0
M  V30 2503 C 232.547 0.777039 6.07148 0
M  V30 2504 N 231.684 0.0371398 7.0209 0
M  V30 2505 H 236.524 1.24577 2.70711 0
M  V30 2506 H 234.061 0.625612 1.33133 0
M  V30 2507 H 236.019 -0.8113 4.09236 0
M  V30 2508 H 234.649 -1.16943 3.00872 0
M  V30 2509 H 233.701 1.17235 3.61884 0
M  V30 2510 H 235.013 1.32704 4.80823 0
M  V30 2511 H 234.167 -0.688394 6.02782 0
M  V30 2512 H 232.906 -0.934041 4.78672 0
M  V30 2513 H 231.911 1.3031 5.34134 0
M  V30 2514 H 233.136 1.53689 6.61481 0
M  V30 2515 H 231.082 -0.705213 6.52198 0
M  V30 2516 H 230.999 0.704249 7.52713 0
M  V30 2517 H 232.267 -0.457383 7.78157 0
M  V30 2518 N 236.496 -1.42363 0.676048 0
M  V30 2519 C 237.744 -2.01123 0.198437 0
M  V30 2520 C 238.065 -1.53731 -1.19966 0
M  V30 2521 O 237.335 -0.759518 -1.80577 0
M  V30 2522 H 235.915 -0.743678 0.0703721 0
M  V30 2523 H 238.577 -1.74263 0.872837 0
M  V30 2524 H 237.673 -3.11454 0.200686 0
M  V30 2525 N 237.974 -0.419461 -1.51915 0
M  V30 2526 C 239.214 0.152336 -2.03832 0
M  V30 2527 C 239.578 1.41501 -1.29775 0
M  V30 2528 O 240.779 2.06591 -1.7197 0
M  V30 2529 C 239.05 0.383812 -3.55333 0
M  V30 2530 S 240.609 0.921577 -4.29013 0
M  V30 2531 H 237.427 0.0402193 -0.709862 0
M  V30 2532 H 240.029 -0.574758 -1.8686 0
M  V30 2533 H 238.733 -0.541794 -4.06808 0
M  V30 2534 H 238.264 1.13849 -3.76566 0
M  V30 2535 H 240.279 2.20108 -4.4471 0
M  V30 2536 N 239.452 1.56882 -0.150215 0
M  V30 2537 C 240.382 2.19935 0.784284 0
M  V30 2538 C 241.363 1.14854 1.25469 0
M  V30 2539 O 242.548 1.43209 1.31168 0
M  V30 2540 C 239.678 2.82349 2.02229 0
M  V30 2541 C 238.632 3.93285 1.68853 0
M  V30 2542 C 237.958 4.42649 2.99944 0
M  V30 2543 C 239.258 5.13904 0.932714 0
M  V30 2544 H 240.952 2.9828 0.258781 0
M  V30 2545 H 238.498 1.43473 0.123029 0
M  V30 2546 H 240.451 3.25126 2.68088 0
M  V30 2547 H 239.175 2.0134 2.57157 0
M  V30 2548 H 237.834 3.5113 1.05371 0
M  V30 2549 H 237.482 3.58458 3.52869 0
M  V30 2550 H 237.182 5.17476 2.78374 0
M  V30 2551 H 238.706 4.88099 3.66868 0
M  V30 2552 H 240.12 5.53506 1.49345 0
M  V30 2553 H 238.517 5.94515 0.81684 0
M  V30 2554 H 239.587 4.84842 -0.0749568 0
M  V30 2555 N 240.93 -0.123565 1.57115 0
M  V30 2556 C 241.877 -1.15177 2.00007 0
M  V30 2557 C 242.847 -1.41403 0.871454 0
M  V30 2558 O 244.032 -1.53346 1.13533 0
M  V30 2559 C 241.172 -2.47436 2.40561 0
M  V30 2560 C 240.285 -2.28184 3.66819 0
M  V30 2561 C 239.42 -3.53641 3.96373 0
M  V30 2562 C 238.459 -3.29528 5.15827 0
M  V30 2563 N 237.596 -4.47175 5.41275 0
M  V30 2564 H 242.436 -0.779008 2.87638 0
M  V30 2565 H 239.973 -0.373166 1.42288 0
M  V30 2566 H 241.931 -3.24584 2.62109 0
M  V30 2567 H 240.561 -2.82614 1.55978 0
M  V30 2568 H 239.613 -1.41976 3.52912 0
M  V30 2569 H 240.925 -2.0634 4.5412 0
M  V30 2570 H 240.079 -4.39209 4.18545 0
M  V30 2571 H 238.818 -3.78512 3.07538 0
M  V30 2572 H 237.823 -2.42349 4.93505 0
M  V30 2573 H 239.048 -3.06031 6.06236 0
M  V30 2574 H 236.994 -4.72175 4.55397 0
M  V30 2575 H 236.911 -4.28419 6.22891 0
M  V30 2576 H 238.179 -5.3389 5.67963 0
M  V30 2577 N 242.408 -1.52605 -0.393616 0
M  V30 2578 C 243.318 -1.79971 -1.50492 0
M  V30 2579 C 244.334 -0.686181 -1.59899 0
M  V30 2580 O 245.51 -0.973274 -1.76322 0
M  V30 2581 C 242.575 -1.95867 -2.86072 0
M  V30 2582 C 241.636 -3.19781 -2.86424 0
M  V30 2583 C 240.869 -3.34909 -4.15538 0
M  V30 2584 O 241.092 -2.54948 -5.10253 0
M  V30 2585 O 240.026 -4.28141 -4.23059 0
M  V30 2586 H 243.852 -2.74328 -1.30299 0
M  V30 2587 H 241.437 -1.3764 -0.581005 0
M  V30 2588 H 243.319 -2.08056 -3.66457 0
M  V30 2589 H 241.994 -1.04699 -3.063 0
M  V30 2590 H 240.901 -3.13038 -2.04837 0
M  V30 2591 H 242.234 -4.1078 -2.71147 0
M  V30 2592 N 243.887 0.651787 -1.4349 0
M  V30 2593 C 245.112 1.44434 -1.48841 0
M  V30 2594 C 245.537 1.8779 -0.107955 0
M  V30 2595 O 244.895 1.57464 0.898602 0
M  V30 2596 C 244.943 2.65458 -2.44059 0
M  V30 2597 O 244.047 3.64566 -1.92784 0
M  V30 2598 H 243.388 0.433005 -0.503391 0
M  V30 2599 H 245.918 0.797451 -1.88419 0
M  V30 2600 H 245.928 3.13255 -2.6141 0
M  V30 2601 H 244.603 2.33244 -3.4434 0
M  V30 2602 H 243.18 3.23716 -1.851 0
M  V30 2603 N 245.365 1.30045 0.890287 0
M  V30 2604 C 246.613 1.18327 1.63839 0
M  V30 2605 C 246.934 -0.263455 1.93212 0
M  V30 2606 O 246.204 -1.17856 1.56482 0
M  V30 2607 H 244.784 0.434933 0.607324 0
M  V30 2608 H 247.446 1.631 1.06698 0
M  V30 2609 H 246.542 1.74024 2.59079 0
M  V30 2610 N 246.843 -1.10192 1.12674 0
M  V30 2611 C 248.068 -1.86523 0.906853 0
M  V30 2612 C 248.493 -1.80221 -0.538711 0
M  V30 2613 O 247.851 -1.17396 -1.38158 0
M  V30 2614 C 247.899 -3.32758 1.3894 0
M  V30 2615 O 247.003 -4.08449 0.5695 0
M  V30 2616 H 246.344 -0.578678 0.325619 0
M  V30 2617 H 248.874 -1.39203 1.49946 0
M  V30 2618 H 248.884 -3.83608 1.38958 0
M  V30 2619 H 247.559 -3.36661 2.44197 0
M  V30 2620 H 246.136 -3.67427 0.636528 0
M  V30 2621 N 248.321 -0.919034 -1.28029 0
M  V30 2622 C 249.551 -0.570143 -1.98577 0
M  V30 2623 C 249.959 0.854172 -1.68821 0
M  V30 2624 O 249.302 1.57807 -0.940351 0
M  V30 2625 C 249.364 -0.705734 -3.52505 0
M  V30 2626 C 249.028 -2.10057 -4.05863 0
M  V30 2627 C 250.025 -3.07385 -4.19298 0
M  V30 2628 C 247.71 -2.41517 -4.40426 0
M  V30 2629 C 249.704 -4.34287 -4.66555 0
M  V30 2630 C 247.391 -3.68657 -4.87376 0
M  V30 2631 C 248.389 -4.64856 -5.00398 0
M  V30 2632 O 248.077 -5.89735 -5.46322 0
M  V30 2633 H 247.809 -0.215592 -0.6407 0
M  V30 2634 H 250.363 -1.23583 -1.64062 0
M  V30 2635 H 248.593 0.0170414 -3.86696 0
M  V30 2636 H 250.282 -0.363172 -4.04272 0
M  V30 2637 H 251.048 -2.84398 -3.92865 0
M  V30 2638 H 246.927 -1.67389 -4.29537 0
M  V30 2639 H 250.471 -5.09377 -4.76635 0
M  V30 2640 H 246.368 -3.91466 -5.13249 0
M  V30 2641 H 247.136 -5.92599 -5.64596 0
M  V30 2642 N 249.799 1.42003 -0.683588 0
M  V30 2643 C 250.732 2.28166 0.039592 0
M  V30 2644 C 251.71 1.41562 0.799942 0
M  V30 2645 O 252.894 1.70997 0.793248 0
M  V30 2646 C 250.021 3.21575 1.06335 0
M  V30 2647 C 249.067 4.24643 0.397562 0
M  V30 2648 S 249.9 5.2869 -0.851296 0
M  V30 2649 C 251.056 6.25666 0.171166 0
M  V30 2650 H 251.289 2.89153 -0.691229 0
M  V30 2651 H 248.822 1.46962 -0.473435 0
M  V30 2652 H 250.78 3.75928 1.6489 0
M  V30 2653 H 249.441 2.59707 1.76667 0
M  V30 2654 H 248.634 4.90223 1.17035 0
M  V30 2655 H 248.236 3.73824 -0.114611 0
M  V30 2656 H 250.528 6.69653 1.02819 0
M  V30 2657 H 251.471 7.06666 -0.450397 0
M  V30 2658 H 251.879 5.62095 0.520578 0
M  V30 2659 N 251.277 0.427512 1.51691 0
M  V30 2660 C 252.523 -0.134744 2.02953 0
M  V30 2661 C 252.878 -1.41235 1.30654 0
M  V30 2662 O 252.171 -1.87168 0.409713 0
M  V30 2663 C 252.365 -0.418249 3.54944 0
M  V30 2664 C 252.194 0.830327 4.41968 0
M  V30 2665 C 250.964 1.36097 4.86627 0
M  V30 2666 C 253.162 1.7137 4.84909 0
M  V30 2667 N 251.144 2.56311 5.57833 0
M  V30 2668 C 252.515 2.76195 5.55082 0
M  V30 2669 C 254.57 1.72928 4.66905 0
M  V30 2670 C 253.273 3.82512 6.09161 0
M  V30 2671 C 255.299 2.78175 5.21894 0
M  V30 2672 C 254.661 3.8172 5.92004 0
M  V30 2673 H 250.76 -0.0103958 0.781931 0
M  V30 2674 H 253.344 0.585981 1.85673 0
M  V30 2675 H 251.515 -1.10801 3.7226 0
M  V30 2676 H 253.247 -0.970999 3.92879 0
M  V30 2677 H 250.002 0.916311 4.64651 0
M  V30 2678 H 250.426 3.17242 5.98069 0
M  V30 2679 H 255.068 0.942081 4.12171 0
M  V30 2680 H 252.786 4.62077 6.62956 0
M  V30 2681 H 256.372 2.8031 5.09821 0
M  V30 2682 H 255.252 4.61821 6.33791 0
M  V30 2683 N 252.755 -1.56801 0.158532 0
M  V30 2684 C 254.004 -1.95665 -0.489702 0
M  V30 2685 C 254.317 -1.04654 -1.65248 0
M  V30 2686 O 255.523 -1.33146 -2.3661 0
M  V30 2687 C 253.979 -3.47874 -0.922582 0
M  V30 2688 C 253.587 -4.47489 0.213893 0
M  V30 2689 C 255.331 -3.95583 -1.53996 0
M  V30 2690 C 253.238 -5.90921 -0.237903 0
M  V30 2691 H 252.168 -0.730516 -0.186716 0
M  V30 2692 H 254.819 -1.81861 0.244722 0
M  V30 2693 H 253.201 -3.57051 -1.71261 0
M  V30 2694 H 254.375 -4.50017 0.991036 0
M  V30 2695 H 252.69 -4.09764 0.740407 0
M  V30 2696 H 255.287 -5.0019 -1.8898 0
M  V30 2697 H 255.63 -3.37789 -2.43319 0
M  V30 2698 H 256.163 -3.8937 -0.814611 0
M  V30 2699 H 252.902 -6.52559 0.620236 0
M  V30 2700 H 252.422 -5.91729 -0.980676 0
M  V30 2701 H 254.101 -6.43352 -0.686067 0
M  V30 2702 N 254.233 0.115231 -1.57178 0
M  V30 2703 C 255.463 0.835224 -1.88964 0
M  V30 2704 C 255.871 1.73774 -0.74829 0
M  V30 2705 O 255.214 1.81401 0.289739 0
M  V30 2706 C 255.276 1.7178 -3.15804 0
M  V30 2707 C 254.94 0.989198 -4.46166 0
M  V30 2708 C 255.937 0.328263 -5.18863 0
M  V30 2709 C 253.622 0.969256 -4.9286 0
M  V30 2710 C 255.616 -0.342873 -6.36477 0
M  V30 2711 C 253.303 0.294324 -6.10391 0
M  V30 2712 C 254.301 -0.360582 -6.82048 0
M  V30 2713 O 253.989 -1.02474 -7.97342 0
M  V30 2714 H 253.721 0.245197 -0.629964 0
M  V30 2715 H 256.275 0.10303 -2.05141 0
M  V30 2716 H 254.505 2.49173 -2.95719 0
M  V30 2717 H 256.194 2.31255 -3.33581 0
M  V30 2718 H 256.96 0.335263 -4.8384 0
M  V30 2719 H 252.839 1.46844 -4.36987 0
M  V30 2720 H 256.383 -0.854629 -6.92345 0
M  V30 2721 H 252.28 0.285099 -6.4487 0
M  V30 2722 H 253.048 -0.929594 -8.13204 0
M  V30 2723 N 255.711 1.52812 0.385517 0
M  V30 2724 C 256.957 1.68275 1.13188 0
M  V30 2725 C 257.29 0.423179 1.89533 0
M  V30 2726 O 256.565 -0.579113 1.85679 0
M  V30 2727 C 256.848 2.92001 2.1073 0
M  V30 2728 C 256.701 4.28067 1.38125 0
M  V30 2729 C 258.02 3.11283 3.11113 0
M  V30 2730 H 255.139 0.612352 0.410115 0
M  V30 2731 H 257.781 1.85415 0.414869 0
M  V30 2732 H 255.931 2.77519 2.71874 0
M  V30 2733 H 257.603 4.54324 0.799187 0
M  V30 2734 H 255.846 4.28388 0.683092 0
M  V30 2735 H 256.517 5.10733 2.09417 0
M  V30 2736 H 258.993 3.2482 2.6006 0
M  V30 2737 H 257.869 3.99325 3.76605 0
M  V30 2738 H 258.13 2.25656 3.80173 0
M  V30 2739 N 257.189 -0.644168 1.43834 0
M  V30 2740 C 258.436 -1.40395 1.4593 0
M  V30 2741 C 258.764 -1.94305 0.0869658 0
M  V30 2742 O 258.019 -1.73288 -0.909378 0
M  V30 2743 C 258.318 -2.59615 2.45631 0
M  V30 2744 C 257.984 -2.2407 3.91284 0
M  V30 2745 C 256.646 -2.14089 4.30952 0
M  V30 2746 C 258.998 -1.95775 4.83034 0
M  V30 2747 C 256.326 -1.73981 5.6031 0
M  V30 2748 C 258.678 -1.57163 6.12766 0
M  V30 2749 C 257.342 -1.45713 6.51402 0
M  V30 2750 H 256.612 -0.513741 0.533995 0
M  V30 2751 H 259.259 -0.731724 1.76969 0
M  V30 2752 H 257.564 -3.32011 2.08028 0
M  V30 2753 H 259.261 -3.17834 2.44504 0
M  V30 2754 H 255.851 -2.32753 3.59895 0
M  V30 2755 H 260.035 -2.02403 4.53152 0
M  V30 2756 H 255.291 -1.63709 5.89075 0
M  V30 2757 H 259.465 -1.34303 6.83327 0
M  V30 2758 H 257.092 -1.14406 7.51542 0
M  V30 2759 N 258.668 -1.30515 -0.883378 0
M  V30 2760 C 259.601 -1.11359 -1.99184 0
M  V30 2761 C 260.579 -0.0207858 -1.62587 0
M  V30 2762 O 261.763 -0.174646 -1.87689 0
M  V30 2763 C 258.89 -0.69871 -3.31415 0
M  V30 2764 C 257.936 -1.79261 -3.86998 0
M  V30 2765 S 258.769 -3.39536 -4.14096 0
M  V30 2766 C 259.925 -2.99954 -5.49344 0
M  V30 2767 H 260.158 -2.052 -2.15128 0
M  V30 2768 H 257.691 -1.14847 -1.03196 0
M  V30 2769 H 259.649 -0.466075 -4.07846 0
M  V30 2770 H 258.31 0.220368 -3.13326 0
M  V30 2771 H 257.503 -1.45464 -4.82552 0
M  V30 2772 H 257.105 -1.97961 -3.17313 0
M  V30 2773 H 259.397 -2.48013 -6.30473 0
M  V30 2774 H 260.34 -3.9442 -5.8808 0
M  V30 2775 H 260.748 -2.37775 -5.1198 0
M  V30 2776 N 260.146 1.09593 -1.13257 0
M  V30 2777 C 261.394 1.81375 -0.891492 0
M  V30 2778 C 261.715 1.86049 0.584009 0
M  V30 2779 O 260.985 1.34481 1.42449 0
M  V30 2780 H 259.565 0.671708 -0.326828 0
M  V30 2781 H 262.227 1.3256 -1.42877 0
M  V30 2782 H 261.323 2.84612 -1.28071 0
M  V30 2783 N 261.624 0.925811 1.2754 0
M  V30 2784 C 262.572 0.413897 2.28888 0
M  V30 2785 C 263.566 -0.500779 1.61829 0
M  V30 2786 O 264.772 -0.38069 1.75928 0
M  V30 2787 H 261.147 0.115274 0.743112 0
M  V30 2788 H 263.118 1.28151 2.69481 0
M  V30 2789 C 261.867 -0.319792 3.46226 0
M  V30 2790 H 261.19 0.374846 3.98039 0
M  V30 2791 H 262.63 -0.642435 4.19105 0
M  V30 2792 C 261.089 -1.53209 3.00048 0
M  V30 2793 O 261.619 -2.6309 3.03557 0
M  V30 2794 N 259.825 -1.38326 2.55566 0
M  V30 2795 H 259.372 -0.489292 2.5291 0
M  V30 2796 H 259.33 -2.19564 2.25031 0
M  V30 2797 N 263.102 -1.41638 0.69111 0
M  V30 2798 C 264.035 -2.28183 -0.0274913 0
M  V30 2799 C 265.013 -1.41984 -0.792424 0
M  V30 2800 O 266.197 -1.71415 -0.784169 0
M  V30 2801 C 263.324 -3.22135 -1.04628 0
M  V30 2802 C 262.37 -4.24848 -0.375037 0
M  V30 2803 S 263.203 -5.28231 0.879321 0
M  V30 2804 C 264.359 -6.25748 -0.137983 0
M  V30 2805 H 264.592 -2.88782 0.706553 0
M  V30 2806 H 262.125 -1.46709 0.481222 0
M  V30 2807 H 264.083 -3.76797 -1.62894 0
M  V30 2808 H 262.744 -2.6064 -1.75287 0
M  V30 2809 H 261.937 -4.90837 -1.14433 0
M  V30 2810 H 261.539 -3.73758 0.134434 0
M  V30 2811 H 263.831 -6.70188 -0.992659 0
M  V30 2812 H 264.774 -7.06417 0.487867 0
M  V30 2813 H 265.182 -5.62363 -0.490762 0
M  V30 2814 N 264.58 -0.43555 -1.51462 0
M  V30 2815 C 265.51 0.367376 -2.30592 0
M  V30 2816 C 266.491 1.02263 -1.35928 0
M  V30 2817 O 267.676 1.02661 -1.64847 0
M  V30 2818 C 264.806 1.46983 -3.14664 0
M  V30 2819 C 263.76 0.938161 -4.17591 0
M  V30 2820 C 263.086 2.13622 -4.90173 0
M  V30 2821 C 264.386 -0.0261621 -5.22293 0
M  V30 2822 H 266.08 -0.292969 -2.97963 0
M  V30 2823 H 263.626 -0.14234 -1.43295 0
M  V30 2824 H 265.579 2.03873 -3.688 0
M  V30 2825 H 264.303 2.15843 -2.4511 0
M  V30 2826 H 262.962 0.391481 -3.64504 0
M  V30 2827 H 262.61 2.81098 -4.17124 0
M  V30 2828 H 262.31 1.78688 -5.59772 0
M  V30 2829 H 263.834 2.7107 -5.47132 0
M  V30 2830 H 265.248 0.452384 -5.71512 0
M  V30 2831 H 263.645 -0.287992 -5.99409 0
M  V30 2832 H 264.715 -0.963391 -4.75233 0
M  V30 2833 N 266.058 1.56714 -0.166846 0
M  V30 2834 C 267.474 1.58473 0.189372 0
M  V30 2835 C 267.674 1.18201 1.63189 0
M  V30 2836 O 266.73 0.891528 2.36237 0
M  V30 2837 C 268.043 3.00573 -0.0873872 0
M  V30 2838 C 269.591 3.1299 -0.0252443 0
M  V30 2839 C 270.066 4.57174 -0.274934 0
M  V30 2840 N 271.557 4.62665 -0.222553 0
M  V30 2841 C 272.292 5.72072 -0.389985 0
M  V30 2842 N 271.788 6.90054 -0.616229 0
M  V30 2843 N 273.581 5.61153 -0.326202 0
M  V30 2844 H 265.732 1.8118 -1.10849 0
M  V30 2845 H 267.995 0.839525 -0.440342 0
M  V30 2846 H 267.701 3.34497 -1.0865 0
M  V30 2847 H 267.575 3.72019 0.623037 0
M  V30 2848 H 269.962 2.78895 0.96444 0
M  V30 2849 H 270.043 2.43989 -0.768309 0
M  V30 2850 H 269.687 4.91976 -1.26181 0
M  V30 2851 H 269.617 5.24328 0.48869 0
M  V30 2852 H 272.108 3.77863 -0.0531512 0
M  V30 2853 H 272.421 7.69311 -0.733559 0
M  V30 2854 H 270.766 6.91927 -0.652791 0
M  V30 2855 H 273.957 4.67859 -0.150072 0
M  V30 2856 H 274.13 6.46364 -0.460116 0
M  V30 2857 N 267.536 -0.106894 1.57237 0
M  V30 2858 C 268.784 -0.810921 1.85117 0
M  V30 2859 C 269.105 -1.7984 0.753827 0
M  V30 2860 O 268.375 -1.94649 -0.221056 0
M  V30 2861 H 266.955 -0.302466 0.683025 0
M  V30 2862 H 269.617 -0.0913324 1.94686 0
M  V30 2863 H 268.713 -1.34875 2.81452 0
M  V30 2864 N 269.014 -1.53014 -0.377408 0
M  V30 2865 C 270.263 -1.67845 -1.11853 0
M  V30 2866 C 270.576 -0.430625 -1.90801 0
M  V30 2867 O 271.782 -0.459261 -2.67587 0
M  V30 2868 C 270.238 -2.96668 -2.03756 0
M  V30 2869 C 269.846 -4.28671 -1.30175 0
M  V30 2870 C 271.59 -3.20865 -2.77932 0
M  V30 2871 C 269.497 -5.48591 -2.20911 0
M  V30 2872 H 268.427 -0.625343 -0.421263 0
M  V30 2873 H 271.078 -1.79514 -0.380409 0
M  V30 2874 H 269.46 -2.78773 -2.8125 0
M  V30 2875 H 270.634 -4.57157 -0.578259 0
M  V30 2876 H 268.949 -4.10825 -0.679108 0
M  V30 2877 H 271.546 -4.07642 -3.46024 0
M  V30 2878 H 271.889 -2.36424 -3.4265 0
M  V30 2879 H 272.422 -3.39379 -2.07525 0
M  V30 2880 H 269.161 -6.35474 -1.6079 0
M  V30 2881 H 268.681 -5.244 -2.91144 0
M  V30 2882 H 270.36 -5.8292 -2.80736 0
M  V30 2883 N 270.492 0.636531 -1.44174 0
M  V30 2884 C 271.74 1.39343 -1.46383 0
M  V30 2885 C 272.061 1.94766 -0.0955715 0
M  V30 2886 O 271.331 1.75452 0.871395 0
M  V30 2887 H 269.911 0.517199 -0.538994 0
M  V30 2888 H 272.573 0.74957 -1.7991 0
M  V30 2889 H 271.669 2.22746 -2.18611 0
M  V30 2890 N 271.97 1.30982 0.876444 0
M  V30 2891 C 272.88 1.2003 2.01569 0
M  V30 2892 C 273.896 0.11838 1.73597 0
M  V30 2893 O 275.072 0.33495 1.98595 0
M  V30 2894 C 272.137 0.901637 3.34771 0
M  V30 2895 C 271.198 2.06979 3.76109 0
M  V30 2896 C 270.431 1.78529 5.02954 0
M  V30 2897 O 270.654 0.717296 5.65872 0
M  V30 2898 O 269.588 2.64019 5.40905 0
M  V30 2899 H 273.414 2.15753 2.13739 0
M  V30 2900 H 270.999 1.10658 1.00375 0
M  V30 2901 H 272.881 0.750645 4.1466 0
M  V30 2902 H 271.556 -0.0256141 3.2369 0
M  V30 2903 H 270.463 2.27616 2.96887 0
M  V30 2904 H 271.796 2.97907 3.91807 0
M  V30 2905 N 273.449 -1.08991 1.13837 0
M  V30 2906 C 274.677 -1.85011 0.926202 0
M  V30 2907 C 275.092 -1.8135 -0.525127 0
M  V30 2908 O 274.449 -1.21287 -1.36366 0
M  V30 2909 C 274.5 -3.32802 1.41155 0
M  V30 2910 O 274.221 -3.36444 2.80601 0
M  V30 2911 C 275.722 -4.25649 1.23847 0
M  V30 2912 H 272.942 -0.584249 0.32999 0
M  V30 2913 H 275.486 -1.37688 1.51202 0
M  V30 2914 H 273.641 -3.77536 0.868631 0
M  V30 2915 H 274.055 -4.28657 3.02248 0
M  V30 2916 H 275.529 -5.27485 1.62675 0
M  V30 2917 H 276.006 -4.38828 0.18065 0
M  V30 2918 H 276.612 -3.86735 1.76964 0
M  V30 2919 N 274.927 -0.932562 -1.27047 0
M  V30 2920 C 276.338 -0.619451 -1.76124 0
M  V30 2921 C 276.689 0.865397 -1.76083 0
M  V30 2922 O 275.814 1.67722 -1.36742 0
M  V30 2923 C 276.409 -1.11771 -3.19832 0
M  V30 2924 C 274.968 -0.855174 -3.66557 0
M  V30 2925 C 274.115 -1.27362 -2.46321 0
M  V30 2926 H 277.066 -1.11181 -1.13245 0
M  V30 2927 H 277.087 -0.46759 -3.77616 0
M  V30 2928 H 276.599 -2.19842 -3.1983 0
M  V30 2929 H 274.7 0.211524 -3.71999 0
M  V30 2930 H 274.813 -1.47613 -4.55793 0
M  V30 2931 H 273.177 -0.692119 -2.45116 0
M  V30 2932 H 273.96 -2.36307 -2.49025 0
M  V30 2933 N 276.405 1.4127 -0.698611 0
M  V30 2934 C 277.654 2.00408 -0.227949 0
M  V30 2935 C 277.967 1.55981 1.18023 0
M  V30 2936 O 279.173 2.07699 1.74852 0
M  V30 2937 C 277.629 3.58129 -0.356636 0
M  V30 2938 C 277.237 4.11536 -1.77037 0
M  V30 2939 C 278.981 4.24466 0.0540969 0
M  V30 2940 C 276.888 5.61701 -1.85055 0
M  V30 2941 H 275.818 0.749586 -0.0814657 0
M  V30 2942 H 278.469 1.61713 -0.867249 0
M  V30 2943 H 276.851 3.94442 0.350965 0
M  V30 2944 H 278.025 3.86636 -2.50698 0
M  V30 2945 H 276.34 3.57736 -2.13105 0
M  V30 2946 H 278.937 5.34698 0.0146723 0
M  V30 2947 H 279.28 4.01687 1.09332 0
M  V30 2948 H 279.813 3.93198 -0.603337 0
M  V30 2949 H 276.552 5.89312 -2.8704 0
M  V30 2950 H 276.072 5.88519 -1.15783 0
M  V30 2951 H 277.751 6.26524 -1.61484 0
M  V30 2952 N 277.883 0.443576 1.51229 0
M  V30 2953 C 279.129 -0.120975 2.02439 0
M  V30 2954 C 279.462 -1.41815 1.32674 0
M  V30 2955 O 278.737 -1.89373 0.443622 0
M  V30 2956 C 279.02 -0.333291 3.58554 0
M  V30 2957 C 278.873 0.982968 4.38928 0
M  V30 2958 C 280.192 -1.10028 4.26124 0
M  V30 2959 H 277.311 -0.0424923 0.735774 0
M  V30 2960 H 279.953 0.583794 1.80809 0
M  V30 2961 H 278.103 -0.933614 3.77115 0
M  V30 2962 H 279.775 1.61775 4.32003 0
M  V30 2963 H 278.018 1.58611 4.03763 0
M  V30 2964 H 278.689 0.788379 5.46341 0
M  V30 2965 H 281.165 -0.591711 4.11871 0
M  V30 2966 H 280.041 -1.21761 5.35225 0
M  V30 2967 H 280.302 -2.12996 3.87408 0
M  V30 2968 N 279.361 -1.56624 0.175154 0
M  V30 2969 C 280.772 -1.83561 -0.340916 0
M  V30 2970 C 281.123 -1.09511 -1.62794 0
M  V30 2971 O 280.248 -0.349389 -2.13561 0
M  V30 2972 C 280.843 -3.32979 -0.625313 0
M  V30 2973 C 279.402 -3.60399 -1.08581 0
M  V30 2974 C 278.549 -2.77024 -0.123722 0
M  V30 2975 H 281.5 -1.53593 0.399344 0
M  V30 2976 H 281.521 -3.50666 -1.47694 0
M  V30 2977 H 281.033 -3.86847 0.311575 0
M  V30 2978 H 279.134 -3.11945 -2.03767 0
M  V30 2979 H 279.247 -4.68711 -0.992317 0
M  V30 2980 H 277.611 -2.46993 -0.621821 0
M  V30 2981 H 278.394 -3.33674 0.807256 0
M  V30 2982 N 280.839 0.0985539 -1.57292 0
M  V30 2983 C 281.769 1.12064 -2.04851 0
M  V30 2984 C 282.75 1.41981 -0.936767 0
M  V30 2985 O 283.935 1.52071 -1.20781 0
M  V30 2986 C 281.065 2.44144 -2.47004 0
M  V30 2987 C 280.019 2.28643 -3.6181 0
M  V30 2988 C 279.345 3.65869 -3.89929 0
M  V30 2989 C 280.645 1.72986 -4.92822 0
M  V30 2990 H 282.339 0.724979 -2.9049 0
M  V30 2991 H 279.885 0.34729 -1.39749 0
M  V30 2992 H 281.838 3.15914 -2.78884 0
M  V30 2993 H 280.562 2.85639 -1.5836 0
M  V30 2994 H 279.221 1.59318 -3.30172 0
M  V30 2995 H 278.869 4.04885 -2.98458 0
M  V30 2996 H 278.569 3.56344 -4.67218 0
M  V30 2997 H 280.093 4.39112 -4.2428 0
M  V30 2998 H 281.507 2.34593 -5.23105 0
M  V30 2999 H 279.904 1.74229 -5.74251 0
M  V30 3000 H 280.974 0.689007 -4.7998 0
M  V30 3001 N 282.317 1.53212 0.369288 0
M  V30 3002 C 283.565 1.68881 1.11012 0
M  V30 3003 C 283.886 0.441285 1.89941 0
M  V30 3004 O 283.156 -0.544623 1.88177 0
M  V30 3005 H 281.736 0.622569 0.412816 0
M  V30 3006 H 284.398 1.90391 0.416802 0
M  V30 3007 H 283.494 2.54822 1.80201 0
M  V30 3008 N 283.795 -0.628877 1.44509 0
M  V30 3009 C 284.725 -1.75187 1.54376 0
M  V30 3010 C 285.706 -1.65411 0.396618 0
M  V30 3011 O 286.891 -1.84137 0.617031 0
M  V30 3012 C 284.021 -3.13725 1.48976 0
M  V30 3013 C 282.975 -3.38291 2.62189 0
M  V30 3014 C 282.301 -4.76883 2.41841 0
M  V30 3015 C 283.601 -3.30632 4.04326 0
M  V30 3016 H 285.295 -1.67187 2.48373 0
M  V30 3017 H 282.841 -0.802909 1.19538 0
M  V30 3018 H 284.794 -3.92064 1.54478 0
M  V30 3019 H 283.518 -3.22515 0.514961 0
M  V30 3020 H 282.177 -2.62334 2.56079 0
M  V30 3021 H 281.825 -4.82378 1.42548 0
M  V30 3022 H 281.525 -4.94278 3.17747 0
M  V30 3023 H 283.049 -5.57449 2.49165 0
M  V30 3024 H 284.463 -3.98873 4.11793 0
M  V30 3025 H 282.86 -3.59561 4.80454 0
M  V30 3026 H 283.93 -2.28404 4.27738 0
M  V30 3027 N 285.273 -1.31445 -0.869486 0
M  V30 3028 C 286.498 -1.24256 -1.66058 0
M  V30 3029 C 286.923 0.188928 -1.87149 0
M  V30 3030 O 286.281 1.13522 -1.4136 0
M  V30 3031 C 286.329 -1.9924 -3.00559 0
M  V30 3032 O 285.433 -1.33007 -3.90362 0
M  V30 3033 H 284.774 -0.428973 -0.506831 0
M  V30 3034 H 287.304 -1.73521 -1.08404 0
M  V30 3035 H 287.314 -2.08854 -3.50491 0
M  V30 3036 H 285.989 -3.03342 -2.84528 0
M  V30 3037 H 284.566 -1.31848 -3.48813 0
M  V30 3038 N 286.751 1.08385 -1.14413 0
M  V30 3039 C 287.981 1.8425 -0.934644 0
M  V30 3040 C 288.389 1.81907 0.520234 0
M  V30 3041 O 287.732 1.22126 1.37226 0
M  V30 3042 C 287.794 3.32853 -1.35828 0
M  V30 3043 C 287.458 3.5893 -2.82875 0
M  V30 3044 C 288.455 3.53756 -3.80989 0
M  V30 3045 C 286.14 3.86934 -3.20293 0
M  V30 3046 C 288.134 3.76216 -5.14529 0
M  V30 3047 C 285.821 4.09047 -4.54008 0
M  V30 3048 C 286.819 4.03682 -5.50936 0
M  V30 3049 O 286.507 4.25214 -6.82238 0
M  V30 3050 H 286.239 0.588502 -0.332628 0
M  V30 3051 H 288.793 1.37792 -1.52324 0
M  V30 3052 H 287.023 3.8007 -0.713019 0
M  V30 3053 H 288.712 3.90154 -1.11957 0
M  V30 3054 H 289.478 3.32135 -3.53428 0
M  V30 3055 H 285.357 3.9023 -2.45442 0
M  V30 3056 H 288.901 3.71943 -5.90173 0
M  V30 3057 H 284.798 4.30151 -4.8129 0
M  V30 3058 H 285.566 4.42619 -6.88499 0
M  V30 3059 N 288.23 0.939286 1.26551 0
M  V30 3060 C 289.479 0.581601 1.93133 0
M  V30 3061 C 289.792 -0.883224 1.74524 0
M  V30 3062 O 290.998 -1.3502 2.35546 0
M  V30 3063 C 289.454 0.989425 3.46032 0
M  V30 3064 C 289.062 2.47573 3.73379 0
M  V30 3065 C 290.806 0.703544 4.18629 0
M  V30 3066 C 288.713 2.82235 5.19709 0
M  V30 3067 H 287.643 0.213803 0.723052 0
M  V30 3068 H 290.294 1.14167 1.4366 0
M  V30 3069 H 288.676 0.357902 3.94379 0
M  V30 3070 H 289.85 3.15614 3.35744 0
M  V30 3071 H 288.165 2.73471 3.1401 0
M  V30 3072 H 290.762 0.938869 5.26393 0
M  V30 3073 H 291.105 -0.359639 4.14744 0
M  V30 3074 H 291.638 1.2947 3.76141 0
M  V30 3075 H 288.377 3.87509 5.28694 0
M  V30 3076 H 287.897 2.18854 5.58447 0
M  V30 3077 H 289.576 2.70599 5.87695 0
M  V30 3078 N 289.708 -1.40897 0.706093 0
M  V30 3079 C 290.985 -1.94868 0.169099 0
M  V30 3080 C 291.365 -1.64485 -1.32318 0
M  V30 3081 O 290.713 -0.95744 -2.07474 0
M  V30 3082 C 290.923 -3.45798 0.471654 0
M  V30 3083 C 292.271 -4.22663 0.405127 0
M  V30 3084 O 293.295 -3.53865 0.407168 0
M  V30 3085 O 292.154 -5.45216 0.374383 0
M  V30 3086 H 289.248 -0.82673 0.0211352 0
M  V30 3087 H 291.794 -1.50558 0.782976 0
M  V30 3088 H 290.566 -3.61235 1.50416 0
M  V30 3089 H 290.189 -3.97225 -0.172666 0
M  V30 3090 N 291.186 -0.45159 -1.50991 0
M  V30 3091 C 292.463 0.170707 -1.94854 0
M  V30 3092 C 292.843 1.58788 -1.39103 0
M  V30 3093 O 292.191 2.20913 -0.583921 0
M  V30 3094 C 292.401 0.133929 -3.48743 0
M  V30 3095 C 293.749 0.33248 -4.23296 0
M  V30 3096 O 294.773 0.211403 -3.55572 0
M  V30 3097 O 293.632 0.57486 -5.43468 0
M  V30 3098 H 290.726 0.122264 -0.817912 0
M  V30 3099 H 293.272 -0.510594 -1.61836 0
M  V30 3100 H 292.044 -0.856283 -3.81816 0
M  V30 3101 H 291.667 0.857529 -3.88242 0
M  V30 3102 N 292.664 1.56529 -0.183458 0
M  V30 3103 C 293.911 1.97244 0.458357 0
M  V30 3104 C 294.239 1.06992 1.62428 0
M  V30 3105 O 293.494 0.106542 1.9541 0
M  V30 3106 C 293.793 3.43939 0.971637 0
M  V30 3107 C 293.459 4.5083 -0.0796784 0
M  V30 3108 C 292.121 4.79786 -0.368584 0
M  V30 3109 C 294.473 5.15138 -0.792638 0
M  V30 3110 C 291.801 5.70345 -1.37563 0
M  V30 3111 C 294.153 6.06784 -1.78875 0
M  V30 3112 C 292.817 6.34102 -2.08497 0
M  V30 3113 H 292.087 0.721768 0.167725 0
M  V30 3114 H 294.734 1.89472 -0.277976 0
M  V30 3115 H 293.039 3.48724 1.78602 0
M  V30 3116 H 294.736 3.72791 1.47744 0
M  V30 3117 H 291.326 4.28317 0.155668 0
M  V30 3118 H 295.51 4.92868 -0.582659 0
M  V30 3119 H 290.766 5.89789 -1.61118 0
M  V30 3120 H 294.94 6.55677 -2.3465 0
M  V30 3121 H 292.567 7.04074 -2.86678 0
M  V30 3122 N 294.142 -0.090211 1.57342 0
M  V30 3123 C 295.105 -1.09335 2.01441 0
M  V30 3124 C 296.105 -1.32666 0.908641 0
M  V30 3125 O 297.295 -1.28697 1.174 0
M  V30 3126 C 294.427 -2.44136 2.3793 0
M  V30 3127 H 295.62 -0.713662 2.91285 0
M  V30 3128 H 293.173 -0.335404 1.52659 0
M  V30 3129 H 293.908 -2.86972 1.51055 0
M  V30 3130 H 293.693 -2.28548 3.18603 0
M  V30 3131 H 295.183 -3.16277 2.72688 0
M  V30 3132 N 295.62 -1.53406 -0.361157 0
M  V30 3133 C 296.567 -1.80156 -1.44265 0
M  V30 3134 C 297.537 -0.646183 -1.53015 0
M  V30 3135 O 298.722 -0.888818 -1.68833 0
M  V30 3136 C 295.862 -2.00116 -2.81154 0
M  V30 3137 C 294.975 -3.27833 -2.81335 0
M  V30 3138 C 294.11 -3.37957 -4.09828 0
M  V30 3139 C 293.149 -4.59689 -4.04168 0
M  V30 3140 N 292.286 -4.66942 -5.24318 0
M  V30 3141 H 297.126 -2.72438 -1.20754 0
M  V30 3142 H 294.663 -1.34954 -0.585296 0
M  V30 3143 H 296.621 -2.09677 -3.60682 0
M  V30 3144 H 295.251 -1.11167 -3.03054 0
M  V30 3145 H 294.303 -3.27204 -1.94014 0
M  V30 3146 H 295.615 -4.17442 -2.73027 0
M  V30 3147 H 294.769 -3.46853 -4.97773 0
M  V30 3148 H 293.508 -2.46372 -4.20894 0
M  V30 3149 H 292.513 -4.50889 -3.14609 0
M  V30 3150 H 293.738 -5.5262 -3.947 0
M  V30 3151 H 291.684 -3.7826 -5.35962 0
M  V30 3152 H 291.601 -5.50462 -5.18197 0
M  V30 3153 H 292.869 -4.80127 -6.14084 0
M  V30 3154 N 297.098 0.621204 -1.44841 0
M  V30 3155 C 298.008 1.7612 -1.5498 0
M  V30 3156 C 299.024 1.68477 -0.434927 0
M  V30 3157 O 300.2 1.89076 -0.693693 0
M  V30 3158 C 297.265 3.1254 -1.50065 0
M  V30 3159 C 296.326 3.31741 -2.72482 0
M  V30 3160 C 295.559 4.61653 -2.67792 0
M  V30 3161 O 295.782 5.431 -1.74352 0
M  V30 3162 O 294.716 4.83271 -3.58794 0
M  V30 3163 H 298.542 1.70518 -2.51311 0
M  V30 3164 H 296.127 0.783643 -1.27198 0
M  V30 3165 H 298.009 3.93844 -1.49882 0
M  V30 3166 H 296.684 3.18663 -0.568806 0
M  V30 3167 H 295.591 2.50077 -2.7823 0
M  V30 3168 H 296.924 3.30486 -3.64746 0
M  V30 3169 N 298.576 1.31904 0.862503 0
M  V30 3170 C 299.824 1.21776 1.61292 0
M  V30 3171 C 300.145 -0.222413 1.93727 0
M  V30 3172 O 299.415 -1.1451 1.58947 0
M  V30 3173 H 297.995 0.447717 0.597962 0
M  V30 3174 H 300.657 1.65326 1.03215 0
M  V30 3175 H 299.753 1.7948 2.5533 0
M  V30 3176 N 300.054 -1.07777 1.14986 0
M  V30 3177 C 301.004 -2.13082 0.811181 0
M  V30 3178 C 301.988 -1.59619 -0.202597 0
M  V30 3179 O 303.18 -1.77 -0.00398275 0
M  V30 3180 C 300.309 -3.42009 0.297439 0
M  V30 3181 C 299.395 -4.02337 1.34112 0
M  V30 3182 N 299.786 -4.36982 2.54716 0
M  V30 3183 C 298.084 -4.29752 1.19285 0
M  V30 3184 C 298.785 -4.84729 3.21578 0
M  V30 3185 N 297.761 -4.83233 2.48972 0
M  V30 3186 H 301.563 -2.37696 1.72853 0
M  V30 3187 H 299.077 -1.25173 1.03468 0
M  V30 3188 H 301.074 -4.16884 0.0364777 0
M  V30 3189 H 299.734 -3.18841 -0.614022 0
M  V30 3190 H 300.745 -4.27807 2.91894 0
M  V30 3191 H 297.422 -4.16106 0.340926 0
M  V30 3192 H 298.812 -5.20863 4.24442 0
M  V30 3193 N 301.532 -0.945985 -1.26051 0
M  V30 3194 C 302.757 -0.612525 -1.98149 0
M  V30 3195 C 303.182 0.806623 -1.69927 0
M  V30 3196 O 302.54 1.54411 -0.950108 0
M  V30 3197 C 302.588 -0.866981 -3.50023 0
M  V30 3198 O 301.692 0.0585333 -4.12358 0
M  V30 3199 H 301.033 -0.23379 -0.621481 0
M  V30 3200 H 303.563 -1.27023 -1.60395 0
M  V30 3201 H 303.573 -0.789792 -4.00283 0
M  V30 3202 H 302.248 -1.90135 -3.69894 0
M  V30 3203 H 300.825 -0.0701241 -3.72834 0
M  V30 3204 N 303.011 1.40521 -0.713556 0
M  V30 3205 C 304.236 2.05759 -0.26035 0
M  V30 3206 C 304.661 1.53403 1.08854 0
M  V30 3207 O 304.019 0.668535 1.68524 0
M  V30 3208 C 304.067 3.59745 -0.248122 0
M  V30 3209 O 303.171 4.05123 0.77131 0
M  V30 3210 H 302.512 0.652564 -0.122703 0
M  V30 3211 H 305.042 1.79958 -0.973467 0
M  V30 3212 H 305.052 4.07911 -0.0851129 0
M  V30 3213 H 303.727 3.97218 -1.2325 0
M  V30 3214 H 302.304 3.68422 0.57619 0
M  V30 3215 N 304.489 0.459591 1.5075 0
M  V30 3216 C 305.419 -0.330644 2.31147 0
M  V30 3217 C 306.4 -1.00087 1.37538 0
M  V30 3218 O 307.585 -1.00025 1.66459 0
M  V30 3219 C 304.715 -1.41958 3.16962 0
M  V30 3220 C 303.669 -0.871608 4.19031 0
M  V30 3221 C 302.995 -2.05797 4.9351 0
M  V30 3222 C 304.295 0.109251 5.22186 0
M  V30 3223 H 305.989 0.340336 2.97459 0
M  V30 3224 H 303.535 0.165119 1.4305 0
M  V30 3225 H 305.488 -1.9798 3.71997 0
M  V30 3226 H 304.212 -2.11917 2.48513 0
M  V30 3227 H 302.871 -0.333442 3.6508 0
M  V30 3228 H 302.519 -2.74427 4.21544 0
M  V30 3229 H 302.219 -1.6976 5.62544 0
M  V30 3230 H 303.743 -2.62331 5.51375 0
M  V30 3231 H 305.157 -0.361405 5.7216 0
M  V30 3232 H 303.554 0.383316 5.98875 0
M  V30 3233 H 304.624 1.03887 4.73641 0
M  V30 3234 N 305.967 -1.56429 0.191757 0
M  V30 3235 C 307.197 -2.01574 -0.452928 0
M  V30 3236 C 307.605 -1.07107 -1.55964 0
M  V30 3237 O 306.948 -0.067534 -1.83576 0
M  V30 3238 C 307.01 -3.43121 -1.07278 0
M  V30 3239 C 306.674 -4.56879 -0.105214 0
M  V30 3240 C 307.671 -5.15379 0.684149 0
M  V30 3241 C 305.356 -5.023 0.00489824 0
M  V30 3242 C 307.35 -6.17746 1.57062 0
M  V30 3243 C 305.037 -6.04511 0.894935 0
M  V30 3244 C 306.035 -6.62108 1.67637 0
M  V30 3245 O 305.723 -7.62335 2.55149 0
M  V30 3246 H 305.455 -0.665554 -0.118379 0
M  V30 3247 H 308.009 -2.03245 0.296737 0
M  V30 3248 H 306.239 -3.38425 -1.87097 0
M  V30 3249 H 307.928 -3.72093 -1.62177 0
M  V30 3250 H 308.694 -4.81157 0.609365 0
M  V30 3251 H 304.573 -4.57168 -0.593156 0
M  V30 3252 H 308.117 -6.6263 2.181 0
M  V30 3253 H 304.014 -6.38157 0.970847 0
M  V30 3254 H 304.782 -7.79741 2.48892 0
M  V30 3255 N 307.445 0.0818655 -1.57387 0
M  V30 3256 C 308.375 1.09885 -2.06028 0
M  V30 3257 C 309.356 1.4098 -0.951774 0
M  V30 3258 O 310.541 1.50781 -1.22387 0
M  V30 3259 C 307.671 2.4151 -2.4958 0
M  V30 3260 C 306.625 2.24792 -3.64215 0
M  V30 3261 C 305.951 3.61712 -3.93787 0
M  V30 3262 C 307.251 1.67749 -4.94629 0
M  V30 3263 H 308.945 0.694128 -2.91243 0
M  V30 3264 H 306.491 0.332448 -1.4011 0
M  V30 3265 H 308.444 3.12939 -2.82219 0
M  V30 3266 H 307.168 2.83943 -1.61381 0
M  V30 3267 H 305.827 1.55807 -3.31843 0
M  V30 3268 H 305.475 4.01697 -3.02735 0
M  V30 3269 H 305.175 3.51368 -4.70971 0
M  V30 3270 H 306.699 4.34587 -4.28913 0
M  V30 3271 H 308.113 2.29032 -5.25564 0
M  V30 3272 H 306.51 1.68128 -5.76067 0
M  V30 3273 H 307.58 0.638059 -4.80684 0
M  V30 3274 N 308.923 1.53595 0.353017 0
M  V30 3275 C 310.171 1.70049 1.09215 0
M  V30 3276 C 310.492 0.461406 1.89463 0
M  V30 3277 O 309.762 -0.524633 1.88744 0
M  V30 3278 H 308.342 0.626912 0.40619 0
M  V30 3279 H 311.004 1.90822 0.396585 0
M  V30 3280 H 310.1 2.56718 1.77488 0
M  V30 3281 N 310.401 -0.613514 1.45168 0
M  V30 3282 C 311.65 -1.36874 1.4815 0
M  V30 3283 C 311.963 -1.952 0.124982 0
M  V30 3284 O 313.169 -2.71481 0.0324176 0
M  V30 3285 C 311.625 -2.47905 2.60904 0
M  V30 3286 C 311.233 -1.96016 4.02842 0
M  V30 3287 C 312.977 -3.24965 2.73126 0
M  V30 3288 C 310.884 -3.04494 5.06988 0
M  V30 3289 H 309.814 -0.514428 0.551253 0
M  V30 3290 H 312.465 -0.658182 1.7129 0
M  V30 3291 H 310.847 -3.21618 2.31037 0
M  V30 3292 H 312.021 -1.29051 4.4236 0
M  V30 3293 H 310.336 -1.31719 3.95018 0
M  V30 3294 H 312.933 -4.05865 3.48106 0
M  V30 3295 H 313.276 -3.75588 1.79553 0
M  V30 3296 H 313.809 -2.5835 3.0249 0
M  V30 3297 H 310.548 -2.58795 6.0225 0
M  V30 3298 H 310.068 -3.70044 4.72046 0
M  V30 3299 H 311.747 -3.68976 5.31475 0
M  V30 3300 N 311.879 -1.3236 -0.855495 0
M  V30 3301 C 312.809 -1.23833 -1.97958 0
M  V30 3302 C 313.79 -0.122361 -1.69659 0
M  V30 3303 O 314.975 -0.30939 -1.9172 0
M  V30 3304 C 312.105 -0.959772 -3.33775 0
M  V30 3305 C 311.059 -2.03689 -3.76424 0
M  V30 3306 C 310.385 -1.61075 -5.09862 0
M  V30 3307 C 311.685 -3.4518 -3.9198 0
M  V30 3308 H 313.379 -2.1788 -2.0535 0
M  V30 3309 H 310.925 -1.04891 -0.986605 0
M  V30 3310 H 312.878 -0.886678 -4.11966 0
M  V30 3311 H 311.602 0.0163404 -3.26596 0
M  V30 3312 H 310.261 -2.10012 -3.00484 0
M  V30 3313 H 309.909 -0.622107 -4.99138 0
M  V30 3314 H 309.609 -2.33143 -5.39368 0
M  V30 3315 H 311.133 -1.55201 -5.90546 0
M  V30 3316 H 312.547 -3.4145 -4.60526 0
M  V30 3317 H 310.944 -4.1559 -4.32903 0
M  V30 3318 H 312.014 -3.84903 -2.94919 0
M  V30 3319 N 313.357 1.07166 -1.15556 0
M  V30 3320 C 314.305 2.16517 -0.8499 0
M  V30 3321 C 315.299 1.68468 0.177454 0
M  V30 3322 O 316.505 1.79971 0.0323026 0
M  V30 3323 H 312.88 0.706652 -0.25719 0
M  V30 3324 H 314.851 2.39514 -1.77976 0
M  V30 3325 C 313.6 3.45855 -0.357682 0
M  V30 3326 H 312.923 3.83214 -1.13961 0
M  V30 3327 H 314.363 4.23607 -0.182489 0
M  V30 3328 C 312.822 3.24062 0.921152 0
M  V30 3329 O 313.352 3.48813 1.9923 0
M  V30 3330 N 311.558 2.77539 0.86141 0
M  V30 3331 H 311.105 2.57598 -0.0104408 0
M  V30 3332 H 311.063 2.63337 1.71758 0
M  V30 3333 N 314.835 0.952656 1.25548 0
M  V30 3334 C 315.798 0.475794 2.24207 0
M  V30 3335 C 316.798 -0.419428 1.55234 0
M  V30 3336 O 317.988 -0.216994 1.72843 0
M  V30 3337 C 315.12 -0.312814 3.39462 0
M  V30 3338 H 316.313 1.34779 2.67908 0
M  V30 3339 H 313.866 0.735739 1.37901 0
M  V30 3340 H 314.601 -1.20257 3.01179 0
M  V30 3341 H 314.386 0.329404 3.90714 0
M  V30 3342 H 315.876 -0.635986 4.12729 0
M  V30 3343 N 316.313 -1.40141 0.720998 0
M  V30 3344 C 317.562 -2.0002 0.259804 0
M  V30 3345 C 317.875 -1.57839 -1.15526 0
M  V30 3346 O 319.081 -2.10455 -1.71525 0
M  V30 3347 C 317.537 -3.57516 0.413566 0
M  V30 3348 C 317.145 -4.08667 1.83562 0
M  V30 3349 C 318.889 -4.24498 0.0134387 0
M  V30 3350 C 316.796 -5.58686 1.93968 0
M  V30 3351 H 315.726 -0.748195 0.0933806 0
M  V30 3352 H 318.377 -1.60313 0.892866 0
M  V30 3353 H 316.759 -3.9495 -0.288169 0
M  V30 3354 H 317.933 -3.82598 2.56817 0
M  V30 3355 H 316.248 -3.543 2.1877 0
M  V30 3356 H 318.845 -5.34654 0.0703954 0
M  V30 3357 H 319.188 -4.03375 -1.02927 0
M  V30 3358 H 319.721 -3.92188 0.665815 0
M  V30 3359 H 316.46 -5.8467 2.96379 0
M  V30 3360 H 315.98 -5.86602 1.25131 0
M  V30 3361 H 317.659 -6.23875 1.71431 0
M  V30 3362 N 317.792 -0.46758 -1.50504 0
M  V30 3363 C 318.755 0.317059 -2.26996 0
M  V30 3364 C 319.755 0.923513 -1.31635 0
M  V30 3365 O 320.945 0.793239 -1.55091 0
M  V30 3366 C 318.077 1.45134 -3.08462 0
M  V30 3367 H 319.27 -0.353723 -2.97807 0
M  V30 3368 H 316.823 -0.221545 -1.54722 0
M  V30 3369 H 317.558 2.15728 -2.4214 0
M  V30 3370 H 317.343 1.02232 -3.78538 0
M  V30 3371 H 318.833 2.00493 -3.66323 0
M  V30 3372 N 319.27 1.56325 -0.20005 0
M  V30 3373 C 320.203 2.15234 0.758267 0
M  V30 3374 C 321.181 1.09046 1.20614 0
M  V30 3375 O 322.365 1.37186 1.29276 0
M  V30 3376 C 319.492 2.71524 2.02466 0
M  V30 3377 C 318.538 3.90345 1.71852 0
M  V30 3378 S 319.371 5.28513 0.862249 0
M  V30 3379 C 320.527 5.88227 2.13868 0
M  V30 3380 H 320.76 2.96183 0.2575 0
M  V30 3381 H 318.293 1.54393 0.0150099 0
M  V30 3382 H 320.251 3.04598 2.75191 0
M  V30 3383 H 318.912 1.90607 2.49655 0
M  V30 3384 H 318.105 4.28158 2.65888 0
M  V30 3385 H 317.707 3.58306 1.07205 0
M  V30 3386 H 319.999 6.02891 3.09076 0
M  V30 3387 H 320.942 6.84714 1.80479 0
M  V30 3388 H 321.35 5.16874 2.2694 0
M  V30 3389 N 320.748 -0.0735177 1.57428 0
M  V30 3390 C 321.997 -0.771809 1.86349 0
M  V30 3391 C 322.31 -1.78828 0.792452 0
M  V30 3392 O 323.516 -2.53602 0.96945 0
M  V30 3393 C 321.972 -1.42358 3.30548 0
M  V30 3394 C 321.58 -0.445761 4.45777 0
M  V30 3395 C 323.324 -2.10434 3.6867 0
M  V30 3396 C 321.231 -1.10335 5.81016 0
M  V30 3397 H 320.161 -0.291999 0.695164 0
M  V30 3398 H 322.812 -0.0250749 1.83483 0
M  V30 3399 H 321.194 -2.21852 3.28021 0
M  V30 3400 H 322.368 0.319239 4.59693 0
M  V30 3401 H 320.683 0.130457 4.16196 0
M  V30 3402 H 323.28 -2.60405 4.67004 0
M  V30 3403 H 323.623 -2.90298 2.98383 0
M  V30 3404 H 324.156 -1.37773 3.7318 0
M  V30 3405 H 320.895 -0.345061 6.54591 0
M  V30 3406 H 320.415 -1.83925 5.70904 0
M  V30 3407 H 322.094 -1.62367 6.26295 0
M  V30 3408 N 322.226 -1.5378 -0.344866 0
M  V30 3409 C 323.474 -1.70625 -1.08311 0
M  V30 3410 C 323.795 -0.471447 -1.89215 0
M  V30 3411 O 323.065 0.514616 -1.8902 0
M  V30 3412 H 321.645 -0.629058 -0.402859 0
M  V30 3413 H 324.307 -1.9103 -0.386459 0
M  V30 3414 H 323.403 -2.57656 -1.76124 0
M  V30 3415 N 323.704 0.605807 -1.45491 0
M  V30 3416 C 325.115 1.18777 -1.44045 0
M  V30 3417 C 325.466 1.95471 -0.169001 0
M  V30 3418 O 324.591 2.0374 0.729324 0
M  V30 3419 C 325.186 2.16064 -2.60963 0
M  V30 3420 C 323.745 2.69633 -2.62631 0
M  V30 3421 C 322.892 1.45072 -2.36325 0
M  V30 3422 H 325.843 0.395017 -1.53705 0
M  V30 3423 H 325.864 2.9913 -2.35163 0
M  V30 3424 H 325.376 1.60217 -3.53486 0
M  V30 3425 H 323.477 3.29414 -1.74119 0
M  V30 3426 H 323.59 3.13944 -3.61906 0
M  V30 3427 H 321.954 1.74089 -1.85917 0
M  V30 3428 H 322.737 0.910899 -3.30995 0
M  V30 3429 N 325.182 1.32811 0.848464 0
M  V30 3430 C 326.431 1.23075 1.59798 0
M  V30 3431 C 326.744 -0.204419 1.94529 0
M  V30 3432 O 327.95 -0.423701 2.68173 0
M  V30 3433 C 326.406 2.15594 2.88179 0
M  V30 3434 C 326.014 3.64228 2.60849 0
M  V30 3435 C 327.758 2.14709 3.66197 0
M  V30 3436 C 325.665 4.48689 3.85269 0
M  V30 3437 H 324.595 0.457091 0.599653 0
M  V30 3438 H 327.246 1.57813 0.936342 0
M  V30 3439 H 325.628 1.73778 3.55833 0
M  V30 3440 H 326.802 4.14424 2.01467 0
M  V30 3441 H 325.117 3.67306 1.96151 0
M  V30 3442 H 327.714 2.75046 4.58534 0
M  V30 3443 H 328.057 1.13966 4.00397 0
M  V30 3444 H 328.59 2.54837 3.05455 0
M  V30 3445 H 325.329 5.5027 3.56207 0
M  V30 3446 H 324.849 4.03241 4.44024 0
M  V30 3447 H 326.528 4.62006 4.52946 0
M  V30 3448 N 326.66 -1.06551 1.16123 0
M  V30 3449 C 327.909 -1.78687 0.935622 0
M  V30 3450 C 328.222 -1.88056 -0.538001 0
M  V30 3451 O 329.428 -2.56794 -0.88143 0
M  V30 3452 C 327.884 -3.21143 1.62466 0
M  V30 3453 C 327.492 -3.19949 3.13587 0
M  V30 3454 C 329.236 -3.9783 1.48092 0
M  V30 3455 C 327.143 -4.57108 3.75241 0
M  V30 3456 H 326.073 -0.669712 0.346412 0
M  V30 3457 H 328.724 -1.19534 1.39226 0
M  V30 3458 H 327.106 -3.80539 1.09572 0
M  V30 3459 H 328.28 -2.70151 3.73303 0
M  V30 3460 H 326.595 -2.5676 3.27816 0
M  V30 3461 H 329.192 -4.99217 1.91538 0
M  V30 3462 H 329.535 -4.14078 0.429507 0
M  V30 3463 H 330.068 -3.4495 1.98127 0
M  V30 3464 H 326.807 -4.46065 4.80319 0
M  V30 3465 H 326.327 -5.07111 3.20309 0
M  V30 3466 H 328.006 -5.26069 3.76644 0
M  V30 3467 N 328.138 -0.959301 -1.25041 0
M  V30 3468 C 329.386 -0.615393 -1.92503 0
M  V30 3469 C 329.707 0.850969 -1.75452 0
M  V30 3470 O 328.977 1.60658 -1.12098 0
M  V30 3471 H 327.557 -0.224613 -0.712431 0
M  V30 3472 H 330.219 -1.21855 -1.5211 0
M  V30 3473 H 329.315 -0.848738 -3.00338 0
M  V30 3474 N 329.616 1.39756 -0.72842 0
M  V30 3475 C 330.863 2.00645 -0.273487 0
M  V30 3476 C 331.191 1.57786 1.13727 0
M  V30 3477 O 330.446 0.794886 1.7883 0
M  V30 3478 C 330.745 3.56002 -0.315776 0
M  V30 3479 C 330.411 4.18489 -1.67863 0
M  V30 3480 C 329.073 4.3527 -2.05166 0
M  V30 3481 C 331.425 4.53219 -2.57375 0
M  V30 3482 C 328.753 4.84069 -3.31503 0
M  V30 3483 C 331.105 5.03423 -3.83077 0
M  V30 3484 C 329.769 5.18413 -4.20481 0
M  V30 3485 H 329.039 0.734211 -0.100076 0
M  V30 3486 H 331.686 1.6718 -0.933972 0
M  V30 3487 H 329.991 3.89452 0.428285 0
M  V30 3488 H 331.688 4.00963 0.0542575 0
M  V30 3489 H 328.278 4.05824 -1.37858 0
M  V30 3490 H 332.462 4.39878 -2.29827 0
M  V30 3491 H 327.718 4.93859 -3.60435 0
M  V30 3492 H 331.892 5.2927 -4.52599 0
M  V30 3493 H 329.519 5.55987 -5.18443 0
M  V30 3494 N 331.094 0.475555 1.50254 0
M  V30 3495 C 332.322 -0.0754493 2.06762 0
M  V30 3496 C 332.737 -1.33111 1.33891 0
M  V30 3497 O 332.094 -1.77846 0.40952 0
M  V30 3498 C 332.145 -0.359008 3.59713 0
M  V30 3499 O 331.866 0.846851 4.29837 0
M  V30 3500 C 333.367 -0.956484 4.32858 0
M  V30 3501 H 330.587 0.00907525 0.670939 0
M  V30 3502 H 333.131 0.665618 1.93364 0
M  V30 3503 H 331.286 -1.05001 3.72899 0
M  V30 3504 H 331.7 0.594162 5.21124 0
M  V30 3505 H 333.174 -1.10463 5.40834 0
M  V30 3506 H 333.651 -1.94775 3.93649 0
M  V30 3507 H 334.257 -0.303723 4.24214 0
M  V30 3508 N 332.573 -1.56217 0.208337 0
M  V30 3509 C 333.503 -2.22694 -0.702116 0
M  V30 3510 C 334.484 -1.19432 -1.2112 0
M  V30 3511 O 335.669 -1.47978 -1.25762 0
M  V30 3512 C 332.799 -2.8966 -1.9161 0
M  V30 3513 C 331.753 -3.9928 -1.5414 0
M  V30 3514 C 331.079 -4.53476 -2.83308 0
M  V30 3515 C 332.379 -5.17012 -0.741339 0
M  V30 3516 H 334.073 -2.99034 -0.147898 0
M  V30 3517 H 331.619 -1.43831 -0.0696951 0
M  V30 3518 H 333.572 -3.34852 -2.55836 0
M  V30 3519 H 332.296 -2.10746 -2.49507 0
M  V30 3520 H 330.955 -3.54799 -0.922668 0
M  V30 3521 H 330.603 -3.71308 -3.39322 0
M  V30 3522 H 330.303 -5.27451 -2.58976 0
M  V30 3523 H 331.827 -5.01378 -3.485 0
M  V30 3524 H 333.241 -5.58667 -1.28699 0
M  V30 3525 H 331.638 -5.97137 -0.595627 0
M  V30 3526 H 332.708 -4.8423 0.254851 0
M  V30 3527 N 334.051 0.0651679 -1.57465 0
M  V30 3528 C 335.299 0.761555 -1.87202 0
M  V30 3529 C 335.62 1.77778 -0.801243 0
M  V30 3530 O 334.89 1.95166 0.16937 0
M  V30 3531 H 333.47 0.284251 -0.690804 0
M  V30 3532 H 336.132 0.0396827 -1.9486 0
M  V30 3533 H 335.228 1.27365 -2.84929 0
M  V30 3534 N 335.529 1.53961 0.336706 0
M  V30 3535 C 336.754 1.75797 1.10046 0
M  V30 3536 C 337.179 0.498985 1.81361 0
M  V30 3537 O 336.537 -0.548769 1.72795 0
M  V30 3538 C 336.585 2.94257 2.08436 0
M  V30 3539 O 335.689 2.64883 3.16087 0
M  V30 3540 H 335.03 0.582936 0.317934 0
M  V30 3541 H 337.56 2.00945 0.38501 0
M  V30 3542 H 337.57 3.21237 2.51537 0
M  V30 3543 H 336.245 3.85564 1.55927 0
M  V30 3544 H 334.822 2.48812 2.77753 0
M  V30 3545 N 337.007 -0.598083 1.45811 0
M  V30 3546 C 337.937 -1.71873 1.58057 0
M  V30 3547 C 338.918 -1.64533 0.431615 0
M  V30 3548 O 340.103 -1.82787 0.65595 0
M  V30 3549 C 337.233 -3.10495 1.55597 0
M  V30 3550 C 336.187 -3.32654 2.69305 0
M  V30 3551 C 335.513 -4.71646 2.51902 0
M  V30 3552 C 336.813 -3.21981 4.11248 0
M  V30 3553 H 338.507 -1.61881 2.51863 0
M  V30 3554 H 336.053 -0.777372 1.21214 0
M  V30 3555 H 338.006 -3.88699 1.6276 0
M  V30 3556 H 336.73 -3.2135 0.583255 0
M  V30 3557 H 335.389 -2.56843 2.61586 0
M  V30 3558 H 335.037 -4.79246 1.52748 0
M  V30 3559 H 334.737 -4.87426 3.2816 0
M  V30 3560 H 336.261 -5.52038 2.60933 0
M  V30 3561 H 337.675 -3.90049 4.20161 0
M  V30 3562 H 336.072 -3.49289 4.87972 0
M  V30 3563 H 337.142 -2.1928 4.32486 0
M  V30 3564 N 338.485 -1.33259 -0.841409 0
M  V30 3565 C 339.732 -1.24572 -1.5965 0
M  V30 3566 C 340.06 0.189137 -1.93578 0
M  V30 3567 O 339.315 1.14566 -1.5866 0
M  V30 3568 C 339.614 -2.06381 -2.9179 0
M  V30 3569 C 339.28 -3.556 -2.77235 0
M  V30 3570 C 337.942 -3.96282 -2.72973 0
M  V30 3571 C 340.294 -4.50433 -2.62221 0
M  V30 3572 C 337.622 -5.30017 -2.51592 0
M  V30 3573 C 339.974 -5.84327 -2.42374 0
M  V30 3574 C 338.638 -6.24194 -2.36512 0
M  V30 3575 H 337.908 -0.455842 -0.5842 0
M  V30 3576 H 340.555 -1.6482 -0.975016 0
M  V30 3577 H 338.86 -1.58903 -3.5813 0
M  V30 3578 H 340.557 -1.97019 -3.49263 0
M  V30 3579 H 337.147 -3.23298 -2.81384 0
M  V30 3580 H 341.331 -4.19914 -2.64549 0
M  V30 3581 H 336.587 -5.59947 -2.45499 0
M  V30 3582 H 340.761 -6.57414 -2.29739 0
M  V30 3583 H 338.388 -7.27759 -2.19706 0
M  V30 3584 N 339.963 1.05934 -1.16686 0
M  V30 3585 C 341.188 1.83029 -0.975455 0
M  V30 3586 C 341.613 1.82096 0.471452 0
M  V30 3587 O 340.971 1.22443 1.33706 0
M  V30 3588 C 341.019 3.27372 -1.51195 0
M  V30 3589 O 340.123 4.06054 -0.720701 0
M  V30 3590 H 339.464 0.566194 -0.346872 0
M  V30 3591 H 341.994 1.33541 -1.55009 0
M  V30 3592 H 342.004 3.78186 -1.53099 0
M  V30 3593 H 340.679 3.27366 -2.56523 0
M  V30 3594 H 339.256 3.64812 -0.772458 0
M  V30 3595 N 341.441 0.965919 1.2453 0
M  V30 3596 C 342.388 0.49402 2.25451 0
M  V30 3597 C 343.358 -0.45948 1.59618 0
M  V30 3598 O 344.543 -0.370238 1.87173 0
M  V30 3599 C 341.683 -0.211359 3.44452 0
M  V30 3600 C 340.796 0.7807 4.24887 0
M  V30 3601 C 339.931 0.0516105 5.31175 0
M  V30 3602 C 338.97 1.03385 6.03306 0
M  V30 3603 N 338.107 0.334887 7.01301 0
M  V30 3604 H 342.947 1.35946 2.65184 0
M  V30 3605 H 340.484 0.681515 1.3036 0
M  V30 3606 H 342.442 -0.637 4.12308 0
M  V30 3607 H 341.072 -1.04077 3.05562 0
M  V30 3608 H 340.124 1.32479 3.56586 0
M  V30 3609 H 341.436 1.52978 4.74762 0
M  V30 3610 H 340.59 -0.432114 6.05159 0
M  V30 3611 H 339.329 -0.730179 4.82203 0
M  V30 3612 H 338.334 1.52847 5.28127 0
M  V30 3613 H 339.559 1.81606 6.54367 0
M  V30 3614 H 337.505 -0.427959 6.54603 0
M  V30 3615 H 337.422 1.02287 7.49048 0
M  V30 3616 H 338.69 -0.126928 7.79397 0
M  V30 3617 N 342.919 -1.39368 0.735821 0
M  V30 3618 C 343.852 -2.28155 0.0451175 0
M  V30 3619 C 344.83 -1.44433 -0.746852 0
M  V30 3620 O 346.014 -1.73823 -0.729237 0
M  V30 3621 C 343.141 -3.253 -0.943266 0
M  V30 3622 C 342.187 -4.25826 -0.239685 0
M  V30 3623 S 343.02 -5.25166 1.04693 0
M  V30 3624 C 344.176 -6.2587 0.0611639 0
M  V30 3625 H 344.409 -2.86388 0.79807 0
M  V30 3626 H 341.942 -1.45104 0.527653 0
M  V30 3627 H 343.9 -3.81789 -1.50824 0
M  V30 3628 H 342.561 -2.66085 -1.66906 0
M  V30 3629 H 341.754 -4.94229 -0.987596 0
M  V30 3630 H 341.356 -3.73141 0.253274 0
M  V30 3631 H 343.648 -6.73007 -0.778941 0
M  V30 3632 H 344.591 -7.04508 0.712362 0
M  V30 3633 H 344.999 -5.63639 -0.311602 0
M  V30 3634 N 344.397 -0.483516 -1.5 0
M  V30 3635 C 345.627 0.0643896 -2.065 0
M  V30 3636 C 346.035 1.32949 -1.34615 0
M  V30 3637 O 345.378 1.79003 -0.412756 0
M  V30 3638 C 345.44 0.405983 -3.572 0
M  V30 3639 C 345.104 -0.758875 -4.50655 0
M  V30 3640 C 346.101 -1.64445 -4.93208 0
M  V30 3641 C 343.786 -0.952725 -4.93182 0
M  V30 3642 C 345.78 -2.70818 -5.77006 0
M  V30 3643 C 343.467 -2.01966 -5.76761 0
M  V30 3644 C 344.465 -2.89574 -6.18576 0
M  V30 3645 O 344.153 -3.94429 -7.00486 0
M  V30 3646 H 343.885 -0.00934786 -0.675935 0
M  V30 3647 H 346.439 -0.674959 -1.93993 0
M  V30 3648 H 344.669 1.19869 -3.67652 0
M  V30 3649 H 346.358 0.890433 -3.96013 0
M  V30 3650 H 347.124 -1.50643 -4.61012 0
M  V30 3651 H 343.003 -0.280247 -4.60147 0
M  V30 3652 H 346.547 -3.3923 -6.09565 0
M  V30 3653 H 342.444 -2.1577 -6.0837 0
M  V30 3654 H 343.212 -3.91568 -7.1876 0
M  V30 3655 N 345.875 1.56104 -0.216619 0
M  V30 3656 C 347.121 1.98466 0.417033 0
M  V30 3657 C 347.454 1.10403 1.59765 0
M  V30 3658 O 346.729 0.160632 1.93836 0
M  V30 3659 C 347.012 3.49769 0.85637 0
M  V30 3660 C 346.865 4.48606 -0.327546 0
M  V30 3661 C 348.184 4.05339 1.7143 0
M  V30 3662 H 345.303 0.721551 0.150112 0
M  V30 3663 H 347.945 1.87423 -0.311864 0
M  V30 3664 H 346.095 3.5931 1.47745 0
M  V30 3665 H 347.767 4.5108 -0.965618 0
M  V30 3666 H 346.01 4.22682 -0.975805 0
M  V30 3667 H 346.681 5.51995 0.0227149 0
M  V30 3668 H 349.157 3.98712 1.19031 0
M  V30 3669 H 348.033 5.11533 1.99061 0
M  V30 3670 H 348.294 3.51918 2.67593 0
M  V30 3671 N 347.353 -0.0568162 1.57498 0
M  V30 3672 C 348.63 -0.786954 1.79071 0
M  V30 3673 C 349.01 -1.95028 0.80792 0
M  V30 3674 O 348.358 -2.27968 -0.155858 0
M  V30 3675 C 348.568 -1.24594 3.26002 0
M  V30 3676 C 349.916 -1.67323 3.90241 0
M  V30 3677 O 350.94 -1.34124 3.29984 0
M  V30 3678 O 349.799 -2.28842 4.9628 0
M  V30 3679 H 346.893 -0.378262 0.735423 0
M  V30 3680 H 349.439 -0.035734 1.69662 0
M  V30 3681 H 348.211 -0.41423 3.89101 0
M  V30 3682 H 347.834 -2.05803 3.40192 0
M  V30 3683 N 348.832 -1.54138 -0.328536 0
M  V30 3684 C 350.081 -1.71318 -1.06456 0
M  V30 3685 C 350.394 -0.491109 -1.89334 0
M  V30 3686 O 351.6 -0.54416 -2.65991 0
M  V30 3687 C 350.056 -3.03 -1.94214 0
M  V30 3688 C 349.664 -4.32595 -1.16471 0
M  V30 3689 C 351.408 -3.29544 -2.67583 0
M  V30 3690 C 349.315 -5.55341 -2.03347 0
M  V30 3691 H 348.245 -0.638429 -0.401155 0
M  V30 3692 H 350.896 -1.80633 -0.323106 0
M  V30 3693 H 349.278 -2.87579 -2.72239 0
M  V30 3694 H 350.452 -4.58766 -0.432525 0
M  V30 3695 H 348.767 -4.12777 -0.548063 0
M  V30 3696 H 351.364 -4.18444 -3.3288 0
M  V30 3697 H 351.707 -2.47206 -3.34955 0
M  V30 3698 H 352.24 -3.45809 -1.96623 0
M  V30 3699 H 348.979 -6.40268 -1.40491 0
M  V30 3700 H 348.499 -5.33397 -2.74313 0
M  V30 3701 H 350.178 -5.91557 -2.62049 0
M  V30 3702 N 350.31 0.590341 -1.46126 0
M  V30 3703 C 351.558 1.34616 -1.50742 0
M  V30 3704 C 351.879 1.94363 -0.157486 0
M  V30 3705 O 351.149 1.78136 0.815136 0
M  V30 3706 H 349.729 0.499789 -0.555175 0
M  V30 3707 H 352.391 0.691953 -1.82203 0
M  V30 3708 H 351.487 2.15678 -2.25587 0
M  V30 3709 N 351.788 1.33704 0.83433 0
M  V30 3710 C 353.018 1.28281 1.6195 0
M  V30 3711 C 353.426 -0.147603 1.88623 0
M  V30 3712 O 352.769 -1.1016 1.47005 0
M  V30 3713 C 352.831 1.99386 2.99141 0
M  V30 3714 C 352.495 3.48681 2.95416 0
M  V30 3715 C 353.492 4.438 2.70809 0
M  V30 3716 C 351.177 3.90925 3.15409 0
M  V30 3717 C 353.171 5.79138 2.66229 0
M  V30 3718 C 350.858 5.26366 3.10454 0
M  V30 3719 C 351.856 6.20284 2.85895 0
M  V30 3720 O 351.544 7.53245 2.80852 0
M  V30 3721 H 351.276 0.44315 0.510484 0
M  V30 3722 H 353.83 1.76711 1.04702 0
M  V30 3723 H 352.06 1.45554 3.58261 0
M  V30 3724 H 353.749 1.87403 3.60049 0
M  V30 3725 H 354.515 4.12485 2.5511 0
M  V30 3726 H 350.394 3.18229 3.33543 0
M  V30 3727 H 353.938 6.52416 2.4698 0
M  V30 3728 H 349.835 5.57304 3.25703 0
M  V30 3729 H 350.603 7.62846 2.96661 0
M  V30 3730 N 353.266 -1.05314 1.17247 0
M  V30 3731 C 354.512 -1.78557 0.961513 0
M  V30 3732 C 354.845 -1.87419 -0.508697 0
M  V30 3733 O 354.12 -1.37307 -1.37757 0
M  V30 3734 C 354.403 -3.22514 1.60176 0
M  V30 3735 C 354.256 -3.21673 3.14399 0
M  V30 3736 C 355.575 -4.20318 1.30463 0
M  V30 3737 H 352.694 -0.6482 0.350723 0
M  V30 3738 H 355.336 -1.23102 1.44727 0
M  V30 3739 H 353.486 -3.69867 1.18871 0
M  V30 3740 H 355.158 -2.82405 3.64753 0
M  V30 3741 H 353.401 -2.60048 3.47214 0
M  V30 3742 H 354.072 -4.23271 3.54324 0
M  V30 3743 H 356.548 -3.81454 1.66229 0
M  V30 3744 H 355.424 -5.19289 1.77848 0
M  V30 3745 H 355.685 -4.41526 0.22521 0
M  V30 3746 N 354.744 -0.972509 -1.24016 0
M  V30 3747 C 356.021 -0.553733 -1.87598 0
M  V30 3748 C 356.401 0.969158 -1.87538 0
M  V30 3749 O 355.749 1.84255 -1.35139 0
M  V30 3750 C 355.959 -1.15076 -3.29482 0
M  V30 3751 C 357.307 -1.23862 -4.06132 0
M  V30 3752 O 358.331 -1.10363 -3.38672 0
M  V30 3753 O 357.19 -1.45252 -5.26844 0
M  V30 3754 H 354.284 -0.185331 -0.805966 0
M  V30 3755 H 356.83 -1.06709 -1.31952 0
M  V30 3756 H 355.602 -2.19333 -3.2405 0
M  V30 3757 H 355.225 -0.621746 -3.92709 0
M  V30 3758 N 356.222 1.38976 -0.743202 0
M  V30 3759 C 357.152 2.33171 -0.123873 0
M  V30 3760 C 358.133 1.54336 0.71516 0
M  V30 3761 O 359.318 1.82696 0.658467 0
M  V30 3762 C 356.448 3.38474 0.777978 0
M  V30 3763 C 355.402 4.27979 0.0424758 0
M  V30 3764 C 354.728 5.2405 1.06189 0
M  V30 3765 C 356.028 5.10155 -1.1198 0
M  V30 3766 H 357.722 2.85213 -0.910709 0
M  V30 3767 H 355.268 1.37133 -0.439388 0
M  V30 3768 H 357.221 4.03328 1.22084 0
M  V30 3769 H 355.945 2.84891 1.59702 0
M  V30 3770 H 354.604 3.64616 -0.380853 0
M  V30 3771 H 354.252 4.66758 1.87472 0
M  V30 3772 H 353.952 5.84785 0.574485 0
M  V30 3773 H 355.476 5.9178 1.50428 0
M  V30 3774 H 356.89 5.68307 -0.75499 0
M  V30 3775 H 355.287 5.80073 -1.53738 0
M  V30 3776 H 356.357 4.44504 -1.93764 0
M  V30 3777 N 357.7 0.491464 1.49741 0
M  V30 3778 C 358.925 -0.0557177 2.07325 0
M  V30 3779 C 359.35 -1.30925 1.35056 0
M  V30 3780 O 358.708 -1.76733 0.404365 0
M  V30 3781 C 358.756 -0.302074 3.59333 0
M  V30 3782 O 357.86 -1.37868 3.88672 0
M  V30 3783 H 357.201 0.0219956 0.663636 0
M  V30 3784 H 359.731 0.688352 1.92673 0
M  V30 3785 H 359.741 -0.536464 4.04458 0
M  V30 3786 H 358.416 0.61383 4.11345 0
M  V30 3787 H 356.993 -1.12999 3.55367 0
M  V30 3788 N 359.178 -1.55987 0.224894 0
M  V30 3789 C 360.406 -2.02784 -0.410665 0
M  V30 3790 C 360.821 -1.10464 -1.53112 0
M  V30 3791 O 360.178 -0.114871 -1.82138 0
M  V30 3792 C 360.229 -3.49087 -0.939165 0
M  V30 3793 O 359.95 -4.37887 0.136614 0
M  V30 3794 C 361.451 -4.11543 -1.64763 0
M  V30 3795 H 358.671 -0.663484 -0.100148 0
M  V30 3796 H 361.215 -2.01614 0.342326 0
M  V30 3797 H 359.37 -3.50861 -1.64242 0
M  V30 3798 H 359.784 -5.23849 -0.261155 0
M  V30 3799 H 361.258 -5.15673 -1.96939 0
M  V30 3800 H 361.735 -3.56736 -2.56195 0
M  V30 3801 H 362.341 -4.13629 -0.989503 0
M  V30 3802 N 360.656 0.0484629 -1.57525 0
M  V30 3803 C 361.905 0.742065 -1.87553 0
M  V30 3804 C 362.218 1.77545 -0.820802 0
M  V30 3805 O 363.424 2.52027 -1.00967 0
M  V30 3806 C 361.88 1.37081 -3.32771 0
M  V30 3807 C 361.488 0.374786 -4.4643 0
M  V30 3808 C 363.232 2.04542 -3.71972 0
M  V30 3809 C 361.139 1.01077 -5.82698 0
M  V30 3810 H 360.069 0.280903 -0.699721 0
M  V30 3811 H 362.72 -0.00411877 -1.835 0
M  V30 3812 H 361.102 2.16605 -3.31509 0
M  V30 3813 H 362.276 -0.392331 -4.59127 0
M  V30 3814 H 360.591 -0.196653 -4.15935 0
M  V30 3815 H 363.188 2.52943 -4.71088 0
M  V30 3816 H 363.531 2.85515 -3.02964 0
M  V30 3817 H 364.064 1.31819 -3.75325 0
M  V30 3818 H 360.803 0.240878 -6.55057 0
M  V30 3819 H 360.323 1.74819 -5.73758 0
M  V30 3820 H 362.002 1.52383 -6.28799 0
M  V30 3821 N 362.134 1.5431 0.320358 0
M  V30 3822 C 363.55 1.45091 0.664889 0
M  V30 3823 C 363.75 0.626382 1.91517 0
M  V30 3824 O 362.806 0.126443 2.52183 0
M  V30 3825 C 364.119 2.88848 0.83591 0
M  V30 3826 C 365.667 2.9877 0.933046 0
M  V30 3827 C 366.142 4.43683 1.13621 0
M  V30 3828 N 367.633 4.47309 1.20287 0
M  V30 3829 C 368.368 5.56595 1.37801 0
M  V30 3830 N 367.864 6.75844 1.52338 0
M  V30 3831 N 369.657 5.44248 1.40535 0
M  V30 3832 H 361.808 2.06398 -0.501374 0
M  V30 3833 H 364.071 0.933963 -0.162534 0
M  V30 3834 H 363.777 3.51698 -0.0116092 0
M  V30 3835 H 363.651 3.35148 1.73078 0
M  V30 3836 H 366.038 2.36045 1.77107 0
M  V30 3837 H 366.119 2.55796 0.0145782 0
M  V30 3838 H 365.763 5.06995 0.303032 0
M  V30 3839 H 365.693 4.84269 2.0686 0
M  V30 3840 H 368.184 3.61388 1.10485 0
M  V30 3841 H 368.497 7.54892 1.65403 0
M  V30 3842 H 366.842 6.78746 1.4943 0
M  V30 3843 H 370.033 4.50038 1.28777 0
M  V30 3844 H 370.206 6.29473 1.53842 0
M  V30 3845 N 363.613 -0.582584 1.46437 0
M  V30 3846 C 364.862 -1.337 1.5102 0
M  V30 3847 C 365.175 -1.94891 0.166359 0
M  V30 3848 O 366.381 -2.71351 0.0899954 0
M  V30 3849 C 364.837 -2.42315 2.66104 0
M  V30 3850 C 364.445 -1.87427 4.06909 0
M  V30 3851 C 366.189 -3.19099 2.79958 0
M  V30 3852 C 364.096 -2.93672 5.13333 0
M  V30 3853 H 363.026 -0.502619 0.562041 0
M  V30 3854 H 365.677 -0.621701 1.72647 0
M  V30 3855 H 364.059 -3.16645 2.37807 0
M  V30 3856 H 365.233 -1.19639 4.44998 0
M  V30 3857 H 363.548 -1.2331 3.97723 0
M  V30 3858 H 366.145 -3.9839 3.56636 0
M  V30 3859 H 366.488 -3.71695 1.87479 0
M  V30 3860 H 367.021 -2.51875 3.07902 0
M  V30 3861 H 363.76 -2.45962 6.07604 0
M  V30 3862 H 363.28 -3.59948 4.79789 0
M  V30 3863 H 364.959 -3.5762 5.39182 0
M  V30 3864 N 365.091 -1.34144 -0.827227 0
M  V30 3865 C 366.319 -1.29325 -1.61501 0
M  V30 3866 C 366.734 0.13354 -1.88327 0
M  V30 3867 O 366.091 1.0793 -1.47164 0
M  V30 3868 C 366.142 -2.07746 -2.95844 0
M  V30 3869 O 365.863 -3.4486 -2.70191 0
M  V30 3870 C 367.364 -2.10273 -3.90256 0
M  V30 3871 H 364.584 -0.445069 -0.50215 0
M  V30 3872 H 367.128 -1.76693 -1.02955 0
M  V30 3873 H 365.283 -1.6403 -3.5096 0
M  V30 3874 H 365.697 -3.85345 -3.55822 0
M  V30 3875 H 367.171 -2.69575 -4.81698 0
M  V30 3876 H 367.648 -1.096 -4.25305 0
M  V30 3877 H 368.254 -2.54059 -3.41078 0
M  V30 3878 N 366.569 1.04691 -1.17803 0
M  V30 3879 C 367.98 1.59238 -0.974689 0
M  V30 3880 C 368.331 1.90306 0.477292 0
M  V30 3881 O 367.456 1.68846 1.35352 0
M  V30 3882 C 368.051 2.89318 -1.76296 0
M  V30 3883 C 366.61 3.40506 -1.60414 0
M  V30 3884 C 365.757 2.14172 -1.76141 0
M  V30 3885 H 368.708 0.874395 -1.32439 0
M  V30 3886 H 368.729 3.5944 -1.24833 0
M  V30 3887 H 368.241 2.66675 -2.81968 0
M  V30 3888 H 366.342 3.68175 -0.572519 0
M  V30 3889 H 366.455 4.14753 -2.39827 0
M  V30 3890 H 364.819 2.25176 -1.19028 0
M  V30 3891 H 365.602 1.93992 -2.83235 0
M  V30 3892 N 368.047 0.979072 1.23499 0
M  V30 3893 C 369.275 0.665202 1.95915 0
M  V30 3894 C 369.69 -0.767571 1.72493 0
M  V30 3895 O 369.047 -1.51635 1.01554 0
M  V30 3896 C 369.098 0.944438 3.48945 0
M  V30 3897 O 368.819 2.3209 3.71572 0
M  V30 3898 C 370.32 0.646336 4.38563 0
M  V30 3899 H 367.54 0.247218 0.623798 0
M  V30 3900 H 370.084 1.31009 1.57025 0
M  V30 3901 H 368.239 0.345575 3.85856 0
M  V30 3902 H 368.653 2.40957 4.65876 0
M  V30 3903 H 370.127 0.892091 5.44744 0
M  V30 3904 H 370.604 -0.419575 4.37191 0
M  V30 3905 H 371.21 1.22562 4.07258 0
M  V30 3906 N 369.525 -1.3858 0.750561 0
M  V30 3907 C 370.802 -1.94231 0.231009 0
M  V30 3908 C 371.182 -1.68611 -1.27018 0
M  V30 3909 O 370.53 -1.02296 -2.04323 0
M  V30 3910 C 370.74 -3.44123 0.581428 0
M  V30 3911 C 372.088 -4.2116 0.539389 0
M  V30 3912 O 373.112 -3.52391 0.519541 0
M  V30 3913 O 371.971 -5.43749 0.54765 0
M  V30 3914 H 369.065 -0.825639 0.0474263 0
M  V30 3915 H 371.611 -1.4799 0.830478 0
M  V30 3916 H 370.383 -3.56267 1.61833 0
M  V30 3917 H 370.006 -3.97573 -0.0462047 0
M  V30 3918 N 371.003 -0.499398 -1.49478 0
M  V30 3919 C 372.228 0.044722 -2.07352 0
M  V30 3920 C 372.653 1.30207 -1.35749 0
M  V30 3921 O 372.011 1.76516 -0.413732 0
M  V30 3922 C 372.059 0.283013 -3.59488 0
M  V30 3923 O 371.163 1.35804 -3.89398 0
M  V30 3924 H 370.504 -0.0255147 -0.66351 0
M  V30 3925 H 373.034 -0.698561 -1.92305 0
M  V30 3926 H 373.044 0.515007 -4.04737 0
M  V30 3927 H 371.719 -0.635636 -4.11014 0
M  V30 3928 H 370.296 1.11113 -3.55961 0
M  V30 3929 N 372.481 1.55866 -0.233164 0
M  V30 3930 C 373.897 1.59133 0.121988 0
M  V30 3931 C 374.097 1.25016 1.58029 0
M  V30 3932 O 373.153 0.990922 2.32243 0
M  V30 3933 C 374.466 2.99932 -0.214792 0
M  V30 3934 C 376.014 3.12601 -0.157971 0
M  V30 3935 C 376.489 4.55597 -0.46859 0
M  V30 3936 N 377.98 4.61305 -0.418585 0
M  V30 3937 C 378.715 5.69903 -0.63227 0
M  V30 3938 N 378.211 6.86819 -0.90835 0
M  V30 3939 N 380.004 5.59264 -0.563913 0
M  V30 3940 H 372.155 1.76315 -1.18434 0
M  V30 3941 H 374.418 0.820093 -0.475553 0
M  V30 3942 H 374.124 3.29588 -1.22739 0
M  V30 3943 H 373.998 3.74327 0.464691 0
M  V30 3944 H 376.385 2.82735 0.845283 0
M  V30 3945 H 376.466 2.40511 -0.871102 0
M  V30 3946 H 376.11 4.86182 -1.46934 0
M  V30 3947 H 376.04 5.25928 0.265865 0
M  V30 3948 H 378.531 3.77297 -0.213368 0
M  V30 3949 H 378.844 7.65507 -1.05919 0
M  V30 3950 H 377.189 6.88536 -0.945673 0
M  V30 3951 H 380.38 4.66802 -0.348372 0
M  V30 3952 H 380.553 6.43831 -0.733847 0
M  V30 3953 N 373.959 -0.0401083 1.57549 0
M  V30 3954 C 375.205 -0.728793 1.89895 0
M  V30 3955 C 375.56 -1.73551 0.830535 0
M  V30 3956 O 374.853 -1.90914 -0.162007 0
M  V30 3957 C 375.047 -1.44902 3.26708 0
M  V30 3958 C 374.876 -0.513568 4.46758 0
M  V30 3959 C 373.646 -0.138698 5.0511 0
M  V30 3960 C 375.844 0.203341 5.13898 0
M  V30 3961 N 373.826 0.799159 6.08676 0
M  V30 3962 C 375.197 0.997246 6.11927 0
M  V30 3963 C 377.252 0.271459 4.97159 0
M  V30 3964 C 375.955 1.85299 6.95023 0
M  V30 3965 C 377.981 1.11429 5.80808 0
M  V30 3966 C 377.343 1.89615 6.78399 0
M  V30 3967 H 373.442 -0.241125 0.743897 0
M  V30 3968 H 376.026 0.0108016 1.94697 0
M  V30 3969 H 374.197 -2.15914 3.22856 0
M  V30 3970 H 375.929 -2.08921 3.46603 0
M  V30 3971 H 372.684 -0.498496 4.70969 0
M  V30 3972 H 373.108 1.26227 6.65128 0
M  V30 3973 H 377.75 -0.318709 4.21597 0
M  V30 3974 H 375.468 2.454 7.69938 0
M  V30 3975 H 379.054 1.17038 5.69906 0
M  V30 3976 H 377.934 2.53779 7.42001 0
M  V30 3977 N 375.437 -1.54477 -0.31217 0
M  V30 3978 C 376.683 -1.73483 -1.0503 0
M  V30 3979 C 377.016 -0.513125 -1.87298 0
M  V30 3980 O 376.291 0.489864 -1.8823 0
M  V30 3981 C 376.574 -3.01723 -1.96558 0
M  V30 3982 C 376.427 -4.3417 -1.17545 0
M  V30 3983 C 377.746 -3.25772 -2.95907 0
M  V30 3984 H 374.865 -0.631222 -0.380432 0
M  V30 3985 H 377.507 -1.87184 -0.325932 0
M  V30 3986 H 375.657 -2.90174 -2.58324 0
M  V30 3987 H 377.329 -4.5762 -0.581513 0
M  V30 3988 H 375.572 -4.31159 -0.477925 0
M  V30 3989 H 376.243 -5.20143 -1.84811 0
M  V30 3990 H 378.719 -3.36857 -2.44267 0
M  V30 3991 H 377.595 -4.16838 -3.57123 0
M  V30 3992 H 377.856 -2.43537 -3.68974 0
M  V30 3993 N 376.915 0.57481 -1.46744 0
M  V30 3994 C 378.163 1.33009 -1.52161 0
M  V30 3995 C 378.484 1.94185 -0.178092 0
M  V30 3996 O 377.754 1.7899 0.796196 0
M  V30 3997 H 376.334 0.493873 -0.560445 0
M  V30 3998 H 378.996 0.672589 -1.82927 0
M  V30 3999 H 378.092 2.13273 -2.27862 0
M  V30 4000 N 378.394 1.34581 0.820102 0
M  V30 4001 C 379.357 1.2628 1.91275 0
M  V30 4002 C 380.357 0.177344 1.59819 0
M  V30 4003 O 381.547 0.430156 1.68806 0
M  V30 4004 C 378.679 0.950327 3.27386 0
M  V30 4005 H 379.872 2.23421 2.00057 0
M  V30 4006 H 377.425 1.1891 1.0144 0
M  V30 4007 H 378.16 -0.0177938 3.24295 0
M  V30 4008 H 377.945 1.73549 3.51601 0
M  V30 4009 H 379.435 0.917492 4.07396 0
M  V30 4010 N 379.872 -1.04064 1.18357 0
M  V30 4011 C 381.118 -1.77658 0.990412 0
M  V30 4012 C 381.473 -1.86446 -0.474944 0
M  V30 4013 O 380.766 -1.36153 -1.34807 0
M  V30 4014 C 380.96 -3.20634 1.57888 0
M  V30 4015 C 380.789 -3.25782 3.09994 0
M  V30 4016 C 379.559 -3.34411 3.7881 0
M  V30 4017 C 381.757 -3.13791 4.0748 0
M  V30 4018 N 379.739 -3.28809 5.18418 0
M  V30 4019 C 381.11 -3.15689 5.33611 0
M  V30 4020 C 383.165 -2.97833 3.98998 0
M  V30 4021 C 381.868 -3.03268 6.52243 0
M  V30 4022 C 383.894 -2.86759 5.17227 0
M  V30 4023 C 383.256 -2.893 6.4225 0
M  V30 4024 H 379.355 -0.661901 0.416427 0
M  V30 4025 H 381.939 -1.23968 1.50133 0
M  V30 4026 H 380.11 -3.7267 1.09414 0
M  V30 4027 H 381.842 -3.82525 1.32124 0
M  V30 4028 H 378.597 -3.40144 3.29543 0
M  V30 4029 H 379.021 -3.29448 5.91433 0
M  V30 4030 H 383.663 -2.94698 3.03171 0
M  V30 4031 H 381.381 -3.05156 7.48268 0
M  V30 4032 H 384.967 -2.75465 5.12455 0
M  V30 4033 H 383.847 -2.80818 7.32196 0
M  V30 4034 N 381.35 -0.985608 -1.22978 0
M  V30 4035 C 382.596 -0.667998 -1.92118 0
M  V30 4036 C 382.951 0.790454 -1.75413 0
M  V30 4037 O 382.244 1.56336 -1.10768 0
M  V30 4038 C 382.438 -1.00014 -3.43121 0
M  V30 4039 C 382.267 -2.48933 -3.74516 0
M  V30 4040 C 381.037 -3.15218 -3.94925 0
M  V30 4041 C 383.235 -3.47024 -3.79577 0
M  V30 4042 N 381.217 -4.53689 -4.13569 0
M  V30 4043 C 382.588 -4.70923 -4.03276 0
M  V30 4044 C 384.643 -3.41432 -3.62393 0
M  V30 4045 C 383.346 -5.89914 -4.11574 0
M  V30 4046 C 385.372 -4.59793 -3.71947 0
M  V30 4047 C 384.734 -5.82489 -3.96088 0
M  V30 4048 H 380.833 -0.295589 -0.723983 0
M  V30 4049 H 383.417 -1.26413 -1.4808 0
M  V30 4050 H 381.588 -0.432655 -3.85983 0
M  V30 4051 H 383.32 -0.63927 -3.99619 0
M  V30 4052 H 380.075 -2.65702 -3.92045 0
M  V30 4053 H 380.499 -5.25492 -4.26834 0
M  V30 4054 H 385.141 -2.47594 -3.4272 0
M  V30 4055 H 382.859 -6.84164 -4.30053 0
M  V30 4056 H 386.445 -4.57048 -3.59998 0
M  V30 4057 H 385.325 -6.72546 -4.033 0
M  V30 4058 N 382.828 1.3818 -0.7579 0
M  V30 4059 C 383.758 2.33027 -0.148597 0
M  V30 4060 C 384.739 1.55085 0.69875 0
M  V30 4061 O 385.924 1.83384 0.639053 0
M  V30 4062 C 383.054 3.3928 0.742034 0
M  V30 4063 C 382.008 4.28 -0.00291946 0
M  V30 4064 C 381.334 5.25146 1.00625 0
M  V30 4065 C 382.634 5.08938 -1.17385 0
M  V30 4066 H 384.328 2.84231 -0.940909 0
M  V30 4067 H 381.874 1.36659 -0.453908 0
M  V30 4068 H 383.827 4.046 1.17799 0
M  V30 4069 H 382.551 2.86569 1.56671 0
M  V30 4070 H 381.21 3.64192 -0.419504 0
M  V30 4071 H 380.858 4.68721 1.8251 0
M  V30 4072 H 380.558 5.85361 0.512428 0
M  V30 4073 H 382.082 5.93342 1.44143 0
M  V30 4074 H 383.496 5.67474 -0.815224 0
M  V30 4075 H 381.893 5.7841 -1.59882 0
M  V30 4076 H 382.963 4.42424 -1.98468 0
M  V30 4077 N 384.306 0.507319 1.49211 0
M  V30 4078 C 385.254 -0.281364 2.30892 0
M  V30 4079 C 386.248 -0.95687 1.39787 0
M  V30 4080 O 387.454 -0.883838 1.56807 0
M  V30 4081 H 383.829 -0.109597 0.743971 0
M  V30 4082 H 385.8 0.42744 2.95323 0
M  V30 4083 C 384.549 -1.32918 3.21291 0
M  V30 4084 H 383.872 -0.818799 3.91326 0
M  V30 4085 H 385.312 -1.85288 3.81372 0
M  V30 4086 C 383.771 -2.35074 2.41333 0
M  V30 4087 O 384.301 -3.4108 2.12197 0
M  V30 4088 N 382.507 -2.07705 2.03241 0
M  V30 4089 H 382.054 -1.2152 2.27136 0
M  V30 4090 H 382.012 -2.76283 1.50051 0
M  V30 4091 N 385.784 -1.5574 0.241426 0
M  V30 4092 C 387.031 -1.9881 -0.384836 0
M  V30 4093 C 387.359 -1.12947 -1.58346 0
M  V30 4094 O 386.614 -0.178993 -1.9488 0
M  V30 4095 C 386.913 -3.47308 -0.843317 0
M  V30 4096 C 386.579 -4.50223 0.246946 0
M  V30 4097 C 385.241 -4.78088 0.546399 0
M  V30 4098 C 387.593 -5.11841 0.983282 0
M  V30 4099 C 384.921 -5.64846 1.58636 0
M  V30 4100 C 387.273 -5.99727 2.01272 0
M  V30 4101 C 385.937 -6.25927 2.31888 0
M  V30 4102 H 385.207 -0.727496 -0.140821 0
M  V30 4103 H 387.854 -1.8831 0.348106 0
M  V30 4104 H 386.159 -3.55112 -1.65537 0
M  V30 4105 H 387.856 -3.78017 -1.33806 0
M  V30 4106 H 384.446 -4.286 0.00340639 0
M  V30 4107 H 388.63 -4.90366 0.765182 0
M  V30 4108 H 383.886 -5.83403 1.82896 0
M  V30 4109 H 388.06 -6.46517 2.58823 0
M  V30 4110 H 385.687 -6.92949 3.12611 0
M  V30 4111 N 387.262 0.0317525 -1.57568 0
M  V30 4112 C 388.192 1.03274 -2.0942 0
M  V30 4113 C 389.173 1.3788 -0.996143 0
M  V30 4114 O 390.358 1.46811 -1.27122 0
M  V30 4115 C 387.488 2.33448 -2.57137 0
M  V30 4116 C 386.442 2.13091 -3.71182 0
M  V30 4117 C 385.768 3.49001 -4.05095 0
M  V30 4118 C 387.068 1.51928 -4.99715 0
M  V30 4119 H 388.762 0.60112 -2.93303 0
M  V30 4120 H 386.308 0.287705 -1.41097 0
M  V30 4121 H 388.261 3.03802 -2.92032 0
M  V30 4122 H 386.985 2.78665 -1.70333 0
M  V30 4123 H 385.644 1.45171 -3.36632 0
M  V30 4124 H 385.292 3.91862 -3.15362 0
M  V30 4125 H 384.992 3.36207 -4.81911 0
M  V30 4126 H 386.516 4.20721 -4.42522 0
M  V30 4127 H 387.93 2.12196 -5.32584 0
M  V30 4128 H 386.327 1.49716 -5.81124 0
M  V30 4129 H 387.397 0.484811 -4.8247 0
M  V30 4130 N 388.74 1.54641 0.303973 0
M  V30 4131 C 389.986 1.74038 1.04109 0
M  V30 4132 C 390.319 0.523051 1.87024 0
M  V30 4133 O 389.594 -0.479874 1.88487 0
M  V30 4134 C 389.877 3.02761 1.94955 0
M  V30 4135 C 389.73 4.34787 1.1524 0
M  V30 4136 C 391.049 3.27336 2.94175 0
M  V30 4137 H 388.168 0.63323 0.377079 0
M  V30 4138 H 390.81 1.87354 0.316001 0
M  V30 4139 H 388.96 2.9154 2.56782 0
M  V30 4140 H 390.632 4.57922 0.557236 0
M  V30 4141 H 388.875 4.31407 0.455053 0
M  V30 4142 H 389.546 5.21116 1.8205 0
M  V30 4143 H 392.022 3.38148 2.42477 0
M  V30 4144 H 390.898 4.18726 3.54908 0
M  V30 4145 H 391.159 2.45491 3.67677 0
M  V30 4146 N 390.218 -0.567019 1.47046 0
M  V30 4147 C 391.443 -1.3551 1.57009 0
M  V30 4148 C 391.868 -1.86841 0.217259 0
M  V30 4149 O 391.226 -1.62435 -0.805268 0
M  V30 4150 C 391.274 -2.50777 2.5912 0
M  V30 4151 O 390.378 -3.52706 2.13711 0
M  V30 4152 H 389.719 -0.402919 0.52778 0
M  V30 4153 H 392.249 -0.686241 1.92748 0
M  V30 4154 H 392.259 -2.97481 2.79229 0
M  V30 4155 H 390.934 -2.12771 3.57353 0
M  V30 4156 H 389.511 -3.12374 2.03659 0
M  V30 4157 N 391.696 -1.35014 -0.812953 0
M  V30 4158 C 392.944 -1.27678 -1.56661 0
M  V30 4159 C 393.265 0.150359 -1.94419 0
M  V30 4160 O 392.535 1.08532 -1.63088 0
M  V30 4161 H 391.115 -0.469602 -0.580933 0
M  V30 4162 H 393.777 -1.69043 -0.970076 0
M  V30 4163 H 392.873 -1.88833 -2.48492 0
M  V30 4164 N 393.175 1.03435 -1.18907 0
M  V30 4165 C 394.105 2.13503 -0.945448 0
M  V30 4166 C 395.086 1.69682 0.119189 0
M  V30 4167 O 396.271 1.94169 -0.034707 0
M  V30 4168 C 393.401 3.44004 -0.477316 0
M  V30 4169 C 392.355 4.0148 -1.48316 0
M  V30 4170 C 391.681 5.27537 -0.872311 0
M  V30 4171 C 392.981 4.36921 -2.86177 0
M  V30 4172 H 394.675 2.34141 -1.86597 0
M  V30 4173 H 392.221 1.12523 -0.898584 0
M  V30 4174 H 394.174 4.20372 -0.294204 0
M  V30 4175 H 392.898 3.23072 0.478786 0
M  V30 4176 H 391.557 3.27201 -1.65332 0
M  V30 4177 H 391.205 5.02917 0.0911752 0
M  V30 4178 H 390.905 5.66954 -1.54393 0
M  V30 4179 H 392.429 6.06576 -0.699871 0
M  V30 4180 H 393.843 5.04248 -2.72776 0
M  V30 4181 H 392.24 4.87405 -3.50081 0
M  V30 4182 H 393.31 3.46466 -3.39248 0
M  V30 4183 N 394.653 0.992116 1.22453 0
M  V30 4184 C 395.9 0.667534 1.91181 0
M  V30 4185 C 396.228 -0.800317 1.77271 0
M  V30 4186 O 395.483 -1.59421 1.13505 0
M  V30 4187 C 395.782 1.01832 3.42586 0
M  V30 4188 C 395.448 2.47831 3.76684 0
M  V30 4189 C 394.11 2.87729 3.85701 0
M  V30 4190 C 396.462 3.42466 3.92895 0
M  V30 4191 C 393.79 4.21252 4.08367 0
M  V30 4192 C 396.142 4.75648 4.17064 0
M  V30 4193 C 394.806 5.15288 4.24305 0
M  V30 4194 H 394.076 0.244268 0.699581 0
M  V30 4195 H 396.723 1.24816 1.45235 0
M  V30 4196 H 395.028 0.355769 3.90181 0
M  V30 4197 H 396.725 0.745228 3.94014 0
M  V30 4198 H 393.315 2.15905 3.70247 0
M  V30 4199 H 397.499 3.12814 3.85307 0
M  V30 4200 H 392.755 4.51554 4.122 0
M  V30 4201 H 396.929 5.48924 4.2855 0
M  V30 4202 H 394.556 6.18769 4.41621 0
M  V30 4203 N 396.131 -1.37776 0.765217 0
M  V30 4204 C 397.356 -2.04651 0.336537 0
M  V30 4205 C 397.781 -1.57337 -1.03086 0
M  V30 4206 O 397.139 -0.730621 -1.65927 0
M  V30 4207 C 397.187 -3.58577 0.381468 0
M  V30 4208 O 396.291 -4.07706 -0.62042 0
M  V30 4209 H 395.632 -0.64756 0.146838 0
M  V30 4210 H 398.162 -1.76221 1.03959 0
M  V30 4211 H 398.172 -4.07314 0.236448 0
M  V30 4212 H 396.847 -3.9237 1.37907 0
M  V30 4213 H 395.424 -3.70306 -0.439056 0
M  V30 4214 N 397.609 -0.515225 -1.4894 0
M  V30 4215 C 398.858 0.0261361 -2.01683 0
M  V30 4216 C 399.171 1.36719 -1.39883 0
M  V30 4217 O 400.377 1.99606 -1.84037 0
M  V30 4218 C 398.833 0.0970111 -3.59769 0
M  V30 4219 C 398.441 -1.23825 -4.30548 0
M  V30 4220 C 400.185 0.587981 -4.20408 0
M  V30 4221 C 398.092 -1.12877 -5.80528 0
M  V30 4222 H 397.022 0.0135398 -0.753878 0
M  V30 4223 H 399.673 -0.656787 -1.71343 0
M  V30 4224 H 398.055 0.844694 -3.86886 0
M  V30 4225 H 399.229 -2.00034 -4.15118 0
M  V30 4226 H 397.544 -1.66379 -3.81716 0
M  V30 4227 H 400.141 0.68763 -5.3026 0
M  V30 4228 H 400.484 1.59026 -3.84729 0
M  V30 4229 H 401.017 -0.103582 -3.97665 0
M  V30 4230 H 397.756 -2.10575 -6.20756 0
M  V30 4231 H 397.276 -0.407799 -5.98412 0
M  V30 4232 H 398.955 -0.813332 -6.41868 0
M  V30 4233 N 399.087 1.5561 -0.249682 0
M  V30 4234 C 400.336 1.98187 0.37479 0
M  V30 4235 C 400.649 1.14111 1.58865 0
M  V30 4236 O 401.855 1.46714 2.28445 0
M  V30 4237 C 400.311 3.52661 0.718192 0
M  V30 4238 C 399.919 4.45481 -0.474428 0
M  V30 4239 C 401.663 4.03888 1.3067 0
M  V30 4240 C 399.57 5.91303 -0.107026 0
M  V30 4241 H 398.5 0.740159 0.143808 0
M  V30 4242 H 401.151 1.80125 -0.350336 0
M  V30 4243 H 399.533 3.66429 1.50152 0
M  V30 4244 H 400.707 4.43473 -1.25172 0
M  V30 4245 H 399.022 4.04751 -0.978052 0
M  V30 4246 H 401.619 5.10358 1.59496 0
M  V30 4247 H 401.962 3.51401 2.23211 0
M  V30 4248 H 402.495 3.93457 0.586211 0
M  V30 4249 H 399.234 6.47833 -0.999642 0
M  V30 4250 H 398.754 5.9644 0.634013 0
M  V30 4251 H 400.433 6.46258 0.309807 0
M  V30 4252 N 400.565 -0.0233959 1.57583 0
M  V30 4253 C 401.79 -0.728376 1.94189 0
M  V30 4254 C 402.215 -1.67793 0.850119 0
M  V30 4255 O 401.573 -1.80262 -0.19371 0
M  V30 4256 C 401.621 -1.45669 3.29868 0
M  V30 4257 O 400.725 -2.57013 3.22518 0
M  V30 4258 H 400.066 -0.195493 0.63457 0
M  V30 4259 H 402.596 0.0228214 2.04587 0
M  V30 4260 H 402.606 -1.82535 3.6489 0
M  V30 4261 H 401.281 -0.760314 4.08891 0
M  V30 4262 H 399.858 -2.22648 2.99136 0
M  V30 4263 N 402.043 -1.548 -0.295768 0
M  V30 4264 C 403.268 -1.78653 -1.05346 0
M  V30 4265 C 403.693 -0.546894 -1.79974 0
M  V30 4266 O 403.051 0.502763 -1.7419 0
M  V30 4267 C 403.099 -2.99679 -2.00561 0
M  V30 4268 O 402.203 -2.7317 -3.08953 0
M  V30 4269 H 401.544 -0.59116 -0.302367 0
M  V30 4270 H 404.074 -2.01895 -0.331598 0
M  V30 4271 H 404.084 -3.27793 -2.42932 0
M  V30 4272 H 402.759 -3.89562 -1.4565 0
M  V30 4273 H 401.336 -2.56089 -2.71059 0
M  V30 4274 N 403.521 0.559213 -1.47345 0
M  V30 4275 C 404.77 1.31281 -1.53128 0
M  V30 4276 C 405.083 1.94602 -0.197344 0
M  V30 4277 O 406.289 2.71173 -0.133154 0
M  V30 4278 C 404.745 2.38051 -2.69925 0
M  V30 4279 C 404.353 1.8093 -4.0984 0
M  V30 4280 C 406.097 3.14604 -2.84999 0
M  V30 4281 C 404.004 2.85468 -5.1794 0
M  V30 4282 H 402.934 0.493614 -0.569966 0
M  V30 4283 H 405.585 0.594155 -1.73615 0
M  V30 4284 H 403.967 3.12822 -2.42814 0
M  V30 4285 H 405.141 1.12544 -4.46845 0
M  V30 4286 H 403.456 1.16967 -3.99634 0
M  V30 4287 H 406.053 3.92666 -3.62929 0
M  V30 4288 H 406.396 3.68665 -1.93369 0
M  V30 4289 H 406.929 2.46945 -3.1187 0
M  V30 4290 H 403.668 2.36264 -6.1144 0
M  V30 4291 H 403.188 3.52269 -4.85455 0
M  V30 4292 H 404.867 3.48996 -5.44803 0
M  V30 4293 N 404.999 1.35443 0.805782 0
M  V30 4294 C 406.41 1.25768 1.37983 0
M  V30 4295 C 406.761 -0.10958 1.95894 0
M  V30 4296 O 405.886 -1.01056 1.91355 0
M  V30 4297 C 406.481 2.27727 2.5085 0
M  V30 4298 C 405.04 2.2179 3.04115 0
M  V30 4299 C 404.187 2.13393 1.77084 0
M  V30 4300 H 407.138 1.4656 0.608752 0
M  V30 4301 H 407.159 1.90422 3.29424 0
M  V30 4302 H 406.671 3.27227 2.08671 0
M  V30 4303 H 404.772 1.25703 3.50756 0
M  V30 4304 H 404.885 3.13788 3.62042 0
M  V30 4305 H 403.249 1.59384 1.98668 0
M  V30 4306 H 404.032 3.14755 1.37056 0
M  V30 4307 N 406.477 -1.02803 1.19454 0
M  V30 4308 C 407.724 -1.76217 0.997693 0
M  V30 4309 C 408.052 -1.887 -0.47144 0
M  V30 4310 O 407.307 -1.4011 -1.3663 0
M  V30 4311 C 407.606 -3.18941 1.6128 0
M  V30 4312 C 407.272 -3.26463 3.11019 0
M  V30 4313 C 405.934 -3.28223 3.51885 0
M  V30 4314 C 408.286 -3.25542 4.07028 0
M  V30 4315 C 405.614 -3.26719 4.8731 0
M  V30 4316 C 407.966 -3.25579 5.42385 0
M  V30 4317 C 406.63 -3.25637 5.82681 0
M  V30 4318 H 405.9 -0.644823 0.365082 0
M  V30 4319 H 408.547 -1.20655 1.4871 0
M  V30 4320 H 406.852 -3.77587 1.04572 0
M  V30 4321 H 408.549 -3.74415 1.43577 0
M  V30 4322 H 405.139 -3.25822 2.78457 0
M  V30 4323 H 409.323 -3.23362 3.76498 0
M  V30 4324 H 404.579 -3.25089 5.1781 0
M  V30 4325 H 408.753 -3.23817 6.16535 0
M  V30 4326 H 406.38 -3.24226 6.87591 0
M  V30 4327 N 407.956 -0.998596 -1.21925 0
M  V30 4328 C 409.203 -0.677663 -1.90824 0
M  V30 4329 C 409.531 0.790905 -1.77693 0
M  V30 4330 O 408.786 1.58817 -1.14349 0
M  V30 4331 C 409.085 -1.03648 -3.42041 0
M  V30 4332 C 408.751 -2.49825 -3.75364 0
M  V30 4333 C 407.413 -2.8977 -3.8417 0
M  V30 4334 C 409.765 -3.44545 -3.91073 0
M  V30 4335 C 407.093 -4.23412 -4.06127 0
M  V30 4336 C 409.445 -4.77853 -4.14535 0
M  V30 4337 C 408.109 -5.17531 -4.21566 0
M  V30 4338 H 407.379 -0.247975 -0.698276 0
M  V30 4339 H 410.026 -1.25584 -1.44571 0
M  V30 4340 H 408.331 -0.376457 -3.89987 0
M  V30 4341 H 410.028 -0.766113 -3.93614 0
M  V30 4342 H 406.618 -2.17866 -3.69097 0
M  V30 4343 H 410.802 -3.14853 -3.83642 0
M  V30 4344 H 406.058 -4.53734 -4.09799 0
M  V30 4345 H 410.232 -5.51189 -4.25633 0
M  V30 4346 H 407.859 -6.21102 -4.38333 0
M  V30 4347 N 409.434 1.37368 -0.772513 0
M  V30 4348 C 410.681 1.99673 -0.337182 0
M  V30 4349 C 411.009 1.61324 1.0865 0
M  V30 4350 O 410.264 0.851377 1.7621 0
M  V30 4351 C 410.563 3.54817 -0.428876 0
M  V30 4352 C 410.229 4.12936 -1.81092 0
M  V30 4353 C 408.891 4.28523 -2.1891 0
M  V30 4354 C 411.243 4.44801 -2.71664 0
M  V30 4355 C 408.571 4.73277 -3.46735 0
M  V30 4356 C 410.923 4.90981 -3.98899 0
M  V30 4357 C 409.587 5.04773 -4.36761 0
M  V30 4358 H 408.857 0.730656 -0.123384 0
M  V30 4359 H 411.504 1.64124 -0.986686 0
M  V30 4360 H 409.809 3.90618 0.304167 0
M  V30 4361 H 411.506 4.00933 -0.0733334 0
M  V30 4362 H 408.096 4.01233 -1.50699 0
M  V30 4363 H 412.28 4.32344 -2.43706 0
M  V30 4364 H 407.536 4.82142 -3.75964 0
M  V30 4365 H 411.71 5.14603 -4.69208 0
M  V30 4366 H 409.337 5.39211 -5.35868 0
M  V30 4367 N 410.912 0.523116 1.48665 0
M  V30 4368 C 411.842 -0.23231 2.32342 0
M  V30 4369 C 412.823 -0.941637 1.41659 0
M  V30 4370 O 414.008 -0.928751 1.70552 0
M  V30 4371 C 411.138 -1.28387 3.22698 0
M  V30 4372 C 410.092 -0.693098 4.22351 0
M  V30 4373 C 409.418 -1.8468 5.01794 0
M  V30 4374 C 410.718 0.33063 5.21252 0
M  V30 4375 H 412.412 0.466192 2.95748 0
M  V30 4376 H 409.958 0.225643 1.42221 0
M  V30 4377 H 411.911 -1.82024 3.80059 0
M  V30 4378 H 410.635 -2.01186 2.57278 0
M  V30 4379 H 409.294 -0.178299 3.66166 0
M  V30 4380 H 408.942 -2.56301 4.32804 0
M  V30 4381 H 408.642 -1.45747 5.69238 0
M  V30 4382 H 410.166 -2.38709 5.62006 0
M  V30 4383 H 411.58 -0.118407 5.73178 0
M  V30 4384 H 409.977 0.636974 5.9671 0
M  V30 4385 H 411.047 1.23883 4.68808 0
M  V30 4386 N 412.39 -1.55475 0.257931 0
M  V30 4387 C 413.801 -1.8511 -0.243135 0
M  V30 4388 C 414.152 -1.17986 -1.5676 0
M  V30 4389 O 413.277 -0.462102 -2.11409 0
M  V30 4390 C 413.872 -3.35826 -0.447929 0
M  V30 4391 C 412.431 -3.65647 -0.893245 0
M  V30 4392 C 411.578 -2.7729 0.0232965 0
M  V30 4393 H 414.529 -1.51261 0.480199 0
M  V30 4394 H 414.55 -3.58002 -1.28898 0
M  V30 4395 H 414.062 -3.84652 0.516196 0
M  V30 4396 H 412.163 -3.22308 -1.86945 0
M  V30 4397 H 412.276 -4.73312 -0.742469 0
M  V30 4398 H 410.64 -2.49942 -0.490021 0
M  V30 4399 H 411.423 -3.28926 0.982994 0
M  V30 4400 N 413.868 0.0150385 -1.57593 0
M  V30 4401 C 414.8 1.03912 -2.04291 0
M  V30 4402 C 415.813 1.31618 -0.958146 0
M  V30 4403 O 417.002 1.28859 -1.23522 0
M  V30 4404 C 414.102 2.37749 -2.41514 0
M  V30 4405 C 413.275 2.29198 -3.72541 0
M  V30 4406 C 412.334 3.45598 -3.96797 0
M  V30 4407 O 411.36 3.24461 -4.67668 0
M  V30 4408 N 412.562 4.67945 -3.43523 0
M  V30 4409 H 415.327 0.64099 -2.92765 0
M  V30 4410 H 412.888 0.20272 -1.60626 0
M  V30 4411 H 414.88 3.14364 -2.54867 0
M  V30 4412 H 413.45 2.69357 -1.58637 0
M  V30 4413 H 412.67 1.3759 -3.69408 0
M  V30 4414 H 413.958 2.20642 -4.5847 0
M  V30 4415 H 413.356 4.88017 -2.86104 0
M  V30 4416 H 411.913 5.41878 -3.62232 0
M  V30 4417 N 415.346 1.54954 0.287554 0
M  V30 4418 C 416.574 1.78881 1.03967 0
M  V30 4419 C 416.989 0.554894 1.80462 0
M  V30 4420 O 416.346 -0.475676 1.76192 0
M  V30 4421 C 416.397 3.00488 2.0097 0
M  V30 4422 O 416.118 4.19113 1.27577 0
M  V30 4423 C 417.619 3.36907 2.88112 0
M  V30 4424 H 414.839 0.596259 0.307761 0
M  V30 4425 H 417.383 2.01937 0.322749 0
M  V30 4426 H 415.538 2.79601 2.68145 0
M  V30 4427 H 415.952 4.87765 1.92835 0
M  V30 4428 H 417.426 4.25205 3.52001 0
M  V30 4429 H 417.903 2.55659 3.57121 0
M  V30 4430 H 418.509 3.60001 2.26449 0
M  V30 4431 N 416.824 -0.551391 1.4764 0
M  V30 4432 C 418.235 -1.13349 1.48354 0
M  V30 4433 C 418.586 -1.94709 0.241432 0
M  V30 4434 O 417.711 -2.06306 -0.653205 0
M  V30 4435 C 418.306 -2.0623 2.68802 0
M  V30 4436 C 416.865 -2.597 2.72457 0
M  V30 4437 C 416.012 -1.36201 2.41546 0
M  V30 4438 H 418.963 -0.337698 1.55065 0
M  V30 4439 H 418.984 -2.90196 2.46103 0
M  V30 4440 H 418.496 -1.46987 3.59188 0
M  V30 4441 H 416.597 -3.22724 1.86225 0
M  V30 4442 H 416.71 -3.00296 3.73308 0
M  V30 4443 H 415.074 -1.67068 1.9225 0
M  V30 4444 H 415.857 -0.787425 3.34147 0
M  V30 4445 N 418.302 -1.35869 -0.798587 0
M  V30 4446 C 419.25 -1.29491 -1.93222 0
M  V30 4447 C 420.244 -0.18836 -1.6835 0
M  V30 4448 O 421.45 -0.354822 -1.76468 0
M  V30 4449 H 417.825 -0.402901 -0.63496 0
M  V30 4450 H 419.796 -2.25247 -1.9572 0
M  V30 4451 C 418.545 -1.09184 -3.30112 0
M  V30 4452 H 417.868 -1.93574 -3.49813 0
M  V30 4453 H 419.308 -1.08766 -4.09812 0
M  V30 4454 C 417.767 0.203959 -3.36282 0
M  V30 4455 O 418.297 1.19699 -3.83451 0
M  V30 4456 N 416.503 0.245488 -2.89561 0
M  V30 4457 H 416.05 -0.563223 -2.51367 0
M  V30 4458 H 416.008 1.11219 -2.94071 0
M  V30 4459 N 419.78 1.02168 -1.19998 0
M  V30 4460 C 420.727 2.10601 -0.944228 0
M  V30 4461 C 421.697 1.65639 0.123664 0
M  V30 4462 O 422.882 1.9079 -0.0199941 0
M  V30 4463 C 420.022 3.41504 -0.496865 0
M  V30 4464 C 419.135 3.99973 -1.63234 0
M  V30 4465 C 418.27 5.18915 -1.13579 0
M  V30 4466 C 417.309 5.69456 -2.24468 0
M  V30 4467 N 416.446 6.79665 -1.76068 0
M  V30 4468 H 421.286 2.31814 -1.8726 0
M  V30 4469 H 418.823 1.13686 -0.933483 0
M  V30 4470 H 420.781 4.16626 -0.218843 0
M  V30 4471 H 419.411 3.2038 0.394508 0
M  V30 4472 H 418.463 3.21997 -2.0254 0
M  V30 4473 H 419.775 4.33492 -2.46752 0
M  V30 4474 H 418.929 6.01222 -0.813429 0
M  V30 4475 H 417.668 4.8695 -0.270434 0
M  V30 4476 H 416.673 4.85757 -2.57526 0
M  V30 4477 H 417.898 6.03459 -3.11472 0
M  V30 4478 H 415.844 6.49538 -0.918516 0
M  V30 4479 H 415.761 7.12349 -2.5317 0
M  V30 4480 H 417.029 7.65549 -1.46817 0
M  V30 4481 N 421.258 1.00505 1.21394 0
M  V30 4482 C 422.669 0.721082 1.72213 0
M  V30 4483 C 423.02 -0.761263 1.80829 0
M  V30 4484 O 422.145 -1.59464 1.46288 0
M  V30 4485 C 422.74 1.30228 3.12772 0
M  V30 4486 C 421.299 1.06743 3.60947 0
M  V30 4487 C 420.446 1.41507 2.38477 0
M  V30 4488 H 423.397 1.17594 1.06571 0
M  V30 4489 H 423.418 0.686955 3.74247 0
M  V30 4490 H 422.93 2.38115 3.06468 0
M  V30 4491 H 421.031 0.00572162 3.726 0
M  V30 4492 H 421.144 1.73936 4.46411 0
M  V30 4493 H 419.508 0.833852 2.40664 0
M  V30 4494 H 420.291 2.50424 2.34824 0
M  V30 4495 N 422.737 -1.36956 0.779787 0
M  V30 4496 C 423.669 -2.28833 0.129639 0
M  V30 4497 C 424.682 -1.4902 -0.655511 0
M  V30 4498 O 425.871 -1.71578 -0.492279 0
M  V30 4499 C 422.971 -3.2833 -0.839792 0
M  V30 4500 C 422.144 -4.3727 -0.10675 0
M  V30 4501 C 421.203 -5.16789 -0.990717 0
M  V30 4502 O 420.229 -5.67406 -0.451516 0
M  V30 4503 N 421.431 -5.32294 -2.3161 0
M  V30 4504 H 424.196 -2.85268 0.918803 0
M  V30 4505 H 421.757 -1.49019 0.632841 0
M  V30 4506 H 423.749 -3.78413 -1.43477 0
M  V30 4507 H 422.319 -2.72605 -1.52988 0
M  V30 4508 H 421.539 -3.88478 0.669216 0
M  V30 4509 H 422.827 -5.07229 0.399464 0
M  V30 4510 H 422.225 -4.92768 -2.77843 0
M  V30 4511 H 420.782 -5.85656 -2.86095 0
M  V30 4512 N 424.215 -0.530993 -1.48385 0
M  V30 4513 C 425.162 0.231223 -2.29639 0
M  V30 4514 C 426.132 0.932864 -1.37429 0
M  V30 4515 O 427.317 0.933692 -1.66394 0
M  V30 4516 C 424.457 1.27155 -3.2082 0
M  V30 4517 C 423.57 0.578655 -4.28107 0
M  V30 4518 C 422.705 1.602 -5.06467 0
M  V30 4519 C 421.744 0.892625 -6.05556 0
M  V30 4520 N 420.881 1.86157 -6.76971 0
M  V30 4521 H 425.721 -0.467848 -2.94305 0
M  V30 4522 H 423.258 -0.242556 -1.45086 0
M  V30 4523 H 425.216 1.88703 -3.72085 0
M  V30 4524 H 423.846 1.939 -2.58075 0
M  V30 4525 H 422.898 -0.150782 -3.80101 0
M  V30 4526 H 424.21 0.0217065 -4.98795 0
M  V30 4527 H 423.364 2.29173 -5.61751 0
M  V30 4528 H 422.103 2.19285 -4.35621 0
M  V30 4529 H 421.108 0.188829 -5.49476 0
M  V30 4530 H 422.333 0.307878 -6.78402 0
M  V30 4531 H 420.279 2.44147 -6.08875 0
M  V30 4532 H 420.196 1.35608 -7.43738 0
M  V30 4533 H 421.464 2.54325 -7.36844 0
M  V30 4534 N 425.693 1.55336 -0.266172 0
M  V30 4535 C 426.603 2.2583 0.635458 0
M  V30 4536 C 427.619 1.28106 1.17749 0
M  V30 4537 O 428.795 1.61024 1.20968 0
M  V30 4538 C 425.86 2.95879 1.80712 0
M  V30 4539 C 424.921 4.09059 1.30265 0
M  V30 4540 C 424.154 4.75759 2.41846 0
M  V30 4541 O 424.377 4.41622 3.61007 0
M  V30 4542 O 423.311 5.63888 2.1051 0
M  V30 4543 H 427.137 3.03631 0.0646693 0
M  V30 4544 H 424.722 1.49361 -0.0339177 0
M  V30 4545 H 426.604 3.39932 2.49047 0
M  V30 4546 H 425.279 2.21002 2.36516 0
M  V30 4547 H 424.186 3.69482 0.586019 0
M  V30 4548 H 425.519 4.85811 0.790458 0
M  V30 4549 N 427.171 -0.0066808 1.57599 0
M  V30 4550 C 428.587 -0.36267 1.55425 0
M  V30 4551 C 428.787 -1.75209 0.995187 0
M  V30 4552 O 427.843 -2.44616 0.626058 0
M  V30 4553 C 429.156 -0.244017 2.99708 0
M  V30 4554 C 430.704 -0.319451 3.11366 0
M  V30 4555 C 431.179 -0.229998 4.57422 0
M  V30 4556 N 432.67 -0.288105 4.62303 0
M  V30 4557 C 433.405 -0.242127 5.72889 0
M  V30 4558 N 432.901 -0.147133 6.92644 0
M  V30 4559 N 434.694 -0.293502 5.61333 0
M  V30 4560 H 426.845 0.902314 1.92281 0
M  V30 4561 H 429.108 0.34525 0.882896 0
M  V30 4562 H 428.814 0.711678 3.44424 0
M  V30 4563 H 428.688 -1.02877 3.629 0
M  V30 4564 H 431.075 -1.26559 2.66584 0
M  V30 4565 H 431.156 0.495055 2.50964 0
M  V30 4566 H 430.8 0.712566 5.02877 0
M  V30 4567 H 430.73 -1.0629 5.15761 0
M  V30 4568 H 433.221 -0.363126 3.76151 0
M  V30 4569 H 433.534 -0.117763 7.7271 0
M  V30 4570 H 431.879 -0.112857 6.94908 0
M  V30 4571 H 435.07 -0.365864 4.66668 0
M  V30 4572 H 435.243 -0.254204 6.47501 0
M  V30 4573 N 428.649 -1.55105 -0.279332 0
M  V30 4574 C 429.596 -1.8755 -1.34513 0
M  V30 4575 C 430.566 -0.726384 -1.49375 0
M  V30 4576 O 431.751 -0.977063 -1.63884 0
M  V30 4577 C 428.891 -2.14738 -2.70151 0
M  V30 4578 C 428.004 -3.42285 -2.63562 0
M  V30 4579 C 427.139 -3.59206 -3.91337 0
M  V30 4580 C 426.178 -4.80467 -3.79233 0
M  V30 4581 N 425.315 -4.94079 -4.98829 0
M  V30 4582 H 430.155 -2.78456 -1.06143 0
M  V30 4583 H 427.692 -1.37867 -0.512936 0
M  V30 4584 H 429.65 -2.28501 -3.49061 0
M  V30 4585 H 428.28 -1.27075 -2.96735 0
M  V30 4586 H 427.332 -3.37029 -1.76397 0
M  V30 4587 H 428.644 -4.31328 -2.50515 0
M  V30 4588 H 427.798 -3.72751 -4.78687 0
M  V30 4589 H 426.537 -2.68337 -4.07243 0
M  V30 4590 H 425.542 -4.66932 -2.90266 0
M  V30 4591 H 426.767 -5.72765 -3.64852 0
M  V30 4592 H 424.713 -4.06139 -5.15158 0
M  V30 4593 H 424.63 -5.77156 -4.8829 0
M  V30 4594 H 425.898 -5.12003 -5.8777 0
M  V30 4595 N 430.127 0.543554 -1.4793 0
M  V30 4596 C 431.09 1.63156 -1.60975 0
M  V30 4597 C 432.09 1.53346 -0.483899 0
M  V30 4598 O 433.28 1.5726 -0.749339 0
M  V30 4599 C 430.412 3.02743 -1.56716 0
M  V30 4600 H 431.605 1.52934 -2.57975 0
M  V30 4601 H 429.158 0.764557 -1.36324 0
M  V30 4602 H 429.893 3.18484 -0.611418 0
M  V30 4603 H 429.678 3.11272 -2.38438 0
M  V30 4604 H 431.168 3.81871 -1.6901 0
M  V30 4605 N 431.605 1.3629 0.791371 0
M  V30 4606 C 432.83 1.33726 1.58531 0
M  V30 4607 C 433.255 -0.0794933 1.87932 0
M  V30 4608 O 432.613 -1.05087 1.47738 0
M  V30 4609 C 432.661 2.16425 2.88431 0
M  V30 4610 O 431.765 1.5554 3.81944 0
M  V30 4611 H 431.106 0.457793 0.480959 0
M  V30 4612 H 433.636 1.79547 0.981031 0
M  V30 4613 H 433.646 2.28933 3.37718 0
M  V30 4614 H 432.321 3.19415 2.66359 0
M  V30 4615 H 430.898 1.51961 3.40532 0
M  V30 4616 N 433.083 -1.0153 1.20538 0
M  V30 4617 C 434.013 -2.11972 0.979295 0
M  V30 4618 C 434.994 -1.6985 -0.0921787 0
M  V30 4619 O 436.179 -1.94089 0.0655932 0
M  V30 4620 C 433.309 -3.43201 0.531984 0
M  V30 4621 C 432.263 -3.9907 1.54685 0
M  V30 4622 C 431.589 -5.26082 0.956127 0
M  V30 4623 C 432.889 -4.32313 2.93092 0
M  V30 4624 H 434.583 -2.31143 1.90298 0
M  V30 4625 H 432.129 -1.11079 0.916372 0
M  V30 4626 H 434.082 -4.1985 0.361044 0
M  V30 4627 H 432.806 -3.23792 -0.427327 0
M  V30 4628 H 431.465 -3.2453 1.70517 0
M  V30 4629 H 431.113 -5.02999 -0.0111538 0
M  V30 4630 H 430.813 -5.64426 1.63393 0
M  V30 4631 H 432.337 -6.05386 0.796284 0
M  V30 4632 H 433.751 -4.99845 2.80763 0
M  V30 4633 H 432.148 -4.81774 3.57791 0
M  V30 4634 H 433.218 -3.41025 3.44717 0
M  V30 4635 N 434.561 -1.01147 -1.20859 0
M  V30 4636 C 435.786 -0.716698 -1.94623 0
M  V30 4637 C 436.211 0.715415 -1.73964 0
M  V30 4638 O 435.569 1.49157 -1.03062 0
M  V30 4639 C 435.617 -1.0513 -3.44935 0
M  V30 4640 O 434.721 -0.160131 -4.12089 0
M  V30 4641 H 434.062 -0.266404 -0.608214 0
M  V30 4642 H 436.592 -1.35346 -1.53436 0
M  V30 4643 H 436.602 -1.00086 -3.95533 0
M  V30 4644 H 435.277 -2.09475 -3.59295 0
M  V30 4645 H 433.854 -0.267657 -3.71938 0
M  V30 4646 N 436.039 1.36541 -0.78704 0
M  V30 4647 C 436.969 2.32659 -0.197992 0
M  V30 4648 C 437.95 1.56533 0.665697 0
M  V30 4649 O 439.135 1.84698 0.60001 0
M  V30 4650 C 436.265 3.40778 0.669901 0
M  V30 4651 C 435.219 4.27897 -0.0937039 0
M  V30 4652 C 434.545 5.27163 0.894629 0
M  V30 4653 C 435.845 5.06334 -1.28154 0
M  V30 4654 H 437.539 2.82171 -1.00099 0
M  V30 4655 H 435.085 1.35665 -0.482793 0
M  V30 4656 H 437.038 4.07008 1.09191 0
M  V30 4657 H 435.762 2.89827 1.50558 0
M  V30 4658 H 434.421 3.6322 -0.49666 0
M  V30 4659 H 434.069 4.72486 1.72527 0
M  V30 4660 H 433.769 5.86317 0.388149 0
M  V30 4661 H 435.293 5.96266 1.31525 0
M  V30 4662 H 436.707 5.65617 -0.93541 0
M  V30 4663 H 435.104 5.74888 -1.72115 0
M  V30 4664 H 436.174 4.38114 -2.07807 0
M  V30 4665 N 437.518 0.538854 1.48102 0
M  V30 4666 C 438.468 -0.23907 2.26743 0
M  V30 4667 C 439.452 -0.901923 1.33245 0
M  V30 4668 O 440.644 -0.803263 1.57723 0
M  V30 4669 C 437.773 -1.2799 3.18549 0
M  V30 4670 C 436.859 -0.621388 4.19523 0
M  V30 4671 N 437.25 0.298004 5.04921 0
M  V30 4672 C 435.548 -0.877533 4.37282 0
M  V30 4673 C 436.249 0.678757 5.77726 0
M  V30 4674 N 435.225 0.0377881 5.43587 0
M  V30 4675 H 439.027 0.468096 2.90148 0
M  V30 4676 H 436.541 0.357497 1.58416 0
M  V30 4677 H 438.538 -1.851 3.73555 0
M  V30 4678 H 437.198 -1.98835 2.567 0
M  V30 4679 H 438.209 0.671126 5.13533 0
M  V30 4680 H 434.886 -1.57588 3.86616 0
M  V30 4681 H 436.276 1.43316 6.56437 0
M  V30 4682 N 438.996 -1.55193 0.274407 0
M  V30 4683 C 440.242 -1.99877 -0.343086 0
M  V30 4684 C 440.575 -1.16256 -1.55558 0
M  V30 4685 O 439.85 -0.232462 -1.93106 0
M  V30 4686 C 440.133 -3.52706 -0.725965 0
M  V30 4687 C 439.986 -4.47081 0.493818 0
M  V30 4688 C 441.305 -4.11422 -1.56268 0
M  V30 4689 H 438.424 -0.726625 -0.123229 0
M  V30 4690 H 441.066 -1.86136 0.38121 0
M  V30 4691 H 439.216 -3.64546 -1.34307 0
M  V30 4692 H 440.888 -4.47186 1.13237 0
M  V30 4693 H 439.131 -4.1877 1.13201 0
M  V30 4694 H 439.802 -5.51699 0.18217 0
M  V30 4695 H 442.278 -4.02855 -1.04151 0
M  V30 4696 H 441.154 -5.18568 -1.79939 0
M  V30 4697 H 441.415 -3.61607 -2.54348 0
M  V30 4698 N 440.474 -0.00167713 -1.576 0
M  V30 4699 C 441.404 0.988091 -2.11563 0
M  V30 4700 C 442.385 1.35736 -1.02517 0
M  V30 4701 O 443.57 1.44082 -1.30208 0
M  V30 4702 C 440.7 2.27941 -2.62031 0
M  V30 4703 C 439.654 2.0517 -3.75619 0
M  V30 4704 C 438.98 3.4033 -4.12407 0
M  V30 4705 C 440.28 1.41294 -5.02825 0
M  V30 4706 H 441.974 0.538771 -2.94513 0
M  V30 4707 H 439.52 0.257712 -1.41675 0
M  V30 4708 H 441.473 2.97539 -2.9841 0
M  V30 4709 H 440.197 2.74989 -1.76205 0
M  V30 4710 H 438.856 1.37998 -3.39635 0
M  V30 4711 H 438.504 3.85085 -3.23603 0
M  V30 4712 H 438.204 3.25909 -4.88935 0
M  V30 4713 H 439.728 4.1124 -4.51347 0
M  V30 4714 H 441.142 2.00851 -5.36965 0
M  V30 4715 H 439.539 1.37356 -5.84169 0
M  V30 4716 H 440.609 0.382362 -4.8339 0
M  V30 4717 N 441.952 1.55251 0.271103 0
M  V30 4718 C 442.862 1.9136 1.35714 0
M  V30 4719 C 443.878 0.811075 1.5394 0
M  V30 4720 O 445.054 1.11031 1.6803 0
M  V30 4721 C 442.119 2.1798 2.69603 0
M  V30 4722 C 441.18 3.4153 2.60107 0
M  V30 4723 C 440.413 3.66871 3.8761 0
M  V30 4724 O 440.636 2.94689 4.8838 0
M  V30 4725 O 439.57 4.60405 3.87699 0
M  V30 4726 H 443.396 2.83815 1.08088 0
M  V30 4727 H 440.981 1.41821 0.469792 0
M  V30 4728 H 442.863 2.36518 3.48765 0
M  V30 4729 H 441.538 1.28708 2.97012 0
M  V30 4730 H 440.445 3.28325 1.79314 0
M  V30 4731 H 441.778 4.31027 2.37647 0
M  V30 4732 N 443.43 -0.535701 1.48216 0
M  V30 4733 C 444.658 -1.31671 1.59594 0
M  V30 4734 C 445.073 -1.87083 0.254056 0
M  V30 4735 O 444.43 -1.66112 -0.755854 0
M  V30 4736 C 444.481 -2.47158 2.63809 0
M  V30 4737 O 444.202 -1.94032 3.92789 0
M  V30 4738 C 445.703 -3.39062 2.85573 0
M  V30 4739 H 442.923 -0.400623 0.538277 0
M  V30 4740 H 445.467 -0.646827 1.94001 0
M  V30 4741 H 443.622 -3.10043 2.32276 0
M  V30 4742 H 444.036 -2.69585 4.49916 0
M  V30 4743 H 445.51 -4.16459 3.62306 0
M  V30 4744 H 445.987 -3.93941 1.94184 0
M  V30 4745 H 446.593 -2.81975 3.18387 0
M  V30 4746 N 444.908 -1.36708 -0.784132 0
M  V30 4747 C 445.856 -1.31533 -1.91838 0
M  V30 4748 C 446.85 -0.206205 -1.6814 0
M  V30 4749 O 448.056 -0.373519 -1.76082 0
M  V30 4750 H 444.431 -0.409613 -0.630651 0
M  V30 4751 H 446.402 -2.2731 -1.9332 0
M  V30 4752 C 445.151 -1.12679 -3.28936 0
M  V30 4753 H 444.474 -1.97274 -3.4774 0
M  V30 4754 H 445.914 -1.13106 -4.08636 0
M  V30 4755 C 444.373 0.168281 -3.36479 0
M  V30 4756 O 444.903 1.15625 -3.84699 0
M  V30 4757 N 443.109 0.214762 -2.89805 0
M  V30 4758 H 442.656 -0.589852 -2.50756 0
M  V30 4759 H 442.614 1.08094 -2.95234 0
M  V30 4760 N 446.386 1.0089 -1.21074 0
M  V30 4761 C 447.663 1.71834 -0.934469 0
M  V30 4762 C 448.043 2.0368 0.554753 0
M  V30 4763 O 447.391 1.70742 1.51854 0
M  V30 4764 C 447.601 2.98061 -1.8155 0
M  V30 4765 C 448.949 3.7117 -2.06199 0
M  V30 4766 O 449.973 3.08034 -1.78867 0
M  V30 4767 O 448.832 4.84721 -2.52404 0
M  V30 4768 H 445.926 0.749253 -0.35007 0
M  V30 4769 H 448.472 1.06668 -1.31985 0
M  V30 4770 H 447.244 2.70908 -2.82355 0
M  V30 4771 H 446.867 3.70968 -1.43068 0
M  V30 4772 N 447.864 1.01787 1.20321 0
M  V30 4773 C 448.774 0.598898 2.26827 0
M  V30 4774 C 449.79 -0.36418 1.70146 0
M  V30 4775 O 450.966 -0.224812 2.00141 0
M  V30 4776 C 448.031 -0.0549769 3.46656 0
M  V30 4777 C 447.092 0.954205 4.18561 0
M  V30 4778 C 446.325 0.331439 5.3267 0
M  V30 4779 O 446.548 -0.86851 5.63749 0
M  V30 4780 O 445.482 1.0488 5.92692 0
M  V30 4781 H 449.308 1.48562 2.64883 0
M  V30 4782 H 446.893 0.787434 1.26964 0
M  V30 4783 H 448.775 -0.420102 4.19301 0
M  V30 4784 H 447.45 -0.915876 3.10473 0
M  V30 4785 H 446.357 1.37072 3.48083 0
M  V30 4786 H 447.69 1.78511 4.58688 0
M  V30 4787 N 449.342 -1.36122 0.79427 0
M  V30 4788 C 450.289 -2.29982 0.194101 0
M  V30 4789 C 451.259 -1.52214 -0.664833 0
M  V30 4790 O 452.444 -1.80702 -0.612498 0
M  V30 4791 C 449.584 -3.38706 -0.661244 0
M  V30 4792 C 448.697 -4.31456 0.216766 0
M  V30 4793 C 447.832 -5.27265 -0.645411 0
M  V30 4794 C 446.871 -6.11653 0.233756 0
M  V30 4795 N 446.008 -6.99636 -0.587682 0
M  V30 4796 H 450.848 -2.80722 0.999965 0
M  V30 4797 H 448.385 -1.38172 0.504677 0
M  V30 4798 H 450.343 -4.00394 -1.17219 0
M  V30 4799 H 448.973 -2.89274 -1.43249 0
M  V30 4800 H 448.025 -3.7088 0.845724 0
M  V30 4801 H 449.337 -4.90724 0.893973 0
M  V30 4802 H 448.491 -5.94266 -1.22198 0
M  V30 4803 H 447.23 -4.68463 -1.35623 0
M  V30 4804 H 446.235 -5.4361 0.82269 0
M  V30 4805 H 447.46 -6.72531 0.942247 0
M  V30 4806 H 445.406 -6.43337 -1.2827 0
M  V30 4807 H 445.323 -7.55993 0.0317402 0
M  V30 4808 H 446.591 -7.71001 -1.14792 0
M  V30 4809 N 450.82 -0.546701 -1.47814 0
M  V30 4810 C 452.097 0.0464413 -1.95545 0
M  V30 4811 C 452.477 1.4962 -1.48919 0
M  V30 4812 O 451.825 2.16752 -0.723232 0
M  V30 4813 C 452.035 -0.0881298 -3.48889 0
M  V30 4814 C 453.383 0.0626059 -4.24554 0
M  V30 4815 O 454.407 -0.0151555 -3.56197 0
M  V30 4816 O 453.266 0.228071 -5.46024 0
M  V30 4817 H 450.36 0.0700004 -0.824032 0
M  V30 4818 H 452.906 -0.612482 -1.58262 0
M  V30 4819 H 451.678 -1.09737 -3.75597 0
M  V30 4820 H 451.301 0.608886 -3.9291 0
M  V30 4821 N 452.299 1.55045 -0.282633 0
M  V30 4822 C 453.231 2.2023 0.634924 0
M  V30 4823 C 454.244 1.18931 1.11172 0
M  V30 4824 O 455.433 1.4562 1.03233 0
M  V30 4825 C 452.533 2.82041 1.87899 0
M  V30 4826 C 451.706 4.091 1.54776 0
M  V30 4827 C 450.765 4.54887 2.64507 0
M  V30 4828 O 449.791 5.20496 2.30375 0
M  V30 4829 N 450.993 4.25659 3.94709 0
M  V30 4830 H 453.758 2.99601 0.0769811 0
M  V30 4831 H 451.319 1.61565 -0.104048 0
M  V30 4832 H 453.311 3.09613 2.60619 0
M  V30 4833 H 451.881 2.06618 2.3458 0
M  V30 4834 H 451.101 3.88736 0.654049 0
M  V30 4835 H 452.389 4.9187 1.30158 0
M  V30 4836 H 451.787 3.7306 4.25256 0
M  V30 4837 H 450.344 4.57984 4.63782 0
M  V30 4838 N 453.777 0.010035 1.57597 0
M  V30 4839 C 455.005 -0.683413 1.95287 0
M  V30 4840 C 455.42 -1.66747 0.885481 0
M  V30 4841 O 454.777 -1.82003 -0.134629 0
M  V30 4842 C 454.828 -1.40652 3.33015 0
M  V30 4843 O 454.549 -0.461916 4.35658 0
M  V30 4844 C 456.05 -2.19356 3.85225 0
M  V30 4845 H 453.27 -0.189708 0.643624 0
M  V30 4846 H 455.814 0.0641359 2.04399 0
M  V30 4847 H 453.969 -2.10562 3.2518 0
M  V30 4848 H 454.383 -0.973215 5.15392 0
M  V30 4849 H 455.857 -2.65433 4.83993 0
M  V30 4850 H 456.334 -3.02457 3.18459 0
M  V30 4851 H 456.94 -1.54442 3.96267 0
M  V30 4852 N 455.255 -1.55392 -0.262866 0
M  V30 4853 C 456.218 -1.88181 -1.30846 0
M  V30 4854 C 457.218 -0.757079 -1.41862 0
M  V30 4855 O 458.408 -1.02519 -1.40838 0
M  V30 4856 C 455.54 -2.09609 -2.68844 0
M  V30 4857 H 456.733 -2.81659 -1.02997 0
M  V30 4858 H 454.286 -1.48039 -0.501414 0
M  V30 4859 H 455.021 -1.18547 -3.01856 0
M  V30 4860 H 454.806 -2.91508 -2.62231 0
M  V30 4861 H 456.296 -2.36215 -3.44372 0
M  V30 4862 N 456.733 0.527833 -1.48498 0
M  V30 4863 C 457.681 1.65313 -1.63628 0
M  V30 4864 C 458.675 1.6177 -0.502676 0
M  V30 4865 O 459.881 1.66601 -0.681469 0
M  V30 4866 H 456.256 0.547518 -0.515488 0
M  V30 4867 H 458.227 1.49696 -2.58135 0
M  V30 4868 C 456.976 3.03576 -1.6952 0
M  V30 4869 H 456.299 3.06997 -2.56111 0
M  V30 4870 H 457.739 3.81923 -1.84149 0
M  V30 4871 C 456.198 3.34089 -0.43432 0
M  V30 4872 O 456.728 3.99151 0.451852 0
M  V30 4873 N 454.934 2.88991 -0.305368 0
M  V30 4874 H 454.481 2.36222 -1.02747 0
M  V30 4875 H 454.439 3.09776 0.537249 0
M  V30 4876 N 458.211 1.37122 0.776871 0
M  V30 4877 C 459.141 1.35164 1.90402 0
M  V30 4878 C 460.122 0.221069 1.68657 0
M  V30 4879 O 461.307 0.420642 1.8959 0
M  V30 4880 C 458.437 1.15274 3.27611 0
M  V30 4881 C 457.391 2.25289 3.63908 0
M  V30 4882 C 456.717 1.90527 4.99603 0
M  V30 4883 C 458.017 3.67446 3.71188 0
M  V30 4884 H 459.711 2.29482 1.92297 0
M  V30 4885 H 457.257 1.10465 0.923773 0
M  V30 4886 H 459.21 1.12536 4.06096 0
M  V30 4887 H 457.934 0.174102 3.26136 0
M  V30 4888 H 456.593 2.27174 2.87728 0
M  V30 4889 H 456.241 0.91206 4.94662 0
M  V30 4890 H 455.941 2.64193 5.24858 0
M  V30 4891 H 457.465 1.89367 5.80493 0
M  V30 4892 H 458.879 3.67719 4.39836 0
M  V30 4893 H 457.276 4.40123 4.07936 0
M  V30 4894 H 458.346 4.01443 2.71977 0
M  V30 4895 N 459.689 -1.00246 1.21608 0
M  V30 4896 C 460.917 -1.77631 1.06089 0
M  V30 4897 C 461.332 -1.84746 -0.38916 0
M  V30 4898 O 460.689 -1.31068 -1.26994 0
M  V30 4899 C 460.74 -3.21415 1.65453 0
M  V30 4900 O 460.461 -3.14703 3.04785 0
M  V30 4901 C 461.962 -4.15289 1.55079 0
M  V30 4902 H 459.182 -0.558162 0.37242 0
M  V30 4903 H 461.726 -1.26093 1.60999 0
M  V30 4904 H 459.881 -3.70053 1.14629 0
M  V30 4905 H 460.295 -4.05056 3.33212 0
M  V30 4906 H 461.769 -5.13965 2.01355 0
M  V30 4907 H 462.246 -4.36279 0.505665 0
M  V30 4908 H 462.852 -3.72543 2.05163 0
M  V30 4909 N 461.167 -1.02423 -1.1978 0
M  V30 4910 C 462.115 -0.594474 -2.24875 0
M  V30 4911 C 463.109 0.370598 -1.65296 0
M  V30 4912 O 464.315 0.239684 -1.78397 0
M  V30 4913 H 460.69 -0.173961 -0.731602 0
M  V30 4914 H 462.661 -1.4916 -2.58445 0
M  V30 4915 C 461.41 0.0436512 -3.47673 0
M  V30 4916 H 460.733 -0.689963 -3.93801 0
M  V30 4917 H 462.173 0.307362 -4.22884 0
M  V30 4918 C 460.632 1.28881 -3.11274 0
M  V30 4919 O 461.162 2.38135 -3.23503 0
M  V30 4920 N 459.368 1.1758 -2.6575 0
M  V30 4921 H 458.915 0.286769 -2.55999 0
M  V30 4922 H 458.873 2.00988 -2.41767 0
M  V30 4923 N 462.645 1.35699 -0.801477 0
M  V30 4924 C 463.577 2.28598 -0.166028 0
M  V30 4925 C 464.59 1.50044 0.631721 0
M  V30 4926 O 465.779 1.72339 0.464921 0
M  V30 4927 C 462.879 3.29625 0.787451 0
M  V30 4928 C 462.052 4.37384 0.037171 0
M  V30 4929 C 461.111 5.183 0.908375 0
M  V30 4930 O 460.137 5.68053 0.361189 0
M  V30 4931 N 461.339 5.35912 2.23112 0
M  V30 4932 H 464.104 2.83771 -0.964071 0
M  V30 4933 H 461.665 1.47994 -0.656469 0
M  V30 4934 H 463.657 3.80648 1.37439 0
M  V30 4935 H 462.227 2.75004 1.48632 0
M  V30 4936 H 461.447 3.87364 -0.730935 0
M  V30 4937 H 462.735 5.0653 -0.480109 0
M  V30 4938 H 462.133 4.97125 2.69968 0
M  V30 4939 H 460.69 5.90133 2.76741 0
M  V30 4940 N 464.123 0.554532 1.47522 0
M  V30 4941 C 465.371 0.0294208 2.02079 0
M  V30 4942 C 465.692 -1.32411 1.43151 0
M  V30 4943 O 464.962 -1.863 0.605728 0
M  V30 4944 H 463.542 0.00788672 0.746958 0
M  V30 4945 H 466.204 0.723934 1.80956 0
M  V30 4946 H 465.3 -0.0606745 3.12041 0
M  V30 4947 N 465.601 -1.54893 0.290851 0
M  V30 4948 C 466.548 -2.23138 -0.58974 0
M  V30 4949 C 467.518 -1.21036 -1.13752 0
M  V30 4950 O 468.703 -1.49626 -1.18392 0
M  V30 4951 C 465.843 -2.96811 -1.76061 0
M  V30 4952 C 464.956 -4.13665 -1.24519 0
M  V30 4953 C 464.091 -4.74944 -2.3791 0
M  V30 4954 C 463.13 -5.83963 -1.83451 0
M  V30 4955 N 462.267 -6.39239 -2.90376 0
M  V30 4956 H 467.107 -2.98 -0.00114915 0
M  V30 4957 H 464.644 -1.47096 0.0112006 0
M  V30 4958 H 466.602 -3.37751 -2.44909 0
M  V30 4959 H 465.232 -2.24344 -2.32098 0
M  V30 4960 H 464.284 -3.77737 -0.449288 0
M  V30 4961 H 465.596 -4.92238 -0.806424 0
M  V30 4962 H 464.75 -5.18684 -3.14724 0
M  V30 4963 H 463.489 -3.95682 -2.85109 0
M  V30 4964 H 462.494 -5.39657 -1.05122 0
M  V30 4965 H 463.719 -6.65103 -1.37169 0
M  V30 4966 H 461.665 -5.62864 -3.36927 0
M  V30 4967 H 461.582 -7.13129 -2.50965 0
M  V30 4968 H 462.85 -6.87637 -3.67118 0
M  V30 4969 N 467.08 -0.0183926 -1.57589 0
M  V30 4970 C 468.028 0.985111 -2.10709 0
M  V30 4971 C 469.022 1.34397 -1.0312 0
M  V30 4972 O 470.228 1.32746 -1.21567 0
M  V30 4973 H 466.603 0.335418 -0.673052 0
M  V30 4974 H 468.574 0.511689 -2.9398 0
M  V30 4975 C 467.323 2.26202 -2.64061 0
M  V30 4976 H 466.646 1.9946 -3.4649 0
M  V30 4977 H 468.086 2.94652 -3.04887 0
M  V30 4978 C 466.545 2.98444 -1.5631 0
M  V30 4979 O 467.075 3.90142 -0.956674 0
M  V30 4980 N 465.281 2.6059 -1.28612 0
M  V30 4981 H 464.828 1.86101 -1.78112 0
M  V30 4982 H 464.786 3.09238 -0.567406 0
M  V30 4983 N 468.558 1.5553 0.254621 0
M  V30 4984 C 469.807 1.76202 0.981612 0
M  V30 4985 C 470.12 0.580883 1.86776 0
M  V30 4986 O 471.326 0.670448 2.63092 0
M  V30 4987 C 469.782 3.11921 1.79537 0
M  V30 4988 C 469.39 4.37659 0.956991 0
M  V30 4989 C 471.134 3.41936 2.51555 0
M  V30 4990 C 469.041 5.64411 1.76619 0
M  V30 4991 H 467.971 0.656841 0.370237 0
M  V30 4992 H 470.622 1.81969 0.236556 0
M  V30 4993 H 469.004 3.00241 2.58208 0
M  V30 4994 H 470.178 4.60307 0.21315 0
M  V30 4995 H 468.493 4.14922 0.350497 0
M  V30 4996 H 471.09 4.33849 3.12536 0
M  V30 4997 H 471.433 2.62905 3.22779 0
M  V30 4998 H 471.966 3.54797 1.799 0
M  V30 4999 H 468.705 6.46241 1.09783 0
M  V30 5000 H 468.225 5.45877 2.48551 0
M  V30 5001 H 469.904 6.03386 2.33527 0
M  V30 5002 N 470.036 -0.519951 1.48776 0
M  V30 5003 C 471.264 -1.29971 1.60982 0
M  V30 5004 C 471.679 -1.86803 0.273885 0
M  V30 5005 O 471.036 -1.66904 -0.738193 0
M  V30 5006 C 471.087 -2.44346 2.66415 0
M  V30 5007 O 470.808 -1.89855 3.94825 0
M  V30 5008 C 472.309 -3.36014 2.89153 0
M  V30 5009 H 469.529 -0.394891 0.542496 0
M  V30 5010 H 472.073 -0.626214 1.94676 0
M  V30 5011 H 470.228 -3.07562 2.35552 0
M  V30 5012 H 470.642 -2.64798 4.5275 0
M  V30 5013 H 472.116 -4.12593 3.66703 0
M  V30 5014 H 472.593 -3.91859 1.98351 0
M  V30 5015 H 473.199 -2.78582 3.21359 0
M  V30 5016 N 471.514 -1.37532 -0.769588 0
M  V30 5017 C 472.461 -1.3347 -1.88293 0
M  V30 5018 C 473.431 -0.199891 -1.64893 0
M  V30 5019 O 474.616 -0.389594 -1.8678 0
M  V30 5020 C 471.756 -1.14968 -3.25387 0
M  V30 5021 C 470.869 -2.37698 -3.60727 0
M  V30 5022 C 470.004 -2.12051 -4.8704 0
M  V30 5023 C 469.043 -3.30636 -5.15117 0
M  V30 5024 N 468.18 -3.04527 -6.3262 0
M  V30 5025 H 473.02 -2.28658 -1.911 0
M  V30 5026 H 470.557 -1.13622 -0.934257 0
M  V30 5027 H 472.515 -1.02261 -4.04473 0
M  V30 5028 H 471.145 -0.234263 -3.21949 0
M  V30 5029 H 470.197 -2.61137 -2.76608 0
M  V30 5030 H 471.509 -3.26131 -3.77413 0
M  V30 5031 H 470.663 -1.96388 -5.74035 0
M  V30 5032 H 469.402 -1.20959 -4.72462 0
M  V30 5033 H 468.407 -3.46836 -4.26597 0
M  V30 5034 H 469.632 -4.22582 -5.31603 0
M  V30 5035 H 467.578 -2.16067 -6.19396 0
M  V30 5036 H 467.495 -3.86503 -6.49732 0
M  V30 5037 H 468.763 -2.92485 -7.22546 0
M  V30 5038 N 472.992 0.995999 -1.22138 0
M  V30 5039 C 473.94 2.10673 -0.985876 0
M  V30 5040 C 474.934 1.69255 0.0699553 0
M  V30 5041 O 476.14 1.79812 -0.0822176 0
M  V30 5042 H 472.515 0.688865 -0.30161 0
M  V30 5043 H 474.486 2.27711 -1.92848 0
M  V30 5044 C 473.235 3.42881 -0.576909 0
M  V30 5045 H 472.558 3.75191 -1.38101 0
M  V30 5046 H 473.998 4.21589 -0.451518 0
M  V30 5047 C 472.457 3.29265 0.713196 0
M  V30 5048 O 472.987 3.60777 1.76643 0
M  V30 5049 N 471.193 2.82456 0.683162 0
M  V30 5050 H 470.74 2.5701 -0.174242 0
M  V30 5051 H 470.698 2.73727 1.54663 0
M  V30 5052 N 474.47 1.03057 1.19235 0
M  V30 5053 C 475.716 0.729098 1.89241 0
M  V30 5054 C 476.049 -0.740573 1.79525 0
M  V30 5055 O 475.324 -1.53946 1.18874 0
M  V30 5056 C 475.607 1.18304 3.40112 0
M  V30 5057 C 475.46 2.71406 3.5869 0
M  V30 5058 C 476.779 0.765161 4.33397 0
M  V30 5059 H 473.898 0.266338 0.687192 0
M  V30 5060 H 476.54 1.28079 1.40341 0
M  V30 5061 H 474.69 0.713672 3.81889 0
M  V30 5062 H 476.362 3.26303 3.26074 0
M  V30 5063 H 474.605 3.11717 3.01687 0
M  V30 5064 H 475.276 2.98225 4.64506 0
M  V30 5065 H 477.752 1.16889 3.99345 0
M  V30 5066 H 476.628 1.11065 5.37546 0
M  V30 5067 H 476.889 -0.332372 4.40849 0
M  V30 5068 N 475.948 -1.35272 0.808662 0
M  V30 5069 C 477.176 -2.02946 0.402537 0
M  V30 5070 C 477.591 -1.60937 -0.987147 0
M  V30 5071 O 476.948 -0.807917 -1.63643 0
M  V30 5072 C 476.999 -3.58317 0.47868 0
M  V30 5073 O 476.72 -3.98799 1.81358 0
M  V30 5074 C 478.221 -4.43251 0.0656281 0
M  V30 5075 H 475.441 -0.650831 0.163279 0
M  V30 5076 H 477.985 -1.72849 1.09286 0
M  V30 5077 H 476.14 -3.87055 -0.163415 0
M  V30 5078 H 476.554 -4.93451 1.77781 0
M  V30 5079 H 478.028 -5.51738 0.170017 0
M  V30 5080 H 478.505 -4.27913 -0.989278 0
M  V30 5081 H 479.111 -4.19813 0.68096 0
M  V30 5082 N 477.426 -0.562348 -1.47226 0
M  V30 5083 C 478.674 -0.0401371 -2.0206 0
M  V30 5084 C 478.995 1.3165 -1.43852 0
M  V30 5085 O 478.265 1.85976 -0.615599 0
M  V30 5086 H 476.845 -0.0118479 -0.746906 0
M  V30 5087 H 479.507 -0.73352 -1.8057 0
M  V30 5088 H 478.603 0.0441254 -3.12069 0
M  V30 5089 N 478.904 1.54736 -0.299062 0
M  V30 5090 C 480.151 2.00101 0.310784 0
M  V30 5091 C 480.479 1.18746 1.54045 0
M  V30 5092 O 479.734 0.251198 1.94081 0
M  V30 5093 C 480.033 3.50199 0.713835 0
M  V30 5094 C 479.699 4.48997 -0.413873 0
M  V30 5095 C 478.361 4.7573 -0.723462 0
M  V30 5096 C 480.713 5.07839 -1.17257 0
M  V30 5097 C 478.041 5.5857 -1.79491 0
M  V30 5098 C 480.393 5.91844 -2.23392 0
M  V30 5099 C 479.057 6.16889 -2.54959 0
M  V30 5100 H 478.327 0.732221 0.113724 0
M  V30 5101 H 480.974 1.86888 -0.417756 0
M  V30 5102 H 479.279 3.61012 1.52243 0
M  V30 5103 H 480.976 3.82723 1.19684 0
M  V30 5104 H 477.566 4.28292 -0.162476 0
M  V30 5105 H 481.75 4.87188 -0.946651 0
M  V30 5106 H 477.006 5.76213 -2.04423 0
M  V30 5107 H 481.18 6.36465 -2.8264 0
M  V30 5108 H 478.807 6.80869 -3.38114 0
M  V30 5109 N 480.382 0.0267497 1.57577 0
M  V30 5110 C 481.629 -0.652404 1.91703 0
M  V30 5111 C 481.957 -1.72271 0.902936 0
M  V30 5112 O 481.212 -1.955 -0.0884843 0
M  V30 5113 C 481.511 -1.30914 3.3256 0
M  V30 5114 C 481.177 -0.369441 4.49384 0
M  V30 5115 C 479.839 -0.110791 4.81072 0
M  V30 5116 C 482.191 0.275971 5.20469 0
M  V30 5117 C 479.519 0.801116 5.81205 0
M  V30 5118 C 481.871 1.17592 6.21575 0
M  V30 5119 C 480.535 1.44348 6.51705 0
M  V30 5120 H 479.805 -0.238732 0.70149 0
M  V30 5121 H 482.452 0.0880091 1.91298 0
M  V30 5122 H 480.757 -2.12425 3.29216 0
M  V30 5123 H 482.454 -1.84115 3.56234 0
M  V30 5124 H 479.044 -0.581211 4.24641 0
M  V30 5125 H 483.228 0.0892 4.9622 0
M  V30 5126 H 478.484 1.01614 6.02897 0
M  V30 5127 H 482.658 1.68223 6.75777 0
M  V30 5128 H 480.285 2.15176 7.29111 0
M  V30 5129 N 481.861 -1.55662 -0.24637 0
M  V30 5130 C 482.793 -1.86811 -1.32794 0
M  V30 5131 C 483.806 -0.754413 -1.44265 0
M  V30 5132 O 484.995 -1.03253 -1.45606 0
M  V30 5133 C 482.095 -2.0397 -2.70646 0
M  V30 5134 C 481.268 -3.34832 -2.81436 0
M  V30 5135 C 480.327 -3.41727 -4.00136 0
M  V30 5136 O 479.353 -4.14934 -3.89639 0
M  V30 5137 N 480.555 -2.71058 -5.1333 0
M  V30 5138 H 483.32 -2.80174 -1.06409 0
M  V30 5139 H 480.881 -1.55906 -0.43647 0
M  V30 5140 H 482.873 -2.05924 -3.48393 0
M  V30 5141 H 481.443 -1.1735 -2.89738 0
M  V30 5142 H 480.663 -3.4519 -1.90361 0
M  V30 5143 H 481.951 -4.21085 -2.85595 0
M  V30 5144 H 481.349 -2.11314 -5.2475 0
M  V30 5145 H 479.906 -2.78704 -5.89209 0
M  V30 5146 N 483.339 0.512053 -1.4905 0
M  V30 5147 C 484.564 1.2959 -1.6193 0
M  V30 5148 C 484.989 1.85906 -0.286454 0
M  V30 5149 O 484.347 1.65312 0.744426 0
M  V30 5150 C 484.395 2.40987 -2.68249 0
M  V30 5151 O 483.499 3.44531 -2.26654 0
M  V30 5152 H 482.84 0.383053 -0.542371 0
M  V30 5153 H 485.37 0.614231 -1.95162 0
M  V30 5154 H 485.38 2.86913 -2.90078 0
M  V30 5155 H 484.055 1.99361 -3.65004 0
M  V30 5156 H 482.632 3.046 -2.15112 0
M  V30 5157 N 484.817 1.37938 0.762283 0
M  V30 5158 C 486.064 1.33668 1.52115 0
M  V30 5159 C 486.392 -0.0759538 1.94352 0
M  V30 5160 O 485.647 -1.05121 1.6507 0
M  V30 5161 C 485.946 2.23042 2.79261 0
M  V30 5162 C 485.612 3.71159 2.56031 0
M  V30 5163 C 484.274 4.11523 2.49404 0
M  V30 5164 C 486.626 4.64955 2.35513 0
M  V30 5165 C 483.954 5.43784 2.20263 0
M  V30 5166 C 486.306 5.97464 2.07894 0
M  V30 5167 C 484.97 6.36922 1.99718 0
M  V30 5168 H 484.24 0.489127 0.556629 0
M  V30 5169 H 486.887 1.70224 0.877262 0
M  V30 5170 H 485.192 1.79512 3.48256 0
M  V30 5171 H 486.889 2.17047 3.37182 0
M  V30 5172 H 483.479 3.39153 2.62056 0
M  V30 5173 H 487.663 4.34623 2.39617 0
M  V30 5174 H 482.919 5.73307 2.12435 0
M  V30 5175 H 487.093 6.6969 1.91019 0
M  V30 5176 H 484.72 7.39331 1.76902 0
M  V30 5177 N 486.295 -0.989507 1.22664 0
M  V30 5178 C 487.242 -2.08024 0.999733 0
M  V30 5179 C 488.212 -1.65909 -0.0797047 0
M  V30 5180 O 489.397 -1.90669 0.0705715 0
M  V30 5181 C 486.537 -3.40067 0.587234 0
M  V30 5182 C 485.65 -3.95505 1.73781 0
M  V30 5183 C 484.785 -5.15722 1.27297 0
M  V30 5184 C 483.824 -5.63305 2.39488 0
M  V30 5185 N 482.961 -6.74758 1.94026 0
M  V30 5186 H 487.801 -2.26768 1.9334 0
M  V30 5187 H 485.338 -1.11171 0.963297 0
M  V30 5188 H 487.296 -4.15899 0.329227 0
M  V30 5189 H 485.926 -3.21314 -0.309426 0
M  V30 5190 H 484.978 -3.16513 2.11006 0
M  V30 5191 H 486.29 -4.26797 2.58158 0
M  V30 5192 H 485.444 -5.98854 0.972546 0
M  V30 5193 H 484.183 -4.86061 0.399445 0
M  V30 5194 H 483.188 -4.78759 2.70315 0
M  V30 5195 H 484.413 -5.94988 3.27362 0
M  V30 5196 H 482.359 -6.46874 1.09041 0
M  V30 5197 H 482.276 -7.05386 2.71968 0
M  V30 5198 H 483.544 -7.61387 1.67062 0
M  V30 5199 N 487.773 -1.03688 -1.18687 0
M  V30 5200 C 488.998 -0.757819 -1.93059 0
M  V30 5201 C 489.423 0.678353 -1.75442 0
M  V30 5202 O 488.781 1.46938 -1.06203 0
M  V30 5203 C 488.829 -1.12423 -3.42627 0
M  V30 5204 O 487.933 -0.247505 -4.11657 0
M  V30 5205 H 487.274 -0.279245 -0.602427 0
M  V30 5206 H 489.804 -1.3857 -1.5053 0
M  V30 5207 H 489.814 -1.08454 -3.93322 0
M  V30 5208 H 488.489 -2.17049 -3.54771 0
M  V30 5209 H 487.066 -0.34649 -3.71287 0
M  V30 5210 N 489.251 1.34841 -0.815825 0
M  V30 5211 C 490.5 1.97755 -0.396976 0
M  V30 5212 C 490.813 1.65422 1.04379 0
M  V30 5213 O 492.019 2.21771 1.5662 0
M  V30 5214 C 490.475 3.53818 -0.658869 0
M  V30 5215 C 490.083 3.95051 -2.11278 0
M  V30 5216 C 491.827 4.23397 -0.305834 0
M  V30 5217 C 489.734 5.43997 -2.31994 0
M  V30 5218 H 488.664 0.739985 -0.1447 0
M  V30 5219 H 491.315 1.53781 -1.00118 0
M  V30 5220 H 489.697 3.95997 0.0154112 0
M  V30 5221 H 490.871 3.63998 -2.82564 0
M  V30 5222 H 489.186 3.38388 -2.42657 0
M  V30 5223 H 491.783 5.32899 -0.43854 0
M  V30 5224 H 492.126 4.09508 0.748952 0
M  V30 5225 H 492.659 3.8667 -0.934403 0
M  V30 5226 H 489.398 5.62865 -3.35952 0
M  V30 5227 H 488.918 5.76589 -1.65244 0
M  V30 5228 H 490.597 6.10584 -2.14001 0
M  V30 5229 N 490.729 0.570148 1.46925 0
M  V30 5230 C 491.659 -0.158274 2.32963 0
M  V30 5231 C 492.64 -0.896093 1.44583 0
M  V30 5232 O 493.825 -0.874022 1.7342 0
M  V30 5233 C 490.955 -1.18055 3.26619 0
M  V30 5234 C 489.909 -0.558379 4.24342 0
M  V30 5235 C 489.235 -1.68623 5.07415 0
M  V30 5236 C 490.535 0.496295 5.19937 0
M  V30 5237 H 492.229 0.560046 2.94115 0
M  V30 5238 H 489.775 0.270775 1.41431 0
M  V30 5239 H 491.728 -1.69841 3.85658 0
M  V30 5240 H 490.452 -1.92899 2.63548 0
M  V30 5241 H 489.111 -0.0617157 3.66548 0
M  V30 5242 H 488.759 -2.42402 4.40738 0
M  V30 5243 H 488.459 -1.27564 5.73586 0
M  V30 5244 H 489.983 -2.20709 5.69315 0
M  V30 5245 H 491.397 0.0640052 5.73264 0
M  V30 5246 H 489.794 0.82649 5.94381 0
M  V30 5247 H 490.864 1.38735 4.6463 0
M  V30 5248 N 492.207 -1.54576 0.307264 0
M  V30 5249 C 493.435 -2.04675 -0.302597 0
M  V30 5250 C 493.85 -1.18425 -1.47041 0
M  V30 5251 O 493.207 -0.211257 -1.81273 0
M  V30 5252 C 493.258 -3.53575 -0.752801 0
M  V30 5253 O 492.979 -4.36547 0.368536 0
M  V30 5254 C 494.48 -4.19699 -1.42717 0
M  V30 5255 H 491.7 -0.66786 -0.0648374 0
M  V30 5256 H 494.244 -1.99516 0.448716 0
M  V30 5257 H 492.399 -3.59074 -1.45412 0
M  V30 5258 H 492.813 -5.24497 0.0168937 0
M  V30 5259 H 494.287 -5.25388 -1.69327 0
M  V30 5260 H 494.764 -3.69815 -2.36925 0
M  V30 5261 H 495.37 -4.18293 -0.768856 0
M  V30 5262 N 493.685 -0.035106 -1.57561 0
M  V30 5263 C 494.633 0.962707 -2.11742 0
M  V30 5264 C 495.627 1.33296 -1.0454 0
M  V30 5265 O 496.833 1.31449 -1.22968 0
M  V30 5266 H 493.208 0.32826 -0.676572 0
M  V30 5267 H 495.179 0.48048 -2.94506 0
M  V30 5268 C 493.928 2.23388 -2.66445 0
M  V30 5269 H 493.251 1.95774 -3.48587 0
M  V30 5270 H 494.691 2.91402 -3.07995 0
M  V30 5271 C 493.15 2.96769 -1.59467 0
M  V30 5272 O 493.68 3.89105 -0.998 0
M  V30 5273 N 491.886 2.59212 -1.31369 0
M  V30 5274 H 491.433 1.84202 -1.80076 0
M  V30 5275 H 491.391 3.08618 -0.600173 0
M  V30 5276 N 495.163 1.55791 0.238111 0
M  V30 5277 C 496.574 1.68383 0.806472 0
M  V30 5278 C 496.925 0.634157 1.85669 0
M  V30 5279 O 496.05 -0.217913 2.153 0
M  V30 5280 C 496.645 3.05268 1.46959 0
M  V30 5281 C 495.204 3.1977 1.98555 0
M  V30 5282 C 494.351 2.64279 0.839763 0
M  V30 5283 H 497.302 1.58694 0.0137535 0
M  V30 5284 H 497.323 3.00203 2.33792 0
M  V30 5285 H 496.835 3.81643 0.704993 0
M  V30 5286 H 494.936 2.48234 2.77868 0
M  V30 5287 H 495.049 4.26788 2.17689 0
M  V30 5288 H 493.413 2.22329 1.24265 0
M  V30 5289 H 494.196 3.43187 0.0881032 0
M  V30 5290 N 496.642 -0.504142 1.49319 0
M  V30 5291 C 497.572 -1.61473 1.68667 0
M  V30 5292 C 498.553 -1.61455 0.535378 0
M  V30 5293 O 499.738 -1.78245 0.770868 0
M  V30 5294 C 496.868 -2.99971 1.75028 0
M  V30 5295 C 495.822 -3.14854 2.89916 0
M  V30 5296 C 495.148 -4.54671 2.81387 0
M  V30 5297 C 496.448 -2.95176 4.30893 0
M  V30 5298 H 498.142 -1.45535 2.61648 0
M  V30 5299 H 495.688 -0.698711 1.25913 0
M  V30 5300 H 497.641 -3.77562 1.8715 0
M  V30 5301 H 496.365 -3.1699 0.786441 0
M  V30 5302 H 495.024 -2.39687 2.77391 0
M  V30 5303 H 494.672 -4.68562 1.82917 0
M  V30 5304 H 494.372 -4.6557 3.58494 0
M  V30 5305 H 495.896 -5.34327 2.95512 0
M  V30 5306 H 497.31 -3.62538 4.44116 0
M  V30 5307 H 495.707 -3.17549 5.09198 0
M  V30 5308 H 496.777 -1.91332 4.45556 0
M  V30 5309 N 498.12 -1.38341 -0.754957 0
M  V30 5310 C 499.35 -1.37504 -1.54195 0
M  V30 5311 C 499.758 0.0373787 -1.89163 0
M  V30 5312 O 499.101 1.01402 -1.53178 0
M  V30 5313 C 499.163 -2.16488 -2.87008 0
M  V30 5314 C 498.827 -3.65311 -2.74585 0
M  V30 5315 C 499.824 -4.58834 -2.44474 0
M  V30 5316 C 497.509 -4.08649 -2.9208 0
M  V30 5317 C 499.503 -5.93675 -2.32011 0
M  V30 5318 C 497.19 -5.43571 -2.79237 0
M  V30 5319 C 498.188 -6.35898 -2.49245 0
M  V30 5320 O 497.876 -7.68338 -2.36458 0
M  V30 5321 H 497.608 -0.472159 -0.483779 0
M  V30 5322 H 500.162 -1.82515 -0.94221 0
M  V30 5323 H 498.392 -1.66194 -3.49166 0
M  V30 5324 H 500.081 -2.08076 -3.4851 0
M  V30 5325 H 500.847 -4.26657 -2.30627 0
M  V30 5326 H 496.726 -3.37134 -3.14422 0
M  V30 5327 H 500.27 -6.65706 -2.08522 0
M  V30 5328 H 496.167 -5.75345 -2.92657 0
M  V30 5329 H 496.935 -7.78845 -2.5168 0
M  V30 5330 N 499.598 0.982988 -1.23187 0
M  V30 5331 C 500.844 1.72648 -1.06398 0
M  V30 5332 C 501.177 1.90066 0.398561 0
M  V30 5333 O 500.452 1.45105 1.29518 0
M  V30 5334 C 500.735 3.12627 -1.78707 0
M  V30 5335 C 500.588 3.02795 -3.32618 0
M  V30 5336 C 501.907 4.11997 -1.54747 0
M  V30 5337 H 499.026 0.626649 -0.387918 0
M  V30 5338 H 501.668 1.14455 -1.51658 0
M  V30 5339 H 499.818 3.62308 -1.40234 0
M  V30 5340 H 501.49 2.60659 -3.80598 0
M  V30 5341 H 499.733 2.39362 -3.61785 0
M  V30 5342 H 500.404 4.01893 -3.78399 0
M  V30 5343 H 502.88 3.71114 -1.88186 0
M  V30 5344 H 501.756 5.08037 -2.07821 0
M  V30 5345 H 502.017 4.39462 -0.482249 0
M  V30 5346 N 501.076 1.04316 1.18135 0
M  V30 5347 C 502.009 0.580823 2.20685 0
M  V30 5348 C 502.987 -0.385943 1.57953 0
M  V30 5349 O 504.171 -0.299654 1.86103 0
M  V30 5350 C 501.298 -0.151162 3.38363 0
M  V30 5351 C 500.344 0.769247 4.19505 0
M  V30 5352 S 501.177 2.25352 4.85774 0
M  V30 5353 C 502.333 1.53246 6.0685 0
M  V30 5354 H 502.566 1.44968 2.5956 0
M  V30 5355 H 500.099 0.85434 1.28609 0
M  V30 5356 H 502.057 -0.567315 4.06561 0
M  V30 5357 H 500.718 -0.995936 2.97892 0
M  V30 5358 H 499.911 0.203335 5.0359 0
M  V30 5359 H 499.513 1.12436 3.56699 0
M  V30 5360 H 501.805 0.82689 6.72435 0
M  V30 5361 H 502.748 2.35044 6.67952 0
M  V30 5362 H 503.156 1.0237 5.5514 0
M  V30 5363 N 502.554 -1.34406 0.822964 0
M  V30 5364 C 503.801 -1.98284 0.411057 0
M  V30 5365 C 504.129 -1.65245 -1.02588 0
M  V30 5366 O 503.384 -0.91619 -1.72929 0
M  V30 5367 C 503.683 -3.52981 0.560268 0
M  V30 5368 C 503.349 -4.05931 1.96293 0
M  V30 5369 C 502.011 -4.20103 2.34664 0
M  V30 5370 C 504.363 -4.34412 2.87985 0
M  V30 5371 C 501.691 -4.60082 3.64062 0
M  V30 5372 C 504.043 -4.75838 4.16847 0
M  V30 5373 C 502.707 -4.88215 4.55195 0
M  V30 5374 H 501.977 -0.725573 0.150416 0
M  V30 5375 H 504.624 -1.60349 1.04692 0
M  V30 5376 H 502.929 -3.91477 -0.158982 0
M  V30 5377 H 504.626 -4.00385 0.222087 0
M  V30 5378 H 501.216 -3.95363 1.65487 0
M  V30 5379 H 505.4 -4.23001 2.59584 0
M  V30 5380 H 500.656 -4.67856 3.93599 0
M  V30 5381 H 504.83 -4.96834 4.87984 0
M  V30 5382 H 502.457 -5.18952 5.55512 0
M  V30 5383 N 504.032 -0.577932 -1.46621 0
M  V30 5384 C 505.278 -0.0617793 -2.02706 0
M  V30 5385 C 505.611 1.29294 -1.44903 0
M  V30 5386 O 504.886 1.8461 -0.61232 0
M  V30 5387 C 505.169 0.00911824 -3.60099 0
M  V30 5388 C 505.022 -1.37416 -4.28295 0
M  V30 5389 C 506.341 0.712159 -4.343 0
M  V30 5390 H 503.46 -0.0239246 -0.736612 0
M  V30 5391 H 506.102 -0.744211 -1.74818 0
M  V30 5392 H 504.252 0.590292 -3.83989 0
M  V30 5393 H 505.924 -2.00013 -4.15683 0
M  V30 5394 H 504.167 -1.94319 -3.87843 0
M  V30 5395 H 504.838 -1.27707 -5.37024 0
M  V30 5396 H 507.314 0.218486 -4.15526 0
M  V30 5397 H 506.19 0.730782 -5.44014 0
M  V30 5398 H 506.451 1.77251 -4.05012 0
M  V30 5399 N 505.51 1.54411 -0.315457 0
M  V30 5400 C 506.44 2.27002 0.547039 0
M  V30 5401 C 507.421 1.27492 1.12605 0
M  V30 5402 O 508.606 1.5629 1.15269 0
M  V30 5403 C 505.736 3.02171 1.71201 0
M  V30 5404 C 504.69 4.0895 1.26268 0
M  V30 5405 C 504.016 4.71915 2.51396 0
M  V30 5406 C 505.316 5.20891 0.383419 0
M  V30 5407 H 507.01 2.99343 -0.0584517 0
M  V30 5408 H 504.556 1.4397 -0.0295527 0
M  V30 5409 H 506.509 3.51681 2.32161 0
M  V30 5410 H 505.233 2.27433 2.34397 0
M  V30 5411 H 503.892 3.60312 0.676062 0
M  V30 5412 H 503.54 3.93801 3.12937 0
M  V30 5413 H 503.24 5.44039 2.22026 0
M  V30 5414 H 504.764 5.24195 3.13133 0
M  V30 5415 H 506.178 5.66206 0.899082 0
M  V30 5416 H 504.575 5.99821 0.182857 0
M  V30 5417 H 505.645 4.81324 -0.587821 0
M  V30 5418 N 506.988 0.0434614 1.5754 0
M  V30 5419 C 507.918 -0.931651 2.14109 0
M  V30 5420 C 508.899 -1.32971 1.06079 0
M  V30 5421 O 510.084 -1.40579 1.33982 0
M  V30 5422 C 507.214 -2.20914 2.67982 0
M  V30 5423 C 506.168 -1.95139 3.80926 0
M  V30 5424 C 505.494 -3.29276 4.21285 0
M  V30 5425 C 506.794 -1.27913 5.06395 0
M  V30 5426 H 508.488 -0.460497 2.95837 0
M  V30 5427 H 506.034 -0.220058 1.42309 0
M  V30 5428 H 507.987 -2.89522 3.06194 0
M  V30 5429 H 506.711 -2.70221 1.83434 0
M  V30 5430 H 505.37 -1.28945 3.43175 0
M  V30 5431 H 505.018 -3.76369 3.33699 0
M  V30 5432 H 504.718 -3.12831 4.97404 0
M  V30 5433 H 506.242 -3.99129 4.62091 0
M  V30 5434 H 507.656 -1.86544 5.42102 0
M  V30 5435 H 506.053 -1.2182 5.87605 0
M  V30 5436 H 507.123 -0.254066 4.84234 0
M  V30 5437 N 508.466 -1.55915 -0.229846 0
M  V30 5438 C 509.694 -1.82617 -0.972562 0
M  V30 5439 C 510.109 -0.621488 -1.78278 0
M  V30 5440 O 509.466 0.409956 -1.77836 0
M  V30 5441 C 509.517 -3.0774 -1.89679 0
M  V30 5442 O 509.238 -4.23559 -1.11934 0
M  V30 5443 C 510.739 -3.47368 -2.75409 0
M  V30 5444 H 507.959 -0.60727 -0.285419 0
M  V30 5445 H 510.503 -2.02996 -0.247579 0
M  V30 5446 H 508.658 -2.89361 -2.57583 0
M  V30 5447 H 509.072 -4.94586 -1.74599 0
M  V30 5448 H 510.546 -4.37977 -3.35977 0
M  V30 5449 H 511.023 -2.68737 -3.47386 0
M  V30 5450 H 511.629 -3.68158 -2.12931 0
M  V30 5451 N 509.944 0.496216 -1.49584 0
M  V30 5452 C 510.874 1.60576 -1.69521 0
M  V30 5453 C 511.855 1.61169 -0.543933 0
M  V30 5454 O 513.04 1.77834 -0.78031 0
M  V30 5455 C 510.17 2.99038 -1.76616 0
M  V30 5456 C 509.124 3.13312 -2.91581 0
M  V30 5457 C 508.45 4.53172 -2.83794 0
M  V30 5458 C 509.75 2.92886 -4.32452 0
M  V30 5459 H 511.444 1.44146 -2.62416 0
M  V30 5460 H 508.99 0.692024 -1.26282 0
M  V30 5461 H 510.943 3.76564 -1.8915 0
M  V30 5462 H 509.667 3.16568 -0.80324 0
M  V30 5463 H 508.326 2.38213 -2.78658 0
M  V30 5464 H 507.974 4.67585 -1.854 0
M  V30 5465 H 507.674 4.63662 -3.60958 0
M  V30 5466 H 509.198 5.32752 -2.98342 0
M  V30 5467 H 510.612 3.60178 -4.46032 0
M  V30 5468 H 509.009 3.14844 -5.10875 0
M  V30 5469 H 510.079 1.88966 -4.46565 0
M  V30 5470 N 511.423 1.38739 0.74761 0
M  V30 5471 C 512.353 1.39173 1.87492 0
M  V30 5472 C 513.334 0.256794 1.6815 0
M  V30 5473 O 514.519 0.460762 1.88655 0
M  V30 5474 C 511.649 1.22197 3.25093 0
M  V30 5475 C 510.603 2.32957 3.59047 0
M  V30 5476 C 509.929 2.01082 4.95449 0
M  V30 5477 C 511.229 3.75237 3.6331 0
M  V30 5478 H 512.923 2.3351 1.87386 0
M  V30 5479 H 510.469 1.12399 0.900134 0
M  V30 5480 H 512.422 1.21124 4.03617 0
M  V30 5481 H 511.146 0.243241 3.25693 0
M  V30 5482 H 509.805 2.33226 2.82845 0
M  V30 5483 H 509.453 1.01678 4.92616 0
M  V30 5484 H 509.153 2.75267 5.19136 0
M  V30 5485 H 510.677 2.01638 5.76346 0
M  V30 5486 H 512.091 3.76966 4.31937 0
M  V30 5487 H 510.488 4.48677 3.98509 0
M  V30 5488 H 511.558 4.07122 2.634 0
M  V30 5489 N 512.901 -0.976442 1.23707 0
M  V30 5490 C 513.833 -2.07212 0.979574 0
M  V30 5491 C 514.846 -1.6273 -0.0478528 0
M  V30 5492 O 516.035 -1.77506 0.18815 0
M  V30 5493 C 513.135 -3.35835 0.45479 0
M  V30 5494 C 512.308 -4.09268 1.54331 0
M  V30 5495 C 511.367 -5.16166 1.02271 0
M  V30 5496 O 510.393 -5.42827 1.71254 0
M  V30 5497 N 511.595 -5.80313 -0.147419 0
M  V30 5498 H 514.36 -2.29878 1.92292 0
M  V30 5499 H 511.921 -1.14343 1.14618 0
M  V30 5500 H 513.913 -4.04597 0.0914631 0
M  V30 5501 H 512.483 -3.10106 -0.394068 0
M  V30 5502 H 511.703 -3.34906 2.07923 0
M  V30 5503 H 512.991 -4.55095 2.27522 0
M  V30 5504 H 512.389 -5.61043 -0.724353 0
M  V30 5505 H 510.946 -6.50231 -0.451972 0
M  V30 5506 N 514.379 -1.04941 -1.1758 0
M  V30 5507 C 515.625 -0.759112 -1.88057 0
M  V30 5508 C 515.958 0.711918 -1.8068 0
M  V30 5509 O 515.233 1.52035 -1.21308 0
M  V30 5510 C 515.516 -1.237 -3.38187 0
M  V30 5511 C 515.369 -2.77078 -3.54327 0
M  V30 5512 C 516.688 -0.834014 -4.32125 0
M  V30 5513 H 513.807 -0.277237 -0.682868 0
M  V30 5514 H 516.449 -1.30296 -1.38286 0
M  V30 5515 H 514.599 -0.774337 -3.80705 0
M  V30 5516 H 516.271 -3.31449 -3.20842 0
M  V30 5517 H 514.514 -3.16477 -2.96689 0
M  V30 5518 H 515.185 -3.05577 -4.59703 0
M  V30 5519 H 517.661 -1.23228 -3.97434 0
M  V30 5520 H 516.537 -1.19603 -5.35711 0
M  V30 5521 H 516.798 0.262195 -4.41322 0
M  V30 5522 N 515.857 1.33968 -0.830081 0
M  V30 5523 C 517.082 2.02813 -0.433796 0
M  V30 5524 C 517.507 1.62076 0.954614 0
M  V30 5525 O 516.865 0.808955 1.62252 0
M  V30 5526 C 516.913 3.56348 -0.552115 0
M  V30 5527 O 516.017 4.10202 0.425191 0
M  V30 5528 H 515.358 0.639817 -0.177567 0
M  V30 5529 H 517.888 1.7106 -1.12248 0
M  V30 5530 H 517.898 4.05722 -0.430513 0
M  V30 5531 H 516.573 3.85344 -1.56471 0
M  V30 5532 H 515.15 3.71979 0.261878 0
M  V30 5533 N 517.335 0.585699 1.46312 0
M  V30 5534 C 518.56 0.0762461 2.0726 0
M  V30 5535 C 518.985 -1.22071 1.43109 0
M  V30 5536 O 518.343 -1.73804 0.515942 0
M  V30 5537 C 518.391 -0.0729404 3.60526 0
M  V30 5538 O 517.495 -1.1287 3.96654 0
M  V30 5539 H 516.836 0.0641558 0.660893 0
M  V30 5540 H 519.366 0.809492 1.87905 0
M  V30 5541 H 519.376 -0.278158 4.07051 0
M  V30 5542 H 518.051 0.874188 4.06609 0
M  V30 5543 H 516.628 -0.901703 3.61834 0
M  V30 5544 N 518.813 -1.54241 0.323641 0
M  V30 5545 C 520.043 -2.04687 -0.280464 0
M  V30 5546 C 520.451 -1.19939 -1.46326 0
M  V30 5547 O 519.794 -0.222872 -1.82343 0
M  V30 5548 C 519.856 -3.50978 -0.778123 0
M  V30 5549 C 519.52 -4.56127 0.282371 0
M  V30 5550 C 520.517 -5.07726 1.11847 0
M  V30 5551 C 518.202 -5.00451 0.430582 0
M  V30 5552 C 520.196 -6.02212 2.08851 0
M  V30 5553 C 517.883 -5.94752 1.40404 0
M  V30 5554 C 518.881 -6.45519 2.23147 0
M  V30 5555 O 518.569 -7.37968 3.1884 0
M  V30 5556 H 518.301 -0.673192 -0.0615473 0
M  V30 5557 H 520.855 -1.99999 0.467921 0
M  V30 5558 H 519.085 -3.53064 -1.57742 0
M  V30 5559 H 520.774 -3.84499 -1.30058 0
M  V30 5560 H 521.54 -4.74261 1.01496 0
M  V30 5561 H 517.419 -4.6055 -0.203569 0
M  V30 5562 H 520.963 -6.41761 2.73474 0
M  V30 5563 H 516.86 -6.27633 1.5082 0
M  V30 5564 H 517.628 -7.55841 3.14079 0
M  V30 5565 N 520.291 -0.0518155 -1.57515 0
M  V30 5566 C 521.54 0.621286 -1.91893 0
M  V30 5567 C 521.853 1.71966 -0.932052 0
M  V30 5568 O 523.059 2.45096 -1.16791 0
M  V30 5569 C 521.515 1.15641 -3.40816 0
M  V30 5570 C 521.123 0.0901146 -4.47909 0
M  V30 5571 C 522.867 1.80472 -3.84227 0
M  V30 5572 C 520.774 0.638154 -5.87947 0
M  V30 5573 H 519.704 0.235835 -0.716169 0
M  V30 5574 H 522.355 -0.120809 -1.83102 0
M  V30 5575 H 520.737 1.95084 -3.44613 0
M  V30 5576 H 521.911 -0.683525 -4.55702 0
M  V30 5577 H 520.226 -0.460774 -4.13843 0
M  V30 5578 H 522.823 2.22471 -4.86221 0
M  V30 5579 H 523.166 2.65669 -3.20508 0
M  V30 5580 H 523.699 1.07683 -3.82948 0
M  V30 5581 H 520.438 -0.176202 -6.55263 0
M  V30 5582 H 519.958 1.37976 -5.83714 0
M  V30 5583 H 521.637 1.12085 -6.37217 0
M  V30 5584 N 521.769 1.56035 0.221574 0
M  V30 5585 C 523.017 1.78693 0.944102 0
M  V30 5586 C 523.338 0.620317 1.8487 0
M  V30 5587 O 522.608 -0.362784 1.92512 0
M  V30 5588 H 521.188 0.659082 0.351597 0
M  V30 5589 H 523.85 1.93497 0.233435 0
M  V30 5590 H 522.946 2.70837 1.55093 0
M  V30 5591 N 523.247 -0.488276 1.49845 0
M  V30 5592 C 524.21 -1.57069 1.66919 0
M  V30 5593 C 525.21 -1.51445 0.540479 0
M  V30 5594 O 526.4 -1.5437 0.807188 0
M  V30 5595 C 523.532 -2.96718 1.67844 0
M  V30 5596 H 524.725 -1.43254 2.63474 0
M  V30 5597 H 522.278 -0.713435 1.39068 0
M  V30 5598 H 523.013 -3.15996 0.7292 0
M  V30 5599 H 522.798 -3.02208 2.49826 0
M  V30 5600 H 524.288 -3.75335 1.83066 0
M  V30 5601 N 524.725 -1.39134 -0.740242 0
M  V30 5602 C 525.972 -1.36071 -1.49969 0
M  V30 5603 C 526.3 0.0450245 -1.94448 0
M  V30 5604 O 525.555 1.02482 -1.66721 0
M  V30 5605 C 525.854 -2.27457 -2.75678 0
M  V30 5606 C 525.52 -3.75185 -2.50094 0
M  V30 5607 C 524.182 -4.15439 -2.42825 0
M  V30 5608 C 526.534 -4.68643 -2.28086 0
M  V30 5609 C 523.862 -5.4722 -2.11584 0
M  V30 5610 C 526.214 -6.00695 -1.98363 0
M  V30 5611 C 524.878 -6.40018 -1.8956 0
M  V30 5612 H 524.148 -0.497921 -0.548777 0
M  V30 5613 H 526.795 -1.71599 -0.85007 0
M  V30 5614 H 525.1 -1.8503 -3.45356 0
M  V30 5615 H 526.797 -2.22384 -3.33686 0
M  V30 5616 H 523.387 -3.43279 -2.56627 0
M  V30 5617 H 527.571 -4.3838 -2.32672 0
M  V30 5618 H 522.827 -5.76615 -2.03287 0
M  V30 5619 H 527.001 -6.72644 -1.80341 0
M  V30 5620 H 524.628 -7.42051 -1.65117 0
M  V30 5621 N 526.204 0.969867 -1.24223 0
M  V30 5622 C 527.432 1.74756 -1.10761 0
M  V30 5623 C 527.847 1.85713 0.340041 0
M  V30 5624 O 527.204 1.34389 1.23474 0
M  V30 5625 C 527.255 3.16915 -1.73917 0
M  V30 5626 O 526.976 3.06511 -3.13021 0
M  V30 5627 C 528.477 4.11032 -1.66036 0
M  V30 5628 H 525.697 0.548092 -0.387087 0
M  V30 5629 H 528.241 1.2178 -1.64286 0
M  V30 5630 H 526.396 3.66884 -1.244 0
M  V30 5631 H 526.81 3.96079 -3.43834 0
M  V30 5632 H 528.284 5.08446 -2.14911 0
M  V30 5633 H 528.761 4.34785 -0.621159 0
M  V30 5634 H 529.367 3.66972 -2.14969 0
M  V30 5635 N 527.682 1.05563 1.17022 0
M  V30 5636 C 528.912 0.787307 1.91011 0
M  V30 5637 C 529.32 -0.661256 1.77268 0
M  V30 5638 O 528.663 -1.46379 1.10991 0
M  V30 5639 C 528.725 1.09313 3.42478 0
M  V30 5640 C 528.389 2.53863 3.80004 0
M  V30 5641 C 529.386 3.52081 3.82538 0
M  V30 5642 C 527.071 2.88969 4.10855 0
M  V30 5643 C 529.065 4.83449 4.15399 0
M  V30 5644 C 526.752 4.2054 4.43384 0
M  V30 5645 C 527.75 5.17589 4.45635 0
M  V30 5646 O 527.438 6.46799 4.77395 0
M  V30 5647 H 527.17 0.285463 0.61277 0
M  V30 5648 H 529.724 1.41051 1.49311 0
M  V30 5649 H 527.954 0.412833 3.8449 0
M  V30 5650 H 529.643 0.810224 3.97731 0
M  V30 5651 H 530.409 3.26299 3.58823 0
M  V30 5652 H 526.288 2.1409 4.08272 0
M  V30 5653 H 529.832 5.59194 4.1707 0
M  V30 5654 H 525.729 4.46083 4.66563 0
M  V30 5655 H 526.497 6.51677 4.95237 0
M  V30 5656 N 529.16 -1.33526 0.837174 0
M  V30 5657 C 530.406 -1.9813 0.432704 0
M  V30 5658 C 530.739 -1.66168 -1.00508 0
M  V30 5659 O 530.014 -0.94069 -1.70239 0
M  V30 5660 C 530.297 -3.54151 0.651834 0
M  V30 5661 C 530.15 -3.95806 2.13676 0
M  V30 5662 C 531.469 -4.39993 0.0968937 0
M  V30 5663 H 528.588 -0.719713 0.15869 0
M  V30 5664 H 531.23 -1.58193 1.05237 0
M  V30 5665 H 529.38 -3.88301 0.124369 0
M  V30 5666 H 531.052 -3.71921 2.72896 0
M  V30 5667 H 529.295 -3.45599 2.62191 0
M  V30 5668 H 529.966 -5.0447 2.24084 0
M  V30 5669 H 532.442 -4.12479 0.547733 0
M  V30 5670 H 531.318 -5.48186 0.279917 0
M  V30 5671 H 531.579 -4.3066 -0.9992 0
M  V30 5672 N 530.638 -0.59345 -1.46 0
M  V30 5673 C 531.885 -0.0831523 -2.02329 0
M  V30 5674 C 532.213 1.28093 -1.46364 0
M  V30 5675 O 531.468 1.85526 -0.622793 0
M  V30 5676 C 531.767 0.021178 -3.57394 0
M  V30 5677 C 531.433 -1.27671 -4.32448 0
M  V30 5678 C 530.095 -1.63227 -4.5267 0
M  V30 5679 C 532.447 -2.13511 -4.7546 0
M  V30 5680 C 529.775 -2.84401 -5.1316 0
M  V30 5681 C 532.127 -3.33922 -5.37289 0
M  V30 5682 C 530.791 -3.69747 -5.55737 0
M  V30 5683 H 530.061 -0.0304276 -0.740375 0
M  V30 5684 H 532.708 -0.772239 -1.75239 0
M  V30 5685 H 531.013 0.793454 -3.83682 0
M  V30 5686 H 532.71 0.431942 -3.98667 0
M  V30 5687 H 529.3 -0.989937 -4.17011 0
M  V30 5688 H 533.484 -1.87344 -4.59582 0
M  V30 5689 H 528.74 -3.12282 -5.25633 0
M  V30 5690 H 532.914 -4.00698 -5.69574 0
M  V30 5691 H 530.541 -4.6373 -6.02377 0
M  V30 5692 N 532.116 1.54067 -0.331816 0
M  V30 5693 C 533.063 2.24623 0.530372 0
M  V30 5694 C 534.033 1.24009 1.10503 0
M  V30 5695 O 535.218 1.52712 1.14384 0
M  V30 5696 C 532.358 3.01374 1.68129 0
M  V30 5697 C 531.471 4.16821 1.13507 0
M  V30 5698 C 530.606 4.81085 2.25234 0
M  V30 5699 C 529.645 5.88621 1.67903 0
M  V30 5700 N 528.782 6.46713 2.73326 0
M  V30 5701 H 533.622 2.97898 -0.0778607 0
M  V30 5702 H 531.159 1.47014 -0.0501965 0
M  V30 5703 H 533.117 3.44125 2.35868 0
M  V30 5704 H 531.747 2.30419 2.26069 0
M  V30 5705 H 530.799 3.78796 0.348979 0
M  V30 5706 H 532.111 4.94203 0.675633 0
M  V30 5707 H 531.265 5.26846 3.00862 0
M  V30 5708 H 530.004 4.03102 2.74518 0
M  V30 5709 H 529.009 5.42254 0.907773 0
M  V30 5710 H 530.234 6.68506 1.19487 0
M  V30 5711 H 528.18 5.71599 3.21886 0
M  V30 5712 H 528.097 7.19532 2.3197 0
M  V30 5713 H 529.365 6.97129 3.48758 0
M  V30 5714 N 533.594 0.0601682 1.57485 0
M  V30 5715 C 534.824 -0.620037 1.97076 0
M  V30 5716 C 535.232 -1.64381 0.936784 0
M  V30 5717 O 534.575 -1.83497 -0.0863377 0
M  V30 5718 C 534.637 -1.35617 3.32939 0
M  V30 5719 C 534.301 -0.487208 4.54396 0
M  V30 5720 C 535.298 0.250428 5.19297 0
M  V30 5721 C 532.983 -0.415494 5.00579 0
M  V30 5722 C 534.977 1.04812 6.28723 0
M  V30 5723 C 532.664 0.385879 6.0988 0
M  V30 5724 C 533.662 1.11637 6.73815 0
M  V30 5725 O 533.35 1.90454 7.81014 0
M  V30 5726 H 533.082 -0.173664 0.653312 0
M  V30 5727 H 535.636 0.1256 2.05016 0
M  V30 5728 H 533.866 -2.14763 3.2158 0
M  V30 5729 H 535.555 -1.92749 3.57215 0
M  V30 5730 H 536.321 0.204546 4.84568 0
M  V30 5731 H 532.2 -0.973679 4.506 0
M  V30 5732 H 535.744 1.6188 6.78558 0
M  V30 5733 H 531.641 0.433366 6.44044 0
M  V30 5734 H 532.409 1.82762 7.97835 0
M  V30 5735 N 535.072 -1.5615 -0.213296 0
M  V30 5736 C 536.318 -1.79812 -0.937849 0
M  V30 5737 C 536.651 -0.631201 -1.83656 0
M  V30 5738 O 535.926 0.369165 -1.90964 0
M  V30 5739 C 536.209 -3.13613 -1.76972 0
M  V30 5740 C 536.062 -4.40766 -0.89695 0
M  V30 5741 C 537.381 -3.43931 -2.7459 0
M  V30 5742 H 534.5 -0.654138 -0.339518 0
M  V30 5743 H 537.142 -1.88877 -0.20623 0
M  V30 5744 H 535.292 -3.06015 -2.39347 0
M  V30 5745 H 536.964 -4.60392 -0.289306 0
M  V30 5746 H 535.207 -4.33326 -0.202756 0
M  V30 5747 H 535.878 -5.30843 -1.51358 0
M  V30 5748 H 538.354 -3.5171 -2.22349 0
M  V30 5749 H 537.23 -4.38706 -3.29891 0
M  V30 5750 H 537.491 -2.6651 -3.52739 0
M  V30 5751 N 536.55 0.480323 -1.50102 0
M  V30 5752 C 537.46 1.60547 -1.71061 0
M  V30 5753 C 538.476 1.63564 -0.593529 0
M  V30 5754 O 539.652 1.81604 -0.870751 0
M  V30 5755 C 536.717 2.96814 -1.79171 0
M  V30 5756 C 535.778 3.04259 -3.02861 0
M  V30 5757 C 535.011 4.34027 -3.10574 0
M  V30 5758 O 535.234 5.24009 -2.25323 0
M  V30 5759 O 534.168 4.46873 -4.03223 0
M  V30 5760 H 537.994 1.45788 -2.6642 0
M  V30 5761 H 535.579 0.658838 -1.34088 0
M  V30 5762 H 537.461 3.77765 -1.86738 0
M  V30 5763 H 536.136 3.11791 -0.869947 0
M  V30 5764 H 535.043 2.22419 -3.008 0
M  V30 5765 H 536.376 2.94216 -3.94586 0
M  V30 5766 N 538.028 1.39524 0.732853 0
M  V30 5767 C 538.96 1.34318 1.85718 0
M  V30 5768 C 539.973 0.251576 1.60844 0
M  V30 5769 O 541.162 0.510685 1.71039 0
M  V30 5770 C 538.262 1.06334 3.21786 0
M  V30 5771 C 537.435 2.26813 3.73998 0
M  V30 5772 C 536.494 1.95253 4.88634 0
M  V30 5773 O 535.52 2.67957 5.02183 0
M  V30 5774 N 536.722 0.919984 5.73164 0
M  V30 5775 H 539.487 2.3121 1.90688 0
M  V30 5776 H 537.048 1.33654 0.91368 0
M  V30 5777 H 539.04 0.832363 3.96048 0
M  V30 5778 H 537.61 0.181682 3.12072 0
M  V30 5779 H 536.83 2.65849 2.91064 0
M  V30 5780 H 538.118 3.0717 4.05616 0
M  V30 5781 H 537.516 0.317487 5.64808 0
M  V30 5782 H 536.073 0.748905 6.47483 0
M  V30 5783 N 539.506 -0.963266 1.24736 0
M  V30 5784 C 540.438 -2.06162 1.0015 0
M  V30 5785 C 541.451 -1.62771 -0.0305905 0
M  V30 5786 O 542.64 -1.77296 0.206966 0
M  V30 5787 C 539.74 -3.35333 0.490385 0
M  V30 5788 C 538.913 -4.07609 1.58663 0
M  V30 5789 C 537.972 -5.15052 1.0774 0
M  V30 5790 O 536.998 -5.4098 1.77002 0
M  V30 5791 N 538.2 -5.80436 -0.0858605 0
M  V30 5792 H 540.965 -2.27825 1.94719 0
M  V30 5793 H 538.526 -1.13121 1.15825 0
M  V30 5794 H 540.518 -4.04477 0.134371 0
M  V30 5795 H 539.088 -3.10507 -0.361155 0
M  V30 5796 H 538.308 -3.32681 2.11463 0
M  V30 5797 H 539.596 -4.52656 2.32336 0
M  V30 5798 H 538.994 -5.6178 -0.664806 0
M  V30 5799 H 537.551 -6.50674 -0.382981 0
M  V30 5800 N 540.985 -1.06182 -1.16461 0
M  V30 5801 C 542.215 -0.797425 -1.9059 0
M  V30 5802 C 542.623 0.651845 -1.77616 0
M  V30 5803 O 541.966 1.45788 -1.11766 0
M  V30 5804 C 542.028 -1.11128 -3.41893 0
M  V30 5805 C 541.692 -2.55874 -3.78652 0
M  V30 5806 C 542.689 -3.54104 -3.80665 0
M  V30 5807 C 540.374 -2.91144 -4.09317 0
M  V30 5808 C 542.368 -4.85645 -4.12829 0
M  V30 5809 C 540.055 -4.22885 -4.41148 0
M  V30 5810 C 541.053 -5.19945 -4.42883 0
M  V30 5811 O 540.741 -6.49322 -4.73959 0
M  V30 5812 H 540.473 -0.288709 -0.611247 0
M  V30 5813 H 543.027 -1.41841 -1.4856 0
M  V30 5814 H 541.257 -0.433217 -3.84266 0
M  V30 5815 H 542.946 -0.831306 -3.97296 0
M  V30 5816 H 543.712 -3.28197 -3.57088 0
M  V30 5817 H 539.591 -2.16252 -4.07131 0
M  V30 5818 H 543.135 -5.61398 -4.14099 0
M  V30 5819 H 539.032 -4.48551 -4.6419 0
M  V30 5820 H 539.8 -6.54294 -4.91774 0
M  V30 5821 N 542.463 1.3308 -0.844243 0
M  V30 5822 C 543.711 1.97215 -0.441676 0
M  V30 5823 C 544.032 1.67185 1.0037 0
M  V30 5824 O 543.302 0.973588 1.69994 0
M  V30 5825 H 541.882 0.72959 -0.160335 0
M  V30 5826 H 544.544 1.62348 -1.07838 0
M  V30 5827 H 543.64 3.06698 -0.57815 0
M  V30 5828 N 543.941 0.601185 1.45683 0
M  V30 5829 C 544.873 -0.159446 2.28645 0
M  V30 5830 C 545.886 -0.837882 1.39583 0
M  V30 5831 O 547.075 -0.704344 1.64016 0
M  V30 5832 C 544.175 -1.24641 3.15147 0
M  V30 5833 C 543.348 -0.656334 4.32448 0
M  V30 5834 C 542.407 -1.63337 5.00208 0
M  V30 5835 O 541.433 -1.16217 5.57209 0
M  V30 5836 N 542.635 -2.96773 4.98905 0
M  V30 5837 H 545.4 0.5524 2.94565 0
M  V30 5838 H 542.961 0.440223 1.558 0
M  V30 5839 H 544.953 -1.8997 3.57342 0
M  V30 5840 H 543.523 -1.86087 2.51178 0
M  V30 5841 H 542.743 0.174879 3.93812 0
M  V30 5842 H 544.031 -0.242211 5.08223 0
M  V30 5843 H 543.429 -3.37662 4.53873 0
M  V30 5844 H 541.986 -3.57541 5.44984 0
M  V30 5845 N 545.419 -1.53889 0.339982 0
M  V30 5846 C 546.83 -1.86139 -0.144671 0
M  V30 5847 C 547.181 -1.2613 -1.50285 0
M  V30 5848 O 546.306 -0.573515 -2.08662 0
M  V30 5849 C 546.901 -3.37728 -0.269285 0
M  V30 5850 C 545.46 -3.69868 -0.698168 0
M  V30 5851 C 544.607 -2.76777 0.170249 0
M  V30 5852 H 547.558 -1.48503 0.559704 0
M  V30 5853 H 547.579 -3.64331 -1.0974 0
M  V30 5854 H 547.091 -3.81375 0.719366 0
M  V30 5855 H 545.192 -3.31764 -1.69597 0
M  V30 5856 H 545.305 -4.76582 -0.490533 0
M  V30 5857 H 543.669 -2.52188 -0.356844 0
M  V30 5858 H 544.452 -3.23253 1.15597 0
M  V30 5859 N 546.897 -0.0685191 -1.57451 0
M  V30 5860 C 548.122 0.613919 -1.98106 0
M  V30 5861 C 548.547 1.62551 -0.946501 0
M  V30 5862 O 547.905 1.81085 0.0882824 0
M  V30 5863 C 547.953 1.26189 -3.378 0
M  V30 5864 O 547.057 2.37773 -3.36954 0
M  V30 5865 H 546.398 0.158163 -0.644888 0
M  V30 5866 H 548.928 -0.142063 -2.04106 0
M  V30 5867 H 548.938 1.60951 -3.74912 0
M  V30 5868 H 547.613 0.520625 -4.12629 0
M  V30 5869 H 546.19 2.04829 -3.11608 0
M  V30 5870 N 548.375 1.56261 0.205012 0
M  V30 5871 C 549.6 1.84491 0.947512 0
M  V30 5872 C 550.025 0.650894 1.76479 0
M  V30 5873 O 549.383 -0.40035 1.76824 0
M  V30 5874 C 549.431 3.10863 1.82747 0
M  V30 5875 O 548.535 2.90719 2.925 0
M  V30 5876 H 547.876 0.607783 0.267386 0
M  V30 5877 H 550.406 2.03485 0.213323 0
M  V30 5878 H 550.416 3.41399 2.23407 0
M  V30 5879 H 549.091 3.97392 1.2269 0
M  V30 5880 H 547.668 2.71457 2.55667 0
M  V30 5881 N 549.853 -0.472356 1.50355 0
M  V30 5882 C 550.8 -1.57051 1.69126 0
M  V30 5883 C 551.77 -1.5733 0.532574 0
M  V30 5884 O 552.955 -1.7488 0.762994 0
M  V30 5885 C 550.095 -2.95033 1.79024 0
M  V30 5886 C 549.208 -3.04552 3.06386 0
M  V30 5887 C 548.343 -4.33441 3.07087 0
M  V30 5888 C 547.382 -4.36697 4.28908 0
M  V30 5889 N 546.519 -5.57056 4.27356 0
M  V30 5890 H 551.359 -1.40351 2.62879 0
M  V30 5891 H 548.896 -0.682403 1.30314 0
M  V30 5892 H 550.854 -3.75048 1.82744 0
M  V30 5893 H 549.484 -3.10371 0.887109 0
M  V30 5894 H 548.536 -2.17419 3.12143 0
M  V30 5895 H 549.848 -3.02818 3.96362 0
M  V30 5896 H 549.002 -5.21801 3.09529 0
M  V30 5897 H 547.741 -4.37782 2.14939 0
M  V30 5898 H 546.746 -3.46734 4.2668 0
M  V30 5899 H 547.971 -4.34049 5.22282 0
M  V30 5900 H 545.917 -5.62184 3.3806 0
M  V30 5901 H 545.834 -5.57058 5.111 0
M  V30 5902 H 547.102 -6.47545 4.33942 0
M  V30 5903 N 551.331 -1.39911 -0.725443 0
M  V30 5904 C 552.294 -1.39156 -1.82121 0
M  V30 5905 C 553.294 -0.287018 -1.58218 0
M  V30 5906 O 554.484 -0.545421 -1.65441 0
M  V30 5907 C 551.616 -1.1736 -3.20062 0
M  V30 5908 H 552.809 -2.36672 -1.84191 0
M  V30 5909 H 550.362 -1.25615 -0.930079 0
M  V30 5910 H 551.097 -0.205648 -3.23647 0
M  V30 5911 H 550.882 -1.97358 -3.3881 0
M  V30 5912 H 552.372 -1.19596 -4.00108 0
M  V30 5913 N 552.809 0.956637 -1.25245 0
M  V30 5914 C 553.757 2.0743 -1.0524 0
M  V30 5915 C 554.751 1.69392 0.0160725 0
M  V30 5916 O 555.957 1.7946 -0.139382 0
M  V30 5917 H 552.332 0.678921 -0.323373 0
M  V30 5918 H 554.303 2.2146 -1.99995 0
M  V30 5919 C 553.052 3.40872 -0.685702 0
M  V30 5920 H 552.375 3.70607 -1.49968 0
M  V30 5921 H 553.815 4.19939 -0.585415 0
M  V30 5922 C 552.274 3.31367 0.608082 0
M  V30 5923 O 552.804 3.66214 1.65076 0
M  V30 5924 N 551.01 2.84486 0.592955 0
M  V30 5925 H 550.557 2.56326 -0.25592 0
M  V30 5926 H 550.515 2.78509 1.45877 0
M  V30 5927 N 554.287 1.06798 1.15896 0
M  V30 5928 C 555.536 0.782796 1.8589 0
M  V30 5929 C 555.849 -0.693498 1.82893 0
M  V30 5930 O 557.055 -1.09325 2.48516 0
M  V30 5931 C 555.511 1.3502 3.33613 0
M  V30 5932 C 555.119 2.8571 3.45071 0
M  V30 5933 C 556.863 1.14278 4.08829 0
M  V30 5934 C 554.77 3.35669 4.86909 0
M  V30 5935 H 553.7 0.289149 0.696354 0
M  V30 5936 H 556.351 1.28734 1.30766 0
M  V30 5937 H 554.733 0.773407 3.88374 0
M  V30 5938 H 555.907 3.49385 3.00445 0
M  V30 5939 H 554.222 3.05178 2.83294 0
M  V30 5940 H 556.819 1.49087 5.13495 0
M  V30 5941 H 557.162 0.0814575 4.1622 0
M  V30 5942 H 557.695 1.68563 3.60321 0
M  V30 5943 H 554.434 4.41302 4.84698 0
M  V30 5944 H 553.954 2.76745 5.32139 0
M  V30 5945 H 555.633 3.31296 5.55745 0
M  V30 5946 N 555.766 -1.3263 0.851289 0
M  V30 5947 C 556.696 -2.31449 0.308771 0
M  V30 5948 C 557.677 -1.59531 -0.590255 0
M  V30 5949 O 558.862 -1.87351 -0.511205 0
M  V30 5950 C 555.992 -3.43586 -0.506548 0
M  V30 5951 C 554.946 -4.26963 0.297753 0
M  V30 5952 C 554.272 -5.30831 -0.642094 0
M  V30 5953 C 555.572 -4.99643 1.52166 0
M  V30 5954 H 557.266 -2.77074 1.13447 0
M  V30 5955 H 554.812 -1.33207 0.546971 0
M  V30 5956 H 556.765 -4.11754 -0.896474 0
M  V30 5957 H 555.489 -2.96681 -1.36558 0
M  V30 5958 H 554.148 -3.60437 0.669391 0
M  V30 5959 H 553.796 -4.8018 -1.49788 0
M  V30 5960 H 553.496 -5.87501 -0.107968 0
M  V30 5961 H 555.02 -6.01862 -1.02927 0
M  V30 5962 H 556.434 -5.6051 1.20421 0
M  V30 5963 H 554.831 -5.66022 1.99347 0
M  V30 5964 H 555.901 -4.27701 2.28474 0
M  V30 5965 N 557.244 -0.608902 -1.45362 0
M  V30 5966 C 558.174 0.0964526 -2.33301 0
M  V30 5967 C 559.155 0.857444 -1.46908 0
M  V30 5968 O 560.34 0.827735 -1.75676 0
M  V30 5969 C 557.47 1.09354 -3.29635 0
M  V30 5970 C 556.424 0.445676 -4.25673 0
M  V30 5971 C 555.75 1.5511 -5.11708 0
M  V30 5972 C 557.05 -0.633972 -5.18438 0
M  V30 5973 H 558.744 -0.637829 -2.92527 0
M  V30 5974 H 556.29 -0.308178 -1.40664 0
M  V30 5975 H 558.243 1.59556 -3.90025 0
M  V30 5976 H 556.967 1.85843 -2.6857 0
M  V30 5977 H 555.626 -0.0354897 -3.66583 0
M  V30 5978 H 555.274 2.30631 -4.4701 0
M  V30 5979 H 554.974 1.12311 -5.76767 0
M  V30 5980 H 556.498 2.05537 -5.74967 0
M  V30 5981 H 557.912 -0.215974 -5.72893 0
M  V30 5982 H 556.309 -0.983789 -5.91981 0
M  V30 5983 H 557.379 -1.51005 -4.60788 0
M  V30 5984 N 558.722 1.53707 -0.348139 0
M  V30 5985 C 559.97 2.00591 0.246478 0
M  V30 5986 C 560.291 1.23753 1.50699 0
M  V30 5987 O 559.561 0.345964 1.92821 0
M  V30 5988 H 558.141 0.741053 0.0940679 0
M  V30 5989 H 560.803 1.89139 -0.470354 0
M  V30 5990 H 559.899 3.08297 0.485714 0
M  V30 5991 N 560.2 0.0768682 1.57412 0
M  V30 5992 C 561.446 -0.591961 1.93968 0
M  V30 5993 C 561.779 -1.68954 0.9575 0
M  V30 5994 O 561.054 -1.94496 -0.0124675 0
M  V30 5995 C 561.337 -1.16418 3.40762 0
M  V30 5996 C 561.19 -0.0728933 4.49741 0
M  V30 5997 C 562.509 -2.06814 3.88479 0
M  V30 5998 H 559.628 -0.213716 0.705333 0
M  V30 5999 H 562.27 0.14387 1.89455 0
M  V30 6000 H 560.42 -1.79128 3.4474 0
M  V30 6001 H 562.092 0.560446 4.57883 0
M  V30 6002 H 560.335 0.595859 4.29688 0
M  V30 6003 H 561.006 -0.513755 5.49604 0
M  V30 6004 H 563.482 -1.54033 3.8654 0
M  V30 6005 H 562.358 -2.43785 4.91793 0
M  V30 6006 H 562.619 -2.97844 3.26713 0
M  V30 6007 N 561.678 -1.56367 -0.196722 0
M  V30 6008 C 562.927 -1.79724 -0.915539 0
M  V30 6009 C 563.24 -0.649804 -1.84491 0
M  V30 6010 O 564.446 -0.767631 -2.60422 0
M  V30 6011 C 562.902 -3.18369 -1.67836 0
M  V30 6012 C 562.51 -4.4091 -0.793897 0
M  V30 6013 C 564.254 -3.51037 -2.38691 0
M  V30 6014 C 562.161 -5.70577 -1.55549 0
M  V30 6015 H 561.091 -0.67013 -0.345604 0
M  V30 6016 H 563.742 -1.82721 -0.168856 0
M  V30 6017 H 562.124 -3.09617 -2.46887 0
M  V30 6018 H 563.298 -4.60781 -0.042163 0
M  V30 6019 H 561.613 -4.15937 -0.19626 0
M  V30 6020 H 564.21 -4.4515 -2.96219 0
M  V30 6021 H 564.553 -2.74704 -3.12799 0
M  V30 6022 H 565.086 -3.61229 -1.66608 0
M  V30 6023 H 561.825 -6.49871 -0.857226 0
M  V30 6024 H 561.345 -5.54726 -2.2812 0
M  V30 6025 H 563.024 -6.11637 -2.10971 0
M  V30 6026 N 563.156 0.464375 -1.50603 0
M  V30 6027 C 564.384 1.23907 -1.65695 0
M  V30 6028 C 564.799 1.85658 -0.343027 0
M  V30 6029 O 564.156 1.69529 0.675739 0
M  V30 6030 C 564.207 2.3429 -2.75301 0
M  V30 6031 O 563.928 1.7507 -4.01599 0
M  V30 6032 C 565.429 3.25051 -3.01424 0
M  V30 6033 H 562.649 0.374485 -0.556778 0
M  V30 6034 H 565.193 0.55353 -1.96866 0
M  V30 6035 H 563.348 2.98607 -2.46804 0
M  V30 6036 H 563.762 2.47812 -4.62266 0
M  V30 6037 H 565.236 3.98699 -3.81763 0
M  V30 6038 H 565.713 3.84227 -2.12758 0
M  V30 6039 H 566.319 2.66463 -3.31477 0
M  V30 6040 N 564.634 1.40294 0.718013 0
M  V30 6041 C 565.883 1.37746 1.4734 0
M  V30 6042 C 566.196 -0.0180754 1.95592 0
M  V30 6043 O 567.402 -0.166166 2.70991 0
M  V30 6044 C 565.858 2.4208 2.66318 0
M  V30 6045 C 565.466 3.87432 2.24945 0
M  V30 6046 C 567.21 2.48635 3.44065 0
M  V30 6047 C 565.117 4.83368 3.40748 0
M  V30 6048 H 564.047 0.512165 0.553356 0
M  V30 6049 H 566.698 1.66019 0.781661 0
M  V30 6050 H 565.08 2.06903 3.3765 0
M  V30 6051 H 566.254 4.3174 1.6105 0
M  V30 6052 H 564.569 3.8433 1.60249 0
M  V30 6053 H 567.166 3.17499 4.30231 0
M  V30 6054 H 567.509 1.51611 3.87711 0
M  V30 6055 H 568.042 2.82791 2.79775 0
M  V30 6056 H 564.781 5.81716 3.02136 0
M  V30 6057 H 564.301 4.43726 4.03568 0
M  V30 6058 H 565.98 5.03074 4.06848 0
M  V30 6059 N 566.112 -0.949982 1.2575 0
M  V30 6060 C 567.523 -1.50989 1.09815 0
M  V30 6061 C 567.874 -1.93497 -0.324556 0
M  V30 6062 O 566.999 -1.79068 -1.21506 0
M  V30 6063 C 567.594 -2.74394 1.98729 0
M  V30 6064 C 566.153 -3.26682 1.86965 0
M  V30 6065 C 565.3 -1.99498 1.92603 0
M  V30 6066 H 568.251 -0.766387 1.38968 0
M  V30 6067 H 568.272 -3.48383 1.53001 0
M  V30 6068 H 567.784 -2.43425 3.02268 0
M  V30 6069 H 565.885 -3.62461 0.863279 0
M  V30 6070 H 565.998 -3.94383 2.72027 0
M  V30 6071 H 564.362 -2.15005 1.36546 0
M  V30 6072 H 565.145 -1.70871 2.97755 0
M  V30 6073 N 567.59 -1.07411 -1.15328 0
M  V30 6074 C 568.839 -0.792643 -1.85473 0
M  V30 6075 C 569.152 0.683789 -1.83259 0
M  V30 6076 O 570.358 1.08005 -2.49093 0
M  V30 6077 C 568.814 -1.36787 -3.32892 0
M  V30 6078 C 568.422 -2.87536 -3.43551 0
M  V30 6079 C 570.166 -1.16444 -4.08217 0
M  V30 6080 C 568.073 -3.38247 -4.85122 0
M  V30 6081 H 567.003 -0.292838 -0.694811 0
M  V30 6082 H 569.654 -1.29426 -1.30082 0
M  V30 6083 H 568.036 -0.793993 -3.87958 0
M  V30 6084 H 569.21 -3.50973 -2.98588 0
M  V30 6085 H 567.525 -3.06676 -2.81672 0
M  V30 6086 H 570.122 -1.51808 -5.12697 0
M  V30 6087 H 570.465 -0.10353 -4.16171 0
M  V30 6088 H 570.998 -1.70472 -3.59422 0
M  V30 6089 H 567.737 -4.43866 -4.82351 0
M  V30 6090 H 567.257 -2.79564 -5.30664 0
M  V30 6091 H 568.936 -3.34238 -5.5398 0
M  V30 6092 N 569.068 1.32177 -0.85831 0
M  V30 6093 C 570.315 1.97125 -0.463484 0
M  V30 6094 C 570.643 1.67907 0.981705 0
M  V30 6095 O 569.898 0.961717 1.70439 0
M  V30 6096 C 570.197 3.51372 -0.653658 0
M  V30 6097 C 569.863 4.00584 -2.06987 0
M  V30 6098 C 568.525 4.13733 -2.4572 0
M  V30 6099 C 570.877 4.26624 -2.99402 0
M  V30 6100 C 568.205 4.50268 -3.76132 0
M  V30 6101 C 570.557 4.64618 -4.29316 0
M  V30 6102 C 569.221 4.75975 -4.67979 0
M  V30 6103 H 568.491 0.72133 -0.169601 0
M  V30 6104 H 571.138 1.57517 -1.08907 0
M  V30 6105 H 569.443 3.91761 0.0551328 0
M  V30 6106 H 571.14 3.99655 -0.328163 0
M  V30 6107 H 567.73 3.90837 -1.75911 0
M  V30 6108 H 571.914 4.1597 -2.70708 0
M  V30 6109 H 567.17 4.57256 -4.05865 0
M  V30 6110 H 571.344 4.83722 -5.00985 0
M  V30 6111 H 568.971 5.04041 -5.69076 0
M  V30 6112 N 570.547 0.616602 1.45037 0
M  V30 6113 C 571.51 -0.0871112 2.29034 0
M  V30 6114 C 572.51 -0.786414 1.40258 0
M  V30 6115 O 573.7 -0.633207 1.62284 0
M  V30 6116 C 570.832 -1.13369 3.21497 0
M  V30 6117 H 572.025 0.651497 2.92738 0
M  V30 6118 H 569.578 0.376058 1.51709 0
M  V30 6119 H 570.313 -1.90277 2.62612 0
M  V30 6120 H 570.098 -0.636358 3.86902 0
M  V30 6121 H 571.588 -1.62627 3.84633 0
M  V30 6122 N 572.025 -1.5352 0.356285 0
M  V30 6123 C 573.25 -2.06007 -0.239961 0
M  V30 6124 C 573.675 -1.22872 -1.42422 0
M  V30 6125 O 573.033 -0.245516 -1.7963 0
M  V30 6126 C 573.081 -3.5522 -0.620587 0
M  V30 6127 O 572.185 -3.74864 -1.71902 0
M  V30 6128 H 571.526 -0.662961 -0.0371377 0
M  V30 6129 H 574.056 -1.98033 0.514194 0
M  V30 6130 H 574.066 -3.98081 -0.894197 0
M  V30 6131 H 572.741 -4.15175 0.245407 0
M  V30 6132 H 571.318 -3.43904 -1.44169 0
M  V30 6133 N 573.503 -0.0852151 -1.57369 0
M  V30 6134 C 574.751 0.579658 -1.93609 0
M  V30 6135 C 575.072 1.69332 -0.967043 0
M  V30 6136 O 574.342 1.95892 -0.0174215 0
M  V30 6137 H 572.922 0.217113 -0.714752 0
M  V30 6138 H 575.584 -0.146226 -1.94351 0
M  V30 6139 H 574.68 0.996276 -2.95771 0
M  V30 6140 N 574.981 1.5647 0.188427 0
M  V30 6141 C 575.914 1.90146 1.26173 0
M  V30 6142 C 576.892 0.762294 1.43624 0
M  V30 6143 O 578.076 1.01395 1.58907 0
M  V30 6144 C 575.203 2.13748 2.62735 0
M  V30 6145 C 574.249 3.36448 2.62116 0
M  V30 6146 S 575.082 4.91364 2.12889 0
M  V30 6147 C 576.238 5.18041 3.51261 0
M  V30 6148 H 576.471 2.80886 0.974192 0
M  V30 6149 H 574.004 1.49335 0.392226 0
M  V30 6150 H 575.962 2.28028 3.41341 0
M  V30 6151 H 574.623 1.23747 2.88696 0
M  V30 6152 H 573.816 3.50109 3.62546 0
M  V30 6153 H 573.418 3.21196 1.91596 0
M  V30 6154 H 575.71 5.0897 4.47164 0
M  V30 6155 H 576.653 6.19764 3.42489 0
M  V30 6156 H 577.061 4.45657 3.46482 0
M  V30 6157 N 576.459 -0.456382 1.50847 0
M  V30 6158 C 577.706 -1.20736 1.62571 0
M  V30 6159 C 578.034 -1.9163 0.332904 0
M  V30 6160 O 577.289 -1.8343 -0.682058 0
M  V30 6161 C 577.588 -2.26336 2.76599 0
M  V30 6162 C 577.254 -1.7259 4.16562 0
M  V30 6163 C 575.916 -1.57654 4.54641 0
M  V30 6164 C 578.268 -1.32877 5.03977 0
M  V30 6165 C 575.596 -1.0145 5.77862 0
M  V30 6166 C 577.948 -0.7811 6.27759 0
M  V30 6167 C 576.612 -0.618488 6.64628 0
M  V30 6168 H 575.882 -0.441803 0.594888 0
M  V30 6169 H 578.529 -0.501169 1.84826 0
M  V30 6170 H 576.834 -3.0292 2.48489 0
M  V30 6171 H 578.531 -2.84227 2.82871 0
M  V30 6172 H 575.121 -1.85187 3.86528 0
M  V30 6173 H 579.305 -1.43245 4.75179 0
M  V30 6174 H 574.561 -0.876109 6.0509 0
M  V30 6175 H 578.735 -0.464783 6.94847 0
M  V30 6176 H 576.362 -0.180838 7.59985 0
M  V30 6177 N 577.937 -1.40673 -0.710563 0
M  V30 6178 C 578.867 -1.44095 -1.83736 0
M  V30 6179 C 579.848 -0.301286 -1.67411 0
M  V30 6180 O 581.033 -0.510618 -1.87367 0
M  V30 6181 C 578.163 -1.30773 -3.21738 0
M  V30 6182 C 577.117 -2.42395 -3.52745 0
M  V30 6183 C 576.443 -2.14147 -4.89944 0
M  V30 6184 C 577.743 -3.84738 -3.53234 0
M  V30 6185 H 579.437 -2.38396 -1.81129 0
M  V30 6186 H 576.983 -1.14746 -0.870017 0
M  V30 6187 H 578.936 -1.31783 -4.00264 0
M  V30 6188 H 577.66 -0.329507 -3.24934 0
M  V30 6189 H 576.319 -2.40643 -2.76562 0
M  V30 6190 H 575.967 -1.14703 -4.89747 0
M  V30 6191 H 575.667 -2.88934 -5.11655 0
M  V30 6192 H 577.191 -2.16848 -5.70797 0
M  V30 6193 H 578.605 -3.88286 -4.2179 0
M  V30 6194 H 577.002 -4.59085 -3.86473 0
M  V30 6195 H 578.072 -4.13962 -2.52514 0
M  V30 6196 N 579.415 0.9433 -1.26252 0
M  V30 6197 C 580.663 1.68592 -1.11451 0
M  V30 6198 C 580.984 1.91957 0.343123 0
M  V30 6199 O 580.254 1.51475 1.24226 0
M  V30 6200 H 578.834 0.624789 -0.409448 0
M  V30 6201 H 581.496 1.13351 -1.58548 0
M  V30 6202 H 580.592 2.66054 -1.63162 0
M  V30 6203 N 580.893 1.08022 1.14757 0
M  V30 6204 C 582.141 0.805913 1.85336 0
M  V30 6205 C 582.462 -0.670162 1.83122 0
M  V30 6206 O 581.732 -1.48567 1.2769 0
M  V30 6207 H 580.312 0.295138 0.686223 0
M  V30 6208 H 582.974 1.36538 1.3908 0
M  V30 6209 H 582.07 1.14655 2.90277 0
M  V30 6210 N 582.371 -1.3172 0.865308 0
M  V30 6211 C 583.601 -2.00765 0.487543 0
M  V30 6212 C 584.009 -1.65145 -0.92325 0
M  V30 6213 O 583.352 -0.874294 -1.61561 0
M  V30 6214 C 583.414 -3.55122 0.559369 0
M  V30 6215 C 583.078 -4.14202 1.93095 0
M  V30 6216 C 584.075 -4.3165 2.89784 0
M  V30 6217 C 581.76 -4.50036 2.23099 0
M  V30 6218 C 583.754 -4.84114 4.14623 0
M  V30 6219 C 581.441 -5.02203 3.48189 0
M  V30 6220 C 582.439 -5.19192 4.43767 0
M  V30 6221 O 582.127 -5.70241 5.6664 0
M  V30 6222 H 581.859 -0.649066 0.188915 0
M  V30 6223 H 584.413 -1.69032 1.16694 0
M  V30 6224 H 582.643 -3.86295 -0.176926 0
M  V30 6225 H 584.332 -4.05428 0.195694 0
M  V30 6226 H 585.098 -4.04288 2.6791 0
M  V30 6227 H 580.977 -4.36091 1.49485 0
M  V30 6228 H 584.521 -4.9729 4.89233 0
M  V30 6229 H 580.418 -5.28997 3.69908 0
M  V30 6230 H 581.186 -5.88617 5.68746 0
M  V30 6231 N 583.85 -0.624285 -1.44708 0
M  V30 6232 C 585.099 -0.123539 -2.01321 0
M  V30 6233 C 585.412 1.25966 -1.49639 0
M  V30 6234 O 586.618 1.85405 -1.98336 0
M  V30 6235 C 585.074 -0.170124 -3.59498 0
M  V30 6236 C 584.682 -1.55421 -4.20176 0
M  V30 6237 C 586.426 0.274513 -4.23611 0
M  V30 6238 C 584.332 -1.55628 -5.70556 0
M  V30 6239 H 583.263 -0.0424183 -0.752806 0
M  V30 6240 H 585.913 -0.782076 -1.65999 0
M  V30 6241 H 584.296 0.555385 -3.92086 0
M  V30 6242 H 585.47 -2.30276 -3.99136 0
M  V30 6243 H 583.784 -1.94235 -3.68323 0
M  V30 6244 H 586.382 0.292402 -5.339 0
M  V30 6245 H 586.725 1.3005 -3.95465 0
M  V30 6246 H 587.258 -0.398275 -3.95801 0
M  V30 6247 H 583.997 -2.56041 -6.03426 0
M  V30 6248 H 583.517 -0.850563 -5.93739 0
M  V30 6249 H 585.196 -1.28721 -6.34066 0
M  V30 6250 N 585.328 1.53329 -0.364422 0
M  V30 6251 C 586.577 2.00421 0.226747 0
M  V30 6252 C 586.89 1.25581 1.49963 0
M  V30 6253 O 588.096 1.63256 2.16933 0
M  V30 6254 C 586.552 3.57017 0.454618 0
M  V30 6255 C 586.16 4.40734 -0.803568 0
M  V30 6256 C 587.904 4.12468 1.00351 0
M  V30 6257 C 585.811 5.8888 -0.545345 0
M  V30 6258 H 584.741 0.748787 0.0885082 0
M  V30 6259 H 587.392 1.7703 -0.482983 0
M  V30 6260 H 585.774 3.76558 1.22558 0
M  V30 6261 H 586.948 4.32967 -1.57723 0
M  V30 6262 H 585.263 3.96381 -1.27559 0
M  V30 6263 H 587.86 5.20783 1.212 0
M  V30 6264 H 588.203 3.6699 1.9653 0
M  V30 6265 H 588.736 3.96721 0.29274 0
M  V30 6266 H 585.475 6.38633 -1.47743 0
M  V30 6267 H 584.995 5.99499 0.189842 0
M  V30 6268 H 586.674 6.46776 -0.170425 0
M  V30 6269 N 586.806 0.0935595 1.57322 0
M  V30 6270 C 587.753 -0.865935 2.1394 0
M  V30 6271 C 588.723 -1.28083 1.05754 0
M  V30 6272 O 589.908 -1.36285 1.33533 0
M  V30 6273 C 587.048 -2.12023 2.72287 0
M  V30 6274 C 586.161 -1.756 3.94701 0
M  V30 6275 C 585.296 -2.95804 4.41218 0
M  V30 6276 C 584.335 -2.555 5.56225 0
M  V30 6277 N 583.472 -3.68534 5.97601 0
M  V30 6278 H 588.312 -0.376261 2.95615 0
M  V30 6279 H 585.849 -0.174052 1.46067 0
M  V30 6280 H 587.807 -2.85477 3.04235 0
M  V30 6281 H 586.437 -2.58492 1.93343 0
M  V30 6282 H 585.489 -0.921208 3.69077 0
M  V30 6283 H 586.801 -1.41964 4.78171 0
M  V30 6284 H 585.955 -3.77513 4.74941 0
M  V30 6285 H 584.694 -3.32649 3.56645 0
M  V30 6286 H 583.699 -1.72218 5.22131 0
M  V30 6287 H 584.924 -2.19801 6.42545 0
M  V30 6288 H 582.87 -4.051 5.15974 0
M  V30 6289 H 582.787 -3.38737 6.75865 0
M  V30 6290 H 584.055 -4.50757 6.35955 0
M  V30 6291 N 588.284 -1.56567 -0.180126 0
M  V30 6292 C 589.231 -1.95725 -1.22313 0
M  V30 6293 C 590.201 -0.819911 -1.44453 0
M  V30 6294 O 591.386 -1.07931 -1.57339 0
M  V30 6295 C 588.526 -2.31484 -2.55947 0
M  V30 6296 C 587.639 -3.58354 -2.4126 0
M  V30 6297 C 586.774 -3.83366 -3.67701 0
M  V30 6298 C 585.813 -5.03612 -3.47909 0
M  V30 6299 N 584.95 -5.24802 -4.66398 0
M  V30 6300 H 589.79 -2.84642 -0.882198 0
M  V30 6301 H 587.327 -1.4085 -0.42422 0
M  V30 6302 H 589.285 -2.50237 -3.33822 0
M  V30 6303 H 587.915 -1.45689 -2.88053 0
M  V30 6304 H 586.967 -3.47565 -1.54606 0
M  V30 6305 H 588.279 -4.46386 -2.22577 0
M  V30 6306 H 587.433 -4.02439 -4.54013 0
M  V30 6307 H 586.172 -2.93692 -3.89353 0
M  V30 6308 H 585.177 -4.84447 -2.59983 0
M  V30 6309 H 586.402 -5.94809 -3.27688 0
M  V30 6310 H 584.348 -4.38079 -4.88286 0
M  V30 6311 H 584.265 -6.07041 -4.50596 0
M  V30 6312 H 585.533 -5.48346 -5.54019 0
M  V30 6313 N 589.762 0.448376 -1.51087 0
M  V30 6314 C 591.009 1.19872 -1.63209 0
M  V30 6315 C 591.337 1.91451 -0.343062 0
M  V30 6316 O 590.592 1.83789 0.672321 0
M  V30 6317 C 590.891 2.24866 -2.77795 0
M  V30 6318 C 590.557 1.70378 -4.17471 0
M  V30 6319 C 589.219 1.55241 -4.55471 0
M  V30 6320 C 591.571 1.30203 -5.04675 0
M  V30 6321 C 588.899 0.983844 -5.78392 0
M  V30 6322 C 591.251 0.747798 -6.28165 0
M  V30 6323 C 589.915 0.583233 -6.64947 0
M  V30 6324 H 589.185 0.438642 -0.597222 0
M  V30 6325 H 591.832 0.49136 -1.85089 0
M  V30 6326 H 590.137 3.01598 -2.50092 0
M  V30 6327 H 591.834 2.82723 -2.84374 0
M  V30 6328 H 588.424 1.83134 -3.87505 0
M  V30 6329 H 592.608 1.40723 -4.75932 0
M  V30 6330 H 587.864 0.844007 -6.05546 0
M  V30 6331 H 592.038 0.427927 -6.95084 0
M  V30 6332 H 589.665 0.140532 -7.6007 0
M  V30 6333 N 591.24 1.41047 0.703093 0
M  V30 6334 C 592.187 1.42302 1.81711 0
M  V30 6335 C 593.157 0.278336 1.63751 0
M  V30 6336 O 594.342 0.478266 1.84709 0
M  V30 6337 C 591.482 1.30362 3.19531 0
M  V30 6338 C 590.595 2.54638 3.48975 0
M  V30 6339 C 589.73 2.35047 4.76368 0
M  V30 6340 C 588.769 3.54837 4.98756 0
M  V30 6341 N 587.906 3.34363 6.1737 0
M  V30 6342 H 592.746 2.37516 1.79973 0
M  V30 6343 H 590.283 1.1795 0.878983 0
M  V30 6344 H 592.241 1.21443 3.99134 0
M  V30 6345 H 590.871 0.387602 3.20464 0
M  V30 6346 H 589.923 2.74037 2.63833 0
M  V30 6347 H 591.235 3.43766 3.61423 0
M  V30 6348 H 590.389 2.23552 5.64012 0
M  V30 6349 H 589.128 1.43363 4.66153 0
M  V30 6350 H 588.133 3.66795 4.09563 0
M  V30 6351 H 589.358 4.47464 5.10835 0
M  V30 6352 H 587.304 2.45373 6.08382 0
M  V30 6353 H 587.221 4.17063 6.30551 0
M  V30 6354 H 588.489 3.26626 7.07768 0
M  V30 6355 N 592.718 -0.936591 1.26751 0
M  V30 6356 C 593.648 -2.05315 1.11212 0
M  V30 6357 C 594.629 -1.70092 0.0160262 0
M  V30 6358 O 595.814 -1.93279 0.188894 0
M  V30 6359 C 592.944 -3.39123 0.749171 0
M  V30 6360 C 591.898 -3.88425 1.79751 0
M  V30 6361 C 591.224 -5.18936 1.28876 0
M  V30 6362 C 592.524 -4.12798 3.19992 0
M  V30 6363 H 594.218 -2.18573 2.04613 0
M  V30 6364 H 591.764 -1.05027 0.985159 0
M  V30 6365 H 593.717 -4.16704 0.627323 0
M  V30 6366 H 592.441 -3.25855 -0.220543 0
M  V30 6367 H 591.1 -3.13028 1.90811 0
M  V30 6368 H 590.748 -5.02051 0.308757 0
M  V30 6369 H 590.448 -5.52892 1.98958 0
M  V30 6370 H 591.972 -5.99096 1.17967 0
M  V30 6371 H 593.386 -4.80977 3.11983 0
M  V30 6372 H 591.783 -4.58044 3.87705 0
M  V30 6373 H 592.853 -3.18412 3.65707 0
M  V30 6374 N 594.196 -1.08629 -1.14182 0
M  V30 6375 C 595.144 -0.71284 -2.21408 0
M  V30 6376 C 596.138 0.282457 -1.67029 0
M  V30 6377 O 597.344 0.144783 -1.79417 0
M  V30 6378 H 593.719 -0.212497 -0.721352 0
M  V30 6379 H 595.69 -1.6265 -2.50175 0
M  V30 6380 C 594.439 -0.140704 -3.47415 0
M  V30 6381 H 593.762 -0.897739 -3.8959 0
M  V30 6382 H 595.202 0.0827677 -4.23919 0
M  V30 6383 C 593.661 1.122 -3.17668 0
M  V30 6384 O 594.191 2.20652 -3.35672 0
M  V30 6385 N 592.397 1.03328 -2.71609 0
M  V30 6386 H 591.944 0.150666 -2.57159 0
M  V30 6387 H 591.902 1.8789 -2.52081 0
M  V30 6388 N 595.674 1.31259 -0.872281 0
M  V30 6389 C 596.902 2.00795 -0.498907 0
M  V30 6390 C 597.317 1.65464 0.909238 0
M  V30 6391 O 596.674 0.885073 1.59602 0
M  V30 6392 C 596.725 3.55625 -0.649092 0
M  V30 6393 O 596.446 3.89692 -2.00179 0
M  V30 6394 C 597.947 4.42434 -0.277034 0
M  V30 6395 H 595.167 0.642299 -0.194145 0
M  V30 6396 H 597.711 1.67438 -1.17408 0
M  V30 6397 H 595.866 3.87394 -0.0214402 0
M  V30 6398 H 596.28 4.84407 -2.01122 0
M  V30 6399 H 597.754 5.50299 -0.433064 0
M  V30 6400 H 598.231 4.32146 0.783989 0
M  V30 6401 H 598.837 4.16086 -0.880483 0
M  V30 6402 N 597.152 0.631951 1.44375 0
M  V30 6403 C 598.398 0.13697 2.02337 0
M  V30 6404 C 598.731 -1.23826 1.49602 0
M  V30 6405 O 598.006 -1.8221 0.680415 0
M  V30 6406 C 598.289 0.124536 3.59885 0
M  V30 6407 C 598.142 1.53217 4.229 0
M  V30 6408 C 599.461 -0.550481 4.36644 0
M  V30 6409 H 596.58 0.051247 0.735216 0
M  V30 6410 H 599.222 0.808581 1.71936 0
M  V30 6411 H 597.372 -0.44737 3.85916 0
M  V30 6412 H 599.044 2.15303 4.07973 0
M  V30 6413 H 597.287 2.0858 3.80364 0
M  V30 6414 H 597.958 1.4755 5.31914 0
M  V30 6415 H 600.434 -0.0641154 4.16051 0
M  V30 6416 H 599.31 -0.528371 5.46351 0
M  V30 6417 H 599.571 -1.62097 4.11311 0
M  V30 6418 N 598.631 -1.53133 0.372548 0
M  V30 6419 C 599.879 -2.00958 -0.214534 0
M  V30 6420 C 600.2 -1.26135 -1.48711 0
M  V30 6421 O 599.47 -0.376597 -1.92246 0
M  V30 6422 H 598.05 -0.742456 -0.0822664 0
M  V30 6423 H 600.712 -1.88367 0.500385 0
M  V30 6424 H 599.808 -3.09031 -0.436605 0
M  V30 6425 N 600.109 -0.101901 -1.5727 0
M  V30 6426 C 601.358 0.559922 -1.93772 0
M  V30 6427 C 601.671 1.68913 -0.98629 0
M  V30 6428 O 602.877 2.41256 -1.24529 0
M  V30 6429 C 601.333 1.04739 -3.44322 0
M  V30 6430 C 600.941 -0.05243 -4.47969 0
M  V30 6431 C 602.685 1.68157 -3.89774 0
M  V30 6432 C 600.592 0.450781 -5.8968 0
M  V30 6433 H 599.522 0.212931 -0.723309 0
M  V30 6434 H 602.173 -0.179001 -1.82625 0
M  V30 6435 H 600.555 1.84021 -3.50645 0
M  V30 6436 H 601.729 -0.828157 -4.53297 0
M  V30 6437 H 600.044 -0.592202 -4.12167 0
M  V30 6438 H 602.641 2.0689 -4.93052 0
M  V30 6439 H 602.984 2.55338 -3.28798 0
M  V30 6440 H 603.517 0.954453 -3.8618 0
M  V30 6441 H 600.256 -0.38458 -6.54371 0
M  V30 6442 H 599.776 1.19336 -5.87809 0
M  V30 6443 H 601.455 0.917555 -6.40461 0
M  V30 6444 N 601.587 1.56661 0.17182 0
M  V30 6445 C 602.55 1.9549 1.19651 0
M  V30 6446 C 603.55 0.838501 1.37207 0
M  V30 6447 O 604.74 1.10556 1.34622 0
M  V30 6448 C 601.872 2.24927 2.56166 0
M  V30 6449 H 603.065 2.87184 0.864007 0
M  V30 6450 H 600.618 1.50711 0.41425 0
M  V30 6451 H 601.353 1.35944 2.94431 0
M  V30 6452 H 601.138 3.06301 2.4479 0
M  V30 6453 H 602.628 2.55891 3.30014 0
M  V30 6454 N 603.065 -0.440357 1.51323 0
M  V30 6455 C 604.012 -1.53429 1.72419 0
M  V30 6456 C 604.982 -1.56165 0.565826 0
M  V30 6457 O 606.167 -1.73222 0.799917 0
M  V30 6458 C 603.307 -2.91169 1.85242 0
M  V30 6459 C 602.42 -2.97985 3.12777 0
M  V30 6460 C 601.555 -4.26829 3.16212 0
M  V30 6461 C 600.594 -4.27501 4.38074 0
M  V30 6462 N 599.731 -5.47866 4.39076 0
M  V30 6463 H 604.571 -1.34743 2.65797 0
M  V30 6464 H 602.108 -0.654608 1.31732 0
M  V30 6465 H 604.066 -3.71087 1.90658 0
M  V30 6466 H 602.696 -3.0842 0.952744 0
M  V30 6467 H 601.748 -2.10749 3.16685 0
M  V30 6468 H 603.06 -2.94342 4.02696 0
M  V30 6469 H 602.214 -5.15118 3.20527 0
M  V30 6470 H 600.953 -4.33124 2.24176 0
M  V30 6471 H 599.958 -3.37606 4.33938 0
M  V30 6472 H 601.183 -4.22873 5.31371 0
M  V30 6473 H 599.129 -5.54887 3.49909 0
M  V30 6474 H 599.046 -5.46091 5.22801 0
M  V30 6475 H 600.314 -6.38195 4.4758 0
M  V30 6476 N 604.543 -1.41418 -0.695603 0
M  V30 6477 C 605.79 -1.40774 -1.45564 0
M  V30 6478 C 606.118 -0.0168604 -1.94493 0
M  V30 6479 O 605.373 0.971259 -1.69897 0
M  V30 6480 C 605.672 -2.36112 -2.68302 0
M  V30 6481 C 605.338 -3.82952 -2.38031 0
M  V30 6482 C 604 -4.22954 -2.29486 0
M  V30 6483 C 606.352 -4.75662 -2.13061 0
M  V30 6484 C 603.68 -5.53674 -1.94067 0
M  V30 6485 C 606.032 -6.06702 -1.79151 0
M  V30 6486 C 604.696 -6.45725 -1.69102 0
M  V30 6487 H 603.966 -0.515128 -0.532658 0
M  V30 6488 H 606.613 -1.74216 -0.795047 0
M  V30 6489 H 604.918 -1.95924 -3.39295 0
M  V30 6490 H 606.615 -2.32887 -3.26442 0
M  V30 6491 H 603.205 -3.5127 -2.45576 0
M  V30 6492 H 607.389 -4.45561 -2.18608 0
M  V30 6493 H 602.645 -5.8279 -1.8484 0
M  V30 6494 H 606.819 -6.78041 -1.5885 0
M  V30 6495 H 604.446 -7.46929 -1.41426 0
M  V30 6496 N 606.021 0.929856 -1.27246 0
M  V30 6497 C 607.246 1.71674 -1.16374 0
M  V30 6498 C 607.671 1.86064 0.276024 0
M  V30 6499 O 607.029 1.3591 1.19992 0
M  V30 6500 C 607.077 3.09526 -1.85003 0
M  V30 6501 O 606.181 3.96142 -1.14653 0
M  V30 6502 H 605.522 0.52629 -0.404863 0
M  V30 6503 H 608.052 1.16381 -1.68276 0
M  V30 6504 H 608.062 3.59852 -1.92276 0
M  V30 6505 H 606.737 2.98369 -2.89739 0
M  V30 6506 H 605.314 3.54584 -1.15433 0
M  V30 6507 N 607.499 1.09233 1.13605 0
M  V30 6508 C 608.739 0.836786 1.86487 0
M  V30 6509 C 609.103 -0.626191 1.81502 0
M  V30 6510 O 610.304 -0.99758 2.49603 0
M  V30 6511 C 608.575 1.35476 3.30728 0
M  V30 6512 S 610.134 1.2328 4.21126 0
M  V30 6513 H 606.952 0.302702 0.643345 0
M  V30 6514 H 609.554 1.3953 1.36936 0
M  V30 6515 H 608.258 2.41381 3.31909 0
M  V30 6516 H 607.789 0.792286 3.85339 0
M  V30 6517 H 609.804 0.182468 4.95864 0
M  V30 6518 N 608.977 -1.30795 0.87923 0
M  V30 6519 C 610.224 -1.96362 0.494786 0
M  V30 6520 C 610.552 -1.69448 -0.954868 0
M  V30 6521 O 609.807 -0.988711 -1.68888 0
M  V30 6522 C 610.106 -3.50287 0.709476 0
M  V30 6523 C 609.772 -3.9724 2.13333 0
M  V30 6524 C 608.434 -4.09772 2.52271 0
M  V30 6525 C 610.786 -4.21807 3.06151 0
M  V30 6526 C 608.114 -4.44227 3.83248 0
M  V30 6527 C 610.466 -4.5773 4.36654 0
M  V30 6528 C 609.13 -4.68469 4.75492 0
M  V30 6529 H 608.4 -0.71854 0.181055 0
M  V30 6530 H 611.047 -1.55764 1.11399 0
M  V30 6531 H 609.352 -3.91799 0.0072 0
M  V30 6532 H 611.049 -3.99082 0.391703 0
M  V30 6533 H 607.639 -3.87988 1.82107 0
M  V30 6534 H 611.823 -4.11611 2.77291 0
M  V30 6535 H 607.079 -4.50741 4.13089 0
M  V30 6536 H 611.253 -4.7569 5.08617 0
M  V30 6537 H 608.88 -4.94923 5.77022 0
M  V30 6538 N 610.455 -0.639598 -1.44038 0
M  V30 6539 C 611.683 -0.154811 -2.0632 0
M  V30 6540 C 612.098 1.17406 -1.47856 0
M  V30 6541 O 611.455 1.72193 -0.604638 0
M  V30 6542 C 611.506 -0.0429958 -3.61474 0
M  V30 6543 O 611.227 -1.31932 -4.17763 0
M  V30 6544 C 612.728 0.469486 -4.40807 0
M  V30 6545 H 609.948 -0.0835862 -0.665773 0
M  V30 6546 H 612.492 -0.876397 -1.84769 0
M  V30 6547 H 610.647 0.629075 -3.82258 0
M  V30 6548 H 611.061 -1.16965 -5.11292 0
M  V30 6549 H 612.535 0.496712 -5.49761 0
M  V30 6550 H 613.012 1.49819 -4.12857 0
M  V30 6551 H 613.618 -0.169624 -4.24962 0
M  V30 6552 N 611.933 1.52934 -0.380664 0
M  V30 6553 C 612.896 2.24809 0.446473 0
M  V30 6554 C 613.896 1.26133 0.997347 0
M  V30 6555 O 615.086 1.50297 0.880714 0
M  V30 6556 C 612.218 2.99649 1.62553 0
M  V30 6557 H 613.411 2.99343 -0.182677 0
M  V30 6558 H 610.964 1.55736 -0.132618 0
M  V30 6559 H 611.699 2.29395 2.29235 0
M  V30 6560 H 611.484 3.72066 1.23732 0
M  V30 6561 H 612.974 3.54246 2.21133 0
M  V30 6562 N 613.412 0.11024 1.57214 0
M  V30 6563 C 614.658 -0.550684 1.9518 0
M  V30 6564 C 614.991 -1.66885 0.993122 0
M  V30 6565 O 614.266 -1.94479 0.0287907 0
M  V30 6566 C 614.549 -1.09163 3.43155 0
M  V30 6567 C 614.402 0.0225198 4.49794 0
M  V30 6568 C 615.721 -1.98527 3.92778 0
M  V30 6569 H 612.84 -0.198706 0.709708 0
M  V30 6570 H 615.482 0.184024 1.89107 0
M  V30 6571 H 613.632 -1.71775 3.48462 0
M  V30 6572 H 615.304 0.657443 4.56591 0
M  V30 6573 H 613.547 0.686868 4.28328 0
M  V30 6574 H 614.218 -0.39706 5.5057 0
M  V30 6575 H 616.694 -1.458 3.8972 0
M  V30 6576 H 615.57 -2.33298 4.96853 0
M  V30 6577 H 615.831 -2.90846 3.32958 0
M  V30 6578 N 614.89 -1.56749 -0.16351 0
M  V30 6579 C 615.823 -1.9213 -1.23132 0
M  V30 6580 C 616.801 -0.785047 -1.42393 0
M  V30 6581 O 617.985 -1.0391 -1.57273 0
M  V30 6582 C 615.112 -2.17901 -2.59301 0
M  V30 6583 C 614.158 -3.40576 -2.5673 0
M  V30 6584 S 614.991 -4.94689 -2.05045 0
M  V30 6585 C 616.147 -5.23564 -3.42975 0
M  V30 6586 H 616.38 -2.824 -0.929383 0
M  V30 6587 H 613.913 -1.4994 -0.368418 0
M  V30 6588 H 615.871 -2.33429 -3.3767 0
M  V30 6589 H 614.532 -1.28324 -2.86691 0
M  V30 6590 H 613.725 -3.55833 -3.5693 0
M  V30 6591 H 613.327 -3.24204 -1.86462 0
M  V30 6592 H 615.619 -5.16019 -4.3901 0
M  V30 6593 H 616.562 -6.25134 -3.32586 0
M  V30 6594 H 616.97 -4.51113 -3.39348 0
M  V30 6595 N 616.368 0.432326 -1.51554 0
M  V30 6596 C 617.593 1.20824 -1.68571 0
M  V30 6597 C 618.018 1.84126 -0.384596 0
M  V30 6598 O 617.376 1.69025 0.655751 0
M  V30 6599 C 617.424 2.26429 -2.80646 0
M  V30 6600 O 616.528 3.32032 -2.44598 0
M  V30 6601 H 615.869 0.353765 -0.561913 0
M  V30 6602 H 618.399 0.509916 -1.98144 0
M  V30 6603 H 618.409 2.71133 -3.04878 0
M  V30 6604 H 617.084 1.79733 -3.75058 0
M  V30 6605 H 615.661 2.92769 -2.30956 0
M  V30 6606 N 617.846 1.41785 0.688094 0
M  V30 6607 C 618.776 1.47 1.8142 0
M  V30 6608 C 619.757 0.327881 1.6691 0
M  V30 6609 O 620.942 0.540362 1.86531 0
M  V30 6610 C 618.072 1.35876 3.19617 0
M  V30 6611 C 617.026 2.47976 3.48844 0
M  V30 6612 C 616.352 2.21915 4.86475 0
M  V30 6613 C 617.652 3.90309 3.47068 0
M  V30 6614 H 619.346 2.41247 1.77314 0
M  V30 6615 H 616.892 1.16116 0.851651 0
M  V30 6616 H 618.845 1.38134 3.98117 0
M  V30 6617 H 617.569 0.38116 3.24368 0
M  V30 6618 H 616.228 2.45013 2.72698 0
M  V30 6619 H 615.876 1.2248 4.8786 0
M  V30 6620 H 615.576 2.97037 5.06994 0
M  V30 6621 H 617.1 2.25901 5.67275 0
M  V30 6622 H 618.514 3.94947 4.1556 0
M  V30 6623 H 616.911 4.65175 3.7912 0
M  V30 6624 H 617.981 4.17927 2.45896 0
M  V30 6625 N 619.324 -0.923095 1.27737 0
M  V30 6626 C 620.549 -1.71054 1.17283 0
M  V30 6627 C 620.974 -1.86208 -0.266153 0
M  V30 6628 O 620.332 -1.36545 -1.1927 0
M  V30 6629 C 620.38 -3.0854 1.86642 0
M  V30 6630 O 619.484 -3.95528 1.16752 0
M  V30 6631 H 618.825 -0.524136 0.407649 0
M  V30 6632 H 621.355 -1.15487 1.6889 0
M  V30 6633 H 621.365 -3.58828 1.94182 0
M  V30 6634 H 620.04 -2.96828 2.91317 0
M  V30 6635 H 618.617 -3.53967 1.17312 0
M  V30 6636 N 620.802 -1.09834 -1.13024 0
M  V30 6637 C 622.049 -0.83695 -1.84395 0
M  V30 6638 C 622.377 0.637463 -1.83757 0
M  V30 6639 O 621.632 1.48554 -1.27398 0
M  V30 6640 C 621.931 -1.32263 -3.32026 0
M  V30 6641 C 621.597 -2.80739 -3.52841 0
M  V30 6642 C 620.259 -3.21286 -3.5823 0
M  V30 6643 C 622.611 -3.76449 -3.60466 0
M  V30 6644 C 619.939 -4.56308 -3.68781 0
M  V30 6645 C 622.291 -5.11266 -3.72546 0
M  V30 6646 C 620.955 -5.51397 -3.76189 0
M  V30 6647 H 620.225 -0.306262 -0.674748 0
M  V30 6648 H 622.872 -1.37385 -1.33408 0
M  V30 6649 H 621.177 -0.705618 -3.85394 0
M  V30 6650 H 622.874 -1.09695 -3.85705 0
M  V30 6651 H 619.464 -2.48363 -3.49305 0
M  V30 6652 H 623.648 -3.46234 -3.55578 0
M  V30 6653 H 618.904 -4.86832 -3.69871 0
M  V30 6654 H 623.078 -5.85279 -3.77388 0
M  V30 6655 H 620.705 -6.56017 -3.84117 0
M  V30 6656 N 622.28 1.30327 -0.886154 0
M  V30 6657 C 623.51 1.99964 -0.519421 0
M  V30 6658 C 623.918 1.66593 0.89686 0
M  V30 6659 O 623.261 0.899886 1.60149 0
M  V30 6660 C 623.323 3.54187 -0.615795 0
M  V30 6661 C 622.987 4.11078 -1.9966 0
M  V30 6662 C 623.984 4.26985 -2.96614 0
M  V30 6663 C 621.669 4.46429 -2.30231 0
M  V30 6664 C 623.663 4.77456 -4.22273 0
M  V30 6665 C 621.35 4.966 -3.56135 0
M  V30 6666 C 622.348 5.12066 -4.5197 0
M  V30 6667 O 622.036 5.61154 -5.7564 0
M  V30 6668 H 621.768 0.645979 -0.199217 0
M  V30 6669 H 624.322 1.67154 -1.19368 0
M  V30 6670 H 622.552 3.86528 0.115448 0
M  V30 6671 H 624.241 4.05065 -0.26017 0
M  V30 6672 H 625.007 3.99975 -2.74308 0
M  V30 6673 H 620.886 4.33658 -1.56404 0
M  V30 6674 H 624.43 4.89444 -4.97082 0
M  V30 6675 H 620.327 5.23045 -3.78277 0
M  V30 6676 H 621.095 5.79494 -5.78039 0
M  V30 6677 N 623.758 0.647228 1.43697 0
M  V30 6678 C 624.688 -0.0345631 2.33474 0
M  V30 6679 C 625.669 -0.818193 1.4913 0
M  V30 6680 O 626.854 -0.780867 1.77809 0
M  V30 6681 C 623.984 -1.00576 3.32418 0
M  V30 6682 C 622.938 -0.33266 4.26705 0
M  V30 6683 C 622.264 -1.41489 5.1564 0
M  V30 6684 C 623.564 0.771204 5.16575 0
M  V30 6685 H 625.258 0.715163 2.90733 0
M  V30 6686 H 622.804 0.345364 1.39797 0
M  V30 6687 H 624.757 -1.49159 3.94119 0
M  V30 6688 H 623.481 -1.78657 2.73403 0
M  V30 6689 H 622.14 0.13267 3.6636 0
M  V30 6690 H 621.788 -2.18698 4.52968 0
M  V30 6691 H 621.488 -0.969799 5.79542 0
M  V30 6692 H 623.012 -1.9022 5.80214 0
M  V30 6693 H 624.426 0.36779 5.72119 0
M  V30 6694 H 622.823 1.1404 5.89165 0
M  V30 6695 H 623.893 1.63169 4.56622 0
M  V30 6696 N 625.236 -1.5273 0.388769 0
M  V30 6697 C 626.166 -2.29353 -0.438111 0
M  V30 6698 C 627.147 -1.32719 -1.06394 0
M  V30 6699 O 628.332 -1.61612 -1.07681 0
M  V30 6700 C 625.462 -3.09995 -1.56589 0
M  V30 6701 C 624.416 -4.14509 -1.06613 0
M  V30 6702 C 623.742 -4.83372 -2.28594 0
M  V30 6703 C 625.042 -5.22127 -0.134459 0
M  V30 6704 H 626.736 -2.98723 0.201206 0
M  V30 6705 H 624.282 -1.43665 0.0982089 0
M  V30 6706 H 626.235 -3.62357 -2.15118 0
M  V30 6707 H 624.959 -2.38357 -2.23279 0
M  V30 6708 H 623.618 -3.63128 -0.503383 0
M  V30 6709 H 623.266 -4.08283 -2.93792 0
M  V30 6710 H 622.966 -5.54012 -1.95817 0
M  V30 6711 H 624.49 -5.38538 -2.87766 0
M  V30 6712 H 625.904 -5.69851 -0.627914 0
M  V30 6713 H 624.301 -6.00011 0.103534 0
M  V30 6714 H 625.371 -4.77971 0.816798 0
M  V30 6715 N 626.714 -0.118576 -1.57153 0
M  V30 6716 C 627.944 0.546466 -1.99242 0
M  V30 6717 C 628.352 1.60791 -0.997148 0
M  V30 6718 O 627.695 1.83691 0.0181745 0
M  V30 6719 C 627.757 1.23167 -3.37743 0
M  V30 6720 C 627.421 0.318226 -4.55891 0
M  V30 6721 C 628.418 -0.442988 -5.18009 0
M  V30 6722 C 626.103 0.229421 -5.01776 0
M  V30 6723 C 628.097 -1.28074 -6.244 0
M  V30 6724 C 625.784 -0.611966 -6.08028 0
M  V30 6725 C 626.782 -1.36568 -6.69207 0
M  V30 6726 O 626.47 -2.1931 -7.73407 0
M  V30 6727 H 626.202 0.149297 -0.659307 0
M  V30 6728 H 628.756 -0.201603 -2.04408 0
M  V30 6729 H 626.986 2.0268 -3.29329 0
M  V30 6730 H 628.675 1.79358 -3.64123 0
M  V30 6731 H 629.441 -0.38425 -4.83475 0
M  V30 6732 H 625.32 0.805771 -4.53903 0
M  V30 6733 H 628.864 -1.86952 -6.72082 0
M  V30 6734 H 624.761 -0.6721 -6.41991 0
M  V30 6735 H 625.529 -2.12247 -7.90502 0
M  V30 6736 N 628.193 1.56834 0.155195 0
M  V30 6737 C 629.44 1.82898 0.869179 0
M  V30 6738 C 629.768 0.698194 1.81537 0
M  V30 6739 O 629.023 -0.313404 1.93174 0
M  V30 6740 C 629.322 3.15239 1.68402 0
M  V30 6741 C 628.988 4.42123 0.885341 0
M  V30 6742 C 627.65 4.76583 0.664971 0
M  V30 6743 C 630.002 5.20178 0.326234 0
M  V30 6744 C 627.33 5.86566 -0.125346 0
M  V30 6745 C 629.682 6.3099 -0.45108 0
M  V30 6746 C 628.346 6.64006 -0.682102 0
M  V30 6747 H 627.616 0.66927 0.318055 0
M  V30 6748 H 630.263 1.91036 0.133241 0
M  V30 6749 H 628.568 3.02515 2.48982 0
M  V30 6750 H 630.265 3.32618 2.23978 0
M  V30 6751 H 626.855 4.15102 1.06716 0
M  V30 6752 H 631.039 4.93936 0.483787 0
M  V30 6753 H 626.295 6.10594 -0.313915 0
M  V30 6754 H 630.469 6.9067 -0.89149 0
M  V30 6755 H 628.096 7.49065 -1.29636 0
M  V30 6756 N 629.671 -0.424282 1.51781 0
M  V30 6757 C 630.918 -1.1726 1.65095 0
M  V30 6758 C 631.246 -1.90881 0.373477 0
M  V30 6759 O 630.501 -1.84835 -0.642997 0
M  V30 6760 C 630.8 -2.20418 2.81337 0
M  V30 6761 C 630.466 -1.63715 4.20129 0
M  V30 6762 C 629.128 -1.47975 4.57883 0
M  V30 6763 C 631.48 -1.22157 5.06682 0
M  V30 6764 C 628.808 -0.891703 5.79884 0
M  V30 6765 C 631.16 -0.647767 6.29275 0
M  V30 6766 C 629.824 -0.477371 6.65791 0
M  V30 6767 H 629.094 -0.429085 0.604125 0
M  V30 6768 H 631.741 -0.461852 1.85847 0
M  V30 6769 H 630.046 -2.97581 2.54859 0
M  V30 6770 H 631.743 -2.78163 2.88836 0
M  V30 6771 H 628.333 -1.76946 3.90369 0
M  V30 6772 H 632.517 -1.33133 4.7811 0
M  V30 6773 H 627.773 -0.747563 6.06813 0
M  V30 6774 H 631.947 -0.317291 6.95677 0
M  V30 6775 H 629.574 -0.0195936 7.60197 0
M  V30 6776 N 631.149 -1.42148 -0.680565 0
M  V30 6777 C 632.398 -1.41604 -1.43636 0
M  V30 6778 C 632.711 -0.0337887 -1.95571 0
M  V30 6779 O 633.917 0.0942588 -2.71336 0
M  V30 6780 C 632.373 -2.49056 -2.59806 0
M  V30 6781 C 631.981 -3.9326 -2.14594 0
M  V30 6782 C 633.725 -2.5767 -3.37352 0
M  V30 6783 C 631.632 -4.92232 -3.27813 0
M  V30 6784 H 630.562 -0.526656 -0.539583 0
M  V30 6785 H 633.213 -1.68033 -0.737369 0
M  V30 6786 H 631.595 -2.15782 -3.32045 0
M  V30 6787 H 632.769 -4.35858 -1.49546 0
M  V30 6788 H 631.084 -3.88443 -1.50002 0
M  V30 6789 H 633.681 -3.28794 -4.21662 0
M  V30 6790 H 634.024 -1.61837 -3.83555 0
M  V30 6791 H 634.557 -2.90109 -2.72179 0
M  V30 6792 H 631.296 -5.89522 -2.86607 0
M  V30 6793 H 630.816 -4.5427 -3.91661 0
M  V30 6794 H 632.495 -5.13684 -3.93367 0
M  V30 6795 N 632.627 0.916307 -1.28225 0
M  V30 6796 C 633.557 2.0352 -1.14464 0
M  V30 6797 C 634.538 1.70045 -0.0430844 0
M  V30 6798 O 635.723 1.92954 -0.219619 0
M  V30 6799 C 632.853 3.37889 -0.803027 0
M  V30 6800 C 631.807 3.85516 -1.85908 0
M  V30 6801 C 631.133 5.1682 -1.37116 0
M  V30 6802 C 632.433 4.07655 -3.26519 0
M  V30 6803 H 634.127 2.1529 -2.08064 0
M  V30 6804 H 631.673 1.03446 -1.00174 0
M  V30 6805 H 633.626 4.15654 -0.693537 0
M  V30 6806 H 632.35 3.26164 0.168674 0
M  V30 6807 H 631.009 3.09953 -1.95767 0
M  V30 6808 H 630.657 5.01497 -0.38859 0
M  V30 6809 H 630.357 5.49657 -2.07728 0
M  V30 6810 H 631.881 5.97143 -1.27484 0
M  V30 6811 H 633.295 4.75953 -3.19596 0
M  V30 6812 H 631.692 4.51818 -3.94943 0
M  V30 6813 H 632.762 3.12553 -3.70727 0
M  V30 6814 N 634.105 1.10431 1.1244 0
M  V30 6815 C 635.345 0.856518 1.85589 0
M  V30 6816 C 635.709 -0.606905 1.82156 0
M  V30 6817 O 636.91 -0.97105 2.50647 0
M  V30 6818 C 635.181 1.38977 3.29272 0
M  V30 6819 S 636.74 1.27739 4.19795 0
M  V30 6820 H 633.558 0.309509 0.640098 0
M  V30 6821 H 636.16 1.40975 1.35449 0
M  V30 6822 H 634.864 2.44887 3.2933 0
M  V30 6823 H 634.395 0.833112 3.84477 0
M  V30 6824 H 636.41 0.235051 4.95643 0
M  V30 6825 N 635.583 -1.29855 0.893053 0
M  V30 6826 C 636.493 -2.31661 0.370157 0
M  V30 6827 C 637.509 -1.65677 -0.531723 0
M  V30 6828 O 638.685 -1.9691 -0.422902 0
M  V30 6829 C 635.75 -3.44388 -0.399741 0
M  V30 6830 C 634.811 -4.2598 0.532861 0
M  V30 6831 C 634.044 -5.33324 -0.200388 0
M  V30 6832 O 634.267 -5.52305 -1.42531 0
M  V30 6833 O 633.201 -6.00188 0.453668 0
M  V30 6834 H 637.027 -2.78354 1.2146 0
M  V30 6835 H 634.612 -1.34171 0.657153 0
M  V30 6836 H 636.494 -4.13037 -0.835358 0
M  V30 6837 H 635.169 -2.99815 -1.22035 0
M  V30 6838 H 634.076 -3.59998 1.01746 0
M  V30 6839 H 635.409 -4.74178 1.3197 0
M  V30 6840 N 637.061 -0.65484 -1.43351 0
M  V30 6841 C 638.009 0.0476784 -2.32551 0
M  V30 6842 C 639.003 0.811403 -1.48703 0
M  V30 6843 O 640.209 0.721621 -1.64902 0
M  V30 6844 H 636.584 0.0342038 -0.751222 0
M  V30 6845 H 638.555 -0.722342 -2.89525 0
M  V30 6846 C 637.304 0.999251 -3.33032 0
M  V30 6847 H 636.627 0.421005 -3.97577 0
M  V30 6848 H 638.067 1.45986 -3.98076 0
M  V30 6849 C 636.526 2.09606 -2.63756 0
M  V30 6850 O 637.056 3.18004 -2.4543 0
M  V30 6851 N 635.262 1.86207 -2.23103 0
M  V30 6852 H 634.809 0.980555 -2.38208 0
M  V30 6853 H 634.767 2.59787 -1.77081 0
M  V30 6854 N 638.539 1.52521 -0.396863 0
M  V30 6855 C 639.486 2.26671 0.434624 0
M  V30 6856 C 640.456 1.28584 1.05144 0
M  V30 6857 O 641.641 1.57426 1.07804 0
M  V30 6858 C 638.781 3.08234 1.55196 0
M  V30 6859 C 637.894 4.21261 0.957262 0
M  V30 6860 C 637.029 4.90205 2.04627 0
M  V30 6861 C 636.068 5.95213 1.42787 0
M  V30 6862 N 635.205 6.57723 2.45651 0
M  V30 6863 H 640.045 2.973 -0.204139 0
M  V30 6864 H 637.582 1.46669 -0.112505 0
M  V30 6865 H 639.54 3.53819 2.2106 0
M  V30 6866 H 638.17 2.398 2.16092 0
M  V30 6867 H 637.222 3.79935 0.188005 0
M  V30 6868 H 638.534 4.96624 0.465416 0
M  V30 6869 H 637.688 5.39133 2.78246 0
M  V30 6870 H 636.427 4.14383 2.57174 0
M  V30 6871 H 635.432 5.45616 0.676968 0
M  V30 6872 H 636.657 6.72972 0.910255 0
M  V30 6873 H 634.603 5.84737 2.97353 0
M  V30 6874 H 634.52 7.28723 2.01243 0
M  V30 6875 H 635.788 7.11293 3.18876 0
M  V30 6876 N 640.017 0.126909 1.57088 0
M  V30 6877 C 641.242 -0.53997 2.00248 0
M  V30 6878 C 641.667 -1.58927 1.00618 0
M  V30 6879 O 641.025 -1.81288 -0.0210131 0
M  V30 6880 C 641.073 -1.13565 3.4225 0
M  V30 6881 O 640.177 -2.25103 3.45547 0
M  V30 6882 H 639.518 -0.13412 0.650314 0
M  V30 6883 H 642.048 0.217718 2.03438 0
M  V30 6884 H 642.058 -1.46925 3.80627 0
M  V30 6885 H 640.733 -0.367122 4.14277 0
M  V30 6886 H 639.31 -1.93123 3.18995 0
M  V30 6887 N 641.495 -1.56914 -0.146875 0
M  V30 6888 C 642.741 -1.83628 -0.860741 0
M  V30 6889 C 643.074 -0.708528 -1.80813 0
M  V30 6890 O 642.349 0.287838 -1.92358 0
M  V30 6891 C 642.632 -3.20836 -1.63511 0
M  V30 6892 C 642.485 -4.44174 -0.709199 0
M  V30 6893 C 643.804 -3.55268 -2.59756 0
M  V30 6894 H 640.923 -0.667949 -0.311468 0
M  V30 6895 H 643.565 -1.89582 -0.125936 0
M  V30 6896 H 641.715 -3.15891 -2.26153 0
M  V30 6897 H 643.387 -4.61205 -0.0937781 0
M  V30 6898 H 641.63 -4.33796 -0.0187856 0
M  V30 6899 H 642.301 -5.36785 -1.28707 0
M  V30 6900 H 644.777 -3.60824 -2.07232 0
M  V30 6901 H 643.653 -4.52303 -3.10987 0
M  V30 6902 H 643.914 -2.81231 -3.41118 0
M  V30 6903 N 642.974 0.416227 -1.52004 0
M  V30 6904 C 643.937 1.48926 -1.74223 0
M  V30 6905 C 644.937 1.48693 -0.612119 0
M  V30 6906 O 646.127 1.50343 -0.879921 0
M  V30 6907 C 643.259 2.88372 -1.81809 0
M  V30 6908 H 644.452 1.3052 -2.70008 0
M  V30 6909 H 642.005 0.646271 -1.42313 0
M  V30 6910 H 642.74 3.12157 -0.879135 0
M  V30 6911 H 642.525 2.89944 -2.6396 0
M  V30 6912 H 644.015 3.66173 -2.00766 0
M  V30 6913 N 644.452 1.42507 0.673017 0
M  V30 6914 C 645.7 1.42789 1.43023 0
M  V30 6915 C 646.021 0.0459738 1.94946 0
M  V30 6916 O 645.291 -0.915765 1.73178 0
M  V30 6917 H 643.871 0.525657 0.530748 0
M  V30 6918 H 646.533 1.77944 0.795113 0
M  V30 6919 H 645.629 2.12872 2.28237 0
M  V30 6920 N 645.93 -0.909495 1.28709 0
M  V30 6921 C 646.86 -2.0291 1.15542 0
M  V30 6922 C 647.841 -1.7002 0.0521017 0
M  V30 6923 O 649.026 -1.92835 0.229849 0
M  V30 6924 C 646.156 -3.37458 0.820935 0
M  V30 6925 C 645.11 -3.84524 1.87949 0
M  V30 6926 C 644.436 -5.16086 1.39854 0
M  V30 6927 C 645.736 -4.05918 3.28676 0
M  V30 6928 H 647.43 -2.14183 2.09203 0
M  V30 6929 H 644.976 -1.02913 1.00722 0
M  V30 6930 H 646.929 -4.1528 0.715571 0
M  V30 6931 H 645.653 -3.26249 -0.151374 0
M  V30 6932 H 644.312 -3.08911 1.97408 0
M  V30 6933 H 643.96 -5.01284 0.41518 0
M  V30 6934 H 643.66 -5.48547 2.1064 0
M  V30 6935 H 645.184 -5.96459 1.30649 0
M  V30 6936 H 646.598 -4.74252 3.22115 0
M  V30 6937 H 644.995 -4.49717 3.97334 0
M  V30 6938 H 646.065 -3.10583 3.72379 0
M  V30 6939 N 647.408 -1.11026 -1.11852 0
M  V30 6940 C 648.636 -0.878818 -1.87308 0
M  V30 6941 C 649.051 0.57111 -1.79955 0
M  V30 6942 O 648.408 1.39409 -1.17777 0
M  V30 6943 C 648.459 -1.3264 -3.36287 0
M  V30 6944 O 648.18 -2.71948 -3.43476 0
M  V30 6945 C 649.681 -1.12974 -4.28663 0
M  V30 6946 H 646.901 -0.315015 -0.592458 0
M  V30 6947 H 649.445 -1.47649 -1.41492 0
M  V30 6948 H 647.6 -0.772269 -3.79625 0
M  V30 6949 H 648.014 -2.91241 -4.3621 0
M  V30 6950 H 649.488 -1.49198 -5.31454 0
M  V30 6951 H 649.965 -0.0689127 -4.39146 0
M  V30 6952 H 650.571 -1.67064 -3.91113 0
M  V30 6953 N 648.886 1.2938 -0.899927 0
M  V30 6954 C 649.819 2.25911 -0.322386 0
M  V30 6955 C 650.797 1.52447 0.565567 0
M  V30 6956 O 651.981 1.81404 0.512324 0
M  V30 6957 C 649.108 3.3436 0.540455 0
M  V30 6958 C 648.154 4.25579 -0.280211 0
M  V30 6959 S 648.987 5.08526 -1.67814 0
M  V30 6960 C 650.143 6.20476 -0.822224 0
M  V30 6961 H 650.376 2.7455 -1.1406 0
M  V30 6962 H 647.909 1.37606 -0.700285 0
M  V30 6963 H 649.867 3.97303 1.0325 0
M  V30 6964 H 648.528 2.84416 1.33291 0
M  V30 6965 H 647.721 5.02574 0.378915 0
M  V30 6966 H 647.323 3.67287 -0.705405 0
M  V30 6967 H 649.615 6.77485 -0.0457138 0
M  V30 6968 H 650.558 6.90606 -1.56426 0
M  V30 6969 H 650.966 5.63243 -0.37651 0
M  V30 6970 N 650.364 0.662433 1.43002 0
M  V30 6971 C 651.592 0.187615 2.06048 0
M  V30 6972 C 652.007 -1.15039 1.49705 0
M  V30 6973 O 651.364 -1.71209 0.631956 0
M  V30 6974 C 651.415 0.100498 3.6136 0
M  V30 6975 O 651.136 1.38562 4.15611 0
M  V30 6976 C 652.637 -0.399298 4.41498 0
M  V30 6977 H 649.857 0.0941675 0.664359 0
M  V30 6978 H 652.401 0.905681 1.83351 0
M  V30 6979 H 650.556 -0.568181 3.83211 0
M  V30 6980 H 650.97 1.25084 5.09366 0
M  V30 6981 H 652.444 -0.409187 5.50481 0
M  V30 6982 H 652.921 -1.43232 4.15188 0
M  V30 6983 H 653.527 0.23721 4.24638 0
M  V30 6984 N 651.842 -1.52309 0.404946 0
M  V30 6985 C 653.072 -2.05886 -0.171569 0
M  V30 6986 C 653.48 -1.27527 -1.39762 0
M  V30 6987 O 652.823 -0.319215 -1.80905 0
M  V30 6988 C 652.885 -3.54609 -0.590983 0
M  V30 6989 C 652.549 -4.53989 0.523757 0
M  V30 6990 C 653.546 -5.01084 1.38604 0
M  V30 6991 C 651.231 -4.97465 0.695255 0
M  V30 6992 C 653.225 -5.90295 2.4048 0
M  V30 6993 C 650.912 -5.86473 1.71733 0
M  V30 6994 C 651.91 -6.32782 2.57051 0
M  V30 6995 O 651.598 -7.20029 3.57509 0
M  V30 6996 H 651.33 -0.675508 -0.0257763 0
M  V30 6997 H 653.884 -1.97238 0.573278 0
M  V30 6998 H 652.114 -3.60929 -1.38805 0
M  V30 6999 H 653.803 -3.90853 -1.09494 0
M  V30 7000 H 654.569 -4.68214 1.26492 0
M  V30 7001 H 650.448 -4.60982 0.0408447 0
M  V30 7002 H 653.992 -6.26363 3.07108 0
M  V30 7003 H 649.889 -6.18756 1.83877 0
M  V30 7004 H 650.657 -7.3813 3.53703 0
M  V30 7005 N 653.32 -0.135238 -1.57019 0
M  V30 7006 C 654.597 0.563227 -1.87316 0
M  V30 7007 C 654.977 1.83749 -1.03921 0
M  V30 7008 O 654.325 2.2817 -0.122675 0
M  V30 7009 C 654.535 0.840031 -3.3874 0
M  V30 7010 C 655.883 1.18598 -4.077 0
M  V30 7011 O 656.907 0.92977 -3.43851 0
M  V30 7012 O 655.766 1.66758 -5.20436 0
M  V30 7013 H 652.86 0.285971 -0.775983 0
M  V30 7014 H 655.406 -0.170965 -1.68837 0
M  V30 7015 H 654.178 -0.0622785 -3.9125 0
M  V30 7016 H 653.801 1.62882 -3.62706 0
M  V30 7017 N 654.798 1.5699 0.138552 0
M  V30 7018 C 656.046 1.83446 0.848053 0
M  V30 7019 C 656.367 0.71744 1.81322 0
M  V30 7020 O 655.637 -0.260228 1.94164 0
M  V30 7021 H 654.217 0.676792 0.316166 0
M  V30 7022 H 656.879 1.94462 0.130538 0
M  V30 7023 H 655.975 2.78677 1.40518 0
M  V30 7024 N 656.276 -0.40816 1.52223 0
M  V30 7025 C 657.224 -1.51788 1.76248 0
M  V30 7026 C 658.218 -1.57264 0.629638 0
M  V30 7027 O 659.424 -1.60659 0.811704 0
M  V30 7028 H 655.799 -0.504823 0.557367 0
M  V30 7029 H 657.77 -1.2871 2.69214 0
M  V30 7030 C 656.519 -2.89145 1.93107 0
M  V30 7031 H 655.842 -2.85674 2.79697 0
M  V30 7032 H 657.282 -3.66082 2.13916 0
M  V30 7033 C 655.741 -3.29581 0.698431 0
M  V30 7034 O 656.271 -4.01479 -0.133238 0
M  V30 7035 N 654.477 -2.85651 0.53405 0
M  V30 7036 H 654.024 -2.2731 1.21194 0
M  V30 7037 H 653.982 -3.13065 -0.289387 0
M  V30 7038 N 657.755 -1.42862 -0.66545 0
M  V30 7039 C 658.703 -1.47319 -1.8 0
M  V30 7040 C 659.697 -0.347963 -1.65788 0
M  V30 7041 O 660.903 -0.521406 -1.72283 0
M  V30 7042 H 657.278 -0.461588 -0.593667 0
M  V30 7043 H 659.249 -2.42876 -1.7336 0
M  V30 7044 C 657.998 -1.40152 -3.18203 0
M  V30 7045 H 657.321 -2.26035 -3.2977 0
M  V30 7046 H 658.761 -1.47331 -3.9758 0
M  V30 7047 C 657.22 -0.117493 -3.36695 0
M  V30 7048 O 657.75 0.826058 -3.93115 0
M  V30 7049 N 655.956 -0.0316218 -2.90583 0
M  V30 7050 H 655.503 -0.800247 -2.44855 0
M  V30 7051 H 655.461 0.826835 -3.03333 0
M  V30 7052 N 659.233 0.902656 -1.29189 0
M  V30 7053 C 660.644 1.46809 -1.15343 0
M  V30 7054 C 660.995 1.94568 0.252517 0
M  V30 7055 O 660.12 1.83454 1.14777 0
M  V30 7056 C 660.715 2.66829 -2.08776 0
M  V30 7057 C 659.274 3.19518 -1.98961 0
M  V30 7058 C 658.421 1.92212 -1.99874 0
M  V30 7059 H 661.372 0.714282 -1.41717 0
M  V30 7060 H 661.393 3.42465 -1.65826 0
M  V30 7061 H 660.905 2.32039 -3.11094 0
M  V30 7062 H 659.006 3.59008 -0.99721 0
M  V30 7063 H 659.119 3.84016 -2.86477 0
M  V30 7064 H 657.483 2.0979 -1.44431 0
M  V30 7065 H 658.266 1.59702 -3.03891 0
M  V30 7066 N 660.711 1.11618 1.11262 0
M  V30 7067 C 661.957 0.867463 1.83311 0
M  V30 7068 C 662.29 -0.605366 1.84524 0
M  V30 7069 O 661.565 -1.44704 1.29965 0
M  V30 7070 C 661.848 1.43207 3.30399 0
M  V30 7071 C 661.701 2.97265 3.3757 0
M  V30 7072 C 663.02 1.08454 4.26528 0
M  V30 7073 H 660.139 0.316578 0.665543 0
M  V30 7074 H 662.781 1.38137 1.30454 0
M  V30 7075 H 660.931 0.994982 3.75543 0
M  V30 7076 H 662.603 3.49591 3.00971 0
M  V30 7077 H 660.846 3.33237 2.77733 0
M  V30 7078 H 661.517 3.31859 4.41105 0
M  V30 7079 H 663.993 1.4619 3.89574 0
M  V30 7080 H 662.869 1.50633 5.27826 0
M  V30 7081 H 663.13 -0.00444568 4.421 0
M  V30 7082 N 662.189 -1.289 0.906776 0
M  V30 7083 C 663.417 -1.99401 0.551969 0
M  V30 7084 C 663.832 -1.67816 -0.865048 0
M  V30 7085 O 663.189 -0.927078 -1.57199 0
M  V30 7086 C 663.24 -3.53779 0.743152 0
M  V30 7087 O 662.961 -3.84248 2.1044 0
M  V30 7088 C 664.462 -4.41543 0.39424 0
M  V30 7089 H 661.682 -0.636926 0.211106 0
M  V30 7090 H 664.226 -1.64266 1.21807 0
M  V30 7091 H 662.381 -3.87201 0.124143 0
M  V30 7092 H 662.795 -4.78904 2.13895 0
M  V30 7093 H 664.269 -5.48957 0.578814 0
M  V30 7094 H 664.746 -4.34073 -0.669137 0
M  V30 7095 H 665.352 -4.13605 0.990491 0
M  V30 7096 N 663.667 -0.670007 -1.42649 0
M  V30 7097 C 664.892 -0.196955 -2.06463 0
M  V30 7098 C 665.317 1.1352 -1.49983 0
M  V30 7099 O 664.675 1.705 -0.616397 0
M  V30 7100 C 664.723 -0.137381 -3.60338 0
M  V30 7101 O 663.827 0.895523 -4.02559 0
M  V30 7102 H 663.168 -0.102579 -0.656029 0
M  V30 7103 H 665.698 -0.917669 -1.82866 0
M  V30 7104 H 665.708 0.0403625 -4.0798 0
M  V30 7105 H 664.383 -1.10977 -4.0082 0
M  V30 7106 H 662.96 0.689209 -3.66476 0
M  V30 7107 N 665.145 1.52092 -0.413018 0
M  V30 7108 C 666.095 2.23947 0.427993 0
M  V30 7109 C 667.079 1.25229 1.01027 0
M  V30 7110 O 668.271 1.50448 0.932444 0
M  V30 7111 C 665.4 3.0672 1.542 0
M  V30 7112 C 664.486 4.12851 0.970307 0
M  V30 7113 N 664.877 5.05644 0.125611 0
M  V30 7114 C 663.175 4.28404 1.24042 0
M  V30 7115 C 663.876 5.8138 -0.192876 0
M  V30 7116 N 662.852 5.41996 0.417273 0
M  V30 7117 H 666.654 2.93048 -0.223628 0
M  V30 7118 H 664.168 1.60852 -0.223664 0
M  V30 7119 H 666.165 3.56754 2.15714 0
M  V30 7120 H 664.825 2.39159 2.19621 0
M  V30 7121 H 665.836 5.17348 -0.238995 0
M  V30 7122 H 662.513 3.72071 1.89391 0
M  V30 7123 H 663.903 6.66129 -0.878762 0
M  V30 7124 N 666.623 0.143563 1.56945 0
M  V30 7125 C 668.039 -0.212877 1.58174 0
M  V30 7126 C 668.239 -1.64926 1.15766 0
M  V30 7127 O 667.295 -2.37535 0.856361 0
M  V30 7128 C 668.608 0.0427573 3.0067 0
M  V30 7129 C 670.156 -0.0212221 3.12993 0
M  V30 7130 C 670.631 0.207036 4.57532 0
M  V30 7131 N 672.122 0.153845 4.62944 0
M  V30 7132 C 672.857 0.305018 5.72588 0
M  V30 7133 N 672.353 0.513722 6.90893 0
M  V30 7134 N 674.146 0.242862 5.61575 0
M  V30 7135 H 666.297 1.08148 1.82805 0
M  V30 7136 H 668.56 0.427831 0.84597 0
M  V30 7137 H 668.266 1.03672 3.36073 0
M  V30 7138 H 668.14 -0.678195 3.71053 0
M  V30 7139 H 670.527 -1.00574 2.77433 0
M  V30 7140 H 670.608 0.732004 2.45103 0
M  V30 7141 H 670.252 1.18863 4.93795 0
M  V30 7142 H 670.182 -0.566473 5.23544 0
M  V30 7143 H 672.673 -0.00294866 3.779 0
M  V30 7144 H 672.986 0.619273 7.70315 0
M  V30 7145 H 671.331 0.550001 6.9282 0
M  V30 7146 H 674.522 0.0806015 4.68031 0
M  V30 7147 H 674.695 0.364112 6.46976 0
M  V30 7148 N 668.101 -1.57061 -0.130224 0
M  V30 7149 C 669.378 -1.75205 -0.869631 0
M  V30 7150 C 669.758 -0.716063 -1.98584 0
M  V30 7151 O 669.106 0.262032 -2.26993 0
M  V30 7152 C 669.316 -3.19835 -1.39666 0
M  V30 7153 C 670.664 -3.82011 -1.85345 0
M  V30 7154 O 671.688 -3.23368 -1.49371 0
M  V30 7155 O 670.547 -4.85064 -2.51744 0
M  V30 7156 H 667.641 -0.716977 -0.412157 0
M  V30 7157 H 670.187 -1.69311 -0.11484 0
M  V30 7158 H 668.959 -3.86745 -0.595288 0
M  V30 7159 H 668.582 -3.30222 -2.21448 0
M  V30 7160 N 669.579 0.400081 -1.52437 0
M  V30 7161 C 670.825 1.14788 -1.67187 0
M  V30 7162 C 671.158 1.89928 -0.405074 0
M  V30 7163 O 670.433 1.85118 0.596804 0
M  V30 7164 C 670.716 2.13507 -2.89977 0
M  V30 7165 C 670.569 1.42204 -4.2673 0
M  V30 7166 C 671.888 3.14069 -3.083 0
M  V30 7167 H 669.007 0.415939 -0.608411 0
M  V30 7168 H 671.649 0.432542 -1.85011 0
M  V30 7169 H 669.799 2.7451 -2.74912 0
M  V30 7170 H 671.471 0.842503 -4.53541 0
M  V30 7171 H 669.714 0.723939 -4.27717 0
M  V30 7172 H 670.385 2.14281 -5.08712 0
M  V30 7173 H 672.861 2.63148 -3.22323 0
M  V30 7174 H 671.737 3.80398 -3.95713 0
M  V30 7175 H 671.998 3.82309 -2.22018 0
M  V30 7176 N 671.057 1.43213 0.657864 0
M  V30 7177 C 672.468 1.39669 1.23893 0
M  V30 7178 C 672.819 0.0984217 1.95953 0
M  V30 7179 O 671.944 -0.8023 2.00978 0
M  V30 7180 C 672.539 2.53004 2.25332 0
M  V30 7181 C 671.098 2.5274 2.78926 0
M  V30 7182 C 670.245 2.30941 1.53497 0
M  V30 7183 H 673.196 1.52181 0.450172 0
M  V30 7184 H 673.217 2.24226 3.07413 0
M  V30 7185 H 672.729 3.4748 1.72856 0
M  V30 7186 H 670.83 1.6213 3.35477 0
M  V30 7187 H 670.943 3.50352 3.26787 0
M  V30 7188 H 669.307 1.7952 1.80678 0
M  V30 7189 H 670.09 3.27496 1.02963 0
M  V30 7190 N 672.536 -0.895792 1.29666 0
M  V30 7191 C 673.466 -2.01673 1.17688 0
M  V30 7192 C 674.447 -1.69955 0.0701317 0
M  V30 7193 O 675.632 -1.9258 0.250289 0
M  V30 7194 C 672.762 -3.36568 0.856681 0
M  V30 7195 C 671.716 -3.82509 1.92017 0
M  V30 7196 C 671.042 -5.14574 1.4532 0
M  V30 7197 C 672.342 -4.02409 3.32963 0
M  V30 7198 H 674.036 -2.11953 2.11463 0
M  V30 7199 H 671.582 -1.01839 1.01807 0
M  V30 7200 H 673.535 -4.14498 0.759577 0
M  V30 7201 H 672.259 -3.26391 -0.116763 0
M  V30 7202 H 670.918 -3.068 2.00673 0
M  V30 7203 H 670.566 -5.00815 0.468325 0
M  V30 7204 H 670.266 -5.46283 2.16447 0
M  V30 7205 H 671.79 -5.9504 1.36968 0
M  V30 7206 H 673.204 -4.70808 3.27127 0
M  V30 7207 H 671.601 -4.45478 4.02082 0
M  V30 7208 H 672.671 -3.06616 3.75652 0
M  V30 7209 N 674.014 -1.12206 -1.10668 0
M  V30 7210 C 675.239 -0.898938 -1.86906 0
M  V30 7211 C 675.664 0.546346 -1.79991 0
M  V30 7212 O 675.022 1.38655 -1.1681 0
M  V30 7213 C 675.07 -1.37529 -3.33344 0
M  V30 7214 O 674.174 -0.55218 -4.08687 0
M  V30 7215 H 673.515 -0.323163 -0.580053 0
M  V30 7216 H 676.045 -1.49355 -1.39837 0
M  V30 7217 H 676.055 -1.3733 -3.84193 0
M  V30 7218 H 674.73 -2.42767 -3.37693 0
M  V30 7219 H 673.307 -0.620947 -3.67694 0
M  V30 7220 N 675.492 1.28418 -0.913599 0
M  V30 7221 C 676.722 1.98817 -0.56172 0
M  V30 7222 C 677.13 1.68457 0.861321 0
M  V30 7223 O 676.473 0.933653 1.58204 0
M  V30 7224 C 676.535 3.52801 -0.690785 0
M  V30 7225 C 676.199 4.0675 -2.08334 0
M  V30 7226 C 677.196 4.20597 -3.05604 0
M  V30 7227 C 674.881 4.41445 -2.39648 0
M  V30 7228 C 676.875 4.68392 -4.32305 0
M  V30 7229 C 674.562 4.88934 -3.66588 0
M  V30 7230 C 675.56 5.02364 -4.6273 0
M  V30 7231 O 675.248 5.48817 -5.87414 0
M  V30 7232 H 674.98 0.641608 -0.212874 0
M  V30 7233 H 677.534 1.64584 -1.22887 0
M  V30 7234 H 675.764 3.86686 0.0334336 0
M  V30 7235 H 677.453 4.04422 -0.346031 0
M  V30 7236 H 678.219 3.94067 -2.8273 0
M  V30 7237 H 674.098 4.30242 -1.65567 0
M  V30 7238 H 677.642 4.7879 -5.07352 0
M  V30 7239 H 673.539 5.14904 -3.89287 0
M  V30 7240 H 674.307 5.67103 -5.90201 0
M  V30 7241 N 676.97 0.677563 1.42291 0
M  V30 7242 C 678.21 0.204894 2.0337 0
M  V30 7243 C 678.574 -1.16744 1.5243 0
M  V30 7244 O 679.775 -1.73492 2.05314 0
M  V30 7245 C 678.046 0.240742 3.56588 0
M  V30 7246 S 679.605 -0.16052 4.38506 0
M  V30 7247 H 676.423 0.0839932 0.706021 0
M  V30 7248 H 679.025 0.891332 1.73999 0
M  V30 7249 H 677.729 1.24184 3.91161 0
M  V30 7250 H 677.26 -0.465439 3.90637 0
M  V30 7251 H 679.275 -1.39315 4.76241 0
M  V30 7252 N 678.448 -1.51871 0.421078 0
M  V30 7253 C 679.396 -2.28903 -0.413066 0
M  V30 7254 C 680.39 -1.3408 -1.03532 0
M  V30 7255 O 681.596 -1.5149 -0.972146 0
M  V30 7256 H 677.971 -0.736478 -0.152003 0
M  V30 7257 H 679.942 -2.97285 0.257695 0
M  V30 7258 C 678.691 -3.13156 -1.51091 0
M  V30 7259 H 678.014 -3.85997 -1.04145 0
M  V30 7260 H 679.454 -3.7014 -2.06814 0
M  V30 7261 C 677.913 -2.27482 -2.48503 0
M  V30 7262 O 678.443 -1.92325 -3.52667 0
M  V30 7263 N 676.649 -1.91019 -2.18998 0
M  V30 7264 H 676.196 -2.19808 -1.34322 0
M  V30 7265 H 676.154 -1.3399 -2.84419 0
M  V30 7266 N 679.926 -0.151884 -1.56866 0
M  V30 7267 C 681.151 0.508044 -2.01081 0
M  V30 7268 C 681.576 1.57306 -1.03134 0
M  V30 7269 O 680.934 1.81298 -0.0078309 0
M  V30 7270 C 680.982 1.08106 -3.44014 0
M  V30 7271 O 680.086 2.19577 -3.49084 0
M  V30 7272 H 679.427 0.123757 -0.652365 0
M  V30 7273 H 681.957 -0.250055 -2.03066 0
M  V30 7274 H 681.967 1.40851 -3.82916 0
M  V30 7275 H 680.642 0.301168 -4.14808 0
M  V30 7276 H 679.219 1.88023 -3.22027 0
M  V30 7277 N 681.404 1.57128 0.121893 0
M  V30 7278 C 682.681 1.75664 0.860327 0
M  V30 7279 C 683.061 0.726585 1.98202 0
M  V30 7280 O 682.409 -0.24999 2.27128 0
M  V30 7281 C 682.619 3.20571 1.37968 0
M  V30 7282 C 683.967 3.82988 1.83317 0
M  V30 7283 O 684.991 3.24156 1.47654 0
M  V30 7284 O 683.85 4.86393 2.49168 0
M  V30 7285 H 680.944 0.719153 0.408348 0
M  V30 7286 H 683.49 1.6937 0.105859 0
M  V30 7287 H 682.262 3.87056 0.57477 0
M  V30 7288 H 681.885 3.31392 2.19694 0
M  V30 7289 N 682.882 -0.391992 1.52647 0
M  V30 7290 C 684.122 -1.1463 1.69232 0
M  V30 7291 C 684.486 -1.87312 0.421684 0
M  V30 7292 O 685.687 -2.64768 0.463852 0
M  V30 7293 C 683.958 -2.10088 2.89133 0
M  V30 7294 S 685.517 -2.93395 3.2629 0
M  V30 7295 H 682.335 -0.388076 0.59575 0
M  V30 7296 H 684.937 -0.431149 1.90687 0
M  V30 7297 H 683.641 -1.55408 3.79837 0
M  V30 7298 H 683.172 -2.86116 2.70003 0
M  V30 7299 H 685.187 -4.12193 2.76244 0
M  V30 7300 N 684.36 -1.4356 -0.65026 0
M  V30 7301 C 685.308 -1.49219 -1.78427 0
M  V30 7302 C 686.302 -0.365528 -1.65409 0
M  V30 7303 O 687.508 -0.539649 -1.7172 0
M  V30 7304 H 683.883 -0.467858 -0.588738 0
M  V30 7305 H 685.854 -2.44701 -1.70774 0
M  V30 7306 C 684.603 -1.43519 -3.16698 0
M  V30 7307 H 683.926 -2.2952 -3.27354 0
M  V30 7308 H 685.366 -1.5154 -3.95995 0
M  V30 7309 C 683.825 -0.153197 -3.36552 0
M  V30 7310 O 684.355 0.784317 -3.93969 0
M  V30 7311 N 682.561 -0.0624402 -2.90533 0
M  V30 7312 H 682.108 -0.826172 -2.43992 0
M  V30 7313 H 682.066 0.794616 -3.04193 0
M  V30 7314 N 685.838 0.888903 -1.30139 0
M  V30 7315 C 687.078 1.65456 -1.20015 0
M  V30 7316 C 687.442 1.90467 0.242148 0
M  V30 7317 O 688.643 2.6472 0.466561 0
M  V30 7318 C 686.914 2.96071 -2.00191 0
M  V30 7319 S 688.473 3.87055 -2.06721 0
M  V30 7320 H 685.291 0.567927 -0.427761 0
M  V30 7321 H 687.893 1.05539 -1.64565 0
M  V30 7322 H 686.597 2.7559 -3.04103 0
M  V30 7323 H 686.128 3.61023 -1.56288 0
M  V30 7324 H 688.143 4.81676 -1.19174 0
M  V30 7325 N 687.317 1.12792 1.10072 0
M  V30 7326 C 688.594 0.796867 1.78632 0
M  V30 7327 C 688.974 -0.712739 1.98704 0
M  V30 7328 O 688.322 -1.64773 1.5831 0
M  V30 7329 C 688.532 1.57622 3.11378 0
M  V30 7330 C 689.88 1.76463 3.86194 0
M  V30 7331 O 690.904 1.54165 3.2111 0
M  V30 7332 O 689.763 2.13623 5.03018 0
M  V30 7333 H 686.857 0.290248 0.774394 0
M  V30 7334 H 689.403 1.23215 1.16688 0
M  V30 7335 H 688.175 2.60246 2.92212 0
M  V30 7336 H 687.798 1.13543 3.81043 0
M  V30 7337 N 688.795 -1.27931 0.920396 0
M  V30 7338 C 689.705 -2.30824 0.419212 0
M  V30 7339 C 690.721 -1.66767 -0.496461 0
M  V30 7340 O 691.897 -1.97763 -0.38104 0
M  V30 7341 C 688.962 -3.45158 -0.326601 0
M  V30 7342 C 688.023 -4.24754 0.623098 0
M  V30 7343 C 687.256 -5.33629 -0.0872172 0
M  V30 7344 O 687.479 -5.55204 -1.30784 0
M  V30 7345 O 686.413 -5.99091 0.580875 0
M  V30 7346 H 690.239 -2.75716 1.27337 0
M  V30 7347 H 687.824 -1.32747 0.685465 0
M  V30 7348 H 689.706 -4.14716 -0.747559 0
M  V30 7349 H 688.381 -3.02336 -1.15648 0
M  V30 7350 H 687.288 -3.57759 1.09359 0
M  V30 7351 H 688.621 -4.71272 1.41998 0
M  V30 7352 N 690.273 -0.685099 -1.4193 0
M  V30 7353 C 691.498 -0.218842 -2.06242 0
M  V30 7354 C 691.923 1.11923 -1.51178 0
M  V30 7355 O 691.281 1.69837 -0.634446 0
M  V30 7356 C 691.329 -0.175592 -3.60172 0
M  V30 7357 O 690.433 0.852776 -4.03487 0
M  V30 7358 H 689.774 -0.109531 -0.654904 0
M  V30 7359 H 692.304 -0.937013 -1.81882 0
M  V30 7360 H 692.314 -0.00291151 -4.08 0
M  V30 7361 H 690.989 -1.15222 -3.99621 0
M  V30 7362 H 689.566 0.650301 -3.67186 0
M  V30 7363 N 691.751 1.51645 -0.429126 0
M  V30 7364 C 692.683 2.25279 0.422124 0
M  V30 7365 C 693.696 1.28986 0.993299 0
M  V30 7366 O 694.885 1.54797 0.888836 0
M  V30 7367 C 691.985 2.98666 1.60162 0
M  V30 7368 C 691.158 4.2199 1.15078 0
M  V30 7369 C 690.217 4.78028 2.19946 0
M  V30 7370 O 689.243 5.40084 1.79716 0
M  V30 7371 N 690.445 4.61342 3.5234 0
M  V30 7372 H 693.21 2.98971 -0.208931 0
M  V30 7373 H 690.771 1.59838 -0.257568 0
M  V30 7374 H 692.763 3.33044 2.29922 0
M  V30 7375 H 691.333 2.28036 2.13818 0
M  V30 7376 H 690.553 3.932 0.280552 0
M  V30 7377 H 691.841 5.02037 0.826831 0
M  V30 7378 H 691.239 4.11894 3.87763 0
M  V30 7379 H 689.796 5.00104 4.18019 0
M  V30 7380 N 693.229 0.160201 1.56784 0
M  V30 7381 C 694.475 -0.481855 1.9761 0
M  V30 7382 C 694.83 -1.61605 1.04411 0
M  V30 7383 O 694.123 -1.91426 0.0816402 0
M  V30 7384 C 694.317 -1.02259 3.42459 0
M  V30 7385 C 694.146 0.0576781 4.49663 0
M  V30 7386 C 692.916 0.503585 5.02784 0
M  V30 7387 C 695.114 0.854013 5.0716 0
M  V30 7388 N 693.096 1.56532 5.93608 0
M  V30 7389 C 694.467 1.76593 5.94319 0
M  V30 7390 C 696.522 0.900333 4.89692 0
M  V30 7391 C 695.225 2.72023 6.6588 0
M  V30 7392 C 697.251 1.84252 5.61965 0
M  V30 7393 C 696.613 2.74194 6.48843 0
M  V30 7394 H 692.712 -0.144748 0.768487 0
M  V30 7395 H 695.296 0.257853 1.92985 0
M  V30 7396 H 693.467 -1.73186 3.47651 0
M  V30 7397 H 695.199 -1.63235 3.70319 0
M  V30 7398 H 691.954 0.103361 4.73487 0
M  V30 7399 H 692.378 2.09634 6.43726 0
M  V30 7400 H 697.02 0.219023 4.22232 0
M  V30 7401 H 694.738 3.41147 7.3256 0
M  V30 7402 H 698.324 1.88433 5.5044 0
M  V30 7403 H 697.204 3.45912 7.03786 0
M  V30 7404 N 694.707 -1.5719 -0.113559 0
M  V30 7405 C 695.617 -2.04041 -1.15777 0
M  V30 7406 C 696.633 -0.961812 -1.45001 0
M  V30 7407 O 697.809 -1.2737 -1.56009 0
M  V30 7408 C 694.874 -2.43994 -2.46308 0
M  V30 7409 C 693.935 -3.65962 -2.24433 0
M  V30 7410 C 693.168 -4.04 -3.4874 0
M  V30 7411 O 693.391 -3.42321 -4.56259 0
M  V30 7412 O 692.325 -4.97069 -3.3942 0
M  V30 7413 H 696.151 -2.93248 -0.789899 0
M  V30 7414 H 693.736 -1.45828 -0.324748 0
M  V30 7415 H 695.618 -2.70401 -3.23204 0
M  V30 7416 H 694.293 -1.57932 -2.82558 0
M  V30 7417 H 693.2 -3.44697 -1.45377 0
M  V30 7418 H 694.533 -4.52746 -1.93084 0
M  V30 7419 N 696.185 0.383891 -1.52853 0
M  V30 7420 C 697.596 0.961591 -1.60032 0
M  V30 7421 C 697.947 1.90819 -0.456333 0
M  V30 7422 O 697.072 2.12288 0.419873 0
M  V30 7423 C 697.667 1.75078 -2.90057 0
M  V30 7424 C 696.226 2.2781 -2.99632 0
M  V30 7425 C 695.373 1.08512 -2.55187 0
M  V30 7426 H 698.324 0.163269 -1.57858 0
M  V30 7427 H 698.345 2.61046 -2.7683 0
M  V30 7428 H 697.857 1.06157 -3.73299 0
M  V30 7429 H 695.958 3.00028 -2.20939 0
M  V30 7430 H 696.071 2.56947 -4.0437 0
M  V30 7431 H 694.435 1.44667 -2.09627 0
M  V30 7432 H 695.218 0.41118 -3.40829 0
M  V30 7433 N 697.663 1.43903 0.642637 0
M  V30 7434 C 698.909 1.46296 1.40447 0
M  V30 7435 C 699.242 0.0908361 1.93987 0
M  V30 7436 O 698.517 -0.889884 1.72949 0
M  V30 7437 C 698.8 2.51399 2.57819 0
M  V30 7438 C 698.653 3.97926 2.09702 0
M  V30 7439 C 699.972 2.53125 3.60022 0
M  V30 7440 H 697.091 0.532676 0.509338 0
M  V30 7441 H 699.733 1.75515 0.727635 0
M  V30 7442 H 697.883 2.26614 3.1556 0
M  V30 7443 H 699.555 4.33804 1.5688 0
M  V30 7444 H 697.798 4.10252 1.40982 0
M  V30 7445 H 698.469 4.67096 2.94152 0
M  V30 7446 H 700.945 2.75242 3.12059 0
M  V30 7447 H 699.821 3.28589 4.39682 0
M  V30 7448 H 700.082 1.56895 4.13324 0
M  V30 7449 N 699.141 -0.881989 1.30609 0
M  V30 7450 C 700.381 -1.64817 1.20891 0
M  V30 7451 C 700.745 -1.90593 -0.232043 0
M  V30 7452 O 701.946 -2.64964 -0.452516 0
M  V30 7453 C 700.217 -2.95006 2.01758 0
M  V30 7454 S 701.776 -3.85953 2.08771 0
M  V30 7455 H 698.594 -0.565651 0.430767 0
M  V30 7456 H 701.196 -1.04665 1.65122 0
M  V30 7457 H 699.9 -2.73973 3.0556 0
M  V30 7458 H 699.431 -3.60189 1.582 0
M  V30 7459 H 701.446 -4.81037 1.21727 0
M  V30 7460 N 700.619 -1.13374 -1.09472 0
M  V30 7461 C 701.867 -0.893422 -1.8128 0
M  V30 7462 C 702.188 0.582029 -1.86111 0
M  V30 7463 O 701.458 1.42305 -1.34633 0
M  V30 7464 H 700.038 -0.327543 -0.67136 0
M  V30 7465 H 702.7 -1.43018 -1.32408 0
M  V30 7466 H 701.796 -1.28374 -2.84476 0
M  V30 7467 N 702.098 1.27442 -0.927168 0
M  V30 7468 C 703.046 2.28844 -0.416333 0
M  V30 7469 C 704.04 1.61882 0.499057 0
M  V30 7470 O 705.246 1.75969 0.378817 0
M  V30 7471 H 701.621 0.742989 -0.116065 0
M  V30 7472 H 703.592 2.69344 -1.28438 0
M  V30 7473 C 702.341 3.4626 0.316107 0
M  V30 7474 H 701.664 3.97999 -0.379082 0
M  V30 7475 H 703.104 4.19173 0.637975 0
M  V30 7476 C 701.563 3.00211 1.5289 0
M  V30 7477 O 702.093 3.03837 2.62766 0
M  V30 7478 N 700.299 2.55713 1.38054 0
M  V30 7479 H 699.846 2.52962 0.4866 0
M  V30 7480 H 699.804 2.25264 2.19325 0
M  V30 7481 N 703.576 0.692616 1.41565 0
M  V30 7482 C 704.524 0.0139952 2.32596 0
M  V30 7483 C 705.518 -0.771691 1.50802 0
M  V30 7484 O 706.724 -0.677646 1.66757 0
M  V30 7485 H 703.099 -0.0142745 0.751865 0
M  V30 7486 H 705.07 0.798851 2.87508 0
M  V30 7487 C 703.819 -0.910602 3.35564 0
M  V30 7488 H 703.142 -0.315446 3.98554 0
M  V30 7489 H 704.582 -1.3538 4.01806 0
M  V30 7490 C 703.041 -2.02539 2.6922 0
M  V30 7491 O 703.571 -3.11386 2.53775 0
M  V30 7492 N 701.777 -1.80227 2.27962 0
M  V30 7493 H 701.324 -0.917054 2.40724 0
M  V30 7494 H 701.282 -2.55001 1.83907 0
M  V30 7495 N 705.054 -1.51416 0.437162 0
M  V30 7496 C 706.302 -2.01687 -0.129108 0
M  V30 7497 C 706.623 -1.32329 -1.43227 0
M  V30 7498 O 705.893 -0.457796 -1.90476 0
M  V30 7499 H 704.473 -0.745277 -0.0507023 0
M  V30 7500 H 707.135 -1.86075 0.579828 0
M  V30 7501 H 706.231 -3.10605 -0.305141 0
M  V30 7502 N 706.532 -0.168513 -1.56696 0
M  V30 7503 C 707.781 0.477233 -1.95973 0
M  V30 7504 C 708.094 1.64578 -1.05704 0
M  V30 7505 O 709.3 2.35758 -1.3465 0
M  V30 7506 C 707.756 0.900413 -3.48455 0
M  V30 7507 C 707.364 -0.242382 -4.47344 0
M  V30 7508 C 709.108 1.51474 -3.96555 0
M  V30 7509 C 707.015 0.200272 -5.91061 0
M  V30 7510 H 705.945 0.182061 -0.73169 0
M  V30 7511 H 708.596 -0.256297 -1.81701 0
M  V30 7512 H 706.978 1.68984 -3.58135 0
M  V30 7513 H 708.152 -1.01967 -4.49377 0
M  V30 7514 H 706.467 -0.766484 -4.09285 0
M  V30 7515 H 709.064 1.85792 -5.01384 0
M  V30 7516 H 709.407 2.41163 -3.39332 0
M  V30 7517 H 709.94 0.789802 -3.89881 0
M  V30 7518 H 706.679 -0.661775 -6.52151 0
M  V30 7519 H 706.199 0.942979 -5.92341 0
M  V30 7520 H 707.878 0.645088 -6.43776 0
M  V30 7521 N 708.01 1.57248 0.105221 0
M  V30 7522 C 709.238 1.89768 0.82437 0
M  V30 7523 C 709.653 0.761192 1.72775 0
M  V30 7524 O 709.01 -0.267342 1.80531 0
M  V30 7525 C 709.061 3.2184 1.64625 0
M  V30 7526 O 708.782 4.31115 0.779217 0
M  V30 7527 C 710.283 3.68155 2.46935 0
M  V30 7528 H 707.503 0.628031 0.236259 0
M  V30 7529 H 710.047 2.04321 0.085485 0
M  V30 7530 H 708.202 3.08915 2.33775 0
M  V30 7531 H 708.616 5.06897 1.34745 0
M  V30 7532 H 710.09 4.6329 3.00111 0
M  V30 7533 H 710.567 2.95492 3.24932 0
M  V30 7534 H 711.173 3.83914 1.83002 0
M  V30 7535 N 709.488 -0.375779 1.53054 0
M  V30 7536 C 710.718 -1.1387 1.72386 0
M  V30 7537 C 711.126 -1.8382 0.447966 0
M  V30 7538 O 710.469 -1.74027 -0.588244 0
M  V30 7539 C 710.531 -2.22047 2.82728 0
M  V30 7540 C 710.195 -1.71951 4.23417 0
M  V30 7541 C 711.192 -1.18909 5.06119 0
M  V30 7542 C 708.877 -1.77773 4.69789 0
M  V30 7543 C 710.871 -0.723529 6.3328 0
M  V30 7544 C 708.558 -1.30829 5.96931 0
M  V30 7545 C 709.556 -0.782077 6.78508 0
M  V30 7546 O 709.244 -0.319529 8.03265 0
M  V30 7547 H 708.976 -0.346835 0.580242 0
M  V30 7548 H 711.53 -0.443748 2.00549 0
M  V30 7549 H 709.76 -2.95006 2.50017 0
M  V30 7550 H 711.449 -2.83654 2.90336 0
M  V30 7551 H 712.215 -1.13758 4.7147 0
M  V30 7552 H 708.094 -2.17673 4.06373 0
M  V30 7553 H 711.638 -0.312126 6.96901 0
M  V30 7554 H 707.535 -1.3567 6.31081 0
M  V30 7555 H 708.303 -0.439796 8.17318 0
M  V30 7556 N 710.966 -1.44241 -0.634997 0
M  V30 7557 C 712.215 -1.46102 -1.39058 0
M  V30 7558 C 712.528 -0.0959909 -1.95364 0
M  V30 7559 O 713.734 0.00788751 -2.71499 0
M  V30 7560 C 712.19 -2.57195 -2.51751 0
M  V30 7561 C 711.798 -3.99888 -2.01974 0
M  V30 7562 C 713.542 -2.68272 -3.28984 0
M  V30 7563 C 711.449 -5.02412 -3.11987 0
M  V30 7564 H 710.379 -0.543556 -0.522554 0
M  V30 7565 H 713.03 -1.70294 -0.683538 0
M  V30 7566 H 711.412 -2.26237 -3.25012 0
M  V30 7567 H 712.586 -4.40396 -1.35604 0
M  V30 7568 H 710.901 -3.93019 -1.37568 0
M  V30 7569 H 713.498 -3.42042 -4.10988 0
M  V30 7570 H 713.841 -1.73957 -3.78212 0
M  V30 7571 H 714.374 -2.98622 -2.62812 0
M  V30 7572 H 711.113 -5.98342 -2.67707 0
M  V30 7573 H 710.633 -4.66501 -3.77011 0
M  V30 7574 H 712.312 -5.25939 -3.76825 0
M  V30 7575 N 712.444 0.87505 -1.31075 0
M  V30 7576 C 713.669 1.66583 -1.23551 0
M  V30 7577 C 714.094 1.87067 0.19686 0
M  V30 7578 O 713.452 1.40877 1.1412 0
M  V30 7579 C 713.5 3.01401 -1.97965 0
M  V30 7580 O 712.604 3.90923 -1.31351 0
M  V30 7581 H 711.945 0.508645 -0.426821 0
M  V30 7582 H 714.475 1.09139 -1.7306 0
M  V30 7583 H 714.485 3.51374 -2.07366 0
M  V30 7584 H 713.16 2.85812 -3.02133 0
M  V30 7585 H 711.737 3.49369 -1.30368 0
M  V30 7586 N 713.922 1.13953 1.08869 0
M  V30 7587 C 715.333 0.916649 1.62648 0
M  V30 7588 C 715.684 -0.545589 1.88462 0
M  V30 7589 O 714.809 -1.41351 1.63856 0
M  V30 7590 C 715.404 1.65751 2.95486 0
M  V30 7591 C 713.963 1.48034 3.46068 0
M  V30 7592 C 713.11 1.68305 2.20383 0
M  V30 7593 H 716.061 1.292 0.921572 0
M  V30 7594 H 716.082 1.11794 3.63707 0
M  V30 7595 H 715.594 2.72171 2.76667 0
M  V30 7596 H 713.695 0.439416 3.7 0
M  V30 7597 H 713.808 2.24719 4.23129 0
M  V30 7598 H 712.172 1.10833 2.29321 0
M  V30 7599 H 712.955 2.76057 2.04077 0
M  V30 7600 N 715.4 -1.26948 0.933913 0
M  V30 7601 C 716.64 -1.9585 0.585003 0
M  V30 7602 C 717.004 -1.71722 -0.858802 0
M  V30 7603 O 718.205 -2.34366 -1.31629 0
M  V30 7604 C 716.476 -3.45638 0.909352 0
M  V30 7605 S 718.035 -4.33656 0.669892 0
M  V30 7606 H 714.853 -0.677485 0.215721 0
M  V30 7607 H 717.455 -1.54051 1.20368 0
M  V30 7608 H 716.159 -3.60697 1.9577 0
M  V30 7609 H 715.69 -3.92401 0.280115 0
M  V30 7610 H 717.705 -4.93975 -0.469378 0
M  V30 7611 N 716.879 -0.700114 -1.41195 0
M  V30 7612 C 717.809 -0.0521132 -2.33442 0
M  V30 7613 C 718.79 0.76228 -1.52063 0
M  V30 7614 O 719.975 0.714336 -1.80585 0
M  V30 7615 C 717.105 0.881693 -3.35922 0
M  V30 7616 C 716.059 0.174062 -4.27646 0
M  V30 7617 C 715.385 1.22254 -5.20536 0
M  V30 7618 C 716.685 -0.962396 -5.13357 0
M  V30 7619 H 718.379 -0.822574 -2.87879 0
M  V30 7620 H 715.925 -0.397011 -1.38419 0
M  V30 7621 H 717.878 1.34429 -3.99383 0
M  V30 7622 H 716.602 1.68387 -2.79845 0
M  V30 7623 H 715.261 -0.268551 -3.65615 0
M  V30 7624 H 714.909 2.01736 -4.60773 0
M  V30 7625 H 714.609 0.754038 -5.82742 0
M  V30 7626 H 716.133 1.68555 -5.86874 0
M  V30 7627 H 717.547 -0.579875 -5.7036 0
M  V30 7628 H 715.944 -1.35828 -5.84526 0
M  V30 7629 H 717.014 -1.80003 -4.50252 0
M  V30 7630 N 718.357 1.51182 -0.445186 0
M  V30 7631 C 719.32 2.26501 0.350722 0
M  V30 7632 C 720.32 1.3025 0.942952 0
M  V30 7633 O 721.51 1.53897 0.816175 0
M  V30 7634 C 718.642 3.06274 1.49697 0
M  V30 7635 H 719.835 2.98299 -0.309474 0
M  V30 7636 H 717.388 1.55034 -0.198551 0
M  V30 7637 H 718.123 2.38911 2.19299 0
M  V30 7638 H 717.908 3.76979 1.0784 0
M  V30 7639 H 719.398 3.63306 2.05909 0
M  V30 7640 N 719.835 0.176821 1.56605 0
M  V30 7641 C 721.083 -0.465793 1.96659 0
M  V30 7642 C 721.404 -1.63406 1.06412 0
M  V30 7643 O 720.674 -1.95457 0.131603 0
M  V30 7644 H 719.254 -0.175072 0.726195 0
M  V30 7645 H 721.916 0.25929 1.93168 0
M  V30 7646 H 721.012 -0.822138 3.01077 0
M  V30 7647 N 721.313 -1.57302 -0.09688 0
M  V30 7648 C 722.553 -1.87823 -0.806334 0
M  V30 7649 C 722.917 -0.767593 -1.75989 0
M  V30 7650 O 724.118 -0.955173 -2.51257 0
M  V30 7651 C 722.389 -3.23585 -1.51749 0
M  V30 7652 S 723.948 -3.75795 -2.26547 0
M  V30 7653 H 720.766 -0.658281 -0.268676 0
M  V30 7654 H 723.368 -1.95397 -0.0635476 0
M  V30 7655 H 722.072 -4.0234 -0.809348 0
M  V30 7656 H 721.603 -3.19145 -2.30021 0
M  V30 7657 H 723.618 -3.49068 -3.52656 0
M  V30 7658 N 722.791 0.367657 -1.53252 0
M  V30 7659 C 723.738 1.45028 -1.79543 0
M  V30 7660 C 724.708 1.53288 -0.63969 0
M  V30 7661 O 725.893 1.69209 -0.881653 0
M  V30 7662 C 723.033 2.82 -1.98923 0
M  V30 7663 C 722.146 2.82722 -3.26638 0
M  V30 7664 C 721.281 4.11257 -3.36216 0
M  V30 7665 C 720.32 4.06113 -4.57972 0
M  V30 7666 N 719.457 5.26293 -4.64715 0
M  V30 7667 H 724.297 1.21908 -2.71923 0
M  V30 7668 H 721.834 0.591011 -1.34705 0
M  V30 7669 H 723.792 3.61568 -2.08146 0
M  V30 7670 H 722.422 3.03523 -1.09881 0
M  V30 7671 H 721.474 1.95399 -3.26379 0
M  V30 7672 H 722.786 2.74794 -4.16281 0
M  V30 7673 H 721.94 4.99239 -3.44739 0
M  V30 7674 H 720.679 4.21935 -2.44586 0
M  V30 7675 H 719.684 3.16517 -4.49552 0
M  V30 7676 H 720.909 3.97039 -5.50942 0
M  V30 7677 H 718.855 5.37561 -3.75985 0
M  V30 7678 H 718.772 5.20526 -5.4826 0
M  V30 7679 H 720.04 6.16113 -4.77519 0
M  V30 7680 N 724.269 1.44576 0.627338 0
M  V30 7681 C 725.494 1.51271 1.41887 0
M  V30 7682 C 725.919 0.139814 1.8758 0
M  V30 7683 O 725.277 -0.871746 1.58966 0
M  V30 7684 C 725.325 2.48529 2.61277 0
M  V30 7685 O 724.429 1.98944 3.61241 0
M  V30 7686 H 723.77 0.510668 0.424399 0
M  V30 7687 H 726.3 1.89746 0.765356 0
M  V30 7688 H 726.31 2.66689 3.08773 0
M  V30 7689 H 724.985 3.48249 2.27366 0
M  V30 7690 H 723.562 1.90568 3.20528 0
M  V30 7691 N 725.747 -0.868086 1.31537 0
M  V30 7692 C 726.972 -1.65926 1.24432 0
M  V30 7693 C 727.397 -1.87169 -0.186936 0
M  V30 7694 O 726.755 -1.4148 -1.13371 0
M  V30 7695 C 726.803 -3.00347 1.9956 0
M  V30 7696 O 725.907 -3.90221 1.33422 0
M  V30 7697 H 725.248 -0.506375 0.429512 0
M  V30 7698 H 727.778 -1.0822 1.73637 0
M  V30 7699 H 727.788 -3.50269 2.09226 0
M  V30 7700 H 726.463 -2.84205 3.03645 0
M  V30 7701 H 725.04 -3.48672 1.32219 0
M  V30 7702 N 727.225 -1.14528 -1.08264 0
M  V30 7703 C 728.45 -0.938381 -1.84957 0
M  V30 7704 C 728.875 0.508044 -1.81109 0
M  V30 7705 O 728.233 1.36146 -1.19724 0
M  V30 7706 C 728.281 -1.44568 -3.30352 0
M  V30 7707 O 727.385 -0.638745 -4.07423 0
M  V30 7708 H 726.726 -0.335394 -0.573068 0
M  V30 7709 H 729.256 -1.52287 -1.36637 0
M  V30 7710 H 729.266 -1.45449 -3.81194 0
M  V30 7711 H 727.941 -2.49876 -3.32468 0
M  V30 7712 H 726.518 -0.698801 -3.66294 0
M  V30 7713 N 728.703 1.26451 -0.940633 0
M  V30 7714 C 729.951 1.93395 -0.586748 0
M  V30 7715 C 730.272 1.7417 0.876921 0
M  V30 7716 O 729.542 1.097 1.62304 0
M  V30 7717 H 728.122 0.715687 -0.214012 0
M  V30 7718 H 730.784 1.53902 -1.19584 0
M  V30 7719 H 729.88 3.01565 -0.804059 0
M  V30 7720 N 730.181 0.707592 1.40822 0
M  V30 7721 C 731.129 0.0386643 2.32568 0
M  V30 7722 C 732.123 -0.755653 1.51612 0
M  V30 7723 O 733.329 -0.659921 1.67467 0
M  V30 7724 H 729.704 -0.00629912 0.751974 0
M  V30 7725 H 731.675 0.8293 2.86645 0
M  V30 7726 C 730.424 -0.87496 3.36511 0
M  V30 7727 H 729.747 -0.273157 3.98866 0
M  V30 7728 H 731.187 -1.31111 4.03219 0
M  V30 7729 C 729.646 -1.99672 2.71353 0
M  V30 7730 O 730.176 -3.08676 2.57064 0
M  V30 7731 N 728.382 -1.77799 2.29861 0
M  V30 7732 H 727.929 -0.89147 2.41683 0
M  V30 7733 H 727.887 -2.53036 1.86601 0
M  V30 7734 N 731.66 -1.50943 0.453197 0
M  V30 7735 C 732.607 -2.28128 -0.350197 0
M  V30 7736 C 733.577 -1.32398 -1.00299 0
M  V30 7737 O 734.762 -1.61319 -1.01887 0
M  V30 7738 C 731.902 -3.13782 -1.43649 0
M  V30 7739 C 731.015 -4.24523 -0.800255 0
M  V30 7740 C 730.15 -4.97462 -1.86293 0
M  V30 7741 C 729.189 -6.00102 -1.20598 0
M  V30 7742 N 728.326 -6.66387 -2.21071 0
M  V30 7743 H 733.166 -2.96337 0.31434 0
M  V30 7744 H 730.703 -1.46151 0.166863 0
M  V30 7745 H 732.661 -3.6178 -2.07776 0
M  V30 7746 H 731.291 -2.47655 -2.07044 0
M  V30 7747 H 730.343 -3.80371 -0.0468651 0
M  V30 7748 H 731.655 -4.98009 -0.280777 0
M  V30 7749 H 730.809 -5.49088 -2.58044 0
M  V30 7750 H 729.548 -4.23642 -2.41617 0
M  V30 7751 H 728.553 -5.47753 -0.474 0
M  V30 7752 H 729.778 -6.75887 -0.659859 0
M  V30 7753 H 727.724 -5.9537 -2.75446 0
M  V30 7754 H 727.641 -7.3569 -1.74058 0
M  V30 7755 H 728.909 -7.22638 -2.92257 0
M  V30 7756 N 733.138 -0.185124 -1.56509 0
M  V30 7757 C 734.085 0.739729 -2.18624 0
M  V30 7758 C 735.055 1.217 -1.13042 0
M  V30 7759 O 736.24 1.28268 -1.41251 0
M  V30 7760 C 733.38 1.95787 -2.84186 0
M  V30 7761 C 732.493 1.52289 -4.04267 0
M  V30 7762 C 731.628 2.69576 -4.57714 0
M  V30 7763 C 730.667 2.22636 -5.70175 0
M  V30 7764 N 729.804 3.33065 -6.18071 0
M  V30 7765 H 734.644 0.203269 -2.97306 0
M  V30 7766 H 732.181 0.0885946 -1.46833 0
M  V30 7767 H 734.139 2.67253 -3.20361 0
M  V30 7768 H 732.769 2.4678 -2.08085 0
M  V30 7769 H 731.821 0.704458 -3.7382 0
M  V30 7770 H 733.133 1.13843 -4.85635 0
M  V30 7771 H 732.287 3.4918 -4.96143 0
M  V30 7772 H 731.026 3.1129 -3.75433 0
M  V30 7773 H 730.031 1.41483 -5.31284 0
M  V30 7774 H 731.256 1.81964 -6.54267 0
M  V30 7775 H 729.202 3.74328 -5.38715 0
M  V30 7776 H 729.119 2.98756 -6.94464 0
M  V30 7777 H 730.387 4.12912 -6.61153 0
M  V30 7778 N 734.616 1.57351 0.0885366 0
M  V30 7779 C 736.027 1.75303 0.642308 0
M  V30 7780 C 736.378 0.808238 1.78779 0
M  V30 7781 O 735.503 -0.01171 2.16397 0
M  V30 7782 C 736.098 3.17885 1.17194 0
M  V30 7783 C 734.657 3.37239 1.67172 0
M  V30 7784 C 733.804 2.7108 0.584045 0
M  V30 7785 H 736.755 1.58103 -0.137567 0
M  V30 7786 H 736.776 3.2112 2.04114 0
M  V30 7787 H 736.288 3.86625 0.338024 0
M  V30 7788 H 734.389 2.73588 2.52943 0
M  V30 7789 H 734.502 4.45594 1.76019 0
M  V30 7790 H 732.866 2.33161 1.02508 0
M  V30 7791 H 733.649 3.42464 -0.239403 0
M  V30 7792 N 736.094 -0.359525 1.53444 0
M  V30 7793 C 737.343 -1.09886 1.69139 0
M  V30 7794 C 737.656 -1.90285 0.452863 0
M  V30 7795 O 738.862 -2.67033 0.490459 0
M  V30 7796 C 737.318 -2.0028 2.99025 0
M  V30 7797 C 736.926 -1.25164 4.30161 0
M  V30 7798 C 738.67 -2.74168 3.24086 0
M  V30 7799 C 736.577 -2.14494 5.51132 0
M  V30 7800 H 735.507 -0.413936 0.630217 0
M  V30 7801 H 738.158 -0.359434 1.79945 0
M  V30 7802 H 736.54 -2.77978 2.82036 0
M  V30 7803 H 737.714 -0.524867 4.57801 0
M  V30 7804 H 736.029 -0.631116 4.11589 0
M  V30 7805 H 738.626 -3.41243 4.11652 0
M  V30 7806 H 738.969 -3.39868 2.40407 0
M  V30 7807 H 739.502 -2.0355 3.41778 0
M  V30 7808 H 736.241 -1.53362 6.37307 0
M  V30 7809 H 735.761 -2.85004 5.27762 0
M  V30 7810 H 737.44 -2.73914 5.86157 0
M  V30 7811 N 737.572 -1.44907 -0.619662 0
M  V30 7812 C 738.818 -1.48512 -1.38102 0
M  V30 7813 C 739.151 -0.121686 -1.93818 0
M  V30 7814 O 738.426 0.862256 -1.74343 0
M  V30 7815 C 738.709 -2.55469 -2.53787 0
M  V30 7816 C 738.562 -4.01212 -2.03345 0
M  V30 7817 C 739.881 -2.58821 -3.55949 0
M  V30 7818 H 737 -0.540712 -0.500799 0
M  V30 7819 H 739.642 -1.7665 -0.69962 0
M  V30 7820 H 737.792 -2.31606 -3.11915 0
M  V30 7821 H 739.464 -4.36245 -1.49959 0
M  V30 7822 H 737.707 -4.12443 -1.34438 0
M  V30 7823 H 738.378 -4.71717 -2.86683 0
M  V30 7824 H 740.854 -2.80172 -3.07641 0
M  V30 7825 H 739.73 -3.35542 -4.34399 0
M  V30 7826 H 739.991 -1.63451 -4.10775 0
M  V30 7827 N 739.05 0.861098 -1.31996 0
M  V30 7828 C 740.297 1.61481 -1.22188 0
M  V30 7829 C 740.625 1.93276 0.217853 0
M  V30 7830 O 739.88 1.56942 1.16909 0
M  V30 7831 C 740.179 2.94822 -2.02027 0
M  V30 7832 C 739.845 2.82483 -3.51446 0
M  V30 7833 C 738.507 2.78825 -3.92186 0
M  V30 7834 C 740.859 2.68878 -4.46491 0
M  V30 7835 C 738.187 2.59433 -5.26224 0
M  V30 7836 C 740.539 2.51022 -5.80664 0
M  V30 7837 C 739.203 2.45753 -6.20614 0
M  V30 7838 H 738.473 0.590902 -0.447119 0
M  V30 7839 H 741.12 0.999376 -1.63355 0
M  V30 7840 H 739.425 3.6045 -1.53569 0
M  V30 7841 H 741.122 3.52149 -1.91812 0
M  V30 7842 H 737.712 2.86152 -3.19085 0
M  V30 7843 H 741.896 2.70754 -4.1594 0
M  V30 7844 H 737.152 2.53784 -5.5624 0
M  V30 7845 H 741.326 2.39473 -6.53931 0
M  V30 7846 H 738.953 2.30485 -7.24417 0
M  V30 7847 N 740.528 1.15101 1.07655 0
M  V30 7848 C 741.758 0.946357 1.83651 0
M  V30 7849 C 742.166 -0.508641 1.82235 0
M  V30 7850 O 741.509 -1.36445 1.22997 0
M  V30 7851 C 741.571 1.37945 3.31981 0
M  V30 7852 C 741.235 2.85155 3.57122 0
M  V30 7853 C 742.232 3.83234 3.51323 0
M  V30 7854 C 739.917 3.2275 3.84887 0
M  V30 7855 C 741.911 5.16914 3.72932 0
M  V30 7856 C 739.598 4.56604 4.06148 0
M  V30 7857 C 740.596 5.53495 4.00165 0
M  V30 7858 O 740.284 6.84931 4.20861 0
M  V30 7859 H 740.016 0.336368 0.586372 0
M  V30 7860 H 742.57 1.53198 1.36819 0
M  V30 7861 H 740.8 0.737205 3.79608 0
M  V30 7862 H 742.489 1.14439 3.89434 0
M  V30 7863 H 743.255 3.55535 3.29878 0
M  V30 7864 H 739.134 2.47921 3.88659 0
M  V30 7865 H 742.678 5.92529 3.68178 0
M  V30 7866 H 738.575 4.84019 4.27078 0
M  V30 7867 H 739.343 6.91304 4.38226 0
M  V30 7868 N 742.006 -1.2595 0.947325 0
M  V30 7869 C 742.954 -2.28152 0.452687 0
M  V30 7870 C 743.948 -1.62655 -0.473239 0
M  V30 7871 O 745.154 -1.76549 -0.350774 0
M  V30 7872 H 741.529 -0.741049 0.12787 0
M  V30 7873 H 743.5 -2.67267 1.32707 0
M  V30 7874 C 742.249 -3.46719 -0.26098 0
M  V30 7875 H 741.572 -3.97345 0.442352 0
M  V30 7876 H 743.012 -4.20135 -0.571208 0
M  V30 7877 C 741.471 -3.02605 -1.48094 0
M  V30 7878 O 742.001 -3.07979 -2.57899 0
M  V30 7879 N 740.207 -2.57877 -1.33969 0
M  V30 7880 H 739.754 -2.53704 -0.446295 0
M  V30 7881 H 739.712 -2.28725 -2.15713 0
M  V30 7882 N 743.484 -0.715051 -1.40445 0
M  V30 7883 C 744.724 -0.258742 -2.02756 0
M  V30 7884 C 745.088 1.12661 -1.55472 0
M  V30 7885 O 746.289 1.67988 -2.09842 0
M  V30 7886 C 744.56 -0.335201 -3.55825 0
M  V30 7887 S 746.119 0.044201 -4.38778 0
M  V30 7888 H 742.937 -0.102683 -0.703546 0
M  V30 7889 H 745.539 -0.937151 -1.71574 0
M  V30 7890 H 744.243 -1.34511 -3.87731 0
M  V30 7891 H 743.774 0.361705 -3.91734 0
M  V30 7892 H 745.789 1.26639 -4.79768 0
M  V30 7893 N 744.962 1.50701 -0.461195 0
M  V30 7894 C 746.187 2.07171 0.0974773 0
M  V30 7895 C 746.612 1.32391 1.3362 0
M  V30 7896 O 745.97 0.368676 1.77512 0
M  V30 7897 C 746.018 3.58651 0.374409 0
M  V30 7898 O 745.122 3.85816 1.4567 0
M  V30 7899 H 744.463 0.663944 -0.00862047 0
M  V30 7900 H 746.993 1.94021 -0.649394 0
M  V30 7901 H 747.003 4.03295 0.617843 0
M  V30 7902 H 745.678 4.12498 -0.530829 0
M  V30 7903 H 744.255 3.53018 1.20136 0
M  V30 7904 N 746.441 0.193421 1.56409 0
M  V30 7905 C 747.681 -0.447977 1.9943 0
M  V30 7906 C 748.045 -1.58915 1.07751 0
M  V30 7907 O 749.246 -2.29462 1.40002 0
M  V30 7908 C 747.517 -0.89793 3.45936 0
M  V30 7909 S 749.076 -1.5374 4.10986 0
M  V30 7910 H 745.894 -0.143316 0.696406 0
M  V30 7911 H 748.496 0.296093 1.93245 0
M  V30 7912 H 747.2 -0.0572927 4.1036 0
M  V30 7913 H 746.731 -1.67551 3.55936 0
M  V30 7914 H 748.746 -2.82612 4.07854 0
M  V30 7915 N 747.919 -1.57396 -0.0801906 0
M  V30 7916 C 748.849 -2.06145 -1.09665 0
M  V30 7917 C 749.83 -0.953273 -1.40878 0
M  V30 7918 O 751.015 -1.22548 -1.50651 0
M  V30 7919 C 748.145 -2.49836 -2.41245 0
M  V30 7920 C 747.099 -3.64454 -2.24405 0
M  V30 7921 C 746.425 -3.94172 -3.61293 0
M  V30 7922 C 747.725 -4.94807 -1.67223 0
M  V30 7923 H 749.419 -2.91316 -0.691028 0
M  V30 7924 H 746.965 -1.40145 -0.330957 0
M  V30 7925 H 748.918 -2.82552 -3.12638 0
M  V30 7926 H 747.642 -1.61683 -2.83771 0
M  V30 7927 H 746.301 -3.32008 -1.55454 0
M  V30 7928 H 745.949 -3.03163 -4.01374 0
M  V30 7929 H 745.649 -4.71345 -3.50867 0
M  V30 7930 H 747.173 -4.29376 -4.3413 0
M  V30 7931 H 748.587 -5.25807 -2.28472 0
M  V30 7932 H 746.984 -5.76245 -1.67515 0
M  V30 7933 H 748.054 -4.80751 -0.632944 0
M  V30 7934 N 749.397 0.351382 -1.53633 0
M  V30 7935 C 750.307 1.45471 -1.84052 0
M  V30 7936 C 751.323 1.57945 -0.730015 0
M  V30 7937 O 752.499 1.73571 -1.02153 0
M  V30 7938 C 749.564 2.80562 -2.03681 0
M  V30 7939 C 748.625 2.77497 -3.27558 0
M  V30 7940 C 747.858 4.06144 -3.46241 0
M  V30 7941 O 748.081 5.03028 -2.68922 0
M  V30 7942 O 747.015 4.11092 -4.39645 0
M  V30 7943 H 750.841 1.22684 -2.77817 0
M  V30 7944 H 748.426 0.542827 -1.3919 0
M  V30 7945 H 750.308 3.6058 -2.18082 0
M  V30 7946 H 748.983 3.03296 -1.13106 0
M  V30 7947 H 747.89 1.96126 -3.18568 0
M  V30 7948 H 749.223 2.59716 -4.18101 0
M  V30 7949 N 750.875 1.45233 0.611969 0
M  V30 7950 C 752.121 1.49242 1.37312 0
M  V30 7951 C 752.454 0.131963 1.93751 0
M  V30 7952 O 751.729 -0.852999 1.74798 0
M  V30 7953 C 752.012 2.56811 2.52428 0
M  V30 7954 C 751.865 4.02284 2.01215 0
M  V30 7955 C 753.184 2.60705 3.54572 0
M  V30 7956 H 750.303 0.54336 0.497925 0
M  V30 7957 H 752.945 1.77019 0.690242 0
M  V30 7958 H 751.095 2.33256 3.10683 0
M  V30 7959 H 752.767 4.37035 1.47643 0
M  V30 7960 H 751.01 4.1315 1.32248 0
M  V30 7961 H 751.681 4.7323 2.84178 0
M  V30 7962 H 754.157 2.81799 3.06151 0
M  V30 7963 H 753.033 3.37841 4.32614 0
M  V30 7964 H 753.294 1.65627 4.09903 0
M  V30 7965 N 752.353 -0.854086 1.3245 0
M  V30 7966 C 753.581 -1.64074 1.26045 0
M  V30 7967 C 753.996 -1.8802 -0.171456 0
M  V30 7968 O 753.353 -1.4496 -1.10873 0
M  V30 7969 C 753.404 -2.9997 2.01743 0
M  V30 7970 O 753.125 -2.77084 3.39346 0
M  V30 7971 C 754.626 -3.94414 2.02368 0
M  V30 7972 H 751.846 -0.511015 0.434862 0
M  V30 7973 H 754.39 -1.06494 1.74583 0
M  V30 7974 H 752.545 -3.54193 1.56926 0
M  V30 7975 H 752.959 -3.63514 3.78098 0
M  V30 7976 H 754.433 -4.87032 2.59815 0
M  V30 7977 H 754.91 -4.27427 1.01009 0
M  V30 7978 H 755.516 -3.46127 2.47135 0
M  V30 7979 N 753.831 -1.1567 -1.07043 0
M  V30 7980 C 755.079 -0.931673 -1.79344 0
M  V30 7981 C 755.4 0.542421 -1.87304 0
M  V30 7982 O 754.67 1.39418 -1.37621 0
M  V30 7983 H 753.25 -0.34171 -0.664262 0
M  V30 7984 H 755.912 -1.45795 -1.29344 0
M  V30 7985 H 755.008 -1.34379 -2.81689 0
M  V30 7986 N 755.309 1.25446 -0.953992 0
M  V30 7987 C 756.239 2.28264 -0.491717 0
M  V30 7988 C 757.22 1.63717 0.461617 0
M  V30 7989 O 758.405 1.90821 0.36071 0
M  V30 7990 C 755.535 3.46525 0.231915 0
M  V30 7991 C 754.489 4.23247 -0.636098 0
M  V30 7992 C 753.815 5.34254 0.218238 0
M  V30 7993 C 755.115 4.85971 -1.91389 0
M  V30 7994 H 756.809 2.67183 -1.35106 0
M  V30 7995 H 754.355 1.2844 -0.651095 0
M  V30 7996 H 756.308 4.17576 0.566439 0
M  V30 7997 H 755.032 3.06594 1.12551 0
M  V30 7998 H 753.691 3.53978 -0.953696 0
M  V30 7999 H 753.339 4.90564 1.11156 0
M  V30 8000 H 753.039 5.86501 -0.359232 0
M  V30 8001 H 754.563 6.08138 0.547743 0
M  V30 8002 H 755.977 5.49168 -1.64581 0
M  V30 8003 H 754.374 5.48391 -2.43696 0
M  V30 8004 H 755.444 4.08192 -2.61738 0
M  V30 8005 N 756.787 0.722489 1.40064 0
M  V30 8006 C 757.719 0.0349057 2.29173 0
M  V30 8007 C 758.732 -0.716571 1.46182 0
M  V30 8008 O 759.921 -0.562806 1.69395 0
M  V30 8009 C 757.021 -0.974839 3.24577 0
M  V30 8010 C 756.194 -0.287471 4.36454 0
M  V30 8011 C 755.253 -1.20356 5.12251 0
M  V30 8012 O 754.279 -0.685753 5.65054 0
M  V30 8013 N 755.481 -2.53422 5.22262 0
M  V30 8014 H 758.246 0.800058 2.88824 0
M  V30 8015 H 755.807 0.57068 1.51509 0
M  V30 8016 H 757.799 -1.59002 3.72157 0
M  V30 8017 H 756.369 -1.6413 2.66046 0
M  V30 8018 H 755.589 0.508008 3.90913 0
M  V30 8019 H 756.877 0.189382 5.08447 0
M  V30 8020 H 756.275 -2.97981 4.80857 0
M  V30 8021 H 754.832 -3.10067 5.73325 0
M  V30 8022 N 758.265 -1.50454 0.469181 0
M  V30 8023 C 759.213 -2.30101 -0.340033 0
M  V30 8024 C 760.207 -1.37306 -0.992135 0
M  V30 8025 O 761.413 -1.54506 -0.923458 0
M  V30 8026 H 757.788 -0.740941 -0.128495 0
M  V30 8027 H 759.759 -2.96315 0.352144 0
M  V30 8028 C 758.508 -3.17804 -1.41052 0
M  V30 8029 H 757.831 -3.89115 -0.918124 0
M  V30 8030 H 759.271 -3.76533 -1.94934 0
M  V30 8031 C 757.73 -2.35272 -2.4114 0
M  V30 8032 O 758.26 -2.03448 -3.4637 0
M  V30 8033 N 756.466 -1.97889 -2.1281 0
M  V30 8034 H 756.013 -2.2397 -1.27261 0
M  V30 8035 H 755.971 -1.42971 -2.80012 0
M  V30 8036 N 759.743 -0.201713 -1.56304 0
M  V30 8037 C 761.159 0.154025 -1.58855 0
M  V30 8038 C 761.359 1.60516 -1.21807 0
M  V30 8039 O 760.415 2.34193 -0.94393 0
M  V30 8040 C 761.728 -0.154319 -3.00304 0
M  V30 8041 C 763.276 -0.0949578 -3.12856 0
M  V30 8042 C 763.751 -0.376703 -4.56448 0
M  V30 8043 N 765.242 -0.325558 -4.62054 0
M  V30 8044 C 765.977 -0.51732 -5.71062 0
M  V30 8045 N 765.473 -0.769789 -6.8851 0
M  V30 8046 N 767.266 -0.45112 -5.60287 0
M  V30 8047 H 759.417 -1.14858 -1.78666 0
M  V30 8048 H 761.68 -0.458934 -0.829508 0
M  V30 8049 H 761.386 -1.16074 -3.31994 0
M  V30 8050 H 761.26 0.540014 -3.73314 0
M  V30 8051 H 763.647 0.902075 -2.80974 0
M  V30 8052 H 763.728 -0.822468 -2.42217 0
M  V30 8053 H 763.372 -1.37108 -4.89044 0
M  V30 8054 H 763.302 0.371772 -5.25286 0
M  V30 8055 H 765.793 -0.137308 -3.7765 0
M  V30 8056 H 766.106 -0.904744 -7.67486 0
M  V30 8057 H 764.451 -0.806758 -6.90302 0
M  V30 8058 H 767.642 -0.254253 -4.67409 0
M  V30 8059 H 767.815 -0.603982 -6.45179 0
M  V30 8060 N 761.222 1.57436 0.0718424 0
M  V30 8061 C 762.17 2.04725 1.10411 0
M  V30 8062 C 763.164 0.952579 1.4008 0
M  V30 8063 O 764.37 1.13769 1.39487 0
M  V30 8064 H 760.745 0.652749 0.373393 0
M  V30 8065 H 762.716 2.90569 0.679126 0
M  V30 8066 C 761.465 2.5068 2.40946 0
M  V30 8067 H 760.788 3.34505 2.18967 0
M  V30 8068 H 762.228 2.87521 3.11621 0
M  V30 8069 C 760.687 1.38971 3.06902 0
M  V30 8070 O 761.217 0.731786 3.94978 0
M  V30 8071 N 759.423 1.13485 2.67525 0
M  V30 8072 H 758.97 1.67168 1.95991 0
M  V30 8073 H 758.928 0.389467 3.11978 0
M  V30 8074 N 762.7 -0.34323 1.53817 0
M  V30 8075 C 763.93 -1.10188 1.74763 0
M  V30 8076 C 764.338 -1.82829 0.486856 0
M  V30 8077 O 763.681 -1.75236 -0.551198 0
M  V30 8078 C 763.743 -2.16 2.87375 0
M  V30 8079 C 763.407 -1.62931 4.26969 0
M  V30 8080 C 764.404 -1.08147 5.08528 0
M  V30 8081 C 762.089 -1.67769 4.73454 0
M  V30 8082 C 764.083 -0.589039 6.34672 0
M  V30 8083 C 761.77 -1.18138 5.99572 0
M  V30 8084 C 762.768 -0.637979 6.80014 0
M  V30 8085 O 762.456 -0.149073 8.03762 0
M  V30 8086 H 762.188 -0.33445 0.587469 0
M  V30 8087 H 764.742 -0.401109 2.01445 0
M  V30 8088 H 762.972 -2.89637 2.56218 0
M  V30 8089 H 764.661 -2.77432 2.96287 0
M  V30 8090 H 765.427 -1.03732 4.73777 0
M  V30 8091 H 761.306 -2.09004 4.10899 0
M  V30 8092 H 764.85 -0.164233 6.97407 0
M  V30 8093 H 760.747 -1.22254 6.33817 0
M  V30 8094 H 761.515 -0.266332 8.18067 0
M  V30 8095 N 764.178 -1.45556 -0.604258 0
M  V30 8096 C 765.403 -1.53509 -1.39462 0
M  V30 8097 C 765.828 -0.169638 -1.87333 0
M  V30 8098 O 765.186 0.846346 -1.60333 0
M  V30 8099 C 765.234 -2.52654 -2.5729 0
M  V30 8100 O 764.338 -2.04666 -3.5803 0
M  V30 8101 H 763.679 -0.517355 -0.416221 0
M  V30 8102 H 766.209 -1.90939 -0.735072 0
M  V30 8103 H 766.219 -2.71568 -3.04491 0
M  V30 8104 H 764.894 -3.51823 -2.21797 0
M  V30 8105 H 763.471 -1.95643 -3.17456 0
M  V30 8106 N 765.656 0.84705 -1.32902 0
M  V30 8107 C 766.619 1.9378 -1.224 0
M  V30 8108 C 767.619 1.60144 -0.145108 0
M  V30 8109 O 768.809 1.69638 -0.396058 0
M  V30 8110 C 765.941 3.29234 -0.884174 0
M  V30 8111 H 767.134 2.04518 -2.19345 0
M  V30 8112 H 764.687 1.03816 -1.16842 0
M  V30 8113 H 765.422 3.24193 0.0831277 0
M  V30 8114 H 765.207 3.55026 -1.6643 0
M  V30 8115 H 766.697 4.09162 -0.835226 0
M  V30 8116 N 767.134 1.16236 1.06428 0
M  V30 8117 C 768.084 0.835994 2.12121 0
M  V30 8118 C 769.068 -0.183955 1.59845 0
M  V30 8119 O 770.26 0.0166741 1.76992 0
M  V30 8120 C 767.389 0.337333 3.41639 0
M  V30 8121 C 766.475 1.38798 4.00744 0
M  V30 8122 N 766.866 2.59799 4.3398 0
M  V30 8123 C 765.164 1.24292 4.28331 0
M  V30 8124 C 765.865 3.27213 4.80943 0
M  V30 8125 N 764.841 2.54594 4.80294 0
M  V30 8126 H 768.643 1.75615 2.35662 0
M  V30 8127 H 766.157 1.04921 1.23957 0
M  V30 8128 H 768.154 0.0851274 4.16813 0
M  V30 8129 H 766.814 -0.57677 3.19536 0
M  V30 8130 H 767.825 2.96867 4.24371 0
M  V30 8131 H 764.502 0.389464 4.15679 0
M  V30 8132 H 765.892 4.30492 5.15874 0
M  V30 8133 N 768.612 -1.24939 0.960631 0
M  V30 8134 C 769.542 -2.28 0.503815 0
M  V30 8135 C 770.523 -1.63959 -0.452928 0
M  V30 8136 O 771.708 -1.91009 -0.350585 0
M  V30 8137 C 768.838 -3.46643 -0.213535 0
M  V30 8138 C 767.792 -4.22903 0.658535 0
M  V30 8139 C 767.118 -5.34363 -0.189902 0
M  V30 8140 C 768.418 -4.84949 1.93963 0
M  V30 8141 H 770.112 -2.66462 1.36521 0
M  V30 8142 H 767.658 -1.28093 0.657897 0
M  V30 8143 H 769.611 -4.1787 -0.544286 0
M  V30 8144 H 768.335 -3.07187 -1.10923 0
M  V30 8145 H 766.994 -3.53467 0.972455 0
M  V30 8146 H 766.642 -4.91147 -1.08553 0
M  V30 8147 H 766.342 -5.86302 0.390331 0
M  V30 8148 H 767.866 -6.0842 -0.515484 0
M  V30 8149 H 769.28 -5.48288 1.67491 0
M  V30 8150 H 767.677 -5.47091 2.46601 0
M  V30 8151 H 768.747 -4.06799 2.639 0
M  V30 8152 N 770.09 -0.729906 -1.39679 0
M  V30 8153 C 771.338 -0.275077 -2.00219 0
M  V30 8154 C 771.659 1.1401 -1.58199 0
M  V30 8155 O 770.929 1.77546 -0.827904 0
M  V30 8156 H 769.509 -0.0987127 -0.740449 0
M  V30 8157 H 772.171 -0.93873 -1.70804 0
M  V30 8158 H 771.267 -0.319446 -3.10461 0
M  V30 8159 N 771.568 1.50203 -0.477153 0
M  V30 8160 C 772.478 2.32421 0.319027 0
M  V30 8161 C 773.494 1.43075 0.990233 0
M  V30 8162 O 774.67 1.76123 0.976873 0
M  V30 8163 C 771.735 3.17909 1.38328 0
M  V30 8164 C 770.796 4.23082 0.728036 0
M  V30 8165 C 770.029 5.04484 1.74158 0
M  V30 8166 O 770.252 4.8705 2.96881 0
M  V30 8167 O 769.186 5.8747 1.31006 0
M  V30 8168 H 773.012 3.01638 -0.353281 0
M  V30 8169 H 770.597 1.47478 -0.238891 0
M  V30 8170 H 772.479 3.70937 1.9996 0
M  V30 8171 H 771.154 2.51413 2.03895 0
M  V30 8172 H 770.061 3.7403 0.07261 0
M  V30 8173 H 771.394 4.92065 0.115216 0
M  V30 8174 N 773.046 0.209999 1.56195 0
M  V30 8175 C 774.286 -0.4268 1.99894 0
M  V30 8176 C 774.65 -1.57763 1.0943 0
M  V30 8177 O 775.851 -2.27964 1.42428 0
M  V30 8178 C 774.122 -0.861188 3.46869 0
M  V30 8179 S 775.681 -1.49372 4.12593 0
M  V30 8180 H 772.499 -0.135922 0.697887 0
M  V30 8181 H 775.101 0.316573 1.9292 0
M  V30 8182 H 773.805 -0.0137653 4.10398 0
M  V30 8183 H 773.336 -1.63766 3.57693 0
M  V30 8184 H 775.351 -2.7827 4.10829 0
M  V30 8185 N 774.524 -1.57472 -0.0634922 0
M  V30 8186 C 775.935 -1.76303 -0.614337 0
M  V30 8187 C 776.286 -0.836578 -1.77471 0
M  V30 8188 O 775.411 -0.0227184 -2.16388 0
M  V30 8189 C 776.006 -3.19709 -1.12122 0
M  V30 8190 C 774.565 -3.39856 -1.61786 0
M  V30 8191 C 773.712 -2.71975 -0.540845 0
M  V30 8192 H 776.663 -1.57864 0.162702 0
M  V30 8193 H 776.684 -3.24326 -1.98979 0
M  V30 8194 H 776.196 -3.87114 -0.276472 0
M  V30 8195 H 774.297 -2.77578 -2.48558 0
M  V30 8196 H 774.41 -4.48338 -1.68908 0
M  V30 8197 H 772.774 -2.34763 -0.987854 0
M  V30 8198 H 773.557 -3.4204 0.293856 0
M  V30 8199 N 776.003 0.335068 -1.53997 0
M  V30 8200 C 777.419 0.678704 -1.4445 0
M  V30 8201 C 777.619 1.92106 -0.608078 0
M  V30 8202 O 776.675 2.52292 -0.102373 0
M  V30 8203 C 777.988 0.863435 -2.88037 0
M  V30 8204 C 779.536 0.961513 -2.97866 0
M  V30 8205 C 780.011 1.1785 -4.42578 0
M  V30 8206 N 781.502 1.2455 -4.46141 0
M  V30 8207 C 782.237 1.43106 -5.55255 0
M  V30 8208 N 781.733 1.5878 -6.74359 0
M  V30 8209 N 783.526 1.45722 -5.42883 0
M  V30 8210 H 775.677 -0.481656 -2.06867 0
M  V30 8211 H 777.94 -0.153615 -0.935471 0
M  V30 8212 H 777.646 0.0219511 -3.51693 0
M  V30 8213 H 777.52 1.76268 -3.33481 0
M  V30 8214 H 779.907 1.79351 -2.34344 0
M  V30 8215 H 779.988 0.0389862 -2.5577 0
M  V30 8216 H 779.632 0.351397 -5.06683 0
M  V30 8217 H 779.562 2.11472 -4.82273 0
M  V30 8218 H 782.053 1.13928 -3.60318 0
M  V30 8219 H 782.366 1.72599 -7.53279 0
M  V30 8220 H 780.711 1.559 -6.77289 0
M  V30 8221 H 783.902 1.33065 -4.48789 0
M  V30 8222 H 784.075 1.59841 -6.27977 0
M  V30 8223 N 777.481 1.45874 0.596531 0
M  V30 8224 C 778.758 1.40942 1.35627 0
M  V30 8225 C 779.138 0.0857066 2.10926 0
M  V30 8226 O 778.486 -0.932544 2.08605 0
M  V30 8227 C 778.696 2.63027 2.29386 0
M  V30 8228 C 780.044 3.08588 2.91649 0
M  V30 8229 O 781.068 2.63478 2.39704 0
M  V30 8230 O 779.927 3.86902 3.85965 0
M  V30 8231 H 777.021 0.559838 0.608696 0
M  V30 8232 H 779.567 1.5802 0.618698 0
M  V30 8233 H 778.339 3.5094 1.7308 0
M  V30 8234 H 777.962 2.48338 3.10506 0
M  V30 8235 N 778.959 -0.83999 1.33349 0
M  V30 8236 C 780.236 -1.57973 1.15342 0
M  V30 8237 C 780.616 -2.09226 -0.280632 0
M  V30 8238 O 779.964 -1.89317 -1.2795 0
M  V30 8239 C 780.174 -2.71446 2.19359 0
M  V30 8240 C 781.522 -3.40654 2.53456 0
M  V30 8241 O 782.546 -2.81686 2.18017 0
M  V30 8242 O 781.405 -4.47101 3.14266 0
M  V30 8243 H 778.499 -0.6964 0.446044 0
M  V30 8244 H 781.045 -0.882843 1.44927 0
M  V30 8245 H 779.817 -2.31205 3.1569 0
M  V30 8246 H 779.44 -3.488 1.90852 0
M  V30 8247 N 780.437 -1.16799 -1.0581 0
M  V30 8248 C 781.4 -0.881396 -2.11575 0
M  V30 8249 C 782.4 0.12574 -1.60308 0
M  V30 8250 O 783.59 -0.105716 -1.73879 0
M  V30 8251 C 780.722 -0.319037 -3.39404 0
M  V30 8252 H 781.915 -1.81907 -2.38432 0
M  V30 8253 H 779.468 -0.977597 -1.21954 0
M  V30 8254 H 780.203 0.626082 -3.18199 0
M  V30 8255 H 779.988 -1.04481 -3.77923 0
M  V30 8256 H 781.478 -0.13663 -4.17376 0
M  V30 8257 N 781.915 1.24427 -0.967243 0
M  V30 8258 C 783.155 1.9423 -0.636723 0
M  V30 8259 C 783.519 1.73939 0.812971 0
M  V30 8260 O 784.72 2.37773 1.25369 0
M  V30 8261 C 782.991 3.43105 -1.00067 0
M  V30 8262 S 784.55 4.31728 -0.784633 0
M  V30 8263 H 781.368 0.671527 -0.233607 0
M  V30 8264 H 783.97 1.50806 -1.2441 0
M  V30 8265 H 782.674 3.5538 -2.05264 0
M  V30 8266 H 782.205 3.91521 -0.384054 0
M  V30 8267 H 784.22 4.95046 0.338244 0
M  V30 8268 N 783.393 0.737304 1.3929 0
M  V30 8269 C 784.621 0.296573 2.04763 0
M  V30 8270 C 785.036 -1.06941 1.55592 0
M  V30 8271 O 784.393 -1.67619 0.721822 0
M  V30 8272 C 784.444 0.291906 3.6032 0
M  V30 8273 O 784.165 1.60397 4.07682 0
M  V30 8274 C 785.666 -0.164708 4.42994 0
M  V30 8275 H 782.886 0.129251 0.658434 0
M  V30 8276 H 785.43 1.0016 1.78293 0
M  V30 8277 H 783.585 -0.364251 3.85684 0
M  V30 8278 H 783.999 1.51909 5.0202 0
M  V30 8279 H 785.473 -0.116814 5.51876 0
M  V30 8280 H 785.95 -1.21022 4.22197 0
M  V30 8281 H 786.556 0.461968 4.22784 0
M  V30 8282 N 784.871 -1.49948 0.485112 0
M  V30 8283 C 786.287 -1.58984 0.140096 0
M  V30 8284 C 786.487 -1.49194 -1.35438 0
M  V30 8285 O 785.543 -1.35765 -2.12894 0
M  V30 8286 C 786.856 -2.92372 0.702769 0
M  V30 8287 C 788.404 -3.05801 0.66745 0
M  V30 8288 C 788.879 -4.41785 1.20791 0
M  V30 8289 N 790.37 -4.48234 1.16792 0
M  V30 8290 C 791.105 -5.51871 1.55646 0
M  V30 8291 N 790.601 -6.62692 2.02016 0
M  V30 8292 N 792.394 -5.42494 1.47161 0
M  V30 8293 H 784.545 -1.54555 1.45693 0
M  V30 8294 H 786.808 -0.731206 0.603359 0
M  V30 8295 H 786.514 -3.05056 1.75025 0
M  V30 8296 H 786.388 -3.76885 0.154205 0
M  V30 8297 H 788.775 -2.92757 -0.371157 0
M  V30 8298 H 788.856 -2.23011 1.25298 0
M  V30 8299 H 788.5 -4.55579 2.24522 0
M  V30 8300 H 788.43 -5.23188 0.598464 0
M  V30 8301 H 790.921 -3.68718 0.827982 0
M  V30 8302 H 791.234 -7.3785 2.29775 0
M  V30 8303 H 789.579 -6.63775 2.05979 0
M  V30 8304 H 792.77 -4.54806 1.10765 0
M  V30 8305 H 792.943 -6.2314 1.77766 0
M  V30 8306 N 786.349 -0.21828 -1.56081 0
M  V30 8307 C 787.296 0.693189 -2.20144 0
M  V30 8308 C 788.266 1.19274 -1.15598 0
M  V30 8309 O 789.451 1.25243 -1.4394 0
M  V30 8310 C 786.591 1.89715 -2.88275 0
M  V30 8311 C 785.704 1.4368 -4.07407 0
M  V30 8312 C 784.839 2.59807 -4.63329 0
M  V30 8313 C 783.878 2.10492 -5.74769 0
M  V30 8314 N 783.015 3.1988 -6.24997 0
M  V30 8315 H 787.855 0.14016 -2.9767 0
M  V30 8316 H 785.392 0.0574292 -1.46988 0
M  V30 8317 H 787.35 2.60398 -3.25958 0
M  V30 8318 H 785.98 2.42311 -2.13273 0
M  V30 8319 H 785.032 0.625007 -3.7523 0
M  V30 8320 H 786.344 1.03517 -4.8794 0
M  V30 8321 H 785.498 3.38577 -5.03438 0
M  V30 8322 H 784.237 3.03256 -3.81951 0
M  V30 8323 H 783.242 1.30182 -5.34165 0
M  V30 8324 H 784.467 1.68045 -6.5798 0
M  V30 8325 H 782.413 3.62817 -5.46534 0
M  V30 8326 H 782.33 2.83958 -7.00645 0
M  V30 8327 H 783.598 3.98796 -6.69763 0
M  V30 8328 N 787.827 1.57504 0.0551401 0
M  V30 8329 C 789.074 1.88055 0.751104 0
M  V30 8330 C 789.402 0.812231 1.76729 0
M  V30 8331 O 788.657 -0.189918 1.94776 0
M  V30 8332 C 788.956 3.25311 1.48013 0
M  V30 8333 C 788.622 4.46858 0.602375 0
M  V30 8334 C 787.284 4.79847 0.360536 0
M  V30 8335 C 789.636 5.212 -0.00524047 0
M  V30 8336 C 786.964 5.84582 -0.498127 0
M  V30 8337 C 789.316 6.26844 -0.851453 0
M  V30 8338 C 787.98 6.58324 -1.103 0
M  V30 8339 H 787.25 0.688142 0.274848 0
M  V30 8340 H 789.897 1.91497 0.0114795 0
M  V30 8341 H 788.202 3.17737 2.29239 0
M  V30 8342 H 789.899 3.46189 2.02371 0
M  V30 8343 H 786.489 4.21049 0.801007 0
M  V30 8344 H 790.673 4.96013 0.168682 0
M  V30 8345 H 785.929 6.07361 -0.701594 0
M  V30 8346 H 790.103 6.83603 -1.32893 0
M  V30 8347 H 787.73 7.39304 -1.77011 0
M  V30 8348 N 789.305 -0.326896 1.54172 0
M  V30 8349 C 790.535 -1.08328 1.75922 0
M  V30 8350 C 790.943 -1.82302 0.50622 0
M  V30 8351 O 790.286 -1.7581 -0.532581 0
M  V30 8352 C 790.348 -2.1294 2.8965 0
M  V30 8353 C 790.012 -1.58394 4.28673 0
M  V30 8354 C 791.009 -1.02747 5.09646 0
M  V30 8355 C 788.694 -1.62737 4.75207 0
M  V30 8356 C 790.688 -0.52169 6.35261 0
M  V30 8357 C 788.375 -1.11772 6.00791 0
M  V30 8358 C 789.373 -0.565819 6.80652 0
M  V30 8359 O 789.061 -0.0638146 8.03875 0
M  V30 8360 H 788.793 -0.3282 0.590983 0
M  V30 8361 H 791.347 -0.37972 2.0186 0
M  V30 8362 H 789.577 -2.86903 2.59275 0
M  V30 8363 H 791.266 -2.74274 2.99213 0
M  V30 8364 H 792.032 -0.987007 4.74851 0
M  V30 8365 H 787.911 -2.04635 4.13093 0
M  V30 8366 H 791.455 -0.0902544 6.97542 0
M  V30 8367 H 787.352 -1.15524 6.35078 0
M  V30 8368 H 788.12 -0.17955 8.18303 0
M  V30 8369 N 790.784 -1.46188 -0.588786 0
M  V30 8370 C 792.031 -1.51184 -1.34721 0
M  V30 8371 C 792.359 -0.161084 -1.93832 0
M  V30 8372 O 791.614 0.842557 -1.76634 0
M  V30 8373 C 791.913 -2.55364 -2.50048 0
M  V30 8374 C 791.579 -3.99553 -2.08969 0
M  V30 8375 C 790.241 -4.38811 -1.9748 0
M  V30 8376 C 792.593 -4.90156 -1.77191 0
M  V30 8377 C 789.921 -5.66544 -1.52463 0
M  V30 8378 C 792.273 -6.1832 -1.33654 0
M  V30 8379 C 790.937 -6.5649 -1.20738 0
M  V30 8380 H 790.207 -0.55322 -0.49298 0
M  V30 8381 H 792.854 -1.79634 -0.663627 0
M  V30 8382 H 791.159 -2.20552 -3.23827 0
M  V30 8383 H 792.856 -2.5646 -3.08268 0
M  V30 8384 H 789.446 -3.68518 -2.18843 0
M  V30 8385 H 793.63 -4.60549 -1.84955 0
M  V30 8386 H 788.886 -5.94895 -1.411 0
M  V30 8387 H 793.06 -6.87956 -1.08117 0
M  V30 8388 H 790.687 -7.55362 -0.856307 0
M  V30 8389 N 792.262 0.832906 -1.33792 0
M  V30 8390 C 793.509 1.58853 -1.25586 0
M  V30 8391 C 793.837 1.93695 0.176807 0
M  V30 8392 O 793.092 1.59386 1.13554 0
M  V30 8393 C 793.391 2.9047 -2.08235 0
M  V30 8394 C 793.057 2.74965 -3.57358 0
M  V30 8395 C 791.719 2.70444 -3.98012 0
M  V30 8396 C 794.071 2.59347 -4.52093 0
M  V30 8397 C 791.399 2.48212 -5.31608 0
M  V30 8398 C 793.751 2.38649 -5.85858 0
M  V30 8399 C 792.415 2.32533 -6.25687 0
M  V30 8400 H 791.685 0.581285 -0.459553 0
M  V30 8401 H 794.332 0.964501 -1.65438 0
M  V30 8402 H 792.637 3.57111 -1.6118 0
M  V30 8403 H 794.334 3.48001 -1.99239 0
M  V30 8404 H 790.924 2.79319 -3.25083 0
M  V30 8405 H 795.108 2.6187 -4.2159 0
M  V30 8406 H 790.364 2.41929 -5.61498 0
M  V30 8407 H 794.538 2.25549 -6.58863 0
M  V30 8408 H 792.165 2.15067 -7.29143 0
M  V30 8409 N 793.74 1.17359 1.05189 0
M  V30 8410 C 794.986 0.963413 1.78455 0
M  V30 8411 C 795.319 -0.506703 1.87473 0
M  V30 8412 O 794.594 -1.37611 1.37453 0
M  V30 8413 C 794.877 1.60519 3.22344 0
M  V30 8414 C 794.73 3.14741 3.21338 0
M  V30 8415 C 796.049 1.3091 4.20179 0
M  V30 8416 H 793.168 0.351412 0.647826 0
M  V30 8417 H 795.81 1.44858 1.22948 0
M  V30 8418 H 793.96 1.19265 3.69741 0
M  V30 8419 H 795.632 3.65053 2.82017 0
M  V30 8420 H 793.875 3.4749 2.59679 0
M  V30 8421 H 794.546 3.54775 4.22894 0
M  V30 8422 H 797.022 1.66635 3.81277 0
M  V30 8423 H 795.898 1.784 5.191 0
M  V30 8424 H 796.159 0.229908 4.41502 0
M  V30 8425 N 795.218 -1.23913 0.973828 0
M  V30 8426 C 796.181 -2.23367 0.51378 0
M  V30 8427 C 797.181 -1.55923 -0.39302 0
M  V30 8428 O 798.371 -1.73187 -0.187626 0
M  V30 8429 C 795.503 -3.39944 -0.255152 0
M  V30 8430 H 796.696 -2.65581 1.39307 0
M  V30 8431 H 794.249 -1.36632 0.759039 0
M  V30 8432 H 794.984 -3.03177 -1.15127 0
M  V30 8433 H 794.769 -3.90098 0.395673 0
M  V30 8434 H 796.259 -4.13749 -0.565842 0
M  V30 8435 N 796.696 -0.74468 -1.38897 0
M  V30 8436 C 797.945 -0.293716 -1.9955 0
M  V30 8437 C 798.258 1.12831 -1.59777 0
M  V30 8438 O 799.464 1.67929 -2.13336 0
M  V30 8439 C 797.92 -0.474188 -3.56762 0
M  V30 8440 C 797.528 -1.90472 -4.05493 0
M  V30 8441 C 799.272 -0.0854875 -4.24414 0
M  V30 8442 C 797.179 -2.03423 -5.55314 0
M  V30 8443 H 796.109 -0.106066 -0.746502 0
M  V30 8444 H 798.76 -0.919948 -1.58774 0
M  V30 8445 H 797.142 0.221092 -3.95382 0
M  V30 8446 H 798.316 -2.63274 -3.78184 0
M  V30 8447 H 796.631 -2.24752 -3.50536 0
M  V30 8448 H 799.228 -0.161133 -5.34457 0
M  V30 8449 H 799.571 0.96066 -4.05064 0
M  V30 8450 H 800.104 -0.732286 -3.91002 0
M  V30 8451 H 796.843 -3.0626 -5.79556 0
M  V30 8452 H 796.363 -1.3507 -5.84394 0
M  V30 8453 H 798.042 -1.81996 -6.20876 0
M  V30 8454 N 798.174 1.49689 -0.493057 0
M  V30 8455 C 799.106 2.26867 0.326195 0
M  V30 8456 C 800.119 1.33083 0.937697 0
M  V30 8457 O 801.308 1.58427 0.822382 0
M  V30 8458 C 798.408 3.0519 1.4735 0
M  V30 8459 C 797.581 4.26491 0.970767 0
M  V30 8460 C 796.64 4.86926 1.99473 0
M  V30 8461 O 795.666 5.47221 1.56647 0
M  V30 8462 N 796.868 4.75871 3.32456 0
M  V30 8463 H 799.633 2.97816 -0.335547 0
M  V30 8464 H 797.194 1.58602 -0.325129 0
M  V30 8465 H 799.186 3.42496 2.15589 0
M  V30 8466 H 797.756 2.369 2.03954 0
M  V30 8467 H 796.976 3.94036 0.113529 0
M  V30 8468 H 798.264 5.05092 0.613156 0
M  V30 8469 H 797.662 4.2797 3.69944 0
M  V30 8470 H 796.219 5.17383 3.96431 0
M  V30 8471 N 799.652 0.226554 1.55963 0
M  V30 8472 C 800.898 -0.404387 1.98727 0
M  V30 8473 C 801.231 -1.59059 1.11418 0
M  V30 8474 O 800.506 -1.93729 0.172971 0
M  V30 8475 C 800.789 -0.834081 3.50307 0
M  V30 8476 C 800.642 0.356104 4.48388 0
M  V30 8477 C 801.961 -1.68845 4.06423 0
M  V30 8478 H 799.08 -0.145515 0.722492 0
M  V30 8479 H 801.722 0.323791 1.87221 0
M  V30 8480 H 799.872 -1.45454 3.60244 0
M  V30 8481 H 801.544 0.99432 4.50456 0
M  V30 8482 H 799.787 1.0027 4.22053 0
M  V30 8483 H 800.458 0.0124333 5.51999 0
M  V30 8484 H 802.934 -1.16489 3.99461 0
M  V30 8485 H 801.81 -1.958 5.1279 0
M  V30 8486 H 802.071 -2.65347 3.53615 0
M  V30 8487 N 801.13 -1.57531 -0.0467866 0
M  V30 8488 C 802.06 -2.08425 -1.05268 0
M  V30 8489 C 803.041 -0.982941 -1.38825 0
M  V30 8490 O 804.226 -1.25716 -1.48018 0
M  V30 8491 C 801.356 -2.54897 -2.35891 0
M  V30 8492 C 800.31 -3.69132 -2.16623 0
M  V30 8493 C 799.636 -4.01747 -3.52851 0
M  V30 8494 C 800.936 -4.98243 -1.56689 0
M  V30 8495 H 802.63 -2.92716 -0.62908 0
M  V30 8496 H 800.176 -1.40816 -0.301156 0
M  V30 8497 H 802.129 -2.8912 -3.06574 0
M  V30 8498 H 800.853 -1.67666 -2.80278 0
M  V30 8499 H 799.512 -3.35231 -1.48377 0
M  V30 8500 H 799.16 -3.11608 -3.94853 0
M  V30 8501 H 798.86 -4.78681 -3.4079 0
M  V30 8502 H 800.384 -4.38487 -4.24925 0
M  V30 8503 H 801.798 -5.30535 -2.17268 0
M  V30 8504 H 800.195 -5.79669 -1.55255 0
M  V30 8505 H 801.265 -4.81986 -0.530827 0
M  V30 8506 N 802.608 0.318715 -1.54344 0
M  V30 8507 C 803.556 1.41254 -1.84798 0
M  V30 8508 C 804.55 1.53325 -0.720256 0
M  V30 8509 O 805.756 1.55653 -0.903992 0
M  V30 8510 H 802.131 0.471468 -0.585851 0
M  V30 8511 H 804.102 1.12795 -2.7626 0
M  V30 8512 C 802.851 2.77395 -2.09637 0
M  V30 8513 H 802.174 2.68881 -2.95876 0
M  V30 8514 H 803.614 3.52987 -2.34896 0
M  V30 8515 C 802.073 3.24948 -0.889398 0
M  V30 8516 O 802.603 4.01573 -0.101063 0
M  V30 8517 N 800.809 2.82051 -0.699684 0
M  V30 8518 H 800.356 2.19858 -1.3424 0
M  V30 8519 H 800.314 3.1422 0.106368 0
M  V30 8520 N 804.086 1.46499 0.581025 0
M  V30 8521 C 805.016 1.60052 1.70017 0
M  V30 8522 C 805.997 0.450788 1.64018 0
M  V30 8523 O 807.182 0.677237 1.82009 0
M  V30 8524 C 804.312 1.5921 3.08658 0
M  V30 8525 C 803.266 2.73169 3.29488 0
M  V30 8526 C 802.592 2.57389 4.68674 0
M  V30 8527 C 803.892 4.14978 3.1716 0
M  V30 8528 H 805.586 2.53735 1.5893 0
M  V30 8529 H 803.132 1.22113 0.763173 0
M  V30 8530 H 805.085 1.67285 3.86773 0
M  V30 8531 H 803.809 0.620718 3.20647 0
M  V30 8532 H 802.468 2.64566 2.53773 0
M  V30 8533 H 802.116 1.58331 4.77431 0
M  V30 8534 H 801.816 3.33826 4.83564 0
M  V30 8535 H 803.34 2.67358 5.48956 0
M  V30 8536 H 804.754 4.24684 3.85119 0
M  V30 8537 H 803.151 4.92016 3.4357 0
M  V30 8538 H 804.221 4.35016 2.14218 0
M  V30 8539 N 805.565 -0.825799 1.34232 0
M  V30 8540 C 806.812 -1.58185 1.26427 0
M  V30 8541 C 807.14 -1.93786 -0.166533 0
M  V30 8542 O 806.395 -1.59986 -1.12707 0
M  V30 8543 C 806.694 -2.89362 2.09772 0
M  V30 8544 C 806.36 -2.73066 3.58812 0
M  V30 8545 C 805.022 -2.68329 3.99441 0
M  V30 8546 C 807.374 -2.56946 4.53462 0
M  V30 8547 C 804.702 -2.4539 5.32917 0
M  V30 8548 C 807.054 -2.35538 5.87115 0
M  V30 8549 C 805.718 -2.29212 6.26912 0
M  V30 8550 H 804.988 -0.57884 0.462629 0
M  V30 8551 H 807.635 -0.955714 1.65947 0
M  V30 8552 H 805.94 -3.56251 1.63071 0
M  V30 8553 H 807.637 -3.4694 2.01081 0
M  V30 8554 H 804.227 -2.77591 3.26559 0
M  V30 8555 H 808.411 -2.59631 4.22972 0
M  V30 8556 H 803.667 -2.38947 5.62774 0
M  V30 8557 H 807.841 -2.22051 6.6005 0
M  V30 8558 H 805.468 -2.11197 7.30274 0
M  V30 8559 N 807.043 -1.17915 -1.04565 0
M  V30 8560 C 808.29 -0.971424 -1.77678 0
M  V30 8561 C 808.618 0.499401 -1.87979 0
M  V30 8562 O 807.873 1.38695 -1.38066 0
M  V30 8563 C 808.172 -1.56528 -3.213 0
M  V30 8564 C 807.838 -3.06138 -3.31044 0
M  V30 8565 C 806.5 -3.46974 -3.33411 0
M  V30 8566 C 808.852 -4.02151 -3.31548 0
M  V30 8567 C 806.18 -4.82406 -3.33918 0
M  V30 8568 C 808.532 -5.37492 -3.33595 0
M  V30 8569 C 807.196 -5.77782 -3.34251 0
M  V30 8570 H 806.466 -0.355469 -0.650171 0
M  V30 8571 H 809.113 -1.46902 -1.22849 0
M  V30 8572 H 807.418 -0.98955 -3.79098 0
M  V30 8573 H 809.115 -1.38003 -3.76505 0
M  V30 8574 H 805.705 -2.73589 -3.29919 0
M  V30 8575 H 809.889 -3.71656 -3.28916 0
M  V30 8576 H 805.145 -5.12927 -3.3274 0
M  V30 8577 H 809.319 -6.1166 -3.32934 0
M  V30 8578 H 806.946 -6.82702 -3.34397 0
M  V30 8579 N 808.521 1.23394 -0.980386 0
M  V30 8580 C 809.746 1.96384 -0.666935 0
M  V30 8581 C 810.171 1.72087 0.759456 0
M  V30 8582 O 809.529 0.992328 1.51732 0
M  V30 8583 C 809.577 3.47499 -0.963177 0
M  V30 8584 O 808.681 4.12363 -0.0552051 0
M  V30 8585 H 808.022 0.614797 -0.250839 0
M  V30 8586 H 810.552 1.56831 -1.31398 0
M  V30 8587 H 810.562 3.97953 -0.899877 0
M  V30 8588 H 809.237 3.6451 -2.00264 0
M  V30 8589 H 807.814 3.72499 -0.172914 0
M  V30 8590 N 809.999 0.752036 1.385 0
M  V30 8591 C 810.962 0.131587 2.28822 0
M  V30 8592 C 811.962 -0.649149 1.47115 0
M  V30 8593 O 813.152 -0.475645 1.67581 0
M  V30 8594 C 810.284 -0.822101 3.30839 0
M  V30 8595 H 811.477 0.927551 2.85196 0
M  V30 8596 H 809.03 0.518945 1.47434 0
M  V30 8597 H 809.765 -1.6438 2.79553 0
M  V30 8598 H 809.55 -0.264689 3.91206 0
M  V30 8599 H 811.04 -1.25226 3.98382 0
M  V30 8600 N 811.477 -1.49425 0.500989 0
M  V30 8601 C 812.407 -2.31971 -0.266775 0
M  V30 8602 C 813.388 -1.40245 -0.962563 0
M  V30 8603 O 814.573 -1.69154 -0.953968 0
M  V30 8604 C 811.703 -3.20757 -1.33163 0
M  V30 8605 C 810.657 -4.21275 -0.75572 0
M  V30 8606 C 809.983 -4.98997 -1.92109 0
M  V30 8607 C 811.283 -5.21686 0.253213 0
M  V30 8608 H 812.977 -2.96408 0.422237 0
M  V30 8609 H 810.523 -1.4254 0.204505 0
M  V30 8610 H 812.476 -3.77315 -1.87646 0
M  V30 8611 H 811.2 -2.54263 -2.04983 0
M  V30 8612 H 809.859 -3.65861 -0.232637 0
M  V30 8613 H 809.507 -4.28951 -2.62698 0
M  V30 8614 H 809.207 -5.67011 -1.54182 0
M  V30 8615 H 810.731 -5.584 -2.47026 0
M  V30 8616 H 812.145 -5.72939 -0.203483 0
M  V30 8617 H 810.542 -5.9759 0.548322 0
M  V30 8618 H 811.612 -4.70596 1.16909 0
M  V30 8619 N 812.955 -0.234822 -1.55841 0
M  V30 8620 C 814.203 0.392483 -1.98252 0
M  V30 8621 C 814.524 1.59344 -1.12404 0
M  V30 8622 O 813.794 1.94834 -0.204055 0
M  V30 8623 H 812.374 0.147999 -0.732192 0
M  V30 8624 H 815.036 -0.330804 -1.92072 0
M  V30 8625 H 814.132 0.709829 -3.03921 0
M  V30 8626 N 814.433 1.57553 0.0384317 0
M  V30 8627 C 815.681 1.88468 0.729672 0
M  V30 8628 C 816.002 0.831302 1.76393 0
M  V30 8629 O 815.272 -0.13622 1.95426 0
M  V30 8630 H 813.852 0.695529 0.272485 0
M  V30 8631 H 816.514 1.94899 0.0066032 0
M  V30 8632 H 815.61 2.8705 1.22511 0
M  V30 8633 N 815.911 -0.310526 1.54511 0
M  V30 8634 C 817.139 -1.06611 1.77318 0
M  V30 8635 C 817.554 -1.81265 0.528043 0
M  V30 8636 O 816.911 -1.75466 -0.50178 0
M  V30 8637 C 816.962 -2.05409 2.97472 0
M  V30 8638 O 816.683 -1.33785 4.17173 0
M  V30 8639 C 818.184 -2.93082 3.32593 0
M  V30 8640 H 815.404 -0.316578 0.591624 0
M  V30 8641 H 817.948 -0.352691 2.01436 0
M  V30 8642 H 816.103 -2.72266 2.7559 0
M  V30 8643 H 816.517 -2.00055 4.84849 0
M  V30 8644 H 817.991 -3.58274 4.19933 0
M  V30 8645 H 818.468 -3.60877 2.50329 0
M  V30 8646 H 819.074 -2.31768 3.566 0
M  V30 8647 N 817.389 -1.46805 -0.573248 0
M  V30 8648 C 818.614 -1.56433 -1.36175 0
M  V30 8649 C 819.039 -0.209336 -1.86932 0
M  V30 8650 O 818.397 0.812146 -1.62092 0
M  V30 8651 C 818.445 -2.58055 -2.51873 0
M  V30 8652 O 817.549 -2.12214 -3.53609 0
M  V30 8653 H 816.89 -0.526068 -0.405153 0
M  V30 8654 H 819.42 -1.92456 -0.694405 0
M  V30 8655 H 819.43 -2.77966 -2.98662 0
M  V30 8656 H 818.105 -3.56448 -2.14284 0
M  V30 8657 H 816.682 -2.02333 -3.13234 0
M  V30 8658 N 818.867 0.818669 -1.34668 0
M  V30 8659 C 819.817 1.91882 -1.23147 0
M  V30 8660 C 820.801 1.60378 -0.129509 0
M  V30 8661 O 821.993 1.73309 -0.359581 0
M  V30 8662 C 819.122 3.28612 -0.993436 0
M  V30 8663 C 818.208 3.66221 -2.13876 0
M  V30 8664 N 818.599 3.75361 -3.39024 0
M  V30 8665 C 816.897 3.96098 -2.04994 0
M  V30 8666 C 817.598 4.0836 -4.14266 0
M  V30 8667 N 816.574 4.21806 -3.429 0
M  V30 8668 H 820.376 1.97133 -2.17981 0
M  V30 8669 H 817.89 1.01257 -1.26967 0
M  V30 8670 H 819.887 4.0725 -0.891797 0
M  V30 8671 H 818.547 3.24655 -0.053824 0
M  V30 8672 H 819.558 3.58747 -3.73525 0
M  V30 8673 H 816.235 4.00236 -1.18816 0
M  V30 8674 H 817.625 4.226 -5.22359 0
M  V30 8675 N 820.346 1.18468 1.03938 0
M  V30 8676 C 821.592 0.982286 1.77423 0
M  V30 8677 C 821.925 -0.48679 1.88 0
M  V30 8678 O 821.2 -1.36146 1.38905 0
M  V30 8679 C 821.483 1.63929 3.20623 0
M  V30 8680 C 821.336 3.18132 3.17982 0
M  V30 8681 C 822.655 1.3536 4.18767 0
M  V30 8682 H 819.774 0.358264 0.644062 0
M  V30 8683 H 822.416 1.46154 1.21405 0
M  V30 8684 H 820.566 1.2318 3.68455 0
M  V30 8685 H 822.238 3.68024 2.78129 0
M  V30 8686 H 820.481 3.50225 2.55978 0
M  V30 8687 H 821.152 3.5924 4.19107 0
M  V30 8688 H 823.628 1.70669 3.79488 0
M  V30 8689 H 822.504 1.83896 5.17178 0
M  V30 8690 H 822.765 0.276722 4.41233 0
M  V30 8691 N 821.824 -1.22873 0.986916 0
M  V30 8692 C 822.757 -2.23154 0.477245 0
M  V30 8693 C 823.735 -1.55981 -0.459206 0
M  V30 8694 O 824.919 -1.84503 -0.386141 0
M  V30 8695 C 822.046 -3.37289 -0.308838 0
M  V30 8696 C 821.092 -4.22637 0.572717 0
M  V30 8697 S 821.925 -4.95758 2.02446 0
M  V30 8698 C 823.081 -6.13338 1.2477 0
M  V30 8699 H 823.314 -2.6604 1.32702 0
M  V30 8700 H 820.847 -1.32455 0.793415 0
M  V30 8701 H 822.805 -4.03472 -0.756351 0
M  V30 8702 H 821.466 -2.92922 -1.13381 0
M  V30 8703 H 820.659 -5.0399 -0.0318024 0
M  V30 8704 H 820.261 -3.61555 0.956746 0
M  V30 8705 H 822.553 -6.7556 0.51231 0
M  V30 8706 H 823.496 -6.78189 2.03629 0
M  V30 8707 H 823.904 -5.59311 0.763622 0
M  V30 8708 N 823.302 -0.75937 -1.38099 0
M  V30 8709 C 824.232 -0.151077 -2.33011 0
M  V30 8710 C 825.213 0.697099 -1.5516 0
M  V30 8711 O 826.398 0.637101 -1.83452 0
M  V30 8712 C 823.528 0.738423 -3.39359 0
M  V30 8713 C 822.482 -0.0074741 -4.27999 0
M  V30 8714 C 821.808 1.00066 -5.25253 0
M  V30 8715 C 823.108 -1.17926 -5.08813 0
M  V30 8716 H 824.802 -0.943933 -2.84131 0
M  V30 8717 H 822.348 -0.455362 -1.36611 0
M  V30 8718 H 824.301 1.17369 -4.04725 0
M  V30 8719 H 823.025 1.56366 -2.86735 0
M  V30 8720 H 821.684 -0.423379 -3.64147 0
M  V30 8721 H 821.332 1.82012 -4.68914 0
M  V30 8722 H 821.032 0.506199 -5.85416 0
M  V30 8723 H 822.556 1.43512 -5.93495 0
M  V30 8724 H 823.97 -0.821262 -5.67387 0
M  V30 8725 H 822.367 -1.60497 -5.78239 0
M  V30 8726 H 823.437 -1.98938 -4.42212 0
M  V30 8727 N 824.78 1.49157 -0.508906 0
M  V30 8728 C 826.029 2.0167 0.0346854 0
M  V30 8729 C 826.342 1.39302 1.37311 0
M  V30 8730 O 827.548 1.83189 2.00385 0
M  V30 8731 C 826.004 3.59725 0.112261 0
M  V30 8732 C 825.612 4.31069 -1.21999 0
M  V30 8733 C 827.356 4.20155 0.605798 0
M  V30 8734 C 825.263 5.81001 -1.10415 0
M  V30 8735 H 824.193 0.753814 0.0167355 0
M  V30 8736 H 826.844 1.7162 -0.649518 0
M  V30 8737 H 825.226 3.86525 0.861087 0
M  V30 8738 H 826.4 4.15962 -1.98273 0
M  V30 8739 H 824.715 3.82418 -1.64759 0
M  V30 8740 H 827.312 5.29964 0.710102 0
M  V30 8741 H 827.655 3.84051 1.60656 0
M  V30 8742 H 828.188 3.97705 -0.0867239 0
M  V30 8743 H 824.927 6.21643 -2.07941 0
M  V30 8744 H 824.447 5.9858 -0.382428 0
M  V30 8745 H 826.126 6.42207 -0.786116 0
M  V30 8746 N 826.258 0.243083 1.55714 0
M  V30 8747 C 827.504 -0.383287 1.99145 0
M  V30 8748 C 827.837 -1.57868 1.13098 0
M  V30 8749 O 827.112 -1.93535 0.193509 0
M  V30 8750 C 827.395 -0.796879 3.51172 0
M  V30 8751 C 827.248 0.403642 4.47985 0
M  V30 8752 C 828.567 -1.64525 4.08191 0
M  V30 8753 H 825.686 -0.137843 0.723995 0
M  V30 8754 H 828.328 0.343631 1.86867 0
M  V30 8755 H 826.478 -1.41625 3.61766 0
M  V30 8756 H 828.15 1.04204 4.49376 0
M  V30 8757 H 826.393 1.04741 4.20965 0
M  V30 8758 H 827.064 0.0709794 5.51954 0
M  V30 8759 H 829.54 -1.12246 4.00674 0
M  V30 8760 H 828.416 -1.9035 5.14838 0
M  V30 8761 H 828.677 -2.61582 3.56409 0
M  V30 8762 N 827.736 -1.57571 -0.0300757 0
M  V30 8763 C 828.683 -2.06492 -1.03101 0
M  V30 8764 C 829.653 -0.953862 -1.3598 0
M  V30 8765 O 830.838 -1.22436 -1.46335 0
M  V30 8766 C 827.978 -2.54826 -2.32718 0
M  V30 8767 C 827.091 -3.79718 -2.06006 0
M  V30 8768 C 826.226 -4.16668 -3.29487 0
M  V30 8769 C 825.265 -5.3448 -2.98324 0
M  V30 8770 N 824.402 -5.66867 -4.14254 0
M  V30 8771 H 829.242 -2.91755 -0.606877 0
M  V30 8772 H 826.779 -1.44252 -0.288038 0
M  V30 8773 H 828.737 -2.80916 -3.08451 0
M  V30 8774 H 827.367 -1.72481 -2.72856 0
M  V30 8775 H 826.419 -3.60718 -1.20774 0
M  V30 8776 H 827.731 -4.65569 -1.79017 0
M  V30 8777 H 826.885 -4.43881 -4.13588 0
M  V30 8778 H 825.624 -3.29466 -3.59588 0
M  V30 8779 H 824.629 -5.07021 -2.12625 0
M  V30 8780 H 825.854 -6.23334 -2.69502 0
M  V30 8781 H 823.8 -4.82625 -4.44308 0
M  V30 8782 H 823.717 -6.47226 -3.90685 0
M  V30 8783 H 824.985 -5.98656 -4.99231 0
M  V30 8784 N 829.214 0.302327 -1.54673 0
M  V30 8785 C 830.463 1.03533 -1.73101 0
M  V30 8786 C 830.776 1.88473 -0.523174 0
M  V30 8787 O 831.982 2.65029 -0.589229 0
M  V30 8788 C 830.438 1.89043 -3.06252 0
M  V30 8789 C 830.046 1.09112 -4.3451 0
M  V30 8790 C 831.79 2.61951 -3.34039 0
M  V30 8791 C 829.697 1.93891 -5.58713 0
M  V30 8792 H 828.627 0.390261 -0.645145 0
M  V30 8793 H 831.278 0.2924 -1.81155 0
M  V30 8794 H 829.66 2.67319 -2.92159 0
M  V30 8795 H 830.834 0.354596 -4.59434 0
M  V30 8796 H 829.149 0.477923 -4.13648 0
M  V30 8797 H 831.746 3.25729 -4.24033 0
M  V30 8798 H 832.089 3.30711 -2.52855 0
M  V30 8799 H 832.622 1.90725 -3.49097 0
M  V30 8800 H 829.361 1.29604 -6.4256 0
M  V30 8801 H 828.881 2.6522 -5.37976 0
M  V30 8802 H 830.56 2.51971 -5.95919 0
M  V30 8803 N 830.692 1.47107 0.565454 0
M  V30 8804 C 831.938 1.53535 1.32495 0
M  V30 8805 C 832.271 0.193537 1.93233 0
M  V30 8806 O 831.546 -0.796956 1.77423 0
M  V30 8807 C 831.829 2.64712 2.4413 0
M  V30 8808 C 831.682 4.08482 1.88314 0
M  V30 8809 C 833.001 2.71853 3.46098 0
M  V30 8810 H 830.12 0.558926 0.480386 0
M  V30 8811 H 832.762 1.79125 0.633575 0
M  V30 8812 H 830.912 2.43023 3.03104 0
M  V30 8813 H 832.584 4.4151 1.33665 0
M  V30 8814 H 830.827 4.17148 1.19037 0
M  V30 8815 H 831.498 4.82032 2.68978 0
M  V30 8816 H 833.974 2.91397 2.97031 0
M  V30 8817 H 832.85 3.51433 4.21646 0
M  V30 8818 H 833.111 1.78584 4.04426 0
M  V30 8819 N 832.17 -0.811516 1.35101 0
M  V30 8820 C 833.102 -1.93102 1.23468 0
M  V30 8821 C 834.115 -1.62021 0.159095 0
M  V30 8822 O 835.304 -1.73682 0.411945 0
M  V30 8823 C 832.404 -3.27345 0.877404 0
M  V30 8824 C 831.577 -3.86368 2.05033 0
M  V30 8825 C 830.636 -4.99009 1.66963 0
M  V30 8826 O 829.662 -5.16698 2.38772 0
M  V30 8827 N 830.864 -5.7749 0.590394 0
M  V30 8828 H 833.629 -2.0361 2.19916 0
M  V30 8829 H 831.19 -0.988687 1.28205 0
M  V30 8830 H 833.182 -4.00163 0.604298 0
M  V30 8831 H 831.752 -3.126 0.00275267 0
M  V30 8832 H 830.972 -3.05804 2.48752 0
M  V30 8833 H 832.26 -4.22533 2.83449 0
M  V30 8834 H 831.658 -5.657 -0.00633259 0
M  V30 8835 H 830.215 -6.50708 0.377055 0
M  V30 8836 N 833.648 -1.19017 -1.03309 0
M  V30 8837 C 835.059 -0.993206 -1.5809 0
M  V30 8838 C 835.41 0.45505 -1.9085 0
M  V30 8839 O 834.535 1.33372 -1.70414 0
M  V30 8840 C 835.13 -1.79661 -2.87241 0
M  V30 8841 C 833.689 -1.64377 -3.38611 0
M  V30 8842 C 832.836 -1.78628 -2.12102 0
M  V30 8843 H 835.787 -1.3345 -0.858879 0
M  V30 8844 H 835.808 -1.29019 -3.57958 0
M  V30 8845 H 835.32 -2.85061 -2.63366 0
M  V30 8846 H 833.421 -0.615447 -3.67482 0
M  V30 8847 H 833.534 -2.44651 -4.11926 0
M  V30 8848 H 831.898 -1.21648 -2.23772 0
M  V30 8849 H 832.681 -2.8548 -1.90673 0
M  V30 8850 N 835.127 1.22348 -0.993418 0
M  V30 8851 C 836.037 2.27987 -0.553076 0
M  V30 8852 C 837.053 1.69378 0.398386 0
M  V30 8853 O 838.229 1.99648 0.26509 0
M  V30 8854 C 835.294 3.46475 0.124809 0
M  V30 8855 C 834.355 4.20399 -0.869682 0
M  V30 8856 C 833.588 5.33229 -0.224052 0
M  V30 8857 O 833.811 5.61885 0.981915 0
M  V30 8858 O 832.745 5.94685 -0.929174 0
M  V30 8859 H 836.571 2.67822 -1.43195 0
M  V30 8860 H 834.156 1.28525 -0.761694 0
M  V30 8861 H 836.038 4.18369 0.504496 0
M  V30 8862 H 834.713 3.08565 0.978243 0
M  V30 8863 H 833.62 3.50774 -1.30031 0
M  V30 8864 H 834.953 4.62191 -1.69233 0
M  V30 8865 N 836.605 0.766683 1.37694 0
M  V30 8866 C 837.535 0.163432 2.32927 0
M  V30 8867 C 838.516 -0.688861 1.55527 0
M  V30 8868 O 839.701 -0.627363 1.83787 0
M  V30 8869 C 836.831 -0.720416 3.39746 0
M  V30 8870 C 835.785 0.0301718 4.27989 0
M  V30 8871 C 835.111 -0.972788 5.25776 0
M  V30 8872 C 836.411 1.20623 5.0818 0
M  V30 8873 H 838.105 0.958988 2.83626 0
M  V30 8874 H 835.651 0.462601 1.36367 0
M  V30 8875 H 837.604 -1.15221 4.05342 0
M  V30 8876 H 836.328 -1.54844 2.8756 0
M  V30 8877 H 834.987 0.442685 3.63917 0
M  V30 8878 H 834.635 -1.79522 4.69873 0
M  V30 8879 H 834.335 -0.475145 5.85676 0
M  V30 8880 H 835.859 -1.40362 5.94248 0
M  V30 8881 H 837.273 0.851341 5.66944 0
M  V30 8882 H 835.67 1.63561 5.7738 0
M  V30 8883 H 836.74 2.01281 4.41151 0
M  V30 8884 N 838.083 -1.48885 0.516809 0
M  V30 8885 C 839.03 -2.29408 -0.253125 0
M  V30 8886 C 840 -1.36533 -0.945935 0
M  V30 8887 O 841.185 -1.65495 -0.949527 0
M  V30 8888 C 838.325 -3.19592 -1.30211 0
M  V30 8889 C 837.438 -4.27535 -0.61948 0
M  V30 8890 C 836.573 -5.04916 -1.65026 0
M  V30 8891 C 835.612 -6.04677 -0.950368 0
M  V30 8892 N 834.749 -6.75164 -1.92608 0
M  V30 8893 H 839.589 -2.94738 0.439744 0
M  V30 8894 H 837.126 -1.45311 0.2287 0
M  V30 8895 H 839.084 -3.70267 -1.92245 0
M  V30 8896 H 837.714 -2.56213 -1.96353 0
M  V30 8897 H 836.766 -3.80228 0.114505 0
M  V30 8898 H 838.078 -4.98752 -0.0693016 0
M  V30 8899 H 837.232 -5.59539 -2.34523 0
M  V30 8900 H 835.971 -4.33508 -2.23432 0
M  V30 8901 H 834.976 -5.4927 -0.241252 0
M  V30 8902 H 836.201 -6.78077 -0.372599 0
M  V30 8903 H 834.147 -6.06517 -2.49946 0
M  V30 8904 H 834.064 -7.4241 -1.42699 0
M  V30 8905 H 835.332 -7.34384 -2.61345 0
M  V30 8906 N 839.561 -0.251338 -1.55583 0
M  V30 8907 C 840.786 0.379136 -2.03905 0
M  V30 8908 C 841.211 1.50428 -1.12929 0
M  V30 8909 O 840.569 1.80882 -0.123114 0
M  V30 8910 C 840.617 0.86009 -3.50193 0
M  V30 8911 O 839.721 1.96932 -3.62342 0
M  V30 8912 H 839.062 0.0820183 -0.658915 0
M  V30 8913 H 841.592 -0.378692 -2.01065 0
M  V30 8914 H 841.602 1.16214 -3.91099 0
M  V30 8915 H 840.277 0.0367559 -4.15884 0
M  V30 8916 H 838.854 1.67163 -3.33333 0
M  V30 8917 N 841.039 1.57585 0.0217189 0
M  V30 8918 C 841.969 2.10073 1.01939 0
M  V30 8919 C 842.95 1.0049 1.37243 0
M  V30 8920 O 844.135 1.28055 1.45999 0
M  V30 8921 C 841.265 2.58618 2.31806 0
M  V30 8922 C 840.219 3.72531 2.10724 0
M  V30 8923 C 839.545 4.07309 3.46415 0
M  V30 8924 C 840.845 5.00672 1.48743 0
M  V30 8925 H 842.539 2.9368 0.582432 0
M  V30 8926 H 840.085 1.41277 0.278715 0
M  V30 8927 H 842.038 2.9396 3.01936 0
M  V30 8928 H 840.762 1.72104 2.77575 0
M  V30 8929 H 839.421 3.37549 1.43025 0
M  V30 8930 H 839.069 3.17851 3.89846 0
M  V30 8931 H 838.769 4.84042 3.33132 0
M  V30 8932 H 840.293 4.45192 4.17895 0
M  V30 8933 H 841.707 5.33925 2.088 0
M  V30 8934 H 840.104 5.82065 1.46013 0
M  V30 8935 H 841.174 4.82769 0.45408 0
M  V30 8936 N 842.517 -0.29412 1.54831 0
M  V30 8937 C 843.48 -1.3461 1.85507 0
M  V30 8938 C 844.48 -1.43359 0.728343 0
M  V30 8939 O 845.67 -1.42875 0.996609 0
M  V30 8940 C 842.802 -2.73012 2.0415 0
M  V30 8941 H 843.995 -1.08651 2.79526 0
M  V30 8942 H 841.548 -0.531138 1.46999 0
M  V30 8943 H 842.283 -3.04183 1.12441 0
M  V30 8944 H 842.068 -2.68051 2.86166 0
M  V30 8945 H 843.558 -3.49061 2.29229 0
M  V30 8946 N 843.995 -1.47404 -0.557645 0
M  V30 8947 C 844.925 -1.62736 -1.67449 0
M  V30 8948 C 845.906 -0.476824 -1.6328 0
M  V30 8949 O 847.091 -0.706108 -1.80908 0
M  V30 8950 C 844.221 -1.641 -3.06086 0
M  V30 8951 C 843.175 -2.78377 -3.25101 0
M  V30 8952 C 842.501 -2.64812 -4.6452 0
M  V30 8953 C 843.801 -4.19971 -3.10518 0
M  V30 8954 H 845.495 -2.56232 -1.54873 0
M  V30 8955 H 843.041 -1.23312 -0.743649 0
M  V30 8956 H 844.994 -1.73417 -3.84063 0
M  V30 8957 H 843.718 -0.671652 -3.19619 0
M  V30 8958 H 842.377 -2.6857 -2.49531 0
M  V30 8959 H 842.025 -1.65906 -4.74852 0
M  V30 8960 H 841.725 -3.41477 -4.78191 0
M  V30 8961 H 843.249 -2.76057 -5.44633 0
M  V30 8962 H 844.663 -4.30757 -3.78313 0
M  V30 8963 H 843.06 -4.97419 -3.35699 0
M  V30 8964 H 844.13 -4.38369 -2.0727 0
M  V30 8965 N 845.473 0.80434 -1.35529 0
M  V30 8966 C 846.721 1.55845 -1.28673 0
M  V30 8967 C 847.042 1.94511 0.137976 0
M  V30 8968 O 846.312 1.63775 1.07492 0
M  V30 8969 H 844.892 0.577931 -0.473291 0
M  V30 8970 H 847.554 0.959293 -1.69657 0
M  V30 8971 H 846.65 2.47285 -1.90411 0
M  V30 8972 N 846.951 1.19563 1.02676 0
M  V30 8973 C 848.198 0.999568 1.7611 0
M  V30 8974 C 848.526 -0.469432 1.8875 0
M  V30 8975 O 847.781 -1.36481 1.40255 0
M  V30 8976 C 848.08 1.61619 3.18769 0
M  V30 8977 C 847.746 3.11366 3.26132 0
M  V30 8978 C 846.408 3.52234 3.27848 0
M  V30 8979 C 848.76 4.07374 3.25109 0
M  V30 8980 C 846.088 4.87658 3.26201 0
M  V30 8981 C 848.44 5.42731 3.25002 0
M  V30 8982 C 847.104 5.83027 3.25017 0
M  V30 8983 H 846.374 0.365768 0.644434 0
M  V30 8984 H 849.021 1.48838 1.20497 0
M  V30 8985 H 847.326 1.04974 3.77476 0
M  V30 8986 H 849.023 1.43975 3.74262 0
M  V30 8987 H 845.613 2.78804 3.25525 0
M  V30 8988 H 849.797 3.76842 3.22961 0
M  V30 8989 H 845.053 5.18156 3.24537 0
M  V30 8990 H 849.227 6.16879 3.23161 0
M  V30 8991 H 846.854 6.87936 3.23494 0
M  V30 8992 N 848.429 -1.21819 0.999893 0
M  V30 8993 C 849.379 -2.21823 0.527104 0
M  V30 8994 C 850.363 -1.55628 -0.408515 0
M  V30 8995 O 851.555 -1.75444 -0.234196 0
M  V30 8996 C 848.684 -3.42972 -0.149986 0
M  V30 8997 C 847.77 -4.16364 0.806349 0
M  V30 8998 N 848.161 -4.66403 1.95708 0
M  V30 8999 C 846.459 -4.41618 0.623672 0
M  V30 9000 C 847.16 -5.22443 2.5579 0
M  V30 9001 N 846.136 -5.11514 1.83995 0
M  V30 9002 H 849.938 -2.58161 1.40464 0
M  V30 9003 H 847.452 -1.37569 0.863054 0
M  V30 9004 H 849.449 -4.13816 -0.50613 0
M  V30 9005 H 848.109 -3.08145 -1.02357 0
M  V30 9006 H 849.12 -4.62142 2.33763 0
M  V30 9007 H 845.797 -4.17005 -0.203257 0
M  V30 9008 H 847.187 -5.7165 3.5308 0
M  V30 9009 N 849.908 -0.773975 -1.37286 0
M  V30 9010 C 851.133 -0.349561 -2.04433 0
M  V30 9011 C 851.558 1.02082 -1.5799 0
M  V30 9012 O 850.916 1.65458 -0.741172 0
M  V30 9013 C 850.964 -0.404292 -3.58326 0
M  V30 9014 O 850.068 0.594447 -4.08093 0
M  V30 9015 H 849.409 -0.150959 -0.646612 0
M  V30 9016 H 851.939 -1.05079 -1.75555 0
M  V30 9017 H 851.949 -0.262378 -4.07155 0
M  V30 9018 H 850.624 -1.40403 -3.91484 0
M  V30 9019 H 849.201 0.415468 -3.70578 0
M  V30 9020 N 851.386 1.48609 -0.524698 0
M  V30 9021 C 852.319 2.26374 0.288109 0
M  V30 9022 C 853.297 1.31997 0.949509 0
M  V30 9023 O 854.481 1.61329 0.974946 0
M  V30 9024 C 851.608 3.08065 1.4076 0
M  V30 9025 C 850.654 4.17777 0.858152 0
M  V30 9026 S 851.487 5.3482 -0.269827 0
M  V30 9027 C 852.643 6.2007 0.852266 0
M  V30 9028 H 852.876 2.94965 -0.371865 0
M  V30 9029 H 850.409 1.51248 -0.31039 0
M  V30 9030 H 852.367 3.5571 2.04892 0
M  V30 9031 H 851.028 2.38898 2.03928 0
M  V30 9032 H 850.221 4.74542 1.69783 0
M  V30 9033 H 849.823 3.72846 0.293627 0
M  V30 9034 H 852.115 6.54451 1.75213 0
M  V30 9035 H 853.058 7.07364 0.322717 0
M  V30 9036 H 853.466 5.53068 1.13029 0
M  V30 9037 N 852.864 0.259585 1.55447 0
M  V30 9038 C 854.11 -0.362143 1.9954 0
M  V30 9039 C 854.443 -1.5666 1.14767 0
M  V30 9040 O 853.718 -1.93319 0.214025 0
M  V30 9041 C 854.001 -0.759588 3.51998 0
M  V30 9042 C 853.854 0.451134 4.47532 0
M  V30 9043 C 855.173 -1.60186 4.09913 0
M  V30 9044 H 852.292 -0.130157 0.725416 0
M  V30 9045 H 854.934 0.363431 1.86492 0
M  V30 9046 H 853.084 -1.3778 3.63248 0
M  V30 9047 H 854.756 1.08965 4.48246 0
M  V30 9048 H 852.999 1.092 4.19831 0
M  V30 9049 H 853.67 0.129518 5.51848 0
M  V30 9050 H 856.146 -1.0799 4.01842 0
M  V30 9051 H 855.022 -1.84879 5.16828 0
M  V30 9052 H 855.283 -2.57787 3.59163 0
M  V30 9053 N 854.342 -1.57594 -0.0133615 0
M  V30 9054 C 855.591 -1.8916 -0.700103 0
M  V30 9055 C 855.904 -0.860147 -1.75673 0
M  V30 9056 O 857.11 -1.06556 -2.49716 0
M  V30 9057 C 855.566 -3.35742 -1.29635 0
M  V30 9058 C 855.174 -4.47154 -0.275249 0
M  V30 9059 C 856.918 -3.76436 -1.96205 0
M  V30 9060 C 854.825 -5.84805 -0.880726 0
M  V30 9061 H 853.755 -0.705805 -0.265247 0
M  V30 9062 H 856.406 -1.83445 0.044993 0
M  V30 9063 H 854.788 -3.36252 -2.09167 0
M  V30 9064 H 855.962 -4.58139 0.494506 0
M  V30 9065 H 854.277 -4.15394 0.289256 0
M  V30 9066 H 856.874 -4.76606 -2.42386 0
M  V30 9067 H 857.217 -3.09249 -2.78695 0
M  V30 9068 H 857.75 -3.78168 -1.23426 0
M  V30 9069 H 854.489 -6.55431 -0.0949013 0
M  V30 9070 H 854.009 -5.7751 -1.61995 0
M  V30 9071 H 855.688 -6.32038 -1.38338 0
M  V30 9072 N 855.82 0.285905 -1.54985 0
M  V30 9073 C 857.236 0.632405 -1.46536 0
M  V30 9074 C 857.436 1.90074 -0.668888 0
M  V30 9075 O 856.492 2.51839 -0.182586 0
M  V30 9076 C 857.805 0.771361 -2.90638 0
M  V30 9077 C 859.353 0.866262 -3.00774 0
M  V30 9078 C 859.828 1.0371 -4.46103 0
M  V30 9079 N 861.319 1.10294 -4.49877 0
M  V30 9080 C 862.054 1.25369 -5.59527 0
M  V30 9081 N 861.55 1.37246 -6.7907 0
M  V30 9082 N 863.343 1.28377 -5.47244 0
M  V30 9083 H 855.494 -0.547226 -2.0523 0
M  V30 9084 H 857.757 -0.183298 -0.930111 0
M  V30 9085 H 857.463 -0.0899485 -3.51585 0
M  V30 9086 H 857.337 1.65569 -3.3892 0
M  V30 9087 H 859.724 1.71805 -2.39931 0
M  V30 9088 H 859.805 -0.0424049 -2.55765 0
M  V30 9089 H 859.449 0.190021 -5.07544 0
M  V30 9090 H 859.379 1.96022 -4.88757 0
M  V30 9091 H 861.87 1.02407 -3.6376 0
M  V30 9092 H 862.183 1.48546 -7.58389 0
M  V30 9093 H 860.528 1.34274 -6.81906 0
M  V30 9094 H 863.719 1.1872 -4.52795 0
M  V30 9095 H 863.892 1.39782 -6.32744 0
M  V30 9096 N 857.298 1.47698 0.54982 0
M  V30 9097 C 858.261 1.60282 1.63837 0
M  V30 9098 C 859.261 0.477394 1.5355 0
M  V30 9099 O 860.451 0.742665 1.57576 0
M  V30 9100 C 857.583 1.55431 3.03404 0
M  V30 9101 H 858.776 2.57325 1.54026 0
M  V30 9102 H 856.329 1.35999 0.770329 0
M  V30 9103 H 857.064 0.597912 3.1874 0
M  V30 9104 H 856.849 2.37116 3.12279 0
M  V30 9105 H 858.339 1.6739 3.82584 0
M  V30 9106 N 858.776 -0.797141 1.35954 0
M  V30 9107 C 859.706 -1.92387 1.32323 0
M  V30 9108 C 860.687 -1.68967 0.196007 0
M  V30 9109 O 861.872 -1.90193 0.39245 0
M  V30 9110 C 859.002 -3.29286 1.10398 0
M  V30 9111 C 857.956 -3.67212 2.19862 0
M  V30 9112 C 857.282 -5.02377 1.8309 0
M  V30 9113 C 858.582 -3.76602 3.61896 0
M  V30 9114 H 860.276 -1.95683 2.26602 0
M  V30 9115 H 857.822 -0.94007 1.09081 0
M  V30 9116 H 859.775 -4.07721 1.06495 0
M  V30 9117 H 858.499 -3.26358 0.125668 0
M  V30 9118 H 857.158 -2.91069 2.22878 0
M  V30 9119 H 856.806 -4.95961 0.838527 0
M  V30 9120 H 856.506 -5.28722 2.56372 0
M  V30 9121 H 858.03 -5.8324 1.80729 0
M  V30 9122 H 859.444 -4.45246 3.6115 0
M  V30 9123 H 857.841 -4.14425 4.34018 0
M  V30 9124 H 858.911 -2.77906 3.97361 0
M  V30 9125 N 860.254 -1.20106 -1.0204 0
M  V30 9126 C 861.502 -1.0069 -1.75231 0
M  V30 9127 C 861.823 0.462491 -1.89436 0
M  V30 9128 O 861.093 1.33455 -1.4341 0
M  V30 9129 H 859.673 -0.369576 -0.649171 0
M  V30 9130 H 862.335 -1.51149 -1.23044 0
M  V30 9131 H 861.431 -1.46205 -2.75736 0
M  V30 9132 N 861.732 1.21287 -1.00634 0
M  V30 9133 C 862.98 1.90013 -0.688438 0
M  V30 9134 C 863.301 1.78573 0.783365 0
M  V30 9135 O 862.571 1.1815 1.56261 0
M  V30 9136 H 861.151 0.703336 -0.251648 0
M  V30 9137 H 863.813 1.47346 -1.27574 0
M  V30 9138 H 862.909 2.96879 -0.962781 0
M  V30 9139 N 863.21 0.781244 1.36873 0
M  V30 9140 C 864.459 0.34652 1.98701 0
M  V30 9141 C 864.772 -1.08555 1.62712 0
M  V30 9142 O 865.978 -1.62213 2.17713 0
M  V30 9143 C 864.434 0.568611 3.5538 0
M  V30 9144 C 864.042 2.01156 4.003 0
M  V30 9145 C 865.786 0.197983 4.24038 0
M  V30 9146 C 863.693 2.18074 5.49725 0
M  V30 9147 H 862.623 0.125821 0.743428 0
M  V30 9148 H 865.274 0.961721 1.56279 0
M  V30 9149 H 863.656 -0.116185 3.9583 0
M  V30 9150 H 864.83 2.73209 3.71071 0
M  V30 9151 H 863.145 2.33967 3.44454 0
M  V30 9152 H 865.742 0.302778 5.33842 0
M  V30 9153 H 866.085 -0.852927 4.07469 0
M  V30 9154 H 866.618 0.835696 3.88923 0
M  V30 9155 H 863.357 3.21519 5.71232 0
M  V30 9156 H 862.877 1.50517 5.80607 0
M  V30 9157 H 864.556 1.98393 6.15832 0
M  V30 9158 N 864.689 -1.48329 0.532571 0
M  V30 9159 C 865.619 -2.32485 -0.217511 0
M  V30 9160 C 866.6 -1.42255 -0.932598 0
M  V30 9161 O 867.785 -1.7114 -0.917873 0
M  V30 9162 C 864.915 -3.23509 -1.26329 0
M  V30 9163 C 863.869 -4.22784 -0.666191 0
M  V30 9164 C 863.195 -5.0296 -1.81482 0
M  V30 9165 C 864.495 -5.21031 0.363813 0
M  V30 9166 H 866.189 -2.95445 0.485014 0
M  V30 9167 H 863.735 -1.42075 0.234694 0
M  V30 9168 H 865.688 -3.81211 -1.79601 0
M  V30 9169 H 864.412 -2.58554 -1.99543 0
M  V30 9170 H 863.071 -3.66272 -0.15498 0
M  V30 9171 H 862.719 -4.34427 -2.5354 0
M  V30 9172 H 862.419 -5.70154 -1.4212 0
M  V30 9173 H 863.943 -5.63514 -2.35126 0
M  V30 9174 H 865.357 -5.73241 -0.0819079 0
M  V30 9175 H 863.754 -5.96292 0.674956 0
M  V30 9176 H 864.824 -4.6801 1.26865 0
M  V30 9177 N 866.167 -0.267825 -1.55308 0
M  V30 9178 C 867.13 0.60965 -2.20943 0
M  V30 9179 C 868.13 1.0869 -1.18504 0
M  V30 9180 O 869.32 0.988248 -1.43455 0
M  V30 9181 C 866.452 1.84027 -2.86961 0
M  V30 9182 H 867.645 0.0366806 -2.99878 0
M  V30 9183 H 865.198 -0.0183941 -1.56289 0
M  V30 9184 H 865.933 2.45394 -2.1202 0
M  V30 9185 H 865.718 1.50605 -3.62023 0
M  V30 9186 H 867.208 2.46442 -3.37129 0
M  V30 9187 N 867.645 1.57599 0.00500368 0
M  V30 9188 C 869.056 1.78462 0.54848 0
M  V30 9189 C 869.407 0.901869 1.74243 0
M  V30 9190 O 868.532 0.103014 2.16155 0
M  V30 9191 C 869.127 3.2365 1.00179 0
M  V30 9192 C 867.686 3.45627 1.49061 0
M  V30 9193 C 866.833 2.73794 0.439531 0
M  V30 9194 H 869.784 1.57151 -0.22118 0
M  V30 9195 H 869.805 3.31488 1.86805 0
M  V30 9196 H 869.317 3.87873 0.132607 0
M  V30 9197 H 867.418 2.86612 2.38085 0
M  V30 9198 H 867.531 4.54298 1.52152 0
M  V30 9199 H 865.895 2.38267 0.900043 0
M  V30 9200 H 866.678 3.40714 -0.420599 0
M  V30 9201 N 869.123 -0.277682 1.55134 0
M  V30 9202 C 870.372 -1.00766 1.74726 0
M  V30 9203 C 870.685 -1.87617 0.553092 0
M  V30 9204 O 871.891 -2.64058 0.631318 0
M  V30 9205 C 870.347 -1.84147 3.09221 0
M  V30 9206 C 869.955 -1.02186 4.3619 0
M  V30 9207 C 871.699 -2.56604 3.38164 0
M  V30 9208 C 869.606 -1.84978 5.61727 0
M  V30 9209 H 868.536 -0.379948 0.651273 0
M  V30 9210 H 871.187 -0.263543 1.81598 0
M  V30 9211 H 869.569 -2.62637 2.96375 0
M  V30 9212 H 870.743 -0.281459 4.5994 0
M  V30 9213 H 869.058 -0.412054 4.14356 0
M  V30 9214 H 871.655 -3.18942 4.29162 0
M  V30 9215 H 871.998 -3.26647 2.58085 0
M  V30 9216 H 872.531 -1.85147 3.52087 0
M  V30 9217 H 869.27 -1.19365 6.4454 0
M  V30 9218 H 868.79 -2.56628 5.42128 0
M  V30 9219 H 870.469 -2.42458 5.99853 0
M  V30 9220 N 870.601 -1.47988 -0.541979 0
M  V30 9221 C 871.831 -1.58804 -1.32155 0
M  V30 9222 C 872.239 -0.242893 -1.87634 0
M  V30 9223 O 871.582 0.776239 -1.66494 0
M  V30 9224 C 871.644 -2.56567 -2.51821 0
M  V30 9225 C 871.308 -4.01915 -2.17517 0
M  V30 9226 C 872.305 -4.89954 -1.73901 0
M  V30 9227 C 869.99 -4.47365 -2.28408 0
M  V30 9228 C 871.984 -6.21467 -1.41625 0
M  V30 9229 C 869.671 -5.78902 -1.95745 0
M  V30 9230 C 870.669 -6.65775 -1.52423 0
M  V30 9231 O 870.357 -7.94866 -1.20183 0
M  V30 9232 H 870.089 -0.538536 -0.408601 0
M  V30 9233 H 872.643 -1.94446 -0.661818 0
M  V30 9234 H 870.873 -2.16023 -3.20735 0
M  V30 9235 H 872.562 -2.57347 -3.13891 0
M  V30 9236 H 873.328 -4.56082 -1.64966 0
M  V30 9237 H 869.207 -3.79942 -2.61084 0
M  V30 9238 H 872.751 -6.8923 -1.07738 0
M  V30 9239 H 868.648 -6.12311 -2.04316 0
M  V30 9240 H 869.416 -8.07509 -1.33683 0
M  V30 9241 N 872.079 0.78992 -1.36375 0
M  V30 9242 C 873.326 1.54777 -1.30576 0
M  V30 9243 C 873.654 1.94159 0.115095 0
M  V30 9244 O 872.909 1.62918 1.08426 0
M  V30 9245 C 873.208 2.83698 -2.17371 0
M  V30 9246 C 872.874 2.63457 -3.65925 0
M  V30 9247 C 871.536 2.57645 -4.06415 0
M  V30 9248 C 873.888 2.44833 -4.60115 0
M  V30 9249 C 871.216 2.31174 -5.39236 0
M  V30 9250 C 873.568 2.19889 -5.93154 0
M  V30 9251 C 872.232 2.1251 -6.32768 0
M  V30 9252 H 871.502 0.566371 -0.477813 0
M  V30 9253 H 874.149 0.91138 -1.68422 0
M  V30 9254 H 872.454 3.51802 -1.72459 0
M  V30 9255 H 874.151 3.41487 -2.10209 0
M  V30 9256 H 870.741 2.68836 -3.33804 0
M  V30 9257 H 874.925 2.48325 -4.29707 0
M  V30 9258 H 870.181 2.23942 -5.68911 0
M  V30 9259 H 874.355 2.04473 -6.65705 0
M  V30 9260 H 871.982 1.91761 -7.35616 0
M  V30 9261 N 873.557 1.20646 1.01402 0
M  V30 9262 C 874.805 1.01618 1.74695 0
M  V30 9263 C 875.126 -0.452438 1.89679 0
M  V30 9264 O 874.396 -1.32693 1.44116 0
M  V30 9265 H 872.976 0.373013 0.647202 0
M  V30 9266 H 875.638 1.518 1.22241 0
M  V30 9267 H 874.734 1.47666 2.74957 0
M  V30 9268 N 875.035 -1.20752 1.01276 0
M  V30 9269 C 875.998 -2.2162 0.584583 0
M  V30 9270 C 876.998 -1.57094 -0.343215 0
M  V30 9271 O 878.188 -1.73696 -0.132433 0
M  V30 9272 C 875.32 -3.40583 -0.146872 0
M  V30 9273 H 876.513 -2.61015 1.47686 0
M  V30 9274 H 874.066 -1.34148 0.802123 0
M  V30 9275 H 874.801 -3.06686 -1.05424 0
M  V30 9276 H 874.586 -3.88642 0.51958 0
M  V30 9277 H 876.076 -4.15339 -0.433924 0
M  V30 9278 N 876.513 -0.788492 -1.36457 0
M  V30 9279 C 877.443 -0.200468 -2.32638 0
M  V30 9280 C 878.424 0.664031 -1.56603 0
M  V30 9281 O 879.609 0.598045 -1.84762 0
M  V30 9282 C 876.739 0.666274 -3.40849 0
M  V30 9283 C 875.693 -0.0982574 -4.27887 0
M  V30 9284 C 875.019 0.889018 -5.27258 0
M  V30 9285 C 876.319 -1.28692 -5.06197 0
M  V30 9286 H 878.013 -1.00399 -2.82065 0
M  V30 9287 H 875.559 -0.484237 -1.35614 0
M  V30 9288 H 877.512 1.08757 -4.07124 0
M  V30 9289 H 876.236 1.50249 -2.89987 0
M  V30 9290 H 874.895 -0.500525 -3.63167 0
M  V30 9291 H 874.543 1.72024 -4.7267 0
M  V30 9292 H 874.243 0.381909 -5.86358 0
M  V30 9293 H 875.767 1.30891 -5.96406 0
M  V30 9294 H 877.181 -0.941429 -5.65517 0
M  V30 9295 H 875.578 -1.72726 -5.74705 0
M  V30 9296 H 876.648 -2.08273 -4.37893 0
M  V30 9297 N 877.991 1.48044 -0.54043 0
M  V30 9298 C 879.24 2.01698 -0.00809961 0
M  V30 9299 C 879.553 1.42184 1.34325 0
M  V30 9300 O 880.759 1.87398 1.96454 0
M  V30 9301 C 879.215 3.59882 0.035933 0
M  V30 9302 C 878.823 4.28384 -1.31115 0
M  V30 9303 C 880.567 4.21346 0.51654 0
M  V30 9304 C 878.474 5.78529 -1.22714 0
M  V30 9305 H 877.404 0.754 0.000742174 0
M  V30 9306 H 880.055 1.70204 -0.685775 0
M  V30 9307 H 878.437 3.88264 0.778906 0
M  V30 9308 H 879.611 4.11663 -2.07051 0
M  V30 9309 H 877.926 3.78837 -1.72834 0
M  V30 9310 H 880.523 5.31351 0.597529 0
M  V30 9311 H 880.866 3.87373 1.52473 0
M  V30 9312 H 881.399 3.97432 -0.171064 0
M  V30 9313 H 878.138 6.17093 -2.21081 0
M  V30 9314 H 877.658 5.97634 -0.50931 0
M  V30 9315 H 879.337 6.40395 -0.92216 0
M  V30 9316 N 879.47 0.276058 1.55163 0
M  V30 9317 C 880.747 -0.392292 1.91626 0
M  V30 9318 C 881.127 -1.73646 1.20043 0
M  V30 9319 O 880.475 -2.26139 0.327606 0
M  V30 9320 C 880.685 -0.531641 3.44927 0
M  V30 9321 C 882.033 -0.8141 4.16722 0
M  V30 9322 O 883.057 -0.616413 3.50826 0
M  V30 9323 O 881.916 -1.19224 5.33337 0
M  V30 9324 H 879.01 -0.214945 0.798579 0
M  V30 9325 H 881.556 0.32228 1.66612 0
M  V30 9326 H 880.328 0.414282 3.89101 0
M  V30 9327 H 879.951 -1.29564 3.75897 0
M  V30 9328 N 880.948 -1.576 0.00335426 0
M  V30 9329 C 882.176 -1.94996 -0.691685 0
M  V30 9330 C 882.591 -0.878405 -1.67121 0
M  V30 9331 O 881.948 0.142343 -1.81944 0
M  V30 9332 C 881.999 -3.32416 -1.42063 0
M  V30 9333 O 881.72 -4.35458 -0.48038 0
M  V30 9334 C 883.221 -3.84291 -2.20987 0
M  V30 9335 H 880.441 -0.642814 -0.192434 0
M  V30 9336 H 882.985 -2.04425 0.0554706 0
M  V30 9337 H 881.14 -3.24285 -2.11939 0
M  V30 9338 H 881.554 -5.14975 -0.995054 0
M  V30 9339 H 883.028 -4.82863 -2.67483 0
M  V30 9340 H 883.505 -3.17174 -3.03805 0
M  V30 9341 H 884.111 -3.95609 -1.56121 0
M  V30 9342 N 882.426 0.269451 -1.5528 0
M  V30 9343 C 883.654 1.01872 -1.80082 0
M  V30 9344 C 884.069 1.79802 -0.575917 0
M  V30 9345 O 883.426 1.76735 0.455081 0
M  V30 9346 C 883.477 1.9745 -3.02813 0
M  V30 9347 O 883.198 1.22677 -4.20573 0
M  V30 9348 C 884.699 2.8416 -3.40247 0
M  V30 9349 H 881.919 0.300781 -0.59981 0
M  V30 9350 H 884.463 0.29916 -2.023 0
M  V30 9351 H 882.618 2.64864 -2.82712 0
M  V30 9352 H 883.032 1.87129 -4.89982 0
M  V30 9353 H 884.506 3.47014 -4.29284 0
M  V30 9354 H 884.983 3.54113 -2.59809 0
M  V30 9355 H 885.589 2.22232 -3.6262 0
M  V30 9356 N 883.904 1.48273 0.534124 0
M  V30 9357 C 885.144 1.57674 1.3007 0
M  V30 9358 C 885.508 0.243256 1.90453 0
M  V30 9359 O 886.709 0.212231 2.67961 0
M  V30 9360 C 884.98 2.68044 2.36405 0
M  V30 9361 S 886.539 2.97183 3.22843 0
M  V30 9362 H 883.357 0.55652 0.442501 0
M  V30 9363 H 885.959 1.85774 0.60896 0
M  V30 9364 H 884.663 3.63498 1.90518 0
M  V30 9365 H 884.194 2.41833 3.10291 0
M  V30 9366 H 886.209 2.36164 4.36396 0
M  V30 9367 N 885.382 -0.782676 1.36792 0
M  V30 9368 C 886.631 -1.53605 1.30723 0
M  V30 9369 C 886.944 -1.95294 -0.109296 0
M  V30 9370 O 888.15 -2.69921 -0.292398 0
M  V30 9371 C 886.606 -2.77321 2.29393 0
M  V30 9372 C 886.214 -2.42774 3.76517 0
M  V30 9373 C 887.958 -3.55289 2.32314 0
M  V30 9374 C 885.865 -3.62926 4.66947 0
M  V30 9375 H 884.795 -0.576646 0.485794 0
M  V30 9376 H 887.446 -0.858255 1.62192 0
M  V30 9377 H 885.828 -3.46934 1.90927 0
M  V30 9378 H 887.002 -1.81014 4.23758 0
M  V30 9379 H 885.317 -1.78002 3.76436 0
M  V30 9380 H 887.914 -4.44573 2.97083 0
M  V30 9381 H 888.257 -3.94361 1.3336 0
M  V30 9382 H 888.79 -2.92662 2.69432 0
M  V30 9383 H 885.529 -3.28944 5.66989 0
M  V30 9384 H 885.049 -4.23828 4.24418 0
M  V30 9385 H 886.728 -4.29873 4.83548 0
M  V30 9386 N 886.86 -1.21182 -1.00761 0
M  V30 9387 C 887.807 -0.968741 -2.09485 0
M  V30 9388 C 888.777 0.104325 -1.65772 0
M  V30 9389 O 889.962 -0.0422587 -1.90753 0
M  V30 9390 C 887.102 -0.536686 -3.40901 0
M  V30 9391 C 886.215 -1.6789 -3.98041 0
M  V30 9392 C 885.35 -1.19627 -5.17555 0
M  V30 9393 C 884.389 -2.31099 -5.66798 0
M  V30 9394 N 883.526 -1.83988 -6.77564 0
M  V30 9395 H 888.366 -1.89952 -2.29613 0
M  V30 9396 H 885.903 -0.946688 -1.12589 0
M  V30 9397 H 887.861 -0.26745 -4.16342 0
M  V30 9398 H 886.491 0.357092 -3.20819 0
M  V30 9399 H 885.543 -2.06284 -3.19611 0
M  V30 9400 H 886.855 -2.51794 -4.30582 0
M  V30 9401 H 886.009 -0.883539 -6.00232 0
M  V30 9402 H 884.748 -0.327244 -4.86601 0
M  V30 9403 H 883.753 -2.63178 -4.82719 0
M  V30 9404 H 884.978 -3.18493 -5.99782 0
M  V30 9405 H 882.924 -0.994257 -6.48422 0
M  V30 9406 H 882.841 -2.61466 -7.09346 0
M  V30 9407 H 884.109 -1.55741 -7.63783 0
M  V30 9408 N 888.338 1.20213 -1.01915 0
M  V30 9409 C 889.584 1.90203 -0.720724 0
M  V30 9410 C 889.939 1.77526 0.74178 0
M  V30 9411 O 889.232 1.15037 1.53222 0
M  V30 9412 C 889.426 3.40232 -1.09438 0
M  V30 9413 C 889.255 3.67509 -2.59167 0
M  V30 9414 C 888.025 3.86082 -3.25989 0
M  V30 9415 C 890.223 3.69863 -3.5736 0
M  V30 9416 N 888.205 4.009 -4.64922 0
M  V30 9417 C 889.576 3.90136 -4.81865 0
M  V30 9418 C 891.631 3.52839 -3.51296 0
M  V30 9419 C 890.334 3.9515 -6.0104 0
M  V30 9420 C 892.36 3.59125 -4.69875 0
M  V30 9421 C 891.722 3.79874 -5.93191 0
M  V30 9422 H 887.821 0.715556 -0.315442 0
M  V30 9423 H 890.405 1.44538 -1.30449 0
M  V30 9424 H 888.576 3.84643 -0.538933 0
M  V30 9425 H 890.308 3.97704 -0.74923 0
M  V30 9426 H 887.063 3.84569 -2.76413 0
M  V30 9427 H 887.487 4.12181 -5.37062 0
M  V30 9428 H 892.129 3.35762 -2.56951 0
M  V30 9429 H 889.847 4.11022 -6.95763 0
M  V30 9430 H 893.433 3.47257 -4.66802 0
M  V30 9431 H 892.313 3.846 -6.83412 0
M  V30 9432 N 889.816 0.795718 1.36037 0
M  V30 9433 C 891.041 0.38204 2.03851 0
M  V30 9434 C 891.466 -0.995553 1.59594 0
M  V30 9435 O 890.824 -1.64258 0.767401 0
M  V30 9436 C 890.872 0.461248 3.57638 0
M  V30 9437 O 889.976 -0.529448 4.08987 0
M  V30 9438 H 889.317 0.161227 0.644129 0
M  V30 9439 H 891.847 1.07858 1.73861 0
M  V30 9440 H 891.857 0.32712 4.06687 0
M  V30 9441 H 890.532 1.46613 3.89201 0
M  V30 9442 H 889.109 -0.35646 3.71192 0
M  V30 9443 N 891.294 -1.47756 0.548274 0
M  V30 9444 C 892.522 -2.06884 0.0254873 0
M  V30 9445 C 892.937 -1.40225 -1.26422 0
M  V30 9446 O 892.294 -0.495776 -1.75637 0
M  V30 9447 C 892.345 -3.61036 -0.183134 0
M  V30 9448 O 892.066 -4.25195 1.05549 0
M  V30 9449 C 893.567 -4.37008 -0.744222 0
M  V30 9450 H 890.787 -0.669697 0.041789 0
M  V30 9451 H 893.331 -1.89888 0.759138 0
M  V30 9452 H 891.486 -3.77576 -0.866886 0
M  V30 9453 H 891.9 -5.17606 0.847629 0
M  V30 9454 H 893.374 -5.45579 -0.839529 0
M  V30 9455 H 893.851 -4.0268 -1.75344 0
M  V30 9456 H 894.457 -4.25191 -0.0964542 0
M  V30 9457 N 892.772 -0.284283 -1.55015 0
M  V30 9458 C 893.72 0.615091 -2.2432 0
M  V30 9459 C 894.714 1.15051 -1.24337 0
M  V30 9460 O 895.92 1.10308 -1.4224 0
M  V30 9461 H 892.295 0.216927 -0.720033 0
M  V30 9462 H 894.266 0.00783216 -2.98399 0
M  V30 9463 C 893.015 1.78355 -2.98471 0
M  V30 9464 H 892.338 1.38076 -3.752 0
M  V30 9465 H 893.778 2.38927 -3.50271 0
M  V30 9466 C 892.237 2.67757 -2.04469 0
M  V30 9467 O 892.767 3.6838 -1.60185 0
M  V30 9468 N 890.973 2.35125 -1.70776 0
M  V30 9469 H 890.52 1.53346 -2.06985 0
M  V30 9470 H 890.478 2.95212 -1.08153 0
M  V30 9471 N 894.251 1.57596 -0.0117121 0
M  V30 9472 C 895.199 2.1029 0.994035 0
M  V30 9473 C 896.193 1.02549 1.34833 0
M  V30 9474 O 897.399 1.21003 1.3326 0
M  V30 9475 H 893.774 0.671624 0.338268 0
M  V30 9476 H 895.745 2.93761 0.524147 0
M  V30 9477 C 894.494 2.63099 2.27319 0
M  V30 9478 H 893.817 3.45642 2.00927 0
M  V30 9479 H 895.257 3.03635 2.95942 0
M  V30 9480 C 893.716 1.55044 2.99104 0
M  V30 9481 O 894.246 0.940127 3.90544 0
M  V30 9482 N 892.452 1.27506 2.61133 0
M  V30 9483 H 891.999 1.77322 1.86855 0
M  V30 9484 H 891.957 0.554292 3.09475 0
M  V30 9485 N 895.729 -0.261212 1.5542 0
M  V30 9486 C 896.969 -0.998748 1.78338 0
M  V30 9487 C 897.333 -1.83064 0.578914 0
M  V30 9488 O 898.534 -2.59884 0.686575 0
M  V30 9489 C 896.805 -1.84828 3.05898 0
M  V30 9490 S 898.364 -2.64686 3.49981 0
M  V30 9491 H 895.182 -0.33619 0.626496 0
M  V30 9492 H 897.784 -0.26799 1.93655 0
M  V30 9493 H 896.488 -1.22658 3.91642 0
M  V30 9494 H 896.019 -2.62203 2.9328 0
M  V30 9495 H 898.034 -3.87299 3.10184 0
M  V30 9496 N 897.207 -1.48554 -0.526253 0
M  V30 9497 C 898.455 -1.56452 -1.27935 0
M  V30 9498 C 898.776 -0.24184 -1.93495 0
M  V30 9499 O 898.046 0.736917 -1.81511 0
M  V30 9500 H 896.626 -0.576379 -0.47518 0
M  V30 9501 H 899.288 -1.85039 -0.612083 0
M  V30 9502 H 898.384 -2.34751 -2.05666 0
M  V30 9503 N 898.685 0.775411 -1.37205 0
M  V30 9504 C 899.913 1.56446 -1.35397 0
M  V30 9505 C 900.328 1.887 0.0615437 0
M  V30 9506 O 899.685 1.51178 1.02233 0
M  V30 9507 C 899.736 2.87697 -2.18889 0
M  V30 9508 O 899.457 2.56828 -3.54924 0
M  V30 9509 C 900.958 3.81944 -2.25019 0
M  V30 9510 H 898.178 0.484792 -0.463916 0
M  V30 9511 H 900.722 0.961346 -1.80495 0
M  V30 9512 H 898.877 3.44442 -1.7731 0
M  V30 9513 H 899.291 3.40851 -3.98649 0
M  V30 9514 H 900.765 4.71055 -2.87769 0
M  V30 9515 H 901.242 4.20811 -1.25757 0
M  V30 9516 H 901.848 3.3113 -2.66895 0
M  V30 9517 N 900.163 1.21714 1.00117 0
M  V30 9518 C 901.579 0.97532 1.26332 0
M  V30 9519 C 901.779 -0.336029 1.98678 0
M  V30 9520 O 900.835 -1.06073 2.29139 0
M  V30 9521 C 902.148 2.16848 2.0832 0
M  V30 9522 C 903.696 2.21115 2.21533 0
M  V30 9523 C 904.171 3.3996 3.06906 0
M  V30 9524 N 905.662 3.40071 3.14494 0
M  V30 9525 C 906.397 4.28678 3.80818 0
M  V30 9526 N 905.893 5.2749 4.49139 0
M  V30 9527 N 907.686 4.16476 3.77497 0
M  V30 9528 H 899.837 2.06039 0.515897 0
M  V30 9529 H 902.1 0.902423 0.290408 0
M  V30 9530 H 901.806 3.119 1.62515 0
M  V30 9531 H 901.68 2.16226 3.09073 0
M  V30 9532 H 904.067 1.26616 2.66557 0
M  V30 9533 H 904.148 2.2578 1.20238 0
M  V30 9534 H 903.792 4.34755 2.62585 0
M  V30 9535 H 903.722 3.32534 4.08324 0
M  V30 9536 H 906.213 2.68563 2.65861 0
M  V30 9537 H 906.526 5.91397 4.97463 0
M  V30 9538 H 904.871 5.31412 4.47914 0
M  V30 9539 H 908.062 3.38539 3.23278 0
M  V30 9540 H 908.235 4.85739 4.28908 0
M  V30 9541 N 901.641 -1.19671 1.02551 0
M  V30 9542 C 902.889 -1.88894 0.71858 0
M  V30 9543 C 903.21 -1.79797 -0.754856 0
M  V30 9544 O 902.48 -1.20621 -1.54362 0
M  V30 9545 H 901.06 -0.699244 0.262806 0
M  V30 9546 H 903.722 -1.45298 1.29902 0
M  V30 9547 H 902.818 -2.95309 1.00989 0
M  V30 9548 N 903.119 -0.802921 -1.35613 0
M  V30 9549 C 904.344 -0.392846 -2.03645 0
M  V30 9550 C 904.769 0.987075 -1.6012 0
M  V30 9551 O 904.127 1.63849 -0.776101 0
M  V30 9552 C 904.175 -0.480208 -3.57388 0
M  V30 9553 O 903.279 0.507751 -4.09262 0
M  V30 9554 H 902.62 -0.16464 -0.643265 0
M  V30 9555 H 905.15 -1.08779 -1.73287 0
M  V30 9556 H 905.16 -0.348683 -4.06507 0
M  V30 9557 H 903.835 -1.48675 -3.88418 0
M  V30 9558 H 902.412 0.336769 -3.71376 0
M  V30 9559 N 904.597 1.47463 -0.556102 0
M  V30 9560 C 905.837 2.04372 -0.0339743 0
M  V30 9561 C 906.201 1.42125 1.29091 0
M  V30 9562 O 907.402 1.90074 1.90066 0
M  V30 9563 C 905.673 3.57352 0.0585316 0
M  V30 9564 S 907.232 4.35625 0.526943 0
M  V30 9565 H 904.05 0.710574 -0.0246115 0
M  V30 9566 H 906.652 1.80848 -0.742585 0
M  V30 9567 H 905.356 4.00181 -0.910116 0
M  V30 9568 H 904.887 3.85371 0.790731 0
M  V30 9569 H 906.902 4.62911 1.78683 0
M  V30 9570 N 906.075 0.2925 1.54862 0
M  V30 9571 C 907.491 -0.0611461 1.59483 0
M  V30 9572 C 907.691 -1.53141 1.30958 0
M  V30 9573 O 906.747 -2.28291 1.07887 0
M  V30 9574 C 908.06 0.329143 2.98893 0
M  V30 9575 C 909.608 0.2772 3.1177 0
M  V30 9576 C 910.083 0.642185 4.53475 0
M  V30 9577 N 911.574 0.594396 4.5937 0
M  V30 9578 C 912.309 0.849385 5.67074 0
M  V30 9579 N 911.805 1.1699 6.82851 0
M  V30 9580 N 913.598 0.777016 5.56704 0
M  V30 9581 H 905.749 1.25079 1.71665 0
M  V30 9582 H 908.012 0.506516 0.80134 0
M  V30 9583 H 907.718 1.35233 3.24661 0
M  V30 9584 H 907.592 -0.321442 3.75828 0
M  V30 9585 H 909.979 -0.736725 2.85756 0
M  V30 9586 H 910.06 0.962289 2.3701 0
M  V30 9587 H 909.704 1.65388 4.80218 0
M  V30 9588 H 909.634 -0.0648831 5.2656 0
M  V30 9589 H 912.125 0.357256 3.76208 0
M  V30 9590 H 912.438 1.35067 7.60905 0
M  V30 9591 H 910.783 1.20785 6.84424 0
M  V30 9592 H 913.974 0.526333 4.65132 0
M  V30 9593 H 914.147 0.979113 6.4056 0
M  V30 9594 N 907.553 -1.57587 0.0200696 0
M  V30 9595 C 908.781 -1.95718 -0.670964 0
M  V30 9596 C 909.196 -0.896081 -1.6618 0
M  V30 9597 O 908.553 0.123037 -1.82085 0
M  V30 9598 C 908.604 -3.33904 -1.38529 0
M  V30 9599 O 908.325 -4.35943 -0.434167 0
M  V30 9600 C 909.826 -3.86614 -2.16898 0
M  V30 9601 H 907.046 -0.644819 -0.185606 0
M  V30 9602 H 909.59 -2.04354 0.0771495 0
M  V30 9603 H 907.745 -3.26515 -2.08487 0
M  V30 9604 H 908.159 -5.16001 -0.940378 0
M  V30 9605 H 909.633 -4.85673 -2.62346 0
M  V30 9606 H 910.11 -3.20379 -3.00423 0
M  V30 9607 H 910.716 -3.97243 -1.51916 0
M  V30 9608 N 909.032 0.252966 -1.55557 0
M  V30 9609 C 910.262 0.998115 -1.8089 0
M  V30 9610 C 910.67 1.79679 -0.592623 0
M  V30 9611 O 910.013 1.78151 0.448093 0
M  V30 9612 C 910.075 1.98878 -2.99479 0
M  V30 9613 C 909.739 1.37761 -4.35742 0
M  V30 9614 C 910.736 0.783142 -5.13968 0
M  V30 9615 C 908.421 1.39879 -4.8243 0
M  V30 9616 C 910.415 0.218004 -6.37027 0
M  V30 9617 C 908.102 0.829801 -6.0544 0
M  V30 9618 C 909.1 0.240426 -6.82577 0
M  V30 9619 O 908.788 -0.319797 -8.03264 0
M  V30 9620 H 908.52 0.29963 -0.605969 0
M  V30 9621 H 911.074 0.282978 -2.03441 0
M  V30 9622 H 909.304 2.74206 -2.72669 0
M  V30 9623 H 910.993 2.59686 -3.11959 0
M  V30 9624 H 911.759 0.759326 -4.79019 0
M  V30 9625 H 907.638 1.84692 -4.22386 0
M  V30 9626 H 911.182 -0.242654 -6.97178 0
M  V30 9627 H 907.079 0.850924 -6.39867 0
M  V30 9628 H 907.847 -0.211078 -8.18228 0
M  V30 9629 N 910.51 1.48831 0.518367 0
M  V30 9630 C 911.458 1.64678 1.64268 0
M  V30 9631 C 912.452 0.512967 1.61447 0
M  V30 9632 O 913.658 0.692063 1.66164 0
M  V30 9633 H 910.033 0.518964 0.544224 0
M  V30 9634 H 912.004 2.59083 1.4805 0
M  V30 9635 C 910.753 1.71449 3.0249 0
M  V30 9636 H 910.076 2.58061 3.0536 0
M  V30 9637 H 911.516 1.86577 3.80743 0
M  V30 9638 C 909.975 0.455584 3.33805 0
M  V30 9639 O 910.505 -0.426428 3.9943 0
M  V30 9640 N 908.711 0.323763 2.88791 0
M  V30 9641 H 908.258 1.04249 2.35563 0
M  V30 9642 H 908.216 -0.517514 3.10112 0
M  V30 9643 N 911.988 -0.768124 1.37614 0
M  V30 9644 C 913.213 -1.56239 1.36397 0
M  V30 9645 C 913.638 -1.8804 -0.0475839 0
M  V30 9646 O 912.996 -1.495 -1.02564 0
M  V30 9647 C 913.044 -2.84716 2.21289 0
M  V30 9648 O 912.148 -3.79249 1.62001 0
M  V30 9649 H 911.489 -0.473119 0.465891 0
M  V30 9650 H 914.019 -0.950415 1.81186 0
M  V30 9651 H 914.029 -3.33784 2.34632 0
M  V30 9652 H 912.704 -2.60899 3.2389 0
M  V30 9653 H 911.281 -3.37904 1.57719 0
M  V30 9654 N 913.466 -1.22244 -0.994698 0
M  V30 9655 C 914.694 -1.07218 -1.76952 0
M  V30 9656 C 915.109 0.377388 -1.8499 0
M  V30 9657 O 914.466 1.26157 -1.31874 0
M  V30 9658 C 914.517 -1.67496 -3.20355 0
M  V30 9659 O 914.238 -3.06782 -3.12756 0
M  V30 9660 C 915.739 -1.57721 -4.14294 0
M  V30 9661 H 912.959 -0.375966 -0.555779 0
M  V30 9662 H 915.503 -1.61799 -1.25065 0
M  V30 9663 H 913.658 -1.16982 -3.69315 0
M  V30 9664 H 914.072 -3.35784 -4.02926 0
M  V30 9665 H 915.546 -2.04623 -5.12673 0
M  V30 9666 H 916.023 -0.533434 -4.35949 0
M  V30 9667 H 916.629 -2.07531 -3.71229 0
M  V30 9668 N 914.944 1.19125 -1.03184 0
M  V30 9669 C 916.169 1.93379 -0.749628 0
M  V30 9670 C 916.594 1.75153 0.685785 0
M  V30 9671 O 915.952 1.05579 1.47386 0
M  V30 9672 C 916 3.43101 -1.1097 0
M  V30 9673 O 915.104 4.11758 -0.230053 0
M  V30 9674 H 914.445 0.603605 -0.276689 0
M  V30 9675 H 916.975 1.51116 -1.37931 0
M  V30 9676 H 916.985 3.93778 -1.06785 0
M  V30 9677 H 915.66 3.55688 -2.15544 0
M  V30 9678 H 914.237 3.7143 -0.330748 0
M  V30 9679 N 916.422 0.810101 1.35185 0
M  V30 9680 C 917.669 0.392117 1.98667 0
M  V30 9681 C 917.997 -1.0416 1.64259 0
M  V30 9682 O 917.252 -1.73795 0.899647 0
M  V30 9683 C 917.551 0.526561 3.535 0
M  V30 9684 C 917.217 1.92411 4.07785 0
M  V30 9685 C 915.879 2.30644 4.22323 0
M  V30 9686 C 918.231 2.83827 4.37141 0
M  V30 9687 C 915.559 3.59655 4.63536 0
M  V30 9688 C 917.911 4.12287 4.79794 0
M  V30 9689 C 916.575 4.50515 4.92536 0
M  V30 9690 H 915.845 0.143486 0.726975 0
M  V30 9691 H 918.492 1.03157 1.61341 0
M  V30 9692 H 916.797 -0.19633 3.91308 0
M  V30 9693 H 918.494 0.183871 4.00578 0
M  V30 9694 H 915.084 1.61707 3.96924 0
M  V30 9695 H 919.268 2.55536 4.25459 0
M  V30 9696 H 914.524 3.89117 4.71591 0
M  V30 9697 H 918.698 4.83221 5.01468 0
M  V30 9698 H 916.325 5.50535 5.24229 0
M  V30 9699 N 917.9 -1.47166 0.563914 0
M  V30 9700 C 919.125 -2.0735 0.0454698 0
M  V30 9701 C 919.55 -1.41281 -1.24182 0
M  V30 9702 O 918.908 -0.490084 -1.7455 0
M  V30 9703 C 918.956 -3.60378 -0.126453 0
M  V30 9704 O 918.06 -3.94934 -1.18746 0
M  V30 9705 H 917.401 -0.661773 0.0543377 0
M  V30 9706 H 919.931 -1.89086 0.781508 0
M  V30 9707 H 919.941 -4.06593 -0.338554 0
M  V30 9708 H 918.616 -4.07862 0.81373 0
M  V30 9709 H 917.193 -3.60455 -0.955318 0
M  V30 9710 N 919.378 -0.300708 -1.54705 0
M  V30 9711 C 920.794 0.0526874 -1.59513 0
M  V30 9712 C 920.994 1.52444 -1.31769 0
M  V30 9713 O 920.05 2.27716 -1.09096 0
M  V30 9714 C 921.363 -0.344989 -2.98714 0
M  V30 9715 C 922.911 -0.29373 -3.11619 0
M  V30 9716 C 923.386 -0.666225 -4.53129 0
M  V30 9717 N 924.877 -0.618749 -4.59049 0
M  V30 9718 C 925.612 -0.879447 -5.66616 0
M  V30 9719 N 925.108 -1.2061 -6.82221 0
M  V30 9720 N 926.901 -0.806528 -5.56284 0
M  V30 9721 H 919.052 -1.25988 -1.71 0
M  V30 9722 H 921.315 -0.510758 -0.798643 0
M  V30 9723 H 921.021 -1.36953 -3.2394 0
M  V30 9724 H 920.895 0.301507 -3.75993 0
M  V30 9725 H 923.282 0.72156 -2.86142 0
M  V30 9726 H 923.363 -0.974844 -2.36496 0
M  V30 9727 H 923.007 -1.67932 -4.79334 0
M  V30 9728 H 922.937 0.0369575 -5.26587 0
M  V30 9729 H 925.428 -0.377202 -3.76013 0
M  V30 9730 H 925.741 -1.391 -7.60178 0
M  V30 9731 H 924.086 -1.24413 -6.83774 0
M  V30 9732 H 927.277 -0.550993 -4.64846 0
M  V30 9733 H 927.45 -1.01307 -6.40032 0
M  V30 9734 N 920.856 1.57574 -0.0284266 0
M  V30 9735 C 922.102 1.92056 0.651327 0
M  V30 9736 C 922.435 0.905092 1.71819 0
M  V30 9737 O 921.71 -0.0722703 1.94366 0
M  V30 9738 C 921.993 3.37021 1.26841 0
M  V30 9739 C 921.846 4.49304 0.211157 0
M  V30 9740 C 923.165 3.81936 2.18662 0
M  V30 9741 H 920.284 0.698428 0.235304 0
M  V30 9742 H 922.926 1.89807 -0.0855435 0
M  V30 9743 H 921.076 3.39068 1.89644 0
M  V30 9744 H 922.748 4.5939 -0.419379 0
M  V30 9745 H 920.991 4.31317 -0.463445 0
M  V30 9746 H 921.662 5.47764 0.682518 0
M  V30 9747 H 924.138 3.8162 1.65847 0
M  V30 9748 H 923.014 4.84064 2.58792 0
M  V30 9749 H 923.275 3.174 3.07749 0
M  V30 9750 N 922.334 -0.244713 1.55689 0
M  V30 9751 C 923.564 -0.988508 1.81417 0
M  V30 9752 C 923.972 -1.79362 0.602143 0
M  V30 9753 O 923.315 -1.78386 -0.438639 0
M  V30 9754 C 923.377 -1.97287 3.0053 0
M  V30 9755 C 923.041 -1.35448 4.36466 0
M  V30 9756 C 924.038 -0.755874 5.14376 0
M  V30 9757 C 921.723 -1.37319 4.83165 0
M  V30 9758 C 923.717 -0.184218 6.37134 0
M  V30 9759 C 921.404 -0.797681 6.05871 0
M  V30 9760 C 922.402 -0.204224 6.82695 0
M  V30 9761 O 922.09 0.362392 8.03083 0
M  V30 9762 H 921.822 -0.296412 0.607549 0
M  V30 9763 H 924.376 -0.272185 2.03589 0
M  V30 9764 H 922.606 -2.72756 2.74119 0
M  V30 9765 H 924.295 -2.58028 3.13331 0
M  V30 9766 H 925.061 -0.733912 4.79415 0
M  V30 9767 H 920.94 -1.8245 4.23359 0
M  V30 9768 H 924.484 0.279624 6.97039 0
M  V30 9769 H 920.381 -0.816978 6.40309 0
M  V30 9770 H 921.149 0.254467 8.18104 0
M  V30 9771 N 923.813 -1.49104 -0.510467 0
M  V30 9772 C 924.743 -1.67981 -1.62187 0
M  V30 9773 C 925.724 -0.528529 -1.6168 0
M  V30 9774 O 926.909 -0.763305 -1.7857 0
M  V30 9775 C 924.039 -1.73755 -3.0071 0
M  V30 9776 C 922.993 -2.88579 -3.1608 0
M  V30 9777 C 922.319 -2.79457 -4.5586 0
M  V30 9778 C 923.619 -4.29638 -2.97 0
M  V30 9779 H 925.313 -2.61029 -1.46643 0
M  V30 9780 H 922.859 -1.25615 -0.704042 0
M  V30 9781 H 924.812 -1.85548 -3.78352 0
M  V30 9782 H 923.536 -0.772996 -3.17321 0
M  V30 9783 H 922.195 -2.76372 -2.40861 0
M  V30 9784 H 921.843 -1.80929 -4.69333 0
M  V30 9785 H 921.543 -3.56518 -4.67086 0
M  V30 9786 H 923.067 -2.93245 -5.35574 0
M  V30 9787 H 924.481 -4.42575 -3.64418 0
M  V30 9788 H 922.878 -5.07847 -3.19704 0
M  V30 9789 H 923.948 -4.44741 -1.93219 0
M  V30 9790 N 925.291 0.760815 -1.38019 0
M  V30 9791 C 926.539 1.51673 -1.33566 0
M  V30 9792 C 926.86 1.94852 0.076024 0
M  V30 9793 O 926.13 1.67112 1.02227 0
M  V30 9794 H 924.71 0.562581 -0.491438 0
M  V30 9795 H 927.372 0.904832 -1.72623 0
M  V30 9796 H 926.468 2.41102 -1.98182 0
M  V30 9797 N 926.769 1.22769 0.988202 0
M  V30 9798 C 927.699 1.02627 2.09738 0
M  V30 9799 C 928.68 -0.0543211 1.70013 0
M  V30 9800 O 929.865 0.108811 1.93895 0
M  V30 9801 C 926.995 0.608302 3.41931 0
M  V30 9802 C 925.949 1.63536 3.95525 0
M  V30 9803 C 925.275 1.07308 5.23822 0
M  V30 9804 C 926.575 3.02649 4.25677 0
M  V30 9805 H 928.269 1.954 2.26847 0
M  V30 9806 H 925.815 0.940888 1.09011 0
M  V30 9807 H 927.768 0.454478 4.18942 0
M  V30 9808 H 926.492 -0.355095 3.24664 0
M  V30 9809 H 925.151 1.77704 3.20651 0
M  V30 9810 H 924.799 0.100894 5.02899 0
M  V30 9811 H 924.499 1.75925 5.60646 0
M  V30 9812 H 926.023 0.930938 6.03462 0
M  V30 9813 H 927.437 2.91828 4.93467 0
M  V30 9814 H 925.834 3.68434 4.73684 0
M  V30 9815 H 926.904 3.52228 3.33262 0
M  V30 9816 N 928.247 -1.18576 1.03814 0
M  V30 9817 C 929.472 -1.92978 0.759873 0
M  V30 9818 C 929.897 -1.75514 -0.676486 0
M  V30 9819 O 929.255 -1.06359 -1.46824 0
M  V30 9820 C 929.303 -3.42507 1.12788 0
M  V30 9821 O 928.407 -4.1163 0.251886 0
M  V30 9822 H 927.748 -0.602129 0.279886 0
M  V30 9823 H 930.278 -1.50383 1.3873 0
M  V30 9824 H 930.288 -3.93206 1.08872 0
M  V30 9825 H 928.963 -3.5454 2.17427 0
M  V30 9826 H 927.54 -3.7125 0.350441 0
M  V30 9827 N 929.725 -0.817259 -1.34754 0
M  V30 9828 C 930.95 -0.414423 -2.03217 0
M  V30 9829 C 931.375 0.970037 -1.61158 0
M  V30 9830 O 930.733 1.63016 -0.793436 0
M  V30 9831 C 930.781 -0.518087 -3.56859 0
M  V30 9832 O 929.885 0.464314 -4.09778 0
M  V30 9833 H 929.226 -0.171454 -0.641482 0
M  V30 9834 H 931.756 -1.10611 -1.72123 0
M  V30 9835 H 931.766 -0.391779 -4.06115 0
M  V30 9836 H 930.441 -1.52786 -3.86819 0
M  V30 9837 H 929.018 0.297361 -3.71712 0
M  V30 9838 N 931.203 1.46865 -0.571711 0
M  V30 9839 C 932.136 2.27176 0.215944 0
M  V30 9840 C 933.114 1.34951 0.907035 0
M  V30 9841 O 934.298 1.64349 0.923127 0
M  V30 9842 C 931.425 3.12388 1.30888 0
M  V30 9843 C 930.471 4.20296 0.724804 0
M  V30 9844 S 931.304 5.33691 -0.439839 0
M  V30 9845 C 932.46 6.22468 0.654564 0
M  V30 9846 H 932.693 2.93633 -0.465518 0
M  V30 9847 H 930.226 1.50184 -0.358351 0
M  V30 9848 H 932.184 3.62049 1.93471 0
M  V30 9849 H 930.845 2.45265 1.96224 0
M  V30 9850 H 930.038 4.79703 1.54599 0
M  V30 9851 H 929.64 3.73591 0.174861 0
M  V30 9852 H 931.932 6.59694 1.54304 0
M  V30 9853 H 932.875 7.08033 0.0975111 0
M  V30 9854 H 933.283 5.56384 0.953762 0
M  V30 9855 N 932.681 0.308908 1.54543 0
M  V30 9856 C 933.611 -0.556657 2.26768 0
M  V30 9857 C 934.592 -1.13145 1.27013 0
M  V30 9858 O 935.777 -1.15931 1.558 0
M  V30 9859 C 932.907 -1.72481 3.01443 0
M  V30 9860 C 931.861 -1.28001 4.08411 0
M  V30 9861 C 931.187 -2.53395 4.70845 0
M  V30 9862 C 932.487 -0.405497 5.20724 0
M  V30 9863 H 934.181 0.0457618 2.99365 0
M  V30 9864 H 931.727 0.0234495 1.43981 0
M  V30 9865 H 933.68 -2.3365 3.50693 0
M  V30 9866 H 932.404 -2.35359 2.26437 0
M  V30 9867 H 931.063 -0.69133 3.60022 0
M  V30 9868 H 930.711 -3.14604 3.92471 0
M  V30 9869 H 930.411 -2.2433 5.43093 0
M  V30 9870 H 931.935 -3.15352 5.22863 0
M  V30 9871 H 933.349 -0.923076 5.6582 0
M  V30 9872 H 931.746 -0.208282 5.99738 0
M  V30 9873 H 932.816 0.567412 4.81569 0
M  V30 9874 N 934.159 -1.57557 0.0367827 0
M  V30 9875 C 935.575 -1.56366 -0.31967 0
M  V30 9876 C 935.775 -1.04313 -1.72398 0
M  V30 9877 O 934.831 -0.693278 -2.42796 0
M  V30 9878 C 936.144 -3.00267 -0.161274 0
M  V30 9879 C 937.692 -3.12128 -0.233464 0
M  V30 9880 C 938.167 -4.57882 -0.103767 0
M  V30 9881 N 939.658 -4.62922 -0.160506 0
M  V30 9882 C 940.393 -5.73338 -0.0840493 0
M  V30 9883 N 939.889 -6.92786 0.043933 0
M  V30 9884 N 941.682 -5.61929 -0.138592 0
M  V30 9885 H 933.833 -1.8972 0.954996 0
M  V30 9886 H 936.096 -0.87304 0.369467 0
M  V30 9887 H 935.802 -3.42331 0.80639 0
M  V30 9888 H 935.676 -3.65599 -0.928304 0
M  V30 9889 H 938.063 -2.69972 -1.19159 0
M  V30 9890 H 938.144 -2.49503 0.564075 0
M  V30 9891 H 937.788 -5.0072 0.850973 0
M  V30 9892 H 937.718 -5.18496 -0.920268 0
M  V30 9893 H 940.209 -3.7701 -0.259257 0
M  V30 9894 H 940.522 -7.72741 0.095372 0
M  V30 9895 H 938.867 -6.94955 0.0788211 0
M  V30 9896 H 942.058 -4.67499 -0.237031 0
M  V30 9897 H 942.231 -6.47956 -0.075546 0
M  V30 9898 N 935.637 0.236453 -1.55816 0
M  V30 9899 C 936.883 0.964439 -1.784 0
M  V30 9900 C 937.216 1.84573 -0.603868 0
M  V30 9901 O 936.491 1.90395 0.397473 0
M  V30 9902 C 936.774 1.81608 -3.10951 0
M  V30 9903 C 936.627 0.962283 -4.39386 0
M  V30 9904 C 937.946 2.79665 -3.39817 0
M  V30 9905 H 935.065 0.349192 -0.649026 0
M  V30 9906 H 937.707 0.234247 -1.8855 0
M  V30 9907 H 935.857 2.43864 -3.02428 0
M  V30 9908 H 937.529 0.35762 -4.59912 0
M  V30 9909 H 935.772 0.267062 -4.32977 0
M  V30 9910 H 936.443 1.59222 -5.28538 0
M  V30 9911 H 938.919 2.27546 -3.4837 0
M  V30 9912 H 937.795 3.36367 -4.33761 0
M  V30 9913 H 938.056 3.56657 -2.61244 0
M  V30 9914 N 937.115 1.49373 0.502552 0
M  V30 9915 C 938.34 1.62752 1.28556 0
M  V30 9916 C 938.765 0.298285 1.8572 0
M  V30 9917 O 938.123 -0.733885 1.65782 0
M  V30 9918 C 938.171 2.69778 2.39274 0
M  V30 9919 O 937.275 2.28843 3.43081 0
M  V30 9920 H 936.616 0.544799 0.379592 0
M  V30 9921 H 939.146 1.9555 0.601792 0
M  V30 9922 H 939.156 2.91899 2.8506 0
M  V30 9923 H 937.831 3.66266 1.97033 0
M  V30 9924 H 936.408 2.17047 3.03224 0
M  V30 9925 N 938.594 -0.753485 1.38421 0
M  V30 9926 C 939.819 -1.54783 1.38047 0
M  V30 9927 C 940.244 -1.8808 -0.0276371 0
M  V30 9928 O 939.602 -1.5058 -1.00973 0
M  V30 9929 C 939.65 -2.82353 2.24297 0
M  V30 9930 O 938.754 -3.77509 1.66014 0
M  V30 9931 H 938.095 -0.468151 0.470883 0
M  V30 9932 H 940.625 -0.931144 1.82184 0
M  V30 9933 H 940.635 -3.31277 2.38159 0
M  V30 9934 H 939.31 -2.57449 3.26639 0
M  V30 9935 H 937.887 -3.36212 1.61294 0
M  V30 9936 N 940.072 -1.23292 -0.981677 0
M  V30 9937 C 941.002 -1.03738 -2.09191 0
M  V30 9938 C 941.983 0.0453041 -1.7004 0
M  V30 9939 O 943.168 -0.119092 -1.93834 0
M  V30 9940 C 940.298 -0.626426 -3.41604 0
M  V30 9941 C 939.252 -1.65631 -3.94652 0
M  V30 9942 C 938.578 -1.10084 -5.23245 0
M  V30 9943 C 939.878 -3.04903 -4.24066 0
M  V30 9944 H 941.572 -1.966 -2.25807 0
M  V30 9945 H 939.118 -0.946656 -1.0851 0
M  V30 9946 H 941.071 -0.476689 -4.18695 0
M  V30 9947 H 939.795 0.337873 -3.24848 0
M  V30 9948 H 938.454 -1.79402 -3.19704 0
M  V30 9949 H 938.102 -0.127562 -5.02838 0
M  V30 9950 H 937.802 -1.78896 -5.59705 0
M  V30 9951 H 939.326 -0.962928 -6.02959 0
M  V30 9952 H 940.74 -2.94441 -4.91912 0
M  V30 9953 H 939.137 -3.70941 -4.71724 0
M  V30 9954 H 940.207 -3.53991 -3.31389 0
M  V30 9955 N 941.55 1.18024 -1.04442 0
M  V30 9956 C 942.796 1.88377 -0.751133 0
M  V30 9957 C 943.129 1.80377 0.719571 0
M  V30 9958 O 942.404 1.20662 1.52548 0
M  V30 9959 C 942.687 3.38708 -1.22265 0
M  V30 9960 C 942.54 3.55499 -2.75574 0
M  V30 9961 C 943.859 4.32475 -0.815688 0
M  V30 9962 H 940.978 0.684037 -0.27434 0
M  V30 9963 H 943.62 1.38837 -1.29709 0
M  V30 9964 H 941.77 3.8103 -0.758192 0
M  V30 9965 H 943.442 3.22244 -3.30086 0
M  V30 9966 H 941.685 2.98028 -3.15217 0
M  V30 9967 H 942.356 4.60994 -3.03625 0
M  V30 9968 H 944.832 3.97953 -1.21542 0
M  V30 9969 H 943.708 5.36213 -1.17331 0
M  V30 9970 H 943.969 4.41207 0.280901 0
M  V30 9971 N 943.028 0.824394 1.34319 0
M  V30 9972 C 943.958 0.262077 2.32025 0
M  V30 9973 C 944.939 -0.622277 1.58309 0
M  V30 9974 O 946.124 -0.548848 1.86283 0
M  V30 9975 C 943.254 -0.57567 3.42496 0
M  V30 9976 C 942.208 0.21167 4.27476 0
M  V30 9977 C 941.534 -0.748913 5.29429 0
M  V30 9978 C 942.834 1.42068 5.02607 0
M  V30 9979 H 944.528 1.07842 2.79304 0
M  V30 9980 H 942.074 0.520022 1.34282 0
M  V30 9981 H 944.027 -0.979251 4.09864 0
M  V30 9982 H 942.751 -1.42508 2.93869 0
M  V30 9983 H 941.41 0.596636 3.61712 0
M  V30 9984 H 941.058 -1.59432 4.77064 0
M  V30 9985 H 940.758 -0.226313 5.87164 0
M  V30 9986 H 942.282 -1.15032 5.99667 0
M  V30 9987 H 943.696 1.09103 5.62823 0
M  V30 9988 H 942.093 1.87903 5.69923 0
M  V30 9989 H 943.163 2.1981 4.32217 0
M  V30 9990 N 944.506 -1.46559 0.579492 0
M  V30 9991 C 945.736 -2.06484 0.0692642 0
M  V30 9992 C 946.144 -1.4293 -1.23967 0
M  V30 9993 O 945.487 -0.527632 -1.75959 0
M  V30 9994 C 945.549 -3.59078 -0.174174 0
M  V30 9995 C 945.213 -4.44805 1.04867 0
M  V30 9996 C 946.21 -4.81543 1.95991 0
M  V30 9997 C 943.895 -4.8599 1.26961 0
M  V30 9998 C 945.889 -5.58288 3.0756 0
M  V30 9999 C 943.576 -5.62495 2.38836 0
M  V30 10000 C 944.574 -5.98558 3.28964 0
M  V30 10001 O 944.262 -6.73518 4.38896 0
M  V30 10002 H 943.994 -0.673917 0.0530331 0
M  V30 10003 H 946.548 -1.89223 0.79898 0
M  V30 10004 H 944.778 -3.74634 -0.958464 0
M  V30 10005 H 946.467 -4.00941 -0.632515 0
M  V30 10006 H 947.233 -4.50307 1.80136 0
M  V30 10007 H 943.112 -4.57372 0.577184 0
M  V30 10008 H 946.656 -5.86355 3.77933 0
M  V30 10009 H 942.553 -5.93145 2.54655 0
M  V30 10010 H 943.321 -6.91938 4.37223 0
M  V30 10011 N 945.984 -0.3171 -1.54377 0
M  V30 10012 C 947.233 0.288271 -1.99629 0
M  V30 10013 C 947.546 1.53754 -1.2091 0
M  V30 10014 O 948.752 2.2185 -1.56508 0
M  V30 10015 C 947.208 0.564188 -3.5545 0
M  V30 10016 C 946.816 -0.667659 -4.42997 0
M  V30 10017 C 948.56 1.12987 -4.09187 0
M  V30 10018 C 946.467 -0.364003 -5.90279 0
M  V30 10019 H 945.397 0.111492 -0.745711 0
M  V30 10020 H 948.048 -0.428317 -1.78431 0
M  V30 10021 H 946.43 1.34079 -3.72611 0
M  V30 10022 H 947.604 -1.44335 -4.37612 0
M  V30 10023 H 945.919 -1.1531 -4.00116 0
M  V30 10024 H 948.516 1.37157 -5.1681 0
M  V30 10025 H 948.859 2.07722 -3.60773 0
M  V30 10026 H 949.392 0.414595 -3.95634 0
M  V30 10027 H 946.131 -1.28035 -6.42874 0
M  V30 10028 H 945.651 0.374102 -5.98632 0
M  V30 10029 H 947.33 0.0285433 -6.46994 0
M  V30 10030 N 947.462 1.57535 -0.0451378 0
M  V30 10031 C 948.711 1.91628 0.629415 0
M  V30 10032 C 949.024 0.924754 1.72359 0
M  V30 10033 O 950.23 1.15751 2.45589 0
M  V30 10034 C 948.686 3.40322 1.17084 0
M  V30 10035 C 948.294 4.47867 0.109101 0
M  V30 10036 C 950.038 3.83458 1.82099 0
M  V30 10037 C 947.945 5.87671 0.663072 0
M  V30 10038 H 946.875 0.715163 0.238868 0
M  V30 10039 H 949.526 1.83151 -0.113046 0
M  V30 10040 H 947.908 3.43783 1.96543 0
M  V30 10041 H 949.082 4.55988 -0.664201 0
M  V30 10042 H 947.397 4.14034 -0.443227 0
M  V30 10043 H 949.994 4.85273 2.2453 0
M  V30 10044 H 950.337 3.19379 2.67026 0
M  V30 10045 H 950.87 3.82488 1.09305 0
M  V30 10046 H 947.609 6.55332 -0.148423 0
M  V30 10047 H 947.129 5.83124 1.4045 0
M  V30 10048 H 948.808 6.36737 1.14785 0
M  V30 10049 N 948.94 -0.228186 1.55939 0
M  V30 10050 C 949.87 -1.28607 1.94891 0
M  V30 10051 C 950.851 -1.49236 0.816245 0
M  V30 10052 O 952.036 -1.61531 1.07803 0
M  V30 10053 C 949.166 -2.63719 2.25986 0
M  V30 10054 C 948.12 -2.57757 3.4168 0
M  V30 10055 C 947.446 -3.96837 3.58364 0
M  V30 10056 C 948.746 -2.13116 4.76843 0
M  V30 10057 H 950.44 -0.962531 2.83506 0
M  V30 10058 H 947.986 -0.461577 1.36402 0
M  V30 10059 H 949.939 -3.37878 2.51826 0
M  V30 10060 H 948.663 -2.97747 1.34217 0
M  V30 10061 H 947.322 -1.86055 3.15878 0
M  V30 10062 H 946.97 -4.28162 2.63982 0
M  V30 10063 H 946.67 -3.93731 4.36176 0
M  V30 10064 H 948.194 -4.72668 3.86545 0
M  V30 10065 H 949.608 -2.77015 5.01932 0
M  V30 10066 H 948.005 -2.21083 5.57891 0
M  V30 10067 H 949.075 -1.08326 4.72645 0
M  V30 10068 N 950.418 -1.49637 -0.494624 0
M  V30 10069 C 951.667 -1.58691 -1.24499 0
M  V30 10070 C 951.98 -0.281763 -1.9356 0
M  V30 10071 O 953.186 -0.250925 -2.70338 0
M  V30 10072 C 951.642 -2.8002 -2.26091 0
M  V30 10073 C 951.25 -4.17318 -1.6294 0
M  V30 10074 C 952.994 -2.98407 -3.01916 0
M  V30 10075 C 950.901 -5.29862 -2.62679 0
M  V30 10076 H 949.831 -0.590888 -0.468367 0
M  V30 10077 H 952.482 -1.76034 -0.518112 0
M  V30 10078 H 950.864 -2.56185 -3.01969 0
M  V30 10079 H 952.038 -4.51315 -0.930108 0
M  V30 10080 H 950.353 -4.04342 -0.994819 0
M  V30 10081 H 952.95 -3.79658 -3.76516 0
M  V30 10082 H 953.293 -2.09214 -3.5991 0
M  V30 10083 H 953.826 -3.22312 -2.33152 0
M  V30 10084 H 950.565 -6.21134 -2.09458 0
M  V30 10085 H 950.085 -5.00311 -3.3083 0
M  V30 10086 H 951.764 -5.59461 -3.2498 0
M  V30 10087 N 951.896 0.746133 -1.38819 0
M  V30 10088 C 953.126 1.53316 -1.38484 0
M  V30 10089 C 953.534 1.89183 0.0253332 0
M  V30 10090 O 952.877 1.5382 1.00424 0
M  V30 10091 C 952.939 2.85623 -2.18311 0
M  V30 10092 C 952.603 2.72253 -3.67052 0
M  V30 10093 C 953.6 2.41547 -4.60381 0
M  V30 10094 C 951.285 2.89472 -4.10501 0
M  V30 10095 C 953.279 2.28226 -5.9514 0
M  V30 10096 C 950.966 2.7577 -5.45338 0
M  V30 10097 C 951.964 2.45191 -6.37472 0
M  V30 10098 O 951.652 2.31561 -7.69828 0
M  V30 10099 H 951.384 0.480763 -0.475229 0
M  V30 10100 H 953.938 0.93057 -1.83111 0
M  V30 10101 H 952.168 3.481 -1.68414 0
M  V30 10102 H 953.857 3.47178 -2.10291 0
M  V30 10103 H 954.623 2.27905 -4.28117 0
M  V30 10104 H 950.502 3.12269 -3.3913 0
M  V30 10105 H 954.046 2.04279 -6.6702 0
M  V30 10106 H 949.943 2.88987 -5.77197 0
M  V30 10107 H 950.711 2.46716 -7.80432 0
M  V30 10108 N 953.375 1.23811 0.975125 0
M  V30 10109 C 954.338 1.02505 2.05001 0
M  V30 10110 C 955.338 -0.0150084 1.60793 0
M  V30 10111 O 956.528 0.225246 1.72738 0
M  V30 10112 C 953.66 0.552087 3.364 0
M  V30 10113 H 954.853 1.979 2.25335 0
M  V30 10114 H 952.406 1.05929 1.1493 0
M  V30 10115 H 953.141 -0.405394 3.21756 0
M  V30 10116 H 952.926 1.30267 3.69828 0
M  V30 10117 H 954.416 0.423828 4.15444 0
M  V30 10118 N 954.853 -1.17469 1.05066 0
M  V30 10119 C 955.786 -2.2031 0.594863 0
M  V30 10120 C 956.764 -1.58196 -0.375878 0
M  V30 10121 O 957.948 -1.8629 -0.287798 0
M  V30 10122 C 955.075 -3.38452 -0.129614 0
M  V30 10123 C 954.121 -4.19007 0.795943 0
M  V30 10124 S 954.954 -4.8433 2.28441 0
M  V30 10125 C 956.11 -6.05862 1.57107 0
M  V30 10126 H 956.343 -2.58632 1.46618 0
M  V30 10127 H 953.876 -1.28063 0.862511 0
M  V30 10128 H 955.834 -4.06914 -0.541416 0
M  V30 10129 H 954.495 -2.98521 -0.976948 0
M  V30 10130 H 953.688 -5.0345 0.235396 0
M  V30 10131 H 953.29 -3.55976 1.14705 0
M  V30 10132 H 955.582 -6.71895 0.86969 0
M  V30 10133 H 956.525 -6.66442 2.39292 0
M  V30 10134 H 956.933 -5.54477 1.05903 0
M  V30 10135 N 956.331 -0.831506 -1.3388 0
M  V30 10136 C 957.278 -0.257449 -2.2936 0
M  V30 10137 C 958.248 0.622604 -1.5399 0
M  V30 10138 O 959.433 0.562432 -1.82322 0
M  V30 10139 C 956.573 0.567587 -3.404 0
M  V30 10140 C 955.686 -0.335666 -4.30694 0
M  V30 10141 C 954.821 0.499762 -5.28844 0
M  V30 10142 C 953.86 -0.402343 -6.10776 0
M  V30 10143 N 952.997 0.39452 -7.00991 0
M  V30 10144 H 957.837 -1.077 -2.77857 0
M  V30 10145 H 955.374 -0.542589 -1.36727 0
M  V30 10146 H 957.332 1.06133 -4.03474 0
M  V30 10147 H 955.962 1.35217 -2.93115 0
M  V30 10148 H 955.014 -0.94768 -3.68406 0
M  V30 10149 H 956.326 -1.02896 -4.88072 0
M  V30 10150 H 955.48 1.05763 -5.9741 0
M  V30 10151 H 954.219 1.22652 -4.72025 0
M  V30 10152 H 953.224 -0.972288 -5.41135 0
M  V30 10153 H 954.449 -1.12735 -6.69677 0
M  V30 10154 H 952.395 1.1048 -6.4663 0
M  V30 10155 H 952.312 -0.240209 -7.55618 0
M  V30 10156 H 953.58 0.934867 -7.73874 0
M  V30 10157 N 957.809 1.4625 -0.587256 0
M  V30 10158 C 958.756 2.30354 0.143384 0
M  V30 10159 C 959.726 1.40891 0.879716 0
M  V30 10160 O 960.911 1.69837 0.869486 0
M  V30 10161 C 958.051 3.25441 1.14815 0
M  V30 10162 C 957.164 4.30004 0.414792 0
M  V30 10163 C 956.299 5.12214 1.40748 0
M  V30 10164 C 955.338 6.08523 0.660786 0
M  V30 10165 N 954.475 6.83585 1.60176 0
M  V30 10166 H 959.315 2.92304 -0.579866 0
M  V30 10167 H 956.852 1.44055 -0.29777 0
M  V30 10168 H 958.81 3.79018 1.7436 0
M  V30 10169 H 957.44 2.6529 1.83906 0
M  V30 10170 H 956.492 3.79248 -0.295787 0
M  V30 10171 H 957.804 4.98515 -0.168738 0
M  V30 10172 H 956.958 5.70091 2.0756 0
M  V30 10173 H 955.697 4.43675 2.02494 0
M  V30 10174 H 954.702 5.49796 -0.0210864 0
M  V30 10175 H 955.927 6.79083 0.0486551 0
M  V30 10176 H 953.873 6.17752 2.20724 0
M  V30 10177 H 953.79 7.48373 1.07115 0
M  V30 10178 H 955.058 7.46016 2.26009 0
M  V30 10179 N 959.287 0.325282 1.54207 0
M  V30 10180 C 960.234 -0.539889 2.24397 0
M  V30 10181 C 961.204 -1.11028 1.2354 0
M  V30 10182 O 962.389 -1.1503 1.52226 0
M  V30 10183 C 959.529 -1.69405 3.00659 0
M  V30 10184 C 958.642 -1.15273 4.16337 0
M  V30 10185 C 957.777 -2.27272 4.80126 0
M  V30 10186 C 956.816 -1.70397 5.87904 0
M  V30 10187 N 955.953 -2.76065 6.45548 0
M  V30 10188 H 960.793 0.0652318 2.97929 0
M  V30 10189 H 958.33 0.043964 1.47034 0
M  V30 10190 H 960.288 -2.37325 3.43122 0
M  V30 10191 H 958.918 -2.27043 2.29458 0
M  V30 10192 H 957.97 -0.365034 3.78645 0
M  V30 10193 H 959.282 -0.696576 4.93912 0
M  V30 10194 H 958.436 -3.03092 5.25566 0
M  V30 10195 H 957.175 -2.76224 4.01935 0
M  V30 10196 H 956.18 -0.930752 5.41864 0
M  V30 10197 H 957.405 -1.22319 6.67993 0
M  V30 10198 H 955.351 -3.24306 5.7023 0
M  V30 10199 H 955.268 -2.35018 7.18542 0
M  V30 10200 H 956.536 -3.5171 6.95644 0
M  V30 10201 N 960.765 -1.57509 0.0534917 0
M  V30 10202 C 961.995 -1.96812 -0.628386 0
M  V30 10203 C 962.403 -0.929808 -1.64776 0
M  V30 10204 O 961.746 0.0941155 -1.83459 0
M  V30 10205 C 961.808 -3.32361 -1.37027 0
M  V30 10206 C 961.472 -4.54185 -0.506465 0
M  V30 10207 C 962.469 -5.19398 0.228412 0
M  V30 10208 C 960.154 -5.00398 -0.43671 0
M  V30 10209 C 962.148 -6.29162 1.02146 0
M  V30 10210 C 959.835 -6.10039 0.360022 0
M  V30 10211 C 960.833 -6.74282 1.08779 0
M  V30 10212 O 960.521 -7.81814 1.87142 0
M  V30 10213 H 960.253 -0.65257 -0.176432 0
M  V30 10214 H 962.807 -2.05067 0.116908 0
M  V30 10215 H 961.037 -3.20667 -2.16125 0
M  V30 10216 H 962.726 -3.56395 -1.94261 0
M  V30 10217 H 963.492 -4.84651 0.184003 0
M  V30 10218 H 959.371 -4.50183 -0.992772 0
M  V30 10219 H 962.915 -6.79238 1.59002 0
M  V30 10220 H 958.812 -6.44222 0.406061 0
M  V30 10221 H 959.58 -7.98602 1.79378 0
M  V30 10222 N 962.243 0.219913 -1.56058 0
M  V30 10223 C 963.175 1.29604 -1.89038 0
M  V30 10224 C 964.188 1.42964 -0.778791 0
M  V30 10225 O 965.377 1.43832 -1.0571 0
M  V30 10226 C 962.477 2.67145 -2.08534 0
M  V30 10227 C 961.65 2.75712 -3.39561 0
M  V30 10228 C 960.709 3.94279 -3.48469 0
M  V30 10229 O 959.735 3.8254 -4.21487 0
M  V30 10230 N 960.937 5.08655 -2.79732 0
M  V30 10231 H 963.702 1.01638 -2.81939 0
M  V30 10232 H 961.263 0.409945 -1.56624 0
M  V30 10233 H 963.255 3.44847 -2.11808 0
M  V30 10234 H 961.825 2.87704 -1.2225 0
M  V30 10235 H 961.045 1.84475 -3.48371 0
M  V30 10236 H 962.333 2.78407 -4.25872 0
M  V30 10237 H 961.731 5.21088 -2.2019 0
M  V30 10238 H 960.288 5.84394 -2.88665 0
M  V30 10239 N 963.721 1.49897 0.486681 0
M  V30 10240 C 964.631 1.70379 1.6127 0
M  V30 10241 C 965.647 0.58659 1.63814 0
M  V30 10242 O 966.823 0.863044 1.81971 0
M  V30 10243 C 963.888 1.77911 2.97571 0
M  V30 10244 C 962.949 3.01569 3.0554 0
M  V30 10245 C 962.182 3.08732 4.35339 0
M  V30 10246 O 962.405 2.23099 5.2496 0
M  V30 10247 O 961.339 4.01325 4.48578 0
M  V30 10248 H 965.165 2.65799 1.46916 0
M  V30 10249 H 962.75 1.33808 0.664516 0
M  V30 10250 H 964.632 1.85135 3.78554 0
M  V30 10251 H 963.307 0.856722 3.12157 0
M  V30 10252 H 962.214 2.99854 2.23693 0
M  V30 10253 H 963.547 3.93335 2.95886 0
M  V30 10254 N 965.199 -0.738761 1.39212 0
M  V30 10255 C 966.146 -1.85273 1.37631 0
M  V30 10256 C 967.116 -1.64407 0.236572 0
M  V30 10257 O 968.301 -1.85866 0.431104 0
M  V30 10258 C 965.441 -3.22745 1.22188 0
M  V30 10259 C 964.554 -3.55342 2.45674 0
M  V30 10260 C 963.689 -4.82195 2.22847 0
M  V30 10261 C 962.728 -5.07625 3.42029 0
M  V30 10262 N 961.865 -6.25679 3.18543 0
M  V30 10263 H 966.705 -1.85959 2.32859 0
M  V30 10264 H 964.242 -0.908716 1.15675 0
M  V30 10265 H 966.2 -4.02095 1.11245 0
M  V30 10266 H 964.83 -3.21347 0.30592 0
M  V30 10267 H 963.882 -2.70722 2.67233 0
M  V30 10268 H 965.194 -3.70054 3.34457 0
M  V30 10269 H 964.348 -5.69518 2.09126 0
M  V30 10270 H 963.087 -4.6965 1.31454 0
M  V30 10271 H 962.092 -4.18765 3.56253 0
M  V30 10272 H 963.317 -5.22058 4.34319 0
M  V30 10273 H 961.263 -6.14429 2.2981 0
M  V30 10274 H 961.18 -6.40961 4.0088 0
M  V30 10275 H 962.448 -7.15851 3.08508 0
M  V30 10276 N 966.677 -1.24326 -0.968545 0
M  V30 10277 C 967.954 -0.990459 -1.68669 0
M  V30 10278 C 968.334 0.487487 -2.05394 0
M  V30 10279 O 967.682 1.46158 -1.75642 0
M  V30 10280 C 967.892 -1.91251 -2.91931 0
M  V30 10281 C 969.24 -2.18291 -3.6419 0
M  V30 10282 O 970.264 -1.88897 -3.01987 0
M  V30 10283 O 969.123 -2.68204 -4.76161 0
M  V30 10284 H 966.217 -0.374515 -0.737338 0
M  V30 10285 H 968.763 -1.35421 -1.02271 0
M  V30 10286 H 967.535 -2.9111 -2.61478 0
M  V30 10287 H 967.158 -1.55188 -3.66064 0
M  V30 10288 N 968.156 1.1691 -1.05688 0
M  V30 10289 C 969.405 1.86629 -0.765022 0
M  V30 10290 C 969.718 1.82223 0.710918 0
M  V30 10291 O 970.924 2.47462 1.11691 0
M  V30 10292 C 969.38 3.34886 -1.3183 0
M  V30 10293 C 968.988 3.47781 -2.82404 0
M  V30 10294 C 970.732 4.099 -1.10372 0
M  V30 10295 C 968.639 4.9009 -3.31008 0
M  V30 10296 H 967.569 0.699082 -0.282491 0
M  V30 10297 H 970.22 1.31989 -1.27481 0
M  V30 10298 H 968.602 3.89094 -0.736312 0
M  V30 10299 H 969.776 3.03765 -3.46502 0
M  V30 10300 H 968.091 2.86193 -3.02461 0
M  V30 10301 H 970.688 5.14894 -1.4418 0
M  V30 10302 H 971.031 4.16279 -0.0417372 0
M  V30 10303 H 971.564 3.61913 -1.65117 0
M  V30 10304 H 968.303 4.88887 -4.36657 0
M  V30 10305 H 967.823 5.34756 -2.71655 0
M  V30 10306 H 969.502 5.58881 -3.25977 0
M  V30 10307 N 969.634 0.838594 1.33437 0
M  V30 10308 C 970.582 0.260158 2.31141 0
M  V30 10309 C 971.576 -0.607706 1.58124 0
M  V30 10310 O 972.782 -0.497298 1.72994 0
M  V30 10311 H 969.157 0.0654031 0.74915 0
M  V30 10312 H 971.128 1.09874 2.77435 0
M  V30 10313 C 969.877 -0.550234 3.43319 0
M  V30 10314 H 969.2 0.108262 3.99653 0
M  V30 10315 H 970.64 -0.920815 4.1388 0
M  V30 10316 C 969.099 -1.729 2.89149 0
M  V30 10317 O 969.629 -2.82769 2.85315 0
M  V30 10318 N 967.835 -1.5508 2.45761 0
M  V30 10319 H 967.382 -0.657055 2.49079 0
M  V30 10320 H 967.34 -2.34099 2.0987 0
M  V30 10321 N 971.112 -1.45937 0.595003 0
M  V30 10322 C 972.075 -2.2888 -0.121102 0
M  V30 10323 C 973.075 -1.39075 -0.807149 0
M  V30 10324 O 974.265 -1.61326 -0.657228 0
M  V30 10325 C 971.397 -3.19778 -1.1813 0
M  V30 10326 H 972.59 -2.93673 0.607968 0
M  V30 10327 H 970.143 -1.5225 0.353495 0
M  V30 10328 H 970.878 -2.59759 -1.94154 0
M  V30 10329 H 970.663 -3.85914 -0.693724 0
M  V30 10330 H 972.153 -3.82176 -1.68319 0
M  V30 10331 N 972.59 -0.333456 -1.54032 0
M  V30 10332 C 973.815 0.270517 -2.05628 0
M  V30 10333 C 974.24 1.44231 -1.20744 0
M  V30 10334 O 973.598 1.79975 -0.218822 0
M  V30 10335 C 973.646 0.673251 -3.54259 0
M  V30 10336 O 972.75 1.77448 -3.72271 0
M  V30 10337 H 972.091 0.0469753 -0.662336 0
M  V30 10338 H 974.621 -0.484739 -1.98775 0
M  V30 10339 H 974.631 0.953194 -3.96709 0
M  V30 10340 H 973.306 -0.183747 -4.15494 0
M  V30 10341 H 971.883 1.49259 -3.41725 0
M  V30 10342 N 974.068 1.57479 -0.061844 0
M  V30 10343 C 974.978 2.15645 0.923826 0
M  V30 10344 C 975.994 1.117 1.33413 0
M  V30 10345 O 977.17 1.4392 1.40887 0
M  V30 10346 C 974.235 2.69857 2.17665 0
M  V30 10347 C 973.296 3.88638 1.8237 0
M  V30 10348 C 972.529 4.40256 3.01679 0
M  V30 10349 O 972.752 3.90908 4.15388 0
M  V30 10350 O 971.686 5.31713 2.82073 0
M  V30 10351 H 975.512 3.0021 0.459094 0
M  V30 10352 H 973.097 1.48534 0.160665 0
M  V30 10353 H 974.979 3.04647 2.9115 0
M  V30 10354 H 973.654 1.88357 2.63255 0
M  V30 10355 H 972.561 3.58719 1.06167 0
M  V30 10356 H 973.894 4.71401 1.4157 0
M  V30 10357 N 975.546 -0.211634 1.56173 0
M  V30 10358 C 976.494 -1.28188 1.94089 0
M  V30 10359 C 977.488 -1.47999 0.824167 0
M  V30 10360 O 978.694 -1.49056 1.00907 0
M  V30 10361 H 975.069 -0.42999 0.616938 0
M  V30 10362 H 977.04 -0.934962 2.83374 0
M  V30 10363 C 975.789 -2.62294 2.28248 0
M  V30 10364 H 975.112 -2.4786 3.13696 0
M  V30 10365 H 976.552 -3.35967 2.58655 0
M  V30 10366 C 975.011 -3.18049 1.11113 0
M  V30 10367 O 975.541 -3.99923 0.377458 0
M  V30 10368 N 973.747 -2.76561 0.892321 0
M  V30 10369 H 973.294 -2.10088 1.49067 0
M  V30 10370 H 973.252 -3.14206 0.110344 0
M  V30 10371 N 977.024 -1.50153 -0.478725 0
M  V30 10372 C 978.272 -1.60443 -1.22892 0
M  V30 10373 C 978.593 -0.303276 -1.92627 0
M  V30 10374 O 977.863 0.678798 -1.83764 0
M  V30 10375 H 976.443 -0.591205 -0.456602 0
M  V30 10376 H 979.105 -1.86893 -0.552905 0
M  V30 10377 H 978.201 -2.41175 -1.98094 0
M  V30 10378 N 978.502 0.731368 -1.39602 0
M  V30 10379 C 979.727 1.52567 -1.40492 0
M  V30 10380 C 980.152 1.881 -0.00228828 0
M  V30 10381 O 979.51 1.52167 0.985643 0
M  V30 10382 C 979.558 2.78749 -2.2876 0
M  V30 10383 O 978.662 3.7482 -1.71999 0
M  V30 10384 H 978.003 0.460601 -0.478271 0
M  V30 10385 H 980.533 0.902042 -1.83642 0
M  V30 10386 H 980.543 3.27446 -2.43399 0
M  V30 10387 H 979.218 2.5222 -3.30693 0
M  V30 10388 H 977.795 3.33604 -1.66622 0
M  V30 10389 N 979.98 1.24838 0.961938 0
M  V30 10390 C 981.226 1.09313 1.70817 0
M  V30 10391 C 981.559 -0.366244 1.90715 0
M  V30 10392 O 980.834 -1.27036 1.47282 0
M  V30 10393 C 981.117 1.83988 3.09549 0
M  V30 10394 C 980.97 3.3771 2.97106 0
M  V30 10395 C 982.289 1.61718 4.09311 0
M  V30 10396 H 979.408 0.398498 0.619974 0
M  V30 10397 H 982.05 1.53579 1.11864 0
M  V30 10398 H 980.2 1.46363 3.59875 0
M  V30 10399 H 981.872 3.84967 2.54161 0
M  V30 10400 H 980.115 3.65795 2.33187 0
M  V30 10401 H 980.786 3.85166 3.95412 0
M  V30 10402 H 983.262 1.94458 3.67866 0
M  V30 10403 H 982.138 2.16415 5.04436 0
M  V30 10404 H 982.399 0.55677 4.3858 0
M  V30 10405 N 981.458 -1.16348 1.06306 0
M  V30 10406 C 982.391 -2.19667 0.618197 0
M  V30 10407 C 983.369 -1.58586 -0.359078 0
M  V30 10408 O 984.553 -1.86585 -0.268023 0
M  V30 10409 C 981.68 -3.3857 -0.0937091 0
M  V30 10410 C 980.726 -4.18139 0.840339 0
M  V30 10411 S 981.559 -4.81879 2.33565 0
M  V30 10412 C 982.715 -6.04161 1.63524 0
M  V30 10413 H 982.948 -2.57063 1.49352 0
M  V30 10414 H 980.481 -1.27141 0.876046 0
M  V30 10415 H 982.439 -4.07465 -0.498227 0
M  V30 10416 H 981.1 -2.9954 -0.94523 0
M  V30 10417 H 980.293 -5.03172 0.288781 0
M  V30 10418 H 979.895 -3.54739 1.18474 0
M  V30 10419 H 982.187 -6.70935 0.940904 0
M  V30 10420 H 983.13 -6.63866 2.46347 0
M  V30 10421 H 983.538 -5.53323 1.11778 0
M  V30 10422 N 982.937 -0.845659 -1.3299 0
M  V30 10423 C 984.214 -0.366306 -1.92139 0
M  V30 10424 C 984.594 1.14912 -1.77083 0
M  V30 10425 O 983.942 1.96667 -1.16338 0
M  V30 10426 C 984.152 -0.820716 -3.39213 0
M  V30 10427 C 985.5 -0.832667 -4.16355 0
M  V30 10428 O 986.524 -0.764764 -3.47893 0
M  V30 10429 O 985.383 -0.926658 -5.38586 0
M  V30 10430 H 982.477 -0.105063 -0.820299 0
M  V30 10431 H 985.023 -0.931962 -1.41819 0
M  V30 10432 H 983.795 -1.86357 -3.44074 0
M  V30 10433 H 983.418 -0.232009 -3.96923 0
M  V30 10434 N 984.415 1.45619 -0.602734 0
M  V30 10435 C 985.325 2.34288 0.120902 0
M  V30 10436 C 986.341 1.50952 0.865414 0
M  V30 10437 O 987.517 1.83768 0.824094 0
M  V30 10438 C 984.582 3.28489 1.10888 0
M  V30 10439 C 983.643 4.2773 0.366853 0
M  V30 10440 C 982.876 5.17429 1.30776 0
M  V30 10441 O 983.099 5.10459 2.54535 0
M  V30 10442 O 982.033 5.96459 0.807464 0
M  V30 10443 H 985.859 2.97559 -0.60765 0
M  V30 10444 H 983.444 1.44922 -0.363019 0
M  V30 10445 H 985.326 3.86549 1.67803 0
M  V30 10446 H 984.001 2.67789 1.81854 0
M  V30 10447 H 982.908 3.73299 -0.244643 0
M  V30 10448 H 984.241 4.91271 -0.302226 0
M  V30 10449 N 985.893 0.34162 1.53853 0
M  V30 10450 C 986.856 -0.503541 2.236 0
M  V30 10451 C 987.856 -1.02912 1.23554 0
M  V30 10452 O 989.046 -0.918678 1.48007 0
M  V30 10453 C 986.178 -1.70126 2.95415 0
M  V30 10454 H 987.371 0.106437 2.99711 0
M  V30 10455 H 984.924 0.0929408 1.56023 0
M  V30 10456 H 985.659 -2.34999 2.23486 0
M  V30 10457 H 985.444 -1.33161 3.68796 0
M  V30 10458 H 986.934 -2.30077 3.48503 0
M  V30 10459 N 987.371 -1.57444 0.0701946 0
M  V30 10460 C 988.319 -2.13834 -0.915302 0
M  V30 10461 C 989.313 -1.07483 -1.30934 0
M  V30 10462 O 990.519 -1.25865 -1.28678 0
M  V30 10463 H 986.894 -0.683716 -0.313108 0
M  V30 10464 H 988.865 -2.95503 -0.414758 0
M  V30 10465 C 987.614 -2.71355 -2.17398 0
M  V30 10466 H 986.937 -3.52861 -1.87961 0
M  V30 10467 H 988.377 -3.1441 -2.84469 0
M  V30 10468 C 986.836 -1.66038 -2.93143 0
M  V30 10469 O 987.366 -1.08443 -3.86786 0
M  V30 10470 N 985.572 -1.3711 -2.56221 0
M  V30 10471 H 985.119 -1.84135 -1.80145 0
M  V30 10472 H 985.077 -0.66877 -3.07205 0
M  V30 10473 N 988.849 0.203349 -1.56283 0
M  V30 10474 C 989.779 1.2549 -1.96912 0
M  V30 10475 C 990.76 1.47919 -0.839884 0
M  V30 10476 O 991.945 1.59795 -1.10359 0
M  V30 10477 C 989.075 2.6009 -2.30153 0
M  V30 10478 C 988.029 2.52289 -3.45738 0
M  V30 10479 C 987.355 3.91086 -3.64632 0
M  V30 10480 C 988.655 2.05503 -4.80173 0
M  V30 10481 H 990.349 0.917306 -2.85002 0
M  V30 10482 H 987.895 0.439818 -1.37119 0
M  V30 10483 H 989.848 3.33829 -2.5717 0
M  V30 10484 H 988.572 2.95574 -1.38937 0
M  V30 10485 H 987.231 1.81006 -3.18798 0
M  V30 10486 H 986.879 4.23908 -2.7076 0
M  V30 10487 H 986.579 3.86742 -4.42385 0
M  V30 10488 H 988.103 4.66459 -3.94016 0
M  V30 10489 H 989.517 2.68995 -5.06275 0
M  V30 10490 H 987.914 2.1218 -5.61337 0
M  V30 10491 H 988.984 1.00793 -4.74309 0
M  V30 10492 N 990.327 1.50405 0.470755 0
M  V30 10493 C 991.237 1.7208 1.59454 0
M  V30 10494 C 992.253 0.603932 1.63183 0
M  V30 10495 O 993.429 0.882296 1.81046 0
M  V30 10496 C 990.494 1.81057 2.95667 0
M  V30 10497 C 989.555 3.04792 3.02324 0
M  V30 10498 C 988.788 3.13332 4.3204 0
M  V30 10499 O 989.011 2.28655 5.22564 0
M  V30 10500 O 987.945 4.0606 4.44296 0
M  V30 10501 H 991.771 2.67343 1.44089 0
M  V30 10502 H 989.356 1.34505 0.650286 0
M  V30 10503 H 991.238 1.8914 3.76569 0
M  V30 10504 H 989.913 0.889782 3.11231 0
M  V30 10505 H 988.82 3.0221 2.205 0
M  V30 10506 H 990.153 3.96451 2.91698 0
M  V30 10507 N 991.805 -0.723954 1.39988 0
M  V30 10508 C 993.03 -1.5182 1.41299 0
M  V30 10509 C 993.455 -1.88096 0.0122636 0
M  V30 10510 O 992.813 -1.52687 -0.977559 0
M  V30 10511 C 992.861 -2.77532 2.30235 0
M  V30 10512 O 991.965 -3.73903 1.73984 0
M  V30 10513 H 991.306 -0.458058 0.480707 0
M  V30 10514 H 993.836 -0.892291 1.84118 0
M  V30 10515 H 993.846 -3.2615 2.45132 0
M  V30 10516 H 992.521 -2.50462 3.32026 0
M  V30 10517 H 991.098 -3.32715 1.68389 0
M  V30 10518 N 993.283 -1.25346 -0.955304 0
M  V30 10519 C 994.213 -1.08152 -2.06943 0
M  V30 10520 C 995.194 0.00922598 -1.70097 0
M  V30 10521 O 996.379 -0.160181 -1.93538 0
M  V30 10522 C 993.509 -0.698745 -3.40198 0
M  V30 10523 C 992.463 -1.73965 -3.9105 0
M  V30 10524 C 991.789 -1.21158 -5.20792 0
M  V30 10525 C 993.089 -3.13829 -4.17503 0
M  V30 10526 H 994.783 -2.01345 -2.21586 0
M  V30 10527 H 992.329 -0.969459 -1.06478 0
M  V30 10528 H 994.282 -0.565394 -4.1759 0
M  V30 10529 H 993.006 0.268892 -3.25491 0
M  V30 10530 H 991.665 -1.86143 -3.15827 0
M  V30 10531 H 991.313 -0.234193 -5.02455 0
M  V30 10532 H 991.013 -1.90728 -5.55785 0
M  V30 10533 H 992.537 -1.09061 -6.00781 0
M  V30 10534 H 993.951 -3.04809 -4.85556 0
M  V30 10535 H 992.348 -3.80863 -4.63749 0
M  V30 10536 H 993.418 -3.6094 -3.23806 0
M  V30 10537 N 994.761 1.15782 -1.06922 0
M  V30 10538 C 995.709 2.22441 -0.679893 0
M  V30 10539 C 996.703 1.66591 0.307221 0
M  V30 10540 O 997.909 1.79182 0.171402 0
M  V30 10541 H 994.284 0.724427 -0.201765 0
M  V30 10542 H 996.255 2.52562 -1.58918 0
M  V30 10543 C 995.004 3.47586 -0.0891142 0
M  V30 10544 H 994.327 3.9088 -0.839805 0
M  V30 10545 H 995.767 4.2375 0.14569 0
M  V30 10546 C 994.226 3.15967 1.16903 0
M  V30 10547 O 994.756 3.32359 2.25611 0
M  V30 10548 N 992.962 2.70046 1.07349 0
M  V30 10549 H 992.509 2.56907 0.188825 0
M  V30 10550 H 992.467 2.49264 1.91611 0
M  V30 10551 N 996.239 0.8527 1.3254 0
M  V30 10552 C 997.186 0.293905 2.28921 0
M  V30 10553 C 998.156 -0.598027 1.54961 0
M  V30 10554 O 999.341 -0.533355 1.83194 0
M  V30 10555 C 996.481 -0.513361 3.4126 0
M  V30 10556 C 995.594 0.404144 4.30105 0
M  V30 10557 C 994.729 -0.415564 5.29572 0
M  V30 10558 C 993.768 0.499461 6.10059 0
M  V30 10559 N 992.905 -0.282949 7.0153 0
M  V30 10560 H 997.745 1.12107 2.76109 0
M  V30 10561 H 995.282 0.564272 1.35847 0
M  V30 10562 H 997.24 -0.997008 4.05112 0
M  V30 10563 H 995.87 -1.30537 2.95229 0
M  V30 10564 H 994.922 1.00617 3.66852 0
M  V30 10565 H 996.234 1.10648 4.86373 0
M  V30 10566 H 995.388 -0.962458 5.99017 0
M  V30 10567 H 994.127 -1.15127 4.73917 0
M  V30 10568 H 993.132 1.05825 5.39519 0
M  V30 10569 H 994.357 1.23375 6.67799 0
M  V30 10570 H 992.303 -1.00179 6.48306 0
M  V30 10571 H 992.22 0.36039 7.55141 0
M  V30 10572 H 993.488 -0.811632 7.75263 0
M  V30 10573 N 997.718 -1.45297 0.610449 0
M  V30 10574 C 998.666 -2.32295 -0.119167 0
M  V30 10575 C 999.66 -1.46138 -0.856746 0
M  V30 10576 O 1000.87 -1.62605 -0.771988 0
M  V30 10577 H 997.241 -0.749815 -0.0572881 0
M  V30 10578 H 999.212 -2.91609 0.63297 0
M  V30 10579 C 997.961 -3.29802 -1.10119 0
M  V30 10580 H 997.284 -3.96095 -0.543063 0
M  V30 10581 H 998.724 -3.93398 -1.58158 0
M  V30 10582 C 997.183 -2.57185 -2.17617 0
M  V30 10583 O 997.713 -2.35535 -3.25401 0
M  V30 10584 N 995.919 -2.17272 -1.9298 0
M  V30 10585 H 995.466 -2.3508 -1.05334 0
M  V30 10586 H 995.424 -1.69009 -2.6511 0
M  V30 10587 N 999.196 -0.349774 -1.5367 0
M  V30 10588 C 1000.14 0.504121 -2.25227 0
M  V30 10589 C 1001.11 1.09048 -1.2529 0
M  V30 10590 O 1002.3 1.12594 -1.54037 0
M  V30 10591 C 999.438 1.64601 -3.03316 0
M  V30 10592 C 998.551 1.08635 -4.18118 0
M  V30 10593 C 997.686 2.19605 -4.83681 0
M  V30 10594 C 996.725 1.61023 -5.90541 0
M  V30 10595 N 995.862 2.6576 -6.49858 0
M  V30 10596 H 1000.7 -0.112621 -2.97787 0
M  V30 10597 H 998.239 -0.0673503 -1.46946 0
M  V30 10598 H 1000.2 2.31836 -3.46854 0
M  V30 10599 H 998.827 2.23364 -2.33041 0
M  V30 10600 H 997.879 0.304748 -3.79177 0
M  V30 10601 H 999.191 0.617911 -4.94958 0
M  V30 10602 H 998.345 2.94693 -5.30322 0
M  V30 10603 H 997.084 2.69795 -4.06278 0
M  V30 10604 H 996.089 0.844428 -5.43277 0
M  V30 10605 H 997.314 1.11677 -6.69855 0
M  V30 10606 H 995.26 3.15193 -5.75317 0
M  V30 10607 H 995.177 2.23557 -7.2219 0
M  V30 10608 H 996.445 3.40598 -7.01151 0
M  V30 10609 N 1000.67 1.57404 -0.0785433 0
M  V30 10610 C 1001.62 2.09632 0.896565 0
M  V30 10611 C 1002.61 1.00754 1.25449 0
M  V30 10612 O 1003.8 1.27053 1.23234 0
M  V30 10613 C 1000.93 2.66694 2.16169 0
M  V30 10614 C 1000.01 3.82588 1.82994 0
M  V30 10615 N 1000.41 4.91286 1.203 0
M  V30 10616 C 998.704 3.92011 2.12704 0
M  V30 10617 C 999.405 5.72077 1.05367 0
M  V30 10618 N 998.381 5.20567 1.56559 0
M  V30 10619 H 1002.18 2.9106 0.407621 0
M  V30 10620 H 999.697 1.61917 0.125155 0
M  V30 10621 H 1001.69 3.0243 2.86952 0
M  V30 10622 H 1000.35 1.86716 2.65645 0
M  V30 10623 H 1001.36 5.10509 0.871817 0
M  V30 10624 H 998.042 3.23018 2.6451 0
M  V30 10625 H 999.432 6.69523 0.564685 0
M  V30 10626 N 1002.15 -0.195058 1.56388 0
M  V30 10627 C 1003.4 -0.915444 1.80626 0
M  V30 10628 C 1003.73 -1.83255 0.651768 0
M  V30 10629 O 1002.98 -1.92314 -0.362464 0
M  V30 10630 C 1003.28 -1.7637 3.10851 0
M  V30 10631 C 1002.95 -0.997572 4.39726 0
M  V30 10632 C 1001.61 -0.786043 4.74737 0
M  V30 10633 C 1003.96 -0.45851 5.19179 0
M  V30 10634 C 1001.29 -0.023972 5.86695 0
M  V30 10635 C 1003.64 0.29035 6.31933 0
M  V30 10636 C 1002.3 0.512895 6.65527 0
M  V30 10637 H 1001.57 -0.334985 0.660959 0
M  V30 10638 H 1004.22 -0.181815 1.90635 0
M  V30 10639 H 1002.53 -2.566 2.9608 0
M  V30 10640 H 1004.22 -2.3237 3.26811 0
M  V30 10641 H 1000.81 -1.17245 4.12252 0
M  V30 10642 H 1005 -0.609334 4.92545 0
M  V30 10643 H 1000.25 0.158421 6.11195 0
M  V30 10644 H 1004.43 0.715429 6.92715 0
M  V30 10645 H 1002.05 1.10531 7.52122 0
M  V30 10646 N 1003.63 -1.50653 -0.462772 0
M  V30 10647 C 1004.88 -1.62297 -1.21603 0
M  V30 10648 C 1005.21 -0.326191 -1.91441 0
M  V30 10649 O 1004.48 0.67284 -1.82491 0
M  V30 10650 C 1004.77 -2.80901 -2.25315 0
M  V30 10651 C 1004.62 -4.20484 -1.59728 0
M  V30 10652 C 1005.94 -2.95049 -3.26549 0
M  V30 10653 H 1003.06 -0.590691 -0.440741 0
M  V30 10654 H 1005.7 -1.83064 -0.508675 0
M  V30 10655 H 1003.85 -2.63325 -2.85643 0
M  V30 10656 H 1005.52 -4.49669 -1.02932 0
M  V30 10657 H 1003.76 -4.24357 -0.900181 0
M  V30 10658 H 1004.44 -4.99416 -2.35133 0
M  V30 10659 H 1006.91 -3.11166 -2.76251 0
M  V30 10660 H 1005.79 -3.79645 -3.96435 0
M  V30 10661 H 1006.05 -2.06019 -3.91163 0
M  V30 10662 N 1005.11 0.71652 -1.4037 0
M  V30 10663 C 1006.52 1.29562 -1.34427 0
M  V30 10664 C 1006.87 1.96192 -0.0173106 0
M  V30 10665 O 1006 1.97488 0.884719 0
M  V30 10666 C 1006.59 2.35601 -2.4347 0
M  V30 10667 C 1005.15 2.89138 -2.4099 0
M  V30 10668 C 1004.3 1.62915 -2.24397 0
M  V30 10669 H 1007.25 0.512715 -1.5019 0
M  V30 10670 H 1007.27 3.16422 -2.11323 0
M  V30 10671 H 1006.78 1.87077 -3.40035 0
M  V30 10672 H 1004.88 3.41894 -1.4812 0
M  V30 10673 H 1004.99 3.40995 -3.3654 0
M  V30 10674 H 1003.36 1.87947 -1.71896 0
M  V30 10675 H 1004.14 1.16417 -3.22958 0
M  V30 10676 N 1006.59 1.25851 0.948643 0
M  V30 10677 C 1007.81 1.13813 1.73382 0
M  V30 10678 C 1008.24 -0.303615 1.85633 0
M  V30 10679 O 1007.59 -1.21997 1.34114 0
M  V30 10680 C 1007.64 1.80388 3.12238 0
M  V30 10681 O 1006.75 1.08759 3.978 0
M  V30 10682 H 1006.09 0.397006 0.532243 0
M  V30 10683 H 1008.62 1.66529 1.18866 0
M  V30 10684 H 1008.63 1.86913 3.62667 0
M  V30 10685 H 1007.3 2.85278 3.02637 0
M  V30 10686 H 1005.88 1.10157 3.56258 0
M  V30 10687 N 1008.06 -1.15214 1.07534 0
M  V30 10688 C 1009.03 -2.18209 0.701237 0
M  V30 10689 C 1010.03 -1.58693 -0.25946 0
M  V30 10690 O 1011.22 -1.74154 -0.0401744 0
M  V30 10691 C 1008.35 -3.40883 0.0338703 0
M  V30 10692 H 1009.54 -2.5282 1.61314 0
M  V30 10693 H 1007.1 -1.29707 0.872105 0
M  V30 10694 H 1007.83 -3.11843 -0.890187 0
M  V30 10695 H 1007.62 -3.85342 0.72486 0
M  V30 10696 H 1009.11 -4.17056 -0.213152 0
M  V30 10697 N 1009.54 -0.859717 -1.32086 0
M  V30 10698 C 1010.79 -0.464662 -1.96686 0
M  V30 10699 C 1011.11 0.98412 -1.68345 0
M  V30 10700 O 1010.38 1.68847 -0.993361 0
M  V30 10701 H 1008.96 -0.168838 -0.727669 0
M  V30 10702 H 1011.62 -1.09726 -1.61079 0
M  V30 10703 H 1010.72 -0.613904 -3.06003 0
M  V30 10704 N 1011.02 1.44971 -0.618145 0
M  V30 10705 C 1011.98 2.29044 0.0846739 0
M  V30 10706 C 1012.98 1.40341 0.784921 0
M  V30 10707 O 1014.17 1.62351 0.631479 0
M  V30 10708 C 1011.31 3.21617 1.13027 0
M  V30 10709 H 1012.5 2.92668 -0.654612 0
M  V30 10710 H 1010.05 1.51668 -0.377672 0
M  V30 10711 H 1010.79 2.62815 1.89997 0
M  V30 10712 H 1010.57 3.86969 0.63224 0
M  V30 10713 H 1012.06 3.84805 1.62218 0
M  V30 10714 N 1012.5 0.357919 1.53482 0
M  V30 10715 C 1013.78 -0.290164 1.93436 0
M  V30 10716 C 1014.16 -1.67039 1.29079 0
M  V30 10717 O 1013.5 -2.24085 0.447017 0
M  V30 10718 C 1013.71 -0.348055 3.4726 0
M  V30 10719 C 1015.06 -0.59206 4.20452 0
M  V30 10720 O 1016.09 -0.429581 3.536 0
M  V30 10721 O 1014.94 -0.907855 5.38907 0
M  V30 10722 H 1012.04 -0.172312 0.80885 0
M  V30 10723 H 1014.58 0.410144 1.64669 0
M  V30 10724 H 1013.36 0.619953 3.86358 0
M  V30 10725 H 1012.98 -1.09457 3.82237 0
M  V30 10726 N 1013.98 -1.5736 0.0868897 0
M  V30 10727 C 1015.2 -1.98809 -0.590757 0
M  V30 10728 C 1015.63 -0.965407 -1.61436 0
M  V30 10729 O 1014.98 0.067143 -1.81176 0
M  V30 10730 C 1015.03 -3.39249 -1.22238 0
M  V30 10731 O 1014.14 -3.39706 -2.33824 0
M  V30 10732 H 1013.48 -0.64669 -0.150626 0
M  V30 10733 H 1016.01 -2.03927 0.165873 0
M  V30 10734 H 1016.02 -3.76765 -1.56564 0
M  V30 10735 H 1014.69 -4.13208 -0.472434 0
M  V30 10736 H 1013.27 -3.13977 -2.01178 0
M  V30 10737 N 1015.45 0.186762 -1.56489 0
M  V30 10738 C 1016.36 1.25169 -1.98419 0
M  V30 10739 C 1017.38 1.49329 -0.893124 0
M  V30 10740 O 1018.56 1.61781 -1.19954 0
M  V30 10741 C 1015.62 2.57422 -2.32239 0
M  V30 10742 C 1014.68 2.4126 -3.55095 0
M  V30 10743 C 1013.92 3.67206 -3.87292 0
M  V30 10744 O 1014.14 4.71731 -3.20665 0
M  V30 10745 O 1013.07 3.62238 -4.80695 0
M  V30 10746 H 1016.9 0.925834 -2.89244 0
M  V30 10747 H 1014.48 0.392421 -1.44154 0
M  V30 10748 H 1016.37 3.35466 -2.5503 0
M  V30 10749 H 1015.04 2.89618 -1.44579 0
M  V30 10750 H 1013.95 1.61299 -3.37541 0
M  V30 10751 H 1015.28 2.13994 -4.43247 0
M  V30 10752 N 1016.93 1.50896 0.454776 0
M  V30 10753 C 1018.16 1.6648 1.22849 0
M  V30 10754 C 1018.58 0.354841 1.85435 0
M  V30 10755 O 1017.93 -0.664931 1.69956 0
M  V30 10756 C 1017.98 2.76787 2.32532 0
M  V30 10757 O 1017.7 4.02706 1.72509 0
M  V30 10758 C 1019.21 3.03488 3.23125 0
M  V30 10759 H 1016.43 0.559152 0.370932 0
M  V30 10760 H 1018.97 1.97215 0.540983 0
M  V30 10761 H 1017.12 2.48701 2.9703 0
M  V30 10762 H 1017.54 4.63834 2.44863 0
M  V30 10763 H 1019.01 3.84294 3.9626 0
M  V30 10764 H 1019.49 2.152 3.82865 0
M  V30 10765 H 1020.1 3.33167 2.64347 0
M  V30 10766 N 1018.41 -0.709066 1.40748 0
M  V30 10767 C 1019.36 -1.8149 1.38005 0
M  V30 10768 C 1020.34 -1.58842 0.256544 0
M  V30 10769 O 1021.54 -1.69904 0.496164 0
M  V30 10770 C 1018.67 -3.19678 1.25143 0
M  V30 10771 C 1017.75 -3.48067 2.42301 0
M  V30 10772 N 1018.14 -3.47234 3.6778 0
M  V30 10773 C 1016.44 -3.78555 2.35822 0
M  V30 10774 C 1017.14 -3.74149 4.45407 0
M  V30 10775 N 1016.12 -3.93224 3.75335 0
M  V30 10776 H 1019.92 -1.79188 2.32957 0
M  V30 10777 H 1017.43 -0.908477 1.34612 0
M  V30 10778 H 1019.43 -3.98875 1.2126 0
M  V30 10779 H 1018.09 -3.23201 0.311642 0
M  V30 10780 H 1019.1 -3.2793 4.00852 0
M  V30 10781 H 1015.78 -3.89529 1.50245 0
M  V30 10782 H 1017.17 -3.79755 5.54289 0
M  V30 10783 N 1019.89 -1.26353 -0.941956 0
M  V30 10784 C 1021.13 -1.13071 -1.70277 0
M  V30 10785 C 1021.49 0.320699 -1.89303 0
M  V30 10786 O 1022.69 0.575624 -2.62564 0
M  V30 10787 C 1020.97 -1.87777 -3.04096 0
M  V30 10788 S 1022.52 -1.9054 -3.95272 0
M  V30 10789 H 1019.34 -0.403912 -0.585129 0
M  V30 10790 H 1021.94 -1.6006 -1.12254 0
M  V30 10791 H 1020.65 -2.92447 -2.87929 0
M  V30 10792 H 1020.18 -1.41226 -3.67177 0
M  V30 10793 H 1022.19 -0.991548 -4.86192 0
M  V30 10794 O 1021.41 1.07557 -1.20473 0
M  V30 10795 H 1022.1 1.68291 -0.959058 0
M  V30 END ATOM
M  V30 BEGIN BOND
M  V30 END BOND
M  V30 END CTAB
M  END
$$$$
