drugbank_target|Q9Y6J6 Potassium voltage-gated channel subfamily E member 2 (DB00228; DB01069; DB01110)
 OpenBabel12092121213D

  0  0  0     0  0            999 V3000
M  V30 BEGIN CTAB
M  V30 COUNTS 2021 2043 0 0 0
M  V30 BEGIN ATOM
M  V30 1 H -0.908 1.98254 -0.117106 0
M  V30 2 N 0 1.576 0 0
M  V30 3 C 0.933 2.03868 1.02534 0
M  V30 4 C 1.911 0.928543 1.3348 0
M  V30 5 O 3.095 1.19667 1.45644 0
M  V30 6 C 0.222 2.43627 2.35294 0
M  V30 7 C -0.732 3.65373 2.2001 0
M  V30 8 S 0.101 5.13292 1.52614 0
M  V30 9 C 1.257 5.56322 2.86805 0
M  V30 10 H 1.49 2.90518 0.631377 0
M  V30 11 H -0.977 1.52953 0.210867 0
M  V30 12 H 0.981 2.67203 3.11629 0
M  V30 13 H -0.358 1.57376 2.7183 0
M  V30 14 H -1.165 3.90944 3.18086 0
M  V30 15 H -1.563 3.418 1.51819 0
M  V30 16 H 0.729 5.58782 3.83104 0
M  V30 17 H 1.672 6.56266 2.65933 0
M  V30 18 H 2.08 4.83886 2.90714 0
M  V30 19 N 1.4781 -0.272755 1.55222 0
M  V30 20 C 2.7031 -1.02683 1.80197 0
M  V30 21 C 3.1281 -1.79142 0.573551 0
M  V30 22 O 2.4861 -1.74917 -0.476849 0
M  V30 23 C 2.5341 -1.9609 3.02624 0
M  V30 24 O 1.6381 -3.04863 2.77727 0
M  V30 25 H 0.9791 -0.293557 0.595584 0
M  V30 26 H 3.5091 -0.30159 2.02365 0
M  V30 27 H 3.5191 -2.38039 3.31363 0
M  V30 28 H 2.1941 -1.39851 3.91682 0
M  V30 29 H 0.7711 -2.67228 2.60084 0
M  V30 30 N 2.9562 -1.48159 -0.537278 0
M  V30 31 C 4.1842 -1.59454 -1.31841 0
M  V30 32 C 4.5992 -0.252065 -1.8711 0
M  V30 33 O 3.9562 0.757621 -1.66031 0
M  V30 34 C 4.0072 -2.63546 -2.47439 0
M  V30 35 O 3.7282 -3.92583 -1.94449 0
M  V30 36 C 5.2292 -2.85212 -3.39366 0
M  V30 37 H 2.4492 -0.53785 -0.401196 0
M  V30 38 H 4.9932 -1.93932 -0.648891 0
M  V30 39 H 3.1482 -2.31946 -3.1029 0
M  V30 40 H 3.5622 -4.49629 -2.70063 0
M  V30 41 H 5.0362 -3.61863 -4.16844 0
M  V30 42 H 5.5132 -1.93765 -3.94147 0
M  V30 43 H 6.1192 -3.18086 -2.82314 0
M  V30 44 N 4.4343 0.785586 -1.36625 0
M  V30 45 C 5.3643 1.91259 -1.33949 0
M  V30 46 C 6.3453 1.68795 -0.210325 0
M  V30 47 O 7.5303 1.89854 -0.408561 0
M  V30 48 C 4.6603 3.28339 -1.13186 0
M  V30 49 C 3.6143 3.65335 -2.22967 0
M  V30 50 C 2.9403 5.00806 -1.87342 0
M  V30 51 C 4.2403 3.7352 -3.65075 0
M  V30 52 H 5.9343 1.93755 -2.28253 0
M  V30 53 H 3.4803 0.930788 -1.09874 0
M  V30 54 H 5.4333 4.06804 -1.09948 0
M  V30 55 H 4.1573 3.2624 -0.153332 0
M  V30 56 H 2.8163 2.89169 -2.25337 0
M  V30 57 H 2.4643 4.95233 -0.880545 0
M  V30 58 H 2.1643 5.26529 -2.60846 0
M  V30 59 H 3.6883 5.81687 -1.85667 0
M  V30 60 H 5.1023 4.42168 -3.64911 0
M  V30 61 H 3.4993 4.10731 -4.37516 0
M  V30 62 H 4.5693 2.74527 -3.99703 0
M  V30 63 N 5.9124 1.20967 1.01018 0
M  V30 64 C 7.1374 1.0503 1.78839 0
M  V30 65 C 7.5624 -0.395752 1.8389 0
M  V30 66 O 6.9204 -1.28529 1.27867 0
M  V30 67 C 6.9684 1.64602 3.2084 0
M  V30 68 O 6.0724 0.887988 4.02726 0
M  V30 69 H 5.4134 0.369987 0.551367 0
M  V30 70 H 7.9434 1.60399 1.27018 0
M  V30 71 H 7.9534 1.68607 3.71532 0
M  V30 72 H 6.6284 2.69841 3.16479 0
M  V30 73 H 5.2054 0.922648 3.61305 0
M  V30 74 N 7.3905 -1.2043 1.01659 0
M  V30 75 C 8.3385 -2.25249 0.580143 0
M  V30 76 C 9.3325 -1.65057 -0.381115 0
M  V30 77 O 10.5385 -1.78241 -0.251039 0
M  V30 78 H 6.9135 -0.732695 0.169299 0
M  V30 79 H 8.8845 -2.59389 1.47512 0
M  V30 80 C 7.6335 -3.47638 -0.065788 0
M  V30 81 H 6.9565 -3.94233 0.664874 0
M  V30 82 H 8.3965 -4.2268 -0.334282 0
M  V30 83 C 6.8555 -3.10447 -1.3086 0
M  V30 84 O 7.3855 -3.21981 -2.4019 0
M  V30 85 N 5.5915 -2.64996 -1.1927 0
M  V30 86 H 5.1385 -2.55811 -0.303064 0
M  V30 87 H 5.0965 -2.40482 -2.02523 0
M  V30 88 N 8.8686 -0.792821 -1.36206 0
M  V30 89 C 10.1156 -0.366786 -1.99151 0
M  V30 90 C 10.4436 1.06243 -1.62919 0
M  V30 91 O 9.6986 1.74927 -0.877442 0
M  V30 92 C 9.9976 -0.481501 -3.54142 0
M  V30 93 C 9.6636 -1.87202 -4.10203 0
M  V30 94 C 8.3256 -2.25248 -4.25226 0
M  V30 95 C 10.6776 -2.78237 -4.40719 0
M  V30 96 C 8.0056 -3.53723 -4.68078 0
M  V30 97 C 10.3576 -4.06144 -4.85005 0
M  V30 98 C 9.0216 -4.44207 -4.98234 0
M  V30 99 H 8.2916 -0.134217 -0.728743 0
M  V30 100 H 10.9386 -1.01094 -1.62641 0
M  V30 101 H 9.2436 0.246146 -3.91026 0
M  V30 102 H 10.9406 -0.132844 -4.0078 0
M  V30 103 H 7.5306 -1.56639 -3.98951 0
M  V30 104 H 11.7146 -2.50097 -4.28679 0
M  V30 105 H 6.9706 -3.8308 -4.76508 0
M  V30 106 H 11.1446 -4.76796 -5.07581 0
M  V30 107 H 8.7716 -5.43814 -5.31197 0
M  V30 108 N 10.3467 1.47872 -0.545128 0
M  V30 109 C 11.5747 2.06889 -0.021084 0
M  V30 110 C 11.9897 1.39955 1.2672 0
M  V30 111 O 11.3467 0.492036 1.75742 0
M  V30 112 C 11.3977 3.60996 0.190817 0
M  V30 113 O 11.1187 4.25419 -1.04644 0
M  V30 114 C 12.6197 4.36849 0.753521 0
M  V30 115 H 9.8397 0.669785 -0.0403635 0
M  V30 116 H 12.3837 1.90049 -0.755095 0
M  V30 117 H 10.5387 3.77391 0.87492 0
M  V30 118 H 10.9527 5.17785 -0.836611 0
M  V30 119 H 12.4267 5.45399 0.851139 0
M  V30 120 H 12.9037 4.02306 1.762 0
M  V30 121 H 13.5097 4.25169 0.105503 0
M  V30 122 N 11.8248 0.280983 1.55075 0
M  V30 123 C 12.7568 -0.637268 2.20163 0
M  V30 124 C 13.7698 -1.11298 1.18813 0
M  V30 125 O 14.9588 -1.03388 1.4551 0
M  V30 126 C 12.0588 -1.88199 2.81841 0
M  V30 127 C 11.2318 -1.55211 4.08936 0
M  V30 128 C 10.2908 -2.64991 4.54606 0
M  V30 129 O 9.3168 -2.30929 5.2025 0
M  V30 130 N 10.5188 -3.95161 4.25238 0
M  V30 131 H 13.2838 -0.0801694 2.99593 0
M  V30 132 H 10.8448 0.102329 1.61576 0
M  V30 133 H 12.8368 -2.60948 3.09335 0
M  V30 134 H 11.4068 -2.34799 2.06369 0
M  V30 135 H 10.6268 -0.658185 3.88666 0
M  V30 136 H 11.9148 -1.30681 4.91732 0
M  V30 137 H 11.3128 -4.25653 3.72607 0
M  V30 138 H 9.8698 -4.6427 4.5749 0
M  V30 139 N 13.3029 -1.57598 0.00835791 0
M  V30 140 C 14.5309 -1.95214 -0.68549 0
M  V30 141 C 14.9459 -0.883706 -1.66841 0
M  V30 142 O 14.3029 0.136565 -1.81988 0
M  V30 143 C 14.3539 -3.32865 -1.41007 0
M  V30 144 O 14.0749 -4.35609 -0.466552 0
M  V30 145 C 15.5759 -3.84991 -2.19765 0
M  V30 146 H 12.7959 -0.643422 -0.190392 0
M  V30 147 H 15.3399 -2.04406 0.0619607 0
M  V30 148 H 13.4949 -3.24956 -2.10908 0
M  V30 149 H 13.9089 -5.15288 -0.978699 0
M  V30 150 H 15.3829 -4.8371 -2.65948 0
M  V30 151 H 15.8599 -3.18137 -3.02796 0
M  V30 152 H 16.4659 -3.96103 -1.54864 0
M  V30 153 N 14.781 0.264519 -1.55364 0
M  V30 154 C 15.711 1.33121 -1.91836 0
M  V30 155 C 16.692 1.51101 -0.781192 0
M  V30 156 O 17.877 1.64003 -1.04003 0
M  V30 157 C 15.007 2.68921 -2.19769 0
M  V30 158 C 13.961 2.65661 -3.35571 0
M  V30 159 C 13.287 4.05093 -3.49004 0
M  V30 160 C 14.587 2.24187 -4.71739 0
M  V30 161 H 16.281 1.02844 -2.81182 0
M  V30 162 H 13.827 0.493286 -1.35287 0
M  V30 163 H 15.78 3.43663 -2.43872 0
M  V30 164 H 14.504 3.00799 -1.27231 0
M  V30 165 H 13.163 1.93377 -3.1145 0
M  V30 166 H 12.811 4.34206 -2.53917 0
M  V30 167 H 12.511 4.03804 -4.26868 0
M  V30 168 H 14.035 4.81561 -3.75408 0
M  V30 169 H 15.449 2.88654 -4.9533 0
M  V30 170 H 13.846 2.34044 -5.52579 0
M  V30 171 H 14.916 1.19327 -4.69988 0
M  V30 172 N 16.2591 1.48442 0.529413 0
M  V30 173 C 17.1691 1.6569 1.66084 0
M  V30 174 C 18.1851 0.539432 1.65427 0
M  V30 175 O 19.3611 0.810572 1.84368 0
M  V30 176 C 16.4261 1.69315 3.02545 0
M  V30 177 C 15.4871 2.92694 3.14052 0
M  V30 178 C 14.7201 2.96137 4.44003 0
M  V30 179 O 14.9431 2.07973 5.31134 0
M  V30 180 O 13.8771 3.88312 4.59888 0
M  V30 181 H 17.7031 2.61483 1.54469 0
M  V30 182 H 15.2881 1.3185 0.702567 0
M  V30 183 H 17.1701 1.74217 3.83701 0
M  V30 184 H 15.8451 0.766966 3.14483 0
M  V30 185 H 14.7521 2.93324 2.32189 0
M  V30 186 H 16.0851 3.84699 3.0703 0
M  V30 187 N 17.7372 -0.778329 1.37039 0
M  V30 188 C 19.0142 -1.52551 1.22424 0
M  V30 189 C 19.3942 -2.10288 -0.184964 0
M  V30 190 O 18.7422 -1.94953 -1.19187 0
M  V30 191 C 18.9522 -2.61164 2.31504 0
M  V30 192 C 20.3002 -3.28746 2.68721 0
M  V30 193 O 21.3242 -2.71455 2.30631 0
M  V30 194 O 20.1832 -4.3231 3.3432 0
M  V30 195 H 17.2772 -0.675343 0.477326 0
M  V30 196 H 19.8232 -0.815859 1.48801 0
M  V30 197 H 18.5952 -2.16574 3.25901 0
M  V30 198 H 18.2182 -3.39737 2.06554 0
M  V30 199 N 19.2153 -1.21501 -1.00376 0
M  V30 200 C 20.4613 -1.03452 -1.74429 0
M  V30 201 C 20.7943 0.430764 -1.89362 0
M  V30 202 O 20.0693 1.31962 -1.42886 0
M  V30 203 C 20.3523 -1.73375 -3.15615 0
M  V30 204 C 20.2053 -3.27431 -3.08397 0
M  V30 205 C 21.5243 -1.47732 -4.14564 0
M  V30 206 H 18.6433 -0.377226 -0.633143 0
M  V30 207 H 21.2853 -1.49693 -1.17013 0
M  V30 208 H 19.4353 -1.34064 -3.64636 0
M  V30 209 H 21.1073 -3.76119 -2.67081 0
M  V30 210 H 19.3503 -3.5767 -2.45468 0
M  V30 211 H 20.0213 -3.71524 -4.08258 0
M  V30 212 H 22.4973 -1.8186 -3.74254 0
M  V30 213 H 21.3733 -1.99169 -5.11491 0
M  V30 214 H 21.6343 -0.407589 -4.40217 0
M  V30 215 N 20.6934 1.19889 -1.02296 0
M  V30 216 C 21.9404 1.8942 -0.715972 0
M  V30 217 C 22.2684 1.79251 0.754944 0
M  V30 218 O 21.5234 1.17526 1.56481 0
M  V30 219 C 21.8224 3.39883 -1.10518 0
M  V30 220 C 21.4884 3.70254 -2.57337 0
M  V30 221 C 20.1504 3.78254 -2.97452 0
M  V30 222 C 22.5024 3.84052 -3.52354 0
M  V30 223 C 19.8304 3.97514 -4.31509 0
M  V30 224 C 22.1824 4.04824 -4.86108 0
M  V30 225 C 20.8464 4.11054 -5.25919 0
M  V30 226 H 20.1164 0.693138 -0.261993 0
M  V30 227 H 22.7634 1.42012 -1.28472 0
M  V30 228 H 21.0684 3.8915 -0.454953 0
M  V30 229 H 22.7654 3.9199 -0.845261 0
M  V30 230 H 19.3554 3.64632 -2.25258 0
M  V30 231 H 23.5394 3.77221 -3.22518 0
M  V30 232 H 18.7954 4.00574 -4.61898 0
M  V30 233 H 22.9694 4.14442 -5.59653 0
M  V30 234 H 20.5964 4.2573 -6.29808 0
M  V30 235 N 22.1715 0.800033 1.35784 0
M  V30 236 C 23.5875 0.482977 1.52117 0
M  V30 237 C 23.7875 -0.996948 1.75109 0
M  V30 238 O 22.8435 -1.78216 1.78872 0
M  V30 239 C 24.1565 1.32264 2.70049 0
M  V30 240 C 25.7045 1.31742 2.83924 0
M  V30 241 C 26.1795 2.14106 4.04874 0
M  V30 242 N 27.6705 2.11607 4.12039 0
M  V30 243 C 28.4055 2.72099 5.04727 0
M  V30 244 N 27.9015 3.41492 6.02789 0
M  V30 245 N 29.6945 2.61776 4.97423 0
M  V30 246 H 21.8455 1.75856 1.19115 0
M  V30 247 H 24.1085 0.748122 0.582252 0
M  V30 248 H 23.8145 2.37261 2.59616 0
M  V30 249 H 23.6885 0.971303 3.6448 0
M  V30 250 H 26.0755 0.275333 2.93813 0
M  V30 251 H 26.1565 1.70859 1.9037 0
M  V30 252 H 25.8005 3.18351 3.95746 0
M  V30 253 H 25.7305 1.72353 4.97596 0
M  V30 254 H 28.2215 1.61112 3.41835 0
M  V30 255 H 28.5345 3.84953 6.70098 0
M  V30 256 H 26.8795 3.45596 6.02983 0
M  V30 257 H 30.0705 2.07157 4.19766 0
M  V30 258 H 30.2435 3.0921 5.69468 0
M  V30 259 N 23.6496 -1.47581 0.552962 0
M  V30 260 C 25.0656 -1.5818 0.212424 0
M  V30 261 C 25.2656 -1.55213 -1.28496 0
M  V30 262 O 24.3216 -1.45329 -2.06484 0
M  V30 263 C 25.6346 -2.88865 0.835318 0
M  V30 264 C 27.1826 -3.0244 0.806156 0
M  V30 265 C 27.6576 -4.35819 1.40804 0
M  V30 266 N 29.1486 -4.42444 1.37103 0
M  V30 267 C 29.8836 -5.44202 1.80641 0
M  V30 268 N 29.3796 -6.52795 2.32015 0
M  V30 269 N 31.1726 -5.35222 1.71738 0
M  V30 270 H 23.3236 -1.47753 1.52587 0
M  V30 271 H 25.5866 -0.702941 0.636064 0
M  V30 272 H 25.2926 -2.9676 1.88749 0
M  V30 273 H 25.1666 -3.7579 0.325848 0
M  V30 274 H 27.5536 -2.94144 -0.237317 0
M  V30 275 H 27.6346 -2.17068 1.35334 0
M  V30 276 H 27.2786 -4.44871 2.45056 0
M  V30 277 H 27.2086 -5.19916 0.836338 0
M  V30 278 H 29.6996 -3.6456 0.995202 0
M  V30 279 H 30.0126 -7.26609 2.63171 0
M  V30 280 H 28.3576 -6.53696 2.36023 0
M  V30 281 H 31.5486 -4.49284 1.31382 0
M  V30 282 H 31.7216 -6.14389 2.05987 0
M  V30 283 N 25.1277 -0.289203 -1.54924 0
M  V30 284 C 26.3767 0.324231 -1.99077 0
M  V30 285 C 26.6897 1.5591 -1.18117 0
M  V30 286 O 27.8957 2.24637 -1.52481 0
M  V30 287 C 26.3517 0.628209 -3.54375 0
M  V30 288 C 25.9597 -0.587647 -4.44129 0
M  V30 289 C 27.7037 1.20349 -4.07083 0
M  V30 290 C 25.6107 -0.257475 -5.90839 0
M  V30 291 H 24.5407 0.124924 -0.743579 0
M  V30 292 H 27.1917 -0.396063 -1.79175 0
M  V30 293 H 25.5737 1.40778 -3.70132 0
M  V30 294 H 26.7477 -1.36418 -4.40144 0
M  V30 295 H 25.0627 -1.08074 -4.0213 0
M  V30 296 H 27.6597 1.46456 -5.14252 0
M  V30 297 H 28.0027 2.14195 -3.56968 0
M  V30 298 H 28.5357 0.485889 -3.94821 0
M  V30 299 H 25.2747 -1.16419 -6.45079 0
M  V30 300 H 24.7947 0.482018 -5.9786 0
M  V30 301 H 26.4737 0.145238 -6.46837 0
M  V30 302 N 26.6058 1.57591 -0.0167156 0
M  V30 303 C 27.8528 1.91283 0.664597 0
M  V30 304 C 28.1808 0.891949 1.72842 0
M  V30 305 O 27.4358 -0.100931 1.9544 0
M  V30 306 C 27.7348 3.3172 1.33029 0
M  V30 307 C 27.4008 4.4914 0.398047 0
M  V30 308 C 26.0628 4.80992 0.141421 0
M  V30 309 C 28.4148 5.20634 -0.242825 0
M  V30 310 C 25.7428 5.81703 -0.764092 0
M  V30 311 C 28.0948 6.22311 -1.13632 0
M  V30 312 C 26.7588 6.52611 -1.40196 0
M  V30 313 H 26.0288 0.699956 0.243193 0
M  V30 314 H 28.6758 1.9135 -0.0758267 0
M  V30 315 H 26.9808 3.27856 2.14517 0
M  V30 316 H 28.6778 3.55055 1.86379 0
M  V30 317 H 25.2678 4.24262 0.608238 0
M  V30 318 H 29.4518 4.96267 -0.0576019 0
M  V30 319 H 24.7078 6.03532 -0.977732 0
M  V30 320 H 28.8818 6.76834 -1.63917 0
M  V30 321 H 26.5088 7.30467 -2.10529 0
M  V30 322 N 28.0839 -0.256276 1.55502 0
M  V30 323 C 29.3329 -0.983486 1.76098 0
M  V30 324 C 29.6459 -1.86837 0.578896 0
M  V30 325 O 30.8519 -2.63163 0.667648 0
M  V30 326 C 29.3079 -1.79868 3.1173 0
M  V30 327 C 28.9159 -0.961648 4.37557 0
M  V30 328 C 30.6599 -2.51919 3.41668 0
M  V30 329 C 28.5669 -1.77219 5.64223 0
M  V30 330 H 27.4969 -0.370936 0.656447 0
M  V30 331 H 30.1479 -0.238492 1.81944 0
M  V30 332 H 28.5299 -2.58527 2.99966 0
M  V30 333 H 29.7039 -0.218048 4.60284 0
M  V30 334 H 28.0189 -0.354913 4.14885 0
M  V30 335 H 30.6159 -3.12998 4.33516 0
M  V30 336 H 30.9589 -3.23059 2.62562 0
M  V30 337 H 31.4919 -1.80278 3.54605 0
M  V30 338 H 28.2309 -1.10471 6.46124 0
M  V30 339 H 27.7509 -2.49132 5.45613 0
M  V30 340 H 29.4299 -2.34169 6.03137 0
M  V30 341 N 29.562 -1.4872 -0.521534 0
M  V30 342 C 30.79 -1.60843 -1.30142 0
M  V30 343 C 31.205 -0.271897 -1.86832 0
M  V30 344 O 30.562 0.739969 -1.66825 0
M  V30 345 C 30.613 -2.66155 -2.4463 0
M  V30 346 O 30.334 -3.94623 -1.90275 0
M  V30 347 C 31.835 -2.88795 -3.36322 0
M  V30 348 H 29.055 -0.542075 -0.395468 0
M  V30 349 H 31.599 -1.94609 -0.628285 0
M  V30 350 H 29.754 -2.35224 -3.07812 0
M  V30 351 H 30.168 -4.52468 -2.65279 0
M  V30 352 H 31.642 -3.66264 -4.12983 0
M  V30 353 H 32.119 -1.97934 -3.9207 0
M  V30 354 H 32.725 -3.21063 -2.78924 0
M  V30 355 N 31.0401 0.771051 -1.3745 0
M  V30 356 C 32.2701 1.55789 -1.35696 0
M  V30 357 C 32.6781 1.89107 0.0594523 0
M  V30 358 O 32.0211 1.51984 1.03183 0
M  V30 359 C 32.0831 2.89515 -2.13123 0
M  V30 360 C 31.7471 2.78829 -3.62082 0
M  V30 361 C 32.7441 2.49812 -4.5595 0
M  V30 362 C 30.4291 2.9683 -4.05213 0
M  V30 363 C 32.4231 2.38923 -5.90927 0
M  V30 364 C 30.1101 2.85562 -5.40276 0
M  V30 365 C 31.1081 2.56649 -6.32946 0
M  V30 366 O 30.7961 2.45408 -7.65526 0
M  V30 367 H 30.5281 0.489257 -0.466481 0
M  V30 368 H 33.0821 0.963446 -1.81403 0
M  V30 369 H 31.3121 3.51081 -1.62107 0
M  V30 370 H 33.0011 3.50915 -2.03994 0
M  V30 371 H 33.7671 2.3559 -4.23937 0
M  V30 372 H 29.6461 3.18335 -3.33442 0
M  V30 373 H 33.1901 2.16277 -6.63227 0
M  V30 374 H 29.0871 2.99351 -5.71891 0
M  V30 375 H 29.8551 2.60753 -7.75855 0
M  V30 376 N 32.5182 1.22032 0.997298 0
M  V30 377 C 33.4512 0.929735 2.08401 0
M  V30 378 C 34.4292 -0.125681 1.62114 0
M  V30 379 O 35.6132 0.00495409 1.88499 0
M  V30 380 C 32.7402 0.397488 3.3636 0
M  V30 381 C 31.7862 1.4369 4.01566 0
M  V30 382 S 32.6192 3.00874 4.42984 0
M  V30 383 C 33.7752 2.49276 5.74119 0
M  V30 384 H 34.0082 1.84998 2.32729 0
M  V30 385 H 31.5412 1.0509 1.13117 0
M  V30 386 H 33.4992 0.0969846 4.10385 0
M  V30 387 H 32.1602 -0.501571 3.10069 0
M  V30 388 H 31.3532 1.01427 4.93689 0
M  V30 389 H 30.9552 1.68588 3.33847 0
M  V30 390 H 33.2472 1.90242 6.50242 0
M  V30 391 H 34.1902 3.39872 6.21203 0
M  V30 392 H 34.5982 1.90714 5.31308 0
M  V30 393 N 33.9963 -1.19345 1.0293 0
M  V30 394 C 35.2733 -1.84811 0.640642 0
M  V30 395 C 35.6533 -1.91855 -0.88062 0
M  V30 396 O 35.0013 -1.43587 -1.7775 0
M  V30 397 C 35.2113 -3.23755 1.30321 0
M  V30 398 C 36.5593 -3.99912 1.42673 0
M  V30 399 O 37.5833 -3.33155 1.26041 0
M  V30 400 O 36.4423 -5.19494 1.6967 0
M  V30 401 H 33.5363 -0.796443 0.222726 0
M  V30 402 H 36.0823 -1.26831 1.12748 0
M  V30 403 H 34.8543 -3.13466 2.34211 0
M  V30 404 H 34.4773 -3.89381 0.804261 0
M  V30 405 N 35.4744 -0.807222 -1.35358 0
M  V30 406 C 36.4224 -0.20614 -2.31685 0
M  V30 407 C 37.4164 0.644445 -1.56663 0
M  V30 408 O 38.6224 0.537538 -1.71786 0
M  V30 409 H 34.9974 -0.0479006 -0.750473 0
M  V30 410 H 36.9684 -1.03369 -2.79924 0
M  V30 411 C 35.7174 0.630212 -3.41941 0
M  V30 412 H 35.0404 -0.0149558 -3.99797 0
M  V30 413 H 36.4804 1.01716 -4.11619 0
M  V30 414 C 34.9394 1.79601 -2.85035 0
M  V30 415 O 35.4694 2.89351 -2.78637 0
M  V30 416 N 33.6754 1.60774 -2.42074 0
M  V30 417 H 33.2224 0.715009 -2.47478 0
M  V30 418 H 33.1804 2.38933 -2.04349 0
M  V30 419 N 36.9525 1.47285 -0.560781 0
M  V30 420 C 38.1985 2.03347 -0.0463654 0
M  V30 421 C 38.5535 1.42702 1.2905 0
M  V30 422 O 37.8465 0.574619 1.8278 0
M  V30 423 C 38.0405 3.57258 0.100784 0
M  V30 424 C 37.8695 4.32827 -1.22027 0
M  V30 425 C 36.6395 4.72588 -1.78854 0
M  V30 426 C 38.8375 4.67739 -2.13834 0
M  V30 427 N 36.8195 5.32816 -3.04927 0
M  V30 428 C 38.1905 5.28307 -3.24487 0
M  V30 429 C 40.2455 4.49667 -2.13784 0
M  V30 430 C 38.9485 5.72711 -4.35194 0
M  V30 431 C 40.9745 4.95073 -3.23506 0
M  V30 432 C 40.3365 5.55693 -4.32879 0
M  V30 433 H 36.4355 0.779755 -0.0592166 0
M  V30 434 H 39.0195 1.79723 -0.748857 0
M  V30 435 H 37.1905 3.80642 0.772404 0
M  V30 436 H 38.9225 3.9996 0.617589 0
M  V30 437 H 35.6775 4.54656 -1.32609 0
M  V30 438 H 36.1015 5.67471 -3.69197 0
M  V30 439 H 40.7435 4.02154 -1.30507 0
M  V30 440 H 38.4615 6.19214 -5.1923 0
M  V30 441 H 42.0475 4.82859 -3.24559 0
M  V30 442 H 40.9275 5.90188 -5.1638 0
M  V30 443 N 38.4306 0.297415 1.54768 0
M  V30 444 C 39.8466 -0.0560823 1.59501 0
M  V30 445 C 40.0466 -1.52725 1.31444 0
M  V30 446 O 39.1026 -2.27947 1.08611 0
M  V30 447 C 40.4156 0.338631 2.98787 0
M  V30 448 C 41.9636 0.287097 3.11681 0
M  V30 449 C 42.4386 0.656579 4.53269 0
M  V30 450 N 43.9296 0.608977 4.59179 0
M  V30 451 C 44.6646 0.867385 5.66802 0
M  V30 452 N 44.1606 1.19157 6.82476 0
M  V30 453 N 45.9536 0.794687 5.56454 0
M  V30 454 H 38.1046 1.25624 1.71267 0
M  V30 455 H 40.3676 0.509057 0.799728 0
M  V30 456 H 40.0736 1.36263 3.2423 0
M  V30 457 H 39.9476 -0.309508 3.75928 0
M  V30 458 H 42.3346 -0.727649 2.85988 0
M  V30 459 H 42.4156 0.969809 2.36703 0
M  V30 460 H 42.0596 1.66912 4.7969 0
M  V30 461 H 41.9896 -0.0481649 5.26578 0
M  V30 462 H 44.4806 0.369198 3.76092 0
M  V30 463 H 44.7936 1.37482 7.60473 0
M  V30 464 H 43.1386 1.22958 6.84037 0
M  V30 465 H 46.3296 0.541098 4.64962 0
M  V30 466 H 46.5026 0.999445 6.40246 0
M  V30 467 N 39.9087 -1.5758 0.0250728 0
M  V30 468 C 40.8407 -2.06869 -0.986796 0
M  V30 469 C 41.8537 -0.991332 -1.29137 0
M  V30 470 O 43.0427 -1.26761 -1.25674 0
M  V30 471 C 40.1427 -2.47486 -2.31525 0
M  V30 472 C 39.3157 -3.78253 -2.19643 0
M  V30 473 C 38.3747 -4.05464 -3.35388 0
M  V30 474 O 37.4007 -4.75774 -3.12454 0
M  V30 475 N 38.6027 -3.55321 -4.59051 0
M  V30 476 H 41.3677 -2.94302 -0.566276 0
M  V30 477 H 38.9287 -1.6109 -0.161776 0
M  V30 478 H 40.9207 -2.62785 -3.07776 0
M  V30 479 H 39.4907 -1.65441 -2.65232 0
M  V30 480 H 38.7107 -3.7279 -1.28144 0
M  V30 481 H 39.9987 -4.63936 -2.08903 0
M  V30 482 H 39.3967 -2.98431 -4.80578 0
M  V30 483 H 37.9537 -3.75905 -5.32483 0
M  V30 484 N 41.3868 0.248026 -1.55636 0
M  V30 485 C 42.3348 1.32683 -1.91045 0
M  V30 486 C 43.3288 1.49883 -0.789401 0
M  V30 487 O 44.5348 1.51371 -0.974007 0
M  V30 488 H 40.9098 0.444272 -0.606734 0
M  V30 489 H 42.8808 1.00085 -2.81115 0
M  V30 490 C 41.6298 2.6755 -2.22064 0
M  V30 491 H 40.9528 2.55114 -3.07826 0
M  V30 492 H 42.3928 3.41912 -2.50743 0
M  V30 493 C 40.8518 3.20556 -1.0366 0
M  V30 494 O 41.3818 4.00695 -0.284016 0
M  V30 495 N 39.5878 2.78568 -0.82753 0
M  V30 496 H 39.1348 2.1351 -1.44123 0
M  V30 497 H 39.0928 3.14378 -0.0369803 0
M  V30 498 N 42.8649 1.48995 0.513639 0
M  V30 499 C 44.0929 1.61531 1.29288 0
M  V30 500 C 44.5079 0.281801 1.86685 0
M  V30 501 O 43.8649 -0.731111 1.67215 0
M  V30 502 C 43.9159 2.67449 2.43215 0
M  V30 503 O 43.6369 3.95626 1.88179 0
M  V30 504 C 45.1379 2.90575 3.34785 0
M  V30 505 H 42.3579 0.544165 0.392588 0
M  V30 506 H 44.9019 1.9494 0.617956 0
M  V30 507 H 43.0569 2.36853 3.0656 0
M  V30 508 H 43.4709 4.53868 2.62876 0
M  V30 509 H 44.9449 3.68449 4.11035 0
M  V30 510 H 45.4219 2.00011 3.91015 0
M  V30 511 H 46.0279 3.22538 2.77218 0
M  V30 512 N 44.343 -0.763751 1.37857 0
M  V30 513 C 45.571 -1.55293 1.36718 0
M  V30 514 C 45.986 -1.88745 -0.0455434 0
M  V30 515 O 45.343 -1.52039 -1.00947 0
M  V30 516 C 45.394 -2.85831 2.2132 0
M  V30 517 O 45.115 -2.5381 3.57089 0
M  V30 518 C 46.616 -3.80023 2.28249 0
M  V30 519 H 43.836 -0.480841 0.468009 0
M  V30 520 H 46.38 -0.946009 1.81303 0
M  V30 521 H 44.535 -3.42926 1.80223 0
M  V30 522 H 44.949 -3.37459 4.01524 0
M  V30 523 H 46.423 -4.68599 2.91752 0
M  V30 524 H 46.9 -4.1973 1.2932 0
M  V30 525 H 47.506 -3.28855 2.69693 0
M  V30 526 N 45.8211 -1.22559 -0.990812 0
M  V30 527 C 46.7841 -0.998863 -2.0629 0
M  V30 528 C 47.7841 0.0354834 -1.60761 0
M  V30 529 O 48.9741 -0.203231 -1.7301 0
M  V30 530 C 46.1061 -0.509203 -3.37076 0
M  V30 531 H 47.2991 -1.95014 -2.27837 0
M  V30 532 H 44.8521 -1.04456 -1.16269 0
M  V30 533 H 45.5871 0.446335 -3.21214 0
M  V30 534 H 45.3721 -1.25547 -3.71457 0
M  V30 535 H 46.8621 -0.370888 -4.1595 0
M  V30 536 N 47.2992 1.18797 -1.03562 0
M  V30 537 C 48.2092 2.25913 -0.632505 0
M  V30 538 C 49.2252 1.70668 0.338882 0
M  V30 539 O 50.4012 2.00453 0.195076 0
M  V30 540 C 47.4662 3.467 0.00350942 0
M  V30 541 C 46.5272 4.17098 -1.01624 0
M  V30 542 C 45.7602 5.32119 -0.410478 0
M  V30 543 O 45.9832 5.64976 0.784725 0
M  V30 544 O 44.9172 5.9107 -1.13667 0
M  V30 545 H 48.7432 2.62648 -1.52478 0
M  V30 546 H 46.3282 1.25781 -0.806195 0
M  V30 547 H 48.2102 4.19878 0.35781 0
M  V30 548 H 46.8852 3.11798 0.869686 0
M  V30 549 H 45.7922 3.4601 -1.42224 0
M  V30 550 H 47.1252 4.55987 -1.85301 0
M  V30 551 N 48.7773 0.814389 1.34928 0
M  V30 552 C 49.7093 0.187834 2.28429 0
M  V30 553 C 50.7223 -0.617374 1.5064 0
M  V30 554 O 51.9113 -0.448454 1.72775 0
M  V30 555 C 49.0113 -0.755962 3.30361 0
M  V30 556 C 48.1843 0.00456686 4.374 0
M  V30 557 C 47.2433 -0.858876 5.19143 0
M  V30 558 O 46.2693 -0.306968 5.68372 0
M  V30 559 N 47.4713 -2.17988 5.38016 0
M  V30 560 H 50.2363 0.991105 2.82838 0
M  V30 561 H 47.7973 0.670561 1.4736 0
M  V30 562 H 49.7893 -1.338 3.81942 0
M  V30 563 H 48.3593 -1.46001 2.7641 0
M  V30 564 H 47.5793 0.767865 3.86649 0
M  V30 565 H 48.8673 0.528422 5.06049 0
M  V30 566 H 48.2653 -2.65212 4.99679 0
M  V30 567 H 46.8223 -2.71098 5.92747 0
M  V30 568 N 50.2554 -1.46986 0.568584 0
M  V30 569 C 51.1654 -2.33942 -0.17555 0
M  V30 570 C 52.1814 -1.48891 -0.90041 0
M  V30 571 O 53.3574 -1.81794 -0.86676 0
M  V30 572 C 50.4224 -3.25811 -1.18524 0
M  V30 573 C 49.4834 -4.26757 -0.466582 0
M  V30 574 C 48.7164 -5.14236 -1.42817 0
M  V30 575 O 48.9394 -5.04379 -2.66379 0
M  V30 576 O 47.8734 -5.94412 -0.946453 0
M  V30 577 H 51.6994 -2.98896 0.538036 0
M  V30 578 H 49.2844 -1.4573 0.329097 0
M  V30 579 H 51.1664 -3.82527 -1.76779 0
M  V30 580 H 49.8414 -2.63471 -1.88055 0
M  V30 581 H 48.7484 -3.73769 0.157451 0
M  V30 582 H 50.0814 -4.91843 0.187485 0
M  V30 583 N 51.7335 -0.305618 -1.54608 0
M  V30 584 C 52.6965 0.555591 -2.22364 0
M  V30 585 C 53.6965 1.05768 -1.21119 0
M  V30 586 O 54.8865 0.952972 -1.45822 0
M  V30 587 C 52.0185 1.76974 -2.91364 0
M  V30 588 H 53.2115 -0.0364572 -2.99878 0
M  V30 589 H 50.7645 -0.0565007 -1.56198 0
M  V30 590 H 51.4995 2.40151 -2.17941 0
M  V30 591 H 51.2845 1.41732 -3.65588 0
M  V30 592 H 52.7745 2.38148 -3.43038 0
M  V30 593 N 53.2116 1.57565 -0.0334293 0
M  V30 594 C 54.1416 2.13511 0.945265 0
M  V30 595 C 55.1226 1.05231 1.33643 0
M  V30 596 O 56.3076 1.33084 1.41429 0
M  V30 597 C 53.4376 2.6657 2.22616 0
M  V30 598 C 52.3916 3.79676 1.97561 0
M  V30 599 C 51.7176 4.1918 3.31952 0
M  V30 600 C 53.0176 5.0557 1.31135 0
M  V30 601 H 54.7116 2.95538 0.479325 0
M  V30 602 H 52.2576 1.42166 0.229115 0
M  V30 603 H 54.2106 3.04344 2.91466 0
M  V30 604 H 52.9346 1.8171 2.71384 0
M  V30 605 H 51.5936 3.42347 1.31127 0
M  V30 606 H 51.2416 3.31296 3.78487 0
M  V30 607 H 50.9416 4.95402 3.15992 0
M  V30 608 H 52.4656 4.59541 4.02063 0
M  V30 609 H 53.8796 5.40903 1.89992 0
M  V30 610 H 52.2766 5.86818 1.25559 0
M  V30 611 H 53.3466 4.84062 0.284894 0
M  V30 612 N 54.6897 -0.239769 1.55765 0
M  V30 613 C 55.6217 -1.32001 1.87372 0
M  V30 614 C 56.6347 -1.43944 0.760522 0
M  V30 615 O 57.8237 -1.45167 1.0387 0
M  V30 616 C 54.9237 -2.69779 2.05115 0
M  V30 617 C 54.0967 -2.80014 3.36022 0
M  V30 618 C 53.1557 -3.98684 3.4342 0
M  V30 619 O 52.1817 -3.87877 4.16582 0
M  V30 620 N 53.3837 -5.12176 2.73232 0
M  V30 621 H 56.1487 -1.0522 2.80622 0
M  V30 622 H 53.7097 -0.429857 1.56089 0
M  V30 623 H 55.7017 -3.47517 2.07399 0
M  V30 624 H 54.2717 -2.89237 1.18577 0
M  V30 625 H 53.4917 -1.88896 3.45994 0
M  V30 626 H 54.7797 -2.83808 4.22292 0
M  V30 627 H 54.1777 -5.2385 2.13536 0
M  V30 628 H 52.7347 -5.88022 2.81199 0
M  V30 629 N 56.1678 -1.49265 -0.50573 0
M  V30 630 C 57.1308 -1.65075 -1.59006 0
M  V30 631 C 58.1308 -0.522768 -1.52065 0
M  V30 632 O 59.3208 -0.789117 -1.55302 0
M  V30 633 C 56.4528 -1.64369 -2.98656 0
M  V30 634 H 57.6458 -2.61784 -1.46319 0
M  V30 635 H 55.1988 -1.38226 -0.729616 0
M  V30 636 H 55.9338 -0.692272 -3.16825 0
M  V30 637 H 55.7188 -2.46282 -3.05103 0
M  V30 638 H 57.2088 -1.78674 -3.77446 0
M  V30 639 N 57.6459 0.756429 -1.3826 0
M  V30 640 C 58.5929 1.87011 -1.35261 0
M  V30 641 C 59.5629 1.64695 -0.215616 0
M  V30 642 O 60.7479 1.864 -0.407399 0
M  V30 643 C 57.8879 3.24275 -1.18068 0
M  V30 644 C 57.0009 3.58442 -2.41129 0
M  V30 645 C 56.1359 4.84994 -2.16689 0
M  V30 646 C 55.1749 5.11939 -3.35537 0
M  V30 647 N 54.3119 6.29685 -3.10549 0
M  V30 648 H 59.1519 1.8891 -2.30472 0
M  V30 649 H 56.6889 0.923373 -1.14509 0
M  V30 650 H 58.6469 4.03479 -1.06116 0
M  V30 651 H 57.2769 3.21711 -0.264973 0
M  V30 652 H 56.3289 2.74103 -2.63764 0
M  V30 653 H 57.6409 3.74283 -3.29717 0
M  V30 654 H 56.7949 5.72135 -2.01857 0
M  V30 655 H 55.5339 4.71286 -1.25462 0
M  V30 656 H 54.5389 4.23268 -3.50891 0
M  V30 657 H 55.7639 5.27546 -4.27635 0
M  V30 658 H 53.7099 6.17306 -2.21967 0
M  V30 659 H 53.6269 6.46014 -3.92686 0
M  V30 660 H 54.8949 7.19722 -2.99367 0
M  V30 661 N 59.124 1.23083 0.984299 0
M  V30 662 C 60.37 1.06214 1.72761 0
M  V30 663 C 60.703 -0.400584 1.90024 0
M  V30 664 O 59.978 -1.29672 1.44967 0
M  V30 665 C 60.261 1.78375 3.12817 0
M  V30 666 C 60.114 3.32296 3.03149 0
M  V30 667 C 61.433 1.54309 4.12161 0
M  V30 668 H 58.552 0.387251 0.627061 0
M  V30 669 H 61.194 1.51536 1.14616 0
M  V30 670 H 59.344 1.39848 3.62457 0
M  V30 671 H 61.016 3.8032 2.61064 0
M  V30 672 H 59.259 3.6153 2.39747 0
M  V30 673 H 59.93 3.77972 4.02295 0
M  V30 674 H 62.406 1.87791 3.71314 0
M  V30 675 H 61.282 2.07281 5.08258 0
M  V30 676 H 61.543 0.477572 4.39513 0
M  V30 677 N 60.6021 -1.18246 1.0419 0
M  V30 678 C 61.8791 -1.84121 0.660208 0
M  V30 679 C 62.2591 -1.92778 -0.860221 0
M  V30 680 O 61.6071 -1.45464 -1.76217 0
M  V30 681 C 61.8171 -3.22355 1.33747 0
M  V30 682 C 63.1651 -3.98376 1.46906 0
M  V30 683 O 64.1891 -3.31799 1.29568 0
M  V30 684 O 63.0481 -5.17665 1.75171 0
M  V30 685 H 60.1421 -0.794036 0.231161 0
M  V30 686 H 62.6881 -1.25628 1.14087 0
M  V30 687 H 61.4601 -3.10964 2.37522 0
M  V30 688 H 61.0831 -3.88506 0.845515 0
M  V30 689 N 62.0802 -0.821533 -1.34494 0
M  V30 690 C 63.0432 -0.247847 -2.27856 0
M  V30 691 C 64.0432 0.573453 -1.50227 0
M  V30 692 O 65.2332 0.389759 -1.69784 0
M  V30 693 C 62.3652 0.652698 -3.34593 0
M  V30 694 H 63.5582 -1.07146 -2.80107 0
M  V30 695 H 61.1112 -0.593291 -1.44602 0
M  V30 696 H 61.8462 1.49943 -2.87555 0
M  V30 697 H 61.6312 0.065292 -3.92046 0
M  V30 698 H 63.1212 1.04793 -4.04238 0
M  V30 699 N 63.5583 1.46682 -0.576371 0
M  V30 700 C 64.4683 2.34032 0.163141 0
M  V30 701 C 65.4843 1.49367 0.892501 0
M  V30 702 O 66.6603 1.82252 0.857106 0
M  V30 703 C 63.7253 3.26435 1.16795 0
M  V30 704 C 62.7863 4.26998 0.443944 0
M  V30 705 C 62.0193 5.14986 1.40088 0
M  V30 706 O 62.2423 5.05785 2.637 0
M  V30 707 O 61.1763 5.94906 0.914917 0
M  V30 708 H 65.0023 2.98607 -0.55388 0
M  V30 709 H 62.5873 1.45554 -0.336821 0
M  V30 710 H 64.4693 3.83459 1.74748 0
M  V30 711 H 63.1443 2.64465 1.86655 0
M  V30 712 H 62.0513 3.7368 -0.177271 0
M  V30 713 H 63.3843 4.91736 -0.213566 0
M  V30 714 N 65.0364 0.313813 1.54444 0
M  V30 715 C 65.9844 -0.572171 2.25453 0
M  V30 716 C 66.9784 -1.12657 1.2651 0
M  V30 717 O 68.1844 -1.07573 1.44319 0
M  V30 718 H 64.5594 -0.203146 0.724041 0
M  V30 719 H 66.5304 0.0491145 2.9836 0
M  V30 720 C 65.2794 -1.72626 3.0182 0
M  V30 721 H 64.6024 -1.30891 3.77767 0
M  V30 722 H 66.0424 -2.32199 3.54767 0
M  V30 723 C 64.5014 -2.63806 2.09542 0
M  V30 724 O 65.0314 -3.65256 1.67185 0
M  V30 725 N 63.2374 -2.31824 1.75232 0
M  V30 726 H 62.7844 -1.49368 2.09873 0
M  V30 727 H 62.7424 -2.93095 1.13767 0
M  V30 728 N 66.5145 -1.57545 0.0417849 0
M  V30 729 C 67.7615 -1.92317 -0.634082 0
M  V30 730 C 68.0895 -0.919334 -1.71402 0
M  V30 731 O 67.3445 0.0698253 -1.95575 0
M  V30 732 C 67.6435 -3.33794 -1.27735 0
M  V30 733 C 67.3095 -4.49716 -0.326543 0
M  V30 734 C 65.9715 -4.81156 -0.0648814 0
M  V30 735 C 68.3235 -5.20182 0.325623 0
M  V30 736 C 65.6515 -5.80414 0.856539 0
M  V30 737 C 68.0035 -6.20424 1.23518 0
M  V30 738 C 66.6675 -6.50298 1.5056 0
M  V30 739 H 65.9375 -0.703736 -0.232027 0
M  V30 740 H 68.5845 -1.91205 0.106259 0
M  V30 741 H 66.8895 -3.31228 -2.09274 0
M  V30 742 H 68.5865 -3.57975 -1.80707 0
M  V30 743 H 65.1765 -4.25176 -0.540665 0
M  V30 744 H 69.3605 -4.96112 0.136546 0
M  V30 745 H 64.6165 -6.019 1.07363 0
M  V30 746 H 68.7905 -6.74141 1.74664 0
M  V30 747 H 66.4175 -7.27025 2.22123 0
M  V30 748 N 67.9926 0.231505 -1.5589 0
M  V30 749 C 69.2226 0.973092 -1.82248 0
M  V30 750 C 69.6306 1.78845 -0.617328 0
M  V30 751 O 68.9736 1.78752 0.423499 0
M  V30 752 C 69.0356 1.94732 -3.02192 0
M  V30 753 C 68.6996 1.31743 -4.37599 0
M  V30 754 C 69.6966 0.712238 -5.14998 0
M  V30 755 C 67.3816 1.33218 -4.84312 0
M  V30 756 C 69.3756 0.130195 -6.37267 0
M  V30 757 C 67.0626 0.746286 -6.06526 0
M  V30 758 C 68.0606 0.146337 -6.82843 0
M  V30 759 O 67.7486 -0.430465 -8.02747 0
M  V30 760 H 67.4806 0.29125 -0.61004 0
M  V30 761 H 70.0346 0.254915 -2.03812 0
M  V30 762 H 68.2646 2.70422 -2.76422 0
M  V30 763 H 69.9536 2.55362 -3.15508 0
M  V30 764 H 70.7196 0.69324 -4.8002 0
M  V30 765 H 66.5986 1.78854 -4.24891 0
M  V30 766 H 70.1426 -0.33871 -6.96777 0
M  V30 767 H 66.0396 0.762663 -6.40979 0
M  V30 768 H 66.8076 -0.323818 -8.17859 0
M  V30 769 N 69.4707 1.49531 0.497807 0
M  V30 770 C 70.7007 1.62657 1.27382 0
M  V30 771 C 71.1087 0.298488 1.86831 0
M  V30 772 O 70.4517 -0.72647 1.68725 0
M  V30 773 C 70.5137 2.6393 2.44093 0
M  V30 774 C 70.1777 4.08195 2.05489 0
M  V30 775 C 71.1747 4.949 1.59279 0
M  V30 776 C 68.8597 4.53948 2.15026 0
M  V30 777 C 70.8537 6.25397 1.23113 0
M  V30 778 C 68.5407 5.84458 1.78473 0
M  V30 779 C 69.5387 6.70006 1.32591 0
M  V30 780 O 69.2267 7.98083 0.965327 0
M  V30 781 H 68.9587 0.550429 0.392434 0
M  V30 782 H 71.5127 1.96325 0.603801 0
M  V30 783 H 69.7427 2.25449 3.14181 0
M  V30 784 H 71.4317 2.66552 3.06113 0
M  V30 785 H 72.1977 4.60779 1.51354 0
M  V30 786 H 68.0767 3.87525 2.4969 0
M  V30 787 H 71.6207 6.92125 0.872299 0
M  V30 788 H 67.5177 6.18107 1.86048 0
M  V30 789 H 68.2857 8.11122 1.09652 0
M  V30 790 N 70.9488 -0.749086 1.3866 0
M  V30 791 C 72.1948 -1.51056 1.35314 0
M  V30 792 C 72.5278 -1.94121 -0.0553751 0
M  V30 793 O 71.8028 -1.65763 -1.01749 0
M  V30 794 C 72.0858 -2.76003 2.31288 0
M  V30 795 C 71.9388 -2.39047 3.8102 0
M  V30 796 C 73.2578 -3.78046 2.2532 0
M  V30 797 H 70.3768 -0.547972 0.492844 0
M  V30 798 H 73.0188 -0.857628 1.69543 0
M  V30 799 H 71.1688 -3.31716 2.02229 0
M  V30 800 H 72.8408 -1.89074 4.20771 0
M  V30 801 H 71.0838 -1.71449 3.98482 0
M  V30 802 H 71.7548 -3.28462 4.4364 0
M  V30 803 H 74.2308 -3.31884 2.50983 0
M  V30 804 H 73.1068 -4.63159 2.94576 0
M  V30 805 H 73.3678 -4.23957 1.25352 0
M  V30 806 N 72.4269 -1.23603 -0.977757 0
M  V30 807 C 73.6759 -1.06377 -1.71368 0
M  V30 808 C 73.9889 0.399062 -1.91486 0
M  V30 809 O 75.1949 0.691312 -2.62551 0
M  V30 810 C 73.6509 -1.85512 -3.08404 0
M  V30 811 C 73.2589 -3.36141 -2.96164 0
M  V30 812 C 75.0029 -1.76783 -3.85938 0
M  V30 813 C 72.9099 -4.07659 -4.28449 0
M  V30 814 H 71.8399 -0.394452 -0.642591 0
M  V30 815 H 74.4909 -1.47594 -1.09034 0
M  V30 816 H 72.8729 -1.37103 -3.71509 0
M  V30 817 H 74.0469 -3.92056 -2.42133 0
M  V30 818 H 72.3619 -3.45712 -2.32104 0
M  V30 819 H 74.9589 -2.27526 -4.83876 0
M  V30 820 H 75.3019 -0.731116 -4.0983 0
M  V30 821 H 75.8349 -2.22818 -3.2954 0
M  V30 822 H 72.5739 -5.11648 -4.09752 0
M  V30 823 H 72.0939 -3.5653 -4.82334 0
M  V30 824 H 73.7729 -4.141 -4.97122 0
M  V30 825 N 73.905 1.17692 -1.04816 0
M  V30 826 C 74.835 2.23777 -0.666791 0
M  V30 827 C 75.816 1.66796 0.33361 0
M  V30 828 O 77.001 1.93039 0.212042 0
M  V30 829 C 74.131 3.47281 -0.0367933 0
M  V30 830 C 73.085 4.17059 -0.961546 0
M  V30 831 C 72.411 5.34342 -0.195626 0
M  V30 832 C 73.711 4.69713 -2.28402 0
M  V30 833 H 75.405 2.55933 -1.55367 0
M  V30 834 H 72.951 1.23019 -0.748484 0
M  V30 835 H 74.904 4.20706 0.241775 0
M  V30 836 H 73.628 3.14381 0.885004 0
M  V30 837 H 72.287 3.45541 -1.22462 0
M  V30 838 H 71.935 4.97692 0.728816 0
M  V30 839 H 71.635 5.81966 -0.811775 0
M  V30 840 H 73.159 6.10553 0.0757473 0
M  V30 841 H 74.573 5.34794 -2.06563 0
M  V30 842 H 72.97 5.279 -2.8538 0
M  V30 843 H 74.04 3.86726 -2.92525 0
M  V30 844 N 75.3831 0.828654 1.34056 0
M  V30 845 C 76.6131 0.431993 2.02033 0
M  V30 846 C 77.0211 -0.96844 1.62536 0
M  V30 847 O 76.3641 -1.6391 0.829408 0
M  V30 848 C 76.4261 0.461224 3.56529 0
M  V30 849 C 76.0901 1.81599 4.1937 0
M  V30 850 C 77.0871 2.7777 4.39477 0
M  V30 851 C 74.7721 2.10604 4.56017 0
M  V30 852 C 76.7661 4.01115 4.95364 0
M  V30 853 C 74.4531 3.34207 5.11614 0
M  V30 854 C 75.4511 4.2928 5.31232 0
M  V30 855 O 75.1391 5.50699 5.8565 0
M  V30 856 H 74.8711 0.170943 0.654029 0
M  V30 857 H 77.4251 1.11988 1.72185 0
M  V30 858 H 75.6551 -0.283388 3.8566 0
M  V30 859 H 77.3441 0.0838149 4.05813 0
M  V30 860 H 78.1101 2.56659 4.11523 0
M  V30 861 H 73.9891 1.37402 4.40047 0
M  V30 862 H 77.5331 4.75333 5.10592 0
M  V30 863 H 73.4301 3.55179 5.38997 0
M  V30 864 H 74.1981 5.52298 6.04077 0
M  V30 865 N 76.8612 -1.46375 0.584142 0
M  V30 866 C 77.7912 -2.33103 -0.136037 0
M  V30 867 C 78.7722 -1.45431 -0.882255 0
M  V30 868 O 79.9572 -1.74246 -0.857434 0
M  V30 869 C 77.0872 -3.27731 -1.14933 0
M  V30 870 C 76.0412 -4.24855 -0.517862 0
M  V30 871 C 75.3672 -5.09001 -1.63773 0
M  V30 872 C 76.6672 -5.19439 0.545886 0
M  V30 873 H 78.3612 -2.93568 0.588086 0
M  V30 874 H 75.9072 -1.41166 0.284259 0
M  V30 875 H 77.8602 -3.87261 -1.66153 0
M  V30 876 H 76.5842 -2.65377 -1.90375 0
M  V30 877 H 75.2432 -3.6659 -0.0267361 0
M  V30 878 H 74.8912 -4.43031 -2.38185 0
M  V30 879 H 74.5912 -5.74777 -1.22085 0
M  V30 880 H 76.1152 -5.71396 -2.15266 0
M  V30 881 H 77.5292 -5.73177 0.118704 0
M  V30 882 H 75.9262 -5.93566 0.88317 0
M  V30 883 H 76.9962 -4.63285 1.43162 0
M  V30 884 N 78.3393 -0.321999 -1.54275 0
M  V30 885 C 79.2723 0.58718 -2.20516 0
M  V30 886 C 80.2503 1.11693 -1.18167 0
M  V30 887 O 81.4343 1.18122 -1.46899 0
M  V30 888 C 78.5613 1.80554 -2.86562 0
M  V30 889 C 77.6073 1.40718 -4.02617 0
M  V30 890 S 78.4403 0.445218 -5.33646 0
M  V30 891 C 79.5963 1.6709 -6.03185 0
M  V30 892 H 79.8293 0.0244875 -2.9729 0
M  V30 893 H 77.3623 -0.106087 -1.54035 0
M  V30 894 H 79.3203 2.50462 -3.25237 0
M  V30 895 H 77.9813 2.33942 -2.09595 0
M  V30 896 H 77.1743 2.31501 -4.47687 0
M  V30 897 H 76.7763 0.78782 -3.65608 0
M  V30 898 H 79.0683 2.60856 -6.25268 0
M  V30 899 H 80.0113 1.26239 -6.96756 0
M  V30 900 H 80.4193 1.85716 -5.33076 0
M  V30 901 N 79.8174 1.5752 -0.0501392 0
M  V30 902 C 81.0634 1.92936 0.624798 0
M  V30 903 C 81.3964 0.928685 1.70555 0
M  V30 904 O 80.6714 -0.0454779 1.94447 0
M  V30 905 C 80.9544 3.38737 1.22185 0
M  V30 906 C 80.8074 4.49552 0.149218 0
M  V30 907 C 82.1264 3.84913 2.13378 0
M  V30 908 H 79.2454 0.701604 0.225657 0
M  V30 909 H 81.8874 1.89671 -0.111693 0
M  V30 910 H 80.0374 3.4165 1.84953 0
M  V30 911 H 81.7094 4.58768 -0.482648 0
M  V30 912 H 79.9524 4.30638 -0.522841 0
M  V30 913 H 80.6234 5.48653 0.606966 0
M  V30 914 H 83.0994 3.8387 1.60572 0
M  V30 915 H 81.9754 4.87584 2.52097 0
M  V30 916 H 82.2364 3.21611 3.03346 0
M  V30 917 N 81.2955 -0.223234 1.56011 0
M  V30 918 C 82.2285 -1.30377 1.87289 0
M  V30 919 C 83.2065 -1.45286 0.730112 0
M  V30 920 O 84.3905 -1.61126 0.978302 0
M  V30 921 C 81.5175 -2.67431 2.07843 0
M  V30 922 C 80.5635 -2.69546 3.30526 0
M  V30 923 S 81.3965 -2.23781 4.865 0
M  V30 924 C 82.5525 -3.62714 5.10088 0
M  V30 925 H 82.7855 -1.03652 2.78646 0
M  V30 926 H 80.3185 -0.425393 1.48424 0
M  V30 927 H 82.2765 -3.46336 2.20368 0
M  V30 928 H 80.9375 -2.91381 1.17285 0
M  V30 929 H 80.1305 -3.70255 3.41947 0
M  V30 930 H 79.7325 -1.98703 3.16849 0
M  V30 931 H 82.0245 -4.58391 4.98883 0
M  V30 932 H 82.9675 -3.5621 6.11981 0
M  V30 933 H 83.3755 -3.56323 4.37829 0
M  V30 934 N 82.7736 -1.49793 -0.48987 0
M  V30 935 C 84.0226 -1.59085 -1.23995 0
M  V30 936 C 84.3356 -0.287907 -1.9347 0
M  V30 937 O 85.5416 -0.259506 -2.70257 0
M  V30 938 C 83.9976 -2.80736 -2.252 0
M  V30 939 C 83.6056 -4.17833 -1.61614 0
M  V30 940 C 85.3496 -2.99364 -3.00967 0
M  V30 941 C 83.2566 -5.30693 -2.60996 0
M  V30 942 H 82.1866 -0.592372 -0.466488 0
M  V30 943 H 84.8376 -1.76197 -0.51252 0
M  V30 944 H 83.2196 -2.57142 -3.01154 0
M  V30 945 H 84.3936 -4.51608 -0.915774 0
M  V30 946 H 82.7086 -4.04656 -0.981977 0
M  V30 947 H 85.3056 -3.80851 -3.75308 0
M  V30 948 H 85.6486 -2.10356 -3.59244 0
M  V30 949 H 86.1816 -3.2305 -2.32128 0
M  V30 950 H 82.9206 -6.21796 -2.07485 0
M  V30 951 H 82.4406 -5.01359 -3.2924 0
M  V30 952 H 84.1196 -5.6049 -3.23202 0
M  V30 953 N 84.2517 0.741722 -1.39055 0
M  V30 954 C 85.4997 1.49818 -1.35643 0
M  V30 955 C 85.8207 1.94938 0.0491642 0
M  V30 956 O 85.0907 1.68505 0.999141 0
M  V30 957 H 83.6707 0.555755 -0.499144 0
M  V30 958 H 86.3327 0.880957 -1.73854 0
M  V30 959 H 85.4287 2.38348 -2.01486 0
M  V30 960 N 85.7298 1.2412 0.971189 0
M  V30 961 C 86.6628 0.97373 2.06382 0
M  V30 962 C 87.6408 -0.0912662 1.62344 0
M  V30 963 O 88.8248 0.0449365 1.88446 0
M  V30 964 C 85.9518 0.468746 3.35441 0
M  V30 965 C 84.9978 1.52176 3.98428 0
M  V30 966 S 85.8308 3.10203 4.36503 0
M  V30 967 C 86.9868 2.61398 5.68702 0
M  V30 968 H 87.2198 1.89893 2.28753 0
M  V30 969 H 84.7528 1.07466 1.10862 0
M  V30 970 H 86.7108 0.184012 4.10087 0
M  V30 971 H 85.3718 -0.435688 3.11064 0
M  V30 972 H 84.5648 1.11876 4.91426 0
M  V30 973 H 84.1668 1.75632 3.30196 0
M  V30 974 H 86.4588 2.03992 6.4606 0
M  V30 975 H 87.4018 3.52972 6.13854 0
M  V30 976 H 87.8098 2.01941 5.27143 0
M  V30 977 N 87.2079 -1.17134 1.05439 0
M  V30 978 C 88.4549 -1.87456 0.765942 0
M  V30 979 C 88.7829 -1.81189 -0.707153 0
M  V30 980 O 88.0379 -1.21633 -1.5331 0
M  V30 981 C 88.3369 -3.36833 1.19491 0
M  V30 982 C 88.0029 -3.63301 2.67063 0
M  V30 983 C 86.6649 -3.70234 3.07376 0
M  V30 984 C 89.0169 -3.74575 3.62413 0
M  V30 985 C 86.3449 -3.85933 4.41896 0
M  V30 986 C 88.6969 -3.91793 4.9667 0
M  V30 987 C 87.3609 -3.96966 5.36633 0
M  V30 988 H 86.6309 -0.685948 0.280278 0
M  V30 989 H 89.2779 -1.38556 1.32192 0
M  V30 990 H 87.5829 -3.87807 0.557969 0
M  V30 991 H 89.2799 -3.89611 0.948893 0
M  V30 992 H 85.8699 -3.58532 2.34846 0
M  V30 993 H 90.0539 -3.68537 3.32406 0
M  V30 994 H 85.3099 -3.88187 4.72357 0
M  V30 995 H 89.4839 -3.99458 5.70444 0
M  V30 996 H 87.1109 -4.08883 6.40874 0
M  V30 997 N 88.686 -0.835752 -1.33615 0
M  V30 998 C 89.911 -0.442389 -2.02627 0
M  V30 999 C 90.336 0.947735 -1.62479 0
M  V30 1000 O 89.694 1.61907 -0.815826 0
M  V30 1001 C 89.742 -0.567216 -3.56111 0
M  V30 1002 O 88.846 0.407799 -4.10379 0
M  V30 1003 H 88.187 -0.180278 -0.639059 0
M  V30 1004 H 90.717 -1.12972 -1.70583 0
M  V30 1005 H 90.727 -0.447708 -4.05536 0
M  V30 1006 H 89.402 -1.58103 -3.84677 0
M  V30 1007 H 87.979 0.246107 -3.72087 0
M  V30 1008 N 90.1641 1.46063 -0.591896 0
M  V30 1009 C 91.4111 2.02338 -0.0809991 0
M  V30 1010 C 91.7391 1.46228 1.28249 0
M  V30 1011 O 90.9941 0.620818 1.85592 0
M  V30 1012 C 91.2931 3.57391 0.0249813 0
M  V30 1013 C 90.9591 4.32583 -1.27211 0
M  V30 1014 C 89.6211 4.52844 -1.62745 0
M  V30 1015 C 91.9731 4.75687 -2.13005 0
M  V30 1016 C 89.3011 5.13462 -2.83855 0
M  V30 1017 C 91.6531 5.37644 -3.3335 0
M  V30 1018 C 90.3171 5.5613 -3.69155 0
M  V30 1019 H 89.5871 0.740407 -0.0296397 0
M  V30 1020 H 92.2341 1.75321 -0.770374 0
M  V30 1021 H 90.5391 3.83597 0.797537 0
M  V30 1022 H 92.2361 3.98621 0.436184 0
M  V30 1023 H 88.8261 4.17116 -0.985499 0
M  V30 1024 H 93.0101 4.59782 -1.86855 0
M  V30 1025 H 88.2661 5.25965 -3.11722 0
M  V30 1026 H 92.4401 5.7 -4.00092 0
M  V30 1027 H 90.0671 6.0287 -4.63089 0
M  V30 1028 N 91.6422 0.330177 1.54103 0
M  V30 1029 C 92.8912 -0.271336 1.99867 0
M  V30 1030 C 93.2042 -1.52723 1.22209 0
M  V30 1031 O 94.4102 -2.20515 1.58383 0
M  V30 1032 C 92.8662 -0.534032 3.55916 0
M  V30 1033 C 92.4742 0.705193 4.42415 0
M  V30 1034 C 94.2182 -1.09514 4.1013 0
M  V30 1035 C 92.1252 0.414035 5.89949 0
M  V30 1036 H 91.0552 -0.105166 0.74663 0
M  V30 1037 H 93.7062 0.443429 1.78062 0
M  V30 1038 H 92.0882 -1.30915 3.73734 0
M  V30 1039 H 93.2622 1.4804 4.36372 0
M  V30 1040 H 91.5772 1.18698 3.99124 0
M  V30 1041 H 94.1742 -1.3277 5.17954 0
M  V30 1042 H 94.5172 -2.04656 3.62521 0
M  V30 1043 H 95.0502 -0.381038 3.95971 0
M  V30 1044 H 91.7892 1.33481 6.41766 0
M  V30 1045 H 91.3092 -0.323336 5.98928 0
M  V30 1046 H 92.9882 0.0263105 6.46995 0
M  V30 1047 N 93.1203 -1.57491 0.0584922 0
M  V30 1048 C 94.3693 -1.92155 -0.613146 0
M  V30 1049 C 94.6823 -0.939334 -1.71569 0
M  V30 1050 O 95.8883 -1.17829 -2.44599 0
M  V30 1051 C 94.3443 -3.41303 -1.14195 0
M  V30 1052 C 93.9523 -4.47944 -0.0711265 0
M  V30 1053 C 95.6963 -3.84988 -1.78841 0
M  V30 1054 C 93.6033 -5.88212 -0.613225 0
M  V30 1055 H 92.5333 -0.717162 -0.232796 0
M  V30 1056 H 95.1843 -1.83049 0.12857 0
M  V30 1057 H 93.5663 -3.45437 -1.93621 0
M  V30 1058 H 94.7403 -4.55408 0.702836 0
M  V30 1059 H 93.0553 -4.13644 0.478313 0
M  V30 1060 H 95.6523 -4.87159 -2.20408 0
M  V30 1061 H 95.9953 -3.21632 -2.64308 0
M  V30 1062 H 96.5283 -3.83401 -1.06059 0
M  V30 1063 H 93.2673 -6.55183 0.203978 0
M  V30 1064 H 92.7873 -5.84294 -1.35501 0
M  V30 1065 H 94.4663 -6.37687 -1.09383 0
M  V30 1066 N 94.5984 0.214957 -1.56127 0
M  V30 1067 C 95.8444 0.939762 -1.79712 0
M  V30 1068 C 96.1774 1.83723 -0.629247 0
M  V30 1069 O 95.4524 1.90925 0.371197 0
M  V30 1070 C 95.7354 1.77306 -3.13424 0
M  V30 1071 C 95.5884 0.90164 -4.40671 0
M  V30 1072 C 96.9074 2.74956 -3.43638 0
M  V30 1073 H 94.0264 0.340214 -0.653776 0
M  V30 1074 H 96.6684 0.20824 -1.88855 0
M  V30 1075 H 94.8184 2.39673 -3.0576 0
M  V30 1076 H 96.4904 0.294206 -4.60361 0
M  V30 1077 H 94.7334 0.207368 -4.33304 0
M  V30 1078 H 95.4044 1.51923 -5.30682 0
M  V30 1079 H 97.8804 2.22724 -3.51473 0
M  V30 1080 H 96.7564 3.30358 -4.38355 0
M  V30 1081 H 97.0174 3.53023 -2.66134 0
M  V30 1082 N 96.0765 1.50051 0.48192 0
M  V30 1083 C 97.0395 1.67584 1.5636 0
M  V30 1084 C 98.0395 0.546894 1.51214 0
M  V30 1085 O 99.2295 0.813725 1.54026 0
M  V30 1086 C 96.3615 1.691 2.96003 0
M  V30 1087 H 97.5545 2.64078 1.42136 0
M  V30 1088 H 95.1075 1.39369 0.707533 0
M  V30 1089 H 95.8425 0.742589 3.15684 0
M  V30 1090 H 95.6275 2.51105 3.01146 0
M  V30 1091 H 97.1175 1.84656 3.74556 0
M  V30 1092 N 97.5546 -0.734337 1.39446 0
M  V30 1093 C 98.8036 -1.48937 1.36017 0
M  V30 1094 C 99.1166 -1.95557 -0.0409005 0
M  V30 1095 O 100.323 -2.70779 -0.19778 0
M  V30 1096 C 98.7786 -2.69125 2.38955 0
M  V30 1097 C 98.3866 -2.29452 3.8478 0
M  V30 1098 C 100.131 -3.46944 2.44603 0
M  V30 1099 C 98.0376 -3.46366 4.79358 0
M  V30 1100 H 96.9676 -0.559296 0.505672 0
M  V30 1101 H 99.6186 -0.800983 1.65095 0
M  V30 1102 H 98.0006 -3.40041 2.02948 0
M  V30 1103 H 99.1746 -1.66077 4.29831 0
M  V30 1104 H 97.4896 -1.64723 3.82433 0
M  V30 1105 H 100.087 -4.33907 3.12456 0
M  V30 1106 H 100.43 -3.89454 1.47076 0
M  V30 1107 H 100.963 -2.83056 2.79507 0
M  V30 1108 H 97.7016 -3.08905 5.78151 0
M  V30 1109 H 97.2216 -4.08719 4.38986 0
M  V30 1110 H 98.9006 -4.12691 4.98292 0
M  V30 1111 N 99.0327 -1.24633 -0.964593 0
M  V30 1112 C 99.9627 -1.06611 -2.07741 0
M  V30 1113 C 100.944 0.0218666 -1.70086 0
M  V30 1114 O 102.129 -0.145793 -1.93652 0
M  V30 1115 C 99.2587 -0.673444 -3.40708 0
M  V30 1116 C 98.2127 -1.71054 -3.92332 0
M  V30 1117 C 97.5387 -1.17285 -5.21678 0
M  V30 1118 C 98.8387 -3.10718 -4.19824 0
M  V30 1119 H 100.533 -1.99693 -2.23076 0
M  V30 1120 H 98.0787 -0.96152 -1.07195 0
M  V30 1121 H 100.032 -0.534345 -4.17998 0
M  V30 1122 H 98.7557 0.293073 -3.25282 0
M  V30 1123 H 97.4147 -1.83791 -3.17201 0
M  V30 1124 H 97.0627 -0.196847 -5.02615 0
M  V30 1125 H 96.7627 -1.86592 -5.57187 0
M  V30 1126 H 98.2867 -1.04593 -6.01575 0
M  V30 1127 H 99.7007 -3.01192 -4.87808 0
M  V30 1128 H 98.0977 -3.77406 -4.66567 0
M  V30 1129 H 99.1677 -3.58524 -3.26479 0
M  V30 1130 N 100.511 1.16574 -1.06058 0
M  V30 1131 C 101.757 1.87324 -0.777022 0
M  V30 1132 C 102.09 1.81351 0.694645 0
M  V30 1133 O 101.365 1.22753 1.50871 0
M  V30 1134 C 101.648 3.36991 -1.26922 0
M  V30 1135 C 101.501 3.51667 -2.80447 0
M  V30 1136 C 102.82 4.3131 -0.87521 0
M  V30 1137 H 99.9388 0.680191 -0.28374 0
M  V30 1138 H 102.581 1.37036 -1.3161 0
M  V30 1139 H 100.731 3.79949 -0.81063 0
M  V30 1140 H 102.403 3.17664 -3.34495 0
M  V30 1141 H 100.646 2.93656 -3.19294 0
M  V30 1142 H 101.317 4.56766 -3.0995 0
M  V30 1143 H 103.793 3.9624 -1.27014 0
M  V30 1144 H 102.669 5.34545 -1.2471 0
M  V30 1145 H 102.93 4.41552 0.220071 0
M  V30 1146 N 101.989 0.842826 1.3317 0
M  V30 1147 C 103.214 0.453129 2.02389 0
M  V30 1148 C 103.639 -0.939105 1.6298 0
M  V30 1149 O 102.997 -1.61472 0.8244 0
M  V30 1150 C 103.045 0.586094 3.55805 0
M  V30 1151 O 102.149 -0.386029 4.10589 0
M  V30 1152 H 101.49 0.183664 0.638094 0
M  V30 1153 H 104.02 1.13875 1.69981 0
M  V30 1154 H 104.03 0.469209 4.05293 0
M  V30 1155 H 102.705 1.6014 3.83833 0
M  V30 1156 H 101.282 -0.226371 3.72212 0
M  V30 1157 N 103.467 -1.45747 0.599634 0
M  V30 1158 C 104.695 -2.06668 0.0978551 0
M  V30 1159 C 105.11 -1.44562 -1.21439 0
M  V30 1160 O 104.467 -0.556923 -1.73795 0
M  V30 1161 C 104.518 -3.61456 -0.0567044 0
M  V30 1162 O 104.239 -4.21242 1.20361 0
M  V30 1163 C 105.74 -4.39345 -0.590869 0
M  V30 1164 H 102.96 -0.667825 0.0651943 0
M  V30 1165 H 105.504 -1.87115 0.82511 0
M  V30 1166 H 103.659 -3.80378 -0.734251 0
M  V30 1167 H 104.073 -5.14323 1.02821 0
M  V30 1168 H 105.547 -5.48182 -0.648131 0
M  V30 1169 H 106.024 -4.08568 -1.61147 0
M  V30 1170 H 106.63 -4.25268 0.0523679 0
M  V30 1171 N 104.945 -0.338344 -1.53925 0
M  V30 1172 C 106.191 0.260143 -2.01125 0
M  V30 1173 C 106.524 1.50617 -1.22589 0
M  V30 1174 O 105.799 1.91979 -0.312113 0
M  V30 1175 C 106.082 0.579499 -3.55407 0
M  V30 1176 C 105.935 -0.678264 -4.44657 0
M  V30 1177 C 107.254 1.39122 -4.17532 0
M  V30 1178 H 104.373 0.0930772 -0.731099 0
M  V30 1179 H 107.015 -0.457852 -1.84401 0
M  V30 1180 H 105.165 1.19118 -3.69788 0
M  V30 1181 H 106.837 -1.31631 -4.42121 0
M  V30 1182 H 105.08 -1.3042 -4.13731 0
M  V30 1183 H 105.751 -0.410143 -5.50474 0
M  V30 1184 H 108.227 0.874035 -4.06817 0
M  V30 1185 H 107.103 1.58342 -5.25565 0
M  V30 1186 H 107.364 2.39178 -3.71815 0
M  V30 1187 N 106.423 1.57458 -0.0668435 0
M  V30 1188 C 107.37 2.12439 0.902122 0
M  V30 1189 C 108.34 1.03565 1.2986 0
M  V30 1190 O 109.525 1.312 1.38532 0
M  V30 1191 C 106.665 2.6865 2.16614 0
M  V30 1192 C 105.778 3.91663 1.82274 0
M  V30 1193 C 104.913 4.36134 3.0325 0
M  V30 1194 C 103.952 5.51808 2.64904 0
M  V30 1195 N 103.089 5.9126 3.78624 0
M  V30 1196 H 107.929 2.94934 0.426382 0
M  V30 1197 H 105.466 1.4575 0.198819 0
M  V30 1198 H 107.424 2.99346 2.90599 0
M  V30 1199 H 106.054 1.88928 2.61737 0
M  V30 1200 H 105.106 3.6746 0.983719 0
M  V30 1201 H 106.418 4.75693 1.50059 0
M  V30 1202 H 105.572 4.68465 3.85519 0
M  V30 1203 H 104.311 3.50948 3.38655 0
M  V30 1204 H 103.316 5.19133 1.81055 0
M  V30 1205 H 104.541 6.38722 2.30675 0
M  V30 1206 H 102.487 5.09024 4.138 0
M  V30 1207 H 102.404 6.70018 3.5016 0
M  V30 1208 H 103.672 6.28212 4.61486 0
M  V30 1209 N 107.901 -0.206675 1.56239 0
M  V30 1210 C 109.126 -0.949474 1.8439 0
M  V30 1211 C 109.551 -1.76549 0.649016 0
M  V30 1212 O 108.909 -1.76782 -0.402231 0
M  V30 1213 C 108.957 -1.83078 3.10668 0
M  V30 1214 O 108.061 -2.9281 2.90407 0
M  V30 1215 H 107.402 -0.268033 0.607499 0
M  V30 1216 H 109.932 -0.215488 2.03462 0
M  V30 1217 H 109.942 -2.2377 3.41161 0
M  V30 1218 H 108.617 -1.23112 3.97261 0
M  V30 1219 H 107.194 -2.55956 2.71184 0
M  V30 1220 N 109.379 -1.50304 -0.473955 0
M  V30 1221 C 110.326 -1.68959 -1.57231 0
M  V30 1222 C 111.296 -0.530899 -1.57387 0
M  V30 1223 O 112.481 -0.761133 -1.74961 0
M  V30 1224 C 109.621 -1.7871 -2.95223 0
M  V30 1225 C 108.734 -3.06061 -3.04878 0
M  V30 1226 C 107.869 -3.06626 -4.33767 0
M  V30 1227 C 106.908 -4.28443 -4.37154 0
M  V30 1228 N 106.045 -4.26763 -5.5751 0
M  V30 1229 H 110.885 -2.6273 -1.40631 0
M  V30 1230 H 108.422 -1.30241 -0.683789 0
M  V30 1231 H 110.38 -1.82344 -3.75242 0
M  V30 1232 H 109.01 -0.883806 -3.10465 0
M  V30 1233 H 108.062 -3.11911 -2.17751 0
M  V30 1234 H 109.374 -3.96039 -3.0324 0
M  V30 1235 H 108.528 -3.08973 -5.22131 0
M  V30 1236 H 107.267 -2.14473 -4.3801 0
M  V30 1237 H 106.272 -4.2631 -3.47188 0
M  V30 1238 H 107.497 -5.2182 -4.34605 0
M  V30 1239 H 105.443 -3.37462 -5.62544 0
M  V30 1240 H 105.36 -5.10507 -5.57601 0
M  V30 1241 H 106.628 -4.33253 -6.48006 0
M  V30 1242 N 110.857 0.726932 -1.39834 0
M  V30 1243 C 112.273 1.03354 -1.21615 0
M  V30 1244 C 112.473 2.01327 -0.08338 0
M  V30 1245 O 111.529 2.46158 0.56238 0
M  V30 1246 C 112.842 1.58811 -2.55342 0
M  V30 1247 C 114.39 1.70851 -2.62257 0
M  V30 1248 C 114.865 2.29716 -3.96225 0
M  V30 1249 N 116.356 2.37116 -3.97907 0
M  V30 1250 C 117.091 2.83619 -4.98345 0
M  V30 1251 N 116.587 3.29958 -6.09179 0
M  V30 1252 N 118.38 2.82901 -4.8572 0
M  V30 1253 H 110.531 0.0773069 -2.12259 0
M  V30 1254 H 112.794 0.0969102 -0.943034 0
M  V30 1255 H 112.5 0.942855 -3.38826 0
M  V30 1256 H 112.374 2.57502 -2.75632 0
M  V30 1257 H 114.761 2.34497 -1.79152 0
M  V30 1258 H 114.842 0.707913 -2.45809 0
M  V30 1259 H 114.486 1.66696 -4.79765 0
M  V30 1260 H 114.416 3.30469 -4.09997 0
M  V30 1261 H 116.907 2.04374 -3.17868 0
M  V30 1262 H 117.22 3.63976 -6.8172 0
M  V30 1263 H 115.565 3.27946 -6.12761 0
M  V30 1264 H 118.756 2.46027 -3.98231 0
M  V30 1265 H 118.929 3.18827 -5.6414 0
M  V30 1266 N 112.336 1.25143 0.95797 0
M  V30 1267 C 113.752 1.01892 1.22842 0
M  V30 1268 C 113.952 -0.266311 1.99732 0
M  V30 1269 O 113.008 -0.979913 2.3271 0
M  V30 1270 C 114.321 2.24004 2.00606 0
M  V30 1271 C 115.869 2.28731 2.13662 0
M  V30 1272 C 116.344 3.5049 2.94823 0
M  V30 1273 N 117.835 3.50866 3.02403 0
M  V30 1274 C 118.57 4.4174 3.65586 0
M  V30 1275 N 118.066 5.42882 4.30408 0
M  V30 1276 N 119.859 4.29429 3.62694 0
M  V30 1277 H 112.01 2.07718 0.443493 0
M  V30 1278 H 114.273 0.912031 0.258657 0
M  V30 1279 H 113.979 3.17395 1.51503 0
M  V30 1280 H 113.853 2.26907 3.01319 0
M  V30 1281 H 116.24 1.35865 2.61963 0
M  V30 1282 H 116.321 2.29848 1.12265 0
M  V30 1283 H 115.965 4.43676 2.47213 0
M  V30 1284 H 115.895 3.46617 3.96439 0
M  V30 1285 H 118.386 2.777 2.56302 0
M  V30 1286 H 118.699 6.0844 4.76467 0
M  V30 1287 H 117.044 5.46758 4.29047 0
M  V30 1288 H 120.235 3.49643 3.11236 0
M  V30 1289 H 120.408 5.00448 4.1165 0
M  V30 1290 N 113.814 -1.1601 1.06675 0
M  V30 1291 C 114.724 -2.24156 0.692179 0
M  V30 1292 C 115.74 -1.71507 -0.293513 0
M  V30 1293 O 116.916 -2.009 -0.141861 0
M  V30 1294 C 113.981 -3.46587 0.0884131 0
M  V30 1295 C 113.042 -4.14257 1.12646 0
M  V30 1296 C 112.275 -5.30844 0.551416 0
M  V30 1297 O 112.498 -5.66858 -0.634656 0
M  V30 1298 O 111.432 -5.87848 1.29298 0
M  V30 1299 H 115.258 -2.58513 1.59388 0
M  V30 1300 H 112.843 -1.23599 0.83926 0
M  V30 1301 H 114.725 -4.20679 -0.246361 0
M  V30 1302 H 113.4 -3.13994 -0.786712 0
M  V30 1303 H 112.307 -3.42118 1.51348 0
M  V30 1304 H 113.64 -4.50914 1.97325 0
M  V30 1305 N 115.292 -0.849877 -1.32721 0
M  V30 1306 C 116.242 -0.262892 -2.26479 0
M  V30 1307 C 117.226 0.588493 -1.49752 0
M  V30 1308 O 118.418 0.438659 -1.71478 0
M  V30 1309 C 115.547 0.551818 -3.38836 0
M  V30 1310 C 114.633 -0.311689 -4.22953 0
M  V30 1311 N 115.024 -1.39567 -4.86163 0
M  V30 1312 C 113.322 -0.100611 -4.45887 0
M  V30 1313 C 114.023 -1.92651 -5.48872 0
M  V30 1314 N 112.999 -1.22637 -5.29586 0
M  V30 1315 H 116.801 -1.09166 -2.72873 0
M  V30 1316 H 114.315 -0.695486 -1.46754 0
M  V30 1317 H 116.312 0.988713 -4.05006 0
M  V30 1318 H 114.972 1.37844 -2.93988 0
M  V30 1319 H 115.983 -1.77859 -4.86402 0
M  V30 1320 H 112.66 0.691681 -4.11731 0
M  V30 1321 H 114.05 -2.83487 -6.09167 0
M  V30 1322 N 116.77 1.45427 -0.607355 0
M  V30 1323 C 117.995 2.07124 -0.107006 0
M  V30 1324 C 118.42 1.44906 1.19933 0
M  V30 1325 O 117.778 0.541687 1.73019 0
M  V30 1326 C 117.826 3.60595 0.0194119 0
M  V30 1327 O 116.93 3.98285 1.0697 0
M  V30 1328 H 116.271 0.659868 -0.0739597 0
M  V30 1329 H 118.801 1.86683 -0.837297 0
M  V30 1330 H 118.811 4.07419 0.2177 0
M  V30 1331 H 117.486 4.05266 -0.934453 0
M  V30 1332 H 116.063 3.63133 0.847889 0
M  V30 1333 N 118.248 0.346503 1.53744 0
M  V30 1334 C 119.196 -0.52422 2.26616 0
M  V30 1335 C 120.19 -1.09948 1.28871 0
M  V30 1336 O 121.396 -1.04488 1.46568 0
M  V30 1337 H 117.771 -0.187743 0.728187 0
M  V30 1338 H 119.742 0.11239 2.98188 0
M  V30 1339 C 118.491 -1.66186 3.05414 0
M  V30 1340 H 117.814 -1.22848 3.80458 0
M  V30 1341 H 119.254 -2.24622 3.59612 0
M  V30 1342 C 117.713 -2.59302 2.1509 0
M  V30 1343 O 118.243 -3.61628 1.74895 0
M  V30 1344 N 116.449 -2.28055 1.8011 0
M  V30 1345 H 115.996 -1.44883 2.12994 0
M  V30 1346 H 115.954 -2.90615 1.19958 0
M  V30 1347 N 119.726 -1.57421 0.075193 0
M  V30 1348 C 121.003 -1.85029 -0.634329 0
M  V30 1349 C 121.383 -0.968305 -1.87582 0
M  V30 1350 O 120.731 -0.0354749 -2.28472 0
M  V30 1351 C 120.941 -3.35286 -0.968742 0
M  V30 1352 C 122.289 -4.02875 -1.34077 0
M  V30 1353 O 123.313 -3.40051 -1.06037 0
M  V30 1354 O 122.172 -5.13691 -1.86506 0
M  V30 1355 H 119.266 -0.7645 -0.315387 0
M  V30 1356 H 121.812 -1.69366 0.106382 0
M  V30 1357 H 120.584 -3.91203 -0.0871376 0
M  V30 1358 H 120.207 -3.56223 -1.7661 0
M  V30 1359 N 121.204 0.198386 -1.56346 0
M  V30 1360 C 122.615 0.763358 -1.70381 0
M  V30 1361 C 122.966 1.83995 -0.681203 0
M  V30 1362 O 122.091 2.15785 0.16305 0
M  V30 1363 C 122.686 1.39143 -3.08909 0
M  V30 1364 C 121.245 1.90352 -3.2472 0
M  V30 1365 C 120.392 0.772233 -2.6633 0
M  V30 1366 H 123.343 -0.0266377 -1.58678 0
M  V30 1367 H 123.364 2.26076 -3.06055 0
M  V30 1368 H 122.876 0.607638 -3.83314 0
M  V30 1369 H 120.977 2.71461 -2.55225 0
M  V30 1370 H 121.09 2.06757 -4.3219 0
M  V30 1371 H 119.454 1.18566 -2.2542 0
M  V30 1372 H 120.237 0.00073556 -3.433 0
M  V30 1373 N 122.682 1.50554 0.465978 0
M  V30 1374 C 123.912 1.65323 1.23903 0
M  V30 1375 C 124.32 0.338051 1.86155 0
M  V30 1376 O 123.663 -0.690518 1.70228 0
M  V30 1377 C 123.725 2.69048 2.3844 0
M  V30 1378 C 123.389 4.12462 1.96784 0
M  V30 1379 C 124.386 4.98168 1.48745 0
M  V30 1380 C 122.071 4.58407 2.05349 0
M  V30 1381 C 124.065 6.27868 1.0982 0
M  V30 1382 C 121.752 5.88112 1.66035 0
M  V30 1383 C 122.75 6.72668 1.18349 0
M  V30 1384 O 122.438 7.99951 0.795825 0
M  V30 1385 H 122.17 0.558629 0.38067 0
M  V30 1386 H 124.724 1.97561 0.562022 0
M  V30 1387 H 122.954 2.32062 3.09328 0
M  V30 1388 H 124.643 2.72985 3.0039 0
M  V30 1389 H 125.409 4.63885 1.41546 0
M  V30 1390 H 121.288 3.92735 2.41414 0
M  V30 1391 H 124.832 6.93819 0.725293 0
M  V30 1392 H 120.729 6.21914 1.72895 0
M  V30 1393 H 121.497 8.13265 0.924222 0
M  V30 1394 N 124.16 -0.719506 1.40217 0
M  V30 1395 C 125.11 -1.8251 1.36653 0
M  V30 1396 C 126.094 -1.59028 0.244732 0
M  V30 1397 O 127.286 -1.70268 0.483524 0
M  V30 1398 C 124.415 -3.20599 1.22763 0
M  V30 1399 C 123.501 -3.49858 2.39708 0
M  V30 1400 N 123.892 -3.49957 3.6519 0
M  V30 1401 C 122.19 -3.80297 2.33002 0
M  V30 1402 C 122.891 -3.77449 4.42614 0
M  V30 1403 N 121.867 -3.96002 3.72402 0
M  V30 1404 H 125.669 -1.80914 2.31619 0
M  V30 1405 H 123.183 -0.918455 1.33933 0
M  V30 1406 H 125.18 -3.99766 1.18292 0
M  V30 1407 H 123.84 -3.23424 0.287614 0
M  V30 1408 H 124.851 -3.309 3.98404 0
M  V30 1409 H 121.528 -3.90635 1.47346 0
M  V30 1410 H 122.918 -3.83863 5.51451 0
M  V30 1411 N 125.638 -1.25649 -0.95132 0
M  V30 1412 C 126.57 -1.02112 -2.05197 0
M  V30 1413 C 127.583 0.0150571 -1.62793 0
M  V30 1414 O 128.772 -0.223874 -1.77091 0
M  V30 1415 C 125.872 -0.522361 -3.3485 0
M  V30 1416 C 125.045 -1.62546 -4.06076 0
M  V30 1417 C 124.104 -1.12649 -5.14001 0
M  V30 1418 O 123.13 -1.82156 -5.39266 0
M  V30 1419 N 124.332 0.03047 -5.80492 0
M  V30 1420 H 127.097 -1.96885 -2.25957 0
M  V30 1421 H 124.658 -1.16899 -1.1201 0
M  V30 1422 H 126.65 -0.172961 -4.0433 0
M  V30 1423 H 125.22 0.33151 -3.10837 0
M  V30 1424 H 124.44 -2.14628 -3.30649 0
M  V30 1425 H 125.728 -2.36644 -4.50419 0
M  V30 1426 H 125.126 0.611169 -5.62389 0
M  V30 1427 H 123.683 0.320875 -6.5101 0
M  V30 1428 N 127.117 1.15442 -1.07289 0
M  V30 1429 C 128.347 1.89821 -0.815576 0
M  V30 1430 C 128.755 1.7823 0.634867 0
M  V30 1431 O 128.098 1.13152 1.44715 0
M  V30 1432 C 128.16 3.40817 -1.14385 0
M  V30 1433 C 127.824 3.76193 -2.59476 0
M  V30 1434 C 128.821 3.77269 -3.57721 0
M  V30 1435 C 126.506 4.0652 -2.95037 0
M  V30 1436 C 128.5 4.08176 -4.89562 0
M  V30 1437 C 126.187 4.37092 -4.27076 0
M  V30 1438 C 127.185 4.37902 -5.24148 0
M  V30 1439 O 126.873 4.67741 -6.53815 0
M  V30 1440 H 126.605 0.608465 -0.294528 0
M  V30 1441 H 129.159 1.472 -1.43252 0
M  V30 1442 H 127.389 3.83835 -0.469865 0
M  V30 1443 H 129.078 3.96485 -0.869179 0
M  V30 1444 H 129.844 3.5394 -3.3159 0
M  V30 1445 H 125.723 4.05049 -2.20128 0
M  V30 1446 H 129.267 4.08723 -5.65324 0
M  V30 1447 H 125.164 4.59889 -4.5296 0
M  V30 1448 H 125.932 4.85509 -6.58957 0
M  V30 1449 N 128.595 0.856903 1.32268 0
M  V30 1450 C 129.844 0.457599 1.96441 0
M  V30 1451 C 130.157 -0.992426 1.68553 0
M  V30 1452 O 131.363 -1.49727 2.26482 0
M  V30 1453 C 129.819 0.767358 3.51624 0
M  V30 1454 C 129.427 2.23326 3.88367 0
M  V30 1455 C 131.171 0.435887 4.22256 0
M  V30 1456 C 129.078 2.48613 5.36606 0
M  V30 1457 H 128.008 0.167387 0.735185 0
M  V30 1458 H 130.659 1.048 1.5063 0
M  V30 1459 H 129.041 0.106367 3.95857 0
M  V30 1460 H 130.215 2.93623 3.55137 0
M  V30 1461 H 128.53 2.52948 3.30766 0
M  V30 1462 H 131.127 0.602202 5.31298 0
M  V30 1463 H 131.47 -0.622672 4.11617 0
M  V30 1464 H 132.003 1.05286 3.83614 0
M  V30 1465 H 128.742 3.53101 5.52268 0
M  V30 1466 H 128.262 1.82896 5.71235 0
M  V30 1467 H 129.941 2.32676 6.03714 0
M  V30 1468 N 130.073 -1.45103 0.615059 0
M  V30 1469 C 131.319 -2.02483 0.113347 0
M  V30 1470 C 131.652 -1.48146 -1.25564 0
M  V30 1471 O 130.927 -0.659104 -1.82992 0
M  V30 1472 C 131.21 -3.60005 0.0825278 0
M  V30 1473 C 131.063 -4.2466 1.48271 0
M  V30 1474 C 132.382 -4.35972 -0.601401 0
M  V30 1475 H 129.501 -0.735764 0.0426632 0
M  V30 1476 H 132.143 -1.72868 0.788461 0
M  V30 1477 H 130.293 -3.85367 -0.492378 0
M  V30 1478 H 131.965 -4.10458 2.10527 0
M  V30 1479 H 130.208 -3.82772 2.04127 0
M  V30 1480 H 130.879 -5.336 1.41332 0
M  V30 1481 H 133.355 -4.15947 -0.112666 0
M  V30 1482 H 132.231 -5.45697 -0.592097 0
M  V30 1483 H 132.492 -4.09391 -1.66887 0
M  V30 1484 N 131.551 -0.354651 -1.53558 0
M  V30 1485 C 132.461 0.50515 -2.29097 0
M  V30 1486 C 133.477 1.10223 -1.34636 0
M  V30 1487 O 134.653 1.11553 -1.67684 0
M  V30 1488 C 131.718 1.63479 -3.05738 0
M  V30 1489 C 130.779 1.06636 -4.15845 0
M  V30 1490 C 130.012 2.14217 -4.88822 0
M  V30 1491 O 130.235 3.35137 -4.61562 0
M  V30 1492 O 129.169 1.77887 -5.75013 0
M  V30 1493 H 132.995 -0.109237 -3.03503 0
M  V30 1494 H 130.58 -0.119357 -1.48922 0
M  V30 1495 H 132.462 2.2918 -3.5363 0
M  V30 1496 H 131.137 2.23478 -2.34178 0
M  V30 1497 H 130.044 0.373565 -3.7223 0
M  V30 1498 H 131.377 0.511081 -4.89539 0
M  V30 1499 N 133.029 1.57378 -0.0835403 0
M  V30 1500 C 134.306 1.85363 0.624507 0
M  V30 1501 C 134.686 0.978239 1.87066 0
M  V30 1502 O 134.034 0.0475908 2.2845 0
M  V30 1503 C 134.244 3.35795 0.950947 0
M  V30 1504 C 135.592 4.03581 1.31939 0
M  V30 1505 O 136.616 3.40609 1.04232 0
M  V30 1506 O 135.475 5.14672 1.83779 0
M  V30 1507 H 132.569 0.766162 0.311329 0
M  V30 1508 H 135.115 1.69307 -0.115362 0
M  V30 1509 H 133.887 3.91244 0.0663899 0
M  V30 1510 H 133.51 3.57154 1.74719 0
M  V30 1511 N 134.507 -0.190092 1.56449 0
M  V30 1512 C 135.753 -0.906472 1.82084 0
M  V30 1513 C 136.108 -1.80677 0.661335 0
M  V30 1514 O 135.401 -1.88501 -0.343237 0
M  V30 1515 C 135.595 -1.75382 3.1141 0
M  V30 1516 C 135.424 -0.937053 4.39829 0
M  V30 1517 C 134.194 -0.619507 5.01488 0
M  V30 1518 C 136.392 -0.2874 5.13496 0
M  V30 1519 N 134.374 0.215367 6.13522 0
M  V30 1520 C 135.745 0.409454 6.18646 0
M  V30 1521 C 137.8 -0.203639 4.97483 0
M  V30 1522 C 136.503 1.1821 7.0952 0
M  V30 1523 C 138.529 0.555622 5.88784 0
M  V30 1524 C 137.891 1.24091 6.93384 0
M  V30 1525 H 133.99 -0.310931 0.717528 0
M  V30 1526 H 136.574 -0.174821 1.93914 0
M  V30 1527 H 134.745 -2.45703 3.00806 0
M  V30 1528 H 136.477 -2.41006 3.25112 0
M  V30 1529 H 133.232 -0.945126 4.64074 0
M  V30 1530 H 133.656 0.622562 6.74131 0
M  V30 1531 H 138.298 -0.719099 4.1664 0
M  V30 1532 H 136.016 1.70897 7.89823 0
M  V30 1533 H 139.602 0.621854 5.78467 0
M  V30 1534 H 138.482 1.81901 7.62812 0
M  V30 1535 N 135.985 -1.50799 -0.457987 0
M  V30 1536 C 136.917 -1.66786 -1.57211 0
M  V30 1537 C 137.93 -0.548962 -1.53265 0
M  V30 1538 O 139.119 -0.8226 -1.58416 0
M  V30 1539 C 136.219 -1.64834 -2.96113 0
M  V30 1540 C 135.392 -2.92971 -3.24787 0
M  V30 1541 C 134.451 -2.83485 -4.43309 0
M  V30 1542 O 133.477 -3.5744 -4.42973 0
M  V30 1543 N 134.679 -1.97929 -5.45714 0
M  V30 1544 H 137.444 -2.62889 -1.43909 0
M  V30 1545 H 135.005 -1.48427 -0.646617 0
M  V30 1546 H 136.997 -1.56084 -3.7339 0
M  V30 1547 H 135.567 -0.764118 -3.03117 0
M  V30 1548 H 134.787 -3.15749 -2.36 0
M  V30 1549 H 136.075 -3.77834 -3.40762 0
M  V30 1550 H 135.473 -1.37182 -5.48815 0
M  V30 1551 H 134.03 -1.95073 -6.21924 0
M  V30 1552 N 137.463 0.71206 -1.40597 0
M  V30 1553 C 138.373 1.8562 -1.43466 0
M  V30 1554 C 139.389 1.70902 -0.326902 0
M  V30 1555 O 140.565 1.93105 -0.572043 0
M  V30 1556 C 137.63 3.21451 -1.29884 0
M  V30 1557 C 136.691 3.48398 -2.50833 0
M  V30 1558 C 135.924 4.77749 -2.3789 0
M  V30 1559 O 136.147 5.53089 -1.39459 0
M  V30 1560 O 135.081 5.05111 -3.27333 0
M  V30 1561 H 138.907 1.86155 -2.39958 0
M  V30 1562 H 136.492 0.86295 -1.21957 0
M  V30 1563 H 138.374 4.02579 -1.24531 0
M  V30 1564 H 137.049 3.21636 -0.364997 0
M  V30 1565 H 135.956 2.67265 -2.61763 0
M  V30 1566 H 137.289 3.53014 -3.4299 0
M  V30 1567 N 138.941 1.26152 0.944643 0
M  V30 1568 C 139.888 1.07408 2.04285 0
M  V30 1569 C 140.858 -0.0198413 1.66088 0
M  V30 1570 O 142.043 0.139264 1.90291 0
M  V30 1571 C 139.183 0.70945 3.37729 0
M  V30 1572 C 138.296 1.87926 3.88983 0
M  V30 1573 C 137.431 1.45807 5.10797 0
M  V30 1574 C 136.47 2.5964 5.54305 0
M  V30 1575 N 135.607 2.18226 6.67324 0
M  V30 1576 H 140.447 2.01389 2.1965 0
M  V30 1577 H 137.984 1.00275 1.07626 0
M  V30 1578 H 139.942 0.478948 4.14442 0
M  V30 1579 H 138.572 -0.193389 3.2222 0
M  V30 1580 H 137.624 2.22279 3.08701 0
M  V30 1581 H 138.936 2.73377 4.17213 0
M  V30 1582 H 138.09 1.18781 5.94959 0
M  V30 1583 H 136.829 0.574414 4.84305 0
M  V30 1584 H 135.834 2.87399 4.68702 0
M  V30 1585 H 137.059 3.48599 5.828 0
M  V30 1586 H 135.005 1.3229 6.42523 0
M  V30 1587 H 134.922 2.97221 6.95123 0
M  V30 1588 H 136.19 1.94403 7.54869 0
M  V30 1589 N 140.419 -1.14872 1.07899 0
M  V30 1590 C 141.649 -1.89386 0.825631 0
M  V30 1591 C 142.057 -1.78565 -0.625406 0
M  V30 1592 O 141.4 -1.13918 -1.44113 0
M  V30 1593 C 141.462 -3.40206 1.16191 0
M  V30 1594 C 141.126 -3.74812 2.61467 0
M  V30 1595 C 142.123 -3.75367 3.59716 0
M  V30 1596 C 139.808 -4.0495 2.97189 0
M  V30 1597 C 141.802 -4.05574 4.9172 0
M  V30 1598 C 139.489 -4.34821 4.29388 0
M  V30 1599 C 140.487 -4.35116 5.26463 0
M  V30 1600 O 140.175 -4.64267 6.56286 0
M  V30 1601 H 139.907 -0.606894 0.297751 0
M  V30 1602 H 142.461 -1.46438 1.44031 0
M  V30 1603 H 140.691 -3.8358 0.490214 0
M  V30 1604 H 142.38 -3.96018 0.890193 0
M  V30 1605 H 143.146 -3.52176 3.33462 0
M  V30 1606 H 139.025 -4.03876 2.22273 0
M  V30 1607 H 142.569 -4.05719 5.67484 0
M  V30 1608 H 138.466 -4.5748 4.55392 0
M  V30 1609 H 139.234 -4.82007 6.61522 0
M  V30 1610 N 141.898 -0.863906 -1.31812 0
M  V30 1611 C 142.845 -0.313303 -2.28664 0
M  V30 1612 C 143.815 0.584868 -1.55462 0
M  V30 1613 O 145 0.517805 -1.83639 0
M  V30 1614 C 142.14 0.48441 -3.41683 0
M  V30 1615 C 141.253 -0.440594 -4.29747 0
M  V30 1616 C 140.388 0.370652 -5.29905 0
M  V30 1617 C 139.427 -0.551164 -6.09613 0
M  V30 1618 N 138.564 0.223462 -7.01744 0
M  V30 1619 H 143.404 -1.14444 -2.75148 0
M  V30 1620 H 140.941 -0.575769 -1.35364 0
M  V30 1621 H 142.899 0.962627 -4.05943 0
M  V30 1622 H 141.529 1.28029 -2.96325 0
M  V30 1623 H 140.581 -1.03724 -3.65986 0
M  V30 1624 H 141.893 -1.14767 -4.85417 0
M  V30 1625 H 141.047 0.911638 -5.99812 0
M  V30 1626 H 139.786 1.11105 -4.74876 0
M  V30 1627 H 138.791 -1.10396 -5.38603 0
M  V30 1628 H 140.016 -1.29032 -6.66729 0
M  V30 1629 H 137.962 0.946787 -6.49132 0
M  V30 1630 H 137.879 -0.424399 -7.54808 0
M  V30 1631 H 139.147 0.745876 -7.75923 0
M  V30 1632 N 143.376 1.44774 -0.622745 0
M  V30 1633 C 144.601 2.06999 -0.128968 0
M  V30 1634 C 145.026 1.4617 1.1839 0
M  V30 1635 O 144.384 0.560007 1.72434 0
M  V30 1636 C 144.432 3.60595 -0.0188351 0
M  V30 1637 O 143.536 3.99398 1.02739 0
M  V30 1638 H 142.877 0.659047 -0.0809544 0
M  V30 1639 H 145.407 1.85784 -0.85705 0
M  V30 1640 H 145.417 4.07627 0.174476 0
M  V30 1641 H 144.092 4.04252 -0.977384 0
M  V30 1642 H 142.669 3.64011 0.809326 0
M  V30 1643 N 144.854 0.36279 1.53368 0
M  V30 1644 C 145.786 -0.519668 2.23231 0
M  V30 1645 C 146.799 -1.04844 1.24546 0
M  V30 1646 O 147.988 -0.955296 1.50786 0
M  V30 1647 C 145.088 -1.72995 2.9142 0
M  V30 1648 C 144.261 -1.33316 4.16588 0
M  V30 1649 C 143.32 -2.40521 4.68013 0
M  V30 1650 O 142.346 -2.03027 5.3176 0
M  V30 1651 N 143.548 -3.72065 4.45587 0
M  V30 1652 H 146.313 0.078751 2.99597 0
M  V30 1653 H 143.874 0.187833 1.60807 0
M  V30 1654 H 145.866 -2.44184 3.22733 0
M  V30 1655 H 144.436 -2.2353 2.18525 0
M  V30 1656 H 143.656 -0.451236 3.91609 0
M  V30 1657 H 144.944 -1.04432 4.97967 0
M  V30 1658 H 144.342 -4.05304 3.94646 0
M  V30 1659 H 142.899 -4.39366 4.81457 0
M  V30 1660 N 146.332 -1.57332 0.0918853 0
M  V30 1661 C 147.581 -1.93412 -0.572249 0
M  V30 1662 C 147.894 -0.975515 -1.69538 0
M  V30 1663 O 149.1 -1.22991 -2.42045 0
M  V30 1664 C 147.556 -3.43648 -1.0693 0
M  V30 1665 C 147.164 -4.47994 0.0239049 0
M  V30 1666 C 148.908 -3.88695 -1.70635 0
M  V30 1667 C 146.815 -5.89381 -0.488319 0
M  V30 1668 H 145.745 -0.721939 -0.217532 0
M  V30 1669 H 148.396 -1.82735 0.167369 0
M  V30 1670 H 146.778 -3.49466 -1.8625 0
M  V30 1671 H 147.952 -4.53815 0.799277 0
M  V30 1672 H 146.267 -4.12536 0.565946 0
M  V30 1673 H 148.864 -4.91725 -2.10025 0
M  V30 1674 H 149.207 -3.27166 -2.57426 0
M  V30 1675 H 149.74 -3.85564 -0.979023 0
M  V30 1676 H 146.479 -6.54602 0.342906 0
M  V30 1677 H 145.999 -5.87037 -1.23077 0
M  V30 1678 H 147.678 -6.39863 -0.958317 0
M  V30 1679 N 147.81 0.181792 -1.56548 0
M  V30 1680 C 148.74 1.22765 -1.98623 0
M  V30 1681 C 149.721 1.46747 -0.860189 0
M  V30 1682 O 150.906 1.58259 -1.12551 0
M  V30 1683 C 148.036 2.56894 -2.33715 0
M  V30 1684 C 146.99 2.475 -3.49182 0
M  V30 1685 C 146.316 3.86023 -3.69986 0
M  V30 1686 C 147.616 1.98866 -4.82959 0
M  V30 1687 H 149.31 0.877942 -2.86239 0
M  V30 1688 H 146.856 0.42088 -1.37712 0
M  V30 1689 H 148.809 3.30253 -2.61746 0
M  V30 1690 H 147.533 2.93632 -1.42997 0
M  V30 1691 H 146.192 1.76596 -3.21262 0
M  V30 1692 H 145.84 4.20136 -2.76576 0
M  V30 1693 H 145.54 3.80609 -4.47672 0
M  V30 1694 H 147.064 4.60984 -4.00407 0
M  V30 1695 H 148.478 2.61992 -5.09934 0
M  V30 1696 H 146.875 2.04424 -5.64208 0
M  V30 1697 H 147.945 0.942465 -4.75653 0
M  V30 1698 N 149.288 1.51039 0.449983 0
M  V30 1699 C 150.236 1.71995 1.5659 0
M  V30 1700 C 151.23 0.586029 1.5894 0
M  V30 1701 O 152.436 0.76709 1.62837 0
M  V30 1702 H 148.811 0.543233 0.520001 0
M  V30 1703 H 150.782 2.65562 1.36085 0
M  V30 1704 C 149.531 1.8506 2.9436 0
M  V30 1705 H 148.854 2.71712 2.93279 0
M  V30 1706 H 150.294 2.0374 3.71842 0
M  V30 1707 C 148.753 0.607277 3.31382 0
M  V30 1708 O 149.283 -0.243903 4.00959 0
M  V30 1709 N 147.489 0.455073 2.87015 0
M  V30 1710 H 147.036 1.14879 2.30566 0
M  V30 1711 H 146.994 -0.375611 3.12148 0
M  V30 1712 N 150.766 -0.704594 1.40972 0
M  V30 1713 C 151.696 -1.83124 1.44872 0
M  V30 1714 C 152.677 -1.67281 0.30838 0
M  V30 1715 O 153.862 -1.87149 0.518556 0
M  V30 1716 C 150.992 -3.21181 1.32136 0
M  V30 1717 C 149.946 -3.51714 2.43888 0
M  V30 1718 C 149.272 -4.89032 2.16222 0
M  V30 1719 C 150.572 -3.516 3.86232 0
M  V30 1720 H 152.266 -1.80117 2.39161 0
M  V30 1721 H 149.812 -0.865145 1.15114 0
M  V30 1722 H 151.765 -3.99702 1.33479 0
M  V30 1723 H 150.489 -3.24791 0.343279 0
M  V30 1724 H 149.148 -2.75539 2.41813 0
M  V30 1725 H 148.796 -4.89256 1.16778 0
M  V30 1726 H 148.496 -5.10426 2.911 0
M  V30 1727 H 150.02 -5.69873 2.19265 0
M  V30 1728 H 151.434 -4.2014 3.9007 0
M  V30 1729 H 149.831 -3.84523 4.60719 0
M  V30 1730 H 150.901 -2.50757 4.15029 0
M  V30 1731 N 152.244 -1.26651 -0.937939 0
M  V30 1732 C 153.154 -1.10276 -2.07066 0
M  V30 1733 C 154.17 -0.0354197 -1.73964 0
M  V30 1734 O 155.346 -0.239816 -1.99967 0
M  V30 1735 C 152.411 -0.740887 -3.38691 0
M  V30 1736 C 151.472 -1.88799 -3.85556 0
M  V30 1737 C 150.705 -1.54329 -5.10899 0
M  V30 1738 O 150.928 -0.446494 -5.6865 0
M  V30 1739 O 149.862 -2.37911 -5.52885 0
M  V30 1740 H 153.688 -2.05309 -2.23789 0
M  V30 1741 H 151.273 -1.05743 -1.0554 0
M  V30 1742 H 153.155 -0.55195 -4.1777 0
M  V30 1743 H 151.83 0.180022 -3.23199 0
M  V30 1744 H 150.737 -2.13191 -3.07409 0
M  V30 1745 H 152.07 -2.78874 -4.05574 0
M  V30 1746 N 153.722 1.14298 -1.08507 0
M  V30 1747 C 154.632 2.23027 -0.727753 0
M  V30 1748 C 155.648 1.71952 0.26619 0
M  V30 1749 O 156.824 2.011 0.109882 0
M  V30 1750 C 153.889 3.46403 -0.143541 0
M  V30 1751 C 152.95 4.12413 -1.19223 0
M  V30 1752 C 152.183 5.29899 -0.635798 0
M  V30 1753 O 152.406 5.67796 0.544393 0
M  V30 1754 O 151.34 5.85717 -1.38634 0
M  V30 1755 H 155.166 2.55945 -1.63481 0
M  V30 1756 H 152.751 1.22248 -0.858817 0
M  V30 1757 H 154.633 4.21018 0.179404 0
M  V30 1758 H 153.308 3.15206 0.736659 0
M  V30 1759 H 152.215 3.39667 -1.56772 0
M  V30 1760 H 153.548 4.47718 -2.04474 0
M  V30 1761 N 155.201 0.870884 1.31352 0
M  V30 1762 C 156.426 0.495957 2.01383 0
M  V30 1763 C 156.851 -0.904324 1.64935 0
M  V30 1764 O 156.209 -1.59687 0.858466 0
M  V30 1765 C 156.257 0.661433 3.54482 0
M  V30 1766 O 155.361 -0.298851 4.11316 0
M  V30 1767 H 154.702 0.197158 0.634054 0
M  V30 1768 H 157.232 1.17455 1.67527 0
M  V30 1769 H 157.242 0.555072 4.04207 0
M  V30 1770 H 155.917 1.68246 3.8035 0
M  V30 1771 H 154.494 -0.147368 3.72609 0
M  V30 1772 N 156.679 -1.44442 0.630414 0
M  V30 1773 C 157.626 -2.30678 -0.0749355 0
M  V30 1774 C 158.596 -1.4344 -0.837502 0
M  V30 1775 O 159.781 -1.72343 -0.818684 0
M  V30 1776 C 156.921 -3.28706 -1.05103 0
M  V30 1777 C 156.034 -4.31046 -0.286954 0
M  V30 1778 C 155.169 -5.16167 -1.2548 0
M  V30 1779 C 154.208 -6.10216 -0.479843 0
M  V30 1780 N 153.345 -6.88039 -1.39811 0
M  V30 1781 H 158.185 -2.90454 0.666386 0
M  V30 1782 H 155.722 -1.43107 0.340404 0
M  V30 1783 H 157.68 -3.84027 -1.63031 0
M  V30 1784 H 156.31 -2.70632 -1.75949 0
M  V30 1785 H 155.362 -3.78203 0.408243 0
M  V30 1786 H 156.674 -4.97794 0.316657 0
M  V30 1787 H 155.828 -5.76002 -1.90544 0
M  V30 1788 H 154.567 -4.49491 -1.89233 0
M  V30 1789 H 153.572 -5.49491 0.184295 0
M  V30 1790 H 154.797 -6.78928 0.152965 0
M  V30 1791 H 152.743 -6.24032 -2.02287 0
M  V30 1792 H 152.66 -7.51223 -0.848508 0
M  V30 1793 H 153.928 -7.52397 -2.03762 0
M  V30 1794 N 158.157 -0.370918 -1.53173 0
M  V30 1795 C 159.12 0.460778 -2.24521 0
M  V30 1796 C 160.12 1.00536 -1.25496 0
M  V30 1797 O 161.31 0.890266 -1.49733 0
M  V30 1798 C 158.442 1.64457 -2.98608 0
M  V30 1799 H 159.635 -0.163613 -2.99453 0
M  V30 1800 H 157.188 -0.122699 -1.55818 0
M  V30 1801 H 157.923 2.30691 -2.2793 0
M  V30 1802 H 157.708 1.26099 -3.7127 0
M  V30 1803 H 159.198 2.23384 -3.5283 0
M  V30 1804 N 159.635 1.57281 -0.100228 0
M  V30 1805 C 160.863 1.98879 0.570509 0
M  V30 1806 C 161.278 0.979476 1.61405 0
M  V30 1807 O 160.635 -0.0302288 1.82475 0
M  V30 1808 C 160.686 3.4052 1.2136 0
M  V30 1809 O 160.407 4.37588 0.211786 0
M  V30 1810 C 161.908 3.97149 1.96945 0
M  V30 1811 H 159.128 0.653428 0.152555 0
M  V30 1812 H 161.672 2.03697 -0.18103 0
M  V30 1813 H 159.827 3.367 1.91603 0
M  V30 1814 H 160.241 5.20118 0.676607 0
M  V30 1815 H 161.715 4.98393 2.37294 0
M  V30 1816 H 162.192 3.3525 2.83733 0
M  V30 1817 H 162.798 4.04458 1.31506 0
M  V30 1818 N 161.113 -0.173488 1.56642 0
M  V30 1819 C 162.362 -0.888758 1.81063 0
M  V30 1820 C 162.675 -1.83506 0.67712 0
M  V30 1821 O 163.881 -2.59254 0.806206 0
M  V30 1822 C 162.337 -1.63091 3.20826 0
M  V30 1823 C 161.945 -0.728357 4.4204 0
M  V30 1824 C 163.689 -2.33454 3.54541 0
M  V30 1825 C 161.596 -1.47062 5.72823 0
M  V30 1826 H 160.526 -0.335618 0.675186 0
M  V30 1827 H 163.177 -0.141712 1.82952 0
M  V30 1828 H 161.559 -2.42263 3.13248 0
M  V30 1829 H 162.733 0.0262449 4.60793 0
M  V30 1830 H 161.048 -0.134492 4.16183 0
M  V30 1831 H 163.645 -2.89578 4.49498 0
M  V30 1832 H 163.988 -3.08687 2.79317 0
M  V30 1833 H 164.521 -1.61227 3.63663 0
M  V30 1834 H 161.26 -0.760658 6.51072 0
M  V30 1835 H 160.78 -2.1986 5.58052 0
M  V30 1836 H 162.459 -2.01868 6.14702 0
M  V30 1837 N 162.591 -1.51276 -0.441967 0
M  V30 1838 C 163.541 -1.6864 -1.53442 0
M  V30 1839 C 164.525 -0.540444 -1.51552 0
M  V30 1840 O 165.717 -0.796157 -1.58083 0
M  V30 1841 C 162.846 -1.8106 -2.91672 0
M  V30 1842 C 161.932 -3.01424 -2.98336 0
M  V30 1843 N 162.323 -4.2467 -2.74752 0
M  V30 1844 C 160.621 -3.00584 -3.29493 0
M  V30 1845 C 161.322 -5.05891 -2.87139 0
M  V30 1846 N 160.298 -4.40442 -3.18609 0
M  V30 1847 H 164.1 -2.61598 -1.33954 0
M  V30 1848 H 161.614 -1.4886 -0.6492 0
M  V30 1849 H 163.611 -1.91609 -3.70259 0
M  V30 1850 H 162.271 -0.892795 -3.12185 0
M  V30 1851 H 163.282 -4.53691 -2.49769 0
M  V30 1852 H 159.959 -2.18417 -3.55809 0
M  V30 1853 H 161.349 -6.13983 -2.72899 0
M  V30 1854 N 164.069 0.697108 -1.41344 0
M  V30 1855 C 164.979 1.84088 -1.45427 0
M  V30 1856 C 165.995 1.70545 -0.34501 0
M  V30 1857 O 167.171 1.92488 -0.592492 0
M  V30 1858 C 164.236 3.20056 -1.33286 0
M  V30 1859 C 163.297 3.45718 -2.54514 0
M  V30 1860 C 162.53 4.75199 -2.42944 0
M  V30 1861 O 162.753 5.51579 -1.45318 0
M  V30 1862 O 161.687 5.0161 -3.32672 0
M  V30 1863 H 165.513 1.836 -2.41919 0
M  V30 1864 H 163.098 0.849966 -1.22866 0
M  V30 1865 H 164.98 4.01236 -1.28794 0
M  V30 1866 H 163.655 3.2123 -0.39909 0
M  V30 1867 H 162.562 2.64474 -2.64583 0
M  V30 1868 H 163.895 3.49356 -3.46715 0
M  V30 1869 N 165.547 1.27147 0.931209 0
M  V30 1870 C 166.495 1.09398 2.05268 0
M  V30 1871 C 167.489 0.0180591 1.6939 0
M  V30 1872 O 168.695 0.17551 1.79142 0
M  V30 1873 H 165.07 0.336986 0.672268 0
M  V30 1874 H 167.041 2.04416 2.17386 0
M  V30 1875 C 165.79 0.75424 3.39421 0
M  V30 1876 H 165.113 1.57404 3.67511 0
M  V30 1877 H 166.553 0.669903 4.18674 0
M  V30 1878 C 165.012 -0.541197 3.32525 0
M  V30 1879 O 165.542 -1.57664 3.69466 0
M  V30 1880 N 163.748 -0.535517 2.85623 0
M  V30 1881 H 163.295 0.307511 2.55758 0
M  V30 1882 H 163.253 -1.40236 2.81392 0
M  V30 1883 N 167.025 -1.13721 1.09112 0
M  V30 1884 C 168.274 -1.84275 0.82009 0
M  V30 1885 C 168.587 -1.84253 -0.656509 0
M  V30 1886 O 169.793 -2.50668 -1.04296 0
M  V30 1887 C 168.249 -3.30825 1.41714 0
M  V30 1888 C 167.857 -3.39244 2.92605 0
M  V30 1889 C 169.601 -4.06443 1.22492 0
M  V30 1890 C 167.508 -4.80047 3.45411 0
M  V30 1891 H 166.438 -0.690387 0.30312 0
M  V30 1892 H 169.089 -1.28146 1.31343 0
M  V30 1893 H 167.471 -3.86737 0.851498 0
M  V30 1894 H 168.645 -2.93344 3.55367 0
M  V30 1895 H 166.96 -2.77088 3.10823 0
M  V30 1896 H 169.557 -5.10387 1.59402 0
M  V30 1897 H 169.9 -4.15972 0.165299 0
M  V30 1898 H 170.433 -3.56852 1.75788 0
M  V30 1899 H 167.172 -4.75709 4.50978 0
M  V30 1900 H 166.692 -5.26455 2.87411 0
M  V30 1901 H 168.371 -5.48957 3.42425 0
M  V30 1902 N 168.503 -0.877838 -1.30888 0
M  V30 1903 C 169.751 -0.491723 -1.96027 0
M  V30 1904 C 170.072 0.960827 -1.69685 0
M  V30 1905 O 169.342 1.67462 -1.01654 0
M  V30 1906 H 167.922 -0.17885 -0.725273 0
M  V30 1907 H 170.584 -1.11935 -1.59551 0
M  V30 1908 H 169.68 -0.656016 -3.05128 0
M  V30 1909 N 169.982 1.44106 -0.638065 0
M  V30 1910 C 170.945 2.29138 0.0531013 0
M  V30 1911 C 171.945 1.41409 0.765506 0
M  V30 1912 O 173.135 1.63206 0.609046 0
M  V30 1913 C 170.267 3.23144 1.08584 0
M  V30 1914 H 171.46 2.91739 -0.694883 0
M  V30 1915 H 169.013 1.51134 -0.398538 0
M  V30 1916 H 169.748 2.65408 1.86357 0
M  V30 1917 H 169.533 3.87804 0.578852 0
M  V30 1918 H 171.023 3.87004 1.56899 0
M  V30 1919 N 171.46 0.379036 1.52974 0
M  V30 1920 C 172.423 -0.448865 2.24762 0
M  V30 1921 C 173.423 -0.998689 1.26027 0
M  V30 1922 O 174.613 -0.882313 1.50203 0
M  V30 1923 C 171.745 -1.62872 2.99476 0
M  V30 1924 H 172.938 0.179491 2.99362 0
M  V30 1925 H 170.491 0.13096 1.5575 0
M  V30 1926 H 171.226 -2.29479 2.29151 0
M  V30 1927 H 171.011 -1.24128 3.71934 0
M  V30 1928 H 172.501 -2.2151 3.5401 0
M  V30 1929 N 172.938 -1.57226 0.108567 0
M  V30 1930 C 174.186 -1.94448 -0.550853 0
M  V30 1931 C 174.507 -0.992074 -1.67878 0
M  V30 1932 O 173.777 -0.0465 -1.95845 0
M  V30 1933 H 172.357 -0.717897 -0.206479 0
M  V30 1934 H 175.019 -1.94112 0.175062 0
M  V30 1935 H 174.115 -2.97218 -0.952259 0
M  V30 1936 N 174.416 0.165178 -1.56732 0
M  V30 1937 C 175.663 0.880807 -1.8234 0
M  V30 1938 C 175.991 1.81977 -0.686621 0
M  V30 1939 O 175.246 1.92971 0.325697 0
M  V30 1940 C 175.545 1.70405 -3.1416 0
M  V30 1941 C 175.211 0.913475 -4.4155 0
M  V30 1942 C 173.873 0.695303 -4.7615 0
M  V30 1943 C 176.225 0.359349 -5.1996 0
M  V30 1944 C 173.553 -0.0879947 -5.86634 0
M  V30 1945 C 175.905 -0.410893 -6.31264 0
M  V30 1946 C 174.569 -0.639808 -6.64427 0
M  V30 1947 H 173.839 0.32231 -0.667231 0
M  V30 1948 H 176.486 0.145402 -1.90947 0
M  V30 1949 H 174.791 2.50903 -3.00923 0
M  V30 1950 H 176.488 2.26091 -3.31186 0
M  V30 1951 H 173.078 1.09357 -4.14414 0
M  V30 1952 H 177.262 0.515228 -4.93618 0
M  V30 1953 H 172.518 -0.27503 -6.10781 0
M  V30 1954 H 176.692 -0.847494 -6.91224 0
M  V30 1955 H 174.319 -1.24864 -7.49875 0
M  V30 1956 N 175.894 1.51508 0.433938 0
M  V30 1957 C 176.841 1.73068 1.52696 0
M  V30 1958 C 177.811 0.572441 1.55924 0
M  V30 1959 O 178.996 0.807253 1.72882 0
M  V30 1960 C 176.136 1.86474 2.90381 0
M  V30 1961 C 175.249 3.14037 2.96656 0
M  V30 1962 C 174.384 3.18019 4.25485 0
M  V30 1963 C 173.423 4.39882 4.2564 0
M  V30 1964 N 172.56 4.41394 5.45999 0
M  V30 1965 H 177.4 2.66366 1.33615 0
M  V30 1966 H 174.937 1.32008 0.649018 0
M  V30 1967 H 176.895 1.92229 3.70275 0
M  V30 1968 H 175.525 0.965809 3.08013 0
M  V30 1969 H 174.577 3.17575 2.09404 0
M  V30 1970 H 175.889 4.0394 2.92633 0
M  V30 1971 H 175.043 3.22708 5.13755 0
M  V30 1972 H 173.782 2.2601 4.3217 0
M  V30 1973 H 172.787 4.35366 3.35763 0
M  V30 1974 H 174.012 5.33159 4.20617 0
M  V30 1975 H 171.958 3.52258 5.53399 0
M  V30 1976 H 171.875 5.25111 5.4387 0
M  V30 1977 H 173.143 4.50281 6.36292 0
M  V30 1978 N 177.372 -0.689602 1.41712 0
M  V30 1979 C 178.305 -1.81403 1.3845 0
M  V30 1980 C 179.283 -1.60653 0.250874 0
M  V30 1981 O 180.467 -1.83323 0.43874 0
M  V30 1982 C 177.594 -3.18176 1.1611 0
M  V30 1983 C 176.64 -3.57705 2.3227 0
M  V30 1984 S 177.473 -3.61827 3.94767 0
M  V30 1985 C 178.629 -5.01318 3.74742 0
M  V30 1986 H 178.862 -1.83893 2.33603 0
M  V30 1987 H 176.395 -0.858878 1.28307 0
M  V30 1988 H 178.353 -3.97132 1.03907 0
M  V30 1989 H 177.014 -3.13288 0.225668 0
M  V30 1990 H 176.207 -4.57082 2.12349 0
M  V30 1991 H 175.809 -2.86073 2.40911 0
M  V30 1992 H 178.101 -5.88986 3.34817 0
M  V30 1993 H 179.044 -5.26283 4.73743 0
M  V30 1994 H 179.452 -4.73138 3.07898 0
M  V30 1995 N 178.85 -1.27639 -0.924453 0
M  V30 1996 C 180.075 -1.17101 -1.71179 0
M  V30 1997 C 180.5 0.268134 -1.86179 0
M  V30 1998 O 179.858 1.19415 -1.36418 0
M  V30 1999 C 179.906 -1.86313 -3.08739 0
M  V30 2000 O 179.01 -1.16331 -3.95652 0
M  V30 2001 H 178.351 -0.407091 -0.524569 0
M  V30 2002 H 180.881 -1.68767 -1.15666 0
M  V30 2003 H 180.891 -1.938 -3.59034 0
M  V30 2004 H 179.566 -2.91001 -2.97138 0
M  V30 2005 H 178.143 -1.16935 -3.54091 0
M  V30 2006 N 180.328 1.1314 -1.09713 0
M  V30 2007 C 181.739 1.66029 -0.853885 0
M  V30 2008 C 182.09 1.86241 0.617142 0
M  V30 2009 O 181.215 1.5834 1.47503 0
M  V30 2010 C 181.81 3.01599 -1.5435 0
M  V30 2011 C 180.369 3.51467 -1.34714 0
M  V30 2012 C 179.516 2.26648 -1.59769 0
M  V30 2013 H 182.467 0.970226 -1.25588 0
M  V30 2014 H 182.488 3.67709 -0.978267 0
M  V30 2015 H 182 2.86856 -2.6141 0
M  V30 2016 H 180.101 3.71408 -0.297838 0
M  V30 2017 H 180.214 4.314 -2.08401 0
M  V30 2018 H 178.578 2.33385 -1.01998 0
M  V30 2019 H 179.361 2.14467 -2.68065 0
M  V30 2020 O 181.845 1.01778 1.25393 0
M  V30 2021 H 182.536 0.678396 1.81432 0
M  V30 END ATOM
M  V30 BEGIN BOND
M  V30 END BOND
M  V30 END CTAB
M  END
$$$$
