drugbank_target|Q9Y6Y9 Lymphocyte antigen 96 (DB00295; DB02767; DB03017; DB08231)
 OpenBabel12092120453D

  0  0  0     0  0            999 V3000
M  V30 BEGIN CTAB
M  V30 COUNTS 2608 2640 0 0 0
M  V30 BEGIN ATOM
M  V30 1 H -0.908 1.98254 -0.117106 0
M  V30 2 N 0 1.576 0 0
M  V30 3 C 0.933 2.03868 1.02534 0
M  V30 4 C 1.911 0.928543 1.3348 0
M  V30 5 O 3.095 1.19667 1.45644 0
M  V30 6 C 0.222 2.43627 2.35294 0
M  V30 7 C -0.732 3.65373 2.2001 0
M  V30 8 S 0.101 5.13292 1.52614 0
M  V30 9 C 1.257 5.56322 2.86805 0
M  V30 10 H 1.49 2.90518 0.631377 0
M  V30 11 H -0.977 1.52953 0.210867 0
M  V30 12 H 0.981 2.67203 3.11629 0
M  V30 13 H -0.358 1.57376 2.7183 0
M  V30 14 H -1.165 3.90944 3.18086 0
M  V30 15 H -1.563 3.418 1.51819 0
M  V30 16 H 0.729 5.58782 3.83104 0
M  V30 17 H 1.672 6.56266 2.65933 0
M  V30 18 H 2.08 4.83886 2.90714 0
M  V30 19 N 1.4781 -0.272755 1.55222 0
M  V30 20 C 2.4081 -1.34136 1.91127 0
M  V30 21 C 3.3891 -1.51513 0.773168 0
M  V30 22 O 4.5741 -1.64552 1.03132 0
M  V30 23 C 1.7041 -2.70083 2.1834 0
M  V30 24 C 0.6581 -2.67437 3.34158 0
M  V30 25 C -0.0159 -4.06938 3.46851 0
M  V30 26 C 1.2841 -2.26686 4.70543 0
M  V30 27 H 2.9781 -1.04333 2.80633 0
M  V30 28 H 0.5241 -0.500454 1.35024 0
M  V30 29 H 2.4771 -3.44952 2.42046 0
M  V30 30 H 1.2011 -3.01469 1.25634 0
M  V30 31 H -0.1399 -1.95026 3.1042 0
M  V30 32 H -0.4919 -4.35547 2.51611 0
M  V30 33 H -0.7919 -4.06062 4.2472 0
M  V30 34 H 0.7321 -4.83545 3.72849 0
M  V30 35 H 2.1461 -2.91277 4.93792 0
M  V30 36 H 0.5431 -2.36971 5.5133 0
M  V30 37 H 1.6131 -1.21818 4.69349 0
M  V30 38 N 2.9562 -1.48159 -0.537278 0
M  V30 39 C 4.3672 -1.49429 -1.11928 0
M  V30 40 C 4.7182 -0.26 -1.9447 0
M  V30 41 O 3.8432 0.633489 -2.0692 0
M  V30 42 C 4.4382 -2.70758 -2.03656 0
M  V30 43 C 2.9972 -2.74923 -2.57088 0
M  V30 44 C 2.1442 -2.42835 -1.3389 0
M  V30 45 H 5.0952 -1.55381 -0.322886 0
M  V30 46 H 5.1162 -2.48861 -2.87834 0
M  V30 47 H 4.6282 -3.60575 -1.43553 0
M  V30 48 H 2.7292 -1.89296 -3.20933 0
M  V30 49 H 2.8422 -3.76157 -2.9672 0
M  V30 50 H 1.2062 -1.93836 -1.65226 0
M  V30 51 H 1.9892 -3.34884 -0.755504 0
M  V30 52 N 4.4343 0.785586 -1.36625 0
M  V30 53 C 5.6813 1.54362 -1.31067 0
M  V30 54 C 6.0093 1.94195 0.10893 0
M  V30 55 O 5.2643 1.63262 1.07908 0
M  V30 56 C 5.5633 2.83007 -2.1827 0
M  V30 57 C 5.2293 2.62294 -3.6676 0
M  V30 58 C 3.8913 2.56353 -4.0723 0
M  V30 59 C 6.2433 2.43371 -4.6089 0
M  V30 60 C 3.5713 2.29461 -5.39967 0
M  V30 61 C 5.9233 2.18005 -5.93849 0
M  V30 62 C 4.5873 2.105 -6.3344 0
M  V30 63 H 3.8573 0.564851 -0.479609 0
M  V30 64 H 6.5043 0.906028 -1.68711 0
M  V30 65 H 4.8093 3.51253 -1.73576 0
M  V30 66 H 6.5063 3.40817 -2.11292 0
M  V30 67 H 3.0963 2.67774 -3.34656 0
M  V30 68 H 7.2803 2.46959 -4.30494 0
M  V30 69 H 2.5363 2.22135 -5.69619 0
M  V30 70 H 6.7103 2.02359 -6.66351 0
M  V30 71 H 4.3373 1.89425 -7.36222 0
M  V30 72 N 5.9124 1.20967 1.01018 0
M  V30 73 C 6.8424 0.988272 2.11555 0
M  V30 74 C 7.8234 -0.0849778 1.69888 0
M  V30 75 O 9.0084 0.0738202 1.9406 0
M  V30 76 C 6.1384 0.546528 3.42973 0
M  V30 77 C 5.0924 1.56375 3.9841 0
M  V30 78 C 4.4184 0.97842 5.25672 0
M  V30 79 C 5.7184 2.94922 4.31066 0
M  V30 80 H 7.4124 1.91276 2.30334 0
M  V30 81 H 4.9584 0.921073 1.1069 0
M  V30 82 H 6.9114 0.378839 4.19694 0
M  V30 83 H 5.6354 -0.413598 3.23971 0
M  V30 84 H 4.2944 1.71891 3.23804 0
M  V30 85 H 3.9424 0.0101688 5.02999 0
M  V30 86 H 3.6424 1.65784 5.63728 0
M  V30 87 H 5.1664 0.821939 6.05043 0
M  V30 88 H 6.5804 2.8288 4.9865 0
M  V30 89 H 4.9774 3.5983 4.80253 0
M  V30 90 H 6.0474 3.4616 3.39561 0
M  V30 91 N 7.3905 -1.2043 1.01659 0
M  V30 92 C 8.6375 -1.89797 0.705917 0
M  V30 93 C 8.9655 -1.78848 -0.764439 0
M  V30 94 O 8.2205 -1.16694 -1.57102 0
M  V30 95 C 8.5195 -3.40464 1.08714 0
M  V30 96 C 8.1855 -3.71614 2.5537 0
M  V30 97 C 6.8475 -3.79826 2.95441 0
M  V30 98 C 9.1995 -3.85915 3.50313 0
M  V30 99 C 6.5275 -3.99797 4.29394 0
M  V30 100 C 8.8795 -4.07396 4.83954 0
M  V30 101 C 7.5435 -4.13837 5.23732 0
M  V30 102 H 6.8135 -0.694518 0.258313 0
M  V30 103 H 9.4605 -1.42691 1.27717 0
M  V30 104 H 7.7655 -3.89385 0.434309 0
M  V30 105 H 9.4625 -3.92433 0.824461 0
M  V30 106 H 6.0525 -3.65822 2.23321 0
M  V30 107 H 10.2365 -3.78926 3.20513 0
M  V30 108 H 5.4925 -4.03018 4.59768 0
M  V30 109 H 9.6665 -4.17404 5.57447 0
M  V30 110 H 7.2935 -4.29064 6.27541 0
M  V30 111 N 8.8686 -0.792821 -1.36206 0
M  V30 112 C 10.1156 -0.366786 -1.99151 0
M  V30 113 C 10.4436 1.06243 -1.62919 0
M  V30 114 O 9.6986 1.74927 -0.877442 0
M  V30 115 C 9.9976 -0.481501 -3.54142 0
M  V30 116 C 9.6636 -1.87202 -4.10203 0
M  V30 117 C 8.3256 -2.25248 -4.25226 0
M  V30 118 C 10.6776 -2.78237 -4.40719 0
M  V30 119 C 8.0056 -3.53723 -4.68078 0
M  V30 120 C 10.3576 -4.06144 -4.85005 0
M  V30 121 C 9.0216 -4.44207 -4.98234 0
M  V30 122 H 8.2916 -0.134217 -0.728743 0
M  V30 123 H 10.9386 -1.01094 -1.62641 0
M  V30 124 H 9.2436 0.246146 -3.91026 0
M  V30 125 H 10.9406 -0.132844 -4.0078 0
M  V30 126 H 7.5306 -1.56639 -3.98951 0
M  V30 127 H 11.7146 -2.50097 -4.28679 0
M  V30 128 H 6.9706 -3.8308 -4.76508 0
M  V30 129 H 11.1446 -4.76796 -5.07581 0
M  V30 130 H 8.7716 -5.43814 -5.31197 0
M  V30 131 N 10.3467 1.47872 -0.545128 0
M  V30 132 C 11.5717 2.07391 -0.0190611 0
M  V30 133 C 11.9967 1.39688 1.25971 0
M  V30 134 O 11.3547 0.467816 1.7516 0
M  V30 135 C 11.4027 3.60188 0.172335 0
M  V30 136 O 10.5067 3.9339 1.23766 0
M  V30 137 H 9.8477 0.662411 -0.0459059 0
M  V30 138 H 12.3777 1.90066 -0.757365 0
M  V30 139 H 12.3877 4.06129 0.390305 0
M  V30 140 H 11.0627 4.08865 -0.761725 0
M  V30 141 H 9.6397 3.5921 1.00114 0
M  V30 142 N 11.8248 0.280983 1.55075 0
M  V30 143 C 13.0528 -0.337293 2.04132 0
M  V30 144 C 13.4678 -1.4903 1.15912 0
M  V30 145 O 12.8248 -1.81606 0.180459 0
M  V30 146 C 12.8758 -0.812706 3.52246 0
M  V30 147 O 12.5968 0.294387 4.3711 0
M  V30 148 C 14.0978 -1.4982 4.17216 0
M  V30 149 H 11.3178 -0.0761638 0.666663 0
M  V30 150 H 13.8618 0.414787 2.00249 0
M  V30 151 H 12.0168 -1.51486 3.56554 0
M  V30 152 H 12.4308 -0.0721325 5.2445 0
M  V30 153 H 13.9048 -1.7822 5.22438 0
M  V30 154 H 14.3818 -2.43168 3.65741 0
M  V30 155 H 14.9878 -0.839742 4.16927 0
M  V30 156 N 13.3029 -1.57598 0.00835791 0
M  V30 157 C 14.2329 -2.1198 -0.979113 0
M  V30 158 C 15.2139 -1.03091 -1.35301 0
M  V30 159 O 16.3989 -1.30818 -1.43528 0
M  V30 160 C 13.5289 -2.62995 -2.26828 0
M  V30 161 C 12.4829 -3.76485 -2.03576 0
M  V30 162 C 11.8089 -4.13846 -3.38579 0
M  V30 163 C 13.1089 -5.0342 -1.39161 0
M  V30 164 H 14.8029 -2.94738 -0.526281 0
M  V30 165 H 12.3489 -1.41783 -0.251704 0
M  V30 166 H 14.3019 -2.99669 -2.96271 0
M  V30 167 H 13.0259 -1.7737 -2.7424 0
M  V30 168 H 11.6849 -3.40217 -1.36557 0
M  V30 169 H 11.3329 -3.25232 -3.83709 0
M  V30 170 H 11.0329 -4.90312 -3.23834 0
M  V30 171 H 12.5569 -4.53086 -4.09323 0
M  V30 172 H 13.9709 -5.37812 -1.98573 0
M  V30 173 H 12.3679 -5.84746 -1.34878 0
M  V30 174 H 13.4379 -4.83548 -0.361868 0
M  V30 175 N 14.781 0.264519 -1.55364 0
M  V30 176 C 16.028 0.994986 -1.7637 0
M  V30 177 C 16.356 1.85976 -0.5695 0
M  V30 178 O 15.611 1.90509 0.44776 0
M  V30 179 C 15.91 1.9004 -3.02687 0
M  V30 180 C 15.576 1.19243 -4.34847 0
M  V30 181 C 14.238 0.996709 -4.70764 0
M  V30 182 C 16.59 0.689296 -5.16622 0
M  V30 183 C 13.918 0.285261 -5.86006 0
M  V30 184 C 16.27 -0.00860079 -6.32599 0
M  V30 185 C 14.934 -0.215963 -6.67151 0
M  V30 186 H 14.204 0.364091 -0.645383 0
M  V30 187 H 16.851 0.266543 -1.89636 0
M  V30 188 H 15.156 2.69533 -2.84357 0
M  V30 189 H 16.853 2.46695 -3.16137 0
M  V30 190 H 13.443 1.3549 -4.06621 0
M  V30 191 H 17.627 0.828108 -4.89342 0
M  V30 192 H 12.883 0.113961 -6.11294 0
M  V30 193 H 17.057 -0.406186 -6.95214 0
M  V30 194 H 14.684 -0.769217 -7.56298 0
M  V30 195 N 16.2591 1.48442 0.529413 0
M  V30 196 C 17.4841 1.60406 1.31471 0
M  V30 197 C 17.9091 0.264738 1.86228 0
M  V30 198 O 17.2671 -0.763668 1.64432 0
M  V30 199 C 17.3151 2.65419 2.44101 0
M  V30 200 O 16.4191 2.22618 3.47153 0
M  V30 201 H 15.7601 0.537863 0.389357 0
M  V30 202 H 18.2901 1.94432 0.636965 0
M  V30 203 H 18.3001 2.86709 2.90279 0
M  V30 204 H 16.9751 3.62652 2.03608 0
M  V30 205 H 15.5521 2.11543 3.0709 0
M  V30 206 N 17.7372 -0.778329 1.37039 0
M  V30 207 C 18.9622 -1.57248 1.35233 0
M  V30 208 C 19.3872 -1.87999 -0.0615568 0
M  V30 209 O 18.7452 -1.48734 -1.03672 0
M  V30 210 C 18.7932 -2.86353 2.19167 0
M  V30 211 O 17.8972 -3.80442 1.59178 0
M  V30 212 H 17.2382 -0.476569 0.462362 0
M  V30 213 H 19.7682 -0.963853 1.80474 0
M  V30 214 H 19.7782 -3.35519 2.32145 0
M  V30 215 H 18.4532 -2.63299 3.21942 0
M  V30 216 H 17.0302 -3.39067 1.55203 0
M  V30 217 N 19.2153 -1.21501 -1.00376 0
M  V30 218 C 20.4643 -1.02718 -1.73586 0
M  V30 219 C 20.7773 0.439589 -1.90596 0
M  V30 220 O 21.9833 0.746848 -2.61026 0
M  V30 221 C 20.4393 -1.78929 -3.1227 0
M  V30 222 C 20.0473 -3.29783 -3.03228 0
M  V30 223 C 21.7913 -1.68557 -3.89601 0
M  V30 224 C 19.6983 -3.98479 -4.36999 0
M  V30 225 H 18.6283 -0.380733 -0.650814 0
M  V30 226 H 21.2793 -1.45248 -1.1214 0
M  V30 227 H 19.6613 -1.29192 -3.74333 0
M  V30 228 H 20.8353 -3.86832 -2.50395 0
M  V30 229 H 19.1503 -3.40711 -2.39385 0
M  V30 230 H 21.7473 -2.17211 -4.88593 0
M  V30 231 H 22.0903 -0.644021 -4.11288 0
M  V30 232 H 22.6233 -2.15778 -3.34193 0
M  V30 233 H 19.3623 -5.02841 -4.20513 0
M  V30 234 H 18.8823 -3.46219 -4.89788 0
M  V30 235 H 20.5613 -4.03462 -5.05794 0
M  V30 236 N 20.6934 1.19889 -1.02296 0
M  V30 237 C 21.9404 1.8942 -0.715972 0
M  V30 238 C 22.2684 1.79251 0.754944 0
M  V30 239 O 21.5234 1.17526 1.56481 0
M  V30 240 C 21.8224 3.39883 -1.10518 0
M  V30 241 C 21.4884 3.70254 -2.57337 0
M  V30 242 C 20.1504 3.78254 -2.97452 0
M  V30 243 C 22.5024 3.84052 -3.52354 0
M  V30 244 C 19.8304 3.97514 -4.31509 0
M  V30 245 C 22.1824 4.04824 -4.86108 0
M  V30 246 C 20.8464 4.11054 -5.25919 0
M  V30 247 H 20.1164 0.693138 -0.261993 0
M  V30 248 H 22.7634 1.42012 -1.28472 0
M  V30 249 H 21.0684 3.8915 -0.454953 0
M  V30 250 H 22.7654 3.9199 -0.845261 0
M  V30 251 H 19.3554 3.64632 -2.25258 0
M  V30 252 H 23.5394 3.77221 -3.22518 0
M  V30 253 H 18.7954 4.00574 -4.61898 0
M  V30 254 H 22.9694 4.14442 -5.59653 0
M  V30 255 H 20.5964 4.2573 -6.29808 0
M  V30 256 N 22.1715 0.800033 1.35784 0
M  V30 257 C 23.3995 0.389606 2.03199 0
M  V30 258 C 23.8145 -0.997375 1.60306 0
M  V30 259 O 23.1715 -1.64154 0.797481 0
M  V30 260 C 23.2225 0.455855 3.58614 0
M  V30 261 O 22.9435 1.78815 3.99946 0
M  V30 262 C 24.4445 0.0374032 4.43284 0
M  V30 263 H 21.6645 0.159132 0.651857 0
M  V30 264 H 24.2085 1.08183 1.73541 0
M  V30 265 H 22.3635 -0.188057 3.86943 0
M  V30 266 H 22.7775 1.74636 4.94573 0
M  V30 267 H 24.2515 0.134882 5.51835 0
M  V30 268 H 24.7285 -1.01651 4.27275 0
M  V30 269 H 25.3345 0.654215 4.20238 0
M  V30 270 N 23.6496 -1.47581 0.552962 0
M  V30 271 C 24.5596 -2.33743 -0.200353 0
M  V30 272 C 25.5756 -1.47928 -0.916151 0
M  V30 273 O 26.7516 -1.80865 -0.885993 0
M  V30 274 C 23.8166 -3.24536 -1.21973 0
M  V30 275 C 22.8776 -4.26238 -0.511819 0
M  V30 276 C 22.1106 -5.12693 -1.48263 0
M  V30 277 O 22.3336 -5.01525 -2.71714 0
M  V30 278 O 21.2676 -5.93375 -1.00945 0
M  V30 279 H 25.0936 -2.9945 0.506304 0
M  V30 280 H 22.6786 -1.46071 0.313622 0
M  V30 281 H 24.5606 -3.80631 -1.80827 0
M  V30 282 H 23.2356 -2.61462 -1.90839 0
M  V30 283 H 22.1426 -3.73914 0.117799 0
M  V30 284 H 23.4756 -4.92014 0.135308 0
M  V30 285 N 25.1277 -0.289203 -1.54924 0
M  V30 286 C 26.0907 0.579144 -2.21762 0
M  V30 287 C 27.0907 1.07047 -1.1999 0
M  V30 288 O 28.2807 0.968384 -1.44803 0
M  V30 289 C 25.4127 1.80055 -2.8947 0
M  V30 290 H 26.6057 -0.00464908 -2.999 0
M  V30 291 H 24.1587 -0.0399306 -1.56249 0
M  V30 292 H 24.8937 2.42449 -2.15381 0
M  V30 293 H 24.6787 1.45602 -3.64064 0
M  V30 294 H 26.1687 2.41773 -3.40493 0
M  V30 295 N 26.6058 1.57591 -0.0167156 0
M  V30 296 C 27.5378 2.06343 0.997753 0
M  V30 297 C 28.5508 0.984469 1.29661 0
M  V30 298 O 29.7398 1.26093 1.26344 0
M  V30 299 C 26.8398 2.46255 2.32834 0
M  V30 300 C 26.0128 3.77083 2.21646 0
M  V30 301 C 25.0718 4.0368 3.37534 0
M  V30 302 O 24.0978 4.7411 3.14973 0
M  V30 303 N 25.2998 3.52881 4.60929 0
M  V30 304 H 28.0648 2.93997 0.581875 0
M  V30 305 H 25.6258 1.61002 0.170316 0
M  V30 306 H 27.6178 2.61149 3.09166 0
M  V30 307 H 26.1878 1.64032 2.66106 0
M  V30 308 H 25.4078 3.72106 1.30119 0
M  V30 309 H 26.6958 4.62822 2.11361 0
M  V30 310 H 26.0938 2.95878 4.82154 0
M  V30 311 H 24.6508 3.73076 5.34469 0
M  V30 312 N 28.0839 -0.256276 1.55502 0
M  V30 313 C 29.0309 -1.31714 1.89526 0
M  V30 314 C 30.0009 -1.4828 0.748479 0
M  V30 315 O 31.1859 -1.62416 1.00128 0
M  V30 316 C 28.3259 -2.66933 2.18725 0
M  V30 317 C 27.4389 -2.58452 3.4616 0
M  V30 318 C 26.5739 -3.85961 3.64976 0
M  V30 319 C 25.6129 -3.72059 4.86044 0
M  V30 320 N 24.7499 -4.9144 5.01429 0
M  V30 321 H 29.5899 -1.01998 2.80001 0
M  V30 322 H 27.1269 -0.492413 1.38613 0
M  V30 323 H 29.0849 -3.4563 2.33657 0
M  V30 324 H 27.7149 -2.94816 1.31466 0
M  V30 325 H 26.7669 -1.71374 3.3961 0
M  V30 326 H 28.0789 -2.44085 4.34999 0
M  V30 327 H 27.2329 -4.73101 3.79816 0
M  V30 328 H 25.9719 -4.03215 2.74353 0
M  V30 329 H 24.9769 -2.83302 4.7119 0
M  V30 330 H 26.2019 -3.56309 5.78118 0
M  V30 331 H 24.1479 -5.09072 4.13741 0
M  V30 332 H 24.0649 -4.79668 5.84341 0
M  V30 333 H 25.3329 -5.80104 5.20672 0
M  V30 334 N 29.562 -1.4872 -0.521534 0
M  V30 335 C 30.494 -1.59968 -1.64143 0
M  V30 336 C 31.507 -0.483463 -1.55456 0
M  V30 337 O 32.696 -0.75467 -1.61762 0
M  V30 338 C 29.796 -1.52127 -3.02838 0
M  V30 339 C 28.969 -2.78932 -3.36921 0
M  V30 340 C 28.028 -2.64428 -4.54933 0
M  V30 341 O 27.054 -3.38331 -4.57735 0
M  V30 342 N 28.256 -1.74606 -5.53618 0
M  V30 343 H 31.021 -2.56548 -1.54929 0
M  V30 344 H 28.582 -1.45551 -0.708988 0
M  V30 345 H 30.574 -1.40106 -3.79674 0
M  V30 346 H 29.144 -0.634868 -3.06085 0
M  V30 347 H 28.364 -3.05455 -2.4918 0
M  V30 348 H 29.652 -3.63041 -3.56481 0
M  V30 349 H 29.05 -1.13782 -5.54139 0
M  V30 350 H 27.607 -1.6852 -6.29638 0
M  V30 351 N 31.0401 0.771051 -1.3745 0
M  V30 352 C 32.2701 1.55789 -1.35696 0
M  V30 353 C 32.6781 1.89107 0.0594523 0
M  V30 354 O 32.0211 1.51984 1.03183 0
M  V30 355 C 32.0831 2.89515 -2.13123 0
M  V30 356 C 31.7471 2.78829 -3.62082 0
M  V30 357 C 32.7441 2.49812 -4.5595 0
M  V30 358 C 30.4291 2.9683 -4.05213 0
M  V30 359 C 32.4231 2.38923 -5.90927 0
M  V30 360 C 30.1101 2.85562 -5.40276 0
M  V30 361 C 31.1081 2.56649 -6.32946 0
M  V30 362 O 30.7961 2.45408 -7.65526 0
M  V30 363 H 30.5281 0.489257 -0.466481 0
M  V30 364 H 33.0821 0.963446 -1.81403 0
M  V30 365 H 31.3121 3.51081 -1.62107 0
M  V30 366 H 33.0011 3.50915 -2.03994 0
M  V30 367 H 33.7671 2.3559 -4.23937 0
M  V30 368 H 29.6461 3.18335 -3.33442 0
M  V30 369 H 33.1901 2.16277 -6.63227 0
M  V30 370 H 29.0871 2.99351 -5.71891 0
M  V30 371 H 29.8551 2.60753 -7.75855 0
M  V30 372 N 32.5182 1.22032 0.997298 0
M  V30 373 C 33.7642 1.05382 1.73972 0
M  V30 374 C 34.1192 -0.407419 1.88037 0
M  V30 375 O 33.4122 -1.29811 1.40924 0
M  V30 376 C 33.6062 1.69345 3.14733 0
M  V30 377 C 33.4352 3.21537 3.14395 0
M  V30 378 C 32.2052 3.9062 3.20537 0
M  V30 379 C 34.4032 4.18527 2.98897 0
M  V30 380 N 32.3852 5.29935 3.09906 0
M  V30 381 C 33.7562 5.44645 2.96247 0
M  V30 382 C 35.8112 4.09476 2.83255 0
M  V30 383 C 34.5142 6.62752 2.79557 0
M  V30 384 C 36.5402 5.27228 2.67926 0
M  V30 385 C 35.9022 6.52262 2.65959 0
M  V30 386 H 32.0012 0.440018 0.646458 0
M  V30 387 H 34.5852 1.54505 1.18475 0
M  V30 388 H 32.7562 1.22778 3.68484 0
M  V30 389 H 34.4882 1.45828 3.77513 0
M  V30 390 H 31.2432 3.41592 3.28043 0
M  V30 391 H 31.6672 6.02926 3.07912 0
M  V30 392 H 36.3092 3.13598 2.83577 0
M  V30 393 H 34.0272 7.58783 2.77982 0
M  V30 394 H 37.6132 5.22053 2.56812 0
M  V30 395 H 36.4932 7.41844 2.54239 0
M  V30 396 N 33.9963 -1.19345 1.0293 0
M  V30 397 C 35.2423 -1.89318 0.727083 0
M  V30 398 C 35.5753 -1.79446 -0.742483 0
M  V30 399 O 34.8503 -1.1871 -1.54072 0
M  V30 400 C 35.1333 -3.40238 1.17942 0
M  V30 401 C 34.9863 -3.58979 2.71024 0
M  V30 402 C 36.3053 -4.33479 0.760548 0
M  V30 403 H 33.4243 -0.687475 0.265606 0
M  V30 404 H 36.0663 -1.40477 1.2793 0
M  V30 405 H 34.2163 -3.81964 0.709608 0
M  V30 406 H 35.8883 -3.26421 3.25955 0
M  V30 407 H 34.1313 -3.02018 3.11396 0
M  V30 408 H 34.8023 -4.64823 2.9773 0
M  V30 409 H 37.2783 -3.99469 1.16464 0
M  V30 410 H 36.1543 -5.37664 1.10493 0
M  V30 411 H 36.4153 -4.40813 -0.337063 0
M  V30 412 N 35.4744 -0.807222 -1.35358 0
M  V30 413 C 36.7144 -0.393534 -2.00576 0
M  V30 414 C 37.0784 1.0203 -1.62647 0
M  V30 415 O 38.2794 1.53603 -2.20589 0
M  V30 416 C 36.5504 -0.572017 -3.52793 0
M  V30 417 S 38.1094 -0.248845 -4.38094 0
M  V30 418 H 34.9274 -0.149425 -0.695121 0
M  V30 419 H 37.5294 -1.04961 -1.64935 0
M  V30 420 H 36.2334 -1.60097 -3.77885 0
M  V30 421 H 35.7644 0.099359 -3.93275 0
M  V30 422 H 37.7794 0.943253 -4.87152 0
M  V30 423 N 36.9525 1.47285 -0.560781 0
M  V30 424 C 37.9005 2.31756 0.197942 0
M  V30 425 C 38.8945 1.43146 0.905854 0
M  V30 426 O 40.1005 1.59891 0.826733 0
M  V30 427 H 36.4755 0.747438 0.0827049 0
M  V30 428 H 38.4465 2.9359 -0.533629 0
M  V30 429 C 37.1955 3.25874 1.21249 0
M  V30 430 H 36.5185 3.94023 0.67719 0
M  V30 431 H 37.9585 3.87803 1.71419 0
M  V30 432 C 36.4175 2.49651 2.26221 0
M  V30 433 O 36.9475 2.24355 3.33208 0
M  V30 434 N 35.1535 2.10597 2.00243 0
M  V30 435 H 34.7005 2.31369 1.13252 0
M  V30 436 H 34.6585 1.59913 2.70694 0
M  V30 437 N 38.4306 0.297415 1.54768 0
M  V30 438 C 39.6556 -0.318435 2.04941 0
M  V30 439 C 40.0806 -1.4701 1.17345 0
M  V30 440 O 39.4386 -1.80436 0.176758 0
M  V30 441 C 39.4866 -0.755749 3.52592 0
M  V30 442 O 38.5906 -1.86088 3.68028 0
M  V30 443 H 37.9316 -0.062421 0.661059 0
M  V30 444 H 40.4616 0.438215 1.99852 0
M  V30 445 H 40.4716 -1.04552 3.94376 0
M  V30 446 H 39.1466 0.0867233 4.1581 0
M  V30 447 H 37.7236 -1.57193 3.38149 0
M  V30 448 N 39.9087 -1.5758 0.0250728 0
M  V30 449 C 41.1337 -1.96337 -0.668317 0
M  V30 450 C 41.5587 -0.901314 -1.651 0
M  V30 451 O 40.9167 0.138187 -1.80773 0
M  V30 452 C 40.9647 -3.34191 -1.35457 0
M  V30 453 O 40.0687 -3.30269 -2.46974 0
M  V30 454 H 39.4097 -0.640281 -0.175887 0
M  V30 455 H 41.9397 -2.0442 0.0857224 0
M  V30 456 H 41.9497 -3.70331 -1.71228 0
M  V30 457 H 40.6247 -4.11036 -0.634218 0
M  V30 458 H 39.2017 -3.05841 -2.13344 0
M  V30 459 N 41.3868 0.248026 -1.55636 0
M  V30 460 C 42.6638 0.998988 -1.68165 0
M  V30 461 C 43.0438 2.03409 -0.564621 0
M  V30 462 O 42.3918 2.24378 0.432076 0
M  V30 463 C 42.6018 1.63334 -3.0842 0
M  V30 464 C 43.9498 2.13562 -3.66983 0
M  V30 465 O 44.9738 1.73277 -3.11213 0
M  V30 466 O 43.8328 2.87526 -4.64749 0
M  V30 467 H 40.9268 0.464933 -0.683935 0
M  V30 468 H 43.4728 0.241902 -1.67967 0
M  V30 469 H 42.2448 0.884583 -3.8117 0
M  V30 470 H 41.8678 2.45666 -3.12624 0
M  V30 471 N 42.8649 1.48995 0.513639 0
M  V30 472 C 43.8279 1.64229 1.59879 0
M  V30 473 C 44.8279 0.514696 1.5234 0
M  V30 474 O 46.0179 0.78087 1.55718 0
M  V30 475 C 43.1499 1.62783 2.99524 0
M  V30 476 H 44.3429 2.61004 1.47705 0
M  V30 477 H 41.8959 1.37837 0.736936 0
M  V30 478 H 42.6309 0.675461 3.17188 0
M  V30 479 H 42.4159 2.4466 3.06404 0
M  V30 480 H 43.9059 1.76669 3.78388 0
M  V30 481 N 44.343 -0.763751 1.37857 0
M  V30 482 C 45.568 -1.55805 1.36893 0
M  V30 483 C 45.993 -1.88054 -0.0416135 0
M  V30 484 O 45.351 -1.49825 -1.02089 0
M  V30 485 C 45.399 -2.84012 2.22192 0
M  V30 486 O 44.503 -3.78732 1.63204 0
M  V30 487 H 43.844 -0.471638 0.46739 0
M  V30 488 H 46.374 -0.944657 1.81487 0
M  V30 489 H 46.384 -3.33037 2.35691 0
M  V30 490 H 45.059 -2.59869 3.24716 0
M  V30 491 H 43.636 -3.37402 1.58791 0
M  V30 492 N 45.8211 -1.22559 -0.990812 0
M  V30 493 C 47.0701 -1.04553 -1.72486 0
M  V30 494 C 47.3831 0.419349 -1.91052 0
M  V30 495 O 48.5891 0.719121 -2.61803 0
M  V30 496 C 47.0451 -1.82231 -3.10355 0
M  V30 497 C 46.6531 -3.32981 -2.99713 0
M  V30 498 C 48.3971 -1.7268 -3.87791 0
M  V30 499 C 46.3041 -4.03091 -4.32748 0
M  V30 500 H 45.2341 -0.387614 -0.646739 0
M  V30 501 H 47.8851 -1.46429 -1.10593 0
M  V30 502 H 46.2671 -1.33155 -3.72942 0
M  V30 503 H 47.4411 -3.89466 -2.46278 0
M  V30 504 H 45.7561 -3.43231 -2.35758 0
M  V30 505 H 48.3531 -2.22381 -4.86262 0
M  V30 506 H 48.6961 -0.687607 -4.10582 0
M  V30 507 H 49.2291 -2.1931 -3.31885 0
M  V30 508 H 45.9681 -5.07273 -4.15156 0
M  V30 509 H 45.4881 -3.51394 -4.86089 0
M  V30 510 H 47.1671 -4.08804 -5.01486 0
M  V30 511 N 47.2992 1.18797 -1.03562 0
M  V30 512 C 48.5242 1.9314 -0.755764 0
M  V30 513 C 48.9492 1.7537 0.68022 0
M  V30 514 O 48.3072 1.06046 1.47051 0
M  V30 515 C 48.3552 3.42747 -1.12058 0
M  V30 516 O 47.4592 4.11683 -0.243124 0
M  V30 517 H 46.8002 0.602724 -0.278604 0
M  V30 518 H 49.3302 1.50678 -1.3841 0
M  V30 519 H 49.3402 3.93437 -1.08035 0
M  V30 520 H 48.0152 3.55002 -2.16672 0
M  V30 521 H 46.5922 3.71323 -0.342539 0
M  V30 522 N 48.7773 0.814389 1.34928 0
M  V30 523 C 50.0073 0.41054 2.0248 0
M  V30 524 C 50.4153 -0.985625 1.61499 0
M  V30 525 O 49.7583 -1.64781 0.811976 0
M  V30 526 C 49.8203 0.423384 3.56998 0
M  V30 527 C 49.4843 1.77141 4.21272 0
M  V30 528 C 50.4813 2.73093 4.42398 0
M  V30 529 C 48.1663 2.05755 4.58225 0
M  V30 530 C 50.1603 3.95838 4.9959 0
M  V30 531 C 47.8473 3.28762 5.1513 0
M  V30 532 C 48.8453 4.23621 5.35755 0
M  V30 533 O 48.5333 5.44456 5.91458 0
M  V30 534 H 48.2653 0.163997 0.655806 0
M  V30 535 H 50.8193 1.10155 1.73364 0
M  V30 536 H 49.0493 -0.324276 3.85338 0
M  V30 537 H 50.7383 0.0407683 4.0588 0
M  V30 538 H 51.5043 2.5228 4.14222 0
M  V30 539 H 47.3833 1.32727 4.4148 0
M  V30 540 H 50.9273 4.69891 5.15605 0
M  V30 541 H 46.8243 3.49443 5.42734 0
M  V30 542 H 47.5923 5.4586 6.09901 0
M  V30 543 N 50.2554 -1.46986 0.568584 0
M  V30 544 C 51.4834 -2.0683 0.0539956 0
M  V30 545 C 51.8984 -1.41953 -1.24478 0
M  V30 546 O 51.2554 -0.519933 -1.74937 0
M  V30 547 C 51.3064 -3.61254 -0.133362 0
M  V30 548 O 51.0274 -4.237 1.11399 0
M  V30 549 C 52.5284 -4.37992 -0.683927 0
M  V30 550 H 49.7484 -0.669058 0.0510141 0
M  V30 551 H 52.2924 -1.88824 0.785234 0
M  V30 552 H 50.4474 -3.78735 -0.81477 0
M  V30 553 H 50.8614 -5.16388 0.91888 0
M  V30 554 H 52.3354 -5.46684 -0.764263 0
M  V30 555 H 52.8124 -4.05058 -1.69778 0
M  V30 556 H 53.4184 -4.25283 -0.0378494 0
M  V30 557 N 51.7335 -0.305618 -1.54608 0
M  V30 558 C 52.9635 0.304333 -2.04346 0
M  V30 559 C 53.3715 1.47715 -1.18224 0
M  V30 560 O 52.7145 1.82591 -0.201577 0
M  V30 561 C 52.7765 0.819031 -3.50046 0
M  V30 562 C 52.4405 -0.22912 -4.56425 0
M  V30 563 C 53.4375 -1.05914 -5.08997 0
M  V30 564 C 51.1225 -0.372148 -5.0092 0
M  V30 565 C 53.1165 -2.01809 -6.04609 0
M  V30 566 C 50.8035 -1.33454 -5.9635 0
M  V30 567 C 51.8015 -2.15599 -6.48079 0
M  V30 568 O 51.4895 -3.10205 -7.41639 0
M  V30 569 H 51.2215 0.0693996 -0.672428 0
M  V30 570 H 53.7755 -0.444548 -2.00532 0
M  V30 571 H 52.0055 1.61852 -3.51199 0
M  V30 572 H 53.6945 1.34537 -3.82955 0
M  V30 573 H 54.4605 -0.959538 -4.75413 0
M  V30 574 H 50.3395 0.257304 -4.60281 0
M  V30 575 H 53.8835 -2.65966 -6.44909 0
M  V30 576 H 49.7805 -1.43485 -6.29351 0
M  V30 577 H 50.5485 -3.05237 -7.59455 0
M  V30 578 N 53.2116 1.57565 -0.0334293 0
M  V30 579 C 54.4516 1.93844 0.648379 0
M  V30 580 C 54.8156 0.910387 1.69044 0
M  V30 581 O 56.0166 1.15952 2.42505 0
M  V30 582 C 54.2876 3.35017 1.24492 0
M  V30 583 S 55.8466 3.93229 1.94721 0
M  V30 584 H 52.6646 0.678231 0.213364 0
M  V30 585 H 55.2666 1.95254 -0.0981253 0
M  V30 586 H 53.9706 4.07652 0.474128 0
M  V30 587 H 53.5016 3.37061 2.02864 0
M  V30 588 H 55.5166 3.77014 3.22606 0
M  V30 589 N 54.6897 -0.239769 1.55765 0
M  V30 590 C 55.9667 -0.990056 1.68693 0
M  V30 591 C 56.3467 -2.03107 0.5754 0
M  V30 592 O 55.6947 -2.24604 -0.42017 0
M  V30 593 C 55.9047 -1.61696 3.09282 0
M  V30 594 C 57.2527 -2.11613 3.6811 0
M  V30 595 O 58.2767 -1.71624 3.12127 0
M  V30 596 O 57.1357 -2.85057 4.66267 0
M  V30 597 H 54.2297 -0.461299 0.686391 0
M  V30 598 H 56.7757 -0.232991 1.68093 0
M  V30 599 H 55.5477 -0.864357 3.81634 0
M  V30 600 H 55.1707 -2.44005 3.13923 0
M  V30 601 N 56.1678 -1.49265 -0.50573 0
M  V30 602 C 57.1148 -1.65585 -1.6078 0
M  V30 603 C 58.0848 -0.497396 -1.58478 0
M  V30 604 O 59.2698 -0.72385 -1.76536 0
M  V30 605 C 56.4098 -1.72408 -2.98948 0
M  V30 606 C 55.5228 -2.99525 -3.11301 0
M  V30 607 C 54.6578 -2.97356 -4.40174 0
M  V30 608 C 53.6968 -4.19074 -4.46143 0
M  V30 609 N 52.8338 -4.14841 -5.66437 0
M  V30 610 H 57.6738 -2.59688 -1.46172 0
M  V30 611 H 55.2108 -1.28761 -0.711261 0
M  V30 612 H 57.1688 -1.74344 -3.79025 0
M  V30 613 H 55.7988 -0.817753 -3.1227 0
M  V30 614 H 54.8508 -3.07222 -2.24318 0
M  V30 615 H 56.1628 -3.89518 -3.11572 0
M  V30 616 H 55.3168 -2.97829 -5.28567 0
M  V30 617 H 54.0558 -2.05133 -4.42461 0
M  V30 618 H 53.0608 -4.1885 -3.56153 0
M  V30 619 H 54.2858 -5.12483 -4.45575 0
M  V30 620 H 52.2318 -3.25453 -5.69575 0
M  V30 621 H 52.1488 -4.98564 -5.68304 0
M  V30 622 H 53.4168 -4.1941 -6.57051 0
M  V30 623 N 57.6459 0.756429 -1.3826 0
M  V30 624 C 58.5789 1.87802 -1.29637 0
M  V30 625 C 59.5569 1.61667 -0.173939 0
M  V30 626 O 60.7409 1.85208 -0.350775 0
M  V30 627 C 57.8679 3.23354 -1.00797 0
M  V30 628 C 56.9139 3.68379 -2.14939 0
M  V30 629 S 57.7469 3.8025 -3.77054 0
M  V30 630 C 58.9029 5.18626 -3.50396 0
M  V30 631 H 59.1359 1.94829 -2.24564 0
M  V30 632 H 56.6689 0.919117 -1.24063 0
M  V30 633 H 58.6269 4.01637 -0.848413 0
M  V30 634 H 57.2879 3.14008 -0.0759369 0
M  V30 635 H 56.4809 4.66693 -1.90299 0
M  V30 636 H 56.0829 2.97242 -2.26988 0
M  V30 637 H 58.3749 6.04289 -3.06334 0
M  V30 638 H 59.3179 5.48286 -4.48094 0
M  V30 639 H 59.7259 4.87289 -2.84973 0
M  V30 640 N 59.124 1.23083 0.984299 0
M  V30 641 C 60.056 0.96636 2.07832 0
M  V30 642 C 61.069 -0.0582135 1.62696 0
M  V30 643 O 62.258 0.176843 1.77622 0
M  V30 644 C 59.358 0.433397 3.36117 0
M  V30 645 C 58.531 1.51722 4.10243 0
M  V30 646 C 57.59 0.989821 5.16807 0
M  V30 647 O 56.616 1.67794 5.43906 0
M  V30 648 N 57.818 -0.184367 5.80207 0
M  V30 649 H 60.583 1.90824 2.31098 0
M  V30 650 H 58.144 1.13888 1.1507 0
M  V30 651 H 60.136 0.065699 4.04647 0
M  V30 652 H 58.706 -0.413806 3.09849 0
M  V30 653 H 57.926 2.05786 3.36223 0
M  V30 654 H 59.214 2.24619 4.56534 0
M  V30 655 H 58.612 -0.760062 5.60571 0
M  V30 656 H 57.169 -0.493366 6.4993 0
M  V30 657 N 60.6021 -1.18246 1.0419 0
M  V30 658 C 61.8321 -1.91916 0.764961 0
M  V30 659 C 62.2401 -1.76485 -0.681898 0
M  V30 660 O 61.5831 -1.09275 -1.47664 0
M  V30 661 C 61.6451 -3.4373 1.05309 0
M  V30 662 C 61.3091 -3.8294 2.4941 0
M  V30 663 C 62.3061 -3.86621 3.47592 0
M  V30 664 C 59.9911 -4.142 2.84155 0
M  V30 665 C 61.9851 -4.21013 4.78568 0
M  V30 666 C 59.6721 -4.48262 4.15337 0
M  V30 667 C 60.6701 -4.51645 5.12353 0
M  V30 668 O 60.3581 -4.84911 6.41183 0
M  V30 669 H 60.0901 -0.61606 0.278292 0
M  V30 670 H 62.6441 -1.50947 1.39299 0
M  V30 671 H 60.8741 -3.84946 0.367933 0
M  V30 672 H 62.5631 -3.9865 0.763752 0
M  V30 673 H 63.3291 -3.62607 3.22089 0
M  V30 674 H 59.2081 -4.10743 2.09311 0
M  V30 675 H 62.7521 -4.23568 5.54289 0
M  V30 676 H 58.6491 -4.71737 4.40607 0
M  V30 677 H 59.4171 -5.02809 6.45852 0
M  V30 678 N 62.0802 -0.821533 -1.34494 0
M  V30 679 C 63.4912 -0.467956 -1.8074 0
M  V30 680 C 63.8422 1.01151 -1.68116 0
M  V30 681 O 62.9672 1.78707 -1.22036 0
M  V30 682 C 63.5622 -0.842627 -3.28154 0
M  V30 683 C 62.1212 -0.541439 -3.72485 0
M  V30 684 C 61.2682 -1.06028 -2.56229 0
M  V30 685 H 64.2192 -1.01183 -1.22261 0
M  V30 686 H 64.2402 -0.145876 -3.8022 0
M  V30 687 H 63.7522 -1.91945 -3.37311 0
M  V30 688 H 61.8532 0.526034 -3.68868 0
M  V30 689 H 61.9662 -1.08453 -4.66663 0
M  V30 690 H 60.3302 -0.481892 -2.501 0
M  V30 691 H 61.1132 -2.14352 -2.68157 0
M  V30 692 N 63.5583 1.46682 -0.576371 0
M  V30 693 C 64.8073 2.01619 -0.0572825 0
M  V30 694 C 65.1203 1.45417 1.30818 0
M  V30 695 O 66.3263 1.92133 1.91825 0
M  V30 696 C 64.7823 3.59863 -0.0518371 0
M  V30 697 C 64.3903 4.25059 -1.41523 0
M  V30 698 C 66.1343 4.2248 0.413639 0
M  V30 699 C 64.0413 5.75364 -1.36785 0
M  V30 700 H 62.9713 0.753794 -0.0176448 0
M  V30 701 H 65.6223 1.68481 -0.727076 0
M  V30 702 H 64.0043 3.90048 0.683994 0
M  V30 703 H 65.1783 4.06491 -2.17029 0
M  V30 704 H 63.4933 3.7451 -1.8202 0
M  V30 705 H 66.0903 5.3265 0.467779 0
M  V30 706 H 66.4333 3.90976 1.42982 0
M  V30 707 H 66.9663 3.96897 -0.267929 0
M  V30 708 H 63.7053 6.11518 -2.36063 0
M  V30 709 H 63.2253 5.96214 -0.654895 0
M  V30 710 H 64.9043 6.37955 -1.07805 0
M  V30 711 N 65.0364 0.313813 1.54444 0
M  V30 712 C 66.2614 -0.296681 2.05267 0
M  V30 713 C 66.6864 -1.45757 1.18897 0
M  V30 714 O 66.0444 -1.80239 0.195886 0
M  V30 715 C 66.0924 -0.71831 3.53373 0
M  V30 716 O 65.1964 -1.82175 3.69981 0
M  V30 717 H 64.5374 -0.0554061 0.661684 0
M  V30 718 H 67.0674 0.459387 1.99376 0
M  V30 719 H 67.0774 -1.00364 3.95463 0
M  V30 720 H 65.7524 0.130821 4.15694 0
M  V30 721 H 64.3294 -1.53598 3.39797 0
M  V30 722 N 66.5145 -1.57545 0.0417849 0
M  V30 723 C 67.7635 -1.91494 -0.633492 0
M  V30 724 C 68.0765 -0.921084 -1.72556 0
M  V30 725 O 69.2825 -1.15228 -2.45835 0
M  V30 726 C 67.7385 -3.40072 -1.17808 0
M  V30 727 C 67.3465 -4.47843 -0.118633 0
M  V30 728 C 69.0905 -3.8307 -1.82915 0
M  V30 729 C 66.9975 -5.87529 -0.675578 0
M  V30 730 H 65.9275 -0.714653 -0.24039 0
M  V30 731 H 68.5785 -1.83175 0.109148 0
M  V30 732 H 66.9605 -3.43364 -1.97274 0
M  V30 733 H 68.1345 -4.56128 0.654494 0
M  V30 734 H 66.4495 -4.14128 0.434414 0
M  V30 735 H 69.0465 -4.84794 -2.25563 0
M  V30 736 H 69.3895 -3.1881 -2.67705 0
M  V30 737 H 69.9225 -3.82255 -1.10119 0
M  V30 738 H 66.6615 -6.55362 0.134475 0
M  V30 739 H 66.1815 -5.82824 -1.4169 0
M  V30 740 H 67.8605 -6.36491 -1.1614 0
M  V30 741 N 67.9926 0.231505 -1.5589 0
M  V30 742 C 68.9406 1.30649 -1.92441 0
M  V30 743 C 69.9346 1.49037 -0.805254 0
M  V30 744 O 71.1406 1.50329 -0.990007 0
M  V30 745 H 67.5156 0.437812 -0.611412 0
M  V30 746 H 69.4866 0.970973 -2.82161 0
M  V30 747 C 68.2356 2.65179 -2.24889 0
M  V30 748 H 67.5586 2.51835 -3.10514 0
M  V30 749 H 68.9986 3.39234 -2.54355 0
M  V30 750 C 67.4576 3.19439 -1.07054 0
M  V30 751 O 67.9876 4.00371 -0.326499 0
M  V30 752 N 66.1936 2.77675 -0.85703 0
M  V30 753 H 65.7406 2.11969 -1.46379 0
M  V30 754 H 65.6986 3.14321 -0.0703223 0
M  V30 755 N 69.4707 1.49531 0.497807 0
M  V30 756 C 70.7167 1.59415 1.25358 0
M  V30 757 C 71.0497 0.281422 1.9215 0
M  V30 758 O 70.3247 -0.715249 1.80871 0
M  V30 759 C 70.6077 2.75566 2.3181 0
M  V30 760 C 70.4607 4.16642 1.69498 0
M  V30 761 C 71.7797 2.87347 3.33346 0
M  V30 762 H 68.8987 0.580244 0.454408 0
M  V30 763 H 71.5407 1.81827 0.551262 0
M  V30 764 H 69.6907 2.56587 2.91711 0
M  V30 765 H 71.3627 4.47145 1.13399 0
M  V30 766 H 69.6057 4.22141 0.998978 0
M  V30 767 H 70.2767 4.93792 2.46725 0
M  V30 768 H 72.7527 3.04634 2.83438 0
M  V30 769 H 71.6287 3.70289 4.05188 0
M  V30 770 H 71.8897 1.96834 3.95865 0
M  V30 771 N 70.9488 -0.749086 1.3866 0
M  V30 772 C 71.8968 -1.88428 1.36373 0
M  V30 773 C 72.8908 -1.67561 0.248929 0
M  V30 774 O 74.0968 -1.75074 0.41821 0
M  V30 775 H 70.4718 -0.620023 0.42553 0
M  V30 776 H 72.4428 -1.87473 2.32156 0
M  V30 777 C 71.1918 -3.25961 1.21014 0
M  V30 778 H 70.5148 -3.42607 2.06059 0
M  V30 779 H 71.9548 -4.05625 1.23469 0
M  V30 780 C 70.4138 -3.36799 -0.0825941 0
M  V30 781 O 70.9438 -3.87517 -1.05797 0
M  V30 782 N 69.1498 -2.90258 -0.140939 0
M  V30 783 H 68.6968 -2.49174 0.653477 0
M  V30 784 H 68.6548 -2.97889 -1.00545 0
M  V30 785 N 72.4269 -1.23603 -0.977757 0
M  V30 786 C 73.8379 -1.06424 -1.53398 0
M  V30 787 C 74.1889 0.367578 -1.92726 0
M  V30 788 O 73.3139 1.25465 -1.76316 0
M  V30 789 C 73.9089 -1.92568 -2.78753 0
M  V30 790 C 72.4679 -1.79642 -3.30765 0
M  V30 791 C 71.6149 -1.88111 -2.03739 0
M  V30 792 H 74.5659 -1.37227 -0.797152 0
M  V30 793 H 74.5869 -1.45203 -3.51705 0
M  V30 794 H 74.0989 -2.96771 -2.50098 0
M  V30 795 H 72.1999 -0.782325 -3.64294 0
M  V30 796 H 72.3129 -2.63174 -4.00345 0
M  V30 797 H 70.6769 -1.31723 -2.17994 0
M  V30 798 H 71.4599 -2.93875 -1.77461 0
M  V30 799 N 73.905 1.17692 -1.04816 0
M  V30 800 C 75.145 1.89545 -0.764979 0
M  V30 801 C 75.509 1.78979 0.695028 0
M  V30 802 O 76.71 2.45613 1.09215 0
M  V30 803 C 74.981 3.35659 -1.22751 0
M  V30 804 S 76.54 4.25526 -1.07112 0
M  V30 805 H 73.358 0.654432 -0.27792 0
M  V30 806 H 75.96 1.42163 -1.34201 0
M  V30 807 H 74.664 3.40882 -2.28533 0
M  V30 808 H 74.195 3.88083 -0.644594 0
M  V30 809 H 76.21 4.962 0.00697508 0
M  V30 810 N 75.3831 0.828654 1.34056 0
M  V30 811 C 76.6321 0.415828 1.97367 0
M  V30 812 C 76.9451 -1.02796 1.6641 0
M  V30 813 O 78.1511 -1.54497 2.23255 0
M  V30 814 C 76.6071 0.692601 3.53173 0
M  V30 815 C 76.2151 2.15038 3.93017 0
M  V30 816 C 77.9591 0.346222 4.23086 0
M  V30 817 C 75.8661 2.37174 5.41758 0
M  V30 818 H 74.7961 0.151755 0.738571 0
M  V30 819 H 77.4471 1.01581 1.52819 0
M  V30 820 H 75.8291 0.0223764 3.95994 0
M  V30 821 H 77.0031 2.86024 3.61285 0
M  V30 822 H 75.3181 2.45875 3.36057 0
M  V30 823 H 77.9151 0.48937 5.32456 0
M  V30 824 H 78.2581 -0.709842 4.10204 0
M  V30 825 H 78.7911 0.971258 3.85761 0
M  V30 826 H 75.5301 3.41308 5.59633 0
M  V30 827 H 75.0501 1.70738 5.74986 0
M  V30 828 H 76.7291 2.19818 6.08514 0
M  V30 829 N 76.8612 -1.46375 0.584142 0
M  V30 830 C 77.7712 -2.34115 -0.150728 0
M  V30 831 C 78.7872 -1.49838 -0.884567 0
M  V30 832 O 79.9632 -1.82704 -0.847429 0
M  V30 833 C 77.0282 -3.2705 -1.15062 0
M  V30 834 C 76.0892 -4.27228 -0.421293 0
M  V30 835 C 75.3222 -5.15722 -1.37355 0
M  V30 836 O 75.5452 -5.07176 -2.61014 0
M  V30 837 O 74.4792 -5.95383 -0.883355 0
M  V30 838 H 78.3052 -2.98309 0.569708 0
M  V30 839 H 75.8902 -1.45373 0.344535 0
M  V30 840 H 77.7722 -3.84381 -1.72712 0
M  V30 841 H 76.4472 -2.65451 -1.8525 0
M  V30 842 H 75.3542 -3.7358 0.197085 0
M  V30 843 H 76.6872 -4.91616 0.239641 0
M  V30 844 N 78.3393 -0.321999 -1.54275 0
M  V30 845 C 79.2693 0.537411 -2.27231 0
M  V30 846 C 80.2503 1.12064 -1.27968 0
M  V30 847 O 81.4353 1.14606 -1.56777 0
M  V30 848 C 78.5653 1.69919 -3.02894 0
M  V30 849 C 77.5193 1.24534 -4.09482 0
M  V30 850 C 76.8453 2.49394 -4.72977 0
M  V30 851 C 78.1453 0.361335 -5.21049 0
M  V30 852 H 79.8393 -0.0711406 -2.99315 0
M  V30 853 H 77.3853 -0.0356555 -1.43956 0
M  V30 854 H 79.3383 2.30668 -3.52662 0
M  V30 855 H 78.0623 2.33431 -2.28424 0
M  V30 856 H 76.7213 0.660782 -3.60596 0
M  V30 857 H 76.3693 3.11265 -3.95124 0
M  V30 858 H 76.0693 2.19718 -5.44975 0
M  V30 859 H 77.5933 3.10908 -5.25517 0
M  V30 860 H 79.0073 0.875072 -5.66582 0
M  V30 861 H 77.4043 0.157428 -5.99893 0
M  V30 862 H 78.4743 -0.60822 -4.8107 0
M  V30 863 N 79.8174 1.5752 -0.0501392 0
M  V30 864 C 80.7644 2.1147 0.924603 0
M  V30 865 C 81.7344 1.02182 1.30951 0
M  V30 866 O 82.9194 1.29723 1.39916 0
M  V30 867 C 80.0594 2.66337 2.19451 0
M  V30 868 C 79.1724 3.89708 1.86418 0
M  V30 869 C 78.3074 4.32893 3.07859 0
M  V30 870 C 77.3464 5.48967 2.70742 0
M  V30 871 N 76.4834 5.87211 3.84874 0
M  V30 872 H 81.3234 2.94465 0.457639 0
M  V30 873 H 78.8604 1.45531 0.214266 0
M  V30 874 H 80.8184 2.96247 2.93758 0
M  V30 875 H 79.4484 1.86141 2.63726 0
M  V30 876 H 78.5004 3.66396 1.02264 0
M  V30 877 H 79.8124 4.74074 1.55096 0
M  V30 878 H 78.9664 4.6435 3.90466 0
M  V30 879 H 77.7054 3.47336 3.42358 0
M  V30 880 H 76.7104 5.17183 1.86551 0
M  V30 881 H 77.9354 6.3624 2.37436 0
M  V30 882 H 75.8814 5.04607 4.19175 0
M  V30 883 H 75.7984 6.66266 3.57247 0
M  V30 884 H 77.0664 6.23282 4.68123 0
M  V30 885 N 81.2955 -0.223234 1.56011 0
M  V30 886 C 82.7115 -0.572856 1.48965 0
M  V30 887 C 82.9115 -1.87225 0.74492 0
M  V30 888 O 81.9675 -2.50899 0.283896 0
M  V30 889 C 83.2805 -0.653646 2.9351 0
M  V30 890 C 84.8285 -0.744386 3.0402 0
M  V30 891 C 85.3035 -0.856535 4.49919 0
M  V30 892 N 86.7945 -0.9208 4.53955 0
M  V30 893 C 87.5295 -1.02726 5.64123 0
M  V30 894 N 87.0255 -1.09777 6.84047 0
M  V30 895 N 88.8185 -1.06226 5.51971 0
M  V30 896 H 80.9695 0.629462 2.02858 0
M  V30 897 H 83.2325 0.220621 0.921971 0
M  V30 898 H 82.9385 0.231518 3.50937 0
M  V30 899 H 82.8125 -1.51781 3.45315 0
M  V30 900 H 85.1995 -1.61999 2.46658 0
M  V30 901 H 85.2805 0.14541 2.55386 0
M  V30 902 H 84.9245 0.0146069 5.07898 0
M  V30 903 H 84.8545 -1.76172 4.96257 0
M  V30 904 H 87.3455 -0.876694 3.6759 0
M  V30 905 H 87.6585 -1.17872 7.63758 0
M  V30 906 H 86.0035 -1.06693 6.86762 0
M  V30 907 H 89.1945 -1.00382 4.5721 0
M  V30 908 H 89.3675 -1.14177 6.37862 0
M  V30 909 N 82.7736 -1.49793 -0.48987 0
M  V30 910 C 83.9986 -1.63836 -1.27172 0
M  V30 911 C 84.4236 -0.31402 -1.8546 0
M  V30 912 O 83.7816 0.719803 -1.66399 0
M  V30 913 C 83.8296 -2.71797 -2.36978 0
M  V30 914 O 82.9336 -2.31744 -3.41128 0
M  V30 915 H 82.2746 -0.547997 -0.37496 0
M  V30 916 H 84.8046 -1.96053 -0.585191 0
M  V30 917 H 84.8146 -2.94305 -2.82575 0
M  V30 918 H 83.4896 -3.67923 -1.93921 0
M  V30 919 H 82.0666 -2.1961 -3.01373 0
M  V30 920 N 84.2517 0.741722 -1.39055 0
M  V30 921 C 85.1987 1.85566 -1.37237 0
M  V30 922 C 86.1687 1.64457 -0.233072 0
M  V30 923 O 87.3537 1.85957 -0.427147 0
M  V30 924 C 84.4937 3.23004 -1.215 0
M  V30 925 C 83.6067 3.55864 -2.44918 0
M  V30 926 C 82.7417 4.82669 -2.21821 0
M  V30 927 C 81.7807 5.08351 -3.40948 0
M  V30 928 N 80.9177 6.26356 -3.17211 0
M  V30 929 H 85.7577 1.86455 -2.32462 0
M  V30 930 H 83.2947 0.911176 -1.15482 0
M  V30 931 H 85.2527 4.02331 -1.10389 0
M  V30 932 H 83.8827 3.21411 -0.29908 0
M  V30 933 H 82.9347 2.7129 -2.66657 0
M  V30 934 H 84.2467 3.70765 -3.33668 0
M  V30 935 H 83.4007 5.69962 -2.07914 0
M  V30 936 H 82.1397 4.69929 -1.30454 0
M  V30 937 H 81.1447 4.19522 -3.55361 0
M  V30 938 H 82.3697 5.22981 -4.33207 0
M  V30 939 H 80.3157 6.14917 -2.28502 0
M  V30 940 H 80.2327 6.41813 -3.99515 0
M  V30 941 H 81.5007 7.16506 -3.06984 0
M  V30 942 N 85.7298 1.2412 0.971189 0
M  V30 943 C 86.9778 1.07668 1.71032 0
M  V30 944 C 87.2988 -0.385797 1.91146 0
M  V30 945 O 86.5688 -1.27569 1.4867 0
M  V30 946 H 85.1488 0.395429 0.633755 0
M  V30 947 H 87.8108 1.55984 1.16855 0
M  V30 948 H 86.9068 1.57195 2.69622 0
M  V30 949 N 87.2079 -1.17134 1.05439 0
M  V30 950 C 88.1379 -2.2342 0.678649 0
M  V30 951 C 89.1189 -1.66971 -0.32476 0
M  V30 952 O 90.3039 -1.93149 -0.201802 0
M  V30 953 C 87.4339 -3.47256 0.0552099 0
M  V30 954 C 86.3879 -4.16543 0.98365 0
M  V30 955 C 85.7139 -5.34231 0.223961 0
M  V30 956 C 87.0139 -4.68495 2.3089 0
M  V30 957 H 88.7079 -2.55105 1.56722 0
M  V30 958 H 86.2539 -1.2262 0.754998 0
M  V30 959 H 88.2069 -4.20828 -0.21946 0
M  V30 960 H 86.9309 -3.14846 -0.868319 0
M  V30 961 H 85.5899 -3.44887 1.24293 0
M  V30 962 H 85.2379 -4.98071 -0.702412 0
M  V30 963 H 84.9379 -5.81527 0.842627 0
M  V30 964 H 86.4619 -6.10585 -0.0433671 0
M  V30 965 H 87.8759 -5.33691 2.09396 0
M  V30 966 H 86.2729 -5.26379 2.88176 0
M  V30 967 H 87.3429 -3.85169 2.94572 0
M  V30 968 N 88.686 -0.835752 -1.33615 0
M  V30 969 C 89.616 -0.281739 -2.31794 0
M  V30 970 C 90.597 0.608833 -1.58831 0
M  V30 971 O 91.782 0.533035 -1.86741 0
M  V30 972 C 88.912 0.546612 -3.42971 0
M  V30 973 C 87.866 -0.247904 -4.27281 0
M  V30 974 C 87.192 0.704001 -5.30045 0
M  V30 975 C 88.492 -1.46324 -5.01385 0
M  V30 976 H 90.186 -1.10206 -2.78379 0
M  V30 977 H 87.732 -0.531388 -1.33837 0
M  V30 978 H 89.685 0.944467 -4.1068 0
M  V30 979 H 88.409 1.40011 -2.95067 0
M  V30 980 H 87.068 -0.627281 -3.61194 0
M  V30 981 H 86.716 1.55381 -4.78399 0
M  V30 982 H 86.416 0.176524 -5.87335 0
M  V30 983 H 87.94 1.09944 -6.0062 0
M  V30 984 H 89.354 -1.13871 -5.61877 0
M  V30 985 H 87.751 -1.92728 -5.6831 0
M  V30 986 H 88.821 -2.23467 -4.30338 0
M  V30 987 N 90.1641 1.46063 -0.591896 0
M  V30 988 C 91.1141 2.27458 0.157172 0
M  V30 989 C 92.0981 1.3641 0.853301 0
M  V30 990 O 93.2901 1.60517 0.74588 0
M  V30 991 C 90.4191 3.22956 1.16423 0
M  V30 992 C 89.5051 4.2149 0.469742 0
M  V30 993 N 89.8961 5.03519 -0.479839 0
M  V30 994 C 88.1941 4.40161 0.719319 0
M  V30 995 C 88.8951 5.74904 -0.886591 0
M  V30 996 N 87.8711 5.43097 -0.233731 0
M  V30 997 H 91.6731 2.88272 -0.572392 0
M  V30 998 H 89.1871 1.57024 -0.414375 0
M  V30 999 H 91.1841 3.79986 1.71513 0
M  V30 1000 H 89.8441 2.63701 1.89451 0
M  V30 1001 H 90.8551 5.1078 -0.855823 0
M  V30 1002 H 87.5321 3.92046 1.43548 0
M  V30 1003 H 88.9221 6.50844 -1.66888 0
M  V30 1004 N 91.6422 0.330177 1.54103 0
M  V30 1005 C 92.8912 -0.271336 1.99867 0
M  V30 1006 C 93.2042 -1.52723 1.22209 0
M  V30 1007 O 94.4102 -2.20515 1.58383 0
M  V30 1008 C 92.8662 -0.534032 3.55916 0
M  V30 1009 C 92.4742 0.705193 4.42415 0
M  V30 1010 C 94.2182 -1.09514 4.1013 0
M  V30 1011 C 92.1252 0.414035 5.89949 0
M  V30 1012 H 91.0552 -0.105166 0.74663 0
M  V30 1013 H 93.7062 0.443429 1.78062 0
M  V30 1014 H 92.0882 -1.30915 3.73734 0
M  V30 1015 H 93.2622 1.4804 4.36372 0
M  V30 1016 H 91.5772 1.18698 3.99124 0
M  V30 1017 H 94.1742 -1.3277 5.17954 0
M  V30 1018 H 94.5172 -2.04656 3.62521 0
M  V30 1019 H 95.0502 -0.381038 3.95971 0
M  V30 1020 H 91.7892 1.33481 6.41766 0
M  V30 1021 H 91.3092 -0.323336 5.98928 0
M  V30 1022 H 92.9882 0.0263105 6.46995 0
M  V30 1023 N 93.1203 -1.57491 0.0584922 0
M  V30 1024 C 94.3673 -1.92978 -0.613648 0
M  V30 1025 C 94.6953 -0.937461 -1.70417 0
M  V30 1026 O 93.9503 0.049078 -1.95638 0
M  V30 1027 C 94.2493 -3.3513 -1.24188 0
M  V30 1028 C 93.9153 -4.50037 -0.278826 0
M  V30 1029 C 92.5773 -4.81198 -0.0138447 0
M  V30 1030 C 94.9293 -5.19807 0.380777 0
M  V30 1031 C 92.2573 -5.79473 0.918052 0
M  V30 1032 C 94.6093 -6.19079 1.30091 0
M  V30 1033 C 93.2733 -6.48665 1.57449 0
M  V30 1034 H 92.5433 -0.706157 -0.22455 0
M  V30 1035 H 95.1903 -1.91082 0.126533 0
M  V30 1036 H 93.4953 -3.33429 -2.05749 0
M  V30 1037 H 95.1923 -3.59871 -1.769 0
M  V30 1038 H 91.7823 -4.25726 -0.495539 0
M  V30 1039 H 95.9663 -4.95939 0.189158 0
M  V30 1040 H 91.2223 -6.00727 1.1374 0
M  V30 1041 H 95.3963 -6.7225 1.81804 0
M  V30 1042 H 93.0233 -7.24628 2.29822 0
M  V30 1043 N 94.5984 0.214957 -1.56127 0
M  V30 1044 C 95.8284 0.953707 -1.8327 0
M  V30 1045 C 96.2364 1.78181 -0.636262 0
M  V30 1046 O 95.5794 1.79191 0.404516 0
M  V30 1047 C 95.6414 1.91516 -3.0424 0
M  V30 1048 C 95.3054 1.27094 -4.38972 0
M  V30 1049 C 96.3024 0.657575 -5.15725 0
M  V30 1050 C 93.9874 1.28073 -4.85698 0
M  V30 1051 C 95.9814 0.0625968 -6.37369 0
M  V30 1052 C 93.6684 0.681914 -6.07283 0
M  V30 1053 C 94.6664 0.0739046 -6.8296 0
M  V30 1054 O 94.3544 -0.515582 -8.02245 0
M  V30 1055 H 94.0864 0.284764 -0.613095 0
M  V30 1056 H 96.6404 0.233283 -2.04071 0
M  V30 1057 H 94.8704 2.67475 -2.79274 0
M  V30 1058 H 96.5594 2.52001 -3.18198 0
M  V30 1059 H 97.3254 0.642288 -4.80728 0
M  V30 1060 H 93.2044 1.74337 -4.26764 0
M  V30 1061 H 96.7484 -0.412593 -6.96379 0
M  V30 1062 H 92.6454 0.694636 -6.41752 0
M  V30 1063 H 93.4134 -0.410544 -8.1747 0
M  V30 1064 N 96.0765 1.50051 0.48192 0
M  V30 1065 C 97.3255 1.59741 1.23149 0
M  V30 1066 C 97.6385 0.298163 1.93314 0
M  V30 1067 O 98.8445 0.273835 2.70116 0
M  V30 1068 C 97.3005 2.81926 2.23708 0
M  V30 1069 C 96.9085 4.18685 1.59396 0
M  V30 1070 C 98.6525 3.00956 2.99375 0
M  V30 1071 C 96.5595 5.3207 2.58178 0
M  V30 1072 H 95.4895 0.594838 0.46334 0
M  V30 1073 H 98.1405 1.76467 0.503169 0
M  V30 1074 H 96.5225 2.58736 2.99786 0
M  V30 1075 H 97.6965 4.52088 0.891811 0
M  V30 1076 H 96.0115 4.05171 0.960503 0
M  V30 1077 H 98.6085 3.82836 3.73283 0
M  V30 1078 H 98.9515 2.12258 3.58123 0
M  V30 1079 H 99.4845 3.24277 2.30411 0
M  V30 1080 H 96.2235 6.22888 2.04184 0
M  V30 1081 H 95.7435 5.03098 3.26577 0
M  V30 1082 H 97.4225 5.62196 3.20225 0
M  V30 1083 N 97.5546 -0.734337 1.39446 0
M  V30 1084 C 98.9656 -1.31264 1.32766 0
M  V30 1085 C 99.3166 -1.96198 -0.00767497 0
M  V30 1086 O 98.4416 -1.96346 -0.909796 0
M  V30 1087 C 99.0366 -2.38682 2.4045 0
M  V30 1088 C 97.5956 -2.92184 2.37288 0
M  V30 1089 C 96.7426 -1.6576 2.22304 0
M  V30 1090 H 99.6936 -0.531799 1.49525 0
M  V30 1091 H 99.7146 -3.19087 2.07276 0
M  V30 1092 H 99.2266 -1.91392 3.37625 0
M  V30 1093 H 97.3276 -3.43752 1.43754 0
M  V30 1094 H 97.4406 -3.45253 3.3217 0
M  V30 1095 H 95.8046 -1.9012 1.69489 0
M  V30 1096 H 96.5876 -1.20521 3.21449 0
M  V30 1097 N 99.0327 -1.24633 -0.964593 0
M  V30 1098 C 100.449 -1.01239 -1.2338 0
M  V30 1099 C 100.649 0.2769 -1.99588 0
M  V30 1100 O 99.7047 0.992241 -2.32187 0
M  V30 1101 C 101.018 -2.22937 -2.01791 0
M  V30 1102 C 102.566 -2.27594 -2.14872 0
M  V30 1103 C 103.041 -3.48921 -2.96678 0
M  V30 1104 N 104.532 -3.49257 -3.04259 0
M  V30 1105 C 105.267 -4.39795 -3.67924 0
M  V30 1106 N 104.763 -5.40591 -4.33281 0
M  V30 1107 N 106.556 -4.275 -3.64966 0
M  V30 1108 H 98.7067 -2.0748 -0.454502 0
M  V30 1109 H 100.97 -0.910647 -0.26349 0
M  V30 1110 H 100.676 -3.16587 -1.53184 0
M  V30 1111 H 100.55 -2.25306 -3.02518 0
M  V30 1112 H 102.937 -1.34473 -2.6268 0
M  V30 1113 H 103.018 -2.2925 -1.13482 0
M  V30 1114 H 102.662 -4.42359 -2.49562 0
M  V30 1115 H 102.592 -3.4451 -3.98272 0
M  V30 1116 H 105.083 -2.76337 -2.57771 0
M  V30 1117 H 105.396 -6.05904 -4.79687 0
M  V30 1118 H 103.741 -5.44475 -4.3194 0
M  V30 1119 H 106.932 -3.47987 -3.13086 0
M  V30 1120 H 107.105 -4.98258 -4.14298 0
M  V30 1121 N 100.511 1.16574 -1.06058 0
M  V30 1122 C 101.927 1.3904 -0.783585 0
M  V30 1123 C 102.127 1.91784 0.618145 0
M  V30 1124 O 101.183 2.11511 1.37911 0
M  V30 1125 C 102.496 2.37329 -1.84649 0
M  V30 1126 C 104.044 2.51018 -1.86973 0
M  V30 1127 C 104.519 3.52588 -2.92311 0
M  V30 1128 N 106.01 3.60113 -2.91329 0
M  V30 1129 C 106.745 4.38486 -3.69482 0
M  V30 1130 N 106.241 5.20302 -4.57447 0
M  V30 1131 N 108.034 4.33446 -3.57885 0
M  V30 1132 H 100.185 0.806725 -1.96483 0
M  V30 1133 H 102.448 0.417117 -0.851303 0
M  V30 1134 H 102.154 2.05663 -2.85299 0
M  V30 1135 H 102.028 3.36946 -1.6955 0
M  V30 1136 H 104.415 2.81989 -0.869827 0
M  V30 1137 H 104.496 1.51445 -2.0615 0
M  V30 1138 H 104.14 3.22354 -3.92492 0
M  V30 1139 H 104.07 4.51886 -2.70383 0
M  V30 1140 H 106.561 3.01707 -2.27555 0
M  V30 1141 H 106.874 5.77311 -5.13743 0
M  V30 1142 H 105.219 5.19653 -4.61503 0
M  V30 1143 H 108.41 3.68586 -2.88551 0
M  V30 1144 H 108.583 4.94279 -4.19037 0
M  V30 1145 N 101.989 0.842826 1.3317 0
M  V30 1146 C 103.266 0.362216 1.92217 0
M  V30 1147 C 103.646 -1.15289 1.76838 0
M  V30 1148 O 102.994 -1.96914 1.15919 0
M  V30 1149 C 103.204 0.813495 3.39387 0
M  V30 1150 C 104.552 0.823804 4.16532 0
M  V30 1151 O 105.576 0.757358 3.48055 0
M  V30 1152 O 104.435 0.915193 5.38782 0
M  V30 1153 H 101.529 0.103317 0.820521 0
M  V30 1154 H 104.075 0.928942 1.42017 0
M  V30 1155 H 102.847 1.85624 3.4447 0
M  V30 1156 H 102.47 0.223561 3.96971 0
M  V30 1157 N 103.467 -1.45747 0.599634 0
M  V30 1158 C 104.397 -2.33235 -0.111306 0
M  V30 1159 C 105.378 -1.46359 -0.866781 0
M  V30 1160 O 106.563 -1.75146 -0.838904 0
M  V30 1161 C 103.693 -3.28932 -1.11451 0
M  V30 1162 C 102.647 -4.25381 -0.472772 0
M  V30 1163 C 101.973 -5.1071 -1.58365 0
M  V30 1164 C 103.273 -5.18831 0.600948 0
M  V30 1165 H 104.967 -2.92927 0.61919 0
M  V30 1166 H 102.513 -1.40857 0.299215 0
M  V30 1167 H 104.466 -3.89002 -1.62036 0
M  V30 1168 H 103.19 -2.67381 -1.8755 0
M  V30 1169 H 101.849 -3.66598 0.0121472 0
M  V30 1170 H 101.497 -4.45533 -2.33473 0
M  V30 1171 H 101.197 -5.7604 -1.15982 0
M  V30 1172 H 102.721 -5.73647 -2.09194 0
M  V30 1173 H 104.135 -5.73019 0.179491 0
M  V30 1174 H 102.532 -5.92595 0.946076 0
M  V30 1175 H 103.602 -4.6174 1.48068 0
M  V30 1176 N 104.945 -0.338344 -1.53925 0
M  V30 1177 C 105.892 0.520845 -2.24846 0
M  V30 1178 C 106.862 1.09976 -1.24477 0
M  V30 1179 O 108.047 1.13735 -1.53196 0
M  V30 1180 C 105.187 1.6685 -3.02084 0
M  V30 1181 C 104.3 1.11739 -4.17299 0
M  V30 1182 C 103.435 2.23193 -4.82036 0
M  V30 1183 C 102.474 1.65407 -5.89328 0
M  V30 1184 N 101.611 2.70582 -6.47866 0
M  V30 1185 H 106.451 -0.0904881 -2.97863 0
M  V30 1186 H 103.988 -0.0564282 -1.46992 0
M  V30 1187 H 105.946 2.34407 -3.45122 0
M  V30 1188 H 104.576 2.2509 -2.31375 0
M  V30 1189 H 103.628 0.332919 -3.7894 0
M  V30 1190 H 104.94 0.654677 -4.94485 0
M  V30 1191 H 104.094 2.98626 -5.28117 0
M  V30 1192 H 102.833 2.72807 -4.04262 0
M  V30 1193 H 101.838 0.884779 -5.42634 0
M  V30 1194 H 103.063 1.16652 -6.69006 0
M  V30 1195 H 101.009 3.1946 -5.72959 0
M  V30 1196 H 100.926 2.28917 -7.20509 0
M  V30 1197 H 102.194 3.45799 -6.98601 0
M  V30 1198 N 106.423 1.57458 -0.0668435 0
M  V30 1199 C 107.355 2.09413 0.931601 0
M  V30 1200 C 108.368 1.02522 1.26464 0
M  V30 1201 O 109.557 1.30049 1.22269 0
M  V30 1202 C 106.657 2.53537 2.24882 0
M  V30 1203 C 105.83 3.83944 2.09537 0
M  V30 1204 C 104.889 4.14214 3.2452 0
M  V30 1205 O 103.915 4.83891 2.9973 0
M  V30 1206 N 105.117 3.67367 4.49469 0
M  V30 1207 H 107.882 2.95699 0.488048 0
M  V30 1208 H 105.443 1.61462 0.119009 0
M  V30 1209 H 107.435 2.70853 3.00701 0
M  V30 1210 H 106.005 1.72415 2.60753 0
M  V30 1211 H 105.225 3.76057 1.18215 0
M  V30 1212 H 106.513 4.69312 1.96529 0
M  V30 1213 H 105.911 3.11068 4.72497 0
M  V30 1214 H 104.468 3.89891 5.2233 0
M  V30 1215 N 107.901 -0.206675 1.56239 0
M  V30 1216 C 108.831 -1.25909 1.96645 0
M  V30 1217 C 109.812 -1.48097 0.836734 0
M  V30 1218 O 110.997 -1.6003 1.10019 0
M  V30 1219 C 108.127 -2.6058 2.29599 0
M  V30 1220 C 107.081 -2.53024 3.452 0
M  V30 1221 C 106.407 -3.91861 3.63798 0
M  V30 1222 C 107.707 -2.06524 4.79734 0
M  V30 1223 H 109.401 -0.923369 2.84806 0
M  V30 1224 H 106.947 -0.442735 1.37025 0
M  V30 1225 H 108.9 -3.34375 2.56459 0
M  V30 1226 H 107.624 -2.95869 1.38307 0
M  V30 1227 H 106.283 -1.81684 3.18412 0
M  V30 1228 H 105.931 -4.24483 2.69857 0
M  V30 1229 H 105.631 -3.87683 4.4156 0
M  V30 1230 H 107.155 -4.67296 3.93022 0
M  V30 1231 H 108.569 -2.70072 5.05702 0
M  V30 1232 H 106.966 -2.13374 5.60885 0
M  V30 1233 H 108.036 -1.01802 4.74093 0
M  V30 1234 N 109.379 -1.50304 -0.473955 0
M  V30 1235 C 110.609 -1.64663 -1.24778 0
M  V30 1236 C 111.017 -0.328174 -1.86332 0
M  V30 1237 O 110.36 0.699536 -1.69859 0
M  V30 1238 C 110.422 -2.6778 -2.39863 0
M  V30 1239 C 110.086 -4.11413 -1.98969 0
M  V30 1240 C 111.083 -4.97372 -1.51385 0
M  V30 1241 C 108.768 -4.57312 -2.07777 0
M  V30 1242 C 110.762 -6.27277 -1.13148 0
M  V30 1243 C 108.449 -5.87223 -1.69152 0
M  V30 1244 C 109.447 -6.72031 -1.21915 0
M  V30 1245 O 109.135 -7.99518 -0.838237 0
M  V30 1246 H 108.867 -0.556602 -0.383627 0
M  V30 1247 H 111.421 -1.9726 -0.572491 0
M  V30 1248 H 109.651 -2.30419 -3.10554 0
M  V30 1249 H 111.34 -2.71388 -3.01833 0
M  V30 1250 H 112.106 -4.63128 -1.44004 0
M  V30 1251 H 107.985 -3.91449 -2.43493 0
M  V30 1252 H 111.529 -6.93425 -0.762077 0
M  V30 1253 H 107.426 -6.20989 -1.76191 0
M  V30 1254 H 108.194 -8.12764 -0.967339 0
M  V30 1255 N 110.857 0.726932 -1.39834 0
M  V30 1256 C 112.104 1.48664 -1.37496 0
M  V30 1257 C 112.432 1.94482 0.0264678 0
M  V30 1258 O 111.687 1.67692 1.00886 0
M  V30 1259 C 111.986 2.73495 -2.30077 0
M  V30 1260 C 111.652 2.46502 -3.77555 0
M  V30 1261 C 110.314 2.3885 -4.17737 0
M  V30 1262 C 112.666 2.23604 -4.70798 0
M  V30 1263 C 109.994 2.06352 -5.49214 0
M  V30 1264 C 112.346 1.92622 -6.02561 0
M  V30 1265 C 111.01 1.83444 -6.41798 0
M  V30 1266 H 110.28 0.544001 -0.503135 0
M  V30 1267 H 112.927 0.833657 -1.72402 0
M  V30 1268 H 111.232 3.43575 -1.88317 0
M  V30 1269 H 112.929 3.31549 -2.25558 0
M  V30 1270 H 109.519 2.5334 -3.45712 0
M  V30 1271 H 113.703 2.28479 -4.40581 0
M  V30 1272 H 108.959 1.97776 -5.78528 0
M  V30 1273 H 113.133 1.73914 -6.74334 0
M  V30 1274 H 110.76 1.58029 -7.43593 0
M  V30 1275 N 112.336 1.25143 0.95797 0
M  V30 1276 C 113.284 1.05019 2.07542 0
M  V30 1277 C 114.278 -0.0178751 1.69391 0
M  V30 1278 O 115.484 0.137472 1.79474 0
M  V30 1279 H 111.859 0.32265 0.679265 0
M  V30 1280 H 113.83 1.99759 2.21673 0
M  V30 1281 C 112.579 0.682074 3.40944 0
M  V30 1282 H 111.902 1.49573 3.70767 0
M  V30 1283 H 113.342 0.580945 4.20001 0
M  V30 1284 C 111.801 -0.611608 3.31302 0
M  V30 1285 O 112.331 -1.65465 3.66038 0
M  V30 1286 N 110.537 -0.595982 2.84423 0
M  V30 1287 H 110.084 0.253192 2.56353 0
M  V30 1288 H 110.042 -1.46173 2.78354 0
M  V30 1289 N 113.814 -1.1601 1.06675 0
M  V30 1290 C 114.744 -2.22688 0.702307 0
M  V30 1291 C 115.725 -1.67306 -0.307032 0
M  V30 1292 O 116.91 -1.93352 -0.181305 0
M  V30 1293 C 114.04 -3.47178 0.092038 0
M  V30 1294 C 112.994 -4.15477 1.02777 0
M  V30 1295 C 112.32 -5.33963 0.28061 0
M  V30 1296 C 113.62 -4.66019 2.35846 0
M  V30 1297 H 115.314 -2.53429 1.59419 0
M  V30 1298 H 112.86 -1.21813 0.767961 0
M  V30 1299 H 114.813 -4.21037 -0.174814 0
M  V30 1300 H 113.537 -3.15749 -0.834877 0
M  V30 1301 H 112.196 -3.43549 1.27944 0
M  V30 1302 H 111.844 -4.98788 -0.649545 0
M  V30 1303 H 111.544 -5.806 0.904258 0
M  V30 1304 H 113.068 -6.10596 0.021396 0
M  V30 1305 H 114.482 -5.3144 2.15045 0
M  V30 1306 H 112.879 -5.23293 2.93743 0
M  V30 1307 H 113.949 -3.82023 2.98641 0
M  V30 1308 N 115.292 -0.849877 -1.32721 0
M  V30 1309 C 116.522 -0.46408 -2.0132 0
M  V30 1310 C 116.93 0.94246 -1.64056 0
M  V30 1311 O 116.273 1.6257 -0.855379 0
M  V30 1312 C 116.335 -0.517887 -3.5575 0
M  V30 1313 C 115.999 -1.88248 -4.16427 0
M  V30 1314 C 116.996 -2.84726 -4.35002 0
M  V30 1315 C 114.681 -2.17832 -4.52609 0
M  V30 1316 C 116.675 -4.08945 -4.8892 0
M  V30 1317 C 114.362 -3.42304 -5.06232 0
M  V30 1318 C 115.36 -4.37677 -5.24335 0
M  V30 1319 O 115.048 -5.59946 -5.76815 0
M  V30 1320 H 114.78 -0.181327 -0.651227 0
M  V30 1321 H 117.334 -1.14713 -1.70382 0
M  V30 1322 H 115.564 0.221997 -3.86062 0
M  V30 1323 H 117.253 -0.148366 -4.05629 0
M  V30 1324 H 118.019 -2.63174 -4.07388 0
M  V30 1325 H 113.898 -1.44385 -4.37806 0
M  V30 1326 H 117.442 -4.83396 -5.02966 0
M  V30 1327 H 113.339 -3.63709 -5.33278 0
M  V30 1328 H 114.107 -5.61838 -5.95214 0
M  V30 1329 N 116.77 1.45427 -0.607355 0
M  V30 1330 C 118.019 2.01452 -0.100036 0
M  V30 1331 C 118.332 1.48159 1.27704 0
M  V30 1332 O 119.538 1.96159 1.87707 0
M  V30 1333 C 117.994 3.59672 -0.128158 0
M  V30 1334 C 117.602 4.21962 -1.50507 0
M  V30 1335 C 119.346 4.23262 0.323932 0
M  V30 1336 C 117.253 5.72333 -1.48959 0
M  V30 1337 H 116.183 0.75325 -0.0336299 0
M  V30 1338 H 118.834 1.66901 -0.76265 0
M  V30 1339 H 117.216 3.91411 0.601105 0
M  V30 1340 H 118.39 4.01796 -2.25602 0
M  V30 1341 H 116.705 3.70565 -1.89923 0
M  V30 1342 H 119.302 5.33522 0.354691 0
M  V30 1343 H 119.645 3.93921 1.34656 0
M  V30 1344 H 120.178 3.96239 -0.352056 0
M  V30 1345 H 116.917 6.06373 -2.48981 0
M  V30 1346 H 116.437 5.94691 -0.781214 0
M  V30 1347 H 118.116 6.35525 -1.21313 0
M  V30 1348 N 118.248 0.346503 1.53744 0
M  V30 1349 C 119.476 -0.25041 2.05379 0
M  V30 1350 C 119.891 -1.43979 1.22129 0
M  V30 1351 O 119.248 -1.80677 0.257321 0
M  V30 1352 C 119.299 -0.662575 3.55376 0
M  V30 1353 O 119.02 0.479515 4.35468 0
M  V30 1354 C 120.521 -1.31989 4.23195 0
M  V30 1355 H 117.741 -0.0478198 0.669294 0
M  V30 1356 H 120.285 0.499346 1.9831 0
M  V30 1357 H 118.44 -1.36227 3.62658 0
M  V30 1358 H 118.854 0.15037 5.24284 0
M  V30 1359 H 120.328 -1.55902 5.29527 0
M  V30 1360 H 120.805 -2.27436 3.75725 0
M  V30 1361 H 121.411 -0.662154 4.20114 0
M  V30 1362 N 119.726 -1.57421 0.075193 0
M  V30 1363 C 120.972 -1.93905 -0.594025 0
M  V30 1364 C 121.305 -0.955701 -1.69056 0
M  V30 1365 O 120.58 0.0145373 -1.94495 0
M  V30 1366 C 120.863 -3.40638 -1.1678 0
M  V30 1367 C 120.716 -4.49733 -0.0776792 0
M  V30 1368 C 122.035 -3.88259 -2.07228 0
M  V30 1369 H 119.154 -0.705105 -0.214466 0
M  V30 1370 H 121.796 -1.8947 0.141854 0
M  V30 1371 H 119.946 -3.44549 -1.79494 0
M  V30 1372 H 121.618 -4.57942 0.555573 0
M  V30 1373 H 119.861 -4.29751 0.591286 0
M  V30 1374 H 120.532 -5.49549 -0.519603 0
M  V30 1375 H 123.008 -3.86376 -1.54445 0
M  V30 1376 H 121.884 -4.91533 -2.44308 0
M  V30 1377 H 122.145 -3.26396 -2.98191 0
M  V30 1378 N 121.204 0.198386 -1.56346 0
M  V30 1379 C 122.152 1.26538 -1.95169 0
M  V30 1380 C 123.146 1.47295 -0.836685 0
M  V30 1381 O 124.352 1.48195 -1.02167 0
M  V30 1382 H 120.727 0.424744 -0.620561 0
M  V30 1383 H 122.698 0.910904 -2.84157 0
M  V30 1384 C 121.447 2.6035 -2.30463 0
M  V30 1385 H 120.77 2.45192 -3.15786 0
M  V30 1386 H 122.21 3.33762 -2.61494 0
M  V30 1387 C 120.669 3.17096 -1.13806 0
M  V30 1388 O 121.199 3.99588 -0.41135 0
M  V30 1389 N 119.405 2.75795 -0.915736 0
M  V30 1390 H 118.952 2.08816 -1.50843 0
M  V30 1391 H 118.91 3.14101 -0.136979 0
M  V30 1392 N 122.682 1.50554 0.465978 0
M  V30 1393 C 123.91 1.65563 1.24083 0
M  V30 1394 C 124.325 0.341051 1.85694 0
M  V30 1395 O 123.682 -0.677543 1.69457 0
M  V30 1396 C 123.733 2.75051 2.34583 0
M  V30 1397 O 123.454 4.01413 1.75497 0
M  V30 1398 C 124.955 3.01078 3.25372 0
M  V30 1399 H 122.175 0.55638 0.375077 0
M  V30 1400 H 124.719 1.96807 0.555624 0
M  V30 1401 H 122.874 2.46486 2.9887 0
M  V30 1402 H 123.288 4.62002 2.48303 0
M  V30 1403 H 124.762 3.81339 3.99105 0
M  V30 1404 H 125.239 2.12349 3.84453 0
M  V30 1405 H 125.845 3.31194 2.66816 0
M  V30 1406 N 124.16 -0.719506 1.40217 0
M  V30 1407 C 125.093 -1.84298 1.34571 0
M  V30 1408 C 126.071 -1.61149 0.216741 0
M  V30 1409 O 127.255 -1.84212 0.399756 0
M  V30 1410 C 124.382 -3.20568 1.09335 0
M  V30 1411 C 123.428 -3.62551 2.24631 0
M  V30 1412 S 124.261 -3.7012 3.87004 0
M  V30 1413 C 125.417 -5.09154 3.64024 0
M  V30 1414 H 125.65 -1.88807 2.2965 0
M  V30 1415 H 123.183 -0.885901 1.26456 0
M  V30 1416 H 125.141 -3.99246 0.954602 0
M  V30 1417 H 123.802 -3.13696 0.159164 0
M  V30 1418 H 122.995 -4.61483 2.02606 0
M  V30 1419 H 122.597 -2.91119 2.34789 0
M  V30 1420 H 124.889 -5.95955 3.22248 0
M  V30 1421 H 125.832 -5.36213 4.62473 0
M  V30 1422 H 126.24 -4.79562 2.97793 0
M  V30 1423 N 125.638 -1.25649 -0.95132 0
M  V30 1424 C 126.586 -1.06118 -2.06982 0
M  V30 1425 C 127.58 0.00889169 -1.69398 0
M  V30 1426 O 128.786 -0.146988 -1.79399 0
M  V30 1427 H 125.161 -0.326248 -0.677544 0
M  V30 1428 H 127.132 -2.00932 -2.2061 0
M  V30 1429 C 125.881 -0.700145 -3.40578 0
M  V30 1430 H 125.204 -1.51537 -3.69968 0
M  V30 1431 H 126.644 -0.603211 -4.19687 0
M  V30 1432 C 125.103 0.59403 -3.31622 0
M  V30 1433 O 125.633 1.63522 -3.66911 0
M  V30 1434 N 123.839 0.58089 -2.84735 0
M  V30 1435 H 123.386 -0.266783 -2.56215 0
M  V30 1436 H 123.344 1.44695 -2.79125 0
M  V30 1437 N 127.117 1.15442 -1.07289 0
M  V30 1438 C 128.047 2.22312 -0.714107 0
M  V30 1439 C 129.028 1.67467 0.298155 0
M  V30 1440 O 130.213 1.93445 0.171048 0
M  V30 1441 C 127.343 3.47124 -0.110448 0
M  V30 1442 C 126.297 4.14926 -1.04979 0
M  V30 1443 C 125.623 5.33807 -0.308924 0
M  V30 1444 C 126.923 4.64762 -2.38314 0
M  V30 1445 H 128.617 2.5258 -1.6076 0
M  V30 1446 H 126.163 1.21404 -0.77441 0
M  V30 1447 H 128.116 4.21124 0.152482 0
M  V30 1448 H 126.84 3.16187 0.81812 0
M  V30 1449 H 125.499 3.42866 -1.29764 0
M  V30 1450 H 125.147 4.99126 0.623084 0
M  V30 1451 H 124.847 5.80113 -0.935036 0
M  V30 1452 H 126.371 6.10576 -0.0537771 0
M  V30 1453 H 127.785 5.30292 -2.1786 0
M  V30 1454 H 126.182 5.21728 -2.96514 0
M  V30 1455 H 127.252 3.80434 -3.00663 0
M  V30 1456 N 128.595 0.856903 1.32268 0
M  V30 1457 C 130.006 0.515711 1.79436 0
M  V30 1458 C 130.357 -0.966586 1.70738 0
M  V30 1459 O 129.482 -1.75409 1.26731 0
M  V30 1460 C 130.077 0.929335 3.25805 0
M  V30 1461 C 128.636 0.640006 3.70919 0
M  V30 1462 C 127.783 1.12784 2.53328 0
M  V30 1463 H 130.734 1.04389 1.19535 0
M  V30 1464 H 130.755 0.246633 3.797 0
M  V30 1465 H 130.267 2.00821 3.32103 0
M  V30 1466 H 128.368 -0.428051 3.70133 0
M  V30 1467 H 128.481 1.20788 4.63624 0
M  V30 1468 H 126.845 0.548033 2.48734 0
M  V30 1469 H 127.628 2.21387 2.62379 0
M  V30 1470 N 130.073 -1.45103 0.615059 0
M  V30 1471 C 131.02 -2.30586 -0.0993978 0
M  V30 1472 C 131.99 -1.42544 -0.852669 0
M  V30 1473 O 133.175 -1.71465 -0.836917 0
M  V30 1474 C 130.315 -3.27572 -1.08583 0
M  V30 1475 C 129.428 -4.30717 -0.332656 0
M  V30 1476 C 128.563 -5.14807 -1.30947 0
M  V30 1477 C 127.602 -6.09673 -0.544538 0
M  V30 1478 N 126.739 -6.86517 -1.47101 0
M  V30 1479 H 131.579 -2.91144 0.635542 0
M  V30 1480 H 129.116 -1.4346 0.325206 0
M  V30 1481 H 131.074 -3.82276 -1.67095 0
M  V30 1482 H 129.704 -2.68751 -1.78809 0
M  V30 1483 H 128.756 -3.78615 0.368107 0
M  V30 1484 H 130.068 -4.98102 0.263842 0
M  V30 1485 H 129.222 -5.73948 -1.96643 0
M  V30 1486 H 127.961 -4.47458 -1.9399 0
M  V30 1487 H 126.966 -5.49656 0.126003 0
M  V30 1488 H 128.191 -6.79052 0.080947 0
M  V30 1489 H 126.137 -6.21851 -2.08895 0
M  V30 1490 H 126.054 -7.50281 -0.928137 0
M  V30 1491 H 127.322 -7.50194 -2.11731 0
M  V30 1492 N 131.551 -0.354651 -1.53558 0
M  V30 1493 C 132.967 -0.00315426 -1.596 0
M  V30 1494 C 133.167 1.47741 -1.37021 0
M  V30 1495 O 132.223 2.23759 -1.16996 0
M  V30 1496 C 133.536 -0.44929 -2.97325 0
M  V30 1497 C 135.084 -0.402578 -3.104 0
M  V30 1498 C 135.559 -0.824355 -4.5052 0
M  V30 1499 N 137.05 -0.778979 -4.56603 0
M  V30 1500 C 137.785 -1.07715 -5.63192 0
M  V30 1501 N 137.281 -1.44405 -6.77583 0
M  V30 1502 N 139.074 -1.00066 -5.53121 0
M  V30 1503 H 131.225 -1.31893 -1.66487 0
M  V30 1504 H 133.488 -0.538388 -0.780284 0
M  V30 1505 H 133.194 -1.48202 -3.1895 0
M  V30 1506 H 133.068 0.169772 -3.76818 0
M  V30 1507 H 135.455 0.621004 -2.88492 0
M  V30 1508 H 135.536 -1.05699 -2.32941 0
M  V30 1509 H 135.18 -1.846 -4.73165 0
M  V30 1510 H 135.11 -0.147304 -5.26394 0
M  V30 1511 H 137.601 -0.508528 -3.74463 0
M  V30 1512 H 137.914 -1.65612 -7.54846 0
M  V30 1513 H 136.259 -1.4826 -6.79002 0
M  V30 1514 H 139.45 -0.713293 -4.62633 0
M  V30 1515 H 139.623 -1.23638 -6.36096 0
M  V30 1516 N 133.029 1.57378 -0.0835403 0
M  V30 1517 C 133.976 2.13384 0.879539 0
M  V30 1518 C 134.946 1.04936 1.28754 0
M  V30 1519 O 136.131 1.32662 1.37133 0
M  V30 1520 C 133.271 2.70932 2.13752 0
M  V30 1521 C 132.384 3.93575 1.7811 0
M  V30 1522 C 131.519 4.39326 2.98607 0
M  V30 1523 C 130.558 5.54587 2.59037 0
M  V30 1524 N 129.695 5.95243 3.72331 0
M  V30 1525 H 134.535 2.9537 0.395076 0
M  V30 1526 H 132.072 1.45953 0.183349 0
M  V30 1527 H 134.03 3.02411 2.87408 0
M  V30 1528 H 132.66 1.91693 2.59718 0
M  V30 1529 H 131.712 3.68483 0.94469 0
M  V30 1530 H 133.024 4.77258 1.45005 0
M  V30 1531 H 132.178 4.72528 3.80529 0
M  V30 1532 H 130.917 3.5452 3.34913 0
M  V30 1533 H 129.922 5.21024 1.75539 0
M  V30 1534 H 131.147 6.41133 2.23887 0
M  V30 1535 H 129.093 5.13385 4.08378 0
M  V30 1536 H 129.01 6.73694 3.43034 0
M  V30 1537 H 130.278 6.33072 4.54797 0
M  V30 1538 N 134.507 -0.190092 1.56449 0
M  V30 1539 C 135.417 -1.25591 1.98152 0
M  V30 1540 C 136.433 -1.49519 0.889944 0
M  V30 1541 O 137.609 -1.62036 1.19609 0
M  V30 1542 C 134.674 -2.57916 2.3169 0
M  V30 1543 C 133.735 -2.42015 3.5458 0
M  V30 1544 C 132.968 -3.6803 3.8651 0
M  V30 1545 O 133.191 -4.72413 3.1966 0
M  V30 1546 O 132.125 -3.6326 4.79923 0
M  V30 1547 H 135.951 -0.931988 2.89046 0
M  V30 1548 H 133.536 -0.395488 1.4407 0
M  V30 1549 H 135.418 -3.36008 2.54316 0
M  V30 1550 H 134.093 -2.89925 1.43963 0
M  V30 1551 H 133 -1.62017 3.37196 0
M  V30 1552 H 134.333 -2.14937 4.4279 0
M  V30 1553 N 135.985 -1.50799 -0.457987 0
M  V30 1554 C 137.231 -1.62683 -1.21088 0
M  V30 1555 C 137.564 -0.332268 -1.91336 0
M  V30 1556 O 136.839 0.667043 -1.82704 0
M  V30 1557 C 137.122 -2.81615 -2.24422 0
M  V30 1558 C 136.975 -4.20989 -1.58392 0
M  V30 1559 C 138.294 -2.96085 -3.2561 0
M  V30 1560 H 135.413 -0.592087 -0.438864 0
M  V30 1561 H 138.055 -1.83225 -0.50286 0
M  V30 1562 H 136.205 -2.64231 -2.84806 0
M  V30 1563 H 137.877 -4.49994 -1.01504 0
M  V30 1564 H 136.12 -4.24641 -0.886704 0
M  V30 1565 H 136.791 -5.0016 -2.33547 0
M  V30 1566 H 139.267 -3.12042 -2.75262 0
M  V30 1567 H 138.143 -3.80902 -3.95228 0
M  V30 1568 H 138.404 -2.0726 -3.90507 0
M  V30 1569 N 137.463 0.71206 -1.40597 0
M  V30 1570 C 138.712 1.46754 -1.38369 0
M  V30 1571 C 139.025 1.95598 0.0097839 0
M  V30 1572 O 140.231 2.71059 0.154677 0
M  V30 1573 C 138.687 2.65289 -2.43207 0
M  V30 1574 C 138.295 2.23301 -3.88382 0
M  V30 1575 C 140.039 3.43008 -2.50091 0
M  V30 1576 C 137.946 3.38696 -4.84808 0
M  V30 1577 H 136.876 0.55118 -0.514506 0
M  V30 1578 H 139.527 0.774616 -1.66349 0
M  V30 1579 H 137.909 3.36769 -2.08332 0
M  V30 1580 H 139.083 1.59218 -4.32419 0
M  V30 1581 H 137.398 1.58618 -3.85006 0
M  V30 1582 H 139.995 4.28881 -3.1932 0
M  V30 1583 H 140.338 3.87065 -1.53253 0
M  V30 1584 H 140.871 2.78574 -2.83974 0
M  V30 1585 H 137.61 2.99668 -5.82992 0
M  V30 1586 H 137.13 4.01683 -4.45433 0
M  V30 1587 H 138.809 4.04712 -5.04794 0
M  V30 1588 N 138.941 1.26152 0.944643 0
M  V30 1589 C 140.181 1.12708 1.70517 0
M  V30 1590 C 140.545 -0.324727 1.89234 0
M  V30 1591 O 141.746 -0.581211 2.62441 0
M  V30 1592 C 140.017 1.8713 3.04495 0
M  V30 1593 S 141.576 1.89698 3.95677 0
M  V30 1594 H 138.394 0.402665 0.585988 0
M  V30 1595 H 140.996 1.59821 1.12594 0
M  V30 1596 H 139.7 2.91833 2.88551 0
M  V30 1597 H 139.231 1.40444 3.67477 0
M  V30 1598 H 141.246 0.981198 4.86402 0
M  V30 1599 N 140.419 -1.14872 1.07899 0
M  V30 1600 C 141.835 -1.37776 0.805606 0
M  V30 1601 C 142.035 -1.92743 -0.587555 0
M  V30 1602 O 141.091 -2.13678 -1.34528 0
M  V30 1603 C 142.404 -2.34361 1.88402 0
M  V30 1604 C 143.952 -2.48012 1.90942 0
M  V30 1605 C 144.427 -3.47893 2.97883 0
M  V30 1606 N 145.918 -3.55433 2.97021 0
M  V30 1607 C 146.653 -4.32553 3.76412 0
M  V30 1608 N 146.149 -5.12959 4.65666 0
M  V30 1609 N 147.942 -4.27697 3.64735 0
M  V30 1610 H 140.093 -0.775365 1.97742 0
M  V30 1611 H 142.356 -0.403521 0.857831 0
M  V30 1612 H 142.062 -2.01098 2.88535 0
M  V30 1613 H 141.936 -3.34206 1.74889 0
M  V30 1614 H 144.323 -2.8057 0.914579 0
M  V30 1615 H 144.404 -1.48147 2.08534 0
M  V30 1616 H 144.048 -3.16069 3.97571 0
M  V30 1617 H 143.978 -4.47527 2.77538 0
M  V30 1618 H 146.469 -2.98048 2.32326 0
M  V30 1619 H 146.782 -5.69065 5.22862 0
M  V30 1620 H 145.127 -5.12245 4.69712 0
M  V30 1621 H 148.318 -3.63949 2.94378 0
M  V30 1622 H 148.491 -4.8755 4.26848 0
M  V30 1623 N 141.898 -0.863906 -1.31812 0
M  V30 1624 C 143.146 -0.470904 -1.96537 0
M  V30 1625 C 143.467 0.978771 -1.68657 0
M  V30 1626 O 142.737 1.6853 -0.998717 0
M  V30 1627 H 141.317 -0.171148 -0.72713 0
M  V30 1628 H 143.979 -1.10236 -1.60729 0
M  V30 1629 H 143.075 -0.623616 -3.05806 0
M  V30 1630 N 143.376 1.44774 -0.622745 0
M  V30 1631 C 144.601 2.06999 -0.128968 0
M  V30 1632 C 145.026 1.4617 1.1839 0
M  V30 1633 O 144.384 0.560007 1.72434 0
M  V30 1634 C 144.432 3.60595 -0.0188351 0
M  V30 1635 O 143.536 3.99398 1.02739 0
M  V30 1636 H 142.877 0.659047 -0.0809544 0
M  V30 1637 H 145.407 1.85784 -0.85705 0
M  V30 1638 H 145.417 4.07627 0.174476 0
M  V30 1639 H 144.092 4.04252 -0.977384 0
M  V30 1640 H 142.669 3.64011 0.809326 0
M  V30 1641 N 144.854 0.36279 1.53368 0
M  V30 1642 C 146.131 -0.284021 1.93527 0
M  V30 1643 C 146.511 -1.66628 1.29608 0
M  V30 1644 O 145.859 -2.23942 0.45413 0
M  V30 1645 C 146.069 -0.337028 3.47369 0
M  V30 1646 C 147.417 -0.578708 4.20638 0
M  V30 1647 O 148.441 -0.418352 3.53735 0
M  V30 1648 O 147.3 -0.89074 5.39192 0
M  V30 1649 H 144.394 -0.169743 0.809393 0
M  V30 1650 H 146.94 0.41537 1.64538 0
M  V30 1651 H 145.712 0.632217 3.86159 0
M  V30 1652 H 145.335 -1.08243 3.82582 0
M  V30 1653 N 146.332 -1.57332 0.0918853 0
M  V30 1654 C 147.609 -1.85691 -0.614668 0
M  V30 1655 C 147.989 -0.988146 -1.86545 0
M  V30 1656 O 147.337 -0.0597055 -2.28422 0
M  V30 1657 C 147.547 -3.36294 -0.933126 0
M  V30 1658 C 148.895 -4.04275 -1.29796 0
M  V30 1659 O 149.919 -3.41157 -1.02424 0
M  V30 1660 O 148.778 -5.1564 -1.81047 0
M  V30 1661 H 145.872 -0.767802 -0.307261 0
M  V30 1662 H 148.418 -1.69244 0.12434 0
M  V30 1663 H 147.19 -3.91273 -0.0456404 0
M  V30 1664 H 146.813 -3.58076 -1.72822 0
M  V30 1665 N 147.81 0.181792 -1.56548 0
M  V30 1666 C 149.087 0.926765 -1.72251 0
M  V30 1667 C 149.467 2.00831 -0.650386 0
M  V30 1668 O 148.815 2.26008 0.336521 0
M  V30 1669 C 149.025 1.50106 -3.1507 0
M  V30 1670 C 150.373 1.97805 -3.75711 0
M  V30 1671 O 151.397 1.59922 -3.18282 0
M  V30 1672 O 150.256 2.67555 -4.76525 0
M  V30 1673 H 147.35 0.435506 -0.703039 0
M  V30 1674 H 149.896 0.170443 -1.68842 0
M  V30 1675 H 148.668 0.72212 -3.84579 0
M  V30 1676 H 148.291 2.32186 -3.22763 0
M  V30 1677 N 149.288 1.51039 0.449983 0
M  V30 1678 C 150.518 1.66627 1.22143 0
M  V30 1679 C 150.926 0.357776 1.85786 0
M  V30 1680 O 150.269 -0.672424 1.70951 0
M  V30 1681 C 150.331 2.71562 2.35573 0
M  V30 1682 C 149.995 4.14526 1.92399 0
M  V30 1683 C 150.992 4.99717 1.43453 0
M  V30 1684 C 148.677 4.60559 2.00475 0
M  V30 1685 C 150.671 6.28998 1.03155 0
M  V30 1686 C 148.358 5.8984 1.59788 0
M  V30 1687 C 149.356 6.73886 1.11208 0
M  V30 1688 O 149.044 8.0075 0.710935 0
M  V30 1689 H 148.776 0.562635 0.374724 0
M  V30 1690 H 151.33 1.98146 0.541036 0
M  V30 1691 H 149.56 2.3533 3.06849 0
M  V30 1692 H 151.249 2.76156 2.97478 0
M  V30 1693 H 152.015 4.65361 1.36618 0
M  V30 1694 H 147.894 3.95273 2.37235 0
M  V30 1695 H 151.438 6.9455 0.651663 0
M  V30 1696 H 147.335 6.23713 1.66289 0
M  V30 1697 H 148.103 8.142 0.837913 0
M  V30 1698 N 150.766 -0.704594 1.40972 0
M  V30 1699 C 151.991 -1.49858 1.43378 0
M  V30 1700 C 152.416 -1.88061 0.038184 0
M  V30 1701 O 151.774 -1.5402 -0.956425 0
M  V30 1702 C 151.822 -2.74333 2.34038 0
M  V30 1703 O 150.926 -3.7147 1.7912 0
M  V30 1704 H 150.267 -0.45139 0.486974 0
M  V30 1705 H 152.797 -0.866832 1.8533 0
M  V30 1706 H 152.807 -3.22741 2.49604 0
M  V30 1707 H 151.482 -2.45863 3.35446 0
M  V30 1708 H 150.059 -3.30363 1.72958 0
M  V30 1709 N 152.244 -1.26651 -0.937939 0
M  V30 1710 C 153.491 -1.12387 -1.6845 0
M  V30 1711 C 153.819 0.332208 -1.91642 0
M  V30 1712 O 153.074 1.2602 -1.49725 0
M  V30 1713 C 153.373 -1.84168 -3.06295 0
M  V30 1714 C 153.039 -3.34056 -3.02849 0
M  V30 1715 C 151.701 -3.74942 -3.01616 0
M  V30 1716 C 154.053 -4.29741 -2.9491 0
M  V30 1717 C 151.381 -5.09894 -2.90215 0
M  V30 1718 C 153.733 -5.64738 -2.8505 0
M  V30 1719 C 152.397 -6.0493 -2.82162 0
M  V30 1720 H 151.667 -0.411252 -0.616403 0
M  V30 1721 H 154.314 -1.57134 -1.09459 0
M  V30 1722 H 152.619 -1.319 -3.6893 0
M  V30 1723 H 154.316 -1.70569 -3.62915 0
M  V30 1724 H 150.906 -3.01534 -3.0459 0
M  V30 1725 H 155.09 -3.99133 -2.94969 0
M  V30 1726 H 150.346 -5.40194 -2.86358 0
M  V30 1727 H 154.52 -6.38561 -2.77872 0
M  V30 1728 H 152.147 -7.09457 -2.73084 0
M  V30 1729 N 153.722 1.14298 -1.08507 0
M  V30 1730 C 154.962 1.87016 -0.824894 0
M  V30 1731 C 155.326 1.81099 0.637735 0
M  V30 1732 O 156.527 2.48963 1.01345 0
M  V30 1733 C 154.798 3.31584 -1.33368 0
M  V30 1734 S 156.357 4.21903 -1.20596 0
M  V30 1735 H 153.175 0.645259 -0.2986 0
M  V30 1736 H 155.777 1.37822 -1.38656 0
M  V30 1737 H 154.481 3.33439 -2.39262 0
M  V30 1738 H 154.012 3.85836 -0.767734 0
M  V30 1739 H 156.027 4.95971 -0.150891 0
M  V30 1740 N 155.201 0.870884 1.31352 0
M  V30 1741 C 156.617 0.562932 1.49343 0
M  V30 1742 C 156.817 -0.902725 1.80148 0
M  V30 1743 O 155.873 -1.68484 1.88067 0
M  V30 1744 C 157.186 1.46393 2.62659 0
M  V30 1745 C 158.734 1.46607 2.76542 0
M  V30 1746 C 159.209 2.35266 3.92955 0
M  V30 1747 N 160.7 2.33151 4.00243 0
M  V30 1748 C 161.435 2.98471 4.89594 0
M  V30 1749 N 160.931 3.72964 5.8384 0
M  V30 1750 N 162.724 2.87775 4.82848 0
M  V30 1751 H 154.875 1.81923 1.09626 0
M  V30 1752 H 157.138 0.777934 0.541777 0
M  V30 1753 H 156.844 2.50689 2.46674 0
M  V30 1754 H 156.718 1.16314 3.58819 0
M  V30 1755 H 159.105 0.43069 2.9194 0
M  V30 1756 H 159.186 1.8071 1.81046 0
M  V30 1757 H 158.83 3.38881 3.78315 0
M  V30 1758 H 158.76 1.98487 4.87761 0
M  V30 1759 H 161.251 1.79006 3.32814 0
M  V30 1760 H 161.564 4.19932 6.4875 0
M  V30 1761 H 159.909 3.77073 5.83816 0
M  V30 1762 H 163.1 2.29116 4.08195 0
M  V30 1763 H 163.273 3.38961 5.52277 0
M  V30 1764 N 156.679 -1.44442 0.630414 0
M  V30 1765 C 157.642 -2.29107 -0.0652523 0
M  V30 1766 C 158.642 -1.41002 -0.772995 0
M  V30 1767 O 159.832 -1.62881 -0.617692 0
M  V30 1768 C 156.964 -3.22564 -1.10296 0
M  V30 1769 H 158.157 -2.92103 0.679401 0
M  V30 1770 H 155.71 -1.51343 0.390517 0
M  V30 1771 H 156.445 -2.64416 -1.87762 0
M  V30 1772 H 156.23 -3.87491 -0.59941 0
M  V30 1773 H 157.72 -3.86167 -1.5895 0
M  V30 1774 N 158.157 -0.370918 -1.53173 0
M  V30 1775 C 159.087 0.464847 -2.28826 0
M  V30 1776 C 160.068 1.07936 -1.31468 0
M  V30 1777 O 161.253 1.0956 -1.60344 0
M  V30 1778 C 158.383 1.60196 -3.08147 0
M  V30 1779 C 157.337 1.11443 -4.13237 0
M  V30 1780 C 156.663 2.3422 -4.80672 0
M  V30 1781 C 157.963 0.195384 -5.21934 0
M  V30 1782 H 159.657 -0.166329 -2.98938 0
M  V30 1783 H 157.203 -0.0814359 -1.4377 0
M  V30 1784 H 159.156 2.19332 -3.59822 0
M  V30 1785 H 157.88 2.26045 -2.35735 0
M  V30 1786 H 156.539 0.545727 -3.62515 0
M  V30 1787 H 156.187 2.98537 -4.04827 0
M  V30 1788 H 155.887 2.02269 -5.51689 0
M  V30 1789 H 157.411 2.94032 -5.35143 0
M  V30 1790 H 158.825 0.694375 -5.69079 0
M  V30 1791 H 157.222 -0.0335027 -6.00091 0
M  V30 1792 H 158.292 -0.760961 -4.78892 0
M  V30 1793 N 159.635 1.57281 -0.100228 0
M  V30 1794 C 160.582 2.14305 0.856858 0
M  V30 1795 C 161.552 1.06296 1.27634 0
M  V30 1796 O 162.737 1.34109 1.35718 0
M  V30 1797 C 159.877 2.73184 2.10866 0
M  V30 1798 C 158.99 3.95442 1.73925 0
M  V30 1799 C 158.125 4.42468 2.93931 0
M  V30 1800 C 157.164 5.57303 2.5314 0
M  V30 1801 N 156.301 5.99158 3.65997 0
M  V30 1802 H 161.141 2.95772 0.363726 0
M  V30 1803 H 158.678 1.46139 0.167858 0
M  V30 1804 H 160.636 3.05442 2.84185 0
M  V30 1805 H 159.266 1.94437 2.57671 0
M  V30 1806 H 158.318 3.69464 0.905554 0
M  V30 1807 H 159.63 4.78769 1.39935 0
M  V30 1808 H 158.784 4.76537 3.75496 0
M  V30 1809 H 157.523 3.58052 3.31134 0
M  V30 1810 H 156.528 5.22857 1.70003 0
M  V30 1811 H 157.753 6.43471 2.17075 0
M  V30 1812 H 155.699 5.17687 4.02909 0
M  V30 1813 H 155.616 6.77295 3.35869 0
M  V30 1814 H 156.884 6.3786 4.48057 0
M  V30 1815 N 161.113 -0.173488 1.56642 0
M  V30 1816 C 162.361 -0.888706 1.81512 0
M  V30 1817 C 162.682 -1.82875 0.676872 0
M  V30 1818 O 161.952 -1.93536 -0.303414 0
M  V30 1819 H 160.532 -0.331164 0.669582 0
M  V30 1820 H 163.194 -0.173823 1.94123 0
M  V30 1821 H 162.29 -1.46691 2.75478 0
M  V30 1822 N 162.591 -1.51276 -0.441967 0
M  V30 1823 C 163.501 -1.75092 -1.56141 0
M  V30 1824 C 164.517 -0.634963 -1.62001 0
M  V30 1825 O 165.693 -0.916686 -1.79329 0
M  V30 1826 C 162.758 -1.86666 -2.92158 0
M  V30 1827 C 161.819 -3.10506 -2.96453 0
M  V30 1828 C 161.052 -3.21519 -4.25982 0
M  V30 1829 O 161.275 -2.38586 -5.18105 0
M  V30 1830 O 160.209 -4.14465 -4.36466 0
M  V30 1831 H 164.035 -2.70044 -1.38961 0
M  V30 1832 H 161.62 -1.35722 -0.624499 0
M  V30 1833 H 163.502 -1.96292 -3.72891 0
M  V30 1834 H 162.177 -0.949014 -3.09476 0
M  V30 1835 H 161.084 -3.06363 -2.14692 0
M  V30 1836 H 162.417 -4.01945 -2.84079 0
M  V30 1837 N 164.069 0.697108 -1.41344 0
M  V30 1838 C 165.297 1.48593 -1.43972 0
M  V30 1839 C 165.712 1.88747 -0.0445612 0
M  V30 1840 O 165.069 1.56682 0.935785 0
M  V30 1841 C 165.12 2.74946 -2.34706 0
M  V30 1842 O 164.841 2.36484 -3.68791 0
M  V30 1843 C 166.342 3.687 -2.46121 0
M  V30 1844 H 163.562 0.457964 -0.490418 0
M  V30 1845 H 166.106 0.858429 -1.8561 0
M  V30 1846 H 164.261 3.33937 -1.9638 0
M  V30 1847 H 164.675 3.17918 -4.17167 0
M  V30 1848 H 166.149 4.54145 -3.13777 0
M  V30 1849 H 166.626 4.13081 -1.49199 0
M  V30 1850 H 167.232 3.15613 -2.85076 0
M  V30 1851 N 165.547 1.27147 0.931209 0
M  V30 1852 C 166.793 1.13446 1.68101 0
M  V30 1853 C 167.126 -0.319628 1.91552 0
M  V30 1854 O 166.401 -1.23407 1.50336 0
M  V30 1855 C 166.684 1.91482 3.0497 0
M  V30 1856 C 166.537 3.44855 2.88782 0
M  V30 1857 C 167.856 1.71651 4.05246 0
M  V30 1858 H 164.975 0.413498 0.610072 0
M  V30 1859 H 167.617 1.56261 1.08086 0
M  V30 1860 H 165.767 1.55095 3.56199 0
M  V30 1861 H 167.439 3.9105 2.44698 0
M  V30 1862 H 165.682 3.71373 2.24198 0
M  V30 1863 H 166.353 3.94694 3.85902 0
M  V30 1864 H 168.829 2.0337 3.63015 0
M  V30 1865 H 167.705 2.28651 4.99009 0
M  V30 1866 H 167.966 0.663555 4.37092 0
M  V30 1867 N 167.025 -1.13721 1.09112 0
M  V30 1868 C 167.973 -2.21103 0.722219 0
M  V30 1869 C 168.967 -1.67147 -0.275374 0
M  V30 1870 O 170.173 -1.79477 -0.137176 0
M  V30 1871 H 166.548 -0.720445 0.215553 0
M  V30 1872 H 168.519 -2.49483 1.63709 0
M  V30 1873 C 167.268 -3.47352 0.15543 0
M  V30 1874 H 166.591 -3.89206 0.914246 0
M  V30 1875 H 168.031 -4.2395 -0.0647967 0
M  V30 1876 C 166.49 -3.1814 -1.10852 0
M  V30 1877 O 167.02 -3.36604 -2.19227 0
M  V30 1878 N 165.226 -2.72045 -1.02176 0
M  V30 1879 H 164.773 -2.57221 -0.139764 0
M  V30 1880 H 164.731 -2.52875 -1.8682 0
M  V30 1881 N 168.503 -0.877838 -1.30888 0
M  V30 1882 C 169.731 -0.507414 -2.00581 0
M  V30 1883 C 170.146 0.902216 -1.65848 0
M  V30 1884 O 169.503 1.59225 -0.891831 0
M  V30 1885 C 169.554 -0.664162 -3.55347 0
M  V30 1886 O 169.275 -2.01829 -3.8884 0
M  V30 1887 C 170.776 -0.295787 -4.42312 0
M  V30 1888 H 167.996 -0.196866 -0.641471 0
M  V30 1889 H 170.54 -1.18117 -1.66939 0
M  V30 1890 H 168.695 -0.0378619 -3.87381 0
M  V30 1891 H 169.109 -2.03174 -4.8355 0
M  V30 1892 H 170.583 -0.456388 -5.5011 0
M  V30 1893 H 171.06 0.765663 -4.32475 0
M  V30 1894 H 171.666 -0.898113 -4.15709 0
M  V30 1895 N 169.982 1.44106 -0.638065 0
M  V30 1896 C 171.21 2.06336 -0.152615 0
M  V30 1897 C 171.625 1.47731 1.17563 0
M  V30 1898 O 170.982 0.602806 1.72257 0
M  V30 1899 C 171.033 3.61479 -0.0391491 0
M  V30 1900 O 170.754 4.17903 -1.31487 0
M  V30 1901 C 172.255 4.40757 0.474176 0
M  V30 1902 H 169.475 0.665862 -0.0828776 0
M  V30 1903 H 172.019 1.84862 -0.87443 0
M  V30 1904 H 170.174 3.82191 0.633142 0
M  V30 1905 H 170.588 5.11416 -1.16421 0
M  V30 1906 H 172.062 5.49707 0.502562 0
M  V30 1907 H 172.539 4.12697 1.50258 0
M  V30 1908 H 173.145 4.24979 -0.165102 0
M  V30 1909 N 171.46 0.379036 1.52974 0
M  V30 1910 C 172.709 -0.207612 2.00629 0
M  V30 1911 C 173.022 -1.48758 1.27006 0
M  V30 1912 O 174.228 -2.15365 1.65318 0
M  V30 1913 C 172.684 -0.42053 3.57435 0
M  V30 1914 C 172.292 0.845587 4.39948 0
M  V30 1915 C 174.036 -0.964102 4.13407 0
M  V30 1916 C 171.943 0.601513 5.88333 0
M  V30 1917 H 170.873 -0.0813591 0.749598 0
M  V30 1918 H 173.524 0.499853 1.76561 0
M  V30 1919 H 171.906 -1.18959 3.7771 0
M  V30 1920 H 173.08 1.61848 4.31442 0
M  V30 1921 H 171.395 1.31336 3.95145 0
M  V30 1922 H 173.992 -1.16225 5.21916 0
M  V30 1923 H 174.335 -1.93019 3.68849 0
M  V30 1924 H 174.868 -0.25487 3.96983 0
M  V30 1925 H 171.607 1.53831 6.37194 0
M  V30 1926 H 171.127 -0.132628 5.99653 0
M  V30 1927 H 172.806 0.232134 6.46583 0
M  V30 1928 N 172.938 -1.57226 0.108567 0
M  V30 1929 C 174.163 -1.99604 -0.563303 0
M  V30 1930 C 174.588 -0.987563 -1.6009 0
M  V30 1931 O 173.946 0.0421687 -1.81251 0
M  V30 1932 C 173.994 -3.40902 -1.17552 0
M  V30 1933 O 173.098 -3.42896 -2.2912 0
M  V30 1934 H 172.439 -0.648704 -0.1417 0
M  V30 1935 H 174.969 -2.03679 0.193961 0
M  V30 1936 H 174.979 -3.78886 -1.51357 0
M  V30 1937 H 173.654 -4.1382 -0.415445 0
M  V30 1938 H 172.231 -3.1672 -1.96832 0
M  V30 1939 N 174.416 0.165178 -1.56732 0
M  V30 1940 C 175.663 0.880807 -1.8234 0
M  V30 1941 C 175.991 1.81977 -0.686621 0
M  V30 1942 O 175.246 1.92971 0.325697 0
M  V30 1943 C 175.545 1.70405 -3.1416 0
M  V30 1944 C 175.211 0.913475 -4.4155 0
M  V30 1945 C 173.873 0.695303 -4.7615 0
M  V30 1946 C 176.225 0.359349 -5.1996 0
M  V30 1947 C 173.553 -0.0879947 -5.86634 0
M  V30 1948 C 175.905 -0.410893 -6.31264 0
M  V30 1949 C 174.569 -0.639808 -6.64427 0
M  V30 1950 H 173.839 0.32231 -0.667231 0
M  V30 1951 H 176.486 0.145402 -1.90947 0
M  V30 1952 H 174.791 2.50903 -3.00923 0
M  V30 1953 H 176.488 2.26091 -3.31186 0
M  V30 1954 H 173.078 1.09357 -4.14414 0
M  V30 1955 H 177.262 0.515228 -4.93618 0
M  V30 1956 H 172.518 -0.27503 -6.10781 0
M  V30 1957 H 176.692 -0.847494 -6.91224 0
M  V30 1958 H 174.319 -1.24864 -7.49875 0
M  V30 1959 N 175.894 1.51508 0.433938 0
M  V30 1960 C 177.119 1.68443 1.21003 0
M  V30 1961 C 177.544 0.382636 1.84167 0
M  V30 1962 O 176.902 -0.65755 1.68956 0
M  V30 1963 C 176.95 2.80405 2.26727 0
M  V30 1964 O 176.054 2.44245 3.32292 0
M  V30 1965 H 175.395 0.561536 0.354363 0
M  V30 1966 H 177.925 1.9809 0.512024 0
M  V30 1967 H 177.935 3.0459 2.71457 0
M  V30 1968 H 176.61 3.74867 1.80132 0
M  V30 1969 H 175.187 2.30644 2.93015 0
M  V30 1970 N 177.372 -0.689602 1.41712 0
M  V30 1971 C 178.619 -1.44966 1.4139 0
M  V30 1972 C 178.947 -1.94484 0.025105 0
M  V30 1973 O 178.202 -1.70307 -0.964048 0
M  V30 1974 C 178.501 -2.67298 2.37247 0
M  V30 1975 C 178.167 -2.36405 3.83958 0
M  V30 1976 C 176.829 -2.27691 4.23923 0
M  V30 1977 C 179.181 -2.11043 4.76561 0
M  V30 1978 C 176.509 -1.91719 5.54492 0
M  V30 1979 C 178.861 -1.76578 6.07456 0
M  V30 1980 C 177.525 -1.66363 6.46436 0
M  V30 1981 H 176.795 -0.53047 0.517381 0
M  V30 1982 H 179.442 -0.787655 1.74552 0
M  V30 1983 H 177.747 -3.38461 1.9736 0
M  V30 1984 H 179.444 -3.25452 2.34269 0
M  V30 1985 H 176.034 -2.44085 3.52308 0
M  V30 1986 H 180.218 -2.16717 4.46483 0
M  V30 1987 H 175.474 -1.82367 5.83568 0
M  V30 1988 H 179.648 -1.55974 6.78708 0
M  V30 1989 H 177.275 -1.38258 7.47522 0
M  V30 1990 N 178.85 -1.27639 -0.924453 0
M  V30 1991 C 179.797 -1.10644 -2.0255 0
M  V30 1992 C 180.767 -0.00658438 -1.66099 0
M  V30 1993 O 181.952 -0.16952 -1.90045 0
M  V30 1994 C 179.092 -0.76309 -3.36557 0
M  V30 1995 C 178.205 -1.94091 -3.85944 0
M  V30 1996 C 177.34 -1.53914 -5.08413 0
M  V30 1997 C 176.379 -2.68425 -5.50104 0
M  V30 1998 N 175.516 -2.28815 -6.63768 0
M  V30 1999 H 180.356 -2.04858 -2.16419 0
M  V30 2000 H 177.893 -1.01974 -1.06017 0
M  V30 2001 H 179.851 -0.544822 -4.13627 0
M  V30 2002 H 178.481 0.142102 -3.22487 0
M  V30 2003 H 177.533 -2.27162 -3.05125 0
M  V30 2004 H 178.845 -2.7998 -4.12811 0
M  V30 2005 H 177.999 -1.28231 -5.92994 0
M  V30 2006 H 176.738 -0.651391 -4.8333 0
M  V30 2007 H 175.743 -2.94819 -4.64071 0
M  V30 2008 H 176.968 -3.57826 -5.7718 0
M  V30 2009 H 174.914 -1.42495 -6.40337 0
M  V30 2010 H 174.831 -3.08242 -6.90306 0
M  V30 2011 H 176.099 -2.06387 -7.51681 0
M  V30 2012 N 180.328 1.1314 -1.09713 0
M  V30 2013 C 181.576 1.84119 -0.833338 0
M  V30 2014 C 181.897 1.84097 0.642904 0
M  V30 2015 O 181.167 1.29881 1.46655 0
M  V30 2016 H 179.747 0.681766 -0.305293 0
M  V30 2017 H 182.409 1.37038 -1.38588 0
M  V30 2018 H 181.505 2.88543 -1.18951 0
M  V30 2019 N 181.806 0.884767 1.30421 0
M  V30 2020 C 183.055 0.499164 1.95426 0
M  V30 2021 C 183.368 -0.95645 1.70621 0
M  V30 2022 O 184.574 -1.44889 2.29607 0
M  V30 2023 C 183.03 0.84177 3.49917 0
M  V30 2024 C 182.638 2.31514 3.83543 0
M  V30 2025 C 184.382 0.525355 4.21237 0
M  V30 2026 C 182.289 2.59939 5.31212 0
M  V30 2027 H 181.219 0.182944 0.73147 0
M  V30 2028 H 183.87 1.07971 1.48373 0
M  V30 2029 H 182.252 0.190311 3.95542 0
M  V30 2030 H 183.426 3.0109 3.48829 0
M  V30 2031 H 181.741 2.59907 3.25326 0
M  V30 2032 H 184.338 0.714762 5.29901 0
M  V30 2033 H 184.681 -0.535222 4.12845 0
M  V30 2034 H 185.214 1.134 3.81294 0
M  V30 2035 H 181.953 3.64736 5.44654 0
M  V30 2036 H 181.473 1.94972 5.67227 0
M  V30 2037 H 183.152 2.45429 5.98643 0
M  V30 2038 N 183.284 -1.43765 0.645699 0
M  V30 2039 C 184.231 -2.30745 -0.0504648 0
M  V30 2040 C 185.201 -1.4432 -0.822241 0
M  V30 2041 O 186.386 -1.73202 -0.800358 0
M  V30 2042 C 183.526 -3.29802 -1.0161 0
M  V30 2043 C 182.639 -4.31326 -0.241219 0
M  V30 2044 C 181.774 -5.17469 -1.19998 0
M  V30 2045 C 180.813 -6.10691 -0.415094 0
M  V30 2046 N 179.95 -6.89483 -1.32506 0
M  V30 2047 H 184.79 -2.8973 0.697155 0
M  V30 2048 H 182.327 -1.42738 0.355563 0
M  V30 2049 H 184.285 -3.85734 -1.58949 0
M  V30 2050 H 182.915 -2.72483 -1.73069 0
M  V30 2051 H 181.967 -3.77749 0.448334 0
M  V30 2052 H 183.279 -4.9743 0.369437 0
M  V30 2053 H 182.433 -5.7799 -1.84424 0
M  V30 2054 H 181.172 -4.51473 -1.84455 0
M  V30 2055 H 180.177 -5.49265 0.242565 0
M  V30 2056 H 181.402 -6.78727 0.224966 0
M  V30 2057 H 179.348 -6.26142 -1.95657 0
M  V30 2058 H 179.265 -7.52081 -0.768783 0
M  V30 2059 H 180.533 -7.54516 -1.9577 0
M  V30 2060 N 184.763 -0.387143 -1.52771 0
M  V30 2061 C 186.01 0.195735 -2.01552 0
M  V30 2062 C 186.338 1.46995 -1.27369 0
M  V30 2063 O 185.593 1.92325 -0.361879 0
M  V30 2064 C 185.892 0.512209 -3.53711 0
M  V30 2065 C 185.558 -0.670202 -4.45891 0
M  V30 2066 C 184.22 -0.994586 -4.70809 0
M  V30 2067 C 186.572 -1.46134 -5.00294 0
M  V30 2068 C 183.9 -2.11169 -5.4738 0
M  V30 2069 C 186.252 -2.56903 -5.78086 0
M  V30 2070 C 184.916 -2.89852 -6.01284 0
M  V30 2071 H 184.186 0.0716246 -0.73753 0
M  V30 2072 H 186.833 -0.524046 -1.8419 0
M  V30 2073 H 185.138 1.31329 -3.69134 0
M  V30 2074 H 186.835 0.975804 -3.88946 0
M  V30 2075 H 183.425 -0.407366 -4.2666 0
M  V30 2076 H 187.609 -1.22397 -4.80971 0
M  V30 2077 H 182.865 -2.3707 -5.63567 0
M  V30 2078 H 187.039 -3.18608 -6.19243 0
M  V30 2079 H 184.666 -3.76533 -6.60399 0
M  V30 2080 N 186.241 1.57166 -0.116904 0
M  V30 2081 C 187.466 1.999 0.55271 0
M  V30 2082 C 187.891 0.996039 1.59564 0
M  V30 2083 O 187.249 -0.032556 1.81271 0
M  V30 2084 C 187.297 3.4152 1.15742 0
M  V30 2085 O 186.401 3.44106 2.27299 0
M  V30 2086 H 185.742 0.649447 0.138258 0
M  V30 2087 H 188.272 2.03573 -0.204759 0
M  V30 2088 H 188.282 3.79684 1.49346 0
M  V30 2089 H 186.957 4.14034 0.393493 0
M  V30 2090 H 185.534 3.17759 1.9515 0
M  V30 2091 N 187.719 -0.156864 1.56817 0
M  V30 2092 C 188.666 -1.19394 1.97519 0
M  V30 2093 C 189.636 -1.4322 0.841265 0
M  V30 2094 O 190.821 -1.55719 1.10255 0
M  V30 2095 C 187.961 -2.52483 2.35258 0
M  V30 2096 C 187.074 -2.35914 3.61896 0
M  V30 2097 C 186.209 -3.61969 3.88782 0
M  V30 2098 C 185.248 -3.40395 5.08722 0
M  V30 2099 N 184.385 -4.58556 5.31668 0
M  V30 2100 H 189.225 -0.839845 2.85921 0
M  V30 2101 H 186.762 -0.403264 1.41464 0
M  V30 2102 H 188.72 -3.30071 2.55165 0
M  V30 2103 H 187.35 -2.85859 1.49949 0
M  V30 2104 H 186.402 -1.49429 3.49821 0
M  V30 2105 H 187.714 -2.15926 4.49641 0
M  V30 2106 H 186.868 -4.47989 4.09135 0
M  V30 2107 H 185.607 -3.84951 2.9944 0
M  V30 2108 H 184.612 -2.52763 4.88253 0
M  V30 2109 H 185.837 -3.18822 5.99608 0
M  V30 2110 H 183.783 -4.81729 4.45279 0
M  V30 2111 H 183.7 -4.41535 6.13664 0
M  V30 2112 H 184.968 -5.45817 5.5651 0
M  V30 2113 N 189.197 -1.51736 -0.425897 0
M  V30 2114 C 190.445 -1.64644 -1.17204 0
M  V30 2115 C 190.766 -0.370486 -1.91448 0
M  V30 2116 O 190.036 0.614088 -1.86026 0
M  V30 2117 H 188.616 -0.606819 -0.435638 0
M  V30 2118 H 191.278 -1.88713 -0.487177 0
M  V30 2119 H 190.374 -2.47958 -1.89534 0
M  V30 2120 N 190.675 0.682077 -1.42076 0
M  V30 2121 C 191.622 1.79578 -1.44984 0
M  V30 2122 C 192.592 1.6332 -0.302614 0
M  V30 2123 O 193.777 1.83978 -0.505633 0
M  V30 2124 C 190.917 3.1756 -1.35091 0
M  V30 2125 C 190.03 3.45156 -2.59791 0
M  V30 2126 C 189.165 4.72826 -2.42093 0
M  V30 2127 C 188.204 4.93433 -3.62202 0
M  V30 2128 N 187.341 6.12338 -3.43491 0
M  V30 2129 H 192.181 1.76427 -2.40161 0
M  V30 2130 H 189.718 0.861376 -1.19242 0
M  V30 2131 H 191.676 3.97287 -1.27354 0
M  V30 2132 H 190.306 3.19854 -0.435133 0
M  V30 2133 H 189.358 2.59736 -2.77923 0
M  V30 2134 H 190.67 3.5628 -3.49094 0
M  V30 2135 H 189.824 5.60631 -2.319 0
M  V30 2136 H 188.563 4.63973 -1.50268 0
M  V30 2137 H 187.568 4.04073 -3.72834 0
M  V30 2138 H 188.793 5.04136 -4.54998 0
M  V30 2139 H 186.739 6.04672 -2.54377 0
M  V30 2140 H 186.656 6.2429 -4.26377 0
M  V30 2141 H 187.924 7.02841 -3.37097 0
M  V30 2142 N 192.153 1.28127 0.917671 0
M  V30 2143 C 193.383 1.17722 1.6978 0
M  V30 2144 C 193.791 -0.267261 1.87303 0
M  V30 2145 O 193.134 -1.19286 1.39702 0
M  V30 2146 C 193.196 1.79958 3.11216 0
M  V30 2147 C 192.86 3.29187 3.16993 0
M  V30 2148 C 193.857 4.25679 2.98485 0
M  V30 2149 C 191.542 3.70075 3.39632 0
M  V30 2150 C 193.536 5.61035 3.02521 0
M  V30 2151 C 191.223 5.05557 3.433 0
M  V30 2152 C 192.221 6.00847 3.24764 0
M  V30 2153 O 191.909 7.33859 3.28187 0
M  V30 2154 H 191.641 0.409788 0.537634 0
M  V30 2155 H 194.195 1.69694 1.15728 0
M  V30 2156 H 192.425 1.22475 3.66793 0
M  V30 2157 H 194.114 1.64125 3.71238 0
M  V30 2158 H 194.88 3.95426 2.80826 0
M  V30 2159 H 190.759 2.96373 3.53106 0
M  V30 2160 H 194.303 6.35388 2.87971 0
M  V30 2161 H 190.2 5.35462 3.60486 0
M  V30 2162 H 190.968 7.42436 3.44575 0
M  V30 2163 N 193.631 -1.12557 1.10312 0
M  V30 2164 C 194.578 -2.18247 0.750781 0
M  V30 2165 C 195.548 -1.63853 -0.272293 0
M  V30 2166 O 196.733 -1.90195 -0.151862 0
M  V30 2167 C 193.873 -3.44591 0.187379 0
M  V30 2168 C 192.986 -4.13046 1.2656 0
M  V30 2169 C 192.121 -5.27034 0.663978 0
M  V30 2170 C 191.16 -5.87353 1.72287 0
M  V30 2171 N 190.297 -6.92757 1.1416 0
M  V30 2172 H 195.137 -2.47732 1.65628 0
M  V30 2173 H 192.674 -1.21629 0.827337 0
M  V30 2174 H 194.632 -4.16904 -0.157148 0
M  V30 2175 H 193.262 -3.15527 -0.681355 0
M  V30 2176 H 192.314 -3.38924 1.72727 0
M  V30 2177 H 193.626 -4.53947 2.06721 0
M  V30 2178 H 192.78 -6.06104 0.268824 0
M  V30 2179 H 191.519 -4.87407 -0.169082 0
M  V30 2180 H 190.524 -5.06971 2.12746 0
M  V30 2181 H 191.749 -6.29051 2.55875 0
M  V30 2182 H 189.695 -6.5517 0.329984 0
M  V30 2183 H 189.612 -7.3225 1.88007 0
M  V30 2184 H 190.88 -7.75658 0.772956 0
M  V30 2185 N 195.109 -0.891671 -1.2995 0
M  V30 2186 C 196.349 -0.520296 -1.97667 0
M  V30 2187 C 196.713 0.914797 -1.68806 0
M  V30 2188 O 197.914 1.39263 -2.29911 0
M  V30 2189 C 196.185 -0.795222 -3.48441 0
M  V30 2190 S 197.744 -0.526953 -4.35624 0
M  V30 2191 H 194.562 -0.19333 -0.684211 0
M  V30 2192 H 197.164 -1.15238 -1.57926 0
M  V30 2193 H 195.868 -1.83805 -3.66938 0
M  V30 2194 H 195.399 -0.15095 -3.9311 0
M  V30 2195 H 197.414 0.631533 -4.92165 0
M  V30 2196 N 196.587 1.43421 -0.653314 0
M  V30 2197 C 197.833 2.02111 -0.166992 0
M  V30 2198 C 198.166 1.51423 1.21592 0
M  V30 2199 O 197.441 0.707389 1.8118 0
M  V30 2200 C 197.724 3.5966 -0.177948 0
M  V30 2201 C 197.577 4.20579 -1.59478 0
M  V30 2202 C 198.896 4.37413 0.4856 0
M  V30 2203 H 196.015 0.734374 -0.0621557 0
M  V30 2204 H 198.657 1.70717 -0.834016 0
M  V30 2205 H 196.807 3.86537 0.390032 0
M  V30 2206 H 198.479 4.04732 -2.21336 0
M  V30 2207 H 196.722 3.77226 -2.14204 0
M  V30 2208 H 197.393 5.29665 -1.5543 0
M  V30 2209 H 199.869 4.161 0.00234528 0
M  V30 2210 H 198.745 5.47075 0.447207 0
M  V30 2211 H 199.006 4.13672 1.55974 0
M  V30 2212 N 198.065 0.39524 1.52563 0
M  V30 2213 C 199.311 -0.185318 2.01952 0
M  V30 2214 C 199.644 -1.45964 1.28095 0
M  V30 2215 O 198.919 -1.90689 0.38315 0
M  V30 2216 C 199.202 -0.447193 3.57312 0
M  V30 2217 C 199.055 0.842828 4.41833 0
M  V30 2218 C 200.374 -1.23529 4.22408 0
M  V30 2219 H 197.493 -0.0658788 0.73405 0
M  V30 2220 H 200.135 0.525975 1.82575 0
M  V30 2221 H 198.285 -1.05312 3.73954 0
M  V30 2222 H 199.957 1.4795 4.36931 0
M  V30 2223 H 198.2 1.45686 4.08605 0
M  V30 2224 H 198.871 0.614165 5.48573 0
M  V30 2225 H 201.347 -0.722445 4.0978 0
M  V30 2226 H 200.223 -1.38727 5.3108 0
M  V30 2227 H 200.484 -2.25213 3.80436 0
M  V30 2228 N 199.544 -1.57102 0.125237 0
M  V30 2229 C 200.454 -2.19191 -0.8362 0
M  V30 2230 C 201.47 -1.16985 -1.28805 0
M  V30 2231 O 202.646 -1.49479 -1.34974 0
M  V30 2232 C 199.711 -2.78407 -2.06617 0
M  V30 2233 C 198.772 -3.9567 -1.66565 0
M  V30 2234 C 198.005 -4.52052 -2.83698 0
M  V30 2235 O 198.228 -4.07326 -3.99302 0
M  V30 2236 O 197.162 -5.42645 -2.60423 0
M  V30 2237 H 200.988 -3.01816 -0.337776 0
M  V30 2238 H 198.573 -1.4906 -0.100695 0
M  V30 2239 H 200.455 -3.16129 -2.7864 0
M  V30 2240 H 199.13 -1.9881 -2.55453 0
M  V30 2241 H 198.037 -3.62705 -0.916296 0
M  V30 2242 H 199.37 -4.76722 -1.22464 0
M  V30 2243 N 201.022 0.148545 -1.56898 0
M  V30 2244 C 201.985 1.16736 -1.97244 0
M  V30 2245 C 202.985 1.35947 -0.858777 0
M  V30 2246 O 204.175 1.32966 -1.12542 0
M  V30 2247 C 201.307 2.52798 -2.28705 0
M  V30 2248 H 202.5 0.821279 -2.88435 0
M  V30 2249 H 200.053 0.391831 -1.51309 0
M  V30 2250 H 200.788 2.92381 -1.403 0
M  V30 2251 H 200.573 2.40216 -3.09901 0
M  V30 2252 H 202.063 3.26179 -2.60762 0
M  V30 2253 N 202.5 1.5196 0.417844 0
M  V30 2254 C 203.749 1.6482 1.16264 0
M  V30 2255 C 204.062 0.379886 1.91876 0
M  V30 2256 O 205.268 0.388154 2.68711 0
M  V30 2257 C 203.724 2.91161 2.1155 0
M  V30 2258 C 203.332 4.25068 1.41495 0
M  V30 2259 C 205.076 3.13383 2.86341 0
M  V30 2260 C 202.983 5.42541 2.35379 0
M  V30 2261 H 201.913 0.613954 0.437694 0
M  V30 2262 H 204.564 1.78442 0.427871 0
M  V30 2263 H 202.946 2.71218 2.88543 0
M  V30 2264 H 204.12 4.55463 0.699263 0
M  V30 2265 H 202.435 4.0888 0.787792 0
M  V30 2266 H 205.032 3.98324 3.5671 0
M  V30 2267 H 205.375 2.27256 3.48798 0
M  V30 2268 H 205.908 3.33757 2.1645 0
M  V30 2269 H 202.647 6.30987 1.77582 0
M  V30 2270 H 202.167 5.16497 3.04945 0
M  V30 2271 H 203.846 5.75272 2.96093 0
M  V30 2272 N 203.978 -0.674533 1.42435 0
M  V30 2273 C 205.203 -1.46784 1.46524 0
M  V30 2274 C 205.628 -1.87938 0.078066 0
M  V30 2275 O 204.986 -1.56014 -0.92354 0
M  V30 2276 C 205.034 -2.69307 2.39805 0
M  V30 2277 O 204.138 -3.67587 1.86959 0
M  V30 2278 H 203.479 -0.440959 0.496439 0
M  V30 2279 H 206.009 -0.827326 1.87127 0
M  V30 2280 H 206.019 -3.17374 2.56393 0
M  V30 2281 H 204.694 -2.38692 3.40586 0
M  V30 2282 H 203.271 -3.2662 1.79927 0
M  V30 2283 N 205.456 -1.28612 -0.910864 0
M  V30 2284 C 206.704 -1.15705 -1.65701 0
M  V30 2285 C 207.025 0.29416 -1.92769 0
M  V30 2286 O 206.295 1.20331 -1.54588 0
M  V30 2287 H 204.875 -0.425216 -0.614167 0
M  V30 2288 H 207.537 -1.61381 -1.0928 0
M  V30 2289 H 206.633 -1.6988 -2.61815 0
M  V30 2290 N 206.934 1.1197 -1.10907 0
M  V30 2291 C 208.159 1.87942 -0.877064 0
M  V30 2292 C 208.584 1.79341 0.567314 0
M  V30 2293 O 207.942 1.15184 1.40009 0
M  V30 2294 C 207.99 3.34926 -1.33629 0
M  V30 2295 O 207.094 4.09303 -0.504447 0
M  V30 2296 H 206.435 0.583785 -0.316371 0
M  V30 2297 H 208.965 1.4157 -1.47712 0
M  V30 2298 H 208.975 3.8577 -1.32837 0
M  V30 2299 H 207.65 3.40504 -2.3881 0
M  V30 2300 H 206.227 3.68393 -0.577993 0
M  V30 2301 N 208.412 0.89855 1.29475 0
M  V30 2302 C 209.823 0.572537 1.77705 0
M  V30 2303 C 210.174 -0.911778 1.73727 0
M  V30 2304 O 209.299 -1.71288 1.32247 0
M  V30 2305 C 209.894 1.03252 3.22683 0
M  V30 2306 C 208.453 0.757687 3.68695 0
M  V30 2307 C 207.6 1.20787 2.49612 0
M  V30 2308 H 210.551 1.08139 1.16153 0
M  V30 2309 H 210.572 0.367307 3.78723 0
M  V30 2310 H 210.084 2.11285 3.25546 0
M  V30 2311 H 208.185 -0.310079 3.71308 0
M  V30 2312 H 208.298 1.35476 4.59547 0
M  V30 2313 H 206.662 0.626888 2.46865 0
M  V30 2314 H 207.445 2.29622 2.55203 0
M  V30 2315 N 209.89 -1.43072 0.660911 0
M  V30 2316 C 210.8 -2.34585 -0.0264163 0
M  V30 2317 C 211.816 -1.54316 -0.803898 0
M  V30 2318 O 212.992 -1.86939 -0.749391 0
M  V30 2319 C 210.057 -3.32689 -0.975639 0
M  V30 2320 C 209.118 -4.2886 -0.194236 0
M  V30 2321 C 208.351 -5.22278 -1.09825 0
M  V30 2322 O 208.574 -5.20299 -2.33763 0
M  V30 2323 O 207.508 -5.99228 -0.566513 0
M  V30 2324 H 211.334 -2.94869 0.727034 0
M  V30 2325 H 208.919 -1.43342 0.42111 0
M  V30 2326 H 210.801 -3.92995 -1.52094 0
M  V30 2327 H 209.476 -2.74898 -1.70918 0
M  V30 2328 H 208.383 -3.72011 0.394835 0
M  V30 2329 H 209.716 -4.89655 0.499899 0
M  V30 2330 N 211.368 -0.403325 -1.52352 0
M  V30 2331 C 212.278 0.432009 -2.30588 0
M  V30 2332 C 213.294 1.05884 -1.38075 0
M  V30 2333 O 214.47 1.06161 -1.71148 0
M  V30 2334 C 211.535 1.53669 -3.10784 0
M  V30 2335 C 210.596 0.933525 -4.19027 0
M  V30 2336 C 209.829 1.98557 -4.9539 0
M  V30 2337 O 210.052 3.20283 -4.71991 0
M  V30 2338 O 208.986 1.59504 -5.80381 0
M  V30 2339 H 212.812 -0.205739 -3.03002 0
M  V30 2340 H 210.397 -0.166675 -1.48467 0
M  V30 2341 H 212.279 2.17814 -3.60742 0
M  V30 2342 H 210.954 2.15915 -2.41169 0
M  V30 2343 H 209.861 0.254954 -3.7323 0
M  V30 2344 H 211.194 0.35508 -4.90918 0
M  V30 2345 N 212.846 1.57033 -0.133567 0
M  V30 2346 C 213.779 2.11824 0.848872 0
M  V30 2347 C 214.757 1.03833 1.2513 0
M  V30 2348 O 215.941 1.31579 1.34978 0
M  V30 2349 C 213.068 2.62692 2.138 0
M  V30 2350 C 212.114 3.82705 1.88253 0
M  V30 2351 S 212.947 5.2438 1.08563 0
M  V30 2352 C 214.103 5.78627 2.38624 0
M  V30 2353 H 214.336 2.94824 0.38289 0
M  V30 2354 H 211.869 1.5419 0.0804796 0
M  V30 2355 H 213.827 2.92652 2.87863 0
M  V30 2356 H 212.488 1.79847 2.57515 0
M  V30 2357 H 211.681 4.16496 2.83809 0
M  V30 2358 H 211.283 3.53437 1.22305 0
M  V30 2359 H 213.575 5.8924 3.34369 0
M  V30 2360 H 214.518 6.76443 2.09358 0
M  V30 2361 H 214.926 5.06783 2.48658 0
M  V30 2362 N 214.325 -0.140222 1.56975 0
M  V30 2363 C 215.255 -1.17456 2.01808 0
M  V30 2364 C 216.236 -1.44415 0.898794 0
M  V30 2365 O 217.421 -1.5522 1.16707 0
M  V30 2366 C 214.551 -2.50607 2.40444 0
M  V30 2367 C 213.505 -2.38155 3.55621 0
M  V30 2368 C 212.831 -3.76078 3.80091 0
M  V30 2369 C 214.131 -1.85991 4.88062 0
M  V30 2370 H 215.825 -0.801743 2.88466 0
M  V30 2371 H 213.371 -0.38422 1.38779 0
M  V30 2372 H 215.324 -3.23197 2.7041 0
M  V30 2373 H 214.048 -2.89737 1.50732 0
M  V30 2374 H 212.707 -1.68016 3.25832 0
M  V30 2375 H 212.355 -4.12656 2.87618 0
M  V30 2376 H 212.055 -3.68606 4.57606 0
M  V30 2377 H 213.579 -4.50206 4.12488 0
M  V30 2378 H 214.993 -2.4838 5.16701 0
M  V30 2379 H 213.39 -1.89393 5.6943 0
M  V30 2380 H 214.46 -0.816023 4.77984 0
M  V30 2381 N 215.803 -1.52179 -0.40978 0
M  V30 2382 C 217.05 -1.66206 -1.15679 0
M  V30 2383 C 217.378 -0.391674 -1.90516 0
M  V30 2384 O 216.633 0.62533 -1.8544 0
M  V30 2385 C 216.932 -2.83428 -2.17723 0
M  V30 2386 C 216.598 -4.21672 -1.59699 0
M  V30 2387 C 215.26 -4.59274 -1.43599 0
M  V30 2388 C 217.612 -5.07825 -1.17317 0
M  V30 2389 C 214.94 -5.80709 -0.836328 0
M  V30 2390 C 217.292 -6.29864 -0.587691 0
M  V30 2391 C 215.956 -6.66216 -0.413818 0
M  V30 2392 H 215.226 -0.608192 -0.423301 0
M  V30 2393 H 217.873 -1.86279 -0.444097 0
M  V30 2394 H 216.178 -2.57687 -2.95135 0
M  V30 2395 H 217.875 -2.91477 -2.75394 0
M  V30 2396 H 214.465 -3.9204 -1.73213 0
M  V30 2397 H 218.649 -4.79359 -1.28565 0
M  V30 2398 H 213.905 -6.07498 -0.689626 0
M  V30 2399 H 218.079 -6.95948 -0.250894 0
M  V30 2400 H 215.706 -7.60182 0.0529471 0
M  V30 2401 N 217.281 0.66697 -1.42791 0
M  V30 2402 C 218.521 1.43892 -1.4517 0
M  V30 2403 C 218.885 1.91877 -0.0687551 0
M  V30 2404 O 220.086 2.6878 0.0327455 0
M  V30 2405 C 218.357 2.59839 -2.45395 0
M  V30 2406 S 219.916 3.48572 -2.66539 0
M  V30 2407 H 216.734 0.491356 -0.513897 0
M  V30 2408 H 219.336 0.775656 -1.79454 0
M  V30 2409 H 218.04 2.22838 -3.44632 0
M  V30 2410 H 217.571 3.3103 -2.12562 0
M  V30 2411 H 219.586 4.56094 -1.95429 0
M  V30 2412 N 218.759 1.29093 0.90403 0
M  V30 2413 C 219.689 1.16401 2.02418 0
M  V30 2414 C 220.67 0.0593085 1.69997 0
M  V30 2415 O 221.855 0.238021 1.92736 0
M  V30 2416 C 218.985 0.835233 3.37107 0
M  V30 2417 C 217.939 1.89578 3.83724 0
M  V30 2418 C 217.265 1.42041 5.15489 0
M  V30 2419 C 218.565 3.30394 4.04521 0
M  V30 2420 H 220.259 2.10109 2.13295 0
M  V30 2421 H 217.805 1.01157 1.02486 0
M  V30 2422 H 219.758 0.733169 4.14973 0
M  V30 2423 H 218.482 -0.137543 3.2631 0
M  V30 2424 H 217.141 1.98715 3.08071 0
M  V30 2425 H 216.789 0.436426 5.01103 0
M  V30 2426 H 216.489 2.12964 5.4765 0
M  V30 2427 H 218.013 1.33176 5.959 0
M  V30 2428 H 219.427 3.24123 4.72882 0
M  V30 2429 H 217.824 3.99237 4.48029 0
M  V30 2430 H 218.894 3.73692 3.09002 0
M  V30 2431 N 220.237 -1.11381 1.11499 0
M  V30 2432 C 221.147 -2.21019 0.786628 0
M  V30 2433 C 222.163 -1.72597 -0.220507 0
M  V30 2434 O 223.339 -2.01321 -0.0565251 0
M  V30 2435 C 220.404 -3.459 0.235333 0
M  V30 2436 C 219.465 -4.09107 1.30115 0
M  V30 2437 C 218.698 -5.28027 0.776068 0
M  V30 2438 O 218.921 -5.6904 -0.393661 0
M  V30 2439 O 217.855 -5.81835 1.54114 0
M  V30 2440 H 221.681 -2.51521 1.70209 0
M  V30 2441 H 219.266 -1.19928 0.890928 0
M  V30 2442 H 221.148 -4.21346 -0.067715 0
M  V30 2443 H 219.823 -3.17049 -0.652828 0
M  V30 2444 H 218.73 -3.35391 1.65722 0
M  V30 2445 H 220.063 -4.42139 2.16273 0
M  V30 2446 N 221.715 -0.905404 -1.28997 0
M  V30 2447 C 222.962 -0.534248 -1.95325 0
M  V30 2448 C 223.29 0.920535 -1.71337 0
M  V30 2449 O 222.545 1.66861 -1.02254 0
M  V30 2450 C 222.844 -0.779906 -3.48787 0
M  V30 2451 C 222.51 -2.21293 -3.92861 0
M  V30 2452 C 221.172 -2.60475 -4.04606 0
M  V30 2453 C 223.524 -3.14587 -4.15553 0
M  V30 2454 C 220.852 -3.9212 -4.36416 0
M  V30 2455 C 223.204 -4.45787 -4.48839 0
M  V30 2456 C 221.868 -4.84834 -4.58794 0
M  V30 2457 H 221.138 -0.195495 -0.714747 0
M  V30 2458 H 223.785 -1.14514 -1.53488 0
M  V30 2459 H 222.09 -0.0861365 -3.91705 0
M  V30 2460 H 223.787 -0.472029 -3.98212 0
M  V30 2461 H 220.377 -1.89887 -3.84241 0
M  V30 2462 H 224.561 -2.85528 -4.0594 0
M  V30 2463 H 219.817 -4.22086 -4.42327 0
M  V30 2464 H 223.991 -5.18098 -4.65346 0
M  V30 2465 H 221.618 -5.86877 -4.83197 0
M  V30 2466 N 223.193 1.4272 -0.668489 0
M  V30 2467 C 224.439 2.01923 -0.188419 0
M  V30 2468 C 224.772 1.52704 1.19979 0
M  V30 2469 O 224.047 0.726566 1.8042 0
M  V30 2470 C 224.33 3.59451 -0.216085 0
M  V30 2471 C 224.183 4.18864 -1.6393 0
M  V30 2472 C 225.502 4.37903 0.439179 0
M  V30 2473 H 222.621 0.733674 -0.0699412 0
M  V30 2474 H 225.263 1.69822 -0.852076 0
M  V30 2475 H 223.413 3.86929 0.349012 0
M  V30 2476 H 225.085 4.02362 -2.25616 0
M  V30 2477 H 223.328 3.74933 -2.18193 0
M  V30 2478 H 223.999 5.27987 -1.61039 0
M  V30 2479 H 226.475 4.16079 -0.0417878 0
M  V30 2480 H 225.351 5.47519 0.389157 0
M  V30 2481 H 225.612 4.15303 1.51577 0
M  V30 2482 N 224.671 0.411399 1.52136 0
M  V30 2483 C 225.92 -0.165009 2.01024 0
M  V30 2484 C 226.233 -1.4603 1.30133 0
M  V30 2485 O 227.439 -2.1181 1.69849 0
M  V30 2486 C 225.895 -0.344618 3.58246 0
M  V30 2487 C 225.503 0.938716 4.38055 0
M  V30 2488 C 227.247 -0.876195 4.15359 0
M  V30 2489 C 225.154 0.726172 5.86925 0
M  V30 2490 H 224.084 -0.0654407 0.751155 0
M  V30 2491 H 226.735 0.537192 1.75461 0
M  V30 2492 H 225.117 -1.10921 3.80148 0
M  V30 2493 H 226.291 1.70963 4.27912 0
M  V30 2494 H 224.606 1.39688 3.92271 0
M  V30 2495 H 227.203 -1.05128 5.24263 0
M  V30 2496 H 227.546 -1.85152 3.7286 0
M  V30 2497 H 228.079 -0.170607 3.97434 0
M  V30 2498 H 224.818 1.67312 6.33788 0
M  V30 2499 H 224.338 -0.00540283 5.998 0
M  V30 2500 H 226.017 0.369231 6.45946 0
M  V30 2501 N 226.149 -1.5696 0.141893 0
M  V30 2502 C 227.079 -2.19516 -0.795936 0
M  V30 2503 C 228.06 -1.14187 -1.26077 0
M  V30 2504 O 229.245 -1.42511 -1.31925 0
M  V30 2505 C 226.375 -2.81272 -2.03723 0
M  V30 2506 C 225.329 -3.92384 -1.70936 0
M  V30 2507 C 224.655 -4.41052 -3.02287 0
M  V30 2508 C 225.955 -5.13403 -0.959954 0
M  V30 2509 H 227.649 -2.98138 -0.274596 0
M  V30 2510 H 225.195 -1.43406 -0.130636 0
M  V30 2511 H 227.148 -3.237 -2.69808 0
M  V30 2512 H 225.872 -1.99973 -2.58221 0
M  V30 2513 H 224.531 -3.50566 -1.07232 0
M  V30 2514 H 224.179 -3.56582 -3.54765 0
M  V30 2515 H 223.879 -5.15993 -2.81114 0
M  V30 2516 H 225.403 -4.86146 -3.69451 0
M  V30 2517 H 226.817 -5.52706 -1.52279 0
M  V30 2518 H 225.214 -5.94073 -0.848357 0
M  V30 2519 H 226.284 -4.84875 0.0492434 0
M  V30 2520 N 227.627 0.131896 -1.57047 0
M  V30 2521 C 228.577 1.1679 -1.95816 0
M  V30 2522 C 229.561 1.37756 -0.831393 0
M  V30 2523 O 230.753 1.39065 -1.09499 0
M  V30 2524 C 227.882 2.49778 -2.35512 0
M  V30 2525 C 226.968 2.32342 -3.54793 0
M  V30 2526 N 227.359 1.8469 -4.70875 0
M  V30 2527 C 225.657 2.63043 -3.60173 0
M  V30 2528 C 226.358 1.80656 -5.52936 0
M  V30 2529 N 225.334 2.24528 -4.95064 0
M  V30 2530 H 229.136 0.791818 -2.83033 0
M  V30 2531 H 226.65 0.339791 -1.58805 0
M  V30 2532 H 228.647 3.24692 -2.61498 0
M  V30 2533 H 227.307 2.88156 -1.49654 0
M  V30 2534 H 228.318 1.54429 -4.9434 0
M  V30 2535 H 224.995 3.05193 -2.84892 0
M  V30 2536 H 226.385 1.45178 -6.56028 0
M  V30 2537 N 229.106 1.52395 0.401703 0
M  V30 2538 C 230.038 1.72505 1.50912 0
M  V30 2539 C 231.051 0.605468 1.51122 0
M  V30 2540 O 232.24 0.880828 1.55254 0
M  V30 2541 C 229.34 1.75711 2.89791 0
M  V30 2542 C 228.513 3.04824 3.1369 0
M  V30 2543 C 227.572 2.99743 4.32482 0
M  V30 2544 O 226.598 3.73635 4.29402 0
M  V30 2545 N 227.8 2.18047 5.37992 0
M  V30 2546 H 230.565 2.68049 1.34052 0
M  V30 2547 H 228.126 1.50724 0.591084 0
M  V30 2548 H 230.118 1.69834 3.6734 0
M  V30 2549 H 228.688 0.876092 3.00072 0
M  V30 2550 H 227.908 3.2429 2.24119 0
M  V30 2551 H 229.196 3.90221 3.26504 0
M  V30 2552 H 228.594 1.57456 5.43345 0
M  V30 2553 H 227.151 2.18021 6.14256 0
M  V30 2554 N 230.584 -0.659388 1.43143 0
M  V30 2555 C 231.995 -1.24041 1.39537 0
M  V30 2556 C 232.346 -1.95963 0.0963364 0
M  V30 2557 O 231.471 -2.00892 -0.804438 0
M  V30 2558 C 232.066 -2.25601 2.52764 0
M  V30 2559 C 230.625 -2.79195 2.52443 0
M  V30 2560 C 229.772 -1.53743 2.30778 0
M  V30 2561 H 232.723 -0.451792 1.52133 0
M  V30 2562 H 232.744 -3.07651 2.23899 0
M  V30 2563 H 232.256 -1.73226 3.47296 0
M  V30 2564 H 230.357 -3.35649 1.61773 0
M  V30 2565 H 230.47 -3.2716 3.50004 0
M  V30 2566 H 228.834 -1.80869 1.79328 0
M  V30 2567 H 229.617 -1.03312 3.27386 0
M  V30 2568 N 232.062 -1.29571 -0.897171 0
M  V30 2569 C 233.01 -1.14802 -2.02295 0
M  V30 2570 C 234.004 -0.0629637 -1.69283 0
M  V30 2571 O 235.21 -0.222945 -1.78614 0
M  V30 2572 H 231.585 -0.354692 -0.663097 0
M  V30 2573 H 233.556 -2.10108 -2.11889 0
M  V30 2574 C 232.305 -0.843966 -3.37302 0
M  V30 2575 H 231.628 -1.67093 -3.63208 0
M  V30 2576 H 233.068 -0.780672 -4.16751 0
M  V30 2577 C 231.527 0.452843 -3.33843 0
M  V30 2578 O 232.057 1.47813 -3.73516 0
M  V30 2579 N 230.263 0.459601 -2.86943 0
M  V30 2580 H 229.81 -0.375213 -2.54853 0
M  V30 2581 H 229.768 1.32726 -2.85011 0
M  V30 2582 N 233.54 1.10788 -1.12088 0
M  V30 2583 C 234.765 1.87002 -0.896949 0
M  V30 2584 C 235.19 1.79933 0.548261 0
M  V30 2585 O 234.548 1.16662 1.38779 0
M  V30 2586 C 234.596 3.3349 -1.37174 0
M  V30 2587 O 233.7 4.08745 -0.547831 0
M  V30 2588 H 233.041 0.580397 -0.322545 0
M  V30 2589 H 235.571 1.39996 -1.49206 0
M  V30 2590 H 235.581 3.84339 -1.36922 0
M  V30 2591 H 234.256 3.37951 -2.42408 0
M  V30 2592 H 232.833 3.6776 -0.617034 0
M  V30 2593 N 235.018 0.912232 1.28515 0
M  V30 2594 C 235.966 0.389597 2.29314 0
M  V30 2595 C 236.96 -0.517915 1.61289 0
M  V30 2596 O 238.166 -0.399328 1.75515 0
M  V30 2597 H 234.541 0.107386 0.744293 0
M  V30 2598 H 236.512 1.25286 2.70825 0
M  V30 2599 C 235.261 -0.356496 3.45868 0
M  V30 2600 H 234.584 0.332608 3.98414 0
M  V30 2601 H 236.024 -0.686851 4.184 0
M  V30 2602 C 234.483 -1.56383 2.98406 0
M  V30 2603 O 235.013 -2.66294 3.00749 0
M  V30 2604 N 233.219 -1.41029 2.54085 0
M  V30 2605 H 232.766 -0.516089 2.52377 0
M  V30 2606 H 232.724 -2.21939 2.22689 0
M  V30 2607 O 236.535 -1.39418 0.815163 0
M  V30 2608 H 237.226 -1.89641 0.394473 0
M  V30 END ATOM
M  V30 BEGIN BOND
M  V30 END BOND
M  V30 END CTAB
M  END
$$$$
