drugbank_target|Q9Y6T7 Diacylglycerol kinase beta (DB14001)
 OpenBabel12092121233D

  0  0  0     0  0            999 V3000
M  V30 BEGIN CTAB
M  V30 COUNTS 12681 12829 0 0 0
M  V30 BEGIN ATOM
M  V30 1 H -0.908 1.98254 -0.117106 0
M  V30 2 N 0 1.576 0 0
M  V30 3 C 0.933 2.03868 1.02534 0
M  V30 4 C 1.911 0.928543 1.3348 0
M  V30 5 O 3.095 1.19667 1.45644 0
M  V30 6 C 0.222 2.43627 2.35294 0
M  V30 7 C -0.732 3.65373 2.2001 0
M  V30 8 S 0.101 5.13292 1.52614 0
M  V30 9 C 1.257 5.56322 2.86805 0
M  V30 10 H 1.49 2.90518 0.631377 0
M  V30 11 H -0.977 1.52953 0.210867 0
M  V30 12 H 0.981 2.67203 3.11629 0
M  V30 13 H -0.358 1.57376 2.7183 0
M  V30 14 H -1.165 3.90944 3.18086 0
M  V30 15 H -1.563 3.418 1.51819 0
M  V30 16 H 0.729 5.58782 3.83104 0
M  V30 17 H 1.672 6.56266 2.65933 0
M  V30 18 H 2.08 4.83886 2.90714 0
M  V30 19 N 1.4781 -0.272755 1.55222 0
M  V30 20 C 2.7061 -1.02255 1.79865 0
M  V30 21 C 3.1211 -1.79924 0.572088 0
M  V30 22 O 2.4781 -1.76638 -0.458842 0
M  V30 23 C 2.5291 -1.98094 3.02392 0
M  V30 24 O 2.2501 -1.23572 4.20311 0
M  V30 25 C 3.7511 -2.84884 3.39641 0
M  V30 26 H 0.9711 -0.302057 0.599168 0
M  V30 27 H 3.5151 -0.303465 2.02236 0
M  V30 28 H 1.6701 -2.65465 2.82147 0
M  V30 29 H 2.0841 -1.88172 4.89583 0
M  V30 30 H 3.5581 -3.47927 4.28545 0
M  V30 31 H 4.0351 -3.54665 2.59055 0
M  V30 32 H 4.6411 -2.23003 3.62146 0
M  V30 33 N 2.9562 -1.48159 -0.537278 0
M  V30 34 C 3.9042 -1.62573 -1.66352 0
M  V30 35 C 4.8982 -0.492366 -1.62087 0
M  V30 36 O 6.1042 -0.670847 -1.67032 0
M  V30 37 H 2.4792 -0.511992 -0.550789 0
M  V30 38 H 4.4502 -2.57176 -1.51337 0
M  V30 39 C 3.1992 -1.67583 -3.04649 0
M  V30 40 H 2.5222 -2.54151 -3.08622 0
M  V30 41 H 3.9622 -1.81713 -3.83088 0
M  V30 42 C 2.4212 -0.413039 -3.34358 0
M  V30 43 O 2.9512 0.477259 -3.98855 0
M  V30 44 N 1.1572 -0.286961 -2.8918 0
M  V30 45 H 0.7042 -1.01241 -2.36871 0
M  V30 46 H 0.6622 0.556963 -3.09427 0
M  V30 47 N 4.4343 0.785586 -1.36625 0
M  V30 48 C 5.3663 1.90711 -1.2713 0
M  V30 49 C 6.3793 1.61688 -0.189986 0
M  V30 50 O 7.5683 1.72864 -0.445014 0
M  V30 51 C 4.6683 3.25611 -0.939713 0
M  V30 52 C 3.8413 3.82385 -2.12369 0
M  V30 53 C 2.9003 4.95732 -1.76456 0
M  V30 54 O 1.9263 5.12047 -2.48589 0
M  V30 55 N 3.1283 5.76258 -0.700492 0
M  V30 56 H 5.8933 1.99376 -2.23762 0
M  V30 57 H 3.4543 0.964041 -1.30069 0
M  V30 58 H 5.4463 3.98937 -0.680554 0
M  V30 59 H 4.0163 3.12538 -0.0624074 0
M  V30 60 H 3.2363 3.01001 -2.54543 0
M  V30 61 H 4.5243 4.17047 -2.9146 0
M  V30 62 H 3.9223 5.65609 -0.101624 0
M  V30 63 H 2.4793 6.4987 -0.501165 0
M  V30 64 N 5.9124 1.20967 1.01018 0
M  V30 65 C 6.8224 0.980157 2.13143 0
M  V30 66 C 7.8384 -0.0660665 1.73875 0
M  V30 67 O 9.0144 0.122821 2.01025 0
M  V30 68 C 6.0794 0.54216 3.42435 0
M  V30 69 C 5.1404 1.65999 3.95908 0
M  V30 70 C 4.3734 1.2428 5.19028 0
M  V30 71 O 4.5964 0.114196 5.70286 0
M  V30 72 O 3.5304 2.05271 5.65816 0
M  V30 73 H 7.3564 1.91913 2.35379 0
M  V30 74 H 4.9414 0.994099 1.11526 0
M  V30 75 H 6.8234 0.30744 4.20277 0
M  V30 76 H 5.4984 -0.36815 3.216 0
M  V30 77 H 4.4054 1.94906 3.19316 0
M  V30 78 H 5.7384 2.54753 4.21143 0
M  V30 79 N 7.3905 -1.2043 1.01659 0
M  V30 80 C 8.3375 -2.23215 0.586822 0
M  V30 81 C 9.3075 -1.61382 -0.393085 0
M  V30 82 O 10.4925 -1.88544 -0.292525 0
M  V30 83 C 7.6325 -3.45032 -0.0687464 0
M  V30 84 C 6.7455 -4.21296 0.955724 0
M  V30 85 C 5.8805 -5.30507 0.271208 0
M  V30 86 C 4.9195 -5.98515 1.28244 0
M  V30 87 N 4.0565 -6.99316 0.62459 0
M  V30 88 H 8.8965 -2.59336 1.46796 0
M  V30 89 H 6.4335 -1.27431 0.734836 0
M  V30 90 H 8.3915 -4.1459 -0.465965 0
M  V30 91 H 7.0215 -3.09604 -0.913529 0
M  V30 92 H 6.0735 -3.50803 1.4711 0
M  V30 93 H 7.3855 -4.6803 1.72479 0
M  V30 94 H 6.5395 -6.06428 -0.18151 0
M  V30 95 H 5.2785 -4.8481 -0.530163 0
M  V30 96 H 4.2835 -5.21355 1.74554 0
M  V30 97 H 5.5085 -6.46298 2.08509 0
M  V30 98 H 3.4545 -6.55812 -0.156914 0
M  V30 99 H 3.3715 -7.44178 1.33172 0
M  V30 100 H 4.6395 -7.79255 0.195462 0
M  V30 101 N 8.8686 -0.792821 -1.36206 0
M  V30 102 C 10.1146 -0.376415 -1.99887 0
M  V30 103 C 10.4696 1.04127 -1.61788 0
M  V30 104 O 9.7626 1.71004 -0.864193 0
M  V30 105 C 9.9566 -0.481501 -3.54142 0
M  V30 106 C 9.7856 -1.90786 -4.07223 0
M  V30 107 C 8.5556 -2.53322 -4.37214 0
M  V30 108 C 10.7536 -2.87048 -4.26741 0
M  V30 109 N 8.7356 -3.8751 -4.7614 0
M  V30 110 C 10.1066 -4.06077 -4.6851 0
M  V30 111 C 12.1616 -2.8406 -4.08918 0
M  V30 112 C 10.8646 -5.22532 -4.94321 0
M  V30 113 C 12.8906 -3.99705 -4.35878 0
M  V30 114 C 12.2526 -5.1748 -4.77906 0
M  V30 115 H 8.3516 -0.185226 -0.759747 0
M  V30 116 H 10.9356 -1.03114 -1.65153 0
M  V30 117 H 9.1066 0.143154 -3.88136 0
M  V30 118 H 10.8386 -0.0410128 -4.04679 0
M  V30 119 H 7.5936 -2.04777 -4.2704 0
M  V30 120 H 8.0176 -4.5656 -4.99882 0
M  V30 121 H 12.6596 -1.94165 -3.75579 0
M  V30 122 H 10.3776 -6.1301 -5.2654 0
M  V30 123 H 13.9636 -3.98758 -4.23655 0
M  V30 124 H 12.8436 -6.05478 -4.98363 0
M  V30 125 N 10.3467 1.47872 -0.545128 0
M  V30 126 C 11.3097 2.28337 0.198717 0
M  V30 127 C 12.3097 1.36255 0.853888 0
M  V30 128 O 13.4997 1.59003 0.711606 0
M  V30 129 C 10.6317 3.15585 1.28915 0
M  V30 130 H 11.8247 2.95567 -0.507941 0
M  V30 131 H 9.3777 1.53362 -0.301616 0
M  V30 132 H 10.1127 2.53019 2.02859 0
M  V30 133 H 9.8977 3.83337 0.824309 0
M  V30 134 H 11.3877 3.76243 1.81194 0
M  V30 135 N 11.8248 0.280983 1.55075 0
M  V30 136 C 12.7748 -0.618585 2.19448 0
M  V30 137 C 13.7588 -1.11401 1.16098 0
M  V30 138 O 14.9508 -1.0581 1.41891 0
M  V30 139 C 12.0798 -1.79951 2.92357 0
M  V30 140 C 11.1658 -1.321 4.03002 0
M  V30 141 N 11.5568 -0.559044 5.02701 0
M  V30 142 C 9.8548 -1.60346 4.16179 0
M  V30 143 C 10.5558 -0.306722 5.80891 0
M  V30 144 N 9.5318 -0.880825 5.36416 0
M  V30 145 H 13.3338 -0.0286638 2.93886 0
M  V30 146 H 10.8478 0.0848104 1.62178 0
M  V30 147 H 12.8448 -2.45531 3.36927 0
M  V30 148 H 11.5048 -2.39333 2.19431 0
M  V30 149 H 12.5158 -0.205827 5.17491 0
M  V30 150 H 9.1928 -2.20621 3.54447 0
M  V30 151 H 10.5828 0.30391 6.71212 0
M  V30 152 N 13.3029 -1.57598 0.00835791 0
M  V30 153 C 14.2329 -2.1198 -0.979113 0
M  V30 154 C 15.2139 -1.03091 -1.35301 0
M  V30 155 O 16.3989 -1.30818 -1.43528 0
M  V30 156 C 13.5289 -2.62995 -2.26828 0
M  V30 157 C 12.4829 -3.76485 -2.03576 0
M  V30 158 C 11.8089 -4.13846 -3.38579 0
M  V30 159 C 13.1089 -5.0342 -1.39161 0
M  V30 160 H 14.8029 -2.94738 -0.526281 0
M  V30 161 H 12.3489 -1.41783 -0.251704 0
M  V30 162 H 14.3019 -2.99669 -2.96271 0
M  V30 163 H 13.0259 -1.7737 -2.7424 0
M  V30 164 H 11.6849 -3.40217 -1.36557 0
M  V30 165 H 11.3329 -3.25232 -3.83709 0
M  V30 166 H 11.0329 -4.90312 -3.23834 0
M  V30 167 H 12.5569 -4.53086 -4.09323 0
M  V30 168 H 13.9709 -5.37812 -1.98573 0
M  V30 169 H 12.3679 -5.84746 -1.34878 0
M  V30 170 H 13.4379 -4.83548 -0.361868 0
M  V30 171 N 14.781 0.264519 -1.55364 0
M  V30 172 C 16.006 1.01726 -1.80739 0
M  V30 173 C 16.431 1.78836 -0.583044 0
M  V30 174 O 15.789 1.75167 0.467566 0
M  V30 175 C 15.837 1.94482 -3.03659 0
M  V30 176 O 14.941 3.03386 -2.7934 0
M  V30 177 H 14.282 0.290395 -0.597132 0
M  V30 178 H 16.812 0.290854 -2.02522 0
M  V30 179 H 16.822 2.36278 -3.32621 0
M  V30 180 H 15.497 1.37772 -3.92418 0
M  V30 181 H 14.074 2.65844 -2.61498 0
M  V30 182 N 16.2591 1.48442 0.529413 0
M  V30 183 C 17.6701 1.5002 1.11134 0
M  V30 184 C 18.0211 0.27031 1.94329 0
M  V30 185 O 17.1461 -0.622507 2.07253 0
M  V30 186 C 17.7411 2.71834 2.02217 0
M  V30 187 C 16.3001 2.76283 2.55627 0
M  V30 188 C 15.4471 2.43542 1.326 0
M  V30 189 H 18.3981 1.5555 0.314641 0
M  V30 190 H 18.4191 2.50384 2.8651 0
M  V30 191 H 17.9311 3.61331 1.41639 0
M  V30 192 H 16.0321 1.90995 3.19924 0
M  V30 193 H 16.1451 3.77725 2.94721 0
M  V30 194 H 14.5091 1.94709 1.64196 0
M  V30 195 H 15.2921 3.3528 0.737734 0
M  V30 196 N 17.7372 -0.778329 1.37039 0
M  V30 197 C 18.9622 -1.57248 1.35233 0
M  V30 198 C 19.3872 -1.87999 -0.0615568 0
M  V30 199 O 18.7452 -1.48734 -1.03672 0
M  V30 200 C 18.7932 -2.86353 2.19167 0
M  V30 201 O 17.8972 -3.80442 1.59178 0
M  V30 202 H 17.2382 -0.476569 0.462362 0
M  V30 203 H 19.7682 -0.963853 1.80474 0
M  V30 204 H 19.7782 -3.35519 2.32145 0
M  V30 205 H 18.4532 -2.63299 3.21942 0
M  V30 206 H 17.0302 -3.39067 1.55203 0
M  V30 207 N 19.2153 -1.21501 -1.00376 0
M  V30 208 C 20.1253 -0.991447 -2.12621 0
M  V30 209 C 21.1413 0.0568446 -1.73907 0
M  V30 210 O 22.3173 -0.13348 -2.00957 0
M  V30 211 C 19.3823 -0.560312 -3.42142 0
M  V30 212 C 18.4433 -1.68096 -3.95022 0
M  V30 213 C 17.6763 -1.2703 -5.18362 0
M  V30 214 O 17.8993 -0.144438 -5.70217 0
M  V30 215 O 16.8333 -2.08269 -5.64719 0
M  V30 216 H 20.6593 -1.93158 -2.34358 0
M  V30 217 H 18.2443 -0.999999 -1.10997 0
M  V30 218 H 20.1263 -0.329724 -4.20108 0
M  V30 219 H 18.8013 0.351089 -3.2179 0
M  V30 220 H 17.7083 -1.96597 -3.18278 0
M  V30 221 H 19.0413 -2.56983 -4.19786 0
M  V30 222 N 20.6934 1.19889 -1.02296 0
M  V30 223 C 21.9404 1.8942 -0.715972 0
M  V30 224 C 22.2684 1.79251 0.754944 0
M  V30 225 O 21.5234 1.17526 1.56481 0
M  V30 226 C 21.8224 3.39883 -1.10518 0
M  V30 227 C 21.4884 3.70254 -2.57337 0
M  V30 228 C 20.1504 3.78254 -2.97452 0
M  V30 229 C 22.5024 3.84052 -3.52354 0
M  V30 230 C 19.8304 3.97514 -4.31509 0
M  V30 231 C 22.1824 4.04824 -4.86108 0
M  V30 232 C 20.8464 4.11054 -5.25919 0
M  V30 233 H 20.1164 0.693138 -0.261993 0
M  V30 234 H 22.7634 1.42012 -1.28472 0
M  V30 235 H 21.0684 3.8915 -0.454953 0
M  V30 236 H 22.7654 3.9199 -0.845261 0
M  V30 237 H 19.3554 3.64632 -2.25258 0
M  V30 238 H 23.5394 3.77221 -3.22518 0
M  V30 239 H 18.7954 4.00574 -4.61898 0
M  V30 240 H 22.9694 4.14442 -5.59653 0
M  V30 241 H 20.5964 4.2573 -6.29808 0
M  V30 242 N 22.1715 0.800033 1.35784 0
M  V30 243 C 23.3965 0.388511 2.03729 0
M  V30 244 C 23.8215 -0.990481 1.5991 0
M  V30 245 O 23.1795 -1.64013 0.772612 0
M  V30 246 C 23.2275 0.4726 3.5749 0
M  V30 247 O 22.3315 -0.51646 4.09153 0
M  V30 248 H 21.6725 0.163271 0.643614 0
M  V30 249 H 24.2025 1.0841 1.73518 0
M  V30 250 H 24.2125 0.34003 4.06581 0
M  V30 251 H 22.8875 1.47848 3.88734 0
M  V30 252 H 21.4645 -0.344673 3.71304 0
M  V30 253 N 23.6496 -1.47581 0.552962 0
M  V30 254 C 24.5816 -2.27997 -0.234533 0
M  V30 255 C 25.5946 -1.36753 -0.883321 0
M  V30 256 O 26.7836 -1.61612 -0.757889 0
M  V30 257 C 23.8836 -3.10879 -1.34935 0
M  V30 258 C 23.0566 -4.30056 -0.798158 0
M  V30 259 C 22.1156 -4.94567 -1.79694 0
M  V30 260 O 21.1416 -5.53087 -1.34474 0
M  V30 261 N 22.3436 -4.88878 -3.13015 0
M  V30 262 H 25.1086 -2.96222 0.455255 0
M  V30 263 H 22.6696 -1.57163 0.388761 0
M  V30 264 H 24.6616 -3.50903 -2.01616 0
M  V30 265 H 23.2316 -2.44924 -1.94244 0
M  V30 266 H 22.4516 -3.94174 0.0453079 0
M  V30 267 H 23.7396 -5.07152 -0.409173 0
M  V30 268 H 23.1376 -4.42526 -3.52402 0
M  V30 269 H 21.6946 -5.32934 -3.75266 0
M  V30 270 N 25.1277 -0.289203 -1.54924 0
M  V30 271 C 26.0577 0.58549 -2.2604 0
M  V30 272 C 27.0387 1.14753 -1.25562 0
M  V30 273 O 28.2237 1.17906 -1.54311 0
M  V30 274 C 25.3537 1.76305 -2.99222 0
M  V30 275 C 24.3077 1.33191 -4.06748 0
M  V30 276 C 23.6337 2.5937 -4.6758 0
M  V30 277 C 24.9337 0.471775 -5.20165 0
M  V30 278 H 26.6277 -0.00763532 -2.99399 0
M  V30 279 H 24.1737 -0.00511229 -1.43999 0
M  V30 280 H 26.1267 2.38097 -3.47689 0
M  V30 281 H 24.8507 2.38223 -2.23422 0
M  V30 282 H 23.5097 0.737121 -3.59113 0
M  V30 283 H 23.1577 3.19576 -3.88433 0
M  V30 284 H 22.8577 2.31228 -5.40192 0
M  V30 285 H 24.3817 3.21985 -5.18804 0
M  V30 286 H 25.7957 0.995056 -5.64599 0
M  V30 287 H 24.1927 0.284639 -5.99425 0
M  V30 288 H 25.2627 -0.506041 -4.82252 0
M  V30 289 N 26.6058 1.57591 -0.0167156 0
M  V30 290 C 27.5378 2.06343 0.997753 0
M  V30 291 C 28.5508 0.984469 1.29661 0
M  V30 292 O 29.7398 1.26093 1.26344 0
M  V30 293 C 26.8398 2.46255 2.32834 0
M  V30 294 C 26.0128 3.77083 2.21646 0
M  V30 295 C 25.0718 4.0368 3.37534 0
M  V30 296 O 24.0978 4.7411 3.14973 0
M  V30 297 N 25.2998 3.52881 4.60929 0
M  V30 298 H 28.0648 2.93997 0.581875 0
M  V30 299 H 25.6258 1.61002 0.170316 0
M  V30 300 H 27.6178 2.61149 3.09166 0
M  V30 301 H 26.1878 1.64032 2.66106 0
M  V30 302 H 25.4078 3.72106 1.30119 0
M  V30 303 H 26.6958 4.62822 2.11361 0
M  V30 304 H 26.0938 2.95878 4.82154 0
M  V30 305 H 24.6508 3.73076 5.34469 0
M  V30 306 N 28.0839 -0.256276 1.55502 0
M  V30 307 C 29.0309 -1.31714 1.89526 0
M  V30 308 C 30.0009 -1.4828 0.748479 0
M  V30 309 O 31.1859 -1.62416 1.00128 0
M  V30 310 C 28.3259 -2.66933 2.18725 0
M  V30 311 C 27.4389 -2.58452 3.4616 0
M  V30 312 C 26.5739 -3.85961 3.64976 0
M  V30 313 C 25.6129 -3.72059 4.86044 0
M  V30 314 N 24.7499 -4.9144 5.01429 0
M  V30 315 H 29.5899 -1.01998 2.80001 0
M  V30 316 H 27.1269 -0.492413 1.38613 0
M  V30 317 H 29.0849 -3.4563 2.33657 0
M  V30 318 H 27.7149 -2.94816 1.31466 0
M  V30 319 H 26.7669 -1.71374 3.3961 0
M  V30 320 H 28.0789 -2.44085 4.34999 0
M  V30 321 H 27.2329 -4.73101 3.79816 0
M  V30 322 H 25.9719 -4.03215 2.74353 0
M  V30 323 H 24.9769 -2.83302 4.7119 0
M  V30 324 H 26.2019 -3.56309 5.78118 0
M  V30 325 H 24.1479 -5.09072 4.13741 0
M  V30 326 H 24.0649 -4.79668 5.84341 0
M  V30 327 H 25.3329 -5.80104 5.20672 0
M  V30 328 N 29.562 -1.4872 -0.521534 0
M  V30 329 C 30.792 -1.6061 -1.29954 0
M  V30 330 C 31.2 -0.268728 -1.87282 0
M  V30 331 O 30.543 0.753221 -1.67548 0
M  V30 332 C 30.605 -2.60013 -2.48261 0
M  V30 333 C 30.269 -4.04874 -2.11957 0
M  V30 334 C 31.266 -4.92304 -1.67132 0
M  V30 335 C 28.951 -4.5047 -2.22221 0
M  V30 336 C 30.945 -6.2336 -1.33047 0
M  V30 337 C 28.632 -5.81544 -1.87748 0
M  V30 338 C 29.63 -6.67812 -1.43234 0
M  V30 339 O 29.318 -7.96446 -1.09217 0
M  V30 340 H 29.05 -0.544116 -0.401141 0
M  V30 341 H 31.604 -1.95339 -0.634958 0
M  V30 342 H 29.834 -2.20422 -3.17728 0
M  V30 343 H 31.523 -2.61648 -3.10315 0
M  V30 344 H 32.289 -4.58312 -1.58665 0
M  V30 345 H 28.168 -3.83504 -2.55823 0
M  V30 346 H 31.712 -6.90649 -0.982299 0
M  V30 347 H 27.609 -6.15069 -1.95858 0
M  V30 348 H 28.377 -8.09275 -1.22542 0
M  V30 349 N 31.0401 0.771051 -1.3745 0
M  V30 350 C 32.0031 1.86598 -1.33093 0
M  V30 351 C 33.0031 1.59076 -0.234845 0
M  V30 352 O 34.1931 1.67145 -0.490732 0
M  V30 353 C 31.3251 3.23747 -1.06773 0
M  V30 354 H 32.5181 1.91873 -2.30488 0
M  V30 355 H 30.0711 0.970876 -1.2249 0
M  V30 356 H 30.8061 3.24148 -0.099129 0
M  V30 357 H 30.5911 3.45115 -1.86112 0
M  V30 358 H 32.0811 4.03824 -1.06377 0
M  V30 359 N 32.5182 1.22032 0.997298 0
M  V30 360 C 33.4282 1.00271 2.12092 0
M  V30 361 C 34.4442 -0.047621 1.73935 0
M  V30 362 O 35.6202 0.144136 2.00884 0
M  V30 363 C 32.6852 0.578449 3.4184 0
M  V30 364 C 31.7462 1.70189 3.94125 0
M  V30 365 C 30.9792 1.29778 5.17681 0
M  V30 366 O 31.2022 0.174676 5.70132 0
M  V30 367 O 30.1362 2.11261 5.63607 0
M  V30 368 H 33.9622 1.94398 2.3333 0
M  V30 369 H 31.5472 1.00587 1.10465 0
M  V30 370 H 33.4292 0.351998 4.19927 0
M  V30 371 H 32.1042 -0.334019 3.21972 0
M  V30 372 H 31.0112 1.98282 3.1723 0
M  V30 373 H 32.3442 2.59206 4.18417 0
M  V30 374 N 33.9963 -1.19345 1.0293 0
M  V30 375 C 35.2263 -1.92717 0.744563 0
M  V30 376 C 35.6343 -1.75751 -0.700579 0
M  V30 377 O 34.9773 -1.07703 -1.48815 0
M  V30 378 C 35.0393 -3.44828 1.01657 0
M  V30 379 C 34.7033 -3.85564 2.45335 0
M  V30 380 C 35.7003 -3.90286 3.43472 0
M  V30 381 C 33.3853 -4.1719 2.79746 0
M  V30 382 C 35.3793 -4.26065 4.74075 0
M  V30 383 C 33.0663 -4.52642 4.10559 0
M  V30 384 C 34.0643 -4.57054 5.07534 0
M  V30 385 O 33.7523 -4.91685 6.36004 0
M  V30 386 H 33.4843 -0.618977 0.271742 0
M  V30 387 H 36.0383 -1.52415 1.37691 0
M  V30 388 H 34.2683 -3.85314 0.327084 0
M  V30 389 H 35.9573 -3.99437 0.721427 0
M  V30 390 H 36.7233 -3.66002 3.18225 0
M  V30 391 H 32.6023 -4.1294 2.04943 0
M  V30 392 H 36.1463 -4.29423 5.49765 0
M  V30 393 H 32.0433 -4.76383 4.35579 0
M  V30 394 H 32.8113 -5.09631 6.40483 0
M  V30 395 N 35.4744 -0.807222 -1.35358 0
M  V30 396 C 36.6994 -0.399309 -2.0352 0
M  V30 397 C 37.1244 0.981986 -1.60433 0
M  V30 398 O 36.4824 1.63601 -0.781299 0
M  V30 399 C 36.5304 -0.491552 -3.57234 0
M  V30 400 O 35.6344 0.494754 -4.09421 0
M  V30 401 H 34.9754 -0.166682 -0.642739 0
M  V30 402 H 37.5054 -1.09328 -1.72941 0
M  V30 403 H 37.5154 -0.361588 -4.06395 0
M  V30 404 H 36.1904 -1.49907 -3.87944 0
M  V30 405 H 34.7674 0.324977 -3.71481 0
M  V30 406 N 36.9525 1.47285 -0.560781 0
M  V30 407 C 38.1805 2.06855 -0.0430262 0
M  V30 408 C 38.5955 1.41291 1.25229 0
M  V30 409 O 37.9525 0.510648 1.7521 0
M  V30 410 C 38.0035 3.61178 0.152518 0
M  V30 411 O 37.7245 4.24285 -1.0915 0
M  V30 412 C 39.2255 4.37624 0.707145 0
M  V30 413 H 36.4455 0.669319 -0.0474652 0
M  V30 414 H 38.9895 1.89237 -0.77521 0
M  V30 415 H 37.1445 3.78298 0.834843 0
M  V30 416 H 37.5585 5.16868 -0.891482 0
M  V30 417 H 39.0325 5.46271 0.793244 0
M  V30 418 H 39.5095 4.04152 1.71923 0
M  V30 419 H 40.1155 4.25257 0.0604027 0
M  V30 420 N 38.4306 0.297415 1.54768 0
M  V30 421 C 39.3776 -0.580276 2.23386 0
M  V30 422 C 40.3476 -1.13238 1.21517 0
M  V30 423 O 41.5326 -1.17757 1.50126 0
M  V30 424 C 38.6726 -1.74801 2.97555 0
M  V30 425 C 37.7856 -1.22764 4.1419 0
M  V30 426 C 36.9206 -2.35895 4.75949 0
M  V30 427 C 35.9596 -1.80974 5.84735 0
M  V30 428 N 35.0966 -2.87664 6.40464 0
M  V30 429 H 39.9366 0.0114833 2.97998 0
M  V30 430 H 37.4736 0.0174361 1.4709 0
M  V30 431 H 39.4316 -2.43475 3.38786 0
M  V30 432 H 38.0616 -2.31145 2.25326 0
M  V30 433 H 37.1136 -0.433271 3.77924 0
M  V30 434 H 38.4256 -0.785551 4.92575 0
M  V30 435 H 37.5796 -3.12523 5.20014 0
M  V30 436 H 36.3186 -2.83429 3.96887 0
M  V30 437 H 35.3236 -1.02834 5.40097 0
M  V30 438 H 36.5486 -1.34348 6.65678 0
M  V30 439 H 34.4946 -3.34538 5.64287 0
M  V30 440 H 34.4116 -2.4794 7.14186 0
M  V30 441 H 35.6796 -3.642 6.89187 0
M  V30 442 N 39.9087 -1.5758 0.0250728 0
M  V30 443 C 40.8557 -2.09973 -0.958129 0
M  V30 444 C 41.8257 -1.00085 -1.3256 0
M  V30 445 O 43.0107 -1.27481 -1.41962 0
M  V30 446 C 40.1507 -2.62812 -2.2366 0
M  V30 447 C 39.2637 -3.86693 -1.92594 0
M  V30 448 C 38.3987 -4.27941 -3.14707 0
M  V30 449 C 37.4377 -5.44591 -2.79442 0
M  V30 450 N 36.5747 -5.81014 -3.94167 0
M  V30 451 H 41.4147 -2.937 -0.504428 0
M  V30 452 H 38.9517 -1.45172 -0.237392 0
M  V30 453 H 40.9097 -2.91536 -2.98434 0
M  V30 454 H 39.5397 -1.81922 -2.66654 0
M  V30 455 H 38.5917 -3.64723 -1.0808 0
M  V30 456 H 39.9037 -4.71547 -1.62619 0
M  V30 457 H 39.0577 -4.58079 -3.97804 0
M  V30 458 H 37.7967 -3.41845 -3.4784 0
M  V30 459 H 36.8017 -5.1415 -1.94755 0
M  V30 460 H 38.0267 -6.32382 -2.47528 0
M  V30 461 H 35.9727 -4.97874 -4.2715 0
M  V30 462 H 35.8897 -6.60498 -3.67801 0
M  V30 463 H 37.1577 -6.15756 -4.7798 0
M  V30 464 N 41.3868 0.248026 -1.55636 0
M  V30 465 C 42.3168 1.31079 -1.93237 0
M  V30 466 C 43.2978 1.50264 -0.797174 0
M  V30 467 O 44.4828 1.62891 -1.05737 0
M  V30 468 C 41.6128 2.66575 -2.22609 0
M  V30 469 C 40.5668 2.62087 -3.3837 0
M  V30 470 C 39.8928 4.01369 -3.53281 0
M  V30 471 C 41.1928 2.19171 -4.7409 0
M  V30 472 H 42.8868 0.998556 -2.82257 0
M  V30 473 H 40.4328 0.47891 -1.35803 0
M  V30 474 H 42.3858 3.41057 -2.47503 0
M  V30 475 H 41.1098 2.99432 -1.30414 0
M  V30 476 H 39.7688 1.90063 -3.13483 0
M  V30 477 H 39.4168 4.31489 -2.58508 0
M  V30 478 H 39.1168 3.99254 -4.31127 0
M  V30 479 H 40.6408 4.77552 -3.80495 0
M  V30 480 H 42.0548 2.83384 -4.98363 0
M  V30 481 H 40.4518 2.2817 -5.5503 0
M  V30 482 H 41.5218 1.14336 -4.71227 0
M  V30 483 N 42.8649 1.48995 0.513639 0
M  V30 484 C 43.8119 1.6473 1.61656 0
M  V30 485 C 44.7819 0.488984 1.58739 0
M  V30 486 O 45.9669 0.714478 1.76918 0
M  V30 487 C 43.1069 1.7082 2.99858 0
M  V30 488 C 42.2199 2.9787 3.12885 0
M  V30 489 C 41.3549 2.95017 4.41744 0
M  V30 490 C 40.3939 4.16702 4.48359 0
M  V30 491 N 39.5309 4.11832 5.68629 0
M  V30 492 H 44.3709 2.58909 1.47547 0
M  V30 493 H 41.9079 1.28382 0.71808 0
M  V30 494 H 43.8659 1.72331 3.79944 0
M  V30 495 H 42.4959 0.801181 3.12699 0
M  V30 496 H 41.5479 3.06029 2.25944 0
M  V30 497 H 42.8599 3.8786 3.13633 0
M  V30 498 H 42.0139 2.95021 5.30139 0
M  V30 499 H 40.7529 2.02784 4.43542 0
M  V30 500 H 39.7579 4.16955 3.58369 0
M  V30 501 H 40.9829 5.10113 4.48287 0
M  V30 502 H 38.9289 3.22428 5.71293 0
M  V30 503 H 38.8459 4.95543 5.7094 0
M  V30 504 H 40.1139 4.1592 6.59266 0
M  V30 505 N 44.343 -0.763751 1.37857 0
M  V30 506 C 45.62 -1.51244 1.24035 0
M  V30 507 C 46 -2.10472 -0.162649 0
M  V30 508 O 45.348 -1.96206 -1.17112 0
M  V30 509 C 45.558 -2.58694 2.34261 0
M  V30 510 C 46.906 -3.25878 2.72193 0
M  V30 511 O 47.93 -2.68993 2.33497 0
M  V30 512 O 46.789 -4.2874 3.38887 0
M  V30 513 H 43.883 -0.670243 0.484462 0
M  V30 514 H 46.429 -0.800031 1.49658 0
M  V30 515 H 45.201 -2.13105 3.2818 0
M  V30 516 H 44.824 -3.37527 2.10146 0
M  V30 517 N 45.8211 -1.22559 -0.990812 0
M  V30 518 C 47.0671 -1.05297 -1.73322 0
M  V30 519 C 47.4001 0.410655 -1.89808 0
M  V30 520 O 46.6751 1.30439 -1.44277 0
M  V30 521 C 46.9581 -1.76713 -3.13759 0
M  V30 522 C 46.8111 -3.30684 -3.04907 0
M  V30 523 C 48.1301 -1.52121 -4.12974 0
M  V30 524 H 45.2491 -0.38392 -0.629106 0
M  V30 525 H 47.8911 -1.50926 -1.15418 0
M  V30 526 H 46.0411 -1.37924 -3.63193 0
M  V30 527 H 47.7131 -3.7893 -2.63077 0
M  V30 528 H 45.9561 -3.60253 -2.41661 0
M  V30 529 H 46.6271 -3.75833 -4.04294 0
M  V30 530 H 49.1031 -1.85819 -3.72304 0
M  V30 531 H 47.9791 -2.04582 -5.0935 0
M  V30 532 H 48.2401 -0.454257 -4.3976 0
M  V30 533 N 47.2992 1.18797 -1.03562 0
M  V30 534 C 48.2292 2.24472 -0.643019 0
M  V30 535 C 49.2102 1.66433 0.351283 0
M  V30 536 O 50.3952 1.92803 0.232505 0
M  V30 537 C 47.5252 3.473 4.24935e-05 0
M  V30 538 C 46.4792 4.18055 -0.917257 0
M  V30 539 C 45.8052 5.34519 -0.138941 0
M  V30 540 C 47.1052 4.72109 -2.23407 0
M  V30 541 H 48.7992 2.57566 -1.52643 0
M  V30 542 H 46.3452 1.23806 -0.735394 0
M  V30 543 H 48.2982 4.20426 0.286383 0
M  V30 544 H 47.0222 3.13424 0.918299 0
M  V30 545 H 45.6812 3.46821 -1.1879 0
M  V30 546 H 45.3292 4.96891 0.781562 0
M  V30 547 H 45.0292 5.82794 -0.750005 0
M  V30 548 H 46.5532 6.10438 0.1405 0
M  V30 549 H 47.9672 5.36955 -2.00879 0
M  V30 550 H 46.3642 5.30897 -2.79765 0
M  V30 551 H 47.4342 3.89807 -2.88407 0
M  V30 552 N 48.7773 0.814389 1.34928 0
M  V30 553 C 49.6873 0.231978 2.3345 0
M  V30 554 C 50.7033 -0.629139 1.62228 0
M  V30 555 O 51.8793 -0.539052 1.94052 0
M  V30 556 C 48.9443 -0.603482 3.41407 0
M  V30 557 C 48.0053 0.279037 4.28392 0
M  V30 558 C 47.2383 -0.516643 5.31193 0
M  V30 559 O 47.4613 -1.75068 5.4287 0
M  V30 560 O 46.3953 0.0965652 6.01823 0
M  V30 561 H 50.2213 1.04721 2.85074 0
M  V30 562 H 47.8063 0.576343 1.37836 0
M  V30 563 H 49.6883 -1.07908 4.0735 0
M  V30 564 H 48.3633 -1.39618 2.92042 0
M  V30 565 H 47.2703 0.801948 3.65403 0
M  V30 566 H 48.6033 1.03588 4.81176 0
M  V30 567 N 50.2554 -1.46986 0.568584 0
M  V30 568 C 51.1654 -2.33942 -0.17555 0
M  V30 569 C 52.1814 -1.48891 -0.90041 0
M  V30 570 O 53.3574 -1.81794 -0.86676 0
M  V30 571 C 50.4224 -3.25811 -1.18524 0
M  V30 572 C 49.4834 -4.26757 -0.466582 0
M  V30 573 C 48.7164 -5.14236 -1.42817 0
M  V30 574 O 48.9394 -5.04379 -2.66379 0
M  V30 575 O 47.8734 -5.94412 -0.946453 0
M  V30 576 H 51.6994 -2.98896 0.538036 0
M  V30 577 H 49.2844 -1.4573 0.329097 0
M  V30 578 H 51.1664 -3.82527 -1.76779 0
M  V30 579 H 49.8414 -2.63471 -1.88055 0
M  V30 580 H 48.7484 -3.73769 0.157451 0
M  V30 581 H 50.0814 -4.91843 0.187485 0
M  V30 582 N 51.7335 -0.305618 -1.54608 0
M  V30 583 C 52.9805 0.302298 -2.00231 0
M  V30 584 C 53.3085 1.5354 -1.19398 0
M  V30 585 O 52.5635 1.93973 -0.259423 0
M  V30 586 C 52.8625 0.698983 -3.50498 0
M  V30 587 C 52.5285 -0.432903 -4.48817 0
M  V30 588 C 51.1905 -0.743622 -4.75419 0
M  V30 589 C 53.5425 -1.19409 -5.07337 0
M  V30 590 C 50.8705 -1.81857 -5.57804 0
M  V30 591 C 53.2225 -2.25899 -5.90891 0
M  V30 592 C 51.8865 -2.57572 -6.15803 0
M  V30 593 H 51.1565 0.110619 -0.732697 0
M  V30 594 H 53.8035 -0.425674 -1.86709 0
M  V30 595 H 52.1085 1.50711 -3.61654 0
M  V30 596 H 53.8055 1.1806 -3.83227 0
M  V30 597 H 50.3955 -0.18063 -4.28219 0
M  V30 598 H 54.5795 -0.967295 -4.86782 0
M  V30 599 H 49.8355 -2.06864 -5.75341 0
M  V30 600 H 54.0095 -2.85335 -6.35261 0
M  V30 601 H 51.6365 -3.40998 -6.7943 0
M  V30 602 N 53.2116 1.57565 -0.0334293 0
M  V30 603 C 54.1616 2.06978 0.956237 0
M  V30 604 C 55.1456 0.971193 1.28283 0
M  V30 605 O 56.3376 1.23471 1.26822 0
M  V30 606 C 53.4666 2.60393 2.23719 0
M  V30 607 C 52.5526 3.7719 1.93877 0
M  V30 608 N 52.9436 4.87639 1.34321 0
M  V30 609 C 51.2416 3.85758 2.23845 0
M  V30 610 C 51.9426 5.68825 1.21709 0
M  V30 611 N 50.9186 5.1587 1.71404 0
M  V30 612 H 54.7206 2.89773 0.490815 0
M  V30 613 H 52.2346 1.61492 0.171478 0
M  V30 614 H 54.2316 2.94088 2.95496 0
M  V30 615 H 52.8916 1.79031 2.70884 0
M  V30 616 H 53.9026 5.07803 1.01767 0
M  V30 617 H 50.5796 3.1531 2.73653 0
M  V30 618 H 51.9696 6.67631 0.75621 0
M  V30 619 N 54.6897 -0.239769 1.55765 0
M  V30 620 C 55.9377 -0.964892 1.77579 0
M  V30 621 C 56.2587 -1.85582 0.598699 0
M  V30 622 O 55.5287 -1.92075 -0.385226 0
M  V30 623 H 54.1087 -0.359265 0.654933 0
M  V30 624 H 56.7707 -0.256001 1.93211 0
M  V30 625 H 55.8667 -1.58243 2.69009 0
M  V30 626 N 56.1678 -1.49265 -0.50573 0
M  V30 627 C 57.1158 -1.66065 -1.62866 0
M  V30 628 C 58.1098 -0.526636 -1.61006 0
M  V30 629 O 59.3158 -0.706126 -1.65571 0
M  V30 630 H 55.6908 -0.52356 -0.539805 0
M  V30 631 H 57.6618 -2.60329 -1.45848 0
M  V30 632 C 56.4108 -1.74008 -3.01026 0
M  V30 633 H 55.7338 -2.6064 -3.03161 0
M  V30 634 H 57.1738 -1.89798 -3.79147 0
M  V30 635 C 55.6328 -0.483868 -3.33407 0
M  V30 636 O 56.1628 0.392548 -3.99777 0
M  V30 637 N 54.3688 -0.348236 -2.88506 0
M  V30 638 H 53.9158 -1.06242 -2.34671 0
M  V30 639 H 53.8738 0.491204 -3.10539 0
M  V30 640 N 57.6459 0.756429 -1.3826 0
M  V30 641 C 58.8939 1.51248 -1.34047 0
M  V30 642 C 59.2149 1.94875 0.0698372 0
M  V30 643 O 58.4849 1.67436 1.01696 0
M  V30 644 H 57.0649 0.561018 -0.493222 0
M  V30 645 H 59.7269 0.899347 -1.7291 0
M  V30 646 H 58.8229 2.40472 -1.98947 0
M  V30 647 N 59.124 1.23083 0.984299 0
M  V30 648 C 60.37 1.06214 1.72761 0
M  V30 649 C 60.703 -0.400584 1.90024 0
M  V30 650 O 59.978 -1.29672 1.44967 0
M  V30 651 C 60.261 1.78375 3.12817 0
M  V30 652 C 60.114 3.32296 3.03149 0
M  V30 653 C 61.433 1.54309 4.12161 0
M  V30 654 H 58.552 0.387251 0.627061 0
M  V30 655 H 61.194 1.51536 1.14616 0
M  V30 656 H 59.344 1.39848 3.62457 0
M  V30 657 H 61.016 3.8032 2.61064 0
M  V30 658 H 59.259 3.6153 2.39747 0
M  V30 659 H 59.93 3.77972 4.02295 0
M  V30 660 H 62.406 1.87791 3.71314 0
M  V30 661 H 61.282 2.07281 5.08258 0
M  V30 662 H 61.543 0.477572 4.39513 0
M  V30 663 N 60.6021 -1.18246 1.0419 0
M  V30 664 C 61.5321 -2.24127 0.654914 0
M  V30 665 C 62.5131 -1.66617 -0.342451 0
M  V30 666 O 63.6981 -1.92924 -0.222277 0
M  V30 667 C 60.8281 -3.47295 0.0183757 0
M  V30 668 C 59.7821 -4.17563 0.939414 0
M  V30 669 C 59.1081 -5.34438 0.167286 0
M  V30 670 C 60.4081 -4.70917 2.25908 0
M  V30 671 H 62.1021 -2.56753 1.54007 0
M  V30 672 H 59.6481 -1.23414 0.74195 0
M  V30 673 H 61.6011 -4.20572 -0.264082 0
M  V30 674 H 60.3251 -3.13907 -0.901664 0
M  V30 675 H 58.9841 -3.46186 1.20628 0
M  V30 676 H 58.6321 -4.97298 -0.7552 0
M  V30 677 H 58.3321 -5.82388 0.780901 0
M  V30 678 H 59.8561 -6.10504 -0.108125 0
M  V30 679 H 61.2701 -5.35882 2.03724 0
M  V30 680 H 59.6671 -5.29406 2.82577 0
M  V30 681 H 60.7371 -3.88272 2.9047 0
M  V30 682 N 62.0802 -0.821533 -1.34494 0
M  V30 683 C 63.0432 -0.247847 -2.27856 0
M  V30 684 C 64.0432 0.573453 -1.50227 0
M  V30 685 O 65.2332 0.389759 -1.69784 0
M  V30 686 C 62.3652 0.652698 -3.34593 0
M  V30 687 H 63.5582 -1.07146 -2.80107 0
M  V30 688 H 61.1112 -0.593291 -1.44602 0
M  V30 689 H 61.8462 1.49943 -2.87555 0
M  V30 690 H 61.6312 0.065292 -3.92046 0
M  V30 691 H 63.1212 1.04793 -4.04238 0
M  V30 692 N 63.5583 1.46682 -0.576371 0
M  V30 693 C 64.5053 2.30241 0.160499 0
M  V30 694 C 65.4753 1.40233 0.890162 0
M  V30 695 O 66.6603 1.69186 0.882084 0
M  V30 696 C 63.8003 3.24578 1.1723 0
M  V30 697 C 62.9133 4.29684 0.446736 0
M  V30 698 C 62.0483 5.11154 1.44551 0
M  V30 699 C 61.0873 6.08015 0.70599 0
M  V30 700 N 60.2243 6.82376 1.65251 0
M  V30 701 H 65.0643 2.92727 -0.558127 0
M  V30 702 H 62.6013 1.44272 -0.287056 0
M  V30 703 H 64.5593 3.77711 1.77172 0
M  V30 704 H 63.1893 2.63916 1.85872 0
M  V30 705 H 62.2413 3.79458 -0.267594 0
M  V30 706 H 63.5533 4.98626 -0.131686 0
M  V30 707 H 62.7073 5.68533 2.11791 0
M  V30 708 H 61.4463 4.42158 2.05786 0
M  V30 709 H 60.4513 5.49796 0.0197725 0
M  V30 710 H 61.6763 6.79028 0.09912 0
M  V30 711 H 59.6223 6.16094 2.25308 0
M  V30 712 H 59.5393 7.47556 1.12673 0
M  V30 713 H 60.8073 7.44316 2.31546 0
M  V30 714 N 65.0364 0.313813 1.54444 0
M  V30 715 C 66.2664 -0.293491 2.04505 0
M  V30 716 C 66.6744 -1.47086 1.19005 0
M  V30 717 O 66.0174 -1.82481 0.211257 0
M  V30 718 C 66.0794 -0.800455 3.50475 0
M  V30 719 C 65.7434 0.253322 4.56297 0
M  V30 720 C 66.7404 1.08612 5.08428 0
M  V30 721 C 64.4254 0.398708 5.00715 0
M  V30 722 C 66.4194 2.05013 6.0353 0
M  V30 723 C 64.1064 1.36614 5.95634 0
M  V30 724 C 65.1044 2.19033 6.46926 0
M  V30 725 O 64.7924 3.14134 7.39983 0
M  V30 726 H 64.5244 -0.0658325 0.672787 0
M  V30 727 H 67.0784 0.455177 2.00293 0
M  V30 728 H 65.3084 -1.59987 3.52053 0
M  V30 729 H 66.9974 -1.32504 3.83663 0
M  V30 730 H 67.7634 0.984736 4.74898 0
M  V30 731 H 63.6424 -0.23289 4.60411 0
M  V30 732 H 67.1864 2.69382 6.4349 0
M  V30 733 H 63.0834 1.4682 6.28581 0
M  V30 734 H 63.8514 3.0926 7.57826 0
M  V30 735 N 66.5145 -1.57545 0.0417849 0
M  V30 736 C 67.4625 -2.12148 -0.953723 0
M  V30 737 C 68.4565 -1.05104 -1.32852 0
M  V30 738 O 69.6625 -1.23524 -1.30927 0
M  V30 739 H 66.0375 -0.677957 -0.325389 0
M  V30 740 H 68.0085 -2.94707 -0.467991 0
M  V30 741 C 66.7575 -2.6739 -2.22257 0
M  V30 742 H 66.0805 -3.49413 -1.94295 0
M  V30 743 H 67.5205 -3.09227 -2.90094 0
M  V30 744 C 65.9795 -1.60723 -2.96091 0
M  V30 745 O 66.5095 -1.01449 -3.88679 0
M  V30 746 N 64.7155 -1.32466 -2.58652 0
M  V30 747 H 64.2625 -1.80856 -1.83437 0
M  V30 748 H 64.2205 -0.61325 -3.08361 0
M  V30 749 N 67.9926 0.231505 -1.5589 0
M  V30 750 C 69.4036 0.799327 -1.68724 0
M  V30 751 C 69.7546 1.85398 -0.642022 0
M  V30 752 O 68.8796 2.1539 0.208784 0
M  V30 753 C 69.4746 1.45664 -3.05888 0
M  V30 754 C 68.0336 1.97197 -3.20609 0
M  V30 755 C 67.1806 0.828552 -2.64632 0
M  V30 756 H 70.1316 0.00702616 -1.58698 0
M  V30 757 H 70.1526 2.32517 -3.01191 0
M  V30 758 H 69.6646 0.688808 -3.81939 0
M  V30 759 H 67.7656 2.76813 -2.4941 0
M  V30 760 H 67.8786 2.15878 -4.27707 0
M  V30 761 H 66.2426 1.23321 -2.22854 0
M  V30 762 H 67.0256 0.0735544 -3.43221 0
M  V30 763 N 69.4707 1.49531 0.497807 0
M  V30 764 C 70.3807 1.69176 1.62532 0
M  V30 765 C 71.3967 0.5744 1.64246 0
M  V30 766 O 72.5727 0.849497 1.82608 0
M  V30 767 C 69.6377 1.75695 2.98885 0
M  V30 768 C 68.6987 2.9929 3.07773 0
M  V30 769 C 67.9317 3.05488 4.37622 0
M  V30 770 O 68.1547 2.19192 5.26603 0
M  V30 771 O 67.0887 3.9798 4.51548 0
M  V30 772 H 70.9147 2.647 1.48887 0
M  V30 773 H 68.4997 1.3331 0.674441 0
M  V30 774 H 70.3817 1.82317 3.79919 0
M  V30 775 H 69.0567 0.8335 3.12785 0
M  V30 776 H 67.9637 2.98183 2.25915 0
M  V30 777 H 69.2967 3.91125 2.98801 0
M  V30 778 N 70.9488 -0.749086 1.3866 0
M  V30 779 C 72.1968 -1.50535 1.34847 0
M  V30 780 C 72.5178 -1.94909 -0.0595016 0
M  V30 781 O 71.7878 -1.67973 -1.00806 0
M  V30 782 H 70.3678 -0.558395 0.49619 0
M  V30 783 H 73.0298 -0.890165 1.73384 0
M  V30 784 H 72.1258 -2.39413 2.00219 0
M  V30 785 N 72.4269 -1.23603 -0.977757 0
M  V30 786 C 73.3739 -1.01954 -2.07061 0
M  V30 787 C 74.3439 0.0638697 -1.65977 0
M  V30 788 O 75.5289 -0.0887624 -1.90593 0
M  V30 789 C 72.6689 -0.619658 -3.39491 0
M  V30 790 C 71.7819 -1.77547 -3.93829 0
M  V30 791 C 70.9169 -1.32212 -5.14484 0
M  V30 792 C 69.9559 -2.44852 -5.60994 0
M  V30 793 N 69.0929 -2.00456 -6.72876 0
M  V30 794 H 73.9329 -1.95495 -2.24913 0
M  V30 795 H 71.4699 -0.973861 -1.10247 0
M  V30 796 H 73.4279 -0.368898 -4.15566 0
M  V30 797 H 72.0579 0.278752 -3.21594 0
M  V30 798 H 71.1099 -2.14016 -3.14486 0
M  V30 799 H 72.4219 -2.62219 -4.24314 0
M  V30 800 H 71.5759 -1.02965 -5.97899 0
M  V30 801 H 70.3149 -0.445808 -4.85658 0
M  V30 802 H 69.3199 -2.74871 -4.76157 0
M  V30 803 H 70.5449 -3.33024 -5.91837 0
M  V30 804 H 68.4909 -1.15208 -6.45804 0
M  V30 805 H 68.4079 -2.78687 -7.02759 0
M  V30 806 H 69.6759 -1.7432 -7.59758 0
M  V30 807 N 73.905 1.17692 -1.04816 0
M  V30 808 C 74.837 2.21103 -0.603822 0
M  V30 809 C 75.85 1.59411 0.33046 0
M  V30 810 O 77.039 1.7807 0.12379 0
M  V30 811 C 74.139 3.38623 0.136898 0
M  V30 812 C 73.312 4.29888 -0.807137 0
M  V30 813 C 72.371 5.26088 -0.10836 0
M  V30 814 O 71.397 5.64353 -0.741232 0
M  V30 815 N 72.599 5.68882 1.15558 0
M  V30 816 H 75.364 2.59848 -1.49329 0
M  V30 817 H 72.925 1.32553 -0.929587 0
M  V30 818 H 74.917 4.00009 0.614401 0
M  V30 819 H 73.487 2.98508 0.927993 0
M  V30 820 H 72.707 3.65993 -1.46434 0
M  V30 821 H 73.995 4.87759 -1.44807 0
M  V30 822 H 73.393 5.39861 1.69015 0
M  V30 823 H 71.95 6.32429 1.57722 0
M  V30 824 N 75.3831 0.828654 1.34056 0
M  V30 825 C 76.6601 0.341809 1.9259 0
M  V30 826 C 77.0401 -1.17158 1.75605 0
M  V30 827 O 76.3881 -1.98132 1.13824 0
M  V30 828 C 76.5981 0.777453 3.4023 0
M  V30 829 C 77.9461 0.779579 4.17382 0
M  V30 830 O 78.9701 0.7204 3.48839 0
M  V30 831 O 77.8291 0.857996 5.39723 0
M  V30 832 H 74.9231 0.0946085 0.821571 0
M  V30 833 H 77.4691 0.913827 1.42994 0
M  V30 834 H 76.2411 1.8196 3.46419 0
M  V30 835 H 75.8641 0.181444 3.97186 0
M  V30 836 N 76.8612 -1.46375 0.584142 0
M  V30 837 C 78.1102 -2.01585 0.0679741 0
M  V30 838 C 78.4232 -1.46109 -1.30045 0
M  V30 839 O 79.6292 -1.93148 -1.90804 0
M  V30 840 C 78.0852 -3.5983 0.0709207 0
M  V30 841 C 77.6932 -4.24303 1.43775 0
M  V30 842 C 79.4372 -4.22693 -0.391228 0
M  V30 843 C 77.3442 -5.74631 1.39834 0
M  V30 844 H 76.2742 -0.753689 0.0216421 0
M  V30 845 H 78.9252 -1.68093 0.736001 0
M  V30 846 H 77.3072 -3.90405 -0.663299 0
M  V30 847 H 78.4812 -4.05335 2.19181 0
M  V30 848 H 76.7962 -3.73539 1.84004 0
M  V30 849 H 79.3932 -5.3289 -0.439524 0
M  V30 850 H 79.7362 -3.91728 -1.40906 0
M  V30 851 H 80.2692 -3.96749 0.288974 0
M  V30 852 H 77.0082 -6.10258 2.39303 0
M  V30 853 H 76.5282 -5.95858 0.686505 0
M  V30 854 H 78.2072 -6.37375 1.11187 0
M  V30 855 N 78.3393 -0.321999 -1.54275 0
M  V30 856 C 79.2693 0.537411 -2.27231 0
M  V30 857 C 80.2503 1.12064 -1.27968 0
M  V30 858 O 81.4353 1.14606 -1.56777 0
M  V30 859 C 78.5653 1.69919 -3.02894 0
M  V30 860 C 77.5193 1.24534 -4.09482 0
M  V30 861 C 76.8453 2.49394 -4.72977 0
M  V30 862 C 78.1453 0.361335 -5.21049 0
M  V30 863 H 79.8393 -0.0711406 -2.99315 0
M  V30 864 H 77.3853 -0.0356555 -1.43956 0
M  V30 865 H 79.3383 2.30668 -3.52662 0
M  V30 866 H 78.0623 2.33431 -2.28424 0
M  V30 867 H 76.7213 0.660782 -3.60596 0
M  V30 868 H 76.3693 3.11265 -3.95124 0
M  V30 869 H 76.0693 2.19718 -5.44975 0
M  V30 870 H 77.5933 3.10908 -5.25517 0
M  V30 871 H 79.0073 0.875072 -5.66582 0
M  V30 872 H 77.4043 0.157428 -5.99893 0
M  V30 873 H 78.4743 -0.60822 -4.8107 0
M  V30 874 N 79.8174 1.5752 -0.0501392 0
M  V30 875 C 80.7654 2.12651 0.942459 0
M  V30 876 C 81.7594 1.05807 1.32292 0
M  V30 877 O 82.9654 1.24217 1.3027 0
M  V30 878 H 79.3404 0.679673 0.321789 0
M  V30 879 H 81.3114 2.94951 0.452356 0
M  V30 880 C 80.0604 2.68565 2.20836 0
M  V30 881 H 79.3834 3.50439 1.92439 0
M  V30 882 H 80.8234 3.10761 2.8845 0
M  V30 883 C 79.2824 1.62291 2.95234 0
M  V30 884 O 79.8124 1.03508 3.88135 0
M  V30 885 N 78.0184 1.33836 2.57946 0
M  V30 886 H 77.5654 1.81826 1.82475 0
M  V30 887 H 77.5234 0.629595 3.08032 0
M  V30 888 N 81.2955 -0.223234 1.56011 0
M  V30 889 C 82.2275 -1.30006 1.88762 0
M  V30 890 C 83.2405 -1.43129 0.775746 0
M  V30 891 O 84.4295 -1.44057 1.05403 0
M  V30 892 C 81.5295 -2.67589 2.07965 0
M  V30 893 C 80.7025 -2.76434 3.38973 0
M  V30 894 C 79.7615 -3.95019 3.47629 0
M  V30 895 O 78.7875 -3.83436 4.20672 0
M  V30 896 N 79.9895 -5.09249 2.78649 0
M  V30 897 H 82.7545 -1.02238 2.81722 0
M  V30 898 H 80.3155 -0.413278 1.56536 0
M  V30 899 H 82.3075 -3.45297 2.11073 0
M  V30 900 H 80.8775 -2.87964 1.21638 0
M  V30 901 H 80.0975 -1.85216 3.47978 0
M  V30 902 H 81.3855 -2.79313 4.25278 0
M  V30 903 H 80.7835 -5.21556 2.19081 0
M  V30 904 H 79.3405 -5.85007 2.8742 0
M  V30 905 N 82.7736 -1.49793 -0.48987 0
M  V30 906 C 84.0016 -1.63568 -1.26701 0
M  V30 907 C 84.4166 -0.311465 -1.86213 0
M  V30 908 O 83.7736 0.704416 -1.68357 0
M  V30 909 C 83.8246 -2.71284 -2.38929 0
M  V30 910 O 83.5456 -3.9857 -1.81861 0
M  V30 911 C 85.0466 -2.95864 -3.3012 0
M  V30 912 H 82.2666 -0.550342 -0.383881 0
M  V30 913 H 84.8106 -1.95898 -0.586864 0
M  V30 914 H 82.9656 -2.417 -3.02753 0
M  V30 915 H 83.3796 -4.57993 -2.55622 0
M  V30 916 H 84.8536 -3.74941 -4.05121 0
M  V30 917 H 85.3306 -2.06206 -3.87783 0
M  V30 918 H 85.9366 -3.26907 -2.72051 0
M  V30 919 N 84.2517 0.741722 -1.39055 0
M  V30 920 C 85.5007 1.49656 -1.35225 0
M  V30 921 C 85.8137 1.95533 0.0512708 0
M  V30 922 O 87.0197 2.7067 0.212138 0
M  V30 923 C 85.4757 2.70389 -2.37525 0
M  V30 924 C 85.0837 2.31489 -3.83558 0
M  V30 925 C 86.8277 3.48236 -2.42759 0
M  V30 926 C 84.7347 3.48903 -4.77515 0
M  V30 927 H 83.6647 0.56197 -0.502699 0
M  V30 928 H 86.3157 0.809727 -1.64668 0
M  V30 929 H 84.6977 3.41113 -2.01142 0
M  V30 930 H 85.8717 1.68354 -4.28945 0
M  V30 931 H 84.1867 1.66749 -3.81554 0
M  V30 932 H 86.7837 4.35558 -3.1015 0
M  V30 933 H 87.1267 3.90229 -1.45008 0
M  V30 934 H 87.6597 2.84535 -2.78002 0
M  V30 935 H 84.3987 3.11966 -5.76504 0
M  V30 936 H 83.9187 4.11041 -4.36813 0
M  V30 937 H 85.5977 4.15328 -4.96096 0
M  V30 938 N 85.7298 1.2412 0.971189 0
M  V30 939 C 87.0068 0.986867 1.6888 0
M  V30 940 C 87.3868 -0.491857 2.0529 0
M  V30 941 O 86.7348 -1.46531 1.75331 0
M  V30 942 C 86.9448 1.9063 2.92338 0
M  V30 943 C 88.2928 2.17515 3.64654 0
M  V30 944 O 89.3168 1.88254 3.02388 0
M  V30 945 O 88.1758 2.6719 4.7673 0
M  V30 946 H 85.2698 0.372944 0.738134 0
M  V30 947 H 87.8158 1.35203 1.02559 0
M  V30 948 H 86.5878 2.90552 2.62097 0
M  V30 949 H 86.2108 1.54408 3.66393 0
M  V30 950 N 87.2079 -1.17134 1.05439 0
M  V30 951 C 88.4549 -1.87456 0.765942 0
M  V30 952 C 88.7829 -1.81189 -0.707153 0
M  V30 953 O 88.0379 -1.21633 -1.5331 0
M  V30 954 C 88.3369 -3.36833 1.19491 0
M  V30 955 C 88.0029 -3.63301 2.67063 0
M  V30 956 C 86.6649 -3.70234 3.07376 0
M  V30 957 C 89.0169 -3.74575 3.62413 0
M  V30 958 C 86.3449 -3.85933 4.41896 0
M  V30 959 C 88.6969 -3.91793 4.9667 0
M  V30 960 C 87.3609 -3.96966 5.36633 0
M  V30 961 H 86.6309 -0.685948 0.280278 0
M  V30 962 H 89.2779 -1.38556 1.32192 0
M  V30 963 H 87.5829 -3.87807 0.557969 0
M  V30 964 H 89.2799 -3.89611 0.948893 0
M  V30 965 H 85.8699 -3.58532 2.34846 0
M  V30 966 H 90.0539 -3.68537 3.32406 0
M  V30 967 H 85.3099 -3.88187 4.72357 0
M  V30 968 H 89.4839 -3.99458 5.70444 0
M  V30 969 H 87.1109 -4.08883 6.40874 0
M  V30 970 N 88.686 -0.835752 -1.33615 0
M  V30 971 C 89.596 -0.269088 -2.33052 0
M  V30 972 C 90.612 0.603251 -1.63208 0
M  V30 973 O 91.788 0.508112 -1.94885 0
M  V30 974 C 88.853 0.549091 -3.42324 0
M  V30 975 C 87.914 -0.347156 -4.27894 0
M  V30 976 C 87.147 0.43207 -5.31948 0
M  V30 977 O 87.37 1.66409 -5.45586 0
M  V30 978 O 86.304 -0.192298 -6.01593 0
M  V30 979 H 90.13 -1.09243 -2.83372 0
M  V30 980 H 87.715 -0.598198 -1.36901 0
M  V30 981 H 89.597 1.01414 -4.09015 0
M  V30 982 H 88.272 1.34955 -2.94226 0
M  V30 983 H 87.179 -0.859979 -3.64081 0
M  V30 984 H 88.512 -1.1123 -4.79467 0
M  V30 985 N 90.1641 1.46063 -0.591896 0
M  V30 986 C 91.4121 2.01938 -0.0808391 0
M  V30 987 C 91.7331 1.46475 1.28725 0
M  V30 988 O 91.0031 0.652944 1.84698 0
M  V30 989 H 89.5831 0.746516 -0.0268938 0
M  V30 990 H 92.2451 1.79055 -0.769752 0
M  V30 991 H 91.3411 3.12094 -0.0187578 0
M  V30 992 N 91.6422 0.330177 1.54103 0
M  V30 993 C 92.8892 -0.270405 2.00686 0
M  V30 994 C 93.2172 -1.51621 1.21825 0
M  V30 995 O 92.4722 -1.93536 0.29025 0
M  V30 996 C 92.7712 -0.643134 3.51566 0
M  V30 997 C 92.4372 0.504251 4.48072 0
M  V30 998 C 91.0992 0.819163 4.74176 0
M  V30 999 C 93.4512 1.27465 5.05373 0
M  V30 1000 C 90.7792 1.90708 5.5484 0
M  V30 1001 C 93.1312 2.35271 5.87223 0
M  V30 1002 C 91.7952 2.67336 6.11627 0
M  V30 1003 H 91.0652 -0.0989482 0.734364 0
M  V30 1004 H 93.7122 0.455324 1.86008 0
M  V30 1005 H 92.0172 -1.44938 3.64006 0
M  V30 1006 H 93.7142 -1.11949 3.85056 0
M  V30 1007 H 90.3042 0.248733 4.27878 0
M  V30 1008 H 94.4882 1.04462 4.85182 0
M  V30 1009 H 89.7442 2.15991 5.71977 0
M  V30 1010 H 93.9182 2.95405 6.30641 0
M  V30 1011 H 91.5452 3.51763 6.73919 0
M  V30 1012 N 93.1203 -1.57491 0.0584922 0
M  V30 1013 C 94.0673 -2.11958 -0.913376 0
M  V30 1014 C 95.0373 -1.02875 -1.30407 0
M  V30 1015 O 96.2223 -1.30464 -1.39226 0
M  V30 1016 C 93.3623 -2.67497 -2.18035 0
M  V30 1017 C 92.4753 -3.90691 -1.84349 0
M  V30 1018 C 91.6103 -4.3452 -3.05559 0
M  V30 1019 C 90.6493 -5.50395 -2.67827 0
M  V30 1020 N 89.7863 -5.89244 -3.81754 0
M  V30 1021 H 94.6263 -2.94704 -0.442017 0
M  V30 1022 H 92.1633 -1.45643 -0.206545 0
M  V30 1023 H 94.1213 -2.978 -2.92183 0
M  V30 1024 H 92.7513 -1.87537 -2.62735 0
M  V30 1025 H 91.8033 -3.66934 -1.00319 0
M  V30 1026 H 93.1153 -4.7489 -1.5258 0
M  V30 1027 H 92.2693 -4.66414 -3.87998 0
M  V30 1028 H 91.0083 -3.49147 -3.40511 0
M  V30 1029 H 90.0133 -5.18165 -1.83806 0
M  V30 1030 H 91.2383 -6.3749 -2.34059 0
M  V30 1031 H 89.1843 -5.06823 -4.16493 0
M  V30 1032 H 89.1013 -6.68151 -3.53708 0
M  V30 1033 H 90.3693 -6.25756 -4.64811 0
M  V30 1034 N 94.5984 0.214957 -1.56127 0
M  V30 1035 C 95.5284 1.2695 -1.95974 0
M  V30 1036 C 96.5094 1.48539 -0.828868 0
M  V30 1037 O 97.6944 1.60611 -1.09168 0
M  V30 1038 C 94.8244 2.61794 -2.28214 0
M  V30 1039 C 93.7784 2.54851 -3.43853 0
M  V30 1040 C 93.1044 3.93785 -3.61715 0
M  V30 1041 C 94.4044 2.09065 -4.78632 0
M  V30 1042 H 96.0984 0.93846 -2.84312 0
M  V30 1043 H 93.6444 0.449996 -1.36788 0
M  V30 1044 H 95.5974 3.35731 -2.54682 0
M  V30 1045 H 94.3214 2.96599 -1.36736 0
M  V30 1046 H 92.9804 1.8337 -3.17444 0
M  V30 1047 H 92.6284 4.25908 -2.67602 0
M  V30 1048 H 92.3284 3.90019 -4.39498 0
M  V30 1049 H 93.8524 4.69374 -3.90539 0
M  V30 1050 H 95.2664 2.7275 -5.04262 0
M  V30 1051 H 93.6634 2.16346 -5.59745 0
M  V30 1052 H 94.7334 1.04315 -4.73547 0
M  V30 1053 N 96.0765 1.50051 0.48192 0
M  V30 1054 C 97.3235 1.60498 1.23477 0
M  V30 1055 C 97.6515 0.300331 1.92167 0
M  V30 1056 O 96.9065 -0.713094 1.82246 0
M  V30 1057 C 97.2055 2.72717 2.30998 0
M  V30 1058 C 96.8715 4.13572 1.79636 0
M  V30 1059 C 95.5335 4.519 1.65348 0
M  V30 1060 C 97.8855 5.01649 1.41412 0
M  V30 1061 C 95.2135 5.76057 1.11244 0
M  V30 1062 C 97.5655 6.26343 0.887538 0
M  V30 1063 C 96.2295 6.63483 0.731207 0
M  V30 1064 H 95.4995 0.587303 0.451836 0
M  V30 1065 H 98.1465 1.83948 0.532468 0
M  V30 1066 H 96.4515 2.43312 3.07094 0
M  V30 1067 H 98.1485 2.78006 2.88988 0
M  V30 1068 H 94.7385 3.83329 1.91721 0
M  V30 1069 H 98.9225 4.72679 1.51289 0
M  V30 1070 H 94.1785 6.03516 0.978686 0
M  V30 1071 H 98.3525 6.93958 0.582654 0
M  V30 1072 H 95.9795 7.59568 0.309806 0
M  V30 1073 N 97.5546 -0.734337 1.39446 0
M  V30 1074 C 98.4876 -1.85715 1.32609 0
M  V30 1075 C 99.4656 -1.6137 0.199636 0
M  V30 1076 O 100.65 -1.84626 0.380195 0
M  V30 1077 C 97.7766 -3.21709 1.05929 0
M  V30 1078 C 96.8226 -3.64913 2.20773 0
M  V30 1079 S 97.6556 -3.74203 3.83056 0
M  V30 1080 C 98.8116 -5.12986 3.58603 0
M  V30 1081 H 99.0446 -1.91232 2.27635 0
M  V30 1082 H 96.5776 -0.899263 1.25509 0
M  V30 1083 H 98.5356 -4.00236 0.912203 0
M  V30 1084 H 97.1966 -3.13848 0.125883 0
M  V30 1085 H 96.3896 -4.63606 1.97699 0
M  V30 1086 H 95.9916 -2.93593 2.31688 0
M  V30 1087 H 98.2836 -5.99339 3.15909 0
M  V30 1088 H 99.2266 -5.41088 4.5676 0
M  V30 1089 H 99.6346 -4.82694 2.9269 0
M  V30 1090 N 99.0327 -1.24633 -0.964593 0
M  V30 1091 C 99.9797 -1.04144 -2.05968 0
M  V30 1092 C 100.95 0.046262 -1.66036 0
M  V30 1093 O 102.135 -0.108972 -1.90489 0
M  V30 1094 C 99.2747 -0.65563 -3.38815 0
M  V30 1095 C 98.3877 -1.81714 -3.91923 0
M  V30 1096 C 97.5227 -1.37662 -5.13052 0
M  V30 1097 C 96.5617 -2.50788 -5.58365 0
M  V30 1098 N 95.6987 -2.07582 -6.70712 0
M  V30 1099 H 100.539 -1.9787 -2.22827 0
M  V30 1100 H 98.0757 -0.9855 -1.09208 0
M  V30 1101 H 100.034 -0.412954 -4.15151 0
M  V30 1102 H 98.6637 0.244627 -3.21872 0
M  V30 1103 H 97.7157 -2.1734 -3.12198 0
M  V30 1104 H 99.0277 -2.66705 -4.21509 0
M  V30 1105 H 98.1817 -1.093 -5.96773 0
M  V30 1106 H 96.9207 -0.497293 -4.85158 0
M  V30 1107 H 95.9257 -2.79906 -4.73215 0
M  V30 1108 H 97.1507 -3.39283 -5.88272 0
M  V30 1109 H 95.0967 -1.22051 -6.44546 0
M  V30 1110 H 95.0137 -2.86125 -6.99763 0
M  V30 1111 H 96.2817 -1.82369 -7.57867 0
M  V30 1112 N 100.511 1.16574 -1.06058 0
M  V30 1113 C 101.739 1.90952 -0.796552 0
M  V30 1114 C 102.154 1.77302 0.648808 0
M  V30 1115 O 101.511 1.11605 1.44397 0
M  V30 1116 C 101.562 3.41736 -1.17894 0
M  V30 1117 O 101.283 3.54975 -2.56758 0
M  V30 1118 C 102.784 4.33169 -0.942308 0
M  V30 1119 H 100.004 0.605594 -0.288959 0
M  V30 1120 H 102.548 1.47777 -1.41358 0
M  V30 1121 H 100.703 3.82623 -0.606491 0
M  V30 1122 H 101.117 4.4846 -2.72 0
M  V30 1123 H 102.591 5.37439 -1.25952 0
M  V30 1124 H 103.068 4.3903 0.122078 0
M  V30 1125 H 103.674 3.98007 -1.49902 0
M  V30 1126 N 101.989 0.842826 1.3317 0
M  V30 1127 C 103.236 0.440447 1.97652 0
M  V30 1128 C 103.564 -1.00123 1.6675 0
M  V30 1129 O 102.819 -1.7155 0.941761 0
M  V30 1130 C 103.118 0.612607 3.52111 0
M  V30 1131 C 102.784 2.02297 4.02972 0
M  V30 1132 C 101.446 2.40874 4.16573 0
M  V30 1133 C 103.798 2.94402 4.30089 0
M  V30 1134 C 101.126 3.70852 4.54627 0
M  V30 1135 C 103.478 4.23865 4.69597 0
M  V30 1136 C 102.142 4.62392 4.81404 0
M  V30 1137 H 101.412 0.161171 0.72326 0
M  V30 1138 H 104.059 1.07061 1.58777 0
M  V30 1139 H 102.364 -0.100849 3.9167 0
M  V30 1140 H 104.061 0.2815 4.00011 0
M  V30 1141 H 100.651 1.71338 3.92863 0
M  V30 1142 H 104.835 2.65835 4.19101 0
M  V30 1143 H 100.091 4.00501 4.61962 0
M  V30 1144 H 104.265 4.95306 4.89536 0
M  V30 1145 H 101.892 5.63154 5.10648 0
M  V30 1146 N 103.467 -1.45747 0.599634 0
M  V30 1147 C 104.397 -2.33235 -0.111306 0
M  V30 1148 C 105.378 -1.46359 -0.866781 0
M  V30 1149 O 106.563 -1.75146 -0.838904 0
M  V30 1150 C 103.693 -3.28932 -1.11451 0
M  V30 1151 C 102.647 -4.25381 -0.472772 0
M  V30 1152 C 101.973 -5.1071 -1.58365 0
M  V30 1153 C 103.273 -5.18831 0.600948 0
M  V30 1154 H 104.967 -2.92927 0.61919 0
M  V30 1155 H 102.513 -1.40857 0.299215 0
M  V30 1156 H 104.466 -3.89002 -1.62036 0
M  V30 1157 H 103.19 -2.67381 -1.8755 0
M  V30 1158 H 101.849 -3.66598 0.0121472 0
M  V30 1159 H 101.497 -4.45533 -2.33473 0
M  V30 1160 H 101.197 -5.7604 -1.15982 0
M  V30 1161 H 102.721 -5.73647 -2.09194 0
M  V30 1162 H 104.135 -5.73019 0.179491 0
M  V30 1163 H 102.532 -5.92595 0.946076 0
M  V30 1164 H 103.602 -4.6174 1.48068 0
M  V30 1165 N 104.945 -0.338344 -1.53925 0
M  V30 1166 C 105.855 0.529421 -2.28548 0
M  V30 1167 C 106.871 1.11645 -1.3346 0
M  V30 1168 O 108.047 1.13325 -1.66492 0
M  V30 1169 C 105.112 1.66713 -3.03987 0
M  V30 1170 C 104.173 1.11041 -4.14691 0
M  V30 1171 C 103.406 2.19389 -4.86522 0
M  V30 1172 O 103.629 3.40013 -4.57982 0
M  V30 1173 O 102.563 1.83976 -5.73094 0
M  V30 1174 H 106.389 -0.0770399 -3.03602 0
M  V30 1175 H 103.974 -0.103555 -1.49041 0
M  V30 1176 H 105.856 2.32918 -3.5118 0
M  V30 1177 H 104.531 2.25949 -2.31794 0
M  V30 1178 H 103.438 0.413024 -3.71813 0
M  V30 1179 H 104.771 0.562975 -4.8897 0
M  V30 1180 N 106.423 1.57458 -0.0668435 0
M  V30 1181 C 107.386 2.11323 0.887422 0
M  V30 1182 C 108.386 1.03618 1.22964 0
M  V30 1183 O 109.576 1.29626 1.16373 0
M  V30 1184 C 106.708 2.61048 2.19242 0
M  V30 1185 H 107.901 2.96942 0.420194 0
M  V30 1186 H 105.454 1.55239 0.181793 0
M  V30 1187 H 106.189 1.78868 2.70512 0
M  V30 1188 H 105.974 3.39769 1.95702 0
M  V30 1189 H 107.464 3.02814 2.87565 0
M  V30 1190 N 107.901 -0.206675 1.56239 0
M  V30 1191 C 108.811 -1.27686 1.96808 0
M  V30 1192 C 109.827 -1.50455 0.874035 0
M  V30 1193 O 111.003 -1.63295 1.17884 0
M  V30 1194 C 108.068 -2.60358 2.28942 0
M  V30 1195 C 107.129 -2.45762 3.51994 0
M  V30 1196 C 106.362 -3.72108 3.82585 0
M  V30 1197 O 106.585 -4.75776 3.14631 0
M  V30 1198 O 105.519 -3.6833 4.76043 0
M  V30 1199 H 109.345 -0.962593 2.88041 0
M  V30 1200 H 106.93 -0.410746 1.43643 0
M  V30 1201 H 108.812 -3.38687 2.50737 0
M  V30 1202 H 107.487 -2.91435 1.4088 0
M  V30 1203 H 106.394 -1.65584 3.35459 0
M  V30 1204 H 107.727 -2.19621 4.40486 0
M  V30 1205 N 109.379 -1.50304 -0.473955 0
M  V30 1206 C 110.309 -1.71886 -1.58042 0
M  V30 1207 C 111.29 -0.567799 -1.60344 0
M  V30 1208 O 112.475 -0.806623 -1.76656 0
M  V30 1209 C 109.605 -1.81036 -2.96384 0
M  V30 1210 C 108.559 -2.962 -3.08949 0
M  V30 1211 C 107.885 -2.9049 -4.48909 0
M  V30 1212 C 109.185 -4.36752 -2.86434 0
M  V30 1213 H 110.879 -2.64527 -1.40234 0
M  V30 1214 H 108.425 -1.27295 -0.673201 0
M  V30 1215 H 110.378 -1.94719 -3.73714 0
M  V30 1216 H 109.102 -0.850147 -3.15341 0
M  V30 1217 H 107.761 -2.82164 -2.3405 0
M  V30 1218 H 107.409 -1.92321 -4.64781 0
M  V30 1219 H 107.109 -3.67802 -4.58253 0
M  V30 1220 H 108.633 -3.06218 -5.28264 0
M  V30 1221 H 110.047 -4.5133 -3.53517 0
M  V30 1222 H 108.444 -5.15493 -3.07225 0
M  V30 1223 H 109.514 -4.49321 -1.82316 0
M  V30 1224 N 110.857 0.726932 -1.39834 0
M  V30 1225 C 112.268 1.30558 -1.3346 0
M  V30 1226 C 112.619 1.962 -0.00273003 0
M  V30 1227 O 111.744 1.96826 0.899371 0
M  V30 1228 C 112.339 2.37404 -2.41713 0
M  V30 1229 C 110.898 2.90921 -2.38835 0
M  V30 1230 C 110.045 1.64578 -2.2318 0
M  V30 1231 H 112.996 0.523862 -1.49804 0
M  V30 1232 H 113.017 3.17984 -2.08966 0
M  V30 1233 H 112.529 1.89599 -3.38635 0
M  V30 1234 H 110.63 3.42985 -1.45575 0
M  V30 1235 H 110.743 3.43487 -3.33997 0
M  V30 1236 H 109.107 1.89219 -1.70494 0
M  V30 1237 H 109.89 1.18814 -3.22084 0
M  V30 1238 N 112.336 1.25143 0.95797 0
M  V30 1239 C 113.613 1.00472 1.67823 0
M  V30 1240 C 113.993 -0.470056 2.058 0
M  V30 1241 O 113.341 -1.44663 1.76875 0
M  V30 1242 C 113.551 1.9372 2.90299 0
M  V30 1243 C 114.899 2.21371 3.62326 0
M  V30 1244 O 115.923 1.91451 3.00375 0
M  V30 1245 O 114.782 2.72231 4.7387 0
M  V30 1246 H 111.876 0.380752 0.734137 0
M  V30 1247 H 114.422 1.36283 1.01119 0
M  V30 1248 H 113.194 2.93316 2.59001 0
M  V30 1249 H 112.817 1.58286 3.64735 0
M  V30 1250 N 113.814 -1.1601 1.06675 0
M  V30 1251 C 115.091 -1.82679 0.699114 0
M  V30 1252 C 115.471 -1.94559 -0.819137 0
M  V30 1253 O 114.819 -1.49169 -1.73092 0
M  V30 1254 C 115.029 -3.19445 1.40555 0
M  V30 1255 C 116.377 -3.95171 1.55323 0
M  V30 1256 O 117.401 -3.28976 1.36577 0
M  V30 1257 O 116.26 -5.13833 1.86112 0
M  V30 1258 H 113.354 -0.788954 0.247951 0
M  V30 1259 H 115.9 -1.23179 1.16726 0
M  V30 1260 H 114.672 -3.05856 2.44065 0
M  V30 1261 H 114.295 -3.86625 0.927733 0
M  V30 1262 N 115.292 -0.849877 -1.32721 0
M  V30 1263 C 116.539 -0.450923 -1.97416 0
M  V30 1264 C 116.867 0.992376 -1.67279 0
M  V30 1265 O 116.122 1.71048 -0.950845 0
M  V30 1266 C 116.421 -0.631272 -3.51781 0
M  V30 1267 C 116.087 -2.04432 -4.01894 0
M  V30 1268 C 114.749 -2.4308 -4.1529 0
M  V30 1269 C 117.101 -2.96679 -4.28522 0
M  V30 1270 C 114.429 -3.73257 -4.52654 0
M  V30 1271 C 116.781 -4.26349 -4.67343 0
M  V30 1272 C 115.445 -4.64939 -4.78945 0
M  V30 1273 H 114.715 -0.165004 -0.722395 0
M  V30 1274 H 117.362 -1.07901 -1.58207 0
M  V30 1275 H 115.667 0.0800767 -3.91718 0
M  V30 1276 H 117.364 -0.302709 -3.99856 0
M  V30 1277 H 113.954 -1.73419 -3.91949 0
M  V30 1278 H 118.138 -2.68054 -4.17685 0
M  V30 1279 H 113.394 -4.02946 -4.59831 0
M  V30 1280 H 117.568 -4.97895 -4.86902 0
M  V30 1281 H 115.195 -5.65855 -5.07654 0
M  V30 1282 N 116.77 1.45427 -0.607355 0
M  V30 1283 C 117.998 2.06614 -0.108814 0
M  V30 1284 C 118.413 1.45204 1.2067 0
M  V30 1285 O 117.77 0.566132 1.73497 0
M  V30 1286 C 117.821 3.61481 0.0375347 0
M  V30 1287 O 117.542 4.20598 -1.22593 0
M  V30 1288 C 119.043 4.39652 0.567561 0
M  V30 1289 H 116.263 0.66747 -0.0687351 0
M  V30 1290 H 118.807 1.86675 -0.835022 0
M  V30 1291 H 116.962 3.80762 0.714068 0
M  V30 1292 H 117.376 5.1377 -1.05547 0
M  V30 1293 H 118.85 5.48518 0.61905 0
M  V30 1294 H 119.327 4.09417 1.58978 0
M  V30 1295 H 119.933 4.25234 -0.0749202 0
M  V30 1296 N 118.248 0.346503 1.53744 0
M  V30 1297 C 119.211 -0.496439 2.23759 0
M  V30 1298 C 120.211 -1.0252 1.2388 0
M  V30 1299 O 121.401 -0.913974 1.48297 0
M  V30 1300 C 118.533 -1.69187 2.95954 0
M  V30 1301 H 119.726 0.115952 2.99676 0
M  V30 1302 H 117.279 0.0978939 1.55993 0
M  V30 1303 H 118.014 -2.34288 2.24231 0
M  V30 1304 H 117.799 -1.31989 3.69217 0
M  V30 1305 H 119.289 -2.28969 3.49232 0
M  V30 1306 N 119.726 -1.57421 0.075193 0
M  V30 1307 C 120.676 -2.09441 -0.901025 0
M  V30 1308 C 121.66 -1.00486 -1.25663 0
M  V30 1309 O 122.852 -1.2679 -1.23504 0
M  V30 1310 C 119.981 -2.66233 -2.16737 0
M  V30 1311 C 119.067 -3.82198 -1.83808 0
M  V30 1312 N 119.458 -4.91028 -1.21345 0
M  V30 1313 C 117.756 -3.91558 -2.13538 0
M  V30 1314 C 118.457 -5.71852 -1.06585 0
M  V30 1315 N 117.433 -5.20233 -1.57667 0
M  V30 1316 H 121.235 -2.90972 -0.413815 0
M  V30 1317 H 118.749 -1.6189 -0.128601 0
M  V30 1318 H 120.746 -3.01819 -2.87595 0
M  V30 1319 H 119.406 -1.8615 -2.66042 0
M  V30 1320 H 120.417 -5.10323 -0.88268 0
M  V30 1321 H 117.094 -3.22454 -2.65197 0
M  V30 1322 H 118.484 -6.69401 -0.578933 0
M  V30 1323 N 121.204 0.198386 -1.56346 0
M  V30 1324 C 122.134 1.24865 -1.9731 0
M  V30 1325 C 123.115 1.47651 -0.844576 0
M  V30 1326 O 124.3 1.59444 -1.10866 0
M  V30 1327 C 121.43 2.59358 -2.30977 0
M  V30 1328 C 120.384 2.5119 -3.46537 0
M  V30 1329 C 119.71 3.89926 -3.65871 0
M  V30 1330 C 121.01 2.03977 -4.80823 0
M  V30 1331 H 122.704 0.908252 -2.85291 0
M  V30 1332 H 120.25 0.435462 -1.37258 0
M  V30 1333 H 122.203 3.33011 -2.58228 0
M  V30 1334 H 120.927 2.95132 -1.39874 0
M  V30 1335 H 119.586 1.79993 -3.19371 0
M  V30 1336 H 119.234 4.23046 -2.72105 0
M  V30 1337 H 118.934 3.85336 -4.4361 0
M  V30 1338 H 120.458 4.65205 -3.95495 0
M  V30 1339 H 121.872 2.67386 -5.07127 0
M  V30 1340 H 120.269 2.10397 -5.62008 0
M  V30 1341 H 121.339 0.992861 -4.74626 0
M  V30 1342 N 122.682 1.50554 0.465978 0
M  V30 1343 C 123.929 1.61798 1.21768 0
M  V30 1344 C 124.257 0.320696 1.91838 0
M  V30 1345 O 123.512 -0.693724 1.82992 0
M  V30 1346 C 123.811 2.75152 2.28093 0
M  V30 1347 C 123.477 4.15454 1.75239 0
M  V30 1348 C 122.139 4.53628 1.60546 0
M  V30 1349 C 124.491 5.03121 1.36083 0
M  V30 1350 C 121.819 5.77204 1.05128 0
M  V30 1351 C 124.171 6.27249 0.821056 0
M  V30 1352 C 122.835 6.64221 0.660795 0
M  V30 1353 H 122.105 0.592063 0.445582 0
M  V30 1354 H 124.752 1.84503 0.512927 0
M  V30 1355 H 123.057 2.46556 3.04496 0
M  V30 1356 H 124.754 2.81055 2.86023 0
M  V30 1357 H 121.344 3.85341 1.87644 0
M  V30 1358 H 125.528 4.74257 1.46267 0
M  V30 1359 H 120.784 6.0452 0.91462 0
M  V30 1360 H 124.958 6.94537 0.509018 0
M  V30 1361 H 122.585 7.59854 0.229226 0
M  V30 1362 N 124.16 -0.719506 1.40217 0
M  V30 1363 C 125.093 -1.84298 1.34571 0
M  V30 1364 C 126.071 -1.61149 0.216741 0
M  V30 1365 O 127.255 -1.84212 0.399756 0
M  V30 1366 C 124.382 -3.20568 1.09335 0
M  V30 1367 C 123.428 -3.62551 2.24631 0
M  V30 1368 S 124.261 -3.7012 3.87004 0
M  V30 1369 C 125.417 -5.09154 3.64024 0
M  V30 1370 H 125.65 -1.88807 2.2965 0
M  V30 1371 H 123.183 -0.885901 1.26456 0
M  V30 1372 H 125.141 -3.99246 0.954602 0
M  V30 1373 H 123.802 -3.13696 0.159164 0
M  V30 1374 H 122.995 -4.61483 2.02606 0
M  V30 1375 H 122.597 -2.91119 2.34789 0
M  V30 1376 H 124.889 -5.95955 3.22248 0
M  V30 1377 H 125.832 -5.36213 4.62473 0
M  V30 1378 H 126.24 -4.79562 2.97793 0
M  V30 1379 N 125.638 -1.25649 -0.95132 0
M  V30 1380 C 126.863 -1.13443 -1.73624 0
M  V30 1381 C 127.288 0.307565 -1.85568 0
M  V30 1382 O 126.646 1.22282 -1.33854 0
M  V30 1383 C 126.694 -1.79723 -3.12621 0
M  V30 1384 O 125.798 -1.07912 -3.98031 0
M  V30 1385 H 125.139 -0.395872 -0.533086 0
M  V30 1386 H 127.669 -1.66276 -1.1922 0
M  V30 1387 H 127.679 -1.86141 -3.63064 0
M  V30 1388 H 126.354 -2.84633 -3.03244 0
M  V30 1389 H 124.931 -1.09398 -3.56492 0
M  V30 1390 N 127.117 1.15442 -1.07289 0
M  V30 1391 C 128.364 1.86213 -0.795668 0
M  V30 1392 C 128.692 1.82291 0.678238 0
M  V30 1393 O 127.947 1.24057 1.51355 0
M  V30 1394 C 128.246 3.3489 -1.24834 0
M  V30 1395 C 127.912 3.59007 -2.72809 0
M  V30 1396 C 126.574 3.65298 -3.13227 0
M  V30 1397 C 128.926 3.68762 -3.68326 0
M  V30 1398 C 126.254 3.78854 -4.4798 0
M  V30 1399 C 128.606 3.83842 -5.0284 0
M  V30 1400 C 127.27 3.88378 -5.4288 0
M  V30 1401 H 126.54 0.681403 -0.291155 0
M  V30 1402 H 129.187 1.36435 -1.34379 0
M  V30 1403 H 127.492 3.8687 -0.619595 0
M  V30 1404 H 129.189 3.88052 -1.01076 0
M  V30 1405 H 125.779 3.5475 -2.40521 0
M  V30 1406 H 129.963 3.63202 -3.38227 0
M  V30 1407 H 125.219 3.80623 -4.78472 0
M  V30 1408 H 129.393 3.90332 -5.76727 0
M  V30 1409 H 127.02 3.98635 -6.47298 0
M  V30 1410 N 128.595 0.856903 1.32268 0
M  V30 1411 C 129.82 0.474569 2.01897 0
M  V30 1412 C 130.245 -0.921766 1.63967 0
M  V30 1413 O 129.603 -1.60589 0.84148 0
M  V30 1414 C 129.651 0.623799 3.55164 0
M  V30 1415 O 128.755 -0.342459 4.10976 0
M  V30 1416 H 128.096 0.190422 0.63611 0
M  V30 1417 H 130.626 1.15672 1.68764 0
M  V30 1418 H 130.636 0.512169 4.04773 0
M  V30 1419 H 129.311 1.64202 3.82113 0
M  V30 1420 H 127.888 -0.18688 3.72431 0
M  V30 1421 N 130.073 -1.45103 0.615059 0
M  V30 1422 C 131.021 -2.32331 -0.111791 0
M  V30 1423 C 132.015 -1.46409 -0.852102 0
M  V30 1424 O 133.221 -1.62849 -0.766821 0
M  V30 1425 H 129.596 -0.749993 -0.0549072 0
M  V30 1426 H 131.567 -2.91407 0.642225 0
M  V30 1427 C 130.316 -3.3015 -1.09071 0
M  V30 1428 H 129.639 -3.96265 -0.530485 0
M  V30 1429 H 131.079 -3.93898 -1.56908 0
M  V30 1430 C 129.538 -2.57875 -2.168 0
M  V30 1431 O 130.068 -2.36567 -3.24652 0
M  V30 1432 N 128.274 -2.17884 -1.92289 0
M  V30 1433 H 127.821 -2.35413 -1.04587 0
M  V30 1434 H 127.779 -1.6985 -2.64572 0
M  V30 1435 N 131.551 -0.354651 -1.53558 0
M  V30 1436 C 132.498 0.496968 -2.25386 0
M  V30 1437 C 133.468 1.0865 -1.25636 0
M  V30 1438 O 134.653 1.12104 -1.54394 0
M  V30 1439 C 131.793 1.63637 -3.03837 0
M  V30 1440 C 130.906 1.07307 -4.18461 0
M  V30 1441 C 130.041 2.18068 -4.84376 0
M  V30 1442 C 129.08 1.59147 -5.91049 0
M  V30 1443 N 128.217 2.63695 -6.50699 0
M  V30 1444 H 133.057 -0.122075 -2.9775 0
M  V30 1445 H 130.594 -0.0720154 -1.46924 0
M  V30 1446 H 132.552 2.30734 -3.47589 0
M  V30 1447 H 131.182 2.22623 -2.33749 0
M  V30 1448 H 130.234 0.292708 -3.79272 0
M  V30 1449 H 131.546 0.602193 -4.95152 0
M  V30 1450 H 130.7 2.93007 -5.31255 0
M  V30 1451 H 129.439 2.68504 -4.07133 0
M  V30 1452 H 128.444 0.827175 -5.43542 0
M  V30 1453 H 129.669 1.09549 -6.70206 0
M  V30 1454 H 127.615 3.13365 -5.76315 0
M  V30 1455 H 127.532 2.21263 -7.22896 0
M  V30 1456 H 128.8 3.3837 -7.02229 0
M  V30 1457 N 133.029 1.57378 -0.0835403 0
M  V30 1458 C 134.276 1.9393 0.58287 0
M  V30 1459 C 134.604 0.964455 1.68904 0
M  V30 1460 O 133.859 -0.0179474 1.95692 0
M  V30 1461 C 134.158 3.37063 1.1884 0
M  V30 1462 C 133.824 4.50424 0.207194 0
M  V30 1463 C 132.486 4.81159 -0.0627115 0
M  V30 1464 C 134.838 5.19136 -0.463426 0
M  V30 1465 C 132.166 5.77939 -1.01012 0
M  V30 1466 C 134.518 6.16931 -1.39924 0
M  V30 1467 C 133.182 6.46078 -1.67749 0
M  V30 1468 H 132.452 0.70964 0.213287 0
M  V30 1469 H 135.099 1.90856 -0.156916 0
M  V30 1470 H 133.404 3.3666 2.00418 0
M  V30 1471 H 135.101 3.6264 1.71153 0
M  V30 1472 H 131.691 4.2646 0.427747 0
M  V30 1473 H 135.875 4.95576 -0.268034 0
M  V30 1474 H 131.131 5.98842 -1.23283 0
M  V30 1475 H 135.305 6.69273 -1.92476 0
M  V30 1476 H 132.932 7.2088 -2.41321 0
M  V30 1477 N 134.507 -0.190092 1.56449 0
M  V30 1478 C 135.918 -0.754312 1.70784 0
M  V30 1479 C 136.269 -1.83631 0.690951 0
M  V30 1480 O 135.394 -2.15868 -0.151604 0
M  V30 1481 C 135.989 -1.37503 3.09642 0
M  V30 1482 C 134.548 -1.88628 3.25725 0
M  V30 1483 C 133.695 -0.758098 2.66736 0
M  V30 1484 H 136.646 0.0350524 1.58661 0
M  V30 1485 H 136.667 -2.2445 3.0725 0
M  V30 1486 H 136.179 -0.587302 3.83631 0
M  V30 1487 H 134.28 -2.70103 2.56661 0
M  V30 1488 H 134.393 -2.04462 4.3328 0
M  V30 1489 H 132.757 -1.17369 2.26046 0
M  V30 1490 H 133.54 0.0174705 3.43296 0
M  V30 1491 N 135.985 -1.50799 -0.457987 0
M  V30 1492 C 136.935 -1.67003 -1.55222 0
M  V30 1493 C 137.919 -0.52434 -1.52117 0
M  V30 1494 O 139.111 -0.779345 -1.58919 0
M  V30 1495 C 136.24 -1.77956 -2.93576 0
M  V30 1496 C 135.326 -2.98243 -3.01516 0
M  V30 1497 N 135.717 -4.21732 -2.79241 0
M  V30 1498 C 134.015 -2.97072 -3.32662 0
M  V30 1499 C 134.716 -5.02817 -2.92489 0
M  V30 1500 N 133.692 -4.37038 -3.23262 0
M  V30 1501 H 137.494 -2.60163 -1.36721 0
M  V30 1502 H 135.008 -1.48163 -0.664952 0
M  V30 1503 H 137.005 -1.87671 -3.72271 0
M  V30 1504 H 135.665 -0.859634 -3.13114 0
M  V30 1505 H 136.676 -4.51016 -2.54567 0
M  V30 1506 H 133.353 -2.14631 -3.58106 0
M  V30 1507 H 134.743 -6.11054 -2.79396 0
M  V30 1508 N 137.463 0.71206 -1.40597 0
M  V30 1509 C 138.688 1.50617 -1.42581 0
M  V30 1510 C 139.113 1.88079 -0.0282102 0
M  V30 1511 O 138.471 1.53511 0.964579 0
M  V30 1512 C 138.519 2.7557 -2.3258 0
M  V30 1513 O 137.623 3.72414 -1.77148 0
M  V30 1514 H 136.964 0.453966 -0.484573 0
M  V30 1515 H 139.494 0.876649 -1.84868 0
M  V30 1516 H 139.504 3.2406 -2.47889 0
M  V30 1517 H 138.179 2.47639 -3.34138 0
M  V30 1518 H 136.756 3.31276 -1.71204 0
M  V30 1519 N 138.941 1.26152 0.944643 0
M  V30 1520 C 140.166 1.14363 1.7302 0
M  V30 1521 C 140.591 -0.29772 1.85729 0
M  V30 1522 O 139.949 -1.2157 1.34501 0
M  V30 1523 C 139.997 1.81378 3.11664 0
M  V30 1524 O 139.101 1.10022 3.97453 0
M  V30 1525 H 138.442 0.398694 0.53098 0
M  V30 1526 H 140.972 1.66906 1.18337 0
M  V30 1527 H 140.982 1.88064 3.62072 0
M  V30 1528 H 139.657 2.86237 3.0173 0
M  V30 1529 H 138.234 1.11287 3.55907 0
M  V30 1530 N 140.419 -1.14872 1.07899 0
M  V30 1531 C 141.83 -1.67367 0.827363 0
M  V30 1532 C 142.181 -1.85236 -0.646693 0
M  V30 1533 O 141.306 -1.55974 -1.50004 0
M  V30 1534 C 141.901 -3.04016 1.49532 0
M  V30 1535 C 140.46 -3.53566 1.29106 0
M  V30 1536 C 139.607 -2.29161 1.56143 0
M  V30 1537 H 142.558 -0.990083 1.24028 0
M  V30 1538 H 142.579 -3.69219 0.919643 0
M  V30 1539 H 142.091 -2.90978 2.56814 0
M  V30 1540 H 140.192 -3.71835 0.238713 0
M  V30 1541 H 140.305 -4.34661 2.01511 0
M  V30 1542 H 138.669 -2.34978 0.982717 0
M  V30 1543 H 139.452 -2.18705 2.64619 0
M  V30 1544 N 141.898 -0.863906 -1.31812 0
M  V30 1545 C 142.831 -0.259963 -2.26714 0
M  V30 1546 C 143.809 0.607392 -1.50829 0
M  V30 1547 O 144.993 0.562155 -1.79922 0
M  V30 1548 C 142.12 0.632456 -3.32743 0
M  V30 1549 C 141.166 -0.162743 -4.26189 0
M  V30 1550 S 141.999 -1.53726 -5.12961 0
M  V30 1551 C 143.155 -0.650803 -6.22507 0
M  V30 1552 H 143.388 -1.06445 -2.77591 0
M  V30 1553 H 140.921 -0.662071 -1.39485 0
M  V30 1554 H 142.879 1.14167 -3.94305 0
M  V30 1555 H 141.54 1.41083 -2.80632 0
M  V30 1556 H 140.733 0.517366 -5.01338 0
M  V30 1557 H 140.335 -0.60385 -3.69093 0
M  V30 1558 H 142.627 0.141134 -6.77353 0
M  V30 1559 H 143.57 -1.37322 -6.94657 0
M  V30 1560 H 143.978 -0.221041 -5.64067 0
M  V30 1561 N 143.376 1.44774 -0.622745 0
M  V30 1562 C 144.622 2.0242 -0.124083 0
M  V30 1563 C 144.955 1.4881 1.24777 0
M  V30 1564 O 144.23 0.668799 1.8264 0
M  V30 1565 C 144.513 3.59957 -0.101619 0
M  V30 1566 C 144.366 4.23867 -1.50521 0
M  V30 1567 C 145.685 4.36284 0.578272 0
M  V30 1568 H 142.804 0.735528 -0.0465645 0
M  V30 1569 H 145.446 1.72447 -0.797617 0
M  V30 1570 H 143.596 3.85623 0.471934 0
M  V30 1571 H 145.268 4.09336 -2.12701 0
M  V30 1572 H 143.511 3.81684 -2.06154 0
M  V30 1573 H 144.182 5.32843 -1.4416 0
M  V30 1574 H 146.658 4.16001 0.0906057 0
M  V30 1575 H 145.534 5.46004 0.563149 0
M  V30 1576 H 145.795 4.10271 1.64713 0
M  V30 1577 N 144.854 0.36279 1.53368 0
M  V30 1578 C 145.801 -0.485008 2.25646 0
M  V30 1579 C 146.771 -1.07982 1.2621 0
M  V30 1580 O 147.956 -1.11284 1.54986 0
M  V30 1581 C 145.096 -1.62023 3.04701 0
M  V30 1582 C 144.209 -1.05086 4.19024 0
M  V30 1583 C 143.344 -2.15496 4.85525 0
M  V30 1584 C 142.383 -1.5601 5.91884 0
M  V30 1585 N 141.52 -2.60241 6.52088 0
M  V30 1586 H 146.36 0.137864 2.97681 0
M  V30 1587 H 143.897 0.0798061 1.46883 0
M  V30 1588 H 145.855 -2.28887 3.48807 0
M  V30 1589 H 144.485 -2.2138 2.34927 0
M  V30 1590 H 143.537 -0.27259 3.79422 0
M  V30 1591 H 144.849 -0.575926 4.95464 0
M  V30 1592 H 144.003 -2.90186 5.32801 0
M  V30 1593 H 142.742 -2.66341 4.08551 0
M  V30 1594 H 141.747 -0.798338 5.43973 0
M  V30 1595 H 142.972 -1.05994 6.70777 0
M  V30 1596 H 140.918 -3.10304 5.77968 0
M  V30 1597 H 140.835 -2.17426 7.24059 0
M  V30 1598 H 142.103 -3.34641 7.04014 0
M  V30 1599 N 146.332 -1.57332 0.0918853 0
M  V30 1600 C 147.557 -1.98995 -0.584442 0
M  V30 1601 C 147.982 -0.970528 -1.61128 0
M  V30 1602 O 147.34 0.0613904 -1.81196 0
M  V30 1603 C 147.388 -3.39636 -1.21161 0
M  V30 1604 O 146.492 -3.40447 -2.32744 0
M  V30 1605 H 145.833 -0.647165 -0.148572 0
M  V30 1606 H 148.363 -2.03873 0.172347 0
M  V30 1607 H 148.373 -3.7726 -1.55367 0
M  V30 1608 H 147.048 -4.13356 -0.459313 0
M  V30 1609 H 145.625 -3.14614 -2.0018 0
M  V30 1610 N 147.81 0.181792 -1.56548 0
M  V30 1611 C 148.757 1.22521 -1.95595 0
M  V30 1612 C 149.727 1.4454 -0.818373 0
M  V30 1613 O 150.912 1.57454 -1.07763 0
M  V30 1614 C 148.052 2.56193 -2.31212 0
M  V30 1615 C 147.165 2.41641 -3.58097 0
M  V30 1616 C 146.3 3.68108 -3.82975 0
M  V30 1617 C 145.339 3.48445 -5.03242 0
M  V30 1618 N 144.476 4.66956 -5.24306 0
M  V30 1619 H 149.316 0.885226 -2.84548 0
M  V30 1620 H 146.853 0.425718 -1.40805 0
M  V30 1621 H 148.811 3.34088 -2.49882 0
M  V30 1622 H 147.441 2.88208 -1.45382 0
M  V30 1623 H 146.493 1.54976 -3.474 0
M  V30 1624 H 147.805 2.23052 -4.46149 0
M  V30 1625 H 146.959 4.54441 -4.01956 0
M  V30 1626 H 145.698 3.89666 -2.93278 0
M  V30 1627 H 144.703 2.60499 -4.8417 0
M  V30 1628 H 145.928 3.2832 -5.9446 0
M  V30 1629 H 143.874 4.88752 -4.37559 0
M  V30 1630 H 143.791 4.51242 -6.06561 0
M  V30 1631 H 145.059 5.54602 -5.47756 0
M  V30 1632 N 149.288 1.51039 0.449983 0
M  V30 1633 C 150.699 1.557 1.03026 0
M  V30 1634 C 151.05 0.372939 1.92623 0
M  V30 1635 O 150.175 -0.511771 2.10261 0
M  V30 1636 C 150.77 2.82171 1.87523 0
M  V30 1637 C 149.329 2.89444 2.40622 0
M  V30 1638 C 148.476 2.50228 1.19504 0
M  V30 1639 H 151.427 1.56999 0.231745 0
M  V30 1640 H 151.448 2.65219 2.72835 0
M  V30 1641 H 150.96 3.68331 1.22286 0
M  V30 1642 H 149.061 2.07685 3.0935 0
M  V30 1643 H 149.174 3.92816 2.74285 0
M  V30 1644 H 147.538 2.03139 1.53644 0
M  V30 1645 H 148.321 3.38719 0.558972 0
M  V30 1646 N 150.766 -0.704594 1.40972 0
M  V30 1647 C 151.729 -1.80035 1.41845 0
M  V30 1648 C 152.729 -1.57774 0.310474 0
M  V30 1649 O 153.919 -1.64613 0.56992 0
M  V30 1650 C 151.051 -3.18284 1.22098 0
M  V30 1651 H 152.244 -1.80658 2.3938 0
M  V30 1652 H 149.797 -0.911329 1.26982 0
M  V30 1653 H 150.532 -3.23306 0.253672 0
M  V30 1654 H 150.317 -3.35843 2.02366 0
M  V30 1655 H 151.807 -3.98289 1.25522 0
M  V30 1656 N 152.244 -1.26651 -0.937939 0
M  V30 1657 C 153.174 -1.10993 -2.05433 0
M  V30 1658 C 154.155 -0.0142161 -1.70094 0
M  V30 1659 O 155.34 -0.186837 -1.93299 0
M  V30 1660 C 152.47 -0.745561 -3.39203 0
M  V30 1661 C 151.424 -1.79337 -3.88616 0
M  V30 1662 C 150.75 -1.28324 -5.19073 0
M  V30 1663 C 152.05 -3.19553 -4.13138 0
M  V30 1664 H 153.744 -2.0438 -2.1879 0
M  V30 1665 H 151.29 -0.984041 -1.05131 0
M  V30 1666 H 153.243 -0.622888 -4.16771 0
M  V30 1667 H 151.967 0.22401 -3.25831 0
M  V30 1668 H 150.626 -1.90477 -3.13231 0
M  V30 1669 H 150.274 -0.303414 -5.02084 0
M  V30 1670 H 149.974 -1.98369 -5.53103 0
M  V30 1671 H 151.498 -1.1733 -5.99221 0
M  V30 1672 H 152.912 -3.11471 -4.81309 0
M  V30 1673 H 151.309 -3.87218 -4.58457 0
M  V30 1674 H 152.379 -3.65368 -3.18801 0
M  V30 1675 N 153.722 1.14298 -1.08507 0
M  V30 1676 C 154.652 2.21542 -0.737646 0
M  V30 1677 C 155.633 1.67773 0.280377 0
M  V30 1678 O 156.818 1.93616 0.150521 0
M  V30 1679 C 153.948 3.46988 -0.147259 0
M  V30 1680 C 152.902 4.13789 -1.09374 0
M  V30 1681 C 152.228 5.33449 -0.365524 0
M  V30 1682 C 153.528 4.62208 -2.4323 0
M  V30 1683 H 155.222 2.5086 -1.6343 0
M  V30 1684 H 152.768 1.20576 -0.787243 0
M  V30 1685 H 154.721 4.21262 0.107808 0
M  V30 1686 H 153.445 3.17037 0.784538 0
M  V30 1687 H 152.104 3.4147 -1.33393 0
M  V30 1688 H 151.752 4.99759 0.57011 0
M  V30 1689 H 151.452 5.79088 -0.996512 0
M  V30 1690 H 152.976 6.10485 -0.118534 0
M  V30 1691 H 154.39 5.27952 -2.23472 0
M  V30 1692 H 152.787 5.18553 -3.02031 0
M  V30 1693 H 153.857 3.77224 -3.04681 0
M  V30 1694 N 155.201 0.870884 1.31352 0
M  V30 1695 C 156.426 0.495957 2.01383 0
M  V30 1696 C 156.851 -0.904324 1.64935 0
M  V30 1697 O 156.209 -1.59687 0.858466 0
M  V30 1698 C 156.257 0.661433 3.54482 0
M  V30 1699 O 155.361 -0.298851 4.11316 0
M  V30 1700 H 154.702 0.197158 0.634054 0
M  V30 1701 H 157.232 1.17455 1.67527 0
M  V30 1702 H 157.242 0.555072 4.04207 0
M  V30 1703 H 155.917 1.68246 3.8035 0
M  V30 1704 H 154.494 -0.147368 3.72609 0
M  V30 1705 N 156.679 -1.44442 0.630414 0
M  V30 1706 C 157.927 -2.01653 0.134351 0
M  V30 1707 C 158.248 -1.49836 -1.24796 0
M  V30 1708 O 157.518 -0.701684 -1.82902 0
M  V30 1709 H 156.098 -0.74554 0.0466769 0
M  V30 1710 H 158.76 -1.76952 0.816955 0
M  V30 1711 H 157.856 -3.11935 0.101498 0
M  V30 1712 N 158.157 -0.370918 -1.53173 0
M  V30 1713 C 159.405 0.216673 -2.00935 0
M  V30 1714 C 159.726 1.48845 -1.25977 0
M  V30 1715 O 158.996 1.92286 -0.374551 0
M  V30 1716 H 157.576 0.0830565 -0.742368 0
M  V30 1717 H 160.238 -0.49838 -1.8842 0
M  V30 1718 H 159.334 0.439893 -3.08984 0
M  V30 1719 N 159.635 1.57281 -0.100228 0
M  V30 1720 C 160.565 2.17328 0.853857 0
M  V30 1721 C 161.546 1.10804 1.2906 0
M  V30 1722 O 162.731 1.38963 1.35657 0
M  V30 1723 C 159.861 2.75772 2.11109 0
M  V30 1724 C 158.815 3.87713 1.81279 0
M  V30 1725 C 158.141 4.32882 3.13874 0
M  V30 1726 C 159.441 5.10677 1.09574 0
M  V30 1727 H 161.135 2.97305 0.353545 0
M  V30 1728 H 158.681 1.43009 0.168612 0
M  V30 1729 H 160.634 3.16433 2.78296 0
M  V30 1730 H 159.358 1.93057 2.63432 0
M  V30 1731 H 158.017 3.476 1.16489 0
M  V30 1732 H 157.665 3.47051 3.64095 0
M  V30 1733 H 157.365 5.08358 2.94696 0
M  V30 1734 H 158.889 4.7618 3.82211 0
M  V30 1735 H 160.303 5.48474 1.66879 0
M  V30 1736 H 158.7 5.91615 1.00557 0
M  V30 1737 H 159.77 4.84835 0.0793299 0
M  V30 1738 N 161.113 -0.173488 1.56642 0
M  V30 1739 C 162.529 -0.525174 1.50712 0
M  V30 1740 C 162.729 -1.8476 0.804107 0
M  V30 1741 O 161.785 -2.49869 0.363574 0
M  V30 1742 C 163.098 -0.559937 2.95441 0
M  V30 1743 C 164.646 -0.647288 3.06234 0
M  V30 1744 C 165.121 -0.712963 4.52417 0
M  V30 1745 N 166.612 -0.775911 4.56655 0
M  V30 1746 C 167.347 -0.847264 5.67106 0
M  V30 1747 N 166.843 -0.879585 6.87194 0
M  V30 1748 N 168.636 -0.886117 5.55071 0
M  V30 1749 H 160.787 0.693681 2.00753 0
M  V30 1750 H 163.05 0.249841 0.914485 0
M  V30 1751 H 162.756 0.343049 3.50023 0
M  V30 1752 H 162.63 -1.40718 3.49969 0
M  V30 1753 H 165.017 -1.5407 2.51687 0
M  V30 1754 H 165.098 0.226586 2.54794 0
M  V30 1755 H 164.742 0.176183 5.07594 0
M  V30 1756 H 164.672 -1.60295 5.0161 0
M  V30 1757 H 167.163 -0.759304 3.70193 0
M  V30 1758 H 167.476 -0.935144 7.67121 0
M  V30 1759 H 165.821 -0.847898 6.89808 0
M  V30 1760 H 169.012 -0.857853 4.60172 0
M  V30 1761 H 169.185 -0.938263 6.41171 0
M  V30 1762 N 162.591 -1.51276 -0.441967 0
M  V30 1763 C 163.524 -1.66933 -1.55591 0
M  V30 1764 C 164.502 -0.516958 -1.54163 0
M  V30 1765 O 165.686 -0.740209 -1.73358 0
M  V30 1766 C 162.813 -1.67866 -2.94174 0
M  V30 1767 C 161.859 -2.89013 -3.13646 0
M  V30 1768 S 162.692 -4.49897 -2.90436 0
M  V30 1769 C 163.848 -4.53568 -4.31308 0
M  V30 1770 H 164.081 -2.61155 -1.42076 0
M  V30 1771 H 161.614 -1.40902 -0.631341 0
M  V30 1772 H 163.572 -1.69089 -3.74058 0
M  V30 1773 H 162.233 -0.748296 -3.05056 0
M  V30 1774 H 161.426 -2.86054 -4.14957 0
M  V30 1775 H 161.028 -2.85509 -2.4158 0
M  V30 1776 H 163.32 -4.28924 -5.24434 0
M  V30 1777 H 164.263 -5.55355 -4.39303 0
M  V30 1778 H 164.671 -3.82943 -4.14747 0
M  V30 1779 N 164.069 0.697108 -1.41344 0
M  V30 1780 C 165.017 1.83237 -1.43272 0
M  V30 1781 C 166.011 1.66522 -0.310947 0
M  V30 1782 O 167.217 1.73402 -0.482899 0
M  V30 1783 H 163.592 0.603802 -0.448249 0
M  V30 1784 H 165.563 1.78727 -2.38954 0
M  V30 1785 C 164.312 3.21245 -1.33029 0
M  V30 1786 H 163.635 3.34723 -2.18633 0
M  V30 1787 H 165.075 4.00763 -1.38439 0
M  V30 1788 C 163.534 3.36873 -0.0424635 0
M  V30 1789 O 164.064 3.91177 0.913421 0
M  V30 1790 N 162.27 2.90581 0.0331145 0
M  V30 1791 H 161.817 2.46577 -0.745506 0
M  V30 1792 H 161.775 3.01416 0.894199 0
M  V30 1793 N 165.547 1.27147 0.931209 0
M  V30 1794 C 166.494 1.09568 2.03134 0
M  V30 1795 C 167.464 -0.00222433 1.661 0
M  V30 1796 O 168.649 0.159439 1.90133 0
M  V30 1797 C 165.789 0.745231 3.36957 0
M  V30 1798 C 164.902 1.92041 3.86968 0
M  V30 1799 C 164.037 1.51216 5.09222 0
M  V30 1800 C 163.076 2.65504 5.5152 0
M  V30 1801 N 162.213 2.25291 6.64972 0
M  V30 1802 H 167.053 2.03708 2.17502 0
M  V30 1803 H 164.59 1.01411 1.06556 0
M  V30 1804 H 166.548 0.522878 4.1391 0
M  V30 1805 H 165.178 -0.159202 3.22407 0
M  V30 1806 H 164.23 2.25541 3.06326 0
M  V30 1807 H 165.542 2.77787 4.1429 0
M  V30 1808 H 164.696 1.25084 5.93666 0
M  V30 1809 H 163.435 0.625749 4.83669 0
M  V30 1810 H 162.44 2.92354 4.65628 0
M  V30 1811 H 163.665 3.54761 5.7907 0
M  V30 1812 H 161.611 1.39098 6.41083 0
M  V30 1813 H 161.528 3.04577 6.91931 0
M  V30 1814 H 162.796 2.02398 7.52765 0
M  V30 1815 N 167.025 -1.13721 1.09112 0
M  V30 1816 C 168.273 -1.84559 0.823562 0
M  V30 1817 C 168.594 -1.83754 -0.652658 0
M  V30 1818 O 167.864 -1.29102 -1.47342 0
M  V30 1819 H 166.444 -0.683376 0.301673 0
M  V30 1820 H 169.106 -1.37771 1.37859 0
M  V30 1821 H 168.202 -2.8917 1.17419 0
M  V30 1822 N 168.503 -0.877838 -1.30888 0
M  V30 1823 C 169.466 -0.344265 -2.266 0
M  V30 1824 C 170.466 0.50922 -1.52524 0
M  V30 1825 O 171.656 0.317398 -1.71284 0
M  V30 1826 C 168.788 0.510198 -3.37061 0
M  V30 1827 H 169.981 -1.1893 -2.7531 0
M  V30 1828 H 167.534 -0.654088 -1.41956 0
M  V30 1829 H 168.269 1.37612 -2.93655 0
M  V30 1830 H 168.054 -0.101047 -3.9197 0
M  V30 1831 H 169.544 0.875537 -4.08319 0
M  V30 1832 N 169.982 1.44106 -0.638065 0
M  V30 1833 C 171.231 2.01194 -0.142744 0
M  V30 1834 C 171.544 1.50835 1.24532 0
M  V30 1835 O 172.75 2.00096 1.83504 0
M  V30 1836 C 171.206 3.59319 -0.20442 0
M  V30 1837 C 170.814 4.18674 -1.59423 0
M  V30 1838 C 172.558 4.23854 0.234079 0
M  V30 1839 C 170.465 5.69045 -1.61065 0
M  V30 1840 H 169.395 0.752367 -0.0495998 0
M  V30 1841 H 172.046 1.65246 -0.797881 0
M  V30 1842 H 170.428 3.92598 0.517946 0
M  V30 1843 H 171.602 3.96921 -2.34074 0
M  V30 1844 H 169.917 3.66453 -1.97741 0
M  V30 1845 H 172.514 5.34155 0.241443 0
M  V30 1846 H 172.857 3.96688 1.2627 0
M  V30 1847 H 173.39 3.95403 -0.436025 0
M  V30 1848 H 170.129 6.00956 -2.61787 0
M  V30 1849 H 169.649 5.929 -0.90718 0
M  V30 1850 H 171.328 6.32809 -1.34766 0
M  V30 1851 N 171.46 0.379036 1.52974 0
M  V30 1852 C 172.688 -0.20679 2.05864 0
M  V30 1853 C 173.103 -1.41356 1.25155 0
M  V30 1854 O 172.46 -1.8009 0.295588 0
M  V30 1855 C 172.511 -0.587045 3.56702 0
M  V30 1856 O 172.232 0.571776 4.34353 0
M  V30 1857 C 173.733 -1.22983 4.25899 0
M  V30 1858 H 170.953 -0.0336123 0.670158 0
M  V30 1859 H 173.497 0.541298 1.97206 0
M  V30 1860 H 171.652 -1.28504 3.65466 0
M  V30 1861 H 172.066 0.261544 5.23847 0
M  V30 1862 H 173.54 -1.44635 5.32715 0
M  V30 1863 H 174.017 -2.19416 3.80465 0
M  V30 1864 H 174.623 -0.572892 4.21424 0
M  V30 1865 N 172.938 -1.57226 0.108567 0
M  V30 1866 C 174.349 -1.8195 -0.418464 0
M  V30 1867 C 174.7 -1.02508 -1.67292 0
M  V30 1868 O 173.825 -0.258496 -2.14851 0
M  V30 1869 C 174.42 -3.30028 -0.765979 0
M  V30 1870 C 172.979 -3.55469 -1.23769 0
M  V30 1871 C 172.126 -2.7625 -0.241106 0
M  V30 1872 H 175.077 -1.55149 0.33384 0
M  V30 1873 H 175.098 -3.44086 -1.62434 0
M  V30 1874 H 174.61 -3.87821 0.147219 0
M  V30 1875 H 172.711 -3.03022 -2.16814 0
M  V30 1876 H 172.824 -4.6408 -1.19022 0
M  V30 1877 H 171.188 -2.44133 -0.72602 0
M  V30 1878 H 171.971 -3.36797 0.665007 0
M  V30 1879 N 174.416 0.165178 -1.56732 0
M  V30 1880 C 175.827 0.727046 -1.71962 0
M  V30 1881 C 176.178 1.82508 -0.720078 0
M  V30 1882 O 175.303 2.16082 0.117242 0
M  V30 1883 C 175.898 1.32559 -3.11791 0
M  V30 1884 C 174.457 1.83422 -3.28684 0
M  V30 1885 C 173.604 0.715567 -2.67908 0
M  V30 1886 H 176.555 -0.0602896 -1.58585 0
M  V30 1887 H 176.576 2.19533 -3.10782 0
M  V30 1888 H 176.088 0.526195 -3.84516 0
M  V30 1889 H 174.189 2.65986 -2.60926 0
M  V30 1890 H 174.302 1.97543 -4.36478 0
M  V30 1891 H 172.666 1.13758 -2.27884 0
M  V30 1892 H 173.449 -0.0720836 -3.43224 0
M  V30 1893 N 175.894 1.51508 0.433938 0
M  V30 1894 C 177.31 1.39759 0.770682 0
M  V30 1895 C 177.51 0.482594 1.95636 0
M  V30 1896 O 176.566 -0.0609691 2.52426 0
M  V30 1897 C 177.879 2.81851 1.04787 0
M  V30 1898 C 179.427 2.91025 1.1521 0
M  V30 1899 C 179.902 4.34032 1.46219 0
M  V30 1900 N 181.393 4.37154 1.53136 0
M  V30 1901 C 182.128 5.4484 1.78709 0
M  V30 1902 N 181.624 6.62682 2.02051 0
M  V30 1903 N 183.417 5.32324 1.80519 0
M  V30 1904 H 175.568 2.09548 -0.346892 0
M  V30 1905 H 177.831 0.943446 -0.0928074 0
M  V30 1906 H 177.537 3.50815 0.249304 0
M  V30 1907 H 177.411 3.21386 1.97461 0
M  V30 1908 H 179.798 2.22257 1.94128 0
M  V30 1909 H 179.879 2.54983 0.204281 0
M  V30 1910 H 179.523 5.03351 0.678274 0
M  V30 1911 H 179.453 4.6759 2.42212 0
M  V30 1912 H 181.944 3.52197 1.36987 0
M  V30 1913 H 182.257 7.40543 2.20943 0
M  V30 1914 H 180.602 6.65791 1.99366 0
M  V30 1915 H 183.793 4.39246 1.61805 0
M  V30 1916 H 183.966 6.16328 2.00111 0
M  V30 1917 N 177.372 -0.689602 1.41712 0
M  V30 1918 C 178.6 -1.47827 1.44758 0
M  V30 1919 C 179.015 -1.88721 0.0545703 0
M  V30 1920 O 178.372 -1.57176 -0.927463 0
M  V30 1921 C 178.423 -2.73698 2.3616 0
M  V30 1922 O 178.144 -2.34524 3.7004 0
M  V30 1923 C 179.645 -3.67389 2.48072 0
M  V30 1924 H 176.865 -0.455357 0.49284 0
M  V30 1925 H 179.409 -0.848574 1.86063 0
M  V30 1926 H 177.564 -3.32891 1.98148 0
M  V30 1927 H 177.978 -3.15701 4.18847 0
M  V30 1928 H 179.452 -4.52475 3.16181 0
M  V30 1929 H 179.929 -4.12284 1.51388 0
M  V30 1930 H 180.535 -3.14097 2.86746 0
M  V30 1931 N 178.85 -1.27639 -0.924453 0
M  V30 1932 C 180.078 -1.16989 -1.70649 0
M  V30 1933 C 180.493 0.272869 -1.86818 0
M  V30 1934 O 179.85 1.18549 -1.38753 0
M  V30 1935 C 179.901 -1.85229 -3.10439 0
M  V30 1936 O 179.622 -3.23868 -2.95028 0
M  V30 1937 C 181.123 -1.80746 -4.04779 0
M  V30 1938 H 178.343 -0.406595 -0.53378 0
M  V30 1939 H 180.887 -1.68569 -1.15778 0
M  V30 1940 H 179.042 -1.37545 -3.6216 0
M  V30 1941 H 179.456 -3.57889 -3.83426 0
M  V30 1942 H 180.93 -2.33101 -5.00368 0
M  V30 1943 H 181.407 -0.777499 -4.32263 0
M  V30 1944 H 182.013 -2.28059 -3.58984 0
M  V30 1945 N 180.328 1.1314 -1.09713 0
M  V30 1946 C 181.553 1.88862 -0.857081 0
M  V30 1947 C 181.978 1.78729 0.586304 0
M  V30 1948 O 181.336 1.13692 1.41222 0
M  V30 1949 C 181.384 3.36325 -1.30069 0
M  V30 1950 O 180.488 4.09815 -0.461007 0
M  V30 1951 H 179.829 0.587108 -0.310162 0
M  V30 1952 H 182.359 1.43129 -1.46203 0
M  V30 1953 H 182.369 3.87157 -1.28738 0
M  V30 1954 H 181.044 3.43017 -2.35185 0
M  V30 1955 H 179.621 3.68986 -0.538888 0
M  V30 1956 N 181.806 0.884767 1.30421 0
M  V30 1957 C 183.217 0.553656 1.78302 0
M  V30 1958 C 183.568 -0.930153 1.7275 0
M  V30 1959 O 182.693 -1.72681 1.30423 0
M  V30 1960 C 183.288 0.998234 3.2376 0
M  V30 1961 C 181.847 0.71854 3.69478 0
M  V30 1962 C 180.994 1.18132 2.50879 0
M  V30 1963 H 183.945 1.06901 1.17294 0
M  V30 1964 H 183.966 0.327118 3.79091 0
M  V30 1965 H 183.478 2.0782 3.27769 0
M  V30 1966 H 181.579 -0.349444 3.70958 0
M  V30 1967 H 181.692 1.30595 4.60958 0
M  V30 1968 H 180.056 0.600669 2.47516 0
M  V30 1969 H 180.839 2.26902 2.57624 0
M  V30 1970 N 183.284 -1.43765 0.645699 0
M  V30 1971 C 184.247 -2.29163 -0.0409488 0
M  V30 1972 C 185.247 -1.41813 -0.757996 0
M  V30 1973 O 186.437 -1.63527 -0.600382 0
M  V30 1974 C 183.569 -3.23716 -1.06869 0
M  V30 1975 H 184.762 -2.91366 0.710345 0
M  V30 1976 H 182.315 -1.5092 0.406547 0
M  V30 1977 H 183.05 -2.66393 -1.84947 0
M  V30 1978 H 182.835 -3.88105 -0.558277 0
M  V30 1979 H 184.325 -3.87831 -1.54845 0
M  V30 1980 N 184.763 -0.387143 -1.52771 0
M  V30 1981 C 185.711 0.463953 -2.27926 0
M  V30 1982 C 186.705 1.06493 -1.31741 0
M  V30 1983 O 187.911 1.00565 -1.49287 0
M  V30 1984 H 184.286 0.16837 -0.732909 0
M  V30 1985 H 186.257 -0.19141 -2.97785 0
M  V30 1986 C 185.006 1.5803 -3.09713 0
M  V30 1987 H 184.329 1.12718 -3.83581 0
M  V30 1988 H 185.769 2.15008 -3.65442 0
M  V30 1989 C 184.228 2.53509 -2.2189 0
M  V30 1990 O 184.758 3.56863 -1.84422 0
M  V30 1991 N 182.964 2.23199 -1.86093 0
M  V30 1992 H 182.511 1.39185 -2.16761 0
M  V30 1993 H 182.469 2.87333 -1.27621 0
M  V30 1994 N 186.241 1.57166 -0.116904 0
M  V30 1995 C 187.469 1.99473 0.549383 0
M  V30 1996 C 187.884 0.996541 1.60357 0
M  V30 1997 O 187.241 -0.0108731 1.82497 0
M  V30 1998 C 187.292 3.41788 1.17741 0
M  V30 1999 O 187.013 4.37788 0.165362 0
M  V30 2000 C 188.514 3.99216 1.92722 0
M  V30 2001 H 185.734 0.655009 0.145616 0
M  V30 2002 H 188.278 2.03494 -0.202625 0
M  V30 2003 H 186.433 3.38713 1.88021 0
M  V30 2004 H 186.847 5.20806 0.621403 0
M  V30 2005 H 188.321 5.00882 2.31995 0
M  V30 2006 H 188.798 3.3824 2.80161 0
M  V30 2007 H 189.404 4.0583 1.27209 0
M  V30 2008 N 187.719 -0.156864 1.56817 0
M  V30 2009 C 188.959 -0.877453 1.84608 0
M  V30 2010 C 189.323 -1.78791 0.699845 0
M  V30 2011 O 190.524 -2.5472 0.858553 0
M  V30 2012 C 188.795 -1.63992 3.17555 0
M  V30 2013 S 190.354 -2.40729 3.66872 0
M  V30 2014 H 187.172 -0.293612 0.647544 0
M  V30 2015 H 189.774 -0.138099 1.95012 0
M  V30 2016 H 188.478 -0.962363 3.98957 0
M  V30 2017 H 188.009 -2.42038 3.10131 0
M  V30 2018 H 190.024 -3.65725 3.3535 0
M  V30 2019 N 189.197 -1.51736 -0.425897 0
M  V30 2020 C 190.422 -1.69082 -1.20108 0
M  V30 2021 C 190.847 -0.392398 -1.83962 0
M  V30 2022 O 190.205 0.64858 -1.69302 0
M  V30 2023 C 190.253 -2.81604 -2.25237 0
M  V30 2024 O 189.357 -2.46004 -3.30992 0
M  V30 2025 H 188.698 -0.563408 -0.35138 0
M  V30 2026 H 191.228 -1.98358 -0.501512 0
M  V30 2027 H 191.238 -3.06025 -2.69838 0
M  V30 2028 H 189.913 -3.75817 -1.78142 0
M  V30 2029 H 188.49 -2.32195 -2.91787 0
M  V30 2030 N 190.675 0.682077 -1.42076 0
M  V30 2031 C 192.086 1.26246 -1.37546 0
M  V30 2032 C 192.437 1.96092 -0.0651481 0
M  V30 2033 O 191.562 1.99587 0.836297 0
M  V30 2034 C 192.157 2.29594 -2.49143 0
M  V30 2035 C 190.716 2.83175 -2.47969 0
M  V30 2036 C 189.863 1.57395 -2.28303 0
M  V30 2037 H 192.814 0.475937 -1.51395 0
M  V30 2038 H 192.835 3.11175 -2.18976 0
M  V30 2039 H 192.347 1.78729 -3.44496 0
M  V30 2040 H 190.448 3.3818 -1.56413 0
M  V30 2041 H 190.561 3.32687 -3.44755 0
M  V30 2042 H 188.925 1.83699 -1.76428 0
M  V30 2043 H 189.708 1.08507 -3.25701 0
M  V30 2044 N 192.153 1.28127 0.917671 0
M  V30 2045 C 193.063 1.13556 2.05286 0
M  V30 2046 C 194.079 0.0630914 1.73886 0
M  V30 2047 O 195.255 0.271598 1.9956 0
M  V30 2048 C 192.32 0.794676 3.3747 0
M  V30 2049 C 191.381 1.94909 3.82504 0
M  V30 2050 C 190.614 1.62437 5.0838 0
M  V30 2051 O 190.837 0.536905 5.67867 0
M  V30 2052 O 189.771 2.46677 5.4903 0
M  V30 2053 H 193.597 2.08844 2.20495 0
M  V30 2054 H 191.182 1.07409 1.03845 0
M  V30 2055 H 193.064 0.618344 4.16839 0
M  V30 2056 H 191.739 -0.128581 3.23445 0
M  V30 2057 H 190.646 2.18055 3.03978 0
M  V30 2058 H 191.979 2.85291 4.01086 0
M  V30 2059 N 193.631 -1.12557 1.10312 0
M  V30 2060 C 194.877 -1.84311 0.846011 0
M  V30 2061 C 195.21 -1.83805 -0.626859 0
M  V30 2062 O 194.485 -1.28268 -1.46211 0
M  V30 2063 C 194.768 -3.32048 1.39341 0
M  V30 2064 C 194.621 -3.41016 2.93305 0
M  V30 2065 C 195.94 -4.27764 1.03468 0
M  V30 2066 H 193.059 -0.669192 0.30879 0
M  V30 2067 H 195.701 -1.32057 1.36605 0
M  V30 2068 H 193.851 -3.76678 0.951087 0
M  V30 2069 H 195.523 -3.05031 3.46055 0
M  V30 2070 H 193.766 -2.81603 3.29973 0
M  V30 2071 H 194.437 -4.44948 3.26689 0
M  V30 2072 H 196.913 -3.91253 1.41633 0
M  V30 2073 H 195.789 -5.29549 1.44463 0
M  V30 2074 H 196.05 -4.42064 -0.0560404 0
M  V30 2075 N 195.109 -0.891671 -1.2995 0
M  V30 2076 C 196.358 -0.509521 -1.95158 0
M  V30 2077 C 196.671 0.947388 -1.71125 0
M  V30 2078 O 197.877 1.43669 -2.30372 0
M  V30 2079 C 196.333 -0.860315 -3.49466 0
M  V30 2080 C 195.941 -2.33545 -3.8231 0
M  V30 2081 C 197.685 -0.547687 -4.20952 0
M  V30 2082 C 195.592 -2.62752 -5.29826 0
M  V30 2083 H 194.522 -0.18682 -0.730489 0
M  V30 2084 H 197.173 -1.08756 -1.47798 0
M  V30 2085 H 195.555 -0.211285 -3.95436 0
M  V30 2086 H 196.729 -3.02936 -3.47227 0
M  V30 2087 H 195.044 -2.61629 -3.23944 0
M  V30 2088 H 197.641 -0.742854 -5.29515 0
M  V30 2089 H 197.984 0.51332 -4.13123 0
M  V30 2090 H 198.517 -1.1542 -3.80688 0
M  V30 2091 H 195.256 -3.6762 -5.42712 0
M  V30 2092 H 194.776 -1.97977 -5.66185 0
M  V30 2093 H 196.455 -2.48601 -5.97333 0
M  V30 2094 N 196.587 1.43421 -0.653314 0
M  V30 2095 C 197.537 2.2792 0.060558 0
M  V30 2096 C 198.521 1.39906 0.794677 0
M  V30 2097 O 199.713 1.63536 0.677128 0
M  V30 2098 C 196.842 3.27603 1.0262 0
M  V30 2099 C 195.928 4.23104 0.290551 0
M  V30 2100 N 196.319 5.01031 -0.692967 0
M  V30 2101 C 194.617 4.42816 0.531984 0
M  V30 2102 C 195.318 5.70626 -1.12963 0
M  V30 2103 N 194.294 5.41617 -0.463867 0
M  V30 2104 H 198.096 2.85585 -0.694143 0
M  V30 2105 H 195.61 1.55126 -0.480602 0
M  V30 2106 H 197.607 3.86918 1.55242 0
M  V30 2107 H 196.267 2.71499 1.78096 0
M  V30 2108 H 197.278 5.0669 -1.07169 0
M  V30 2109 H 193.955 3.97782 1.26791 0
M  V30 2110 H 195.345 6.4318 -1.94343 0
M  V30 2111 N 198.065 0.39524 1.52563 0
M  V30 2112 C 198.995 -0.428384 2.29537 0
M  V30 2113 C 199.976 -1.05831 1.33169 0
M  V30 2114 O 201.161 -1.06995 1.62067 0
M  V30 2115 C 198.291 -1.55274 3.10656 0
M  V30 2116 C 197.245 -1.04855 4.14957 0
M  V30 2117 C 196.571 -2.26543 4.84337 0
M  V30 2118 C 197.871 -0.112324 5.22179 0
M  V30 2119 H 199.565 0.213867 2.98635 0
M  V30 2120 H 197.111 0.104298 1.43622 0
M  V30 2121 H 199.064 -2.1358 3.63265 0
M  V30 2122 H 197.788 -2.22266 2.39302 0
M  V30 2123 H 196.447 -0.487985 3.63338 0
M  V30 2124 H 196.095 -2.92059 4.09525 0
M  V30 2125 H 195.795 -1.93466 5.54837 0
M  V30 2126 H 197.319 -2.85481 5.39753 0
M  V30 2127 H 198.733 -0.603752 5.70112 0
M  V30 2128 H 197.13 0.128968 5.99961 0
M  V30 2129 H 198.2 0.837052 4.77621 0
M  V30 2130 N 199.544 -1.57102 0.125237 0
M  V30 2131 C 200.491 -2.15641 -0.822655 0
M  V30 2132 C 201.461 -1.08313 -1.25927 0
M  V30 2133 O 202.646 -1.36251 -1.33567 0
M  V30 2134 C 199.786 -2.76504 -2.06494 0
M  V30 2135 C 198.899 -3.98158 -1.67612 0
M  V30 2136 C 198.034 -4.47088 -2.86854 0
M  V30 2137 C 197.073 -5.6126 -2.44242 0
M  V30 2138 N 196.21 -6.04905 -3.56419 0
M  V30 2139 H 201.05 -2.96313 -0.316625 0
M  V30 2140 H 198.587 -1.46388 -0.144588 0
M  V30 2141 H 200.545 -3.09925 -2.79289 0
M  V30 2142 H 199.175 -1.98512 -2.54545 0
M  V30 2143 H 198.227 -3.70858 -0.846661 0
M  V30 2144 H 199.539 -4.80934 -1.32301 0
M  V30 2145 H 198.693 -4.82451 -3.67867 0
M  V30 2146 H 197.432 -3.63275 -3.25396 0
M  V30 2147 H 196.437 -5.25495 -1.61663 0
M  V30 2148 H 197.662 -6.46843 -2.0681 0
M  V30 2149 H 195.608 -5.24032 -3.94623 0
M  V30 2150 H 195.525 -6.82552 -3.25051 0
M  V30 2151 H 196.793 -6.44907 -4.37853 0
M  V30 2152 N 201.022 0.148545 -1.56898 0
M  V30 2153 C 202.299 0.890019 -1.74178 0
M  V30 2154 C 202.679 1.99407 -0.692839 0
M  V30 2155 O 202.027 2.26671 0.288505 0
M  V30 2156 C 202.237 1.43389 -3.18183 0
M  V30 2157 C 203.585 1.89791 -3.79822 0
M  V30 2158 O 204.609 1.53134 -3.21603 0
M  V30 2159 O 203.468 2.57387 -4.82093 0
M  V30 2160 H 200.562 0.420496 -0.712118 0
M  V30 2161 H 203.108 0.134591 -1.69165 0
M  V30 2162 H 201.88 0.640383 -3.86024 0
M  V30 2163 H 201.503 2.25287 -3.27615 0
M  V30 2164 N 202.5 1.5196 0.417844 0
M  V30 2165 C 203.749 1.6482 1.16264 0
M  V30 2166 C 204.062 0.379886 1.91876 0
M  V30 2167 O 205.268 0.388154 2.68711 0
M  V30 2168 C 203.724 2.91161 2.1155 0
M  V30 2169 C 203.332 4.25068 1.41495 0
M  V30 2170 C 205.076 3.13383 2.86341 0
M  V30 2171 C 202.983 5.42541 2.35379 0
M  V30 2172 H 201.913 0.613954 0.437694 0
M  V30 2173 H 204.564 1.78442 0.427871 0
M  V30 2174 H 202.946 2.71218 2.88543 0
M  V30 2175 H 204.12 4.55463 0.699263 0
M  V30 2176 H 202.435 4.0888 0.787792 0
M  V30 2177 H 205.032 3.98324 3.5671 0
M  V30 2178 H 205.375 2.27256 3.48798 0
M  V30 2179 H 205.908 3.33757 2.1645 0
M  V30 2180 H 202.647 6.30987 1.77582 0
M  V30 2181 H 202.167 5.16497 3.04945 0
M  V30 2182 H 203.846 5.75272 2.96093 0
M  V30 2183 N 203.978 -0.674533 1.42435 0
M  V30 2184 C 205.224 -1.43671 1.43131 0
M  V30 2185 C 205.557 -1.94142 0.0476021 0
M  V30 2186 O 204.832 -1.70924 -0.928188 0
M  V30 2187 C 205.115 -2.63355 2.45594 0
M  V30 2188 C 204.968 -2.18514 3.93156 0
M  V30 2189 C 206.287 -3.65571 2.45043 0
M  V30 2190 H 203.406 -0.521077 0.521198 0
M  V30 2191 H 206.048 -0.766551 1.7385 0
M  V30 2192 H 204.198 -3.2053 2.19528 0
M  V30 2193 H 205.87 -1.66504 4.30202 0
M  V30 2194 H 204.113 -1.50086 4.07009 0
M  V30 2195 H 204.784 -3.04484 4.60428 0
M  V30 2196 H 207.26 -3.18113 2.68223 0
M  V30 2197 H 206.136 -4.46893 3.18713 0
M  V30 2198 H 206.397 -4.16716 1.47649 0
M  V30 2199 N 205.456 -1.28612 -0.910864 0
M  V30 2200 C 206.696 -1.1719 -1.67469 0
M  V30 2201 C 207.06 0.274441 -1.90028 0
M  V30 2202 O 208.261 0.511425 -2.6389 0
M  V30 2203 C 206.532 -1.95137 -2.99427 0
M  V30 2204 S 208.091 -2.00122 -3.90508 0
M  V30 2205 H 204.909 -0.41806 -0.575106 0
M  V30 2206 H 207.511 -1.6275 -1.08317 0
M  V30 2207 H 206.215 -2.99381 -2.80712 0
M  V30 2208 H 205.746 -1.50137 -3.63624 0
M  V30 2209 H 207.761 -1.10981 -4.8363 0
M  V30 2210 N 206.934 1.1197 -1.10907 0
M  V30 2211 C 208.164 1.8713 -0.875553 0
M  V30 2212 C 208.572 1.8016 0.577843 0
M  V30 2213 O 207.915 1.17699 1.41042 0
M  V30 2214 C 207.977 3.37005 -1.2517 0
M  V30 2215 C 207.641 3.67748 -2.71313 0
M  V30 2216 C 208.638 3.65698 -3.69542 0
M  V30 2217 C 206.323 3.96928 -3.07821 0
M  V30 2218 C 208.317 3.92395 -5.023 0
M  V30 2219 C 206.004 4.23284 -4.40765 0
M  V30 2220 C 207.002 4.21005 -5.37814 0
M  V30 2221 O 206.69 4.46704 -6.68364 0
M  V30 2222 H 206.422 0.598786 -0.313737 0
M  V30 2223 H 208.976 1.42568 -1.47863 0
M  V30 2224 H 207.206 3.82146 -0.591741 0
M  V30 2225 H 208.895 3.93519 -0.994877 0
M  V30 2226 H 209.661 3.43211 -3.42682 0
M  V30 2227 H 205.54 3.97841 -2.32902 0
M  V30 2228 H 209.084 3.90531 -5.78041 0
M  V30 2229 H 204.981 4.45246 -4.67361 0
M  V30 2230 H 205.749 4.64299 -6.74069 0
M  V30 2231 N 208.412 0.89855 1.29475 0
M  V30 2232 C 209.342 0.39201 2.30186 0
M  V30 2233 C 210.323 -0.532359 1.61555 0
M  V30 2234 O 211.508 -0.443331 1.89072 0
M  V30 2235 C 208.638 -0.382353 3.45189 0
M  V30 2236 C 207.592 0.451483 4.25612 0
M  V30 2237 C 206.918 -0.450307 5.328 0
M  V30 2238 C 208.218 1.70079 4.93832 0
M  V30 2239 H 209.912 1.23362 2.72804 0
M  V30 2240 H 207.458 0.594638 1.31149 0
M  V30 2241 H 209.411 -0.747451 4.14718 0
M  V30 2242 H 208.135 -1.25774 3.01411 0
M  V30 2243 H 206.794 0.798897 3.57789 0
M  V30 2244 H 206.442 -1.32379 4.85268 0
M  V30 2245 H 206.142 0.103902 5.87508 0
M  V30 2246 H 207.666 -0.811623 6.05182 0
M  V30 2247 H 209.08 1.40549 5.55805 0
M  V30 2248 H 207.477 2.19623 5.58467 0
M  V30 2249 H 208.547 2.43744 4.19186 0
M  V30 2250 N 209.89 -1.43072 0.660911 0
M  V30 2251 C 211.115 -2.06584 0.183805 0
M  V30 2252 C 211.54 -1.49257 -1.14472 0
M  V30 2253 O 210.898 -0.605528 -1.70889 0
M  V30 2254 C 210.946 -3.60418 0.114434 0
M  V30 2255 O 210.05 -4.01981 -0.921137 0
M  V30 2256 H 209.391 -0.656669 0.0983994 0
M  V30 2257 H 211.921 -1.83447 0.906006 0
M  V30 2258 H 211.931 -4.07946 -0.0663394 0
M  V30 2259 H 210.606 -4.01519 1.08422 0
M  V30 2260 H 209.183 -3.66029 -0.71253 0
M  V30 2261 N 211.368 -0.403325 -1.52352 0
M  V30 2262 C 212.298 0.416205 -2.29761 0
M  V30 2263 C 213.279 1.05123 -1.33728 0
M  V30 2264 O 214.464 1.06134 -1.62632 0
M  V30 2265 C 211.594 1.53624 -3.11475 0
M  V30 2266 C 210.548 1.02653 -4.15507 0
M  V30 2267 C 209.874 2.23971 -4.85532 0
M  V30 2268 C 211.174 0.08463 -5.22231 0
M  V30 2269 H 212.868 -0.229701 -2.98518 0
M  V30 2270 H 210.414 -0.111913 -1.43564 0
M  V30 2271 H 212.367 2.1165 -3.64393 0
M  V30 2272 H 211.091 2.20994 -2.40477 0
M  V30 2273 H 209.75 0.46871 -3.63591 0
M  V30 2274 H 209.398 2.89883 -4.11068 0
M  V30 2275 H 209.098 1.90521 -5.55856 0
M  V30 2276 H 210.622 2.82614 -5.41259 0
M  V30 2277 H 212.036 0.573509 -5.70424 0
M  V30 2278 H 210.433 -0.160783 -5.99885 0
M  V30 2279 H 211.503 -0.86237 -4.7717 0
M  V30 2280 N 212.846 1.57033 -0.133567 0
M  V30 2281 C 213.776 2.1909 0.807567 0
M  V30 2282 C 214.757 1.13517 1.26681 0
M  V30 2283 O 215.942 1.41809 1.32679 0
M  V30 2284 C 213.072 2.80188 2.05212 0
M  V30 2285 C 212.026 3.91471 1.73015 0
M  V30 2286 C 211.352 4.39443 3.04622 0
M  V30 2287 C 212.652 5.12886 0.987168 0
M  V30 2288 H 214.346 2.97988 0.290403 0
M  V30 2289 H 211.892 1.43335 0.138239 0
M  V30 2290 H 213.845 3.22264 2.71521 0
M  V30 2291 H 212.569 1.98601 2.59278 0
M  V30 2292 H 211.228 3.49993 1.0909 0
M  V30 2293 H 210.876 3.54695 3.56651 0
M  V30 2294 H 210.576 5.14495 2.83847 0
M  V30 2295 H 212.1 4.8418 3.72024 0
M  V30 2296 H 213.514 5.51891 1.55208 0
M  V30 2297 H 211.911 5.93615 0.87985 0
M  V30 2298 H 212.981 4.84894 -0.0235286 0
M  V30 2299 N 214.325 -0.140222 1.56975 0
M  V30 2300 C 215.235 -1.19223 2.02047 0
M  V30 2301 C 216.251 -1.46612 0.937062 0
M  V30 2302 O 217.427 -1.58148 1.24704 0
M  V30 2303 C 214.492 -2.50414 2.39778 0
M  V30 2304 C 213.553 -2.30612 3.621 0
M  V30 2305 C 212.786 -3.55547 3.98023 0
M  V30 2306 O 213.009 -4.62004 3.34528 0
M  V30 2307 O 211.943 -3.47808 4.91237 0
M  V30 2308 H 215.769 -0.839559 2.91865 0
M  V30 2309 H 213.354 -0.349453 1.45256 0
M  V30 2310 H 215.236 -3.27747 2.64877 0
M  V30 2311 H 213.911 -2.85198 1.53114 0
M  V30 2312 H 212.818 -1.51207 3.4218 0
M  V30 2313 H 214.151 -2.00741 4.49404 0
M  V30 2314 N 215.803 -1.52179 -0.40978 0
M  V30 2315 C 217.219 -1.40968 -0.74835 0
M  V30 2316 C 217.419 -0.513657 -1.94843 0
M  V30 2317 O 216.475 0.0208026 -2.52491 0
M  V30 2318 C 217.788 -2.83483 -1.0029 0
M  V30 2319 C 219.336 -2.92821 -1.10565 0
M  V30 2320 C 219.811 -4.36303 -1.39296 0
M  V30 2321 N 221.302 -4.39535 -1.46162 0
M  V30 2322 C 222.037 -5.47614 -1.70018 0
M  V30 2323 N 221.533 -6.65812 -1.91483 0
M  V30 2324 N 223.326 -5.35129 -1.72027 0
M  V30 2325 H 215.477 -2.0897 0.380186 0
M  V30 2326 H 217.74 -0.94185 0.107805 0
M  V30 2327 H 217.446 -3.51168 -0.193461 0
M  V30 2328 H 217.32 -3.24487 -1.92323 0
M  V30 2329 H 219.707 -2.25318 -1.90568 0
M  V30 2330 H 219.788 -2.55276 -0.16369 0
M  V30 2331 H 219.432 -5.04366 -0.598109 0
M  V30 2332 H 219.362 -4.71385 -2.34743 0
M  V30 2333 H 221.853 -3.54332 -1.31367 0
M  V30 2334 H 222.166 -7.43964 -2.09134 0
M  V30 2335 H 220.511 -6.68879 -1.88749 0
M  V30 2336 H 223.702 -4.41764 -1.54796 0
M  V30 2337 H 223.875 -6.19433 -1.9028 0
M  V30 2338 N 217.281 0.66697 -1.42791 0
M  V30 2339 C 218.529 1.42417 -1.43394 0
M  V30 2340 C 218.85 1.94925 -0.0542373 0
M  V30 2341 O 218.12 1.73564 0.908415 0
M  V30 2342 H 216.7 0.528515 -0.527902 0
M  V30 2343 H 219.362 0.787562 -1.78279 0
M  V30 2344 H 218.458 2.27333 -2.13837 0
M  V30 2345 N 218.759 1.29093 0.90403 0
M  V30 2346 C 220.175 1.07011 1.1841 0
M  V30 2347 C 220.375 -0.181358 2.00682 0
M  V30 2348 O 219.431 -0.880331 2.36657 0
M  V30 2349 C 220.744 2.32311 1.90924 0
M  V30 2350 C 222.292 2.37587 2.03768 0
M  V30 2351 C 222.767 3.62679 2.79693 0
M  V30 2352 N 224.258 3.63376 2.87249 0
M  V30 2353 C 224.993 4.56848 3.46522 0
M  V30 2354 N 224.489 5.60648 4.06996 0
M  V30 2355 N 226.282 4.44426 3.44154 0
M  V30 2356 H 218.433 2.09412 0.354993 0
M  V30 2357 H 220.696 0.922181 0.219742 0
M  V30 2358 H 220.402 3.23536 1.37905 0
M  V30 2359 H 220.276 2.39483 2.91424 0
M  V30 2360 H 222.663 1.46853 2.55965 0
M  V30 2361 H 222.744 2.34403 1.02415 0
M  V30 2362 H 222.388 4.53762 2.28173 0
M  V30 2363 H 222.318 3.63119 3.81381 0
M  V30 2364 H 224.809 2.88321 2.44293 0
M  V30 2365 H 225.122 6.28101 4.50232 0
M  V30 2366 H 223.467 5.64463 4.05471 0
M  V30 2367 H 226.658 3.62529 2.96126 0
M  V30 2368 H 226.831 5.17457 3.90054 0
M  V30 2369 N 220.237 -1.11381 1.11499 0
M  V30 2370 C 221.648 -1.6465 0.880191 0
M  V30 2371 C 221.999 -1.87199 -0.587434 0
M  V30 2372 O 221.124 -1.60667 -1.44966 0
M  V30 2373 C 221.719 -2.99105 1.59128 0
M  V30 2374 C 220.278 -3.49279 1.40289 0
M  V30 2375 C 219.425 -2.24077 1.63354 0
M  V30 2376 H 222.376 -0.950123 1.27116 0
M  V30 2377 H 222.397 -3.66107 1.03664 0
M  V30 2378 H 221.909 -2.82661 2.65941 0
M  V30 2379 H 220.01 -3.70887 0.356888 0
M  V30 2380 H 220.123 -4.2803 2.15238 0
M  V30 2381 H 218.487 -2.31733 1.05698 0
M  V30 2382 H 219.27 -2.10175 2.71443 0
M  V30 2383 N 221.715 -0.905404 -1.28997 0
M  V30 2384 C 222.625 -0.392246 -2.31298 0
M  V30 2385 C 223.641 0.515889 -1.66176 0
M  V30 2386 O 224.817 0.404093 -1.97304 0
M  V30 2387 C 221.882 0.36686 -3.44754 0
M  V30 2388 C 220.943 -0.573485 -4.25452 0
M  V30 2389 C 220.176 0.149488 -5.33491 0
M  V30 2390 O 220.399 1.37255 -5.5364 0
M  V30 2391 O 219.333 -0.510919 -5.99728 0
M  V30 2392 H 223.159 -1.2411 -2.77183 0
M  V30 2393 H 220.744 -0.669926 -1.33538 0
M  V30 2394 H 222.626 0.795907 -4.13816 0
M  V30 2395 H 221.301 1.19169 -3.00966 0
M  V30 2396 H 220.208 -1.05176 -3.59011 0
M  V30 2397 H 221.541 -1.36489 -4.72897 0
M  V30 2398 N 223.193 1.4272 -0.668489 0
M  V30 2399 C 224.47 1.95248 -0.117373 0
M  V30 2400 C 224.85 1.60919 1.36632 0
M  V30 2401 O 224.198 0.902095 2.09939 0
M  V30 2402 C 224.408 3.46927 -0.379806 0
M  V30 2403 C 225.756 4.23588 -0.292923 0
M  V30 2404 O 226.78 3.5482 -0.313204 0
M  V30 2405 O 225.639 5.46017 -0.229697 0
M  V30 2406 H 222.733 0.827 0.00079152 0
M  V30 2407 H 225.279 1.52581 -0.742783 0
M  V30 2408 H 224.051 3.65096 -1.40786 0
M  V30 2409 H 223.674 3.96627 0.277923 0
M  V30 2410 N 224.671 0.411399 1.52136 0
M  V30 2411 C 225.618 -0.412975 2.27075 0
M  V30 2412 C 226.588 -1.03912 1.29582 0
M  V30 2413 O 227.773 -1.06296 1.58448 0
M  V30 2414 C 224.913 -1.52247 3.09701 0
M  V30 2415 C 224.026 -0.917021 4.22155 0
M  V30 2416 C 223.161 -1.9994 4.92135 0
M  V30 2417 C 222.2 -1.37101 5.96548 0
M  V30 2418 N 221.337 -2.39364 6.60038 0
M  V30 2419 H 226.177 0.232499 2.97092 0
M  V30 2420 H 223.714 0.126496 1.46555 0
M  V30 2421 H 225.672 -2.17674 3.55913 0
M  V30 2422 H 224.302 -2.13794 2.41851 0
M  V30 2423 H 223.354 -0.151742 3.80097 0
M  V30 2424 H 224.666 -0.418006 4.97045 0
M  V30 2425 H 223.82 -2.73088 5.41763 0
M  V30 2426 H 222.559 -2.53208 4.16818 0
M  V30 2427 H 221.564 -0.624873 5.46237 0
M  V30 2428 H 222.789 -0.845998 6.7381 0
M  V30 2429 H 220.735 -2.91759 5.87548 0
M  V30 2430 H 220.652 -1.9428 7.3061 0
M  V30 2431 H 221.92 -3.12074 7.14304 0
M  V30 2432 N 226.149 -1.5696 0.141893 0
M  V30 2433 C 227.079 -2.19516 -0.795936 0
M  V30 2434 C 228.06 -1.14187 -1.26077 0
M  V30 2435 O 229.245 -1.42511 -1.31925 0
M  V30 2436 C 226.375 -2.81272 -2.03723 0
M  V30 2437 C 225.329 -3.92384 -1.70936 0
M  V30 2438 C 224.655 -4.41052 -3.02287 0
M  V30 2439 C 225.955 -5.13403 -0.959954 0
M  V30 2440 H 227.649 -2.98138 -0.274596 0
M  V30 2441 H 225.195 -1.43406 -0.130636 0
M  V30 2442 H 227.148 -3.237 -2.69808 0
M  V30 2443 H 225.872 -1.99973 -2.58221 0
M  V30 2444 H 224.531 -3.50566 -1.07232 0
M  V30 2445 H 224.179 -3.56582 -3.54765 0
M  V30 2446 H 223.879 -5.15993 -2.81114 0
M  V30 2447 H 225.403 -4.86146 -3.69451 0
M  V30 2448 H 226.817 -5.52706 -1.52279 0
M  V30 2449 H 225.214 -5.94073 -0.848357 0
M  V30 2450 H 226.284 -4.84875 0.0492434 0
M  V30 2451 N 227.627 0.131896 -1.57047 0
M  V30 2452 C 228.537 1.1815 -2.02676 0
M  V30 2453 C 229.553 1.46113 -0.944824 0
M  V30 2454 O 230.729 1.57485 -1.25541 0
M  V30 2455 C 227.794 2.49139 -2.41103 0
M  V30 2456 C 226.855 2.28688 -3.63318 0
M  V30 2457 C 226.088 3.53431 -3.99903 0
M  V30 2458 O 226.311 4.60223 -3.36973 0
M  V30 2459 O 225.245 3.45198 -4.93074 0
M  V30 2460 H 229.071 0.824069 -2.92306 0
M  V30 2461 H 226.656 0.341745 -1.45439 0
M  V30 2462 H 228.538 3.26338 -2.66611 0
M  V30 2463 H 227.213 2.84382 -1.54624 0
M  V30 2464 H 226.12 1.4939 -3.42977 0
M  V30 2465 H 227.453 1.98355 -4.50462 0
M  V30 2466 N 229.106 1.52395 0.401703 0
M  V30 2467 C 230.353 1.66817 1.14796 0
M  V30 2468 C 230.681 0.401772 1.90305 0
M  V30 2469 O 229.936 -0.615487 1.85769 0
M  V30 2470 C 230.235 2.84578 2.16217 0
M  V30 2471 C 229.901 4.22513 1.5746 0
M  V30 2472 C 228.563 4.60029 1.41161 0
M  V30 2473 C 230.915 5.0844 1.14622 0
M  V30 2474 C 228.243 5.81144 0.80552 0
M  V30 2475 C 230.595 6.30167 0.55428 0
M  V30 2476 C 229.259 6.66426 0.378482 0
M  V30 2477 H 228.529 0.610428 0.420069 0
M  V30 2478 H 231.176 1.86512 0.434212 0
M  V30 2479 H 229.481 2.59248 2.93764 0
M  V30 2480 H 231.178 2.92933 2.73845 0
M  V30 2481 H 227.768 3.92953 1.71132 0
M  V30 2482 H 231.952 4.80034 1.26021 0
M  V30 2483 H 227.208 6.07855 0.657399 0
M  V30 2484 H 231.382 6.96071 0.213983 0
M  V30 2485 H 229.009 7.60143 -0.0932606 0
M  V30 2486 N 230.584 -0.659388 1.43143 0
M  V30 2487 C 231.517 -1.78425 1.42267 0
M  V30 2488 C 232.495 -1.60085 0.284894 0
M  V30 2489 O 233.679 -1.82351 0.477527 0
M  V30 2490 C 230.806 -3.15642 1.22833 0
M  V30 2491 C 229.852 -3.52698 2.39806 0
M  V30 2492 S 230.685 -3.53372 4.02353 0
M  V30 2493 C 231.841 -4.93256 3.85291 0
M  V30 2494 H 232.074 -1.78897 2.37452 0
M  V30 2495 H 229.607 -0.831469 1.301 0
M  V30 2496 H 231.565 -3.94838 1.12308 0
M  V30 2497 H 230.226 -3.12739 0.29207 0
M  V30 2498 H 229.419 -4.52475 2.21996 0
M  V30 2499 H 229.021 -2.80899 2.46925 0
M  V30 2500 H 231.313 -5.81751 3.47235 0
M  V30 2501 H 232.256 -5.16115 4.84799 0
M  V30 2502 H 232.664 -4.665 3.17865 0
M  V30 2503 N 232.062 -1.29571 -0.897171 0
M  V30 2504 C 233.309 -1.17689 -1.6479 0
M  V30 2505 C 233.637 0.27107 -1.92602 0
M  V30 2506 O 232.892 1.21193 -1.53658 0
M  V30 2507 C 233.191 -1.9382 -3.00281 0
M  V30 2508 C 232.857 -3.43522 -2.92068 0
M  V30 2509 C 231.519 -3.84348 -2.89535 0
M  V30 2510 C 233.871 -4.38906 -2.81089 0
M  V30 2511 C 231.199 -5.18869 -2.73846 0
M  V30 2512 C 233.551 -5.73521 -2.66939 0
M  V30 2513 C 232.215 -6.13601 -2.62774 0
M  V30 2514 H 231.485 -0.430654 -0.603008 0
M  V30 2515 H 234.132 -1.60536 -1.04404 0
M  V30 2516 H 232.437 -1.4357 -3.64547 0
M  V30 2517 H 234.134 -1.82028 -3.57305 0
M  V30 2518 H 230.724 -3.11072 -2.94842 0
M  V30 2519 H 234.908 -4.08315 -2.82121 0
M  V30 2520 H 230.164 -5.4903 -2.69027 0
M  V30 2521 H 234.338 -6.47078 -2.57416 0
M  V30 2522 H 231.965 -7.17786 -2.50375 0
M  V30 2523 N 233.54 1.10788 -1.12088 0
M  V30 2524 C 234.956 1.34691 -0.856186 0
M  V30 2525 C 235.156 1.94791 0.515615 0
M  V30 2526 O 234.212 2.18524 1.26505 0
M  V30 2527 C 235.525 2.27208 -1.9697 0
M  V30 2528 C 237.073 2.40755 -2.00016 0
M  V30 2529 C 237.548 3.36598 -3.1059 0
M  V30 2530 N 239.039 3.44164 -3.10008 0
M  V30 2531 C 239.774 4.18284 -3.92206 0
M  V30 2532 N 239.27 4.95322 -4.84384 0
M  V30 2533 N 241.063 4.13865 -3.80357 0
M  V30 2534 H 233.214 0.70144 -2.00483 0
M  V30 2535 H 235.477 0.371405 -0.872217 0
M  V30 2536 H 235.183 1.90251 -2.958 0
M  V30 2537 H 235.057 3.27485 -1.87172 0
M  V30 2538 H 237.444 2.76982 -1.01808 0
M  V30 2539 H 237.525 1.40305 -2.13888 0
M  V30 2540 H 237.169 3.01096 -4.09028 0
M  V30 2541 H 237.099 4.36918 -2.93956 0
M  V30 2542 H 239.59 2.8922 -2.43228 0
M  V30 2543 H 239.903 5.49267 -5.43623 0
M  V30 2544 H 238.248 4.94459 -4.884 0
M  V30 2545 H 241.439 3.52773 -3.07683 0
M  V30 2546 H 241.612 4.71372 -4.44649 0
M  V30 2547 N 235.018 0.912232 1.28515 0
M  V30 2548 C 235.948 0.416403 2.29757 0
M  V30 2549 C 236.929 -0.515194 1.6211 0
M  V30 2550 O 238.114 -0.423253 1.89532 0
M  V30 2551 C 235.244 -0.34572 3.45575 0
M  V30 2552 C 234.198 0.496599 4.25109 0
M  V30 2553 C 233.524 -0.393771 5.33248 0
M  V30 2554 C 234.824 1.75307 4.92001 0
M  V30 2555 H 236.518 1.26249 2.7148 0
M  V30 2556 H 234.064 0.608515 1.30511 0
M  V30 2557 H 236.017 -0.703422 4.15488 0
M  V30 2558 H 234.741 -1.2257 3.02728 0
M  V30 2559 H 233.4 0.8368 3.56922 0
M  V30 2560 H 233.048 -1.27225 4.86644 0
M  V30 2561 H 232.748 0.166209 5.87365 0
M  V30 2562 H 234.272 -0.747389 6.06009 0
M  V30 2563 H 235.686 1.46437 5.54283 0
M  V30 2564 H 234.083 2.25534 5.56106 0
M  V30 2565 H 235.153 2.48176 4.16577 0
M  V30 2566 N 236.496 -1.42363 0.676048 0
M  V30 2567 C 237.726 -2.05561 0.206967 0
M  V30 2568 C 238.134 -1.50887 -1.14148 0
M  V30 2569 O 237.477 -0.643933 -1.72044 0
M  V30 2570 C 237.539 -3.5944 0.0659508 0
M  V30 2571 C 237.203 -4.36812 1.34331 0
M  V30 2572 C 238.2 -4.67383 2.27704 0
M  V30 2573 C 235.885 -4.76429 1.59125 0
M  V30 2574 C 237.879 -5.36509 3.44147 0
M  V30 2575 C 235.566 -5.45294 2.75857 0
M  V30 2576 C 236.564 -5.75259 3.68193 0
M  V30 2577 O 236.252 -6.42712 4.82883 0
M  V30 2578 H 235.984 -0.668872 0.0979084 0
M  V30 2579 H 238.538 -1.83467 0.923531 0
M  V30 2580 H 236.768 -3.80197 -0.706204 0
M  V30 2581 H 238.457 -4.0427 -0.363418 0
M  V30 2582 H 239.223 -4.37275 2.09799 0
M  V30 2583 H 235.102 -4.52498 0.881258 0
M  V30 2584 H 238.646 -5.59814 4.16238 0
M  V30 2585 H 234.543 -5.7482 2.93688 0
M  V30 2586 H 235.311 -6.61204 4.82444 0
M  V30 2587 N 237.974 -0.419461 -1.51915 0
M  V30 2588 C 239.251 0.211999 -1.94448 0
M  V30 2589 C 239.631 1.61703 -1.35703 0
M  V30 2590 O 238.979 2.22102 -0.536931 0
M  V30 2591 C 239.189 0.207872 -3.4838 0
M  V30 2592 C 240.537 0.422192 -4.22496 0
M  V30 2593 O 241.561 0.286778 -3.55044 0
M  V30 2594 O 240.42 0.690009 -5.42126 0
M  V30 2595 H 237.514 0.139586 -0.815135 0
M  V30 2596 H 240.06 -0.476151 -1.62883 0
M  V30 2597 H 238.832 -0.775102 -3.83546 0
M  V30 2598 H 238.455 0.939688 -3.86336 0
M  V30 2599 N 239.452 1.56882 -0.150215 0
M  V30 2600 C 240.68 2.00593 0.506948 0
M  V30 2601 C 241.095 1.03033 1.58208 0
M  V30 2602 O 240.452 0.0278396 1.82479 0
M  V30 2603 C 240.503 3.44209 1.10465 0
M  V30 2604 O 240.224 4.3804 0.0724636 0
M  V30 2605 C 241.725 4.03214 1.84211 0
M  V30 2606 H 238.945 0.65795 0.13169 0
M  V30 2607 H 241.489 2.03018 -0.245743 0
M  V30 2608 H 239.644 3.42625 1.80795 0
M  V30 2609 H 240.058 5.22007 0.510793 0
M  V30 2610 H 241.532 5.0569 2.21318 0
M  V30 2611 H 242.009 3.44107 2.72923 0
M  V30 2612 H 242.615 4.08437 1.18572 0
M  V30 2613 N 240.93 -0.123565 1.57115 0
M  V30 2614 C 242.207 -0.862196 1.75572 0
M  V30 2615 C 242.587 -1.98279 0.724475 0
M  V30 2616 O 241.935 -2.27102 -0.252407 0
M  V30 2617 C 242.145 -1.38309 3.20424 0
M  V30 2618 C 243.493 -1.83724 3.82793 0
M  V30 2619 O 244.517 -1.47999 3.23998 0
M  V30 2620 O 243.376 -2.49685 4.86127 0
M  V30 2621 H 240.47 -0.409113 0.718718 0
M  V30 2622 H 243.016 -0.107661 1.69358 0
M  V30 2623 H 241.788 -0.578889 3.86994 0
M  V30 2624 H 241.411 -2.20046 3.31158 0
M  V30 2625 N 242.408 -1.52605 -0.393616 0
M  V30 2626 C 243.656 -1.67093 -1.13685 0
M  V30 2627 C 243.977 -0.411011 -1.90619 0
M  V30 2628 O 243.247 0.574491 -1.87287 0
M  V30 2629 H 241.827 -0.615923 -0.422668 0
M  V30 2630 H 244.489 -1.89704 -0.447039 0
M  V30 2631 H 243.585 -2.51922 -1.84232 0
M  V30 2632 N 243.887 0.651787 -1.4349 0
M  V30 2633 C 244.835 1.78586 -1.49029 0
M  V30 2634 C 245.829 1.65448 -0.363767 0
M  V30 2635 O 247.035 1.71777 -0.537821 0
M  V30 2636 H 243.41 0.589236 -0.467231 0
M  V30 2637 H 245.381 1.71035 -2.44519 0
M  V30 2638 C 244.13 3.16851 -1.43181 0
M  V30 2639 H 243.453 3.27598 -2.29171 0
M  V30 2640 H 244.893 3.96156 -1.51118 0
M  V30 2641 C 243.352 3.36568 -0.149616 0
M  V30 2642 O 243.882 3.93885 0.788509 0
M  V30 2643 N 242.088 2.90539 -0.0593484 0
M  V30 2644 H 241.635 2.4408 -0.823575 0
M  V30 2645 H 241.593 3.04108 0.797853 0
M  V30 2646 N 245.365 1.30045 0.890287 0
M  V30 2647 C 246.613 1.18327 1.63839 0
M  V30 2648 C 246.934 -0.263455 1.93212 0
M  V30 2649 O 246.204 -1.17856 1.56482 0
M  V30 2650 H 244.784 0.434933 0.607324 0
M  V30 2651 H 247.446 1.631 1.06698 0
M  V30 2652 H 246.542 1.74024 2.59079 0
M  V30 2653 N 246.843 -1.10192 1.12674 0
M  V30 2654 C 248.09 -1.82205 0.883606 0
M  V30 2655 C 248.418 -1.8532 -0.590492 0
M  V30 2656 O 247.673 -1.31137 -1.45264 0
M  V30 2657 C 247.972 -3.28552 1.4067 0
M  V30 2658 C 247.638 -3.45582 2.89627 0
M  V30 2659 C 246.3 -3.49937 3.30299 0
M  V30 2660 C 248.652 -3.50768 3.85501 0
M  V30 2661 C 245.98 -3.57049 4.65546 0
M  V30 2662 C 248.332 -3.59414 5.20581 0
M  V30 2663 C 246.996 -3.62034 5.60792 0
M  V30 2664 H 246.266 -0.666735 0.323334 0
M  V30 2665 H 248.913 -1.29868 1.40736 0
M  V30 2666 H 247.218 -3.83473 0.80347 0
M  V30 2667 H 248.915 -3.82788 1.19475 0
M  V30 2668 H 245.505 -3.42871 2.57172 0
M  V30 2669 H 249.689 -3.46651 3.55171 0
M  V30 2670 H 244.945 -3.57361 4.96088 0
M  V30 2671 H 249.119 -3.62371 5.94693 0
M  V30 2672 H 246.746 -3.67298 6.6558 0
M  V30 2673 N 248.321 -0.919034 -1.28029 0
M  V30 2674 C 249.251 -0.428581 -2.29533 0
M  V30 2675 C 250.232 0.50659 -1.62381 0
M  V30 2676 O 251.417 0.413195 -1.89753 0
M  V30 2677 C 248.547 0.327388 -3.45753 0
M  V30 2678 C 247.501 -0.519137 -4.2484 0
M  V30 2679 C 246.827 0.365486 -5.33449 0
M  V30 2680 C 248.127 -1.77914 -4.91064 0
M  V30 2681 H 249.821 -1.27687 -2.70807 0
M  V30 2682 H 247.367 -0.615428 -1.30186 0
M  V30 2683 H 249.32 0.681378 -4.15855 0
M  V30 2684 H 248.044 1.20963 -3.03374 0
M  V30 2685 H 246.703 -0.855717 -3.56473 0
M  V30 2686 H 246.351 1.24642 -4.87312 0
M  V30 2687 H 246.051 -0.197356 -5.87268 0
M  V30 2688 H 247.575 0.715241 -6.06396 0
M  V30 2689 H 248.989 -1.49374 -5.53498 0
M  V30 2690 H 247.386 -2.2848 -5.54903 0
M  V30 2691 H 248.456 -2.50382 -4.15255 0
M  V30 2692 N 249.799 1.42003 -0.683588 0
M  V30 2693 C 251.076 1.95112 -0.138075 0
M  V30 2694 C 251.456 1.62359 1.34918 0
M  V30 2695 O 250.804 0.924311 2.08971 0
M  V30 2696 C 251.014 3.46505 -0.416581 0
M  V30 2697 C 252.362 4.23254 -0.337834 0
M  V30 2698 O 253.386 3.54468 -0.35082 0
M  V30 2699 O 252.245 5.45743 -0.287596 0
M  V30 2700 H 249.339 0.826961 -0.00797996 0
M  V30 2701 H 251.885 1.51784 -0.758924 0
M  V30 2702 H 250.657 3.63582 -1.4465 0
M  V30 2703 H 250.28 3.969 0.235839 0
M  V30 2704 N 251.277 0.427512 1.51691 0
M  V30 2705 C 252.502 -0.143601 2.06902 0
M  V30 2706 C 252.927 -1.36536 1.29382 0
M  V30 2707 O 252.285 -1.78289 0.329043 0
M  V30 2708 C 252.333 -0.454207 3.57728 0
M  V30 2709 O 251.437 -1.54228 3.82475 0
M  V30 2710 H 250.778 -0.00617128 0.663971 0
M  V30 2711 H 253.308 0.606014 1.95419 0
M  V30 2712 H 253.318 -0.707525 4.01818 0
M  V30 2713 H 251.993 0.438812 4.13579 0
M  V30 2714 H 250.57 -1.2797 3.50254 0
M  V30 2715 N 252.755 -1.56801 0.158532 0
M  V30 2716 C 253.98 -2.01295 -0.499516 0
M  V30 2717 C 254.405 -1.03799 -1.56867 0
M  V30 2718 O 253.763 -0.0155162 -1.81293 0
M  V30 2719 C 253.811 -3.44469 -1.06647 0
M  V30 2720 O 252.915 -3.50012 -2.18095 0
M  V30 2721 H 252.256 -0.652884 -0.12099 0
M  V30 2722 H 254.786 -2.02958 0.258661 0
M  V30 2723 H 254.796 -3.8351 -1.39227 0
M  V30 2724 H 253.471 -4.14932 -0.283581 0
M  V30 2725 H 252.048 -3.22822 -1.86656 0
M  V30 2726 N 254.233 0.115231 -1.57178 0
M  V30 2727 C 255.143 1.15994 -2.03918 0
M  V30 2728 C 256.159 1.45103 -0.960268 0
M  V30 2729 O 257.335 1.56144 -1.27204 0
M  V30 2730 C 254.4 2.46568 -2.43732 0
M  V30 2731 C 253.461 2.24822 -3.65723 0
M  V30 2732 C 252.694 3.4917 -4.03629 0
M  V30 2733 O 252.917 4.56623 -3.41835 0
M  V30 2734 O 251.851 3.39949 -4.96708 0
M  V30 2735 H 255.677 0.793019 -2.93164 0
M  V30 2736 H 253.262 0.3263 -1.45793 0
M  V30 2737 H 255.144 3.23492 -2.70057 0
M  V30 2738 H 253.819 2.82726 -1.57631 0
M  V30 2739 H 252.726 1.45744 -3.44542 0
M  V30 2740 H 254.059 1.93566 -4.52541 0
M  V30 2741 N 255.711 1.52812 0.385517 0
M  V30 2742 C 256.641 1.80808 1.47752 0
M  V30 2743 C 257.622 0.660318 1.5676 0
M  V30 2744 O 258.807 0.908246 1.71652 0
M  V30 2745 C 255.937 1.98008 2.85324 0
M  V30 2746 C 254.891 3.13709 2.91154 0
M  V30 2747 C 254.217 3.16169 4.31209 0
M  V30 2748 C 255.517 4.52709 2.60483 0
M  V30 2749 H 257.211 2.72253 1.24573 0
M  V30 2750 H 254.757 1.31003 0.597839 0
M  V30 2751 H 256.71 2.16176 3.61726 0
M  V30 2752 H 255.434 1.03255 3.09848 0
M  V30 2753 H 254.093 2.95329 2.17201 0
M  V30 2754 H 253.741 2.19092 4.52778 0
M  V30 2755 H 253.441 3.93894 4.36029 0
M  V30 2756 H 254.965 3.36496 5.09512 0
M  V30 2757 H 256.379 4.71173 3.26602 0
M  V30 2758 H 254.776 5.32528 2.76648 0
M  V30 2759 H 255.846 4.59186 1.55809 0
M  V30 2760 N 257.189 -0.644168 1.43834 0
M  V30 2761 C 258.099 -1.78563 1.52159 0
M  V30 2762 C 259.115 -1.69147 0.408069 0
M  V30 2763 O 260.291 -1.90156 0.663524 0
M  V30 2764 C 257.356 -3.14888 1.45073 0
M  V30 2765 C 256.417 -3.36034 2.6717 0
M  V30 2766 C 255.65 -4.65855 2.60413 0
M  V30 2767 O 255.873 -5.45805 1.65689 0
M  V30 2768 O 254.807 -4.88918 3.5106 0
M  V30 2769 H 258.633 -1.74494 2.48567 0
M  V30 2770 H 256.218 -0.80378 1.25935 0
M  V30 2771 H 258.1 -3.96179 1.43597 0
M  V30 2772 H 256.775 -3.19528 0.518037 0
M  V30 2773 H 255.682 -2.54472 2.74217 0
M  V30 2774 H 257.015 -3.36247 3.59442 0
M  V30 2775 N 258.668 -1.30515 -0.883378 0
M  V30 2776 C 259.616 -1.16941 -2.01066 0
M  V30 2777 C 260.61 -0.0809148 -1.69207 0
M  V30 2778 O 261.816 -0.241877 -1.78367 0
M  V30 2779 H 258.191 -0.361705 -0.659298 0
M  V30 2780 H 260.162 -2.12344 -2.09649 0
M  V30 2781 C 258.911 -0.879694 -3.36388 0
M  V30 2782 H 258.234 -1.70936 -3.61415 0
M  V30 2783 H 259.674 -0.82483 -4.159 0
M  V30 2784 C 258.133 0.417409 -3.34304 0
M  V30 2785 O 258.663 1.43843 -3.75063 0
M  V30 2786 N 256.869 0.429141 -2.87414 0
M  V30 2787 H 256.416 -0.402222 -2.5444 0
M  V30 2788 H 256.374 1.29696 -2.86403 0
M  V30 2789 N 260.146 1.09593 -1.13257 0
M  V30 2790 C 261.395 1.81105 -0.887917 0
M  V30 2791 C 261.708 1.86563 0.587672 0
M  V30 2792 O 262.914 2.54367 0.949204 0
M  V30 2793 C 261.37 3.25338 -1.53895 0
M  V30 2794 C 260.978 3.28151 -3.04994 0
M  V30 2795 C 262.722 4.01617 -1.37492 0
M  V30 2796 C 260.629 4.66897 -3.6299 0
M  V30 2797 H 259.559 0.678661 -0.328534 0
M  V30 2798 H 262.21 1.23183 -1.36008 0
M  V30 2799 H 260.592 3.8331 -0.994446 0
M  V30 2800 H 261.766 2.79953 -3.66009 0
M  V30 2801 H 260.081 2.65361 -3.20893 0
M  V30 2802 H 262.678 5.04119 -1.78235 0
M  V30 2803 H 263.021 4.15072 -0.31957 0
M  V30 2804 H 263.554 3.50082 -1.88912 0
M  V30 2805 H 260.293 4.58643 -4.68323 0
M  V30 2806 H 259.813 5.15426 -3.06752 0
M  V30 2807 H 261.492 5.3587 -3.62563 0
M  V30 2808 N 261.624 0.925811 1.2754 0
M  V30 2809 C 262.873 0.561084 1.93739 0
M  V30 2810 C 263.186 -0.901685 1.73577 0
M  V30 2811 O 264.392 -1.37511 2.34101 0
M  V30 2812 C 262.848 0.952668 3.47062 0
M  V30 2813 C 262.456 2.43599 3.75983 0
M  V30 2814 C 264.2 0.659103 4.19352 0
M  V30 2815 C 262.107 2.76707 5.22673 0
M  V30 2816 H 261.037 0.206122 0.725279 0
M  V30 2817 H 263.688 1.12637 1.44863 0
M  V30 2818 H 262.07 0.316053 3.94737 0
M  V30 2819 H 263.244 3.12035 3.39073 0
M  V30 2820 H 261.559 2.70125 3.16893 0
M  V30 2821 H 264.156 0.882985 5.27359 0
M  V30 2822 H 264.499 -0.403607 4.14339 0
M  V30 2823 H 265.032 1.25473 3.77494 0
M  V30 2824 H 261.771 3.8188 5.32774 0
M  V30 2825 H 261.291 2.12919 5.60737 0
M  V30 2826 H 262.97 2.6435 5.90532 0
M  V30 2827 N 263.102 -1.41638 0.69111 0
M  V30 2828 C 264.327 -2.06148 0.227583 0
M  V30 2829 C 264.752 -1.51652 -1.11281 0
M  V30 2830 O 264.11 -0.64164 -1.69566 0
M  V30 2831 C 264.158 -3.60095 0.190858 0
M  V30 2832 O 263.262 -4.03845 -0.835664 0
M  V30 2833 H 262.603 -0.654434 0.112306 0
M  V30 2834 H 265.133 -1.81484 0.944714 0
M  V30 2835 H 265.143 -4.07995 0.020207 0
M  V30 2836 H 263.818 -3.99129 1.16915 0
M  V30 2837 H 262.395 -3.67458 -0.63473 0
M  V30 2838 N 264.58 -0.43555 -1.51462 0
M  V30 2839 C 265.512 0.41257 -2.25456 0
M  V30 2840 C 266.525 0.987822 -1.29406 0
M  V30 2841 O 267.714 0.882266 -1.55172 0
M  V30 2842 C 264.814 1.58894 -2.99342 0
M  V30 2843 C 263.987 1.13288 -4.22474 0
M  V30 2844 C 263.046 2.17917 -4.78956 0
M  V30 2845 O 262.072 1.77425 -5.40841 0
M  V30 2846 N 263.274 3.50382 -4.62832 0
M  V30 2847 H 266.039 -0.221603 -2.9888 0
M  V30 2848 H 263.6 -0.264342 -1.59727 0
M  V30 2849 H 265.592 2.28508 -3.34015 0
M  V30 2850 H 264.162 2.12849 -2.28941 0
M  V30 2851 H 263.382 0.263881 -3.93316 0
M  V30 2852 H 264.67 0.805542 -5.02383 0
M  V30 2853 H 264.068 3.86013 -4.13534 0
M  V30 2854 H 262.625 4.15895 -5.01871 0
M  V30 2855 N 266.058 1.56714 -0.166846 0
M  V30 2856 C 266.991 2.13577 0.80375 0
M  V30 2857 C 267.969 1.06464 1.22899 0
M  V30 2858 O 269.153 1.34413 1.32157 0
M  V30 2859 C 266.28 2.67168 2.0818 0
M  V30 2860 C 265.326 3.86612 1.80093 0
M  V30 2861 S 266.159 5.26565 0.97416 0
M  V30 2862 C 267.315 5.83558 2.26297 0
M  V30 2863 H 267.548 2.9557 0.320267 0
M  V30 2864 H 265.081 1.54326 0.0477555 0
M  V30 2865 H 267.039 2.98692 2.8159 0
M  V30 2866 H 265.7 1.85269 2.53642 0
M  V30 2867 H 264.893 4.22422 2.7491 0
M  V30 2868 H 264.495 3.55951 1.14781 0
M  V30 2869 H 266.787 5.962 3.21795 0
M  V30 2870 H 267.73 6.80731 1.94962 0
M  V30 2871 H 268.138 5.11944 2.37853 0
M  V30 2872 N 267.536 -0.106894 1.57237 0
M  V30 2873 C 268.469 -1.16125 1.96444 0
M  V30 2874 C 269.447 -1.3947 0.835871 0
M  V30 2875 O 270.631 -1.53425 1.09513 0
M  V30 2876 C 267.758 -2.51277 2.27107 0
M  V30 2877 C 266.804 -2.44285 3.4961 0
M  V30 2878 S 267.637 -1.87077 5.01759 0
M  V30 2879 C 268.793 -3.23877 5.35588 0
M  V30 2880 H 269.026 -0.826971 2.85567 0
M  V30 2881 H 266.559 -0.314124 1.51171 0
M  V30 2882 H 268.517 -3.29035 2.45451 0
M  V30 2883 H 267.178 -2.81879 1.38576 0
M  V30 2884 H 266.371 -3.4387 3.68469 0
M  V30 2885 H 265.973 -1.74652 3.30715 0
M  V30 2886 H 268.265 -4.20122 5.31511 0
M  V30 2887 H 269.208 -3.09833 6.36717 0
M  V30 2888 H 269.616 -3.22864 4.63054 0
M  V30 2889 N 269.014 -1.53014 -0.377408 0
M  V30 2890 C 269.964 -1.74996 -1.46152 0
M  V30 2891 C 270.948 -0.604236 -1.49123 0
M  V30 2892 O 272.14 -0.862489 -1.54564 0
M  V30 2893 C 269.269 -1.93267 -2.8373 0
M  V30 2894 C 268.355 -3.13807 -2.85283 0
M  V30 2895 N 268.746 -4.35941 -2.56493 0
M  V30 2896 C 267.044 -3.14288 -3.16448 0
M  V30 2897 C 267.745 -5.17615 -2.65424 0
M  V30 2898 N 266.721 -4.53559 -2.99641 0
M  V30 2899 H 270.523 -2.67044 -1.22738 0
M  V30 2900 H 268.037 -1.51479 -0.585479 0
M  V30 2901 H 270.034 -2.0714 -3.61799 0
M  V30 2902 H 268.694 -1.0244 -3.08117 0
M  V30 2903 H 269.705 -4.63876 -2.30302 0
M  V30 2904 H 266.382 -2.33312 -3.46225 0
M  V30 2905 H 267.772 -6.25006 -2.46612 0
M  V30 2906 N 270.492 0.636531 -1.44174 0
M  V30 2907 C 271.738 1.39826 -1.4689 0
M  V30 2908 C 272.071 1.93947 -0.0990585 0
M  V30 2909 O 271.346 1.73325 0.882544 0
M  V30 2910 C 271.629 2.56751 -2.5249 0
M  V30 2911 C 271.482 2.08014 -3.98811 0
M  V30 2912 C 272.801 3.58946 -2.54649 0
M  V30 2913 H 269.92 0.507075 -0.53483 0
M  V30 2914 H 272.562 0.720188 -1.75822 0
M  V30 2915 H 270.712 3.14597 -2.2795 0
M  V30 2916 H 272.384 1.5504 -4.34466 0
M  V30 2917 H 270.627 1.39242 -4.10846 0
M  V30 2918 H 271.298 2.92169 -4.68339 0
M  V30 2919 H 273.774 3.1089 -2.76563 0
M  V30 2920 H 272.65 4.38286 -3.3045 0
M  V30 2921 H 272.911 4.12655 -1.58646 0
M  V30 2922 N 271.97 1.30982 0.876444 0
M  V30 2923 C 272.933 1.18054 1.96459 0
M  V30 2924 C 273.933 0.109399 1.60427 0
M  V30 2925 O 275.123 0.358173 1.70478 0
M  V30 2926 C 272.255 0.810616 3.31122 0
M  V30 2927 H 273.448 2.14735 2.09354 0
M  V30 2928 H 271.001 1.145 1.06392 0
M  V30 2929 H 271.736 -0.155322 3.23928 0
M  V30 2930 H 271.521 1.58481 3.58645 0
M  V30 2931 H 273.011 0.743876 4.10921 0
M  V30 2932 N 273.449 -1.08991 1.13837 0
M  V30 2933 C 274.359 -2.19301 0.833333 0
M  V30 2934 C 275.375 -1.73026 -0.183847 0
M  V30 2935 O 276.551 -2.01395 -0.0138092 0
M  V30 2936 C 273.616 -3.45323 0.308651 0
M  V30 2937 C 272.677 -4.06255 1.38764 0
M  V30 2938 C 271.91 -5.26262 0.887896 0
M  V30 2939 O 272.133 -5.69747 -0.27287 0
M  V30 2940 O 271.067 -5.78435 1.66421 0
M  V30 2941 H 274.893 -2.47854 1.75506 0
M  V30 2942 H 272.478 -1.18012 0.916166 0
M  V30 2943 H 274.36 -4.21394 0.0216739 0
M  V30 2944 H 273.035 -3.18362 -0.585431 0
M  V30 2945 H 271.942 -3.318 1.72799 0
M  V30 2946 H 273.275 -4.37452 2.25602 0
M  V30 2947 N 274.927 -0.932562 -1.27047 0
M  V30 2948 C 276.157 -0.591173 -1.97961 0
M  V30 2949 C 276.565 0.836219 -1.69717 0
M  V30 2950 O 275.908 1.56801 -0.957036 0
M  V30 2951 C 275.97 -0.743082 -3.51736 0
M  V30 2952 C 275.634 -2.1435 -4.03613 0
M  V30 2953 C 276.631 -3.11815 -4.16014 0
M  V30 2954 C 274.316 -2.46175 -4.37839 0
M  V30 2955 C 276.31 -4.39211 -4.61923 0
M  V30 2956 C 273.997 -3.73806 -4.83438 0
M  V30 2957 C 274.995 -4.70137 -4.95439 0
M  V30 2958 O 274.683 -5.95496 -5.40037 0
M  V30 2959 H 274.415 -0.222375 -0.638377 0
M  V30 2960 H 276.969 -1.25317 -1.62742 0
M  V30 2961 H 275.199 -0.0239739 -3.86693 0
M  V30 2962 H 276.888 -0.40603 -4.03864 0
M  V30 2963 H 277.654 -2.88549 -3.89826 0
M  V30 2964 H 273.533 -1.71936 -4.27737 0
M  V30 2965 H 277.077 -5.14404 -4.71205 0
M  V30 2966 H 272.974 -3.96888 -5.09068 0
M  V30 2967 H 273.742 -5.98554 -5.58279 0
M  V30 2968 N 276.405 1.4127 -0.698611 0
M  V30 2969 C 277.335 2.33447 -0.049629 0
M  V30 2970 C 278.316 1.51982 0.763898 0
M  V30 2971 O 279.501 1.80509 0.716257 0
M  V30 2972 C 276.631 3.35828 0.885267 0
M  V30 2973 C 275.585 4.27627 0.178613 0
M  V30 2974 C 274.911 5.20406 1.22807 0
M  V30 2975 C 276.211 5.13459 -0.956933 0
M  V30 2976 H 277.905 2.87966 -0.81951 0
M  V30 2977 H 275.451 1.38461 -0.395538 0
M  V30 2978 H 277.404 3.9924 1.34854 0
M  V30 2979 H 276.128 2.79666 1.68685 0
M  V30 2980 H 274.787 3.65643 -0.26466 0
M  V30 2981 H 274.435 4.60558 2.02226 0
M  V30 2982 H 274.135 5.82661 0.760239 0
M  V30 2983 H 275.659 5.86695 1.69179 0
M  V30 2984 H 277.073 5.70421 -0.573805 0
M  V30 2985 H 275.47 5.8467 -1.35205 0
M  V30 2986 H 276.54 4.50443 -1.79524 0
M  V30 2987 N 277.883 0.443576 1.51229 0
M  V30 2988 C 278.793 -0.370721 2.31652 0
M  V30 2989 C 279.809 -1.02186 1.40833 0
M  V30 2990 O 280.985 -1.01586 1.73903 0
M  V30 2991 C 278.05 -1.45376 3.14749 0
M  V30 2992 C 277.111 -0.822099 4.21355 0
M  V30 2993 C 276.344 -1.85353 5.0048 0
M  V30 2994 O 276.567 -3.07656 4.80316 0
M  V30 2995 O 275.501 -1.4406 5.84406 0
M  V30 2996 H 279.327 0.286002 3.0235 0
M  V30 2997 H 276.912 0.20598 1.47973 0
M  V30 2998 H 278.794 -2.08173 3.66391 0
M  V30 2999 H 277.469 -2.09445 2.46809 0
M  V30 3000 H 276.376 -0.155909 3.73775 0
M  V30 3001 H 277.709 -0.224797 4.91686 0
M  V30 3002 N 279.361 -1.56624 0.175154 0
M  V30 3003 C 280.607 -1.98061 -0.462976 0
M  V30 3004 C 280.962 -1.05949 -1.60601 0
M  V30 3005 O 280.255 -0.0999027 -1.91339 0
M  V30 3006 C 280.449 -3.43419 -0.989864 0
M  V30 3007 C 280.278 -4.49587 0.100583 0
M  V30 3008 C 279.048 -5.02281 0.551539 0
M  V30 3009 C 281.246 -5.06322 0.902369 0
M  V30 3010 N 279.228 -5.92088 1.62189 0
M  V30 3011 C 280.599 -5.92607 1.82256 0
M  V30 3012 C 282.654 -4.88811 0.947019 0
M  V30 3013 C 281.357 -6.63254 2.78364 0
M  V30 3014 C 283.383 -5.60182 1.89606 0
M  V30 3015 C 282.745 -6.46197 2.80372 0
M  V30 3016 H 278.844 -0.769833 -0.137409 0
M  V30 3017 H 281.428 -1.9273 0.276256 0
M  V30 3018 H 279.599 -3.49288 -1.6986 0
M  V30 3019 H 281.331 -3.7186 -1.59694 0
M  V30 3020 H 278.086 -4.73367 0.148537 0
M  V30 3021 H 278.51 -6.41696 2.15767 0
M  V30 3022 H 283.152 -4.22004 0.259304 0
M  V30 3023 H 280.87 -7.29271 3.48122 0
M  V30 3024 H 284.456 -5.48617 1.93676 0
M  V30 3025 H 283.336 -7.00453 3.52612 0
M  V30 3026 N 280.839 0.0985539 -1.57292 0
M  V30 3027 C 282.116 0.834155 -1.76921 0
M  V30 3028 C 282.496 1.97101 -0.755928 0
M  V30 3029 O 281.844 2.27474 0.216245 0
M  V30 3030 C 282.054 1.33194 -3.22584 0
M  V30 3031 C 283.402 1.77611 -3.85668 0
M  V30 3032 O 284.426 1.42825 -3.26312 0
M  V30 3033 O 283.285 2.4192 -4.90038 0
M  V30 3034 H 280.379 0.397628 -0.725135 0
M  V30 3035 H 282.925 0.0807044 -1.69508 0
M  V30 3036 H 281.697 0.517248 -3.87866 0
M  V30 3037 H 281.32 2.1475 -3.34616 0
M  V30 3038 N 282.317 1.53212 0.369288 0
M  V30 3039 C 283.563 1.69466 1.11397 0
M  V30 3040 C 283.896 0.443257 1.89074 0
M  V30 3041 O 283.171 -0.559386 1.86282 0
M  V30 3042 C 283.454 2.9422 2.07621 0
M  V30 3043 C 283.307 4.29508 1.33577 0
M  V30 3044 C 284.626 3.14565 3.07794 0
M  V30 3045 H 281.745 0.616667 0.403597 0
M  V30 3046 H 284.387 1.85845 0.395179 0
M  V30 3047 H 282.537 2.80387 2.68916 0
M  V30 3048 H 284.209 4.55147 0.750955 0
M  V30 3049 H 282.452 4.29088 0.637618 0
M  V30 3050 H 283.123 5.12926 2.03989 0
M  V30 3051 H 285.599 3.2756 2.56601 0
M  V30 3052 H 284.475 4.03297 3.72348 0
M  V30 3053 H 284.736 2.29675 3.77759 0
M  V30 3054 N 283.795 -0.628877 1.44509 0
M  V30 3055 C 285.023 -1.41554 1.50897 0
M  V30 3056 C 285.438 -1.8832 0.134564 0
M  V30 3057 O 284.795 -1.60969 -0.859965 0
M  V30 3058 C 284.846 -2.63435 2.47556 0
M  V30 3059 O 284.567 -2.18619 3.79654 0
M  V30 3060 C 286.068 -3.56537 2.63431 0
M  V30 3061 H 283.288 -0.434044 0.511709 0
M  V30 3062 H 285.832 -0.768895 1.89495 0
M  V30 3063 H 283.987 -3.24187 2.12089 0
M  V30 3064 H 284.401 -2.97652 4.31861 0
M  V30 3065 H 285.875 -4.38657 3.35088 0
M  V30 3066 H 286.352 -4.05493 1.68738 0
M  V30 3067 H 286.958 -3.01653 2.9981 0
M  V30 3068 N 285.273 -1.31445 -0.869486 0
M  V30 3069 C 286.183 -1.21097 -2.0093 0
M  V30 3070 C 287.199 -0.127584 -1.73532 0
M  V30 3071 O 288.375 -0.345477 -1.98415 0
M  V30 3072 C 285.44 -0.919378 -3.34288 0
M  V30 3073 C 284.501 -2.08971 -3.75006 0
M  V30 3074 C 283.734 -1.81194 -5.02001 0
M  V30 3075 O 283.957 -0.747296 -5.65484 0
M  V30 3076 O 282.891 -2.66883 -5.39497 0
M  V30 3077 H 286.717 -2.16883 -2.12592 0
M  V30 3078 H 284.302 -1.11189 -0.997868 0
M  V30 3079 H 286.184 -0.772625 -4.14257 0
M  V30 3080 H 284.859 0.00844772 -3.23699 0
M  V30 3081 H 283.766 -2.29187 -2.95676 0
M  V30 3082 H 285.099 -2.9998 -3.90221 0
M  V30 3083 N 286.751 1.08385 -1.14413 0
M  V30 3084 C 287.681 2.17321 -0.854044 0
M  V30 3085 C 288.662 1.69024 0.191049 0
M  V30 3086 O 289.847 1.94141 0.0476779 0
M  V30 3087 C 286.977 3.45719 -0.330983 0
M  V30 3088 C 285.931 4.07409 -1.31155 0
M  V30 3089 C 285.257 5.30762 -0.64778 0
M  V30 3090 C 286.557 4.48665 -2.67388 0
M  V30 3091 H 288.251 2.41845 -1.76498 0
M  V30 3092 H 285.797 1.16233 -0.850051 0
M  V30 3093 H 287.75 4.21241 -0.115645 0
M  V30 3094 H 286.474 3.2075 0.615381 0
M  V30 3095 H 285.133 3.33919 -1.51306 0
M  V30 3096 H 284.781 5.02078 0.304398 0
M  V30 3097 H 284.481 5.72992 -1.30207 0
M  V30 3098 H 286.005 6.08998 -0.441972 0
M  V30 3099 H 287.419 5.15364 -2.51143 0
M  V30 3100 H 285.816 5.01814 -3.29093 0
M  V30 3101 H 286.886 3.60543 -3.24248 0
M  V30 3102 N 288.23 0.939286 1.26551 0
M  V30 3103 C 289.178 0.43815 2.28436 0
M  V30 3104 C 290.172 -0.483587 1.62351 0
M  V30 3105 O 291.378 -0.362009 1.76322 0
M  V30 3106 H 287.753 0.123149 0.741848 0
M  V30 3107 H 289.724 1.31002 2.68106 0
M  V30 3108 C 288.473 -0.283052 3.46546 0
M  V30 3109 H 287.796 0.417043 3.97619 0
M  V30 3110 H 289.236 -0.597948 4.19763 0
M  V30 3111 C 287.695 -1.50018 3.01656 0
M  V30 3112 O 288.225 -2.59855 3.0633 0
M  V30 3113 N 286.431 -1.35608 2.57019 0
M  V30 3114 H 285.978 -0.46244 2.53415 0
M  V30 3115 H 285.936 -2.17165 2.27347 0
M  V30 3116 N 289.708 -1.40897 0.706093 0
M  V30 3117 C 291.119 -1.84023 0.315052 0
M  V30 3118 C 291.47 -1.5906 -1.14866 0
M  V30 3119 O 290.595 -1.06651 -1.88293 0
M  V30 3120 C 291.19 -3.34055 0.565038 0
M  V30 3121 C 289.749 -3.7571 0.227806 0
M  V30 3122 C 288.896 -2.64204 0.842122 0
M  V30 3123 H 291.847 -1.303 0.905963 0
M  V30 3124 H 291.868 -3.80107 -0.172843 0
M  V30 3125 H 291.38 -3.52192 1.63042 0
M  V30 3126 H 289.481 -3.63172 -0.832895 0
M  V30 3127 H 289.594 -4.74103 0.690174 0
M  V30 3128 H 287.958 -2.53255 0.270893 0
M  V30 3129 H 288.741 -2.85155 1.91158 0
M  V30 3130 N 291.186 -0.45159 -1.50991 0
M  V30 3131 C 292.435 0.111653 -2.01391 0
M  V30 3132 C 292.748 1.42529 -1.33959 0
M  V30 3133 O 293.954 2.07232 -1.75405 0
M  V30 3134 C 292.41 0.249514 -3.59034 0
M  V30 3135 C 292.018 -1.05453 -4.35412 0
M  V30 3136 C 293.762 0.765762 -4.17536 0
M  V30 3137 C 291.669 -0.881529 -5.84793 0
M  V30 3138 H 290.599 0.0455022 -0.752626 0
M  V30 3139 H 293.25 -0.583524 -1.73975 0
M  V30 3140 H 291.632 1.00803 -3.82955 0
M  V30 3141 H 292.806 -1.82248 -4.23229 0
M  V30 3142 H 291.121 -1.50039 -3.88429 0
M  V30 3143 H 293.718 0.911913 -5.26866 0
M  V30 3144 H 294.061 1.75201 -3.77638 0
M  V30 3145 H 294.594 0.0651744 -3.97747 0
M  V30 3146 H 291.333 -1.84057 -6.29129 0
M  V30 3147 H 290.853 -0.153625 -5.99603 0
M  V30 3148 H 292.532 -0.540363 -6.4474 0
M  V30 3149 N 292.664 1.56529 -0.183458 0
M  V30 3150 C 293.594 2.21549 0.737456 0
M  V30 3151 C 294.575 1.17489 1.23005 0
M  V30 3152 O 295.76 1.45959 1.281 0
M  V30 3153 C 292.89 2.86575 1.96194 0
M  V30 3154 C 291.844 3.96778 1.60473 0
M  V30 3155 C 291.17 4.48911 2.90487 0
M  V30 3156 C 292.47 5.15767 0.823497 0
M  V30 3157 H 294.164 2.98761 0.195453 0
M  V30 3158 H 291.71 1.43702 0.0925686 0
M  V30 3159 H 293.663 3.30739 2.61131 0
M  V30 3160 H 292.387 2.06749 2.52828 0
M  V30 3161 H 291.046 3.53286 0.978997 0
M  V30 3162 H 290.694 3.65862 3.45186 0
M  V30 3163 H 290.394 5.23265 2.67335 0
M  V30 3164 H 291.918 4.95771 3.56432 0
M  V30 3165 H 293.332 5.56549 1.37571 0
M  V30 3166 H 291.729 5.96114 0.690551 0
M  V30 3167 H 292.799 4.84574 -0.177782 0
M  V30 3168 N 294.142 -0.090211 1.57342 0
M  V30 3169 C 295.092 -1.11557 1.98844 0
M  V30 3170 C 296.076 -1.35503 0.867624 0
M  V30 3171 O 297.268 -1.36113 1.13148 0
M  V30 3172 C 294.397 -2.43446 2.42051 0
M  V30 3173 C 293.483 -2.22853 3.60828 0
M  V30 3174 N 293.874 -1.72141 4.75606 0
M  V30 3175 C 292.172 -2.53401 3.67021 0
M  V30 3176 C 292.873 -1.65932 5.57531 0
M  V30 3177 N 291.849 -2.11323 5.00843 0
M  V30 3178 H 295.651 -0.716499 2.85032 0
M  V30 3179 H 293.165 -0.297567 1.59651 0
M  V30 3180 H 295.162 -3.17644 2.70014 0
M  V30 3181 H 293.822 -2.84087 1.57241 0
M  V30 3182 H 294.833 -1.41268 4.98261 0
M  V30 3183 H 291.51 -2.97532 2.92884 0
M  V30 3184 H 292.9 -1.27733 6.59647 0
M  V30 3185 N 295.62 -1.53406 -0.361157 0
M  V30 3186 C 296.53 -1.83122 -1.4664 0
M  V30 3187 C 297.546 -0.719943 -1.58407 0
M  V30 3188 O 298.722 -1.01046 -1.74218 0
M  V30 3189 C 295.787 -2.01891 -2.81853 0
M  V30 3190 C 294.848 -3.25784 -2.79577 0
M  V30 3191 C 294.081 -3.43648 -4.0834 0
M  V30 3192 O 294.304 -2.65714 -5.0473 0
M  V30 3193 O 293.238 -4.37018 -4.13883 0
M  V30 3194 H 297.064 -2.7703 -1.24451 0
M  V30 3195 H 294.649 -1.38841 -0.551678 0
M  V30 3196 H 296.531 -2.15782 -3.61962 0
M  V30 3197 H 295.206 -1.11173 -3.0401 0
M  V30 3198 H 294.113 -3.17312 -1.98151 0
M  V30 3199 H 295.446 -4.16439 -2.62373 0
M  V30 3200 N 297.098 0.621204 -1.44841 0
M  V30 3201 C 298.031 1.7459 -1.46947 0
M  V30 3202 C 299.009 1.59273 -0.327238 0
M  V30 3203 O 300.193 1.81021 -0.525706 0
M  V30 3204 C 297.32 3.12274 -1.31159 0
M  V30 3205 C 296.366 3.46216 -2.49072 0
M  V30 3206 S 297.199 3.4258 -4.11581 0
M  V30 3207 C 298.355 4.82867 -3.98233 0
M  V30 3208 H 298.588 1.72538 -2.42111 0
M  V30 3209 H 296.121 0.796683 -1.32259 0
M  V30 3210 H 298.079 3.91722 -1.22737 0
M  V30 3211 H 296.74 3.11855 -0.374885 0
M  V30 3212 H 295.933 4.4643 -2.33915 0
M  V30 3213 H 295.535 2.74253 -2.54286 0
M  V30 3214 H 297.827 5.7234 -3.62537 0
M  V30 3215 H 298.77 5.0308 -4.98313 0
M  V30 3216 H 299.178 4.57908 -3.30121 0
M  V30 3217 N 298.576 1.31904 0.862503 0
M  V30 3218 C 299.509 1.14514 1.97388 0
M  V30 3219 C 300.487 0.0466493 1.62533 0
M  V30 3220 O 301.671 0.204484 1.87388 0
M  V30 3221 C 298.798 0.751347 3.30261 0
M  V30 3222 C 297.844 1.85395 3.84098 0
M  V30 3223 S 298.677 3.46081 4.08642 0
M  V30 3224 C 299.833 3.08655 5.44502 0
M  V30 3225 H 300.066 2.08597 2.11836 0
M  V30 3226 H 297.599 1.16475 1.01356 0
M  V30 3227 H 299.557 0.530901 4.07052 0
M  V30 3228 H 298.218 -0.170493 3.13637 0
M  V30 3229 H 297.411 1.53122 4.80177 0
M  V30 3230 H 297.013 2.02984 3.14123 0
M  V30 3231 H 299.305 2.58012 6.26447 0
M  V30 3232 H 300.248 4.03726 5.81731 0
M  V30 3233 H 300.656 2.45891 5.08132 0
M  V30 3234 N 300.054 -1.07777 1.14986 0
M  V30 3235 C 300.964 -2.18404 0.856546 0
M  V30 3236 C 301.98 -1.73211 -0.165485 0
M  V30 3237 O 303.156 -2.01399 0.00755219 0
M  V30 3238 C 300.221 -3.44977 0.34526 0
M  V30 3239 C 299.282 -4.0476 1.43065 0
M  V30 3240 C 298.515 -5.25291 0.943663 0
M  V30 3241 O 298.738 -5.70004 -0.212426 0
M  V30 3242 O 297.672 -5.76638 1.72547 0
M  V30 3243 H 301.498 -2.45978 1.78125 0
M  V30 3244 H 299.083 -1.17033 0.928631 0
M  V30 3245 H 300.965 -4.21348 0.0663671 0
M  V30 3246 H 299.64 -3.18965 -0.551631 0
M  V30 3247 H 298.547 -3.29949 1.76309 0
M  V30 3248 H 299.88 -4.35035 2.30229 0
M  V30 3249 N 301.532 -0.945985 -1.26051 0
M  V30 3250 C 302.442 -0.465633 -2.29933 0
M  V30 3251 C 303.458 0.462761 -1.67733 0
M  V30 3252 O 304.634 0.341118 -1.9849 0
M  V30 3253 C 301.699 0.256994 -3.45746 0
M  V30 3254 C 300.76 -0.708549 -4.23412 0
M  V30 3255 C 299.993 -0.0203135 -5.33696 0
M  V30 3256 O 300.216 1.19571 -5.57726 0
M  V30 3257 O 299.15 -0.701459 -5.97799 0
M  V30 3258 H 302.976 -1.32866 -2.73094 0
M  V30 3259 H 300.561 -0.712071 -1.31339 0
M  V30 3260 H 302.443 0.663852 -4.16138 0
M  V30 3261 H 301.118 1.09533 -3.04605 0
M  V30 3262 H 300.025 -1.16545 -3.55483 0
M  V30 3263 H 301.358 -1.51465 -4.68315 0
M  V30 3264 N 303.011 1.40521 -0.713556 0
M  V30 3265 C 304.26 2.00155 -0.249192 0
M  V30 3266 C 304.573 1.57224 1.16362 0
M  V30 3267 O 305.779 2.09542 1.72639 0
M  V30 3268 C 304.235 3.5773 -0.3946 0
M  V30 3269 C 303.843 4.09635 -1.81392 0
M  V30 3270 C 305.587 4.24499 0.00907364 0
M  V30 3271 C 303.494 5.59707 -1.91003 0
M  V30 3272 H 302.424 0.74868 -0.0894114 0
M  V30 3273 H 305.075 1.60784 -0.884352 0
M  V30 3274 H 303.457 3.94792 0.30911 0
M  V30 3275 H 304.631 3.83955 -2.54785 0
M  V30 3276 H 302.946 3.55456 -2.16888 0
M  V30 3277 H 305.543 5.34683 -0.0420404 0
M  V30 3278 H 305.886 4.02824 1.05065 0
M  V30 3279 H 306.419 3.92536 -0.645007 0
M  V30 3280 H 303.158 5.86234 -2.93275 0
M  V30 3281 H 302.678 5.87258 -1.22019 0
M  V30 3282 H 304.357 6.24776 -1.6812 0
M  V30 3283 N 304.489 0.459591 1.5075 0
M  V30 3284 C 305.766 -0.160371 1.94941 0
M  V30 3285 C 306.146 -1.58048 1.39943 0
M  V30 3286 O 305.494 -2.206 0.595629 0
M  V30 3287 C 305.704 -0.115432 3.48809 0
M  V30 3288 C 307.052 -0.310026 4.23467 0
M  V30 3289 O 308.076 -0.192543 3.55679 0
M  V30 3290 O 306.935 -0.546031 5.43765 0
M  V30 3291 H 304.029 -0.117925 0.818549 0
M  V30 3292 H 306.575 0.519169 1.61563 0
M  V30 3293 H 305.347 0.87652 3.81357 0
M  V30 3294 H 304.97 -0.836928 3.88692 0
M  V30 3295 N 305.967 -1.56429 0.191757 0
M  V30 3296 C 307.197 -2.01574 -0.452928 0
M  V30 3297 C 307.605 -1.07107 -1.55964 0
M  V30 3298 O 306.948 -0.067534 -1.83576 0
M  V30 3299 C 307.01 -3.43121 -1.07278 0
M  V30 3300 C 306.674 -4.56879 -0.105214 0
M  V30 3301 C 307.671 -5.15379 0.684149 0
M  V30 3302 C 305.356 -5.023 0.00489824 0
M  V30 3303 C 307.35 -6.17746 1.57062 0
M  V30 3304 C 305.037 -6.04511 0.894935 0
M  V30 3305 C 306.035 -6.62108 1.67637 0
M  V30 3306 O 305.723 -7.62335 2.55149 0
M  V30 3307 H 305.455 -0.665554 -0.118379 0
M  V30 3308 H 308.009 -2.03245 0.296737 0
M  V30 3309 H 306.239 -3.38425 -1.87097 0
M  V30 3310 H 307.928 -3.72093 -1.62177 0
M  V30 3311 H 308.694 -4.81157 0.609365 0
M  V30 3312 H 304.573 -4.57168 -0.593156 0
M  V30 3313 H 308.117 -6.6263 2.181 0
M  V30 3314 H 304.014 -6.38157 0.970847 0
M  V30 3315 H 304.782 -7.79741 2.48892 0
M  V30 3316 N 307.445 0.0818655 -1.57387 0
M  V30 3317 C 308.722 0.815343 -1.77796 0
M  V30 3318 C 309.102 1.96289 -0.77679 0
M  V30 3319 O 308.45 2.27691 0.192106 0
M  V30 3320 C 308.66 1.29765 -3.23978 0
M  V30 3321 C 310.008 1.7351 -3.8753 0
M  V30 3322 O 311.032 1.39356 -3.27808 0
M  V30 3323 O 309.891 2.36708 -4.92576 0
M  V30 3324 H 306.985 0.389914 -0.729312 0
M  V30 3325 H 309.531 0.0627213 -1.69584 0
M  V30 3326 H 308.303 0.47608 -3.88393 0
M  V30 3327 H 307.926 2.11189 -3.36875 0
M  V30 3328 N 308.923 1.53595 0.353017 0
M  V30 3329 C 309.873 1.77299 1.43349 0
M  V30 3330 C 310.857 0.627884 1.48143 0
M  V30 3331 O 312.049 0.88697 1.53173 0
M  V30 3332 C 309.178 1.97757 2.80619 0
M  V30 3333 C 308.264 3.18305 2.80254 0
M  V30 3334 N 308.655 4.39967 2.49526 0
M  V30 3335 C 306.953 3.19283 3.11407 0
M  V30 3336 C 307.654 5.21772 2.57156 0
M  V30 3337 N 306.63 4.58269 2.92388 0
M  V30 3338 H 310.432 2.68963 1.18474 0
M  V30 3339 H 307.946 1.52391 0.561306 0
M  V30 3340 H 309.943 2.1287 3.58458 0
M  V30 3341 H 308.603 1.07329 3.06448 0
M  V30 3342 H 309.614 4.67482 2.22893 0
M  V30 3343 H 306.291 2.3879 3.4247 0
M  V30 3344 H 307.681 6.2885 2.36638 0
M  V30 3345 N 310.401 -0.613514 1.45168 0
M  V30 3346 C 311.678 -1.37263 1.39349 0
M  V30 3347 C 312.058 -2.11012 0.0610848 0
M  V30 3348 O 311.406 -2.07502 -0.956825 0
M  V30 3349 C 311.616 -2.3244 2.60332 0
M  V30 3350 C 312.964 -2.9523 3.05163 0
M  V30 3351 O 313.988 -2.42762 2.60663 0
M  V30 3352 O 312.847 -3.90454 3.82372 0
M  V30 3353 H 309.941 -0.615188 0.552696 0
M  V30 3354 H 312.487 -0.637097 1.57287 0
M  V30 3355 H 311.259 -1.77164 3.48896 0
M  V30 3356 H 310.882 -3.13383 2.44698 0
M  V30 3357 N 311.879 -1.3236 -0.855495 0
M  V30 3358 C 313.127 -1.22629 -1.60644 0
M  V30 3359 C 313.448 0.212136 -1.93843 0
M  V30 3360 O 312.718 1.13666 -1.59552 0
M  V30 3361 H 311.298 -0.450882 -0.595579 0
M  V30 3362 H 313.96 -1.65871 -1.02337 0
M  V30 3363 H 313.056 -1.80832 -2.54374 0
M  V30 3364 N 313.357 1.07166 -1.15556 0
M  V30 3365 C 314.585 1.83514 -0.955519 0
M  V30 3366 C 315 1.82163 0.49621 0
M  V30 3367 O 314.357 1.23441 1.34419 0
M  V30 3368 C 314.408 3.30515 -1.46432 0
M  V30 3369 O 314.129 3.31937 -2.85918 0
M  V30 3370 C 315.63 4.23625 -1.30603 0
M  V30 3371 H 312.85 0.578926 -0.339244 0
M  V30 3372 H 315.394 1.35265 -1.53374 0
M  V30 3373 H 313.549 3.76106 -0.928584 0
M  V30 3374 H 313.963 4.23794 -3.09029 0
M  V30 3375 H 315.437 5.24831 -1.71047 0
M  V30 3376 H 315.914 4.38485 -0.250441 0
M  V30 3377 H 316.52 3.83871 -1.83094 0
M  V30 3378 N 314.835 0.952656 1.25548 0
M  V30 3379 C 316.081 0.607272 1.93494 0
M  V30 3380 C 316.414 -0.853245 1.74452 0
M  V30 3381 O 315.689 -1.61194 1.08843 0
M  V30 3382 C 315.972 0.96435 3.46947 0
M  V30 3383 C 315.825 2.48045 3.75225 0
M  V30 3384 C 317.144 0.487987 4.37386 0
M  V30 3385 H 314.263 0.222096 0.702739 0
M  V30 3386 H 316.905 1.18895 1.48203 0
M  V30 3387 H 315.055 0.469361 3.85654 0
M  V30 3388 H 316.727 3.04905 3.46166 0
M  V30 3389 H 314.97 2.919 3.209 0
M  V30 3390 H 315.641 2.6808 4.82532 0
M  V30 3391 H 318.117 0.912558 4.0597 0
M  V30 3392 H 316.993 0.766547 5.43521 0
M  V30 3393 H 317.254 -0.612063 4.37843 0
M  V30 3394 N 316.313 -1.40141 0.720998 0
M  V30 3395 C 317.538 -2.05618 0.271258 0
M  V30 3396 C 317.963 -1.53978 -1.08039 0
M  V30 3397 O 317.321 -0.677463 -1.68167 0
M  V30 3398 C 317.369 -3.59609 0.267197 0
M  V30 3399 O 316.473 -4.05526 -0.749814 0
M  V30 3400 H 315.814 -0.651904 0.126162 0
M  V30 3401 H 318.344 -1.79439 0.982997 0
M  V30 3402 H 318.354 -4.0786 0.106744 0
M  V30 3403 H 317.029 -3.96559 1.25354 0
M  V30 3404 H 315.606 -3.68722 -0.556644 0
M  V30 3405 N 317.792 -0.46758 -1.50504 0
M  V30 3406 C 318.722 0.318381 -2.31319 0
M  V30 3407 C 319.703 0.993564 -1.38066 0
M  V30 3408 O 320.888 0.991411 -1.66987 0
M  V30 3409 C 318.018 1.40275 -3.17711 0
M  V30 3410 C 316.972 0.849373 -4.19487 0
M  V30 3411 C 316.298 2.03177 -4.94594 0
M  V30 3412 C 317.598 -0.136942 -5.2212 0
M  V30 3413 H 319.292 -0.356106 -2.97275 0
M  V30 3414 H 316.838 -0.172703 -1.42961 0
M  V30 3415 H 318.791 1.96004 -3.73042 0
M  V30 3416 H 317.515 2.10596 -2.49634 0
M  V30 3417 H 316.174 0.314076 -3.65252 0
M  V30 3418 H 315.822 2.72187 -4.22993 0
M  V30 3419 H 315.522 1.66774 -5.63436 0
M  V30 3420 H 317.046 2.59403 -5.52759 0
M  V30 3421 H 318.46 0.331056 -5.72343 0
M  V30 3422 H 316.857 -0.41507 -5.98663 0
M  V30 3423 H 317.927 -1.06398 -4.73083 0
M  V30 3424 N 319.27 1.56325 -0.20005 0
M  V30 3425 C 320.18 2.22931 0.730668 0
M  V30 3426 C 321.196 1.22997 1.23076 0
M  V30 3427 O 322.372 1.55748 1.27689 0
M  V30 3428 C 319.437 2.87948 1.93098 0
M  V30 3429 C 318.498 4.03166 1.47497 0
M  V30 3430 C 317.731 4.65073 2.61807 0
M  V30 3431 O 317.954 4.25913 3.79413 0
M  V30 3432 O 316.888 5.54452 2.34237 0
M  V30 3433 H 320.714 3.03084 0.193391 0
M  V30 3434 H 318.299 1.49371 0.0294621 0
M  V30 3435 H 320.181 3.29063 2.6324 0
M  V30 3436 H 318.856 2.10771 2.45677 0
M  V30 3437 H 317.763 3.66664 0.742201 0
M  V30 3438 H 319.096 4.82022 0.995796 0
M  V30 3439 N 320.748 -0.0735177 1.57428 0
M  V30 3440 C 321.658 -1.10547 2.06922 0
M  V30 3441 C 322.674 -1.42506 0.998402 0
M  V30 3442 O 323.85 -1.52717 1.31299 0
M  V30 3443 C 320.915 -2.40019 2.50184 0
M  V30 3444 C 319.976 -2.15046 3.71556 0
M  V30 3445 C 319.209 -3.38345 4.12745 0
M  V30 3446 O 319.432 -4.47399 3.53822 0
M  V30 3447 O 318.366 -3.2666 5.05546 0
M  V30 3448 H 322.192 -0.715013 2.95163 0
M  V30 3449 H 319.777 -0.287531 1.46607 0
M  V30 3450 H 321.659 -3.16218 2.78539 0
M  V30 3451 H 320.334 -2.78447 1.65072 0
M  V30 3452 H 319.241 -1.36558 3.48285 0
M  V30 3453 H 320.574 -1.81499 4.57514 0
M  V30 3454 N 322.226 -1.5378 -0.344866 0
M  V30 3455 C 323.472 -1.72158 -1.0832 0
M  V30 3456 C 323.827 -0.478218 -1.86362 0
M  V30 3457 O 323.12 0.529152 -1.84148 0
M  V30 3458 C 323.314 -2.92407 -2.05506 0
M  V30 3459 C 323.143 -4.28318 -1.37017 0
M  V30 3460 C 321.913 -4.92832 -1.11558 0
M  V30 3461 C 324.111 -5.08086 -0.797071 0
M  V30 3462 N 322.093 -6.12619 -0.396358 0
M  V30 3463 C 323.464 -6.1965 -0.208336 0
M  V30 3464 C 325.519 -4.92986 -0.697787 0
M  V30 3465 C 324.222 -7.17763 0.470023 0
M  V30 3466 C 326.248 -5.91391 -0.033171 0
M  V30 3467 C 325.61 -7.02292 0.544599 0
M  V30 3468 H 321.709 -0.683017 -0.380805 0
M  V30 3469 H 324.293 -1.91211 -0.366961 0
M  V30 3470 H 322.464 -2.74857 -2.74423 0
M  V30 3471 H 324.196 -2.9951 -2.72169 0
M  V30 3472 H 320.951 -4.52362 -1.40234 0
M  V30 3473 H 321.375 -6.7698 -0.0515119 0
M  V30 3474 H 326.017 -4.07414 -1.13022 0
M  V30 3475 H 323.735 -8.0291 0.914351 0
M  V30 3476 H 327.321 -5.81784 0.0430009 0
M  V30 3477 H 326.201 -7.77129 1.05073 0
M  V30 3478 N 323.704 0.605807 -1.45491 0
M  V30 3479 C 324.953 1.36086 -1.48874 0
M  V30 3480 C 325.266 1.95131 -0.135333 0
M  V30 3481 O 326.472 2.7146 -0.0468144 0
M  V30 3482 C 324.928 2.46518 -2.62215 0
M  V30 3483 C 324.536 1.93877 -4.03876 0
M  V30 3484 C 326.28 3.23512 -2.74846 0
M  V30 3485 C 324.187 3.01801 -5.08596 0
M  V30 3486 H 323.117 0.511497 -0.553974 0
M  V30 3487 H 325.768 0.649089 -1.71636 0
M  V30 3488 H 324.15 3.20388 -2.32739 0
M  V30 3489 H 325.324 1.26704 -4.43038 0
M  V30 3490 H 323.639 1.29622 -3.95711 0
M  V30 3491 H 326.236 4.04013 -3.50253 0
M  V30 3492 H 326.579 3.74631 -1.81542 0
M  V30 3493 H 327.112 2.56742 -3.03856 0
M  V30 3494 H 323.851 2.55597 -6.03614 0
M  V30 3495 H 323.371 3.67535 -4.74002 0
M  V30 3496 H 325.05 3.66152 -5.33424 0
M  V30 3497 N 325.182 1.32811 0.848464 0
M  V30 3498 C 326.114 1.18095 1.96433 0
M  V30 3499 C 327.127 0.114354 1.62398 0
M  V30 3500 O 328.316 0.363892 1.74751 0
M  V30 3501 C 325.416 0.786798 3.2964 0
M  V30 3502 C 324.589 1.943 3.91875 0
M  V30 3503 C 323.648 1.53138 5.03423 0
M  V30 3504 O 322.674 2.24432 5.23086 0
M  V30 3505 N 323.876 0.430915 5.78898 0
M  V30 3506 H 326.641 2.14218 2.09597 0
M  V30 3507 H 324.202 1.2543 1.02367 0
M  V30 3508 H 326.194 0.493715 4.01677 0
M  V30 3509 H 324.764 -0.0834541 3.12489 0
M  V30 3510 H 323.984 2.40224 3.12547 0
M  V30 3511 H 325.272 2.71689 4.30189 0
M  V30 3512 H 324.67 -0.162333 5.65467 0
M  V30 3513 H 323.227 0.197466 6.51501 0
M  V30 3514 N 326.66 -1.06551 1.16123 0
M  V30 3515 C 327.908 -1.78947 0.939267 0
M  V30 3516 C 328.229 -1.87532 -0.534476 0
M  V30 3517 O 327.499 -1.38211 -1.38833 0
M  V30 3518 H 326.079 -0.662807 0.344523 0
M  V30 3519 H 328.741 -1.28725 1.46342 0
M  V30 3520 H 327.837 -2.81117 1.35572 0
M  V30 3521 N 328.138 -0.959301 -1.25041 0
M  V30 3522 C 329.386 -0.615393 -1.92503 0
M  V30 3523 C 329.707 0.850969 -1.75452 0
M  V30 3524 O 328.977 1.60658 -1.12098 0
M  V30 3525 H 327.557 -0.224613 -0.712431 0
M  V30 3526 H 330.219 -1.21855 -1.5211 0
M  V30 3527 H 329.315 -0.848738 -3.00338 0
M  V30 3528 N 329.616 1.39756 -0.72842 0
M  V30 3529 C 330.549 2.28176 -0.0330172 0
M  V30 3530 C 331.527 1.44035 0.754501 0
M  V30 3531 O 332.711 1.73434 0.738445 0
M  V30 3532 C 329.838 3.24795 0.960504 0
M  V30 3533 C 328.884 4.25693 0.262264 0
M  V30 3534 S 329.717 5.25714 -1.01906 0
M  V30 3535 C 330.873 6.25894 -0.0279717 0
M  V30 3536 H 331.106 2.86807 -0.78287 0
M  V30 3537 H 328.639 1.45382 -0.519951 0
M  V30 3538 H 330.597 3.80983 1.52846 0
M  V30 3539 H 329.258 2.65196 1.68315 0
M  V30 3540 H 328.451 4.93699 1.01379 0
M  V30 3541 H 328.053 3.7327 -0.233482 0
M  V30 3542 H 330.345 6.72585 0.814621 0
M  V30 3543 H 331.288 7.04876 -0.67499 0
M  V30 3544 H 331.696 5.63466 0.341489 0
M  V30 3545 N 331.094 0.475555 1.50254 0
M  V30 3546 C 332.322 -0.0754493 2.06762 0
M  V30 3547 C 332.737 -1.33111 1.33891 0
M  V30 3548 O 332.094 -1.77846 0.40952 0
M  V30 3549 C 332.145 -0.359008 3.59713 0
M  V30 3550 O 331.866 0.846851 4.29837 0
M  V30 3551 C 333.367 -0.956484 4.32858 0
M  V30 3552 H 330.587 0.00907525 0.670939 0
M  V30 3553 H 333.131 0.665618 1.93364 0
M  V30 3554 H 331.286 -1.05001 3.72899 0
M  V30 3555 H 331.7 0.594162 5.21124 0
M  V30 3556 H 333.174 -1.10463 5.40834 0
M  V30 3557 H 333.651 -1.94775 3.93649 0
M  V30 3558 H 334.257 -0.303723 4.24214 0
M  V30 3559 N 332.573 -1.56217 0.208337 0
M  V30 3560 C 333.801 -2.02337 -0.43215 0
M  V30 3561 C 334.216 -1.08834 -1.54275 0
M  V30 3562 O 333.573 -0.0955462 -1.8225 0
M  V30 3563 C 333.624 -3.48072 -0.976138 0
M  V30 3564 O 333.345 -4.38007 0.0901621 0
M  V30 3565 C 334.846 -4.09773 -1.69119 0
M  V30 3566 H 332.066 -0.662385 -0.10718 0
M  V30 3567 H 334.61 -2.01966 0.320923 0
M  V30 3568 H 332.765 -3.49099 -1.67954 0
M  V30 3569 H 333.179 -5.23543 -0.316701 0
M  V30 3570 H 334.653 -5.13556 -2.02397 0
M  V30 3571 H 335.13 -3.53999 -2.59964 0
M  V30 3572 H 335.736 -4.12556 -1.03332 0
M  V30 3573 N 334.051 0.0651679 -1.57465 0
M  V30 3574 C 335.3 0.761916 -1.86756 0
M  V30 3575 C 335.613 1.78406 -0.801925 0
M  V30 3576 O 336.819 2.53084 -0.982885 0
M  V30 3577 C 335.275 1.40603 -3.31299 0
M  V30 3578 C 334.883 0.422115 -4.46007 0
M  V30 3579 C 336.627 2.08476 -3.69781 0
M  V30 3580 C 334.534 1.07252 -5.81593 0
M  V30 3581 H 333.464 0.288308 -0.696702 0
M  V30 3582 H 336.115 0.015344 -1.83494 0
M  V30 3583 H 334.497 2.20109 -3.29193 0
M  V30 3584 H 335.671 -0.343613 -4.59517 0
M  V30 3585 H 333.986 -0.152527 -4.16121 0
M  V30 3586 H 336.583 2.57925 -4.68379 0
M  V30 3587 H 336.926 2.88712 -2.99919 0
M  V30 3588 H 337.459 1.35792 -3.73905 0
M  V30 3589 H 334.198 0.310342 -6.54765 0
M  V30 3590 H 333.718 1.80895 -5.71872 0
M  V30 3591 H 335.397 1.59043 -6.27148 0
M  V30 3592 N 335.529 1.53961 0.336706 0
M  V30 3593 C 336.94 1.62914 0.911925 0
M  V30 3594 C 337.291 0.514795 1.89326 0
M  V30 3595 O 336.416 -0.354395 2.13478 0
M  V30 3596 C 337.011 2.95304 1.66076 0
M  V30 3597 C 335.57 3.06496 2.18489 0
M  V30 3598 C 334.717 2.58403 1.00613 0
M  V30 3599 H 337.668 1.58285 0.114649 0
M  V30 3600 H 337.689 2.84727 2.5241 0
M  V30 3601 H 337.201 3.76387 0.946276 0
M  V30 3602 H 335.302 2.3006 2.93092 0
M  V30 3603 H 335.415 4.1208 2.44391 0
M  V30 3604 H 333.779 2.13977 1.38152 0
M  V30 3605 H 334.562 3.41932 0.306179 0
M  V30 3606 N 337.007 -0.598083 1.45811 0
M  V30 3607 C 337.937 -1.71873 1.58057 0
M  V30 3608 C 338.918 -1.64533 0.431615 0
M  V30 3609 O 340.103 -1.82787 0.65595 0
M  V30 3610 C 337.233 -3.10495 1.55597 0
M  V30 3611 C 336.187 -3.32654 2.69305 0
M  V30 3612 C 335.513 -4.71646 2.51902 0
M  V30 3613 C 336.813 -3.21981 4.11248 0
M  V30 3614 H 338.507 -1.61881 2.51863 0
M  V30 3615 H 336.053 -0.777372 1.21214 0
M  V30 3616 H 338.006 -3.88699 1.6276 0
M  V30 3617 H 336.73 -3.2135 0.583255 0
M  V30 3618 H 335.389 -2.56843 2.61586 0
M  V30 3619 H 335.037 -4.79246 1.52748 0
M  V30 3620 H 334.737 -4.87426 3.2816 0
M  V30 3621 H 336.261 -5.52038 2.60933 0
M  V30 3622 H 337.675 -3.90049 4.20161 0
M  V30 3623 H 336.072 -3.49289 4.87972 0
M  V30 3624 H 337.142 -2.1928 4.32486 0
M  V30 3625 N 338.485 -1.33259 -0.841409 0
M  V30 3626 C 339.415 -1.25926 -1.96634 0
M  V30 3627 C 340.396 -0.140349 -1.6952 0
M  V30 3628 O 341.581 -0.329707 -1.91381 0
M  V30 3629 C 338.711 -0.99512 -3.32738 0
M  V30 3630 C 337.665 -2.0767 -3.74242 0
M  V30 3631 C 336.991 -1.66474 -5.08125 0
M  V30 3632 C 338.291 -3.49318 -3.88297 0
M  V30 3633 H 339.985 -2.20046 -2.03027 0
M  V30 3634 H 337.531 -1.05931 -0.975425 0
M  V30 3635 H 339.484 -0.930323 -4.11002 0
M  V30 3636 H 338.208 -0.0183004 -3.26595 0
M  V30 3637 H 336.867 -2.13187 -2.98239 0
M  V30 3638 H 336.515 -0.675012 -4.9845 0
M  V30 3639 H 336.215 -2.3885 -5.36865 0
M  V30 3640 H 337.739 -1.61455 -5.88867 0
M  V30 3641 H 339.153 -3.46316 -4.56879 0
M  V30 3642 H 337.55 -4.20158 -4.28471 0
M  V30 3643 H 338.62 -3.8801 -2.9082 0
M  V30 3644 N 339.963 1.05934 -1.16686 0
M  V30 3645 C 341.209 1.79065 -0.95203 0
M  V30 3646 C 341.542 1.87147 0.518629 0
M  V30 3647 O 340.817 1.36574 1.38484 0
M  V30 3648 C 341.1 3.23359 -1.58464 0
M  V30 3649 C 340.953 3.23336 -3.12689 0
M  V30 3650 C 342.272 4.21004 -1.28232 0
M  V30 3651 H 339.391 0.65005 -0.34728 0
M  V30 3652 H 342.033 1.23868 -1.44072 0
M  V30 3653 H 340.183 3.70493 -1.16908 0
M  V30 3654 H 341.855 2.84336 -3.6325 0
M  V30 3655 H 340.098 2.61886 -3.4583 0
M  V30 3656 H 340.769 4.25144 -3.52075 0
M  V30 3657 H 343.245 3.8233 -1.64203 0
M  V30 3658 H 342.121 5.20225 -1.75092 0
M  V30 3659 H 342.382 4.41639 -0.201791 0
M  V30 3660 N 341.441 0.965919 1.2453 0
M  V30 3661 C 342.371 0.513476 2.27784 0
M  V30 3662 C 343.352 -0.445974 1.6415 0
M  V30 3663 O 344.537 -0.342485 1.91156 0
M  V30 3664 C 341.667 -0.198839 3.4673 0
M  V30 3665 C 340.621 0.676456 4.2262 0
M  V30 3666 C 339.947 -0.167248 5.34438 0
M  V30 3667 C 341.247 1.96017 4.84123 0
M  V30 3668 H 342.941 1.3765 2.65881 0
M  V30 3669 H 340.487 0.663321 1.27813 0
M  V30 3670 H 342.44 -0.526567 4.18097 0
M  V30 3671 H 341.164 -1.0962 3.07654 0
M  V30 3672 H 339.823 0.98743 3.53052 0
M  V30 3673 H 339.471 -1.0647 4.91603 0
M  V30 3674 H 339.171 0.415181 5.86131 0
M  V30 3675 H 340.695 -0.489688 6.08633 0
M  V30 3676 H 342.109 1.69814 5.47573 0
M  V30 3677 H 340.506 2.48918 5.4604 0
M  V30 3678 H 341.576 2.65622 4.05676 0
M  V30 3679 N 342.919 -1.39368 0.735821 0
M  V30 3680 C 343.849 -2.33234 0.111506 0
M  V30 3681 C 344.83 -1.53954 -0.723334 0
M  V30 3682 O 346.015 -1.82344 -0.668147 0
M  V30 3683 C 343.145 -3.38057 -0.795917 0
M  V30 3684 C 342.099 -4.2795 -0.065172 0
M  V30 3685 C 341.425 -5.23479 -1.08967 0
M  V30 3686 C 342.725 -5.10741 1.09273 0
M  V30 3687 H 344.419 -2.85692 0.895571 0
M  V30 3688 H 341.965 -1.37364 0.432109 0
M  V30 3689 H 343.918 -4.02675 -1.24221 0
M  V30 3690 H 342.642 -2.8404 -1.61211 0
M  V30 3691 H 341.301 -3.64813 0.361511 0
M  V30 3692 H 340.949 -4.65758 -1.89944 0
M  V30 3693 H 340.649 -5.84472 -0.605489 0
M  V30 3694 H 342.173 -5.90974 -1.53565 0
M  V30 3695 H 343.587 -5.68699 0.724841 0
M  V30 3696 H 341.984 -5.8088 1.50659 0
M  V30 3697 H 343.054 -4.45525 1.91404 0
M  V30 3698 N 344.397 -0.483516 -1.5 0
M  V30 3699 C 345.645 0.067027 -2.01989 0
M  V30 3700 C 345.966 1.3909 -1.36671 0
M  V30 3701 O 345.236 1.88978 -0.516152 0
M  V30 3702 H 343.816 0.0277606 -0.746484 0
M  V30 3703 H 346.478 -0.636773 -1.84204 0
M  V30 3704 H 345.574 0.209484 -3.11396 0
M  V30 3705 N 345.875 1.56104 -0.216619 0
M  V30 3706 C 346.805 2.23063 0.690296 0
M  V30 3707 C 347.786 1.20072 1.20485 0
M  V30 3708 O 348.971 1.48643 1.24976 0
M  V30 3709 C 346.101 2.90672 1.90072 0
M  V30 3710 C 345.055 4.00092 1.5202 0
M  V30 3711 C 344.381 4.54972 2.80899 0
M  V30 3712 C 345.681 5.17398 0.71391 0
M  V30 3713 H 347.375 2.99109 0.132038 0
M  V30 3714 H 344.921 1.43866 0.0620664 0
M  V30 3715 H 346.874 3.36204 2.54057 0
M  V30 3716 H 345.598 2.12066 2.48386 0
M  V30 3717 H 344.257 3.55283 0.903839 0
M  V30 3718 H 343.905 3.73102 3.37348 0
M  V30 3719 H 343.605 5.28817 2.56176 0
M  V30 3720 H 345.129 5.0322 3.45836 0
M  V30 3721 H 346.543 5.59342 1.25735 0
M  V30 3722 H 344.94 5.97444 0.563951 0
M  V30 3723 H 346.01 4.84088 -0.280527 0
M  V30 3724 N 347.353 -0.0568162 1.57498 0
M  V30 3725 C 348.263 -1.08346 2.08083 0
M  V30 3726 C 349.279 -1.41439 1.01346 0
M  V30 3727 O 350.455 -1.51316 1.32912 0
M  V30 3728 C 347.52 -2.37352 2.52715 0
M  V30 3729 C 346.581 -2.11093 3.73816 0
M  V30 3730 C 345.814 -3.33949 4.1631 0
M  V30 3731 O 346.037 -4.43622 3.58547 0
M  V30 3732 O 344.971 -3.21279 5.08983 0
M  V30 3733 H 348.797 -0.683667 2.95905 0
M  V30 3734 H 346.382 -0.271965 1.46904 0
M  V30 3735 H 348.264 -3.13246 2.81877 0
M  V30 3736 H 346.939 -2.76681 1.68016 0
M  V30 3737 H 345.846 -1.32856 3.49714 0
M  V30 3738 H 347.179 -1.76637 4.59413 0
M  V30 3739 N 348.832 -1.54138 -0.328536 0
M  V30 3740 C 349.78 -1.83894 -1.42428 0
M  V30 3741 C 350.774 -0.710478 -1.53781 0
M  V30 3742 O 351.98 -0.894062 -1.56226 0
M  V30 3743 H 348.355 -0.582837 -0.475189 0
M  V30 3744 H 350.326 -2.75537 -1.14552 0
M  V30 3745 C 349.075 -2.07866 -2.78724 0
M  V30 3746 H 348.398 -2.94158 -2.7076 0
M  V30 3747 H 349.838 -2.32644 -3.54476 0
M  V30 3748 C 348.297 -0.868689 -3.25508 0
M  V30 3749 O 348.827 -0.0754908 -4.01629 0
M  V30 3750 N 347.033 -0.681711 -2.82491 0
M  V30 3751 H 346.58 -1.32838 -2.20708 0
M  V30 3752 H 346.538 0.126374 -3.14146 0
M  V30 3753 N 350.31 0.590341 -1.46126 0
M  V30 3754 C 351.258 1.72105 -1.5647 0
M  V30 3755 C 352.252 1.63756 -0.433612 0
M  V30 3756 O 353.458 1.69342 -0.610194 0
M  V30 3757 H 349.833 0.568889 -0.491802 0
M  V30 3758 H 351.804 1.6051 -2.51553 0
M  V30 3759 C 350.553 3.10493 -1.56491 0
M  V30 3760 H 349.876 3.17583 -2.4286 0
M  V30 3761 H 351.316 3.8939 -1.67785 0
M  V30 3762 C 349.775 3.3563 -0.292231 0
M  V30 3763 O 350.305 3.96875 0.620739 0
M  V30 3764 N 348.511 2.90026 -0.182523 0
M  V30 3765 H 348.058 2.40367 -0.926356 0
M  V30 3766 H 348.016 3.07218 0.668152 0
M  V30 3767 N 351.788 1.33704 0.83433 0
M  V30 3768 C 353.034 1.25603 1.59222 0
M  V30 3769 C 353.367 -0.176659 1.93395 0
M  V30 3770 O 352.642 -1.11915 1.59076 0
M  V30 3771 C 352.925 2.13576 2.89926 0
M  V30 3772 C 352.778 3.65326 2.62406 0
M  V30 3773 C 354.097 2.01238 3.91397 0
M  V30 3774 H 351.216 0.457613 0.577719 0
M  V30 3775 H 353.858 1.63848 0.961972 0
M  V30 3776 H 352.008 1.8109 3.43713 0
M  V30 3777 H 353.68 4.08124 2.15017 0
M  V30 3778 H 351.923 3.8698 1.96033 0
M  V30 3779 H 352.594 4.22232 3.55562 0
M  V30 3780 H 355.07 2.29738 3.46929 0
M  V30 3781 H 353.946 2.65036 4.80673 0
M  V30 3782 H 354.207 0.985951 4.30966 0
M  V30 3783 N 353.266 -1.05314 1.17247 0
M  V30 3784 C 354.213 -2.13031 0.888058 0
M  V30 3785 C 355.183 -1.65253 -0.167537 0
M  V30 3786 O 356.368 -1.90775 -0.0305974 0
M  V30 3787 C 353.508 -3.42702 0.406147 0
M  V30 3788 C 352.621 -4.04161 1.52572 0
M  V30 3789 C 351.756 -5.21744 0.997808 0
M  V30 3790 C 350.795 -5.75207 2.09291 0
M  V30 3791 N 349.932 -6.84094 1.57986 0
M  V30 3792 H 354.772 -2.36698 1.81048 0
M  V30 3793 H 352.309 -1.16121 0.903013 0
M  V30 3794 H 354.267 -4.17059 0.108305 0
M  V30 3795 H 352.897 -3.19222 -0.479313 0
M  V30 3796 H 351.949 -3.27253 1.93931 0
M  V30 3797 H 353.261 -4.39881 2.35172 0
M  V30 3798 H 352.415 -6.03168 0.653739 0
M  V30 3799 H 351.154 -4.87495 0.141232 0
M  V30 3800 H 350.159 -4.92414 2.44557 0
M  V30 3801 H 351.384 -6.11505 2.95362 0
M  V30 3802 H 349.33 -6.51745 0.74598 0
M  V30 3803 H 349.247 -7.18811 2.34195 0
M  V30 3804 H 350.515 -7.69172 1.26468 0
M  V30 3805 N 354.744 -0.972509 -1.24016 0
M  V30 3806 C 356.021 -0.553733 -1.87598 0
M  V30 3807 C 356.401 0.969158 -1.87538 0
M  V30 3808 O 355.749 1.84255 -1.35139 0
M  V30 3809 C 355.959 -1.15076 -3.29482 0
M  V30 3810 C 357.307 -1.23862 -4.06132 0
M  V30 3811 O 358.331 -1.10363 -3.38672 0
M  V30 3812 O 357.19 -1.45252 -5.26844 0
M  V30 3813 H 354.284 -0.185331 -0.805966 0
M  V30 3814 H 356.83 -1.06709 -1.31952 0
M  V30 3815 H 355.602 -2.19333 -3.2405 0
M  V30 3816 H 355.225 -0.621746 -3.92709 0
M  V30 3817 N 356.222 1.38976 -0.743202 0
M  V30 3818 C 357.499 1.94351 -0.220705 0
M  V30 3819 C 357.879 1.67935 1.2791 0
M  V30 3820 O 357.227 1.01211 2.04862 0
M  V30 3821 C 357.437 3.44426 -0.563171 0
M  V30 3822 C 358.785 4.2144 -0.517046 0
M  V30 3823 O 359.809 3.52661 -0.500846 0
M  V30 3824 O 358.668 5.44032 -0.518806 0
M  V30 3825 H 355.762 0.825879 -0.043047 0
M  V30 3826 H 358.308 1.48429 -0.822618 0
M  V30 3827 H 357.08 3.5712 -1.59941 0
M  V30 3828 H 356.703 3.97543 0.0672883 0
M  V30 3829 N 357.7 0.491464 1.49741 0
M  V30 3830 C 358.948 -0.0563141 2.02022 0
M  V30 3831 C 359.269 -1.38363 1.37407 0
M  V30 3832 O 358.539 -1.88702 0.526166 0
M  V30 3833 H 357.119 -0.0238014 0.746621 0
M  V30 3834 H 359.781 0.646533 1.83864 0
M  V30 3835 H 358.877 -0.192967 3.11503 0
M  V30 3836 N 359.178 -1.55987 0.224894 0
M  V30 3837 C 360.11 -2.17722 -0.716224 0
M  V30 3838 C 361.123 -1.14723 -1.15509 0
M  V30 3839 O 362.312 -1.41688 -1.08567 0
M  V30 3840 C 359.412 -2.74873 -1.98238 0
M  V30 3841 C 358.585 -4.03074 -1.69853 0
M  V30 3842 C 357.644 -4.44757 -2.81208 0
M  V30 3843 O 356.67 -5.11587 -2.49534 0
M  V30 3844 N 357.872 -4.10716 -4.10235 0
M  V30 3845 H 360.637 -2.99109 -0.188123 0
M  V30 3846 H 358.198 -1.6184 0.0440123 0
M  V30 3847 H 360.19 -2.99727 -2.7193 0
M  V30 3848 H 358.76 -1.9777 -2.42086 0
M  V30 3849 H 357.98 -3.86041 -0.797875 0
M  V30 3850 H 359.268 -4.86701 -1.48324 0
M  V30 3851 H 358.666 -3.57019 -4.38809 0
M  V30 3852 H 357.223 -4.40455 -4.80461 0
M  V30 3853 N 360.656 0.0484629 -1.57525 0
M  V30 3854 C 361.606 1.06246 -2.01732 0
M  V30 3855 C 362.59 1.33155 -0.903245 0
M  V30 3856 O 363.782 1.33065 -1.16717 0
M  V30 3857 C 360.911 2.36943 -2.48421 0
M  V30 3858 C 359.997 2.13208 -3.6661 0
M  V30 3859 N 360.388 1.5947 -4.80003 0
M  V30 3860 C 358.686 2.43581 -3.7361 0
M  V30 3861 C 359.387 1.51092 -5.61735 0
M  V30 3862 N 358.363 1.9797 -5.0627 0
M  V30 3863 H 362.165 0.640675 -2.86832 0
M  V30 3864 H 359.679 0.255134 -1.60383 0
M  V30 3865 H 361.676 3.10374 -2.78341 0
M  V30 3866 H 360.336 2.79818 -1.64718 0
M  V30 3867 H 361.347 1.28008 -5.01831 0
M  V30 3868 H 358.024 2.89662 -3.00669 0
M  V30 3869 H 359.414 1.10199 -6.62801 0
M  V30 3870 N 362.134 1.5431 0.320358 0
M  V30 3871 C 363.38 1.72924 1.05949 0
M  V30 3872 C 363.713 0.503185 1.87568 0
M  V30 3873 O 362.988 -0.499839 1.87968 0
M  V30 3874 C 363.271 3.00676 1.98156 0
M  V30 3875 C 363.124 4.3354 1.19845 0
M  V30 3876 C 364.443 3.24198 2.9763 0
M  V30 3877 H 361.562 0.629195 0.383774 0
M  V30 3878 H 364.204 1.87008 0.335854 0
M  V30 3879 H 362.354 2.888 2.59859 0
M  V30 3880 H 364.026 4.57305 0.605773 0
M  V30 3881 H 362.269 4.309 0.500784 0
M  V30 3882 H 362.94 5.19156 1.87567 0
M  V30 3883 H 365.416 3.35557 2.4605 0
M  V30 3884 H 364.292 4.14938 3.59329 0
M  V30 3885 H 364.553 2.41577 3.7026 0
M  V30 3886 N 363.613 -0.582584 1.46437 0
M  V30 3887 C 364.859 -1.34064 1.52965 0
M  V30 3888 C 365.214 -1.91566 0.178968 0
M  V30 3889 O 364.507 -1.73526 -0.812365 0
M  V30 3890 C 364.701 -2.48964 2.56421 0
M  V30 3891 C 364.53 -2.02717 4.01417 0
M  V30 3892 C 363.3 -1.87728 4.69134 0
M  V30 3893 C 365.498 -1.58675 4.8921 0
M  V30 3894 N 363.48 -1.35554 5.98747 0
M  V30 3895 C 364.851 -1.18093 6.08649 0
M  V30 3896 C 366.906 -1.46494 4.75861 0
M  V30 3897 C 365.609 -0.665427 7.16215 0
M  V30 3898 C 367.635 -0.96347 5.83499 0
M  V30 3899 C 366.997 -0.567432 7.02111 0
M  V30 3900 H 363.096 -0.483551 0.614575 0
M  V30 3901 H 365.68 -0.663309 1.83053 0
M  V30 3902 H 363.851 -3.1426 2.28244 0
M  V30 3903 H 365.583 -3.15913 2.52944 0
M  V30 3904 H 362.338 -2.09678 4.24655 0
M  V30 3905 H 362.762 -1.11628 6.67734 0
M  V30 3906 H 367.404 -1.75731 3.8455 0
M  V30 3907 H 365.122 -0.360639 8.07295 0
M  V30 3908 H 368.708 -0.873129 5.75211 0
M  V30 3909 H 367.588 -0.185389 7.83981 0
M  V30 3910 N 365.091 -1.34144 -0.827227 0
M  V30 3911 C 366.507 -1.13732 -1.11969 0
M  V30 3912 C 366.707 0.0640463 -2.01398 0
M  V30 3913 O 365.763 0.740856 -2.41387 0
M  V30 3914 C 367.076 -2.43047 -1.77055 0
M  V30 3915 C 368.624 -2.49063 -1.89569 0
M  V30 3916 C 369.099 -3.78369 -2.58072 0
M  V30 3917 N 370.59 -3.79505 -2.65575 0
M  V30 3918 C 371.325 -4.76274 -3.19297 0
M  V30 3919 N 370.821 -5.83424 -3.73616 0
M  V30 3920 N 372.614 -4.63735 -3.17658 0
M  V30 3921 H 364.765 -2.11126 -0.232296 0
M  V30 3922 H 367.028 -0.933424 -0.165602 0
M  V30 3923 H 366.734 -3.31025 -1.18807 0
M  V30 3924 H 366.608 -2.56066 -2.76966 0
M  V30 3925 H 368.995 -1.61527 -2.46968 0
M  V30 3926 H 369.076 -2.39975 -0.885745 0
M  V30 3927 H 368.72 -4.66293 -2.01329 0
M  V30 3928 H 368.65 -3.84737 -3.59562 0
M  V30 3929 H 371.141 -3.02074 -2.27068 0
M  V30 3930 H 371.454 -6.53282 -4.12846 0
M  V30 3931 H 369.799 -5.87143 -3.71871 0
M  V30 3932 H 372.99 -3.79177 -2.74486 0
M  V30 3933 H 373.163 -5.39318 -3.59221 0
M  V30 3934 N 366.569 1.04691 -1.17803 0
M  V30 3935 C 367.499 2.14494 -0.92275 0
M  V30 3936 C 368.48 1.69546 0.137179 0
M  V30 3937 O 369.665 1.94195 -0.0141108 0
M  V30 3938 C 366.795 3.44491 -0.440803 0
M  V30 3939 C 365.749 4.03031 -1.4405 0
M  V30 3940 C 365.075 5.28432 -0.81631 0
M  V30 3941 C 366.375 4.39932 -2.81527 0
M  V30 3942 H 368.069 2.36107 -1.84103 0
M  V30 3943 H 365.615 1.1347 -0.886599 0
M  V30 3944 H 367.568 4.2066 -0.249602 0
M  V30 3945 H 366.292 3.22546 0.513025 0
M  V30 3946 H 364.951 3.28937 -1.61853 0
M  V30 3947 H 364.599 5.02792 0.144511 0
M  V30 3948 H 364.299 5.68559 -1.48371 0
M  V30 3949 H 365.823 6.07284 -0.635496 0
M  V30 3950 H 367.237 5.07113 -2.67412 0
M  V30 3951 H 365.634 4.9109 -3.44892 0
M  V30 3952 H 366.704 3.50045 -3.35554 0
M  V30 3953 N 368.047 0.979072 1.23499 0
M  V30 3954 C 368.994 0.517904 2.24914 0
M  V30 3955 C 369.964 -0.442525 1.60097 0
M  V30 3956 O 371.149 -0.350365 1.87556 0
M  V30 3957 C 368.289 -0.174813 3.44657 0
M  V30 3958 C 367.402 0.825721 4.24035 0
M  V30 3959 C 366.537 0.107946 5.3109 0
M  V30 3960 C 365.576 1.09778 6.02175 0
M  V30 3961 N 364.713 0.40925 7.00906 0
M  V30 3962 H 369.553 1.38751 2.63727 0
M  V30 3963 H 367.09 0.695303 1.2963 0
M  V30 3964 H 369.048 -0.593233 4.12961 0
M  V30 3965 H 367.678 -1.0083 3.06648 0
M  V30 3966 H 366.73 1.36253 3.55161 0
M  V30 3967 H 368.042 1.58005 4.73113 0
M  V30 3968 H 367.196 -0.367904 6.05583 0
M  V30 3969 H 365.935 -0.678994 4.8295 0
M  V30 3970 H 364.94 1.5844 5.26476 0
M  V30 3971 H 366.165 1.88536 6.52404 0
M  V30 3972 H 364.111 -0.358506 6.5502 0
M  V30 3973 H 364.028 1.10226 7.47921 0
M  V30 3974 H 365.296 -0.0442557 7.79487 0
M  V30 3975 N 369.525 -1.3858 0.750561 0
M  V30 3976 C 370.475 -2.27795 0.0965949 0
M  V30 3977 C 371.459 -1.45048 -0.696411 0
M  V30 3978 O 372.651 -1.67812 -0.562863 0
M  V30 3979 C 369.78 -3.33894 -0.798085 0
M  V30 3980 C 368.866 -4.241 0.0016067 0
M  V30 3981 N 369.257 -4.95067 1.03647 0
M  V30 3982 C 367.555 -4.45429 -0.225674 0
M  V30 3983 C 368.256 -5.61489 1.52004 0
M  V30 3984 N 367.232 -5.37135 0.835874 0
M  V30 3985 H 371.034 -2.80125 0.889228 0
M  V30 3986 H 368.548 -1.51446 0.586323 0
M  V30 3987 H 370.545 -3.96693 -1.28219 0
M  V30 3988 H 369.205 -2.83123 -1.5897 0
M  V30 3989 H 370.216 -4.98104 1.41819 0
M  V30 3990 H 366.893 -4.05571 -0.990872 0
M  V30 3991 H 368.283 -6.28264 2.38188 0
M  V30 3992 N 371.003 -0.499398 -1.49478 0
M  V30 3993 C 372.25 0.0456899 -2.02448 0
M  V30 3994 C 372.578 1.37142 -1.37921 0
M  V30 3995 O 371.833 1.89111 -0.503544 0
M  V30 3996 C 372.132 0.248424 -3.56536 0
M  V30 3997 C 371.798 -0.999107 -4.39692 0
M  V30 3998 C 370.46 -1.34108 -4.62135 0
M  V30 3999 C 372.812 -1.82842 -4.88076 0
M  V30 4000 C 370.14 -2.51191 -5.30208 0
M  V30 4001 C 372.492 -2.99076 -5.57437 0
M  V30 4002 C 371.156 -3.33655 -5.78127 0
M  V30 4003 H 370.426 0.0167191 -0.740811 0
M  V30 4004 H 373.073 -0.65923 -1.79795 0
M  V30 4005 H 371.378 1.03586 -3.77859 0
M  V30 4006 H 373.075 0.684605 -3.95113 0
M  V30 4007 H 369.665 -0.722729 -4.22463 0
M  V30 4008 H 373.849 -1.57737 -4.70566 0
M  V30 4009 H 369.105 -2.78221 -5.44429 0
M  V30 4010 H 373.279 -3.63664 -5.93904 0
M  V30 4011 H 370.906 -4.24483 -6.30649 0
M  V30 4012 N 372.481 1.55866 -0.233164 0
M  V30 4013 C 373.429 2.22176 0.68851 0
M  V30 4014 C 374.423 1.20487 1.19076 0
M  V30 4015 O 375.629 1.38536 1.14925 0
M  V30 4016 H 372.004 0.712511 0.240483 0
M  V30 4017 H 373.975 2.98212 0.105935 0
M  V30 4018 C 372.724 2.92446 1.88071 0
M  V30 4019 H 372.047 3.70458 1.50337 0
M  V30 4020 H 373.487 3.42226 2.50314 0
M  V30 4021 C 371.946 1.95555 2.74335 0
M  V30 4022 O 372.476 1.47986 3.73447 0
M  V30 4023 N 370.682 1.62953 2.40613 0
M  V30 4024 H 370.229 2.01831 1.60069 0
M  V30 4025 H 370.187 0.983886 2.98609 0
M  V30 4026 N 373.959 -0.0401083 1.57549 0
M  V30 4027 C 374.906 -1.04413 2.05831 0
M  V30 4028 C 375.876 -1.36585 0.945184 0
M  V30 4029 O 377.061 -1.47112 1.21502 0
M  V30 4030 C 374.201 -2.34336 2.53339 0
M  V30 4031 C 373.314 -2.08419 3.78398 0
M  V30 4032 C 372.449 -3.32133 4.14561 0
M  V30 4033 C 371.488 -3.01721 5.3257 0
M  V30 4034 N 370.625 -4.17855 5.64218 0
M  V30 4035 H 375.465 -0.625442 2.91363 0
M  V30 4036 H 373.002 -0.297218 1.44066 0
M  V30 4037 H 374.96 -3.10234 2.78946 0
M  V30 4038 H 373.59 -2.73948 1.7074 0
M  V30 4039 H 372.642 -1.23069 3.59942 0
M  V30 4040 H 373.954 -1.81978 4.64419 0
M  V30 4041 H 373.108 -4.16406 4.41238 0
M  V30 4042 H 371.847 -3.61678 3.2717 0
M  V30 4043 H 370.852 -2.15849 5.05657 0
M  V30 4044 H 372.077 -2.73466 6.21605 0
M  V30 4045 H 370.023 -4.47372 4.79786 0
M  V30 4046 H 369.94 -3.94798 6.44725 0
M  V30 4047 H 371.208 -5.03033 5.95465 0
M  V30 4048 N 375.437 -1.54477 -0.31217 0
M  V30 4049 C 376.848 -1.64344 -0.885891 0
M  V30 4050 C 377.199 -0.54485 -1.88483 0
M  V30 4051 O 376.324 0.320387 -2.14015 0
M  V30 4052 C 376.919 -2.97908 -1.61357 0
M  V30 4053 C 375.478 -3.09933 -2.13585 0
M  V30 4054 C 374.625 -2.59971 -0.964897 0
M  V30 4055 H 377.576 -1.58448 -0.0894528 0
M  V30 4056 H 377.597 -2.88706 -2.47848 0
M  V30 4057 H 377.109 -3.77845 -0.886277 0
M  V30 4058 H 375.21 -2.34694 -2.89395 0
M  V30 4059 H 375.323 -4.15916 -2.37804 0
M  V30 4060 H 373.687 -2.16147 -1.34731 0
M  V30 4061 H 374.47 -3.42376 -0.251742 0
M  V30 4062 N 376.915 0.57481 -1.46744 0
M  V30 4063 C 377.878 1.66533 -1.57478 0
M  V30 4064 C 378.878 1.54338 -0.451263 0
M  V30 4065 O 380.068 1.58814 -0.715813 0
M  V30 4066 C 377.2 3.05999 -1.50259 0
M  V30 4067 H 378.393 1.58372 -2.54673 0
M  V30 4068 H 375.946 0.793301 -1.34672 0
M  V30 4069 H 376.681 3.19709 -0.543725 0
M  V30 4070 H 376.466 3.16259 -2.31781 0
M  V30 4071 H 377.956 3.8537 -1.60872 0
M  V30 4072 N 378.394 1.34581 0.820102 0
M  V30 4073 C 379.624 1.29991 1.6058 0
M  V30 4074 C 380.032 -0.127588 1.88769 0
M  V30 4075 O 379.375 -1.08595 1.48165 0
M  V30 4076 C 379.437 2.02548 2.9701 0
M  V30 4077 C 379.101 3.51794 2.91701 0
M  V30 4078 C 380.098 4.46647 2.66087 0
M  V30 4079 C 377.783 3.94249 3.11245 0
M  V30 4080 C 379.777 5.81929 2.60071 0
M  V30 4081 C 377.464 5.2963 3.04853 0
M  V30 4082 C 378.462 6.23282 2.793 0
M  V30 4083 O 378.15 7.56181 2.72847 0
M  V30 4084 H 377.882 0.448539 0.505756 0
M  V30 4085 H 380.436 1.77811 1.02822 0
M  V30 4086 H 378.666 1.49345 3.56697 0
M  V30 4087 H 380.355 1.91211 3.58041 0
M  V30 4088 H 381.121 4.15168 2.5072 0
M  V30 4089 H 377 3.21749 3.30149 0
M  V30 4090 H 380.544 6.54999 2.40046 0
M  V30 4091 H 376.441 5.60727 3.19774 0
M  V30 4092 H 377.209 7.6595 2.88553 0
M  V30 4093 N 379.872 -1.04064 1.18357 0
M  V30 4094 C 381.112 -1.78829 0.989921 0
M  V30 4095 C 381.476 -1.86106 -0.472095 0
M  V30 4096 O 382.677 -2.57076 -0.785187 0
M  V30 4097 C 380.948 -3.1823 1.6268 0
M  V30 4098 S 382.507 -4.09332 1.58091 0
M  V30 4099 H 379.325 -0.615754 0.355482 0
M  V30 4100 H 381.927 -1.24778 1.50501 0
M  V30 4101 H 380.631 -3.10543 2.68311 0
M  V30 4102 H 380.162 -3.77357 1.112 0
M  V30 4103 H 382.177 -4.92598 0.596817 0
M  V30 4104 N 381.35 -0.985608 -1.22978 0
M  V30 4105 C 382.298 -0.522631 -2.26652 0
M  V30 4106 C 383.292 0.422998 -1.64034 0
M  V30 4107 O 384.498 0.296319 -1.77544 0
M  V30 4108 H 380.873 -0.150597 -0.736766 0
M  V30 4109 H 382.844 -1.40863 -2.63059 0
M  V30 4110 C 381.593 0.154238 -3.47358 0
M  V30 4111 H 380.916 -0.564329 -3.95797 0
M  V30 4112 H 382.356 0.441744 -4.21693 0
M  V30 4113 C 380.815 1.38719 -3.07016 0
M  V30 4114 O 381.345 2.48307 -3.15764 0
M  V30 4115 N 379.551 1.25975 -2.61875 0
M  V30 4116 H 379.098 0.368068 -2.54957 0
M  V30 4117 H 379.056 2.08578 -2.3525 0
M  V30 4118 N 382.828 1.3818 -0.7579 0
M  V30 4119 C 383.758 2.33027 -0.148597 0
M  V30 4120 C 384.739 1.55085 0.69875 0
M  V30 4121 O 385.924 1.83384 0.639053 0
M  V30 4122 C 383.054 3.3928 0.742034 0
M  V30 4123 C 382.008 4.28 -0.00291946 0
M  V30 4124 C 381.334 5.25146 1.00625 0
M  V30 4125 C 382.634 5.08938 -1.17385 0
M  V30 4126 H 384.328 2.84231 -0.940909 0
M  V30 4127 H 381.874 1.36659 -0.453908 0
M  V30 4128 H 383.827 4.046 1.17799 0
M  V30 4129 H 382.551 2.86569 1.56671 0
M  V30 4130 H 381.21 3.64192 -0.419504 0
M  V30 4131 H 380.858 4.68721 1.8251 0
M  V30 4132 H 380.558 5.85361 0.512428 0
M  V30 4133 H 382.082 5.93342 1.44143 0
M  V30 4134 H 383.496 5.67474 -0.815224 0
M  V30 4135 H 381.893 5.7841 -1.59882 0
M  V30 4136 H 382.963 4.42424 -1.98468 0
M  V30 4137 N 384.306 0.507319 1.49211 0
M  V30 4138 C 385.546 -0.0332372 2.04373 0
M  V30 4139 C 385.91 -1.33694 1.37804 0
M  V30 4140 O 387.111 -1.96213 1.83722 0
M  V30 4141 C 385.382 -0.17599 3.56966 0
M  V30 4142 S 386.941 -0.669882 4.33657 0
M  V30 4143 H 383.759 0.00123603 0.710999 0
M  V30 4144 H 386.361 0.682725 1.83191 0
M  V30 4145 H 385.065 0.778053 4.02957 0
M  V30 4146 H 384.596 -0.917005 3.82563 0
M  V30 4147 H 386.611 -1.93806 4.56786 0
M  V30 4148 N 385.784 -1.5574 0.241426 0
M  V30 4149 C 386.714 -2.24133 -0.654722 0
M  V30 4150 C 387.695 -1.21974 -1.1856 0
M  V30 4151 O 388.88 -1.50612 -1.22595 0
M  V30 4152 C 386.01 -2.93659 -1.85423 0
M  V30 4153 C 384.964 -4.0246 -1.45636 0
M  V30 4154 C 384.29 -4.59383 -2.73626 0
M  V30 4155 C 385.59 -5.18468 -0.631506 0
M  V30 4156 H 387.284 -2.99281 -0.0844353 0
M  V30 4157 H 384.83 -1.43947 -0.0391707 0
M  V30 4158 H 386.783 -3.40203 -2.48676 0
M  V30 4159 H 385.507 -2.15991 -2.44981 0
M  V30 4160 H 384.166 -3.56676 -0.847202 0
M  V30 4161 H 383.814 -3.78422 -3.3137 0
M  V30 4162 H 383.514 -5.32826 -2.4773 0
M  V30 4163 H 385.038 -5.08658 -3.37786 0
M  V30 4164 H 386.452 -5.61272 -1.1682 0
M  V30 4165 H 384.849 -5.98266 -0.468831 0
M  V30 4166 H 385.919 -4.8358 0.357506 0
M  V30 4167 N 387.262 0.0317525 -1.57568 0
M  V30 4168 C 388.21 1.05165 -2.07468 0
M  V30 4169 C 389.204 1.3761 -0.98792 0
M  V30 4170 O 390.41 1.36546 -1.17282 0
M  V30 4171 H 386.785 0.35666 -0.66204 0
M  V30 4172 H 388.756 0.604958 -2.92203 0
M  V30 4173 C 387.505 2.34488 -2.56731 0
M  V30 4174 H 386.828 2.10383 -3.39969 0
M  V30 4175 H 388.268 3.04203 -2.95358 0
M  V30 4176 C 386.727 3.03266 -1.46736 0
M  V30 4177 O 387.257 3.92988 -0.832069 0
M  V30 4178 N 385.463 2.6455 -1.20256 0
M  V30 4179 H 385.01 1.91674 -1.72102 0
M  V30 4180 H 384.968 3.10886 -0.468737 0
M  V30 4181 N 388.74 1.54641 0.303973 0
M  V30 4182 C 389.673 1.80263 1.3993 0
M  V30 4183 C 390.651 0.653657 1.48883 0
M  V30 4184 O 391.835 0.893284 1.6599 0
M  V30 4185 C 388.962 1.9367 2.77866 0
M  V30 4186 C 388.008 3.16078 2.86351 0
M  V30 4187 S 388.841 4.74219 2.4875 0
M  V30 4188 C 389.997 4.90558 3.88721 0
M  V30 4189 H 390.23 2.72886 1.17986 0
M  V30 4190 H 387.763 1.46014 0.501918 0
M  V30 4191 H 389.721 2.0208 3.57315 0
M  V30 4192 H 388.382 1.01991 2.9708 0
M  V30 4193 H 387.575 3.22252 3.87517 0
M  V30 4194 H 387.177 3.06099 2.14893 0
M  V30 4195 H 389.469 4.74398 4.83687 0
M  V30 4196 H 390.412 5.92651 3.87518 0
M  V30 4197 H 390.82 4.18728 3.78585 0
M  V30 4198 N 390.218 -0.567019 1.47046 0
M  V30 4199 C 391.148 -1.68482 1.61667 0
M  V30 4200 C 392.129 -1.6358 0.466418 0
M  V30 4201 O 393.314 -1.81354 0.694574 0
M  V30 4202 C 390.444 -3.07124 1.62148 0
M  V30 4203 C 389.398 -3.26867 2.76301 0
M  V30 4204 C 388.724 -4.66196 2.61849 0
M  V30 4205 C 390.024 -3.13186 4.17986 0
M  V30 4206 H 391.718 -1.56502 2.5524 0
M  V30 4207 H 389.264 -0.751486 1.22836 0
M  V30 4208 H 391.217 -3.8516 1.70968 0
M  V30 4209 H 389.941 -3.2004 0.651287 0
M  V30 4210 H 388.6 -2.51237 2.66975 0
M  V30 4211 H 388.248 -4.75898 1.62879 0
M  V30 4212 H 387.948 -4.80356 3.38425 0
M  V30 4213 H 389.472 -5.46379 2.72584 0
M  V30 4214 H 390.886 -3.81049 4.2834 0
M  V30 4215 H 389.283 -3.3886 4.95272 0
M  V30 4216 H 390.353 -2.10057 4.3704 0
M  V30 4217 N 391.696 -1.35014 -0.812953 0
M  V30 4218 C 392.945 -1.27269 -1.56479 0
M  V30 4219 C 393.258 0.152771 -1.95002 0
M  V30 4220 O 394.464 0.352451 -2.69203 0
M  V30 4221 C 392.92 -2.23159 -2.82362 0
M  V30 4222 C 392.528 -3.71016 -2.511 0
M  V30 4223 C 394.272 -2.24342 -3.60376 0
M  V30 4224 C 392.179 -4.58746 -3.73237 0
M  V30 4225 H 391.109 -0.472829 -0.587324 0
M  V30 4226 H 393.76 -1.6024 -0.894171 0
M  V30 4227 H 392.142 -1.83151 -3.51101 0
M  V30 4228 H 393.316 -4.1962 -1.90409 0
M  V30 4229 H 391.631 -3.72378 -1.86343 0
M  V30 4230 H 394.228 -2.87107 -4.51081 0
M  V30 4231 H 394.571 -1.24542 -3.97234 0
M  V30 4232 H 395.104 -2.62846 -2.98591 0
M  V30 4233 H 391.843 -5.59521 -3.41492 0
M  V30 4234 H 391.363 -4.14871 -4.33176 0
M  V30 4235 H 393.042 -4.73852 -4.40537 0
M  V30 4236 N 393.175 1.03435 -1.18907 0
M  V30 4237 C 394.423 1.76394 -0.986382 0
M  V30 4238 C 394.744 1.88883 0.484567 0
M  V30 4239 O 394.014 1.41843 1.3512 0
M  V30 4240 H 392.594 0.65344 -0.361975 0
M  V30 4241 H 395.256 1.248 -1.49703 0
M  V30 4242 H 394.352 2.77424 -1.42978 0
M  V30 4243 N 394.653 0.992116 1.22453 0
M  V30 4244 C 395.899 0.668523 1.91464 0
M  V30 4245 C 396.232 -0.797313 1.77078 0
M  V30 4246 O 395.507 -1.5765 1.13916 0
M  V30 4247 C 395.79 1.07424 3.43703 0
M  V30 4248 C 395.643 2.59857 3.67143 0
M  V30 4249 C 396.962 0.626891 4.35612 0
M  V30 4250 H 394.081 0.244341 0.695318 0
M  V30 4251 H 396.723 1.2355 1.44345 0
M  V30 4252 H 394.873 0.591816 3.83966 0
M  V30 4253 H 396.545 3.15764 3.3629 0
M  V30 4254 H 394.788 3.01961 3.11451 0
M  V30 4255 H 395.459 2.83296 4.73759 0
M  V30 4256 H 397.935 1.04125 4.02861 0
M  V30 4257 H 396.811 0.939076 5.40807 0
M  V30 4258 H 397.072 -0.472457 4.39568 0
M  V30 4259 N 396.131 -1.37776 0.765217 0
M  V30 4260 C 397.379 -1.99454 0.325943 0
M  V30 4261 C 397.7 -1.61049 -1.09947 0
M  V30 4262 O 396.97 -0.872821 -1.75381 0
M  V30 4263 H 395.55 -0.737697 0.117525 0
M  V30 4264 H 398.212 -1.68359 0.981895 0
M  V30 4265 H 397.308 -3.09547 0.398353 0
M  V30 4266 N 397.609 -0.515225 -1.4894 0
M  V30 4267 C 398.556 0.255567 -2.29381 0
M  V30 4268 C 399.526 0.947387 -1.36432 0
M  V30 4269 O 400.711 0.951288 -1.65394 0
M  V30 4270 C 397.851 1.30551 -3.19453 0
M  V30 4271 C 396.964 0.624029 -4.27469 0
M  V30 4272 C 396.099 1.65563 -5.0474 0
M  V30 4273 C 395.138 0.956802 -6.04576 0
M  V30 4274 N 394.275 1.93326 -6.74959 0
M  V30 4275 H 399.115 -0.436607 -2.94784 0
M  V30 4276 H 396.652 -0.227154 -1.45336 0
M  V30 4277 H 398.61 1.92639 -3.70062 0
M  V30 4278 H 397.24 1.96626 -2.56004 0
M  V30 4279 H 396.292 -0.110459 -3.8024 0
M  V30 4280 H 397.604 0.0746092 -4.98744 0
M  V30 4281 H 396.758 2.35119 -5.59289 0
M  V30 4282 H 395.497 2.23893 -4.3327 0
M  V30 4283 H 394.502 0.247097 -5.49244 0
M  V30 4284 H 395.727 0.379814 -6.78037 0
M  V30 4285 H 393.673 2.50591 -6.06251 0
M  V30 4286 H 393.59 1.43489 -7.42258 0
M  V30 4287 H 394.858 2.62126 -7.34105 0
M  V30 4288 N 399.087 1.5561 -0.249682 0
M  V30 4289 C 400.019 2.18834 0.681496 0
M  V30 4290 C 401.032 1.16546 1.1367 0
M  V30 4291 O 402.221 1.43397 1.06299 0
M  V30 4292 C 399.321 2.77992 1.9384 0
M  V30 4293 C 398.494 4.05725 1.63419 0
M  V30 4294 C 397.553 4.49174 2.74096 0
M  V30 4295 O 396.579 5.15492 2.41364 0
M  V30 4296 N 397.781 4.17191 4.03649 0
M  V30 4297 H 400.546 2.9937 0.140514 0
M  V30 4298 H 398.107 1.6175 -0.0697541 0
M  V30 4299 H 400.099 3.04015 2.67127 0
M  V30 4300 H 398.669 2.01596 2.38909 0
M  V30 4301 H 397.889 3.87261 0.736358 0
M  V30 4302 H 399.177 4.88999 1.40562 0
M  V30 4303 H 398.575 3.63955 4.33074 0
M  V30 4304 H 397.132 4.48043 4.73393 0
M  V30 4305 N 400.565 -0.0233959 1.57583 0
M  V30 4306 C 401.813 -0.711654 1.89156 0
M  V30 4307 C 402.134 -1.75591 0.848096 0
M  V30 4308 O 401.404 -1.95547 -0.117566 0
M  V30 4309 H 399.984 -0.265835 0.698098 0
M  V30 4310 H 402.646 0.0119948 1.94896 0
M  V30 4311 H 401.742 -1.19766 2.88206 0
M  V30 4312 N 402.043 -1.548 -0.295768 0
M  V30 4313 C 402.973 -1.89115 -1.36959 0
M  V30 4314 C 403.954 -0.75059 -1.52644 0
M  V30 4315 O 405.139 -1.00678 -1.66065 0
M  V30 4316 C 402.269 -2.14307 -2.73295 0
M  V30 4317 C 401.223 -3.30151 -2.72368 0
M  V30 4318 C 400.549 -3.40772 -4.12042 0
M  V30 4319 C 401.849 -4.67126 -2.33646 0
M  V30 4320 H 403.543 -2.79053 -1.08488 0
M  V30 4321 H 401.089 -1.34266 -0.520443 0
M  V30 4322 H 403.042 -2.36898 -3.48507 0
M  V30 4323 H 401.766 -1.21145 -3.03301 0
M  V30 4324 H 400.425 -3.0749 -1.99613 0
M  V30 4325 H 400.073 -2.45117 -4.39234 0
M  V30 4326 H 399.773 -4.18645 -4.12322 0
M  V30 4327 H 401.297 -3.6563 -4.89027 0
M  V30 4328 H 402.711 -4.89414 -2.98575 0
M  V30 4329 H 401.108 -5.47751 -2.45129 0
M  V30 4330 H 402.178 -4.67489 -1.28772 0
M  V30 4331 N 403.521 0.559213 -1.47345 0
M  V30 4332 C 404.761 1.32728 -1.55444 0
M  V30 4333 C 405.125 1.90838 -0.210895 0
M  V30 4334 O 406.326 2.68282 -0.166719 0
M  V30 4335 C 404.597 2.4092 -2.63993 0
M  V30 4336 S 406.156 3.2784 -2.91661 0
M  V30 4337 H 402.974 0.451883 -0.548929 0
M  V30 4338 H 405.576 0.640404 -1.84714 0
M  V30 4339 H 404.28 1.9666 -3.60212 0
M  V30 4340 H 403.811 3.14351 -2.36531 0
M  V30 4341 H 405.826 4.40341 -2.28722 0
M  V30 4342 N 404.999 1.35443 0.805782 0
M  V30 4343 C 406.239 1.30127 1.57627 0
M  V30 4344 C 406.603 -0.122567 1.91608 0
M  V30 4345 O 407.804 -0.300107 2.67119 0
M  V30 4346 C 406.075 2.18314 2.82973 0
M  V30 4347 S 407.634 2.30521 3.7337 0
M  V30 4348 H 404.452 0.462439 0.540066 0
M  V30 4349 H 407.054 1.70843 0.95042 0
M  V30 4350 H 405.758 3.20741 2.56034 0
M  V30 4351 H 405.289 1.78558 3.50543 0
M  V30 4352 H 407.304 1.49062 4.73281 0
M  V30 4353 N 406.477 -1.02803 1.19454 0
M  V30 4354 C 407.702 -1.80378 1.02364 0
M  V30 4355 C 408.127 -1.83282 -0.423007 0
M  V30 4356 O 407.485 -1.25945 -1.30413 0
M  V30 4357 C 407.533 -3.23248 1.59821 0
M  V30 4358 O 406.637 -4.04 0.828105 0
M  V30 4359 H 405.978 -0.556799 0.361761 0
M  V30 4360 H 408.508 -1.29385 1.58495 0
M  V30 4361 H 408.518 -3.73994 1.63073 0
M  V30 4362 H 407.193 -3.2045 2.65113 0
M  V30 4363 H 405.77 -3.62635 0.86891 0
M  V30 4364 N 407.956 -0.998596 -1.21925 0
M  V30 4365 C 409.203 -0.677663 -1.90824 0
M  V30 4366 C 409.531 0.790905 -1.77693 0
M  V30 4367 O 408.786 1.58817 -1.14349 0
M  V30 4368 C 409.085 -1.03648 -3.42041 0
M  V30 4369 C 408.751 -2.49825 -3.75364 0
M  V30 4370 C 407.413 -2.8977 -3.8417 0
M  V30 4371 C 409.765 -3.44545 -3.91073 0
M  V30 4372 C 407.093 -4.23412 -4.06127 0
M  V30 4373 C 409.445 -4.77853 -4.14535 0
M  V30 4374 C 408.109 -5.17531 -4.21566 0
M  V30 4375 H 407.379 -0.247975 -0.698276 0
M  V30 4376 H 410.026 -1.25584 -1.44571 0
M  V30 4377 H 408.331 -0.376457 -3.89987 0
M  V30 4378 H 410.028 -0.766113 -3.93614 0
M  V30 4379 H 406.618 -2.17866 -3.69097 0
M  V30 4380 H 410.802 -3.14853 -3.83642 0
M  V30 4381 H 406.058 -4.53734 -4.09799 0
M  V30 4382 H 410.232 -5.51189 -4.25633 0
M  V30 4383 H 407.859 -6.21102 -4.38333 0
M  V30 4384 N 409.434 1.37368 -0.772513 0
M  V30 4385 C 410.674 2.01512 -0.342361 0
M  V30 4386 C 411.038 1.59997 1.06136 0
M  V30 4387 O 412.239 2.16609 1.59167 0
M  V30 4388 C 410.51 3.54134 -0.482048 0
M  V30 4389 S 412.069 4.38585 -0.137272 0
M  V30 4390 H 408.887 0.698699 -0.131686 0
M  V30 4391 H 411.489 1.67552 -1.0073 0
M  V30 4392 H 410.193 3.81837 -1.50428 0
M  V30 4393 H 409.724 3.92894 0.199413 0
M  V30 4394 H 411.739 4.84594 1.06692 0
M  V30 4395 N 410.912 0.523116 1.48665 0
M  V30 4396 C 411.859 -0.243398 2.29513 0
M  V30 4397 C 412.829 -0.940139 1.36933 0
M  V30 4398 O 414.014 -0.942503 1.65896 0
M  V30 4399 C 411.154 -1.28855 3.20141 0
M  V30 4400 C 410.267 -0.60135 4.27794 0
M  V30 4401 C 409.402 -1.62884 5.05611 0
M  V30 4402 C 408.441 -0.924726 6.05075 0
M  V30 4403 N 407.578 -1.89744 6.75975 0
M  V30 4404 H 412.418 0.452234 2.94549 0
M  V30 4405 H 409.955 0.234858 1.45213 0
M  V30 4406 H 411.913 -1.90674 3.71079 0
M  V30 4407 H 410.543 -1.95266 2.57043 0
M  V30 4408 H 409.595 0.130623 3.80176 0
M  V30 4409 H 410.907 -0.0481585 4.98777 0
M  V30 4410 H 410.061 -2.32149 5.60528 0
M  V30 4411 H 408.8 -2.21592 4.34452 0
M  V30 4412 H 407.805 -0.217966 5.49368 0
M  V30 4413 H 409.03 -0.343851 6.78229 0
M  V30 4414 H 406.976 -2.47373 6.07571 0
M  V30 4415 H 406.893 -1.3955 7.43009 0
M  V30 4416 H 408.161 -2.58229 7.35485 0
M  V30 4417 N 412.39 -1.55475 0.257931 0
M  V30 4418 C 413.62 -2.03314 -0.367026 0
M  V30 4419 C 414.028 -1.13625 -1.51281 0
M  V30 4420 O 413.371 -0.145334 -1.83124 0
M  V30 4421 C 413.433 -3.47362 -0.926284 0
M  V30 4422 C 413.097 -4.56914 0.0886584 0
M  V30 4423 C 414.094 -5.12013 0.902123 0
M  V30 4424 C 411.779 -5.01827 0.217936 0
M  V30 4425 C 413.773 -6.10529 1.83122 0
M  V30 4426 C 411.46 -6.00172 1.15052 0
M  V30 4427 C 412.458 -6.54402 1.95568 0
M  V30 4428 O 412.146 -7.50827 2.87253 0
M  V30 4429 H 411.878 -0.669976 -0.0900443 0
M  V30 4430 H 414.432 -2.01804 0.382673 0
M  V30 4431 H 412.662 -3.46056 -1.72575 0
M  V30 4432 H 414.351 -3.78637 -1.46249 0
M  V30 4433 H 415.117 -4.78139 0.812891 0
M  V30 4434 H 410.996 -4.59272 -0.398721 0
M  V30 4435 H 414.54 -6.52783 2.46008 0
M  V30 4436 H 410.437 -6.33465 1.24064 0
M  V30 4437 H 411.205 -7.68483 2.81739 0
M  V30 4438 N 413.868 0.0150385 -1.57593 0
M  V30 4439 C 415.096 0.714395 -1.94175 0
M  V30 4440 C 415.511 1.68135 -0.858841 0
M  V30 4441 O 414.868 1.81766 0.163567 0
M  V30 4442 C 414.919 1.45933 -3.30735 0
M  V30 4443 O 414.64 0.531167 -4.34868 0
M  V30 4444 C 416.141 2.25456 -3.81686 0
M  V30 4445 H 413.361 0.199923 -0.640525 0
M  V30 4446 H 415.905 -0.0316096 -2.04476 0
M  V30 4447 H 414.06 2.15709 -3.21789 0
M  V30 4448 H 414.474 1.05509 -5.13778 0
M  V30 4449 H 415.948 2.731 -4.79709 0
M  V30 4450 H 416.425 3.07485 -3.13607 0
M  V30 4451 H 417.031 1.60727 -3.9376 0
M  V30 4452 N 415.346 1.54954 0.287554 0
M  V30 4453 C 416.592 1.75132 1.02257 0
M  V30 4454 C 416.925 0.542858 1.86458 0
M  V30 4455 O 416.2 -0.459856 1.88986 0
M  V30 4456 C 416.483 3.04812 1.91733 0
M  V30 4457 C 416.336 4.35985 1.10622 0
M  V30 4458 C 417.655 3.30438 2.90687 0
M  V30 4459 H 414.774 0.637194 0.370341 0
M  V30 4460 H 417.416 1.87678 0.296111 0
M  V30 4461 H 415.566 2.94247 2.53675 0
M  V30 4462 H 417.238 4.58487 0.508636 0
M  V30 4463 H 415.481 4.31865 0.409271 0
M  V30 4464 H 416.152 5.23017 1.76513 0
M  V30 4465 H 418.628 3.40701 2.38877 0
M  V30 4466 H 417.504 4.22467 3.50447 0
M  V30 4467 H 417.765 2.49377 3.65053 0
M  V30 4468 N 416.824 -0.551391 1.4764 0
M  V30 4469 C 417.774 -1.65362 1.56969 0
M  V30 4470 C 418.758 -1.55098 0.428189 0
M  V30 4471 O 419.95 -1.63481 0.678441 0
M  V30 4472 C 417.079 -3.04129 1.59249 0
M  V30 4473 C 416.165 -3.19576 2.78804 0
M  V30 4474 N 416.556 -3.05067 4.03445 0
M  V30 4475 C 414.854 -3.50588 2.75688 0
M  V30 4476 C 415.555 -3.2336 4.83543 0
M  V30 4477 N 414.531 -3.4996 4.15968 0
M  V30 4478 H 418.333 -1.52722 2.51104 0
M  V30 4479 H 415.847 -0.756303 1.43714 0
M  V30 4480 H 417.844 -3.83278 1.64024 0
M  V30 4481 H 416.504 -3.17877 0.662148 0
M  V30 4482 H 417.515 -2.82273 4.34215 0
M  V30 4483 H 414.192 -3.70827 1.91817 0
M  V30 4484 H 415.582 -3.17061 5.92387 0
M  V30 4485 N 418.302 -1.35869 -0.798587 0
M  V30 4486 C 419.212 -1.31578 -1.94228 0
M  V30 4487 C 420.228 -0.21939 -1.72611 0
M  V30 4488 O 421.404 -0.450167 -1.96305 0
M  V30 4489 C 418.469 -1.09528 -3.28944 0
M  V30 4490 C 417.53 -2.28556 -3.63402 0
M  V30 4491 C 416.763 -2.07549 -4.9169 0
M  V30 4492 O 416.986 -1.046 -5.60727 0
M  V30 4493 O 415.92 -2.95106 -5.24591 0
M  V30 4494 H 419.746 -2.27847 -2.00796 0
M  V30 4495 H 417.331 -1.16322 -0.937526 0
M  V30 4496 H 419.213 -0.991127 -4.09579 0
M  V30 4497 H 417.888 -0.16315 -3.23289 0
M  V30 4498 H 416.795 -2.44538 -2.83112 0
M  V30 4499 H 418.128 -3.20244 -3.73771 0
M  V30 4500 N 419.78 1.02168 -1.19998 0
M  V30 4501 C 421.196 1.27969 -0.953737 0
M  V30 4502 C 421.396 1.98079 0.369703 0
M  V30 4503 O 420.452 2.27306 1.09947 0
M  V30 4504 C 421.765 2.11971 -2.13281 0
M  V30 4505 C 423.313 2.25255 -2.17323 0
M  V30 4506 C 423.788 3.12632 -3.34702 0
M  V30 4507 N 425.279 3.2022 -3.34684 0
M  V30 4508 C 426.014 3.88039 -4.22153 0
M  V30 4509 N 425.51 4.58027 -5.19791 0
M  V30 4510 N 427.303 3.84511 -4.10009 0
M  V30 4511 H 419.454 0.550794 -2.05134 0
M  V30 4512 H 421.717 0.305683 -0.897364 0
M  V30 4513 H 421.423 1.67785 -3.09097 0
M  V30 4514 H 421.297 3.12699 -2.10949 0
M  V30 4515 H 423.684 2.68667 -1.22073 0
M  V30 4516 H 423.765 1.24053 -2.23706 0
M  V30 4517 H 423.409 2.69926 -4.30235 0
M  V30 4518 H 423.339 4.13909 -3.25556 0
M  V30 4519 H 425.83 2.70382 -2.64012 0
M  V30 4520 H 426.143 5.07429 -5.82868 0
M  V30 4521 H 424.488 4.56869 -5.23733 0
M  V30 4522 H 427.679 3.28978 -3.33003 0
M  V30 4523 H 427.852 4.3709 -4.78389 0
M  V30 4524 N 421.258 1.00505 1.21394 0
M  V30 4525 C 422.498 0.696149 1.9218 0
M  V30 4526 C 422.862 -0.759099 1.76357 0
M  V30 4527 O 424.063 -1.17998 2.41516 0
M  V30 4528 C 422.334 1.10571 3.39866 0
M  V30 4529 S 423.893 0.91702 4.29111 0
M  V30 4530 H 420.711 0.254147 0.664026 0
M  V30 4531 H 423.313 1.28988 1.46909 0
M  V30 4532 H 422.017 2.16096 3.489 0
M  V30 4533 H 421.548 0.504268 3.90155 0
M  V30 4534 H 423.563 -0.185855 4.95852 0
M  V30 4535 N 422.737 -1.36956 0.779787 0
M  V30 4536 C 423.983 -1.99787 0.348281 0
M  V30 4537 C 424.316 -1.61756 -1.07465 0
M  V30 4538 O 423.591 -0.867639 -1.74075 0
M  V30 4539 C 423.874 -3.56597 0.50104 0
M  V30 4540 C 423.727 -4.04513 1.96697 0
M  V30 4541 C 425.046 -4.40008 -0.0898097 0
M  V30 4542 H 422.165 -0.725796 0.128022 0
M  V30 4543 H 424.807 -1.62514 0.984331 0
M  V30 4544 H 422.957 -3.88479 -0.0404347 0
M  V30 4545 H 424.629 -3.83161 2.56876 0
M  V30 4546 H 422.872 -3.56408 2.47297 0
M  V30 4547 H 423.543 -5.1352 2.02486 0
M  V30 4548 H 426.019 -4.14431 0.372293 0
M  V30 4549 H 424.895 -5.4888 0.0471605 0
M  V30 4550 H 425.156 -4.26035 -1.18096 0
M  V30 4551 N 424.215 -0.530993 -1.48385 0
M  V30 4552 C 425.178 0.220497 -2.28137 0
M  V30 4553 C 426.178 0.866851 -1.35434 0
M  V30 4554 O 427.368 0.726746 -1.58316 0
M  V30 4555 C 424.5 1.31921 -3.1434 0
M  V30 4556 H 425.693 -0.479714 -2.96038 0
M  V30 4557 H 423.246 -0.286968 -1.53643 0
M  V30 4558 H 423.981 2.05264 -2.51072 0
M  V30 4559 H 423.766 0.86085 -3.82533 0
M  V30 4560 H 425.256 1.84776 -3.74497 0
M  V30 4561 N 425.693 1.55336 -0.266172 0
M  V30 4562 C 427.109 1.59356 0.0882065 0
M  V30 4563 C 427.309 1.2834 1.55342 0
M  V30 4564 O 426.365 1.03996 2.30089 0
M  V30 4565 C 427.678 2.99409 -0.278364 0
M  V30 4566 C 429.226 3.12196 -0.224243 0
M  V30 4567 C 429.701 4.545 -0.565123 0
M  V30 4568 N 431.192 4.60313 -0.51634 0
M  V30 4569 C 431.927 5.68434 -0.753013 0
M  V30 4570 N 431.423 6.84738 -1.05383 0
M  V30 4571 N 433.216 5.57942 -0.682414 0
M  V30 4572 H 425.367 1.73764 -1.22147 0
M  V30 4573 H 427.63 0.809822 -0.492841 0
M  V30 4574 H 427.336 3.2691 -1.29703 0
M  V30 4575 H 427.21 3.75228 0.385186 0
M  V30 4576 H 429.597 2.84464 0.78512 0
M  V30 4577 H 429.678 2.38609 -0.921922 0
M  V30 4578 H 429.322 4.82956 -1.57213 0
M  V30 4579 H 429.252 5.26374 0.154248 0
M  V30 4580 H 431.743 3.7676 -0.29335 0
M  V30 4581 H 432.056 7.63088 -1.22133 0
M  V30 4582 H 430.401 6.86375 -1.09151 0
M  V30 4583 H 433.592 4.65958 -0.44731 0
M  V30 4584 H 433.765 6.4213 -0.870248 0
M  V30 4585 N 427.171 -0.0066808 1.57599 0
M  V30 4586 C 428.134 -0.985035 2.06953 0
M  V30 4587 C 429.134 -1.27663 0.977687 0
M  V30 4588 O 430.324 -1.22293 1.24057 0
M  V30 4589 C 427.456 -2.3118 2.50536 0
M  V30 4590 H 428.649 -0.558255 2.94658 0
M  V30 4591 H 426.202 -0.254011 1.54222 0
M  V30 4592 H 426.937 -2.78561 1.66054 0
M  V30 4593 H 426.722 -2.11338 3.3027 0
M  V30 4594 H 428.212 -3.01377 2.8907 0
M  V30 4595 N 428.649 -1.55105 -0.279332 0
M  V30 4596 C 430.06 -1.66186 -0.850832 0
M  V30 4597 C 430.411 -0.584707 -1.87285 0
M  V30 4598 O 429.536 0.274919 -2.14647 0
M  V30 4599 C 430.131 -3.01264 -1.55001 0
M  V30 4600 C 428.69 -3.14394 -2.06963 0
M  V30 4601 C 427.837 -2.61959 -0.909536 0
M  V30 4602 H 430.788 -1.58602 -0.0558235 0
M  V30 4603 H 430.809 -2.93899 -2.41669 0
M  V30 4604 H 430.321 -3.7964 -0.805931 0
M  V30 4605 H 428.422 -2.4078 -2.84352 0
M  V30 4606 H 428.535 -4.20867 -2.28928 0
M  V30 4607 H 426.899 -2.18957 -1.30116 0
M  V30 4608 H 427.682 -3.42833 -0.179062 0
M  V30 4609 N 430.127 0.543554 -1.4793 0
M  V30 4610 C 431.538 1.12561 -1.48953 0
M  V30 4611 C 431.889 1.94578 -0.251754 0
M  V30 4612 O 431.014 2.0665 0.642255 0
M  V30 4613 C 431.609 2.04801 -2.69892 0
M  V30 4614 C 430.168 2.58251 -2.73831 0
M  V30 4615 C 429.315 1.34918 -2.42265 0
M  V30 4616 H 432.266 0.32947 -1.55242 0
M  V30 4617 H 432.287 2.88886 -2.47639 0
M  V30 4618 H 431.799 1.4508 -3.59963 0
M  V30 4619 H 429.9 3.21732 -1.87934 0
M  V30 4620 H 430.013 2.98312 -3.74895 0
M  V30 4621 H 428.377 1.66046 -1.93134 0
M  V30 4622 H 429.16 0.769693 -3.3456 0
M  V30 4623 N 431.605 1.3629 0.791371 0
M  V30 4624 C 432.83 1.33726 1.58531 0
M  V30 4625 C 433.255 -0.0794933 1.87932 0
M  V30 4626 O 432.613 -1.05087 1.47738 0
M  V30 4627 C 432.661 2.16425 2.88431 0
M  V30 4628 O 431.765 1.5554 3.81944 0
M  V30 4629 H 431.106 0.457793 0.480959 0
M  V30 4630 H 433.636 1.79547 0.981031 0
M  V30 4631 H 433.646 2.28933 3.37718 0
M  V30 4632 H 432.321 3.19415 2.66359 0
M  V30 4633 H 430.898 1.51961 3.40532 0
M  V30 4634 N 433.083 -1.0153 1.20538 0
M  V30 4635 C 434.323 -1.76689 1.02763 0
M  V30 4636 C 434.687 -1.87065 -0.432513 0
M  V30 4637 O 435.888 -2.58684 -0.730481 0
M  V30 4638 C 434.159 -3.14707 1.69393 0
M  V30 4639 S 435.718 -4.05886 1.66738 0
M  V30 4640 H 432.536 -0.608076 0.368463 0
M  V30 4641 H 435.138 -1.21558 1.53114 0
M  V30 4642 H 433.842 -3.04782 2.74838 0
M  V30 4643 H 433.373 -3.74913 1.19179 0
M  V30 4644 H 435.388 -4.91221 0.70117 0
M  V30 4645 N 434.561 -1.01147 -1.20859 0
M  V30 4646 C 435.81 -0.693214 -1.89413 0
M  V30 4647 C 436.123 0.779969 -1.79376 0
M  V30 4648 O 437.329 1.21057 -2.43017 0
M  V30 4649 C 435.785 -1.18949 -3.39675 0
M  V30 4650 C 435.393 -2.68921 -3.58309 0
M  V30 4651 C 437.137 -0.94642 -4.13815 0
M  V30 4652 C 435.044 -3.12056 -5.0237 0
M  V30 4653 H 433.974 -0.255595 -0.709357 0
M  V30 4654 H 436.625 -1.22349 -1.36759 0
M  V30 4655 H 435.007 -0.587228 -3.91622 0
M  V30 4656 H 436.181 -3.34652 -3.16772 0
M  V30 4657 H 434.496 -2.91314 -2.97532 0
M  V30 4658 H 437.093 -1.24417 -5.20023 0
M  V30 4659 H 437.436 0.117219 -4.16135 0
M  V30 4660 H 437.969 -1.5118 -3.67953 0
M  V30 4661 H 434.708 -4.17674 -5.05202 0
M  V30 4662 H 434.228 -2.51041 -5.44737 0
M  V30 4663 H 435.907 -3.04403 -5.70918 0
M  V30 4664 N 436.039 1.36541 -0.78704 0
M  V30 4665 C 436.986 2.30082 -0.181901 0
M  V30 4666 C 437.956 1.5186 0.672896 0
M  V30 4667 O 439.141 1.80374 0.622072 0
M  V30 4668 C 436.281 3.3835 0.679197 0
M  V30 4669 C 435.394 4.31565 -0.193882 0
M  V30 4670 C 434.529 5.26915 0.673364 0
M  V30 4671 C 433.568 6.11769 -0.201315 0
M  V30 4672 N 432.705 6.99315 0.624777 0
M  V30 4673 H 437.545 2.81248 -0.985064 0
M  V30 4674 H 435.082 1.38437 -0.497342 0
M  V30 4675 H 437.04 3.99767 1.19341 0
M  V30 4676 H 435.67 2.8851 1.44781 0
M  V30 4677 H 434.722 3.71323 -0.826044 0
M  V30 4678 H 436.034 4.91191 -0.867937 0
M  V30 4679 H 435.188 5.9361 1.25348 0
M  V30 4680 H 433.927 4.67737 1.38105 0
M  V30 4681 H 432.932 5.44039 -0.793849 0
M  V30 4682 H 434.157 6.73022 -0.906568 0
M  V30 4683 H 432.103 6.42648 1.3168 0
M  V30 4684 H 432.02 7.56 0.00835237 0
M  V30 4685 H 433.288 7.70382 1.18879 0
M  V30 4686 N 437.518 0.538854 1.48102 0
M  V30 4687 C 438.746 0.0123136 2.06896 0
M  V30 4688 C 439.161 -1.27312 1.39417 0
M  V30 4689 O 438.518 -1.75949 0.484582 0
M  V30 4690 C 438.569 -0.206118 3.60912 0
M  V30 4691 O 438.29 1.0284 4.25859 0
M  V30 4692 C 439.791 -0.772033 4.36526 0
M  V30 4693 H 437.011 0.0375239 0.66995 0
M  V30 4694 H 439.555 0.747032 1.90367 0
M  V30 4695 H 437.71 -0.89091 3.77017 0
M  V30 4696 H 438.124 0.814654 5.18135 0
M  V30 4697 H 439.598 -0.874251 5.45033 0
M  V30 4698 H 440.075 -1.77904 4.01555 0
M  V30 4699 H 440.681 -0.123526 4.25121 0
M  V30 4700 N 438.996 -1.55193 0.274407 0
M  V30 4701 C 440.226 -2.03692 -0.345442 0
M  V30 4702 C 440.634 -1.15224 -1.50067 0
M  V30 4703 O 439.977 -0.164749 -1.8296 0
M  V30 4704 C 440.039 -3.48325 -0.88939 0
M  V30 4705 C 439.703 -4.56794 0.137115 0
M  V30 4706 C 440.7 -5.11028 0.956378 0
M  V30 4707 C 438.385 -5.01568 0.27115 0
M  V30 4708 C 440.379 -6.08552 1.89587 0
M  V30 4709 C 438.066 -5.98918 1.21412 0
M  V30 4710 C 439.064 -6.52291 2.02498 0
M  V30 4711 O 438.752 -7.47738 2.952 0
M  V30 4712 H 438.484 -0.670893 -0.0829332 0
M  V30 4713 H 441.038 -2.01387 0.404056 0
M  V30 4714 H 439.268 -3.47867 -1.68895 0
M  V30 4715 H 440.957 -3.80167 -1.42225 0
M  V30 4716 H 441.723 -4.7725 0.863559 0
M  V30 4717 H 437.602 -4.5967 -0.349987 0
M  V30 4718 H 441.146 -6.50137 2.52918 0
M  V30 4719 H 437.043 -6.32114 1.30776 0
M  V30 4720 H 437.811 -7.65451 2.89874 0
M  V30 4721 N 440.474 -0.00167713 -1.576 0
M  V30 4722 C 441.72 0.683832 -1.90923 0
M  V30 4723 C 442.053 1.7333 -0.875799 0
M  V30 4724 O 441.328 1.94215 0.10525 0
M  V30 4725 C 441.611 1.32543 -3.3482 0
M  V30 4726 C 441.464 0.287387 -4.48881 0
M  V30 4727 C 442.783 2.25114 -3.78169 0
M  V30 4728 H 439.902 0.247125 -0.694333 0
M  V30 4729 H 442.544 -0.0533149 -1.89925 0
M  V30 4730 H 440.694 1.95372 -3.35801 0
M  V30 4731 H 442.366 -0.341346 -4.60035 0
M  V30 4732 H 440.609 -0.39017 -4.32042 0
M  V30 4733 H 441.28 0.775393 -5.46527 0
M  V30 4734 H 443.756 1.723 -3.7875 0
M  V30 4735 H 442.632 2.66971 -4.79602 0
M  V30 4736 H 442.893 3.13092 -3.12131 0
M  V30 4737 N 441.952 1.55251 0.271103 0
M  V30 4738 C 442.899 1.88261 1.33516 0
M  V30 4739 C 443.869 0.734296 1.48988 0
M  V30 4740 O 445.054 0.985741 1.63364 0
M  V30 4741 C 442.194 2.16168 2.69008 0
M  V30 4742 C 441.307 3.43678 2.61743 0
M  V30 4743 C 440.442 3.61276 3.89427 0
M  V30 4744 C 439.481 4.82472 3.7668 0
M  V30 4745 N 438.618 4.96717 4.96202 0
M  V30 4746 H 443.458 2.79015 1.04665 0
M  V30 4747 H 440.995 1.38137 0.505618 0
M  V30 4748 H 442.953 2.30349 3.47844 0
M  V30 4749 H 441.583 1.28646 2.96057 0
M  V30 4750 H 440.635 3.37959 1.74607 0
M  V30 4751 H 441.947 4.3265 2.48224 0
M  V30 4752 H 441.101 3.75284 4.76704 0
M  V30 4753 H 439.84 2.70492 4.05814 0
M  V30 4754 H 438.845 4.68465 2.87786 0
M  V30 4755 H 440.07 5.74692 3.61809 0
M  V30 4756 H 438.016 4.08865 5.12997 0
M  V30 4757 H 437.933 5.79738 4.85222 0
M  V30 4758 H 439.201 5.15113 5.85046 0
M  V30 4759 N 443.43 -0.535701 1.48216 0
M  V30 4760 C 444.655 -1.32149 1.59848 0
M  V30 4761 C 445.08 -1.86338 0.256842 0
M  V30 4762 O 444.438 -1.64107 -0.770632 0
M  V30 4763 C 444.486 -2.45224 2.64381 0
M  V30 4764 O 443.59 -3.48093 2.21144 0
M  V30 4765 H 442.931 -0.391634 0.536208 0
M  V30 4766 H 445.461 -0.645202 1.94161 0
M  V30 4767 H 445.471 -2.91491 2.85476 0
M  V30 4768 H 444.146 -2.05143 3.61786 0
M  V30 4769 H 442.723 -3.07984 2.10239 0
M  V30 4770 N 444.908 -1.36708 -0.784132 0
M  V30 4771 C 445.855 -1.31466 -1.89698 0
M  V30 4772 C 446.825 -0.18239 -1.65096 0
M  V30 4773 O 448.01 -0.369762 -1.87183 0
M  V30 4774 C 445.15 -1.1151 -3.26588 0
M  V30 4775 C 444.263 -2.33859 -3.63227 0
M  V30 4776 C 443.398 -2.06873 -4.89262 0
M  V30 4777 C 442.437 -3.25154 -5.18595 0
M  V30 4778 N 441.574 -2.978 -6.35814 0
M  V30 4779 H 446.414 -2.26619 -1.93515 0
M  V30 4780 H 443.951 -1.12625 -0.946256 0
M  V30 4781 H 445.909 -0.979653 -4.05535 0
M  V30 4782 H 444.539 -0.200103 -3.22179 0
M  V30 4783 H 443.591 -2.58188 -2.79362 0
M  V30 4784 H 444.903 -3.22109 -3.8085 0
M  V30 4785 H 444.057 -1.90289 -5.76086 0
M  V30 4786 H 442.796 -1.15942 -4.73718 0
M  V30 4787 H 441.801 -3.42292 -4.30251 0
M  V30 4788 H 443.026 -4.1692 -5.36055 0
M  V30 4789 H 440.972 -2.09485 -6.21653 0
M  V30 4790 H 440.889 -3.7959 -6.53794 0
M  V30 4791 H 442.157 -2.84805 -7.25607 0
M  V30 4792 N 446.386 1.0089 -1.21074 0
M  V30 4793 C 447.802 1.2695 -0.967257 0
M  V30 4794 C 448.002 1.9846 0.348673 0
M  V30 4795 O 447.058 2.28459 1.0753 0
M  V30 4796 C 448.371 2.09697 -2.15517 0
M  V30 4797 C 449.919 2.22937 -2.197 0
M  V30 4798 C 450.394 3.09064 -3.37999 0
M  V30 4799 N 451.885 3.16653 -3.38061 0
M  V30 4800 C 452.62 3.8354 -4.26245 0
M  V30 4801 N 452.116 4.52488 -5.2462 0
M  V30 4802 N 453.909 3.80141 -4.14064 0
M  V30 4803 H 446.06 0.529005 -2.05707 0
M  V30 4804 H 448.323 0.296148 -0.900556 0
M  V30 4805 H 448.029 1.64497 -3.10859 0
M  V30 4806 H 447.903 3.10444 -2.14253 0
M  V30 4807 H 450.29 2.67357 -1.24916 0
M  V30 4808 H 450.371 1.21673 -2.2501 0
M  V30 4809 H 450.015 2.65347 -4.33074 0
M  V30 4810 H 449.945 4.10433 -3.29928 0
M  V30 4811 H 452.436 2.67566 -2.66865 0
M  V30 4812 H 452.749 5.01219 -5.88217 0
M  V30 4813 H 451.094 4.51288 -5.28549 0
M  V30 4814 H 454.285 3.25427 -3.36474 0
M  V30 4815 H 454.458 4.31992 -4.82998 0
M  V30 4816 N 447.864 1.01787 1.20321 0
M  V30 4817 C 448.812 0.58254 2.25187 0
M  V30 4818 C 449.806 -0.379359 1.65098 0
M  V30 4819 O 451.012 -0.249142 1.78267 0
M  V30 4820 H 447.387 0.170078 0.732514 0
M  V30 4821 H 449.358 1.47788 2.59232 0
M  V30 4822 C 448.107 -0.0620885 3.47645 0
M  V30 4823 H 447.43 0.669069 3.94162 0
M  V30 4824 H 448.87 -0.329784 4.22716 0
M  V30 4825 C 447.329 -1.3053 3.10586 0
M  V30 4826 O 447.859 -2.39848 3.22236 0
M  V30 4827 N 446.065 -1.18988 2.65123 0
M  V30 4828 H 445.612 -0.300341 2.55843 0
M  V30 4829 H 445.57 -2.02267 2.40698 0
M  V30 4830 N 449.342 -1.36122 0.79427 0
M  V30 4831 C 450.57 -2.03362 0.380989 0
M  V30 4832 C 450.985 -1.59881 -1.00416 0
M  V30 4833 O 450.342 -0.790515 -1.6449 0
M  V30 4834 C 450.393 -3.58804 0.440649 0
M  V30 4835 O 450.114 -4.007 1.77118 0
M  V30 4836 C 451.615 -4.43296 0.0186117 0
M  V30 4837 H 448.835 -0.652526 0.156367 0
M  V30 4838 H 451.379 -1.73998 1.07447 0
M  V30 4839 H 449.534 -3.8686 -0.204458 0
M  V30 4840 H 449.948 -4.95309 1.72538 0
M  V30 4841 H 451.422 -5.51887 0.111488 0
M  V30 4842 H 451.899 -4.2684 -1.03461 0
M  V30 4843 H 452.505 -4.20512 0.636395 0
M  V30 4844 N 450.82 -0.546701 -1.47814 0
M  V30 4845 C 452.097 0.0464413 -1.95545 0
M  V30 4846 C 452.477 1.4962 -1.48919 0
M  V30 4847 O 451.825 2.16752 -0.723232 0
M  V30 4848 C 452.035 -0.0881298 -3.48889 0
M  V30 4849 C 453.383 0.0626059 -4.24554 0
M  V30 4850 O 454.407 -0.0151555 -3.56197 0
M  V30 4851 O 453.266 0.228071 -5.46024 0
M  V30 4852 H 450.36 0.0700004 -0.824032 0
M  V30 4853 H 452.906 -0.612482 -1.58262 0
M  V30 4854 H 451.678 -1.09737 -3.75597 0
M  V30 4855 H 451.301 0.608886 -3.9291 0
M  V30 4856 N 452.299 1.55045 -0.282633 0
M  V30 4857 C 453.545 2.00056 0.332481 0
M  V30 4858 C 453.878 1.1708 1.54939 0
M  V30 4859 O 453.153 0.2427 1.9298 0
M  V30 4860 C 453.436 3.53086 0.70725 0
M  V30 4861 C 453.289 4.46813 -0.517521 0
M  V30 4862 C 454.608 4.12245 1.54084 0
M  V30 4863 H 451.727 0.727268 0.119373 0
M  V30 4864 H 454.369 1.85932 -0.391076 0
M  V30 4865 H 452.519 3.65253 1.32372 0
M  V30 4866 H 454.191 4.46579 -1.15607 0
M  V30 4867 H 452.434 4.18163 -1.1542 0
M  V30 4868 H 453.105 5.51595 -0.211426 0
M  V30 4869 H 455.581 4.03401 1.02013 0
M  V30 4870 H 454.457 5.19515 1.77186 0
M  V30 4871 H 454.718 3.62951 2.52427 0
M  V30 4872 N 453.777 0.010035 1.57597 0
M  V30 4873 C 454.71 -1.01234 2.04516 0
M  V30 4874 C 455.688 -1.32886 0.937024 0
M  V30 4875 O 456.872 -1.44879 1.20592 0
M  V30 4876 C 453.999 -2.33738 2.45121 0
M  V30 4877 C 453.045 -2.17679 3.66767 0
M  V30 4878 S 453.878 -1.49343 5.14254 0
M  V30 4879 C 455.034 -2.83256 5.58137 0
M  V30 4880 H 455.267 -0.612866 2.90914 0
M  V30 4881 H 452.8 -0.201124 1.53084 0
M  V30 4882 H 454.758 -3.09922 2.69182 0
M  V30 4883 H 453.419 -2.70823 1.59103 0
M  V30 4884 H 452.612 -3.1559 3.92962 0
M  V30 4885 H 452.214 -1.4964 3.42759 0
M  V30 4886 H 454.506 -3.79538 5.6121 0
M  V30 4887 H 455.449 -2.61749 6.57946 0
M  V30 4888 H 455.857 -2.87627 4.85727 0
M  V30 4889 N 455.255 -1.55392 -0.262866 0
M  V30 4890 C 456.205 -1.85355 -1.32768 0
M  V30 4891 C 457.189 -0.713188 -1.44231 0
M  V30 4892 O 458.381 -0.974765 -1.47741 0
M  V30 4893 C 455.51 -2.13781 -2.68612 0
M  V30 4894 C 454.596 -3.34104 -2.61219 0
M  V30 4895 N 454.987 -4.53766 -2.2345 0
M  V30 4896 C 453.285 -3.36895 -2.92263 0
M  V30 4897 C 453.986 -5.35877 -2.26298 0
M  V30 4898 N 452.962 -4.74536 -2.65172 0
M  V30 4899 H 456.764 -2.75413 -1.02591 0
M  V30 4900 H 454.278 -1.55405 -0.471503 0
M  V30 4901 H 456.275 -2.33407 -3.45437 0
M  V30 4902 H 454.935 -1.25013 -2.99669 0
M  V30 4903 H 455.946 -4.79682 -1.95258 0
M  V30 4904 H 452.623 -2.58351 -3.27965 0
M  V30 4905 H 454.013 -6.41577 -1.99572 0
M  V30 4906 N 456.733 0.527833 -1.48498 0
M  V30 4907 C 457.683 1.62844 -1.5958 0
M  V30 4908 C 458.667 1.54397 -0.452809 0
M  V30 4909 O 459.859 1.62381 -0.704364 0
M  V30 4910 C 456.988 3.01557 -1.64067 0
M  V30 4911 C 456.074 3.151 -2.83853 0
M  V30 4912 N 456.465 2.9861 -4.08247 0
M  V30 4913 C 454.763 3.46158 -2.8123 0
M  V30 4914 C 455.464 3.15626 -4.88626 0
M  V30 4915 N 454.44 3.43298 -4.21483 0
M  V30 4916 H 458.242 1.48708 -2.53502 0
M  V30 4917 H 455.756 0.733343 -1.44899 0
M  V30 4918 H 457.753 3.8062 -1.70101 0
M  V30 4919 H 456.413 3.16783 -0.712636 0
M  V30 4920 H 457.424 2.75329 -4.3865 0
M  V30 4921 H 454.101 3.67728 -1.97692 0
M  V30 4922 H 455.491 3.07596 -5.97356 0
M  V30 4923 N 458.211 1.37122 0.776871 0
M  V30 4924 C 459.441 1.35034 1.56363 0
M  V30 4925 C 459.849 -0.0674681 1.8908 0
M  V30 4926 O 459.192 -1.03826 1.51545 0
M  V30 4927 C 459.254 2.11894 2.90415 0
M  V30 4928 C 458.918 3.60897 2.80362 0
M  V30 4929 C 459.915 4.54887 2.51742 0
M  V30 4930 C 457.6 4.03951 2.98545 0
M  V30 4931 C 459.594 5.89909 2.41426 0
M  V30 4932 C 457.281 5.3906 2.87849 0
M  V30 4933 C 458.279 6.31852 2.5933 0
M  V30 4934 O 457.967 7.64479 2.48651 0
M  V30 4935 H 457.699 0.464402 0.49123 0
M  V30 4936 H 460.253 1.80992 0.971127 0
M  V30 4937 H 458.483 1.60618 3.51765 0
M  V30 4938 H 460.172 2.02505 3.51776 0
M  V30 4939 H 460.938 4.22934 2.37385 0
M  V30 4940 H 456.817 3.3209 3.19746 0
M  V30 4941 H 460.361 6.62304 2.19086 0
M  V30 4942 H 456.258 5.70617 3.01773 0
M  V30 4943 H 457.026 7.74742 2.64039 0
M  V30 4944 N 459.689 -1.00246 1.21608 0
M  V30 4945 C 460.935 -1.74417 1.04643 0
M  V30 4946 C 461.29 -1.87862 -0.415387 0
M  V30 4947 O 460.583 -1.40373 -1.30407 0
M  V30 4948 C 460.777 -3.15448 1.68009 0
M  V30 4949 C 460.606 -3.15755 3.20201 0
M  V30 4950 C 459.376 -3.2219 3.89258 0
M  V30 4951 C 461.574 -3.00668 4.17257 0
M  V30 4952 N 459.556 -3.1215 5.28617 0
M  V30 4953 C 460.927 -2.98553 5.43384 0
M  V30 4954 C 462.982 -2.84989 4.08272 0
M  V30 4955 C 461.685 -2.82364 6.61561 0
M  V30 4956 C 463.711 -2.70158 5.26088 0
M  V30 4957 C 463.073 -2.68721 6.51128 0
M  V30 4958 H 459.172 -0.648317 0.437274 0
M  V30 4959 H 461.756 -1.19129 1.54001 0
M  V30 4960 H 459.927 -3.69001 1.21215 0
M  V30 4961 H 461.659 -3.78128 1.44226 0
M  V30 4962 H 458.414 -3.29488 3.40198 0
M  V30 4963 H 458.838 -3.10465 6.01615 0
M  V30 4964 H 463.48 -2.84904 3.12393 0
M  V30 4965 H 461.198 -2.81196 7.57598 0
M  V30 4966 H 464.784 -2.59022 5.20959 0
M  V30 4967 H 463.664 -2.57382 7.40759 0
M  V30 4968 N 461.167 -1.02423 -1.1978 0
M  V30 4969 C 462.413 -0.719051 -1.89625 0
M  V30 4970 C 462.746 0.750083 -1.7913 0
M  V30 4971 O 462.021 1.54574 -1.18056 0
M  V30 4972 C 462.304 -1.16499 -3.40735 0
M  V30 4973 C 462.157 -2.695 -3.60125 0
M  V30 4974 C 463.476 -0.742166 -4.33797 0
M  V30 4975 H 460.595 -0.26269 -0.688595 0
M  V30 4976 H 463.237 -1.27333 -1.41018 0
M  V30 4977 H 461.387 -0.69341 -3.82262 0
M  V30 4978 H 463.059 -3.24569 -3.278 0
M  V30 4979 H 461.302 -3.10113 -3.03336 0
M  V30 4980 H 461.973 -2.95757 -4.66081 0
M  V30 4981 H 464.449 -1.1477 -3.99959 0
M  V30 4982 H 463.325 -1.08213 -5.38127 0
M  V30 4983 H 463.586 0.355747 -4.40666 0
M  V30 4984 N 462.645 1.35699 -0.801477 0
M  V30 4985 C 463.555 2.33661 -0.209691 0
M  V30 4986 C 464.571 1.6162 0.644591 0
M  V30 4987 O 465.747 1.93529 0.557545 0
M  V30 4988 C 462.812 3.40816 0.636033 0
M  V30 4989 C 461.873 4.28639 -0.238147 0
M  V30 4990 C 461.106 5.30676 0.567307 0
M  V30 4991 O 461.329 5.41174 1.8024 0
M  V30 4992 O 460.263 6.01887 -0.0391336 0
M  V30 4993 H 464.089 2.8606 -1.01996 0
M  V30 4994 H 461.674 1.38379 -0.563164 0
M  V30 4995 H 463.556 4.06301 1.11791 0
M  V30 4996 H 462.231 2.90696 1.42399 0
M  V30 4997 H 461.138 3.66152 -0.767044 0
M  V30 4998 H 462.471 4.82143 -0.989915 0
M  V30 4999 N 464.123 0.554532 1.47522 0
M  V30 5000 C 465.371 0.0294208 2.02079 0
M  V30 5001 C 465.692 -1.32411 1.43151 0
M  V30 5002 O 464.962 -1.863 0.605728 0
M  V30 5003 H 463.542 0.00788672 0.746958 0
M  V30 5004 H 466.204 0.723934 1.80956 0
M  V30 5005 H 465.3 -0.0606745 3.12041 0
M  V30 5006 N 465.601 -1.54893 0.290851 0
M  V30 5007 C 466.549 -2.24579 -0.605576 0
M  V30 5008 C 467.543 -1.24824 -1.14522 0
M  V30 5009 O 468.749 -1.42706 -1.09704 0
M  V30 5010 H 465.124 -0.720946 -0.213872 0
M  V30 5011 H 467.095 -2.984 0.0048173 0
M  V30 5012 C 465.844 -2.99224 -1.77088 0
M  V30 5013 H 465.167 -3.75782 -1.36484 0
M  V30 5014 H 466.607 -3.51281 -2.3744 0
M  V30 5015 C 465.066 -2.05602 -2.66888 0
M  V30 5016 O 465.596 -1.61745 -3.67698 0
M  V30 5017 N 463.802 -1.71771 -2.34399 0
M  V30 5018 H 463.349 -2.07633 -1.52468 0
M  V30 5019 H 463.307 -1.09403 -2.94751 0
M  V30 5020 N 467.08 -0.0183926 -1.57589 0
M  V30 5021 C 468.32 0.666846 -1.93216 0
M  V30 5022 C 468.684 1.69905 -0.894215 0
M  V30 5023 O 469.885 2.436 -1.13633 0
M  V30 5024 C 468.156 1.27684 -3.33814 0
M  V30 5025 S 469.715 1.98464 -3.91353 0
M  V30 5026 H 466.533 0.219826 -0.676164 0
M  V30 5027 H 469.135 -0.0794893 -1.95338 0
M  V30 5028 H 467.839 0.513006 -4.07181 0
M  V30 5029 H 467.37 2.06071 -3.3511 0
M  V30 5030 H 469.385 3.26189 -3.73918 0
M  V30 5031 N 468.558 1.5553 0.254621 0
M  V30 5032 C 469.969 1.67518 0.824286 0
M  V30 5033 C 470.32 0.614429 1.86331 0
M  V30 5034 O 469.445 -0.240736 2.15057 0
M  V30 5035 C 470.04 3.03692 1.50189 0
M  V30 5036 C 468.599 3.17646 2.01935 0
M  V30 5037 C 467.746 2.63373 0.867746 0
M  V30 5038 H 470.697 1.58671 0.0305843 0
M  V30 5039 H 470.718 2.97706 2.36962 0
M  V30 5040 H 470.23 3.80874 0.745431 0
M  V30 5041 H 468.331 2.45273 2.80485 0
M  V30 5042 H 468.444 4.24455 2.22204 0
M  V30 5043 H 466.808 2.20999 1.26616 0
M  V30 5044 H 467.591 3.43074 0.124498 0
M  V30 5045 N 470.036 -0.519951 1.48776 0
M  V30 5046 C 471.264 -1.29971 1.60982 0
M  V30 5047 C 471.679 -1.86803 0.273885 0
M  V30 5048 O 471.036 -1.66904 -0.738193 0
M  V30 5049 C 471.087 -2.44346 2.66415 0
M  V30 5050 O 470.808 -1.89855 3.94825 0
M  V30 5051 C 472.309 -3.36014 2.89153 0
M  V30 5052 H 469.529 -0.394891 0.542496 0
M  V30 5053 H 472.073 -0.626214 1.94676 0
M  V30 5054 H 470.228 -3.07562 2.35552 0
M  V30 5055 H 470.642 -2.64798 4.5275 0
M  V30 5056 H 472.116 -4.12593 3.66703 0
M  V30 5057 H 472.593 -3.91859 1.98351 0
M  V30 5058 H 473.199 -2.78582 3.21359 0
M  V30 5059 N 471.514 -1.37532 -0.769588 0
M  V30 5060 C 472.461 -1.3347 -1.88293 0
M  V30 5061 C 473.431 -0.199891 -1.64893 0
M  V30 5062 O 474.616 -0.389594 -1.8678 0
M  V30 5063 C 471.756 -1.14968 -3.25387 0
M  V30 5064 C 470.869 -2.37698 -3.60727 0
M  V30 5065 C 470.004 -2.12051 -4.8704 0
M  V30 5066 C 469.043 -3.30636 -5.15117 0
M  V30 5067 N 468.18 -3.04527 -6.3262 0
M  V30 5068 H 473.02 -2.28658 -1.911 0
M  V30 5069 H 470.557 -1.13622 -0.934257 0
M  V30 5070 H 472.515 -1.02261 -4.04473 0
M  V30 5071 H 471.145 -0.234263 -3.21949 0
M  V30 5072 H 470.197 -2.61137 -2.76608 0
M  V30 5073 H 471.509 -3.26131 -3.77413 0
M  V30 5074 H 470.663 -1.96388 -5.74035 0
M  V30 5075 H 469.402 -1.20959 -4.72462 0
M  V30 5076 H 468.407 -3.46836 -4.26597 0
M  V30 5077 H 469.632 -4.22582 -5.31603 0
M  V30 5078 H 467.578 -2.16067 -6.19396 0
M  V30 5079 H 467.495 -3.86503 -6.49732 0
M  V30 5080 H 468.763 -2.92485 -7.22546 0
M  V30 5081 N 472.992 0.995999 -1.22138 0
M  V30 5082 C 474.232 1.75032 -1.05561 0
M  V30 5083 C 474.596 1.87729 0.402698 0
M  V30 5084 O 475.797 2.59813 0.689234 0
M  V30 5085 C 474.068 3.11973 -1.74379 0
M  V30 5086 S 475.627 4.03182 -1.73175 0
M  V30 5087 H 472.445 0.602137 -0.37809 0
M  V30 5088 H 475.047 1.19107 -1.55028 0
M  V30 5089 H 473.751 3.00371 -2.79652 0
M  V30 5090 H 473.282 3.7297 -1.25128 0
M  V30 5091 H 475.297 4.90043 -0.77923 0
M  V30 5092 N 474.47 1.03057 1.19235 0
M  V30 5093 C 475.747 0.642608 1.84743 0
M  V30 5094 C 476.127 -0.878577 1.91948 0
M  V30 5095 O 475.475 -1.77597 1.43776 0
M  V30 5096 C 475.685 1.30665 3.23616 0
M  V30 5097 C 477.033 1.43098 3.9976 0
M  V30 5098 O 478.057 1.26396 3.3302 0
M  V30 5099 O 476.916 1.70223 5.19313 0
M  V30 5100 H 474.01 0.223573 0.796206 0
M  V30 5101 H 476.556 1.12883 1.26711 0
M  V30 5102 H 475.328 2.34544 3.13217 0
M  V30 5103 H 474.951 0.808405 3.89295 0
M  V30 5104 N 475.948 -1.35272 0.808662 0
M  V30 5105 C 476.895 -2.29764 0.218482 0
M  V30 5106 C 477.865 -1.52911 -0.648652 0
M  V30 5107 O 479.05 -1.81341 -0.593297 0
M  V30 5108 C 476.19 -3.39388 -0.625282 0
M  V30 5109 C 475.303 -4.31202 0.262516 0
M  V30 5110 C 474.438 -5.27919 -0.589451 0
M  V30 5111 C 473.477 -6.11371 0.298617 0
M  V30 5112 N 472.614 -7.0022 -0.513443 0
M  V30 5113 H 477.454 -2.79645 1.02968 0
M  V30 5114 H 474.991 -1.37629 0.519303 0
M  V30 5115 H 476.949 -4.01615 -1.12966 0
M  V30 5116 H 475.579 -2.90777 -1.40173 0
M  V30 5117 H 474.631 -3.69962 0.885013 0
M  V30 5118 H 475.943 -4.89748 0.945971 0
M  V30 5119 H 475.097 -5.95529 -1.15888 0
M  V30 5120 H 473.836 -4.69875 -1.30647 0
M  V30 5121 H 472.841 -5.42707 0.880301 0
M  V30 5122 H 474.066 -6.71494 1.01352 0
M  V30 5123 H 472.012 -6.44662 -1.21439 0
M  V30 5124 H 471.929 -7.55917 0.111922 0
M  V30 5125 H 473.197 -7.72175 -1.06608 0
M  V30 5126 N 477.426 -0.562348 -1.47226 0
M  V30 5127 C 478.666 -0.0426374 -2.04356 0
M  V30 5128 C 479.03 1.28487 -1.42671 0
M  V30 5129 O 480.231 1.89259 -1.90878 0
M  V30 5130 C 478.502 0.0433826 -3.57374 0
M  V30 5131 S 480.061 0.508472 -4.35844 0
M  V30 5132 H 476.879 -0.0276234 -0.710463 0
M  V30 5133 H 479.481 -0.750245 -1.80531 0
M  V30 5134 H 478.185 -0.927072 -3.99792 0
M  V30 5135 H 477.716 0.774387 -3.85703 0
M  V30 5136 H 479.731 1.76719 -4.63665 0
M  V30 5137 N 478.904 1.54736 -0.299062 0
M  V30 5138 C 479.854 2.20155 0.592932 0
M  V30 5139 C 480.838 1.1739 1.10038 0
M  V30 5140 O 482.03 1.43116 1.04147 0
M  V30 5141 C 479.159 2.94437 1.76527 0
M  V30 5142 C 478.245 4.04516 1.27388 0
M  V30 5143 N 478.636 5.03319 0.500339 0
M  V30 5144 C 476.934 4.18022 1.55478 0
M  V30 5145 C 477.635 5.81209 0.238909 0
M  V30 5146 N 476.611 5.37408 0.818163 0
M  V30 5147 H 480.413 2.93899 -0.00563596 0
M  V30 5148 H 477.927 1.62068 -0.103732 0
M  V30 5149 H 479.924 3.3977 2.41582 0
M  V30 5150 H 478.584 2.22209 2.36756 0
M  V30 5151 H 479.595 5.17696 0.145419 0
M  V30 5152 H 476.272 3.56998 2.16469 0
M  V30 5153 H 477.662 6.70812 -0.382223 0
M  V30 5154 N 480.382 0.0267497 1.57577 0
M  V30 5155 C 481.329 -0.955894 2.10075 0
M  V30 5156 C 482.299 -1.32453 1.00226 0
M  V30 5157 O 483.484 -1.41826 1.27632 0
M  V30 5158 C 480.624 -2.2338 2.6305 0
M  V30 5159 C 479.737 -1.92183 3.86898 0
M  V30 5160 C 478.872 -3.14251 4.28275 0
M  V30 5161 C 477.911 -2.78862 5.44888 0
M  V30 5162 N 477.048 -3.93548 5.81433 0
M  V30 5163 H 481.888 -0.501303 2.93753 0
M  V30 5164 H 479.425 -0.235847 1.45197 0
M  V30 5165 H 481.383 -2.98124 2.91853 0
M  V30 5166 H 480.013 -2.6646 1.82205 0
M  V30 5167 H 479.065 -1.07692 3.64838 0
M  V30 5168 H 480.377 -1.62117 4.7172 0
M  V30 5169 H 479.531 -3.97317 4.58502 0
M  V30 5170 H 478.27 -3.47476 3.42215 0
M  V30 5171 H 477.275 -1.94208 5.14357 0
M  V30 5172 H 478.5 -2.46855 6.32645 0
M  V30 5173 H 476.446 -4.2662 4.98328 0
M  V30 5174 H 476.363 -3.67098 6.6089 0
M  V30 5175 H 477.631 -4.77325 6.16264 0
M  V30 5176 N 481.861 -1.55662 -0.24637 0
M  V30 5177 C 483.089 -1.81575 -0.991876 0
M  V30 5178 C 483.504 -0.602545 -1.78927 0
M  V30 5179 O 482.861 0.428795 -1.77391 0
M  V30 5180 C 482.912 -3.05711 -1.92933 0
M  V30 5181 O 482.633 -4.22348 -1.1642 0
M  V30 5182 C 484.134 -3.44428 -2.79078 0
M  V30 5183 H 481.354 -0.604209 -0.291844 0
M  V30 5184 H 483.898 -2.02722 -0.269095 0
M  V30 5185 H 482.053 -2.86612 -2.60638 0
M  V30 5186 H 482.467 -4.92706 -1.79835 0
M  V30 5187 H 483.941 -4.34388 -3.40603 0
M  V30 5188 H 484.418 -2.65037 -3.50217 0
M  V30 5189 H 485.024 -3.65879 -2.16824 0
M  V30 5190 N 483.339 0.512053 -1.4905 0
M  V30 5191 C 484.585 1.26874 -1.58212 0
M  V30 5192 C 484.918 1.9241 -0.263073 0
M  V30 5193 O 484.193 1.80181 0.732476 0
M  V30 5194 C 484.476 2.34428 -2.73341 0
M  V30 5195 C 484.329 1.73466 -4.15006 0
M  V30 5196 C 485.648 3.36073 -2.84154 0
M  V30 5197 H 482.767 0.459924 -0.575881 0
M  V30 5198 H 485.409 0.568587 -1.81293 0
M  V30 5199 H 483.559 2.94146 -2.53792 0
M  V30 5200 H 485.231 1.17661 -4.46042 0
M  V30 5201 H 483.474 1.03921 -4.21168 0
M  V30 5202 H 484.145 2.51426 -4.91415 0
M  V30 5203 H 486.621 2.86332 -3.01916 0
M  V30 5204 H 485.497 4.08703 -3.66406 0
M  V30 5205 H 485.758 3.97725 -1.93048 0
M  V30 5206 N 484.817 1.37938 0.762283 0
M  V30 5207 C 485.764 1.34467 1.87583 0
M  V30 5208 C 486.734 0.208633 1.64785 0
M  V30 5209 O 487.919 0.399494 1.86571 0
M  V30 5210 C 485.059 1.16692 3.24772 0
M  V30 5211 C 484.172 2.39608 3.59461 0
M  V30 5212 C 483.307 2.14631 4.85908 0
M  V30 5213 C 482.346 3.33364 5.13357 0
M  V30 5214 N 481.483 3.07877 6.30996 0
M  V30 5215 H 486.323 2.29669 1.89885 0
M  V30 5216 H 483.86 1.14116 0.928219 0
M  V30 5217 H 485.818 1.04405 4.03925 0
M  V30 5218 H 484.448 0.251333 3.2182 0
M  V30 5219 H 483.5 2.626 2.75219 0
M  V30 5220 H 484.812 3.28128 3.75678 0
M  V30 5221 H 483.966 1.99429 5.72986 0
M  V30 5222 H 482.705 1.23463 4.71814 0
M  V30 5223 H 481.71 3.49094 4.24751 0
M  V30 5224 H 482.935 4.25395 5.29354 0
M  V30 5225 H 480.881 2.19348 6.18241 0
M  V30 5226 H 480.798 3.89944 6.47673 0
M  V30 5227 H 482.066 2.96313 7.20985 0
M  V30 5228 N 486.295 -0.989507 1.22664 0
M  V30 5229 C 487.535 -1.7447 1.06488 0
M  V30 5230 C 487.899 -1.8794 -0.392737 0
M  V30 5231 O 489.1 -2.60175 -0.675446 0
M  V30 5232 C 487.371 -3.11043 1.76031 0
M  V30 5233 S 488.93 -4.02258 1.7531 0
M  V30 5234 H 485.748 -0.600123 0.381278 0
M  V30 5235 H 488.35 -1.18283 1.55658 0
M  V30 5236 H 487.054 -2.98884 2.81241 0
M  V30 5237 H 486.585 -3.72301 1.27105 0
M  V30 5238 H 488.6 -4.89623 0.805208 0
M  V30 5239 N 487.773 -1.03688 -1.18687 0
M  V30 5240 C 489.003 -0.756819 -1.92239 0
M  V30 5241 C 489.411 0.689374 -1.76194 0
M  V30 5242 O 488.754 1.48126 -1.08648 0
M  V30 5243 C 488.816 -1.03851 -3.44173 0
M  V30 5244 C 488.48 -2.47785 -3.83994 0
M  V30 5245 C 489.477 -3.4595 -3.88091 0
M  V30 5246 C 487.162 -2.82397 -4.154 0
M  V30 5247 C 489.156 -4.76779 -4.23038 0
M  V30 5248 C 486.843 -4.13433 -4.50018 0
M  V30 5249 C 487.841 -5.10434 -4.53813 0
M  V30 5250 O 487.529 -6.39122 -4.87625 0
M  V30 5251 H 487.261 -0.275678 -0.617234 0
M  V30 5252 H 489.815 -1.38658 -1.51536 0
M  V30 5253 H 488.045 -0.351612 -3.85098 0
M  V30 5254 H 489.734 -0.746846 -3.9897 0
M  V30 5255 H 490.5 -3.20549 -3.63969 0
M  V30 5256 H 486.379 -2.07568 -4.11627 0
M  V30 5257 H 489.923 -5.52488 -4.25914 0
M  V30 5258 H 485.82 -4.38604 -4.736 0
M  V30 5259 H 486.588 -6.43715 -5.05542 0
M  V30 5260 N 489.251 1.34841 -0.815825 0
M  V30 5261 C 490.183 2.28409 -0.190265 0
M  V30 5262 C 491.196 1.50705 0.615771 0
M  V30 5263 O 492.385 1.72822 0.446616 0
M  V30 5264 C 489.485 3.30441 0.752446 0
M  V30 5265 C 488.658 4.37399 -0.00922152 0
M  V30 5266 C 487.717 5.19234 0.853351 0
M  V30 5267 O 486.743 5.68404 0.300919 0
M  V30 5268 N 487.945 5.38248 2.17416 0
M  V30 5269 H 490.71 2.82732 -0.994114 0
M  V30 5270 H 488.271 1.47289 -0.672129 0
M  V30 5271 H 490.263 3.82084 1.33394 0
M  V30 5272 H 488.833 2.76565 1.45707 0
M  V30 5273 H 488.053 3.86567 -0.771979 0
M  V30 5274 H 489.341 5.05992 -0.533807 0
M  V30 5275 H 488.739 4.99961 2.6468 0
M  V30 5276 H 487.296 5.93035 2.70467 0
M  V30 5277 N 490.729 0.570148 1.46925 0
M  V30 5278 C 491.977 0.0508523 2.02036 0
M  V30 5279 C 492.298 -1.30885 1.44548 0
M  V30 5280 O 491.568 -1.85647 0.625453 0
M  V30 5281 H 490.148 0.0158088 0.746833 0
M  V30 5282 H 492.81 0.743086 1.80178 0
M  V30 5283 H 491.906 -0.027575 3.12088 0
M  V30 5284 N 492.207 -1.54576 0.307264 0
M  V30 5285 C 493.137 -2.26708 -0.55907 0
M  V30 5286 C 494.118 -1.26893 -1.1328 0
M  V30 5287 O 495.303 -1.55677 -1.16097 0
M  V30 5288 C 492.433 -3.01259 -1.72801 0
M  V30 5289 C 491.387 -4.08275 -1.28435 0
M  V30 5290 C 490.713 -4.70575 -2.53895 0
M  V30 5291 C 492.013 -5.2068 -0.411038 0
M  V30 5292 H 493.707 -2.9937 0.042576 0
M  V30 5293 H 491.253 -1.43983 0.0219173 0
M  V30 5294 H 493.206 -3.50444 -2.34023 0
M  V30 5295 H 491.93 -2.26187 -2.356 0
M  V30 5296 H 490.589 -3.59949 -0.695161 0
M  V30 5297 H 490.237 -3.92136 -3.15021 0
M  V30 5298 H 489.937 -5.42854 -2.24908 0
M  V30 5299 H 491.461 -5.22527 -3.15908 0
M  V30 5300 H 492.875 -5.65721 -0.929097 0
M  V30 5301 H 491.272 -5.99716 -0.214664 0
M  V30 5302 H 492.342 -4.81629 0.562287 0
M  V30 5303 N 493.685 -0.035106 -1.57561 0
M  V30 5304 C 494.913 0.652258 -1.9635 0
M  V30 5305 C 495.328 1.65317 -0.911897 0
M  V30 5306 O 494.685 1.82194 0.105657 0
M  V30 5307 C 494.736 1.35337 -3.35211 0
M  V30 5308 O 494.457 0.392548 -4.36338 0
M  V30 5309 C 495.958 2.13199 -3.88666 0
M  V30 5310 H 493.178 0.179444 -0.646561 0
M  V30 5311 H 495.722 -0.0966459 -2.04271 0
M  V30 5312 H 493.877 2.05362 -3.28489 0
M  V30 5313 H 494.291 0.891097 -5.16875 0
M  V30 5314 H 495.765 2.577 -4.88154 0
M  V30 5315 H 496.242 2.97353 -3.23231 0
M  V30 5316 H 496.848 1.48118 -3.98674 0
M  V30 5317 N 495.163 1.55791 0.238111 0
M  V30 5318 C 496.411 1.77681 0.963001 0
M  V30 5319 C 496.732 0.600674 1.85518 0
M  V30 5320 O 496.002 -0.383182 1.92116 0
M  V30 5321 H 494.582 0.655315 0.358568 0
M  V30 5322 H 497.244 1.93239 0.253945 0
M  V30 5323 H 496.34 2.69177 1.57956 0
M  V30 5324 N 496.642 -0.504142 1.49319 0
M  V30 5325 C 497.572 -1.61473 1.68667 0
M  V30 5326 C 498.553 -1.61455 0.535378 0
M  V30 5327 O 499.738 -1.78245 0.770868 0
M  V30 5328 C 496.868 -2.99971 1.75028 0
M  V30 5329 C 495.822 -3.14854 2.89916 0
M  V30 5330 C 495.148 -4.54671 2.81387 0
M  V30 5331 C 496.448 -2.95176 4.30893 0
M  V30 5332 H 498.142 -1.45535 2.61648 0
M  V30 5333 H 495.688 -0.698711 1.25913 0
M  V30 5334 H 497.641 -3.77562 1.8715 0
M  V30 5335 H 496.365 -3.1699 0.786441 0
M  V30 5336 H 495.024 -2.39687 2.77391 0
M  V30 5337 H 494.672 -4.68562 1.82917 0
M  V30 5338 H 494.372 -4.6557 3.58494 0
M  V30 5339 H 495.896 -5.34327 2.95512 0
M  V30 5340 H 497.31 -3.62538 4.44116 0
M  V30 5341 H 495.707 -3.17549 5.09198 0
M  V30 5342 H 496.777 -1.91332 4.45556 0
M  V30 5343 N 498.12 -1.38341 -0.754957 0
M  V30 5344 C 499.07 -1.31964 -1.85929 0
M  V30 5345 C 500.054 -0.204181 -1.59599 0
M  V30 5346 O 501.246 -0.440036 -1.71443 0
M  V30 5347 C 498.375 -1.14565 -3.2362 0
M  V30 5348 C 497.461 -2.30727 -3.55846 0
M  V30 5349 N 497.852 -3.56165 -3.59138 0
M  V30 5350 C 496.15 -2.23249 -3.86104 0
M  V30 5351 C 496.851 -4.32865 -3.88591 0
M  V30 5352 N 495.827 -3.62203 -4.05351 0
M  V30 5353 H 499.629 -2.2694 -1.8675 0
M  V30 5354 H 497.143 -1.31553 -0.952243 0
M  V30 5355 H 499.14 -1.0808 -4.02647 0
M  V30 5356 H 497.8 -0.205212 -3.24051 0
M  V30 5357 H 498.811 -3.89854 -3.40932 0
M  V30 5358 H 495.488 -1.37357 -3.94258 0
M  V30 5359 H 496.878 -5.41504 -3.97773 0
M  V30 5360 N 499.598 0.982988 -1.23187 0
M  V30 5361 C 500.838 1.73903 -1.07412 0
M  V30 5362 C 501.202 1.88146 0.382764 0
M  V30 5363 O 502.403 2.6053 0.661638 0
M  V30 5364 C 500.674 3.10105 -1.77678 0
M  V30 5365 S 502.233 4.01323 -1.77441 0
M  V30 5366 H 499.051 0.598093 -0.384456 0
M  V30 5367 H 501.653 1.17456 -1.56283 0
M  V30 5368 H 500.357 2.97388 -2.82822 0
M  V30 5369 H 499.888 3.71622 -1.29077 0
M  V30 5370 H 501.903 4.89189 -0.831162 0
M  V30 5371 N 501.076 1.04316 1.18135 0
M  V30 5372 C 502.322 0.749128 1.88457 0
M  V30 5373 C 502.655 -0.72149 1.803 0
M  V30 5374 O 501.93 -1.52676 1.205 0
M  V30 5375 C 502.213 1.21905 3.38838 0
M  V30 5376 C 502.066 2.75195 3.55792 0
M  V30 5377 C 503.385 0.811085 4.32561 0
M  V30 5378 H 500.504 0.273611 0.684329 0
M  V30 5379 H 503.146 1.29561 1.38975 0
M  V30 5380 H 501.296 0.754137 3.8111 0
M  V30 5381 H 502.968 3.29743 3.22595 0
M  V30 5382 H 501.211 3.14899 2.98364 0
M  V30 5383 H 501.882 3.03135 4.61317 0
M  V30 5384 H 504.358 1.21118 3.98082 0
M  V30 5385 H 503.234 1.16761 5.36338 0
M  V30 5386 H 503.495 -0.285596 4.41177 0
M  V30 5387 N 502.554 -1.34406 0.822964 0
M  V30 5388 C 503.8 -1.98999 0.420847 0
M  V30 5389 C 504.155 -1.64067 -1.00498 0
M  V30 5390 O 503.448 -0.902071 -1.69036 0
M  V30 5391 C 503.642 -3.52981 0.560268 0
M  V30 5392 C 503.471 -4.02873 1.99809 0
M  V30 5393 C 502.241 -4.31463 2.62998 0
M  V30 5394 C 504.439 -4.20241 2.96483 0
M  V30 5395 N 502.421 -4.6739 3.9802 0
M  V30 5396 C 503.792 -4.59348 4.16413 0
M  V30 5397 C 505.847 -4.02489 2.93098 0
M  V30 5398 C 504.55 -4.82559 5.33413 0
M  V30 5399 C 506.576 -4.26866 4.09315 0
M  V30 5400 C 505.938 -4.6626 5.27997 0
M  V30 5401 H 502.037 -0.755432 0.202104 0
M  V30 5402 H 504.621 -1.62815 1.06767 0
M  V30 5403 H 502.792 -3.88359 -0.0566596 0
M  V30 5404 H 504.524 -4.04487 0.131146 0
M  V30 5405 H 501.279 -4.22373 2.14238 0
M  V30 5406 H 501.703 -4.89588 4.67582 0
M  V30 5407 H 506.345 -3.71161 2.02483 0
M  V30 5408 H 504.063 -5.12754 6.24587 0
M  V30 5409 H 507.649 -4.14667 4.08096 0
M  V30 5410 H 506.529 -4.84752 6.16429 0
M  V30 5411 N 504.032 -0.577932 -1.46621 0
M  V30 5412 C 505.272 -0.0643097 -2.04299 0
M  V30 5413 C 505.636 1.26967 -1.44026 0
M  V30 5414 O 506.837 1.87224 -1.92875 0
M  V30 5415 C 505.108 0.00547588 -3.574 0
M  V30 5416 S 506.667 0.462216 -4.36359 0
M  V30 5417 H 503.485 -0.0351573 -0.71013 0
M  V30 5418 H 506.087 -0.76935 -1.79725 0
M  V30 5419 H 504.791 -0.969423 -3.98786 0
M  V30 5420 H 504.322 0.733435 -3.86503 0
M  V30 5421 H 506.337 1.71791 -4.65513 0
M  V30 5422 N 505.51 1.54411 -0.315457 0
M  V30 5423 C 506.442 2.21527 0.588067 0
M  V30 5424 C 507.455 1.21263 1.08624 0
M  V30 5425 O 508.644 1.47777 1.00121 0
M  V30 5426 C 505.744 2.85963 1.81875 0
M  V30 5427 C 504.917 4.12291 1.46063 0
M  V30 5428 C 503.976 4.60396 2.54799 0
M  V30 5429 O 503.002 5.25265 2.19283 0
M  V30 5430 N 504.204 4.33935 3.85591 0
M  V30 5431 H 506.969 2.99697 0.013414 0
M  V30 5432 H 504.53 1.61308 -0.138295 0
M  V30 5433 H 506.522 3.15071 2.53993 0
M  V30 5434 H 505.092 2.11548 2.30144 0
M  V30 5435 H 504.312 3.90036 0.571445 0
M  V30 5436 H 505.6 4.9452 1.19695 0
M  V30 5437 H 504.998 3.81996 4.17248 0
M  V30 5438 H 503.555 4.67718 4.53964 0
M  V30 5439 N 506.988 0.0434614 1.5754 0
M  V30 5440 C 508.237 -0.631454 1.91561 0
M  V30 5441 C 508.55 -1.72457 0.92292 0
M  V30 5442 O 509.756 -2.45712 1.15489 0
M  V30 5443 C 508.212 -1.17447 3.40197 0
M  V30 5444 C 507.82 -0.113867 4.47855 0
M  V30 5445 C 509.564 -1.82507 3.83264 0
M  V30 5446 C 507.471 -0.669326 5.876 0
M  V30 5447 H 506.401 -0.239629 0.714908 0
M  V30 5448 H 509.052 0.111097 1.83163 0
M  V30 5449 H 507.434 -1.96909 3.43574 0
M  V30 5450 H 508.608 0.659348 4.56058 0
M  V30 5451 H 506.923 0.438821 4.14081 0
M  V30 5452 H 509.52 -2.25047 4.85034 0
M  V30 5453 H 509.863 -2.67365 3.19095 0
M  V30 5454 H 510.396 -1.09712 3.82372 0
M  V30 5455 H 507.135 0.141449 6.55347 0
M  V30 5456 H 506.655 -1.4107 5.82974 0
M  V30 5457 H 508.334 -1.15463 6.36614 0
M  V30 5458 N 508.466 -1.55915 -0.229846 0
M  V30 5459 C 509.694 -1.82617 -0.972562 0
M  V30 5460 C 510.109 -0.621488 -1.78278 0
M  V30 5461 O 509.466 0.409956 -1.77836 0
M  V30 5462 C 509.517 -3.0774 -1.89679 0
M  V30 5463 O 509.238 -4.23559 -1.11934 0
M  V30 5464 C 510.739 -3.47368 -2.75409 0
M  V30 5465 H 507.959 -0.60727 -0.285419 0
M  V30 5466 H 510.503 -2.02996 -0.247579 0
M  V30 5467 H 508.658 -2.89361 -2.57583 0
M  V30 5468 H 509.072 -4.94586 -1.74599 0
M  V30 5469 H 510.546 -4.37977 -3.35977 0
M  V30 5470 H 511.023 -2.68737 -3.47386 0
M  V30 5471 H 511.629 -3.68158 -2.12931 0
M  V30 5472 N 509.944 0.496216 -1.49584 0
M  V30 5473 C 510.874 1.60576 -1.69521 0
M  V30 5474 C 511.855 1.61169 -0.543933 0
M  V30 5475 O 513.04 1.77834 -0.78031 0
M  V30 5476 C 510.17 2.99038 -1.76616 0
M  V30 5477 C 509.124 3.13312 -2.91581 0
M  V30 5478 C 508.45 4.53172 -2.83794 0
M  V30 5479 C 509.75 2.92886 -4.32452 0
M  V30 5480 H 511.444 1.44146 -2.62416 0
M  V30 5481 H 508.99 0.692024 -1.26282 0
M  V30 5482 H 510.943 3.76564 -1.8915 0
M  V30 5483 H 509.667 3.16568 -0.80324 0
M  V30 5484 H 508.326 2.38213 -2.78658 0
M  V30 5485 H 507.974 4.67585 -1.854 0
M  V30 5486 H 507.674 4.63662 -3.60958 0
M  V30 5487 H 509.198 5.32752 -2.98342 0
M  V30 5488 H 510.612 3.60178 -4.46032 0
M  V30 5489 H 509.009 3.14844 -5.10875 0
M  V30 5490 H 510.079 1.88966 -4.46565 0
M  V30 5491 N 511.423 1.38739 0.74761 0
M  V30 5492 C 512.373 1.32948 1.85226 0
M  V30 5493 C 513.357 0.212642 1.59489 0
M  V30 5494 O 514.549 0.449121 1.71207 0
M  V30 5495 C 511.678 1.16279 3.23008 0
M  V30 5496 C 510.764 2.32611 3.54617 0
M  V30 5497 N 511.155 3.58065 3.57244 0
M  V30 5498 C 509.453 2.25293 3.84914 0
M  V30 5499 C 510.154 4.34919 3.8629 0
M  V30 5500 N 509.13 3.64348 4.03425 0
M  V30 5501 H 512.932 2.27927 1.85544 0
M  V30 5502 H 510.446 1.32056 0.945253 0
M  V30 5503 H 512.443 1.10214 4.02068 0
M  V30 5504 H 511.103 0.222394 3.23937 0
M  V30 5505 H 512.114 3.91656 3.3886 0
M  V30 5506 H 508.791 1.39446 3.93524 0
M  V30 5507 H 510.181 5.43605 3.94896 0
M  V30 5508 N 512.901 -0.976442 1.23707 0
M  V30 5509 C 513.849 -2.09078 1.01927 0
M  V30 5510 C 514.843 -1.69345 -0.0430193 0
M  V30 5511 O 516.049 -1.79659 0.110814 0
M  V30 5512 H 512.424 -0.68398 0.312531 0
M  V30 5513 H 514.395 -2.24614 1.96447 0
M  V30 5514 C 513.144 -3.41919 0.631385 0
M  V30 5515 H 512.467 -3.72946 1.44053 0
M  V30 5516 H 513.907 -4.20817 0.518532 0
M  V30 5517 C 512.366 -3.30357 -0.660723 0
M  V30 5518 O 512.896 -3.63542 -1.70881 0
M  V30 5519 N 511.102 -2.83507 -0.638139 0
M  V30 5520 H 510.649 -2.567 0.215108 0
M  V30 5521 H 510.607 -2.76153 -1.50289 0
M  V30 5522 N 514.379 -1.04941 -1.1758 0
M  V30 5523 C 515.326 -0.648155 -2.21512 0
M  V30 5524 C 516.296 0.348431 -1.62404 0
M  V30 5525 O 517.481 0.240419 -1.89279 0
M  V30 5526 C 514.621 -0.0264291 -3.4509 0
M  V30 5527 C 513.734 -1.07154 -4.185 0
M  V30 5528 C 512.869 -0.417403 -5.29558 0
M  V30 5529 C 511.908 -1.447 -5.94751 0
M  V30 5530 N 511.045 -0.817203 -6.97328 0
M  V30 5531 H 515.885 -1.53891 -2.55189 0
M  V30 5532 H 513.422 -0.769699 -1.25356 0
M  V30 5533 H 515.38 0.351456 -4.15717 0
M  V30 5534 H 514.01 0.827802 -3.12005 0
M  V30 5535 H 513.062 -1.56728 -3.46613 0
M  V30 5536 H 514.374 -1.8532 -4.63096 0
M  V30 5537 H 513.528 0.0142061 -6.06698 0
M  V30 5538 H 512.267 0.396265 -4.86087 0
M  V30 5539 H 511.272 -1.88865 -5.16343 0
M  V30 5540 H 512.497 -2.26252 -6.40302 0
M  V30 5541 H 510.443 -0.0239995 -6.55996 0
M  V30 5542 H 510.36 -1.53644 -7.40223 0
M  V30 5543 H 511.628 -0.410283 -7.7842 0
M  V30 5544 N 515.857 1.33968 -0.830081 0
M  V30 5545 C 517.097 1.99879 -0.427521 0
M  V30 5546 C 517.461 1.64355 0.992546 0
M  V30 5547 O 518.662 2.23164 1.49837 0
M  V30 5548 C 516.933 3.51771 -0.631815 0
M  V30 5549 S 518.492 4.37608 -0.323168 0
M  V30 5550 H 515.31 0.692485 -0.161202 0
M  V30 5551 H 517.912 1.63129 -1.07745 0
M  V30 5552 H 516.616 3.75113 -1.66488 0
M  V30 5553 H 516.147 3.93386 0.0325936 0
M  V30 5554 H 518.162 4.88683 0.860432 0
M  V30 5555 N 517.335 0.585699 1.46312 0
M  V30 5556 C 518.298 -0.135673 2.28798 0
M  V30 5557 C 519.298 -0.815988 1.38558 0
M  V30 5558 O 520.488 -0.667487 1.60904 0
M  V30 5559 C 517.62 -1.20163 3.1902 0
M  V30 5560 H 518.813 0.589257 2.94054 0
M  V30 5561 H 516.366 0.343794 1.52472 0
M  V30 5562 H 517.101 -1.95804 2.58517 0
M  V30 5563 H 516.886 -0.718282 3.85465 0
M  V30 5564 H 518.376 -1.70749 3.81096 0
M  V30 5565 N 518.813 -1.54241 0.323641 0
M  V30 5566 C 520.038 -2.05452 -0.283605 0
M  V30 5567 C 520.463 -1.19823 -1.44997 0
M  V30 5568 O 519.821 -0.207358 -1.8011 0
M  V30 5569 C 519.869 -3.53823 -0.695795 0
M  V30 5570 O 518.973 -3.71134 -1.79815 0
M  V30 5571 H 518.314 -0.662024 -0.0511917 0
M  V30 5572 H 520.844 -1.99079 0.472073 0
M  V30 5573 H 520.854 -3.96094 -0.978434 0
M  V30 5574 H 519.529 -4.15602 0.157287 0
M  V30 5575 H 518.106 -3.40768 -1.51431 0
M  V30 5576 N 520.291 -0.0518155 -1.57515 0
M  V30 5577 C 521.241 0.932017 -2.0808 0
M  V30 5578 C 522.225 1.27141 -0.986098 0
M  V30 5579 O 523.417 1.25373 -1.24943 0
M  V30 5580 C 520.546 2.20665 -2.62986 0
M  V30 5581 C 519.632 1.89462 -3.79427 0
M  V30 5582 N 520.023 1.28621 -4.89173 0
M  V30 5583 C 518.321 2.19327 -3.88345 0
M  V30 5584 C 519.022 1.15062 -5.70207 0
M  V30 5585 N 517.998 1.65372 -5.17835 0
M  V30 5586 H 521.8 0.456964 -2.90326 0
M  V30 5587 H 519.314 0.152619 -1.61681 0
M  V30 5588 H 521.311 2.92044 -2.97516 0
M  V30 5589 H 519.971 2.68776 -1.8218 0
M  V30 5590 H 520.982 0.958341 -5.08956 0
M  V30 5591 H 517.659 2.69955 -3.18482 0
M  V30 5592 H 519.049 0.678243 -6.68468 0
M  V30 5593 N 521.769 1.56035 0.221574 0
M  V30 5594 C 522.699 1.95434 1.2778 0
M  V30 5595 C 523.68 0.822564 1.48889 0
M  V30 5596 O 524.865 1.08486 1.61072 0
M  V30 5597 C 521.995 2.27102 2.62759 0
M  V30 5598 C 520.949 3.4277 2.56306 0
M  V30 5599 C 520.275 3.60043 3.95314 0
M  V30 5600 C 521.575 4.77742 2.11093 0
M  V30 5601 H 523.269 2.83912 0.950504 0
M  V30 5602 H 520.815 1.36596 0.455791 0
M  V30 5603 H 522.768 2.53256 3.36807 0
M  V30 5604 H 521.492 1.35478 2.97176 0
M  V30 5605 H 520.151 3.16664 1.84715 0
M  V30 5606 H 519.799 2.65794 4.27039 0
M  V30 5607 H 519.499 4.37841 3.91879 0
M  V30 5608 H 521.023 3.88545 4.71025 0
M  V30 5609 H 522.437 5.03102 2.74885 0
M  V30 5610 H 520.834 5.58823 2.18716 0
M  V30 5611 H 521.904 4.731 1.06321 0
M  V30 5612 N 523.247 -0.488276 1.49845 0
M  V30 5613 C 524.194 -1.58836 1.67451 0
M  V30 5614 C 525.164 -1.57886 0.515857 0
M  V30 5615 O 526.349 -1.75679 0.744403 0
M  V30 5616 C 523.489 -2.96915 1.75885 0
M  V30 5617 C 522.602 -3.07784 3.03138 0
M  V30 5618 C 521.737 -4.36673 3.02473 0
M  V30 5619 C 520.776 -4.41222 4.24252 0
M  V30 5620 N 519.913 -5.61557 4.21424 0
M  V30 5621 H 524.753 -1.43131 2.61376 0
M  V30 5622 H 522.29 -0.696186 1.29583 0
M  V30 5623 H 524.248 -3.76965 1.78755 0
M  V30 5624 H 522.878 -3.11295 0.85414 0
M  V30 5625 H 521.93 -2.20717 3.09819 0
M  V30 5626 H 523.242 -3.07005 3.93128 0
M  V30 5627 H 522.396 -5.25055 3.03977 0
M  V30 5628 H 521.135 -4.40037 2.10283 0
M  V30 5629 H 520.14 -3.5124 4.22978 0
M  V30 5630 H 521.365 -4.39564 5.17649 0
M  V30 5631 H 519.311 -5.65738 3.32078 0
M  V30 5632 H 519.228 -5.62447 5.05163 0
M  V30 5633 H 520.496 -6.52111 4.2705 0
M  V30 5634 N 524.725 -1.39134 -0.740242 0
M  V30 5635 C 526.136 -1.32208 -1.31825 0
M  V30 5636 C 526.487 0.0159919 -1.96193 0
M  V30 5637 O 525.612 0.918111 -1.95958 0
M  V30 5638 C 526.207 -2.39436 -2.39699 0
M  V30 5639 C 524.766 -2.36048 -2.93187 0
M  V30 5640 C 523.913 -2.21599 -1.66701 0
M  V30 5641 H 526.864 -1.49298 -0.538133 0
M  V30 5642 H 526.885 -2.05922 -3.19963 0
M  V30 5643 H 526.397 -3.36811 -1.92821 0
M  V30 5644 H 524.498 -1.42295 -3.44359 0
M  V30 5645 H 524.611 -3.30704 -3.46658 0
M  V30 5646 H 522.975 -1.68681 -1.90837 0
M  V30 5647 H 523.758 -3.20936 -1.21882 0
M  V30 5648 N 526.204 0.969867 -1.24223 0
M  V30 5649 C 527.114 2.09806 -1.0497 0
M  V30 5650 C 528.13 1.73998 0.00886455 0
M  V30 5651 O 529.306 2.00513 -0.188848 0
M  V30 5652 C 526.371 3.40467 -0.654452 0
M  V30 5653 C 525.432 3.90236 -1.78926 0
M  V30 5654 C 524.665 5.14662 -1.41277 0
M  V30 5655 O 524.888 5.69602 -0.301632 0
M  V30 5656 O 523.822 5.58761 -2.23763 0
M  V30 5657 H 527.648 2.28942 -1.99548 0
M  V30 5658 H 525.233 1.08197 -1.03023 0
M  V30 5659 H 527.115 4.19039 -0.445452 0
M  V30 5660 H 525.79 3.22636 0.262216 0
M  V30 5661 H 524.697 3.12735 -2.05299 0
M  V30 5662 H 526.03 4.1254 -2.68462 0
M  V30 5663 N 527.682 1.05563 1.17022 0
M  V30 5664 C 528.922 0.777033 1.89054 0
M  V30 5665 C 529.286 -0.683617 1.79418 0
M  V30 5666 O 530.487 -1.07648 2.46303 0
M  V30 5667 C 528.758 1.24886 3.34871 0
M  V30 5668 S 530.317 1.0982 4.24835 0
M  V30 5669 H 527.135 0.282082 0.652649 0
M  V30 5670 H 529.737 1.35103 1.41306 0
M  V30 5671 H 528.441 2.30699 3.3942 0
M  V30 5672 H 527.972 0.669292 3.87665 0
M  V30 5673 H 529.987 0.02462 4.96194 0
M  V30 5674 N 529.16 -1.33526 0.837174 0
M  V30 5675 C 530.437 -1.92369 0.354065 0
M  V30 5676 C 530.817 -1.76348 -1.16038 0
M  V30 5677 O 530.165 -1.15083 -1.97403 0
M  V30 5678 C 530.375 -3.39728 0.799101 0
M  V30 5679 C 531.723 -4.16877 0.806139 0
M  V30 5680 O 532.747 -3.48373 0.742597 0
M  V30 5681 O 531.606 -5.39166 0.892345 0
M  V30 5682 H 528.7 -0.820952 0.0998378 0
M  V30 5683 H 531.246 -1.42409 0.922913 0
M  V30 5684 H 530.018 -3.45254 1.84162 0
M  V30 5685 H 529.641 -3.97062 0.206731 0
M  V30 5686 N 530.638 -0.59345 -1.46 0
M  V30 5687 C 531.878 -0.0859747 -2.04219 0
M  V30 5688 C 532.242 1.25432 -1.45364 0
M  V30 5689 O 533.443 1.85168 -1.9485 0
M  V30 5690 C 531.714 -0.0324314 -3.57385 0
M  V30 5691 S 533.273 0.415908 -4.36824 0
M  V30 5692 H 530.091 -0.0426872 -0.709717 0
M  V30 5693 H 532.693 -0.788369 -1.78899 0
M  V30 5694 H 531.397 -1.01166 -3.97735 0
M  V30 5695 H 530.928 0.6924 -3.87259 0
M  V30 5696 H 532.943 1.66844 -4.67309 0
M  V30 5697 N 532.116 1.54067 -0.331816 0
M  V30 5698 C 533.364 2.00319 0.267739 0
M  V30 5699 C 533.685 1.22148 1.52003 0
M  V30 5700 O 532.955 0.325494 1.93177 0
M  V30 5701 H 531.535 0.740014 0.101922 0
M  V30 5702 H 534.197 1.89628 -0.450267 0
M  V30 5703 H 533.293 3.07765 0.518385 0
M  V30 5704 N 533.594 0.0601682 1.57485 0
M  V30 5705 C 535.005 -0.474217 1.80577 0
M  V30 5706 C 535.356 -1.70365 0.973147 0
M  V30 5707 O 534.481 -2.15544 0.192306 0
M  V30 5708 C 535.076 -0.867102 3.27516 0
M  V30 5709 C 533.635 -1.34642 3.51495 0
M  V30 5710 C 532.782 -0.32594 2.75378 0
M  V30 5711 H 535.733 0.285973 1.56102 0
M  V30 5712 H 535.754 -1.72938 3.38929 0
M  V30 5713 H 535.266 0.0278927 3.8809 0
M  V30 5714 H 533.367 -2.2603 2.96212 0
M  V30 5715 H 533.48 -1.33237 4.60201 0
M  V30 5716 H 531.844 -0.800749 2.41785 0
M  V30 5717 H 532.627 0.561125 3.38683 0
M  V30 5718 N 535.072 -1.5615 -0.213296 0
M  V30 5719 C 536.002 -1.96109 -1.26742 0
M  V30 5720 C 536.983 -0.830448 -1.48451 0
M  V30 5721 O 538.168 -1.09339 -1.60495 0
M  V30 5722 C 535.298 -2.28492 -2.61551 0
M  V30 5723 C 534.252 -3.44124 -2.54485 0
M  V30 5724 C 533.578 -3.62134 -3.93399 0
M  V30 5725 C 534.878 -4.78855 -2.08556 0
M  V30 5726 H 536.572 -2.84412 -0.935434 0
M  V30 5727 H 534.118 -1.36836 -0.44854 0
M  V30 5728 H 536.071 -2.55039 -3.3546 0
M  V30 5729 H 534.795 -1.37052 -2.96453 0
M  V30 5730 H 533.454 -3.17639 -1.83033 0
M  V30 5731 H 533.102 -2.68055 -4.25623 0
M  V30 5732 H 532.802 -4.39913 -3.89551 0
M  V30 5733 H 534.326 -3.91038 -4.68958 0
M  V30 5734 H 535.74 -5.04552 -2.72213 0
M  V30 5735 H 534.137 -5.59975 -2.1575 0
M  V30 5736 H 535.207 -4.73657 -1.03811 0
M  V30 5737 N 536.55 0.480323 -1.50102 0
M  V30 5738 C 537.497 1.57946 -1.6829 0
M  V30 5739 C 538.467 1.57611 -0.524223 0
M  V30 5740 O 539.652 1.75282 -0.753709 0
M  V30 5741 C 536.792 2.95978 -1.77457 0
M  V30 5742 C 535.905 3.06173 -3.04766 0
M  V30 5743 C 535.04 4.35063 -3.04784 0
M  V30 5744 C 534.079 4.38966 -4.26586 0
M  V30 5745 N 533.216 5.59314 -4.24396 0
M  V30 5746 H 538.056 1.41743 -2.62131 0
M  V30 5747 H 535.593 0.689304 -1.2995 0
M  V30 5748 H 537.551 3.76011 -1.80752 0
M  V30 5749 H 536.181 3.10837 -0.870637 0
M  V30 5750 H 535.233 2.19071 -3.10986 0
M  V30 5751 H 536.545 3.04916 -3.9475 0
M  V30 5752 H 535.699 5.23436 -3.06757 0
M  V30 5753 H 534.438 4.38915 -2.12614 0
M  V30 5754 H 533.443 3.48992 -4.24835 0
M  V30 5755 H 534.668 4.36813 -5.19972 0
M  V30 5756 H 532.614 5.63969 -3.35074 0
M  V30 5757 H 532.531 5.5976 -5.08138 0
M  V30 5758 H 533.799 6.49837 -4.30502 0
M  V30 5759 N 538.028 1.39524 0.732853 0
M  V30 5760 C 539.305 1.27373 1.48444 0
M  V30 5761 C 539.685 -0.115725 2.10783 0
M  V30 5762 O 539.033 -1.12713 1.98766 0
M  V30 5763 C 539.243 2.39966 2.53412 0
M  V30 5764 C 540.591 2.79384 3.19733 0
M  V30 5765 O 541.615 2.39431 2.63725 0
M  V30 5766 O 540.474 3.48353 4.21085 0
M  V30 5767 H 537.568 0.499272 0.659285 0
M  V30 5768 H 540.114 1.51403 0.766496 0
M  V30 5769 H 538.886 3.32845 2.05742 0
M  V30 5770 H 538.509 2.17612 3.32762 0
M  V30 5771 N 539.506 -0.963266 1.24736 0
M  V30 5772 C 540.456 -2.0438 1.01058 0
M  V30 5773 C 541.44 -1.60824 -0.0495354 0
M  V30 5774 O 542.632 -1.76232 0.164741 0
M  V30 5775 C 539.761 -3.37617 0.622067 0
M  V30 5776 C 538.847 -3.87722 1.7185 0
M  V30 5777 N 539.238 -4.10715 2.95207 0
M  V30 5778 C 537.536 -4.16426 1.59703 0
M  V30 5779 C 538.237 -4.51872 3.66315 0
M  V30 5780 N 537.213 -4.57302 2.93897 0
M  V30 5781 H 541.015 -2.20138 1.94721 0
M  V30 5782 H 538.529 -1.14741 1.14927 0
M  V30 5783 H 540.526 -4.14638 0.43366 0
M  V30 5784 H 539.186 -3.23242 -0.307327 0
M  V30 5785 H 540.197 -3.98037 3.31341 0
M  V30 5786 H 536.874 -4.10962 0.73598 0
M  V30 5787 H 538.264 -4.78037 4.72155 0
M  V30 5788 N 540.985 -1.06182 -1.16461 0
M  V30 5789 C 542.234 -0.772927 -1.86303 0
M  V30 5790 C 542.547 0.703187 -1.82523 0
M  V30 5791 O 543.753 1.10641 -2.47933 0
M  V30 5792 C 542.209 -1.33249 -3.34324 0
M  V30 5793 C 541.817 -2.83876 -3.46581 0
M  V30 5794 C 543.561 -1.12108 -4.09429 0
M  V30 5795 C 541.468 -3.33082 -4.88682 0
M  V30 5796 H 540.398 -0.285452 -0.697878 0
M  V30 5797 H 543.049 -1.28039 -1.31447 0
M  V30 5798 H 541.431 -0.7528 -3.88779 0
M  V30 5799 H 542.605 -3.47786 -3.02293 0
M  V30 5800 H 540.92 -3.03671 -2.84909 0
M  V30 5801 H 543.517 -1.46361 -5.14279 0
M  V30 5802 H 543.86 -0.0593832 -4.16258 0
M  V30 5803 H 544.393 -1.6665 -3.6121 0
M  V30 5804 H 541.132 -4.38726 -4.87032 0
M  V30 5805 H 540.652 -2.73919 -5.33599 0
M  V30 5806 H 542.331 -3.28344 -5.57494 0
M  V30 5807 N 542.463 1.3308 -0.844243 0
M  V30 5808 C 543.393 2.3161 -0.296493 0
M  V30 5809 C 544.374 1.59215 0.598707 0
M  V30 5810 O 545.559 1.87077 0.521134 0
M  V30 5811 C 542.689 3.43313 0.524762 0
M  V30 5812 C 541.643 4.27115 -0.275106 0
M  V30 5813 C 540.969 5.30483 0.670236 0
M  V30 5814 C 542.269 5.00443 -1.49514 0
M  V30 5815 H 543.963 2.77672 -1.11976 0
M  V30 5816 H 541.509 1.33496 -0.539899 0
M  V30 5817 H 543.462 4.11273 0.918298 0
M  V30 5818 H 542.186 2.95952 1.3813 0
M  V30 5819 H 540.845 3.60787 -0.650267 0
M  V30 5820 H 540.493 4.79379 1.52332 0
M  V30 5821 H 540.193 5.87435 0.139123 0
M  V30 5822 H 541.717 6.01308 1.06117 0
M  V30 5823 H 543.131 5.61141 -1.17447 0
M  V30 5824 H 541.528 5.67071 -1.96343 0
M  V30 5825 H 542.598 4.28906 -2.26202 0
M  V30 5826 N 543.941 0.601185 1.45683 0
M  V30 5827 C 545.352 0.179659 1.85834 0
M  V30 5828 C 545.703 -1.26189 1.50236 0
M  V30 5829 O 544.828 -1.95587 0.925987 0
M  V30 5830 C 545.423 0.319277 3.37292 0
M  V30 5831 C 543.982 -0.0475092 3.7637 0
M  V30 5832 C 543.129 0.646692 2.69654 0
M  V30 5833 H 546.08 0.808268 1.36575 0
M  V30 5834 H 546.101 -0.4503 3.77826 0
M  V30 5835 H 545.613 1.36855 3.6317 0
M  V30 5836 H 543.714 -1.0962 3.5611 0
M  V30 5837 H 543.827 0.34168 4.7788 0
M  V30 5838 H 542.191 0.0849971 2.54558 0
M  V30 5839 H 542.974 1.69797 2.98369 0
M  V30 5840 N 545.419 -1.53889 0.339982 0
M  V30 5841 C 546.83 -1.86139 -0.144671 0
M  V30 5842 C 547.181 -1.2613 -1.50285 0
M  V30 5843 O 546.306 -0.573515 -2.08662 0
M  V30 5844 C 546.901 -3.37728 -0.269285 0
M  V30 5845 C 545.46 -3.69868 -0.698168 0
M  V30 5846 C 544.607 -2.76777 0.170249 0
M  V30 5847 H 547.558 -1.48503 0.559704 0
M  V30 5848 H 547.579 -3.64331 -1.0974 0
M  V30 5849 H 547.091 -3.81375 0.719366 0
M  V30 5850 H 545.192 -3.31764 -1.69597 0
M  V30 5851 H 545.305 -4.76582 -0.490533 0
M  V30 5852 H 543.669 -2.52188 -0.356844 0
M  V30 5853 H 544.452 -3.23253 1.15597 0
M  V30 5854 N 546.897 -0.0685191 -1.57451 0
M  V30 5855 C 548.125 0.610462 -1.97689 0
M  V30 5856 C 548.54 1.63346 -0.946758 0
M  V30 5857 O 547.897 1.82377 0.0669868 0
M  V30 5858 C 547.948 1.28196 -3.38006 0
M  V30 5859 O 547.669 0.299906 -4.37072 0
M  V30 5860 C 549.17 2.04907 -3.931 0
M  V30 5861 H 546.39 0.165689 -0.650222 0
M  V30 5862 H 548.934 -0.139953 -2.04021 0
M  V30 5863 H 547.089 1.98348 -3.32771 0
M  V30 5864 H 547.503 0.78126 -5.18649 0
M  V30 5865 H 548.977 2.47287 -4.93511 0
M  V30 5866 H 549.454 2.9043 -3.29465 0
M  V30 5867 H 550.06 1.39629 -4.01726 0
M  V30 5868 N 548.375 1.56261 0.205012 0
M  V30 5869 C 549.603 1.84141 0.943386 0
M  V30 5870 C 550.018 0.649772 1.77266 0
M  V30 5871 O 549.375 -0.381612 1.78466 0
M  V30 5872 C 549.426 3.10719 1.84759 0
M  V30 5873 O 549.147 4.25286 1.05181 0
M  V30 5874 C 550.648 3.51706 2.69848 0
M  V30 5875 H 547.868 0.611734 0.275721 0
M  V30 5876 H 550.412 2.03364 0.215253 0
M  V30 5877 H 548.567 2.93422 2.52947 0
M  V30 5878 H 548.981 4.97301 1.66709 0
M  V30 5879 H 550.455 4.43266 3.28967 0
M  V30 5880 H 550.932 2.7423 3.43067 0
M  V30 5881 H 551.538 3.71499 2.07047 0
M  V30 5882 N 549.853 -0.472356 1.50355 0
M  V30 5883 C 551.102 -1.2213 1.60522 0
M  V30 5884 C 551.415 -1.9312 0.310466 0
M  V30 5885 O 552.621 -2.69936 0.291029 0
M  V30 5886 C 551.077 -2.21909 2.83345 0
M  V30 5887 C 550.685 -1.56727 4.19691 0
M  V30 5888 C 552.429 -2.97453 3.02856 0
M  V30 5889 C 550.336 -2.54785 5.33703 0
M  V30 5890 H 549.266 -0.459543 0.597776 0
M  V30 5891 H 551.917 -0.491922 1.76783 0
M  V30 5892 H 550.299 -2.98133 2.60639 0
M  V30 5893 H 551.473 -0.863007 4.52646 0
M  V30 5894 H 549.788 -0.934685 4.05774 0
M  V30 5895 H 552.385 -3.70838 3.85205 0
M  V30 5896 H 552.728 -3.56764 2.14534 0
M  V30 5897 H 553.261 -2.28342 3.25737 0
M  V30 5898 H 550 -2.00214 6.24175 0
M  V30 5899 H 549.52 -3.23367 5.05167 0
M  V30 5900 H 551.199 -3.16639 5.64224 0
M  V30 5901 N 551.331 -1.39911 -0.725443 0
M  V30 5902 C 552.571 -1.39096 -1.49772 0
M  V30 5903 C 552.935 0.0106452 -1.91997 0
M  V30 5904 O 554.136 0.143859 -2.68415 0
M  V30 5905 C 552.407 -2.34441 -2.69764 0
M  V30 5906 S 553.966 -2.51898 -3.59295 0
M  V30 5907 H 550.784 -0.49314 -0.512186 0
M  V30 5908 H 553.386 -1.76093 -0.849197 0
M  V30 5909 H 552.09 -3.35123 -2.36898 0
M  V30 5910 H 551.621 -1.98692 -3.39537 0
M  V30 5911 H 553.636 -1.76402 -4.63785 0
M  V30 5912 N 552.809 0.956637 -1.25245 0
M  V30 5913 C 554.22 1.51569 -1.09012 0
M  V30 5914 C 554.571 1.93322 0.334813 0
M  V30 5915 O 553.696 1.78421 1.22454 0
M  V30 5916 C 554.291 2.75444 -1.97271 0
M  V30 5917 C 552.85 3.27669 -1.8523 0
M  V30 5918 C 551.997 2.00517 -1.91542 0
M  V30 5919 H 554.948 0.773746 -1.3856 0
M  V30 5920 H 554.969 3.4919 -1.51151 0
M  V30 5921 H 554.481 2.45024 -3.00973 0
M  V30 5922 H 552.582 3.62914 -0.844045 0
M  V30 5923 H 552.695 3.9582 -2.69932 0
M  V30 5924 H 551.059 2.15727 -1.35404 0
M  V30 5925 H 551.842 1.72448 -2.96844 0
M  V30 5926 N 554.287 1.06798 1.15896 0
M  V30 5927 C 555.533 0.788934 1.86825 0
M  V30 5928 C 555.866 -0.683084 1.8179 0
M  V30 5929 O 555.141 -1.50086 1.23711 0
M  V30 5930 C 555.424 1.29065 3.36176 0
M  V30 5931 C 555.277 2.8268 3.49874 0
M  V30 5932 C 556.596 0.902655 4.30744 0
M  V30 5933 H 553.715 0.288066 0.678371 0
M  V30 5934 H 556.357 1.32479 1.36195 0
M  V30 5935 H 554.507 0.834806 3.79425 0
M  V30 5936 H 556.179 3.36511 3.15528 0
M  V30 5937 H 554.422 3.21157 2.91617 0
M  V30 5938 H 555.093 3.12852 4.54783 0
M  V30 5939 H 557.569 1.29535 3.95424 0
M  V30 5940 H 556.445 1.28111 5.3374 0
M  V30 5941 H 556.706 -0.191951 4.41683 0
M  V30 5942 N 555.766 -1.3263 0.851289 0
M  V30 5943 C 557.012 -1.9766 0.453694 0
M  V30 5944 C 557.345 -1.67225 -0.987396 0
M  V30 5945 O 556.62 -0.958693 -1.69232 0
M  V30 5946 C 556.903 -3.5344 0.68936 0
M  V30 5947 C 556.756 -3.93517 2.17862 0
M  V30 5948 C 558.075 -4.39866 0.143555 0
M  V30 5949 H 555.194 -0.717989 0.166314 0
M  V30 5950 H 557.836 -1.57068 1.06909 0
M  V30 5951 H 555.986 -3.88147 0.165546 0
M  V30 5952 H 557.658 -3.69006 2.76826 0
M  V30 5953 H 555.901 -3.42798 2.65841 0
M  V30 5954 H 556.572 -5.02065 2.29422 0
M  V30 5955 H 559.048 -4.11875 0.591451 0
M  V30 5956 H 557.924 -5.47858 0.338043 0
M  V30 5957 H 558.185 -4.31696 -0.953466 0
M  V30 5958 N 557.244 -0.608902 -1.45362 0
M  V30 5959 C 558.174 0.0964526 -2.33301 0
M  V30 5960 C 559.155 0.857444 -1.46908 0
M  V30 5961 O 560.34 0.827735 -1.75676 0
M  V30 5962 C 557.47 1.09354 -3.29635 0
M  V30 5963 C 556.424 0.445676 -4.25673 0
M  V30 5964 C 555.75 1.5511 -5.11708 0
M  V30 5965 C 557.05 -0.633972 -5.18438 0
M  V30 5966 H 558.744 -0.637829 -2.92527 0
M  V30 5967 H 556.29 -0.308178 -1.40664 0
M  V30 5968 H 558.243 1.59556 -3.90025 0
M  V30 5969 H 556.967 1.85843 -2.6857 0
M  V30 5970 H 555.626 -0.0354897 -3.66583 0
M  V30 5971 H 555.274 2.30631 -4.4701 0
M  V30 5972 H 554.974 1.12311 -5.76767 0
M  V30 5973 H 556.498 2.05537 -5.74967 0
M  V30 5974 H 557.912 -0.215974 -5.72893 0
M  V30 5975 H 556.309 -0.983789 -5.91981 0
M  V30 5976 H 557.379 -1.51005 -4.60788 0
M  V30 5977 N 558.722 1.53707 -0.348139 0
M  V30 5978 C 559.654 2.22725 0.540946 0
M  V30 5979 C 560.667 1.2354 1.06027 0
M  V30 5980 O 561.856 1.49867 0.96964 0
M  V30 5981 C 558.956 2.89756 1.75768 0
M  V30 5982 C 558.129 4.15297 1.37285 0
M  V30 5983 C 557.188 4.65697 2.44976 0
M  V30 5984 O 556.214 5.29798 2.08092 0
M  V30 5985 N 557.416 4.42017 3.763 0
M  V30 5986 H 560.181 2.99658 -0.0501592 0
M  V30 5987 H 557.742 1.60979 -0.17248 0
M  V30 5988 H 559.734 3.20388 2.47252 0
M  V30 5989 H 558.304 2.16382 2.25605 0
M  V30 5990 H 557.524 3.9116 0.488584 0
M  V30 5991 H 558.812 4.96948 1.09179 0
M  V30 5992 H 558.21 3.9076 4.09051 0
M  V30 5993 H 556.767 4.77242 4.4394 0
M  V30 5994 N 560.2 0.0768682 1.57412 0
M  V30 5995 C 561.428 -0.59997 1.9801 0
M  V30 5996 C 561.843 -1.62842 0.955408 0
M  V30 5997 O 561.2 -1.8241 -0.057314 0
M  V30 5998 C 561.251 -1.26401 3.38681 0
M  V30 5999 O 560.972 -0.276723 4.37225 0
M  V30 6000 C 562.473 -2.0282 3.94182 0
M  V30 6001 H 559.693 -0.162239 0.651091 0
M  V30 6002 H 562.237 0.150771 2.03943 0
M  V30 6003 H 560.392 -1.96581 3.33819 0
M  V30 6004 H 560.806 -0.753744 5.19056 0
M  V30 6005 H 562.28 -2.44667 4.94815 0
M  V30 6006 H 562.757 -2.88678 3.31001 0
M  V30 6007 H 563.363 -1.37496 4.02461 0
M  V30 6008 N 561.678 -1.56367 -0.196722 0
M  V30 6009 C 562.608 -1.97442 -1.24655 0
M  V30 6010 C 563.589 -0.846147 -1.47561 0
M  V30 6011 O 564.774 -1.11035 -1.59326 0
M  V30 6012 C 561.904 -2.31253 -2.59112 0
M  V30 6013 C 560.858 -3.46804 -2.50821 0
M  V30 6014 C 560.184 -3.66286 -3.89536 0
M  V30 6015 C 561.484 -4.8104 -2.03465 0
M  V30 6016 H 563.178 -2.85388 -0.905216 0
M  V30 6017 H 560.724 -1.37304 -0.434002 0
M  V30 6018 H 562.677 -2.58583 -3.32736 0
M  V30 6019 H 561.401 -1.40188 -2.94983 0
M  V30 6020 H 560.06 -3.19563 -1.79653 0
M  V30 6021 H 559.708 -2.72555 -4.22756 0
M  V30 6022 H 559.408 -4.4402 -3.84864 0
M  V30 6023 H 560.932 -3.9599 -4.64784 0
M  V30 6024 H 562.346 -5.07411 -2.66846 0
M  V30 6025 H 560.743 -5.62232 -2.09798 0
M  V30 6026 H 561.813 -4.74732 -0.98781 0
M  V30 6027 N 563.156 0.464375 -1.50603 0
M  V30 6028 C 564.567 1.04507 -1.5471 0
M  V30 6029 C 564.918 1.9297 -0.354542 0
M  V30 6030 O 564.043 2.09763 0.531812 0
M  V30 6031 C 564.638 1.90207 -2.80369 0
M  V30 6032 C 563.197 2.43373 -2.87135 0
M  V30 6033 C 562.344 1.21886 -2.49076 0
M  V30 6034 H 565.295 0.246716 -1.56771 0
M  V30 6035 H 565.316 2.75353 -2.62604 0
M  V30 6036 H 564.828 1.25796 -3.67147 0
M  V30 6037 H 562.929 3.11318 -2.04724 0
M  V30 6038 H 563.042 2.7802 -3.90181 0
M  V30 6039 H 561.406 1.55575 -2.01664 0
M  V30 6040 H 562.189 0.591268 -3.3817 0
M  V30 6041 N 564.634 1.40294 0.718013 0
M  V30 6042 C 565.862 1.4175 1.50714 0
M  V30 6043 C 566.277 0.0165366 1.88793 0
M  V30 6044 O 565.634 -0.958942 1.55276 0
M  V30 6045 C 565.685 2.30598 2.784 0
M  V30 6046 O 565.406 3.6524 2.41932 0
M  V30 6047 C 566.907 2.4062 3.72313 0
M  V30 6048 H 564.127 0.483565 0.465194 0
M  V30 6049 H 566.671 1.84316 0.885889 0
M  V30 6050 H 564.826 1.91401 3.36815 0
M  V30 6051 H 565.24 4.12402 3.24076 0
M  V30 6052 H 566.714 3.07001 4.58753 0
M  V30 6053 H 567.191 1.4305 4.15251 0
M  V30 6054 H 567.797 2.80359 3.19811 0
M  V30 6055 N 566.112 -0.949982 1.2575 0
M  V30 6056 C 567.337 -1.73503 1.13628 0
M  V30 6057 C 567.762 -1.85601 -0.30559 0
M  V30 6058 O 567.12 -1.33984 -1.22139 0
M  V30 6059 C 567.168 -3.1243 1.80055 0
M  V30 6060 O 566.272 -3.97916 1.08336 0
M  V30 6061 H 565.613 -0.532665 0.396439 0
M  V30 6062 H 568.143 -1.19043 1.66403 0
M  V30 6063 H 568.153 -3.62866 1.86527 0
M  V30 6064 H 566.828 -3.02941 2.84956 0
M  V30 6065 H 565.405 -3.56375 1.09777 0
M  V30 6066 N 567.59 -1.07411 -1.15328 0
M  V30 6067 C 568.838 -0.796073 -1.85761 0
M  V30 6068 C 569.159 0.679864 -1.82764 0
M  V30 6069 O 568.429 1.49242 -1.269 0
M  V30 6070 H 567.009 -0.291495 -0.687779 0
M  V30 6071 H 569.671 -1.35799 -1.39802 0
M  V30 6072 H 568.767 -1.13114 -2.90881 0
M  V30 6073 N 569.068 1.32177 -0.85831 0
M  V30 6074 C 570.314 1.97417 -0.46417 0
M  V30 6075 C 570.647 1.67746 0.978514 0
M  V30 6076 O 569.922 0.967654 1.68721 0
M  V30 6077 C 570.205 3.53069 -0.708094 0
M  V30 6078 C 570.058 3.92357 -2.19946 0
M  V30 6079 C 571.377 4.39783 -0.166881 0
M  V30 6080 H 568.496 0.717097 -0.17012 0
M  V30 6081 H 571.138 1.56499 -1.07741 0
M  V30 6082 H 569.288 3.88054 -0.186128 0
M  V30 6083 H 570.96 3.67533 -2.78779 0
M  V30 6084 H 569.203 3.41384 -2.67656 0
M  V30 6085 H 569.874 5.00841 -2.32082 0
M  V30 6086 H 572.35 4.11556 -0.613285 0
M  V30 6087 H 571.226 5.47671 -0.367093 0
M  V30 6088 H 571.487 4.32196 0.930559 0
M  V30 6089 N 570.547 0.616602 1.45037 0
M  V30 6090 C 571.772 0.120192 2.07051 0
M  V30 6091 C 572.197 -1.19008 1.45666 0
M  V30 6092 O 571.555 -1.7267 0.552692 0
M  V30 6093 C 571.603 0.00354901 3.606 0
M  V30 6094 O 570.707 -1.04431 3.98958 0
M  V30 6095 H 570.048 0.0781599 0.659384 0
M  V30 6096 H 572.578 0.849167 1.86146 0
M  V30 6097 H 572.588 -0.191754 4.07549 0
M  V30 6098 H 571.263 0.960239 4.04663 0
M  V30 6099 H 569.84 -0.824749 3.63665 0
M  V30 6100 N 572.025 -1.5352 0.356285 0
M  V30 6101 C 573.271 -2.01414 -0.236653 0
M  V30 6102 C 573.604 -1.24339 -1.49176 0
M  V30 6103 O 572.879 -0.334496 -1.91602 0
M  V30 6104 C 573.162 -3.56059 -0.537982 0
M  V30 6105 C 573.015 -4.43835 0.730112 0
M  V30 6106 C 574.334 -4.19127 -1.34239 0
M  V30 6107 H 571.453 -0.732135 -0.0845386 0
M  V30 6108 H 574.095 -1.83854 0.479341 0
M  V30 6109 H 572.245 -3.71153 -1.14795 0
M  V30 6110 H 573.917 -4.40555 1.36782 0
M  V30 6111 H 572.16 -4.1218 1.3524 0
M  V30 6112 H 572.831 -5.49958 0.474358 0
M  V30 6113 H 575.307 -4.07809 -0.826498 0
M  V30 6114 H 574.183 -5.27378 -1.52198 0
M  V30 6115 H 574.444 -3.74581 -2.34822 0
M  V30 6116 N 573.503 -0.0852151 -1.57369 0
M  V30 6117 C 574.914 0.445428 -1.81309 0
M  V30 6118 C 575.265 1.68795 -1.00013 0
M  V30 6119 O 574.39 2.15211 -0.226573 0
M  V30 6120 C 574.985 0.814887 -3.28854 0
M  V30 6121 C 573.544 1.29032 -3.53592 0
M  V30 6122 C 572.691 0.282089 -2.75861 0
M  V30 6123 H 575.642 -0.310771 -1.55627 0
M  V30 6124 H 575.663 1.67524 -3.41637 0
M  V30 6125 H 575.175 -0.0896309 -3.87996 0
M  V30 6126 H 573.276 2.21289 -2.9977 0
M  V30 6127 H 573.389 1.25898 -4.62262 0
M  V30 6128 H 571.753 0.762182 -2.43029 0
M  V30 6129 H 572.536 -0.614936 -3.37748 0
M  V30 6130 N 574.981 1.5647 0.188427 0
M  V30 6131 C 575.891 1.98285 1.2538 0
M  V30 6132 C 576.907 0.891535 1.49424 0
M  V30 6133 O 578.083 1.19782 1.61908 0
M  V30 6134 C 575.148 2.31965 2.57669 0
M  V30 6135 C 574.209 3.54838 2.41638 0
M  V30 6136 C 573.442 3.86901 3.67618 0
M  V30 6137 O 573.665 3.20163 4.72072 0
M  V30 6138 O 572.599 4.80309 3.62749 0
M  V30 6139 H 576.425 2.89145 0.928912 0
M  V30 6140 H 574.01 1.44112 0.393955 0
M  V30 6141 H 575.892 2.54673 3.35737 0
M  V30 6142 H 574.567 1.44271 2.89771 0
M  V30 6143 H 573.474 3.37369 1.61658 0
M  V30 6144 H 574.807 4.43019 2.14465 0
M  V30 6145 N 576.459 -0.456382 1.50847 0
M  V30 6146 C 577.369 -1.57805 1.73594 0
M  V30 6147 C 578.385 -1.62599 0.619476 0
M  V30 6148 O 579.561 -1.80195 0.899532 0
M  V30 6149 C 576.626 -2.93926 1.8387 0
M  V30 6150 C 575.687 -2.99402 3.07663 0
M  V30 6151 C 574.92 -4.29031 3.1744 0
M  V30 6152 O 575.143 -5.20358 2.33631 0
M  V30 6153 O 574.077 -4.40401 4.10281 0
M  V30 6154 H 577.903 -1.41531 2.68705 0
M  V30 6155 H 575.488 -0.637422 1.3512 0
M  V30 6156 H 577.37 -3.74747 1.92725 0
M  V30 6157 H 576.045 -3.10368 0.91944 0
M  V30 6158 H 574.952 -2.17606 3.043 0
M  V30 6159 H 576.285 -2.87901 3.99216 0
M  V30 6160 N 577.937 -1.40673 -0.710563 0
M  V30 6161 C 579.353 -1.22813 -1.01928 0
M  V30 6162 C 579.553 -0.10687 -2.01216 0
M  V30 6163 O 578.609 0.533614 -2.46797 0
M  V30 6164 C 579.922 -2.57178 -1.5582 0
M  V30 6165 C 581.47 -2.64233 -1.67779 0
M  V30 6166 C 581.945 -3.98879 -2.25076 0
M  V30 6167 N 583.436 -4.00647 -2.32456 0
M  V30 6168 C 584.171 -5.01621 -2.77784 0
M  V30 6169 N 583.667 -6.12989 -3.22826 0
M  V30 6170 N 585.46 -4.88988 -2.77213 0
M  V30 6171 H 577.611 -2.12335 -0.05253 0
M  V30 6172 H 579.874 -0.9441 -0.085898 0
M  V30 6173 H 579.58 -3.39903 -0.903249 0
M  V30 6174 H 579.454 -2.78618 -2.54267 0
M  V30 6175 H 581.841 -1.81876 -2.3239 0
M  V30 6176 H 581.922 -2.46619 -0.679178 0
M  V30 6177 H 581.566 -4.81678 -1.61086 0
M  V30 6178 H 581.496 -4.13826 -3.25661 0
M  V30 6179 H 583.987 -3.20231 -2.0065 0
M  V30 6180 H 584.3 -6.85921 -3.55995 0
M  V30 6181 H 582.645 -6.16547 -3.20773 0
M  V30 6182 H 585.836 -4.01075 -2.41363 0
M  V30 6183 H 586.009 -5.67822 -3.12221 0
M  V30 6184 N 579.415 0.9433 -1.26252 0
M  V30 6185 C 580.347 2.04542 -1.03417 0
M  V30 6186 C 581.36 1.62799 0.0046911 0
M  V30 6187 O 582.549 1.76944 -0.235146 0
M  V30 6188 C 579.649 3.34511 -0.543671 0
M  V30 6189 C 578.822 4.05033 -1.65128 0
M  V30 6190 C 577.881 5.13273 -1.1592 0
M  V30 6191 O 576.907 5.38095 -1.85586 0
M  V30 6192 N 578.109 5.805 -0.00649279 0
M  V30 6193 H 580.874 2.24699 -1.98319 0
M  V30 6194 H 578.435 1.11264 -1.1761 0
M  V30 6195 H 580.427 4.04212 -0.198703 0
M  V30 6196 H 578.997 3.11042 0.311711 0
M  V30 6197 H 578.217 3.29275 -2.16729 0
M  V30 6198 H 579.505 4.48903 -2.39508 0
M  V30 6199 H 578.903 5.62767 0.575347 0
M  V30 6200 H 577.46 6.51201 0.279416 0
M  V30 6201 N 580.893 1.08022 1.14757 0
M  V30 6202 C 582.118 0.82895 1.90114 0
M  V30 6203 C 582.543 -0.612772 1.77839 0
M  V30 6204 O 581.901 -1.42895 1.11583 0
M  V30 6205 C 581.949 1.25062 3.38219 0
M  V30 6206 O 581.053 0.400119 4.10454 0
M  V30 6207 H 580.394 0.301412 0.591648 0
M  V30 6208 H 582.924 1.44062 1.45284 0
M  V30 6209 H 582.934 1.22977 3.89025 0
M  V30 6210 H 581.609 2.30067 3.46471 0
M  V30 6211 H 580.186 0.484052 3.69745 0
M  V30 6212 N 582.371 -1.3172 0.865308 0
M  V30 6213 C 583.599 -2.01057 0.488251 0
M  V30 6214 C 584.014 -1.64979 -0.918 0
M  V30 6215 O 583.371 -0.876597 -1.60069 0
M  V30 6216 C 583.422 -3.55964 0.630224 0
M  V30 6217 O 583.143 -3.90749 1.98109 0
M  V30 6218 C 584.644 -4.42574 0.253567 0
M  V30 6219 H 581.864 -0.64332 0.190736 0
M  V30 6220 H 584.408 -1.68058 1.16519 0
M  V30 6221 H 582.563 -3.874 0.000895422 0
M  V30 6222 H 582.977 -4.85467 1.9855 0
M  V30 6223 H 584.451 -5.50521 0.403875 0
M  V30 6224 H 584.928 -4.31724 -0.806895 0
M  V30 6225 H 585.534 -4.16547 0.858404 0
M  V30 6226 N 583.85 -0.624285 -1.44708 0
M  V30 6227 C 585.096 -0.126237 -2.02407 0
M  V30 6228 C 585.428 1.24618 -1.48943 0
M  V30 6229 O 584.704 1.82569 -0.670742 0
M  V30 6230 C 584.986 -0.105449 -3.59946 0
M  V30 6231 C 584.84 -1.50972 -4.23707 0
M  V30 6232 C 586.159 0.573629 -4.36346 0
M  V30 6233 H 583.278 -0.0473472 -0.735478 0
M  V30 6234 H 585.92 -0.799452 -1.72362 0
M  V30 6235 H 584.07 0.46783 -3.85673 0
M  V30 6236 H 585.742 -2.13136 -4.0911 0
M  V30 6237 H 583.985 -2.0656 -3.81465 0
M  V30 6238 H 584.656 -1.44727 -5.32689 0
M  V30 6239 H 587.132 0.0861787 -4.16011 0
M  V30 6240 H 586.008 0.557338 -5.46063 0
M  V30 6241 H 586.269 1.64276 -4.10446 0
M  V30 6242 N 585.328 1.53329 -0.364422 0
M  V30 6243 C 586.275 2.25698 0.482607 0
M  V30 6244 C 587.245 1.26325 1.07848 0
M  V30 6245 O 588.43 1.55104 1.11119 0
M  V30 6246 C 585.57 3.04873 1.61699 0
M  V30 6247 C 584.683 4.19135 1.0464 0
M  V30 6248 C 583.818 4.85754 2.14979 0
M  V30 6249 C 582.857 5.9205 1.5538 0
M  V30 6250 N 581.994 6.52365 2.59547 0
M  V30 6251 H 586.834 2.97666 -0.141032 0
M  V30 6252 H 584.371 1.46875 -0.0813692 0
M  V30 6253 H 586.329 3.49051 2.28516 0
M  V30 6254 H 584.959 2.35162 2.2113 0
M  V30 6255 H 584.011 3.79451 0.268553 0
M  V30 6256 H 585.323 4.95525 0.570653 0
M  V30 6257 H 584.477 5.3311 2.89619 0
M  V30 6258 H 583.216 4.08834 2.65906 0
M  V30 6259 H 582.221 5.44058 0.792549 0
M  V30 6260 H 583.446 6.7089 1.0528 0
M  V30 6261 H 581.392 5.78298 3.09689 0
M  V30 6262 H 581.309 7.2429 2.16655 0
M  V30 6263 H 582.577 7.0437 3.33892 0
M  V30 6264 N 586.806 0.0935595 1.57322 0
M  V30 6265 C 587.753 -0.865935 2.1394 0
M  V30 6266 C 588.723 -1.28083 1.05754 0
M  V30 6267 O 589.908 -1.36285 1.33533 0
M  V30 6268 C 587.048 -2.12023 2.72287 0
M  V30 6269 C 586.161 -1.756 3.94701 0
M  V30 6270 C 585.296 -2.95804 4.41218 0
M  V30 6271 C 584.335 -2.555 5.56225 0
M  V30 6272 N 583.472 -3.68534 5.97601 0
M  V30 6273 H 588.312 -0.376261 2.95615 0
M  V30 6274 H 585.849 -0.174052 1.46067 0
M  V30 6275 H 587.807 -2.85477 3.04235 0
M  V30 6276 H 586.437 -2.58492 1.93343 0
M  V30 6277 H 585.489 -0.921208 3.69077 0
M  V30 6278 H 586.801 -1.41964 4.78171 0
M  V30 6279 H 585.955 -3.77513 4.74941 0
M  V30 6280 H 584.694 -3.32649 3.56645 0
M  V30 6281 H 583.699 -1.72218 5.22131 0
M  V30 6282 H 584.924 -2.19801 6.42545 0
M  V30 6283 H 582.87 -4.051 5.15974 0
M  V30 6284 H 582.787 -3.38737 6.75865 0
M  V30 6285 H 584.055 -4.50757 6.35955 0
M  V30 6286 N 588.284 -1.56567 -0.180126 0
M  V30 6287 C 589.194 -1.98947 -1.24327 0
M  V30 6288 C 590.21 -0.899446 -1.4895 0
M  V30 6289 O 591.386 -1.20639 -1.61271 0
M  V30 6290 C 588.451 -2.33328 -2.56435 0
M  V30 6291 C 587.512 -3.56114 -2.39752 0
M  V30 6292 C 586.745 -3.88845 -3.65561 0
M  V30 6293 O 586.968 -3.22662 -4.70368 0
M  V30 6294 O 585.902 -4.82226 -3.60197 0
M  V30 6295 H 589.728 -2.89634 -0.913565 0
M  V30 6296 H 587.313 -1.44319 -0.386306 0
M  V30 6297 H 589.195 -2.5645 -3.34382 0
M  V30 6298 H 587.87 -1.45806 -2.89002 0
M  V30 6299 H 586.777 -3.38221 -1.59866 0
M  V30 6300 H 588.11 -4.4415 -2.12113 0
M  V30 6301 N 589.762 0.448376 -1.51087 0
M  V30 6302 C 590.709 1.54341 -1.71603 0
M  V30 6303 C 591.679 1.56463 -0.557536 0
M  V30 6304 O 592.864 1.73644 -0.79072 0
M  V30 6305 C 590.004 2.92148 -1.83695 0
M  V30 6306 C 589.117 2.99639 -3.11192 0
M  V30 6307 C 588.252 4.285 -3.13944 0
M  V30 6308 C 587.291 4.29819 -4.35801 0
M  V30 6309 N 586.428 5.50186 -4.36164 0
M  V30 6310 H 591.268 1.36151 -2.65079 0
M  V30 6311 H 588.805 0.661585 -1.31383 0
M  V30 6312 H 590.763 3.72093 -1.88687 0
M  V30 6313 H 589.393 3.0892 -0.936374 0
M  V30 6314 H 588.445 2.12425 -3.15562 0
M  V30 6315 H 589.757 2.96474 -4.01129 0
M  V30 6316 H 588.911 5.16811 -3.17791 0
M  V30 6317 H 587.65 4.34307 -2.21876 0
M  V30 6318 H 586.655 3.39902 -4.32142 0
M  V30 6319 H 587.88 4.25685 -5.29121 0
M  V30 6320 H 585.826 5.56735 -3.46961 0
M  V30 6321 H 585.743 5.48856 -5.19897 0
M  V30 6322 H 587.011 6.40559 -4.44189 0
M  V30 6323 N 591.24 1.41047 0.703093 0
M  V30 6324 C 592.465 1.43537 1.49706 0
M  V30 6325 C 592.89 0.0401853 1.88057 0
M  V30 6326 O 592.248 -0.954785 1.54122 0
M  V30 6327 C 592.296 2.3433 2.74084 0
M  V30 6328 O 591.4 1.79515 3.71279 0
M  V30 6329 H 590.741 0.487454 0.450871 0
M  V30 6330 H 593.271 1.85422 0.86486 0
M  V30 6331 H 593.281 2.49947 3.22476 0
M  V30 6332 H 591.956 3.35708 2.45506 0
M  V30 6333 H 590.533 1.7331 3.30179 0
M  V30 6334 N 592.718 -0.936591 1.26751 0
M  V30 6335 C 593.966 -1.67998 1.12343 0
M  V30 6336 C 594.287 -1.92137 -0.332938 0
M  V30 6337 O 593.557 -1.52132 -1.23421 0
M  V30 6338 H 592.137 -0.622609 0.412756 0
M  V30 6339 H 594.799 -1.12509 1.59147 0
M  V30 6340 H 593.895 -2.65185 1.64571 0
M  V30 6341 N 594.196 -1.08629 -1.14182 0
M  V30 6342 C 595.421 -0.83902 -1.89671 0
M  V30 6343 C 595.846 0.603332 -1.78161 0
M  V30 6344 O 595.204 1.42301 -1.12339 0
M  V30 6345 C 595.252 -1.26854 -3.37551 0
M  V30 6346 O 594.356 -0.42188 -4.10236 0
M  V30 6347 H 593.697 -0.304545 -0.590041 0
M  V30 6348 H 596.227 -1.4483 -1.44518 0
M  V30 6349 H 596.237 -1.25038 -3.88368 0
M  V30 6350 H 594.912 -2.31901 -3.45246 0
M  V30 6351 H 593.489 -0.503654 -3.69483 0
M  V30 6352 N 595.674 1.31259 -0.872281 0
M  V30 6353 C 596.606 2.27396 -0.28697 0
M  V30 6354 C 597.619 1.53181 0.551297 0
M  V30 6355 O 598.808 1.74561 0.372914 0
M  V30 6356 C 595.908 3.33335 0.611617 0
M  V30 6357 C 595.081 4.36966 -0.194729 0
M  V30 6358 C 594.14 5.22387 0.632358 0
M  V30 6359 O 593.166 5.69169 0.0595691 0
M  V30 6360 N 594.368 5.46985 1.94391 0
M  V30 6361 H 597.133 2.78261 -1.11314 0
M  V30 6362 H 594.694 1.44306 -0.733994 0
M  V30 6363 H 596.686 3.87398 1.17068 0
M  V30 6364 H 595.256 2.82496 1.33846 0
M  V30 6365 H 594.476 3.82945 -0.935241 0
M  V30 6366 H 595.764 5.03273 -0.747935 0
M  V30 6367 H 595.162 5.10737 2.43237 0
M  V30 6368 H 593.719 6.03973 2.45071 0
M  V30 6369 N 597.152 0.631951 1.44375 0
M  V30 6370 C 598.084 -0.110911 2.28931 0
M  V30 6371 C 599.097 -0.808086 1.41329 0
M  V30 6372 O 600.286 -0.669396 1.65473 0
M  V30 6373 C 597.386 -1.17928 3.1772 0
M  V30 6374 C 596.559 -0.564458 4.33743 0
M  V30 6375 C 595.618 -1.5269 5.0356 0
M  V30 6376 O 594.644 -1.04372 5.59549 0
M  V30 6377 N 595.846 -2.86123 5.05088 0
M  V30 6378 H 598.611 0.614758 2.93327 0
M  V30 6379 H 596.172 0.473171 1.54831 0
M  V30 6380 H 598.164 -1.82348 3.61291 0
M  V30 6381 H 596.734 -1.80717 2.55069 0
M  V30 6382 H 595.954 0.258373 3.93352 0
M  V30 6383 H 597.242 -0.134355 5.08623 0
M  V30 6384 H 596.64 -3.27959 4.60933 0
M  V30 6385 H 595.197 -3.45901 5.52445 0
M  V30 6386 N 598.631 -1.53133 0.372548 0
M  V30 6387 C 600.042 -1.86404 -0.105155 0
M  V30 6388 C 600.393 -1.29289 -1.47576 0
M  V30 6389 O 599.518 -0.617646 -2.07398 0
M  V30 6390 C 600.113 -3.38223 -0.197588 0
M  V30 6391 C 598.672 -3.71266 -0.619556 0
M  V30 6392 C 597.819 -2.76353 0.228919 0
M  V30 6393 H 600.77 -1.47282 0.591077 0
M  V30 6394 H 600.791 -3.66577 -1.01987 0
M  V30 6395 H 600.303 -3.79763 0.800099 0
M  V30 6396 H 598.404 -3.35287 -1.62522 0
M  V30 6397 H 598.517 -4.77515 -0.389332 0
M  V30 6398 H 596.881 -2.52888 -0.303271 0
M  V30 6399 H 597.664 -3.20728 1.22428 0
M  V30 6400 N 600.109 -0.101901 -1.5727 0
M  V30 6401 C 601.057 0.872034 -2.15635 0
M  V30 6402 C 602.051 1.28742 -1.10099 0
M  V30 6403 O 603.257 1.26116 -1.28432 0
M  V30 6404 H 599.632 0.299269 -0.689886 0
M  V30 6405 H 601.603 0.355137 -2.96279 0
M  V30 6406 C 600.352 2.11886 -2.7568 0
M  V30 6407 H 599.675 1.80813 -3.56576 0
M  V30 6408 H 601.115 2.78077 -3.20077 0
M  V30 6409 C 599.574 2.89739 -1.7191 0
M  V30 6410 O 600.104 3.84522 -1.16213 0
M  V30 6411 N 598.31 2.53407 -1.42245 0
M  V30 6412 H 597.857 1.76398 -1.87727 0
M  V30 6413 H 597.815 3.05795 -0.730529 0
M  V30 6414 N 601.587 1.56661 0.17182 0
M  V30 6415 C 602.534 1.96371 1.21273 0
M  V30 6416 C 603.504 0.82756 1.44016 0
M  V30 6417 O 604.689 1.08764 1.56764 0
M  V30 6418 C 601.829 2.32838 2.54716 0
M  V30 6419 C 600.942 3.59628 2.39356 0
M  V30 6420 C 600.077 3.85311 3.65662 0
M  V30 6421 C 599.116 5.0545 3.45234 0
M  V30 6422 N 598.253 5.27268 4.63608 0
M  V30 6423 H 603.093 2.85106 0.86709 0
M  V30 6424 H 600.63 1.41073 0.416744 0
M  V30 6425 H 602.588 2.52004 3.3249 0
M  V30 6426 H 601.218 1.47214 2.87277 0
M  V30 6427 H 600.27 3.4838 1.52761 0
M  V30 6428 H 601.582 4.4756 2.20207 0
M  V30 6429 H 600.736 4.04841 4.51872 0
M  V30 6430 H 599.475 2.95753 3.8779 0
M  V30 6431 H 598.48 4.85819 2.5741 0
M  V30 6432 H 599.705 5.96538 3.24529 0
M  V30 6433 H 597.651 4.40662 4.85956 0
M  V30 6434 H 597.568 6.09422 4.4737 0
M  V30 6435 H 598.836 5.51277 5.51103 0
M  V30 6436 N 603.065 -0.440357 1.51323 0
M  V30 6437 C 604.311 -1.19181 1.64085 0
M  V30 6438 C 604.644 -1.90936 0.354575 0
M  V30 6439 O 603.919 -1.8347 -0.645675 0
M  V30 6440 C 604.202 -2.2112 2.84215 0
M  V30 6441 C 604.055 -1.53468 4.22809 0
M  V30 6442 C 605.374 -3.22133 2.99864 0
M  V30 6443 H 602.493 -0.431924 0.597169 0
M  V30 6444 H 605.135 -0.481443 1.83799 0
M  V30 6445 H 603.285 -2.81703 2.67537 0
M  V30 6446 H 604.957 -0.962455 4.51148 0
M  V30 6447 H 603.2 -0.837086 4.25647 0
M  V30 6448 H 603.871 -2.27694 5.02852 0
M  V30 6449 H 606.347 -2.71601 3.15233 0
M  V30 6450 H 605.223 -3.90756 3.85488 0
M  V30 6451 H 605.484 -3.88061 2.11804 0
M  V30 6452 N 604.543 -1.41418 -0.695603 0
M  V30 6453 C 605.792 -1.40073 -1.4513 0
M  V30 6454 C 606.105 -0.0130439 -1.95596 0
M  V30 6455 O 607.311 0.123032 -2.71221 0
M  V30 6456 C 605.767 -2.46286 -2.62433 0
M  V30 6457 C 605.375 -3.90962 -2.18753 0
M  V30 6458 C 607.119 -2.54077 -3.40066 0
M  V30 6459 C 605.026 -4.88728 -3.33015 0
M  V30 6460 H 603.956 -0.520903 -0.545138 0
M  V30 6461 H 606.607 -1.67242 -0.75515 0
M  V30 6462 H 604.989 -2.12248 -3.34315 0
M  V30 6463 H 606.163 -4.34248 -1.54161 0
M  V30 6464 H 604.478 -3.86831 -1.54114 0
M  V30 6465 H 607.075 -3.24303 -4.25125 0
M  V30 6466 H 607.418 -1.5776 -3.8525 0
M  V30 6467 H 607.951 -2.87206 -2.75241 0
M  V30 6468 H 604.69 -5.86449 -2.92844 0
M  V30 6469 H 604.21 -4.50091 -3.96457 0
M  V30 6470 H 605.889 -5.09483 -3.98793 0
M  V30 6471 N 606.021 0.929856 -1.27246 0
M  V30 6472 C 607.298 1.65544 -1.04186 0
M  V30 6473 C 607.678 2.06796 0.424097 0
M  V30 6474 O 607.026 1.80053 1.40688 0
M  V30 6475 C 607.236 2.85912 -2.00138 0
M  V30 6476 C 608.584 3.57305 -2.29387 0
M  V30 6477 O 609.608 2.96036 -1.98094 0
M  V30 6478 O 608.467 4.67688 -2.82719 0
M  V30 6479 H 605.561 0.725473 -0.397011 0
M  V30 6480 H 608.107 0.980583 -1.38501 0
M  V30 6481 H 606.879 2.52403 -2.99013 0
M  V30 6482 H 606.502 3.61118 -1.66371 0
M  V30 6483 N 607.499 1.09233 1.13605 0
M  V30 6484 C 608.446 0.729921 2.18954 0
M  V30 6485 C 609.416 -0.287916 1.63586 0
M  V30 6486 O 610.601 -0.170003 1.90041 0
M  V30 6487 C 607.741 0.154489 3.44754 0
M  V30 6488 C 606.854 1.22613 4.14234 0
M  V30 6489 C 605.989 0.613657 5.27644 0
M  V30 6490 C 605.028 1.66674 5.8897 0
M  V30 6491 N 604.165 1.07545 6.93814 0
M  V30 6492 H 609.005 1.63257 2.49302 0
M  V30 6493 H 606.542 0.815693 1.22413 0
M  V30 6494 H 608.5 -0.196923 4.16735 0
M  V30 6495 H 607.13 -0.711433 3.14863 0
M  V30 6496 H 606.182 1.69485 3.40557 0
M  V30 6497 H 607.494 2.0238 4.55899 0
M  V30 6498 H 606.648 0.210976 6.06333 0
M  V30 6499 H 605.387 -0.215584 4.87223 0
M  V30 6500 H 604.392 2.07899 5.08978 0
M  V30 6501 H 605.617 2.49861 6.31464 0
M  V30 6502 H 603.563 0.267451 6.55455 0
M  V30 6503 H 603.48 1.81011 7.3401 0
M  V30 6504 H 604.748 0.698906 7.7636 0
M  V30 6505 N 608.977 -1.30795 0.87923 0
M  V30 6506 C 609.925 -2.30231 0.331112 0
M  V30 6507 C 610.919 -1.59918 -0.558794 0
M  V30 6508 O 612.125 -1.74441 -0.443866 0
M  V30 6509 H 608.5 -0.746785 0.088409 0
M  V30 6510 H 610.471 -2.73925 1.18353 0
M  V30 6511 C 609.22 -3.44848 -0.444401 0
M  V30 6512 H 608.543 -3.99131 0.231106 0
M  V30 6513 H 609.983 -4.16516 -0.793109 0
M  V30 6514 C 608.442 -2.94329 -1.63926 0
M  V30 6515 O 608.972 -2.93875 -2.73862 0
M  V30 6516 N 607.178 -2.50413 -1.4745 0
M  V30 6517 H 606.725 -2.50982 -0.58015 0
M  V30 6518 H 606.683 -2.16969 -2.27534 0
M  V30 6519 N 610.455 -0.639598 -1.44038 0
M  V30 6520 C 611.402 0.0602458 -2.30721 0
M  V30 6521 C 612.372 0.828352 -1.43971 0
M  V30 6522 O 613.557 0.807693 -1.72861 0
M  V30 6523 C 610.697 1.03008 -3.29368 0
M  V30 6524 C 609.81 0.259502 -4.3122 0
M  V30 6525 C 608.945 1.22191 -5.16955 0
M  V30 6526 C 607.984 0.440978 -6.10509 0
M  V30 6527 N 607.121 1.35428 -6.88915 0
M  V30 6528 H 611.961 -0.684867 -2.90023 0
M  V30 6529 H 609.498 -0.349509 -1.42888 0
M  V30 6530 H 611.456 1.60583 -3.85057 0
M  V30 6531 H 610.086 1.74222 -2.71747 0
M  V30 6532 H 609.138 -0.432317 -3.77935 0
M  V30 6533 H 610.45 -0.348347 -4.97582 0
M  V30 6534 H 609.604 1.86873 -5.77203 0
M  V30 6535 H 608.343 1.86367 -4.50687 0
M  V30 6536 H 607.348 -0.219279 -5.49363 0
M  V30 6537 H 608.573 -0.196192 -6.78817 0
M  V30 6538 H 606.519 1.9831 -6.25307 0
M  V30 6539 H 606.436 0.800657 -7.51748 0
M  V30 6540 H 607.704 1.98967 -7.53679 0
M  V30 6541 N 611.933 1.52934 -0.380664 0
M  V30 6542 C 612.866 2.22597 0.502564 0
M  V30 6543 C 613.844 1.22345 1.071 0
M  V30 6544 O 615.028 1.51302 1.12428 0
M  V30 6545 C 612.155 2.93246 1.69482 0
M  V30 6546 C 611.201 4.07696 1.25244 0
M  V30 6547 S 612.034 5.34957 0.241159 0
M  V30 6548 C 613.19 6.09124 1.4394 0
M  V30 6549 H 613.423 2.97167 -0.089029 0
M  V30 6550 H 610.956 1.53518 -0.164817 0
M  V30 6551 H 612.914 3.34562 2.37863 0
M  V30 6552 H 611.575 2.18373 2.2577 0
M  V30 6553 H 610.768 4.56199 2.1424 0
M  V30 6554 H 610.37 3.68349 0.647664 0
M  V30 6555 H 612.662 6.34771 2.36794 0
M  V30 6556 H 613.605 7.01068 0.995464 0
M  V30 6557 H 614.013 5.39777 1.65229 0
M  V30 6558 N 613.412 0.11024 1.57214 0
M  V30 6559 C 614.344 -0.873497 2.11902 0
M  V30 6560 C 615.357 -1.23588 1.05971 0
M  V30 6561 O 616.546 -1.18636 1.33371 0
M  V30 6562 C 613.646 -2.17805 2.59643 0
M  V30 6563 C 612.819 -1.98869 3.89576 0
M  V30 6564 C 611.878 -3.12974 4.23006 0
M  V30 6565 O 610.904 -2.86272 4.91973 0
M  V30 6566 N 612.106 -4.39167 3.79622 0
M  V30 6567 H 614.871 -0.406317 2.96933 0
M  V30 6568 H 612.432 -0.074437 1.61729 0
M  V30 6569 H 614.424 -2.93117 2.79042 0
M  V30 6570 H 612.994 -2.55899 1.7954 0
M  V30 6571 H 612.214 -1.078 3.79174 0
M  V30 6572 H 613.502 -1.83512 4.74553 0
M  V30 6573 H 612.9 -4.63739 3.2398 0
M  V30 6574 H 611.457 -5.11379 4.04147 0
M  V30 6575 N 614.89 -1.56749 -0.16351 0
M  V30 6576 C 616.306 -1.51043 -0.515567 0
M  V30 6577 C 616.506 -0.815855 -1.84245 0
M  V30 6578 O 615.562 -0.379477 -2.49632 0
M  V30 6579 C 616.875 -2.95791 -0.541114 0
M  V30 6580 C 618.423 -3.0664 -0.627776 0
M  V30 6581 C 618.898 -4.52861 -0.684141 0
M  V30 6582 N 620.389 -4.5714 -0.746818 0
M  V30 6583 C 621.124 -5.67634 -0.811137 0
M  V30 6584 N 620.62 -6.8774 -0.835811 0
M  V30 6585 N 622.413 -5.55624 -0.850756 0
M  V30 6586 H 614.564 -2.00307 0.70645 0
M  V30 6587 H 616.827 -0.912876 0.255659 0
M  V30 6588 H 616.533 -3.49797 0.365329 0
M  V30 6589 H 616.407 -3.50858 -1.38487 0
M  V30 6590 H 618.794 -2.52663 -1.52464 0
M  V30 6591 H 618.875 -2.54645 0.242805 0
M  V30 6592 H 618.519 -5.07472 0.2085 0
M  V30 6593 H 618.449 -5.02621 -1.57098 0
M  V30 6594 H 620.94 -3.70669 -0.735717 0
M  V30 6595 H 621.253 -7.67701 -0.886279 0
M  V30 6596 H 619.598 -6.90334 -0.803958 0
M  V30 6597 H 622.789 -4.60709 -0.828535 0
M  V30 6598 H 622.962 -6.41756 -0.897418 0
M  V30 6599 N 616.368 0.432326 -1.51554 0
M  V30 6600 C 617.331 1.50765 -1.72634 0
M  V30 6601 C 618.331 1.49334 -0.596314 0
M  V30 6602 O 619.521 1.51268 -0.863925 0
M  V30 6603 C 616.653 2.90284 -1.7874 0
M  V30 6604 H 617.846 1.33377 -2.68609 0
M  V30 6605 H 615.399 0.661329 -1.4162 0
M  V30 6606 H 616.134 3.13071 -0.845977 0
M  V30 6607 H 615.919 2.92727 -2.6087 0
M  V30 6608 H 617.409 3.68282 -1.96871 0
M  V30 6609 N 617.846 1.41785 0.688094 0
M  V30 6610 C 618.794 1.44436 1.82321 0
M  V30 6611 C 619.788 0.321544 1.6632 0
M  V30 6612 O 620.994 0.493931 1.73091 0
M  V30 6613 H 617.369 0.452084 0.600936 0
M  V30 6614 H 619.34 2.40087 1.77202 0
M  V30 6615 C 618.089 1.35071 3.20392 0
M  V30 6616 H 617.412 2.2076 3.33324 0
M  V30 6617 H 618.852 1.40988 3.99873 0
M  V30 6618 C 617.311 0.0639127 3.36839 0
M  V30 6619 O 617.841 -0.888495 3.91751 0
M  V30 6620 N 616.047 -0.0146114 2.90596 0
M  V30 6621 H 615.594 0.761191 2.46097 0
M  V30 6622 H 615.552 -0.874988 3.01979 0
M  V30 6623 N 619.324 -0.923095 1.27737 0
M  V30 6624 C 620.549 -1.71054 1.17283 0
M  V30 6625 C 620.974 -1.86208 -0.266153 0
M  V30 6626 O 620.332 -1.36545 -1.1927 0
M  V30 6627 C 620.38 -3.0854 1.86642 0
M  V30 6628 O 619.484 -3.95528 1.16752 0
M  V30 6629 H 618.825 -0.524136 0.407649 0
M  V30 6630 H 621.355 -1.15487 1.6889 0
M  V30 6631 H 621.365 -3.58828 1.94182 0
M  V30 6632 H 620.04 -2.96828 2.91317 0
M  V30 6633 H 618.617 -3.53967 1.17312 0
M  V30 6634 N 620.802 -1.09834 -1.13024 0
M  V30 6635 C 622.048 -0.83819 -1.84668 0
M  V30 6636 C 622.381 0.634645 -1.83537 0
M  V30 6637 O 621.656 1.46753 -1.27647 0
M  V30 6638 C 621.939 -1.37933 -3.32636 0
M  V30 6639 C 621.792 -2.91857 -3.42257 0
M  V30 6640 C 623.111 -1.01654 -4.28199 0
M  V30 6641 H 620.23 -0.30595 -0.670495 0
M  V30 6642 H 622.872 -1.36044 -1.32635 0
M  V30 6643 H 621.022 -0.935111 -3.77078 0
M  V30 6644 H 622.694 -3.44759 -3.06495 0
M  V30 6645 H 620.937 -3.28776 -2.83 0
M  V30 6646 H 621.608 -3.24799 -4.46329 0
M  V30 6647 H 624.084 -1.39973 -3.9185 0
M  V30 6648 H 622.96 -1.42217 -5.30156 0
M  V30 6649 H 623.221 0.0747794 -4.42037 0
M  V30 6650 N 622.28 1.30327 -0.886154 0
M  V30 6651 C 623.508 2.00254 -0.520176 0
M  V30 6652 C 623.923 1.66419 0.891637 0
M  V30 6653 O 623.28 0.901951 1.58654 0
M  V30 6654 C 623.331 3.54916 -0.686775 0
M  V30 6655 O 623.052 3.87547 -2.04301 0
M  V30 6656 C 624.553 4.42115 -0.323945 0
M  V30 6657 H 621.773 0.640204 -0.200947 0
M  V30 6658 H 624.317 1.66183 -1.19178 0
M  V30 6659 H 622.472 3.8735 -0.0625273 0
M  V30 6660 H 622.886 4.82247 -2.06249 0
M  V30 6661 H 624.36 5.49808 -0.491407 0
M  V30 6662 H 624.837 4.32953 0.73811 0
M  V30 6663 H 625.443 4.15129 -0.924565 0
M  V30 6664 N 623.758 0.647228 1.43697 0
M  V30 6665 C 625.004 0.158422 2.0218 0
M  V30 6666 C 625.337 -1.22233 1.50907 0
M  V30 6667 O 624.612 -1.81478 0.699702 0
M  V30 6668 C 624.895 0.1627 3.59732 0
M  V30 6669 C 624.748 1.57694 4.21251 0
M  V30 6670 C 626.067 -0.504138 4.37203 0
M  V30 6671 H 623.186 0.059042 0.734631 0
M  V30 6672 H 625.828 0.826772 1.71069 0
M  V30 6673 H 623.978 -0.406414 3.86368 0
M  V30 6674 H 625.65 2.19618 4.05667 0
M  V30 6675 H 623.893 2.12603 3.7813 0
M  V30 6676 H 624.564 1.53183 5.3032 0
M  V30 6677 H 627.04 -0.0199841 4.16095 0
M  V30 6678 H 625.916 -0.470394 5.46881 0
M  V30 6679 H 626.177 -1.57726 4.13007 0
M  V30 6680 N 625.236 -1.5273 0.388769 0
M  V30 6681 C 626.513 -1.93981 -0.251133 0
M  V30 6682 C 626.893 -1.32418 -1.64404 0
M  V30 6683 O 626.241 -0.492074 -2.23139 0
M  V30 6684 C 626.451 -3.47891 -0.27802 0
M  V30 6685 C 627.799 -4.21559 -0.507229 0
M  V30 6686 O 628.823 -3.54394 -0.358252 0
M  V30 6687 O 627.682 -5.40626 -0.799094 0
M  V30 6688 H 624.776 -0.812157 -0.15598 0
M  V30 6689 H 627.322 -1.63809 0.443237 0
M  V30 6690 H 626.094 -3.8503 0.697669 0
M  V30 6691 H 625.717 -3.84364 -1.01733 0
M  V30 6692 N 626.714 -0.118576 -1.57153 0
M  V30 6693 C 627.962 0.538461 -1.94795 0
M  V30 6694 C 628.283 1.67243 -1.00274 0
M  V30 6695 O 627.553 1.95811 -0.0589692 0
M  V30 6696 H 626.133 0.201904 -0.719197 0
M  V30 6697 H 628.795 -0.187418 -1.93997 0
M  V30 6698 H 627.891 0.933315 -2.97818 0
M  V30 6699 N 628.193 1.56834 0.155195 0
M  V30 6700 C 629.125 1.94235 1.21677 0
M  V30 6701 C 630.138 0.83724 1.39621 0
M  V30 6702 O 631.327 1.11567 1.39338 0
M  V30 6703 C 628.427 2.19402 2.58294 0
M  V30 6704 C 627.6 3.50671 2.61436 0
M  V30 6705 C 626.659 3.64475 3.79532 0
M  V30 6706 O 625.685 4.36945 3.64784 0
M  V30 6707 N 626.887 3.00526 4.96653 0
M  V30 6708 H 629.652 2.85901 0.898932 0
M  V30 6709 H 627.213 1.58185 0.34483 0
M  V30 6710 H 629.205 2.25886 3.35794 0
M  V30 6711 H 627.775 1.34042 2.82403 0
M  V30 6712 H 626.995 3.55702 1.69912 0
M  V30 6713 H 628.283 4.3702 2.60559 0
M  V30 6714 H 627.681 2.41549 5.11538 0
M  V30 6715 H 626.238 3.12583 5.71958 0
M  V30 6716 N 629.671 -0.424282 1.51781 0
M  V30 6717 C 630.919 -1.17028 1.64769 0
M  V30 6718 C 631.24 -1.91409 0.372523 0
M  V30 6719 O 630.51 -1.86091 -0.612108 0
M  V30 6720 H 629.09 -0.434992 0.607282 0
M  V30 6721 H 631.752 -0.485169 1.88765 0
M  V30 6722 H 630.848 -1.8927 2.4816 0
M  V30 6723 N 631.149 -1.42148 -0.680565 0
M  V30 6724 C 632.079 -1.4796 -1.80638 0
M  V30 6725 C 633.06 -0.336728 -1.66734 0
M  V30 6726 O 634.245 -0.550247 -1.86242 0
M  V30 6727 C 631.375 -1.37569 -3.18892 0
M  V30 6728 C 630.329 -2.49823 -3.47524 0
M  V30 6729 C 629.655 -2.24491 -4.85291 0
M  V30 6730 C 630.955 -3.92144 -3.44994 0
M  V30 6731 H 632.649 -2.42184 -1.76032 0
M  V30 6732 H 630.195 -1.16566 -0.845481 0
M  V30 6733 H 632.148 -1.40243 -3.97379 0
M  V30 6734 H 630.872 -0.398357 -3.24162 0
M  V30 6735 H 629.531 -2.46455 -2.71395 0
M  V30 6736 H 629.179 -1.25066 -4.87204 0
M  V30 6737 H 628.879 -2.99722 -5.05411 0
M  V30 6738 H 630.403 -2.28906 -5.66069 0
M  V30 6739 H 631.817 -3.97145 -4.13459 0
M  V30 6740 H 630.214 -4.67179 -3.76648 0
M  V30 6741 H 631.284 -4.19225 -2.43676 0
M  V30 6742 N 632.627 0.916307 -1.28225 0
M  V30 6743 C 633.559 2.02303 -1.07732 0
M  V30 6744 C 634.572 1.62773 -0.0298421 0
M  V30 6745 O 635.761 1.76406 -0.272626 0
M  V30 6746 C 632.861 3.33282 -0.614504 0
M  V30 6747 C 632.034 4.01439 -1.73682 0
M  V30 6748 C 631.093 5.10698 -1.26781 0
M  V30 6749 O 630.119 5.34038 -1.96958 0
M  V30 6750 N 631.321 5.80355 -0.129624 0
M  V30 6751 H 634.086 2.20442 -2.03041 0
M  V30 6752 H 631.647 1.08744 -1.19943 0
M  V30 6753 H 633.639 4.03699 -0.284397 0
M  V30 6754 H 632.209 3.11633 0.245664 0
M  V30 6755 H 631.429 3.24604 -2.23665 0
M  V30 6756 H 632.717 4.43721 -2.48976 0
M  V30 6757 H 632.115 5.6386 0.455847 0
M  V30 6758 H 630.672 6.51647 0.141224 0
M  V30 6759 N 634.105 1.10431 1.1244 0
M  V30 6760 C 635.351 0.847972 1.84221 0
M  V30 6761 C 635.684 -0.624903 1.83871 0
M  V30 6762 O 634.959 -1.46074 1.28423 0
M  V30 6763 C 635.242 1.39695 3.319 0
M  V30 6764 C 635.095 2.93668 3.40704 0
M  V30 6765 C 636.414 1.03924 4.27654 0
M  V30 6766 H 633.533 0.309502 0.668863 0
M  V30 6767 H 636.175 1.36745 1.31912 0
M  V30 6768 H 634.325 0.955095 3.76577 0
M  V30 6769 H 635.997 3.46379 3.04662 0
M  V30 6770 H 634.24 3.30272 2.81252 0
M  V30 6771 H 634.911 3.27162 4.446 0
M  V30 6772 H 637.387 1.42049 3.91102 0
M  V30 6773 H 636.263 1.45027 5.29394 0
M  V30 6774 H 636.524 -0.051336 4.4207 0
M  V30 6775 N 635.583 -1.29855 0.893053 0
M  V30 6776 C 636.811 -1.99976 0.530788 0
M  V30 6777 C 637.226 -1.66889 -0.882799 0
M  V30 6778 O 636.583 -0.910352 -1.58173 0
M  V30 6779 C 636.634 -3.54547 0.705587 0
M  V30 6780 O 636.355 -3.86458 2.06353 0
M  V30 6781 C 637.856 -4.41937 0.347387 0
M  V30 6782 H 635.076 -0.639129 0.204339 0
M  V30 6783 H 637.62 -1.65549 1.20057 0
M  V30 6784 H 635.775 -3.87311 0.0830685 0
M  V30 6785 H 636.189 -4.81146 2.08803 0
M  V30 6786 H 637.663 -5.4954 0.520557 0
M  V30 6787 H 638.14 -4.33339 -0.715139 0
M  V30 6788 H 638.746 -4.14633 0.946567 0
M  V30 6789 N 637.061 -0.65484 -1.43351 0
M  V30 6790 C 638.472 -0.248506 -1.85039 0
M  V30 6791 C 638.823 1.20526 -1.54816 0
M  V30 6792 O 637.948 1.92016 -0.99794 0
M  V30 6793 C 638.543 -0.444241 -3.35875 0
M  V30 6794 C 637.102 -0.0922108 -3.76287 0
M  V30 6795 C 636.249 -0.746327 -2.67068 0
M  V30 6796 H 639.2 -0.8584 -1.33481 0
M  V30 6797 H 639.221 0.309762 -3.79237 0
M  V30 6798 H 638.733 -1.50239 -3.5784 0
M  V30 6799 H 636.834 0.96328 -3.59933 0
M  V30 6800 H 636.947 -0.518807 -4.76283 0
M  V30 6801 H 635.311 -0.179416 -2.54067 0
M  V30 6802 H 636.094 -1.80754 -2.91861 0
M  V30 6803 N 638.539 1.52521 -0.396863 0
M  V30 6804 C 639.785 2.01971 0.183169 0
M  V30 6805 C 640.118 1.2825 1.45827 0
M  V30 6806 O 639.393 0.385179 1.90648 0
M  V30 6807 C 639.676 3.5736 0.443391 0
M  V30 6808 C 639.529 4.41743 -0.84753 0
M  V30 6809 C 640.848 4.22539 1.2308 0
M  V30 6810 H 637.967 0.734119 0.0650976 0
M  V30 6811 H 640.609 1.82519 -0.527918 0
M  V30 6812 H 638.759 3.74066 1.04914 0
M  V30 6813 H 640.431 4.36773 -1.48414 0
M  V30 6814 H 638.674 4.0845 -1.4612 0
M  V30 6815 H 639.345 5.48507 -0.620003 0
M  V30 6816 H 641.821 4.09857 0.718084 0
M  V30 6817 H 640.697 5.31227 1.38162 0
M  V30 6818 H 640.958 3.80675 2.24808 0
M  V30 6819 N 640.017 0.126909 1.57088 0
M  V30 6820 C 641.428 -0.397201 1.82426 0
M  V30 6821 C 641.779 -1.66084 1.04453 0
M  V30 6822 O 640.904 -2.14534 0.283552 0
M  V30 6823 C 641.499 -0.727411 3.30899 0
M  V30 6824 C 640.058 -1.19612 3.56889 0
M  V30 6825 C 639.205 -0.20885 2.76512 0
M  V30 6826 H 642.156 0.351924 1.54749 0
M  V30 6827 H 642.177 -1.58407 3.45959 0
M  V30 6828 H 641.689 0.19247 3.87622 0
M  V30 6829 H 639.79 -2.13263 3.05532 0
M  V30 6830 H 639.903 -1.13598 4.65438 0
M  V30 6831 H 638.267 -0.697479 2.44964 0
M  V30 6832 H 639.05 0.704267 3.35998 0
M  V30 6833 N 641.495 -1.56914 -0.146875 0
M  V30 6834 C 642.743 -1.82994 -0.85777 0
M  V30 6835 C 643.064 -0.707814 -1.817 0
M  V30 6836 O 642.334 0.270521 -1.94023 0
M  V30 6837 H 640.914 -0.675106 -0.319751 0
M  V30 6838 H 643.576 -1.9439 -0.140849 0
M  V30 6839 H 642.672 -2.77928 -1.41994 0
M  V30 6840 N 642.974 0.416227 -1.52004 0
M  V30 6841 C 644.202 1.18573 -1.69553 0
M  V30 6842 C 644.617 1.84472 -0.401919 0
M  V30 6843 O 643.974 1.71593 0.621463 0
M  V30 6844 C 644.025 2.25413 -2.82615 0
M  V30 6845 O 643.746 1.62205 -4.06966 0
M  V30 6846 C 645.247 3.15297 -3.11613 0
M  V30 6847 H 642.467 0.356582 -0.56841 0
M  V30 6848 H 645.011 0.490618 -1.98528 0
M  V30 6849 H 643.166 2.90604 -2.56179 0
M  V30 6850 H 643.58 2.3298 -4.69916 0
M  V30 6851 H 645.054 3.86351 -3.94255 0
M  V30 6852 H 645.531 3.77264 -2.24874 0
M  V30 6853 H 646.137 2.55783 -3.39787 0
M  V30 6854 N 644.452 1.42507 0.673017 0
M  V30 6855 C 645.402 1.4258 1.77919 0
M  V30 6856 C 646.386 0.296885 1.58137 0
M  V30 6857 O 647.578 0.539243 1.68586 0
M  V30 6858 C 644.707 1.33238 3.1639 0
M  V30 6859 C 643.793 2.51081 3.41788 0
M  V30 6860 N 644.184 3.76498 3.37761 0
M  V30 6861 C 642.482 2.4538 3.72431 0
M  V30 6862 C 643.183 4.54784 3.62693 0
M  V30 6863 N 642.159 3.8522 3.83544 0
M  V30 6864 H 645.961 2.37442 1.73201 0
M  V30 6865 H 643.475 1.36881 0.873924 0
M  V30 6866 H 645.472 1.31372 3.9566 0
M  V30 6867 H 644.132 0.393794 3.22303 0
M  V30 6868 H 645.143 4.09068 3.17622 0
M  V30 6869 H 641.82 1.60109 3.85579 0
M  V30 6870 H 643.21 5.63774 3.65525 0
M  V30 6871 N 645.93 -0.909495 1.28709 0
M  V30 6872 C 647.341 -1.47419 1.14563 0
M  V30 6873 C 647.692 -1.94432 -0.262832 0
M  V30 6874 O 646.817 -1.82842 -1.15748 0
M  V30 6875 C 647.412 -2.67933 2.07358 0
M  V30 6876 C 645.971 -3.20568 1.97264 0
M  V30 6877 C 645.118 -1.93269 1.98852 0
M  V30 6878 H 648.069 -0.721787 1.41336 0
M  V30 6879 H 648.09 -3.43339 1.64007 0
M  V30 6880 H 647.602 -2.33685 3.09859 0
M  V30 6881 H 645.703 -3.59531 0.978157 0
M  V30 6882 H 645.816 -3.85529 2.84436 0
M  V30 6883 H 644.18 -2.10553 1.43317 0
M  V30 6884 H 644.963 -1.61312 3.0304 0
M  V30 6885 N 647.408 -1.11026 -1.11852 0
M  V30 6886 C 648.338 -0.786812 -2.19844 0
M  V30 6887 C 649.319 0.242935 -1.68356 0
M  V30 6888 O 650.504 0.107355 -1.93903 0
M  V30 6889 C 647.634 -0.224516 -3.46574 0
M  V30 6890 C 646.588 -1.18564 -4.1125 0
M  V30 6891 C 645.914 -0.484261 -5.32503 0
M  V30 6892 C 647.214 -2.53465 -4.56676 0
M  V30 6893 H 648.908 -1.68978 -2.47158 0
M  V30 6894 H 646.454 -0.813906 -1.18792 0
M  V30 6895 H 648.407 0.0139435 -4.21398 0
M  V30 6896 H 647.131 0.713722 -3.18706 0
M  V30 6897 H 645.79 -1.40966 -3.38414 0
M  V30 6898 H 645.438 0.458646 -5.00905 0
M  V30 6899 H 645.138 -1.12526 -5.76725 0
M  V30 6900 H 646.662 -0.254492 -6.10069 0
M  V30 6901 H 648.076 -2.35177 -5.22843 0
M  V30 6902 H 646.473 -3.13507 -5.11697 0
M  V30 6903 H 647.543 -3.13008 -3.70343 0
M  V30 6904 N 648.886 1.2938 -0.899927 0
M  V30 6905 C 649.816 2.30144 -0.39446 0
M  V30 6906 C 650.797 1.61611 0.530639 0
M  V30 6907 O 651.982 1.89119 0.441319 0
M  V30 6908 C 649.112 3.45229 0.37868 0
M  V30 6909 C 648.066 4.25564 -0.456012 0
M  V30 6910 C 647.392 5.32848 0.444637 0
M  V30 6911 C 648.692 4.93651 -1.70605 0
M  V30 6912 H 650.386 2.72673 -1.23653 0
M  V30 6913 H 647.932 1.31086 -0.596034 0
M  V30 6914 H 649.885 4.14797 0.743037 0
M  V30 6915 H 648.609 3.01545 1.25453 0
M  V30 6916 H 647.268 3.57704 -0.802704 0
M  V30 6917 H 646.916 4.85408 1.31863 0
M  V30 6918 H 646.616 5.87497 -0.110154 0
M  V30 6919 H 648.14 6.05268 0.805182 0
M  V30 6920 H 649.554 5.55655 -1.41141 0
M  V30 6921 H 647.951 5.58233 -2.20217 0
M  V30 6922 H 649.021 4.18926 -2.4419 0
M  V30 6923 N 650.364 0.662433 1.43002 0
M  V30 6924 C 651.61 0.179857 2.02001 0
M  V30 6925 C 651.943 -1.20625 1.52195 0
M  V30 6926 O 651.218 -1.80726 0.718911 0
M  V30 6927 C 651.501 0.200845 3.59539 0
M  V30 6928 C 651.354 1.62153 4.19555 0
M  V30 6929 C 652.673 -0.457738 4.37713 0
M  V30 6930 H 649.792 0.0668305 0.733964 0
M  V30 6931 H 652.434 0.84487 1.70182 0
M  V30 6932 H 650.584 -0.365411 3.86778 0
M  V30 6933 H 652.256 2.23908 4.03315 0
M  V30 6934 H 650.499 2.16601 3.75854 0
M  V30 6935 H 651.17 1.58799 5.28665 0
M  V30 6936 H 653.646 0.0241495 4.16093 0
M  V30 6937 H 652.522 -0.412363 5.47349 0
M  V30 6938 H 652.783 -1.53336 4.14657 0
M  V30 6939 N 651.842 -1.52309 0.404946 0
M  V30 6940 C 653.089 -2.01767 -0.1722 0
M  V30 6941 C 653.417 -1.29075 -1.45498 0
M  V30 6942 O 652.672 -0.3843 -1.9189 0
M  V30 6943 C 652.971 -3.54284 -0.470895 0
M  V30 6944 C 652.637 -4.45079 0.722194 0
M  V30 6945 C 651.299 -4.69617 1.04946 0
M  V30 6946 C 653.651 -4.98555 1.51962 0
M  V30 6947 C 650.979 -5.44878 2.17543 0
M  V30 6948 C 653.331 -5.75049 2.63632 0
M  V30 6949 C 651.995 -5.9786 2.9685 0
M  V30 6950 H 651.265 -0.738316 -0.0630125 0
M  V30 6951 H 653.912 -1.83566 0.545506 0
M  V30 6952 H 652.217 -3.70642 -1.27012 0
M  V30 6953 H 653.914 -3.90058 -0.930346 0
M  V30 6954 H 650.504 -4.26155 0.457131 0
M  V30 6955 H 654.688 -4.79509 1.28002 0
M  V30 6956 H 649.944 -5.60762 2.43631 0
M  V30 6957 H 654.118 -6.15483 3.25813 0
M  V30 6958 H 651.745 -6.5596 3.84215 0
M  V30 6959 N 653.32 -0.135238 -1.57019 0
M  V30 6960 C 654.566 0.519563 -1.96032 0
M  V30 6961 C 654.899 1.65284 -1.01955 0
M  V30 6962 O 654.174 1.94408 -0.059727 0
M  V30 6963 C 654.457 1.0369 -3.44848 0
M  V30 6964 C 654.31 -0.0940754 -4.49702 0
M  V30 6965 C 655.629 1.92254 -3.95887 0
M  V30 6966 H 652.748 0.18739 -0.712779 0
M  V30 6967 H 655.39 -0.214086 -1.8879 0
M  V30 6968 H 653.54 1.66209 -3.5115 0
M  V30 6969 H 655.212 -0.73 -4.55487 0
M  V30 6970 H 653.455 -0.754924 -4.27181 0
M  V30 6971 H 654.126 0.309419 -5.51132 0
M  V30 6972 H 656.602 1.39581 -3.9199 0
M  V30 6973 H 655.478 2.25364 -5.00502 0
M  V30 6974 H 655.739 2.85513 -3.37543 0
M  V30 6975 N 654.798 1.5699 0.138552 0
M  V30 6976 C 655.746 1.99858 1.18994 0
M  V30 6977 C 656.74 0.89231 1.43994 0
M  V30 6978 O 657.946 1.0775 1.44187 0
M  V30 6979 H 654.321 0.636325 0.400743 0
M  V30 6980 H 656.292 2.87427 0.801755 0
M  V30 6981 C 655.041 2.40235 2.51361 0
M  V30 6982 H 654.364 3.24917 2.32957 0
M  V30 6983 H 655.804 2.74045 3.23535 0
M  V30 6984 C 654.263 1.25829 3.1252 0
M  V30 6985 O 654.793 0.563604 3.97727 0
M  V30 6986 N 652.999 1.02036 2.72097 0
M  V30 6987 H 652.546 1.58705 2.02905 0
M  V30 6988 H 652.504 0.256796 3.1335 0
M  V30 6989 N 656.276 -0.40816 1.52223 0
M  V30 6990 C 657.687 -0.986929 1.58482 0
M  V30 6991 C 658.038 -1.91521 0.425917 0
M  V30 6992 O 657.163 -2.11593 -0.453593 0
M  V30 6993 C 657.758 -1.7967 2.87235 0
M  V30 6994 C 656.317 -2.32549 2.9597 0
M  V30 6995 C 655.464 -1.12558 2.53428 0
M  V30 6996 H 658.415 -0.188362 1.57578 0
M  V30 6997 H 658.436 -2.65417 2.72642 0
M  V30 6998 H 657.948 -1.12082 3.71563 0
M  V30 6999 H 656.049 -3.03505 2.16137 0
M  V30 7000 H 656.162 -2.63348 4.00231 0
M  V30 7001 H 654.526 -1.47984 2.07299 0
M  V30 7002 H 655.309 -0.465351 3.40131 0
M  V30 7003 N 657.755 -1.42862 -0.66545 0
M  V30 7004 C 658.702 -1.4707 -1.77874 0
M  V30 7005 C 659.672 -0.321654 -1.62956 0
M  V30 7006 O 660.857 -0.52707 -1.83376 0
M  V30 7007 C 657.997 -1.38788 -3.15962 0
M  V30 7008 C 657.11 -2.63801 -3.42101 0
M  V30 7009 C 656.245 -2.47594 -4.69969 0
M  V30 7010 C 655.284 -3.67936 -4.89172 0
M  V30 7011 N 654.421 -3.50614 -6.08288 0
M  V30 7012 H 659.261 -2.42204 -1.73613 0
M  V30 7013 H 656.798 -1.20239 -0.847401 0
M  V30 7014 H 658.756 -1.31982 -3.95773 0
M  V30 7015 H 657.386 -0.472431 -3.19324 0
M  V30 7016 H 656.438 -2.80935 -2.56475 0
M  V30 7017 H 657.75 -3.53228 -3.52181 0
M  V30 7018 H 656.904 -2.38427 -5.57886 0
M  V30 7019 H 655.643 -1.55672 -4.62188 0
M  V30 7020 H 654.648 -3.77525 -3.99694 0
M  V30 7021 H 655.873 -4.60851 -4.98792 0
M  V30 7022 H 653.819 -2.61417 -6.01662 0
M  V30 7023 H 653.736 -4.33634 -6.19272 0
M  V30 7024 H 655.004 -3.45276 -6.98859 0
M  V30 7025 N 659.233 0.902656 -1.29189 0
M  V30 7026 C 660.458 1.69167 -1.19989 0
M  V30 7027 C 660.883 1.86607 0.236495 0
M  V30 7028 O 660.241 1.38425 1.17082 0
M  V30 7029 C 660.289 3.05532 -1.91527 0
M  V30 7030 O 659.393 3.93621 -1.2303 0
M  V30 7031 H 658.734 0.517584 -0.415936 0
M  V30 7032 H 661.264 1.12785 -1.70706 0
M  V30 7033 H 661.274 3.55693 -1.99866 0
M  V30 7034 H 659.949 2.92156 -2.96003 0
M  V30 7035 H 658.526 3.52055 -1.22928 0
M  V30 7036 N 660.711 1.11618 1.11262 0
M  V30 7037 C 661.959 0.864469 1.82678 0
M  V30 7038 C 662.28 -0.611564 1.85162 0
M  V30 7039 O 661.55 -1.44429 1.32352 0
M  V30 7040 H 660.13 0.316821 0.676486 0
M  V30 7041 H 662.792 1.40894 1.34666 0
M  V30 7042 H 661.888 1.23832 2.86482 0
M  V30 7043 N 662.189 -1.289 0.906776 0
M  V30 7044 C 663.437 -1.94883 0.535266 0
M  V30 7045 C 663.758 -1.71784 -0.922791 0
M  V30 7046 O 663.028 -1.05359 -1.65156 0
M  V30 7047 H 661.608 -0.721109 0.194962 0
M  V30 7048 H 664.27 -1.57018 1.15461 0
M  V30 7049 H 663.366 -3.03591 0.723821 0
M  V30 7050 N 663.667 -0.670007 -1.42649 0
M  V30 7051 C 664.614 0.0112928 -2.30797 0
M  V30 7052 C 665.584 0.797627 -1.45695 0
M  V30 7053 O 666.769 0.770845 -1.74535 0
M  V30 7054 C 663.909 0.95998 -3.31479 0
M  V30 7055 C 663.022 0.167975 -4.31673 0
M  V30 7056 C 662.157 1.11198 -5.19431 0
M  V30 7057 C 661.196 0.311381 -6.11307 0
M  V30 7058 N 660.333 1.20784 -6.91633 0
M  V30 7059 H 665.173 -0.746231 -2.88505 0
M  V30 7060 H 662.71 -0.379739 -1.42114 0
M  V30 7061 H 664.668 1.52379 -3.88377 0
M  V30 7062 H 663.298 1.68419 -2.75382 0
M  V30 7063 H 662.35 -0.512385 -3.76933 0
M  V30 7064 H 663.662 -0.453814 -4.96731 0
M  V30 7065 H 662.816 1.74587 -5.81037 0
M  V30 7066 H 661.555 1.76766 -4.54538 0
M  V30 7067 H 660.56 -0.335758 -5.48774 0
M  V30 7068 H 661.785 -0.340135 -6.78248 0
M  V30 7069 H 659.731 1.85001 -6.29373 0
M  V30 7070 H 659.648 0.64102 -7.53277 0
M  V30 7071 H 660.916 1.82936 -7.5773 0
M  V30 7072 N 665.145 1.52092 -0.413018 0
M  V30 7073 C 666.077 2.24819 0.445994 0
M  V30 7074 C 667.09 1.27925 1.00692 0
M  V30 7075 O 668.279 1.53845 0.905204 0
M  V30 7076 C 665.379 2.96951 1.6332 0
M  V30 7077 C 664.552 4.20746 1.19548 0
M  V30 7078 C 663.611 4.75668 2.25003 0
M  V30 7079 O 662.637 5.38148 1.85434 0
M  V30 7080 N 663.839 4.57579 3.57214 0
M  V30 7081 H 666.604 2.99176 -0.177209 0
M  V30 7082 H 664.165 1.60102 -0.240601 0
M  V30 7083 H 666.157 3.30586 2.33441 0
M  V30 7084 H 664.727 2.25756 2.16225 0
M  V30 7085 H 663.947 3.92881 0.32224 0
M  V30 7086 H 665.235 5.01132 0.880033 0
M  V30 7087 H 664.633 4.07758 3.92109 0
M  V30 7088 H 663.19 4.95642 4.23299 0
M  V30 7089 N 666.623 0.143563 1.56945 0
M  V30 7090 C 667.871 -0.507402 1.95627 0
M  V30 7091 C 668.192 -1.65626 1.02922 0
M  V30 7092 O 667.462 -1.95693 0.0901136 0
M  V30 7093 H 666.042 -0.190436 0.722318 0
M  V30 7094 H 668.704 0.218257 1.93674 0
M  V30 7095 H 667.8 -0.885816 2.99265 0
M  V30 7096 N 668.101 -1.57061 -0.130224 0
M  V30 7097 C 669.011 -2.02802 -1.17934 0
M  V30 7098 C 670.027 -0.946378 -1.46013 0
M  V30 7099 O 671.203 -1.25708 -1.57351 0
M  V30 7100 C 668.268 -2.41368 -2.48882 0
M  V30 7101 C 667.329 -3.63561 -2.28301 0
M  V30 7102 C 666.562 -4.00279 -3.53005 0
M  V30 7103 O 666.785 -3.37463 -4.59864 0
M  V30 7104 O 665.719 -4.93441 -3.44673 0
M  V30 7105 H 669.545 -2.92394 -0.820958 0
M  V30 7106 H 667.13 -1.45475 -0.340197 0
M  V30 7107 H 669.012 -2.66958 -3.26054 0
M  V30 7108 H 667.687 -1.54926 -2.84217 0
M  V30 7109 H 666.594 -3.43136 -1.49025 0
M  V30 7110 H 667.927 -4.50673 -1.97875 0
M  V30 7111 N 669.579 0.400081 -1.52437 0
M  V30 7112 C 670.995 0.739359 -1.41441 0
M  V30 7113 C 671.195 1.94512 -0.526053 0
M  V30 7114 O 670.251 2.525 0.00472502 0
M  V30 7115 C 671.564 0.984824 -2.84116 0
M  V30 7116 C 673.112 1.08698 -2.93519 0
M  V30 7117 C 673.587 1.36515 -4.37181 0
M  V30 7118 N 675.078 1.43361 -4.40457 0
M  V30 7119 C 675.813 1.66528 -5.48686 0
M  V30 7120 N 675.309 1.87239 -6.67018 0
M  V30 7121 N 677.102 1.68617 -5.36213 0
M  V30 7122 H 669.253 -0.393484 -2.08723 0
M  V30 7123 H 671.516 -0.1138 -0.941145 0
M  V30 7124 H 671.222 0.171096 -3.51284 0
M  V30 7125 H 671.096 1.90253 -3.25705 0
M  V30 7126 H 673.483 1.89129 -2.26526 0
M  V30 7127 H 673.564 0.147432 -2.55375 0
M  V30 7128 H 673.208 0.565982 -5.04737 0
M  V30 7129 H 673.138 2.31737 -4.7287 0
M  V30 7130 H 675.629 1.29108 -3.55161 0
M  V30 7131 H 675.942 2.04392 -7.45281 0
M  V30 7132 H 674.287 1.84486 -6.70067 0
M  V30 7133 H 677.478 1.5198 -4.42741 0
M  V30 7134 H 677.651 1.86332 -6.20632 0
M  V30 7135 N 671.057 1.43213 0.657864 0
M  V30 7136 C 672.306 1.43871 1.41365 0
M  V30 7137 C 672.619 0.064898 1.95492 0
M  V30 7138 O 673.825 -0.0510796 2.71452 0
M  V30 7139 C 672.281 2.53158 2.55811 0
M  V30 7140 C 671.889 3.96624 2.08311 0
M  V30 7141 C 673.633 2.63004 3.3321 0
M  V30 7142 C 671.54 4.97385 3.1994 0
M  V30 7143 H 670.47 0.535174 0.531136 0
M  V30 7144 H 673.121 1.69185 0.710543 0
M  V30 7145 H 671.503 2.21037 3.2857 0
M  V30 7146 H 672.677 4.38182 1.42593 0
M  V30 7147 H 670.992 3.90781 1.43804 0
M  V30 7148 H 673.589 3.3546 4.16378 0
M  V30 7149 H 673.932 1.67918 3.80932 0
M  V30 7150 H 674.465 2.94403 2.67529 0
M  V30 7151 H 671.204 5.94007 2.77192 0
M  V30 7152 H 670.724 4.60444 3.84385 0
M  V30 7153 H 672.403 5.19877 3.85145 0
M  V30 7154 N 672.536 -0.895792 1.29666 0
M  V30 7155 C 673.766 -1.67757 1.20586 0
M  V30 7156 C 674.174 -1.87729 -0.235432 0
M  V30 7157 O 673.517 -1.41706 -1.16898 0
M  V30 7158 C 673.579 -3.08117 1.85215 0
M  V30 7159 C 673.243 -3.1136 3.3452 0
M  V30 7160 C 674.24 -2.91217 4.30684 0
M  V30 7161 C 671.925 -3.33302 3.75786 0
M  V30 7162 C 673.919 -2.92955 5.66089 0
M  V30 7163 C 671.606 -3.3467 5.11311 0
M  V30 7164 C 672.604 -3.14519 6.06273 0
M  V30 7165 O 672.292 -3.15684 7.39323 0
M  V30 7166 H 672.024 -0.530601 0.418854 0
M  V30 7167 H 674.578 -1.12831 1.71634 0
M  V30 7168 H 672.808 -3.64661 1.28683 0
M  V30 7169 H 674.497 -3.68399 1.70403 0
M  V30 7170 H 675.263 -2.74074 4.00136 0
M  V30 7171 H 671.142 -3.48025 3.02324 0
M  V30 7172 H 674.686 -2.77145 6.40185 0
M  V30 7173 H 670.583 -3.51346 5.41504 0
M  V30 7174 H 671.351 -3.31924 7.48177 0
M  V30 7175 N 674.014 -1.12206 -1.10668 0
M  V30 7176 C 675.43 -0.857619 -1.346 0
M  V30 7177 C 675.63 0.513542 -1.94846 0
M  V30 7178 O 674.686 1.26273 -2.18658 0
M  V30 7179 C 675.999 -1.97212 -2.26998 0
M  V30 7180 C 677.547 -2.00272 -2.40542 0
M  V30 7181 C 678.022 -3.10948 -3.36267 0
M  V30 7182 N 679.513 -3.10375 -3.43834 0
M  V30 7183 C 680.248 -3.92651 -4.17867 0
M  V30 7184 N 679.744 -4.84911 -4.94807 0
M  V30 7185 N 681.537 -3.80798 -4.1346 0
M  V30 7186 H 673.688 -2.00558 -0.699306 0
M  V30 7187 H 675.951 -0.872612 -0.370477 0
M  V30 7188 H 675.657 -2.96002 -1.89936 0
M  V30 7189 H 675.531 -1.87521 -3.27286 0
M  V30 7190 H 677.918 -1.02103 -2.76874 0
M  V30 7191 H 677.999 -2.14037 -1.40077 0
M  V30 7192 H 677.643 -4.09348 -3.00661 0
M  V30 7193 H 677.573 -2.94421 -4.36605 0
M  V30 7194 H 680.064 -2.43536 -2.88961 0
M  V30 7195 H 680.377 -5.44207 -5.48688 0
M  V30 7196 H 678.722 -4.88926 -4.93939 0
M  V30 7197 H 681.913 -3.08058 -3.52445 0
M  V30 7198 H 682.086 -4.4515 -4.70898 0
M  V30 7199 N 675.492 1.28418 -0.913599 0
M  V30 7200 C 676.439 2.27301 -0.400373 0
M  V30 7201 C 677.409 1.57582 0.52509 0
M  V30 7202 O 678.594 1.85482 0.447318 0
M  V30 7203 C 675.734 3.43284 0.35361 0
M  V30 7204 C 674.847 4.27752 -0.604341 0
M  V30 7205 C 673.982 5.30934 0.168075 0
M  V30 7206 C 673.021 6.07065 -0.783499 0
M  V30 7207 N 672.158 7.02086 -0.0446112 0
M  V30 7208 H 676.998 2.70579 -1.24865 0
M  V30 7209 H 674.535 1.33067 -0.627028 0
M  V30 7210 H 676.493 4.09322 0.806945 0
M  V30 7211 H 675.123 3.00997 1.16623 0
M  V30 7212 H 674.175 3.61759 -1.17621 0
M  V30 7213 H 675.487 4.80682 -1.33216 0
M  V30 7214 H 674.641 6.02855 0.681979 0
M  V30 7215 H 673.38 4.78771 0.928947 0
M  V30 7216 H 672.385 5.33995 -1.30878 0
M  V30 7217 H 673.61 6.61317 -1.54392 0
M  V30 7218 H 671.556 6.52273 0.698272 0
M  V30 7219 H 671.473 7.52637 -0.712258 0
M  V30 7220 H 672.741 7.78205 0.449102 0
M  V30 7221 N 676.97 0.677563 1.42291 0
M  V30 7222 C 678.217 0.200975 2.015 0
M  V30 7223 C 678.545 -1.19342 1.53583 0
M  V30 7224 O 677.8 -1.81579 0.7299 0
M  V30 7225 C 678.099 0.187229 3.56909 0
M  V30 7226 C 677.765 1.52667 4.24268 0
M  V30 7227 C 676.427 1.89341 4.42384 0
M  V30 7228 C 678.779 2.40869 4.62203 0
M  V30 7229 C 676.107 3.13836 4.95705 0
M  V30 7230 C 678.459 3.64679 5.16906 0
M  V30 7231 C 677.123 4.01519 5.33234 0
M  V30 7232 H 676.393 0.0735418 0.737342 0
M  V30 7233 H 679.04 0.873095 1.70439 0
M  V30 7234 H 677.345 -0.568407 3.87655 0
M  V30 7235 H 679.042 -0.198773 4.00507 0
M  V30 7236 H 675.632 1.23138 4.1053 0
M  V30 7237 H 679.816 2.1382 4.47878 0
M  V30 7238 H 675.072 3.42396 5.06532 0
M  V30 7239 H 679.246 4.33224 5.45243 0
M  V30 7240 H 676.873 4.98062 5.74316 0
M  V30 7241 N 678.448 -1.51871 0.421078 0
M  V30 7242 C 679.38 -2.25052 -0.434065 0
M  V30 7243 C 680.393 -1.28458 -1.00013 0
M  V30 7244 O 681.582 -1.54323 -0.897033 0
M  V30 7245 C 678.682 -2.97813 -1.61743 0
M  V30 7246 C 677.855 -4.21374 -1.17315 0
M  V30 7247 C 676.914 -4.76854 -2.22478 0
M  V30 7248 O 675.94 -5.39123 -1.82577 0
M  V30 7249 N 677.142 -4.59467 -3.54782 0
M  V30 7250 H 679.907 -2.99077 0.193073 0
M  V30 7251 H 677.468 -1.59972 0.249088 0
M  V30 7252 H 679.46 -3.3182 -2.31685 0
M  V30 7253 H 678.03 -2.26899 -2.15024 0
M  V30 7254 H 677.25 -3.93046 -0.3014 0
M  V30 7255 H 678.538 -5.01591 -0.853444 0
M  V30 7256 H 677.936 -4.09832 -3.89941 0
M  V30 7257 H 676.493 -4.9788 -4.20665 0
M  V30 7258 N 679.926 -0.151884 -1.56866 0
M  V30 7259 C 681.156 0.504081 -2.00356 0
M  V30 7260 C 681.564 1.58639 -1.03103 0
M  V30 7261 O 680.907 1.83688 -0.0207931 0
M  V30 7262 C 680.969 1.15975 -3.40279 0
M  V30 7263 C 680.633 0.221453 -4.56463 0
M  V30 7264 C 681.63 -0.552766 -5.16953 0
M  V30 7265 C 679.315 0.122936 -5.0215 0
M  V30 7266 C 681.309 -1.4129 -6.21543 0
M  V30 7267 C 678.996 -0.740801 -6.06593 0
M  V30 7268 C 679.994 -1.50732 -6.6616 0
M  V30 7269 O 679.682 -2.35666 -7.68581 0
M  V30 7270 H 679.414 0.135279 -0.662326 0
M  V30 7271 H 681.968 -0.244916 -2.03935 0
M  V30 7272 H 680.198 1.95649 -3.33554 0
M  V30 7273 H 681.887 1.71594 -3.67846 0
M  V30 7274 H 682.653 -0.486716 -4.82552 0
M  V30 7275 H 678.532 0.70931 -4.5551 0
M  V30 7276 H 682.076 -2.01166 -6.67966 0
M  V30 7277 H 677.973 -0.808125 -6.40421 0
M  V30 7278 H 678.741 -2.28967 -7.85822 0
M  V30 7279 N 681.404 1.57128 0.121893 0
M  V30 7280 C 682.334 2.03165 1.15092 0
M  V30 7281 C 683.315 0.915587 1.43356 0
M  V30 7282 O 684.5 1.1851 1.53847 0
M  V30 7283 C 681.63 2.43352 2.47784 0
M  V30 7284 C 680.584 3.58376 2.33989 0
M  V30 7285 C 679.91 3.84454 3.71617 0
M  V30 7286 C 681.21 4.90199 1.80283 0
M  V30 7287 H 682.904 2.89382 0.768023 0
M  V30 7288 H 680.45 1.39218 0.367998 0
M  V30 7289 H 682.403 2.74163 3.20019 0
M  V30 7290 H 681.127 1.54103 2.87958 0
M  V30 7291 H 679.786 3.2777 1.64202 0
M  V30 7292 H 679.434 2.92414 4.09271 0
M  V30 7293 H 679.134 4.61877 3.6324 0
M  V30 7294 H 680.658 4.17714 4.45362 0
M  V30 7295 H 682.072 5.19565 2.42333 0
M  V30 7296 H 680.469 5.71601 1.82735 0
M  V30 7297 H 681.539 4.78904 0.760184 0
M  V30 7298 N 682.882 -0.391992 1.52647 0
M  V30 7299 C 683.812 -1.48517 1.8018 0
M  V30 7300 C 684.793 -1.57039 0.653667 0
M  V30 7301 O 685.978 -1.72036 0.900962 0
M  V30 7302 C 683.108 -2.86161 1.96797 0
M  V30 7303 C 682.062 -2.92481 3.12472 0
M  V30 7304 C 681.388 -4.32546 3.14338 0
M  V30 7305 C 682.688 -2.624 4.51601 0
M  V30 7306 H 684.382 -1.25726 2.71723 0
M  V30 7307 H 681.928 -0.603387 1.30749 0
M  V30 7308 H 683.881 -3.62639 2.14641 0
M  V30 7309 H 682.605 -3.10283 1.01941 0
M  V30 7310 H 681.264 -2.18451 2.94406 0
M  V30 7311 H 680.912 -4.53703 2.1717 0
M  V30 7312 H 680.612 -4.37695 3.92042 0
M  V30 7313 H 682.136 -5.10934 3.34333 0
M  V30 7314 H 683.55 -3.28596 4.69785 0
M  V30 7315 H 681.947 -2.78903 5.3135 0
M  V30 7316 H 683.017 -1.57754 4.58521 0
M  V30 7317 N 684.36 -1.4356 -0.65026 0
M  V30 7318 C 685.308 -1.49219 -1.78427 0
M  V30 7319 C 686.302 -0.365528 -1.65409 0
M  V30 7320 O 687.508 -0.539649 -1.7172 0
M  V30 7321 H 683.883 -0.467858 -0.588738 0
M  V30 7322 H 685.854 -2.44701 -1.70774 0
M  V30 7323 C 684.603 -1.43519 -3.16698 0
M  V30 7324 H 683.926 -2.2952 -3.27354 0
M  V30 7325 H 685.366 -1.5154 -3.95995 0
M  V30 7326 C 683.825 -0.153197 -3.36552 0
M  V30 7327 O 684.355 0.784317 -3.93969 0
M  V30 7328 N 682.561 -0.0624402 -2.90533 0
M  V30 7329 H 682.108 -0.826172 -2.43992 0
M  V30 7330 H 682.066 0.794616 -3.04193 0
M  V30 7331 N 685.838 0.888903 -1.30139 0
M  V30 7332 C 687.249 1.45578 -1.16893 0
M  V30 7333 C 687.6 1.94825 0.231866 0
M  V30 7334 O 686.725 1.84661 1.12824 0
M  V30 7335 C 687.32 2.646 -2.11595 0
M  V30 7336 C 685.879 3.17389 -2.02339 0
M  V30 7337 C 685.026 1.90081 -2.01902 0
M  V30 7338 H 687.977 0.69921 -1.42467 0
M  V30 7339 H 687.998 3.40687 -1.69449 0
M  V30 7340 H 687.51 2.28726 -3.13538 0
M  V30 7341 H 685.611 3.5793 -1.03523 0
M  V30 7342 H 685.724 3.80955 -2.90534 0
M  V30 7343 H 684.088 2.08246 -1.46648 0
M  V30 7344 H 684.871 1.5647 -3.05568 0
M  V30 7345 N 687.317 1.12792 1.10072 0
M  V30 7346 C 688.733 0.864745 1.34143 0
M  V30 7347 C 688.933 -0.503201 1.95116 0
M  V30 7348 O 687.989 -1.25111 2.19325 0
M  V30 7349 C 689.302 1.98413 2.25949 0
M  V30 7350 C 690.85 2.01545 2.39476 0
M  V30 7351 C 691.325 3.12727 3.34613 0
M  V30 7352 N 692.816 3.12194 3.42183 0
M  V30 7353 C 693.551 3.94862 4.15779 0
M  V30 7354 N 693.047 4.87528 4.92228 0
M  V30 7355 N 694.84 3.82985 4.11435 0
M  V30 7356 H 686.991 2.00926 0.68866 0
M  V30 7357 H 689.254 0.874564 0.365844 0
M  V30 7358 H 688.96 2.97005 1.88364 0
M  V30 7359 H 688.834 1.89254 3.26287 0
M  V30 7360 H 691.221 1.0357 2.76328 0
M  V30 7361 H 691.302 2.14777 1.3894 0
M  V30 7362 H 690.946 4.10936 2.98486 0
M  V30 7363 H 690.876 2.96732 4.35037 0
M  V30 7364 H 693.367 2.45065 2.87666 0
M  V30 7365 H 693.68 5.47109 5.45794 0
M  V30 7366 H 692.025 4.91539 4.9134 0
M  V30 7367 H 695.216 3.09923 3.50807 0
M  V30 7368 H 695.389 4.47641 4.68531 0
M  V30 7369 N 688.795 -1.27931 0.920396 0
M  V30 7370 C 689.727 -2.26175 0.371169 0
M  V30 7371 C 690.74 -1.55122 -0.494065 0
M  V30 7372 O 691.929 -1.75825 -0.30787 0
M  V30 7373 C 689.029 -3.35376 -0.487481 0
M  V30 7374 C 688.202 -4.35943 0.356772 0
M  V30 7375 C 687.261 -5.24374 -0.438042 0
M  V30 7376 O 686.287 -5.68998 0.151715 0
M  V30 7377 N 687.489 -5.53823 -1.73956 0
M  V30 7378 H 690.254 -2.73938 1.21564 0
M  V30 7379 H 687.815 -1.41482 0.787047 0
M  V30 7380 H 689.807 -3.91476 -1.02609 0
M  V30 7381 H 688.377 -2.87269 -1.23269 0
M  V30 7382 H 687.597 -3.7921 1.07672 0
M  V30 7383 H 688.885 -5.0015 0.934206 0
M  V30 7384 H 688.283 -5.19413 -2.24114 0
M  V30 7385 H 686.84 -6.12653 -2.22486 0
M  V30 7386 N 690.273 -0.685099 -1.4193 0
M  V30 7387 C 691.519 -0.211971 -2.01689 0
M  V30 7388 C 691.852 1.18189 -1.54094 0
M  V30 7389 O 691.127 1.79559 -0.747572 0
M  V30 7390 C 691.41 -0.258019 -3.59174 0
M  V30 7391 C 691.263 -1.68807 -4.16922 0
M  V30 7392 C 692.582 0.388044 -4.38386 0
M  V30 7393 H 689.701 -0.0784987 -0.732808 0
M  V30 7394 H 692.343 -0.871837 -1.68816 0
M  V30 7395 H 690.493 0.303832 -3.8731 0
M  V30 7396 H 692.165 -2.30296 -3.99702 0
M  V30 7397 H 690.408 -2.22553 -3.72361 0
M  V30 7398 H 691.079 -1.6719 -5.26072 0
M  V30 7399 H 693.555 -0.0903432 -4.16002 0
M  V30 7400 H 692.431 0.325232 -5.47936 0
M  V30 7401 H 692.692 1.4672 -4.17044 0
M  V30 7402 N 691.751 1.51645 -0.429126 0
M  V30 7403 C 692.981 2.06133 0.138793 0
M  V30 7404 C 693.389 1.29735 1.37716 0
M  V30 7405 O 692.732 0.347955 1.80375 0
M  V30 7406 C 692.794 3.55504 0.534493 0
M  V30 7407 C 692.458 4.53098 -0.595917 0
M  V30 7408 C 693.455 4.98815 -1.46558 0
M  V30 7409 C 691.14 4.96296 -0.774309 0
M  V30 7410 C 693.134 5.86394 -2.4984 0
M  V30 7411 C 690.821 5.83667 -1.81042 0
M  V30 7412 C 691.819 6.28613 -2.67086 0
M  V30 7413 O 691.507 7.14251 -3.68919 0
M  V30 7414 H 691.239 0.675833 0.0150263 0
M  V30 7415 H 693.793 1.96301 -0.604584 0
M  V30 7416 H 692.023 3.63092 1.33045 0
M  V30 7417 H 693.712 3.92545 1.03262 0
M  V30 7418 H 694.478 4.66143 -1.33925 0
M  V30 7419 H 690.357 4.60859 -0.114178 0
M  V30 7420 H 693.901 6.21398 -3.17034 0
M  V30 7421 H 689.798 6.15753 -1.93698 0
M  V30 7422 H 690.566 7.3241 -3.65402 0
M  V30 7423 N 693.229 0.160201 1.56784 0
M  V30 7424 C 694.454 -0.497373 2.01348 0
M  V30 7425 C 694.879 -1.56757 1.03966 0
M  V30 7426 O 694.237 -1.81292 0.0174455 0
M  V30 7427 C 694.285 -1.0628 3.44582 0
M  V30 7428 O 693.389 -2.17723 3.50244 0
M  V30 7429 H 692.73 -0.120295 0.653012 0
M  V30 7430 H 695.26 0.260821 2.02931 0
M  V30 7431 H 695.27 -1.38819 3.83658 0
M  V30 7432 H 693.945 -0.279166 4.14962 0
M  V30 7433 H 692.522 -1.86313 3.2302 0
M  V30 7434 N 694.707 -1.5719 -0.113559 0
M  V30 7435 C 695.637 -2.03772 -1.14013 0
M  V30 7436 C 696.618 -0.923176 -1.42869 0
M  V30 7437 O 697.803 -1.19325 -1.53216 0
M  V30 7438 C 694.933 -2.44663 -2.4649 0
M  V30 7439 C 693.887 -3.59612 -2.32085 0
M  V30 7440 C 693.213 -3.8642 -3.69573 0
M  V30 7441 C 694.513 -4.91149 -1.7768 0
M  V30 7442 H 696.207 -2.89785 -0.752665 0
M  V30 7443 H 693.753 -1.39412 -0.360609 0
M  V30 7444 H 695.706 -2.75857 -3.18561 0
M  V30 7445 H 694.43 -1.55628 -2.87137 0
M  V30 7446 H 693.089 -3.28636 -1.62461 0
M  V30 7447 H 692.737 -2.94581 -4.07715 0
M  V30 7448 H 692.437 -4.63797 -3.60786 0
M  V30 7449 H 693.961 -4.2007 -4.4314 0
M  V30 7450 H 695.375 -5.20843 -2.39574 0
M  V30 7451 H 693.772 -5.72562 -1.79701 0
M  V30 7452 H 694.842 -4.79301 -0.734776 0
M  V30 7453 N 696.185 0.383891 -1.52853 0
M  V30 7454 C 697.41 1.154 -1.7233 0
M  V30 7455 C 697.835 1.82809 -0.44298 0
M  V30 7456 O 697.193 1.71026 0.601645 0
M  V30 7457 C 697.241 2.17386 -2.87708 0
M  V30 7458 O 696.345 3.24082 -2.55038 0
M  V30 7459 H 695.686 0.335709 -0.572883 0
M  V30 7460 H 698.216 0.44662 -1.99666 0
M  V30 7461 H 698.226 2.61296 -3.1335 0
M  V30 7462 H 696.901 1.6771 -3.80587 0
M  V30 7463 H 695.478 2.85273 -2.40153 0
M  V30 7464 N 697.663 1.43903 0.642637 0
M  V30 7465 C 698.911 1.45791 1.39962 0
M  V30 7466 C 699.232 0.0873144 1.94804 0
M  V30 7467 O 698.502 -0.878825 1.75081 0
M  V30 7468 H 697.082 0.536797 0.519479 0
M  V30 7469 H 699.744 1.7959 0.757189 0
M  V30 7470 H 698.84 2.17665 2.2367 0
M  V30 7471 N 699.141 -0.881989 1.30609 0
M  V30 7472 C 700.089 -2.00942 1.17155 0
M  V30 7473 C 701.083 -1.69198 0.0827154 0
M  V30 7474 O 702.289 -1.78342 0.243775 0
M  V30 7475 H 698.664 -0.658913 0.362406 0
M  V30 7476 H 700.635 -2.09423 2.12567 0
M  V30 7477 C 699.384 -3.36294 0.883273 0
M  V30 7478 H 698.707 -3.61233 1.7132 0
M  V30 7479 H 700.147 -4.15812 0.829255 0
M  V30 7480 C 698.606 -3.34348 -0.413851 0
M  V30 7481 O 699.136 -3.75216 -1.43444 0
M  V30 7482 N 697.342 -2.87459 -0.426082 0
M  V30 7483 H 696.889 -2.54397 0.40493 0
M  V30 7484 H 696.847 -2.8654 -1.29391 0
M  V30 7485 N 700.619 -1.13374 -1.09472 0
M  V30 7486 C 701.867 -0.893422 -1.8128 0
M  V30 7487 C 702.188 0.582029 -1.86111 0
M  V30 7488 O 701.458 1.42305 -1.34633 0
M  V30 7489 H 700.038 -0.327543 -0.67136 0
M  V30 7490 H 702.7 -1.43018 -1.32408 0
M  V30 7491 H 701.796 -1.28374 -2.84476 0
M  V30 7492 N 702.098 1.27442 -0.927168 0
M  V30 7493 C 703.509 1.76385 -0.611979 0
M  V30 7494 C 703.86 1.75715 0.872853 0
M  V30 7495 O 702.985 1.3603 1.683 0
M  V30 7496 C 703.58 3.20303 -1.10414 0
M  V30 7497 C 702.139 3.66916 -0.839628 0
M  V30 7498 C 701.286 2.46859 -1.26317 0
M  V30 7499 H 704.237 1.13716 -1.107 0
M  V30 7500 H 704.258 3.77811 -0.451578 0
M  V30 7501 H 703.77 3.20759 -2.18484 0
M  V30 7502 H 701.871 3.71906 0.227292 0
M  V30 7503 H 701.984 4.56415 -1.45679 0
M  V30 7504 H 700.348 2.45407 -0.681723 0
M  V30 7505 H 701.131 2.50025 -2.3525 0
M  V30 7506 N 703.576 0.692616 1.41565 0
M  V30 7507 C 704.509 -0.025063 2.28186 0
M  V30 7508 C 705.487 -0.790912 1.42068 0
M  V30 7509 O 706.671 -0.782344 1.71498 0
M  V30 7510 C 703.798 -1.04285 3.22246 0
M  V30 7511 C 702.844 -0.370515 4.24888 0
M  V30 7512 S 703.677 0.884942 5.28137 0
M  V30 7513 C 704.833 -0.131324 6.25762 0
M  V30 7514 H 705.066 0.709626 2.88707 0
M  V30 7515 H 702.599 0.482783 1.46658 0
M  V30 7516 H 704.557 -1.62493 3.7697 0
M  V30 7517 H 703.218 -1.7501 2.60827 0
M  V30 7518 H 702.411 -1.13911 4.90959 0
M  V30 7519 H 702.013 0.138411 3.73744 0
M  V30 7520 H 704.305 -0.985527 6.70294 0
M  V30 7521 H 705.248 0.495384 7.06365 0
M  V30 7522 H 705.656 -0.484777 5.62415 0
M  V30 7523 N 705.054 -1.51416 0.437162 0
M  V30 7524 C 706.465 -1.86682 -0.0260005 0
M  V30 7525 C 706.816 -1.35432 -1.4196 0
M  V30 7526 O 705.941 -0.705055 -2.04592 0
M  V30 7527 C 706.536 -3.38757 -0.0539577 0
M  V30 7528 C 705.095 -3.7356 -0.461532 0
M  V30 7529 C 704.242 -2.75134 0.345924 0
M  V30 7530 H 707.193 -1.44642 0.653013 0
M  V30 7531 H 707.214 -3.70573 -0.863478 0
M  V30 7532 H 706.726 -3.76028 0.96045 0
M  V30 7533 H 704.827 -3.41878 -1.48155 0
M  V30 7534 H 704.94 -4.78737 -0.186451 0
M  V30 7535 H 703.304 -2.53947 -0.195739 0
M  V30 7536 H 704.087 -3.15247 1.35921 0
M  V30 7537 N 706.532 -0.168513 -1.56696 0
M  V30 7538 C 707.78 0.476216 -1.96409 0
M  V30 7539 C 708.101 1.63968 -1.05544 0
M  V30 7540 O 707.371 1.95525 -0.121235 0
M  V30 7541 H 705.951 0.178921 -0.725256 0
M  V30 7542 H 708.613 -0.249042 -1.93302 0
M  V30 7543 H 707.709 0.838094 -3.00637 0
M  V30 7544 N 708.01 1.57248 0.105221 0
M  V30 7545 C 708.94 2.04374 1.12931 0
M  V30 7546 C 709.921 0.93074 1.42377 0
M  V30 7547 O 711.106 1.20136 1.52581 0
M  V30 7548 C 708.236 2.45967 2.45189 0
M  V30 7549 C 707.19 3.60838 2.30174 0
M  V30 7550 C 706.516 3.88374 3.67518 0
M  V30 7551 C 707.816 4.92084 1.75073 0
M  V30 7552 H 709.51 2.9018 0.737287 0
M  V30 7553 H 707.056 1.39601 0.353211 0
M  V30 7554 H 709.009 2.77542 3.17094 0
M  V30 7555 H 707.733 1.57148 2.86308 0
M  V30 7556 H 706.392 3.29493 1.60716 0
M  V30 7557 H 706.04 2.96739 4.06147 0
M  V30 7558 H 705.74 4.65703 3.58321 0
M  V30 7559 H 707.264 4.22415 4.40906 0
M  V30 7560 H 708.678 5.22106 2.36809 0
M  V30 7561 H 707.075 5.73507 1.76662 0
M  V30 7562 H 708.145 4.79684 0.709347 0
M  V30 7563 N 709.488 -0.375779 1.53054 0
M  V30 7564 C 710.436 -1.48015 1.79428 0
M  V30 7565 C 711.43 -1.55893 0.662854 0
M  V30 7566 O 712.636 -1.58901 0.845599 0
M  V30 7567 H 709.011 -0.492887 0.56795 0
M  V30 7568 H 710.982 -1.22971 2.71884 0
M  V30 7569 C 709.731 -2.84984 1.99197 0
M  V30 7570 H 709.054 -2.79677 2.85693 0
M  V30 7571 H 710.494 -3.61462 2.21633 0
M  V30 7572 C 708.953 -3.28025 0.768183 0
M  V30 7573 O 709.483 -4.01671 -0.0480482 0
M  V30 7574 N 707.689 -2.84454 0.594521 0
M  V30 7575 H 707.236 -2.24688 1.25988 0
M  V30 7576 H 707.194 -3.13609 -0.222916 0
M  V30 7577 N 710.966 -1.44241 -0.634997 0
M  V30 7578 C 712.213 -1.46821 -1.39463 0
M  V30 7579 C 712.541 -0.0993362 -1.94246 0
M  V30 7580 O 711.796 0.898325 -1.73864 0
M  V30 7581 C 712.095 -2.47279 -2.58046 0
M  V30 7582 C 711.761 -3.92703 -2.21574 0
M  V30 7583 C 710.423 -4.32306 -2.1134 0
M  V30 7584 C 712.775 -4.84271 -1.92695 0
M  V30 7585 C 710.103 -5.61407 -1.70409 0
M  V30 7586 C 712.455 -6.13755 -1.53258 0
M  V30 7587 C 711.119 -6.52316 -1.41562 0
M  V30 7588 H 710.389 -0.537256 -0.51033 0
M  V30 7589 H 713.036 -1.77431 -0.720441 0
M  V30 7590 H 711.341 -2.10138 -3.3068 0
M  V30 7591 H 713.038 -2.46523 -3.16271 0
M  V30 7592 H 709.628 -3.61369 -2.30456 0
M  V30 7593 H 713.812 -4.54432 -1.99513 0
M  V30 7594 H 709.068 -5.90105 -1.59955 0
M  V30 7595 H 713.242 -6.84168 -1.29949 0
M  V30 7596 H 710.869 -7.52255 -1.09619 0
M  V30 7597 N 712.444 0.87505 -1.31075 0
M  V30 7598 C 713.691 1.62768 -1.20469 0
M  V30 7599 C 714.019 1.93034 0.23834 0
M  V30 7600 O 713.274 1.55693 1.18567 0
M  V30 7601 C 713.573 2.96948 -1.98888 0
M  V30 7602 C 713.239 2.86195 -3.4843 0
M  V30 7603 C 711.901 2.82969 -3.89207 0
M  V30 7604 C 714.253 2.73599 -4.43614 0
M  V30 7605 C 711.581 2.64999 -5.23443 0
M  V30 7606 C 713.933 2.57166 -5.77969 0
M  V30 7607 C 712.597 2.52321 -6.17973 0
M  V30 7608 H 711.867 0.595611 -0.440827 0
M  V30 7609 H 714.514 1.01665 -1.62285 0
M  V30 7610 H 712.819 3.62058 -1.49737 0
M  V30 7611 H 714.516 3.54164 -1.88067 0
M  V30 7612 H 711.106 2.8952 -3.16032 0
M  V30 7613 H 715.29 2.7515 -4.13045 0
M  V30 7614 H 710.546 2.5967 -5.53517 0
M  V30 7615 H 714.72 2.46396 -6.51354 0
M  V30 7616 H 712.347 2.38156 -7.21932 0
M  V30 7617 N 713.922 1.13953 1.08869 0
M  V30 7618 C 715.338 0.878924 1.33218 0
M  V30 7619 C 715.538 -0.482478 1.95638 0
M  V30 7620 O 714.594 -1.22778 2.2064 0
M  V30 7621 C 715.907 2.00798 2.23832 0
M  V30 7622 C 717.455 2.04073 2.37325 0
M  V30 7623 C 717.93 3.16258 3.31278 0
M  V30 7624 N 719.421 3.15805 3.38853 0
M  V30 7625 C 720.156 3.99249 4.11567 0
M  V30 7626 N 719.652 4.92721 4.87029 0
M  V30 7627 N 721.445 3.87327 4.0735 0
M  V30 7628 H 713.596 2.01645 0.66731 0
M  V30 7629 H 715.859 0.878395 0.356547 0
M  V30 7630 H 715.565 2.98986 1.85203 0
M  V30 7631 H 715.439 1.92704 3.24261 0
M  V30 7632 H 717.826 1.06495 2.75214 0
M  V30 7633 H 717.907 2.16239 1.36654 0
M  V30 7634 H 717.551 4.14079 2.9411 0
M  V30 7635 H 717.481 3.0133 4.31866 0
M  V30 7636 H 719.972 2.48102 2.8505 0
M  V30 7637 H 720.285 5.52867 5.39961 0
M  V30 7638 H 718.63 4.96723 4.86098 0
M  V30 7639 H 721.821 3.13627 3.475 0
M  V30 7640 H 721.994 4.52585 4.63757 0
M  V30 7641 N 715.4 -1.26948 0.933913 0
M  V30 7642 C 716.677 -1.89212 0.495784 0
M  V30 7643 C 717.057 -1.84469 -1.02637 0
M  V30 7644 O 716.405 -1.29409 -1.88323 0
M  V30 7645 C 716.615 -3.32865 1.0489 0
M  V30 7646 C 717.963 -4.09749 1.11315 0
M  V30 7647 O 718.987 -3.41905 0.998966 0
M  V30 7648 O 717.846 -5.31061 1.28983 0
M  V30 7649 H 714.94 -0.811284 0.160459 0
M  V30 7650 H 717.486 -1.35171 1.02601 0
M  V30 7651 H 716.258 -3.30642 2.09265 0
M  V30 7652 H 715.881 -3.94435 0.500692 0
M  V30 7653 N 716.879 -0.700114 -1.41195 0
M  V30 7654 C 718.125 -0.233351 -2.01453 0
M  V30 7655 C 718.458 1.16548 -1.55339 0
M  V30 7656 O 717.733 1.78756 -0.766575 0
M  V30 7657 C 718.016 -0.2961 -3.58881 0
M  V30 7658 C 717.869 -1.7322 -4.15108 0
M  V30 7659 C 719.188 0.341525 -4.38773 0
M  V30 7660 H 716.307 -0.0862667 -0.731934 0
M  V30 7661 H 718.949 -0.889693 -1.67882 0
M  V30 7662 H 717.099 0.262736 -3.87611 0
M  V30 7663 H 718.771 -2.34523 -3.97236 0
M  V30 7664 H 717.014 -2.2649 -3.69979 0
M  V30 7665 H 717.685 -1.7276 -5.24269 0
M  V30 7666 H 720.161 -0.134461 -4.15883 0
M  V30 7667 H 719.037 0.267098 -5.4825 0
M  V30 7668 H 719.298 1.42289 -4.18577 0
M  V30 7669 N 718.357 1.51182 -0.445186 0
M  V30 7670 C 719.768 1.86693 0.0160999 0
M  V30 7671 C 720.119 1.36183 1.4124 0
M  V30 7672 O 719.244 0.715895 2.04215 0
M  V30 7673 C 719.839 3.38781 0.0359918 0
M  V30 7674 C 718.398 3.73799 0.441715 0
M  V30 7675 C 717.545 2.74947 -0.360511 0
M  V30 7676 H 720.496 1.44294 -0.660674 0
M  V30 7677 H 720.517 3.71026 0.843813 0
M  V30 7678 H 720.029 3.75513 -0.980378 0
M  V30 7679 H 718.13 3.42659 1.4634 0
M  V30 7680 H 718.243 4.78829 0.16106 0
M  V30 7681 H 716.607 2.54047 0.182269 0
M  V30 7682 H 717.39 3.14521 -1.3759 0
M  V30 7683 N 719.835 0.176821 1.56605 0
M  V30 7684 C 721.112 -0.513365 1.88743 0
M  V30 7685 C 721.492 -1.80929 1.08757 0
M  V30 7686 O 720.84 -2.27765 0.183127 0
M  V30 7687 C 721.05 -0.749925 3.40848 0
M  V30 7688 C 722.398 -1.07747 4.10701 0
M  V30 7689 O 723.422 -0.838277 3.46196 0
M  V30 7690 O 722.281 -1.52901 5.24675 0
M  V30 7691 H 719.375 -0.265296 0.783292 0
M  V30 7692 H 721.921 0.215669 1.68324 0
M  V30 7693 H 720.693 0.16599 3.90948 0
M  V30 7694 H 720.316 -1.53208 3.66897 0
M  V30 7695 N 721.313 -1.57302 -0.09688 0
M  V30 7696 C 722.56 -1.85997 -0.800699 0
M  V30 7697 C 722.888 -0.765089 -1.7882 0
M  V30 7698 O 722.143 0.241492 -1.94204 0
M  V30 7699 C 722.442 -3.21272 -1.56586 0
M  V30 7700 C 722.108 -4.45104 -0.72064 0
M  V30 7701 C 720.77 -4.78723 -0.487632 0
M  V30 7702 C 723.122 -5.2103 -0.132948 0
M  V30 7703 C 720.45 -5.85697 0.34296 0
M  V30 7704 C 722.802 -6.28881 0.684957 0
M  V30 7705 C 721.466 -6.61017 0.928073 0
M  V30 7706 H 720.736 -0.680613 -0.292997 0
M  V30 7707 H 723.383 -1.91399 -0.0622474 0
M  V30 7708 H 721.688 -3.11547 -2.37583 0
M  V30 7709 H 723.385 -3.40702 -2.11478 0
M  V30 7710 H 719.975 -4.18777 -0.912359 0
M  V30 7711 H 724.159 -4.95392 -0.300132 0
M  V30 7712 H 719.415 -6.09008 0.540317 0
M  V30 7713 H 723.589 -6.86886 1.14721 0
M  V30 7714 H 721.216 -7.43738 1.57348 0
M  V30 7715 N 722.791 0.367657 -1.53252 0
M  V30 7716 C 724.207 0.709191 -1.42978 0
M  V30 7717 C 724.407 1.93352 -0.567193 0
M  V30 7718 O 723.463 2.52453 -0.0488349 0
M  V30 7719 C 724.776 0.924338 -2.86141 0
M  V30 7720 C 726.324 1.02448 -2.95759 0
M  V30 7721 C 726.799 1.27211 -4.39979 0
M  V30 7722 N 728.29 1.33986 -4.43398 0
M  V30 7723 C 729.025 1.54852 -5.52095 0
M  V30 7724 N 728.521 1.73049 -6.7084 0
M  V30 7725 N 730.314 1.57205 -5.39669 0
M  V30 7726 H 722.465 -0.437669 -2.07842 0
M  V30 7727 H 724.728 -0.133737 -0.938519 0
M  V30 7728 H 724.434 0.0965455 -3.51567 0
M  V30 7729 H 724.308 1.83302 -3.29667 0
M  V30 7730 H 726.695 1.84282 -2.30487 0
M  V30 7731 H 726.776 0.0932301 -2.5563 0
M  V30 7732 H 726.42 0.458792 -5.05824 0
M  V30 7733 H 726.35 2.21654 -4.77679 0
M  V30 7734 H 728.841 1.21545 -3.5782 0
M  V30 7735 H 729.154 1.88538 -7.49449 0
M  V30 7736 H 727.499 1.70231 -6.7383 0
M  V30 7737 H 730.69 1.42555 -4.45865 0
M  V30 7738 H 730.863 1.73126 -6.24445 0
M  V30 7739 N 724.269 1.44576 0.627338 0
M  V30 7740 C 725.515 1.47777 1.38888 0
M  V30 7741 C 725.848 0.111406 1.9388 0
M  V30 7742 O 725.123 -0.87149 1.73883 0
M  V30 7743 C 725.406 2.54119 2.55138 0
M  V30 7744 C 725.259 4.00128 2.0547 0
M  V30 7745 C 726.578 2.56929 3.57317 0
M  V30 7746 H 723.697 0.538048 0.50366 0
M  V30 7747 H 726.339 1.76277 0.708978 0
M  V30 7748 H 724.489 2.29948 3.13139 0
M  V30 7749 H 726.161 4.35444 1.5227 0
M  V30 7750 H 724.404 4.11724 1.36623 0
M  V30 7751 H 725.075 4.7019 2.89181 0
M  V30 7752 H 727.551 2.78536 3.09122 0
M  V30 7753 H 726.427 3.33234 4.36173 0
M  V30 7754 H 726.688 1.6127 4.11636 0
M  V30 7755 N 725.747 -0.868086 1.31537 0
M  V30 7756 C 726.677 -1.99131 1.21939 0
M  V30 7757 C 727.658 -1.69768 0.106166 0
M  V30 7758 O 728.843 -1.92006 0.291081 0
M  V30 7759 C 725.973 -3.34676 0.927879 0
M  V30 7760 C 724.927 -3.7835 2.00088 0
M  V30 7761 C 724.253 -5.11375 1.56203 0
M  V30 7762 C 725.553 -3.95256 3.41424 0
M  V30 7763 H 727.247 -2.07419 2.15911 0
M  V30 7764 H 724.793 -0.996569 1.03945 0
M  V30 7765 H 726.746 -4.12793 0.847327 0
M  V30 7766 H 725.47 -3.26565 -0.0475042 0
M  V30 7767 H 724.129 -3.02474 2.07135 0
M  V30 7768 H 723.777 -4.99709 0.57445 0
M  V30 7769 H 723.477 -5.41568 2.27985 0
M  V30 7770 H 725.001 -5.92001 1.49558 0
M  V30 7771 H 726.415 -4.63764 3.3704 0
M  V30 7772 H 724.812 -4.36849 4.1144 0
M  V30 7773 H 725.882 -2.98579 3.82072 0
M  V30 7774 N 727.225 -1.14528 -1.08264 0
M  V30 7775 C 728.188 -0.83632 -2.13397 0
M  V30 7776 C 729.188 0.159715 -1.60005 0
M  V30 7777 O 730.378 -0.0688098 -1.74064 0
M  V30 7778 C 727.51 -0.246973 -3.40004 0
M  V30 7779 H 728.703 -1.76808 -2.42237 0
M  V30 7780 H 726.256 -0.951509 -1.24 0
M  V30 7781 H 726.991 0.693436 -3.168 0
M  V30 7782 H 726.776 -0.964412 -3.80055 0
M  V30 7783 H 728.266 -0.0480679 -4.17572 0
M  V30 7784 N 728.703 1.26451 -0.940633 0
M  V30 7785 C 729.943 1.95537 -0.595381 0
M  V30 7786 C 730.307 1.72175 0.849683 0
M  V30 7787 O 731.508 2.3506 1.30384 0
M  V30 7788 C 729.779 3.45151 -0.927669 0
M  V30 7789 S 731.338 4.33295 -0.69288 0
M  V30 7790 H 728.156 0.676331 -0.219311 0
M  V30 7791 H 730.758 1.53411 -1.21183 0
M  V30 7792 H 729.462 3.59654 -1.9768 0
M  V30 7793 H 728.993 3.92247 -0.300921 0
M  V30 7794 H 731.008 4.94217 0.443175 0
M  V30 7795 N 730.181 0.707592 1.40822 0
M  V30 7796 C 731.429 0.243189 2.00632 0
M  V30 7797 C 731.75 -1.16512 1.56365 0
M  V30 7798 O 731.02 -1.78841 0.799553 0
M  V30 7799 H 729.6 0.0869203 0.741926 0
M  V30 7800 H 732.262 0.911438 1.72275 0
M  V30 7801 H 731.358 0.270014 3.1093 0
M  V30 7802 N 731.66 -1.50943 0.453197 0
M  V30 7803 C 732.908 -2.01813 -0.107709 0
M  V30 7804 C 733.229 -1.33841 -1.41816 0
M  V30 7805 O 732.499 -0.477973 -1.8998 0
M  V30 7806 H 731.079 -0.745773 -0.0427948 0
M  V30 7807 H 733.741 -1.8545 0.599531 0
M  V30 7808 H 732.837 -3.10911 -0.27218 0
M  V30 7809 N 733.138 -0.185124 -1.56509 0
M  V30 7810 C 734.415 0.503348 -1.89013 0
M  V30 7811 C 734.795 1.80349 -1.09715 0
M  V30 7812 O 734.143 2.27665 -0.195203 0
M  V30 7813 C 734.353 0.731839 -3.41241 0
M  V30 7814 C 735.701 1.05568 -4.11267 0
M  V30 7815 O 736.725 0.819906 -3.46635 0
M  V30 7816 O 735.584 1.50116 -5.25478 0
M  V30 7817 H 732.678 0.261139 -0.784688 0
M  V30 7818 H 735.224 -0.224592 -1.68207 0
M  V30 7819 H 733.996 -0.18672 -3.90854 0
M  V30 7820 H 733.619 1.5126 -3.67704 0
M  V30 7821 N 734.616 1.57351 0.0885366 0
M  V30 7822 C 735.864 1.86051 0.789262 0
M  V30 7823 C 736.185 0.774763 1.78948 0
M  V30 7824 O 735.455 -0.198324 1.94894 0
M  V30 7825 H 734.035 0.686508 0.294475 0
M  V30 7826 H 736.697 1.94779 0.0686055 0
M  V30 7827 H 735.793 2.83007 1.31581 0
M  V30 7828 N 736.094 -0.359525 1.53444 0
M  V30 7829 C 737.322 -1.12198 1.73837 0
M  V30 7830 C 737.737 -1.82854 0.470107 0
M  V30 7831 O 737.094 -1.73781 -0.557349 0
M  V30 7832 C 737.145 -2.14769 2.90786 0
M  V30 7833 O 736.866 -1.46989 4.12706 0
M  V30 7834 C 738.367 -3.03514 3.231 0
M  V30 7835 H 735.587 -0.33524 0.581253 0
M  V30 7836 H 738.131 -0.416598 2.00212 0
M  V30 7837 H 736.286 -2.80896 2.66788 0
M  V30 7838 H 736.7 -2.15378 4.78239 0
M  V30 7839 H 738.174 -3.71453 4.08322 0
M  V30 7840 H 738.651 -3.68658 2.38721 0
M  V30 7841 H 739.257 -2.42996 3.49046 0
M  V30 7842 N 737.572 -1.44907 -0.619662 0
M  V30 7843 C 738.818 -1.48512 -1.38102 0
M  V30 7844 C 739.151 -0.121686 -1.93818 0
M  V30 7845 O 738.426 0.862256 -1.74343 0
M  V30 7846 C 738.709 -2.55469 -2.53787 0
M  V30 7847 C 738.562 -4.01212 -2.03345 0
M  V30 7848 C 739.881 -2.58821 -3.55949 0
M  V30 7849 H 737 -0.540712 -0.500799 0
M  V30 7850 H 739.642 -1.7665 -0.69962 0
M  V30 7851 H 737.792 -2.31606 -3.11915 0
M  V30 7852 H 739.464 -4.36245 -1.49959 0
M  V30 7853 H 737.707 -4.12443 -1.34438 0
M  V30 7854 H 738.378 -4.71717 -2.86683 0
M  V30 7855 H 740.854 -2.80172 -3.07641 0
M  V30 7856 H 739.73 -3.35542 -4.34399 0
M  V30 7857 H 739.991 -1.63451 -4.10775 0
M  V30 7858 N 739.05 0.861098 -1.31996 0
M  V30 7859 C 740.298 1.61162 -1.21947 0
M  V30 7860 C 740.619 1.93751 0.220351 0
M  V30 7861 O 739.889 1.59069 1.14341 0
M  V30 7862 H 738.469 0.597485 -0.448353 0
M  V30 7863 H 741.131 1.03039 -1.65436 0
M  V30 7864 H 740.227 2.55138 -1.79752 0
M  V30 7865 N 740.528 1.15101 1.07655 0
M  V30 7866 C 741.774 0.935313 1.8062 0
M  V30 7867 C 742.129 -0.532052 1.84897 0
M  V30 7868 O 741.422 -1.3893 1.31943 0
M  V30 7869 C 741.616 1.47954 3.25337 0
M  V30 7870 C 741.445 2.99829 3.35161 0
M  V30 7871 C 740.215 3.68348 3.45902 0
M  V30 7872 C 742.413 3.97638 3.26173 0
M  V30 7873 N 740.395 5.08062 3.44596 0
M  V30 7874 C 741.766 5.23651 3.31949 0
M  V30 7875 C 743.821 3.89651 3.09962 0
M  V30 7876 C 742.524 6.42609 3.23182 0
M  V30 7877 C 744.55 5.08164 3.02528 0
M  V30 7878 C 743.912 6.3305 3.08913 0
M  V30 7879 H 740.011 0.395876 0.674393 0
M  V30 7880 H 742.595 1.4625 1.28526 0
M  V30 7881 H 740.766 0.979022 3.75859 0
M  V30 7882 H 742.498 1.20298 3.86407 0
M  V30 7883 H 739.253 3.18928 3.50117 0
M  V30 7884 H 739.677 5.81023 3.47479 0
M  V30 7885 H 744.319 2.93966 3.03881 0
M  V30 7886 H 742.037 7.38531 3.28022 0
M  V30 7887 H 745.623 5.03742 2.91093 0
M  V30 7888 H 744.503 7.23214 3.03201 0
M  V30 7889 N 742.006 -1.2595 0.947325 0
M  V30 7890 C 743.252 -1.9375 0.599064 0
M  V30 7891 C 743.585 -1.74088 -0.860632 0
M  V30 7892 O 742.86 -1.08158 -1.61654 0
M  V30 7893 C 743.143 -3.47353 0.949634 0
M  V30 7894 C 742.996 -3.76273 2.46452 0
M  V30 7895 C 744.315 -4.37589 0.469442 0
M  V30 7896 H 741.434 -0.703674 0.219115 0
M  V30 7897 H 744.076 -1.48705 1.18266 0
M  V30 7898 H 742.226 -3.8585 0.453008 0
M  V30 7899 H 743.898 -3.47455 3.03435 0
M  V30 7900 H 742.141 -3.22135 2.90537 0
M  V30 7901 H 742.812 -4.83664 2.66032 0
M  V30 7902 H 745.288 -4.06353 0.89534 0
M  V30 7903 H 744.164 -5.43841 0.7435 0
M  V30 7904 H 744.425 -4.37579 -0.630618 0
M  V30 7905 N 743.484 -0.715051 -1.40445 0
M  V30 7906 C 744.414 -0.0768699 -2.33373 0
M  V30 7907 C 745.395 0.746109 -1.52863 0
M  V30 7908 O 746.58 0.695142 -1.81332 0
M  V30 7909 C 743.71 0.846014 -3.36838 0
M  V30 7910 C 742.664 0.128694 -4.27806 0
M  V30 7911 C 741.99 1.16726 -5.21804 0
M  V30 7912 C 743.29 -1.01679 -5.12307 0
M  V30 7913 H 744.984 -0.853061 -2.8699 0
M  V30 7914 H 742.53 -0.41167 -1.3799 0
M  V30 7915 H 744.483 1.30185 -4.00786 0
M  V30 7916 H 743.207 1.6541 -2.81615 0
M  V30 7917 H 741.866 -0.307314 -3.6531 0
M  V30 7918 H 741.514 1.96838 -4.62887 0
M  V30 7919 H 741.214 0.692188 -5.83509 0
M  V30 7920 H 742.738 1.62321 -5.88629 0
M  V30 7921 H 744.152 -0.640337 -5.69713 0
M  V30 7922 H 742.549 -1.4202 -5.83053 0
M  V30 7923 H 743.619 -1.84769 -4.48317 0
M  V30 7924 N 744.962 1.50701 -0.461195 0
M  V30 7925 C 746.239 1.94958 0.158296 0
M  V30 7926 C 746.619 1.40111 1.57899 0
M  V30 7927 O 745.967 0.597976 2.20537 0
M  V30 7928 C 746.177 3.48821 0.11172 0
M  V30 7929 C 747.525 4.23499 0.30552 0
M  V30 7930 O 748.549 3.557 0.188758 0
M  V30 7931 O 747.408 5.43823 0.540244 0
M  V30 7932 H 744.502 0.818674 0.117054 0
M  V30 7933 H 747.048 1.61508 -0.520888 0
M  V30 7934 H 745.82 3.81263 -0.880577 0
M  V30 7935 H 745.443 3.88781 0.832791 0
M  V30 7936 N 746.441 0.193421 1.56409 0
M  V30 7937 C 747.681 -0.447977 1.9943 0
M  V30 7938 C 748.045 -1.58915 1.07751 0
M  V30 7939 O 749.246 -2.29462 1.40002 0
M  V30 7940 C 747.517 -0.89793 3.45936 0
M  V30 7941 S 749.076 -1.5374 4.10986 0
M  V30 7942 H 745.894 -0.143316 0.696406 0
M  V30 7943 H 748.496 0.296093 1.93245 0
M  V30 7944 H 747.2 -0.0572927 4.1036 0
M  V30 7945 H 746.731 -1.67551 3.55936 0
M  V30 7946 H 748.746 -2.82612 4.07854 0
M  V30 7947 N 747.919 -1.57396 -0.0801906 0
M  V30 7948 C 749.168 -1.8602 -0.779702 0
M  V30 7949 C 749.481 -0.784864 -1.79163 0
M  V30 7950 O 750.687 -0.958691 -2.54011 0
M  V30 7951 C 749.143 -3.29942 -1.43758 0
M  V30 7952 C 748.751 -4.45584 -0.464654 0
M  V30 7953 C 750.495 -3.67775 -2.11995 0
M  V30 7954 C 748.402 -5.80544 -1.12797 0
M  V30 7955 H 747.332 -0.69392 -0.294943 0
M  V30 7956 H 749.983 -1.83471 -0.0328527 0
M  V30 7957 H 748.365 -3.27078 -2.2324 0
M  V30 7958 H 749.539 -4.59824 0.299749 0
M  V30 7959 H 747.854 -4.16247 0.112813 0
M  V30 7960 H 750.451 -4.65896 -2.62383 0
M  V30 7961 H 750.794 -2.9715 -2.91561 0
M  V30 7962 H 751.327 -3.72593 -1.39354 0
M  V30 7963 H 748.066 -6.54439 -0.372807 0
M  V30 7964 H 747.586 -5.70119 -1.86344 0
M  V30 7965 H 749.265 -6.25602 -1.6502 0
M  V30 7966 N 749.397 0.351382 -1.53633 0
M  V30 7967 C 750.307 1.45471 -1.84052 0
M  V30 7968 C 751.323 1.57945 -0.730015 0
M  V30 7969 O 752.499 1.73571 -1.02153 0
M  V30 7970 C 749.564 2.80562 -2.03681 0
M  V30 7971 C 748.625 2.77497 -3.27558 0
M  V30 7972 C 747.858 4.06144 -3.46241 0
M  V30 7973 O 748.081 5.03028 -2.68922 0
M  V30 7974 O 747.015 4.11092 -4.39645 0
M  V30 7975 H 750.841 1.22684 -2.77817 0
M  V30 7976 H 748.426 0.542827 -1.3919 0
M  V30 7977 H 750.308 3.6058 -2.18082 0
M  V30 7978 H 748.983 3.03296 -1.13106 0
M  V30 7979 H 747.89 1.96126 -3.18568 0
M  V30 7980 H 749.223 2.59716 -4.18101 0
M  V30 7981 N 750.875 1.45233 0.611969 0
M  V30 7982 C 751.822 1.5357 1.72293 0
M  V30 7983 C 752.792 0.381912 1.6165 0
M  V30 7984 O 753.977 0.594765 1.81293 0
M  V30 7985 C 751.117 1.50419 3.10593 0
M  V30 7986 C 750.23 2.76316 3.32074 0
M  V30 7987 C 749.365 2.64866 4.60456 0
M  V30 7988 C 748.404 3.85838 4.7518 0
M  V30 7989 N 747.541 3.72949 5.94856 0
M  V30 7990 H 752.381 2.4848 1.64504 0
M  V30 7991 H 749.918 1.23302 0.802191 0
M  V30 7992 H 751.876 1.4658 3.90602 0
M  V30 7993 H 750.506 0.590621 3.17351 0
M  V30 7994 H 749.558 2.90261 2.45872 0
M  V30 7995 H 750.87 3.66055 3.38829 0
M  V30 7996 H 750.024 2.58969 5.48653 0
M  V30 7997 H 748.763 1.72719 4.56092 0
M  V30 7998 H 747.768 3.92099 3.85407 0
M  V30 7999 H 748.993 4.79045 4.81344 0
M  V30 8000 H 746.939 2.83567 5.91545 0
M  V30 8001 H 746.856 4.56319 6.02751 0
M  V30 8002 H 748.124 3.70976 6.85563 0
M  V30 8003 N 752.353 -0.854086 1.3245 0
M  V30 8004 C 753.316 -1.94427 1.21371 0
M  V30 8005 C 754.316 -1.60219 0.136613 0
M  V30 8006 O 755.506 -1.69846 0.387057 0
M  V30 8007 C 752.638 -3.29698 0.866701 0
M  V30 8008 H 753.831 -2.05679 2.18257 0
M  V30 8009 H 751.384 -1.04434 1.1629 0
M  V30 8010 H 752.119 -3.24145 -0.100319 0
M  V30 8011 H 751.904 -3.55903 1.64545 0
M  V30 8012 H 753.394 -4.09599 0.813515 0
M  V30 8013 N 753.831 -1.1567 -1.07043 0
M  V30 8014 C 754.779 -0.852204 -2.16426 0
M  V30 8015 C 755.773 0.175661 -1.68487 0
M  V30 8016 O 756.979 0.0303874 -1.79974 0
M  V30 8017 H 753.354 -0.257942 -0.706378 0
M  V30 8018 H 755.325 -1.78231 -2.39324 0
M  V30 8019 C 754.074 -0.361362 -3.45817 0
M  V30 8020 H 753.397 -1.14369 -3.83092 0
M  V30 8021 H 754.837 -0.186997 -4.23587 0
M  V30 8022 C 753.296 0.917703 -3.2416 0
M  V30 8023 O 753.826 1.98858 -3.49025 0
M  V30 8024 N 752.032 0.858456 -2.77631 0
M  V30 8025 H 751.579 -0.0131821 -2.57597 0
M  V30 8026 H 751.537 1.71478 -2.6352 0
M  V30 8027 N 755.309 1.25446 -0.953992 0
M  V30 8028 C 756.555 1.9343 -0.60933 0
M  V30 8029 C 756.888 1.74542 0.851388 0
M  V30 8030 O 756.163 1.09014 1.61078 0
M  V30 8031 C 756.446 3.46844 -0.968041 0
M  V30 8032 C 756.299 3.74961 -2.48444 0
M  V30 8033 C 757.618 4.37334 -0.492641 0
M  V30 8034 H 754.737 0.702502 -0.222844 0
M  V30 8035 H 757.379 1.48076 -1.19053 0
M  V30 8036 H 755.529 3.85604 -0.473465 0
M  V30 8037 H 757.201 3.45841 -3.05273 0
M  V30 8038 H 755.444 3.20589 -2.92241 0
M  V30 8039 H 756.115 4.82246 -2.68594 0
M  V30 8040 H 758.591 4.05873 -0.916878 0
M  V30 8041 H 757.467 5.43439 -0.772331 0
M  V30 8042 H 757.728 4.37908 0.607403 0
M  V30 8043 N 756.787 0.722489 1.40064 0
M  V30 8044 C 758.035 0.264455 2.00362 0
M  V30 8045 C 758.356 -1.14847 1.57592 0
M  V30 8046 O 757.626 -1.77982 0.818477 0
M  V30 8047 H 756.206 0.0947846 0.740962 0
M  V30 8048 H 758.868 0.929659 1.71299 0
M  V30 8049 H 757.964 0.302977 3.10626 0
M  V30 8050 N 758.265 -1.50454 0.469181 0
M  V30 8051 C 759.212 -2.28486 -0.325982 0
M  V30 8052 C 760.182 -1.33455 -0.988893 0
M  V30 8053 O 761.367 -1.6239 -1.0017 0
M  V30 8054 C 758.507 -3.15288 -1.40313 0
M  V30 8055 C 757.62 -4.25348 -0.755183 0
M  V30 8056 C 756.755 -4.9941 -1.81006 0
M  V30 8057 C 755.794 -6.01348 -1.14226 0
M  V30 8058 N 754.931 -6.68695 -2.1399 0
M  V30 8059 H 759.771 -2.95987 0.345753 0
M  V30 8060 H 757.308 -1.45965 0.182355 0
M  V30 8061 H 759.266 -3.63964 -2.03927 0
M  V30 8062 H 757.896 -2.49837 -2.04405 0
M  V30 8063 H 756.948 -3.80399 -0.00651901 0
M  V30 8064 H 758.26 -4.98279 -0.227941 0
M  V30 8065 H 757.414 -5.51794 -2.52206 0
M  V30 8066 H 756.153 -4.26181 -2.3711 0
M  V30 8067 H 755.158 -5.48225 -0.415876 0
M  V30 8068 H 756.383 -6.76548 -0.588135 0
M  V30 8069 H 754.329 -5.98258 -2.69115 0
M  V30 8070 H 754.246 -7.37495 -1.66246 0
M  V30 8071 H 755.514 -7.25697 -2.84576 0
M  V30 8072 N 759.743 -0.201713 -1.56304 0
M  V30 8073 C 760.693 0.729444 -2.16016 0
M  V30 8074 C 761.677 1.17164 -1.10279 0
M  V30 8075 O 762.869 1.12893 -1.36324 0
M  V30 8076 C 759.998 1.94594 -2.82822 0
M  V30 8077 C 759.084 1.52434 -3.95758 0
M  V30 8078 N 759.475 0.814106 -4.99205 0
M  V30 8079 C 757.773 1.81314 -4.07481 0
M  V30 8080 C 758.474 0.601896 -5.78578 0
M  V30 8081 N 757.45 1.15263 -5.3124 0
M  V30 8082 H 761.252 0.178163 -2.93359 0
M  V30 8083 H 758.766 -0.00218038 -1.624 0
M  V30 8084 H 760.763 2.62357 -3.23998 0
M  V30 8085 H 759.423 2.50188 -2.06969 0
M  V30 8086 H 760.434 0.468872 -5.15773 0
M  V30 8087 H 757.111 2.3837 -3.42762 0
M  V30 8088 H 758.501 0.0380119 -6.71889 0
M  V30 8089 N 761.222 1.57436 0.0718424 0
M  V30 8090 C 762.633 1.75975 0.623678 0
M  V30 8091 C 762.984 0.827155 1.77912 0
M  V30 8092 O 762.109 0.0112425 2.16397 0
M  V30 8093 C 762.704 3.1911 1.13816 0
M  V30 8094 C 761.263 3.38994 1.63586 0
M  V30 8095 C 760.41 2.71684 0.555261 0
M  V30 8096 H 763.361 1.57948 -0.154328 0
M  V30 8097 H 763.382 3.23267 2.00696 0
M  V30 8098 H 762.894 3.86962 0.296998 0
M  V30 8099 H 760.995 2.76256 2.50027 0
M  V30 8100 H 761.108 4.47436 1.71283 0
M  V30 8101 H 759.472 2.34236 1.00029 0
M  V30 8102 H 760.255 3.42191 -0.275712 0
M  V30 8103 N 762.7 -0.34323 1.53817 0
M  V30 8104 C 764.111 -0.918823 1.62525 0
M  V30 8105 C 764.462 -1.89542 0.506765 0
M  V30 8106 O 763.587 -2.13326 -0.363441 0
M  V30 8107 C 764.182 -1.67326 2.94597 0
M  V30 8108 C 762.741 -2.19786 3.05567 0
M  V30 8109 C 761.888 -1.01708 2.57974 0
M  V30 8110 H 764.839 -0.121358 1.58235 0
M  V30 8111 H 764.86 -2.53615 2.83654 0
M  V30 8112 H 764.372 -0.962223 3.75983 0
M  V30 8113 H 762.473 -2.94065 2.28816 0
M  V30 8114 H 762.586 -2.46135 4.1104 0
M  V30 8115 H 760.95 -1.39058 2.13389 0
M  V30 8116 H 761.733 -0.320671 3.41799 0
M  V30 8117 N 764.178 -1.45556 -0.604258 0
M  V30 8118 C 765.424 -1.49968 -1.36519 0
M  V30 8119 C 765.757 -0.142236 -1.93678 0
M  V30 8120 O 765.032 0.843717 -1.75247 0
M  V30 8121 C 765.315 -2.58146 -2.51063 0
M  V30 8122 C 765.168 -4.03346 -1.99078 0
M  V30 8123 C 766.487 -2.62581 -3.53184 0
M  V30 8124 H 763.606 -0.545993 -0.495036 0
M  V30 8125 H 766.248 -1.77382 -0.680845 0
M  V30 8126 H 764.398 -2.34901 -3.09441 0
M  V30 8127 H 766.07 -4.37811 -1.45323 0
M  V30 8128 H 764.313 -4.13845 -1.30055 0
M  V30 8129 H 764.984 -4.74731 -2.81664 0
M  V30 8130 H 767.46 -2.83419 -3.04652 0
M  V30 8131 H 766.336 -3.40131 -4.30816 0
M  V30 8132 H 766.597 -1.67798 -4.09019 0
M  V30 8133 N 765.656 0.84705 -1.32902 0
M  V30 8134 C 766.619 1.9378 -1.224 0
M  V30 8135 C 767.619 1.60144 -0.145108 0
M  V30 8136 O 768.809 1.69638 -0.396058 0
M  V30 8137 C 765.941 3.29234 -0.884174 0
M  V30 8138 H 767.134 2.04518 -2.19345 0
M  V30 8139 H 764.687 1.03816 -1.16842 0
M  V30 8140 H 765.422 3.24193 0.0831277 0
M  V30 8141 H 765.207 3.55026 -1.6643 0
M  V30 8142 H 766.697 4.09162 -0.835226 0
M  V30 8143 N 767.134 1.16236 1.06428 0
M  V30 8144 C 768.383 0.937523 1.78587 0
M  V30 8145 C 768.696 -0.536 1.88113 0
M  V30 8146 O 769.902 -0.878697 2.56887 0
M  V30 8147 C 768.358 1.62808 3.2097 0
M  V30 8148 C 767.966 3.13927 3.19615 0
M  V30 8149 C 769.71 1.48515 3.97673 0
M  V30 8150 C 767.617 3.75727 4.56709 0
M  V30 8151 H 766.547 0.347125 0.669343 0
M  V30 8152 H 769.198 1.39353 1.19385 0
M  V30 8153 H 767.58 1.09977 3.80422 0
M  V30 8154 H 768.754 3.7359 2.69753 0
M  V30 8155 H 767.069 3.28089 2.56411 0
M  V30 8156 H 769.666 1.92069 4.99013 0
M  V30 8157 H 770.009 0.433913 4.14032 0
M  V30 8158 H 770.542 1.98494 3.44739 0
M  V30 8159 H 767.281 4.80793 4.45554 0
M  V30 8160 H 766.801 3.20849 5.0677 0
M  V30 8161 H 768.48 3.77203 5.25668 0
M  V30 8162 N 768.612 -1.24939 0.960631 0
M  V30 8163 C 769.542 -2.28 0.503815 0
M  V30 8164 C 770.523 -1.63959 -0.452928 0
M  V30 8165 O 771.708 -1.91009 -0.350585 0
M  V30 8166 C 768.838 -3.46643 -0.213535 0
M  V30 8167 C 767.792 -4.22903 0.658535 0
M  V30 8168 C 767.118 -5.34363 -0.189902 0
M  V30 8169 C 768.418 -4.84949 1.93963 0
M  V30 8170 H 770.112 -2.66462 1.36521 0
M  V30 8171 H 767.658 -1.28093 0.657897 0
M  V30 8172 H 769.611 -4.1787 -0.544286 0
M  V30 8173 H 768.335 -3.07187 -1.10923 0
M  V30 8174 H 766.994 -3.53467 0.972455 0
M  V30 8175 H 766.642 -4.91147 -1.08553 0
M  V30 8176 H 766.342 -5.86302 0.390331 0
M  V30 8177 H 767.866 -6.0842 -0.515484 0
M  V30 8178 H 769.28 -5.48288 1.67491 0
M  V30 8179 H 767.677 -5.47091 2.46601 0
M  V30 8180 H 768.747 -4.06799 2.639 0
M  V30 8181 N 770.09 -0.729906 -1.39679 0
M  V30 8182 C 771.501 -0.346241 -1.83461 0
M  V30 8183 C 771.852 1.1215 -1.60987 0
M  V30 8184 O 770.977 1.86456 -1.09832 0
M  V30 8185 C 771.572 -0.621656 -3.33048 0
M  V30 8186 C 770.131 -0.291543 -3.75269 0
M  V30 8187 C 769.278 -0.886844 -2.62736 0
M  V30 8188 H 772.229 -0.927949 -1.28743 0
M  V30 8189 H 772.25 0.108301 -3.80346 0
M  V30 8190 H 771.762 -1.68996 -3.49373 0
M  V30 8191 H 769.863 0.771133 -3.64533 0
M  V30 8192 H 769.976 -0.770544 -4.72863 0
M  V30 8193 H 768.34 -0.313839 -2.52759 0
M  V30 8194 H 769.123 -1.95971 -2.81869 0
M  V30 8195 N 771.568 1.50203 -0.477153 0
M  V30 8196 C 772.498 2.31517 0.303646 0
M  V30 8197 C 773.479 1.38696 0.984753 0
M  V30 8198 O 774.664 1.67615 0.980758 0
M  V30 8199 C 771.794 3.18598 1.38249 0
M  V30 8200 C 770.748 4.2002 0.822645 0
M  V30 8201 C 770.074 4.95878 2.00024 0
M  V30 8202 C 771.374 5.22023 -0.170185 0
M  V30 8203 H 773.068 2.97042 -0.375027 0
M  V30 8204 H 770.614 1.42848 -0.181802 0
M  V30 8205 H 772.567 3.74282 1.93625 0
M  V30 8206 H 771.291 2.5097 2.09002 0
M  V30 8207 H 769.95 3.65445 0.290813 0
M  V30 8208 H 769.598 4.24717 2.69489 0
M  V30 8209 H 769.298 5.64487 1.63183 0
M  V30 8210 H 770.822 5.54399 2.55878 0
M  V30 8211 H 772.236 5.72543 0.294606 0
M  V30 8212 H 770.633 5.98386 -0.453181 0
M  V30 8213 H 771.703 4.72396 -1.09408 0
M  V30 8214 N 773.046 0.209999 1.56195 0
M  V30 8215 C 774.294 -0.423974 1.97603 0
M  V30 8216 C 774.615 -1.61112 1.09854 0
M  V30 8217 O 773.885 -1.95134 0.173032 0
M  V30 8218 H 772.465 -0.159629 0.729745 0
M  V30 8219 H 775.127 0.300205 1.92574 0
M  V30 8220 H 774.223 -0.75809 3.02753 0
M  V30 8221 N 774.524 -1.57472 -0.0634922 0
M  V30 8222 C 775.752 -1.91887 -0.773767 0
M  V30 8223 C 776.167 -0.806733 -1.70696 0
M  V30 8224 O 775.524 0.219383 -1.81177 0
M  V30 8225 C 775.575 -3.26092 -1.56034 0
M  V30 8226 O 775.296 -4.33029 -0.66464 0
M  V30 8227 C 776.797 -3.74573 -2.37087 0
M  V30 8228 H 774.017 -0.634074 -0.219525 0
M  V30 8229 H 776.561 -2.04476 -0.0312828 0
M  V30 8230 H 774.716 -3.15004 -2.25502 0
M  V30 8231 H 775.13 -5.10291 -1.21258 0
M  V30 8232 H 776.604 -4.71084 -2.87722 0
M  V30 8233 H 777.081 -3.04003 -3.16984 0
M  V30 8234 H 777.687 -3.88631 -1.72759 0
M  V30 8235 N 776.003 0.335068 -1.53997 0
M  V30 8236 C 777.251 1.07223 -1.71312 0
M  V30 8237 C 777.572 1.88911 -0.483486 0
M  V30 8238 O 776.842 1.89344 0.50257 0
M  V30 8239 H 775.422 0.398846 -0.63161 0
M  V30 8240 H 778.084 0.374288 -1.91272 0
M  V30 8241 H 777.18 1.7448 -2.58772 0
M  V30 8242 N 777.481 1.45874 0.596531 0
M  V30 8243 C 778.429 1.55739 1.72766 0
M  V30 8244 C 779.423 0.426666 1.63939 0
M  V30 8245 O 780.629 0.60301 1.69599 0
M  V30 8246 H 777.004 0.489386 0.570968 0
M  V30 8247 H 778.975 2.50871 1.61575 0
M  V30 8248 C 777.724 1.55174 3.11153 0
M  V30 8249 H 777.047 2.41511 3.1861 0
M  V30 8250 H 778.487 1.66133 3.90097 0
M  V30 8251 C 776.946 0.278001 3.35751 0
M  V30 8252 O 777.476 -0.637557 3.96608 0
M  V30 8253 N 775.682 0.170227 2.90101 0
M  V30 8254 H 775.229 0.916159 2.40758 0
M  V30 8255 H 775.187 -0.68117 3.06932 0
M  V30 8256 N 778.959 -0.83999 1.33349 0
M  V30 8257 C 780.236 -1.57973 1.15342 0
M  V30 8258 C 780.616 -2.09226 -0.280632 0
M  V30 8259 O 779.964 -1.89317 -1.2795 0
M  V30 8260 C 780.174 -2.71446 2.19359 0
M  V30 8261 C 781.522 -3.40654 2.53456 0
M  V30 8262 O 782.546 -2.81686 2.18017 0
M  V30 8263 O 781.405 -4.47101 3.14266 0
M  V30 8264 H 778.499 -0.6964 0.446044 0
M  V30 8265 H 781.045 -0.882843 1.44927 0
M  V30 8266 H 779.817 -2.31205 3.1569 0
M  V30 8267 H 779.44 -3.488 1.90852 0
M  V30 8268 N 780.437 -1.16799 -1.0581 0
M  V30 8269 C 781.367 -0.902241 -2.15364 0
M  V30 8270 C 782.348 0.153351 -1.69407 0
M  V30 8271 O 783.533 0.00442032 -1.94199 0
M  V30 8272 C 780.663 -0.407911 -3.44896 0
M  V30 8273 C 779.617 -1.40197 -4.04387 0
M  V30 8274 C 778.943 -0.765848 -5.29187 0
M  V30 8275 C 780.243 -2.77316 -4.42598 0
M  V30 8276 H 781.937 -1.81841 -2.37853 0
M  V30 8277 H 779.483 -0.875731 -1.14311 0
M  V30 8278 H 781.436 -0.20945 -4.20879 0
M  V30 8279 H 780.16 0.54378 -3.22041 0
M  V30 8280 H 778.819 -1.58707 -3.30466 0
M  V30 8281 H 778.467 0.192482 -5.02632 0
M  V30 8282 H 778.167 -1.42939 -5.69949 0
M  V30 8283 H 779.691 -0.577519 -6.07863 0
M  V30 8284 H 781.105 -2.62561 -5.09642 0
M  V30 8285 H 779.502 -3.4019 -4.94359 0
M  V30 8286 H 780.572 -3.32199 -3.53231 0
M  V30 8287 N 781.915 1.24427 -0.967243 0
M  V30 8288 C 782.878 2.23637 -0.501927 0
M  V30 8289 C 783.878 1.55712 0.401283 0
M  V30 8290 O 785.068 1.73085 0.196808 0
M  V30 8291 C 782.2 3.39804 0.273176 0
M  V30 8292 H 783.393 2.66317 -1.37897 0
M  V30 8293 H 780.946 1.37033 -0.751783 0
M  V30 8294 H 781.681 3.02562 1.16733 0
M  V30 8295 H 781.466 3.90303 -0.37498 0
M  V30 8296 H 782.956 4.13443 0.587776 0
M  V30 8297 N 783.393 0.737304 1.3929 0
M  V30 8298 C 784.809 0.413132 1.5416 0
M  V30 8299 C 785.009 -1.07574 1.70382 0
M  V30 8300 O 784.065 -1.86185 1.70562 0
M  V30 8301 C 785.378 1.19817 2.75798 0
M  V30 8302 C 786.926 1.18662 2.89635 0
M  V30 8303 C 787.401 1.95427 4.14213 0
M  V30 8304 N 788.892 1.92605 4.21257 0
M  V30 8305 C 789.627 2.48808 5.16606 0
M  V30 8306 N 789.123 3.13659 6.1773 0
M  V30 8307 N 790.916 2.38829 5.08839 0
M  V30 8308 H 783.067 1.70243 1.27008 0
M  V30 8309 H 785.33 0.720802 0.61575 0
M  V30 8310 H 785.036 2.25179 2.70161 0
M  V30 8311 H 784.91 0.804144 3.68529 0
M  V30 8312 H 787.297 0.141112 2.94762 0
M  V30 8313 H 787.378 1.62003 1.97961 0
M  V30 8314 H 787.022 2.9998 4.09847 0
M  V30 8315 H 786.952 1.4949 5.04936 0
M  V30 8316 H 789.443 1.45362 3.48824 0
M  V30 8317 H 789.756 3.54006 6.8695 0
M  V30 8318 H 788.101 3.17749 6.1811 0
M  V30 8319 H 791.292 1.87806 4.28773 0
M  V30 8320 H 791.465 2.82929 5.82971 0
M  V30 8321 N 784.871 -1.49948 0.485112 0
M  V30 8322 C 786.111 -2.04301 -0.0635728 0
M  V30 8323 C 786.475 -1.35804 -1.35725 0
M  V30 8324 O 787.676 -1.80789 -1.98919 0
M  V30 8325 C 785.947 -3.56666 -0.228962 0
M  V30 8326 S 787.506 -4.32614 -0.734185 0
M  V30 8327 H 784.324 -0.710939 -0.00931895 0
M  V30 8328 H 786.926 -1.84185 0.655455 0
M  V30 8329 H 785.63 -4.04068 0.718148 0
M  V30 8330 H 785.161 -3.8116 -0.973696 0
M  V30 8331 H 787.176 -4.53859 -2.00565 0
M  V30 8332 N 786.349 -0.21828 -1.56081 0
M  V30 8333 C 787.279 0.687922 -2.23136 0
M  V30 8334 C 788.26 1.20357 -1.202 0
M  V30 8335 O 789.445 1.24817 -1.48776 0
M  V30 8336 C 786.575 1.89762 -2.90874 0
M  V30 8337 C 785.529 1.51595 -4.00254 0
M  V30 8338 C 784.855 2.80415 -4.55271 0
M  V30 8339 C 786.155 0.708404 -5.17474 0
M  V30 8340 H 787.849 0.128854 -2.99123 0
M  V30 8341 H 785.395 0.0605354 -1.43873 0
M  V30 8342 H 787.348 2.53699 -3.36474 0
M  V30 8343 H 786.072 2.4816 -2.1233 0
M  V30 8344 H 784.731 0.900058 -3.55379 0
M  V30 8345 H 784.379 3.36951 -3.73461 0
M  V30 8346 H 784.079 2.55613 -5.2909 0
M  V30 8347 H 785.603 3.453 -5.03587 0
M  V30 8348 H 787.017 1.2514 -5.59476 0
M  V30 8349 H 785.414 0.557593 -5.97504 0
M  V30 8350 H 786.484 -0.285679 -4.84058 0
M  V30 8351 N 787.827 1.57504 0.0551401 0
M  V30 8352 C 789.243 1.54236 0.410292 0
M  V30 8353 C 789.443 0.940839 1.78187 0
M  V30 8354 O 788.499 0.550541 2.46425 0
M  V30 8355 C 789.812 2.98816 0.336064 0
M  V30 8356 C 791.36 3.10236 0.415047 0
M  V30 8357 C 791.835 4.56499 0.37055 0
M  V30 8358 N 793.326 4.61199 0.43013 0
M  V30 8359 C 794.061 5.71873 0.418179 0
M  V30 8360 N 793.557 6.91864 0.360056 0
M  V30 8361 N 795.35 5.60165 0.465977 0
M  V30 8362 H 787.501 1.94965 -0.842759 0
M  V30 8363 H 789.764 0.893096 -0.317937 0
M  V30 8364 H 789.47 3.4645 -0.605429 0
M  V30 8365 H 789.344 3.59564 1.13988 0
M  V30 8366 H 791.731 2.62566 1.34697 0
M  V30 8367 H 791.812 2.52367 -0.417648 0
M  V30 8368 H 791.456 5.0483 -0.557592 0
M  V30 8369 H 791.386 5.12249 1.221 0
M  V30 8370 H 793.877 3.74857 0.478623 0
M  V30 8371 H 794.19 7.71983 0.35532 0
M  V30 8372 H 792.535 6.94233 0.326492 0
M  V30 8373 H 795.726 4.65322 0.509194 0
M  V30 8374 H 795.899 6.46413 0.453194 0
M  V30 8375 N 789.305 -0.326896 1.54172 0
M  V30 8376 C 790.551 -1.06304 1.7341 0
M  V30 8377 C 790.906 -1.85791 0.499935 0
M  V30 8378 O 790.199 -1.84753 -0.507625 0
M  V30 8379 C 790.393 -2.0208 2.94785 0
M  V30 8380 C 790.222 -1.32009 4.29888 0
M  V30 8381 C 788.992 -1.05798 4.941 0
M  V30 8382 C 791.19 -0.737721 5.08982 0
M  V30 8383 N 789.172 -0.324836 6.1304 0
M  V30 8384 C 790.543 -0.136006 6.19851 0
M  V30 8385 C 792.598 -0.640206 4.93767 0
M  V30 8386 C 791.301 0.553757 7.17165 0
M  V30 8387 C 793.327 0.0358492 5.91389 0
M  V30 8388 C 792.689 0.626522 7.01608 0
M  V30 8389 H 788.788 -0.372808 0.687414 0
M  V30 8390 H 791.372 -0.34462 1.91626 0
M  V30 8391 H 789.543 -2.71197 2.78041 0
M  V30 8392 H 791.275 -2.68655 3.02666 0
M  V30 8393 H 788.03 -1.34945 4.53968 0
M  V30 8394 H 788.454 0.0274982 6.76994 0
M  V30 8395 H 793.096 -1.0826 4.08705 0
M  V30 8396 H 790.814 1.00799 8.01789 0
M  V30 8397 H 794.4 0.110895 5.81694 0
M  V30 8398 H 793.28 1.14135 7.7585 0
M  V30 8399 N 790.784 -1.46188 -0.588786 0
M  V30 8400 C 792.032 -1.50885 -1.34455 0
M  V30 8401 C 792.353 -0.159555 -1.94346 0
M  V30 8402 O 791.623 0.813239 -1.78222 0
M  V30 8403 H 790.203 -0.555707 -0.499198 0
M  V30 8404 H 792.865 -1.82277 -0.690014 0
M  V30 8405 H 791.961 -2.25816 -2.15438 0
M  V30 8406 N 792.262 0.832906 -1.33792 0
M  V30 8407 C 793.51 1.58539 -1.25338 0
M  V30 8408 C 793.831 1.94175 0.179204 0
M  V30 8409 O 793.101 1.61458 1.10941 0
M  V30 8410 H 791.681 0.58784 -0.460926 0
M  V30 8411 H 794.343 0.995064 -1.67584 0
M  V30 8412 H 793.439 2.51268 -1.85123 0
M  V30 8413 N 793.74 1.17359 1.05189 0
M  V30 8414 C 794.988 0.960087 1.77839 0
M  V30 8415 C 795.309 -0.512554 1.88143 0
M  V30 8416 O 794.579 -1.3721 1.39822 0
M  V30 8417 H 793.159 0.352234 0.658741 0
M  V30 8418 H 795.821 1.47834 1.27008 0
M  V30 8419 H 794.917 1.38843 2.79516 0
M  V30 8420 N 795.218 -1.23913 0.973828 0
M  V30 8421 C 796.448 -1.95911 0.655938 0
M  V30 8422 C 796.856 -1.72375 -0.779967 0
M  V30 8423 O 796.199 -1.00807 -1.5357 0
M  V30 8424 C 796.261 -3.49103 0.858324 0
M  V30 8425 C 795.925 -3.96347 2.27504 0
M  V30 8426 C 796.922 -4.05537 3.25324 0
M  V30 8427 C 794.607 -4.29509 2.60437 0
M  V30 8428 C 796.601 -4.47233 4.5416 0
M  V30 8429 C 794.288 -4.70887 3.89498 0
M  V30 8430 C 795.286 -4.79714 4.86172 0
M  V30 8431 O 794.974 -5.20166 6.1293 0
M  V30 8432 H 794.706 -0.630721 0.243244 0
M  V30 8433 H 797.26 -1.58534 1.30599 0
M  V30 8434 H 795.49 -3.86405 0.151097 0
M  V30 8435 H 797.179 -4.02311 0.538592 0
M  V30 8436 H 797.945 -3.80128 3.0121 0
M  V30 8437 H 793.824 -4.21853 1.85906 0
M  V30 8438 H 797.368 -4.54038 5.29618 0
M  V30 8439 H 793.265 -4.95744 4.1341 0
M  V30 8440 H 794.033 -5.38298 6.16586 0
M  V30 8441 N 796.696 -0.74468 -1.38897 0
M  V30 8442 C 797.606 -0.112892 -2.34328 0
M  V30 8443 C 798.622 0.71087 -1.58816 0
M  V30 8444 O 799.798 0.637092 -1.91058 0
M  V30 8445 C 796.863 0.776417 -3.37894 0
M  V30 8446 C 795.924 -0.0606999 -4.29257 0
M  V30 8447 C 795.157 0.786258 -5.27877 0
M  V30 8448 O 795.38 2.02463 -5.33259 0
M  V30 8449 O 794.314 0.209781 -6.01534 0
M  V30 8450 H 798.14 -0.900801 -2.90033 0
M  V30 8451 H 795.725 -0.505462 -1.4059 0
M  V30 8452 H 797.607 1.28496 -4.01331 0
M  V30 8453 H 796.282 1.54297 -2.84559 0
M  V30 8454 H 795.189 -0.614984 -3.69011 0
M  V30 8455 H 796.522 -0.789702 -4.85824 0
M  V30 8456 N 798.174 1.49689 -0.493057 0
M  V30 8457 C 799.422 2.02027 0.0541642 0
M  V30 8458 C 799.743 1.37554 1.38217 0
M  V30 8459 O 799.013 0.528174 1.88646 0
M  V30 8460 H 797.593 0.746646 0.0230069 0
M  V30 8461 H 800.255 1.83795 -0.648489 0
M  V30 8462 H 799.351 3.11523 0.189652 0
M  V30 8463 N 799.652 0.226554 1.55963 0
M  V30 8464 C 800.562 -0.692725 2.24139 0
M  V30 8465 C 801.578 -1.20971 1.25068 0
M  V30 8466 O 802.754 -1.25027 1.57893 0
M  V30 8467 C 799.819 -1.88183 2.91184 0
M  V30 8468 C 798.88 -1.40633 4.05612 0
M  V30 8469 C 798.113 -2.53875 4.6945 0
M  V30 8470 O 798.336 -3.72129 4.32292 0
M  V30 8471 O 797.27 -2.24792 5.58348 0
M  V30 8472 H 801.096 -0.141921 3.03368 0
M  V30 8473 H 798.681 -0.0041049 1.49399 0
M  V30 8474 H 800.563 -2.57617 3.33484 0
M  V30 8475 H 799.238 -2.42064 2.14911 0
M  V30 8476 H 798.145 -0.67986 3.67871 0
M  V30 8477 H 799.478 -0.913838 4.83642 0
M  V30 8478 N 801.13 -1.57531 -0.0467866 0
M  V30 8479 C 802.078 -2.06455 -1.0714 0
M  V30 8480 C 803.072 -0.974744 -1.38546 0
M  V30 8481 O 804.278 -1.15974 -1.37659 0
M  V30 8482 H 800.653 -0.658607 -0.362962 0
M  V30 8483 H 802.624 -2.91613 -0.632813 0
M  V30 8484 C 801.373 -2.54481 -2.36927 0
M  V30 8485 H 800.696 -3.37946 -2.13617 0
M  V30 8486 H 802.136 -2.92442 -3.07007 0
M  V30 8487 C 800.595 -1.43836 -3.04652 0
M  V30 8488 O 801.125 -0.794531 -3.93764 0
M  V30 8489 N 799.331 -1.17727 -2.65686 0
M  V30 8490 H 798.878 -1.70265 -1.93307 0
M  V30 8491 H 798.836 -0.439051 -3.11319 0
M  V30 8492 N 802.608 0.318715 -1.54344 0
M  V30 8493 C 803.538 1.39751 -1.87061 0
M  V30 8494 C 804.519 1.53741 -0.727848 0
M  V30 8495 O 805.704 1.67541 -0.982016 0
M  V30 8496 C 802.834 2.76446 -2.10226 0
M  V30 8497 C 801.788 2.77239 -3.26071 0
M  V30 8498 C 801.114 4.17056 -3.34617 0
M  V30 8499 C 802.414 2.40555 -4.63606 0
M  V30 8500 H 804.108 1.12619 -2.77412 0
M  V30 8501 H 801.654 0.540318 -1.33479 0
M  V30 8502 H 803.607 3.51985 -2.31699 0
M  V30 8503 H 802.331 3.05066 -1.16629 0
M  V30 8504 H 800.99 2.04155 -3.04493 0
M  V30 8505 H 800.638 4.42824 -2.3857 0
M  V30 8506 H 800.338 4.18492 -4.12478 0
M  V30 8507 H 801.862 4.94401 -3.5833 0
M  V30 8508 H 803.276 3.05808 -4.84927 0
M  V30 8509 H 801.673 2.53234 -5.44052 0
M  V30 8510 H 802.743 1.35698 -4.65526 0
M  V30 8511 N 804.086 1.46499 0.581025 0
M  V30 8512 C 805.019 1.51706 1.70472 0
M  V30 8513 C 805.997 0.371036 1.5831 0
M  V30 8514 O 807.181 0.575426 1.79502 0
M  V30 8515 C 804.308 1.3972 3.08538 0
M  V30 8516 C 803.354 2.58525 3.39215 0
M  V30 8517 S 804.187 4.20872 3.311 0
M  V30 8518 C 805.343 4.11398 4.71702 0
M  V30 8519 H 805.576 2.46777 1.65796 0
M  V30 8520 H 803.109 1.34405 0.759908 0
M  V30 8521 H 805.067 1.33492 3.88188 0
M  V30 8522 H 803.728 0.460742 3.10702 0
M  V30 8523 H 802.921 2.46137 4.3981 0
M  V30 8524 H 802.523 2.61752 2.67136 0
M  V30 8525 H 804.815 3.78182 5.62125 0
M  V30 8526 H 805.758 5.11997 4.89147 0
M  V30 8527 H 806.166 3.42624 4.48631 0
M  V30 8528 N 805.565 -0.825799 1.34232 0
M  V30 8529 C 806.512 -1.93651 1.2557 0
M  V30 8530 C 807.482 -1.65578 0.131536 0
M  V30 8531 O 808.667 -1.88231 0.312027 0
M  V30 8532 C 805.807 -3.29862 1.01415 0
M  V30 8533 C 804.92 -3.70247 2.22579 0
M  V30 8534 C 804.055 -4.95392 1.91731 0
M  V30 8535 C 803.094 -5.28349 3.09053 0
M  V30 8536 N 802.231 -6.44671 2.78107 0
M  V30 8537 H 807.071 -2.00392 2.20561 0
M  V30 8538 H 804.608 -0.980441 1.09662 0
M  V30 8539 H 806.566 -4.08356 0.854485 0
M  V30 8540 H 805.196 -3.22642 0.100936 0
M  V30 8541 H 804.248 -2.87169 2.49476 0
M  V30 8542 H 805.56 -3.90575 3.10246 0
M  V30 8543 H 804.714 -5.81665 1.72484 0
M  V30 8544 H 803.453 -4.77059 1.0132 0
M  V30 8545 H 802.458 -4.40574 3.289 0
M  V30 8546 H 803.683 -5.48622 4.00239 0
M  V30 8547 H 801.629 -6.278 1.9027 0
M  V30 8548 H 801.546 -6.65158 3.59306 0
M  V30 8549 H 802.814 -7.34022 2.62358 0
M  V30 8550 N 807.043 -1.17915 -1.04565 0
M  V30 8551 C 808.292 -0.965816 -1.77073 0
M  V30 8552 C 808.605 0.506005 -1.88942 0
M  V30 8553 O 809.811 0.837717 -2.58253 0
M  V30 8554 C 808.267 -1.67894 -3.18339 0
M  V30 8555 C 807.875 -3.18972 -3.1458 0
M  V30 8556 C 809.619 -1.54823 -3.9526 0
M  V30 8557 C 807.526 -3.82946 -4.50674 0
M  V30 8558 H 806.456 -0.357729 -0.663736 0
M  V30 8559 H 809.107 -1.41235 -1.17153 0
M  V30 8560 H 807.489 -1.16016 -3.78624 0
M  V30 8561 H 808.663 -3.77835 -2.63776 0
M  V30 8562 H 806.978 -3.32127 -2.51159 0
M  V30 8563 H 809.575 -1.99984 -4.95894 0
M  V30 8564 H 809.918 -0.499727 -4.1329 0
M  V30 8565 H 810.451 -2.03953 -3.41538 0
M  V30 8566 H 807.19 -4.8782 -4.37849 0
M  V30 8567 H 806.71 -3.2887 -5.01602 0
M  V30 8568 H 808.389 -3.85518 -5.196 0
M  V30 8569 N 808.521 1.23394 -0.980386 0
M  V30 8570 C 809.451 2.2717 -0.540024 0
M  V30 8571 C 810.432 1.64659 0.426787 0
M  V30 8572 O 811.617 1.91543 0.320153 0
M  V30 8573 C 808.747 3.46939 0.15836 0
M  V30 8574 C 807.701 4.21802 -0.725732 0
M  V30 8575 C 807.027 5.34597 0.104866 0
M  V30 8576 C 808.327 4.81802 -2.01654 0
M  V30 8577 H 810.021 2.64257 -1.40743 0
M  V30 8578 H 807.567 1.2703 -0.678193 0
M  V30 8579 H 809.52 4.18683 0.477737 0
M  V30 8580 H 808.244 3.08912 1.06022 0
M  V30 8581 H 806.903 3.51875 -1.02857 0
M  V30 8582 H 806.551 4.92812 1.00726 0
M  V30 8583 H 806.251 5.85607 -0.483557 0
M  V30 8584 H 807.775 6.09163 0.418624 0
M  V30 8585 H 809.189 5.45554 -1.76193 0
M  V30 8586 H 807.586 5.43098 -2.55273 0
M  V30 8587 H 808.656 4.02549 -2.70338 0
M  V30 8588 N 809.999 0.752036 1.385 0
M  V30 8589 C 810.946 0.123288 2.3047 0
M  V30 8590 C 811.916 -0.711326 1.50098 0
M  V30 8591 O 813.101 -0.667775 1.78733 0
M  V30 8592 C 810.241 -0.765085 3.36512 0
M  V30 8593 C 809.354 0.0839885 4.31918 0
M  V30 8594 C 808.489 -0.807243 5.25031 0
M  V30 8595 C 807.528 0.0455583 6.12083 0
M  V30 8596 N 806.665 -0.802547 6.97498 0
M  V30 8597 H 811.505 0.913169 2.83664 0
M  V30 8598 H 809.042 0.46195 1.39658 0
M  V30 8599 H 811 -1.29476 3.966 0
M  V30 8600 H 809.63 -1.52077 2.84732 0
M  V30 8601 H 808.682 0.731276 3.73305 0
M  V30 8602 H 809.994 0.74265 4.9324 0
M  V30 8603 H 809.148 -1.40414 5.90228 0
M  V30 8604 H 807.887 -1.49964 4.64071 0
M  V30 8605 H 806.892 0.655137 5.45883 0
M  V30 8606 H 808.117 0.734994 6.75111 0
M  V30 8607 H 806.063 -1.47992 6.39089 0
M  V30 8608 H 805.98 -0.200747 7.55733 0
M  V30 8609 H 807.248 -1.38447 7.67107 0
M  V30 8610 N 811.477 -1.49425 0.500989 0
M  V30 8611 C 812.754 -1.9531 -0.106551 0
M  V30 8612 C 813.134 -1.44248 -1.54129 0
M  V30 8613 O 812.482 -0.656237 -2.18874 0
M  V30 8614 C 812.692 -3.48995 -0.0191972 0
M  V30 8615 C 814.04 -4.24161 -0.193129 0
M  V30 8616 O 815.064 -3.56075 -0.0943843 0
M  V30 8617 O 813.923 -5.45064 -0.395869 0
M  V30 8618 H 811.017 -0.82149 -0.0953068 0
M  V30 8619 H 813.563 -1.6007 0.563526 0
M  V30 8620 H 812.335 -3.78794 0.981353 0
M  V30 8621 H 811.958 -3.90852 -0.72942 0
M  V30 8622 N 812.955 -0.234822 -1.55841 0
M  V30 8623 C 814.204 0.393685 -1.97821 0
M  V30 8624 C 814.517 1.59947 -1.1259 0
M  V30 8625 O 815.723 2.29835 -1.44528 0
M  V30 8626 C 814.179 0.751811 -3.5196 0
M  V30 8627 C 813.787 -0.431898 -4.45913 0
M  V30 8628 C 815.531 1.34518 -4.02623 0
M  V30 8629 C 813.438 -0.0505976 -5.91378 0
M  V30 8630 H 812.368 0.150864 -0.738753 0
M  V30 8631 H 815.019 -0.333132 -1.80451 0
M  V30 8632 H 813.401 1.53642 -3.6498 0
M  V30 8633 H 814.575 -1.20935 -4.44647 0
M  V30 8634 H 812.89 -0.939385 -4.05666 0
M  V30 8635 H 815.487 1.64359 -5.08813 0
M  V30 8636 H 815.83 2.26554 -3.49255 0
M  V30 8637 H 816.363 0.623729 -3.9288 0
M  V30 8638 H 813.102 -0.937779 -6.48757 0
M  V30 8639 H 812.622 0.690898 -5.95808 0
M  V30 8640 H 814.301 0.37146 -6.45933 0
M  V30 8641 N 814.433 1.57553 0.0384317 0
M  V30 8642 C 815.343 2.09333 1.0591 0
M  V30 8643 C 816.359 1.0299 1.40247 0
M  V30 8644 O 817.535 1.34669 1.49754 0
M  V30 8645 C 814.6 2.55468 2.34386 0
M  V30 8646 C 813.661 3.76254 2.06716 0
M  V30 8647 C 812.894 4.20179 3.29067 0
M  V30 8648 O 813.117 3.637 4.39407 0
M  V30 8649 O 812.051 5.12697 3.15317 0
M  V30 8650 H 815.877 2.96683 0.649087 0
M  V30 8651 H 813.462 1.47211 0.254802 0
M  V30 8652 H 815.344 2.85514 3.09935 0
M  V30 8653 H 814.019 1.71234 2.74701 0
M  V30 8654 H 812.926 3.51241 1.28766 0
M  V30 8655 H 814.259 4.61443 1.71263 0
M  V30 8656 N 815.911 -0.310526 1.54511 0
M  V30 8657 C 816.859 -1.40272 1.85544 0
M  V30 8658 C 817.853 -1.52941 0.728377 0
M  V30 8659 O 819.059 -1.55172 0.912234 0
M  V30 8660 H 815.434 -0.468355 0.588343 0
M  V30 8661 H 817.405 -1.11329 2.76855 0
M  V30 8662 C 816.154 -2.76279 2.11105 0
M  V30 8663 H 815.477 -2.67308 2.97298 0
M  V30 8664 H 816.917 -3.51736 2.36765 0
M  V30 8665 C 815.376 -3.24472 0.906618 0
M  V30 8666 O 815.906 -4.01514 0.122358 0
M  V30 8667 N 814.112 -2.81676 0.714632 0
M  V30 8668 H 813.659 -2.19143 1.35404 0
M  V30 8669 H 813.617 -3.14272 -0.089703 0
M  V30 8670 N 817.389 -1.46805 -0.573248 0
M  V30 8671 C 818.614 -1.56433 -1.36175 0
M  V30 8672 C 819.039 -0.209336 -1.86932 0
M  V30 8673 O 818.397 0.812146 -1.62092 0
M  V30 8674 C 818.445 -2.58055 -2.51873 0
M  V30 8675 O 817.549 -2.12214 -3.53609 0
M  V30 8676 H 816.89 -0.526068 -0.405153 0
M  V30 8677 H 819.42 -1.92456 -0.694405 0
M  V30 8678 H 819.43 -2.77966 -2.98662 0
M  V30 8679 H 818.105 -3.56448 -2.14284 0
M  V30 8680 H 816.682 -2.02333 -3.13234 0
M  V30 8681 N 818.867 0.818669 -1.34668 0
M  V30 8682 C 820.095 1.60674 -1.30351 0
M  V30 8683 C 820.51 1.88408 0.121546 0
M  V30 8684 O 819.867 1.47849 1.06991 0
M  V30 8685 C 819.918 2.94516 -2.09625 0
M  V30 8686 O 819.639 2.6799 -3.46573 0
M  V30 8687 C 821.14 3.8891 -2.12754 0
M  V30 8688 H 818.36 0.499306 -0.448258 0
M  V30 8689 H 820.904 1.01828 -1.77345 0
M  V30 8690 H 819.059 3.49908 -1.66262 0
M  V30 8691 H 819.473 3.53361 -3.87603 0
M  V30 8692 H 820.947 4.79972 -2.72637 0
M  V30 8693 H 821.424 4.24599 -1.12306 0
M  V30 8694 H 822.03 3.39453 -2.56225 0
M  V30 8695 N 820.346 1.18468 1.03938 0
M  V30 8696 C 821.256 0.927889 2.1547 0
M  V30 8697 C 822.272 -0.108447 1.73662 0
M  V30 8698 O 823.448 0.0737636 2.01265 0
M  V30 8699 C 820.513 0.458494 3.43655 0
M  V30 8700 C 819.574 1.56295 3.99838 0
M  V30 8701 C 818.807 1.11586 5.21904 0
M  V30 8702 O 819.03 -0.0249057 5.70395 0
M  V30 8703 O 817.964 1.91412 5.70653 0
M  V30 8704 H 821.79 1.86116 2.39989 0
M  V30 8705 H 819.375 0.966607 1.13917 0
M  V30 8706 H 821.257 0.204861 4.20902 0
M  V30 8707 H 819.932 -0.446464 3.20606 0
M  V30 8708 H 818.839 1.87061 3.23974 0
M  V30 8709 H 820.172 2.44408 4.2723 0
M  V30 8710 N 821.824 -1.22873 0.986916 0
M  V30 8711 C 823.073 -1.90772 0.654911 0
M  V30 8712 C 823.386 -1.77768 -0.81595 0
M  V30 8713 O 824.592 -2.40529 -1.25929 0
M  V30 8714 C 823.048 -3.42003 1.12081 0
M  V30 8715 C 822.656 -3.63655 2.61647 0
M  V30 8716 C 824.4 -4.15638 0.862854 0
M  V30 8717 C 822.307 -5.08555 3.01871 0
M  V30 8718 H 821.237 -0.714362 0.241252 0
M  V30 8719 H 823.888 -1.39196 1.19568 0
M  V30 8720 H 822.27 -3.92725 0.508207 0
M  V30 8721 H 823.444 -3.2345 3.28202 0
M  V30 8722 H 821.759 -3.03341 2.8526 0
M  V30 8723 H 824.356 -5.22425 1.13915 0
M  V30 8724 H 824.699 -4.15814 -0.201036 0
M  V30 8725 H 825.232 -3.70924 1.43736 0
M  V30 8726 H 821.971 -5.13514 4.07411 0
M  V30 8727 H 821.491 -5.49684 2.40015 0
M  V30 8728 H 823.17 -5.76936 2.92839 0
M  V30 8729 N 823.302 -0.75937 -1.38099 0
M  V30 8730 C 824.235 -0.0838362 -2.28046 0
M  V30 8731 C 825.213 0.722229 -1.4568 0
M  V30 8732 O 826.397 0.699629 -1.75036 0
M  V30 8733 C 823.524 0.887916 -3.26854 0
M  V30 8734 C 822.57 0.167374 -4.26171 0
M  V30 8735 S 823.403 -1.13592 -5.23314 0
M  V30 8736 C 824.559 -0.167385 -6.25676 0
M  V30 8737 H 824.792 -0.846564 -2.84992 0
M  V30 8738 H 822.325 -0.552206 -1.44188 0
M  V30 8739 H 824.283 1.44322 -3.84293 0
M  V30 8740 H 822.944 1.62366 -2.68879 0
M  V30 8741 H 822.137 0.903567 -4.95834 0
M  V30 8742 H 821.739 -0.316572 -3.72658 0
M  V30 8743 H 824.031 0.664598 -6.74232 0
M  V30 8744 H 824.974 -0.831836 -7.03197 0
M  V30 8745 H 825.382 0.21589 -5.64087 0
M  V30 8746 N 824.78 1.49157 -0.508906 0
M  V30 8747 C 825.71 2.32109 0.254469 0
M  V30 8748 C 826.691 1.40754 0.955111 0
M  V30 8749 O 827.876 1.69658 0.944983 0
M  V30 8750 C 825.006 3.21458 1.3146 0
M  V30 8751 C 823.96 4.2167 0.733368 0
M  V30 8752 C 823.286 5.00009 1.8946 0
M  V30 8753 C 824.586 5.21544 -0.280875 0
M  V30 8754 H 826.28 2.9618 -0.43795 0
M  V30 8755 H 823.826 1.4243 -0.212062 0
M  V30 8756 H 825.779 3.78305 1.85643 0
M  V30 8757 H 824.503 2.55346 2.03632 0
M  V30 8758 H 823.162 3.65979 0.213231 0
M  V30 8759 H 822.81 4.30338 2.60419 0
M  V30 8760 H 822.51 5.67821 1.51173 0
M  V30 8761 H 824.034 5.59702 2.44061 0
M  V30 8762 H 825.448 5.73039 0.173095 0
M  V30 8763 H 823.845 5.97291 -0.580006 0
M  V30 8764 H 824.915 4.69969 -1.19404 0
M  V30 8765 N 826.258 0.243083 1.55714 0
M  V30 8766 C 827.535 -0.432851 1.90751 0
M  V30 8767 C 827.915 -1.76153 1.16333 0
M  V30 8768 O 827.263 -2.26783 0.279565 0
M  V30 8769 C 827.473 -0.604685 3.43722 0
M  V30 8770 C 828.821 -0.90231 4.14902 0
M  V30 8771 O 829.845 -0.690689 3.49439 0
M  V30 8772 O 828.704 -1.3051 5.30688 0
M  V30 8773 H 825.798 -0.231835 0.79384 0
M  V30 8774 H 828.344 0.286867 1.67258 0
M  V30 8775 H 827.116 0.331655 3.89892 0
M  V30 8776 H 826.739 -1.37509 3.73065 0
M  V30 8777 N 827.736 -1.57571 -0.0300757 0
M  V30 8778 C 829.152 -1.54869 -0.385703 0
M  V30 8779 C 829.352 -0.969068 -1.76667 0
M  V30 8780 O 828.408 -0.589676 -2.45518 0
M  V30 8781 C 829.721 -2.99313 -0.288482 0
M  V30 8782 C 831.269 -3.10857 -0.365638 0
M  V30 8783 C 831.744 -4.5703 -0.297878 0
M  V30 8784 N 833.235 -4.61825 -0.356703 0
M  V30 8785 C 833.97 -5.72466 -0.327146 0
M  V30 8786 N 833.466 -6.92349 -0.249941 0
M  V30 8787 N 835.259 -5.60836 -0.376801 0
M  V30 8788 H 827.41 -1.936 0.87367 0
M  V30 8789 H 829.673 -0.887924 0.332106 0
M  V30 8790 H 829.379 -3.45443 0.66047 0
M  V30 8791 H 829.253 -3.61332 -1.08253 0
M  V30 8792 H 831.64 -2.64676 -1.30502 0
M  V30 8793 H 831.721 -2.51671 0.457744 0
M  V30 8794 H 831.365 -5.03879 0.637835 0
M  V30 8795 H 831.295 -5.14127 -1.13935 0
M  V30 8796 H 833.786 -3.75571 -0.418926 0
M  V30 8797 H 834.099 -7.7245 -0.23246 0
M  V30 8798 H 832.444 -6.94664 -0.216004 0
M  V30 8799 H 835.635 -4.66073 -0.435101 0
M  V30 8800 H 835.808 -6.47052 -0.350298 0
M  V30 8801 N 829.214 0.302327 -1.54673 0
M  V30 8802 C 830.46 1.03532 -1.75079 0
M  V30 8803 C 830.815 1.84972 -0.52943 0
M  V30 8804 O 830.108 1.85537 0.478169 0
M  V30 8805 C 830.302 1.97365 -2.97963 0
M  V30 8806 C 830.131 1.25154 -4.31934 0
M  V30 8807 C 828.901 0.979243 -4.95721 0
M  V30 8808 C 831.099 0.656653 -5.10091 0
M  V30 8809 N 829.081 0.227265 -6.13479 0
M  V30 8810 C 830.452 0.0373759 -6.19989 0
M  V30 8811 C 832.507 0.561571 -4.94723 0
M  V30 8812 C 831.21 -0.667782 -7.16194 0
M  V30 8813 C 833.236 -0.12993 -5.91257 0
M  V30 8814 C 832.598 -0.738063 -7.00523 0
M  V30 8815 H 828.697 0.361824 -0.693258 0
M  V30 8816 H 831.281 0.314091 -1.9215 0
M  V30 8817 H 829.452 2.66739 -2.8232 0
M  V30 8818 H 831.184 2.63806 -3.06902 0
M  V30 8819 H 827.939 1.27706 -4.56057 0
M  V30 8820 H 828.363 -0.135199 -6.76865 0
M  V30 8821 H 833.005 1.01744 -4.10375 0
M  V30 8822 H 830.723 -1.13542 -8.00084 0
M  V30 8823 H 834.309 -0.203423 -5.81444 0
M  V30 8824 H 833.189 -1.26463 -7.73936 0
M  V30 8825 N 830.692 1.47107 0.565454 0
M  V30 8826 C 831.639 1.58974 1.6732 0
M  V30 8827 C 832.609 0.433146 1.60353 0
M  V30 8828 O 833.794 0.652141 1.79309 0
M  V30 8829 C 830.934 1.60224 3.05651 0
M  V30 8830 C 830.047 2.86741 3.23116 0
M  V30 8831 C 829.182 2.79381 4.51796 0
M  V30 8832 C 828.221 4.0076 4.62664 0
M  V30 8833 N 827.358 3.91685 5.8269 0
M  V30 8834 H 832.198 2.53588 1.56515 0
M  V30 8835 H 829.735 1.25791 0.762558 0
M  V30 8836 H 831.693 1.58933 3.85741 0
M  V30 8837 H 830.323 0.691285 3.15311 0
M  V30 8838 H 829.375 2.97936 2.36513 0
M  V30 8839 H 830.687 3.7665 3.27011 0
M  V30 8840 H 829.841 2.76293 5.40136 0
M  V30 8841 H 828.58 1.87142 4.50366 0
M  V30 8842 H 827.585 4.04162 3.72738 0
M  V30 8843 H 828.81 4.94117 4.6586 0
M  V30 8844 H 826.756 3.02243 5.82224 0
M  V30 8845 H 826.673 4.75264 5.87929 0
M  V30 8846 H 827.941 3.92599 6.73414 0
M  V30 8847 N 832.17 -0.811516 1.35101 0
M  V30 8848 C 833.417 -1.56835 1.28098 0
M  V30 8849 C 833.745 -1.93951 -0.14597 0
M  V30 8850 O 833 -1.61173 -1.11004 0
M  V30 8851 C 833.299 -2.87121 2.1283 0
M  V30 8852 C 832.965 -2.69245 3.61688 0
M  V30 8853 C 831.627 -2.64078 4.02264 0
M  V30 8854 C 833.979 -2.52122 4.56162 0
M  V30 8855 C 831.307 -2.39724 5.3549 0
M  V30 8856 C 833.659 -2.29298 5.89581 0
M  V30 8857 C 832.323 -2.2255 6.29307 0
M  V30 8858 H 831.593 -0.5739 0.468742 0
M  V30 8859 H 834.24 -0.93806 1.66951 0
M  V30 8860 H 832.545 -3.54502 1.66841 0
M  V30 8861 H 834.242 -3.44788 2.0475 0
M  V30 8862 H 830.832 -2.74112 3.29485 0
M  V30 8863 H 835.016 -2.5513 4.25702 0
M  V30 8864 H 830.272 -2.32965 5.65276 0
M  V30 8865 H 834.446 -2.15038 6.62368 0
M  V30 8866 H 832.073 -2.0344 7.32473 0
M  V30 8867 N 833.648 -1.19017 -1.03309 0
M  V30 8868 C 834.558 -0.939303 -2.14975 0
M  V30 8869 C 835.574 0.0992359 -1.73717 0
M  V30 8870 O 836.75 -0.0844362 -2.01223 0
M  V30 8871 C 833.815 -0.476712 -3.43407 0
M  V30 8872 C 832.876 -1.58413 -3.99003 0
M  V30 8873 C 832.109 -1.14352 -5.21305 0
M  V30 8874 O 832.332 -0.00534408 -5.704 0
M  V30 8875 O 831.266 -1.94436 -5.6963 0
M  V30 8876 H 835.092 -1.87386 -2.38998 0
M  V30 8877 H 832.677 -0.972635 -1.13403 0
M  V30 8878 H 834.559 -0.22718 -4.20787 0
M  V30 8879 H 833.234 0.429455 -3.20839 0
M  V30 8880 H 832.141 -1.88777 -3.22977 0
M  V30 8881 H 833.474 -2.4667 -4.25928 0
M  V30 8882 N 835.127 1.22348 -0.993418 0
M  V30 8883 C 836.373 1.91393 -0.67056 0
M  V30 8884 C 836.706 1.77163 0.795428 0
M  V30 8885 O 835.981 1.14084 1.57528 0
M  V30 8886 C 836.264 3.43589 -1.0779 0
M  V30 8887 C 836.117 3.66867 -2.60248 0
M  V30 8888 C 837.436 4.35545 -0.631527 0
M  V30 8889 H 834.555 0.695057 -0.24508 0
M  V30 8890 H 837.197 1.44213 -1.23703 0
M  V30 8891 H 835.347 3.83903 -0.595902 0
M  V30 8892 H 837.019 3.35954 -3.16121 0
M  V30 8893 H 835.262 3.1113 -3.02293 0
M  V30 8894 H 835.933 4.73457 -2.838 0
M  V30 8895 H 838.409 4.0275 -1.04554 0
M  V30 8896 H 837.285 5.40707 -0.944831 0
M  V30 8897 H 837.546 4.39618 0.467779 0
M  V30 8898 N 836.605 0.766683 1.37694 0
M  V30 8899 C 837.854 0.325425 1.99057 0
M  V30 8900 C 838.167 -1.10275 1.61551 0
M  V30 8901 O 839.373 -1.64513 2.1598 0
M  V30 8902 C 837.829 0.530886 3.55963 0
M  V30 8903 C 837.437 1.96899 4.02411 0
M  V30 8904 C 839.181 0.152997 4.24224 0
M  V30 8905 C 837.088 2.12232 5.52007 0
M  V30 8906 H 836.018 0.117929 0.744721 0
M  V30 8907 H 838.669 0.945091 1.5729 0
M  V30 8908 H 837.051 -0.158162 3.95684 0
M  V30 8909 H 838.225 2.69258 3.73948 0
M  V30 8910 H 836.54 2.303 3.46916 0
M  V30 8911 H 839.137 0.24614 5.34133 0
M  V30 8912 H 839.48 -0.896096 4.06541 0
M  V30 8913 H 840.013 0.794398 3.89787 0
M  V30 8914 H 836.752 3.15442 5.7461 0
M  V30 8915 H 836.272 1.4435 5.82171 0
M  V30 8916 H 837.951 1.9185 6.17902 0
M  V30 8917 N 838.083 -1.48885 0.516809 0
M  V30 8918 C 839.494 -1.86557 0.0729921 0
M  V30 8919 C 839.845 -1.42767 -1.34581 0
M  V30 8920 O 838.97 -0.812514 -2.00567 0
M  V30 8921 C 839.565 -3.38567 0.125686 0
M  V30 8922 C 838.124 -3.75481 -0.262867 0
M  V30 8923 C 837.271 -2.72913 0.491281 0
M  V30 8924 H 840.222 -1.40978 0.728767 0
M  V30 8925 H 840.243 -3.74629 -0.665831 0
M  V30 8926 H 839.755 -3.70408 1.15842 0
M  V30 8927 H 837.856 -3.49251 -1.29824 0
M  V30 8928 H 837.969 -4.79052 0.067579 0
M  V30 8929 H 836.333 -2.54627 -0.0608525 0
M  V30 8930 H 837.116 -3.07599 1.5244 0
M  V30 8931 N 839.561 -0.251338 -1.55583 0
M  V30 8932 C 840.509 0.662534 -2.22965 0
M  V30 8933 C 841.503 1.17662 -1.21869 0
M  V30 8934 O 842.709 1.133 -1.39868 0
M  V30 8935 H 839.084 0.232151 -0.715269 0
M  V30 8936 H 841.055 0.0711252 -2.98315 0
M  V30 8937 C 839.804 1.84646 -2.94621 0
M  V30 8938 H 839.127 1.46003 -3.72187 0
M  V30 8939 H 840.567 2.46303 -3.45124 0
M  V30 8940 C 839.026 2.72034 -1.98744 0
M  V30 8941 O 839.556 3.71695 -1.52335 0
M  V30 8942 N 837.762 2.38695 -1.6575 0
M  V30 8943 H 837.309 1.57702 -2.03685 0
M  V30 8944 H 837.267 2.9744 -1.01867 0
M  V30 8945 N 841.039 1.57585 0.0217189 0
M  V30 8946 C 842.316 1.80779 0.74687 0
M  V30 8947 C 842.696 0.851163 1.9318 0
M  V30 8948 O 842.044 -0.105039 2.28258 0
M  V30 8949 C 842.254 3.28696 1.17302 0
M  V30 8950 C 843.602 3.93871 1.58589 0
M  V30 8951 O 844.626 3.3289 1.2674 0
M  V30 8952 O 843.485 5.01254 2.1773 0
M  V30 8953 H 840.579 0.743666 0.361786 0
M  V30 8954 H 843.125 1.697 -0.00206785 0
M  V30 8955 H 841.897 3.89927 0.327453 0
M  V30 8956 H 841.52 3.44692 1.98174 0
M  V30 8957 N 842.517 -0.29412 1.54831 0
M  V30 8958 C 843.464 -1.36296 1.86258 0
M  V30 8959 C 844.434 -1.50061 0.712097 0
M  V30 8960 O 845.619 -1.64809 0.961381 0
M  V30 8961 C 842.759 -2.72187 2.12151 0
M  V30 8962 C 841.872 -2.66816 3.39755 0
M  V30 8963 C 841.007 -3.94747 3.55455 0
M  V30 8964 C 840.046 -3.838 4.76827 0
M  V30 8965 N 839.183 -5.03521 4.89296 0
M  V30 8966 H 844.023 -1.08796 2.7743 0
M  V30 8967 H 841.56 -0.526069 1.37371 0
M  V30 8968 H 843.518 -3.51225 2.25159 0
M  V30 8969 H 842.148 -2.97934 1.24237 0
M  V30 8970 H 841.2 -1.79605 3.3533 0
M  V30 8971 H 842.512 -2.5462 4.28917 0
M  V30 8972 H 841.666 -4.82223 3.68166 0
M  V30 8973 H 840.405 -4.09785 2.64438 0
M  V30 8974 H 839.41 -2.94708 4.64141 0
M  V30 8975 H 840.635 -3.70301 5.69258 0
M  V30 8976 H 838.581 -5.1901 4.01204 0
M  V30 8977 H 838.498 -4.93775 5.72471 0
M  V30 8978 H 839.766 -5.92629 5.06371 0
M  V30 8979 N 843.995 -1.47404 -0.557645 0
M  V30 8980 C 845.272 -1.44488 -1.31843 0
M  V30 8981 C 845.652 -0.1416 -2.10625 0
M  V30 8982 O 845 0.876908 -2.11004 0
M  V30 8983 C 845.21 -2.69016 -2.22331 0
M  V30 8984 C 846.558 -3.16212 -2.83364 0
M  V30 8985 O 847.582 -2.69741 -2.32634 0
M  V30 8986 O 846.441 -3.96999 -3.75571 0
M  V30 8987 H 843.535 -0.57578 -0.593639 0
M  V30 8988 H 846.081 -1.59605 -0.576584 0
M  V30 8989 H 844.853 -3.55406 -1.63715 0
M  V30 8990 H 844.476 -2.56484 -3.03812 0
M  V30 8991 N 845.473 0.80434 -1.35529 0
M  V30 8992 C 846.383 1.94784 -1.30753 0
M  V30 8993 C 847.399 1.72703 -0.212071 0
M  V30 8994 O 848.575 1.96494 -0.441841 0
M  V30 8995 C 845.64 3.29406 -1.08133 0
M  V30 8996 C 844.701 3.64367 -2.27013 0
M  V30 8997 C 843.934 4.92566 -2.05463 0
M  V30 8998 O 844.157 5.61166 -1.02222 0
M  V30 8999 O 843.091 5.25838 -2.92879 0
M  V30 9000 H 846.917 2.01761 -2.26994 0
M  V30 9001 H 844.502 0.942448 -1.15924 0
M  V30 9002 H 846.384 4.09995 -0.973756 0
M  V30 9003 H 845.059 3.23355 -0.149444 0
M  V30 9004 H 843.966 2.84146 -2.43335 0
M  V30 9005 H 845.299 3.75125 -3.18656 0
M  V30 9006 N 846.951 1.19563 1.02676 0
M  V30 9007 C 847.898 0.935291 2.11 0
M  V30 9008 C 848.868 -0.130685 1.65585 0
M  V30 9009 O 850.053 0.0119062 1.90796 0
M  V30 9010 C 847.193 0.482384 3.41712 0
M  V30 9011 C 846.306 1.61537 4.00662 0
M  V30 9012 C 845.441 1.11378 5.19392 0
M  V30 9013 C 844.48 2.22052 5.70403 0
M  V30 9014 N 843.617 1.73185 6.80405 0
M  V30 9015 H 848.457 1.86275 2.32606 0
M  V30 9016 H 845.994 0.928656 1.14081 0
M  V30 9017 H 847.952 0.20118 4.16715 0
M  V30 9018 H 846.582 -0.408086 3.2021 0
M  V30 9019 H 845.634 2.01173 3.22852 0
M  V30 9020 H 846.946 2.44912 4.34534 0
M  V30 9021 H 846.1 0.787935 6.01562 0
M  V30 9022 H 844.839 0.249789 4.8706 0
M  V30 9023 H 843.844 2.55465 4.86845 0
M  V30 9024 H 845.069 3.08911 6.04774 0
M  V30 9025 H 843.015 0.890973 6.49921 0
M  V30 9026 H 842.932 2.50148 7.13416 0
M  V30 9027 H 844.2 1.4357 7.66164 0
M  V30 9028 N 848.429 -1.21819 0.999893 0
M  V30 9029 C 849.677 -1.90375 0.678351 0
M  V30 9030 C 849.998 -1.78155 -0.792824 0
M  V30 9031 O 849.268 -1.17319 -1.56885 0
M  V30 9032 H 847.848 -0.704661 0.247915 0
M  V30 9033 H 850.51 -1.48021 1.2679 0
M  V30 9034 H 849.606 -2.97385 0.947023 0
M  V30 9035 N 849.908 -0.773975 -1.37286 0
M  V30 9036 C 851.185 -0.263942 -1.93811 0
M  V30 9037 C 851.565 1.24138 -1.70743 0
M  V30 9038 O 850.913 2.02557 -1.05749 0
M  V30 9039 C 851.123 -0.639753 -3.43086 0
M  V30 9040 C 852.471 -0.610796 -4.20184 0
M  V30 9041 O 853.495 -0.579278 -3.51458 0
M  V30 9042 O 852.354 -0.639862 -5.42741 0
M  V30 9043 H 849.448 -0.0614331 -0.824715 0
M  V30 9044 H 851.994 -0.855477 -1.46559 0
M  V30 9045 H 850.766 -1.67856 -3.53469 0
M  V30 9046 H 850.389 -0.0212827 -3.97594 0
M  V30 9047 N 851.386 1.48609 -0.524698 0
M  V30 9048 C 852.797 1.86516 -0.0828846 0
M  V30 9049 C 853.148 1.43478 1.33822 0
M  V30 9050 O 852.273 0.823139 2.00133 0
M  V30 9051 C 852.868 3.38495 -0.143639 0
M  V30 9052 C 851.427 3.75615 0.242951 0
M  V30 9053 C 850.574 2.72649 -0.505747 0
M  V30 9054 H 853.525 1.40589 -0.736233 0
M  V30 9055 H 853.546 3.74977 0.645955 0
M  V30 9056 H 853.058 3.69789 -1.17805 0
M  V30 9057 H 851.159 3.49935 1.27971 0
M  V30 9058 H 851.272 4.7901 -0.0929834 0
M  V30 9059 H 849.636 2.54656 0.0473482 0
M  V30 9060 H 850.419 3.06786 -1.54069 0
M  V30 9061 N 852.864 0.259585 1.55447 0
M  V30 9062 C 854.11 -0.362143 1.9954 0
M  V30 9063 C 854.443 -1.5666 1.14767 0
M  V30 9064 O 853.718 -1.93319 0.214025 0
M  V30 9065 C 854.001 -0.759588 3.51998 0
M  V30 9066 C 853.854 0.451134 4.47532 0
M  V30 9067 C 855.173 -1.60186 4.09913 0
M  V30 9068 H 852.292 -0.130157 0.725416 0
M  V30 9069 H 854.934 0.363431 1.86492 0
M  V30 9070 H 853.084 -1.3778 3.63248 0
M  V30 9071 H 854.756 1.08965 4.48246 0
M  V30 9072 H 852.999 1.092 4.19831 0
M  V30 9073 H 853.67 0.129518 5.51848 0
M  V30 9074 H 856.146 -1.0799 4.01842 0
M  V30 9075 H 855.022 -1.84879 5.16828 0
M  V30 9076 H 855.283 -2.57787 3.59163 0
M  V30 9077 N 854.342 -1.57594 -0.0133615 0
M  V30 9078 C 855.753 -1.78168 -0.557937 0
M  V30 9079 C 856.104 -0.892616 -1.74719 0
M  V30 9080 O 855.229 -0.0915491 -2.16206 0
M  V30 9081 C 855.824 -3.23115 -1.01894 0
M  V30 9082 C 854.383 -3.44831 -1.50892 0
M  V30 9083 C 853.53 -2.73558 -0.454044 0
M  V30 9084 H 856.481 -1.57266 0.212843 0
M  V30 9085 H 856.502 -3.30493 -1.8856 0
M  V30 9086 H 856.014 -3.87798 -0.153175 0
M  V30 9087 H 854.115 -2.85345 -2.39602 0
M  V30 9088 H 854.228 -4.53485 -1.54559 0
M  V30 9089 H 852.592 -2.37787 -0.912666 0
M  V30 9090 H 853.375 -3.40932 0.402524 0
M  V30 9091 N 855.82 0.285905 -1.54985 0
M  V30 9092 C 857.05 1.03626 -1.78732 0
M  V30 9093 C 857.458 1.80896 -0.554377 0
M  V30 9094 O 856.801 1.77161 0.48578 0
M  V30 9095 C 856.863 2.05185 -2.95193 0
M  V30 9096 C 856.527 1.46973 -4.32722 0
M  V30 9097 C 857.524 0.891986 -5.12191 0
M  V30 9098 C 855.209 1.50081 -4.79355 0
M  V30 9099 C 857.203 0.353078 -6.36421 0
M  V30 9100 C 854.89 0.958037 -6.03544 0
M  V30 9101 C 855.888 0.385157 -6.81913 0
M  V30 9102 O 855.576 -0.149341 -8.03761 0
M  V30 9103 H 855.308 0.312416 -0.599477 0
M  V30 9104 H 857.862 0.326067 -2.02795 0
M  V30 9105 H 856.092 2.79928 -2.66791 0
M  V30 9106 H 857.781 2.66244 -3.0638 0
M  V30 9107 H 858.547 0.860762 -4.77301 0
M  V30 9108 H 854.426 1.9361 -4.18373 0
M  V30 9109 H 857.97 -0.0947181 -6.97536 0
M  V30 9110 H 853.867 0.986458 -6.37918 0
M  V30 9111 H 854.635 -0.0374719 -8.18491 0
M  V30 9112 N 857.298 1.47698 0.54982 0
M  V30 9113 C 858.523 1.58579 1.33669 0
M  V30 9114 C 858.948 0.239049 1.86575 0
M  V30 9115 O 858.306 -0.786256 1.63364 0
M  V30 9116 C 858.354 2.62029 2.47736 0
M  V30 9117 O 857.458 2.17813 3.50188 0
M  V30 9118 H 856.799 0.532447 0.396732 0
M  V30 9119 H 859.329 1.93536 0.6637 0
M  V30 9120 H 859.339 2.82682 2.94202 0
M  V30 9121 H 858.014 3.59812 2.08586 0
M  V30 9122 H 856.591 2.07291 3.09976 0
M  V30 9123 N 858.776 -0.797141 1.35954 0
M  V30 9124 C 860.025 -1.54983 1.29086 0
M  V30 9125 C 860.338 -1.95167 -0.130003 0
M  V30 9126 O 861.544 -2.69596 -0.32101 0
M  V30 9127 C 860 -2.79738 2.26439 0
M  V30 9128 C 859.608 -2.46753 3.73921 0
M  V30 9129 C 861.352 -3.57733 2.28533 0
M  V30 9130 C 859.259 -3.67858 4.63071 0
M  V30 9131 H 858.189 -0.581766 0.479651 0
M  V30 9132 H 860.84 -0.87541 1.61273 0
M  V30 9133 H 859.222 -3.48939 1.87236 0
M  V30 9134 H 860.396 -1.85499 4.21814 0
M  V30 9135 H 858.711 -1.81985 3.74527 0
M  V30 9136 H 861.308 -4.47699 2.92351 0
M  V30 9137 H 861.651 -3.95754 1.29169 0
M  V30 9138 H 862.184 -2.95504 2.66313 0
M  V30 9139 H 858.923 -3.34939 5.63468 0
M  V30 9140 H 858.443 -4.28305 4.19898 0
M  V30 9141 H 860.122 -4.34977 4.78961 0
M  V30 9142 N 860.254 -1.20106 -1.0204 0
M  V30 9143 C 861.503 -1.00316 -1.74985 0
M  V30 9144 C 861.816 0.465814 -1.89972 0
M  V30 9145 O 863.022 0.782749 -2.59972 0
M  V30 9146 C 861.478 -1.74608 -3.14706 0
M  V30 9147 C 861.086 -3.25573 -3.07744 0
M  V30 9148 C 862.83 -1.63172 -3.91887 0
M  V30 9149 C 860.737 -3.92419 -4.42449 0
M  V30 9150 H 859.667 -0.371728 -0.655999 0
M  V30 9151 H 862.318 -1.43688 -1.14131 0
M  V30 9152 H 860.7 -1.24021 -3.76078 0
M  V30 9153 H 861.874 -3.83345 -2.55702 0
M  V30 9154 H 860.189 -3.3738 -2.44057 0
M  V30 9155 H 862.786 -2.10457 -4.9154 0
M  V30 9156 H 863.129 -0.58728 -4.12137 0
M  V30 9157 H 863.662 -2.11152 -3.37135 0
M  V30 9158 H 860.401 -4.96998 -4.27403 0
M  V30 9159 H 859.921 -3.39436 -4.94513 0
M  V30 9160 H 861.6 -3.96453 -5.11306 0
M  V30 9161 N 861.732 1.21287 -1.00634 0
M  V30 9162 C 862.68 2.25733 -0.561026 0
M  V30 9163 C 863.674 1.64728 0.395095 0
M  V30 9164 O 864.88 1.78022 0.266141 0
M  V30 9165 H 861.255 0.734104 -0.163081 0
M  V30 9166 H 863.226 2.60631 -1.45307 0
M  V30 9167 C 861.975 3.47569 0.0952587 0
M  V30 9168 H 861.298 3.94782 -0.631427 0
M  V30 9169 H 862.738 4.22382 0.370105 0
M  V30 9170 C 861.197 3.09326 1.33488 0
M  V30 9171 O 861.727 3.19933 2.42912 0
M  V30 9172 N 859.933 2.63976 1.21512 0
M  V30 9173 H 859.48 2.55545 0.324741 0
M  V30 9174 H 859.438 2.38757 2.04555 0
M  V30 9175 N 863.21 0.781244 1.36873 0
M  V30 9176 C 864.158 0.161889 2.32036 0
M  V30 9177 C 865.152 -0.674225 1.55405 0
M  V30 9178 O 866.358 -0.570223 1.70729 0
M  V30 9179 H 862.733 0.0335702 0.75125 0
M  V30 9180 H 864.704 0.980078 2.81846 0
M  V30 9181 C 863.453 -0.695352 3.40676 0
M  V30 9182 H 862.776 -0.0613425 3.99753 0
M  V30 9183 H 864.216 -1.09553 4.09602 0
M  V30 9184 C 862.675 -1.85008 2.81556 0
M  V30 9185 O 863.205 -2.94616 2.73065 0
M  V30 9186 N 861.411 -1.65364 2.38962 0
M  V30 9187 H 860.958 -0.762106 2.46068 0
M  V30 9188 H 860.916 -2.42789 1.99752 0
M  V30 9189 N 864.689 -1.48329 0.532571 0
M  V30 9190 C 865.919 -2.066 0.00353785 0
M  V30 9191 C 866.327 -1.38913 -1.28451 0
M  V30 9192 O 865.67 -0.471385 -1.77549 0
M  V30 9193 C 865.732 -3.58342 -0.288324 0
M  V30 9194 C 865.396 -4.47917 0.906631 0
M  V30 9195 C 866.393 -4.87534 1.80572 0
M  V30 9196 C 864.078 -4.89783 1.11436 0
M  V30 9197 C 866.072 -5.6779 2.89642 0
M  V30 9198 C 863.759 -5.69809 2.20819 0
M  V30 9199 C 864.757 -6.08721 3.09755 0
M  V30 9200 O 864.445 -6.8714 4.17246 0
M  V30 9201 H 864.177 -0.675263 0.0315661 0
M  V30 9202 H 866.731 -1.91669 0.738375 0
M  V30 9203 H 864.961 -3.71395 -1.07717 0
M  V30 9204 H 866.65 -3.98726 -0.759752 0
M  V30 9205 H 867.416 -4.5581 1.65719 0
M  V30 9206 H 863.295 -4.58977 0.431382 0
M  V30 9207 H 866.839 -5.98082 3.59087 0
M  V30 9208 H 862.736 -6.00947 2.35655 0
M  V30 9209 H 863.504 -7.05498 4.14988 0
M  V30 9210 N 866.167 -0.267825 -1.55308 0
M  V30 9211 C 867.414 0.351036 -1.99434 0
M  V30 9212 C 867.742 1.56406 -1.15618 0
M  V30 9213 O 866.997 1.94548 -0.212045 0
M  V30 9214 C 867.296 0.784247 -3.48689 0
M  V30 9215 C 866.962 -0.323328 -4.49739 0
M  V30 9216 C 865.624 -0.627467 -4.77091 0
M  V30 9217 C 867.976 -1.07002 -5.10098 0
M  V30 9218 C 865.304 -1.682 -5.62073 0
M  V30 9219 C 867.656 -2.11422 -5.96224 0
M  V30 9220 C 866.32 -2.42479 -6.21901 0
M  V30 9221 H 865.59 0.128453 -0.729781 0
M  V30 9222 H 868.237 -0.380018 -1.87692 0
M  V30 9223 H 866.542 1.59485 -3.57871 0
M  V30 9224 H 868.239 1.2737 -3.80234 0
M  V30 9225 H 864.829 -0.0761528 -4.28532 0
M  V30 9226 H 869.013 -0.848302 -4.88996 0
M  V30 9227 H 864.269 -1.92772 -5.80215 0
M  V30 9228 H 868.443 -2.69759 -6.4203 0
M  V30 9229 H 866.07 -3.24328 -6.87543 0
M  V30 9230 N 867.645 1.57599 0.00500368 0
M  V30 9231 C 868.87 1.95026 0.705663 0
M  V30 9232 C 869.295 0.869643 1.6679 0
M  V30 9233 O 868.653 -0.172659 1.80476 0
M  V30 9234 C 868.701 3.31545 1.4181 0
M  V30 9235 O 867.805 3.25495 2.53232 0
M  V30 9236 H 867.146 0.636808 0.188074 0
M  V30 9237 H 869.676 2.04547 -0.046696 0
M  V30 9238 H 869.686 3.66996 1.78265 0
M  V30 9239 H 868.361 4.09751 0.712543 0
M  V30 9240 H 866.938 3.01714 2.19142 0
M  V30 9241 N 869.123 -0.277682 1.55134 0
M  V30 9242 C 870.372 -1.00766 1.74726 0
M  V30 9243 C 870.685 -1.87617 0.553092 0
M  V30 9244 O 871.891 -2.64058 0.631318 0
M  V30 9245 C 870.347 -1.84147 3.09221 0
M  V30 9246 C 869.955 -1.02186 4.3619 0
M  V30 9247 C 871.699 -2.56604 3.38164 0
M  V30 9248 C 869.606 -1.84978 5.61727 0
M  V30 9249 H 868.536 -0.379948 0.651273 0
M  V30 9250 H 871.187 -0.263543 1.81598 0
M  V30 9251 H 869.569 -2.62637 2.96375 0
M  V30 9252 H 870.743 -0.281459 4.5994 0
M  V30 9253 H 869.058 -0.412054 4.14356 0
M  V30 9254 H 871.655 -3.18942 4.29162 0
M  V30 9255 H 871.998 -3.26647 2.58085 0
M  V30 9256 H 872.531 -1.85147 3.52087 0
M  V30 9257 H 869.27 -1.19365 6.4454 0
M  V30 9258 H 868.79 -2.56628 5.42128 0
M  V30 9259 H 870.469 -2.42458 5.99853 0
M  V30 9260 N 870.601 -1.47988 -0.541979 0
M  V30 9261 C 871.849 -1.55086 -1.29587 0
M  V30 9262 C 872.17 -0.221304 -1.9374 0
M  V30 9263 O 871.44 0.756128 -1.80719 0
M  V30 9264 H 870.02 -0.571307 -0.481266 0
M  V30 9265 H 872.682 -1.8438 -0.631675 0
M  V30 9266 H 871.778 -2.32556 -2.08144 0
M  V30 9267 N 872.079 0.78992 -1.36375 0
M  V30 9268 C 873.325 1.55007 -1.3077 0
M  V30 9269 C 873.658 1.93871 0.112979 0
M  V30 9270 O 872.933 1.6267 1.06625 0
M  V30 9271 C 873.216 2.82748 -2.22993 0
M  V30 9272 C 873.069 2.50253 -3.73756 0
M  V30 9273 C 874.388 3.84569 -2.13998 0
M  V30 9274 H 871.507 0.562362 -0.476359 0
M  V30 9275 H 874.149 0.907582 -1.66922 0
M  V30 9276 H 872.299 3.37573 -1.92292 0
M  V30 9277 H 873.971 2.01482 -4.14973 0
M  V30 9278 H 872.214 1.83203 -3.93216 0
M  V30 9279 H 872.885 3.41487 -4.33694 0
M  V30 9280 H 875.361 3.39188 -2.4102 0
M  V30 9281 H 874.237 4.717 -2.80697 0
M  V30 9282 H 874.498 4.27491 -1.12711 0
M  V30 9283 N 873.557 1.20646 1.01402 0
M  V30 9284 C 874.834 0.927176 1.72229 0
M  V30 9285 C 875.214 -0.563382 2.03443 0
M  V30 9286 O 874.562 -1.52576 1.70096 0
M  V30 9287 C 874.772 1.80285 2.98828 0
M  V30 9288 C 876.12 2.04624 3.72041 0
M  V30 9289 O 877.144 1.77559 3.0879 0
M  V30 9290 O 876.003 2.50347 4.85787 0
M  V30 9291 H 873.097 0.346891 0.75073 0
M  V30 9292 H 875.643 1.31532 1.07227 0
M  V30 9293 H 874.415 2.81204 2.72102 0
M  V30 9294 H 874.038 1.41495 3.71571 0
M  V30 9295 N 875.035 -1.20752 1.01276 0
M  V30 9296 C 875.998 -2.2162 0.584583 0
M  V30 9297 C 876.998 -1.57094 -0.343215 0
M  V30 9298 O 878.188 -1.73696 -0.132433 0
M  V30 9299 C 875.32 -3.40583 -0.146872 0
M  V30 9300 H 876.513 -2.61015 1.47686 0
M  V30 9301 H 874.066 -1.34148 0.802123 0
M  V30 9302 H 874.801 -3.06686 -1.05424 0
M  V30 9303 H 874.586 -3.88642 0.51958 0
M  V30 9304 H 876.076 -4.15339 -0.433924 0
M  V30 9305 N 876.513 -0.788492 -1.36457 0
M  V30 9306 C 877.738 -0.371224 -2.04051 0
M  V30 9307 C 878.163 1.004 -1.59064 0
M  V30 9308 O 877.521 1.64663 -0.758679 0
M  V30 9309 C 877.569 -0.442275 -3.57877 0
M  V30 9310 O 876.673 0.55113 -4.08701 0
M  V30 9311 H 876.014 -0.157808 -0.644975 0
M  V30 9312 H 878.544 -1.06935 -1.74431 0
M  V30 9313 H 878.554 -0.305548 -4.06854 0
M  V30 9314 H 877.229 -1.44547 -3.89973 0
M  V30 9315 H 875.806 0.37614 -3.70998 0
M  V30 9316 N 877.991 1.48044 -0.54043 0
M  V30 9317 C 879.24 2.01698 -0.00809961 0
M  V30 9318 C 879.553 1.42184 1.34325 0
M  V30 9319 O 880.759 1.87398 1.96454 0
M  V30 9320 C 879.215 3.59882 0.035933 0
M  V30 9321 C 878.823 4.28384 -1.31115 0
M  V30 9322 C 880.567 4.21346 0.51654 0
M  V30 9323 C 878.474 5.78529 -1.22714 0
M  V30 9324 H 877.404 0.754 0.000742174 0
M  V30 9325 H 880.055 1.70204 -0.685775 0
M  V30 9326 H 878.437 3.88264 0.778906 0
M  V30 9327 H 879.611 4.11663 -2.07051 0
M  V30 9328 H 877.926 3.78837 -1.72834 0
M  V30 9329 H 880.523 5.31351 0.597529 0
M  V30 9330 H 880.866 3.87373 1.52473 0
M  V30 9331 H 881.399 3.97432 -0.171064 0
M  V30 9332 H 878.138 6.17093 -2.21081 0
M  V30 9333 H 877.658 5.97634 -0.50931 0
M  V30 9334 H 879.337 6.40395 -0.92216 0
M  V30 9335 N 879.47 0.276058 1.55163 0
M  V30 9336 C 880.433 -0.597924 2.21263 0
M  V30 9337 C 881.433 -1.0806 1.19078 0
M  V30 9338 O 882.623 -0.980626 1.43977 0
M  V30 9339 C 879.755 -1.82503 2.87933 0
M  V30 9340 H 880.948 -0.0207769 2.99893 0
M  V30 9341 H 878.501 0.0266823 1.56277 0
M  V30 9342 H 879.236 -2.44266 2.13318 0
M  V30 9343 H 879.021 -1.48683 3.62816 0
M  V30 9344 H 880.511 -2.44651 3.38431 0
M  V30 9345 N 880.948 -1.576 0.00335426 0
M  V30 9346 C 881.898 -2.05116 -0.995562 0
M  V30 9347 C 882.882 -0.946535 -1.30113 0
M  V30 9348 O 884.074 -1.21028 -1.29156 0
M  V30 9349 C 881.203 -2.56077 -2.28648 0
M  V30 9350 C 880.289 -3.73422 -2.0104 0
M  V30 9351 N 880.68 -4.84986 -1.43603 0
M  V30 9352 C 878.978 -3.81416 -2.31166 0
M  V30 9353 C 879.679 -5.66399 -1.32542 0
M  V30 9354 N 878.655 -5.12505 -1.81218 0
M  V30 9355 H 882.457 -2.88783 -0.546025 0
M  V30 9356 H 879.971 -1.61135 -0.202265 0
M  V30 9357 H 881.968 -2.88395 -3.01055 0
M  V30 9358 H 880.628 -1.73829 -2.74251 0
M  V30 9359 H 881.639 -5.05768 -1.11439 0
M  V30 9360 H 878.316 -3.1003 -2.7962 0
M  V30 9361 H 879.706 -6.66066 -0.88348 0
M  V30 9362 N 882.426 0.269451 -1.5528 0
M  V30 9363 C 883.842 0.616827 -1.47199 0
M  V30 9364 C 884.042 1.89354 -0.68901 0
M  V30 9365 O 883.098 2.51631 -0.209287 0
M  V30 9366 C 884.411 0.740492 -2.9144 0
M  V30 9367 C 885.959 0.834312 -3.01676 0
M  V30 9368 C 886.434 0.989725 -4.47178 0
M  V30 9369 N 887.925 1.05516 -4.51022 0
M  V30 9370 C 888.66 1.19427 -5.60825 0
M  V30 9371 N 888.156 1.30035 -6.80487 0
M  V30 9372 N 889.949 1.22566 -5.48575 0
M  V30 9373 H 882.1 -0.568962 -2.04638 0
M  V30 9374 H 884.363 -0.193153 -0.928114 0
M  V30 9375 H 884.069 -0.127234 -3.5147 0
M  V30 9376 H 883.943 1.61965 -3.40657 0
M  V30 9377 H 886.33 1.6925 -2.4174 0
M  V30 9378 H 886.411 -0.0695298 -2.55705 0
M  V30 9379 H 886.055 0.136179 -5.07717 0
M  V30 9380 H 885.985 1.90827 -4.90808 0
M  V30 9381 H 888.476 0.985434 -3.64825 0
M  V30 9382 H 888.789 1.40494 -7.59922 0
M  V30 9383 H 887.134 1.27033 -6.83292 0
M  V30 9384 H 890.325 1.13911 -4.54029 0
M  V30 9385 H 890.498 1.33063 -6.34191 0
M  V30 9386 N 883.904 1.48273 0.534124 0
M  V30 9387 C 885.151 1.56079 1.29017 0
M  V30 9388 C 885.479 0.232912 1.931 0
M  V30 9389 O 884.734 -0.77642 1.79639 0
M  V30 9390 C 885.033 2.64468 2.40398 0
M  V30 9391 C 884.699 4.07034 1.93995 0
M  V30 9392 C 883.361 4.45838 1.81058 0
M  V30 9393 C 885.713 4.96395 1.58877 0
M  V30 9394 C 883.041 5.71812 1.31331 0
M  V30 9395 C 885.393 6.22854 1.10614 0
M  V30 9396 C 884.057 6.60518 0.962895 0
M  V30 9397 H 883.327 0.571135 0.472108 0
M  V30 9398 H 885.974 1.81973 0.5965 0
M  V30 9399 H 884.279 2.32419 3.15418 0
M  V30 9400 H 885.976 2.67725 2.98537 0
M  V30 9401 H 882.566 3.76387 2.05015 0
M  V30 9402 H 886.75 4.67096 1.67734 0
M  V30 9403 H 882.006 5.99722 1.18924 0
M  V30 9404 H 886.18 6.91495 0.825095 0
M  V30 9405 H 883.807 7.58019 0.575369 0
M  V30 9406 N 885.382 -0.782676 1.36792 0
M  V30 9407 C 886.332 -1.8855 1.28191 0
M  V30 9408 C 887.316 -1.59978 0.171984 0
M  V30 9409 O 888.508 -1.72295 0.405405 0
M  V30 9410 C 885.637 -3.25862 1.08021 0
M  V30 9411 C 884.723 -3.60422 2.2351 0
M  V30 9412 N 885.114 -3.66241 3.48857 0
M  V30 9413 C 883.412 -3.90523 2.15424 0
M  V30 9414 C 884.113 -3.97233 4.24948 0
M  V30 9415 N 883.089 -4.12567 3.53963 0
M  V30 9416 H 886.891 -1.91285 2.23131 0
M  V30 9417 H 884.405 -0.978554 1.29607 0
M  V30 9418 H 886.402 -4.04742 0.999458 0
M  V30 9419 H 885.062 -3.24399 0.139882 0
M  V30 9420 H 886.073 -3.48717 3.82906 0
M  V30 9421 H 882.75 -3.96945 1.29386 0
M  V30 9422 H 884.14 -4.08602 5.33379 0
M  V30 9423 N 886.86 -1.21182 -1.00761 0
M  V30 9424 C 888.109 -1.02166 -1.73911 0
M  V30 9425 C 888.422 0.445638 -1.90456 0
M  V30 9426 O 889.628 0.755132 -2.60787 0
M  V30 9427 C 888.084 -1.77936 -3.12837 0
M  V30 9428 C 887.692 -3.28819 -3.04273 0
M  V30 9429 C 889.436 -1.67319 -3.90134 0
M  V30 9430 C 887.343 -3.97089 -4.38262 0
M  V30 9431 H 886.273 -0.378665 -0.652019 0
M  V30 9432 H 888.924 -1.44891 -1.12601 0
M  V30 9433 H 887.306 -1.28003 -3.74742 0
M  V30 9434 H 888.48 -3.86035 -2.51622 0
M  V30 9435 H 886.795 -3.39949 -2.40465 0
M  V30 9436 H 889.392 -2.15659 -4.8928 0
M  V30 9437 H 889.735 -0.630959 -4.11491 0
M  V30 9438 H 890.268 -2.14716 -3.34876 0
M  V30 9439 H 887.007 -5.01503 -4.22107 0
M  V30 9440 H 886.527 -3.44662 -4.90885 0
M  V30 9441 H 888.206 -4.01854 -5.07072 0
M  V30 9442 N 888.338 1.20213 -1.01915 0
M  V30 9443 C 889.271 2.2181 -0.536243 0
M  V30 9444 C 890.249 1.57144 0.417689 0
M  V30 9445 O 891.433 1.85461 0.337088 0
M  V30 9446 C 888.56 3.37989 0.219303 0
M  V30 9447 C 887.606 4.2097 -0.684571 0
M  V30 9448 S 888.439 4.90216 -2.15519 0
M  V30 9449 C 889.595 6.09814 -1.40988 0
M  V30 9450 H 889.828 2.62429 -1.39709 0
M  V30 9451 H 887.361 1.30305 -0.828254 0
M  V30 9452 H 889.319 4.05335 0.649112 0
M  V30 9453 H 887.98 2.95825 1.05575 0
M  V30 9454 H 887.173 5.03897 -0.101833 0
M  V30 9455 H 886.775 3.58892 -1.05227 0
M  V30 9456 H 889.067 6.73964 -0.691243 0
M  V30 9457 H 890.01 6.72552 -2.21539 0
M  V30 9458 H 890.418 5.5709 -0.911645 0
M  V30 9459 N 889.816 0.795718 1.36037 0
M  V30 9460 C 891.232 0.478145 1.52269 0
M  V30 9461 C 891.432 -1.0025 1.74792 0
M  V30 9462 O 890.488 -1.78783 1.78305 0
M  V30 9463 C 891.801 1.31406 2.70468 0
M  V30 9464 C 893.349 1.3084 2.84341 0
M  V30 9465 C 893.824 2.12819 4.05551 0
M  V30 9466 N 895.315 2.10298 4.12709 0
M  V30 9467 C 896.05 2.70495 5.05589 0
M  V30 9468 N 895.546 3.39576 6.03871 0
M  V30 9469 N 897.339 2.60195 4.98252 0
M  V30 9470 H 889.49 1.75477 1.19673 0
M  V30 9471 H 891.753 0.74627 0.584624 0
M  V30 9472 H 891.459 2.36435 2.60368 0
M  V30 9473 H 891.333 0.959726 3.64786 0
M  V30 9474 H 893.72 0.266003 2.93899 0
M  V30 9475 H 893.801 1.70254 1.90912 0
M  V30 9476 H 893.445 3.17093 3.96755 0
M  V30 9477 H 893.375 1.70772 4.98141 0
M  V30 9478 H 895.866 1.60026 3.42345 0
M  V30 9479 H 896.179 3.82823 6.71317 0
M  V30 9480 H 894.524 3.43679 6.04077 0
M  V30 9481 H 897.715 2.05823 4.20422 0
M  V30 9482 H 897.888 3.074 5.70447 0
M  V30 9483 N 891.294 -1.47756 0.548274 0
M  V30 9484 C 892.204 -2.33678 -0.207773 0
M  V30 9485 C 893.22 -1.47636 -0.920843 0
M  V30 9486 O 894.396 -1.80583 -0.89173 0
M  V30 9487 C 891.461 -3.24147 -1.23003 0
M  V30 9488 C 890.522 -4.26073 -0.52535 0
M  V30 9489 C 889.755 -5.12219 -1.4989 0
M  V30 9490 O 889.978 -5.0066 -2.73305 0
M  V30 9491 O 888.912 -5.93051 -1.02828 0
M  V30 9492 H 892.738 -2.99609 0.496794 0
M  V30 9493 H 890.323 -1.4617 0.308982 0
M  V30 9494 H 892.205 -3.80055 -1.82034 0
M  V30 9495 H 890.88 -2.60855 -1.91668 0
M  V30 9496 H 889.787 -3.7395 0.105927 0
M  V30 9497 H 891.12 -4.92054 0.119686 0
M  V30 9498 N 892.772 -0.284283 -1.55015 0
M  V30 9499 C 893.719 0.599194 -2.22886 0
M  V30 9500 C 894.689 1.14264 -1.20553 0
M  V30 9501 O 895.874 1.19025 -1.49123 0
M  V30 9502 C 893.014 1.77317 -2.96062 0
M  V30 9503 C 892.127 1.26271 -4.13134 0
M  V30 9504 C 891.262 2.39922 -4.73931 0
M  V30 9505 C 890.301 1.85925 -5.8318 0
M  V30 9506 N 889.438 2.93084 -6.38002 0
M  V30 9507 H 894.278 0.0137816 -2.97997 0
M  V30 9508 H 891.815 -0.00496503 -1.47099 0
M  V30 9509 H 893.773 2.46339 -3.36709 0
M  V30 9510 H 892.403 2.33047 -2.23358 0
M  V30 9511 H 891.455 0.465296 -3.77544 0
M  V30 9512 H 892.767 0.827284 -4.91892 0
M  V30 9513 H 891.921 3.1692 -5.17346 0
M  V30 9514 H 890.66 2.86784 -3.9447 0
M  V30 9515 H 889.665 1.07409 -5.39206 0
M  V30 9516 H 890.89 1.39987 -6.64515 0
M  V30 9517 H 888.836 3.3931 -5.61431 0
M  V30 9518 H 888.753 2.53986 -7.12058 0
M  V30 9519 H 890.021 3.7003 -6.86075 0
M  V30 9520 N 894.251 1.57596 -0.0117121 0
M  V30 9521 C 895.201 2.05641 0.98467 0
M  V30 9522 C 896.185 0.953422 1.2961 0
M  V30 9523 O 897.377 1.21712 1.28512 0
M  V30 9524 C 894.506 2.57285 2.27286 0
M  V30 9525 C 893.592 3.74483 1.99057 0
M  V30 9526 N 893.983 4.85741 1.41029 0
M  V30 9527 C 892.281 3.82637 2.2914 0
M  V30 9528 C 892.982 5.67094 1.29536 0
M  V30 9529 N 891.958 5.13459 1.78497 0
M  V30 9530 H 895.76 2.89069 0.530702 0
M  V30 9531 H 893.274 1.6124 0.193717 0
M  V30 9532 H 895.271 2.89988 2.99521 0
M  V30 9533 H 893.931 1.75281 2.73325 0
M  V30 9534 H 894.942 5.06352 1.08756 0
M  V30 9535 H 891.619 3.11509 2.77972 0
M  V30 9536 H 893.009 6.66525 0.848144 0
M  V30 9537 N 895.729 -0.261212 1.5542 0
M  V30 9538 C 897.14 -0.83138 1.67167 0
M  V30 9539 C 897.491 -1.8659 0.606525 0
M  V30 9540 O 896.616 -2.14953 -0.24985 0
M  V30 9541 C 897.211 -1.51475 3.03052 0
M  V30 9542 C 895.77 -2.0328 3.16787 0
M  V30 9543 C 894.917 -0.878903 2.63003 0
M  V30 9544 H 897.868 -0.0373102 1.58656 0
M  V30 9545 H 897.889 -2.38222 2.96699 0
M  V30 9546 H 897.401 -0.76157 3.80554 0
M  V30 9547 H 895.502 -2.81523 2.44082 0
M  V30 9548 H 895.615 -2.24001 4.2351 0
M  V30 9549 H 893.979 -1.27551 2.2046 0
M  V30 9550 H 894.762 -0.13904 3.43018 0
M  V30 9551 N 897.207 -1.48554 -0.526253 0
M  V30 9552 C 898.117 -1.66044 -1.65731 0
M  V30 9553 C 899.133 -0.542951 -1.65312 0
M  V30 9554 O 900.309 -0.814495 -1.84195 0
M  V30 9555 C 897.374 -1.69959 -3.02184 0
M  V30 9556 C 896.435 -2.93362 -3.13428 0
M  V30 9557 C 895.668 -2.97081 -4.43372 0
M  V30 9558 O 895.891 -2.09103 -5.3069 0
M  V30 9559 O 894.825 -3.8929 -4.59061 0
M  V30 9560 H 898.651 -2.61811 -1.53912 0
M  V30 9561 H 896.236 -1.31999 -0.699759 0
M  V30 9562 H 898.118 -1.75033 -3.83329 0
M  V30 9563 H 896.793 -0.773658 -3.14319 0
M  V30 9564 H 895.7 -2.93818 -2.31564 0
M  V30 9565 H 897.033 -3.85352 -3.06211 0
M  V30 9566 N 898.685 0.775411 -1.37205 0
M  V30 9567 C 899.632 1.88857 -1.32671 0
M  V30 9568 C 900.602 1.64976 -0.192899 0
M  V30 9569 O 901.787 1.86944 -0.381673 0
M  V30 9570 C 898.927 3.25871 -1.13588 0
M  V30 9571 C 898.04 3.61731 -2.36167 0
M  V30 9572 C 897.175 4.87934 -2.09985 0
M  V30 9573 C 896.214 5.16514 -3.2845 0
M  V30 9574 N 895.351 6.33905 -3.01842 0
M  V30 9575 H 900.191 1.92068 -2.27846 0
M  V30 9576 H 897.728 0.939066 -1.13225 0
M  V30 9577 H 899.686 4.04903 -1.00546 0
M  V30 9578 H 898.316 3.22045 -0.220613 0
M  V30 9579 H 897.368 2.77712 -2.59962 0
M  V30 9580 H 898.68 3.78792 -3.24528 0
M  V30 9581 H 897.834 5.74863 -1.93953 0
M  V30 9582 H 896.573 4.7297 -1.18956 0
M  V30 9583 H 895.578 4.28063 -3.45025 0
M  V30 9584 H 896.803 5.33389 -4.20325 0
M  V30 9585 H 894.749 6.20306 -2.13439 0
M  V30 9586 H 894.666 6.51364 -3.83746 0
M  V30 9587 H 895.934 7.23779 -2.8942 0
M  V30 9588 N 900.163 1.21714 1.00117 0
M  V30 9589 C 901.41 1.0367 1.73951 0
M  V30 9590 C 901.738 -0.429289 1.89703 0
M  V30 9591 O 900.993 -1.33475 1.43119 0
M  V30 9592 C 901.292 1.68345 3.15269 0
M  V30 9593 C 900.958 3.18214 3.19454 0
M  V30 9594 C 899.62 3.59109 3.20303 0
M  V30 9595 C 901.972 4.14179 3.16394 0
M  V30 9596 C 899.3 4.94467 3.15783 0
M  V30 9597 C 901.652 5.49502 3.13416 0
M  V30 9598 C 900.316 5.8979 3.12577 0
M  V30 9599 H 899.586 0.379355 0.63653 0
M  V30 9600 H 902.233 1.51361 1.17312 0
M  V30 9601 H 900.538 1.12957 3.75164 0
M  V30 9602 H 902.235 1.51882 3.71124 0
M  V30 9603 H 898.825 2.85646 3.19538 0
M  V30 9604 H 903.009 3.83607 3.14895 0
M  V30 9605 H 898.265 5.24923 3.13473 0
M  V30 9606 H 902.439 6.23595 3.10003 0
M  V30 9607 H 900.066 6.94643 3.08829 0
M  V30 9608 N 901.641 -1.19671 1.02551 0
M  V30 9609 C 902.589 -2.24812 0.596867 0
M  V30 9610 C 903.583 -1.65336 -0.368839 0
M  V30 9611 O 904.789 -1.78422 -0.237786 0
M  V30 9612 H 901.164 -0.731417 0.174739 0
M  V30 9613 H 903.135 -2.58286 1.49435 0
M  V30 9614 C 901.884 -3.47677 -0.0399514 0
M  V30 9615 H 901.207 -3.93728 0.694153 0
M  V30 9616 H 902.647 -4.22917 -0.302861 0
M  V30 9617 C 901.106 -3.11411 -1.2855 0
M  V30 9618 O 901.636 -3.23757 -2.37791 0
M  V30 9619 N 899.842 -2.65875 -1.17297 0
M  V30 9620 H 899.389 -2.56029 -0.284045 0
M  V30 9621 H 899.347 -2.41981 -2.00731 0
M  V30 9622 N 903.119 -0.802921 -1.35613 0
M  V30 9623 C 904.344 -0.392846 -2.03645 0
M  V30 9624 C 904.769 0.987075 -1.6012 0
M  V30 9625 O 904.127 1.63849 -0.776101 0
M  V30 9626 C 904.175 -0.480208 -3.57388 0
M  V30 9627 O 903.279 0.507751 -4.09262 0
M  V30 9628 H 902.62 -0.16464 -0.643265 0
M  V30 9629 H 905.15 -1.08779 -1.73287 0
M  V30 9630 H 905.16 -0.348683 -4.06507 0
M  V30 9631 H 903.835 -1.48675 -3.88418 0
M  V30 9632 H 902.412 0.336769 -3.71376 0
M  V30 9633 N 904.597 1.47463 -0.556102 0
M  V30 9634 C 906.013 1.58134 -0.21579 0
M  V30 9635 C 906.213 1.55486 1.28166 0
M  V30 9636 O 905.269 1.45768 2.06174 0
M  V30 9637 C 906.582 2.88686 -0.841464 0
M  V30 9638 C 908.13 3.02268 -0.812591 0
M  V30 9639 C 908.605 4.35518 -1.41731 0
M  V30 9640 N 910.096 4.42151 -1.38045 0
M  V30 9641 C 910.831 5.43817 -1.81799 0
M  V30 9642 N 910.327 6.52299 -2.33404 0
M  V30 9643 N 912.12 5.34855 -1.72877 0
M  V30 9644 H 904.271 1.47428 -1.52901 0
M  V30 9645 H 906.534 0.701586 -0.637559 0
M  V30 9646 H 906.24 2.96358 -1.8938 0
M  V30 9647 H 906.114 3.7572 -0.333846 0
M  V30 9648 H 908.501 2.94194 0.231056 0
M  V30 9649 H 908.582 2.16779 -1.35796 0
M  V30 9650 H 908.226 4.44348 -2.46002 0
M  V30 9651 H 908.156 5.19737 -0.847402 0
M  V30 9652 H 910.647 3.64348 -1.00296 0
M  V30 9653 H 910.96 7.26047 -2.64717 0
M  V30 9654 H 909.305 6.53192 -2.37414 0
M  V30 9655 H 912.496 4.49004 -1.32338 0
M  V30 9656 H 912.669 6.13949 -2.07294 0
M  V30 9657 N 906.075 0.2925 1.54862 0
M  V30 9658 C 907.008 -0.629155 2.19356 0
M  V30 9659 C 907.986 -1.13927 1.16014 0
M  V30 9660 O 909.17 -1.20904 1.44618 0
M  V30 9661 C 906.297 -1.8599 2.83064 0
M  V30 9662 C 905.343 -1.48376 3.99859 0
M  V30 9663 S 906.176 -0.546976 5.32699 0
M  V30 9664 C 907.332 -1.7857 5.99886 0
M  V30 9665 H 907.565 -0.0812166 2.97189 0
M  V30 9666 H 905.098 0.0766721 1.5421 0
M  V30 9667 H 907.056 -2.56623 3.20398 0
M  V30 9668 H 905.717 -2.37899 2.05092 0
M  V30 9669 H 904.91 -2.40002 4.43187 0
M  V30 9670 H 904.512 -0.857447 3.64038 0
M  V30 9671 H 906.804 -2.7274 6.20177 0
M  V30 9672 H 907.747 -1.39513 6.9422 0
M  V30 9673 H 908.155 -1.95856 5.29434 0
M  V30 9674 N 907.553 -1.57587 0.0200696 0
M  V30 9675 C 908.5 -2.09667 -0.964791 0
M  V30 9676 C 909.47 -0.99664 -1.32877 0
M  V30 9677 O 910.655 -1.2703 -1.42366 0
M  V30 9678 C 907.795 -2.62101 -2.24493 0
M  V30 9679 C 906.908 -3.8608 -1.93821 0
M  V30 9680 C 906.043 -4.26939 -3.16064 0
M  V30 9681 C 905.082 -5.43701 -2.81169 0
M  V30 9682 N 904.219 -5.79759 -3.9601 0
M  V30 9683 H 909.059 -2.93538 -0.513751 0
M  V30 9684 H 906.596 -1.45096 -0.242 0
M  V30 9685 H 908.554 -2.90587 -2.99358 0
M  V30 9686 H 907.184 -1.81074 -2.6723 0
M  V30 9687 H 906.236 -3.64378 -1.09237 0
M  V30 9688 H 907.548 -4.71028 -1.64115 0
M  V30 9689 H 906.702 -4.56814 -3.99257 0
M  V30 9690 H 905.441 -3.40739 -3.48924 0
M  V30 9691 H 904.446 -5.13529 -1.96387 0
M  V30 9692 H 905.671 -6.31593 -2.49535 0
M  V30 9693 H 903.617 -4.96516 -4.28729 0
M  V30 9694 H 903.534 -6.59327 -3.69896 0
M  V30 9695 H 904.802 -6.14235 -4.79933 0
M  V30 9696 N 909.032 0.252966 -1.55557 0
M  V30 9697 C 909.98 1.33289 -1.90622 0
M  V30 9698 C 910.974 1.50133 -0.784638 0
M  V30 9699 O 912.18 1.51679 -0.969196 0
M  V30 9700 H 908.555 0.446196 -0.605321 0
M  V30 9701 H 910.526 1.00977 -2.80796 0
M  V30 9702 C 909.275 2.68254 -2.21213 0
M  V30 9703 H 908.598 2.5609 -3.07014 0
M  V30 9704 H 910.038 3.42707 -2.49656 0
M  V30 9705 C 908.497 3.20884 -1.02642 0
M  V30 9706 O 909.027 4.00783 -0.271292 0
M  V30 9707 N 907.233 2.7883 -0.818682 0
M  V30 9708 H 906.78 2.13966 -1.43444 0
M  V30 9709 H 906.738 3.14388 -0.0269989 0
M  V30 9710 N 910.51 1.48831 0.518367 0
M  V30 9711 C 911.457 1.64216 1.62178 0
M  V30 9712 C 912.427 0.483942 1.58894 0
M  V30 9713 O 913.612 0.708857 1.77144 0
M  V30 9714 C 910.752 1.69867 3.00399 0
M  V30 9715 C 909.865 2.96875 3.1383 0
M  V30 9716 C 909 2.93613 4.42679 0
M  V30 9717 C 908.039 4.15276 4.4968 0
M  V30 9718 N 907.176 4.10024 5.69934 0
M  V30 9719 H 912.016 2.58439 1.48368 0
M  V30 9720 H 909.553 1.28154 0.722152 0
M  V30 9721 H 911.511 1.71124 3.8049 0
M  V30 9722 H 910.141 0.791249 3.12952 0
M  V30 9723 H 909.193 3.0531 2.26914 0
M  V30 9724 H 910.505 3.86863 3.14863 0
M  V30 9725 H 909.659 2.93337 5.31073 0
M  V30 9726 H 908.398 2.01375 4.44184 0
M  V30 9727 H 907.403 4.15816 3.59691 0
M  V30 9728 H 908.628 5.08687 4.49904 0
M  V30 9729 H 906.574 3.20613 5.72314 0
M  V30 9730 H 906.491 4.93728 5.72511 0
M  V30 9731 H 907.759 4.13824 6.60583 0
M  V30 9732 N 911.988 -0.768124 1.37614 0
M  V30 9733 C 913.235 -1.5268 1.33022 0
M  V30 9734 C 913.563 -1.94318 -0.0841918 0
M  V30 9735 O 912.818 -1.64623 -1.0582 0
M  V30 9736 C 913.117 -2.80204 2.21856 0
M  V30 9737 C 912.783 -2.57602 3.7007 0
M  V30 9738 C 911.445 -2.51146 4.10462 0
M  V30 9739 C 913.797 -2.37482 4.63952 0
M  V30 9740 C 911.125 -2.22566 5.42846 0
M  V30 9741 C 913.477 -2.10425 5.96577 0
M  V30 9742 C 912.141 -2.02416 6.36069 0
M  V30 9743 H 911.411 -0.558697 0.486763 0
M  V30 9744 H 914.058 -0.88447 1.69851 0
M  V30 9745 H 912.363 -3.49014 1.78034 0
M  V30 9746 H 914.06 -3.38099 2.15615 0
M  V30 9747 H 910.65 -2.63491 3.38039 0
M  V30 9748 H 914.834 -2.41457 4.33604 0
M  V30 9749 H 910.09 -2.14863 5.72402 0
M  V30 9750 H 914.264 -1.93857 6.68874 0
M  V30 9751 H 911.891 -1.80034 7.38574 0
M  V30 9752 N 913.466 -1.22244 -0.994698 0
M  V30 9753 C 914.712 -1.05752 -1.73747 0
M  V30 9754 C 915.067 0.403416 -1.88123 0
M  V30 9755 O 914.36 1.29511 -1.412 0
M  V30 9756 C 914.554 -1.70014 -3.14372 0
M  V30 9757 C 914.383 -3.22205 -3.1371 0
M  V30 9758 C 913.153 -3.91301 -3.19705 0
M  V30 9759 C 915.351 -4.19163 -2.98005 0
M  V30 9760 N 913.333 -5.30594 -3.08778 0
M  V30 9761 C 914.704 -5.45274 -2.95087 0
M  V30 9762 C 916.759 -4.10078 -2.82383 0
M  V30 9763 C 915.462 -6.63345 -2.78146 0
M  V30 9764 C 917.488 -5.27797 -2.66803 0
M  V30 9765 C 916.85 -6.52826 -2.6457 0
M  V30 9766 H 912.949 -0.441393 -0.64552 0
M  V30 9767 H 915.533 -1.54757 -1.18146 0
M  V30 9768 H 913.704 -1.23562 -3.68221 0
M  V30 9769 H 915.436 -1.46631 -3.77202 0
M  V30 9770 H 912.191 -3.42289 -3.27315 0
M  V30 9771 H 912.615 -6.0358 -3.06628 0
M  V30 9772 H 917.257 -3.14201 -2.82909 0
M  V30 9773 H 914.975 -7.59373 -2.76367 0
M  V30 9774 H 918.561 -5.22598 -2.557 0
M  V30 9775 H 917.441 -7.42383 -2.5266 0
M  V30 9776 N 914.944 1.19125 -1.03184 0
M  V30 9777 C 916.174 1.92558 -0.748663 0
M  V30 9778 C 916.582 1.759 0.696837 0
M  V30 9779 O 915.925 1.08019 1.48585 0
M  V30 9780 C 915.987 3.4461 -1.02391 0
M  V30 9781 C 915.651 3.85041 -2.46155 0
M  V30 9782 C 916.648 3.89554 -3.44302 0
M  V30 9783 C 914.333 4.16594 -2.80633 0
M  V30 9784 C 916.327 4.25055 -4.74981 0
M  V30 9785 C 914.014 4.51767 -4.11521 0
M  V30 9786 C 915.012 4.55972 -5.08506 0
M  V30 9787 O 914.7 4.9033 -6.37049 0
M  V30 9788 H 914.432 0.618397 -0.273059 0
M  V30 9789 H 916.986 1.52122 -1.38015 0
M  V30 9790 H 915.216 3.85244 -0.335284 0
M  V30 9791 H 916.905 3.99283 -0.729927 0
M  V30 9792 H 917.671 3.65324 -3.19003 0
M  V30 9793 H 913.55 4.12503 -2.05821 0
M  V30 9794 H 917.094 4.28252 -5.50678 0
M  V30 9795 H 912.991 4.75455 -4.36592 0
M  V30 9796 H 913.759 5.08266 -6.41566 0
M  V30 9797 N 916.422 0.810101 1.35185 0
M  V30 9798 C 917.669 0.392117 1.98667 0
M  V30 9799 C 917.997 -1.0416 1.64259 0
M  V30 9800 O 917.252 -1.73795 0.899647 0
M  V30 9801 C 917.551 0.526561 3.535 0
M  V30 9802 C 917.217 1.92411 4.07785 0
M  V30 9803 C 915.879 2.30644 4.22323 0
M  V30 9804 C 918.231 2.83827 4.37141 0
M  V30 9805 C 915.559 3.59655 4.63536 0
M  V30 9806 C 917.911 4.12287 4.79794 0
M  V30 9807 C 916.575 4.50515 4.92536 0
M  V30 9808 H 915.845 0.143486 0.726975 0
M  V30 9809 H 918.492 1.03157 1.61341 0
M  V30 9810 H 916.797 -0.19633 3.91308 0
M  V30 9811 H 918.494 0.183871 4.00578 0
M  V30 9812 H 915.084 1.61707 3.96924 0
M  V30 9813 H 919.268 2.55536 4.25459 0
M  V30 9814 H 914.524 3.89117 4.71591 0
M  V30 9815 H 918.698 4.83221 5.01468 0
M  V30 9816 H 916.325 5.50535 5.24229 0
M  V30 9817 N 917.9 -1.47166 0.563914 0
M  V30 9818 C 918.81 -2.33885 -0.182977 0
M  V30 9819 C 919.826 -1.48605 -0.905132 0
M  V30 9820 O 921.002 -1.81518 -0.872527 0
M  V30 9821 C 918.067 -3.25433 -1.19558 0
M  V30 9822 C 917.128 -4.26607 -0.480129 0
M  V30 9823 C 916.361 -5.1378 -1.44449 0
M  V30 9824 O 916.584 -5.03531 -2.67979 0
M  V30 9825 O 915.518 -5.94109 -0.965321 0
M  V30 9826 H 919.344 -2.99065 0.528544 0
M  V30 9827 H 916.929 -1.45834 0.324468 0
M  V30 9828 H 918.811 -3.81964 -1.77993 0
M  V30 9829 H 917.486 -2.62873 -1.8889 0
M  V30 9830 H 916.393 -3.73817 0.145583 0
M  V30 9831 H 917.726 -4.919 0.171868 0
M  V30 9832 N 919.378 -0.300708 -1.54705 0
M  V30 9833 C 920.625 0.308654 -2.00134 0
M  V30 9834 C 920.953 1.53918 -1.1891 0
M  V30 9835 O 920.208 1.94054 -0.253263 0
M  V30 9836 C 920.507 0.710108 -3.50275 0
M  V30 9837 C 920.173 -0.418651 -4.48952 0
M  V30 9838 C 918.835 -0.728524 -4.75653 0
M  V30 9839 C 921.187 -1.17797 -5.07714 0
M  V30 9840 C 918.515 -1.80085 -5.58378 0
M  V30 9841 C 920.867 -2.24022 -5.91606 0
M  V30 9842 C 919.531 -2.55616 -6.16617 0
M  V30 9843 H 918.801 0.112945 -0.732342 0
M  V30 9844 H 921.448 -0.419744 -1.86843 0
M  V30 9845 H 919.753 1.51859 -3.61173 0
M  V30 9846 H 921.45 1.19277 -3.8285 0
M  V30 9847 H 918.04 -0.167034 -4.28274 0
M  V30 9848 H 922.224 -0.951835 -4.87087 0
M  V30 9849 H 917.48 -2.05036 -5.75995 0
M  V30 9850 H 921.654 -2.83317 -6.36164 0
M  V30 9851 H 919.281 -3.38839 -6.80509 0
M  V30 9852 N 920.856 1.57574 -0.0284266 0
M  V30 9853 C 922.104 1.91393 0.649079 0
M  V30 9854 C 922.425 0.905368 1.72708 0
M  V30 9855 O 921.695 -0.0532107 1.95828 0
M  V30 9856 H 920.275 0.70646 0.24274 0
M  V30 9857 H 922.937 1.94752 -0.076066 0
M  V30 9858 H 922.033 2.91988 1.10226 0
M  V30 9859 N 922.334 -0.244713 1.55689 0
M  V30 9860 C 923.562 -0.989944 1.8168 0
M  V30 9861 C 923.977 -1.78863 0.604449 0
M  V30 9862 O 923.334 -1.77437 -0.426907 0
M  V30 9863 C 923.385 -1.92607 3.05916 0
M  V30 9864 O 923.106 -1.1597 4.22472 0
M  V30 9865 C 924.607 -2.78711 3.44724 0
M  V30 9866 H 921.827 -0.2912 0.604519 0
M  V30 9867 H 924.371 -0.266938 2.0275 0
M  V30 9868 H 922.526 -2.60333 2.8689 0
M  V30 9869 H 922.94 -1.79311 4.92898 0
M  V30 9870 H 924.414 -3.40141 4.34751 0
M  V30 9871 H 924.891 -3.49935 2.6541 0
M  V30 9872 H 925.497 -2.16435 3.66109 0
M  V30 9873 N 923.813 -1.49104 -0.510467 0
M  V30 9874 C 925.038 -1.62068 -1.29417 0
M  V30 9875 C 925.463 -0.288432 -1.85875 0
M  V30 9876 O 924.821 0.742667 -1.65391 0
M  V30 9877 C 924.869 -2.68506 -2.40701 0
M  V30 9878 O 923.973 -2.27021 -3.4429 0
M  V30 9879 H 923.314 -0.542778 -0.382476 0
M  V30 9880 H 925.844 -1.95228 -0.612154 0
M  V30 9881 H 925.854 -2.90383 -2.86604 0
M  V30 9882 H 924.529 -3.65216 -1.98973 0
M  V30 9883 H 923.106 -2.15436 -3.04371 0
M  V30 9884 N 925.291 0.760815 -1.38019 0
M  V30 9885 C 926.201 1.90526 -1.36884 0
M  V30 9886 C 927.217 1.71941 -0.266908 0
M  V30 9887 O 928.393 1.94988 -0.50413 0
M  V30 9888 C 925.458 3.25799 -1.18558 0
M  V30 9889 C 924.519 3.56961 -2.3849 0
M  V30 9890 C 923.752 4.8578 -2.21029 0
M  V30 9891 O 923.975 5.57629 -1.20023 0
M  V30 9892 O 922.909 5.16254 -3.0946 0
M  V30 9893 H 926.735 1.94437 -2.33298 0
M  V30 9894 H 924.32 0.905091 -1.18863 0
M  V30 9895 H 926.202 4.0669 -1.1037 0
M  V30 9896 H 924.877 3.22716 -0.252241 0
M  V30 9897 H 923.784 2.7626 -2.52252 0
M  V30 9898 H 925.117 3.64798 -3.30429 0
M  V30 9899 N 926.769 1.22769 0.988202 0
M  V30 9900 C 927.997 1.08155 1.76381 0
M  V30 9901 C 928.412 -0.367573 1.85187 0
M  V30 9902 O 927.769 -1.25455 1.32541 0
M  V30 9903 C 927.82 1.69193 3.19462 0
M  V30 9904 O 927.541 3.08437 3.11125 0
M  V30 9905 C 929.042 1.59915 4.13451 0
M  V30 9906 H 926.262 0.378908 0.553778 0
M  V30 9907 H 928.806 1.6246 1.24206 0
M  V30 9908 H 926.961 1.18939 3.6869 0
M  V30 9909 H 927.375 3.37916 4.0114 0
M  V30 9910 H 928.849 2.07339 5.1158 0
M  V30 9911 H 929.326 0.556546 4.3566 0
M  V30 9912 H 929.932 2.09497 3.70123 0
M  V30 9913 N 928.247 -1.18576 1.03814 0
M  V30 9914 C 929.494 -1.88493 0.740036 0
M  V30 9915 C 929.822 -1.80198 -0.732056 0
M  V30 9916 O 929.077 -1.19509 -1.54971 0
M  V30 9917 C 929.376 -3.38448 1.14837 0
M  V30 9918 C 929.042 -3.66947 2.62031 0
M  V30 9919 C 927.704 -3.74435 3.02244 0
M  V30 9920 C 930.056 -3.79534 3.57217 0
M  V30 9921 C 927.384 -3.91986 4.36536 0
M  V30 9922 C 929.736 -3.986 4.91223 0
M  V30 9923 C 928.4 -4.04323 5.31111 0
M  V30 9924 H 927.67 -0.689746 0.270798 0
M  V30 9925 H 930.317 -1.40364 1.3027 0
M  V30 9926 H 928.622 -3.88539 0.504472 0
M  V30 9927 H 930.319 -3.90882 0.89511 0
M  V30 9928 H 926.909 -3.61734 2.29883 0
M  V30 9929 H 931.093 -3.73083 3.27296 0
M  V30 9930 H 926.349 -3.9466 4.66962 0
M  V30 9931 H 930.523 -4.07281 5.64885 0
M  V30 9932 H 928.15 -4.17676 6.35178 0
M  V30 9933 N 929.725 -0.817259 -1.34754 0
M  V30 9934 C 930.95 -0.414423 -2.03217 0
M  V30 9935 C 931.375 0.970037 -1.61158 0
M  V30 9936 O 930.733 1.63016 -0.793436 0
M  V30 9937 C 930.781 -0.518087 -3.56859 0
M  V30 9938 O 929.885 0.464314 -4.09778 0
M  V30 9939 H 929.226 -0.171454 -0.641482 0
M  V30 9940 H 931.756 -1.10611 -1.72123 0
M  V30 9941 H 931.766 -0.391779 -4.06115 0
M  V30 9942 H 930.441 -1.52786 -3.86819 0
M  V30 9943 H 929.018 0.297361 -3.71712 0
M  V30 9944 N 931.203 1.46865 -0.571711 0
M  V30 9945 C 932.166 2.28658 0.157499 0
M  V30 9946 C 933.166 1.37773 0.829172 0
M  V30 9947 O 934.356 1.6026 0.682811 0
M  V30 9948 C 931.488 3.17859 1.23202 0
M  V30 9949 H 932.681 2.94603 -0.561171 0
M  V30 9950 H 930.234 1.52793 -0.329229 0
M  V30 9951 H 930.969 2.56637 1.98262 0
M  V30 9952 H 930.754 3.84762 0.755031 0
M  V30 9953 H 932.244 3.7945 1.74378 0
M  V30 9954 N 932.681 0.308908 1.54543 0
M  V30 9955 C 933.909 -0.300418 2.04707 0
M  V30 9956 C 934.324 -1.46915 1.18581 0
M  V30 9957 O 933.681 -1.81251 0.213186 0
M  V30 9958 C 933.732 -0.749038 3.53655 0
M  V30 9959 O 933.453 0.373181 4.36508 0
M  V30 9960 C 934.954 -1.4227 4.1985 0
M  V30 9961 H 932.174 -0.0641267 0.667929 0
M  V30 9962 H 934.718 0.450839 1.99469 0
M  V30 9963 H 932.873 -1.4503 3.59228 0
M  V30 9964 H 933.287 0.0224752 5.24495 0
M  V30 9965 H 934.761 -1.68768 5.25568 0
M  V30 9966 H 935.238 -2.36531 3.70067 0
M  V30 9967 H 935.844 -0.764404 4.18374 0
M  V30 9968 N 934.159 -1.57557 0.0367827 0
M  V30 9969 C 935.399 -1.93981 -0.644252 0
M  V30 9970 C 935.763 -0.913982 -1.6885 0
M  V30 9971 O 936.964 -1.16468 -2.42257 0
M  V30 9972 C 935.235 -3.35281 -1.23779 0
M  V30 9973 S 936.794 -3.93643 -1.93883 0
M  V30 9974 H 933.612 -0.678683 -0.21192 0
M  V30 9975 H 936.214 -1.95232 0.102281 0
M  V30 9976 H 934.918 -4.07752 -0.465451 0
M  V30 9977 H 934.449 -3.37492 -2.02146 0
M  V30 9978 H 936.464 -3.777 -3.21803 0
M  V30 9979 N 935.637 0.236453 -1.55816 0
M  V30 9980 C 936.584 1.29289 -1.91188 0
M  V30 9981 C 937.554 1.47315 -0.767301 0
M  V30 9982 O 938.739 1.61128 -1.02189 0
M  V30 9983 C 935.879 2.64126 -2.22107 0
M  V30 9984 C 934.992 2.54022 -3.49423 0
M  V30 9985 C 934.127 3.81282 -3.69861 0
M  V30 9986 C 933.166 3.65839 -4.90743 0
M  V30 9987 N 932.303 4.85014 -5.07647 0
M  V30 9988 H 937.143 0.98424 -2.81277 0
M  V30 9989 H 934.68 0.474722 -1.39229 0
M  V30 9990 H 936.638 3.42626 -2.3804 0
M  V30 9991 H 935.268 2.93118 -1.35209 0
M  V30 9992 H 934.32 1.67036 -3.41765 0
M  V30 9993 H 935.632 2.38525 -4.38072 0
M  V30 9994 H 934.786 4.68226 -3.8581 0
M  V30 9995 H 933.525 3.99688 -2.79465 0
M  V30 9996 H 932.53 2.77279 -4.74759 0
M  V30 9997 H 933.755 3.48918 -5.82609 0
M  V30 9998 H 931.701 5.03762 -4.20191 0
M  V30 9999 H 931.618 4.72188 -5.90402 0
M  V30 10000 H 932.886 5.73427 -5.28017 0
M  V30 10001 N 937.115 1.49373 0.502552 0
M  V30 10002 C 938.062 1.65927 1.60427 0
M  V30 10003 C 939.032 0.500768 1.58371 0
M  V30 10004 O 940.217 0.727606 1.76382 0
M  V30 10005 C 937.357 1.73043 2.9858 0
M  V30 10006 C 936.47 3.00187 3.10663 0
M  V30 10007 C 935.605 2.98292 4.3954 0
M  V30 10008 C 934.644 4.20022 4.4525 0
M  V30 10009 N 933.781 4.16046 5.65553 0
M  V30 10010 H 938.621 2.59998 1.45619 0
M  V30 10011 H 936.158 1.28912 0.708519 0
M  V30 10012 H 938.116 1.7515 3.78653 0
M  V30 10013 H 936.746 0.824397 3.12095 0
M  V30 10014 H 935.798 3.07699 2.23663 0
M  V30 10015 H 937.11 3.9018 3.10742 0
M  V30 10016 H 936.264 2.98953 5.27932 0
M  V30 10017 H 935.003 2.06075 4.42023 0
M  V30 10018 H 934.008 4.19607 3.5526 0
M  V30 10019 H 935.233 5.13431 4.44484 0
M  V30 10020 H 933.179 3.26665 5.68881 0
M  V30 10021 H 933.096 4.99773 5.67242 0
M  V30 10022 H 934.364 4.20807 6.56156 0
M  V30 10023 N 938.594 -0.753485 1.38421 0
M  V30 10024 C 939.524 -1.8808 1.38377 0
M  V30 10025 C 940.505 -1.68258 0.249664 0
M  V30 10026 O 941.69 -1.88848 0.45276 0
M  V30 10027 C 938.82 -3.25608 1.20818 0
M  V30 10028 C 937.774 -3.60032 2.31433 0
M  V30 10029 C 937.1 -4.96297 1.9898 0
M  V30 10030 C 938.4 -3.64898 3.73694 0
M  V30 10031 H 940.094 -1.88375 2.32713 0
M  V30 10032 H 937.64 -0.90489 1.12017 0
M  V30 10033 H 939.593 -4.04127 1.19412 0
M  V30 10034 H 938.317 -3.25793 0.229433 0
M  V30 10035 H 936.976 -2.83831 2.32025 0
M  V30 10036 H 936.624 -4.93043 0.995889 0
M  V30 10037 H 936.324 -5.20298 2.73063 0
M  V30 10038 H 937.848 -5.77196 1.99193 0
M  V30 10039 H 939.262 -4.33531 3.75132 0
M  V30 10040 H 937.659 -4.00407 4.46983 0
M  V30 10041 H 938.729 -2.65124 4.06002 0
M  V30 10042 N 940.072 -1.23292 -0.981677 0
M  V30 10043 C 941.022 -0.980133 -2.05858 0
M  V30 10044 C 942.006 0.0734044 -1.60732 0
M  V30 10045 O 943.198 -0.138561 -1.76457 0
M  V30 10046 C 940.327 -0.571879 -3.38503 0
M  V30 10047 C 939.413 -1.66075 -3.90231 0
M  V30 10048 N 939.804 -2.89077 -4.15052 0
M  V30 10049 C 938.102 -1.53503 -4.18751 0
M  V30 10050 C 938.803 -3.59567 -4.5726 0
M  V30 10051 N 937.779 -2.87076 -4.61615 0
M  V30 10052 H 941.581 -1.91432 -2.23005 0
M  V30 10053 H 939.095 -1.13211 -1.16434 0
M  V30 10054 H 941.092 -0.372059 -4.15236 0
M  V30 10055 H 939.752 0.355278 -3.2275 0
M  V30 10056 H 940.763 -3.25395 -4.02912 0
M  V30 10057 H 937.44 -0.674891 -4.12009 0
M  V30 10058 H 938.83 -4.65007 -4.84993 0
M  V30 10059 N 941.55 1.18024 -1.04442 0
M  V30 10060 C 942.46 2.25436 -0.649276 0
M  V30 10061 C 943.476 1.70915 0.326189 0
M  V30 10062 O 944.652 2.00592 0.180174 0
M  V30 10063 C 941.717 3.46693 -0.0222558 0
M  V30 10064 C 940.778 4.16332 -1.0472 0
M  V30 10065 C 940.011 5.31799 -0.450011 0
M  V30 10066 O 940.234 5.65544 0.742717 0
M  V30 10067 O 939.168 5.90209 -1.18056 0
M  V30 10068 H 942.994 2.61508 -1.54426 0
M  V30 10069 H 940.579 1.25178 -0.81552 0
M  V30 10070 H 942.461 4.20132 0.326597 0
M  V30 10071 H 941.136 3.12436 0.84649 0
M  V30 10072 H 940.043 3.44944 -1.44792 0
M  V30 10073 H 941.376 4.54598 -1.88684 0
M  V30 10074 N 943.028 0.824394 1.34319 0
M  V30 10075 C 944.253 0.425194 2.02995 0
M  V30 10076 C 944.678 -0.961476 1.6167 0
M  V30 10077 O 944.036 -1.62593 0.80207 0
M  V30 10078 C 944.084 0.537004 3.56579 0
M  V30 10079 O 943.188 -0.442576 4.10018 0
M  V30 10080 H 942.529 0.174853 0.640564 0
M  V30 10081 H 945.059 1.11522 1.71534 0
M  V30 10082 H 945.069 0.413311 4.05901 0
M  V30 10083 H 943.744 1.54836 3.86004 0
M  V30 10084 H 942.321 -0.277644 3.71865 0
M  V30 10085 N 944.506 -1.46559 0.579492 0
M  V30 10086 C 945.752 -2.02699 0.0639363 0
M  V30 10087 C 946.085 -1.4504 -1.29139 0
M  V30 10088 O 945.36 -0.614284 -1.84545 0
M  V30 10089 C 945.643 -3.601 -0.00528618 0
M  V30 10090 C 945.496 -4.28149 1.37871 0
M  V30 10091 C 946.815 -4.34375 -0.707537 0
M  V30 10092 H 943.934 -0.736586 0.0247085 0
M  V30 10093 H 946.576 -1.74739 0.746071 0
M  V30 10094 H 944.726 -3.84052 -0.586206 0
M  V30 10095 H 946.398 -4.1547 2.00455 0
M  V30 10096 H 944.641 -3.87636 1.94732 0
M  V30 10097 H 945.312 -5.36888 1.28278 0
M  V30 10098 H 947.788 -4.15549 -0.214064 0
M  V30 10099 H 946.664 -5.44091 -0.724992 0
M  V30 10100 H 946.925 -4.052 -1.7682 0
M  V30 10101 N 945.984 -0.3171 -1.54377 0
M  V30 10102 C 946.894 0.560867 -2.27797 0
M  V30 10103 C 947.91 1.13473 -1.31908 0
M  V30 10104 O 949.086 1.15608 -1.64914 0
M  V30 10105 C 946.151 1.70886 -3.0166 0
M  V30 10106 C 945.212 1.16745 -4.13121 0
M  V30 10107 C 944.445 2.26073 -4.83453 0
M  V30 10108 O 944.668 3.46292 -4.53252 0
M  V30 10109 O 943.602 1.91856 -5.70504 0
M  V30 10110 H 947.428 -0.035193 -3.0368 0
M  V30 10111 H 945.013 -0.0830062 -1.49169 0
M  V30 10112 H 946.895 2.37736 -3.47936 0
M  V30 10113 H 945.57 2.29122 -2.28658 0
M  V30 10114 H 944.477 0.464224 -3.71209 0
M  V30 10115 H 945.81 0.630307 -4.88147 0
M  V30 10116 N 947.462 1.57535 -0.0451378 0
M  V30 10117 C 948.711 1.91628 0.629415 0
M  V30 10118 C 949.024 0.924754 1.72359 0
M  V30 10119 O 950.23 1.15751 2.45589 0
M  V30 10120 C 948.686 3.40322 1.17084 0
M  V30 10121 C 948.294 4.47867 0.109101 0
M  V30 10122 C 950.038 3.83458 1.82099 0
M  V30 10123 C 947.945 5.87671 0.663072 0
M  V30 10124 H 946.875 0.715163 0.238868 0
M  V30 10125 H 949.526 1.83151 -0.113046 0
M  V30 10126 H 947.908 3.43783 1.96543 0
M  V30 10127 H 949.082 4.55988 -0.664201 0
M  V30 10128 H 947.397 4.14034 -0.443227 0
M  V30 10129 H 949.994 4.85273 2.2453 0
M  V30 10130 H 950.337 3.19379 2.67026 0
M  V30 10131 H 950.87 3.82488 1.09305 0
M  V30 10132 H 947.609 6.55332 -0.148423 0
M  V30 10133 H 947.129 5.83124 1.4045 0
M  V30 10134 H 948.808 6.36737 1.14785 0
M  V30 10135 N 948.94 -0.228186 1.55939 0
M  V30 10136 C 949.85 -1.30386 1.9503 0
M  V30 10137 C 950.866 -1.51645 0.853218 0
M  V30 10138 O 952.042 -1.64904 1.15623 0
M  V30 10139 C 949.107 -2.63489 2.25332 0
M  V30 10140 C 948.168 -2.5059 3.48573 0
M  V30 10141 C 947.401 -3.77345 3.7742 0
M  V30 10142 O 947.624 -4.80067 3.08045 0
M  V30 10143 O 946.558 -3.74855 4.70922 0
M  V30 10144 H 950.384 -1.0022 2.86687 0
M  V30 10145 H 947.969 -0.430503 1.43063 0
M  V30 10146 H 949.851 -3.4211 2.46046 0
M  V30 10147 H 948.526 -2.93349 1.3685 0
M  V30 10148 H 947.433 -1.70191 3.33145 0
M  V30 10149 H 948.766 -2.2567 4.37417 0
M  V30 10150 N 950.418 -1.49637 -0.494624 0
M  V30 10151 C 951.658 -1.61067 -1.25844 0
M  V30 10152 C 952.022 -0.293666 -1.89741 0
M  V30 10153 O 953.223 -0.283202 -2.67304 0
M  V30 10154 C 951.494 -2.74218 -2.29215 0
M  V30 10155 S 953.053 -3.05639 -3.1485 0
M  V30 10156 H 949.871 -0.568056 -0.42759 0
M  V30 10157 H 952.473 -1.87323 -0.559491 0
M  V30 10158 H 951.177 -3.68422 -1.80813 0
M  V30 10159 H 950.708 -2.49975 -3.0377 0
M  V30 10160 H 952.723 -2.47651 -4.29981 0
M  V30 10161 N 951.896 0.746133 -1.38819 0
M  V30 10162 C 953.173 1.49652 -1.25951 0
M  V30 10163 C 953.553 2.10663 0.135833 0
M  V30 10164 O 952.901 1.97682 1.14604 0
M  V30 10165 C 953.111 2.5569 -2.37537 0
M  V30 10166 C 954.459 3.22385 -2.76321 0
M  V30 10167 O 955.483 2.65998 -2.36904 0
M  V30 10168 O 954.342 4.2439 -3.44319 0
M  V30 10169 H 951.436 0.664019 -0.492958 0
M  V30 10170 H 953.982 0.780908 -1.50665 0
M  V30 10171 H 952.754 2.08908 -3.30867 0
M  V30 10172 H 952.377 3.34823 -2.14427 0
M  V30 10173 N 953.375 1.23811 0.975125 0
M  V30 10174 C 954.623 1.07124 1.71373 0
M  V30 10175 C 954.944 -0.391864 1.91022 0
M  V30 10176 O 954.214 -1.28041 1.48265 0
M  V30 10177 H 952.794 0.393415 0.635007 0
M  V30 10178 H 955.456 1.55612 1.17349 0
M  V30 10179 H 954.552 1.56338 2.7012 0
M  V30 10180 N 954.853 -1.17469 1.05066 0
M  V30 10181 C 956.099 -1.87976 0.761113 0
M  V30 10182 C 956.432 -1.80756 -0.709995 0
M  V30 10183 O 955.707 -1.21469 -1.51906 0
M  V30 10184 C 955.99 -3.38055 1.2406 0
M  V30 10185 C 955.843 -3.54032 2.77455 0
M  V30 10186 C 957.162 -4.32036 0.838612 0
M  V30 10187 H 954.281 -0.682573 0.277963 0
M  V30 10188 H 956.923 -1.38147 1.30443 0
M  V30 10189 H 955.073 -3.80622 0.778388 0
M  V30 10190 H 956.745 -3.20489 3.3179 0
M  V30 10191 H 954.988 -2.96352 3.16793 0
M  V30 10192 H 955.659 -4.59377 3.06066 0
M  V30 10193 H 958.135 -3.97303 1.23651 0
M  V30 10194 H 957.011 -5.35583 1.20173 0
M  V30 10195 H 957.272 -4.41349 -0.257498 0
M  V30 10196 N 956.331 -0.831506 -1.3388 0
M  V30 10197 C 957.263 -0.216908 -2.28171 0
M  V30 10198 C 958.276 0.598141 -1.51414 0
M  V30 10199 O 959.465 0.426416 -1.73332 0
M  V30 10200 C 956.565 0.713831 -3.31297 0
M  V30 10201 C 955.738 -0.0602673 -4.37358 0
M  V30 10202 C 954.797 0.792696 -5.20195 0
M  V30 10203 O 953.823 0.234564 -5.68716 0
M  V30 10204 N 955.025 2.11119 -5.40748 0
M  V30 10205 H 957.79 -1.02704 -2.81553 0
M  V30 10206 H 955.351 -0.689272 -1.46495 0
M  V30 10207 H 957.343 1.28925 -3.83615 0
M  V30 10208 H 955.913 1.42469 -2.78247 0
M  V30 10209 H 955.133 -0.817041 -3.8564 0
M  V30 10210 H 956.421 -0.592822 -5.05335 0
M  V30 10211 H 955.819 2.58828 -5.03016 0
M  V30 10212 H 954.376 2.63527 -5.96151 0
M  V30 10213 N 957.809 1.4625 -0.587256 0
M  V30 10214 C 959.058 2.01571 -0.0722643 0
M  V30 10215 C 959.371 1.46385 1.29733 0
M  V30 10216 O 960.577 1.93554 1.90392 0
M  V30 10217 C 959.033 3.59814 -0.078579 0
M  V30 10218 C 958.641 4.23996 -1.44678 0
M  V30 10219 C 960.385 4.22776 0.382231 0
M  V30 10220 C 958.292 5.74332 -1.41057 0
M  V30 10221 H 957.222 0.753642 -0.0232461 0
M  V30 10222 H 959.873 1.67936 -0.739577 0
M  V30 10223 H 958.255 3.90546 0.654988 0
M  V30 10224 H 959.429 4.04867 -2.20043 0
M  V30 10225 H 957.744 3.73147 -1.84799 0
M  V30 10226 H 960.341 5.32983 0.428182 0
M  V30 10227 H 960.684 3.92027 1.40072 0
M  V30 10228 H 961.217 3.96687 -0.297417 0
M  V30 10229 H 957.956 6.09747 -2.40601 0
M  V30 10230 H 957.476 5.95711 -0.699185 0
M  V30 10231 H 959.155 6.37137 -1.12543 0
M  V30 10232 N 959.287 0.325282 1.54207 0
M  V30 10233 C 960.564 -0.33113 1.92777 0
M  V30 10234 C 960.944 -1.69739 1.25506 0
M  V30 10235 O 960.292 -2.24983 0.399385 0
M  V30 10236 C 960.502 -0.421636 3.46444 0
M  V30 10237 C 961.85 -0.681111 4.19101 0
M  V30 10238 O 962.874 -0.504488 3.52609 0
M  V30 10239 O 961.733 -1.02196 5.3686 0
M  V30 10240 H 958.827 -0.18943 0.805013 0
M  V30 10241 H 961.373 0.375123 1.65502 0
M  V30 10242 H 960.145 0.537862 3.87586 0
M  V30 10243 H 959.768 -1.1754 3.79829 0
M  V30 10244 N 960.765 -1.57509 0.0534917 0
M  V30 10245 C 961.695 -2.14698 -0.917999 0
M  V30 10246 C 962.676 -1.06924 -1.32292 0
M  V30 10247 O 963.861 -1.34875 -1.39723 0
M  V30 10248 C 960.991 -2.69383 -2.19203 0
M  V30 10249 C 959.945 -3.82161 -1.9271 0
M  V30 10250 C 959.271 -4.23373 -3.26587 0
M  V30 10251 C 960.571 -5.07199 -1.24686 0
M  V30 10252 H 962.265 -2.96125 -0.44165 0
M  V30 10253 H 959.811 -1.42446 -0.210993 0
M  V30 10254 H 961.764 -3.08031 -2.87567 0
M  V30 10255 H 960.488 -1.85151 -2.69048 0
M  V30 10256 H 959.147 -3.43989 -1.26757 0
M  V30 10257 H 958.795 -3.36089 -3.74237 0
M  V30 10258 H 958.495 -4.99385 -3.09658 0
M  V30 10259 H 960.019 -4.64623 -3.96178 0
M  V30 10260 H 961.433 -5.43279 -1.83088 0
M  V30 10261 H 959.83 -5.88369 -1.18076 0
M  V30 10262 H 960.9 -4.84386 -0.223227 0
M  V30 10263 N 962.243 0.219913 -1.56058 0
M  V30 10264 C 963.492 0.942119 -1.78345 0
M  V30 10265 C 963.805 1.85435 -0.622344 0
M  V30 10266 O 965.011 2.61533 -0.728886 0
M  V30 10267 C 963.467 1.72544 -3.15843 0
M  V30 10268 C 963.075 0.859263 -4.39682 0
M  V30 10269 C 964.819 2.43876 -3.47455 0
M  V30 10270 C 962.726 1.64003 -5.68205 0
M  V30 10271 H 961.656 0.355514 -0.664925 0
M  V30 10272 H 964.307 0.195963 -1.82451 0
M  V30 10273 H 962.689 2.51456 -3.05918 0
M  V30 10274 H 963.863 0.110562 -4.60667 0
M  V30 10275 H 962.178 0.257985 -4.156 0
M  V30 10276 H 964.775 3.02794 -4.40704 0
M  V30 10277 H 965.118 3.16843 -2.7003 0
M  V30 10278 H 965.651 1.71952 -3.58716 0
M  V30 10279 H 962.39 0.953606 -6.48526 0
M  V30 10280 H 961.91 2.3633 -5.51279 0
M  V30 10281 H 963.589 2.20028 -6.08438 0
M  V30 10282 N 963.721 1.49897 0.486681 0
M  V30 10283 C 964.669 1.68125 1.60738 0
M  V30 10284 C 965.663 0.547097 1.60322 0
M  V30 10285 O 966.869 0.727153 1.64659 0
M  V30 10286 H 963.244 0.530391 0.533094 0
M  V30 10287 H 965.215 2.62165 1.42521 0
M  V30 10288 C 963.964 1.77827 2.98786 0
M  V30 10289 H 963.287 2.6448 2.99818 0
M  V30 10290 H 964.727 1.94611 3.76699 0
M  V30 10291 C 963.186 0.526287 3.32764 0
M  V30 10292 O 963.716 -0.341607 4.00245 0
M  V30 10293 N 961.922 0.384947 2.88039 0
M  V30 10294 H 961.469 1.09222 2.33299 0
M  V30 10295 H 961.427 -0.451618 3.11139 0
M  V30 10296 N 965.199 -0.738761 1.39212 0
M  V30 10297 C 966.448 -1.49368 1.35543 0
M  V30 10298 C 966.761 -1.95543 -0.0471091 0
M  V30 10299 O 967.967 -2.70714 -0.206376 0
M  V30 10300 C 966.423 -2.69882 2.381 0
M  V30 10301 C 966.031 -2.30672 3.8405 0
M  V30 10302 C 967.775 -3.47718 2.435 0
M  V30 10303 C 965.682 -3.47886 4.78256 0
M  V30 10304 H 964.612 -0.560898 0.503894 0
M  V30 10305 H 967.263 -0.806221 1.6484 0
M  V30 10306 H 965.645 -3.40684 2.01867 0
M  V30 10307 H 966.819 -1.67441 4.29302 0
M  V30 10308 H 965.134 -1.65936 3.81909 0
M  V30 10309 H 967.731 -4.34897 3.11077 0
M  V30 10310 H 968.074 -3.89919 1.45838 0
M  V30 10311 H 968.607 -2.83942 2.78606 0
M  V30 10312 H 965.346 -3.10739 5.77167 0
M  V30 10313 H 964.866 -4.10111 4.37686 0
M  V30 10314 H 966.545 -4.14271 4.96979 0
M  V30 10315 N 966.677 -1.24326 -0.968545 0
M  V30 10316 C 967.902 -1.1104 -1.75171 0
M  V30 10317 C 968.327 0.333109 -1.85127 0
M  V30 10318 O 967.685 1.24115 -1.32156 0
M  V30 10319 C 967.733 -1.75397 -3.15068 0
M  V30 10320 O 966.837 -1.02417 -3.9948 0
M  V30 10321 H 966.178 -0.388488 -0.538491 0
M  V30 10322 H 968.708 -1.64617 -1.215 0
M  V30 10323 H 968.718 -1.8112 -3.65595 0
M  V30 10324 H 967.393 -2.80427 -3.07138 0
M  V30 10325 H 965.97 -1.04475 -3.57966 0
M  V30 10326 N 968.156 1.1691 -1.05688 0
M  V30 10327 C 969.086 2.23275 -0.683402 0
M  V30 10328 C 970.067 1.6704 0.321206 0
M  V30 10329 O 971.252 1.93191 0.197691 0
M  V30 10330 C 968.382 3.47244 -0.0626006 0
M  V30 10331 C 967.336 4.16333 -0.992513 0
M  V30 10332 C 966.662 5.34182 -0.23533 0
M  V30 10333 C 967.962 4.68002 -2.31886 0
M  V30 10334 H 969.656 2.54771 -1.57264 0
M  V30 10335 H 967.202 1.2246 -0.757606 0
M  V30 10336 H 969.155 4.20874 0.210503 0
M  V30 10337 H 967.879 3.1503 0.861616 0
M  V30 10338 H 966.538 3.44622 -1.25026 0
M  V30 10339 H 966.186 4.9822 0.69181 0
M  V30 10340 H 965.886 5.81346 -0.855002 0
M  V30 10341 H 967.41 6.10592 0.0303717 0
M  V30 10342 H 968.824 5.33244 -2.10531 0
M  V30 10343 H 967.221 5.25764 -2.89296 0
M  V30 10344 H 968.291 3.84541 -2.95391 0
M  V30 10345 N 969.634 0.838594 1.33437 0
M  V30 10346 C 970.544 0.274048 2.32994 0
M  V30 10347 C 971.56 -0.599776 1.63336 0
M  V30 10348 O 972.736 -0.503963 1.94993 0
M  V30 10349 C 969.801 -0.541804 3.4244 0
M  V30 10350 C 968.862 0.356262 4.27819 0
M  V30 10351 C 968.095 -0.420747 5.32039 0
M  V30 10352 O 968.318 -1.65247 5.45939 0
M  V30 10353 O 967.252 0.205101 6.0155 0
M  V30 10354 H 971.078 1.09846 2.83139 0
M  V30 10355 H 968.663 0.601111 1.36774 0
M  V30 10356 H 970.545 -1.00544 4.0923 0
M  V30 10357 H 969.22 -1.34328 2.94513 0
M  V30 10358 H 968.127 0.867726 3.63897 0
M  V30 10359 H 969.46 1.1225 4.79229 0
M  V30 10360 N 971.112 -1.45937 0.595003 0
M  V30 10361 C 972.36 -2.01921 0.0851368 0
M  V30 10362 C 972.681 -1.46748 -1.28413 0
M  V30 10363 O 971.951 -0.656873 -1.84559 0
M  V30 10364 H 970.531 -0.746457 0.0284826 0
M  V30 10365 H 973.193 -1.78891 0.773561 0
M  V30 10366 H 972.289 -3.1209 0.0254002 0
M  V30 10367 N 972.59 -0.333456 -1.54032 0
M  V30 10368 C 973.839 0.267081 -1.99924 0
M  V30 10369 C 974.152 1.52463 -1.22534 0
M  V30 10370 O 975.358 2.20178 -1.58852 0
M  V30 10371 C 973.814 0.526456 -3.56029 0
M  V30 10372 C 973.422 -0.714607 -4.42264 0
M  V30 10373 C 975.166 1.0864 -4.10363 0
M  V30 10374 C 973.073 -0.42659 -5.89859 0
M  V30 10375 H 972.003 0.103577 -0.746852 0
M  V30 10376 H 974.654 -0.447218 -1.77967 0
M  V30 10377 H 973.036 1.3012 -3.74012 0
M  V30 10378 H 974.21 -1.48968 -4.36056 0
M  V30 10379 H 972.525 -1.19547 -3.9887 0
M  V30 10380 H 975.122 1.31668 -5.18235 0
M  V30 10381 H 975.465 2.03884 -3.62956 0
M  V30 10382 H 975.998 0.37261 -3.96051 0
M  V30 10383 H 972.737 -1.34847 -6.4148 0
M  V30 10384 H 972.257 0.310588 -5.98995 0
M  V30 10385 H 973.936 -0.0400807 -6.46988 0
M  V30 10386 N 974.068 1.57479 -0.061844 0
M  V30 10387 C 975.031 2.1104 0.894127 0
M  V30 10388 C 976.031 1.03227 1.23292 0
M  V30 10389 O 977.221 1.29256 1.16784 0
M  V30 10390 C 974.353 2.6035 2.20069 0
M  V30 10391 H 975.546 2.96807 0.429619 0
M  V30 10392 H 973.099 1.55181 0.18672 0
M  V30 10393 H 973.834 1.78008 2.71079 0
M  V30 10394 H 973.619 3.39146 1.9678 0
M  V30 10395 H 975.109 3.019 2.88525 0
M  V30 10396 N 975.546 -0.211634 1.56173 0
M  V30 10397 C 976.795 -0.932647 1.78842 0
M  V30 10398 C 977.108 -1.85103 0.63217 0
M  V30 10399 O 978.314 -2.61143 0.742746 0
M  V30 10400 C 976.77 -1.70866 3.16753 0
M  V30 10401 C 976.378 -0.835934 4.40132 0
M  V30 10402 C 978.122 -2.4203 3.48743 0
M  V30 10403 C 976.029 -1.60987 5.69067 0
M  V30 10404 H 974.959 -0.351983 0.666801 0
M  V30 10405 H 977.61 -0.186284 1.82552 0
M  V30 10406 H 975.992 -2.4983 3.07247 0
M  V30 10407 H 977.166 -0.0861298 4.60719 0
M  V30 10408 H 975.481 -0.235941 4.15731 0
M  V30 10409 H 978.078 -3.00453 4.42303 0
M  V30 10410 H 978.421 -3.15406 2.71707 0
M  V30 10411 H 978.954 -1.70048 3.59623 0
M  V30 10412 H 975.693 -0.9192 6.49023 0
M  V30 10413 H 975.213 -2.33403 5.52524 0
M  V30 10414 H 976.892 -2.16798 6.09596 0
M  V30 10415 N 977.024 -1.50153 -0.478725 0
M  V30 10416 C 977.954 -1.71384 -1.58587 0
M  V30 10417 C 978.935 -0.562705 -1.60523 0
M  V30 10418 O 980.12 -0.80101 -1.76911 0
M  V30 10419 C 977.25 -1.80094 -2.96957 0
M  V30 10420 C 976.204 -2.95218 -3.09888 0
M  V30 10421 C 975.53 -2.89063 -4.49829 0
M  V30 10422 C 976.83 -4.35841 -2.8782 0
M  V30 10423 H 978.524 -2.64081 -1.41073 0
M  V30 10424 H 976.07 -1.27081 -0.677239 0
M  V30 10425 H 978.023 -1.93531 -3.74331 0
M  V30 10426 H 976.747 -0.840131 -3.1561 0
M  V30 10427 H 975.406 -2.81419 -2.34944 0
M  V30 10428 H 975.054 -1.90844 -4.6539 0
M  V30 10429 H 974.754 -3.66345 -4.59418 0
M  V30 10430 H 976.278 -3.04539 -5.29234 0
M  V30 10431 H 977.692 -4.50205 -3.54948 0
M  V30 10432 H 976.089 -5.14515 -3.0886 0
M  V30 10433 H 977.159 -4.48739 -1.83742 0
M  V30 10434 N 978.502 0.731368 -1.39602 0
M  V30 10435 C 979.45 1.86676 -1.38761 0
M  V30 10436 C 980.444 1.6723 -0.270247 0
M  V30 10437 O 981.65 1.74528 -0.440471 0
M  V30 10438 H 978.025 0.614553 -0.433391 0
M  V30 10439 H 979.996 1.84501 -2.34525 0
M  V30 10440 C 978.745 3.24394 -1.25155 0
M  V30 10441 H 978.068 3.39955 -2.10406 0
M  V30 10442 H 979.508 4.04019 -1.28625 0
M  V30 10443 C 977.967 3.36877 0.0396976 0
M  V30 10444 O 978.497 3.88833 1.00854 0
M  V30 10445 N 976.703 2.90414 0.103965 0
M  V30 10446 H 976.25 2.48321 -0.685155 0
M  V30 10447 H 976.208 2.99146 0.967435 0
M  V30 10448 N 979.98 1.24838 0.961938 0
M  V30 10449 C 981.229 1.0855 1.69999 0
M  V30 10450 C 981.542 -0.374645 1.91979 0
M  V30 10451 O 982.748 -0.657822 2.6341 0
M  V30 10452 C 981.204 1.89424 3.06017 0
M  V30 10453 C 980.812 3.39885 2.9186 0
M  V30 10454 C 982.556 1.81684 3.83655 0
M  V30 10455 C 980.463 4.13082 4.23223 0
M  V30 10456 H 979.393 0.402603 0.637516 0
M  V30 10457 H 982.044 1.4897 1.07146 0
M  V30 10458 H 980.426 1.41823 3.69733 0
M  V30 10459 H 981.6 3.95108 2.37121 0
M  V30 10460 H 979.915 3.4864 2.27683 0
M  V30 10461 H 982.512 2.3367 4.80939 0
M  V30 10462 H 982.855 0.783247 4.08865 0
M  V30 10463 H 983.388 2.26997 3.26676 0
M  V30 10464 H 980.127 5.16824 4.03204 0
M  V30 10465 H 979.647 3.62644 4.77755 0
M  V30 10466 H 981.326 4.20397 4.91808 0
M  V30 10467 N 981.458 -1.16348 1.06306 0
M  V30 10468 C 982.869 -1.68491 0.80422 0
M  V30 10469 C 983.22 -1.84327 -0.672159 0
M  V30 10470 O 982.345 -1.53892 -1.52139 0
M  V30 10471 C 982.94 -3.06048 1.45328 0
M  V30 10472 C 981.499 -3.55311 1.24221 0
M  V30 10473 C 980.646 -2.31291 1.5297 0
M  V30 10474 H 983.597 -1.00708 1.22652 0
M  V30 10475 H 983.618 -3.70451 0.868674 0
M  V30 10476 H 983.13 -2.9449 2.52779 0
M  V30 10477 H 981.231 -3.72128 0.187447 0
M  V30 10478 H 981.344 -4.37397 1.95502 0
M  V30 10479 H 979.708 -2.3631 0.950241 0
M  V30 10480 H 980.491 -2.22331 2.6158 0
M  V30 10481 N 982.937 -0.845659 -1.3299 0
M  V30 10482 C 984.162 -0.457435 -2.02293 0
M  V30 10483 C 984.587 0.935634 -1.63179 0
M  V30 10484 O 983.945 1.61297 -0.827835 0
M  V30 10485 C 983.993 -0.593665 -3.5568 0
M  V30 10486 O 983.097 0.37729 -4.10671 0
M  V30 10487 H 982.438 -0.185022 -0.637701 0
M  V30 10488 H 984.968 -1.14237 -1.69738 0
M  V30 10489 H 984.978 -0.477834 -4.05192 0
M  V30 10490 H 983.653 -1.60957 -3.83491 0
M  V30 10491 H 982.23 0.218448 -3.7226 0
M  V30 10492 N 984.415 1.45619 -0.602734 0
M  V30 10493 C 985.348 2.27583 0.167708 0
M  V30 10494 C 986.326 1.36844 0.878206 0
M  V30 10495 O 987.51 1.6627 0.888058 0
M  V30 10496 C 984.637 3.15094 1.24232 0
M  V30 10497 C 983.683 4.21739 0.63549 0
M  V30 10498 S 984.516 5.32638 -0.552944 0
M  V30 10499 C 985.672 6.23716 0.522382 0
M  V30 10500 H 985.905 2.92579 -0.527697 0
M  V30 10501 H 983.438 1.4939 -0.390127 0
M  V30 10502 H 985.396 3.66071 1.85748 0
M  V30 10503 H 984.057 2.49372 1.90978 0
M  V30 10504 H 983.25 4.82874 1.44389 0
M  V30 10505 H 982.852 3.73878 0.0955772 0
M  V30 10506 H 985.144 6.62819 1.40276 0
M  V30 10507 H 986.087 7.0808 -0.0526951 0
M  V30 10508 H 986.495 5.58282 0.83553 0
M  V30 10509 N 985.893 0.34162 1.53853 0
M  V30 10510 C 986.843 -0.531995 2.21707 0
M  V30 10511 C 987.827 -1.06759 1.2038 0
M  V30 10512 O 989.019 -1.00161 1.45934 0
M  V30 10513 C 986.148 -1.6834 2.99193 0
M  V30 10514 C 985.234 -1.16184 4.07875 0
M  V30 10515 N 985.625 -0.361348 5.04508 0
M  V30 10516 C 983.923 -1.43891 4.22151 0
M  V30 10517 C 984.624 -0.0785378 5.81647 0
M  V30 10518 N 983.6 -0.669651 5.3946 0
M  V30 10519 H 987.402 0.0866825 2.93772 0
M  V30 10520 H 984.916 0.148386 1.61721 0
M  V30 10521 H 986.913 -2.32121 3.46303 0
M  V30 10522 H 985.573 -2.30538 2.28653 0
M  V30 10523 H 986.584 -0.00259906 5.179 0
M  V30 10524 H 983.261 -2.06542 3.62832 0
M  V30 10525 H 984.651 0.567068 6.69503 0
M  V30 10526 N 987.371 -1.57444 0.0701946 0
M  V30 10527 C 988.619 -1.93047 -0.598106 0
M  V30 10528 C 988.94 -0.950841 -1.70247 0
M  V30 10529 O 988.21 0.00127177 -1.959 0
M  V30 10530 H 986.79 -0.712648 -0.223924 0
M  V30 10531 H 989.452 -1.94481 0.127674 0
M  V30 10532 H 988.548 -2.94807 -1.02445 0
M  V30 10533 N 988.849 0.203349 -1.56283 0
M  V30 10534 C 990.097 0.923183 -1.79782 0
M  V30 10535 C 990.418 1.84134 -0.64185 0
M  V30 10536 O 989.688 1.92922 0.340292 0
M  V30 10537 H 988.268 0.343881 -0.66314 0
M  V30 10538 H 990.93 0.210837 -1.93756 0
M  V30 10539 H 990.026 1.51921 -2.72629 0
M  V30 10540 N 990.327 1.50405 0.470755 0
M  V30 10541 C 991.552 1.65442 1.25075 0
M  V30 10542 C 991.977 0.337612 1.85045 0
M  V30 10543 O 991.335 -0.698555 1.67302 0
M  V30 10544 C 991.383 2.74793 2.33498 0
M  V30 10545 O 990.487 2.36069 3.3815 0
M  V30 10546 H 989.828 0.552728 0.367951 0
M  V30 10547 H 992.358 1.96782 0.560177 0
M  V30 10548 H 992.368 2.97879 2.78804 0
M  V30 10549 H 991.043 3.70363 1.8922 0
M  V30 10550 H 989.62 2.2343 2.98552 0
M  V30 10551 N 991.805 -0.723954 1.39988 0
M  V30 10552 C 992.753 -1.85938 1.39749 0
M  V30 10553 C 993.747 -1.67085 0.279112 0
M  V30 10554 O 994.953 -1.74291 0.44972 0
M  V30 10555 H 991.328 -0.612246 0.436644 0
M  V30 10556 H 993.299 -1.83255 2.355 0
M  V30 10557 C 992.048 -3.23726 1.26874 0
M  V30 10558 H 991.371 -3.38835 2.12206 0
M  V30 10559 H 992.811 -4.03332 1.30765 0
M  V30 10560 C 991.27 -3.36893 -0.0218317 0
M  V30 10561 O 991.8 -3.89363 -0.987905 0
M  V30 10562 N 990.006 -2.90465 -0.0885618 0
M  V30 10563 H 989.553 -2.47954 0.698314 0
M  V30 10564 H 989.511 -2.99654 -0.951557 0
M  V30 10565 N 993.283 -1.25346 -0.955304 0
M  V30 10566 C 994.213 -1.08152 -2.06943 0
M  V30 10567 C 995.194 0.00922598 -1.70097 0
M  V30 10568 O 996.379 -0.160181 -1.93538 0
M  V30 10569 C 993.509 -0.698745 -3.40198 0
M  V30 10570 C 992.463 -1.73965 -3.9105 0
M  V30 10571 C 991.789 -1.21158 -5.20792 0
M  V30 10572 C 993.089 -3.13829 -4.17503 0
M  V30 10573 H 994.783 -2.01345 -2.21586 0
M  V30 10574 H 992.329 -0.969459 -1.06478 0
M  V30 10575 H 994.282 -0.565394 -4.1759 0
M  V30 10576 H 993.006 0.268892 -3.25491 0
M  V30 10577 H 991.665 -1.86143 -3.15827 0
M  V30 10578 H 991.313 -0.234193 -5.02455 0
M  V30 10579 H 991.013 -1.90728 -5.55785 0
M  V30 10580 H 992.537 -1.09061 -6.00781 0
M  V30 10581 H 993.951 -3.04809 -4.85556 0
M  V30 10582 H 992.348 -3.80863 -4.63749 0
M  V30 10583 H 993.418 -3.6094 -3.23806 0
M  V30 10584 N 994.761 1.15782 -1.06922 0
M  V30 10585 C 996.007 1.86975 -0.800747 0
M  V30 10586 C 996.362 1.80512 0.665818 0
M  V30 10587 O 995.655 1.21432 1.48205 0
M  V30 10588 C 995.849 3.35284 -1.2377 0
M  V30 10589 C 995.678 3.56186 -2.74521 0
M  V30 10590 C 994.448 3.71908 -3.42071 0
M  V30 10591 C 996.646 3.54373 -3.72725 0
M  V30 10592 N 994.628 3.80821 -4.81507 0
M  V30 10593 C 995.999 3.69347 -4.97978 0
M  V30 10594 C 998.054 3.37622 -3.65945 0
M  V30 10595 C 996.757 3.69302 -6.17259 0
M  V30 10596 C 998.783 3.38873 -4.84684 0
M  V30 10597 C 998.145 3.54373 -6.08769 0
M  V30 10598 H 994.244 0.701533 -0.345507 0
M  V30 10599 H 996.828 1.38875 -1.36462 0
M  V30 10600 H 994.999 3.82011 -0.701588 0
M  V30 10601 H 996.731 3.94169 -0.917235 0
M  V30 10602 H 993.486 3.72499 -2.92475 0
M  V30 10603 H 993.91 3.89031 -5.54061 0
M  V30 10604 H 998.552 3.24562 -2.7096 0
M  V30 10605 H 996.27 3.81142 -7.1257 0
M  V30 10606 H 999.856 3.27146 -4.8111 0
M  V30 10607 H 998.736 3.55268 -6.9911 0
M  V30 10608 N 996.239 0.8527 1.3254 0
M  V30 10609 C 997.487 0.454224 1.96929 0
M  V30 10610 C 997.808 -0.993034 1.67821 0
M  V30 10611 O 997.078 -1.69371 0.984393 0
M  V30 10612 H 995.658 0.164977 0.728554 0
M  V30 10613 H 998.32 1.0887 1.61658 0
M  V30 10614 H 997.416 0.597667 3.06324 0
M  V30 10615 N 997.718 -1.45297 0.610449 0
M  V30 10616 C 998.628 -2.34349 -0.108475 0
M  V30 10617 C 999.644 -1.51409 -0.857397 0
M  V30 10618 O 1000.82 -1.84202 -0.814337 0
M  V30 10619 C 997.885 -3.29072 -1.09144 0
M  V30 10620 C 996.946 -4.27918 -0.344165 0
M  V30 10621 C 996.179 -5.18116 -1.28031 0
M  V30 10622 O 996.402 -5.11802 -2.51824 0
M  V30 10623 O 995.336 -5.96879 -0.775821 0
M  V30 10624 H 999.162 -2.97232 0.623421 0
M  V30 10625 H 996.747 -1.44728 0.3707 0
M  V30 10626 H 998.629 -3.87433 -1.65751 0
M  V30 10627 H 997.304 -2.68749 -1.80431 0
M  V30 10628 H 996.211 -3.73164 0.264437 0
M  V30 10629 H 997.544 -4.91104 0.328275 0
M  V30 10630 N 999.196 -0.349774 -1.5367 0
M  V30 10631 C 1000.42 0.248692 -2.05904 0
M  V30 10632 C 1000.85 1.42942 -1.22267 0
M  V30 10633 O 1000.2 1.79732 -0.237899 0
M  V30 10634 C 1000.25 0.635639 -3.54953 0
M  V30 10635 O 999.356 1.7349 -3.74132 0
M  V30 10636 H 998.697 0.0399477 -0.662797 0
M  V30 10637 H 1001.23 -0.505795 -1.9825 0
M  V30 10638 H 1001.24 0.911064 -3.97698 0
M  V30 10639 H 999.912 -0.227805 -4.15276 0
M  V30 10640 H 998.489 1.45626 -3.43289 0
M  V30 10641 N 1000.67 1.57404 -0.0785433 0
M  V30 10642 C 1001.62 2.13104 0.88631 0
M  V30 10643 C 1002.59 1.04527 1.29086 0
M  V30 10644 O 1003.78 1.32226 1.37553 0
M  V30 10645 C 1000.92 2.70252 2.14611 0
M  V30 10646 C 1000.03 3.93007 1.79358 0
M  V30 10647 C 999.164 4.38376 3 0
M  V30 10648 C 998.203 5.53761 2.60796 0
M  V30 10649 N 997.34 5.94058 3.74219 0
M  V30 10650 H 1002.18 2.95243 0.404452 0
M  V30 10651 H 999.717 1.45894 0.187982 0
M  V30 10652 H 1001.67 3.01497 2.88367 0
M  V30 10653 H 1000.3 1.90868 2.60326 0
M  V30 10654 H 999.357 3.68181 0.956384 0
M  V30 10655 H 1000.67 4.76795 1.4652 0
M  V30 10656 H 999.823 4.71317 3.82027 0
M  V30 10657 H 998.562 3.53455 3.36037 0
M  V30 10658 H 997.567 5.20464 1.77192 0
M  V30 10659 H 998.792 6.40419 2.25922 0
M  V30 10660 H 996.738 5.12085 4.10005 0
M  V30 10661 H 996.655 6.72602 3.45171 0
M  V30 10662 H 997.923 6.31624 4.56805 0
M  V30 10663 N 1002.15 -0.195058 1.56388 0
M  V30 10664 C 1003.1 -1.24175 1.94549 0
M  V30 10665 C 1004.07 -1.45229 0.806089 0
M  V30 10666 O 1005.25 -1.58362 1.06425 0
M  V30 10667 C 1002.39 -2.58145 2.29031 0
M  V30 10668 C 1001.51 -2.44669 3.56035 0
M  V30 10669 C 1000.64 -3.71342 3.7984 0
M  V30 10670 C 999.681 -3.52699 5.0027 0
M  V30 10671 N 998.818 -4.71385 5.20328 0
M  V30 10672 H 1003.66 -0.909319 2.83788 0
M  V30 10673 H 1001.19 -0.437641 1.40439 0
M  V30 10674 H 1003.15 -3.36195 2.4704 0
M  V30 10675 H 1001.78 -2.8943 1.42933 0
M  V30 10676 H 1000.83 -1.57916 3.46073 0
M  V30 10677 H 1002.15 -2.26827 4.44242 0
M  V30 10678 H 1001.3 -4.57832 3.98088 0
M  V30 10679 H 1000.04 -3.92138 2.89964 0
M  V30 10680 H 999.045 -2.64594 4.81944 0
M  V30 10681 H 1000.27 -3.33349 5.91655 0
M  V30 10682 H 998.216 -4.92444 4.33399 0
M  V30 10683 H 998.133 -4.56368 6.02714 0
M  V30 10684 H 999.401 -5.59226 5.43035 0
M  V30 10685 N 1003.63 -1.50653 -0.462772 0
M  V30 10686 C 1005.05 -1.38263 -0.797213 0
M  V30 10687 C 1005.25 -0.445172 -1.96521 0
M  V30 10688 O 1004.3 0.10913 -2.52264 0
M  V30 10689 C 1005.61 -2.798 -1.10146 0
M  V30 10690 C 1007.16 -2.88774 -1.20742 0
M  V30 10691 C 1007.64 -4.31163 -1.54476 0
M  V30 10692 N 1009.13 -4.34152 -1.61451 0
M  V30 10693 C 1009.86 -5.4133 -1.89074 0
M  V30 10694 N 1009.36 -6.58705 -2.1466 0
M  V30 10695 N 1011.15 -5.28783 -1.90645 0
M  V30 10696 H 1003.3 -2.10172 0.30684 0
M  V30 10697 H 1005.57 -0.945046 0.0747862 0
M  V30 10698 H 1005.27 -3.50276 -0.316207 0
M  V30 10699 H 1005.15 -3.17559 -2.03559 0
M  V30 10700 H 1007.53 -2.18512 -1.98334 0
M  V30 10701 H 1007.61 -2.54547 -0.252904 0
M  V30 10702 H 1007.26 -5.01965 -0.774207 0
M  V30 10703 H 1007.19 -4.62883 -2.51092 0
M  V30 10704 H 1009.68 -3.49519 -1.43684 0
M  V30 10705 H 1009.99 -7.36192 -2.35035 0
M  V30 10706 H 1008.34 -6.61866 -2.12035 0
M  V30 10707 H 1011.53 -4.36078 -1.70158 0
M  V30 10708 H 1011.7 -6.12396 -2.11836 0
M  V30 10709 N 1005.11 0.71652 -1.4037 0
M  V30 10710 C 1006.52 1.02447 -1.22379 0
M  V30 10711 C 1006.72 2.0126 -0.0983394 0
M  V30 10712 O 1005.78 2.46569 0.544071 0
M  V30 10713 C 1007.09 1.56909 -2.56515 0
M  V30 10714 C 1008.64 1.68898 -2.6352 0
M  V30 10715 C 1009.12 2.26765 -3.97922 0
M  V30 10716 N 1010.61 2.34152 -3.99658 0
M  V30 10717 C 1011.34 2.79907 -5.00439 0
M  V30 10718 N 1010.84 3.25422 -6.11615 0
M  V30 10719 N 1012.63 2.79283 -4.87809 0
M  V30 10720 H 1004.78 0.0615306 -2.12311 0
M  V30 10721 H 1007.05 0.0898994 -0.943728 0
M  V30 10722 H 1006.75 0.917649 -3.39517 0
M  V30 10723 H 1006.63 2.55446 -2.77538 0
M  V30 10724 H 1009.01 2.33159 -1.8089 0
M  V30 10725 H 1009.09 0.689626 -2.46329 0
M  V30 10726 H 1008.74 1.63126 -4.80991 0
M  V30 10727 H 1008.67 3.27413 -4.12442 0
M  V30 10728 H 1011.16 2.02006 -3.19378 0
M  V30 10729 H 1011.47 3.58899 -6.84406 0
M  V30 10730 H 1009.82 3.23383 -6.15181 0
M  V30 10731 H 1013.01 2.43061 -4.00049 0
M  V30 10732 H 1013.18 3.14626 -5.66493 0
M  V30 10733 N 1006.59 1.25851 0.948643 0
M  V30 10734 C 1007.81 1.13813 1.73382 0
M  V30 10735 C 1008.24 -0.303615 1.85633 0
M  V30 10736 O 1007.59 -1.21997 1.34114 0
M  V30 10737 C 1007.64 1.80388 3.12238 0
M  V30 10738 O 1006.75 1.08759 3.978 0
M  V30 10739 H 1006.09 0.397006 0.532243 0
M  V30 10740 H 1008.62 1.66529 1.18866 0
M  V30 10741 H 1008.63 1.86913 3.62667 0
M  V30 10742 H 1007.3 2.85278 3.02637 0
M  V30 10743 H 1005.88 1.10157 3.56258 0
M  V30 10744 N 1008.06 -1.15214 1.07534 0
M  V30 10745 C 1009.01 -2.18022 0.667108 0
M  V30 10746 C 1010 -1.57911 -0.308714 0
M  V30 10747 O 1011.19 -1.76578 -0.122147 0
M  V30 10748 C 1008.32 -3.43232 0.0684348 0
M  V30 10749 C 1007.41 -4.10393 1.06951 0
M  V30 10750 N 1007.8 -4.53013 2.24973 0
M  V30 10751 C 1006.09 -4.36758 0.903262 0
M  V30 10752 C 1006.8 -5.05118 2.88498 0
M  V30 10753 N 1005.77 -4.98777 2.16153 0
M  V30 10754 H 1009.57 -2.48706 1.56597 0
M  V30 10755 H 1007.09 -1.31801 0.948796 0
M  V30 10756 H 1009.08 -4.16197 -0.241934 0
M  V30 10757 H 1007.74 -3.14031 -0.825525 0
M  V30 10758 H 1008.76 -4.4634 2.6268 0
M  V30 10759 H 1005.43 -4.17453 0.0623543 0
M  V30 10760 H 1006.82 -5.48039 3.8872 0
M  V30 10761 N 1009.54 -0.859717 -1.32086 0
M  V30 10762 C 1010.96 -0.55025 -1.49815 0
M  V30 10763 C 1011.16 0.917966 -1.79376 0
M  V30 10764 O 1010.21 1.70073 -1.86632 0
M  V30 10765 C 1011.53 -1.44161 -2.6389 0
M  V30 10766 C 1013.08 -1.44257 -2.77775 0
M  V30 10767 C 1013.55 -2.31926 -3.94936 0
M  V30 10768 N 1015.04 -2.2975 -4.02206 0
M  V30 10769 C 1015.78 -2.9431 -4.92107 0
M  V30 10770 N 1015.27 -3.68001 -5.86981 0
M  V30 10771 N 1017.07 -2.83671 -4.8527 0
M  V30 10772 H 1009.22 -1.80987 -1.11164 0
M  V30 10773 H 1011.48 -0.773313 -0.548353 0
M  V30 10774 H 1011.19 -2.48588 -2.4879 0
M  V30 10775 H 1011.06 -1.13268 -3.59792 0
M  V30 10776 H 1013.45 -0.405923 -2.92295 0
M  V30 10777 H 1013.53 -1.79169 -1.82571 0
M  V30 10778 H 1013.17 -3.35661 -3.81174 0
M  V30 10779 H 1013.1 -1.94344 -4.89426 0
M  V30 10780 H 1015.59 -1.76177 -3.3432 0
M  V30 10781 H 1015.91 -4.14417 -6.52287 0
M  V30 10782 H 1014.25 -3.72109 -5.86992 0
M  V30 10783 H 1017.44 -2.25647 -4.10123 0
M  V30 10784 H 1017.61 -3.34267 -5.5513 0
M  V30 10785 N 1011.02 1.44971 -0.618145 0
M  V30 10786 C 1012.44 1.57077 -0.282666 0
M  V30 10787 C 1012.64 1.60782 1.21456 0
M  V30 10788 O 1011.69 1.54382 1.99806 0
M  V30 10789 C 1013.01 2.84858 -0.963148 0
M  V30 10790 C 1014.55 2.9855 -0.940062 0
M  V30 10791 C 1015.03 4.29115 -1.60076 0
M  V30 10792 N 1016.52 4.35899 -1.56674 0
M  V30 10793 C 1017.25 5.35617 -2.04701 0
M  V30 10794 N 1016.75 6.41813 -2.6086 0
M  V30 10795 N 1018.54 5.27042 -1.95406 0
M  V30 10796 H 1010.69 1.4081 -1.59017 0
M  V30 10797 H 1012.96 0.673914 -0.666741 0
M  V30 10798 H 1012.66 2.88059 -2.0178 0
M  V30 10799 H 1012.54 3.73966 -0.492901 0
M  V30 10800 H 1014.92 2.94909 0.10607 0
M  V30 10801 H 1015.01 2.10825 -1.44868 0
M  V30 10802 H 1014.65 4.33514 -2.64627 0
M  V30 10803 H 1014.58 5.15675 -1.06708 0
M  V30 10804 H 1017.07 3.59766 -1.15659 0
M  V30 10805 H 1017.38 7.14166 -2.95273 0
M  V30 10806 H 1015.73 6.42534 -2.64905 0
M  V30 10807 H 1018.92 4.42987 -1.51263 0
M  V30 10808 H 1019.09 6.04604 -2.33147 0
M  V30 10809 N 1012.5 0.357919 1.53482 0
M  V30 10810 C 1013.75 -0.235241 2.00324 0
M  V30 10811 C 1014.06 -1.50494 1.24944 0
M  V30 10812 O 1015.27 -2.17623 1.62335 0
M  V30 10813 C 1013.72 -0.469748 3.56821 0
M  V30 10814 C 1013.33 0.784877 4.41071 0
M  V30 10815 C 1015.07 -1.02098 4.12039 0
M  V30 10816 C 1012.98 0.520377 5.89106 0
M  V30 10817 H 1011.91 -0.0916816 0.748405 0
M  V30 10818 H 1014.56 0.475474 1.77233 0
M  V30 10819 H 1012.94 -1.24153 3.76035 0
M  V30 10820 H 1014.12 1.55886 4.33631 0
M  V30 10821 H 1012.43 1.25878 3.96918 0
M  V30 10822 H 1015.03 -1.23406 5.20264 0
M  V30 10823 H 1015.37 -1.98084 3.66154 0
M  V30 10824 H 1015.91 -0.309554 3.96594 0
M  V30 10825 H 1012.65 1.45035 6.39254 0
M  V30 10826 H 1012.17 -0.215254 5.99414 0
M  V30 10827 H 1013.84 0.143006 6.46842 0
M  V30 10828 N 1013.98 -1.5736 0.0868897 0
M  V30 10829 C 1014.89 -2.17087 -0.889402 0
M  V30 10830 C 1015.9 -1.13809 -1.31619 0
M  V30 10831 O 1017.08 -1.46143 -1.38579 0
M  V30 10832 C 1014.14 -2.73286 -2.13344 0
M  V30 10833 C 1013.2 -3.91491 -1.76164 0
M  V30 10834 C 1012.44 -4.45 -2.94637 0
M  V30 10835 O 1012.66 -3.97467 -4.09116 0
M  V30 10836 O 1011.59 -5.36133 -2.73579 0
M  V30 10837 H 1015.42 -3.00902 -0.411275 0
M  V30 10838 H 1013.01 -1.4877 -0.137015 0
M  V30 10839 H 1014.89 -3.0924 -2.86266 0
M  V30 10840 H 1013.56 -1.92521 -2.60225 0
M  V30 10841 H 1012.47 -3.60363 -1.00447 0
M  V30 10842 H 1013.8 -4.73593 -1.34053 0
M  V30 10843 N 1015.45 0.186762 -1.56489 0
M  V30 10844 C 1016.4 1.23141 -1.95205 0
M  V30 10845 C 1017.37 1.44799 -0.81378 0
M  V30 10846 O 1018.56 1.57795 -1.07263 0
M  V30 10847 C 1015.7 2.56926 -2.30397 0
M  V30 10848 C 1014.81 2.42777 -3.57328 0
M  V30 10849 C 1013.94 3.69323 -3.81804 0
M  V30 10850 C 1012.98 3.50041 -5.02133 0
M  V30 10851 N 1012.12 4.68619 -5.2282 0
M  V30 10852 H 1016.96 0.894256 -2.84266 0
M  V30 10853 H 1014.5 0.430187 -1.40669 0
M  V30 10854 H 1016.46 3.3488 -2.4882 0
M  V30 10855 H 1015.09 2.88668 -1.44466 0
M  V30 10856 H 1014.14 1.56078 -3.46906 0
M  V30 10857 H 1015.45 2.24468 -4.45439 0
M  V30 10858 H 1014.6 4.55715 -4.00511 0
M  V30 10859 H 1013.34 3.90595 -2.92039 0
M  V30 10860 H 1012.35 2.62034 -4.8334 0
M  V30 10861 H 1013.57 3.30206 -5.93414 0
M  V30 10862 H 1011.52 4.90139 -4.36005 0
M  V30 10863 H 1011.44 4.53165 -6.05126 0
M  V30 10864 H 1012.7 5.56338 -5.45993 0
M  V30 10865 N 1016.93 1.50896 0.454776 0
M  V30 10866 C 1017.88 1.70947 1.55067 0
M  V30 10867 C 1018.85 0.550899 1.56698 0
M  V30 10868 O 1020.03 0.783352 1.73978 0
M  V30 10869 C 1017.17 1.82455 2.92924 0
M  V30 10870 C 1016.29 3.09919 3.00956 0
M  V30 10871 C 1015.42 3.12125 4.29827 0
M  V30 10872 C 1014.46 4.33975 4.31662 0
M  V30 10873 N 1013.6 4.33828 5.5203 0
M  V30 10874 H 1018.44 2.645 1.37273 0
M  V30 10875 H 1015.98 1.31101 0.667148 0
M  V30 10876 H 1017.93 1.87108 3.72889 0
M  V30 10877 H 1016.56 0.92327 3.09315 0
M  V30 10878 H 1015.62 3.14659 2.13761 0
M  V30 10879 H 1016.93 3.99869 2.98172 0
M  V30 10880 H 1016.08 3.15598 5.18154 0
M  V30 10881 H 1014.82 2.20033 4.35243 0
M  V30 10882 H 1013.83 4.30697 3.41731 0
M  V30 10883 H 1015.05 5.27312 4.27924 0
M  V30 10884 H 1013 3.44598 5.58201 0
M  V30 10885 H 1012.91 5.17566 5.51055 0
M  V30 10886 H 1014.18 4.4147 6.42437 0
M  V30 10887 N 1018.41 -0.709066 1.40748 0
M  V30 10888 C 1019.66 -1.46611 1.39103 0
M  V30 10889 C 1019.98 -1.95 -0.00365366 0
M  V30 10890 O 1019.25 -1.70791 -0.959541 0
M  V30 10891 H 1017.83 -0.543954 0.511979 0
M  V30 10892 H 1020.49 -0.840141 1.75863 0
M  V30 10893 H 1019.59 -2.33581 2.06994 0
M  V30 10894 N 1019.89 -1.26353 -0.941956 0
M  V30 10895 C 1021.11 -1.14731 -1.72776 0
M  V30 10896 C 1021.54 0.293766 -1.85792 0
M  V30 10897 O 1020.9 1.21284 -1.34759 0
M  V30 10898 C 1020.95 -1.82041 -3.11277 0
M  V30 10899 O 1020.05 -1.10867 -3.97218 0
M  V30 10900 H 1019.39 -0.399823 -0.53013 0
M  V30 10901 H 1021.92 -1.67157 -1.17981 0
M  V30 10902 H 1021.93 -1.88834 -3.61671 0
M  V30 10903 H 1020.61 -2.86879 -3.0112 0
M  V30 10904 H 1019.18 -1.12044 -3.55669 0
M  V30 10905 N 1021.37 1.14642 -1.08144 0
M  V30 10906 C 1022.64 1.81774 -0.72232 0
M  V30 10907 C 1023.02 1.95587 0.794294 0
M  V30 10908 O 1022.37 1.51361 1.71178 0
M  V30 10909 C 1022.58 3.1763 -1.44611 0
M  V30 10910 C 1023.93 3.93161 -1.60343 0
M  V30 10911 O 1024.95 3.2721 -1.40755 0
M  V30 10912 O 1023.81 5.11422 -1.9264 0
M  V30 10913 H 1020.91 0.785733 -0.257978 0
M  V30 10914 H 1023.45 1.21683 -1.18285 0
M  V30 10915 H 1022.23 3.02723 -2.4794 0
M  V30 10916 H 1021.85 3.85412 -0.976892 0
M  V30 10917 N 1022.85 0.866709 1.31628 0
M  V30 10918 C 1023.79 0.318169 2.28596 0
M  V30 10919 C 1024.76 -0.581558 1.55586 0
M  V30 10920 O 1025.95 -0.513895 1.83749 0
M  V30 10921 C 1023.09 -0.477137 3.41786 0
M  V30 10922 C 1022.2 0.449739 4.29653 0
M  V30 10923 C 1021.34 -0.359373 5.29983 0
M  V30 10924 C 1020.37 0.564138 6.09495 0
M  V30 10925 N 1019.51 -0.208526 7.0179 0
M  V30 10926 H 1024.35 1.15029 2.74904 0
M  V30 10927 H 1021.89 0.578649 1.35241 0
M  V30 10928 H 1023.85 -0.953985 4.06146 0
M  V30 10929 H 1022.48 -1.27398 2.96597 0
M  V30 10930 H 1021.53 1.04502 3.65764 0
M  V30 10931 H 1022.84 1.158 4.85172 0
M  V30 10932 H 1021.99 -0.89887 6.00004 0
M  V30 10933 H 1020.73 -1.10094 4.75111 0
M  V30 10934 H 1019.74 1.11542 5.38366 0
M  V30 10935 H 1020.96 1.30451 6.66453 0
M  V30 10936 H 1018.91 -0.932969 6.49332 0
M  V30 10937 H 1018.83 0.440463 7.54716 0
M  V30 10938 H 1020.09 -0.72936 7.7608 0
M  V30 10939 N 1024.32 -1.44642 0.625825 0
M  V30 10940 C 1025.74 -1.56925 0.290992 0
M  V30 10941 C 1025.94 -1.61424 -1.20601 0
M  V30 10942 O 1025 -1.55439 -1.98985 0
M  V30 10943 C 1026.31 -2.84343 0.978242 0
M  V30 10944 C 1027.86 -2.98047 0.955882 0
M  V30 10945 C 1028.33 -4.2826 1.62349 0
M  V30 10946 N 1029.82 -4.35062 1.58983 0
M  V30 10947 C 1030.56 -5.34524 2.07538 0
M  V30 10948 N 1030.05 -6.4042 2.6426 0
M  V30 10949 N 1031.85 -5.25998 1.98198 0
M  V30 10950 H 1024 -1.39965 1.59761 0
M  V30 10951 H 1026.26 -0.670368 0.670306 0
M  V30 10952 H 1025.97 -2.86985 2.03304 0
M  V30 10953 H 1025.84 -3.73699 0.512726 0
M  V30 10954 H 1028.23 -2.94961 -0.0904292 0
M  V30 10955 H 1028.31 -2.10053 1.45984 0
M  V30 10956 H 1027.95 -4.32105 2.66923 0
M  V30 10957 H 1027.88 -5.15102 1.09441 0
M  V30 10958 H 1030.37 -3.59147 1.17565 0
M  V30 10959 H 1030.69 -7.1259 2.99056 0
M  V30 10960 H 1029.03 -6.41121 2.68308 0
M  V30 10961 H 1032.22 -4.42178 1.5361 0
M  V30 10962 H 1032.4 -6.03359 2.3635 0
M  V30 10963 N 1025.8 -0.366053 -1.5329 0
M  V30 10964 C 1027.03 0.224236 -2.05681 0
M  V30 10965 C 1027.44 1.42412 -1.23952 0
M  V30 10966 O 1026.8 1.80334 -0.280309 0
M  V30 10967 C 1026.85 0.617266 -3.56191 0
M  V30 10968 O 1026.57 -0.534931 -4.34822 0
M  V30 10969 C 1028.07 1.26589 -4.24841 0
M  V30 10970 H 1025.29 0.0392928 -0.669849 0
M  V30 10971 H 1027.84 -0.52456 -1.97658 0
M  V30 10972 H 1025.99 1.31598 -3.64364 0
M  V30 10973 H 1026.41 -0.217123 -5.2405 0
M  V30 10974 H 1027.88 1.49146 -5.31469 0
M  V30 10975 H 1028.36 2.22633 -3.78591 0
M  V30 10976 H 1028.96 0.6086 -4.20923 0
M  V30 10977 N 1027.28 1.57312 -0.0952337 0
M  V30 10978 C 1028.51 1.98697 0.57682 0
M  V30 10979 C 1028.92 0.974347 1.61716 0
M  V30 10980 O 1028.28 -0.036022 1.82464 0
M  V30 10981 C 1028.33 3.40133 1.2244 0
M  V30 10982 O 1028.05 4.37518 0.225678 0
M  V30 10983 C 1029.55 3.96522 1.98205 0
M  V30 10984 H 1026.77 0.65294 0.154629 0
M  V30 10985 H 1029.32 2.03754 -0.174562 0
M  V30 10986 H 1027.47 3.3609 1.92671 0
M  V30 10987 H 1027.89 5.199 0.693116 0
M  V30 10988 H 1029.36 4.97637 2.38875 0
M  V30 10989 H 1029.84 3.34347 2.84796 0
M  V30 10990 H 1030.44 4.04038 1.3279 0
M  V30 10991 N 1028.76 -0.17846 1.56586 0
M  V30 10992 C 1030 -0.897562 1.81856 0
M  V30 10993 C 1030.34 -1.82204 0.671955 0
M  V30 10994 O 1029.61 -1.91739 -0.326535 0
M  V30 10995 C 1029.89 -1.69942 3.17477 0
M  V30 10996 C 1029.75 -0.798545 4.42655 0
M  V30 10997 C 1031.07 -2.66861 3.49962 0
M  V30 10998 H 1028.19 -0.324863 0.661539 0
M  V30 10999 H 1030.83 -0.164106 1.8929 0
M  V30 11000 H 1028.98 -2.32471 3.11271 0
M  V30 11001 H 1030.65 -0.18668 4.60922 0
M  V30 11002 H 1028.89 -0.106181 4.3367 0
M  V30 11003 H 1029.56 -1.39496 5.34083 0
M  V30 11004 H 1032.04 -2.1446 3.56576 0
M  V30 11005 H 1030.92 -3.20037 4.45946 0
M  V30 11006 H 1031.18 -3.46715 2.74301 0
M  V30 11007 N 1030.24 -1.51135 -0.446768 0
M  V30 11008 C 1031.46 -1.67129 -1.21965 0
M  V30 11009 C 1031.88 -0.36467 -1.85245 0
M  V30 11010 O 1031.24 0.655908 -1.70306 0
M  V30 11011 C 1031.29 -2.78016 -2.31061 0
M  V30 11012 O 1031.01 -4.03615 -1.70371 0
M  V30 11013 C 1032.51 -3.05197 -3.21511 0
M  V30 11014 H 1029.73 -0.561111 -0.367961 0
M  V30 11015 H 1032.27 -1.97499 -0.530517 0
M  V30 11016 H 1030.43 -2.50272 -2.95707 0
M  V30 11017 H 1030.84 -4.65126 -2.424 0
M  V30 11018 H 1032.32 -3.8639 -3.94216 0
M  V30 11019 H 1032.79 -2.17228 -3.81718 0
M  V30 11020 H 1033.4 -3.34565 -2.62577 0
M  V30 11021 N 1031.71 0.701592 -1.41122 0
M  V30 11022 C 1032.99 1.45569 -1.30648 0
M  V30 11023 C 1033.37 2.10988 0.068744 0
M  V30 11024 O 1032.72 2.01228 1.08257 0
M  V30 11025 C 1032.93 2.48003 -2.45551 0
M  V30 11026 C 1034.28 3.13431 -2.86437 0
M  V30 11027 O 1035.3 2.58327 -2.45247 0
M  V30 11028 O 1034.16 4.13221 -3.57646 0
M  V30 11029 H 1031.25 0.648 -0.513834 0
M  V30 11030 H 1033.8 0.73258 -1.53073 0
M  V30 11031 H 1032.57 1.98276 -3.37346 0
M  V30 11032 H 1032.19 3.27832 -2.24971 0
M  V30 11033 N 1033.19 1.2685 0.935242 0
M  V30 11034 C 1034.15 1.08975 2.01636 0
M  V30 11035 C 1035.15 0.0361543 1.60759 0
M  V30 11036 O 1036.34 0.280087 1.71934 0
M  V30 11037 C 1033.48 0.658831 3.34473 0
M  V30 11038 H 1034.67 2.04968 2.18925 0
M  V30 11039 H 1032.22 1.09531 1.11501 0
M  V30 11040 H 1032.96 -0.302824 3.22883 0
M  V30 11041 H 1032.74 1.41967 3.65497 0
M  V30 11042 H 1034.23 0.555783 4.13885 0
M  V30 11043 N 1034.67 -1.14067 1.0875 0
M  V30 11044 C 1035.62 -2.19261 0.720633 0
M  V30 11045 C 1036.59 -1.63462 -0.294847 0
M  V30 11046 O 1037.77 -1.89967 -0.178058 0
M  V30 11047 C 1034.91 -3.44816 0.139873 0
M  V30 11048 C 1034.03 -4.1475 1.20856 0
M  V30 11049 C 1033.16 -5.27899 0.591285 0
M  V30 11050 C 1032.2 -5.89672 1.64176 0
M  V30 11051 N 1031.34 -6.94264 1.04603 0
M  V30 11052 H 1036.18 -2.49991 1.62198 0
M  V30 11053 H 1033.71 -1.22757 0.810497 0
M  V30 11054 H 1035.67 -4.16648 -0.214587 0
M  V30 11055 H 1034.3 -3.14558 -0.724774 0
M  V30 11056 H 1033.35 -3.41272 1.6804 0
M  V30 11057 H 1034.67 -4.56753 2.00446 0
M  V30 11058 H 1033.82 -6.06417 0.185271 0
M  V30 11059 H 1032.56 -4.87128 -0.236236 0
M  V30 11060 H 1031.56 -5.09854 2.05739 0
M  V30 11061 H 1032.79 -6.32517 2.47182 0
M  V30 11062 H 1030.73 -6.55562 0.239664 0
M  V30 11063 H 1030.65 -7.34771 1.77898 0
M  V30 11064 H 1031.92 -7.7665 0.665989 0
M  V30 11065 N 1036.15 -0.873678 -1.31166 0
M  V30 11066 C 1037.06 -0.335726 -2.32185 0
M  V30 11067 C 1038.07 0.556259 -1.64869 0
M  V30 11068 O 1039.25 0.452087 -1.9626 0
M  V30 11069 C 1036.32 0.450822 -3.43756 0
M  V30 11070 C 1035.38 -0.469565 -4.26724 0
M  V30 11071 C 1034.61 0.279538 -5.32967 0
M  V30 11072 O 1034.83 1.50715 -5.50128 0
M  V30 11073 O 1033.77 -0.36452 -6.00795 0
M  V30 11074 H 1037.59 -1.17314 -2.80127 0
M  V30 11075 H 1035.18 -0.637163 -1.35132 0
M  V30 11076 H 1037.06 0.896582 -4.11752 0
M  V30 11077 H 1035.73 1.26472 -2.9797 0
M  V30 11078 H 1034.64 -0.963902 -3.61469 0
M  V30 11079 H 1035.97 -1.24916 -4.76085 0
M  V30 11080 N 1037.63 1.44308 -0.633487 0
M  V30 11081 C 1038.56 2.33431 0.0568402 0
M  V30 11082 C 1039.54 1.48342 0.832386 0
M  V30 11083 O 1040.72 1.77056 0.797798 0
M  V30 11084 C 1037.85 3.31443 1.03743 0
M  V30 11085 C 1036.81 4.26368 0.373362 0
M  V30 11086 C 1036.13 5.14267 1.46403 0
M  V30 11087 C 1037.43 5.17287 -0.721876 0
M  V30 11088 H 1039.13 2.91402 -0.687388 0
M  V30 11089 H 1036.67 1.4012 -0.332009 0
M  V30 11090 H 1038.63 3.92677 1.52913 0
M  V30 11091 H 1037.35 2.71686 1.81258 0
M  V30 11092 H 1036.01 3.6647 -0.0977053 0
M  V30 11093 H 1035.66 4.50861 2.23011 0
M  V30 11094 H 1035.36 5.7859 1.02506 0
M  V30 11095 H 1036.88 5.78373 1.95748 0
M  V30 11096 H 1038.29 5.72444 -0.313181 0
M  V30 11097 H 1036.69 5.90226 -1.08413 0
M  V30 11098 H 1037.76 4.58159 -1.58804 0
M  V30 11099 N 1039.1 0.374177 1.53094 0
M  V30 11100 C 1040.05 -0.468226 2.26001 0
M  V30 11101 C 1041.02 -1.07041 1.27009 0
M  V30 11102 O 1042.21 -1.10129 1.55809 0
M  V30 11103 C 1039.35 -1.59754 3.05896 0
M  V30 11104 C 1038.46 -1.01969 4.19793 0
M  V30 11105 C 1037.59 -2.11882 4.87113 0
M  V30 11106 C 1036.63 -1.51607 5.93028 0
M  V30 11107 N 1035.77 -2.55388 6.54004 0
M  V30 11108 H 1040.61 0.159983 2.9757 0
M  V30 11109 H 1038.15 0.0907196 1.4682 0
M  V30 11110 H 1040.11 -2.26288 3.50499 0
M  V30 11111 H 1038.74 -2.19628 2.36565 0
M  V30 11112 H 1037.79 -0.244386 3.79614 0
M  V30 11113 H 1039.1 -0.539089 4.95878 0
M  V30 11114 H 1038.25 -2.86218 5.34943 0
M  V30 11115 H 1036.99 -2.63297 4.10519 0
M  V30 11116 H 1036 -0.757891 5.44551 0
M  V30 11117 H 1037.22 -1.01006 6.71546 0
M  V30 11118 H 1035.17 -3.06 5.80258 0
M  V30 11119 H 1035.09 -2.12039 7.25655 0
M  V30 11120 H 1036.35 -3.294 7.06481 0
M  V30 11121 N 1040.58 -1.57259 0.103575 0
M  V30 11122 C 1041.83 -1.94657 -0.558126 0
M  V30 11123 C 1042.16 -0.985886 -1.67662 0
M  V30 11124 O 1041.41 -0.0069745 -1.95699 0
M  V30 11125 C 1041.71 -3.38549 -1.14538 0
M  V30 11126 C 1041.38 -4.50651 -0.149818 0
M  V30 11127 C 1040.04 -4.8104 0.12398 0
M  V30 11128 C 1042.39 -5.18503 0.529497 0
M  V30 11129 C 1039.72 -5.76606 1.08364 0
M  V30 11130 C 1042.07 -6.15099 1.47769 0
M  V30 11131 C 1040.74 -6.43889 1.75963 0
M  V30 11132 H 1040.01 -0.712299 -0.204233 0
M  V30 11133 H 1042.65 -1.90641 0.181208 0
M  V30 11134 H 1040.96 -3.39185 -1.96115 0
M  V30 11135 H 1042.65 -3.6479 -1.66521 0
M  V30 11136 H 1039.24 -4.2697 -0.373404 0
M  V30 11137 H 1043.43 -4.95194 0.331121 0
M  V30 11138 H 1038.68 -5.97223 1.30899 0
M  V30 11139 H 1042.86 -6.66767 2.00983 0
M  V30 11140 H 1040.49 -7.17749 2.50481 0
M  V30 11141 N 1042.06 0.170153 -1.56679 0
M  V30 11142 C 1043.02 1.19443 -1.95617 0
M  V30 11143 C 1044.02 1.37118 -0.83996 0
M  V30 11144 O 1045.21 1.34504 -1.10699 0
M  V30 11145 C 1042.35 2.55926 -2.25199 0
M  V30 11146 H 1043.54 0.86095 -2.87276 0
M  V30 11147 H 1041.09 0.412646 -1.50755 0
M  V30 11148 H 1041.83 2.94286 -1.36257 0
M  V30 11149 H 1041.61 2.44464 -3.06562 0
M  V30 11150 H 1043.1 3.29742 -2.56242 0
M  V30 11151 N 1043.54 1.5137 0.438746 0
M  V30 11152 C 1044.76 1.68058 1.21537 0
M  V30 11153 C 1045.19 0.376787 1.84288 0
M  V30 11154 O 1044.55 -0.662911 1.68746 0
M  V30 11155 C 1044.59 2.79684 2.27616 0
M  V30 11156 O 1043.7 2.43189 3.33066 0
M  V30 11157 H 1043.04 0.560408 0.356144 0
M  V30 11158 H 1045.57 1.97926 0.518311 0
M  V30 11159 H 1045.58 3.03726 2.72423 0
M  V30 11160 H 1044.25 3.74293 1.81321 0
M  V30 11161 H 1042.83 2.29713 2.93746 0
M  V30 11162 N 1045.02 -0.694098 1.41492 0
M  V30 11163 C 1045.95 -1.81943 1.39389 0
M  V30 11164 C 1046.96 -1.6009 0.295836 0
M  V30 11165 O 1048.15 -1.69565 0.557658 0
M  V30 11166 C 1045.25 -3.18731 1.15167 0
M  V30 11167 C 1044.42 -3.67601 2.37041 0
M  V30 11168 C 1043.48 -4.83063 2.08654 0
M  V30 11169 O 1042.51 -4.94603 2.81704 0
M  V30 11170 N 1043.71 -5.70409 1.0777 0
M  V30 11171 H 1046.48 -1.84239 2.36381 0
M  V30 11172 H 1044.04 -0.876475 1.36123 0
M  V30 11173 H 1046.03 -3.93602 0.941264 0
M  V30 11174 H 1044.6 -3.11452 0.267673 0
M  V30 11175 H 1043.82 -2.83622 2.73774 0
M  V30 11176 H 1045.11 -3.96991 3.18239 0
M  V30 11177 H 1044.5 -5.63718 0.473123 0
M  V30 11178 H 1043.06 -6.45172 0.927177 0
M  V30 11179 N 1046.49 -1.27344 -0.928501 0
M  V30 11180 C 1047.77 -1.04362 -1.65433 0
M  V30 11181 C 1048.15 0.421896 -2.06841 0
M  V30 11182 O 1047.5 1.40496 -1.80203 0
M  V30 11183 C 1047.71 -2.00442 -2.85699 0
M  V30 11184 C 1049.06 -2.29767 -3.57061 0
M  V30 11185 O 1050.08 -1.98409 -2.95825 0
M  V30 11186 O 1048.94 -2.83217 -4.67387 0
M  V30 11187 H 1046.03 -0.397783 -0.72505 0
M  V30 11188 H 1048.58 -1.38606 -0.979109 0
M  V30 11189 H 1047.35 -2.99281 -2.52085 0
M  V30 11190 H 1046.98 -1.66755 -3.60941 0
M  V30 11191 N 1047.97 1.13488 -1.09353 0
M  V30 11192 C 1048.9 2.20988 -0.75409 0
M  V30 11193 C 1049.88 1.67977 0.267901 0
M  V30 11194 O 1051.07 1.93722 0.136128 0
M  V30 11195 C 1048.2 3.46869 -0.173042 0
M  V30 11196 C 1047.15 4.12965 -1.12446 0
M  V30 11197 C 1046.48 5.33163 -0.405157 0
M  V30 11198 C 1047.78 4.60388 -2.46658 0
M  V30 11199 H 1049.47 2.49639 -1.6529 0
M  V30 11200 H 1047.02 1.19987 -0.796182 0
M  V30 11201 H 1048.97 4.21331 0.0764988 0
M  V30 11202 H 1047.7 3.17611 0.760956 0
M  V30 11203 H 1046.35 3.40469 -1.35927 0
M  V30 11204 H 1046 5.00169 0.532955 0
M  V30 11205 H 1045.7 5.78332 -1.03952 0
M  V30 11206 H 1047.23 6.1038 -0.163899 0
M  V30 11207 H 1048.64 5.26276 -2.27389 0
M  V30 11208 H 1047.04 5.16294 -3.05876 0
M  V30 11209 H 1048.11 3.74949 -3.07476 0
M  V30 11210 N 1049.45 0.880621 1.30701 0
M  V30 11211 C 1050.68 0.510909 2.01009 0
M  V30 11212 C 1051.1 -0.892041 1.65603 0
M  V30 11213 O 1050.46 -1.59045 0.870309 0
M  V30 11214 C 1050.51 0.687759 3.53981 0
M  V30 11215 O 1049.61 -0.268275 4.11526 0
M  V30 11216 H 1048.95 0.201864 0.632572 0
M  V30 11217 H 1051.48 1.18697 1.6665 0
M  V30 11218 H 1051.49 0.585095 4.03783 0
M  V30 11219 H 1050.17 1.71068 3.79089 0
M  V30 11220 H 1048.74 -0.119673 3.72708 0
M  V30 11221 N 1050.93 -1.4397 0.641131 0
M  V30 11222 C 1052.21 -1.95436 0.0800918 0
M  V30 11223 C 1052.59 -1.58282 -1.39678 0
M  V30 11224 O 1051.93 -0.861867 -2.11623 0
M  V30 11225 C 1052.14 -3.47589 0.313531 0
M  V30 11226 C 1053.49 -4.2407 0.212034 0
M  V30 11227 O 1054.52 -3.55353 0.245434 0
M  V30 11228 O 1053.38 -5.46356 0.125455 0
M  V30 11229 H 1050.47 -0.826834 -0.0165735 0
M  V30 11230 H 1053.02 -1.5397 0.71353 0
M  V30 11231 H 1051.79 -3.67716 1.33793 0
M  V30 11232 H 1051.41 -3.96025 -0.353563 0
M  V30 11233 N 1052.41 -0.382291 -1.52893 0
M  V30 11234 C 1053.34 0.491199 -2.23875 0
M  V30 11235 C 1054.35 1.03249 -1.25871 0
M  V30 11236 O 1055.54 0.936016 -1.5199 0
M  V30 11237 C 1052.64 1.6927 -2.936 0
M  V30 11238 C 1051.81 1.28 -4.18252 0
M  V30 11239 C 1050.87 2.34541 -4.71038 0
M  V30 11240 O 1049.9 1.96239 -5.34302 0
M  V30 11241 N 1051.1 3.6636 -4.50289 0
M  V30 11242 H 1053.87 -0.116897 -2.99472 0
M  V30 11243 H 1051.43 -0.208296 -1.60554 0
M  V30 11244 H 1053.42 2.40054 -3.25816 0
M  V30 11245 H 1051.99 2.20729 -2.21354 0
M  V30 11246 H 1051.21 0.40133 -3.92152 0
M  V30 11247 H 1052.5 0.98082 -4.99257 0
M  V30 11248 H 1051.9 4.00245 -3.99775 0
M  V30 11249 H 1050.45 4.332 -4.87013 0
M  V30 11250 N 1053.89 1.57202 -0.111913 0
M  V30 11251 C 1054.82 2.17957 0.837683 0
M  V30 11252 C 1055.8 1.1176 1.28233 0
M  V30 11253 O 1056.98 1.39967 1.34621 0
M  V30 11254 C 1054.11 2.77333 2.09054 0
M  V30 11255 C 1053.07 3.8905 1.78393 0
M  V30 11256 C 1052.39 4.35203 3.10649 0
M  V30 11257 C 1053.69 5.11477 1.05775 0
M  V30 11258 H 1055.39 2.9756 0.331441 0
M  V30 11259 H 1052.93 1.43131 0.157979 0
M  V30 11260 H 1054.88 3.18492 2.75936 0
M  V30 11261 H 1053.61 1.95009 2.6199 0
M  V30 11262 H 1052.27 3.48456 1.13903 0
M  V30 11263 H 1051.92 3.49747 3.61506 0
M  V30 11264 H 1051.62 5.10534 2.9091 0
M  V30 11265 H 1053.14 4.79007 3.78661 0
M  V30 11266 H 1054.55 5.497 1.62798 0
M  V30 11267 H 1052.95 5.92346 0.961573 0
M  V30 11268 H 1054.02 4.84881 0.043297 0
M  V30 11269 N 1055.36 -0.161842 1.56767 0
M  V30 11270 C 1056.29 -1.20226 2.0017 0
M  V30 11271 C 1057.27 -1.4564 0.878807 0
M  V30 11272 O 1058.46 -1.56813 1.14557 0
M  V30 11273 C 1055.59 -2.53897 2.36968 0
M  V30 11274 C 1054.54 -2.43033 3.52305 0
M  V30 11275 C 1053.87 -3.81281 3.74872 0
M  V30 11276 C 1055.17 -1.927 4.85453 0
M  V30 11277 H 1056.86 -0.84142 2.87333 0
M  V30 11278 H 1054.41 -0.403309 1.38237 0
M  V30 11279 H 1056.36 -3.26893 2.6593 0
M  V30 11280 H 1055.09 -2.91787 1.46724 0
M  V30 11281 H 1053.75 -1.7249 3.23485 0
M  V30 11282 H 1053.39 -4.1658 2.81904 0
M  V30 11283 H 1053.09 -3.74877 4.52483 0
M  V30 11284 H 1054.62 -4.55848 4.06245 0
M  V30 11285 H 1056.03 -2.55477 5.13229 0
M  V30 11286 H 1054.43 -1.97222 5.66766 0
M  V30 11287 H 1055.5 -0.881816 4.76814 0
M  V30 11288 N 1056.84 -1.516 -0.430713 0
M  V30 11289 C 1057.75 -1.76247 -1.54836 0
M  V30 11290 C 1058.77 -0.646985 -1.61524 0
M  V30 11291 O 1059.94 -0.929987 -1.78643 0
M  V30 11292 C 1057.01 -1.88833 -2.90763 0
M  V30 11293 C 1056.07 -3.12701 -2.94137 0
M  V30 11294 C 1055.3 -3.24676 -4.23581 0
M  V30 11295 O 1055.53 -2.42429 -5.16318 0
M  V30 11296 O 1054.46 -4.17697 -4.33374 0
M  V30 11297 H 1058.29 -2.71069 -1.3695 0
M  V30 11298 H 1055.87 -1.36182 -0.614396 0
M  V30 11299 H 1057.75 -1.99057 -3.71422 0
M  V30 11300 H 1056.43 -0.971987 -3.08762 0
M  V30 11301 H 1055.33 -3.0795 -2.1241 0
M  V30 11302 H 1056.67 -4.04045 -2.81084 0
M  V30 11303 N 1058.32 0.686584 -1.41858 0
M  V30 11304 C 1059.57 1.44879 -1.41908 0
M  V30 11305 C 1059.9 1.94175 -0.0311408 0
M  V30 11306 O 1059.17 1.70131 0.942646 0
M  V30 11307 C 1059.46 2.65428 -2.43352 0
M  V30 11308 C 1059.31 2.2184 -3.91289 0
M  V30 11309 C 1060.63 3.67635 -2.41934 0
M  V30 11310 H 1057.75 0.525477 -0.516762 0
M  V30 11311 H 1060.39 0.781263 -1.73194 0
M  V30 11312 H 1058.54 3.2238 -2.16803 0
M  V30 11313 H 1060.21 1.70146 -4.28775 0
M  V30 11314 H 1058.45 1.53531 -4.05722 0
M  V30 11315 H 1059.13 3.08376 -4.5783 0
M  V30 11316 H 1061.6 3.20376 -2.65516 0
M  V30 11317 H 1060.48 4.49579 -3.14913 0
M  V30 11318 H 1060.74 4.17953 -1.44111 0
M  V30 11319 N 1059.8 1.27835 0.921735 0
M  V30 11320 C 1061.04 1.14692 1.67253 0
M  V30 11321 C 1061.38 -0.305384 1.91784 0
M  V30 11322 O 1060.65 -1.22286 1.51249 0
M  V30 11323 C 1060.93 1.93743 3.03539 0
M  V30 11324 C 1060.79 3.46991 2.86212 0
M  V30 11325 C 1062.11 1.74658 4.03959 0
M  V30 11326 H 1059.23 0.418021 0.606983 0
M  V30 11327 H 1061.87 1.5706 1.06922 0
M  V30 11328 H 1060.02 1.57738 3.55037 0
M  V30 11329 H 1061.69 3.92858 2.41785 0
M  V30 11330 H 1059.93 3.73029 2.21432 0
M  V30 11331 H 1060.6 3.97551 3.82958 0
M  V30 11332 H 1063.08 2.06063 3.61493 0
M  V30 11333 H 1061.96 2.32353 4.97296 0
M  V30 11334 H 1062.22 0.696019 4.36587 0
M  V30 11335 N 1061.28 -1.12907 1.09954 0
M  V30 11336 C 1062.52 -1.83941 0.837255 0
M  V30 11337 C 1062.84 -1.84234 -0.638984 0
M  V30 11338 O 1062.11 -1.30193 -1.46378 0
M  V30 11339 H 1060.69 -0.681115 0.306743 0
M  V30 11340 H 1063.36 -1.36743 1.38879 0
M  V30 11341 H 1062.45 -2.88289 1.19565 0
M  V30 11342 N 1062.75 -0.88754 -1.30232 0
M  V30 11343 C 1063.68 -0.372481 -2.3051 0
M  V30 11344 C 1064.66 0.546037 -1.61098 0
M  V30 11345 O 1065.85 0.459345 -1.88689 0
M  V30 11346 C 1062.98 0.411605 -3.44852 0
M  V30 11347 C 1061.93 -0.415383 -4.2598 0
M  V30 11348 C 1061.26 0.495463 -5.324 0
M  V30 11349 C 1062.56 -1.65886 -4.95257 0
M  V30 11350 H 1064.25 -1.21045 -2.7384 0
M  V30 11351 H 1061.8 -0.583498 -1.31648 0
M  V30 11352 H 1063.75 0.782584 -4.1407 0
M  V30 11353 H 1062.48 1.28325 -3.00334 0
M  V30 11354 H 1061.14 -0.768534 -3.58454 0
M  V30 11355 H 1060.78 1.36489 -4.84128 0
M  V30 11356 H 1060.48 -0.0540885 -5.87575 0
M  V30 11357 H 1062.01 0.862901 -6.04472 0
M  V30 11358 H 1063.42 -1.35832 -5.56976 0
M  V30 11359 H 1061.82 -2.14881 -5.60309 0
M  V30 11360 H 1062.89 -2.40181 -4.21237 0
M  V30 11361 N 1064.23 1.43628 -0.648757 0
M  V30 11362 C 1065.14 2.34554 0.0463037 0
M  V30 11363 C 1066.16 1.53629 0.816952 0
M  V30 11364 O 1067.33 1.86297 0.765212 0
M  V30 11365 C 1064.4 3.3185 1.00381 0
M  V30 11366 C 1063.46 4.2868 0.230589 0
M  V30 11367 C 1062.69 5.21328 1.14249 0
M  V30 11368 O 1062.92 5.18298 2.38166 0
M  V30 11369 O 1061.85 5.98726 0.617296 0
M  V30 11370 H 1065.68 2.95475 -0.702008 0
M  V30 11371 H 1063.26 1.43694 -0.408942 0
M  V30 11372 H 1065.14 3.91692 1.5542 0
M  V30 11373 H 1063.82 2.73439 1.73243 0
M  V30 11374 H 1062.73 3.72332 -0.363282 0
M  V30 11375 H 1064.06 4.90061 -0.458368 0
M  V30 11376 N 1065.71 0.390394 1.52688 0
M  V30 11377 C 1066.96 -0.191067 2.01195 0
M  V30 11378 C 1067.28 -1.47229 1.27862 0
M  V30 11379 O 1066.55 -1.91793 0.399007 0
M  V30 11380 H 1065.13 -0.073596 0.743366 0
M  V30 11381 H 1067.79 0.522334 1.8777 0
M  V30 11382 H 1066.89 -0.40051 3.0952 0
M  V30 11383 N 1067.19 -1.57141 0.120249 0
M  V30 11384 C 1068.15 -2.14213 -0.815185 0
M  V30 11385 C 1069.15 -1.07731 -1.19376 0
M  V30 11386 O 1070.34 -1.33502 -1.11906 0
M  V30 11387 C 1067.47 -2.68339 -2.10255 0
M  V30 11388 H 1068.67 -2.98197 -0.319166 0
M  V30 11389 H 1066.22 -1.55767 -0.128997 0
M  V30 11390 H 1066.95 -1.87946 -2.64285 0
M  V30 11391 H 1066.74 -3.46216 -1.84057 0
M  V30 11392 H 1068.23 -3.124 -2.77121 0
M  V30 11393 N 1068.67 0.153526 -1.5685 0
M  V30 11394 C 1069.6 1.21906 -1.9291 0
M  V30 11395 C 1070.58 1.4189 -0.794098 0
M  V30 11396 O 1071.76 1.56609 -1.0491 0
M  V30 11397 C 1068.89 2.57908 -2.19548 0
M  V30 11398 C 1067.93 2.54557 -3.42203 0
M  V30 11399 S 1068.77 2.01891 -4.95984 0
M  V30 11400 C 1069.92 3.39635 -5.25737 0
M  V30 11401 H 1070.16 0.911382 -2.82986 0
M  V30 11402 H 1067.69 0.358863 -1.50172 0
M  V30 11403 H 1069.65 3.36177 -2.35575 0
M  V30 11404 H 1068.31 2.85868 -1.30147 0
M  V30 11405 H 1067.5 3.54657 -3.58098 0
M  V30 11406 H 1067.1 1.84393 -3.25385 0
M  V30 11407 H 1069.4 4.35716 -5.18804 0
M  V30 11408 H 1070.34 3.28599 -6.27239 0
M  V30 11409 H 1070.75 3.36469 -4.53265 0
M  V30 11410 N 1070.14 1.51827 0.422667 0
M  V30 11411 C 1071.05 1.77066 1.53899 0
M  V30 11412 C 1072.07 0.655541 1.61179 0
M  V30 11413 O 1073.25 0.939448 1.78147 0
M  V30 11414 C 1070.31 1.90372 2.89758 0
M  V30 11415 C 1069.37 3.14256 2.92475 0
M  V30 11416 C 1068.61 3.26918 4.21853 0
M  V30 11417 O 1068.83 2.45164 5.15025 0
M  V30 11418 O 1067.76 4.19989 4.31153 0
M  V30 11419 H 1071.59 2.71791 1.35511 0
M  V30 11420 H 1069.17 1.36506 0.607165 0
M  V30 11421 H 1071.06 2.01024 3.70361 0
M  V30 11422 H 1069.73 0.988347 3.08242 0
M  V30 11423 H 1068.64 3.09072 2.10773 0
M  V30 11424 H 1069.97 4.0553 2.78937 0
M  V30 11425 N 1071.62 -0.679052 1.4222 0
M  V30 11426 C 1072.56 -1.80369 1.39794 0
M  V30 11427 C 1073.53 -1.60462 0.262806 0
M  V30 11428 O 1074.72 -1.82992 0.452352 0
M  V30 11429 C 1071.84 -3.17305 1.18471 0
M  V30 11430 C 1070.89 -3.55969 2.34922 0
M  V30 11431 S 1071.72 -3.58884 3.97445 0
M  V30 11432 C 1072.88 -4.98519 3.78457 0
M  V30 11433 H 1073.11 -1.82152 2.34964 0
M  V30 11434 H 1070.65 -0.84932 1.28942 0
M  V30 11435 H 1072.6 -3.96348 1.06856 0
M  V30 11436 H 1071.26 -3.13112 0.248944 0
M  V30 11437 H 1070.46 -4.55491 2.1574 0
M  V30 11438 H 1070.06 -2.84275 2.4303 0
M  V30 11439 H 1072.35 -5.86481 3.39184 0
M  V30 11440 H 1073.29 -5.22748 4.77641 0
M  V30 11441 H 1073.7 -4.70836 3.11406 0
M  V30 11442 N 1073.1 -1.28322 -0.914942 0
M  V30 11443 C 1074.35 -1.15179 -1.66067 0
M  V30 11444 C 1074.67 0.300279 -1.92674 0
M  V30 11445 O 1073.94 1.20821 -1.54205 0
M  V30 11446 H 1072.52 -0.423264 -0.615513 0
M  V30 11447 H 1075.18 -1.61034 -1.09791 0
M  V30 11448 H 1074.28 -1.69048 -2.62353 0
M  V30 11449 N 1074.58 1.12322 -1.10551 0
M  V30 11450 C 1075.51 2.17819 -0.713263 0
M  V30 11451 C 1076.52 1.6086 0.250604 0
M  V30 11452 O 1077.71 1.78466 0.0348909 0
M  V30 11453 C 1074.81 3.38885 -0.0320325 0
M  V30 11454 C 1073.99 4.25332 -1.02038 0
M  V30 11455 C 1073.04 5.24895 -0.370412 0
M  V30 11456 O 1072.07 5.59958 -1.02157 0
M  V30 11457 N 1073.27 5.73934 0.870633 0
M  V30 11458 H 1076.04 2.52083 -1.62094 0
M  V30 11459 H 1073.6 1.27755 -0.994492 0
M  V30 11460 H 1075.59 4.02574 0.414285 0
M  V30 11461 H 1074.16 3.02762 0.778072 0
M  V30 11462 H 1073.38 3.5824 -1.64492 0
M  V30 11463 H 1074.67 4.79936 -1.68936 0
M  V30 11464 H 1074.07 5.47614 1.419 0
M  V30 11465 H 1072.62 6.39504 1.26008 0
M  V30 11466 N 1076.06 0.894434 1.2976 0
M  V30 11467 C 1077.31 0.513673 1.95049 0
M  V30 11468 C 1077.62 -0.943744 1.71327 0
M  V30 11469 O 1078.82 -1.43179 2.30678 0
M  V30 11470 C 1077.28 0.867751 3.49282 0
M  V30 11471 C 1076.89 2.34358 3.81812 0
M  V30 11472 C 1078.63 0.556645 4.20835 0
M  V30 11473 C 1076.54 2.63879 5.29265 0
M  V30 11474 H 1075.47 0.188375 0.73009 0
M  V30 11475 H 1078.12 1.09071 1.47566 0
M  V30 11476 H 1076.5 0.2197 3.9539 0
M  V30 11477 H 1077.68 3.03674 3.46581 0
M  V30 11478 H 1075.99 2.62318 3.23386 0
M  V30 11479 H 1078.59 0.754123 5.29355 0
M  V30 11480 H 1078.93 -0.504526 4.13231 0
M  V30 11481 H 1079.46 1.1623 3.80441 0
M  V30 11482 H 1076.2 3.68774 5.41928 0
M  V30 11483 H 1075.72 1.99182 5.65762 0
M  V30 11484 H 1077.4 2.49871 5.96803 0
M  V30 11485 N 1077.53 -1.43282 0.656365 0
M  V30 11486 C 1078.76 -2.05826 0.178619 0
M  V30 11487 C 1079.17 -1.493 -1.16216 0
M  V30 11488 O 1078.52 -0.620163 -1.72915 0
M  V30 11489 C 1078.58 -3.59496 0.0164101 0
M  V30 11490 C 1078.24 -4.38621 1.28298 0
M  V30 11491 C 1079.24 -4.70477 2.21241 0
M  V30 11492 C 1076.92 -4.78577 1.52544 0
M  V30 11493 C 1078.92 -5.412 3.36721 0
M  V30 11494 C 1076.6 -5.49044 2.68316 0
M  V30 11495 C 1077.6 -5.80279 3.6023 0
M  V30 11496 O 1077.29 -6.49306 4.7398 0
M  V30 11497 H 1077.02 -0.670158 0.0886814 0
M  V30 11498 H 1079.58 -1.84722 0.89816 0
M  V30 11499 H 1077.81 -3.79188 -0.758532 0
M  V30 11500 H 1079.5 -4.03731 -0.419096 0
M  V30 11501 H 1080.26 -4.40125 2.03753 0
M  V30 11502 H 1076.14 -4.5367 0.818816 0
M  V30 11503 H 1079.68 -5.65497 4.08483 0
M  V30 11504 H 1075.58 -5.78813 2.85738 0
M  V30 11505 H 1076.35 -6.67789 4.73286 0
M  V30 11506 N 1079.01 -0.398486 -1.52479 0
M  V30 11507 C 1080.24 0.180557 -2.06111 0
M  V30 11508 C 1080.66 1.39751 -1.26945 0
M  V30 11509 O 1080.01 1.79699 -0.318497 0
M  V30 11510 C 1080.06 0.541573 -3.5742 0
M  V30 11511 O 1079.79 -0.627043 -4.33589 0
M  V30 11512 C 1081.29 1.17549 -4.27431 0
M  V30 11513 H 1078.51 0.0250754 -0.670531 0
M  V30 11514 H 1081.05 -0.566368 -1.96501 0
M  V30 11515 H 1079.21 1.23839 -3.67073 0
M  V30 11516 H 1079.62 -0.328233 -5.23472 0
M  V30 11517 H 1081.09 1.37839 -5.34513 0
M  V30 11518 H 1081.57 2.14553 -3.83228 0
M  V30 11519 H 1082.18 0.51918 -4.22119 0
M  V30 11520 N 1080.49 1.57075 -0.12858 0
M  V30 11521 C 1081.74 1.95134 0.526046 0
M  V30 11522 C 1082.06 1.01337 1.66601 0
M  V30 11523 O 1081.33 0.0714361 1.9577 0
M  V30 11524 H 1079.91 0.720468 0.19732 0
M  V30 11525 H 1082.57 1.93874 -0.199767 0
M  V30 11526 H 1081.67 2.98406 0.914332 0
M  V30 11527 N 1081.97 -0.145205 1.5693 0
M  V30 11528 C 1082.9 -1.18096 2.01434 0
M  V30 11529 C 1083.88 -1.447 0.894204 0
M  V30 11530 O 1085.07 -1.55589 1.16214 0
M  V30 11531 C 1082.2 -2.51369 2.39647 0
M  V30 11532 C 1081.15 -2.39283 3.54863 0
M  V30 11533 C 1080.48 -3.77283 3.78895 0
M  V30 11534 C 1081.78 -1.8754 4.87469 0
M  V30 11535 H 1083.47 -0.810897 2.8821 0
M  V30 11536 H 1081.02 -0.388624 1.38657 0
M  V30 11537 H 1082.97 -3.24054 2.69382 0
M  V30 11538 H 1081.69 -2.90214 1.49811 0
M  V30 11539 H 1080.35 -1.6905 3.25296 0
M  V30 11540 H 1080 -4.13567 2.86307 0
M  V30 11541 H 1079.7 -3.70057 4.56433 0
M  V30 11542 H 1081.22 -4.51514 4.11057 0
M  V30 11543 H 1082.64 -2.50019 5.1591 0
M  V30 11544 H 1081.03 -1.912 5.68826 0
M  V30 11545 H 1082.1 -0.831194 4.77723 0
M  V30 11546 N 1083.45 -1.52049 -0.414609 0
M  V30 11547 C 1084.39 -1.74998 -1.5048 0
M  V30 11548 C 1085.36 -0.592251 -1.55182 0
M  V30 11549 O 1086.55 -0.829203 -1.7184 0
M  V30 11550 C 1083.69 -1.90157 -2.87983 0
M  V30 11551 C 1082.8 -3.17789 -2.92633 0
M  V30 11552 C 1081.94 -3.23411 -4.21401 0
M  V30 11553 C 1080.98 -4.45267 -4.20004 0
M  V30 11554 N 1080.11 -4.48312 -5.40334 0
M  V30 11555 H 1084.95 -2.68046 -1.30212 0
M  V30 11556 H 1082.49 -1.32824 -0.632154 0
M  V30 11557 H 1084.45 -1.96929 -3.67797 0
M  V30 11558 H 1083.08 -1.00496 -3.06758 0
M  V30 11559 H 1082.13 -3.20216 -2.05343 0
M  V30 11560 H 1083.44 -4.07634 -2.87465 0
M  V30 11561 H 1082.6 -3.29224 -5.09604 0
M  V30 11562 H 1081.34 -2.31495 -4.29257 0
M  V30 11563 H 1080.34 -4.39606 -3.30192 0
M  V30 11564 H 1081.57 -5.38472 -4.13793 0
M  V30 11565 H 1079.51 -3.59277 -5.48868 0
M  V30 11566 H 1079.43 -5.31994 -5.37139 0
M  V30 11567 H 1080.7 -4.58347 -6.30506 0
M  V30 11568 N 1084.93 0.6715 -1.42579 0
M  V30 11569 C 1086.15 1.46471 -1.46836 0
M  V30 11570 C 1086.58 1.87921 -0.0820658 0
M  V30 11571 O 1085.93 1.5621 0.920217 0
M  V30 11572 C 1085.98 2.68796 -2.40377 0
M  V30 11573 O 1085.09 3.67188 -1.87741 0
M  V30 11574 H 1084.43 0.439901 -0.497376 0
M  V30 11575 H 1086.96 0.823342 -1.87303 0
M  V30 11576 H 1086.97 3.16828 -2.57068 0
M  V30 11577 H 1085.64 2.37967 -3.41093 0
M  V30 11578 H 1084.22 3.26237 -1.80621 0
M  V30 11579 N 1086.4 1.28806 0.908124 0
M  V30 11580 C 1087.37 1.13228 1.99279 0
M  V30 11581 C 1088.37 0.0702456 1.60646 0
M  V30 11582 O 1089.56 0.316494 1.71301 0
M  V30 11583 C 1086.69 0.729629 3.33 0
M  V30 11584 H 1087.88 2.09566 2.14528 0
M  V30 11585 H 1085.43 1.11872 1.09153 0
M  V30 11586 H 1086.17 -0.234268 3.23453 0
M  V30 11587 H 1085.95 1.49688 3.62403 0
M  V30 11588 H 1087.44 0.643449 4.12613 0
M  V30 11589 N 1087.88 -1.11734 1.11145 0
M  V30 11590 C 1089.13 -1.83043 0.856717 0
M  V30 11591 C 1089.45 -1.84901 -0.619407 0
M  V30 11592 O 1088.72 -1.31738 -1.44989 0
M  V30 11593 H 1087.3 -0.677823 0.31395 0
M  V30 11594 H 1089.96 -1.35262 1.40322 0
M  V30 11595 H 1089.06 -2.87005 1.22616 0
M  V30 11596 N 1089.36 -0.901303 -1.29284 0
M  V30 11597 C 1090.78 -0.597634 -1.47988 0
M  V30 11598 C 1090.98 0.860434 -1.82205 0
M  V30 11599 O 1090.03 1.64049 -1.91948 0
M  V30 11600 C 1091.34 -1.52484 -2.5917 0
M  V30 11601 C 1092.89 -1.53021 -2.73045 0
M  V30 11602 C 1093.37 -2.44373 -3.87357 0
M  V30 11603 N 1094.86 -2.42429 -3.94693 0
M  V30 11604 C 1095.59 -3.09817 -4.82495 0
M  V30 11605 N 1095.09 -3.86489 -5.74976 0
M  V30 11606 N 1096.88 -2.98966 -4.76 0
M  V30 11607 H 1089.03 -1.84432 -1.0535 0
M  V30 11608 H 1091.3 -0.790367 -0.523473 0
M  V30 11609 H 1091 -2.56378 -2.40756 0
M  V30 11610 H 1090.88 -1.24657 -3.56006 0
M  V30 11611 H 1093.26 -0.498709 -2.90855 0
M  V30 11612 H 1093.34 -1.84886 -1.76779 0
M  V30 11613 H 1092.99 -3.47618 -3.70302 0
M  V30 11614 H 1092.92 -2.09817 -4.82995 0
M  V30 11615 H 1095.41 -1.86724 -3.28546 0
M  V30 11616 H 1095.72 -4.34959 -6.38773 0
M  V30 11617 H 1094.07 -3.90596 -5.74857 0
M  V30 11618 H 1097.26 -2.38581 -4.02737 0
M  V30 11619 H 1097.43 -3.51758 -5.44215 0
M  V30 11620 N 1090.84 1.42931 -0.663954 0
M  V30 11621 C 1092.25 1.56098 -0.332496 0
M  V30 11622 C 1092.45 1.64564 1.16279 0
M  V30 11623 O 1091.51 1.6066 1.94794 0
M  V30 11624 C 1092.82 2.81649 -1.05329 0
M  V30 11625 C 1094.37 2.95408 -1.03457 0
M  V30 11626 C 1094.85 4.23805 -1.73647 0
M  V30 11627 N 1096.34 4.30693 -1.70462 0
M  V30 11628 C 1097.07 5.28833 -2.21637 0
M  V30 11629 N 1096.57 6.33189 -2.81147 0
M  V30 11630 N 1098.36 5.20558 -2.12075 0
M  V30 11631 H 1090.51 1.3568 -1.63416 0
M  V30 11632 H 1092.77 0.652361 -0.687844 0
M  V30 11633 H 1092.48 2.81494 -2.10842 0
M  V30 11634 H 1092.35 3.72208 -0.611626 0
M  V30 11635 H 1094.74 2.95097 0.0121936 0
M  V30 11636 H 1094.82 2.06109 -1.51502 0
M  V30 11637 H 1094.47 4.24876 -2.78285 0
M  V30 11638 H 1094.4 5.12019 -1.2306 0
M  V30 11639 H 1096.89 3.55904 -1.27046 0
M  V30 11640 H 1097.2 7.04411 -3.17844 0
M  V30 11641 H 1095.55 6.33781 -2.85212 0
M  V30 11642 H 1098.74 4.3795 -1.6528 0
M  V30 11643 H 1098.91 5.96881 -2.52264 0
M  V30 11644 N 1092.32 0.406567 1.52266 0
M  V30 11645 C 1093.25 -0.411314 2.29849 0
M  V30 11646 C 1094.23 -1.04838 1.33952 0
M  V30 11647 O 1095.41 -1.05788 1.62857 0
M  V30 11648 C 1092.54 -1.52961 3.11802 0
M  V30 11649 C 1091.5 -1.01768 4.15725 0
M  V30 11650 C 1090.82 -2.22938 4.86007 0
M  V30 11651 C 1092.12 -0.073515 5.22248 0
M  V30 11652 H 1093.82 0.236054 2.98468 0
M  V30 11653 H 1091.36 0.114968 1.4354 0
M  V30 11654 H 1093.31 -2.10874 3.64843 0
M  V30 11655 H 1092.04 -2.20482 2.40947 0
M  V30 11656 H 1090.7 -0.46097 3.6369 0
M  V30 11657 H 1090.35 -2.89007 4.11684 0
M  V30 11658 H 1090.05 -1.89338 5.5626 0
M  V30 11659 H 1091.57 -2.81462 5.41859 0
M  V30 11660 H 1092.98 -0.561367 5.70545 0
M  V30 11661 H 1091.38 0.173551 5.99849 0
M  V30 11662 H 1092.45 0.872524 4.76985 0
M  V30 11663 N 1093.79 -1.57004 0.136909 0
M  V30 11664 C 1094.76 -2.15066 -0.792419 0
M  V30 11665 C 1095.76 -1.08991 -1.18226 0
M  V30 11666 O 1096.95 -1.34681 -1.10484 0
M  V30 11667 C 1094.08 -2.70554 -2.07397 0
M  V30 11668 H 1095.27 -2.98519 -0.28752 0
M  V30 11669 H 1092.83 -1.55895 -0.112469 0
M  V30 11670 H 1093.56 -1.90739 -2.62277 0
M  V30 11671 H 1093.35 -3.48149 -1.80374 0
M  V30 11672 H 1094.84 -3.15322 -2.73792 0
M  V30 11673 N 1095.27 0.136881 -1.57004 0
M  V30 11674 C 1096.2 1.19402 -1.95642 0
M  V30 11675 C 1097.22 1.38635 -0.853478 0
M  V30 11676 O 1098.41 1.38027 -1.13185 0
M  V30 11677 C 1095.51 2.55716 -2.22402 0
M  V30 11678 C 1094.68 2.57325 -3.53698 0
M  V30 11679 C 1093.74 3.75253 -3.68879 0
M  V30 11680 O 1092.76 3.5966 -4.41173 0
M  V30 11681 N 1093.97 4.93112 -3.06302 0
M  V30 11682 H 1096.73 0.865504 -2.8693 0
M  V30 11683 H 1094.29 0.326346 -1.58577 0
M  V30 11684 H 1096.28 3.33135 -2.29789 0
M  V30 11685 H 1094.85 2.80819 -1.37329 0
M  V30 11686 H 1094.07 1.65749 -3.5766 0
M  V30 11687 H 1095.36 2.55441 -4.40031 0
M  V30 11688 H 1094.76 5.08684 -2.47502 0
M  V30 11689 H 1093.32 5.68271 -3.19236 0
M  V30 11690 N 1096.75 1.52266 0.40654 0
M  V30 11691 C 1097.99 1.6813 1.16239 0
M  V30 11692 C 1098.35 0.403791 1.87706 0
M  V30 11693 O 1099.56 0.438566 2.65198 0
M  V30 11694 C 1097.83 2.87115 2.12837 0
M  V30 11695 S 1099.39 3.23475 2.96495 0
M  V30 11696 H 1096.2 0.59202 0.393743 0
M  V30 11697 H 1098.81 1.90266 0.449325 0
M  V30 11698 H 1097.51 3.78337 1.59026 0
M  V30 11699 H 1097.04 2.6726 2.88679 0
M  V30 11700 H 1099.06 2.72299 4.14811 0
M  V30 11701 N 1098.23 -0.663929 1.42933 0
M  V30 11702 C 1099.45 -1.45691 1.47611 0
M  V30 11703 C 1099.88 -1.87875 0.0920305 0
M  V30 11704 O 1099.24 -1.56696 -0.91192 0
M  V30 11705 C 1099.28 -2.67517 2.41799 0
M  V30 11706 O 1098.39 -3.66187 1.89686 0
M  V30 11707 H 1097.73 -0.437257 0.499702 0
M  V30 11708 H 1100.26 -0.813397 1.87737 0
M  V30 11709 H 1100.27 -3.1546 2.58745 0
M  V30 11710 H 1098.94 -2.36155 3.4235 0
M  V30 11711 H 1097.52 -3.25274 1.82349 0
M  V30 11712 N 1099.71 -1.29285 -0.901281 0
M  V30 11713 C 1100.95 -1.18431 -1.66594 0
M  V30 11714 C 1101.31 0.260312 -1.90227 0
M  V30 11715 O 1102.51 0.4918 -2.64263 0
M  V30 11716 C 1100.78 -1.97357 -2.97968 0
M  V30 11717 S 1102.34 -2.03019 -3.8901 0
M  V30 11718 H 1099.16 -0.422323 -0.571983 0
M  V30 11719 H 1101.76 -1.63551 -1.07105 0
M  V30 11720 H 1100.47 -3.01459 -2.78479 0
M  V30 11721 H 1100 -1.52836 -3.62498 0
M  V30 11722 H 1102.01 -1.14572 -4.82791 0
M  V30 11723 N 1101.18 1.11143 -1.11736 0
M  V30 11724 C 1102.43 1.83219 -0.869413 0
M  V30 11725 C 1102.76 1.84588 0.603402 0
M  V30 11726 O 1102.04 1.30119 1.44566 0
M  V30 11727 C 1102.32 3.30247 -1.43559 0
M  V30 11728 C 1102.17 3.37253 -2.97624 0
M  V30 11729 C 1103.49 4.26412 -1.08907 0
M  V30 11730 H 1100.61 0.665205 -0.317286 0
M  V30 11731 H 1103.25 1.30307 -1.38275 0
M  V30 11732 H 1101.4 3.75437 -0.998978 0
M  V30 11733 H 1103.08 3.00599 -3.49911 0
M  V30 11734 H 1101.32 2.77378 -3.33532 0
M  V30 11735 H 1101.99 4.40752 -3.32328 0
M  V30 11736 H 1104.47 3.89418 -1.46604 0
M  V30 11737 H 1103.34 5.27666 -1.51195 0
M  V30 11738 H 1103.6 4.421 -0.000259009 0
M  V30 11739 N 1102.66 0.908147 1.28804 0
M  V30 11740 C 1103.91 0.539201 1.95501 0
M  V30 11741 C 1104.24 -0.913759 1.7136 0
M  V30 11742 O 1103.52 -1.64904 1.03136 0
M  V30 11743 C 1103.8 0.842372 3.50109 0
M  V30 11744 C 1103.65 2.34765 3.83673 0
M  V30 11745 C 1104.97 0.334658 4.38826 0
M  V30 11746 H 1102.09 0.197373 0.71008 0
M  V30 11747 H 1104.73 1.13637 1.52272 0
M  V30 11748 H 1102.88 0.334143 3.8706 0
M  V30 11749 H 1104.55 2.92607 3.56621 0
M  V30 11750 H 1102.8 2.80494 3.30916 0
M  V30 11751 H 1103.47 2.51034 4.91616 0
M  V30 11752 H 1105.94 0.769961 4.08914 0
M  V30 11753 H 1104.82 0.575914 5.4587 0
M  V30 11754 H 1105.08 -0.764878 4.35433 0
M  V30 11755 N 1104.14 -1.42577 0.671525 0
M  V30 11756 C 1105.39 -2.00806 0.189663 0
M  V30 11757 C 1105.7 -1.537 -1.20978 0
M  V30 11758 O 1106.91 -2.04325 -1.78784 0
M  V30 11759 C 1105.36 -3.58744 0.288227 0
M  V30 11760 C 1104.97 -4.14839 1.69152 0
M  V30 11761 C 1106.72 -4.24285 -0.13509 0
M  V30 11762 C 1104.62 -5.65131 1.74302 0
M  V30 11763 H 1103.55 -0.751004 0.067146 0
M  V30 11764 H 1106.2 -1.63338 0.83623 0
M  V30 11765 H 1104.59 -3.937 -0.426175 0
M  V30 11766 H 1105.76 -3.91349 2.43274 0
M  V30 11767 H 1104.08 -3.61738 2.0624 0
M  V30 11768 H 1106.67 -5.34573 -0.116709 0
M  V30 11769 H 1107.02 -3.99527 -1.16977 0
M  V30 11770 H 1107.55 -3.94278 0.528191 0
M  V30 11771 H 1104.29 -5.94682 2.75742 0
M  V30 11772 H 1103.81 -5.90621 1.04531 0
M  V30 11773 H 1105.49 -6.29491 1.49498 0
M  V30 11774 N 1105.62 -0.414636 -1.52048 0
M  V30 11775 C 1107.03 -0.0657806 -1.59464 0
M  V30 11776 C 1107.23 1.4225 -1.42713 0
M  V30 11777 O 1106.29 2.18996 -1.25687 0
M  V30 11778 C 1107.6 -0.565618 -2.95332 0
M  V30 11779 C 1109.15 -0.524072 -3.08581 0
M  V30 11780 C 1109.63 -1.00051 -4.46938 0
M  V30 11781 N 1111.12 -0.957555 -4.53194 0
M  V30 11782 C 1111.85 -1.29733 -5.58531 0
M  V30 11783 N 1111.35 -1.70883 -6.71395 0
M  V30 11784 N 1113.14 -1.21694 -5.48769 0
M  V30 11785 H 1105.29 -1.38325 -1.61183 0
M  V30 11786 H 1107.56 -0.568593 -0.758556 0
M  V30 11787 H 1107.26 -1.60604 -3.12888 0
M  V30 11788 H 1107.14 0.0217735 -3.77194 0
M  V30 11789 H 1109.52 0.507319 -2.90707 0
M  V30 11790 H 1109.6 -1.14759 -2.28613 0
M  V30 11791 H 1109.25 -2.03025 -4.65557 0
M  V30 11792 H 1109.18 -0.353754 -5.2541 0
M  V30 11793 H 1111.67 -0.65508 -3.72179 0
M  V30 11794 H 1111.98 -1.95105 -7.47766 0
M  V30 11795 H 1110.33 -1.74791 -6.72661 0
M  V30 11796 H 1113.52 -0.894286 -4.59478 0
M  V30 11797 H 1113.69 -1.48504 -6.30754 0
M  V30 11798 N 1107.1 1.56929 -0.145233 0
M  V30 11799 C 1108.32 2.00431 0.513314 0
M  V30 11800 C 1108.74 1.0253 1.58534 0
M  V30 11801 O 1108.1 0.0220459 1.82487 0
M  V30 11802 C 1108.15 3.43856 1.11557 0
M  V30 11803 O 1107.87 4.38015 0.0863707 0
M  V30 11804 C 1109.37 4.02627 1.8549 0
M  V30 11805 H 1106.59 0.657529 0.133778 0
M  V30 11806 H 1109.13 2.03095 -0.239296 0
M  V30 11807 H 1107.29 3.4205 1.81881 0
M  V30 11808 H 1107.7 5.21842 0.527363 0
M  V30 11809 H 1109.18 5.04985 2.22923 0
M  V30 11810 H 1109.65 3.43239 2.74014 0
M  V30 11811 H 1110.26 4.08058 1.19869 0
M  V30 11812 N 1108.58 -0.128553 1.57075 0
M  V30 11813 C 1109.8 -0.8564 1.88893 0
M  V30 11814 C 1110.23 -1.73095 0.736196 0
M  V30 11815 O 1109.58 -1.78567 -0.313629 0
M  V30 11816 C 1109.63 -1.67368 3.19406 0
M  V30 11817 O 1108.74 -2.77973 3.04639 0
M  V30 11818 H 1108.08 -0.237424 0.620102 0
M  V30 11819 H 1110.61 -0.113821 2.04283 0
M  V30 11820 H 1110.62 -2.0649 3.51889 0
M  V30 11821 H 1109.29 -1.03161 4.02903 0
M  V30 11822 H 1107.87 -2.42123 2.83603 0
M  V30 11823 N 1110.05 -1.5248 -0.398459 0
M  V30 11824 C 1111 -1.76585 -1.48615 0
M  V30 11825 C 1111.97 -0.608677 -1.54546 0
M  V30 11826 O 1113.16 -0.847383 -1.7095 0
M  V30 11827 C 1110.3 -1.93201 -2.8595 0
M  V30 11828 C 1109.41 -3.20875 -2.89246 0
M  V30 11829 C 1108.54 -3.27862 -4.17947 0
M  V30 11830 C 1107.58 -4.49697 -4.15258 0
M  V30 11831 N 1106.72 -4.54017 -5.35549 0
M  V30 11832 H 1111.56 -2.69412 -1.27362 0
M  V30 11833 H 1109.1 -1.33487 -0.618031 0
M  V30 11834 H 1111.05 -2.00819 -3.65688 0
M  V30 11835 H 1109.68 -1.03743 -3.05675 0
M  V30 11836 H 1108.74 -3.22376 -2.01935 0
M  V30 11837 H 1110.05 -4.1066 -2.83125 0
M  V30 11838 H 1109.2 -3.34611 -5.06083 0
M  V30 11839 H 1107.94 -2.36035 -4.26777 0
M  V30 11840 H 1106.95 -4.43083 -3.25511 0
M  V30 11841 H 1108.17 -5.42831 -4.08059 0
M  V30 11842 H 1106.12 -3.65078 -5.45027 0
M  V30 11843 H 1106.03 -5.37661 -5.31466 0
M  V30 11844 H 1107.3 -4.65009 -6.25609 0
M  V30 11845 N 1111.53 0.65634 -1.43283 0
M  V30 11846 C 1112.76 1.44906 -1.48382 0
M  V30 11847 C 1113.18 1.87823 -0.101993 0
M  V30 11848 O 1112.54 1.57178 0.903597 0
M  V30 11849 C 1112.59 2.66231 -2.43215 0
M  V30 11850 O 1111.69 3.65176 -1.91625 0
M  V30 11851 H 1111.03 0.434601 -0.502014 0
M  V30 11852 H 1113.56 0.803429 -1.88165 0
M  V30 11853 H 1113.57 3.14083 -2.60414 0
M  V30 11854 H 1112.25 2.34336 -3.43598 0
M  V30 11855 H 1110.82 3.24302 -1.84072 0
M  V30 11856 N 1113.01 1.29761 0.894412 0
M  V30 11857 C 1113.94 1.17902 2.01547 0
M  V30 11858 C 1114.92 0.0719402 1.69948 0
M  V30 11859 O 1116.11 0.252338 1.92554 0
M  V30 11860 C 1113.24 0.860262 3.36477 0
M  V30 11861 C 1112.19 1.92424 3.82305 0
M  V30 11862 C 1111.52 1.45868 5.14419 0
M  V30 11863 C 1112.82 3.33391 4.02054 0
M  V30 11864 H 1114.51 2.11688 2.11727 0
M  V30 11865 H 1112.06 1.01916 1.01731 0
M  V30 11866 H 1114.01 0.763987 4.14417 0
M  V30 11867 H 1112.73 -0.113289 3.26403 0
M  V30 11868 H 1111.39 2.00999 3.06586 0
M  V30 11869 H 1111.04 0.473654 5.00765 0
M  V30 11870 H 1110.74 2.17028 5.46052 0
M  V30 11871 H 1112.26 1.37601 5.94894 0
M  V30 11872 H 1113.68 3.27628 4.7046 0
M  V30 11873 H 1112.07 4.02555 4.4505 0
M  V30 11874 H 1113.14 3.75978 3.06216 0
M  V30 11875 N 1114.49 -1.10549 1.12324 0
M  V30 11876 C 1115.9 -1.63991 0.892402 0
M  V30 11877 C 1116.25 -1.87631 -0.573506 0
M  V30 11878 O 1115.37 -1.6174 -1.43768 0
M  V30 11879 C 1115.97 -2.97914 1.61347 0
M  V30 11880 C 1114.53 -3.48227 1.42881 0
M  V30 11881 C 1113.68 -2.22857 1.65015 0
M  V30 11882 H 1116.63 -0.94065 1.27818 0
M  V30 11883 H 1116.65 -3.65326 1.06382 0
M  V30 11884 H 1116.16 -2.80677 2.68034 0
M  V30 11885 H 1114.26 -3.70611 0.384441 0
M  V30 11886 H 1114.37 -4.26419 2.18413 0
M  V30 11887 H 1112.74 -2.30941 1.07417 0
M  V30 11888 H 1113.52 -2.08152 2.72997 0
M  V30 11889 N 1115.97 -0.914965 -1.28321 0
M  V30 11890 C 1116.9 -0.348729 -2.2552 0
M  V30 11891 C 1117.88 0.547737 -1.53097 0
M  V30 11892 O 1119.06 0.491119 -1.8199 0
M  V30 11893 C 1116.19 0.501397 -3.34968 0
M  V30 11894 C 1115.23 -0.329859 -4.25223 0
M  V30 11895 S 1116.07 -1.73737 -5.06533 0
M  V30 11896 C 1117.22 -0.89458 -6.19474 0
M  V30 11897 H 1117.46 -1.17256 -2.732 0
M  V30 11898 H 1114.99 -0.716297 -1.36779 0
M  V30 11899 H 1116.95 0.986061 -3.98481 0
M  V30 11900 H 1115.61 1.29962 -2.85952 0
M  V30 11901 H 1114.8 0.320236 -5.02982 0
M  V30 11902 H 1114.4 -0.748221 -3.66439 0
M  V30 11903 H 1116.69 -0.124776 -6.77385 0
M  V30 11904 H 1117.64 -1.64475 -6.88733 0
M  V30 11905 H 1118.05 -0.442217 -5.62765 0
M  V30 11906 N 1117.44 1.42219 -0.679077 0
M  V30 11907 C 1118.38 2.29172 0.035583 0
M  V30 11908 C 1119.39 1.43909 0.761183 0
M  V30 11909 O 1120.58 1.67584 0.61463 0
M  V30 11910 C 1117.68 3.21426 1.07419 0
M  V30 11911 C 1116.85 4.35364 0.421547 0
M  V30 11912 C 1115.91 5.08307 1.36051 0
M  V30 11913 O 1114.94 5.62678 0.859186 0
M  V30 11914 N 1116.14 5.14222 2.69362 0
M  V30 11915 H 1118.9 2.91147 -0.710865 0
M  V30 11916 H 1116.46 1.53192 -0.523821 0
M  V30 11917 H 1118.46 3.67091 1.70371 0
M  V30 11918 H 1117.03 2.60873 1.72233 0
M  V30 11919 H 1116.25 3.9229 -0.387559 0
M  V30 11920 H 1117.53 5.08789 -0.0329421 0
M  V30 11921 H 1116.93 4.71467 3.12627 0
M  V30 11922 H 1115.49 5.63519 3.27551 0
M  V30 11923 N 1118.92 0.422693 1.51826 0
M  V30 11924 C 1120.17 -0.150066 2.01141 0
M  V30 11925 C 1120.48 -1.45059 1.31214 0
M  V30 11926 O 1121.69 -2.10542 1.71419 0
M  V30 11927 C 1120.15 -0.317985 3.58492 0
M  V30 11928 C 1119.75 0.971244 4.37345 0
M  V30 11929 C 1121.5 -0.845303 4.15999 0
M  V30 11930 C 1119.4 0.769769 5.86369 0
M  V30 11931 H 1118.33 -0.0598567 0.75162 0
M  V30 11932 H 1120.99 0.550217 1.75057 0
M  V30 11933 H 1119.37 -1.08092 3.80962 0
M  V30 11934 H 1120.54 1.74138 4.26629 0
M  V30 11935 H 1118.86 1.42599 3.91222 0
M  V30 11936 H 1121.45 -1.01229 5.2503 0
M  V30 11937 H 1121.8 -1.82375 3.74226 0
M  V30 11938 H 1122.33 -0.141067 3.9755 0
M  V30 11939 H 1119.07 1.72017 6.32527 0
M  V30 11940 H 1118.59 0.0391717 5.99787 0
M  V30 11941 H 1120.27 0.417225 6.45653 0
M  V30 11942 N 1120.4 -1.5685 0.153553 0
M  V30 11943 C 1121.68 -1.8796 -0.541328 0
M  V30 11944 C 1122.06 -1.06059 -1.82523 0
M  V30 11945 O 1121.4 -0.149295 -2.28012 0
M  V30 11946 C 1121.61 -3.39697 -0.800442 0
M  V30 11947 C 1122.96 -4.09057 -1.13832 0
M  V30 11948 O 1123.99 -3.44913 -0.889578 0
M  V30 11949 O 1122.85 -5.22347 -1.60673 0
M  V30 11950 H 1119.94 -0.779268 -0.276895 0
M  V30 11951 H 1122.49 -1.68626 0.190657 0
M  V30 11952 H 1121.26 -3.91151 0.107935 0
M  V30 11953 H 1120.88 -3.64582 -1.58638 0
M  V30 11954 N 1121.88 0.120221 -1.57141 0
M  V30 11955 C 1123.13 0.826586 -1.84423 0
M  V30 11956 C 1123.45 1.80473 -0.738553 0
M  V30 11957 O 1122.72 1.94454 0.23755 0
M  V30 11958 H 1121.3 0.308246 -0.680436 0
M  V30 11959 H 1123.96 0.107835 -1.94601 0
M  V30 11960 H 1123.05 1.37256 -2.80298 0
M  V30 11961 N 1123.36 1.52689 0.390367 0
M  V30 11962 C 1124.27 1.8029 1.50108 0
M  V30 11963 C 1125.28 0.689582 1.59752 0
M  V30 11964 O 1126.46 0.977024 1.76114 0
M  V30 11965 C 1123.52 1.96475 2.85654 0
M  V30 11966 C 1122.58 3.2039 2.85743 0
M  V30 11967 C 1121.82 3.35793 4.14824 0
M  V30 11968 O 1122.04 2.56033 5.09709 0
M  V30 11969 O 1120.97 4.2904 4.22147 0
M  V30 11970 H 1124.8 2.74605 1.29715 0
M  V30 11971 H 1122.39 1.37763 0.578074 0
M  V30 11972 H 1124.27 2.08835 3.66013 0
M  V30 11973 H 1122.94 1.05351 3.06077 0
M  V30 11974 H 1121.85 3.13473 2.0417 0
M  V30 11975 H 1123.18 4.11356 2.70272 0
M  V30 11976 N 1124.83 -0.648732 1.43629 0
M  V30 11977 C 1126.25 -1.23001 1.40455 0
M  V30 11978 C 1126.6 -1.95886 0.110897 0
M  V30 11979 O 1125.72 -2.01485 -0.789487 0
M  V30 11980 C 1126.32 -2.23716 2.54434 0
M  V30 11981 C 1124.88 -2.77311 2.54511 0
M  V30 11982 C 1124.02 -1.52024 2.31914 0
M  V30 11983 H 1126.97 -0.440473 1.52465 0
M  V30 11984 H 1126.99 -3.05979 2.26179 0
M  V30 11985 H 1126.51 -1.7064 3.48574 0
M  V30 11986 H 1124.61 -3.34437 1.64263 0
M  V30 11987 H 1124.72 -3.2455 3.52426 0
M  V30 11988 H 1123.08 -1.79531 1.80667 0
M  V30 11989 H 1123.87 -1.00876 3.28145 0
M  V30 11990 N 1126.31 -1.30234 -0.887518 0
M  V30 11991 C 1127.56 -1.20096 -1.6416 0
M  V30 11992 C 1127.91 0.24253 -1.90865 0
M  V30 11993 O 1127.21 1.17078 -1.51668 0
M  V30 11994 C 1127.4 -1.96046 -2.98832 0
M  V30 11995 C 1127.23 -3.47633 -2.85274 0
M  V30 11996 C 1126 -4.16989 -2.85392 0
M  V30 11997 C 1128.2 -4.42911 -2.61409 0
M  V30 11998 N 1126.18 -5.54854 -2.62699 0
M  V30 11999 C 1127.55 -5.68321 -2.47813 0
M  V30 12000 C 1129.61 -4.32535 -2.46613 0
M  V30 12001 C 1128.31 -6.84532 -2.20927 0
M  V30 12002 C 1130.33 -5.4851 -2.21112 0
M  V30 12003 C 1129.7 -6.729 -2.08291 0
M  V30 12004 H 1125.8 -0.494513 -0.605789 0
M  V30 12005 H 1128.38 -1.64213 -1.04605 0
M  V30 12006 H 1126.55 -1.54324 -3.56425 0
M  V30 12007 H 1128.28 -1.78072 -3.63418 0
M  V30 12008 H 1125.04 -3.68798 -2.97128 0
M  V30 12009 H 1125.46 -6.27395 -2.54371 0
M  V30 12010 H 1130.1 -3.37047 -2.55262 0
M  V30 12011 H 1127.82 -7.80063 -2.11015 0
M  V30 12012 H 1131.41 -5.42389 -2.1049 0
M  V30 12013 H 1130.29 -7.61125 -1.88833 0
M  V30 12014 N 1127.79 1.09952 -1.12909 0
M  V30 12015 C 1128.72 2.15689 -0.745217 0
M  V30 12016 C 1129.7 1.60409 0.266007 0
M  V30 12017 O 1130.89 1.8783 0.158783 0
M  V30 12018 C 1128.01 3.38541 -0.103846 0
M  V30 12019 C 1127.06 4.12529 -1.0827 0
M  V30 12020 S 1127.89 4.67442 -2.61262 0
M  V30 12021 C 1129.05 5.936 -1.9847 0
M  V30 12022 H 1129.28 2.47918 -1.64086 0
M  V30 12023 H 1126.81 1.21817 -0.948682 0
M  V30 12024 H 1128.77 4.09677 0.259816 0
M  V30 12025 H 1127.43 3.04541 0.768982 0
M  V30 12026 H 1126.63 5.00632 -0.581653 0
M  V30 12027 H 1126.23 3.47228 -1.38955 0
M  V30 12028 H 1128.52 6.64308 -1.33048 0
M  V30 12029 H 1129.46 6.48374 -2.84634 0
M  V30 12030 H 1129.87 5.45864 -1.43848 0
M  V30 12031 N 1129.27 0.921757 1.27833 0
M  V30 12032 C 1130.2 0.373575 2.26135 0
M  V30 12033 C 1131.21 -0.492414 1.55174 0
M  V30 12034 O 1132.4 -0.305998 1.75858 0
M  V30 12035 C 1129.5 -0.483911 3.35427 0
M  V30 12036 C 1128.68 0.361411 4.35904 0
M  V30 12037 C 1127.73 -0.432461 5.2442 0
M  V30 12038 O 1126.76 0.15777 5.68981 0
M  V30 12039 N 1127.96 -1.73367 5.54007 0
M  V30 12040 H 1130.73 1.21856 2.73809 0
M  V30 12041 H 1128.29 0.788552 1.41398 0
M  V30 12042 H 1130.28 -1.02193 3.91585 0
M  V30 12043 H 1128.85 -1.22963 2.874 0
M  V30 12044 H 1128.07 1.08076 3.79095 0
M  V30 12045 H 1129.36 0.939528 5.0005 0
M  V30 12046 H 1128.76 -2.23561 5.19651 0
M  V30 12047 H 1127.31 -2.21834 6.12889 0
M  V30 12048 N 1130.75 -1.41857 0.686609 0
M  V30 12049 C 1131.97 -2.05699 0.222561 0
M  V30 12050 C 1132.39 -1.51636 -1.12481 0
M  V30 12051 O 1131.75 -0.660925 -1.70112 0
M  V30 12052 C 1131.8 -3.61138 0.161818 0
M  V30 12053 O 1131.52 -4.13199 1.45596 0
M  V30 12054 C 1133.02 -4.42112 -0.324304 0
M  V30 12055 H 1130.24 -0.662665 0.10543 0
M  V30 12056 H 1132.78 -1.81788 0.936671 0
M  V30 12057 H 1130.94 -3.8412 -0.503056 0
M  V30 12058 H 1131.35 -5.0717 1.33712 0
M  V30 12059 H 1132.83 -5.51097 -0.315694 0
M  V30 12060 H 1133.3 -4.1756 -1.36164 0
M  V30 12061 H 1133.91 -4.24174 0.309251 0
M  V30 12062 N 1132.22 -0.430739 -1.51599 0
M  V30 12063 C 1133.64 0.0339139 -1.86669 0
M  V30 12064 C 1133.99 1.42533 -1.34829 0
M  V30 12065 O 1133.11 2.04889 -0.696376 0
M  V30 12066 C 1133.71 0.0683174 -3.38731 0
M  V30 12067 C 1132.27 0.477363 -3.73361 0
M  V30 12068 C 1131.41 -0.334258 -2.75278 0
M  V30 12069 H 1134.36 -0.646875 -1.44918 0
M  V30 12070 H 1134.38 0.879179 -3.70204 0
M  V30 12071 H 1133.9 -0.944501 -3.76432 0
M  V30 12072 H 1132 1.49603 -3.41247 0
M  V30 12073 H 1132.11 0.206744 -4.78654 0
M  V30 12074 H 1130.47 0.206503 -2.53861 0
M  V30 12075 H 1131.26 -1.34583 -3.1582 0
M  V30 12076 N 1133.7 1.56767 -0.161869 0
M  V30 12077 C 1134.94 1.98487 0.488067 0
M  V30 12078 C 1135.31 1.04527 1.61053 0
M  V30 12079 O 1136.51 1.35351 2.32236 0
M  V30 12080 C 1134.78 3.44057 0.967446 0
M  V30 12081 S 1136.34 4.07805 1.61989 0
M  V30 12082 H 1133.16 0.693377 0.157318 0
M  V30 12083 H 1135.76 1.93802 -0.257099 0
M  V30 12084 H 1134.46 4.10161 0.139959 0
M  V30 12085 H 1133.99 3.52488 1.74688 0
M  V30 12086 H 1136.01 4.02078 2.90772 0
M  V30 12087 N 1135.18 -0.111886 1.57202 0
M  V30 12088 C 1136.41 -0.832407 1.89416 0
M  V30 12089 C 1136.82 -1.73096 0.753861 0
M  V30 12090 O 1136.18 -1.80416 -0.274992 0
M  V30 12091 C 1136.23 -1.65988 3.21139 0
M  V30 12092 O 1135.95 -0.797485 4.3078 0
M  V30 12093 C 1137.45 -2.48493 3.67105 0
M  V30 12094 H 1134.67 -0.238919 0.627024 0
M  V30 12095 H 1137.22 -0.0941456 2.04283 0
M  V30 12096 H 1135.37 -2.35082 3.07921 0
M  V30 12097 H 1135.79 -1.36892 5.06321 0
M  V30 12098 H 1137.26 -3.02072 4.62014 0
M  V30 12099 H 1137.74 -3.26182 2.94112 0
M  V30 12100 H 1138.34 -1.84628 3.83135 0
M  V30 12101 N 1136.66 -1.52894 -0.382264 0
M  V30 12102 C 1137.91 -1.67489 -1.12385 0
M  V30 12103 C 1138.22 -0.424565 -1.90937 0
M  V30 12104 O 1139.43 -0.450763 -2.67732 0
M  V30 12105 C 1137.88 -2.96019 -2.04697 0
M  V30 12106 C 1137.49 -4.28255 -1.31535 0
M  V30 12107 C 1139.23 -3.19981 -2.78949 0
M  V30 12108 C 1137.14 -5.47887 -2.22652 0
M  V30 12109 H 1136.07 -0.624002 -0.423246 0
M  V30 12110 H 1138.72 -1.79392 -0.386107 0
M  V30 12111 H 1137.1 -2.77878 -2.82134 0
M  V30 12112 H 1138.28 -4.56971 -0.592771 0
M  V30 12113 H 1136.59 -4.10607 -0.692148 0
M  V30 12114 H 1139.19 -4.06541 -3.47316 0
M  V30 12115 H 1139.53 -2.35335 -3.43399 0
M  V30 12116 H 1140.07 -3.38718 -2.08602 0
M  V30 12117 H 1136.81 -6.3496 -1.62806 0
M  V30 12118 H 1136.33 -5.23473 -2.92807 0
M  V30 12119 H 1138 -5.82026 -2.82586 0
M  V30 12120 N 1138.14 0.641106 -1.43971 0
M  V30 12121 C 1139.08 1.75352 -1.50068 0
M  V30 12122 C 1140.05 1.62386 -0.349266 0
M  V30 12123 O 1141.24 1.82455 -0.558118 0
M  V30 12124 C 1138.38 3.13561 -1.4413 0
M  V30 12125 C 1137.49 3.37574 -2.6957 0
M  V30 12126 C 1136.63 4.65698 -2.55535 0
M  V30 12127 C 1135.67 4.82857 -3.76186 0
M  V30 12128 N 1134.8 6.02249 -3.60888 0
M  V30 12129 H 1139.64 1.69477 -2.45116 0
M  V30 12130 H 1137.18 0.826871 -1.2166 0
M  V30 12131 H 1139.14 3.93476 -1.38681 0
M  V30 12132 H 1137.77 3.18476 -0.526563 0
M  V30 12133 H 1136.82 2.5167 -2.85248 0
M  V30 12134 H 1138.13 3.46135 -3.59154 0
M  V30 12135 H 1137.29 5.53759 -2.47862 0
M  V30 12136 H 1136.03 4.59479 -1.63495 0
M  V30 12137 H 1135.03 3.93229 -3.84254 0
M  V30 12138 H 1136.26 4.90898 -4.6925 0
M  V30 12139 H 1134.2 5.97138 -2.71591 0
M  V30 12140 H 1134.12 6.11822 -4.44083 0
M  V30 12141 H 1135.39 6.92898 -3.57088 0
M  V30 12142 N 1139.62 1.30703 0.880598 0
M  V30 12143 C 1140.86 1.19142 1.62752 0
M  V30 12144 C 1141.18 -0.251795 1.93973 0
M  V30 12145 O 1142.38 -0.488971 2.67061 0
M  V30 12146 C 1140.84 2.08503 2.93351 0
M  V30 12147 C 1140.45 3.57758 2.69653 0
M  V30 12148 C 1142.19 2.05715 3.71324 0
M  V30 12149 C 1140.1 4.39161 3.96096 0
M  V30 12150 H 1139.03 0.442332 0.610622 0
M  V30 12151 H 1141.68 1.55483 0.974547 0
M  V30 12152 H 1140.06 1.65049 3.59965 0
M  V30 12153 H 1141.24 4.09388 2.11513 0
M  V30 12154 H 1139.55 3.62414 2.0505 0
M  V30 12155 H 1142.15 2.63783 4.65105 0
M  V30 12156 H 1142.49 1.04168 4.03057 0
M  V30 12157 H 1143.02 2.47313 3.11579 0
M  V30 12158 H 1139.76 5.4142 3.69519 0
M  V30 12159 H 1139.28 3.92293 4.53725 0
M  V30 12160 H 1140.96 4.50823 4.64077 0
M  V30 12161 N 1141.09 -1.09351 1.1349 0
M  V30 12162 C 1142.32 -1.85304 0.920324 0
M  V30 12163 C 1142.74 -1.81182 -0.530883 0
M  V30 12164 O 1142.09 -1.20853 -1.36751 0
M  V30 12165 C 1142.14 -3.33249 1.40098 0
M  V30 12166 O 1141.87 -3.37333 2.79531 0
M  V30 12167 C 1143.37 -4.2604 1.22495 0
M  V30 12168 H 1140.59 -0.585294 0.328134 0
M  V30 12169 H 1143.13 -1.38168 1.50765 0
M  V30 12170 H 1141.29 -3.7781 0.85664 0
M  V30 12171 H 1141.7 -4.29614 3.00885 0
M  V30 12172 H 1143.17 -5.27999 1.61 0
M  V30 12173 H 1143.65 -4.38883 0.166717 0
M  V30 12174 H 1144.26 -3.87295 1.75735 0
M  V30 12175 N 1142.57 -0.928524 -1.27343 0
M  V30 12176 C 1143.52 -0.399267 -2.24477 0
M  V30 12177 C 1144.51 0.496927 -1.53034 0
M  V30 12178 O 1145.7 0.334237 -1.73816 0
M  V30 12179 C 1142.83 0.346059 -3.41551 0
M  V30 12180 C 1141.91 -0.566699 -4.20297 0
M  V30 12181 N 1142.3 -1.6869 -4.76841 0
M  V30 12182 C 1140.6 -0.369865 -4.44464 0
M  V30 12183 C 1141.3 -2.25466 -5.36228 0
M  V30 12184 N 1140.28 -1.54414 -5.21207 0
M  V30 12185 H 1144.08 -1.25456 -2.65778 0
M  V30 12186 H 1141.59 -0.782894 -1.42283 0
M  V30 12187 H 1143.59 0.742171 -4.10241 0
M  V30 12188 H 1142.25 1.19827 -3.01781 0
M  V30 12189 H 1143.26 -2.06926 -4.74765 0
M  V30 12190 H 1139.94 0.441619 -4.15158 0
M  V30 12191 H 1141.33 -3.19779 -5.90924 0
M  V30 12192 N 1144.05 1.41491 -0.694123 0
M  V30 12193 C 1145 2.30783 -0.0278824 0
M  V30 12194 C 1145.97 1.47028 0.772783 0
M  V30 12195 O 1147.15 1.75819 0.74111 0
M  V30 12196 C 1144.29 3.33061 0.903579 0
M  V30 12197 C 1143.4 4.31896 0.0946823 0
M  V30 12198 C 1142.54 5.21243 1.02365 0
M  V30 12199 C 1141.58 6.11748 0.207578 0
M  V30 12200 N 1140.72 6.93583 1.09028 0
M  V30 12201 H 1145.56 2.87197 -0.795092 0
M  V30 12202 H 1143.09 1.41449 -0.403806 0
M  V30 12203 H 1145.05 3.90907 1.45765 0
M  V30 12204 H 1143.68 2.782 1.6372 0
M  V30 12205 H 1142.73 3.76009 -0.576289 0
M  V30 12206 H 1144.04 4.95889 -0.538059 0
M  V30 12207 H 1143.2 5.83917 1.647 0
M  V30 12208 H 1141.94 4.57473 1.69025 0
M  V30 12209 H 1140.94 5.48125 -0.428854 0
M  V30 12210 H 1142.17 6.77573 -0.455206 0
M  V30 12211 H 1140.11 6.32422 1.74292 0
M  V30 12212 H 1140.03 7.54257 0.513073 0
M  V30 12213 H 1141.3 7.60726 1.70048 0
M  V30 12214 N 1145.53 0.438773 1.51369 0
M  V30 12215 C 1146.48 -0.386324 2.29369 0
M  V30 12216 C 1147.47 -1.0196 1.3528 0
M  V30 12217 O 1148.68 -0.9544 1.52615 0
M  V30 12218 H 1145.05 -0.143397 0.738201 0
M  V30 12219 H 1147.02 0.292372 2.96964 0
M  V30 12220 C 1145.77 -1.47426 3.14898 0
M  V30 12221 H 1145.09 -0.996335 3.87186 0
M  V30 12222 H 1146.53 -2.02481 3.72529 0
M  V30 12223 C 1144.99 -2.45831 2.30366 0
M  V30 12224 O 1145.52 -3.50398 1.96428 0
M  V30 12225 N 1143.73 -2.16754 1.93561 0
M  V30 12226 H 1143.28 -1.31748 2.2136 0
M  V30 12227 H 1143.23 -2.82836 1.373 0
M  V30 12228 N 1147.01 -1.56678 0.170181 0
M  V30 12229 C 1147.94 -2.15083 -0.791961 0
M  V30 12230 C 1148.95 -1.10612 -1.19452 0
M  V30 12231 O 1150.14 -1.37803 -1.13457 0
M  V30 12232 C 1147.24 -2.67769 -2.07733 0
M  V30 12233 C 1146.41 -3.96885 -1.83851 0
M  V30 12234 C 1145.47 -4.34646 -2.96596 0
M  V30 12235 O 1144.5 -5.02543 -2.67281 0
M  V30 12236 N 1145.7 -3.96112 -4.24353 0
M  V30 12237 H 1148.46 -2.98268 -0.292658 0
M  V30 12238 H 1146.03 -1.61895 -0.0126383 0
M  V30 12239 H 1148.02 -2.90029 -2.8225 0
M  V30 12240 H 1146.59 -1.89179 -2.48858 0
M  V30 12241 H 1145.81 -3.83013 -0.932452 0
M  V30 12242 H 1147.1 -4.81213 -1.65261 0
M  V30 12243 H 1146.49 -3.41448 -4.51032 0
M  V30 12244 H 1145.05 -4.23375 -4.95577 0
M  V30 12245 N 1148.48 0.103547 -1.57259 0
M  V30 12246 C 1149.45 1.11039 -2.00507 0
M  V30 12247 C 1150.45 1.33432 -0.897361 0
M  V30 12248 O 1151.64 1.29688 -1.16304 0
M  V30 12249 C 1148.77 2.46144 -2.35851 0
M  V30 12250 H 1149.96 0.738332 -2.90669 0
M  V30 12251 H 1147.51 0.348334 -1.52369 0
M  V30 12252 H 1148.25 2.88242 -1.48617 0
M  V30 12253 H 1148.03 2.31241 -3.16654 0
M  V30 12254 H 1149.52 3.18577 -2.69997 0
M  V30 12255 N 1149.96 1.53094 0.37415 0
M  V30 12256 C 1151.37 1.60641 0.951381 0
M  V30 12257 C 1151.72 0.468474 1.90525 0
M  V30 12258 O 1150.85 -0.406347 2.12551 0
M  V30 12259 C 1151.44 2.91166 1.73228 0
M  V30 12260 C 1150 3.01077 2.25898 0
M  V30 12261 C 1149.15 2.55873 1.06885 0
M  V30 12262 H 1152.1 1.57959 0.153214 0
M  V30 12263 H 1152.12 2.78487 2.59278 0
M  V30 12264 H 1151.63 3.73968 1.03778 0
M  V30 12265 H 1149.73 2.22844 2.98615 0
M  V30 12266 H 1149.85 4.05998 2.54367 0
M  V30 12267 H 1148.21 2.10544 1.43329 0
M  V30 12268 H 1148.99 3.41084 0.38947 0
M  V30 12269 N 1151.44 -0.633461 1.44309 0
M  V30 12270 C 1152.37 -1.7583 1.45462 0
M  V30 12271 C 1153.35 -1.59545 0.313723 0
M  V30 12272 O 1154.53 -1.8146 0.51034 0
M  V30 12273 C 1151.66 -3.13375 1.28506 0
M  V30 12274 C 1150.71 -3.48315 2.46128 0
M  V30 12275 S 1151.54 -3.46058 4.08662 0
M  V30 12276 C 1152.7 -4.86226 3.94125 0
M  V30 12277 H 1152.93 -1.74585 2.4064 0
M  V30 12278 H 1150.46 -0.807868 1.31578 0
M  V30 12279 H 1152.42 -3.92748 1.19411 0
M  V30 12280 H 1151.08 -3.12161 0.348432 0
M  V30 12281 H 1150.27 -4.48397 2.30122 0
M  V30 12282 H 1149.88 -2.76399 2.51951 0
M  V30 12283 H 1152.17 -5.75393 3.57671 0
M  V30 12284 H 1153.11 -5.07287 4.9403 0
M  V30 12285 H 1153.52 -4.60691 3.26227 0
M  V30 12286 N 1152.92 -1.31168 -0.873655 0
M  V30 12287 C 1153.85 -1.21094 -1.99646 0
M  V30 12288 C 1154.83 -0.0989684 -1.69812 0
M  V30 12289 O 1156.01 -0.282939 -1.92128 0
M  V30 12290 C 1153.14 -0.913684 -3.35066 0
M  V30 12291 C 1152.1 -1.98482 -3.79195 0
M  V30 12292 C 1151.42 -1.54033 -5.12033 0
M  V30 12293 C 1152.72 -3.39745 -3.96699 0
M  V30 12294 H 1154.42 -2.1503 -2.08333 0
M  V30 12295 H 1151.96 -1.03521 -1.00097 0
M  V30 12296 H 1153.92 -0.829821 -4.13149 0
M  V30 12297 H 1152.64 0.0613471 -3.26542 0
M  V30 12298 H 1151.3 -2.05851 -3.03349 0
M  V30 12299 H 1150.95 -0.553261 -4.99948 0
M  V30 12300 H 1150.65 -2.25688 -5.4253 0
M  V30 12301 H 1152.17 -1.47047 -5.92629 0
M  V30 12302 H 1153.59 -3.35071 -4.65188 0
M  V30 12303 H 1151.98 -4.09585 -4.38589 0
M  V30 12304 H 1153.05 -3.80802 -3.00196 0
M  V30 12305 N 1154.4 1.08748 -1.14068 0
M  V30 12306 C 1155.33 2.14886 -0.768052 0
M  V30 12307 C 1156.31 1.60682 0.248979 0
M  V30 12308 O 1157.49 1.87988 0.138852 0
M  V30 12309 C 1154.62 3.38412 -0.139747 0
M  V30 12310 C 1153.66 4.11357 -1.12639 0
M  V30 12311 S 1154.5 4.64645 -2.66206 0
M  V30 12312 C 1155.65 5.91461 -2.04755 0
M  V30 12313 H 1155.89 2.46163 -1.66706 0
M  V30 12314 H 1153.42 1.20804 -0.961549 0
M  V30 12315 H 1155.38 4.09929 0.21635 0
M  V30 12316 H 1154.04 3.0534 0.736638 0
M  V30 12317 H 1153.23 4.99987 -0.634719 0
M  V30 12318 H 1152.83 3.45735 -1.4263 0
M  V30 12319 H 1155.13 6.62859 -1.40086 0
M  V30 12320 H 1156.07 6.45319 -2.91494 0
M  V30 12321 H 1156.48 5.44308 -1.49629 0
M  V30 12322 N 1155.87 0.935264 1.26849 0
M  V30 12323 C 1157.12 0.578545 1.93642 0
M  V30 12324 C 1157.44 -0.884296 1.73796 0
M  V30 12325 O 1156.71 -1.62768 1.09011 0
M  V30 12326 H 1155.29 0.210976 0.716588 0
M  V30 12327 H 1157.96 1.1893 1.54407 0
M  V30 12328 H 1157.05 0.791268 3.01903 0
M  V30 12329 N 1157.35 -1.41121 0.701616 0
M  V30 12330 C 1158.76 -1.84122 0.309208 0
M  V30 12331 C 1159.11 -1.58695 -1.15371 0
M  V30 12332 O 1158.24 -1.06053 -1.88631 0
M  V30 12333 C 1158.83 -3.34233 0.554429 0
M  V30 12334 C 1157.39 -3.7578 0.215876 0
M  V30 12335 C 1156.54 -2.6447 0.833729 0
M  V30 12336 H 1159.49 -1.30587 0.901822 0
M  V30 12337 H 1159.51 -3.8005 -0.18491 0
M  V30 12338 H 1159.02 -3.52707 1.61923 0
M  V30 12339 H 1157.13 -3.62905 -0.844421 0
M  V30 12340 H 1157.24 -4.74319 0.675118 0
M  V30 12341 H 1155.6 -2.5334 0.262851 0
M  V30 12342 H 1156.39 -2.85761 1.90252 0
M  V30 12343 N 1158.83 -0.446794 -1.51134 0
M  V30 12344 C 1160.24 0.0141132 -1.86695 0
M  V30 12345 C 1160.59 1.41095 -1.36333 0
M  V30 12346 O 1159.72 2.04139 -0.718068 0
M  V30 12347 C 1160.31 0.0323866 -3.38785 0
M  V30 12348 C 1158.87 0.437737 -3.73846 0
M  V30 12349 C 1158.02 -0.363436 -2.74908 0
M  V30 12350 H 1160.97 -0.66221 -1.44224 0
M  V30 12351 H 1160.99 0.839865 -3.71115 0
M  V30 12352 H 1160.5 -0.984374 -3.75409 0
M  V30 12353 H 1158.6 1.45975 -3.42815 0
M  V30 12354 H 1158.72 0.155964 -4.78846 0
M  V30 12355 H 1157.08 0.179566 -2.54066 0
M  V30 12356 H 1157.86 -1.37925 -3.14375 0
M  V30 12357 N 1160.31 1.56586 -0.178487 0
M  V30 12358 C 1161.72 1.83633 0.337009 0
M  V30 12359 C 1162.07 1.09857 1.6256 0
M  V30 12360 O 1161.2 0.353933 2.13486 0
M  V30 12361 C 1161.79 3.33112 0.618225 0
M  V30 12362 C 1160.35 3.60629 1.07814 0
M  V30 12363 C 1159.5 2.7705 0.117825 0
M  V30 12364 H 1162.45 1.53508 -0.402612 0
M  V30 12365 H 1162.47 3.5098 1.46947 0
M  V30 12366 H 1161.98 3.8678 -0.319808 0
M  V30 12367 H 1160.08 3.12378 2.03103 0
M  V30 12368 H 1160.19 4.68921 0.982339 0
M  V30 12369 H 1158.56 2.47125 0.616563 0
M  V30 12370 H 1159.34 3.33501 -0.814356 0
M  V30 12371 N 1161.79 -0.095206 1.57312 0
M  V30 12372 C 1162.73 -1.11551 2.02052 0
M  V30 12373 C 1163.7 -1.39808 0.896818 0
M  V30 12374 O 1164.89 -1.51273 1.1628 0
M  V30 12375 C 1162.03 -2.43056 2.44985 0
M  V30 12376 C 1161.14 -2.21531 3.70875 0
M  V30 12377 C 1160.28 -3.46434 4.02687 0
M  V30 12378 C 1159.32 -3.2017 5.21687 0
M  V30 12379 N 1158.45 -4.37339 5.49253 0
M  V30 12380 H 1163.29 -0.727 2.88996 0
M  V30 12381 H 1160.83 -0.347441 1.42938 0
M  V30 12382 H 1162.79 -3.19803 2.67921 0
M  V30 12383 H 1161.42 -2.79754 1.61051 0
M  V30 12384 H 1160.47 -1.35587 3.55416 0
M  V30 12385 H 1161.78 -1.98116 4.57768 0
M  V30 12386 H 1160.94 -4.31589 4.26399 0
M  V30 12387 H 1159.67 -3.72904 3.14315 0
M  V30 12388 H 1158.68 -2.33409 4.97796 0
M  V30 12389 H 1159.9 -2.95047 6.11657 0
M  V30 12390 H 1157.85 -4.63885 4.6384 0
M  V30 12391 H 1157.77 -4.17114 6.30517 0
M  V30 12392 H 1159.04 -5.23559 5.775 0
M  V30 12393 N 1163.26 -1.53291 -0.366026 0
M  V30 12394 C 1164.49 -1.73359 -1.12934 0
M  V30 12395 C 1164.91 -0.462352 -1.83051 0
M  V30 12396 O 1164.26 0.564711 -1.73543 0
M  V30 12397 C 1164.32 -2.89873 -2.15999 0
M  V30 12398 O 1164.04 -4.12079 -1.48737 0
M  V30 12399 C 1165.54 -3.21811 -3.04881 0
M  V30 12400 H 1162.76 -0.579827 -0.337701 0
M  V30 12401 H 1165.3 -2.00033 -0.425081 0
M  V30 12402 H 1163.46 -2.65595 -2.82025 0
M  V30 12403 H 1163.87 -4.77322 -2.17404 0
M  V30 12404 H 1165.34 -4.06744 -3.7318 0
M  V30 12405 H 1165.82 -2.37156 -3.69667 0
M  V30 12406 H 1166.43 -3.48013 -2.44473 0
M  V30 12407 N 1164.74 0.6258 -1.44643 0
M  V30 12408 C 1165.99 1.38251 -1.47414 0
M  V30 12409 C 1166.31 1.94689 -0.110043 0
M  V30 12410 O 1165.58 1.76095 0.858333 0
M  V30 12411 H 1164.16 0.513179 -0.542823 0
M  V30 12412 H 1166.82 0.736179 -1.80462 0
M  V30 12413 H 1165.92 2.21115 -2.2026 0
M  V30 12414 N 1166.22 1.31629 0.866686 0
M  V30 12415 C 1167.15 1.22151 1.99001 0
M  V30 12416 C 1168.13 0.107972 1.69757 0
M  V30 12417 O 1169.32 0.293125 1.91975 0
M  V30 12418 C 1166.45 0.93144 3.34577 0
M  V30 12419 C 1165.4 2.0049 3.78137 0
M  V30 12420 C 1164.73 1.56747 5.11209 0
M  V30 12421 C 1166.03 3.41844 3.94892 0
M  V30 12422 H 1167.72 2.16132 2.0719 0
M  V30 12423 H 1165.27 1.04051 0.995463 0
M  V30 12424 H 1167.22 0.851719 4.12703 0
M  V30 12425 H 1165.94 -0.0440289 3.2657 0
M  V30 12426 H 1164.6 2.07457 3.02253 0
M  V30 12427 H 1164.25 0.579767 4.99648 0
M  V30 12428 H 1163.95 2.28562 5.41326 0
M  V30 12429 H 1165.47 1.50188 5.91841 0
M  V30 12430 H 1166.89 3.37534 4.63405 0
M  V30 12431 H 1165.29 4.11905 4.36411 0
M  V30 12432 H 1166.36 3.82389 2.98172 0
M  V30 12433 N 1167.7 -1.08142 1.14644 0
M  V30 12434 C 1168.95 -1.80582 0.916327 0
M  V30 12435 C 1169.27 -1.86355 -0.556969 0
M  V30 12436 O 1168.53 -1.33736 -1.42875 0
M  V30 12437 C 1168.83 -3.25962 1.46573 0
M  V30 12438 C 1168.49 -3.40302 2.95814 0
M  V30 12439 C 1167.16 -3.43922 3.36557 0
M  V30 12440 C 1169.51 -3.43758 3.91765 0
M  V30 12441 C 1166.84 -3.48594 4.7191 0
M  V30 12442 C 1169.19 -3.49965 5.26979 0
M  V30 12443 C 1167.85 -3.5186 5.67231 0
M  V30 12444 H 1167.12 -0.660795 0.335308 0
M  V30 12445 H 1169.77 -1.27309 1.43055 0
M  V30 12446 H 1168.07 -3.81961 0.872507 0
M  V30 12447 H 1169.77 -3.80571 1.2636 0
M  V30 12448 H 1166.36 -3.38176 2.63315 0
M  V30 12449 H 1170.55 -3.40189 3.61366 0
M  V30 12450 H 1165.8 -3.48355 5.02453 0
M  V30 12451 H 1169.98 -3.51585 6.01133 0
M  V30 12452 H 1167.6 -3.55233 6.72097 0
M  V30 12453 N 1169.18 -0.941978 -1.26351 0
M  V30 12454 C 1170.42 -0.597462 -1.95473 0
M  V30 12455 C 1170.78 0.847851 -1.72266 0
M  V30 12456 O 1171.98 1.30134 -2.35199 0
M  V30 12457 C 1170.25 -0.931342 -3.45052 0
M  V30 12458 S 1171.81 -0.697491 -4.33221 0
M  V30 12459 H 1168.63 -0.22003 -0.676097 0
M  V30 12460 H 1171.23 -1.21346 -1.53282 0
M  V30 12461 H 1169.94 -1.98063 -3.59443 0
M  V30 12462 H 1169.47 -0.305095 -3.92215 0
M  V30 12463 H 1171.48 0.437915 -4.94264 0
M  V30 12464 N 1170.66 1.40747 -0.709091 0
M  V30 12465 C 1171.88 2.05841 -0.253816 0
M  V30 12466 C 1172.31 1.53056 1.09341 0
M  V30 12467 O 1171.66 0.663181 1.68735 0
M  V30 12468 C 1171.71 3.59822 -0.236699 0
M  V30 12469 O 1170.82 4.04876 0.784168 0
M  V30 12470 H 1170.16 0.65295 -0.120631 0
M  V30 12471 H 1172.69 1.80266 -0.967749 0
M  V30 12472 H 1172.7 4.07936 -0.0721616 0
M  V30 12473 H 1171.37 3.97608 -1.21988 0
M  V30 12474 H 1169.95 3.68237 0.587884 0
M  V30 12475 N 1172.13 0.454803 1.50895 0
M  V30 12476 C 1173.06 -0.337982 2.31041 0
M  V30 12477 C 1174.04 -1.00523 1.37219 0
M  V30 12478 O 1175.23 -1.00553 1.66141 0
M  V30 12479 C 1172.36 -1.42964 3.1651 0
M  V30 12480 C 1171.31 -0.884907 4.18752 0
M  V30 12481 C 1170.64 -2.07363 4.92854 0
M  V30 12482 C 1171.94 0.0926716 5.22218 0
M  V30 12483 H 1173.63 0.33089 2.97566 0
M  V30 12484 H 1171.18 0.160577 1.43102 0
M  V30 12485 H 1173.13 -1.9916 3.71367 0
M  V30 12486 H 1171.86 -2.12705 2.47839 0
M  V30 12487 H 1170.52 -0.345031 3.64973 0
M  V30 12488 H 1170.16 -2.75764 4.2067 0
M  V30 12489 H 1169.86 -1.71545 5.62002 0
M  V30 12490 H 1171.39 -2.6408 5.5054 0
M  V30 12491 H 1172.8 -0.379568 5.72042 0
M  V30 12492 H 1171.2 0.3643 5.98993 0
M  V30 12493 H 1172.27 1.02383 4.73968 0
M  V30 12494 N 1173.61 -1.56489 0.186789 0
M  V30 12495 C 1174.86 -1.97634 -0.454831 0
M  V30 12496 C 1175.19 -1.07334 -1.61843 0
M  V30 12497 O 1174.47 -0.123612 -1.94107 0
M  V30 12498 C 1174.75 -3.48071 -0.922962 0
M  V30 12499 C 1174.6 -4.49149 0.241877 0
M  V30 12500 C 1175.92 -4.01994 -1.79134 0
M  V30 12501 H 1173.04 -0.718555 -0.163854 0
M  V30 12502 H 1175.68 -1.87984 0.27604 0
M  V30 12503 H 1173.83 -3.56425 -1.54575 0
M  V30 12504 H 1175.5 -4.52841 0.87936 0
M  V30 12505 H 1173.75 -4.24468 0.894964 0
M  V30 12506 H 1174.42 -5.51851 -0.128051 0
M  V30 12507 H 1176.89 -3.96367 -1.26618 0
M  V30 12508 H 1175.77 -5.07641 -2.08787 0
M  V30 12509 H 1176.03 -3.46747 -2.74261 0
M  V30 12510 N 1175.09 0.086862 -1.5736 0
M  V30 12511 C 1176.04 1.10478 -2.02641 0
M  V30 12512 C 1177.01 1.39331 -0.904219 0
M  V30 12513 O 1178.19 1.50654 -1.17081 0
M  V30 12514 C 1175.33 2.41754 -2.4627 0
M  V30 12515 C 1174.44 2.19561 -3.72044 0
M  V30 12516 C 1173.58 3.44294 -4.04519 0
M  V30 12517 C 1172.62 3.17399 -5.23378 0
M  V30 12518 N 1171.76 4.3442 -5.51564 0
M  V30 12519 H 1176.6 0.711663 -2.89378 0
M  V30 12520 H 1174.13 0.339856 -1.4312 0
M  V30 12521 H 1176.09 3.18378 -2.69613 0
M  V30 12522 H 1174.72 2.78896 -1.62532 0
M  V30 12523 H 1173.77 1.337 -3.5613 0
M  V30 12524 H 1175.08 1.95685 -4.58812 0
M  V30 12525 H 1174.24 4.29321 -4.28682 0
M  V30 12526 H 1172.98 3.71232 -3.16289 0
M  V30 12527 H 1171.98 2.30765 -4.99026 0
M  V30 12528 H 1173.21 2.91799 -6.13213 0
M  V30 12529 H 1171.15 4.61418 -4.66293 0
M  V30 12530 H 1171.07 4.13764 -6.3272 0
M  V30 12531 H 1172.34 5.20489 -5.80269 0
M  V30 12532 N 1176.57 1.53483 0.357892 0
M  V30 12533 C 1177.98 1.43426 0.700073 0
M  V30 12534 C 1178.18 0.579493 1.92987 0
M  V30 12535 O 1177.24 0.0649086 2.52417 0
M  V30 12536 C 1178.55 2.86723 0.906099 0
M  V30 12537 C 1180.1 2.96405 1.00563 0
M  V30 12538 C 1180.58 4.4078 1.24407 0
M  V30 12539 N 1182.07 4.44243 1.3116 0
M  V30 12540 C 1182.8 5.53069 1.51333 0
M  V30 12541 N 1182.3 6.71928 1.68774 0
M  V30 12542 N 1184.09 5.40659 1.53765 0
M  V30 12543 H 1176.24 2.07559 -0.450894 0
M  V30 12544 H 1178.5 0.937649 -0.139711 0
M  V30 12545 H 1178.21 3.51622 0.0741579 0
M  V30 12546 H 1178.08 3.30827 1.81199 0
M  V30 12547 H 1180.47 2.31656 1.8281 0
M  V30 12548 H 1180.55 2.55684 0.0769512 0
M  V30 12549 H 1180.2 5.06105 0.426575 0
M  V30 12550 H 1180.13 4.7908 2.18608 0
M  V30 12551 H 1182.62 3.58587 1.19265 0
M  V30 12552 H 1182.93 7.50634 1.83762 0
M  V30 12553 H 1181.28 6.749 1.65937 0
M  V30 12554 H 1184.47 4.46764 1.39713 0
M  V30 12555 H 1184.64 6.25535 1.69146 0
M  V30 12556 N 1178.05 -0.61812 1.44973 0
M  V30 12557 C 1179.27 -1.40429 1.51945 0
M  V30 12558 C 1179.69 -1.88215 0.148556 0
M  V30 12559 O 1179.05 -1.61603 -0.847978 0
M  V30 12560 C 1179.1 -2.61588 2.49507 0
M  V30 12561 O 1178.82 -2.15791 3.81269 0
M  V30 12562 C 1180.32 -3.5457 2.66074 0
M  V30 12563 H 1177.54 -0.43023 0.514921 0
M  V30 12564 H 1180.08 -0.754791 1.90061 0
M  V30 12565 H 1178.24 -3.22602 2.14492 0
M  V30 12566 H 1178.65 -2.94434 4.34061 0
M  V30 12567 H 1180.13 -4.36155 3.38338 0
M  V30 12568 H 1180.6 -4.04227 1.71746 0
M  V30 12569 H 1181.21 -2.99416 3.02043 0
M  V30 12570 N 1179.52 -1.32087 -0.859693 0
M  V30 12571 C 1180.94 -1.10968 -1.14709 0
M  V30 12572 C 1181.14 0.113139 -2.01182 0
M  V30 12573 O 1180.2 0.799499 -2.39508 0
M  V30 12574 C 1181.51 -2.38657 -1.8293 0
M  V30 12575 C 1183.06 -2.44366 -1.95587 0
M  V30 12576 C 1183.53 -3.71963 -2.67222 0
M  V30 12577 N 1185.02 -3.72916 -2.7475 0
M  V30 12578 C 1185.76 -4.68346 -3.30816 0
M  V30 12579 N 1185.25 -5.74139 -3.87732 0
M  V30 12580 N 1187.05 -4.55851 -3.28872 0
M  V30 12581 H 1179.2 -2.10497 -0.283711 0
M  V30 12582 H 1181.46 -0.929108 -0.188315 0
M  V30 12583 H 1181.17 -3.2803 -1.26844 0
M  V30 12584 H 1181.04 -2.49236 -2.83128 0
M  V30 12585 H 1183.43 -1.55456 -2.50833 0
M  V30 12586 H 1183.51 -2.37744 -0.944001 0
M  V30 12587 H 1183.15 -4.61245 -2.1264 0
M  V30 12588 H 1183.08 -3.75855 -3.68837 0
M  V30 12589 H 1185.57 -2.96447 -2.34367 0
M  V30 12590 H 1185.89 -6.43021 -4.28654 0
M  V30 12591 H 1184.23 -5.779 -3.86078 0
M  V30 12592 H 1187.42 -3.72371 -2.83651 0
M  V30 12593 H 1187.6 -5.30398 -3.72266 0
M  V30 12594 N 1181 1.07532 -1.15215 0
M  V30 12595 C 1181.95 2.16785 -0.843022 0
M  V30 12596 C 1182.94 1.68411 0.182802 0
M  V30 12597 O 1184.15 1.7996 0.0380164 0
M  V30 12598 H 1180.52 0.707465 -0.254945 0
M  V30 12599 H 1182.5 2.40078 -1.77215 0
M  V30 12600 C 1181.24 3.45967 -0.346699 0
M  V30 12601 H 1180.57 3.83574 -1.12744 0
M  V30 12602 H 1182.01 4.23663 -0.169039 0
M  V30 12603 C 1180.47 3.23768 0.931437 0
M  V30 12604 O 1181 3.48179 2.00336 0
M  V30 12605 N 1179.2 2.77264 0.870217 0
M  V30 12606 H 1178.75 2.576 -0.00226223 0
M  V30 12607 H 1178.71 2.6279 1.72594 0
M  V30 12608 N 1182.48 0.948665 1.2585 0
M  V30 12609 C 1183.9 0.652147 1.45668 0
M  V30 12610 C 1184.1 -0.792217 1.85273 0
M  V30 12611 O 1183.15 -1.56812 1.97905 0
M  V30 12612 C 1184.47 1.61998 2.53332 0
M  V30 12613 C 1186.01 1.6305 2.67178 0
M  V30 12614 C 1186.49 2.58582 3.78021 0
M  V30 12615 N 1187.98 2.56911 3.85423 0
M  V30 12616 C 1188.71 3.27511 4.70664 0
M  V30 12617 N 1188.21 4.07563 5.60236 0
M  V30 12618 N 1190 3.16427 4.64576 0
M  V30 12619 H 1182.15 1.88215 0.984325 0
M  V30 12620 H 1184.42 0.809251 0.493778 0
M  V30 12621 H 1184.12 2.65137 2.31075 0
M  V30 12622 H 1184 1.37784 3.51134 0
M  V30 12623 H 1186.38 0.606315 2.88804 0
M  V30 12624 H 1186.47 1.9132 1.69795 0
M  V30 12625 H 1186.11 3.61122 3.57146 0
M  V30 12626 H 1186.04 2.27598 4.74875 0
M  V30 12627 H 1188.53 1.9879 3.21389 0
M  V30 12628 H 1188.84 4.58367 6.22189 0
M  V30 12629 H 1187.19 4.11662 5.59964 0
M  V30 12630 H 1190.38 2.53364 3.93604 0
M  V30 12631 H 1190.55 3.71714 5.30785 0
M  V30 12632 N 1183.96 -1.40369 0.716545 0
M  V30 12633 C 1185.18 -2.05704 0.264729 0
M  V30 12634 C 1185.61 -1.53634 -1.08527 0
M  V30 12635 O 1184.97 -0.67212 -1.68381 0
M  V30 12636 C 1185.01 -3.59692 0.255778 0
M  V30 12637 O 1184.12 -4.05286 -0.762686 0
M  V30 12638 H 1183.46 -0.652301 0.124092 0
M  V30 12639 H 1185.99 -1.7975 0.977295 0
M  V30 12640 H 1186 -4.07892 0.0937944 0
M  V30 12641 H 1184.67 -3.96955 1.24095 0
M  V30 12642 H 1183.25 -3.68543 -0.568347 0
M  V30 12643 N 1185.44 -0.462799 -1.50652 0
M  V30 12644 C 1186.38 0.335664 -2.28346 0
M  V30 12645 C 1187.35 0.994541 -1.33034 0
M  V30 12646 O 1188.54 1.00857 -1.61964 0
M  V30 12647 C 1185.68 1.41648 -3.1469 0
M  V30 12648 C 1184.79 0.773207 -4.25024 0
M  V30 12649 C 1183.93 1.83121 -4.98638 0
M  V30 12650 C 1182.97 1.16774 -6.00858 0
M  V30 12651 N 1182.1 2.16823 -6.67782 0
M  V30 12652 H 1186.94 -0.333202 -2.96131 0
M  V30 12653 H 1184.48 -0.176166 -1.46041 0
M  V30 12654 H 1186.44 2.05468 -3.63096 0
M  V30 12655 H 1185.07 2.05462 -2.48968 0
M  V30 12656 H 1184.12 0.0226444 -3.80393 0
M  V30 12657 H 1185.43 0.249061 -4.98178 0
M  V30 12658 H 1184.59 2.54543 -5.5072 0
M  V30 12659 H 1183.32 2.38915 -4.25172 0
M  V30 12660 H 1182.33 0.439112 -5.48044 0
M  V30 12661 H 1183.55 0.616809 -6.76293 0
M  V30 12662 H 1181.5 2.71649 -5.97112 0
M  V30 12663 H 1181.42 1.69371 -7.36783 0
M  V30 12664 H 1182.69 2.8765 -7.24484 0
M  V30 12665 N 1186.91 1.56388 -0.195085 0
M  V30 12666 C 1187.82 2.22698 0.737743 0
M  V30 12667 C 1188.84 1.22605 1.23466 0
M  V30 12668 O 1190.02 1.55342 1.28183 0
M  V30 12669 C 1187.08 2.87333 1.94011 0
M  V30 12670 C 1186.14 4.02696 1.48776 0
M  V30 12671 C 1185.38 4.64239 2.63282 0
M  V30 12672 O 1185.6 4.24706 3.80763 0
M  V30 12673 O 1184.53 5.53705 2.35996 0
M  V30 12674 H 1188.36 3.03021 0.203013 0
M  V30 12675 H 1185.94 1.49361 0.0342044 0
M  V30 12676 H 1187.83 3.28226 2.64284 0
M  V30 12677 H 1186.5 2.0999 2.46345 0
M  V30 12678 H 1185.41 3.66426 0.753839 0
M  V30 12679 H 1186.74 4.81703 1.01109 0
M  V30 12680 O 1188.43 0.0579658 1.61396 0
M  V30 12681 H 1189.12 -0.550362 1.85717 0
M  V30 END ATOM
M  V30 BEGIN BOND
M  V30 END BOND
M  V30 END CTAB
M  END
$$$$
