drugbank_target|Q9Y666 Solute carrier family 12 member 7 (DB00761)
 OpenBabel12092119283D

  0  0  0     0  0            999 V3000
M  V30 BEGIN CTAB
M  V30 COUNTS 16755 16940 0 0 0
M  V30 BEGIN ATOM
M  V30 1 H -0.908 1.98254 -0.117106 0
M  V30 2 N 0 1.576 0 0
M  V30 3 C 0.933 2.03868 1.02534 0
M  V30 4 C 1.911 0.928543 1.3348 0
M  V30 5 O 3.095 1.19667 1.45644 0
M  V30 6 C 0.222 2.43627 2.35294 0
M  V30 7 C -0.732 3.65373 2.2001 0
M  V30 8 S 0.101 5.13292 1.52614 0
M  V30 9 C 1.257 5.56322 2.86805 0
M  V30 10 H 1.49 2.90518 0.631377 0
M  V30 11 H -0.977 1.52953 0.210867 0
M  V30 12 H 0.981 2.67203 3.11629 0
M  V30 13 H -0.358 1.57376 2.7183 0
M  V30 14 H -1.165 3.90944 3.18086 0
M  V30 15 H -1.563 3.418 1.51819 0
M  V30 16 H 0.729 5.58782 3.83104 0
M  V30 17 H 1.672 6.56266 2.65933 0
M  V30 18 H 2.08 4.83886 2.90714 0
M  V30 19 N 1.4781 -0.272755 1.55222 0
M  V30 20 C 2.8891 -0.84378 1.66545 0
M  V30 21 C 3.2401 -1.87035 0.592641 0
M  V30 22 O 2.3651 -2.14761 -0.265818 0
M  V30 23 C 2.9601 -1.53723 3.01918 0
M  V30 24 C 1.5191 -2.05628 3.15268 0
M  V30 25 C 0.6661 -0.898424 2.62343 0
M  V30 26 H 3.6171 -0.0490998 1.58624 0
M  V30 27 H 3.6381 -2.40421 2.94921 0
M  V30 28 H 3.1501 -0.78983 3.79978 0
M  V30 29 H 1.2511 -2.83329 2.41983 0
M  V30 30 H 1.3641 -2.27142 4.21833 0
M  V30 31 H -0.2719 -1.29186 2.19506 0
M  V30 32 H 0.5111 -0.164528 3.42906 0
M  V30 33 N 2.9562 -1.48159 -0.537278 0
M  V30 34 C 4.1842 -1.59454 -1.31841 0
M  V30 35 C 4.5992 -0.252065 -1.8711 0
M  V30 36 O 3.9562 0.757621 -1.66031 0
M  V30 37 C 4.0072 -2.63546 -2.47439 0
M  V30 38 O 3.7282 -3.92583 -1.94449 0
M  V30 39 C 5.2292 -2.85212 -3.39366 0
M  V30 40 H 2.4492 -0.53785 -0.401196 0
M  V30 41 H 4.9932 -1.93932 -0.648891 0
M  V30 42 H 3.1482 -2.31946 -3.1029 0
M  V30 43 H 3.5622 -4.49629 -2.70063 0
M  V30 44 H 5.0362 -3.61863 -4.16844 0
M  V30 45 H 5.5132 -1.93765 -3.94147 0
M  V30 46 H 6.1192 -3.18086 -2.82314 0
M  V30 47 N 4.4343 0.785586 -1.36625 0
M  V30 48 C 5.3823 1.91978 -1.31329 0
M  V30 49 C 6.3763 1.68162 -0.204416 0
M  V30 50 O 7.5823 1.76122 -0.371645 0
M  V30 51 H 3.9573 0.631087 -0.408942 0
M  V30 52 H 5.9283 1.93562 -2.27104 0
M  V30 53 C 4.6773 3.29055 -1.12329 0
M  V30 54 H 4.0003 3.4795 -1.96903 0
M  V30 55 H 5.4403 4.08756 -1.12671 0
M  V30 56 C 3.8993 3.36461 0.171861 0
M  V30 57 O 4.4293 3.84576 1.16035 0
M  V30 58 N 2.6353 2.89782 0.217846 0
M  V30 59 H 2.1823 2.50819 -0.587183 0
M  V30 60 H 2.1403 2.95119 1.08408 0
M  V30 61 N 5.9124 1.20967 1.01018 0
M  V30 62 C 7.1594 1.02374 1.74716 0
M  V30 63 C 7.4874 -0.443375 1.89379 0
M  V30 64 O 6.7424 -1.34535 1.42123 0
M  V30 65 C 7.0414 1.65997 3.16512 0
M  V30 66 C 6.7074 3.15831 3.2181 0
M  V30 67 C 5.3694 3.56719 3.22963 0
M  V30 68 C 7.7214 4.11816 3.19464 0
M  V30 69 C 5.0494 4.92107 3.19449 0
M  V30 70 C 7.4014 5.47158 3.17491 0
M  V30 71 C 6.0654 5.87451 3.16951 0
M  V30 72 H 5.3354 0.374614 0.639332 0
M  V30 73 H 7.9824 1.50485 1.18434 0
M  V30 74 H 6.2874 1.10166 3.75993 0
M  V30 75 H 7.9844 1.49119 3.72242 0
M  V30 76 H 4.5744 2.83263 3.21652 0
M  V30 77 H 8.7584 3.81257 3.17737 0
M  V30 78 H 4.0144 5.22579 3.17366 0
M  V30 79 H 8.1884 6.21274 3.14629 0
M  V30 80 H 5.8154 6.92329 3.13983 0
M  V30 81 N 7.3905 -1.2043 1.01659 0
M  V30 82 C 8.6185 -1.93777 0.725132 0
M  V30 83 C 9.0335 -1.74772 -0.714166 0
M  V30 84 O 8.3905 -1.06169 -1.4844 0
M  V30 85 C 8.4415 -3.45876 1.05129 0
M  V30 86 O 8.1625 -3.6426 2.43406 0
M  V30 87 C 9.6635 -4.36368 0.780891 0
M  V30 88 H 6.8835 -0.615901 0.266284 0
M  V30 89 H 9.4275 -1.52922 1.35776 0
M  V30 90 H 7.5825 -3.8461 0.464065 0
M  V30 91 H 7.9965 -4.58246 2.55169 0
M  V30 92 H 9.4705 -5.41743 1.05918 0
M  V30 93 H 9.9475 -4.38275 -0.284937 0
M  V30 94 H 10.5535 -4.03296 1.35027 0
M  V30 95 N 8.8686 -0.792821 -1.36206 0
M  V30 96 C 10.1146 -0.36733 -1.99446 0
M  V30 97 C 10.4476 1.05917 -1.62774 0
M  V30 98 O 9.7226 1.7324 -0.88421 0
M  V30 99 C 10.0056 -0.535044 -3.56103 0
M  V30 100 C 9.8586 -2.00548 -4.02617 0
M  V30 101 C 11.1776 0.0478191 -4.40074 0
M  V30 102 H 8.2966 -0.134941 -0.724541 0
M  V30 103 H 10.9386 -0.999794 -1.61568 0
M  V30 104 H 9.0886 0.00336329 -3.885 0
M  V30 105 H 10.7606 -2.60521 -3.80692 0
M  V30 106 H 9.0036 -2.50686 -3.54032 0
M  V30 107 H 9.6746 -2.07377 -5.11565 0
M  V30 108 H 12.1506 -0.411822 -4.14057 0
M  V30 109 H 11.0266 -0.0995336 -5.4881 0
M  V30 110 H 11.2876 1.14025 -4.27142 0
M  V30 111 N 10.3467 1.47872 -0.545128 0
M  V30 112 C 11.5927 2.02793 -0.0166104 0
M  V30 113 C 11.9257 1.41987 1.32489 0
M  V30 114 O 11.2007 0.571045 1.85928 0
M  V30 115 C 11.4837 3.59989 0.0893294 0
M  V30 116 C 11.3367 4.3125 -1.27841 0
M  V30 117 C 12.6557 4.32606 0.808724 0
M  V30 118 H 9.7747 0.736962 -0.00751035 0
M  V30 119 H 12.4167 1.76433 -0.705085 0
M  V30 120 H 10.5667 3.82579 0.675681 0
M  V30 121 H 12.2387 4.20035 -1.90704 0
M  V30 122 H 10.4817 3.92076 -1.85632 0
M  V30 123 H 11.1527 5.39736 -1.15713 0
M  V30 124 H 13.6287 4.14936 0.310992 0
M  V30 125 H 12.5047 5.42251 0.851782 0
M  V30 126 H 12.7657 4.00963 1.86229 0
M  V30 127 N 11.8248 0.280983 1.55075 0
M  V30 128 C 13.2358 -0.215629 1.85451 0
M  V30 129 C 13.5868 -1.54991 1.203 0
M  V30 130 O 12.7118 -2.10699 0.493435 0
M  V30 131 C 13.3068 -0.398026 3.36454 0
M  V30 132 C 11.8658 -0.838866 3.66933 0
M  V30 133 C 11.0128 0.064458 2.77225 0
M  V30 134 H 13.9638 0.502601 1.50531 0
M  V30 135 H 13.9848 -1.23569 3.59876 0
M  V30 136 H 13.4968 0.573241 3.83843 0
M  V30 137 H 11.5978 -1.8214 3.25048 0
M  V30 138 H 11.7108 -0.672123 4.74362 0
M  V30 139 H 10.0748 -0.452863 2.50642 0
M  V30 140 H 10.8578 1.03172 3.2743 0
M  V30 141 N 13.3029 -1.57598 0.00835791 0
M  V30 142 C 14.5489 -1.91211 -0.675732 0
M  V30 143 C 14.8819 -0.883139 -1.72958 0
M  V30 144 O 14.1569 0.097016 -1.94258 0
M  V30 145 C 14.4399 -3.35379 -1.31123 0
M  V30 146 C 14.2929 -4.48999 -0.268356 0
M  V30 147 C 15.6119 -3.7912 -2.23508 0
M  V30 148 H 12.7309 -0.695374 -0.244179 0
M  V30 149 H 15.3729 -1.89901 0.0613655 0
M  V30 150 H 13.5229 -3.36626 -1.93946 0
M  V30 151 H 15.1949 -4.59887 0.360844 0
M  V30 152 H 13.4379 -4.31873 0.408482 0
M  V30 153 H 14.1089 -5.46851 -0.752218 0
M  V30 154 H 16.5849 -3.79477 -1.70693 0
M  V30 155 H 15.4609 -4.80729 -2.64936 0
M  V30 156 H 15.7219 -3.13455 -3.11766 0
M  V30 157 N 14.781 0.264519 -1.55364 0
M  V30 158 C 15.691 1.34902 -1.91934 0
M  V30 159 C 16.707 1.53595 -0.817593 0
M  V30 160 O 17.883 1.67558 -1.11742 0
M  V30 161 C 14.948 2.68676 -2.19121 0
M  V30 162 C 14.009 2.58657 -3.4263 0
M  V30 163 C 13.242 3.86051 -3.68511 0
M  V30 164 O 13.465 4.87126 -2.96757 0
M  V30 165 O 12.399 3.85744 -4.62045 0
M  V30 166 H 16.225 1.06883 -2.8427 0
M  V30 167 H 13.81 0.463775 -1.42019 0
M  V30 168 H 15.692 3.47759 -2.37995 0
M  V30 169 H 14.367 2.96463 -1.29966 0
M  V30 170 H 13.274 1.7792 -3.29082 0
M  V30 171 H 14.607 2.35818 -4.32031 0
M  V30 172 N 16.2591 1.48442 0.529413 0
M  V30 173 C 17.2221 1.62524 1.61612 0
M  V30 174 C 18.2221 0.498509 1.52877 0
M  V30 175 O 19.4121 0.76431 1.56537 0
M  V30 176 C 16.5441 1.59597 3.01233 0
M  V30 177 H 17.7371 2.59423 1.50465 0
M  V30 178 H 15.2901 1.37047 0.751514 0
M  V30 179 H 16.0251 0.641781 3.17886 0
M  V30 180 H 15.8101 2.41397 3.08982 0
M  V30 181 H 17.3001 1.72646 3.80241 0
M  V30 182 N 17.7372 -0.778329 1.37039 0
M  V30 183 C 18.6872 -1.88142 1.28789 0
M  V30 184 C 19.6712 -1.59923 0.177063 0
M  V30 185 O 20.8632 -1.72165 0.410873 0
M  V30 186 C 17.9922 -3.25518 1.09055 0
M  V30 187 C 17.0782 -3.5971 2.24654 0
M  V30 188 N 17.4692 -3.65131 3.50018 0
M  V30 189 C 15.7672 -3.89837 2.16663 0
M  V30 190 C 16.4682 -3.95882 4.26207 0
M  V30 191 N 15.4442 -4.11441 3.55271 0
M  V30 192 H 19.2462 -1.90575 2.23737 0
M  V30 193 H 16.7602 -0.974435 1.29917 0
M  V30 194 H 18.7572 -4.04423 1.0123 0
M  V30 195 H 17.4172 -3.24353 0.15018 0
M  V30 196 H 18.4282 -3.475 3.84011 0
M  V30 197 H 15.1052 -3.96533 1.30645 0
M  V30 198 H 16.4952 -4.06907 5.34674 0
M  V30 199 N 19.2153 -1.21501 -1.00376 0
M  V30 200 C 20.1783 -0.976927 -2.07337 0
M  V30 201 C 21.1783 0.0525322 -1.60714 0
M  V30 202 O 22.3683 -0.184869 -1.73216 0
M  V30 203 C 19.5003 -0.473423 -3.37597 0
M  V30 204 H 20.6933 -1.92587 -2.29892 0
M  V30 205 H 18.2463 -1.03217 -1.17371 0
M  V30 206 H 18.9813 0.480379 -3.20722 0
M  V30 207 H 18.7663 -1.216 -3.72768 0
M  V30 208 H 20.2563 -0.32675 -4.1632 0
M  V30 209 N 20.6934 1.19889 -1.02296 0
M  V30 210 C 21.9704 1.85148 -0.630832 0
M  V30 211 C 22.3504 1.91385 0.890782 0
M  V30 212 O 21.6984 1.42642 1.78509 0
M  V30 213 C 21.9084 3.24442 -1.28602 0
M  V30 214 C 23.2564 4.00663 -1.4055 0
M  V30 215 O 24.2804 3.33818 -1.24273 0
M  V30 216 O 23.1394 5.20387 -1.66913 0
M  V30 217 H 20.2334 0.797613 -0.218499 0
M  V30 218 H 22.7794 1.27427 -1.12074 0
M  V30 219 H 21.5514 3.14704 -2.32545 0
M  V30 220 H 21.1744 3.89802 -0.7836 0
M  V30 221 N 22.1715 0.800033 1.35784 0
M  V30 222 C 23.4195 0.376597 1.9856 0
M  V30 223 C 23.7405 -1.05812 1.63795 0
M  V30 224 O 23.0105 -1.73103 0.917171 0
M  V30 225 H 21.5905 0.136261 0.734467 0
M  V30 226 H 24.2525 1.02442 1.65806 0
M  V30 227 H 23.3485 0.477002 3.08433 0
M  V30 228 N 23.6496 -1.47581 0.552962 0
M  V30 229 C 24.8976 -2.02082 0.0272703 0
M  V30 230 C 25.2186 -1.4301 -1.32563 0
M  V30 231 O 24.4886 -0.603745 -1.86365 0
M  V30 232 H 23.0686 -0.746966 0.00709182 0
M  V30 233 H 25.7306 -1.81033 0.722008 0
M  V30 234 H 24.8266 -3.12034 -0.0639951 0
M  V30 235 N 25.1277 -0.289203 -1.54924 0
M  V30 236 C 26.3757 0.322879 -1.99504 0
M  V30 237 C 26.6967 1.55313 -1.1791 0
M  V30 238 O 25.9667 1.94001 -0.272097 0
M  V30 239 H 24.5467 0.122291 -0.736922 0
M  V30 240 H 27.2087 -0.397802 -1.90797 0
M  V30 241 H 26.3047 0.603061 -3.06218 0
M  V30 242 N 26.6058 1.57591 -0.0167156 0
M  V30 243 C 27.8828 1.82547 0.702564 0
M  V30 244 C 28.2628 0.898018 1.91047 0
M  V30 245 O 27.6108 -0.0493456 2.28447 0
M  V30 246 C 27.8208 3.31459 1.09251 0
M  V30 247 C 29.1688 3.97622 1.48937 0
M  V30 248 O 30.1928 3.35881 1.18584 0
M  V30 249 O 29.0518 5.06415 2.05442 0
M  V30 250 H 26.1458 0.752268 0.343544 0
M  V30 251 H 28.6918 1.69644 -0.0434495 0
M  V30 252 H 27.4638 3.9061 0.23227 0
M  V30 253 H 27.0868 3.49422 1.89709 0
M  V30 254 N 28.0839 -0.256276 1.55502 0
M  V30 255 C 28.9939 -1.33882 1.92647 0
M  V30 256 C 30.0099 -1.53159 0.825727 0
M  V30 257 O 31.1859 -1.66963 1.12629 0
M  V30 258 C 28.2509 -2.6751 2.20543 0
M  V30 259 C 27.3119 -2.56836 3.43997 0
M  V30 260 C 26.5449 -3.84092 3.70553 0
M  V30 261 O 26.7679 -4.85545 2.99336 0
M  V30 262 O 25.7019 -3.83288 4.64084 0
M  V30 263 H 29.5279 -1.05374 2.84833 0
M  V30 264 H 27.1129 -0.456237 1.42263 0
M  V30 265 H 28.9949 -3.46492 2.39835 0
M  V30 266 H 27.6699 -2.9577 1.31536 0
M  V30 267 H 26.5769 -1.76172 3.30021 0
M  V30 268 H 27.9099 -2.33523 4.33275 0
M  V30 269 N 29.562 -1.4872 -0.521534 0
M  V30 270 C 30.79 -1.60843 -1.30142 0
M  V30 271 C 31.205 -0.271897 -1.86832 0
M  V30 272 O 30.562 0.739969 -1.66825 0
M  V30 273 C 30.613 -2.66155 -2.4463 0
M  V30 274 O 30.334 -3.94623 -1.90275 0
M  V30 275 C 31.835 -2.88795 -3.36322 0
M  V30 276 H 29.055 -0.542075 -0.395468 0
M  V30 277 H 31.599 -1.94609 -0.628285 0
M  V30 278 H 29.754 -2.35224 -3.07812 0
M  V30 279 H 30.168 -4.52468 -2.65279 0
M  V30 280 H 31.642 -3.66264 -4.12983 0
M  V30 281 H 32.119 -1.97934 -3.9207 0
M  V30 282 H 32.725 -3.21063 -2.78924 0
M  V30 283 N 31.0401 0.771051 -1.3745 0
M  V30 284 C 32.0031 1.86598 -1.33093 0
M  V30 285 C 33.0031 1.59076 -0.234845 0
M  V30 286 O 34.1931 1.67145 -0.490732 0
M  V30 287 C 31.3251 3.23747 -1.06773 0
M  V30 288 H 32.5181 1.91873 -2.30488 0
M  V30 289 H 30.0711 0.970876 -1.2249 0
M  V30 290 H 30.8061 3.24148 -0.099129 0
M  V30 291 H 30.5911 3.45115 -1.86112 0
M  V30 292 H 32.0811 4.03824 -1.06377 0
M  V30 293 N 32.5182 1.22032 0.997298 0
M  V30 294 C 33.4282 1.00271 2.12092 0
M  V30 295 C 34.4442 -0.047621 1.73935 0
M  V30 296 O 35.6202 0.144136 2.00884 0
M  V30 297 C 32.6852 0.578449 3.4184 0
M  V30 298 C 31.7462 1.70189 3.94125 0
M  V30 299 C 30.9792 1.29778 5.17681 0
M  V30 300 O 31.2022 0.174676 5.70132 0
M  V30 301 O 30.1362 2.11261 5.63607 0
M  V30 302 H 33.9622 1.94398 2.3333 0
M  V30 303 H 31.5472 1.00587 1.10465 0
M  V30 304 H 33.4292 0.351998 4.19927 0
M  V30 305 H 32.1042 -0.334019 3.21972 0
M  V30 306 H 31.0112 1.98282 3.1723 0
M  V30 307 H 32.3442 2.59206 4.18417 0
M  V30 308 N 33.9963 -1.19345 1.0293 0
M  V30 309 C 35.4123 -1.41069 0.746446 0
M  V30 310 C 35.6123 -1.90078 -0.668776 0
M  V30 311 O 34.6683 -2.0778 -1.4347 0
M  V30 312 C 35.9813 -2.42141 1.78292 0
M  V30 313 C 37.5293 -2.55887 1.80252 0
M  V30 314 C 38.0043 -3.60214 2.8286 0
M  V30 315 N 39.4953 -3.67711 2.81679 0
M  V30 316 C 40.2303 -4.48128 3.57727 0
M  V30 317 N 39.7263 -5.32248 4.43491 0
M  V30 318 N 41.5193 -4.42782 3.46267 0
M  V30 319 H 33.6703 -0.858536 1.94275 0
M  V30 320 H 35.9333 -0.439541 0.839945 0
M  V30 321 H 35.6393 -2.13155 2.79746 0
M  V30 322 H 35.5133 -3.41323 1.60557 0
M  V30 323 H 37.9003 -2.84196 0.794757 0
M  V30 324 H 37.9813 -1.56858 2.02062 0
M  V30 325 H 37.6253 -3.32647 3.83807 0
M  V30 326 H 37.5553 -4.58895 2.58307 0
M  V30 327 H 40.0463 -3.07634 2.19476 0
M  V30 328 H 40.3593 -5.90729 4.98256 0
M  V30 329 H 38.7043 -5.31707 4.47564 0
M  V30 330 H 41.8953 -3.76107 2.78677 0
M  V30 331 H 42.0683 -5.05215 4.05785 0
M  V30 332 N 35.4744 -0.807222 -1.35358 0
M  V30 333 C 36.7024 -0.400377 -2.02989 0
M  V30 334 C 37.1174 0.988859 -1.60832 0
M  V30 335 O 36.4744 1.63729 -0.806175 0
M  V30 336 C 36.5254 -0.474867 -3.58368 0
M  V30 337 O 36.2464 -1.80933 -3.98992 0
M  V30 338 C 37.7474 -0.0609112 -4.43258 0
M  V30 339 H 34.9674 -0.162587 -0.651004 0
M  V30 340 H 37.5114 -1.09102 -1.72965 0
M  V30 341 H 35.6664 0.167534 -3.87038 0
M  V30 342 H 36.0804 -1.77256 -4.9364 0
M  V30 343 H 37.5544 -0.164145 -5.51756 0
M  V30 344 H 38.0314 0.993831 -4.27808 0
M  V30 345 H 38.6374 -0.676492 -4.19885 0
M  V30 346 N 36.9525 1.47285 -0.560781 0
M  V30 347 C 37.8625 2.33846 0.187954 0
M  V30 348 C 38.8785 1.48412 0.908293 0
M  V30 349 O 40.0545 1.81332 0.876388 0
M  V30 350 C 37.1195 3.25178 1.2025 0
M  V30 351 C 36.1805 4.26504 0.489208 0
M  V30 352 C 35.4135 5.13472 1.45542 0
M  V30 353 O 35.6365 5.02959 2.6905 0
M  V30 354 O 34.5705 5.93902 0.977963 0
M  V30 355 H 38.3965 2.99177 -0.522177 0
M  V30 356 H 35.9815 1.45903 -0.321364 0
M  V30 357 H 37.8635 3.81584 1.78805 0
M  V30 358 H 36.5385 2.6247 1.89449 0
M  V30 359 H 35.4455 3.73847 -0.137627 0
M  V30 360 H 36.7785 4.91935 -0.161399 0
M  V30 361 N 38.4306 0.297415 1.54768 0
M  V30 362 C 39.3936 -0.567375 2.22066 0
M  V30 363 C 40.3936 -1.06409 1.20556 0
M  V30 364 O 41.5836 -0.960691 1.45315 0
M  V30 365 C 38.7156 -1.78517 2.90421 0
M  V30 366 H 39.9086 0.0205534 2.99893 0
M  V30 367 H 37.4616 0.0482163 1.56226 0
M  V30 368 H 38.1966 -2.41303 2.16664 0
M  V30 369 H 37.9816 -1.43669 3.64831 0
M  V30 370 H 39.4716 -2.39964 3.41771 0
M  V30 371 N 39.9087 -1.5758 0.0250728 0
M  V30 372 C 41.3197 -1.79476 -0.514323 0
M  V30 373 C 41.6707 -0.934956 -1.72491 0
M  V30 374 O 40.7957 -0.144245 -2.15919 0
M  V30 375 C 41.3907 -3.25503 -0.939842 0
M  V30 376 C 39.9497 -3.48408 -1.42438 0
M  V30 377 C 39.0967 -2.74583 -0.387201 0
M  V30 378 H 42.0477 -1.567 0.25113 0
M  V30 379 H 42.0687 -3.34992 -1.80445 0
M  V30 380 H 41.5807 -3.88056 -0.0585628 0
M  V30 381 H 39.6817 -2.91103 -2.32572 0
M  V30 382 H 39.7947 -4.57119 -1.43455 0
M  V30 383 H 38.1587 -2.39942 -0.854409 0
M  V30 384 H 38.9417 -3.39849 0.485543 0
M  V30 385 N 41.3868 0.248026 -1.55636 0
M  V30 386 C 42.6348 0.974295 -1.77065 0
M  V30 387 C 42.9558 1.85897 -0.588849 0
M  V30 388 O 42.2258 1.91868 0.395407 0
M  V30 389 H 40.8058 0.362733 -0.653019 0
M  V30 390 H 43.4678 0.266244 -1.93073 0
M  V30 391 H 42.5638 1.59667 -2.68166 0
M  V30 392 N 42.8649 1.48995 0.513639 0
M  V30 393 C 44.0929 1.61531 1.29288 0
M  V30 394 C 44.5079 0.281801 1.86685 0
M  V30 395 O 43.8649 -0.731111 1.67215 0
M  V30 396 C 43.9159 2.67449 2.43215 0
M  V30 397 O 43.6369 3.95626 1.88179 0
M  V30 398 C 45.1379 2.90575 3.34785 0
M  V30 399 H 42.3579 0.544165 0.392588 0
M  V30 400 H 44.9019 1.9494 0.617956 0
M  V30 401 H 43.0569 2.36853 3.0656 0
M  V30 402 H 43.4709 4.53868 2.62876 0
M  V30 403 H 44.9449 3.68449 4.11035 0
M  V30 404 H 45.4219 2.00011 3.91015 0
M  V30 405 H 46.0279 3.22538 2.77218 0
M  V30 406 N 44.343 -0.763751 1.37857 0
M  V30 407 C 45.754 -1.3405 1.29952 0
M  V30 408 C 46.105 -1.96138 -0.0492898 0
M  V30 409 O 45.23 -1.94372 -0.951239 0
M  V30 410 C 45.825 -2.43729 2.35333 0
M  V30 411 C 44.384 -2.97151 2.31037 0
M  V30 412 C 43.531 -1.70438 2.18738 0
M  V30 413 H 46.482 -0.563396 1.48363 0
M  V30 414 H 46.503 -3.23412 2.00462 0
M  V30 415 H 46.015 -1.9851 3.33489 0
M  V30 416 H 44.116 -3.46724 1.3643 0
M  V30 417 H 44.229 -3.52221 3.24772 0
M  V30 418 H 42.593 -1.93673 1.65418 0
M  V30 419 H 43.376 -1.27312 3.18821 0
M  V30 420 N 45.8211 -1.22559 -0.990812 0
M  V30 421 C 46.7311 -1.01394 -2.11557 0
M  V30 422 C 47.7471 0.0383962 -1.73958 0
M  V30 423 O 48.9231 -0.154787 -2.00804 0
M  V30 424 C 45.9881 -0.596569 -3.41529 0
M  V30 425 C 45.0491 -1.72276 -3.93217 0
M  V30 426 C 44.2821 -1.32521 -5.16985 0
M  V30 427 O 44.5051 -0.204909 -5.70032 0
M  V30 428 O 43.4391 -2.14247 -5.62478 0
M  V30 429 H 47.2651 -1.95633 -2.32296 0
M  V30 430 H 44.8501 -1.01172 -1.0993 0
M  V30 431 H 46.7321 -0.374263 -4.19735 0
M  V30 432 H 45.4071 0.316939 -3.22145 0
M  V30 433 H 44.3141 -1.99961 -3.16174 0
M  V30 434 H 45.6471 -2.61421 -4.17037 0
M  V30 435 N 47.2992 1.18797 -1.03562 0
M  V30 436 C 48.5472 1.88278 -0.734569 0
M  V30 437 C 48.8682 1.8043 0.739586 0
M  V30 438 O 48.1382 1.21925 1.53333 0
M  V30 439 H 46.7182 0.696991 -0.268725 0
M  V30 440 H 49.3802 1.44192 -1.31129 0
M  V30 441 H 48.4762 2.94443 -1.03489 0
M  V30 442 N 48.7773 0.814389 1.34928 0
M  V30 443 C 50.1883 0.458364 1.80986 0
M  V30 444 C 50.5393 -1.02042 1.67577 0
M  V30 445 O 49.6643 -1.79352 1.21086 0
M  V30 446 C 50.2593 0.825212 3.28597 0
M  V30 447 C 48.8183 0.521677 3.72767 0
M  V30 448 C 47.9653 1.04668 2.56788 0
M  V30 449 H 50.9163 1.00533 1.22795 0
M  V30 450 H 50.9373 0.12571 3.80292 0
M  V30 451 H 50.4493 1.90154 3.38324 0
M  V30 452 H 48.5503 -0.545589 3.68584 0
M  V30 453 H 48.6633 1.05977 4.67232 0
M  V30 454 H 47.0273 0.468622 2.50352 0
M  V30 455 H 47.8103 2.12927 2.6929 0
M  V30 456 N 50.2554 -1.46986 0.568584 0
M  V30 457 C 51.1654 -2.33942 -0.17555 0
M  V30 458 C 52.1814 -1.48891 -0.90041 0
M  V30 459 O 53.3574 -1.81794 -0.86676 0
M  V30 460 C 50.4224 -3.25811 -1.18524 0
M  V30 461 C 49.4834 -4.26757 -0.466582 0
M  V30 462 C 48.7164 -5.14236 -1.42817 0
M  V30 463 O 48.9394 -5.04379 -2.66379 0
M  V30 464 O 47.8734 -5.94412 -0.946453 0
M  V30 465 H 51.6994 -2.98896 0.538036 0
M  V30 466 H 49.2844 -1.4573 0.329097 0
M  V30 467 H 51.1664 -3.82527 -1.76779 0
M  V30 468 H 49.8414 -2.63471 -1.88055 0
M  V30 469 H 48.7484 -3.73769 0.157451 0
M  V30 470 H 50.0814 -4.91843 0.187485 0
M  V30 471 N 51.7335 -0.305618 -1.54608 0
M  V30 472 C 53.1445 0.186098 -1.8577 0
M  V30 473 C 53.4955 1.53058 -1.22751 0
M  V30 474 O 52.6205 2.09888 -0.526893 0
M  V30 475 C 53.2155 0.344449 -3.37044 0
M  V30 476 C 51.7745 0.780384 -3.68221 0
M  V30 477 C 50.9215 -0.108554 -2.77087 0
M  V30 478 H 53.8725 -0.526485 -1.49712 0
M  V30 479 H 53.8935 1.17828 -3.61796 0
M  V30 480 H 53.4055 -0.634235 -3.82883 0
M  V30 481 H 51.5065 1.76945 -3.27904 0
M  V30 482 H 51.6195 0.596572 -4.75371 0
M  V30 483 H 49.9835 0.412931 -2.5133 0
M  V30 484 H 50.7665 -1.08368 -3.25747 0
M  V30 485 N 53.2116 1.57565 -0.0334293 0
M  V30 486 C 54.1216 2.13943 0.962572 0
M  V30 487 C 55.1376 1.09276 1.35406 0
M  V30 488 O 56.3136 1.41355 1.4346 0
M  V30 489 C 53.3786 2.65887 2.22497 0
M  V30 490 C 52.4396 3.85286 1.8935 0
M  V30 491 C 51.6726 4.34743 3.09571 0
M  V30 492 O 51.8956 3.83352 4.22371 0
M  V30 493 O 50.8296 5.26538 2.91618 0
M  V30 494 H 54.6556 2.99333 0.513169 0
M  V30 495 H 52.2406 1.4822 0.18743 0
M  V30 496 H 54.1226 2.99346 2.96598 0
M  V30 497 H 52.7976 1.83578 2.6661 0
M  V30 498 H 51.7046 3.56746 1.1262 0
M  V30 499 H 53.0376 4.68771 1.5005 0
M  V30 500 N 54.6897 -0.239769 1.55765 0
M  V30 501 C 56.1057 -0.588624 1.48349 0
M  V30 502 C 56.3057 -1.88005 0.72502 0
M  V30 503 O 55.3617 -2.51186 0.257269 0
M  V30 504 C 56.6747 -0.68474 2.928 0
M  V30 505 C 58.2227 -0.77659 3.03213 0
M  V30 506 C 58.6977 -0.904207 4.48986 0
M  V30 507 N 60.1887 -0.968896 4.52953 0
M  V30 508 C 60.9237 -1.08703 5.63002 0
M  V30 509 N 60.4197 -1.17026 6.82845 0
M  V30 510 N 62.2127 -1.12074 5.50814 0
M  V30 511 H 54.3637 0.607911 2.03515 0
M  V30 512 H 56.6267 0.21083 0.924259 0
M  V30 513 H 56.3327 0.194284 3.51163 0
M  V30 514 H 56.2067 -1.55435 3.43686 0
M  V30 515 H 58.5937 -1.64606 2.44926 0
M  V30 516 H 58.6747 0.118315 2.55526 0
M  V30 517 H 58.3187 -0.0392633 5.07885 0
M  V30 518 H 58.2487 -1.81426 4.9436 0
M  V30 519 H 60.7397 -0.915633 3.6664 0
M  V30 520 H 61.0527 -1.25966 7.62465 0
M  V30 521 H 59.3977 -1.13971 6.85591 0
M  V30 522 H 62.5887 -1.05226 4.5612 0
M  V30 523 H 62.7617 -1.20936 6.36615 0
M  V30 524 N 56.1678 -1.49265 -0.50573 0
M  V30 525 C 57.5788 -1.51769 -1.08734 0
M  V30 526 C 57.9298 -0.301192 -1.93874 0
M  V30 527 O 57.0548 0.589456 -2.08217 0
M  V30 528 C 57.6498 -2.75017 -1.97867 0
M  V30 529 C 56.2088 -2.80314 -2.51199 0
M  V30 530 C 55.3558 -2.4562 -1.28709 0
M  V30 531 H 58.3068 -1.56031 -0.289855 0
M  V30 532 H 58.3278 -2.5491 -2.82491 0
M  V30 533 H 57.8398 -3.63539 -1.35873 0
M  V30 534 H 55.9408 -1.96061 -3.16845 0
M  V30 535 H 56.0538 -3.82366 -2.88675 0
M  V30 536 H 54.4178 -1.97297 -1.61078 0
M  V30 537 H 55.2008 -3.36411 -0.6843 0
M  V30 538 N 57.6459 0.756429 -1.3826 0
M  V30 539 C 58.8709 1.55077 -1.37717 0
M  V30 540 C 59.2959 1.88073 0.03164 0
M  V30 541 O 58.6539 1.50364 1.01293 0
M  V30 542 C 58.7019 2.8283 -2.23695 0
M  V30 543 O 57.8059 3.77862 -1.6521 0
M  V30 544 H 57.1469 0.469152 -0.469885 0
M  V30 545 H 59.6769 0.935019 -1.81985 0
M  V30 546 H 59.6869 3.31783 -2.37453 0
M  V30 547 H 58.3619 2.58144 -3.2609 0
M  V30 548 H 56.9389 3.36555 -1.60578 0
M  V30 549 N 59.124 1.23083 0.984299 0
M  V30 550 C 60.535 1.05609 1.5396 0
M  V30 551 C 60.886 -0.377793 1.92528 0
M  V30 552 O 60.011 -1.26398 1.75649 0
M  V30 553 C 60.606 1.91087 2.7977 0
M  V30 554 C 59.165 1.77885 3.31713 0
M  V30 555 C 58.312 1.87028 2.04733 0
M  V30 556 H 61.263 1.36802 0.804419 0
M  V30 557 H 61.284 1.43336 3.5247 0
M  V30 558 H 60.796 2.9544 2.51668 0
M  V30 559 H 58.897 0.762995 3.64704 0
M  V30 560 H 59.01 2.61047 4.01735 0
M  V30 561 H 57.374 1.30565 2.18689 0
M  V30 562 H 58.157 2.92929 1.79017 0
M  V30 563 N 60.6021 -1.18246 1.0419 0
M  V30 564 C 61.8501 -1.87886 0.744543 0
M  V30 565 C 62.1711 -1.8082 -0.730006 0
M  V30 566 O 61.4411 -1.22736 -1.52685 0
M  V30 567 H 60.0211 -0.695556 0.272417 0
M  V30 568 H 62.6831 -1.43494 1.31892 0
M  V30 569 H 61.7791 -2.9389 1.05049 0
M  V30 570 N 62.0802 -0.821533 -1.34494 0
M  V30 571 C 63.3572 -0.33159 -1.92769 0
M  V30 572 C 63.7372 1.18088 -1.74981 0
M  V30 573 O 63.0852 1.98733 -1.12772 0
M  V30 574 C 63.2952 -0.759398 -3.40638 0
M  V30 575 C 64.6432 -0.757433 -4.1779 0
M  V30 576 O 65.6672 -0.70189 -3.49216 0
M  V30 577 O 64.5262 -0.829361 -5.4017 0
M  V30 578 H 61.6202 -0.0902502 -0.822061 0
M  V30 579 H 64.1662 -0.906231 -1.43477 0
M  V30 580 H 62.9382 -1.8012 -3.47379 0
M  V30 581 H 62.5612 -0.160378 -3.97276 0
M  V30 582 N 63.5583 1.46682 -0.576371 0
M  V30 583 C 64.8063 2.02013 -0.0594163 0
M  V30 584 C 65.1273 1.45101 1.30271 0
M  V30 585 O 64.3973 0.633317 1.8538 0
M  V30 586 H 62.9773 0.746759 -0.0189745 0
M  V30 587 H 65.6393 1.79862 -0.750717 0
M  V30 588 H 64.7353 3.12097 0.014345 0
M  V30 589 N 65.0364 0.313813 1.54444 0
M  V30 590 C 65.9844 -0.572171 2.25453 0
M  V30 591 C 66.9784 -1.12657 1.2651 0
M  V30 592 O 68.1844 -1.07573 1.44319 0
M  V30 593 H 64.5594 -0.203146 0.724041 0
M  V30 594 H 66.5304 0.0491145 2.9836 0
M  V30 595 C 65.2794 -1.72626 3.0182 0
M  V30 596 H 64.6024 -1.30891 3.77767 0
M  V30 597 H 66.0424 -2.32199 3.54767 0
M  V30 598 C 64.5014 -2.63806 2.09542 0
M  V30 599 O 65.0314 -3.65256 1.67185 0
M  V30 600 N 63.2374 -2.31824 1.75232 0
M  V30 601 H 62.7844 -1.49368 2.09873 0
M  V30 602 H 62.7424 -2.93095 1.13767 0
M  V30 603 N 66.5145 -1.57545 0.0417849 0
M  V30 604 C 67.9255 -1.80011 -0.495259 0
M  V30 605 C 68.2765 -0.953199 -1.71489 0
M  V30 606 O 67.4015 -0.167138 -2.15754 0
M  V30 607 C 67.9965 -3.26482 -0.905265 0
M  V30 608 C 66.5555 -3.499 -1.38734 0
M  V30 609 C 65.7025 -2.74979 -0.358056 0
M  V30 610 H 68.6535 -1.56425 0.267736 0
M  V30 611 H 68.6745 -3.36887 -1.76882 0
M  V30 612 H 68.1865 -3.88096 -0.017401 0
M  V30 613 H 66.2875 -2.93553 -2.29471 0
M  V30 614 H 66.4005 -4.58615 -1.38598 0
M  V30 615 H 64.7645 -2.40834 -0.828912 0
M  V30 616 H 65.5475 -3.39315 0.521561 0
M  V30 617 N 67.9926 0.231505 -1.5589 0
M  V30 618 C 69.4086 0.580748 -1.48659 0
M  V30 619 C 69.6086 1.87617 -0.73498 0
M  V30 620 O 68.6646 2.51046 -0.270586 0
M  V30 621 C 69.9776 0.669202 -2.93159 0
M  V30 622 C 71.5256 0.760499 -3.03621 0
M  V30 623 C 72.0006 0.880383 -4.49459 0
M  V30 624 N 73.4916 0.944861 -4.53461 0
M  V30 625 C 74.2266 1.05716 -5.63571 0
M  V30 626 N 73.7226 1.13403 -6.83456 0
M  V30 627 N 75.5156 1.09152 -5.514 0
M  V30 628 H 67.6666 -0.618695 -2.03189 0
M  V30 629 H 69.9296 -0.215728 -0.923128 0
M  V30 630 H 69.6356 -0.212904 -3.51055 0
M  V30 631 H 69.5096 1.5361 -3.44505 0
M  V30 632 H 71.8966 1.63305 -2.45796 0
M  V30 633 H 71.9776 -0.131864 -2.5546 0
M  V30 634 H 71.6216 0.0123284 -5.07899 0
M  V30 635 H 71.5516 1.78802 -4.95316 0
M  V30 636 H 74.0426 0.896176 -3.6712 0
M  V30 637 H 74.3556 1.21921 -7.63122 0
M  V30 638 H 72.7006 1.10333 -6.86186 0
M  V30 639 H 75.8916 1.02805 -4.56671 0
M  V30 640 H 76.0646 1.17558 -6.37247 0
M  V30 641 N 69.4707 1.49531 0.497807 0
M  V30 642 C 70.3807 1.69176 1.62532 0
M  V30 643 C 71.3967 0.5744 1.64246 0
M  V30 644 O 72.5727 0.849497 1.82608 0
M  V30 645 C 69.6377 1.75695 2.98885 0
M  V30 646 C 68.6987 2.9929 3.07773 0
M  V30 647 C 67.9317 3.05488 4.37622 0
M  V30 648 O 68.1547 2.19192 5.26603 0
M  V30 649 O 67.0887 3.9798 4.51548 0
M  V30 650 H 70.9147 2.647 1.48887 0
M  V30 651 H 68.4997 1.3331 0.674441 0
M  V30 652 H 70.3817 1.82317 3.79919 0
M  V30 653 H 69.0567 0.8335 3.12785 0
M  V30 654 H 67.9637 2.98183 2.25915 0
M  V30 655 H 69.2967 3.91125 2.98801 0
M  V30 656 N 70.9488 -0.749086 1.3866 0
M  V30 657 C 71.8968 -1.88428 1.36373 0
M  V30 658 C 72.8908 -1.67561 0.248929 0
M  V30 659 O 74.0968 -1.75074 0.41821 0
M  V30 660 H 70.4718 -0.620023 0.42553 0
M  V30 661 H 72.4428 -1.87473 2.32156 0
M  V30 662 C 71.1918 -3.25961 1.21014 0
M  V30 663 H 70.5148 -3.42607 2.06059 0
M  V30 664 H 71.9548 -4.05625 1.23469 0
M  V30 665 C 70.4138 -3.36799 -0.0825941 0
M  V30 666 O 70.9438 -3.87517 -1.05797 0
M  V30 667 N 69.1498 -2.90258 -0.140939 0
M  V30 668 H 68.6968 -2.49174 0.653477 0
M  V30 669 H 68.6548 -2.97889 -1.00545 0
M  V30 670 N 72.4269 -1.23603 -0.977757 0
M  V30 671 C 73.6519 -1.09735 -1.75991 0
M  V30 672 C 74.0769 0.346858 -1.84874 0
M  V30 673 O 73.4349 1.25093 -1.3123 0
M  V30 674 C 73.4829 -1.73051 -3.16363 0
M  V30 675 O 72.5869 -0.994452 -4.0023 0
M  V30 676 H 71.9279 -0.384476 -0.541364 0
M  V30 677 H 74.4579 -1.6371 -1.2272 0
M  V30 678 H 74.4679 -1.78398 -3.66931 0
M  V30 679 H 73.1429 -2.78137 -3.09213 0
M  V30 680 H 71.7199 -1.01812 -3.58732 0
M  V30 681 N 73.905 1.17692 -1.04816 0
M  V30 682 C 75.316 1.69501 -0.782698 0
M  V30 683 C 75.667 1.83456 0.695577 0
M  V30 684 O 74.792 1.51942 1.54086 0
M  V30 685 C 75.387 3.07874 -1.41419 0
M  V30 686 C 73.946 3.56864 -1.19686 0
M  V30 687 C 73.093 2.3322 -1.50012 0
M  V30 688 H 76.044 1.02262 -1.2136 0
M  V30 689 H 76.065 3.71528 -0.821428 0
M  V30 690 H 75.577 2.97685 -2.49009 0
M  V30 691 H 73.678 3.72337 -0.140043 0
M  V30 692 H 73.791 4.39851 -1.89916 0
M  V30 693 H 72.155 2.37501 -0.920071 0
M  V30 694 H 72.938 2.25644 -2.58727 0
M  V30 695 N 75.3831 0.828654 1.34056 0
M  V30 696 C 76.6301 0.419458 1.98108 0
M  V30 697 C 76.9581 -1.01886 1.65679 0
M  V30 698 O 76.2131 -1.72539 0.923512 0
M  V30 699 C 76.5121 0.575226 3.52741 0
M  V30 700 C 76.1781 1.98012 4.05095 0
M  V30 701 C 74.8401 2.36442 4.19104 0
M  V30 702 C 77.1921 2.89824 4.33188 0
M  V30 703 C 74.5201 3.66009 4.58535 0
M  V30 704 C 76.8721 4.1886 4.74066 0
M  V30 705 C 75.5361 4.5726 4.86281 0
M  V30 706 H 74.8061 0.153491 0.724929 0
M  V30 707 H 77.4531 1.05371 1.59904 0
M  V30 708 H 75.7581 -0.142385 3.91541 0
M  V30 709 H 77.4551 0.239057 4.00287 0
M  V30 710 H 74.0451 1.67162 3.94658 0
M  V30 711 H 78.2291 2.61375 4.21897 0
M  V30 712 H 73.4851 3.95579 4.66184 0
M  V30 713 H 77.6591 4.90086 4.94761 0
M  V30 714 H 75.2861 5.57707 5.16592 0
M  V30 715 N 76.8612 -1.46375 0.584142 0
M  V30 716 C 77.7912 -2.33103 -0.136037 0
M  V30 717 C 78.7722 -1.45431 -0.882255 0
M  V30 718 O 79.9572 -1.74246 -0.857434 0
M  V30 719 C 77.0872 -3.27731 -1.14933 0
M  V30 720 C 76.0412 -4.24855 -0.517862 0
M  V30 721 C 75.3672 -5.09001 -1.63773 0
M  V30 722 C 76.6672 -5.19439 0.545886 0
M  V30 723 H 78.3612 -2.93568 0.588086 0
M  V30 724 H 75.9072 -1.41166 0.284259 0
M  V30 725 H 77.8602 -3.87261 -1.66153 0
M  V30 726 H 76.5842 -2.65377 -1.90375 0
M  V30 727 H 75.2432 -3.6659 -0.0267361 0
M  V30 728 H 74.8912 -4.43031 -2.38185 0
M  V30 729 H 74.5912 -5.74777 -1.22085 0
M  V30 730 H 76.1152 -5.71396 -2.15266 0
M  V30 731 H 77.5292 -5.73177 0.118704 0
M  V30 732 H 75.9262 -5.93566 0.88317 0
M  V30 733 H 76.9962 -4.63285 1.43162 0
M  V30 734 N 78.3393 -0.321999 -1.54275 0
M  V30 735 C 79.2873 0.560206 -2.25753 0
M  V30 736 C 80.2813 1.11984 -1.27106 0
M  V30 737 O 81.4873 1.06806 -1.44888 0
M  V30 738 H 77.8623 0.199304 -0.725108 0
M  V30 739 H 79.8333 -0.0649365 -2.98329 0
M  V30 740 C 78.5823 1.71023 -3.02731 0
M  V30 741 H 77.9053 1.28885 -3.78456 0
M  V30 742 H 79.3453 2.30314 -3.55993 0
M  V30 743 C 77.8043 2.62692 -2.10938 0
M  V30 744 O 78.3343 3.64364 -1.6912 0
M  V30 745 N 76.5403 2.30891 -1.76459 0
M  V30 746 H 76.0873 1.48253 -2.10663 0
M  V30 747 H 76.0453 2.92487 -1.1532 0
M  V30 748 N 79.8174 1.5752 -0.0501392 0
M  V30 749 C 80.7654 2.12651 0.942459 0
M  V30 750 C 81.7594 1.05807 1.32292 0
M  V30 751 O 82.9654 1.24217 1.3027 0
M  V30 752 H 79.3404 0.679673 0.321789 0
M  V30 753 H 81.3114 2.94951 0.452356 0
M  V30 754 C 80.0604 2.68565 2.20836 0
M  V30 755 H 79.3834 3.50439 1.92439 0
M  V30 756 H 80.8234 3.10761 2.8845 0
M  V30 757 C 79.2824 1.62291 2.95234 0
M  V30 758 O 79.8124 1.03508 3.88135 0
M  V30 759 N 78.0184 1.33836 2.57946 0
M  V30 760 H 77.5654 1.81826 1.82475 0
M  V30 761 H 77.5234 0.629595 3.08032 0
M  V30 762 N 81.2955 -0.223234 1.56011 0
M  V30 763 C 82.5415 -0.949279 1.79211 0
M  V30 764 C 82.8745 -1.84054 0.619494 0
M  V30 765 O 82.1495 -1.90726 -0.381317 0
M  V30 766 C 82.4325 -1.78965 3.12479 0
M  V30 767 C 82.2855 -0.924997 4.40186 0
M  V30 768 C 83.6045 -2.76774 3.42175 0
M  V30 769 H 80.7235 -0.343676 0.651963 0
M  V30 770 H 83.3655 -0.218253 1.88742 0
M  V30 771 H 81.5155 -2.41291 3.04485 0
M  V30 772 H 83.1875 -0.318615 4.60198 0
M  V30 773 H 81.4305 -0.230344 4.33188 0
M  V30 774 H 82.1015 -1.54735 5.29869 0
M  V30 775 H 84.5775 -2.24584 3.50287 0
M  V30 776 H 83.4535 -3.32678 4.36597 0
M  V30 777 H 83.7145 -3.54429 2.64258 0
M  V30 778 N 82.7736 -1.49793 -0.48987 0
M  V30 779 C 83.6836 -1.70036 -1.61632 0
M  V30 780 C 84.6996 -0.583102 -1.63939 0
M  V30 781 O 85.8756 -0.859169 -1.82154 0
M  V30 782 C 82.9406 -1.77277 -2.97949 0
M  V30 783 C 82.0016 -3.00918 -3.06181 0
M  V30 784 C 81.2346 -3.07804 -4.35996 0
M  V30 785 O 81.4576 -2.21982 -5.25433 0
M  V30 786 O 80.3916 -4.00369 -4.49431 0
M  V30 787 H 84.2176 -2.65486 -1.47482 0
M  V30 788 H 81.8026 -1.33666 -0.667362 0
M  V30 789 H 83.6846 -1.84329 -3.78947 0
M  V30 790 H 82.3596 -0.850076 -3.12339 0
M  V30 791 H 81.2666 -2.99377 -2.2433 0
M  V30 792 H 82.5996 -3.92704 -2.96723 0
M  V30 793 N 84.2517 0.741722 -1.39055 0
M  V30 794 C 85.4977 1.50336 -1.36113 0
M  V30 795 C 85.8307 1.94148 0.0450796 0
M  V30 796 O 85.1057 1.66301 1.00868 0
M  V30 797 C 85.3887 2.74773 -2.32749 0
M  V30 798 C 85.2417 2.37023 -3.82283 0
M  V30 799 C 86.5607 3.76846 -2.27322 0
M  V30 800 H 83.6797 0.545351 -0.495743 0
M  V30 801 H 86.3217 0.848624 -1.69995 0
M  V30 802 H 84.4717 3.30639 -2.03986 0
M  V30 803 H 86.1437 1.8684 -4.21768 0
M  V30 804 H 84.3867 1.69334 -3.99385 0
M  V30 805 H 85.0577 3.26104 -4.45376 0
M  V30 806 H 87.5337 3.30548 -2.5274 0
M  V30 807 H 86.4097 4.6159 -2.97028 0
M  V30 808 H 86.6707 4.23286 -1.27599 0
M  V30 809 N 85.7298 1.2412 0.971189 0
M  V30 810 C 86.6398 1.04747 2.09917 0
M  V30 811 C 87.6558 -0.0107162 1.73997 0
M  V30 812 O 88.8318 0.186714 2.00533 0
M  V30 813 C 85.8968 0.650828 3.40537 0
M  V30 814 C 84.9578 1.7851 3.90426 0
M  V30 815 C 84.1908 1.40729 5.14812 0
M  V30 816 O 84.4138 0.29557 5.69634 0
M  V30 817 O 83.3478 2.23168 5.58999 0
M  V30 818 H 87.1738 1.99304 2.29154 0
M  V30 819 H 84.7588 1.02908 1.08307 0
M  V30 820 H 86.6408 0.440992 4.19086 0
M  V30 821 H 85.3158 -0.265649 3.22608 0
M  V30 822 H 84.2228 2.04966 3.12953 0
M  V30 823 H 85.5558 2.68023 4.12825 0
M  V30 824 N 87.2079 -1.17134 1.05439 0
M  V30 825 C 88.1399 -2.2078 0.615539 0
M  V30 826 C 89.1529 -1.59584 -0.322001 0
M  V30 827 O 90.3419 -1.78133 -0.114344 0
M  V30 828 C 87.4419 -3.38691 -0.118938 0
M  V30 829 C 86.6149 -4.29454 0.829924 0
M  V30 830 C 85.6739 -5.26024 0.136258 0
M  V30 831 O 84.6999 -5.63952 0.77115 0
M  V30 832 N 85.9019 -5.69487 -1.1254 0
M  V30 833 H 88.6669 -2.59052 1.50705 0
M  V30 834 H 86.2279 -1.32058 0.936603 0
M  V30 835 H 88.2199 -4.00329 -0.593179 0
M  V30 836 H 86.7899 -2.98996 -0.91215 0
M  V30 837 H 86.0099 -3.65211 1.48373 0
M  V30 838 H 87.2979 -4.86984 1.47392 0
M  V30 839 H 86.6959 -5.4075 -1.6615 0
M  V30 840 H 85.2529 -6.33257 -1.54366 0
M  V30 841 N 88.686 -0.835752 -1.33615 0
M  V30 842 C 89.596 -0.269088 -2.33052 0
M  V30 843 C 90.612 0.603251 -1.63208 0
M  V30 844 O 91.788 0.508112 -1.94885 0
M  V30 845 C 88.853 0.549091 -3.42324 0
M  V30 846 C 87.914 -0.347156 -4.27894 0
M  V30 847 C 87.147 0.43207 -5.31948 0
M  V30 848 O 87.37 1.66409 -5.45586 0
M  V30 849 O 86.304 -0.192298 -6.01593 0
M  V30 850 H 90.13 -1.09243 -2.83372 0
M  V30 851 H 87.715 -0.598198 -1.36901 0
M  V30 852 H 89.597 1.01414 -4.09015 0
M  V30 853 H 88.272 1.34955 -2.94226 0
M  V30 854 H 87.179 -0.859979 -3.64081 0
M  V30 855 H 88.512 -1.1123 -4.79467 0
M  V30 856 N 90.1641 1.46063 -0.591896 0
M  V30 857 C 91.3891 2.07226 -0.0850314 0
M  V30 858 C 91.8141 1.43625 1.21463 0
M  V30 859 O 91.1721 0.523305 1.73583 0
M  V30 860 C 91.2201 3.60554 0.0576567 0
M  V30 861 O 90.3241 3.97128 1.11188 0
M  V30 862 H 89.6651 0.660615 -0.0669568 0
M  V30 863 H 92.1951 1.8756 -0.81745 0
M  V30 864 H 92.2051 4.07165 0.2609 0
M  V30 865 H 90.8801 4.06235 -0.891416 0
M  V30 866 H 89.4571 3.62213 0.886356 0
M  V30 867 N 91.6422 0.330177 1.54103 0
M  V30 868 C 92.8892 -0.270405 2.00686 0
M  V30 869 C 93.2172 -1.51621 1.21825 0
M  V30 870 O 92.4722 -1.93536 0.29025 0
M  V30 871 C 92.7712 -0.643134 3.51566 0
M  V30 872 C 92.4372 0.504251 4.48072 0
M  V30 873 C 91.0992 0.819163 4.74176 0
M  V30 874 C 93.4512 1.27465 5.05373 0
M  V30 875 C 90.7792 1.90708 5.5484 0
M  V30 876 C 93.1312 2.35271 5.87223 0
M  V30 877 C 91.7952 2.67336 6.11627 0
M  V30 878 H 91.0652 -0.0989482 0.734364 0
M  V30 879 H 93.7122 0.455324 1.86008 0
M  V30 880 H 92.0172 -1.44938 3.64006 0
M  V30 881 H 93.7142 -1.11949 3.85056 0
M  V30 882 H 90.3042 0.248733 4.27878 0
M  V30 883 H 94.4882 1.04462 4.85182 0
M  V30 884 H 89.7442 2.15991 5.71977 0
M  V30 885 H 93.9182 2.95405 6.30641 0
M  V30 886 H 91.5452 3.51763 6.73919 0
M  V30 887 N 93.1203 -1.57491 0.0584922 0
M  V30 888 C 94.3673 -1.92978 -0.613648 0
M  V30 889 C 94.6953 -0.937461 -1.70417 0
M  V30 890 O 93.9503 0.049078 -1.95638 0
M  V30 891 C 94.2493 -3.3513 -1.24188 0
M  V30 892 C 93.9153 -4.50037 -0.278826 0
M  V30 893 C 92.5773 -4.81198 -0.0138447 0
M  V30 894 C 94.9293 -5.19807 0.380777 0
M  V30 895 C 92.2573 -5.79473 0.918052 0
M  V30 896 C 94.6093 -6.19079 1.30091 0
M  V30 897 C 93.2733 -6.48665 1.57449 0
M  V30 898 H 92.5433 -0.706157 -0.22455 0
M  V30 899 H 95.1903 -1.91082 0.126533 0
M  V30 900 H 93.4953 -3.33429 -2.05749 0
M  V30 901 H 95.1923 -3.59871 -1.769 0
M  V30 902 H 91.7823 -4.25726 -0.495539 0
M  V30 903 H 95.9663 -4.95939 0.189158 0
M  V30 904 H 91.2223 -6.00727 1.1374 0
M  V30 905 H 95.3963 -6.7225 1.81804 0
M  V30 906 H 93.0233 -7.24628 2.29822 0
M  V30 907 N 94.5984 0.214957 -1.56127 0
M  V30 908 C 95.5084 1.28727 -1.96129 0
M  V30 909 C 96.5244 1.50916 -0.866044 0
M  V30 910 O 97.7004 1.63918 -1.17016 0
M  V30 911 C 94.7654 2.61569 -2.27558 0
M  V30 912 C 93.8264 2.47625 -3.50685 0
M  V30 913 C 93.0594 3.74132 -3.80606 0
M  V30 914 O 93.2824 4.77438 -3.12104 0
M  V30 915 O 92.2164 3.70849 -4.74083 0
M  V30 916 H 96.0424 0.977855 -2.87527 0
M  V30 917 H 93.6274 0.418358 -1.43423 0
M  V30 918 H 95.5094 3.40012 -2.48938 0
M  V30 919 H 94.1844 2.92178 -1.39332 0
M  V30 920 H 93.0914 1.67361 -3.34576 0
M  V30 921 H 94.4244 2.21954 -4.39315 0
M  V30 922 N 96.0765 1.50051 0.48192 0
M  V30 923 C 97.3245 1.60181 1.23234 0
M  V30 924 C 97.6455 0.299176 1.92691 0
M  V30 925 O 96.9155 -0.682708 1.83619 0
M  V30 926 H 95.4955 0.590232 0.457859 0
M  V30 927 H 98.1575 1.86775 0.556881 0
M  V30 928 H 97.2535 2.40753 1.98607 0
M  V30 929 N 97.5546 -0.734337 1.39446 0
M  V30 930 C 98.5016 -1.84835 1.38219 0
M  V30 931 C 99.4716 -1.64331 0.24179 0
M  V30 932 O 100.657 -1.85728 0.437002 0
M  V30 933 C 97.7966 -3.22355 1.23212 0
M  V30 934 C 96.9096 -3.5456 2.46801 0
M  V30 935 C 96.0446 -4.81485 2.24377 0
M  V30 936 C 95.0836 -5.06536 3.43639 0
M  V30 937 N 94.2206 -6.24665 3.20528 0
M  V30 938 H 99.0606 -1.85219 2.33448 0
M  V30 939 H 96.5976 -0.905039 1.15963 0
M  V30 940 H 98.5556 -4.0174 1.12522 0
M  V30 941 H 97.1856 -3.21248 0.316121 0
M  V30 942 H 96.2376 -2.69872 2.68092 0
M  V30 943 H 97.5496 -3.6899 3.3563 0
M  V30 944 H 96.7036 -5.68852 2.10933 0
M  V30 945 H 95.4426 -4.6923 1.32944 0
M  V30 946 H 94.4476 -4.17632 3.5758 0
M  V30 947 H 95.6726 -5.20676 4.35974 0
M  V30 948 H 93.6186 -6.13696 2.3176 0
M  V30 949 H 93.5356 -6.39685 4.02913 0
M  V30 950 H 94.8036 -7.14868 3.10779 0
M  V30 951 N 99.0327 -1.24633 -0.964593 0
M  V30 952 C 99.9807 -1.03917 -2.08096 0
M  V30 953 C 100.975 0.0268581 -1.69379 0
M  V30 954 O 102.181 -0.127952 -1.79545 0
M  V30 955 H 98.5557 -0.319044 -0.680966 0
M  V30 956 H 100.527 -1.98581 -2.22729 0
M  V30 957 C 99.2757 -0.663983 -3.41301 0
M  V30 958 H 98.5987 -1.47605 -3.71555 0
M  V30 959 H 100.039 -0.558663 -4.20303 0
M  V30 960 C 98.4977 0.629169 -3.30973 0
M  V30 961 O 99.0277 1.67404 -3.65156 0
M  V30 962 N 97.2337 0.611057 -2.84103 0
M  V30 963 H 96.7807 -0.239593 -2.56483 0
M  V30 964 H 96.7387 1.47647 -2.77575 0
M  V30 965 N 100.511 1.16574 -1.06058 0
M  V30 966 C 101.444 2.19798 -0.61352 0
M  V30 967 C 102.422 1.58509 0.362453 0
M  V30 968 O 103.606 1.86527 0.271994 0
M  V30 969 C 100.733 3.3855 0.100915 0
M  V30 970 C 99.7788 4.18317 -0.831438 0
M  V30 971 S 100.612 4.82375 -2.32539 0
M  V30 972 C 101.768 6.04508 -1.62238 0
M  V30 973 H 102.001 2.5738 -1.48805 0
M  V30 974 H 99.5338 1.27327 -0.873338 0
M  V30 975 H 101.492 4.07358 0.506898 0
M  V30 976 H 100.153 2.99338 0.951604 0
M  V30 977 H 99.3458 5.03232 -0.278071 0
M  V30 978 H 98.9478 3.5499 -1.17719 0
M  V30 979 H 101.24 6.71133 -0.926622 0
M  V30 980 H 102.183 6.64389 -2.44934 0
M  V30 981 H 102.591 5.53559 -1.106 0
M  V30 982 N 101.989 0.842826 1.3317 0
M  V30 983 C 102.952 0.284065 2.27433 0
M  V30 984 C 103.952 -0.54948 1.5112 0
M  V30 985 O 105.142 -0.362699 1.70382 0
M  V30 986 C 102.274 -0.599384 3.35589 0
M  V30 987 H 103.467 1.11589 2.78366 0
M  V30 988 H 101.02 0.616221 1.4364 0
M  V30 989 H 101.755 -1.45349 2.89904 0
M  V30 990 H 101.54 -0.00291266 3.921 0
M  V30 991 H 103.03 -0.983488 4.05854 0
M  V30 992 N 103.467 -1.45747 0.599634 0
M  V30 993 C 104.397 -2.33235 -0.111306 0
M  V30 994 C 105.378 -1.46359 -0.866781 0
M  V30 995 O 106.563 -1.75146 -0.838904 0
M  V30 996 C 103.693 -3.28932 -1.11451 0
M  V30 997 C 102.647 -4.25381 -0.472772 0
M  V30 998 C 101.973 -5.1071 -1.58365 0
M  V30 999 C 103.273 -5.18831 0.600948 0
M  V30 1000 H 104.967 -2.92927 0.61919 0
M  V30 1001 H 102.513 -1.40857 0.299215 0
M  V30 1002 H 104.466 -3.89002 -1.62036 0
M  V30 1003 H 103.19 -2.67381 -1.8755 0
M  V30 1004 H 101.849 -3.66598 0.0121472 0
M  V30 1005 H 101.497 -4.45533 -2.33473 0
M  V30 1006 H 101.197 -5.7604 -1.15982 0
M  V30 1007 H 102.721 -5.73647 -2.09194 0
M  V30 1008 H 104.135 -5.73019 0.179491 0
M  V30 1009 H 102.532 -5.92595 0.946076 0
M  V30 1010 H 103.602 -4.6174 1.48068 0
M  V30 1011 N 104.945 -0.338344 -1.53925 0
M  V30 1012 C 106.192 0.259758 -2.00827 0
M  V30 1013 C 106.52 1.50973 -1.22628 0
M  V30 1014 O 105.775 1.93379 -0.300509 0
M  V30 1015 C 106.074 0.62448 -3.51902 0
M  V30 1016 C 105.74 -0.528006 -4.47798 0
M  V30 1017 C 104.402 -0.844298 -4.73735 0
M  V30 1018 C 106.754 -1.30143 -5.0469 0
M  V30 1019 C 104.082 -1.93648 -5.53821 0
M  V30 1020 C 106.434 -2.38382 -5.85967 0
M  V30 1021 C 105.098 -2.70576 -6.10201 0
M  V30 1022 H 104.368 0.0950523 -0.734878 0
M  V30 1023 H 107.015 -0.465182 -1.85764 0
M  V30 1024 H 105.32 1.43006 -3.64769 0
M  V30 1025 H 107.017 1.09905 -3.85645 0
M  V30 1026 H 103.607 -0.271421 -4.2774 0
M  V30 1027 H 107.791 -1.07033 -4.84621 0
M  V30 1028 H 103.047 -2.19021 -5.70824 0
M  V30 1029 H 107.221 -2.98746 -6.29066 0
M  V30 1030 H 104.848 -3.55333 -6.72044 0
M  V30 1031 N 106.423 1.57458 -0.0668435 0
M  V30 1032 C 107.333 2.15937 0.916975 0
M  V30 1033 C 108.349 1.12123 1.33058 0
M  V30 1034 O 109.525 1.44366 1.40429 0
M  V30 1035 C 106.59 2.70547 2.16807 0
M  V30 1036 C 105.651 3.89215 1.81135 0
M  V30 1037 C 104.884 4.41211 3.0028 0
M  V30 1038 O 105.107 3.92225 4.14144 0
M  V30 1039 O 104.041 5.32605 2.80384 0
M  V30 1040 H 107.867 3.00354 0.449561 0
M  V30 1041 H 105.452 1.48584 0.155949 0
M  V30 1042 H 107.334 3.0557 2.90181 0
M  V30 1043 H 106.009 1.89192 2.62656 0
M  V30 1044 H 104.916 3.59054 1.05028 0
M  V30 1045 H 106.249 4.71848 1.40073 0
M  V30 1046 N 107.901 -0.206675 1.56239 0
M  V30 1047 C 108.811 -1.27686 1.96808 0
M  V30 1048 C 109.827 -1.50455 0.874035 0
M  V30 1049 O 111.003 -1.63295 1.17884 0
M  V30 1050 C 108.068 -2.60358 2.28942 0
M  V30 1051 C 107.129 -2.45762 3.51994 0
M  V30 1052 C 106.362 -3.72108 3.82585 0
M  V30 1053 O 106.585 -4.75776 3.14631 0
M  V30 1054 O 105.519 -3.6833 4.76043 0
M  V30 1055 H 109.345 -0.962593 2.88041 0
M  V30 1056 H 106.93 -0.410746 1.43643 0
M  V30 1057 H 108.812 -3.38687 2.50737 0
M  V30 1058 H 107.487 -2.91435 1.4088 0
M  V30 1059 H 106.394 -1.65584 3.35459 0
M  V30 1060 H 107.727 -2.19621 4.40486 0
M  V30 1061 N 109.379 -1.50304 -0.473955 0
M  V30 1062 C 110.289 -1.7174 -1.5982 0
M  V30 1063 C 111.305 -0.600457 -1.63311 0
M  V30 1064 O 112.481 -0.878441 -1.81233 0
M  V30 1065 C 109.546 -1.80427 -2.96052 0
M  V30 1066 C 108.607 -3.04148 -3.02972 0
M  V30 1067 C 107.84 -3.12411 -4.32706 0
M  V30 1068 O 108.063 -2.27542 -5.23049 0
M  V30 1069 O 106.997 -4.05113 -4.45159 0
M  V30 1070 H 110.823 -2.67035 -1.44657 0
M  V30 1071 H 108.408 -1.34366 -0.653148 0
M  V30 1072 H 110.29 -1.88338 -3.7697 0
M  V30 1073 H 108.965 -0.883156 -3.11419 0
M  V30 1074 H 107.872 -3.0174 -2.21142 0
M  V30 1075 H 109.205 -3.95829 -2.92541 0
M  V30 1076 N 110.857 0.726932 -1.39834 0
M  V30 1077 C 111.79 1.8501 -1.33592 0
M  V30 1078 C 112.768 1.61262 -0.208191 0
M  V30 1079 O 113.952 1.84422 -0.389981 0
M  V30 1080 C 111.079 3.21143 -1.07633 0
M  V30 1081 C 110.125 3.63737 -2.22705 0
M  V30 1082 S 110.958 3.72167 -3.85035 0
M  V30 1083 C 112.114 5.11077 -3.61318 0
M  V30 1084 H 112.347 1.90022 -2.28646 0
M  V30 1085 H 109.88 0.892595 -1.25985 0
M  V30 1086 H 111.838 3.99747 -0.933415 0
M  V30 1087 H 110.499 3.13776 -0.142526 0
M  V30 1088 H 109.692 4.62551 -2.00155 0
M  V30 1089 H 109.294 2.9236 -2.33242 0
M  V30 1090 H 111.586 5.97656 -3.19083 0
M  V30 1091 H 112.529 5.38658 -4.59623 0
M  V30 1092 H 112.937 4.81135 -2.95245 0
M  V30 1093 N 112.336 1.25143 0.95797 0
M  V30 1094 C 113.613 1.00472 1.67823 0
M  V30 1095 C 113.993 -0.470056 2.058 0
M  V30 1096 O 113.341 -1.44663 1.76875 0
M  V30 1097 C 113.551 1.9372 2.90299 0
M  V30 1098 C 114.899 2.21371 3.62326 0
M  V30 1099 O 115.923 1.91451 3.00375 0
M  V30 1100 O 114.782 2.72231 4.7387 0
M  V30 1101 H 111.876 0.380752 0.734137 0
M  V30 1102 H 114.422 1.36283 1.01119 0
M  V30 1103 H 113.194 2.93316 2.59001 0
M  V30 1104 H 112.817 1.58286 3.64735 0
M  V30 1105 N 113.814 -1.1601 1.06675 0
M  V30 1106 C 115.039 -1.91068 0.806706 0
M  V30 1107 C 115.464 -1.77112 -0.633485 0
M  V30 1108 O 114.822 -1.09908 -1.44187 0
M  V30 1109 C 114.87 -3.39655 1.21106 0
M  V30 1110 O 113.974 -4.10893 0.352189 0
M  V30 1111 H 113.315 -0.595125 0.294486 0
M  V30 1112 H 115.845 -1.46955 1.42356 0
M  V30 1113 H 115.855 -3.90434 1.18428 0
M  V30 1114 H 114.53 -3.49132 2.26008 0
M  V30 1115 H 113.107 -3.70285 0.440868 0
M  V30 1116 N 115.292 -0.849877 -1.32721 0
M  V30 1117 C 116.24 -0.279745 -2.30912 0
M  V30 1118 C 117.234 0.594278 -1.58634 0
M  V30 1119 O 118.44 0.482613 -1.73409 0
M  V30 1120 H 114.815 -0.0717521 -0.748569 0
M  V30 1121 H 116.786 -1.12222 -2.76494 0
M  V30 1122 C 115.535 0.521108 -3.43773 0
M  V30 1123 H 114.858 -0.142141 -3.99547 0
M  V30 1124 H 116.298 0.885693 -4.14646 0
M  V30 1125 C 114.757 1.70442 -2.90605 0
M  V30 1126 O 115.287 2.8034 -2.87702 0
M  V30 1127 N 113.493 1.52991 -2.47067 0
M  V30 1128 H 113.04 0.635914 -2.49628 0
M  V30 1129 H 112.998 2.32311 -2.11847 0
M  V30 1130 N 116.77 1.45427 -0.607355 0
M  V30 1131 C 118.181 1.85756 -0.187535 0
M  V30 1132 C 118.532 1.5077 1.25551 0
M  V30 1133 O 117.657 0.93427 1.95193 0
M  V30 1134 C 118.252 3.37154 -0.333572 0
M  V30 1135 C 116.811 3.76387 0.0315542 0
M  V30 1136 C 115.958 2.69377 -0.658117 0
M  V30 1137 H 118.909 1.36231 -0.81405 0
M  V30 1138 H 118.93 3.78014 0.43428 0
M  V30 1139 H 118.442 3.62586 -1.38393 0
M  V30 1140 H 116.543 3.56571 1.0811 0
M  V30 1141 H 116.656 4.77731 -0.361935 0
M  V30 1142 H 115.02 2.5452 -0.0957873 0
M  V30 1143 H 115.803 2.97646 -1.7106 0
M  V30 1144 N 118.248 0.346503 1.53744 0
M  V30 1145 C 119.181 -0.552023 2.21423 0
M  V30 1146 C 120.159 -1.09798 1.19929 0
M  V30 1147 O 121.343 -1.1577 1.4876 0
M  V30 1148 C 118.47 -1.75972 2.89398 0
M  V30 1149 C 117.516 -1.34295 4.04805 0
M  V30 1150 S 118.349 -0.360263 5.34287 0
M  V30 1151 C 119.505 -1.57473 6.05767 0
M  V30 1152 H 119.738 0.0228119 2.97291 0
M  V30 1153 H 117.271 0.130579 1.53847 0
M  V30 1154 H 119.229 -2.45256 3.2918 0
M  V30 1155 H 117.89 -2.30578 2.1329 0
M  V30 1156 H 117.083 -2.24349 4.51313 0
M  V30 1157 H 116.685 -0.729555 3.66815 0
M  V30 1158 H 118.977 -2.50875 6.29339 0
M  V30 1159 H 119.92 -1.15138 6.98676 0
M  V30 1160 H 120.328 -1.77212 5.35963 0
M  V30 1161 N 119.726 -1.57421 0.075193 0
M  V30 1162 C 120.972 -1.93905 -0.594025 0
M  V30 1163 C 121.305 -0.955701 -1.69056 0
M  V30 1164 O 120.58 0.0145373 -1.94495 0
M  V30 1165 C 120.863 -3.40638 -1.1678 0
M  V30 1166 C 120.716 -4.49733 -0.0776792 0
M  V30 1167 C 122.035 -3.88259 -2.07228 0
M  V30 1168 H 119.154 -0.705105 -0.214466 0
M  V30 1169 H 121.796 -1.8947 0.141854 0
M  V30 1170 H 119.946 -3.44549 -1.79494 0
M  V30 1171 H 121.618 -4.57942 0.555573 0
M  V30 1172 H 119.861 -4.29751 0.591286 0
M  V30 1173 H 120.532 -5.49549 -0.519603 0
M  V30 1174 H 123.008 -3.86376 -1.54445 0
M  V30 1175 H 121.884 -4.91533 -2.44308 0
M  V30 1176 H 122.145 -3.26396 -2.98191 0
M  V30 1177 N 121.204 0.198386 -1.56346 0
M  V30 1178 C 122.429 0.939682 -1.84891 0
M  V30 1179 C 122.854 1.76202 -0.658369 0
M  V30 1180 O 122.212 1.76993 0.392851 0
M  V30 1181 C 122.26 1.81428 -3.11635 0
M  V30 1182 O 121.364 2.91265 -2.91956 0
M  V30 1183 H 120.705 0.264807 -0.608912 0
M  V30 1184 H 123.235 0.204695 -2.03573 0
M  V30 1185 H 123.245 2.21958 -3.42343 0
M  V30 1186 H 121.92 1.21004 -3.97908 0
M  V30 1187 H 120.497 2.54514 -2.72538 0
M  V30 1188 N 122.682 1.50554 0.465978 0
M  V30 1189 C 123.907 1.65838 1.24549 0
M  V30 1190 C 124.332 0.343486 1.84937 0
M  V30 1191 O 123.69 -0.69324 1.67523 0
M  V30 1192 C 123.738 2.75533 2.32624 0
M  V30 1193 O 122.842 2.37142 3.37398 0
M  V30 1194 H 122.183 0.553893 0.366194 0
M  V30 1195 H 124.713 1.96959 0.553927 0
M  V30 1196 H 124.723 2.98763 2.77857 0
M  V30 1197 H 123.398 3.70962 1.88043 0
M  V30 1198 H 121.975 2.24377 2.97841 0
M  V30 1199 N 124.16 -0.719506 1.40217 0
M  V30 1200 C 125.09 -1.8465 1.42922 0
M  V30 1201 C 126.071 -1.67599 0.29062 0
M  V30 1202 O 127.256 -1.87688 0.498677 0
M  V30 1203 C 124.386 -3.22565 1.28722 0
M  V30 1204 C 123.34 -3.54281 2.40144 0
M  V30 1205 C 122.666 -4.91298 2.11023 0
M  V30 1206 C 123.966 -3.55676 3.82481 0
M  V30 1207 H 125.66 -1.82644 2.37237 0
M  V30 1208 H 123.206 -0.877305 1.1419 0
M  V30 1209 H 125.159 -4.01095 1.29232 0
M  V30 1210 H 123.883 -3.25137 0.308811 0
M  V30 1211 H 122.542 -2.78088 2.38877 0
M  V30 1212 H 122.19 -4.90468 1.11582 0
M  V30 1213 H 121.89 -5.13485 2.8567 0
M  V30 1214 H 123.414 -5.72166 2.13209 0
M  V30 1215 H 124.828 -4.24254 3.85592 0
M  V30 1216 H 123.225 -3.89388 4.56614 0
M  V30 1217 H 124.295 -2.55144 4.12346 0
M  V30 1218 N 125.638 -1.25649 -0.95132 0
M  V30 1219 C 126.568 -1.08808 -2.06599 0
M  V30 1220 C 127.549 0.00382547 -1.701 0
M  V30 1221 O 128.734 -0.166325 -1.93486 0
M  V30 1222 C 125.864 -0.709542 -3.39975 0
M  V30 1223 C 124.818 -1.75206 -3.90496 0
M  V30 1224 C 124.144 -1.22811 -5.20405 0
M  V30 1225 C 125.444 -3.15153 -4.16504 0
M  V30 1226 H 127.138 -2.02048 -2.20946 0
M  V30 1227 H 124.684 -0.972835 -1.06169 0
M  V30 1228 H 126.637 -0.578649 -4.17408 0
M  V30 1229 H 125.361 0.258556 -3.25575 0
M  V30 1230 H 124.02 -1.87145 -3.15234 0
M  V30 1231 H 123.668 -0.250145 -5.02378 0
M  V30 1232 H 123.368 -1.92492 -5.55176 0
M  V30 1233 H 124.892 -1.10968 -6.00432 0
M  V30 1234 H 126.306 -3.06349 -4.84586 0
M  V30 1235 H 124.703 -3.82333 -4.62538 0
M  V30 1236 H 125.773 -3.61966 -3.22658 0
M  V30 1237 N 127.117 1.15442 -1.07289 0
M  V30 1238 C 128.065 2.22225 -0.686952 0
M  V30 1239 C 129.059 1.66688 0.30193 0
M  V30 1240 O 130.265 1.79236 0.165712 0
M  V30 1241 H 126.64 0.723783 -0.204064 0
M  V30 1242 H 128.611 2.52056 -1.5972 0
M  V30 1243 C 127.36 3.47556 -0.100149 0
M  V30 1244 H 126.683 3.90612 -0.852211 0
M  V30 1245 H 128.123 4.23794 0.132235 0
M  V30 1246 C 126.582 3.16337 1.159 0
M  V30 1247 O 127.112 3.33074 2.24555 0
M  V30 1248 N 125.318 2.70385 1.06491 0
M  V30 1249 H 124.865 2.56966 0.180668 0
M  V30 1250 H 124.823 2.49871 1.90819 0
M  V30 1251 N 128.595 0.856903 1.32268 0
M  V30 1252 C 129.542 0.301172 2.28827 0
M  V30 1253 C 130.512 -0.593104 1.5515 0
M  V30 1254 O 131.697 -0.527537 1.83362 0
M  V30 1255 C 128.837 -0.502523 3.41422 0
M  V30 1256 C 127.95 0.417797 4.29975 0
M  V30 1257 C 127.085 -0.398749 5.29701 0
M  V30 1258 C 126.124 0.518827 6.09897 0
M  V30 1259 N 125.261 -0.260674 7.01616 0
M  V30 1260 H 130.101 1.12983 2.75751 0
M  V30 1261 H 127.638 0.568582 1.35667 0
M  V30 1262 H 129.596 -0.984141 4.05426 0
M  V30 1263 H 128.226 -1.29599 2.95642 0
M  V30 1264 H 127.278 1.01781 3.66531 0
M  V30 1265 H 128.59 1.12191 4.86019 0
M  V30 1266 H 127.744 -0.943435 5.9932 0
M  V30 1267 H 126.483 -1.13622 4.7428 0
M  V30 1268 H 125.488 1.07538 5.39181 0
M  V30 1269 H 126.713 1.25495 6.67404 0
M  V30 1270 H 124.659 -0.981198 6.4862 0
M  V30 1271 H 124.576 0.384364 7.55022 0
M  V30 1272 H 125.844 -0.787014 7.75517 0
M  V30 1273 N 130.073 -1.45103 0.615059 0
M  V30 1274 C 131.003 -2.33339 -0.0865619 0
M  V30 1275 C 131.984 -1.4727 -0.851209 0
M  V30 1276 O 133.169 -1.76026 -0.820281 0
M  V30 1277 C 130.299 -3.30095 -1.07956 0
M  V30 1278 C 129.253 -4.25858 -0.427628 0
M  V30 1279 C 128.579 -5.12361 -1.5294 0
M  V30 1280 C 129.879 -5.18165 0.655944 0
M  V30 1281 H 131.573 -2.92254 0.650224 0
M  V30 1282 H 129.119 -1.40532 0.314138 0
M  V30 1283 H 131.072 -3.90698 -1.57901 0
M  V30 1284 H 129.796 -2.69355 -1.84703 0
M  V30 1285 H 128.455 -3.66564 0.0510292 0
M  V30 1286 H 128.103 -4.47984 -2.28734 0
M  V30 1287 H 127.803 -5.77238 -1.09865 0
M  V30 1288 H 129.327 -5.75833 -2.03098 0
M  V30 1289 H 130.741 -5.72796 0.240257 0
M  V30 1290 H 129.138 -5.91559 1.00888 0
M  V30 1291 H 130.208 -4.60144 1.52957 0
M  V30 1292 N 131.551 -0.354651 -1.53558 0
M  V30 1293 C 132.514 0.484566 -2.24019 0
M  V30 1294 C 133.514 1.01861 -1.24422 0
M  V30 1295 O 134.704 0.906097 -1.4878 0
M  V30 1296 C 131.836 1.67615 -2.96847 0
M  V30 1297 H 133.029 -0.131843 -2.9961 0
M  V30 1298 H 130.582 -0.106165 -1.55939 0
M  V30 1299 H 131.317 2.33095 -2.25471 0
M  V30 1300 H 131.102 1.30029 -3.69912 0
M  V30 1301 H 132.592 2.27114 -3.50441 0
M  V30 1302 N 133.029 1.57378 -0.0835403 0
M  V30 1303 C 133.977 2.14602 0.89714 0
M  V30 1304 C 134.971 1.08589 1.30018 0
M  V30 1305 O 136.177 1.26952 1.27606 0
M  V30 1306 H 132.552 0.686346 0.3073 0
M  V30 1307 H 134.523 2.95845 0.38969 0
M  V30 1308 C 133.272 2.73188 2.15089 0
M  V30 1309 H 132.595 3.54442 1.84962 0
M  V30 1310 H 134.035 3.1681 2.81793 0
M  V30 1311 C 132.494 1.68517 2.91725 0
M  V30 1312 O 133.024 1.11718 3.85852 0
M  V30 1313 N 131.23 1.39277 2.55049 0
M  V30 1314 H 130.777 1.85655 1.78577 0
M  V30 1315 H 130.735 0.694791 3.06627 0
M  V30 1316 N 134.507 -0.190092 1.56449 0
M  V30 1317 C 135.737 -0.92443 1.84764 0
M  V30 1318 C 136.145 -1.77146 0.664529 0
M  V30 1319 O 135.488 -1.79812 -0.375957 0
M  V30 1320 C 135.55 -1.86651 3.07248 0
M  V30 1321 C 135.214 -1.20094 4.40938 0
M  V30 1322 C 136.211 -0.575445 5.16706 0
M  V30 1323 C 133.896 -1.2033 4.87674 0
M  V30 1324 C 135.89 0.0388111 6.37388 0
M  V30 1325 C 133.577 -0.585214 6.08291 0
M  V30 1326 C 134.575 0.0347578 6.82991 0
M  V30 1327 O 134.263 0.643147 8.01323 0
M  V30 1328 H 133.995 -0.274974 0.617548 0
M  V30 1329 H 136.549 -0.200788 2.04416 0
M  V30 1330 H 134.779 -2.62998 2.83494 0
M  V30 1331 H 136.468 -2.46907 3.22167 0
M  V30 1332 H 137.234 -0.565728 4.81689 0
M  V30 1333 H 133.113 -1.67526 4.29484 0
M  V30 1334 H 136.657 0.523329 6.95634 0
M  V30 1335 H 132.554 -0.592451 6.42775 0
M  V30 1336 H 133.322 0.540545 8.16713 0
M  V30 1337 N 135.985 -1.50799 -0.457987 0
M  V30 1338 C 137.213 -1.66218 -1.23203 0
M  V30 1339 C 137.628 -0.350894 -1.85511 0
M  V30 1340 O 136.985 0.668546 -1.69814 0
M  V30 1341 C 137.036 -2.76291 -2.33121 0
M  V30 1342 O 136.757 -4.02338 -1.73366 0
M  V30 1343 C 138.258 -3.028 -3.2377 0
M  V30 1344 H 135.478 -0.558361 -0.372121 0
M  V30 1345 H 138.022 -1.97099 -0.545179 0
M  V30 1346 H 136.177 -2.48068 -2.97558 0
M  V30 1347 H 136.591 -4.63312 -2.4585 0
M  V30 1348 H 138.065 -3.8345 -3.97077 0
M  V30 1349 H 138.542 -2.14385 -3.83322 0
M  V30 1350 H 139.148 -3.32604 -2.65056 0
M  V30 1351 N 137.463 0.71206 -1.40597 0
M  V30 1352 C 138.411 1.84746 -1.41321 0
M  V30 1353 C 139.405 1.66842 -0.293268 0
M  V30 1354 O 140.611 1.73904 -0.464481 0
M  V30 1355 H 136.986 0.608522 -0.441819 0
M  V30 1356 H 138.957 1.81252 -2.37045 0
M  V30 1357 C 137.706 3.22638 -1.29614 0
M  V30 1358 H 137.029 3.37023 -2.15071 0
M  V30 1359 H 138.469 4.02209 -1.3418 0
M  V30 1360 C 136.928 3.36899 -0.00673121 0
M  V30 1361 O 137.458 3.90186 0.954859 0
M  V30 1362 N 135.664 2.9053 0.0639327 0
M  V30 1363 H 135.211 2.47353 -0.719311 0
M  V30 1364 H 135.169 3.0045 0.926118 0
M  V30 1365 N 138.941 1.26152 0.944643 0
M  V30 1366 C 139.871 1.09902 2.06019 0
M  V30 1367 C 140.852 0.00519538 1.70099 0
M  V30 1368 O 142.037 0.176583 1.93396 0
M  V30 1369 C 139.167 0.727562 3.39594 0
M  V30 1370 C 138.121 1.77274 3.89561 0
M  V30 1371 C 137.447 1.25569 5.19747 0
M  V30 1372 C 138.747 3.17357 4.14827 0
M  V30 1373 H 140.441 2.03217 2.19871 0
M  V30 1374 H 137.987 0.978452 1.05652 0
M  V30 1375 H 139.94 0.600777 4.17095 0
M  V30 1376 H 138.664 -0.241287 3.25707 0
M  V30 1377 H 137.323 1.88814 3.14237 0
M  V30 1378 H 136.971 0.276783 5.02238 0
M  V30 1379 H 136.671 1.95433 5.54148 0
M  V30 1380 H 138.195 1.1415 5.99835 0
M  V30 1381 H 139.609 3.08914 4.82954 0
M  V30 1382 H 138.006 3.84781 4.60504 0
M  V30 1383 H 139.076 3.63673 3.20734 0
M  V30 1384 N 140.419 -1.14872 1.07899 0
M  V30 1385 C 141.644 -1.90202 0.826926 0
M  V30 1386 C 142.069 -1.77774 -0.614664 0
M  V30 1387 O 141.427 -1.11431 -1.43013 0
M  V30 1388 C 141.475 -3.38352 1.24702 0
M  V30 1389 O 140.579 -4.10497 0.39575 0
M  V30 1390 H 139.92 -0.591968 0.300782 0
M  V30 1391 H 142.45 -1.45437 1.43907 0
M  V30 1392 H 142.46 -3.89156 1.22563 0
M  V30 1393 H 141.135 -3.46715 2.29698 0
M  V30 1394 H 139.712 -3.69796 0.480117 0
M  V30 1395 N 141.898 -0.863906 -1.31812 0
M  V30 1396 C 142.83 -0.272485 -2.27575 0
M  V30 1397 C 143.843 0.56104 -1.52827 0
M  V30 1398 O 145.032 0.384021 -1.7432 0
M  V30 1399 C 142.132 0.63283 -3.32939 0
M  V30 1400 C 141.305 -0.166902 -4.37081 0
M  V30 1401 C 140.364 0.665608 -5.21973 0
M  V30 1402 O 139.39 0.0958091 -5.69119 0
M  V30 1403 N 140.592 1.9787 -5.45736 0
M  V30 1404 H 143.357 -1.0954 -2.78964 0
M  V30 1405 H 140.918 -0.724791 -1.4477 0
M  V30 1406 H 142.91 1.19532 -3.86645 0
M  V30 1407 H 141.48 1.35642 -2.81638 0
M  V30 1408 H 140.7 -0.910838 -3.83533 0
M  V30 1409 H 141.988 -0.715874 -5.03739 0
M  V30 1410 H 141.386 2.46484 -5.09178 0
M  V30 1411 H 139.943 2.48911 -6.024 0
M  V30 1412 N 143.376 1.44774 -0.622745 0
M  V30 1413 C 144.624 2.01721 -0.123655 0
M  V30 1414 C 144.945 1.49172 1.25589 0
M  V30 1415 O 144.215 0.691974 1.83272 0
M  V30 1416 H 142.795 0.745777 -0.0427225 0
M  V30 1417 H 145.457 1.77382 -0.807559 0
M  V30 1418 H 144.553 3.11984 -0.0849534 0
M  V30 1419 N 144.854 0.36279 1.53368 0
M  V30 1420 C 146.1 -0.228113 2.01513 0
M  V30 1421 C 146.433 -1.48648 1.2497 0
M  V30 1422 O 145.708 -1.91459 0.342616 0
M  V30 1423 C 145.991 -0.522884 3.56284 0
M  V30 1424 C 145.844 0.74892 4.43521 0
M  V30 1425 C 147.163 -1.32461 4.19693 0
M  V30 1426 H 144.282 -0.0814343 0.732487 0
M  V30 1427 H 146.924 0.48713 1.83649 0
M  V30 1428 H 145.074 -1.1322 3.71636 0
M  V30 1429 H 146.746 1.38648 4.39971 0
M  V30 1430 H 144.989 1.36986 4.11603 0
M  V30 1431 H 145.66 0.497667 5.49752 0
M  V30 1432 H 148.136 -0.809203 4.08156 0
M  V30 1433 H 147.012 -1.49961 5.28018 0
M  V30 1434 H 147.273 -2.33232 3.75573 0
M  V30 1435 N 146.332 -1.57332 0.0918853 0
M  V30 1436 C 147.578 -1.94524 -0.573425 0
M  V30 1437 C 147.911 -0.973578 -1.68033 0
M  V30 1438 O 147.186 -0.00609226 -1.94499 0
M  V30 1439 C 147.469 -3.41858 -1.13161 0
M  V30 1440 C 147.322 -4.4979 -0.0299747 0
M  V30 1441 C 148.641 -3.90435 -2.03098 0
M  V30 1442 H 145.76 -0.70734 -0.206975 0
M  V30 1443 H 148.402 -1.89309 0.161942 0
M  V30 1444 H 146.552 -3.46433 -1.7583 0
M  V30 1445 H 148.224 -4.57327 0.604112 0
M  V30 1446 H 146.467 -4.291 0.636833 0
M  V30 1447 H 147.138 -5.50069 -0.461287 0
M  V30 1448 H 149.614 -3.87992 -1.50338 0
M  V30 1449 H 148.49 -4.94097 -2.39081 0
M  V30 1450 H 148.751 -3.29541 -2.94712 0
M  V30 1451 N 147.81 0.181792 -1.56548 0
M  V30 1452 C 148.72 1.24538 -1.98815 0
M  V30 1453 C 149.736 1.49045 -0.897861 0
M  V30 1454 O 150.912 1.61399 -1.20467 0
M  V30 1455 C 147.977 2.56683 -2.33055 0
M  V30 1456 C 147.038 2.40131 -3.55859 0
M  V30 1457 C 146.271 3.65975 -3.88456 0
M  V30 1458 O 146.494 4.70711 -3.22161 0
M  V30 1459 O 145.428 3.6071 -4.81842 0
M  V30 1460 H 149.254 0.916647 -2.89536 0
M  V30 1461 H 146.839 0.387842 -1.44278 0
M  V30 1462 H 148.721 3.34655 -2.56094 0
M  V30 1463 H 147.396 2.89157 -1.45498 0
M  V30 1464 H 146.303 1.60226 -3.38051 0
M  V30 1465 H 147.636 2.12585 -4.43924 0
M  V30 1466 N 149.288 1.51039 0.449983 0
M  V30 1467 C 150.238 1.67824 1.54335 0
M  V30 1468 C 151.222 0.5324 1.51836 0
M  V30 1469 O 152.414 0.787762 1.58503 0
M  V30 1470 C 149.543 1.7951 2.92628 0
M  V30 1471 C 148.629 2.99838 2.9993 0
M  V30 1472 N 149.02 4.23207 2.77001 0
M  V30 1473 C 147.318 2.98832 3.31082 0
M  V30 1474 C 148.019 5.04361 2.89818 0
M  V30 1475 N 146.995 4.38746 3.2094 0
M  V30 1476 H 150.797 2.60884 1.35339 0
M  V30 1477 H 148.311 1.48513 0.657085 0
M  V30 1478 H 150.308 1.89642 3.7127 0
M  V30 1479 H 148.968 0.876227 3.12654 0
M  V30 1480 H 149.979 4.5236 2.52172 0
M  V30 1481 H 146.656 2.16527 3.56963 0
M  V30 1482 H 148.046 6.12528 2.76151 0
M  V30 1483 N 150.766 -0.704594 1.40972 0
M  V30 1484 C 151.676 -1.84856 1.44448 0
M  V30 1485 C 152.692 -1.70726 0.335961 0
M  V30 1486 O 153.868 -1.92799 0.582276 0
M  V30 1487 C 150.933 -3.20758 1.31587 0
M  V30 1488 C 149.994 -3.47063 2.52677 0
M  V30 1489 C 149.227 -4.76481 2.4042 0
M  V30 1490 O 149.45 -5.52341 1.42391 0
M  V30 1491 O 148.384 -5.03367 3.30007 0
M  V30 1492 H 152.21 -1.8488 2.40942 0
M  V30 1493 H 149.795 -0.85647 1.22413 0
M  V30 1494 H 151.677 -4.01913 1.26665 0
M  V30 1495 H 150.352 -3.21438 0.382049 0
M  V30 1496 H 149.259 -2.65873 2.63177 0
M  V30 1497 H 150.592 -3.5119 3.44858 0
M  V30 1498 N 152.244 -1.26651 -0.937939 0
M  V30 1499 C 153.154 -1.10276 -2.07066 0
M  V30 1500 C 154.17 -0.0354197 -1.73964 0
M  V30 1501 O 155.346 -0.239816 -1.99967 0
M  V30 1502 C 152.411 -0.740887 -3.38691 0
M  V30 1503 C 151.472 -1.88799 -3.85556 0
M  V30 1504 C 150.705 -1.54329 -5.10899 0
M  V30 1505 O 150.928 -0.446494 -5.6865 0
M  V30 1506 O 149.862 -2.37911 -5.52885 0
M  V30 1507 H 153.688 -2.05309 -2.23789 0
M  V30 1508 H 151.273 -1.05743 -1.0554 0
M  V30 1509 H 153.155 -0.55195 -4.1777 0
M  V30 1510 H 151.83 0.180022 -3.23199 0
M  V30 1511 H 150.737 -2.13191 -3.07409 0
M  V30 1512 H 152.07 -2.78874 -4.05574 0
M  V30 1513 N 153.722 1.14298 -1.08507 0
M  V30 1514 C 154.999 1.81544 -0.728088 0
M  V30 1515 C 155.379 1.95838 0.78808 0
M  V30 1516 O 154.727 1.51904 1.70697 0
M  V30 1517 C 154.937 3.17169 -1.45619 0
M  V30 1518 C 156.285 3.9265 -1.61591 0
M  V30 1519 O 157.309 3.26762 -1.41793 0
M  V30 1520 O 156.168 5.10807 -1.94263 0
M  V30 1521 H 153.262 0.78491 -0.260471 0
M  V30 1522 H 155.808 1.21307 -1.18671 0
M  V30 1523 H 154.58 3.01934 -2.489 0
M  V30 1524 H 154.203 3.851 -0.989124 0
M  V30 1525 N 155.201 0.870884 1.31352 0
M  V30 1526 C 156.111 0.330783 2.32256 0
M  V30 1527 C 157.127 -0.559767 1.6475 0
M  V30 1528 O 158.303 -0.456263 1.96164 0
M  V30 1529 C 155.368 -0.458137 3.4366 0
M  V30 1530 C 154.429 0.460482 4.26823 0
M  V30 1531 C 153.662 -0.290881 5.32907 0
M  V30 1532 O 153.885 -1.51885 5.49806 0
M  V30 1533 O 152.819 0.351732 6.00871 0
M  V30 1534 H 156.645 1.16718 2.80376 0
M  V30 1535 H 154.23 0.634285 1.35267 0
M  V30 1536 H 156.112 -0.905343 4.1156 0
M  V30 1537 H 154.787 -1.27106 2.97701 0
M  V30 1538 H 153.694 0.956207 3.61673 0
M  V30 1539 H 155.027 1.23903 4.7635 0
M  V30 1540 N 156.679 -1.44442 0.630414 0
M  V30 1541 C 157.589 -2.34476 -0.0761693 0
M  V30 1542 C 158.605 -1.52576 -0.836449 0
M  V30 1543 O 159.781 -1.85307 -0.788874 0
M  V30 1544 C 156.846 -3.30545 -1.04599 0
M  V30 1545 C 155.907 -4.28352 -0.28516 0
M  V30 1546 C 155.14 -5.19831 -1.20878 0
M  V30 1547 O 155.363 -5.15223 -2.44747 0
M  V30 1548 O 154.297 -5.97892 -0.693491 0
M  V30 1549 H 158.123 -2.96345 0.664324 0
M  V30 1550 H 155.708 -1.44203 0.39061 0
M  V30 1551 H 157.59 -3.89681 -1.60396 0
M  V30 1552 H 156.265 -2.7121 -1.76711 0
M  V30 1553 H 155.172 -3.72764 0.315837 0
M  V30 1554 H 156.505 -4.90605 0.395924 0
M  V30 1555 N 158.157 -0.370918 -1.53173 0
M  V30 1556 C 159.382 0.220293 -2.06227 0
M  V30 1557 C 159.807 1.41243 -1.24225 0
M  V30 1558 O 159.165 1.79387 -0.262645 0
M  V30 1559 C 159.213 0.586663 -3.55796 0
M  V30 1560 O 158.317 1.68317 -3.76488 0
M  V30 1561 H 157.658 0.0308099 -0.663285 0
M  V30 1562 H 160.188 -0.533068 -1.97534 0
M  V30 1563 H 160.198 0.85617 -3.98916 0
M  V30 1564 H 158.873 -0.285013 -4.14922 0
M  V30 1565 H 157.45 1.40881 -3.45264 0
M  V30 1566 N 159.635 1.57281 -0.100228 0
M  V30 1567 C 161.051 1.57527 0.256416 0
M  V30 1568 C 161.251 1.11173 1.68056 0
M  V30 1569 O 160.307 0.79053 2.39806 0
M  V30 1570 C 161.62 3.00673 0.0401747 0
M  V30 1571 C 163.168 3.12815 0.107528 0
M  V30 1572 C 163.643 4.57929 -0.0807834 0
M  V30 1573 N 165.134 4.63193 -0.0261207 0
M  V30 1574 C 165.869 5.73212 -0.146999 0
M  V30 1575 N 165.365 6.92047 -0.322999 0
M  V30 1576 N 167.158 5.62031 -0.0879044 0
M  V30 1577 H 159.309 1.85718 -1.03065 0
M  V30 1578 H 161.572 0.857446 -0.404339 0
M  V30 1579 H 161.278 3.38804 -0.943649 0
M  V30 1580 H 161.152 3.69042 0.780262 0
M  V30 1581 H 163.539 2.74554 1.08186 0
M  V30 1582 H 163.62 2.47028 -0.664134 0
M  V30 1583 H 163.264 4.96886 -1.05201 0
M  V30 1584 H 163.194 5.21783 0.710635 0
M  V30 1585 H 165.685 3.77748 0.107161 0
M  V30 1586 H 165.998 7.7173 -0.406608 0
M  V30 1587 H 164.343 6.94074 -0.358733 0
M  V30 1588 H 167.534 4.68075 0.048498 0
M  V30 1589 H 167.707 6.47734 -0.185557 0
M  V30 1590 N 161.113 -0.173488 1.56642 0
M  V30 1591 C 162.529 -0.525174 1.50712 0
M  V30 1592 C 162.729 -1.8476 0.804107 0
M  V30 1593 O 161.785 -2.49869 0.363574 0
M  V30 1594 C 163.098 -0.559937 2.95441 0
M  V30 1595 C 164.646 -0.647288 3.06234 0
M  V30 1596 C 165.121 -0.712963 4.52417 0
M  V30 1597 N 166.612 -0.775911 4.56655 0
M  V30 1598 C 167.347 -0.847264 5.67106 0
M  V30 1599 N 166.843 -0.879585 6.87194 0
M  V30 1600 N 168.636 -0.886117 5.55071 0
M  V30 1601 H 160.787 0.693681 2.00753 0
M  V30 1602 H 163.05 0.249841 0.914485 0
M  V30 1603 H 162.756 0.343049 3.50023 0
M  V30 1604 H 162.63 -1.40718 3.49969 0
M  V30 1605 H 165.017 -1.5407 2.51687 0
M  V30 1606 H 165.098 0.226586 2.54794 0
M  V30 1607 H 164.742 0.176183 5.07594 0
M  V30 1608 H 164.672 -1.60295 5.0161 0
M  V30 1609 H 167.163 -0.759304 3.70193 0
M  V30 1610 H 167.476 -0.935144 7.67121 0
M  V30 1611 H 165.821 -0.847898 6.89808 0
M  V30 1612 H 169.012 -0.857853 4.60172 0
M  V30 1613 H 169.185 -0.938263 6.41171 0
M  V30 1614 N 162.591 -1.51276 -0.441967 0
M  V30 1615 C 164.007 -1.39349 -0.778083 0
M  V30 1616 C 164.207 -0.472212 -1.95889 0
M  V30 1617 O 163.263 0.0743551 -2.5239 0
M  V30 1618 C 164.576 -2.81292 -1.0628 0
M  V30 1619 C 166.124 -2.9041 -1.16751 0
M  V30 1620 C 166.599 -4.33251 -1.48519 0
M  V30 1621 N 168.09 -4.36336 -1.55453 0
M  V30 1622 C 168.825 -5.43885 -1.81596 0
M  V30 1623 N 168.321 -6.61601 -2.05562 0
M  V30 1624 N 170.114 -5.3136 -1.8334 0
M  V30 1625 H 162.265 -2.09729 0.335774 0
M  V30 1626 H 164.528 -0.943925 0.0878028 0
M  V30 1627 H 164.234 -3.50678 -0.267905 0
M  V30 1628 H 164.108 -3.20334 -1.99163 0
M  V30 1629 H 166.495 -2.21225 -1.95304 0
M  V30 1630 H 166.576 -2.54871 -0.217801 0
M  V30 1631 H 166.22 -5.02984 -0.704958 0
M  V30 1632 H 166.15 -4.66299 -2.44689 0
M  V30 1633 H 168.641 -3.51466 -1.38853 0
M  V30 1634 H 168.954 -7.39361 -2.24867 0
M  V30 1635 H 167.299 -6.64725 -2.02894 0
M  V30 1636 H 170.49 -4.38382 -1.64132 0
M  V30 1637 H 170.663 -6.15258 -2.03377 0
M  V30 1638 N 164.069 0.697108 -1.41344 0
M  V30 1639 C 164.979 1.84088 -1.45427 0
M  V30 1640 C 165.995 1.70545 -0.34501 0
M  V30 1641 O 167.171 1.92488 -0.592492 0
M  V30 1642 C 164.236 3.20056 -1.33286 0
M  V30 1643 C 163.297 3.45718 -2.54514 0
M  V30 1644 C 162.53 4.75199 -2.42944 0
M  V30 1645 O 162.753 5.51579 -1.45318 0
M  V30 1646 O 161.687 5.0161 -3.32672 0
M  V30 1647 H 165.513 1.836 -2.41919 0
M  V30 1648 H 163.098 0.849966 -1.22866 0
M  V30 1649 H 164.98 4.01236 -1.28794 0
M  V30 1650 H 163.655 3.2123 -0.39909 0
M  V30 1651 H 162.562 2.64474 -2.64583 0
M  V30 1652 H 163.895 3.49356 -3.46715 0
M  V30 1653 N 165.547 1.27147 0.931209 0
M  V30 1654 C 166.51 1.09615 2.01289 0
M  V30 1655 C 167.51 0.0412581 1.60747 0
M  V30 1656 O 168.7 0.285545 1.71844 0
M  V30 1657 C 165.832 0.669447 3.34262 0
M  V30 1658 H 167.025 2.05662 2.18273 0
M  V30 1659 H 164.578 1.09885 1.11153 0
M  V30 1660 H 165.313 -0.292572 3.22978 0
M  V30 1661 H 165.098 1.43127 3.65044 0
M  V30 1662 H 166.588 0.568921 4.13706 0
M  V30 1663 N 167.025 -1.13721 1.09112 0
M  V30 1664 C 167.972 -2.19031 0.727591 0
M  V30 1665 C 168.942 -1.63555 -0.289656 0
M  V30 1666 O 170.127 -1.90023 -0.172026 0
M  V30 1667 C 167.267 -3.4477 0.15082 0
M  V30 1668 C 166.38 -4.14365 1.22172 0
M  V30 1669 C 165.515 -5.27709 0.608042 0
M  V30 1670 C 164.554 -5.89147 1.66047 0
M  V30 1671 N 163.691 -6.93929 1.06806 0
M  V30 1672 H 168.531 -2.49475 1.62991 0
M  V30 1673 H 166.068 -1.22499 0.81439 0
M  V30 1674 H 168.026 -4.16714 -0.201358 0
M  V30 1675 H 166.656 -3.14787 -0.714783 0
M  V30 1676 H 165.708 -3.40737 1.69122 0
M  V30 1677 H 167.02 -4.56114 2.01895 0
M  V30 1678 H 166.174 -6.06355 0.204523 0
M  V30 1679 H 164.913 -4.872 -0.220769 0
M  V30 1680 H 163.918 -5.09198 2.07357 0
M  V30 1681 H 165.143 -6.31729 2.49189 0
M  V30 1682 H 163.089 -6.55483 0.260476 0
M  V30 1683 H 163.006 -7.34202 1.8023 0
M  V30 1684 H 164.274 -7.76434 0.690644 0
M  V30 1685 N 168.503 -0.877838 -1.30888 0
M  V30 1686 C 169.466 -0.344265 -2.266 0
M  V30 1687 C 170.466 0.50922 -1.52524 0
M  V30 1688 O 171.656 0.317398 -1.71284 0
M  V30 1689 C 168.788 0.510198 -3.37061 0
M  V30 1690 H 169.981 -1.1893 -2.7531 0
M  V30 1691 H 167.534 -0.654088 -1.41956 0
M  V30 1692 H 168.269 1.37612 -2.93655 0
M  V30 1693 H 168.054 -0.101047 -3.9197 0
M  V30 1694 H 169.544 0.875537 -4.08319 0
M  V30 1695 N 169.982 1.44106 -0.638065 0
M  V30 1696 C 171.393 1.85316 -0.226894 0
M  V30 1697 C 171.744 1.53399 1.22324 0
M  V30 1698 O 170.869 0.975463 1.93167 0
M  V30 1699 C 171.464 3.3637 -0.405013 0
M  V30 1700 C 170.023 3.76369 -0.0482902 0
M  V30 1701 C 169.17 2.67921 -0.715108 0
M  V30 1702 H 172.121 1.34474 -0.842764 0
M  V30 1703 H 172.142 3.7885 0.354 0
M  V30 1704 H 171.654 3.59569 -1.46053 0
M  V30 1705 H 169.755 3.58784 1.00522 0
M  V30 1706 H 169.868 4.76856 -0.463187 0
M  V30 1707 H 168.232 2.54259 -0.149753 0
M  V30 1708 H 169.015 2.93951 -1.77335 0
M  V30 1709 N 171.46 0.379036 1.52974 0
M  V30 1710 C 172.876 0.0285448 1.59574 0
M  V30 1711 C 173.076 -1.45542 1.39355 0
M  V30 1712 O 172.132 -2.2187 1.20541 0
M  V30 1713 C 173.445 0.496535 2.96572 0
M  V30 1714 C 174.993 0.451909 3.0972 0
M  V30 1715 C 175.468 0.895924 4.49152 0
M  V30 1716 N 176.959 0.851522 4.55306 0
M  V30 1717 C 177.694 1.16661 5.61407 0
M  V30 1718 N 177.19 1.55166 6.752 0
M  V30 1719 N 178.983 1.08853 5.51459 0
M  V30 1720 H 171.134 1.34525 1.64367 0
M  V30 1721 H 173.397 0.550733 0.771619 0
M  V30 1722 H 173.103 1.53258 3.16552 0
M  V30 1723 H 172.977 -0.109802 3.7704 0
M  V30 1724 H 175.364 -0.575029 2.89443 0
M  V30 1725 H 175.445 1.09392 2.3123 0
M  V30 1726 H 175.089 1.92104 4.70168 0
M  V30 1727 H 175.019 0.23103 5.26093 0
M  V30 1728 H 177.51 0.568038 3.73606 0
M  V30 1729 H 177.823 1.776 7.52116 0
M  V30 1730 H 176.168 1.59044 6.76557 0
M  V30 1731 H 179.359 0.786803 4.6144 0
M  V30 1732 H 179.532 1.33742 6.34048 0
M  V30 1733 N 172.938 -1.57226 0.108567 0
M  V30 1734 C 173.871 -2.10447 -0.882464 0
M  V30 1735 C 174.849 -1.01829 -1.26766 0
M  V30 1736 O 176.033 -1.29415 -1.37054 0
M  V30 1737 C 173.16 -2.59258 -2.17952 0
M  V30 1738 C 172.206 -3.79662 -1.94318 0
M  V30 1739 S 173.039 -5.22586 -1.16892 0
M  V30 1740 C 174.195 -5.74758 -2.47799 0
M  V30 1741 H 174.428 -2.94178 -0.429745 0
M  V30 1742 H 171.961 -1.54043 -0.105 0
M  V30 1743 H 173.919 -2.88036 -2.92482 0
M  V30 1744 H 172.58 -1.75728 -2.60343 0
M  V30 1745 H 171.773 -4.11928 -2.90399 0
M  V30 1746 H 171.375 -3.51446 -1.27913 0
M  V30 1747 H 173.667 -5.83846 -3.43701 0
M  V30 1748 H 174.61 -6.73027 -2.20093 0
M  V30 1749 H 175.018 -5.02763 -2.56689 0
M  V30 1750 N 174.416 0.165178 -1.56732 0
M  V30 1751 C 175.664 0.879068 -1.8198 0
M  V30 1752 C 175.985 1.82514 -0.686561 0
M  V30 1753 O 175.255 1.93694 0.293146 0
M  V30 1754 H 173.835 0.327608 -0.671329 0
M  V30 1755 H 176.497 0.163526 -1.94213 0
M  V30 1756 H 175.593 1.45228 -2.76252 0
M  V30 1757 N 175.894 1.51508 0.433938 0
M  V30 1758 C 177.122 1.68157 1.20543 0
M  V30 1759 C 177.537 0.380362 1.84929 0
M  V30 1760 O 176.894 -0.641446 1.70856 0
M  V30 1761 C 176.945 2.79965 2.28696 0
M  V30 1762 O 176.666 4.05045 1.66943 0
M  V30 1763 C 178.167 3.07912 3.18912 0
M  V30 1764 H 175.387 0.56421 0.363191 0
M  V30 1765 H 177.931 1.97941 0.513754 0
M  V30 1766 H 176.086 2.5277 2.93574 0
M  V30 1767 H 176.5 4.67165 2.38448 0
M  V30 1768 H 177.974 3.89719 3.90926 0
M  V30 1769 H 178.451 2.20456 3.79863 0
M  V30 1770 H 179.057 3.36779 2.59731 0
M  V30 1771 N 177.372 -0.689602 1.41712 0
M  V30 1772 C 178.619 -1.44966 1.4139 0
M  V30 1773 C 178.947 -1.94484 0.025105 0
M  V30 1774 O 178.202 -1.70307 -0.964048 0
M  V30 1775 C 178.501 -2.67298 2.37247 0
M  V30 1776 C 178.167 -2.36405 3.83958 0
M  V30 1777 C 176.829 -2.27691 4.23923 0
M  V30 1778 C 179.181 -2.11043 4.76561 0
M  V30 1779 C 176.509 -1.91719 5.54492 0
M  V30 1780 C 178.861 -1.76578 6.07456 0
M  V30 1781 C 177.525 -1.66363 6.46436 0
M  V30 1782 H 176.795 -0.53047 0.517381 0
M  V30 1783 H 179.442 -0.787655 1.74552 0
M  V30 1784 H 177.747 -3.38461 1.9736 0
M  V30 1785 H 179.444 -3.25452 2.34269 0
M  V30 1786 H 176.034 -2.44085 3.52308 0
M  V30 1787 H 180.218 -2.16717 4.46483 0
M  V30 1788 H 175.474 -1.82367 5.83568 0
M  V30 1789 H 179.648 -1.55974 6.78708 0
M  V30 1790 H 177.275 -1.38258 7.47522 0
M  V30 1791 N 178.85 -1.27639 -0.924453 0
M  V30 1792 C 180.099 -1.13549 -1.66702 0
M  V30 1793 C 180.412 0.317487 -1.93006 0
M  V30 1794 O 181.618 0.579333 -2.65247 0
M  V30 1795 C 180.074 -1.98426 -3.00259 0
M  V30 1796 C 179.682 -3.484 -2.81641 0
M  V30 1797 C 181.426 -1.92993 -3.78092 0
M  V30 1798 C 179.333 -4.25464 -4.10773 0
M  V30 1799 H 178.263 -0.421351 -0.625283 0
M  V30 1800 H 180.914 -1.52085 -1.02676 0
M  V30 1801 H 179.296 -1.52736 -3.6536 0
M  V30 1802 H 180.47 -4.01973 -2.25287 0
M  V30 1803 H 178.785 -3.55245 -2.17232 0
M  V30 1804 H 181.382 -2.47844 -4.7379 0
M  V30 1805 H 181.725 -0.904281 -4.0636 0
M  V30 1806 H 182.258 -2.36595 -3.19793 0
M  V30 1807 H 178.997 -5.28566 -3.87683 0
M  V30 1808 H 178.517 -3.76667 -4.66779 0
M  V30 1809 H 180.196 -4.34812 -4.79111 0
M  V30 1810 N 180.328 1.1314 -1.09713 0
M  V30 1811 C 181.576 1.84119 -0.833338 0
M  V30 1812 C 181.897 1.84097 0.642904 0
M  V30 1813 O 181.167 1.29881 1.46655 0
M  V30 1814 H 179.747 0.681766 -0.305293 0
M  V30 1815 H 182.409 1.37038 -1.38588 0
M  V30 1816 H 181.505 2.88543 -1.18951 0
M  V30 1817 N 181.806 0.884767 1.30421 0
M  V30 1818 C 183.052 0.503851 1.96441 0
M  V30 1819 C 183.385 -0.944518 1.69684 0
M  V30 1820 O 182.66 -1.66737 1.00145 0
M  V30 1821 C 182.943 0.779085 3.51571 0
M  V30 1822 C 182.796 2.27807 3.87846 0
M  V30 1823 C 184.115 0.255452 4.39358 0
M  V30 1824 H 181.234 0.184533 0.713524 0
M  V30 1825 H 183.876 1.10872 1.54297 0
M  V30 1826 H 182.026 0.264274 3.876 0
M  V30 1827 H 183.698 2.86127 3.61841 0
M  V30 1828 H 181.941 2.74479 3.35922 0
M  V30 1829 H 182.612 2.42125 4.96064 0
M  V30 1830 H 185.088 0.696079 4.10236 0
M  V30 1831 H 183.964 0.477361 5.4682 0
M  V30 1832 H 184.225 -0.843293 4.33983 0
M  V30 1833 N 183.284 -1.43765 0.645699 0
M  V30 1834 C 184.514 -2.05953 0.163318 0
M  V30 1835 C 184.922 -1.48432 -1.17322 0
M  V30 1836 O 184.265 -0.607295 -1.73371 0
M  V30 1837 C 184.327 -3.59499 -0.0103065 0
M  V30 1838 C 183.991 -4.39563 1.25035 0
M  V30 1839 C 184.988 -4.72108 2.17739 0
M  V30 1840 C 182.673 -4.79697 1.48983 0
M  V30 1841 C 184.667 -5.43688 3.3269 0
M  V30 1842 C 182.354 -5.51023 2.64229 0
M  V30 1843 C 183.352 -5.8294 3.55908 0
M  V30 1844 O 183.04 -6.5281 4.69142 0
M  V30 1845 H 182.772 -0.670798 0.0836986 0
M  V30 1846 H 185.326 -1.85384 0.884407 0
M  V30 1847 H 183.556 -3.78613 -0.78669 0
M  V30 1848 H 185.245 -4.03408 -0.449087 0
M  V30 1849 H 186.011 -4.41627 2.00476 0
M  V30 1850 H 181.89 -4.54266 0.785078 0
M  V30 1851 H 185.434 -5.68517 4.04269 0
M  V30 1852 H 181.331 -5.8092 2.81429 0
M  V30 1853 H 182.099 -6.71288 4.6831 0
M  V30 1854 N 184.763 -0.387143 -1.52771 0
M  V30 1855 C 185.693 0.440551 -2.29306 0
M  V30 1856 C 186.674 1.06535 -1.32606 0
M  V30 1857 O 187.859 1.07853 -1.61497 0
M  V30 1858 C 184.989 1.56919 -3.09829 0
M  V30 1859 C 183.943 1.07054 -4.14395 0
M  V30 1860 C 183.269 2.29109 -4.83129 0
M  V30 1861 C 184.569 0.140015 -5.22112 0
M  V30 1862 H 186.263 -0.198026 -2.98744 0
M  V30 1863 H 183.809 -0.09668 -1.43675 0
M  V30 1864 H 185.762 2.15503 -3.62128 0
M  V30 1865 H 184.486 2.23532 -2.3812 0
M  V30 1866 H 183.145 0.507247 -3.63074 0
M  V30 1867 H 182.793 2.94227 -4.0797 0
M  V30 1868 H 182.493 1.96406 -5.53804 0
M  V30 1869 H 184.017 2.88339 -5.38231 0
M  V30 1870 H 185.431 0.633978 -5.69784 0
M  V30 1871 H 183.828 -0.0971485 -6.00021 0
M  V30 1872 H 184.898 -0.811711 -4.78058 0
M  V30 1873 N 186.241 1.57166 -0.116904 0
M  V30 1874 C 187.652 1.82169 0.408809 0
M  V30 1875 C 188.003 1.03393 1.66746 0
M  V30 1876 O 187.128 0.269886 2.1471 0
M  V30 1877 C 187.723 3.30429 0.748466 0
M  V30 1878 C 186.282 3.5612 1.21882 0
M  V30 1879 C 185.429 2.76374 0.226452 0
M  V30 1880 H 188.38 1.5497 -0.342063 0
M  V30 1881 H 188.401 3.44943 1.60607 0
M  V30 1882 H 187.913 3.87737 -0.167784 0
M  V30 1883 H 186.014 3.04168 2.15204 0
M  V30 1884 H 186.127 4.64705 1.16559 0
M  V30 1885 H 184.491 2.44515 0.713063 0
M  V30 1886 H 185.274 3.3644 -0.682859 0
M  V30 1887 N 187.719 -0.156864 1.56817 0
M  V30 1888 C 188.959 -0.877453 1.84608 0
M  V30 1889 C 189.323 -1.78791 0.699845 0
M  V30 1890 O 190.524 -2.5472 0.858553 0
M  V30 1891 C 188.795 -1.63992 3.17555 0
M  V30 1892 S 190.354 -2.40729 3.66872 0
M  V30 1893 H 187.172 -0.293612 0.647544 0
M  V30 1894 H 189.774 -0.138099 1.95012 0
M  V30 1895 H 188.478 -0.962363 3.98957 0
M  V30 1896 H 188.009 -2.42038 3.10131 0
M  V30 1897 H 190.024 -3.65725 3.3535 0
M  V30 1898 N 189.197 -1.51736 -0.425897 0
M  V30 1899 C 190.127 -1.76827 -1.52494 0
M  V30 1900 C 191.108 -0.618524 -1.58456 0
M  V30 1901 O 192.293 -0.862416 -1.74 0
M  V30 1902 C 189.423 -1.90374 -2.90474 0
M  V30 1903 C 188.377 -3.0588 -2.99369 0
M  V30 1904 C 187.703 -3.04625 -4.3944 0
M  V30 1905 C 189.003 -4.45644 -2.72394 0
M  V30 1906 H 190.697 -2.68855 -1.31748 0
M  V30 1907 H 188.243 -1.29372 -0.632362 0
M  V30 1908 H 190.196 -2.0651 -3.6733 0
M  V30 1909 H 188.92 -0.95004 -3.12477 0
M  V30 1910 H 187.579 -2.89467 -2.24954 0
M  V30 1911 H 187.227 -2.0701 -4.58428 0
M  V30 1912 H 186.927 -3.82195 -4.46319 0
M  V30 1913 H 188.451 -3.22869 -5.18255 0
M  V30 1914 H 189.865 -4.62348 -3.38979 0
M  V30 1915 H 188.262 -5.25006 -2.9067 0
M  V30 1916 H 189.332 -4.54893 -1.67929 0
M  V30 1917 N 190.675 0.682077 -1.42076 0
M  V30 1918 C 191.607 1.80755 -1.40926 0
M  V30 1919 C 192.62 1.59833 -0.309398 0
M  V30 1920 O 193.809 1.69087 -0.572014 0
M  V30 1921 C 190.909 3.17744 -1.17865 0
M  V30 1922 C 190.082 3.65578 -2.40149 0
M  V30 1923 C 189.141 4.81277 -2.12742 0
M  V30 1924 O 188.167 4.92197 -2.85887 0
M  V30 1925 N 189.369 5.69474 -1.12602 0
M  V30 1926 H 192.134 1.82229 -2.37935 0
M  V30 1927 H 189.695 0.864903 -1.36861 0
M  V30 1928 H 191.687 3.9279 -0.9746 0
M  V30 1929 H 190.257 3.11214 -0.294068 0
M  V30 1930 H 189.477 2.81291 -2.76169 0
M  V30 1931 H 190.765 3.94278 -3.21593 0
M  V30 1932 H 190.163 5.63297 -0.520899 0
M  V30 1933 H 188.72 6.44363 -0.981842 0
M  V30 1934 N 192.153 1.28127 0.917671 0
M  V30 1935 C 193.101 1.11569 2.04096 0
M  V30 1936 C 194.095 0.0360242 1.69362 0
M  V30 1937 O 195.301 0.194501 1.78946 0
M  V30 1938 H 191.676 0.344097 0.668656 0
M  V30 1939 H 193.647 2.06711 2.15205 0
M  V30 1940 C 192.396 0.790197 3.38602 0
M  V30 1941 H 191.719 1.61293 3.6582 0
M  V30 1942 H 193.159 0.714271 4.1794 0
M  V30 1943 C 191.618 -0.505897 3.3308 0
M  V30 1944 O 192.148 -1.53736 3.71117 0
M  V30 1945 N 190.354 -0.505193 2.86175 0
M  V30 1946 H 189.901 0.334621 2.55417 0
M  V30 1947 H 189.859 -1.37243 2.82863 0
M  V30 1948 N 193.631 -1.12557 1.10312 0
M  V30 1949 C 194.88 -1.83395 0.839588 0
M  V30 1950 C 195.193 -1.84939 -0.636929 0
M  V30 1951 O 196.399 -2.51761 -1.01631 0
M  V30 1952 C 194.855 -3.29303 1.45215 0
M  V30 1953 C 194.463 -3.36122 2.96186 0
M  V30 1954 C 196.207 -4.05121 1.26796 0
M  V30 1955 C 194.114 -4.76357 3.50483 0
M  V30 1956 H 193.044 -0.687133 0.310425 0
M  V30 1957 H 195.695 -1.26746 1.32694 0
M  V30 1958 H 194.077 -3.85812 0.892469 0
M  V30 1959 H 195.251 -2.89559 3.58458 0
M  V30 1960 H 193.566 -2.73776 3.13745 0
M  V30 1961 H 196.163 -5.08668 1.64806 0
M  V30 1962 H 196.506 -4.15773 0.209409 0
M  V30 1963 H 197.039 -3.54967 1.79563 0
M  V30 1964 H 193.778 -4.70899 4.55998 0
M  V30 1965 H 193.298 -5.23377 2.92978 0
M  V30 1966 H 194.977 -5.45294 3.48228 0
M  V30 1967 N 195.109 -0.891671 -1.2995 0
M  V30 1968 C 196.039 -0.379797 -2.30391 0
M  V30 1969 C 197.02 0.540919 -1.6127 0
M  V30 1970 O 198.205 0.453352 -1.88834 0
M  V30 1971 C 195.335 0.400654 -3.44981 0
M  V30 1972 C 194.289 -0.428905 -4.25846 0
M  V30 1973 C 193.615 0.478557 -5.32554 0
M  V30 1974 C 194.915 -1.67458 -4.94727 0
M  V30 1975 H 196.609 -1.21914 -2.73454 0
M  V30 1976 H 194.155 -0.587675 -1.31462 0
M  V30 1977 H 196.108 0.769434 -4.14316 0
M  V30 1978 H 194.832 1.27371 -3.0074 0
M  V30 1979 H 193.491 -0.779911 -3.58208 0
M  V30 1980 H 193.139 1.34951 -4.84559 0
M  V30 1981 H 192.839 -0.0727433 -5.87555 0
M  V30 1982 H 194.363 0.843705 -6.04743 0
M  V30 1983 H 195.777 -1.376 -5.56542 0
M  V30 1984 H 194.174 -2.16659 -5.59624 0
M  V30 1985 H 195.244 -2.41518 -4.20473 0
M  V30 1986 N 196.587 1.43421 -0.653314 0
M  V30 1987 C 197.835 2.01414 -0.166415 0
M  V30 1988 C 198.156 1.51803 1.22397 0
M  V30 1989 O 197.426 0.730693 1.81763 0
M  V30 1990 H 196.006 0.744703 -0.0585319 0
M  V30 1991 H 198.668 1.75629 -0.845003 0
M  V30 1992 H 197.764 3.11734 -0.151111 0
M  V30 1993 N 198.065 0.39524 1.52563 0
M  V30 1994 C 199.311 -0.185318 2.01952 0
M  V30 1995 C 199.644 -1.45964 1.28095 0
M  V30 1996 O 198.919 -1.90689 0.38315 0
M  V30 1997 C 199.202 -0.447193 3.57312 0
M  V30 1998 C 199.055 0.842828 4.41833 0
M  V30 1999 C 200.374 -1.23529 4.22408 0
M  V30 2000 H 197.493 -0.0658788 0.73405 0
M  V30 2001 H 200.135 0.525975 1.82575 0
M  V30 2002 H 198.285 -1.05312 3.73954 0
M  V30 2003 H 199.957 1.4795 4.36931 0
M  V30 2004 H 198.2 1.45686 4.08605 0
M  V30 2005 H 198.871 0.614165 5.48573 0
M  V30 2006 H 201.347 -0.722445 4.0978 0
M  V30 2007 H 200.223 -1.38727 5.3108 0
M  V30 2008 H 200.484 -2.25213 3.80436 0
M  V30 2009 N 199.544 -1.57102 0.125237 0
M  V30 2010 C 200.793 -1.94582 -0.531095 0
M  V30 2011 C 201.106 -1.01126 -1.6743 0
M  V30 2012 O 202.312 -1.28097 -2.39381 0
M  V30 2013 C 200.768 -3.45839 -0.996164 0
M  V30 2014 C 200.376 -4.47842 0.118926 0
M  V30 2015 C 202.12 -3.92227 -1.62352 0
M  V30 2016 C 200.027 -5.90284 -0.363192 0
M  V30 2017 H 198.957 -0.726391 -0.20217 0
M  V30 2018 H 201.608 -1.82339 0.206092 0
M  V30 2019 H 199.99 -3.53338 -1.78796 0
M  V30 2020 H 201.164 -4.52018 0.895358 0
M  V30 2021 H 199.479 -4.11243 0.653324 0
M  V30 2022 H 202.076 -4.96069 -1.99548 0
M  V30 2023 H 202.419 -3.32552 -2.50429 0
M  V30 2024 H 202.952 -3.87554 -0.897019 0
M  V30 2025 H 199.691 -6.53728 0.481679 0
M  V30 2026 H 199.211 -5.89515 -1.10597 0
M  V30 2027 H 200.89 -6.41752 -0.822377 0
M  V30 2028 N 201.022 0.148545 -1.56898 0
M  V30 2029 C 201.952 1.18524 -2.01182 0
M  V30 2030 C 202.933 1.4489 -0.891123 0
M  V30 2031 O 204.118 1.55836 -1.15882 0
M  V30 2032 C 201.248 2.51879 -2.39112 0
M  V30 2033 C 200.202 2.40038 -3.54353 0
M  V30 2034 C 199.528 3.78089 -3.78091 0
M  V30 2035 C 200.828 1.88577 -4.87069 0
M  V30 2036 H 202.522 0.817029 -2.88036 0
M  V30 2037 H 200.068 0.391575 -1.38574 0
M  V30 2038 H 202.021 3.24627 -2.68692 0
M  V30 2039 H 200.745 2.90532 -1.49193 0
M  V30 2040 H 199.404 1.69742 -3.24936 0
M  V30 2041 H 199.052 4.14175 -2.85426 0
M  V30 2042 H 198.752 3.71028 -4.55645 0
M  V30 2043 H 200.276 4.52387 -4.10095 0
M  V30 2044 H 201.69 2.51117 -5.15377 0
M  V30 2045 H 200.087 1.9241 -5.68417 0
M  V30 2046 H 201.157 0.84136 -4.77545 0
M  V30 2047 N 202.5 1.5196 0.417844 0
M  V30 2048 C 203.747 1.65591 1.16559 0
M  V30 2049 C 204.075 0.381565 1.90721 0
M  V30 2050 O 203.33 -0.635156 1.85106 0
M  V30 2051 C 203.629 2.82269 2.19223 0
M  V30 2052 C 203.295 4.20819 1.61933 0
M  V30 2053 C 201.957 4.58506 1.46033 0
M  V30 2054 C 204.309 5.07196 1.20008 0
M  V30 2055 C 201.637 5.80257 0.867113 0
M  V30 2056 C 203.989 6.29544 0.621086 0
M  V30 2057 C 202.653 6.65987 0.449144 0
M  V30 2058 H 201.923 0.605939 0.42652 0
M  V30 2059 H 204.57 1.86041 0.45397 0
M  V30 2060 H 202.875 2.56118 2.96498 0
M  V30 2061 H 204.572 2.90012 2.76936 0
M  V30 2062 H 201.162 3.91116 1.7529 0
M  V30 2063 H 205.346 4.7867 1.31105 0
M  V30 2064 H 200.602 6.07124 0.721833 0
M  V30 2065 H 204.776 6.95805 0.287798 0
M  V30 2066 H 202.403 7.60199 -0.012632 0
M  V30 2067 N 203.978 -0.674533 1.42435 0
M  V30 2068 C 204.908 -1.80009 1.48724 0
M  V30 2069 C 205.889 -1.6659 0.343793 0
M  V30 2070 O 207.074 -1.86007 0.558137 0
M  V30 2071 C 204.204 -3.18306 1.38919 0
M  V30 2072 C 203.158 -3.46461 2.51294 0
M  V30 2073 C 202.484 -4.84335 2.26547 0
M  V30 2074 C 203.784 -3.43328 3.93603 0
M  V30 2075 H 205.478 -1.75004 2.42928 0
M  V30 2076 H 203.024 -0.840533 1.16923 0
M  V30 2077 H 204.977 -3.9678 1.41927 0
M  V30 2078 H 203.701 -3.2399 0.412094 0
M  V30 2079 H 202.36 -2.70348 2.47604 0
M  V30 2080 H 202.008 -4.86669 1.2713 0
M  V30 2081 H 201.708 -5.04136 3.01861 0
M  V30 2082 H 203.232 -5.65094 2.31304 0
M  V30 2083 H 204.646 -4.11772 3.98894 0
M  V30 2084 H 203.043 -3.74664 4.68771 0
M  V30 2085 H 204.113 -2.41897 4.20255 0
M  V30 2086 N 205.456 -1.28612 -0.910864 0
M  V30 2087 C 206.872 -1.06381 -1.18976 0
M  V30 2088 C 207.072 0.191998 -2.00583 0
M  V30 2089 O 206.128 0.892869 -2.36187 0
M  V30 2090 C 207.441 -2.31295 -1.92154 0
M  V30 2091 C 208.989 -2.36503 -2.05025 0
M  V30 2092 C 209.464 -3.61191 -2.81612 0
M  V30 2093 N 210.955 -3.61847 -2.89172 0
M  V30 2094 C 211.69 -4.55004 -3.4894 0
M  V30 2095 N 211.186 -5.58482 -4.09963 0
M  V30 2096 N 212.979 -4.42594 -3.46506 0
M  V30 2097 H 205.13 -2.09221 -0.366094 0
M  V30 2098 H 207.393 -0.921003 -0.224629 0
M  V30 2099 H 207.099 -3.228 -1.39618 0
M  V30 2100 H 206.973 -2.37934 -2.9269 0
M  V30 2101 H 209.36 -1.45494 -2.5674 0
M  V30 2102 H 209.441 -2.33857 -1.03657 0
M  V30 2103 H 209.085 -4.52545 -2.30576 0
M  V30 2104 H 209.015 -3.61092 -3.83302 0
M  V30 2105 H 211.506 -2.87022 -2.45819 0
M  V30 2106 H 211.819 -6.25704 -4.53557 0
M  V30 2107 H 210.164 -5.62305 -4.08459 0
M  V30 2108 H 213.355 -3.60953 -2.98045 0
M  V30 2109 H 213.528 -5.15381 -3.92793 0
M  V30 2110 N 206.934 1.1197 -1.10907 0
M  V30 2111 C 207.864 2.19928 -0.784473 0
M  V30 2112 C 208.845 1.6833 0.244726 0
M  V30 2113 O 210.03 1.93892 0.109418 0
M  V30 2114 C 207.16 3.46597 -0.220827 0
M  V30 2115 C 206.114 4.11376 -1.18127 0
M  V30 2116 C 205.44 5.32554 -0.478594 0
M  V30 2117 C 206.74 4.56945 -2.52979 0
M  V30 2118 H 208.434 2.47337 -1.68715 0
M  V30 2119 H 205.98 1.18879 -0.812642 0
M  V30 2120 H 207.933 4.21396 0.0184278 0
M  V30 2121 H 206.657 3.1863 0.717113 0
M  V30 2122 H 205.316 3.38564 -1.40606 0
M  V30 2123 H 204.964 5.00856 0.463976 0
M  V30 2124 H 204.664 5.76844 -1.11912 0
M  V30 2125 H 206.188 6.10096 -0.248 0
M  V30 2126 H 207.602 5.23093 -2.3462 0
M  V30 2127 H 205.999 5.1203 -3.12962 0
M  V30 2128 H 207.069 3.70676 -3.12614 0
M  V30 2129 N 208.412 0.89855 1.29475 0
M  V30 2130 C 209.64 0.539261 1.99749 0
M  V30 2131 C 210.055 -0.875716 1.67262 0
M  V30 2132 O 209.412 -1.57786 0.917049 0
M  V30 2133 C 209.463 0.72061 3.54245 0
M  V30 2134 O 209.184 2.07989 3.8558 0
M  V30 2135 C 210.685 0.366118 4.41786 0
M  V30 2136 H 207.905 0.207047 0.638258 0
M  V30 2137 H 210.449 1.20758 1.65039 0
M  V30 2138 H 208.604 0.0994862 3.87272 0
M  V30 2139 H 209.018 2.10841 4.80257 0
M  V30 2140 H 210.492 0.543848 5.49314 0
M  V30 2141 H 210.969 -0.696763 4.33638 0
M  V30 2142 H 211.575 0.964135 4.14228 0
M  V30 2143 N 209.89 -1.43072 0.660911 0
M  V30 2144 C 211.136 -2.02545 0.186337 0
M  V30 2145 C 211.491 -1.51253 -1.18913 0
M  V30 2146 O 210.784 -0.699167 -1.78388 0
M  V30 2147 C 210.978 -3.57103 0.145563 0
M  V30 2148 C 210.807 -4.23393 1.51554 0
M  V30 2149 C 209.577 -4.59144 2.10984 0
M  V30 2150 C 211.775 -4.51897 2.45548 0
M  V30 2151 N 209.757 -5.10545 3.40907 0
M  V30 2152 C 211.128 -5.04698 3.6011 0
M  V30 2153 C 213.183 -4.33872 2.44253 0
M  V30 2154 C 211.886 -5.41371 4.73613 0
M  V30 2155 C 213.912 -4.71612 3.56842 0
M  V30 2156 C 213.274 -5.24553 4.70131 0
M  V30 2157 H 209.373 -0.773823 0.112792 0
M  V30 2158 H 211.957 -1.74137 0.870885 0
M  V30 2159 H 210.128 -3.85059 -0.508353 0
M  V30 2160 H 211.86 -4.03264 -0.340598 0
M  V30 2161 H 208.615 -4.4444 1.63615 0
M  V30 2162 H 209.039 -5.40689 4.07411 0
M  V30 2163 H 213.681 -3.92208 1.579 0
M  V30 2164 H 211.399 -5.81975 5.60652 0
M  V30 2165 H 214.985 -4.59354 3.57051 0
M  V30 2166 H 213.865 -5.53213 5.5581 0
M  V30 2167 N 211.368 -0.403325 -1.52352 0
M  V30 2168 C 212.617 0.175668 -2.00934 0
M  V30 2169 C 212.93 1.46718 -1.29356 0
M  V30 2170 O 214.136 2.12708 -1.68724 0
M  V30 2171 C 212.592 0.363612 -3.58058 0
M  V30 2172 C 212.2 -0.915472 -4.38547 0
M  V30 2173 C 213.944 0.89821 -4.14888 0
M  V30 2174 C 211.851 -0.695035 -5.87302 0
M  V30 2175 H 210.781 0.0694234 -0.750797 0
M  V30 2176 H 213.432 -0.527879 -1.75743 0
M  V30 2177 H 211.814 1.12935 -3.79555 0
M  V30 2178 H 212.988 -1.68691 -4.28812 0
M  V30 2179 H 211.303 -1.37606 -3.93006 0
M  V30 2180 H 213.9 1.07907 -5.23699 0
M  V30 2181 H 214.243 1.87126 -3.71873 0
M  V30 2182 H 214.776 0.191681 -3.97338 0
M  V30 2183 H 211.515 -1.63948 -6.34666 0
M  V30 2184 H 211.035 0.0372116 -5.99788 0
M  V30 2185 H 212.714 -0.33497 -6.46132 0
M  V30 2186 N 212.846 1.57033 -0.133567 0
M  V30 2187 C 214.092 1.95976 0.521649 0
M  V30 2188 C 214.425 1.01779 1.65393 0
M  V30 2189 O 213.7 0.0576581 1.94415 0
M  V30 2190 C 213.983 3.44738 1.04057 0
M  V30 2191 C 213.836 4.49711 -0.0892897 0
M  V30 2192 C 215.155 3.95682 1.92675 0
M  V30 2193 H 212.274 0.712579 0.188149 0
M  V30 2194 H 214.916 1.88813 -0.212076 0
M  V30 2195 H 213.066 3.50973 1.66583 0
M  V30 2196 H 214.738 4.55565 -0.725152 0
M  V30 2197 H 212.981 4.27261 -0.750378 0
M  V30 2198 H 213.652 5.51099 0.315284 0
M  V30 2199 H 216.128 3.91841 1.39998 0
M  V30 2200 H 215.004 5.00262 2.25897 0
M  V30 2201 H 215.265 3.37239 2.85872 0
M  V30 2202 N 214.325 -0.140222 1.56975 0
M  V30 2203 C 215.573 -0.850005 1.83356 0
M  V30 2204 C 215.894 -1.81399 0.71551 0
M  V30 2205 O 215.164 -1.94136 -0.262294 0
M  V30 2206 H 213.744 -0.316886 0.676456 0
M  V30 2207 H 216.406 -0.132608 1.94448 0
M  V30 2208 H 215.502 -1.40814 2.78528 0
M  V30 2209 N 215.803 -1.52179 -0.40978 0
M  V30 2210 C 217.049 -1.66453 -1.15851 0
M  V30 2211 C 217.382 -0.392972 -1.90182 0
M  V30 2212 O 216.657 0.608579 -1.84734 0
M  V30 2213 C 216.94 -2.88612 -2.15349 0
M  V30 2214 C 216.793 -4.25815 -1.44918 0
M  V30 2215 C 218.112 -3.06294 -3.16026 0
M  V30 2216 H 215.231 -0.60575 -0.419805 0
M  V30 2217 H 217.873 -1.84732 -0.444314 0
M  V30 2218 H 216.023 -2.73158 -2.76255 0
M  V30 2219 H 217.695 -4.52995 -0.871365 0
M  V30 2220 H 215.938 -4.27247 -0.751159 0
M  V30 2221 H 216.609 -5.07337 -2.17516 0
M  V30 2222 H 219.085 -3.20641 -2.65195 0
M  V30 2223 H 217.961 -3.93283 -3.8291 0
M  V30 2224 H 218.222 -2.19579 -3.83715 0
M  V30 2225 N 217.281 0.66697 -1.42791 0
M  V30 2226 C 218.244 1.76211 -1.46568 0
M  V30 2227 C 219.244 1.56896 -0.352196 0
M  V30 2228 O 220.434 1.63044 -0.613364 0
M  V30 2229 C 217.566 3.14935 -1.30494 0
M  V30 2230 H 218.759 1.74247 -2.44086 0
M  V30 2231 H 216.312 0.877342 -1.29354 0
M  V30 2232 H 217.047 3.2252 -0.339301 0
M  V30 2233 H 216.832 3.30359 -2.11199 0
M  V30 2234 H 218.322 3.94821 -1.36038 0
M  V30 2235 N 218.759 1.29093 0.90403 0
M  V30 2236 C 220.007 1.16583 1.65085 0
M  V30 2237 C 220.328 -0.283933 1.92922 0
M  V30 2238 O 219.598 -1.19509 1.55224 0
M  V30 2239 H 218.178 0.428467 0.611903 0
M  V30 2240 H 220.84 1.61959 1.08422 0
M  V30 2241 H 219.936 1.71266 2.6091 0
M  V30 2242 N 220.237 -1.11381 1.11499 0
M  V30 2243 C 221.483 -1.83403 0.865512 0
M  V30 2244 C 221.816 -1.84459 -0.607329 0
M  V30 2245 O 221.091 -1.29811 -1.44842 0
M  V30 2246 C 221.374 -3.30552 1.42855 0
M  V30 2247 C 221.227 -3.37886 2.96906 0
M  V30 2248 C 222.546 -4.26643 1.08 0
M  V30 2249 H 219.665 -0.665879 0.31587 0
M  V30 2250 H 222.307 -1.30601 1.37998 0
M  V30 2251 H 220.457 -3.75648 0.990985 0
M  V30 2252 H 222.129 -3.01343 3.49271 0
M  V30 2253 H 220.372 -2.78088 3.32941 0
M  V30 2254 H 221.043 -4.41458 3.31389 0
M  V30 2255 H 223.519 -3.89729 1.45775 0
M  V30 2256 H 222.395 -5.27986 1.50072 0
M  V30 2257 H 222.656 -4.42099 -0.00915037 0
M  V30 2258 N 221.715 -0.905404 -1.28997 0
M  V30 2259 C 222.645 -0.404212 -2.29975 0
M  V30 2260 C 223.626 0.523784 -1.61835 0
M  V30 2261 O 224.811 0.433298 -1.89304 0
M  V30 2262 C 221.941 0.364042 -3.45387 0
M  V30 2263 C 220.895 -0.474048 -4.25367 0
M  V30 2264 C 220.221 0.422045 -5.33032 0
M  V30 2265 C 221.521 -1.72696 -4.92923 0
M  V30 2266 H 223.215 -1.24807 -2.72146 0
M  V30 2267 H 220.761 -0.601585 -1.30832 0
M  V30 2268 H 222.714 0.725447 -4.15109 0
M  V30 2269 H 221.438 1.24174 -3.02074 0
M  V30 2270 H 220.097 -0.81786 -3.57361 0
M  V30 2271 H 219.745 1.29804 -4.85963 0
M  V30 2272 H 219.445 -0.135057 -5.87445 0
M  V30 2273 H 220.969 0.779517 -6.05604 0
M  V30 2274 H 222.383 -1.43495 -5.55051 0
M  V30 2275 H 220.78 -2.22582 -5.57295 0
M  V30 2276 H 221.85 -2.45964 -4.17887 0
M  V30 2277 N 223.193 1.4272 -0.668489 0
M  V30 2278 C 224.103 2.34596 0.0139753 0
M  V30 2279 C 225.119 1.5474 0.795703 0
M  V30 2280 O 226.295 1.87334 0.739466 0
M  V30 2281 C 223.36 3.33202 0.957982 0
M  V30 2282 C 222.421 4.28957 0.17149 0
M  V30 2283 C 221.654 5.22853 1.07053 0
M  V30 2284 O 221.877 5.21531 2.31001 0
M  V30 2285 O 220.811 5.9952 0.534727 0
M  V30 2286 H 224.637 2.9448 -0.742661 0
M  V30 2287 H 222.222 1.43117 -0.428705 0
M  V30 2288 H 224.104 3.93796 1.50008 0
M  V30 2289 H 222.779 2.758 1.69458 0
M  V30 2290 H 221.686 3.71796 -0.414558 0
M  V30 2291 H 223.019 4.89383 -0.52586 0
M  V30 2292 N 224.671 0.411399 1.52136 0
M  V30 2293 C 225.896 -0.165538 2.06738 0
M  V30 2294 C 226.321 -1.379 1.27926 0
M  V30 2295 O 225.679 -1.78628 0.310114 0
M  V30 2296 C 225.727 -0.492124 3.57226 0
M  V30 2297 O 224.831 -1.58276 3.80818 0
M  V30 2298 H 224.172 -0.0132132 0.663869 0
M  V30 2299 H 226.702 0.585253 1.96051 0
M  V30 2300 H 226.712 -0.750104 4.01045 0
M  V30 2301 H 225.387 0.394922 4.14021 0
M  V30 2302 H 223.964 -1.31677 3.48877 0
M  V30 2303 N 226.149 -1.5696 0.141893 0
M  V30 2304 C 227.396 -1.9596 -0.510492 0
M  V30 2305 C 227.724 -1.02648 -1.65208 0
M  V30 2306 O 226.979 -0.0546947 -1.95624 0
M  V30 2307 C 227.278 -3.41242 -1.06249 0
M  V30 2308 C 226.944 -4.50882 -0.0398791 0
M  V30 2309 C 225.606 -4.80595 0.241247 0
M  V30 2310 C 227.958 -5.17058 0.65578 0
M  V30 2311 C 225.286 -5.73792 1.22393 0
M  V30 2312 C 227.638 -6.11313 1.62724 0
M  V30 2313 C 226.302 -6.39407 1.91612 0
M  V30 2314 H 225.572 -0.717068 -0.186802 0
M  V30 2315 H 228.219 -1.90142 0.227643 0
M  V30 2316 H 226.524 -3.43866 -1.87785 0
M  V30 2317 H 228.221 -3.68742 -1.57576 0
M  V30 2318 H 224.811 -4.27754 -0.269174 0
M  V30 2319 H 228.995 -4.94239 0.451779 0
M  V30 2320 H 224.251 -5.93853 1.45424 0
M  V30 2321 H 228.425 -6.61668 2.17183 0
M  V30 2322 H 226.052 -7.11427 2.6791 0
M  V30 2323 N 227.627 0.131896 -1.57047 0
M  V30 2324 C 228.557 1.16384 -2.02428 0
M  V30 2325 C 229.538 1.43936 -0.90644 0
M  V30 2326 O 230.723 1.54599 -1.17528 0
M  V30 2327 C 227.853 2.49328 -2.4177 0
M  V30 2328 C 226.807 2.36266 -3.56879 0
M  V30 2329 C 226.133 3.74057 -3.8208 0
M  V30 2330 C 227.433 1.834 -4.89042 0
M  V30 2331 H 229.127 0.786433 -2.88887 0
M  V30 2332 H 226.673 0.376855 -1.38981 0
M  V30 2333 H 228.626 3.21759 -2.7212 0
M  V30 2334 H 227.35 2.88934 -1.52266 0
M  V30 2335 H 226.009 1.66286 -3.26718 0
M  V30 2336 H 225.657 4.11125 -2.89803 0
M  V30 2337 H 225.357 3.66174 -4.59554 0
M  V30 2338 H 226.881 4.48012 -4.1487 0
M  V30 2339 H 228.295 2.45636 -5.18011 0
M  V30 2340 H 226.692 1.8637 -5.70426 0
M  V30 2341 H 227.762 0.790662 -4.7841 0
M  V30 2342 N 229.106 1.52395 0.401703 0
M  V30 2343 C 230.355 1.66044 1.14509 0
M  V30 2344 C 230.668 0.400216 1.91462 0
M  V30 2345 O 231.874 0.416632 2.68284 0
M  V30 2346 C 230.33 2.93388 2.0845 0
M  V30 2347 C 229.938 4.26545 1.36978 0
M  V30 2348 C 231.682 3.16402 2.83001 0
M  V30 2349 C 229.589 5.45007 2.29611 0
M  V30 2350 H 228.519 0.618562 0.431158 0
M  V30 2351 H 231.17 1.78886 0.40892 0
M  V30 2352 H 229.552 2.74263 2.8565 0
M  V30 2353 H 230.726 4.56179 0.650916 0
M  V30 2354 H 229.041 4.09692 0.74438 0
M  V30 2355 H 231.638 4.02085 3.52465 0
M  V30 2356 H 231.981 2.30943 3.46368 0
M  V30 2357 H 232.514 3.36034 2.12898 0
M  V30 2358 H 229.253 6.32835 1.70879 0
M  V30 2359 H 228.773 5.19702 2.9945 0
M  V30 2360 H 230.452 5.7838 2.89974 0
M  V30 2361 N 230.584 -0.659388 1.43143 0
M  V30 2362 C 231.83 -1.42145 1.44647 0
M  V30 2363 C 232.163 -1.9408 0.0681907 0
M  V30 2364 O 231.438 -1.71899 -0.910007 0
M  V30 2365 C 231.721 -2.60735 2.48373 0
M  V30 2366 C 231.574 -2.14332 3.95451 0
M  V30 2367 C 232.893 -3.62951 2.48906 0
M  V30 2368 H 230.012 -0.51552 0.526696 0
M  V30 2369 H 232.654 -0.748069 1.74654 0
M  V30 2370 H 230.804 -3.18184 2.22916 0
M  V30 2371 H 232.476 -1.61932 4.31944 0
M  V30 2372 H 230.719 -1.4576 4.08578 0
M  V30 2373 H 231.39 -2.99583 4.63631 0
M  V30 2374 H 233.866 -3.1525 2.71582 0
M  V30 2375 H 232.742 -4.43487 3.23435 0
M  V30 2376 H 233.003 -4.15126 1.52061 0
M  V30 2377 N 232.062 -1.29571 -0.897171 0
M  V30 2378 C 233.025 -1.14913 -1.98312 0
M  V30 2379 C 234.025 -0.0838629 -1.60581 0
M  V30 2380 O 235.215 -0.331006 -1.71026 0
M  V30 2381 C 232.347 -0.757835 -3.3237 0
M  V30 2382 H 233.54 -2.11377 -2.12743 0
M  V30 2383 H 231.093 -1.12793 -1.08201 0
M  V30 2384 H 231.828 0.206837 -3.2364 0
M  V30 2385 H 231.613 -1.52755 -3.61121 0
M  V30 2386 H 233.103 -0.678408 -4.12053 0
M  V30 2387 N 233.54 1.10788 -1.12088 0
M  V30 2388 C 234.473 2.16237 -0.729168 0
M  V30 2389 C 235.451 1.60207 0.277921 0
M  V30 2390 O 236.635 1.87707 0.172737 0
M  V30 2391 C 233.762 3.38609 -0.0786848 0
M  V30 2392 C 232.808 4.13322 -1.05201 0
M  V30 2393 S 233.641 4.69371 -2.57781 0
M  V30 2394 C 234.797 5.95058 -1.94053 0
M  V30 2395 H 235.03 2.4913 -1.62239 0
M  V30 2396 H 232.563 1.22519 -0.939603 0
M  V30 2397 H 234.521 4.09473 0.290254 0
M  V30 2398 H 233.182 3.03962 0.791593 0
M  V30 2399 H 232.375 5.01051 -0.544433 0
M  V30 2400 H 231.977 3.48251 -1.36371 0
M  V30 2401 H 234.269 6.65278 -1.28107 0
M  V30 2402 H 235.212 6.50472 -2.79807 0
M  V30 2403 H 235.62 5.46918 -1.39787 0
M  V30 2404 N 235.018 0.912232 1.28515 0
M  V30 2405 C 236.258 0.551677 1.96814 0
M  V30 2406 C 236.622 -0.887825 1.7024 0
M  V30 2407 O 237.823 -1.35588 2.32098 0
M  V30 2408 C 236.094 0.850555 3.47132 0
M  V30 2409 S 237.653 0.59619 4.34731 0
M  V30 2410 H 234.471 0.204191 0.681049 0
M  V30 2411 H 237.073 1.17736 1.56072 0
M  V30 2412 H 235.777 1.8962 3.63968 0
M  V30 2413 H 235.308 0.213471 3.9282 0
M  V30 2414 H 237.323 -0.553154 4.93107 0
M  V30 2415 N 236.496 -1.42363 0.676048 0
M  V30 2416 C 237.736 -2.03392 0.20273 0
M  V30 2417 C 238.1 -1.52306 -1.16906 0
M  V30 2418 O 239.301 -2.05129 -1.73711 0
M  V30 2419 C 237.572 -3.56614 0.236947 0
M  V30 2420 S 239.131 -4.38489 -0.165186 0
M  V30 2421 H 235.949 -0.70611 0.0832418 0
M  V30 2422 H 238.551 -1.74093 0.88948 0
M  V30 2423 H 237.255 -3.91293 1.23767 0
M  V30 2424 H 236.786 -3.90587 -0.469596 0
M  V30 2425 H 238.801 -4.76093 -1.39822 0
M  V30 2426 N 237.974 -0.419461 -1.51915 0
M  V30 2427 C 239.202 0.152136 -2.0634 0
M  V30 2428 C 239.617 1.37988 -1.28859 0
M  V30 2429 O 238.974 1.79243 -0.343232 0
M  V30 2430 C 239.025 0.492266 -3.58133 0
M  V30 2431 O 238.746 -0.686736 -4.32684 0
M  V30 2432 C 240.247 1.11648 -4.2901 0
M  V30 2433 H 237.467 0.0158325 -0.670813 0
M  V30 2434 H 240.011 -0.593394 -1.95702 0
M  V30 2435 H 238.166 1.18769 -3.68745 0
M  V30 2436 H 238.58 -0.400341 -5.2297 0
M  V30 2437 H 240.054 1.3046 -5.36362 0
M  V30 2438 H 240.531 2.09251 -3.86148 0
M  V30 2439 H 241.137 0.460958 -4.22795 0
M  V30 2440 N 239.452 1.56882 -0.150215 0
M  V30 2441 C 240.692 1.98119 0.502804 0
M  V30 2442 C 241.056 1.03327 1.61826 0
M  V30 2443 O 242.257 1.33621 2.33236 0
M  V30 2444 C 240.528 3.43329 0.992988 0
M  V30 2445 S 242.087 4.0659 1.65015 0
M  V30 2446 H 238.905 0.692189 0.162467 0
M  V30 2447 H 241.507 1.93988 -0.242689 0
M  V30 2448 H 240.211 4.10046 0.170436 0
M  V30 2449 H 239.742 3.5118 1.77303 0
M  V30 2450 H 241.757 3.99906 2.93752 0
M  V30 2451 N 240.93 -0.123565 1.57115 0
M  V30 2452 C 242.158 -0.846461 1.88793 0
M  V30 2453 C 242.573 -1.73652 0.740976 0
M  V30 2454 O 241.93 -1.80207 -0.288393 0
M  V30 2455 C 241.981 -1.6837 3.19897 0
M  V30 2456 O 241.702 -0.829477 4.30176 0
M  V30 2457 C 243.203 -2.51214 3.65248 0
M  V30 2458 H 240.423 -0.243573 0.625231 0
M  V30 2459 H 242.967 -0.109324 2.04208 0
M  V30 2460 H 241.122 -2.37364 3.06165 0
M  V30 2461 H 241.536 -1.40651 5.0529 0
M  V30 2462 H 243.01 -3.05497 4.59756 0
M  V30 2463 H 243.487 -3.28359 2.9168 0
M  V30 2464 H 244.093 -1.8747 3.81752 0
M  V30 2465 N 242.408 -1.52605 -0.393616 0
M  V30 2466 C 243.341 -1.71798 -1.50202 0
M  V30 2467 C 244.319 -0.565743 -1.52441 0
M  V30 2468 O 245.503 -0.794987 -1.70916 0
M  V30 2469 C 242.63 -1.7714 -2.88685 0
M  V30 2470 C 241.676 -2.98845 -3.04292 0
M  V30 2471 S 242.509 -4.58909 -2.75976 0
M  V30 2472 C 243.665 -4.6706 -4.1666 0
M  V30 2473 H 243.898 -2.65542 -1.33696 0
M  V30 2474 H 241.431 -1.42839 -0.586195 0
M  V30 2475 H 243.389 -1.80903 -3.68489 0
M  V30 2476 H 242.05 -0.844969 -3.02521 0
M  V30 2477 H 241.243 -2.99111 -4.05646 0
M  V30 2478 H 240.845 -2.9305 -2.32374 0
M  V30 2479 H 243.137 -4.45391 -5.10523 0
M  V30 2480 H 244.08 -5.6905 -4.21412 0
M  V30 2481 H 244.488 -3.95944 -4.02354 0
M  V30 2482 N 243.887 0.651787 -1.4349 0
M  V30 2483 C 244.817 1.77621 -1.51569 0
M  V30 2484 C 245.798 1.66022 -0.370253 0
M  V30 2485 O 246.983 1.85095 -0.587658 0
M  V30 2486 C 244.113 3.16056 -1.43966 0
M  V30 2487 C 243.067 3.4242 -2.56774 0
M  V30 2488 C 242.393 4.8067 -2.34223 0
M  V30 2489 C 243.693 3.37023 -3.99015 0
M  V30 2490 H 245.387 1.71117 -2.45681 0
M  V30 2491 H 242.933 0.821825 -1.18246 0
M  V30 2492 H 244.886 3.94472 -1.48221 0
M  V30 2493 H 243.61 3.23293 -0.463586 0
M  V30 2494 H 242.269 2.66375 -2.51873 0
M  V30 2495 H 241.917 4.84585 -1.34856 0
M  V30 2496 H 241.617 4.9927 -3.09844 0
M  V30 2497 H 243.141 5.61342 -2.40265 0
M  V30 2498 H 244.555 4.05374 -4.05395 0
M  V30 2499 H 242.952 3.67159 -4.74673 0
M  V30 2500 H 244.022 2.3518 -4.2405 0
M  V30 2501 N 245.365 1.30045 0.890287 0
M  V30 2502 C 246.593 1.21472 1.67487 0
M  V30 2503 C 247.008 -0.223241 1.87476 0
M  V30 2504 O 246.365 -1.14828 1.41847 0
M  V30 2505 C 246.416 1.93394 3.05419 0
M  V30 2506 O 246.137 3.31576 2.86337 0
M  V30 2507 C 247.638 1.91414 3.99844 0
M  V30 2508 H 244.858 0.420604 0.522813 0
M  V30 2509 H 247.402 1.7158 1.11268 0
M  V30 2510 H 245.557 1.47099 3.58386 0
M  V30 2511 H 245.971 3.67929 3.73802 0
M  V30 2512 H 247.445 2.46285 4.94012 0
M  V30 2513 H 247.922 0.891833 4.3005 0
M  V30 2514 H 248.528 2.37496 3.52811 0
M  V30 2515 N 246.843 -1.10192 1.12674 0
M  V30 2516 C 247.806 -2.14786 0.799979 0
M  V30 2517 C 248.806 -1.59711 -0.18685 0
M  V30 2518 O 249.996 -1.74156 0.0392558 0
M  V30 2519 C 247.128 -3.40374 0.189228 0
M  V30 2520 H 248.321 -2.45203 1.72671 0
M  V30 2521 H 245.874 -1.25597 0.930326 0
M  V30 2522 H 246.609 -3.15577 -0.747107 0
M  V30 2523 H 246.394 -3.81637 0.899766 0
M  V30 2524 H 247.884 -4.17594 -0.0228143 0
M  V30 2525 N 248.321 -0.919034 -1.28029 0
M  V30 2526 C 249.57 -0.550802 -1.94034 0
M  V30 2527 C 249.883 0.910877 -1.73096 0
M  V30 2528 O 251.089 1.3875 -2.33368 0
M  V30 2529 C 249.545 -0.934249 -3.47563 0
M  V30 2530 C 249.153 -2.41602 -3.7727 0
M  V30 2531 C 250.897 -0.636854 -4.19696 0
M  V30 2532 C 248.804 -2.73932 -5.24133 0
M  V30 2533 H 247.734 -0.202273 -0.726362 0
M  V30 2534 H 250.385 -1.11867 -1.45458 0
M  V30 2535 H 248.767 -0.295115 -3.94899 0
M  V30 2536 H 249.941 -3.10233 -3.40723 0
M  V30 2537 H 248.256 -2.68441 -3.18321 0
M  V30 2538 H 250.853 -0.855005 -5.2782 0
M  V30 2539 H 251.196 0.425575 -4.14119 0
M  V30 2540 H 251.729 -1.23469 -3.78154 0
M  V30 2541 H 248.468 -3.79049 -5.34792 0
M  V30 2542 H 247.988 -2.09942 -5.61858 0
M  V30 2543 H 249.667 -2.61215 -5.91925 0
M  V30 2544 N 249.799 1.42003 -0.683588 0
M  V30 2545 C 251.024 2.06265 -0.216647 0
M  V30 2546 C 251.449 1.51059 1.12083 0
M  V30 2547 O 250.807 0.632638 1.69904 0
M  V30 2548 C 250.855 3.60191 -0.171759 0
M  V30 2549 O 249.959 4.03396 0.857069 0
M  V30 2550 H 249.3 0.65502 -0.108834 0
M  V30 2551 H 251.83 1.81982 -0.935077 0
M  V30 2552 H 251.84 4.08 0.0014303 0
M  V30 2553 H 250.515 3.99743 -1.14796 0
M  V30 2554 H 249.092 3.67117 0.654208 0
M  V30 2555 N 251.277 0.427512 1.51691 0
M  V30 2556 C 252.21 -0.433876 2.24037 0
M  V30 2557 C 253.188 -1.03287 1.25581 0
M  V30 2558 O 254.372 -1.07722 1.54688 0
M  V30 2559 C 251.499 -1.60385 2.98319 0
M  V30 2560 C 250.545 -1.12648 4.11355 0
M  V30 2561 S 251.378 -0.076543 5.35445 0
M  V30 2562 C 252.534 -1.25141 6.13262 0
M  V30 2563 H 252.767 0.180367 2.96752 0
M  V30 2564 H 250.3 0.211946 1.52938 0
M  V30 2565 H 252.258 -2.27462 3.41718 0
M  V30 2566 H 250.919 -2.18948 2.25213 0
M  V30 2567 H 250.112 -2.0011 4.62571 0
M  V30 2568 H 249.714 -0.534088 3.70167 0
M  V30 2569 H 252.006 -2.17162 6.41753 0
M  V30 2570 H 252.949 -0.779411 7.03797 0
M  V30 2571 H 253.357 -1.48553 5.44603 0
M  V30 2572 N 252.755 -1.56801 0.158532 0
M  V30 2573 C 253.98 -2.01295 -0.499516 0
M  V30 2574 C 254.405 -1.03799 -1.56867 0
M  V30 2575 O 253.763 -0.0155162 -1.81293 0
M  V30 2576 C 253.811 -3.44469 -1.06647 0
M  V30 2577 O 252.915 -3.50012 -2.18095 0
M  V30 2578 H 252.256 -0.652884 -0.12099 0
M  V30 2579 H 254.786 -2.02958 0.258661 0
M  V30 2580 H 254.796 -3.8351 -1.39227 0
M  V30 2581 H 253.471 -4.14932 -0.283581 0
M  V30 2582 H 252.048 -3.22822 -1.86656 0
M  V30 2583 N 254.233 0.115231 -1.57178 0
M  V30 2584 C 255.196 1.12526 -1.99676 0
M  V30 2585 C 256.196 1.34095 -0.88742 0
M  V30 2586 O 257.386 1.30548 -1.15337 0
M  V30 2587 C 254.518 2.4789 -2.34015 0
M  V30 2588 H 255.711 0.759912 -2.90113 0
M  V30 2589 H 253.264 0.359648 -1.52106 0
M  V30 2590 H 253.999 2.89339 -1.4647 0
M  V30 2591 H 253.784 2.33588 -3.14927 0
M  V30 2592 H 255.274 3.20575 -2.67622 0
M  V30 2593 N 255.711 1.52812 0.385517 0
M  V30 2594 C 256.96 1.67249 1.12741 0
M  V30 2595 C 257.273 0.4205 1.91027 0
M  V30 2596 O 258.479 0.445064 2.67827 0
M  V30 2597 C 256.935 2.95583 2.05326 0
M  V30 2598 C 256.543 4.27974 1.32447 0
M  V30 2599 C 258.287 3.19386 2.7963 0
M  V30 2600 C 256.194 5.47412 2.23818 0
M  V30 2601 H 255.124 0.6231 0.424573 0
M  V30 2602 H 257.775 1.79309 0.389924 0
M  V30 2603 H 256.157 2.77277 2.82725 0
M  V30 2604 H 257.331 4.56844 0.602495 0
M  V30 2605 H 255.646 4.10459 0.700885 0
M  V30 2606 H 258.243 4.05801 3.48181 0
M  V30 2607 H 258.586 2.34604 3.43899 0
M  V30 2608 H 259.119 3.38274 2.09322 0
M  V30 2609 H 255.858 6.34612 1.64157 0
M  V30 2610 H 255.378 5.22849 2.93921 0
M  V30 2611 H 257.057 5.81423 2.83824 0
M  V30 2612 N 257.189 -0.644168 1.43834 0
M  V30 2613 C 258.152 -1.73857 1.49353 0
M  V30 2614 C 259.152 -1.56315 0.377112 0
M  V30 2615 O 260.342 -1.62048 0.639226 0
M  V30 2616 C 257.474 -3.12819 1.35488 0
M  V30 2617 H 258.667 -1.70342 2.46827 0
M  V30 2618 H 256.22 -0.856652 1.30733 0
M  V30 2619 H 256.955 -3.2194 0.390569 0
M  V30 2620 H 256.74 -3.26958 2.16428 0
M  V30 2621 H 258.23 -3.92606 1.42302 0
M  V30 2622 N 258.668 -1.30515 -0.883378 0
M  V30 2623 C 259.896 -1.22359 -1.66841 0
M  V30 2624 C 260.311 0.213296 -1.87591 0
M  V30 2625 O 259.668 1.14075 -1.42454 0
M  V30 2626 C 259.719 -1.95011 -3.04389 0
M  V30 2627 O 259.44 -3.3309 -2.84575 0
M  V30 2628 C 260.941 -1.93532 -3.98824 0
M  V30 2629 H 258.161 -0.423371 -0.520575 0
M  V30 2630 H 260.705 -1.72167 -1.10357 0
M  V30 2631 H 258.86 -1.48997 -3.57601 0
M  V30 2632 H 259.274 -3.69907 -3.71846 0
M  V30 2633 H 260.748 -2.48902 -4.92699 0
M  V30 2634 H 261.225 -0.914627 -4.29571 0
M  V30 2635 H 261.831 -2.39364 -3.51547 0
M  V30 2636 N 260.146 1.09593 -1.13257 0
M  V30 2637 C 261.094 2.18271 -0.803783 0
M  V30 2638 C 262.088 1.68054 0.213148 0
M  V30 2639 O 263.294 1.79862 0.0704699 0
M  V30 2640 H 259.669 0.711949 -0.242143 0
M  V30 2641 H 261.64 2.43235 -1.72856 0
M  V30 2642 C 260.389 3.46536 -0.28424 0
M  V30 2643 H 259.712 3.85545 -1.05807 0
M  V30 2644 H 261.152 4.23899 -0.0925945 0
M  V30 2645 C 259.611 3.22036 0.989684 0
M  V30 2646 O 260.141 3.44509 2.06584 0
M  V30 2647 N 258.347 2.7565 0.920086 0
M  V30 2648 H 257.894 2.57562 0.0442019 0
M  V30 2649 H 257.852 2.59635 1.77306 0
M  V30 2650 N 261.624 0.925811 1.2754 0
M  V30 2651 C 262.872 0.564138 1.94067 0
M  V30 2652 C 263.193 -0.897188 1.73134 0
M  V30 2653 O 262.463 -1.63573 1.07799 0
M  V30 2654 H 261.043 0.205645 0.718136 0
M  V30 2655 H 263.705 1.1778 1.55287 0
M  V30 2656 H 262.801 0.76881 3.02483 0
M  V30 2657 N 263.102 -1.41638 0.69111 0
M  V30 2658 C 264.348 -2.01598 0.220519 0
M  V30 2659 C 264.681 -1.54594 -1.17535 0
M  V30 2660 O 263.956 -0.755177 -1.79241 0
M  V30 2661 C 264.239 -3.59062 0.273243 0
M  V30 2662 C 264.092 -4.16203 1.70573 0
M  V30 2663 C 265.411 -4.38546 -0.369457 0
M  V30 2664 H 262.53 -0.732468 0.0816045 0
M  V30 2665 H 265.172 -1.68445 0.878986 0
M  V30 2666 H 263.322 -3.87435 -0.287411 0
M  V30 2667 H 264.994 -3.98722 2.31989 0
M  V30 2668 H 263.237 -3.71414 2.2413 0
M  V30 2669 H 263.908 -5.25358 1.69419 0
M  V30 2670 H 266.384 -4.1596 0.107977 0
M  V30 2671 H 265.26 -5.48069 -0.302002 0
M  V30 2672 H 265.521 -4.17662 -1.44951 0
M  V30 2673 N 264.58 -0.43555 -1.51462 0
M  V30 2674 C 265.826 0.131709 -2.02372 0
M  V30 2675 C 266.159 1.42516 -1.3192 0
M  V30 2676 O 265.434 1.89606 -0.433573 0
M  V30 2677 C 265.717 0.352301 -3.58373 0
M  V30 2678 C 265.57 -0.959676 -4.39443 0
M  V30 2679 C 266.889 1.12286 -4.25535 0
M  V30 2680 H 264.008 0.0463936 -0.735538 0
M  V30 2681 H 266.65 -0.574197 -1.81116 0
M  V30 2682 H 264.8 0.9536 -3.76615 0
M  V30 2683 H 266.472 -1.59482 -4.32855 0
M  V30 2684 H 264.715 -1.56468 -4.04599 0
M  V30 2685 H 265.386 -0.759394 -5.46752 0
M  V30 2686 H 267.862 0.613545 -4.11552 0
M  V30 2687 H 266.738 1.24598 -5.34571 0
M  V30 2688 H 266.999 2.15048 -3.86273 0
M  V30 2689 N 266.058 1.56714 -0.166846 0
M  V30 2690 C 267.469 1.83378 0.350646 0
M  V30 2691 C 267.82 1.08646 1.63372 0
M  V30 2692 O 266.945 0.338058 2.13743 0
M  V30 2693 C 267.54 3.32643 0.642963 0
M  V30 2694 C 266.099 3.59818 1.10491 0
M  V30 2695 C 265.246 2.76954 0.138411 0
M  V30 2696 H 268.197 1.53803 -0.391193 0
M  V30 2697 H 268.218 3.49878 1.49551 0
M  V30 2698 H 267.73 3.87007 -0.291055 0
M  V30 2699 H 265.831 3.1086 2.05418 0
M  V30 2700 H 265.944 4.68178 1.01716 0
M  V30 2701 H 264.308 2.4666 0.634911 0
M  V30 2702 H 265.091 3.34097 -0.789549 0
M  V30 2703 N 267.536 -0.106894 1.57237 0
M  V30 2704 C 268.499 -1.11466 2.0027 0
M  V30 2705 C 269.499 -1.33623 0.894519 0
M  V30 2706 O 270.689 -1.29935 1.16028 0
M  V30 2707 C 267.821 -2.46646 2.35327 0
M  V30 2708 H 269.014 -0.744516 2.90512 0
M  V30 2709 H 266.567 -0.351576 1.52295 0
M  V30 2710 H 267.302 -2.88558 1.48003 0
M  V30 2711 H 267.087 -2.31915 3.16161 0
M  V30 2712 H 268.577 -3.19151 2.69318 0
M  V30 2713 N 269.014 -1.53014 -0.377408 0
M  V30 2714 C 270.262 -1.6829 -1.11906 0
M  V30 2715 C 270.583 -0.431206 -1.90173 0
M  V30 2716 O 269.853 0.554595 -1.87886 0
M  V30 2717 H 268.433 -0.620371 -0.416112 0
M  V30 2718 H 271.095 -1.90167 -0.426893 0
M  V30 2719 H 270.191 -2.53862 -1.8155 0
M  V30 2720 N 270.492 0.636531 -1.44174 0
M  V30 2721 C 271.74 1.39343 -1.46383 0
M  V30 2722 C 272.061 1.94766 -0.0955715 0
M  V30 2723 O 271.331 1.75452 0.871395 0
M  V30 2724 H 269.911 0.517199 -0.538994 0
M  V30 2725 H 272.573 0.74957 -1.7991 0
M  V30 2726 H 271.669 2.22746 -2.18611 0
M  V30 2727 N 271.97 1.30982 0.876444 0
M  V30 2728 C 273.195 1.23373 1.66715 0
M  V30 2729 C 273.62 -0.19885 1.87046 0
M  V30 2730 O 272.978 -1.1427 1.40756 0
M  V30 2731 C 273.026 1.97644 3.01611 0
M  V30 2732 O 272.13 1.30935 3.91062 0
M  V30 2733 H 271.471 0.426279 0.509099 0
M  V30 2734 H 274.001 1.72944 1.09323 0
M  V30 2735 H 274.011 2.06992 3.51594 0
M  V30 2736 H 272.686 3.01829 2.86133 0
M  V30 2737 H 271.263 1.29996 3.49507 0
M  V30 2738 N 273.449 -1.08991 1.13837 0
M  V30 2739 C 274.679 -1.84743 0.924859 0
M  V30 2740 C 275.087 -1.81629 -0.529874 0
M  V30 2741 O 274.43 -1.21397 -1.37872 0
M  V30 2742 C 274.492 -3.33568 1.34061 0
M  V30 2743 C 274.156 -3.60425 2.80968 0
M  V30 2744 C 275.153 -3.55771 3.79108 0
M  V30 2745 C 272.838 -3.88627 3.18236 0
M  V30 2746 C 274.832 -3.78939 5.12527 0
M  V30 2747 C 272.519 -4.11449 4.51833 0
M  V30 2748 C 273.517 -4.06598 5.48787 0
M  V30 2749 O 273.205 -4.28826 6.79973 0
M  V30 2750 H 272.937 -0.590258 0.329502 0
M  V30 2751 H 275.491 -1.38598 1.51591 0
M  V30 2752 H 273.721 -3.80442 0.692853 0
M  V30 2753 H 275.41 -3.90743 1.09886 0
M  V30 2754 H 276.176 -3.34005 3.51661 0
M  V30 2755 H 272.055 -3.91526 2.43369 0
M  V30 2756 H 275.599 -3.75068 5.88192 0
M  V30 2757 H 271.496 -4.32698 4.79002 0
M  V30 2758 H 272.264 -4.46264 6.86142 0
M  V30 2759 N 274.927 -0.932562 -1.27047 0
M  V30 2760 C 276.157 -0.591173 -1.97961 0
M  V30 2761 C 276.565 0.836219 -1.69717 0
M  V30 2762 O 275.908 1.56801 -0.957036 0
M  V30 2763 C 275.97 -0.743082 -3.51736 0
M  V30 2764 C 275.634 -2.1435 -4.03613 0
M  V30 2765 C 276.631 -3.11815 -4.16014 0
M  V30 2766 C 274.316 -2.46175 -4.37839 0
M  V30 2767 C 276.31 -4.39211 -4.61923 0
M  V30 2768 C 273.997 -3.73806 -4.83438 0
M  V30 2769 C 274.995 -4.70137 -4.95439 0
M  V30 2770 O 274.683 -5.95496 -5.40037 0
M  V30 2771 H 274.415 -0.222375 -0.638377 0
M  V30 2772 H 276.969 -1.25317 -1.62742 0
M  V30 2773 H 275.199 -0.0239739 -3.86693 0
M  V30 2774 H 276.888 -0.40603 -4.03864 0
M  V30 2775 H 277.654 -2.88549 -3.89826 0
M  V30 2776 H 273.533 -1.71936 -4.27737 0
M  V30 2777 H 277.077 -5.14404 -4.71205 0
M  V30 2778 H 272.974 -3.96888 -5.09068 0
M  V30 2779 H 273.742 -5.98554 -5.58279 0
M  V30 2780 N 276.405 1.4127 -0.698611 0
M  V30 2781 C 277.338 2.28195 0.0153898 0
M  V30 2782 C 278.316 1.42402 0.784883 0
M  V30 2783 O 279.5 1.71828 0.775067 0
M  V30 2784 C 276.627 3.22685 1.02918 0
M  V30 2785 C 275.673 4.25041 0.352501 0
M  V30 2786 S 276.506 5.27757 -0.907322 0
M  V30 2787 C 277.662 6.25812 0.104796 0
M  V30 2788 H 277.895 2.88403 -0.721858 0
M  V30 2789 H 275.428 1.46452 -0.488996 0
M  V30 2790 H 277.386 3.77655 1.60893 0
M  V30 2791 H 276.047 2.61566 1.73902 0
M  V30 2792 H 275.24 4.91437 1.11828 0
M  V30 2793 H 274.842 3.73682 -0.154254 0
M  V30 2794 H 277.134 6.70705 0.957103 0
M  V30 2795 H 278.077 7.06149 -0.525323 0
M  V30 2796 H 278.485 5.62615 0.460931 0
M  V30 2797 N 277.883 0.443576 1.51229 0
M  V30 2798 C 279.132 -0.122332 2.01329 0
M  V30 2799 C 279.445 -1.43237 1.33201 0
M  V30 2800 O 280.651 -2.0816 1.74304 0
M  V30 2801 C 279.107 -0.268551 3.58897 0
M  V30 2802 C 278.715 1.03142 4.35965 0
M  V30 2803 C 280.459 -0.787894 4.17124 0
M  V30 2804 C 278.366 0.850504 5.85252 0
M  V30 2805 H 277.296 -0.0494929 0.752374 0
M  V30 2806 H 279.947 0.574289 1.74282 0
M  V30 2807 H 278.329 -1.02832 3.82415 0
M  V30 2808 H 279.503 1.80001 4.24189 0
M  V30 2809 H 277.818 1.47977 3.89219 0
M  V30 2810 H 280.415 -0.939841 5.26375 0
M  V30 2811 H 280.758 -1.77201 3.76703 0
M  V30 2812 H 281.291 -0.0862669 3.97706 0
M  V30 2813 H 278.03 1.80718 6.30096 0
M  V30 2814 H 277.55 0.121825 5.99676 0
M  V30 2815 H 279.229 0.506163 6.45017 0
M  V30 2816 N 279.361 -1.56624 0.175154 0
M  V30 2817 C 280.586 -2.01813 -0.478137 0
M  V30 2818 C 281.011 -1.05457 -1.55757 0
M  V30 2819 O 280.369 -0.0347439 -1.81267 0
M  V30 2820 C 280.417 -3.45581 -1.02987 0
M  V30 2821 O 279.521 -3.52305 -2.14371 0
M  V30 2822 H 278.862 -0.65413 -0.114059 0
M  V30 2823 H 281.392 -2.02673 0.280173 0
M  V30 2824 H 281.402 -3.84965 -1.35151 0
M  V30 2825 H 280.077 -4.1521 -0.239556 0
M  V30 2826 H 278.654 -3.24783 -1.83222 0
M  V30 2827 N 280.839 0.0985539 -1.57292 0
M  V30 2828 C 282.255 0.45267 -1.53046 0
M  V30 2829 C 282.455 1.80713 -0.891342 0
M  V30 2830 O 281.511 2.4785 -0.482375 0
M  V30 2831 C 282.824 0.418341 -2.97776 0
M  V30 2832 C 284.372 0.500443 -3.08973 0
M  V30 2833 C 284.847 0.496297 -4.55303 0
M  V30 2834 N 286.338 0.557151 -4.59837 0
M  V30 2835 C 287.073 0.575726 -5.70502 0
M  V30 2836 N 286.569 0.550714 -6.90608 0
M  V30 2837 N 288.362 0.620277 -5.58667 0
M  V30 2838 H 280.513 -0.788673 -1.97215 0
M  V30 2839 H 282.776 -0.293188 -0.901524 0
M  V30 2840 H 282.482 -0.509659 -3.47988 0
M  V30 2841 H 282.356 1.2386 -3.56284 0
M  V30 2842 H 284.743 1.41886 -2.58751 0
M  V30 2843 H 284.824 -0.347894 -2.53423 0
M  V30 2844 H 284.468 -0.418162 -5.06176 0
M  V30 2845 H 284.398 1.3618 -5.08687 0
M  V30 2846 H 286.889 0.581816 -3.73394 0
M  V30 2847 H 287.202 0.568075 -7.70709 0
M  V30 2848 H 285.547 0.517816 -6.93068 0
M  V30 2849 H 288.738 0.637322 -4.63741 0
M  V30 2850 H 288.911 0.631283 -6.44918 0
M  V30 2851 N 282.317 1.53212 0.369288 0
M  V30 2852 C 283.542 1.73423 1.1375 0
M  V30 2853 C 283.967 0.460404 1.82378 0
M  V30 2854 O 283.325 -0.585298 1.71592 0
M  V30 2855 C 283.373 2.89769 2.1463 0
M  V30 2856 O 282.477 2.58119 3.21634 0
M  V30 2857 H 281.818 0.576061 0.330227 0
M  V30 2858 H 284.348 2.00083 0.427547 0
M  V30 2859 H 284.358 3.15829 2.58294 0
M  V30 2860 H 283.033 3.8217 1.64071 0
M  V30 2861 H 281.61 2.42864 2.82969 0
M  V30 2862 N 283.795 -0.628877 1.44509 0
M  V30 2863 C 284.725 -1.75187 1.54376 0
M  V30 2864 C 285.706 -1.65411 0.396618 0
M  V30 2865 O 286.891 -1.84137 0.617031 0
M  V30 2866 C 284.021 -3.13725 1.48976 0
M  V30 2867 C 282.975 -3.38291 2.62189 0
M  V30 2868 C 282.301 -4.76883 2.41841 0
M  V30 2869 C 283.601 -3.30632 4.04326 0
M  V30 2870 H 285.295 -1.67187 2.48373 0
M  V30 2871 H 282.841 -0.802909 1.19538 0
M  V30 2872 H 284.794 -3.92064 1.54478 0
M  V30 2873 H 283.518 -3.22515 0.514961 0
M  V30 2874 H 282.177 -2.62334 2.56079 0
M  V30 2875 H 281.825 -4.82378 1.42548 0
M  V30 2876 H 281.525 -4.94278 3.17747 0
M  V30 2877 H 283.049 -5.57449 2.49165 0
M  V30 2878 H 284.463 -3.98873 4.11793 0
M  V30 2879 H 282.86 -3.59561 4.80454 0
M  V30 2880 H 283.93 -2.28404 4.27738 0
M  V30 2881 N 285.273 -1.31445 -0.869486 0
M  V30 2882 C 286.521 -1.20918 -1.61936 0
M  V30 2883 C 286.842 0.232683 -1.93607 0
M  V30 2884 O 286.112 1.15352 -1.58338 0
M  V30 2885 H 284.692 -0.44454 -0.600328 0
M  V30 2886 H 287.354 -1.64776 -1.0409 0
M  V30 2887 H 286.45 -1.78124 -2.56278 0
M  V30 2888 N 286.751 1.08385 -1.14413 0
M  V30 2889 C 288.162 1.62258 -0.923535 0
M  V30 2890 C 288.513 1.88691 0.537595 0
M  V30 2891 O 287.638 1.64454 1.40655 0
M  V30 2892 C 288.233 2.94781 -1.67002 0
M  V30 2893 C 286.792 3.45437 -1.495 0
M  V30 2894 C 285.939 2.19668 -1.69238 0
M  V30 2895 H 288.89 0.916086 -1.2959 0
M  V30 2896 H 288.911 3.63229 -1.13334 0
M  V30 2897 H 288.423 2.7551 -2.73342 0
M  V30 2898 H 286.524 3.6981 -0.455097 0
M  V30 2899 H 286.637 4.22173 -2.2651 0
M  V30 2900 H 285.001 2.28849 -1.11804 0
M  V30 2901 H 285.784 2.02905 -2.7692 0
M  V30 2902 N 288.23 0.939286 1.26551 0
M  V30 2903 C 289.14 0.453432 2.30176 0
M  V30 2904 C 290.156 -0.471649 1.67486 0
M  V30 2905 O 291.332 -0.35164 1.98306 0
M  V30 2906 C 288.397 -0.275326 3.45605 0
M  V30 2907 C 287.458 0.686084 4.23782 0
M  V30 2908 C 286.691 -0.00798994 5.33699 0
M  V30 2909 O 286.914 -1.22528 5.57085 0
M  V30 2910 O 285.848 0.669746 5.98162 0
M  V30 2911 H 289.674 1.31416 2.73795 0
M  V30 2912 H 287.259 0.705095 1.31715 0
M  V30 2913 H 289.141 -0.685911 4.1578 0
M  V30 2914 H 287.816 -1.11147 3.0402 0
M  V30 2915 H 286.723 1.14658 3.56096 0
M  V30 2916 H 288.056 1.48979 4.69112 0
M  V30 2917 N 289.708 -1.40897 0.706093 0
M  V30 2918 C 290.955 -2.01054 0.241531 0
M  V30 2919 C 291.283 -1.55956 -1.16223 0
M  V30 2920 O 290.538 -0.766336 -1.80072 0
M  V30 2921 C 290.837 -3.5646 0.259099 0
M  V30 2922 C 290.503 -4.21106 1.61184 0
M  V30 2923 C 289.165 -4.38479 1.98216 0
M  V30 2924 C 291.517 -4.57256 2.50132 0
M  V30 2925 C 288.845 -4.89282 3.2376 0
M  V30 2926 C 291.197 -5.09454 3.7502 0
M  V30 2927 C 289.861 -5.25037 4.12181 0
M  V30 2928 H 289.131 -0.73571 0.0883825 0
M  V30 2929 H 291.778 -1.68645 0.907257 0
M  V30 2930 H 290.083 -3.88721 -0.490189 0
M  V30 2931 H 291.78 -4.00826 -0.11804 0
M  V30 2932 H 288.37 -4.07966 1.31384 0
M  V30 2933 H 292.554 -4.43479 2.228 0
M  V30 2934 H 287.81 -4.99531 3.52532 0
M  V30 2935 H 291.984 -5.36404 4.44121 0
M  V30 2936 H 289.611 -5.64164 5.09532 0
M  V30 2937 N 291.186 -0.45159 -1.50991 0
M  V30 2938 C 292.434 0.109857 -2.01801 0
M  V30 2939 C 292.755 1.41958 -1.3369 0
M  V30 2940 O 292.025 1.9003 -0.475951 0
M  V30 2941 H 290.605 0.0435884 -0.745727 0
M  V30 2942 H 293.267 -0.597557 -1.85514 0
M  V30 2943 H 292.363 0.275489 -3.10882 0
M  V30 2944 N 292.664 1.56529 -0.183458 0
M  V30 2945 C 293.912 1.96855 0.457452 0
M  V30 2946 C 294.233 1.07104 1.62953 0
M  V30 2947 O 293.503 0.139887 1.954 0
M  V30 2948 H 292.083 0.72693 0.171992 0
M  V30 2949 H 294.745 1.93056 -0.267476 0
M  V30 2950 H 293.841 3.01423 0.809368 0
M  V30 2951 N 294.142 -0.090211 1.57342 0
M  V30 2952 C 295.105 -1.09335 2.01441 0
M  V30 2953 C 296.105 -1.32666 0.908641 0
M  V30 2954 O 297.295 -1.28697 1.174 0
M  V30 2955 C 294.427 -2.44136 2.3793 0
M  V30 2956 H 295.62 -0.713662 2.91285 0
M  V30 2957 H 293.173 -0.335404 1.52659 0
M  V30 2958 H 293.908 -2.86972 1.51055 0
M  V30 2959 H 293.693 -2.28548 3.18603 0
M  V30 2960 H 295.183 -3.16277 2.72688 0
M  V30 2961 N 295.62 -1.53406 -0.361157 0
M  V30 2962 C 296.866 -1.70054 -1.10496 0
M  V30 2963 C 297.199 -0.453278 -1.88836 0
M  V30 2964 O 296.474 0.5495 -1.86576 0
M  V30 2965 C 296.757 -2.95317 -2.06058 0
M  V30 2966 C 296.61 -4.3021 -1.31298 0
M  V30 2967 C 297.929 -3.16193 -3.06121 0
M  V30 2968 H 295.048 -0.618799 -0.400321 0
M  V30 2969 H 297.69 -1.86052 -0.385318 0
M  V30 2970 H 295.84 -2.81809 -2.67425 0
M  V30 2971 H 297.512 -4.55538 -0.726807 0
M  V30 2972 H 295.755 -4.29421 -0.614853 0
M  V30 2973 H 296.426 -5.14 -2.01265 0
M  V30 2974 H 298.902 -3.28916 -2.5486 0
M  V30 2975 H 297.778 -4.05266 -3.70204 0
M  V30 2976 H 298.039 -2.31676 -3.76535 0
M  V30 2977 N 297.098 0.621204 -1.44841 0
M  V30 2978 C 298.346 1.37783 -1.47852 0
M  V30 2979 C 298.667 1.94653 -0.116224 0
M  V30 2980 O 297.937 1.76367 0.852737 0
M  V30 2981 H 296.517 0.511453 -0.544449 0
M  V30 2982 H 299.179 0.730446 -1.80694 0
M  V30 2983 H 298.275 2.20414 -2.20961 0
M  V30 2984 N 298.576 1.31904 0.862503 0
M  V30 2985 C 299.506 1.22782 1.98612 0
M  V30 2986 C 300.487 0.113362 1.69722 0
M  V30 2987 O 301.672 0.299218 1.91881 0
M  V30 2988 C 298.802 0.942058 3.34279 0
M  V30 2989 C 297.756 2.0169 3.77499 0
M  V30 2990 C 297.082 1.58369 5.10709 0
M  V30 2991 C 298.382 3.43096 3.93805 0
M  V30 2992 H 300.076 2.16788 2.06502 0
M  V30 2993 H 297.622 1.04366 0.992154 0
M  V30 2994 H 299.575 0.864818 4.1243 0
M  V30 2995 H 298.299 -0.0336603 3.26583 0
M  V30 2996 H 296.958 2.08416 3.01593 0
M  V30 2997 H 296.606 0.595628 4.99461 0
M  V30 2998 H 296.306 2.30279 5.40597 0
M  V30 2999 H 297.83 1.52067 5.91361 0
M  V30 3000 H 299.244 3.39003 4.62331 0
M  V30 3001 H 297.641 4.13288 4.35101 0
M  V30 3002 H 298.711 3.83334 2.96957 0
M  V30 3003 N 300.054 -1.07777 1.14986 0
M  V30 3004 C 301.294 -1.81888 0.932527 0
M  V30 3005 C 301.658 -1.84509 -0.531064 0
M  V30 3006 O 302.859 -2.54448 -0.866577 0
M  V30 3007 C 301.13 -3.23244 1.52473 0
M  V30 3008 S 302.689 -4.14154 1.44989 0
M  V30 3009 H 299.507 -0.626752 0.335712 0
M  V30 3010 H 302.109 -1.29503 1.46455 0
M  V30 3011 H 300.813 -3.18922 2.58296 0
M  V30 3012 H 300.344 -3.80704 0.991381 0
M  V30 3013 H 302.359 -4.94247 0.439799 0
M  V30 3014 N 301.532 -0.945985 -1.26051 0
M  V30 3015 C 302.779 -0.596118 -1.93527 0
M  V30 3016 C 303.107 0.865559 -1.74179 0
M  V30 3017 O 302.362 1.63524 -1.0751 0
M  V30 3018 C 302.661 -0.890475 -3.46129 0
M  V30 3019 C 302.327 -2.3368 -3.85622 0
M  V30 3020 C 300.989 -2.73216 -3.96114 0
M  V30 3021 C 303.341 -3.27648 -4.05334 0
M  V30 3022 C 300.669 -4.05806 -4.2372 0
M  V30 3023 C 303.021 -4.59841 -4.3443 0
M  V30 3024 C 301.685 -4.99185 -4.43137 0
M  V30 3025 H 300.955 -0.218135 -0.708165 0
M  V30 3026 H 303.602 -1.1934 -1.49768 0
M  V30 3027 H 301.907 -0.210711 -3.91233 0
M  V30 3028 H 303.604 -0.598478 -3.96509 0
M  V30 3029 H 300.194 -2.02015 -3.78005 0
M  V30 3030 H 304.378 -2.98298 -3.96651 0
M  V30 3031 H 299.634 -4.35945 -4.28675 0
M  V30 3032 H 303.808 -5.32641 -4.48628 0
M  V30 3033 H 301.435 -6.01952 -4.64282 0
M  V30 3034 N 303.011 1.40521 -0.713556 0
M  V30 3035 C 304.241 2.0494 -0.261395 0
M  V30 3036 C 304.649 1.53861 1.10107 0
M  V30 3037 O 303.992 0.689321 1.70276 0
M  V30 3038 C 304.054 3.59138 -0.161227 0
M  V30 3039 C 303.718 4.33096 -1.45865 0
M  V30 3040 C 304.715 4.61182 -2.40016 0
M  V30 3041 C 302.4 4.72043 -1.71701 0
M  V30 3042 C 304.394 5.27196 -3.58251 0
M  V30 3043 C 302.081 5.37789 -2.90218 0
M  V30 3044 C 303.079 5.65295 -3.83315 0
M  V30 3045 O 302.767 6.29683 -4.99754 0
M  V30 3046 H 302.499 0.666041 -0.115608 0
M  V30 3047 H 305.053 1.80954 -0.971849 0
M  V30 3048 H 303.283 3.81936 0.605153 0
M  V30 3049 H 304.972 4.05091 0.256105 0
M  V30 3050 H 305.738 4.31559 -2.21318 0
M  V30 3051 H 301.617 4.50003 -1.00092 0
M  V30 3052 H 305.161 5.48582 -4.30934 0
M  V30 3053 H 301.058 5.66831 -3.08825 0
M  V30 3054 H 301.826 6.4818 -4.99805 0
M  V30 3055 N 304.489 0.459591 1.5075 0
M  V30 3056 C 305.419 -0.330644 2.31147 0
M  V30 3057 C 306.4 -1.00087 1.37538 0
M  V30 3058 O 307.585 -1.00025 1.66459 0
M  V30 3059 C 304.715 -1.41958 3.16962 0
M  V30 3060 C 303.669 -0.871608 4.19031 0
M  V30 3061 C 302.995 -2.05797 4.9351 0
M  V30 3062 C 304.295 0.109251 5.22186 0
M  V30 3063 H 305.989 0.340336 2.97459 0
M  V30 3064 H 303.535 0.165119 1.4305 0
M  V30 3065 H 305.488 -1.9798 3.71997 0
M  V30 3066 H 304.212 -2.11917 2.48513 0
M  V30 3067 H 302.871 -0.333442 3.6508 0
M  V30 3068 H 302.519 -2.74427 4.21544 0
M  V30 3069 H 302.219 -1.6976 5.62544 0
M  V30 3070 H 303.743 -2.62331 5.51375 0
M  V30 3071 H 305.157 -0.361405 5.7216 0
M  V30 3072 H 303.554 0.383316 5.98875 0
M  V30 3073 H 304.624 1.03887 4.73641 0
M  V30 3074 N 305.967 -1.56429 0.191757 0
M  V30 3075 C 307.215 -1.97095 -0.447006 0
M  V30 3076 C 307.536 -1.07967 -1.62383 0
M  V30 3077 O 306.806 -0.150248 -1.95323 0
M  V30 3078 H 305.386 -0.727832 -0.168135 0
M  V30 3079 H 308.048 -1.92911 0.27771 0
M  V30 3080 H 307.144 -3.01848 -0.793371 0
M  V30 3081 N 307.445 0.0818655 -1.57387 0
M  V30 3082 C 308.673 0.796108 -1.9097 0
M  V30 3083 C 309.088 1.71626 -0.786757 0
M  V30 3084 O 308.445 1.80908 0.240513 0
M  V30 3085 C 308.496 1.59829 -3.24248 0
M  V30 3086 O 308.217 0.715131 -4.32224 0
M  V30 3087 C 309.718 2.41442 -3.7178 0
M  V30 3088 H 306.938 0.22691 -0.631469 0
M  V30 3089 H 309.482 0.0551439 -2.04426 0
M  V30 3090 H 307.637 2.29163 -3.12351 0
M  V30 3091 H 308.051 1.27205 -5.08841 0
M  V30 3092 H 309.525 2.932 -4.67694 0
M  V30 3093 H 310.002 3.2051 -3.00283 0
M  V30 3094 H 310.608 1.77283 -3.86589 0
M  V30 3095 N 308.923 1.53595 0.353017 0
M  V30 3096 C 310.151 1.74311 1.1146 0
M  V30 3097 C 310.566 0.477854 1.82653 0
M  V30 3098 O 309.923 -0.549977 1.74016 0
M  V30 3099 C 309.974 2.91694 2.13534 0
M  V30 3100 O 309.695 4.13325 1.45238 0
M  V30 3101 C 311.196 3.24384 3.02142 0
M  V30 3102 H 308.416 0.582669 0.332773 0
M  V30 3103 H 310.96 2.00386 0.408107 0
M  V30 3104 H 309.115 2.67977 2.79763 0
M  V30 3105 H 309.529 4.79148 2.13349 0
M  V30 3106 H 311.003 4.09893 3.69718 0
M  V30 3107 H 311.48 2.40282 3.67643 0
M  V30 3108 H 312.086 3.50073 2.41514 0
M  V30 3109 N 310.401 -0.613514 1.45168 0
M  V30 3110 C 311.648 -1.37268 1.48875 0
M  V30 3111 C 311.976 -1.94077 0.128161 0
M  V30 3112 O 311.231 -1.75178 -0.872416 0
M  V30 3113 C 311.53 -2.54347 2.51083 0
M  V30 3114 C 311.196 -2.1572 3.95949 0
M  V30 3115 C 309.858 -2.04899 4.35396 0
M  V30 3116 C 312.21 -1.85485 4.87078 0
M  V30 3117 C 309.538 -1.62057 5.63875 0
M  V30 3118 C 311.89 -1.4413 6.15962 0
M  V30 3119 C 310.554 -1.31863 6.54346 0
M  V30 3120 H 309.824 -0.502299 0.544773 0
M  V30 3121 H 312.471 -0.694021 1.78481 0
M  V30 3122 H 310.776 -3.27524 2.15024 0
M  V30 3123 H 312.473 -3.12577 2.51191 0
M  V30 3124 H 309.063 -2.25066 3.64751 0
M  V30 3125 H 313.247 -1.92745 4.57343 0
M  V30 3126 H 308.503 -1.51177 5.92415 0
M  V30 3127 H 312.677 -1.19778 6.86022 0
M  V30 3128 H 310.304 -0.984392 7.538 0
M  V30 3129 N 311.879 -1.3236 -0.855495 0
M  V30 3130 C 312.842 -1.21164 -1.94556 0
M  V30 3131 C 313.842 -0.134908 -1.60233 0
M  V30 3132 O 315.032 -0.385249 -1.69887 0
M  V30 3133 C 312.164 -0.863192 -3.29791 0
M  V30 3134 H 313.357 -2.18038 -2.05911 0
M  V30 3135 H 310.91 -1.16179 -1.04557 0
M  V30 3136 H 311.645 0.103769 -3.24134 0
M  V30 3137 H 311.43 -1.64166 -3.56078 0
M  V30 3138 H 312.92 -0.809156 -4.09686 0
M  V30 3139 N 313.357 1.07166 -1.15556 0
M  V30 3140 C 314.605 1.79443 -0.929764 0
M  V30 3141 C 314.926 1.87246 0.544414 0
M  V30 3142 O 314.196 1.37473 1.39564 0
M  V30 3143 H 312.776 0.664625 -0.341003 0
M  V30 3144 H 315.438 1.29499 -1.45657 0
M  V30 3145 H 314.534 2.81832 -1.34079 0
M  V30 3146 N 314.835 0.952656 1.25548 0
M  V30 3147 C 315.798 0.475794 2.24207 0
M  V30 3148 C 316.798 -0.419428 1.55234 0
M  V30 3149 O 317.988 -0.216994 1.72843 0
M  V30 3150 C 315.12 -0.312814 3.39462 0
M  V30 3151 H 316.313 1.34779 2.67908 0
M  V30 3152 H 313.866 0.735739 1.37901 0
M  V30 3153 H 314.601 -1.20257 3.01179 0
M  V30 3154 H 314.386 0.329404 3.90714 0
M  V30 3155 H 315.876 -0.635986 4.12729 0
M  V30 3156 N 316.313 -1.40141 0.720998 0
M  V30 3157 C 317.246 -2.2819 0.020916 0
M  V30 3158 C 318.224 -1.43633 -0.762129 0
M  V30 3159 O 319.408 -1.7304 -0.747633 0
M  V30 3160 C 316.535 -3.24281 -0.977715 0
M  V30 3161 C 315.581 -4.25548 -0.284836 0
M  V30 3162 S 316.414 -5.26247 0.991169 0
M  V30 3163 C 317.57 -6.259 -0.0052214 0
M  V30 3164 H 317.803 -2.87218 0.767649 0
M  V30 3165 H 315.336 -1.45656 0.512233 0
M  V30 3166 H 317.294 -3.80167 -1.54865 0
M  V30 3167 H 315.955 -2.643 -1.69719 0
M  V30 3168 H 315.148 -4.93154 -1.03996 0
M  V30 3169 H 314.75 -3.73389 0.213684 0
M  V30 3170 H 317.042 -6.72143 -0.850279 0
M  V30 3171 H 317.985 -7.05224 0.637599 0
M  V30 3172 H 318.393 -5.63277 -0.371366 0
M  V30 3173 N 317.792 -0.46758 -1.50504 0
M  V30 3174 C 319.022 0.086288 -2.0642 0
M  V30 3175 C 319.43 1.34369 -1.33197 0
M  V30 3176 O 318.773 1.79431 -0.393747 0
M  V30 3177 C 318.835 0.443846 -3.5675 0
M  V30 3178 C 318.499 -0.711035 -4.51435 0
M  V30 3179 C 319.496 -1.59205 -4.94924 0
M  V30 3180 C 317.181 -0.900363 -4.94165 0
M  V30 3181 C 319.175 -2.64683 -5.79846 0
M  V30 3182 C 316.862 -1.95837 -5.7887 0
M  V30 3183 C 317.86 -2.82997 -6.21612 0
M  V30 3184 O 317.548 -3.86977 -7.0463 0
M  V30 3185 H 317.28 -0.00217814 -0.675996 0
M  V30 3186 H 319.834 -0.654346 -1.94698 0
M  V30 3187 H 318.064 1.23762 -3.6636 0
M  V30 3188 H 319.753 0.932386 -3.95046 0
M  V30 3189 H 320.519 -1.45745 -4.62583 0
M  V30 3190 H 316.398 -0.231427 -4.60419 0
M  V30 3191 H 319.942 -3.32745 -6.13128 0
M  V30 3192 H 315.839 -2.09305 -6.10624 0
M  V30 3193 H 316.607 -3.83923 -7.22873 0
M  V30 3194 N 319.27 1.56325 -0.20005 0
M  V30 3195 C 320.519 1.96895 0.437652 0
M  V30 3196 C 320.832 1.08999 1.62415 0
M  V30 3197 O 322.038 1.39372 2.32997 0
M  V30 3198 C 320.494 3.50198 0.830025 0
M  V30 3199 C 320.102 4.46765 -0.332461 0
M  V30 3200 C 321.846 3.99526 1.43453 0
M  V30 3201 C 319.753 5.91344 0.0811468 0
M  V30 3202 H 318.683 0.735209 0.167282 0
M  V30 3203 H 321.334 1.81148 -0.292853 0
M  V30 3204 H 319.716 3.61467 1.61734 0
M  V30 3205 H 320.89 4.47231 -1.11 0
M  V30 3206 H 319.205 4.07657 -0.848789 0
M  V30 3207 H 321.802 5.05025 1.75652 0
M  V30 3208 H 322.145 3.44122 2.34277 0
M  V30 3209 H 322.678 3.91393 0.71109 0
M  V30 3210 H 319.417 6.50685 -0.793033 0
M  V30 3211 H 318.937 5.94121 0.823445 0
M  V30 3212 H 320.616 6.44945 0.515252 0
M  V30 3213 N 320.748 -0.0735177 1.57428 0
M  V30 3214 C 321.678 -1.0879 2.06608 0
M  V30 3215 C 322.659 -1.40473 0.959237 0
M  V30 3216 O 323.844 -1.5013 1.23185 0
M  V30 3217 C 320.974 -2.40183 2.50857 0
M  V30 3218 C 319.928 -2.22858 3.65402 0
M  V30 3219 C 319.254 -3.59619 3.957 0
M  V30 3220 C 320.554 -1.65123 4.95511 0
M  V30 3221 H 322.248 -0.678673 2.91607 0
M  V30 3222 H 319.794 -0.325013 1.40284 0
M  V30 3223 H 321.747 -3.11437 2.83874 0
M  V30 3224 H 320.471 -2.83083 1.62885 0
M  V30 3225 H 319.13 -1.54045 3.32664 0
M  V30 3226 H 318.778 -4.00086 3.04861 0
M  V30 3227 H 318.478 -3.48866 4.72828 0
M  V30 3228 H 320.002 -4.32306 4.31212 0
M  V30 3229 H 321.416 -2.26241 5.26771 0
M  V30 3230 H 319.813 -1.65071 5.7695 0
M  V30 3231 H 320.883 -0.612559 4.81015 0
M  V30 3232 N 322.226 -1.5378 -0.344866 0
M  V30 3233 C 323.474 -1.70625 -1.08311 0
M  V30 3234 C 323.795 -0.471447 -1.89215 0
M  V30 3235 O 323.065 0.514616 -1.8902 0
M  V30 3236 H 321.645 -0.629058 -0.402859 0
M  V30 3237 H 324.307 -1.9103 -0.386459 0
M  V30 3238 H 323.403 -2.57656 -1.76124 0
M  V30 3239 N 323.704 0.605807 -1.45491 0
M  V30 3240 C 324.932 1.39136 -1.5313 0
M  V30 3241 C 325.347 1.88082 -0.164507 0
M  V30 3242 O 324.704 1.62316 0.834247 0
M  V30 3243 C 324.755 2.59463 -2.51716 0
M  V30 3244 O 324.476 2.12551 -3.83084 0
M  V30 3245 C 325.977 3.52301 -2.6907 0
M  V30 3246 H 323.197 0.425849 -0.51855 0
M  V30 3247 H 325.741 0.73865 -1.90694 0
M  V30 3248 H 323.896 3.20772 -2.17219 0
M  V30 3249 H 324.31 2.90744 -4.36541 0
M  V30 3250 H 325.784 4.33271 -3.42024 0
M  V30 3251 H 326.261 4.02757 -1.75167 0
M  V30 3252 H 326.867 2.96845 -3.04571 0
M  V30 3253 N 325.182 1.32811 0.848464 0
M  V30 3254 C 326.431 1.23075 1.59798 0
M  V30 3255 C 326.744 -0.204419 1.94529 0
M  V30 3256 O 327.95 -0.423701 2.68173 0
M  V30 3257 C 326.406 2.15594 2.88179 0
M  V30 3258 C 326.014 3.64228 2.60849 0
M  V30 3259 C 327.758 2.14709 3.66197 0
M  V30 3260 C 325.665 4.48689 3.85269 0
M  V30 3261 H 324.595 0.457091 0.599653 0
M  V30 3262 H 327.246 1.57813 0.936342 0
M  V30 3263 H 325.628 1.73778 3.55833 0
M  V30 3264 H 326.802 4.14424 2.01467 0
M  V30 3265 H 325.117 3.67306 1.96151 0
M  V30 3266 H 327.714 2.75046 4.58534 0
M  V30 3267 H 328.057 1.13966 4.00397 0
M  V30 3268 H 328.59 2.54837 3.05455 0
M  V30 3269 H 325.329 5.5027 3.56207 0
M  V30 3270 H 324.849 4.03241 4.44024 0
M  V30 3271 H 326.528 4.62006 4.52946 0
M  V30 3272 N 326.66 -1.06551 1.16123 0
M  V30 3273 C 327.57 -2.17484 0.879662 0
M  V30 3274 C 328.586 -1.73377 -0.147104 0
M  V30 3275 O 329.762 -2.01379 0.0289128 0
M  V30 3276 C 326.827 -3.44591 0.381829 0
M  V30 3277 C 325.888 -4.0322 1.4735 0
M  V30 3278 C 325.121 -5.24261 0.999324 0
M  V30 3279 O 325.344 -5.70198 -0.151957 0
M  V30 3280 O 324.278 -5.74775 1.78653 0
M  V30 3281 H 328.104 -2.44075 1.80724 0
M  V30 3282 H 325.689 -1.16042 0.940992 0
M  V30 3283 H 327.571 -4.21254 0.111053 0
M  V30 3284 H 326.246 -3.19532 -0.51777 0
M  V30 3285 H 325.153 -3.2806 1.79798 0
M  V30 3286 H 326.486 -4.32568 2.34831 0
M  V30 3287 N 328.138 -0.959301 -1.25041 0
M  V30 3288 C 329.387 -0.612254 -1.92183 0
M  V30 3289 C 329.7 0.855347 -1.75907 0
M  V30 3290 O 330.906 1.31256 -2.37664 0
M  V30 3291 C 329.362 -1.04435 -3.44414 0
M  V30 3292 C 328.97 -2.53482 -3.69393 0
M  V30 3293 C 330.714 -0.770055 -4.17457 0
M  V30 3294 C 328.621 -2.90468 -5.15153 0
M  V30 3295 H 327.551 -0.225279 -0.719559 0
M  V30 3296 H 330.202 -1.16438 -1.41825 0
M  V30 3297 H 328.584 -0.4206 -3.9376 0
M  V30 3298 H 329.758 -3.20916 -3.30681 0
M  V30 3299 H 328.073 -2.78432 -3.0962 0
M  V30 3300 H 330.67 -1.02249 -5.24832 0
M  V30 3301 H 331.013 0.293611 -4.15263 0
M  V30 3302 H 331.546 -1.35437 -3.74034 0
M  V30 3303 H 328.285 -3.95871 -5.22462 0
M  V30 3304 H 327.805 -2.27711 -5.54894 0
M  V30 3305 H 329.484 -2.79914 -5.83315 0
M  V30 3306 N 329.616 1.39756 -0.72842 0
M  V30 3307 C 330.863 2.00645 -0.273487 0
M  V30 3308 C 331.191 1.57786 1.13727 0
M  V30 3309 O 330.446 0.794886 1.7883 0
M  V30 3310 C 330.745 3.56002 -0.315776 0
M  V30 3311 C 330.411 4.18489 -1.67863 0
M  V30 3312 C 329.073 4.3527 -2.05166 0
M  V30 3313 C 331.425 4.53219 -2.57375 0
M  V30 3314 C 328.753 4.84069 -3.31503 0
M  V30 3315 C 331.105 5.03423 -3.83077 0
M  V30 3316 C 329.769 5.18413 -4.20481 0
M  V30 3317 H 329.039 0.734211 -0.100076 0
M  V30 3318 H 331.686 1.6718 -0.933972 0
M  V30 3319 H 329.991 3.89452 0.428285 0
M  V30 3320 H 331.688 4.00963 0.0542575 0
M  V30 3321 H 328.278 4.05824 -1.37858 0
M  V30 3322 H 332.462 4.39878 -2.29827 0
M  V30 3323 H 327.718 4.93859 -3.60435 0
M  V30 3324 H 331.892 5.2927 -4.52599 0
M  V30 3325 H 329.519 5.55987 -5.18443 0
M  V30 3326 N 331.094 0.475555 1.50254 0
M  V30 3327 C 332.024 -0.30611 2.31485 0
M  V30 3328 C 333.005 -0.986228 1.38591 0
M  V30 3329 O 334.19 -0.982541 1.67511 0
M  V30 3330 C 331.32 -1.38588 3.1845 0
M  V30 3331 C 330.274 -0.827115 4.19932 0
M  V30 3332 C 329.6 -2.00551 4.95665 0
M  V30 3333 C 330.9 0.16463 5.2204 0
M  V30 3334 H 332.594 0.371866 2.97082 0
M  V30 3335 H 330.14 0.180282 1.42867 0
M  V30 3336 H 332.093 -1.94023 3.74076 0
M  V30 3337 H 330.817 -2.09269 2.50747 0
M  V30 3338 H 329.476 -0.294702 3.65414 0
M  V30 3339 H 329.124 -2.6994 4.2443 0
M  V30 3340 H 328.824 -1.63784 5.64313 0
M  V30 3341 H 330.348 -2.56468 5.54127 0
M  V30 3342 H 331.762 -0.300699 5.72511 0
M  V30 3343 H 330.159 0.446813 5.98434 0
M  V30 3344 H 331.229 1.08905 4.72512 0
M  V30 3345 N 332.573 -1.56217 0.208337 0
M  V30 3346 C 333.801 -2.02337 -0.43215 0
M  V30 3347 C 334.216 -1.08834 -1.54275 0
M  V30 3348 O 333.573 -0.0955462 -1.8225 0
M  V30 3349 C 333.624 -3.48072 -0.976138 0
M  V30 3350 O 333.345 -4.38007 0.0901621 0
M  V30 3351 C 334.846 -4.09773 -1.69119 0
M  V30 3352 H 332.066 -0.662385 -0.10718 0
M  V30 3353 H 334.61 -2.01966 0.320923 0
M  V30 3354 H 332.765 -3.49099 -1.67954 0
M  V30 3355 H 333.179 -5.23543 -0.316701 0
M  V30 3356 H 334.653 -5.13556 -2.02397 0
M  V30 3357 H 335.13 -3.53999 -2.59964 0
M  V30 3358 H 335.736 -4.12556 -1.03332 0
M  V30 3359 N 334.051 0.0651679 -1.57465 0
M  V30 3360 C 335.281 0.774683 -1.91526 0
M  V30 3361 C 335.689 1.71305 -0.803196 0
M  V30 3362 O 335.032 1.82231 0.231881 0
M  V30 3363 C 335.094 1.61645 -3.21109 0
M  V30 3364 C 334.758 0.846753 -4.49087 0
M  V30 3365 C 335.755 0.163024 -5.19644 0
M  V30 3366 C 333.44 0.811966 -4.95694 0
M  V30 3367 C 335.434 -0.54519 -6.35064 0
M  V30 3368 C 333.121 0.0999836 -6.11018 0
M  V30 3369 C 334.119 -0.577388 -6.80555 0
M  V30 3370 O 333.807 -1.27789 -7.93678 0
M  V30 3371 H 333.539 0.225031 -0.637446 0
M  V30 3372 H 336.093 0.0377134 -2.05365 0
M  V30 3373 H 334.323 2.39638 -3.03497 0
M  V30 3374 H 336.012 2.20525 -3.40769 0
M  V30 3375 H 336.778 0.181163 -4.84662 0
M  V30 3376 H 332.657 1.32867 -4.41438 0
M  V30 3377 H 336.201 -1.07446 -6.89276 0
M  V30 3378 H 332.098 0.0797945 -6.45451 0
M  V30 3379 H 332.866 -1.18784 -8.09835 0
M  V30 3380 N 335.529 1.53961 0.336706 0
M  V30 3381 C 336.778 1.70751 1.07363 0
M  V30 3382 C 337.091 0.481061 1.89592 0
M  V30 3383 O 338.297 0.530046 2.66276 0
M  V30 3384 C 336.753 3.01965 1.95818 0
M  V30 3385 C 336.361 4.31971 1.18764 0
M  V30 3386 C 338.105 3.28121 2.69327 0
M  V30 3387 C 336.012 5.54255 2.06289 0
M  V30 3388 H 334.942 0.636292 0.404535 0
M  V30 3389 H 337.593 1.80459 0.332681 0
M  V30 3390 H 335.975 2.86132 2.7376 0
M  V30 3391 H 337.149 4.5853 0.456849 0
M  V30 3392 H 335.464 4.12481 0.569946 0
M  V30 3393 H 338.061 4.16673 3.35094 0
M  V30 3394 H 338.404 2.45426 3.36261 0
M  V30 3395 H 338.937 3.44762 1.98454 0
M  V30 3396 H 335.676 6.39513 1.43885 0
M  V30 3397 H 335.196 5.31935 2.77138 0
M  V30 3398 H 336.875 5.90159 2.65182 0
M  V30 3399 N 337.007 -0.598083 1.45811 0
M  V30 3400 C 338.232 -1.3881 1.54099 0
M  V30 3401 C 338.657 -1.8726 0.177578 0
M  V30 3402 O 338.015 -1.6069 -0.839541 0
M  V30 3403 C 338.063 -2.56217 2.53743 0
M  V30 3404 O 337.167 -3.5716 2.06182 0
M  V30 3405 H 336.508 -0.414024 0.519115 0
M  V30 3406 H 339.038 -0.726971 1.91249 0
M  V30 3407 H 339.048 -3.03337 2.72856 0
M  V30 3408 H 337.723 -2.20303 3.5276 0
M  V30 3409 H 336.3 -3.16624 1.96987 0
M  V30 3410 N 338.485 -1.33259 -0.841409 0
M  V30 3411 C 339.896 -1.22066 -1.41269 0
M  V30 3412 C 340.247 0.161479 -1.95534 0
M  V30 3413 O 339.372 1.06094 -1.88608 0
M  V30 3414 C 339.967 -2.20996 -2.568 0
M  V30 3415 C 338.526 -2.13649 -3.09888 0
M  V30 3416 C 337.673 -2.08623 -1.82679 0
M  V30 3417 H 340.624 -1.44895 -0.647395 0
M  V30 3418 H 340.645 -1.81621 -3.34356 0
M  V30 3419 H 340.157 -3.2158 -2.17274 0
M  V30 3420 H 338.258 -1.16359 -3.53965 0
M  V30 3421 H 338.371 -3.04079 -3.70234 0
M  V30 3422 H 336.735 -1.54061 -2.02824 0
M  V30 3423 H 337.518 -3.1101 -1.45353 0
M  V30 3424 N 339.963 1.05934 -1.16686 0
M  V30 3425 C 341.211 1.78447 -0.948744 0
M  V30 3426 C 341.532 1.87813 0.524523 0
M  V30 3427 O 340.802 1.38945 1.38098 0
M  V30 3428 H 339.382 0.660971 -0.348033 0
M  V30 3429 H 342.044 1.27947 -1.47022 0
M  V30 3430 H 341.14 2.80394 -1.37061 0
M  V30 3431 N 341.441 0.965919 1.2453 0
M  V30 3432 C 342.404 0.499547 2.2369 0
M  V30 3433 C 343.404 -0.40294 1.5567 0
M  V30 3434 O 344.594 -0.19865 1.73064 0
M  V30 3435 C 341.726 -0.276792 3.39774 0
M  V30 3436 H 342.919 1.37613 2.66463 0
M  V30 3437 H 340.472 0.750324 1.37112 0
M  V30 3438 H 341.207 -1.17055 3.02438 0
M  V30 3439 H 340.992 0.370826 3.90343 0
M  V30 3440 H 342.482 -0.592175 4.1338 0
M  V30 3441 N 342.919 -1.39368 0.735821 0
M  V30 3442 C 343.882 -2.2896 0.104874 0
M  V30 3443 C 344.882 -1.46347 -0.666274 0
M  V30 3444 O 346.072 -1.67014 -0.49517 0
M  V30 3445 C 343.204 -3.29857 -0.860656 0
M  V30 3446 H 344.397 -2.86259 0.894205 0
M  V30 3447 H 341.95 -1.48029 0.501704 0
M  V30 3448 H 342.685 -2.77615 -1.67631 0
M  V30 3449 H 342.47 -3.9087 -0.310327 0
M  V30 3450 H 343.96 -3.96893 -1.29867 0
M  V30 3451 N 344.397 -0.483516 -1.5 0
M  V30 3452 C 345.646 0.0689102 -2.01582 0
M  V30 3453 C 345.959 1.39655 -1.36952 0
M  V30 3454 O 347.165 2.03465 -1.79762 0
M  V30 3455 C 345.621 0.173302 -3.59483 0
M  V30 3456 C 345.229 -1.14665 -4.33077 0
M  V30 3457 C 346.973 0.677024 -4.19066 0
M  V30 3458 C 344.88 -1.00537 -5.82792 0
M  V30 3459 H 343.81 0.0295277 -0.753422 0
M  V30 3460 H 346.461 -0.620295 -1.72698 0
M  V30 3461 H 344.843 0.926569 -3.85007 0
M  V30 3462 H 346.017 -1.91184 -4.19268 0
M  V30 3463 H 344.332 -1.58244 -3.85159 0
M  V30 3464 H 346.929 0.799952 -5.28682 0
M  V30 3465 H 347.272 1.67151 -3.81269 0
M  V30 3466 H 347.805 -0.0192083 -3.97795 0
M  V30 3467 H 344.544 -1.9736 -6.25083 0
M  V30 3468 H 344.064 -0.280776 -5.99142 0
M  V30 3469 H 345.743 -0.677 -6.43448 0
M  V30 3470 N 345.875 1.56104 -0.216619 0
M  V30 3471 C 347.122 1.98172 0.416416 0
M  V30 3472 C 347.45 1.10413 1.60122 0
M  V30 3473 O 346.705 0.147967 1.9514 0
M  V30 3474 C 347.004 3.45923 0.898464 0
M  V30 3475 C 346.67 4.50559 -0.175288 0
M  V30 3476 C 345.332 4.78897 -0.470271 0
M  V30 3477 C 347.684 5.1334 -0.901728 0
M  V30 3478 C 345.012 5.67299 -1.4963 0
M  V30 3479 C 347.364 6.02853 -1.91705 0
M  V30 3480 C 346.028 6.29537 -2.21901 0
M  V30 3481 H 345.298 0.725164 0.152377 0
M  V30 3482 H 347.945 1.88839 -0.318103 0
M  V30 3483 H 346.25 3.52434 1.71165 0
M  V30 3484 H 347.947 3.75841 1.39803 0
M  V30 3485 H 344.537 4.28551 0.0647806 0
M  V30 3486 H 348.721 4.91521 -0.687072 0
M  V30 3487 H 343.977 5.86239 -1.73592 0
M  V30 3488 H 348.151 6.50552 -2.48505 0
M  V30 3489 H 345.778 6.97835 -3.01548 0
M  V30 3490 N 347.353 -0.0568162 1.57498 0
M  V30 3491 C 348.285 -1.09292 2.01464 0
M  V30 3492 C 349.298 -1.34112 0.922913 0
M  V30 3493 O 350.487 -1.32089 1.20062 0
M  V30 3494 C 347.587 -2.44068 2.35125 0
M  V30 3495 C 346.76 -2.38995 3.66333 0
M  V30 3496 C 345.819 -3.55997 3.87495 0
M  V30 3497 O 344.845 -3.36746 4.58901 0
M  V30 3498 N 346.047 -4.76888 3.30996 0
M  V30 3499 H 348.812 -0.718386 2.90963 0
M  V30 3500 H 346.373 -0.245235 1.60032 0
M  V30 3501 H 348.365 -3.21011 2.46443 0
M  V30 3502 H 346.935 -2.73468 1.5144 0
M  V30 3503 H 346.155 -1.47336 3.65631 0
M  V30 3504 H 347.443 -2.3272 4.52458 0
M  V30 3505 H 346.841 -4.95431 2.73065 0
M  V30 3506 H 345.398 -5.51291 3.47738 0
M  V30 3507 N 348.832 -1.54138 -0.328536 0
M  V30 3508 C 349.795 -1.82462 -1.38709 0
M  V30 3509 C 350.795 -0.696229 -1.44946 0
M  V30 3510 O 351.985 -0.964535 -1.4506 0
M  V30 3511 C 349.117 -1.98018 -2.77492 0
M  V30 3512 H 350.31 -2.77037 -1.14851 0
M  V30 3513 H 347.863 -1.45779 -0.563751 0
M  V30 3514 H 348.598 -1.05637 -3.06613 0
M  V30 3515 H 348.383 -2.80124 -2.74359 0
M  V30 3516 H 349.873 -2.21396 -3.54081 0
M  V30 3517 N 350.31 0.590341 -1.46126 0
M  V30 3518 C 351.22 1.72793 -1.58681 0
M  V30 3519 C 352.236 1.67516 -0.470566 0
M  V30 3520 O 353.412 1.87562 -0.733642 0
M  V30 3521 C 350.477 3.09287 -1.5666 0
M  V30 3522 C 349.538 3.25886 -2.79458 0
M  V30 3523 C 348.771 4.55869 -2.77524 0
M  V30 3524 O 348.994 5.3928 -1.85832 0
M  V30 3525 O 347.928 4.75552 -3.68964 0
M  V30 3526 H 351.754 1.65149 -2.54872 0
M  V30 3527 H 349.339 0.756486 -1.28832 0
M  V30 3528 H 351.221 3.90577 -1.58202 0
M  V30 3529 H 349.896 3.17385 -0.636271 0
M  V30 3530 H 348.803 2.44119 -2.83472 0
M  V30 3531 H 350.136 3.22675 -3.71674 0
M  V30 3532 N 351.788 1.33704 0.83433 0
M  V30 3533 C 352.751 1.24244 1.92603 0
M  V30 3534 C 353.751 0.160383 1.59998 0
M  V30 3535 O 354.941 0.412228 1.69252 0
M  V30 3536 C 352.073 0.91555 3.28376 0
M  V30 3537 H 353.266 2.21287 2.02416 0
M  V30 3538 H 350.819 1.17827 1.02696 0
M  V30 3539 H 351.554 -0.0521886 3.24258 0
M  V30 3540 H 351.339 1.69811 3.53422 0
M  V30 3541 H 352.829 0.874231 4.08347 0
M  V30 3542 N 353.266 -1.05314 1.17247 0
M  V30 3543 C 354.229 -2.112 0.890357 0
M  V30 3544 C 355.229 -1.60359 -0.118943 0
M  V30 3545 O 356.419 -1.73833 0.113086 0
M  V30 3546 C 353.551 -3.39266 0.333422 0
M  V30 3547 H 354.744 -2.37659 1.82916 0
M  V30 3548 H 352.297 -1.21538 0.982758 0
M  V30 3549 H 353.032 -3.18462 -0.612587 0
M  V30 3550 H 352.817 -3.77477 1.06082 0
M  V30 3551 H 354.307 -4.17315 0.154322 0
M  V30 3552 N 354.744 -0.972509 -1.24016 0
M  V30 3553 C 355.992 -0.635776 -1.91839 0
M  V30 3554 C 356.313 0.832312 -1.76345 0
M  V30 3555 O 355.583 1.5946 -1.13795 0
M  V30 3556 H 354.163 -0.232157 -0.710009 0
M  V30 3557 H 356.825 -1.23462 -1.50809 0
M  V30 3558 H 355.921 -0.880545 -2.99421 0
M  V30 3559 N 356.222 1.38976 -0.743202 0
M  V30 3560 C 357.47 1.99948 -0.29417 0
M  V30 3561 C 357.791 1.59279 1.12495 0
M  V30 3562 O 357.061 0.844808 1.76748 0
M  V30 3563 H 355.641 0.739473 -0.105774 0
M  V30 3564 H 358.303 1.699 -0.954986 0
M  V30 3565 H 357.399 3.10142 -0.349056 0
M  V30 3566 N 357.7 0.491464 1.49741 0
M  V30 3567 C 358.61 -0.296835 2.32715 0
M  V30 3568 C 359.626 -0.976536 1.44013 0
M  V30 3569 O 360.802 -0.960023 1.77047 0
M  V30 3570 C 357.867 -1.35288 3.19215 0
M  V30 3571 C 356.928 -0.687632 4.23757 0
M  V30 3572 C 356.161 -1.69336 5.06123 0
M  V30 3573 O 356.384 -2.92219 4.89861 0
M  V30 3574 O 355.318 -1.25394 5.88693 0
M  V30 3575 H 359.144 0.382048 3.01287 0
M  V30 3576 H 356.729 0.252953 1.47243 0
M  V30 3577 H 358.611 -1.96411 3.72828 0
M  V30 3578 H 357.286 -2.01487 2.53347 0
M  V30 3579 H 356.193 -0.0369159 3.74082 0
M  V30 3580 H 357.526 -0.0682566 4.92153 0
M  V30 3581 N 359.178 -1.55987 0.224894 0
M  V30 3582 C 360.141 -2.19178 -0.670348 0
M  V30 3583 C 361.141 -1.15461 -1.11917 0
M  V30 3584 O 362.331 -1.40675 -1.02743 0
M  V30 3585 C 359.463 -2.81777 -1.9187 0
M  V30 3586 H 360.656 -2.99662 -0.119364 0
M  V30 3587 H 358.209 -1.5628 -0.0247128 0
M  V30 3588 H 358.944 -2.05172 -2.51147 0
M  V30 3589 H 358.729 -3.57732 -1.60531 0
M  V30 3590 H 360.219 -3.30205 -2.55645 0
M  V30 3591 N 360.656 0.0484629 -1.57525 0
M  V30 3592 C 361.619 1.03956 -2.04269 0
M  V30 3593 C 362.619 1.30211 -0.943496 0
M  V30 3594 O 363.809 1.25539 -1.20771 0
M  V30 3595 C 360.941 2.37742 -2.44319 0
M  V30 3596 H 362.134 0.636182 -2.93075 0
M  V30 3597 H 359.687 0.294811 -1.53494 0
M  V30 3598 H 360.422 2.82866 -1.5861 0
M  V30 3599 H 360.207 2.20021 -3.24551 0
M  V30 3600 H 361.697 3.08936 -2.80978 0
M  V30 3601 N 362.134 1.5431 0.320358 0
M  V30 3602 C 363.097 1.83195 1.3774 0
M  V30 3603 C 364.097 0.703906 1.44575 0
M  V30 3604 O 365.287 0.972214 1.44546 0
M  V30 3605 C 362.419 1.99487 2.76438 0
M  V30 3606 H 363.612 2.77642 1.1338 0
M  V30 3607 H 361.165 1.46076 0.556012 0
M  V30 3608 H 361.9 1.07262 3.06048 0
M  V30 3609 H 361.685 2.81575 2.7287 0
M  V30 3610 H 363.175 2.23271 3.52902 0
M  V30 3611 N 363.613 -0.582584 1.46437 0
M  V30 3612 C 364.546 -1.70633 1.51524 0
M  V30 3613 C 365.524 -1.58349 0.369351 0
M  V30 3614 O 366.708 -1.79563 0.573516 0
M  V30 3615 C 363.835 -3.08687 1.39392 0
M  V30 3616 C 362.881 -3.3949 2.58164 0
M  V30 3617 S 363.714 -3.31548 4.20519 0
M  V30 3618 C 364.87 -4.72139 4.10896 0
M  V30 3619 H 365.103 -1.66058 2.46601 0
M  V30 3620 H 362.636 -0.761337 1.34324 0
M  V30 3621 H 364.594 -3.8833 1.33079 0
M  V30 3622 H 363.255 -3.10751 0.457436 0
M  V30 3623 H 362.448 -4.40071 2.45669 0
M  V30 3624 H 362.05 -2.67415 2.61468 0
M  V30 3625 H 364.342 -5.62527 3.77584 0
M  V30 3626 H 365.285 -4.89692 5.11476 0
M  V30 3627 H 365.693 -4.48995 3.42146 0
M  V30 3628 N 365.091 -1.34144 -0.827227 0
M  V30 3629 C 366.021 -1.28005 -1.95287 0
M  V30 3630 C 367.002 -0.158321 -1.69362 0
M  V30 3631 O 368.187 -0.349987 -1.9102 0
M  V30 3632 C 365.317 -1.03036 -3.31664 0
M  V30 3633 C 364.271 -2.11628 -3.72019 0
M  V30 3634 C 363.597 -1.71854 -5.0633 0
M  V30 3635 C 364.897 -3.53417 -3.8457 0
M  V30 3636 H 366.591 -2.22187 -2.00682 0
M  V30 3637 H 364.137 -1.0696 -0.964135 0
M  V30 3638 H 366.09 -0.973863 -4.09993 0
M  V30 3639 H 364.814 -0.0529391 -3.26557 0
M  V30 3640 H 363.473 -2.16339 -2.95961 0
M  V30 3641 H 363.121 -0.727841 -4.97706 0
M  V30 3642 H 362.821 -2.44531 -5.34302 0
M  V30 3643 H 364.345 -1.67692 -5.87122 0
M  V30 3644 H 365.759 -3.51142 -4.5318 0
M  V30 3645 H 364.156 -4.24679 -4.2399 0
M  V30 3646 H 365.226 -3.91072 -2.86689 0
M  V30 3647 N 366.569 1.04691 -1.17803 0
M  V30 3648 C 367.519 2.10856 -0.867391 0
M  V30 3649 C 368.503 1.601 0.160206 0
M  V30 3650 O 369.695 1.76948 -0.042947 0
M  V30 3651 C 366.824 3.411 -0.388012 0
M  V30 3652 C 365.91 3.9864 -1.44732 0
M  V30 3653 N 366.301 4.30075 -2.66212 0
M  V30 3654 C 364.599 4.26439 -1.30637 0
M  V30 3655 C 365.3 4.76033 -3.34317 0
M  V30 3656 N 364.276 4.76462 -2.61696 0
M  V30 3657 H 368.078 2.33029 -1.79094 0
M  V30 3658 H 365.592 1.22386 -1.0675 0
M  V30 3659 H 367.589 4.16641 -0.146994 0
M  V30 3660 H 366.249 3.20357 0.529271 0
M  V30 3661 H 367.26 4.19917 -3.03134 0
M  V30 3662 H 363.937 4.15056 -0.451129 0
M  V30 3663 H 365.327 5.09427 -4.38103 0
M  V30 3664 N 368.047 0.979072 1.23499 0
M  V30 3665 C 368.995 0.510604 2.26926 0
M  V30 3666 C 369.989 -0.431691 1.63807 0
M  V30 3667 O 371.195 -0.30573 1.77385 0
M  V30 3668 H 367.57 0.146688 0.737554 0
M  V30 3669 H 369.541 1.39466 2.63803 0
M  V30 3670 C 368.29 -0.172658 3.47271 0
M  V30 3671 H 367.613 0.543331 3.96091 0
M  V30 3672 H 369.053 -0.464101 4.21452 0
M  V30 3673 C 367.512 -1.40345 3.06276 0
M  V30 3674 O 368.042 -2.49978 3.14442 0
M  V30 3675 N 366.248 -1.27362 2.61203 0
M  V30 3676 H 365.795 -0.381584 2.54758 0
M  V30 3677 H 365.753 -2.09822 2.34141 0
M  V30 3678 N 369.525 -1.3858 0.750561 0
M  V30 3679 C 370.458 -2.28095 0.0693139 0
M  V30 3680 C 371.436 -1.45217 -0.731491 0
M  V30 3681 O 372.62 -1.74587 -0.71076 0
M  V30 3682 C 369.747 -3.26282 -0.90871 0
M  V30 3683 C 368.793 -4.26056 -0.194507 0
M  V30 3684 S 369.626 -5.24026 1.10257 0
M  V30 3685 C 370.782 -6.2577 0.127542 0
M  V30 3686 H 371.015 -2.85526 0.8284 0
M  V30 3687 H 368.548 -1.44536 0.543014 0
M  V30 3688 H 370.506 -3.83367 -1.46766 0
M  V30 3689 H 369.167 -2.6784 -1.64075 0
M  V30 3690 H 368.36 -4.95249 -0.93512 0
M  V30 3691 H 367.962 -3.72852 0.292837 0
M  V30 3692 H 370.254 -6.73796 -0.707516 0
M  V30 3693 H 371.197 -7.03712 0.787044 0
M  V30 3694 H 371.605 -5.63938 -0.251803 0
M  V30 3695 N 371.003 -0.499398 -1.49478 0
M  V30 3696 C 372.419 -0.155261 -1.58843 0
M  V30 3697 C 372.619 1.34008 -1.50479 0
M  V30 3698 O 371.675 2.11589 -1.37791 0
M  V30 3699 C 372.988 -0.730636 -2.91689 0
M  V30 3700 C 374.536 -0.696599 -3.0515 0
M  V30 3701 C 375.011 -1.25001 -4.40612 0
M  V30 3702 N 376.502 -1.21064 -4.47099 0
M  V30 3703 C 377.237 -1.60905 -5.50361 0
M  V30 3704 N 376.733 -2.08331 -6.60735 0
M  V30 3705 N 378.526 -1.52331 -5.41065 0
M  V30 3706 H 370.677 -1.47162 -1.53158 0
M  V30 3707 H 372.94 -0.610309 -0.725415 0
M  V30 3708 H 372.646 -1.77928 -3.03372 0
M  V30 3709 H 372.52 -0.190161 -3.7672 0
M  V30 3710 H 374.907 0.343204 -2.93097 0
M  V30 3711 H 374.988 -1.2742 -2.21806 0
M  V30 3712 H 374.632 -2.28859 -4.53416 0
M  V30 3713 H 374.562 -0.64836 -5.22593 0
M  V30 3714 H 377.053 -0.863128 -3.67911 0
M  V30 3715 H 377.366 -2.36805 -7.35624 0
M  V30 3716 H 375.711 -2.12304 -6.6178 0
M  V30 3717 H 378.902 -1.151 -4.53729 0
M  V30 3718 H 379.075 -1.83704 -6.21415 0
M  V30 3719 N 372.481 1.55866 -0.233164 0
M  V30 3720 C 373.727 1.98897 0.395959 0
M  V30 3721 C 374.06 1.12091 1.58585 0
M  V30 3722 O 373.335 0.181182 1.93654 0
M  V30 3723 C 373.618 3.50658 0.819224 0
M  V30 3724 C 373.471 4.48233 -0.375109 0
M  V30 3725 C 374.79 4.07135 1.67121 0
M  V30 3726 H 371.909 0.723102 0.142451 0
M  V30 3727 H 374.551 1.87082 -0.331725 0
M  V30 3728 H 372.701 3.60857 1.43925 0
M  V30 3729 H 374.373 4.50031 -1.01341 0
M  V30 3730 H 372.616 4.21624 -1.02058 0
M  V30 3731 H 373.287 5.51988 -0.0358328 0
M  V30 3732 H 375.763 3.99952 1.14795 0
M  V30 3733 H 374.639 5.13615 1.93625 0
M  V30 3734 H 374.9 3.54736 2.63846 0
M  V30 3735 N 373.959 -0.0401083 1.57549 0
M  V30 3736 C 375.189 -0.744115 1.92734 0
M  V30 3737 C 375.597 -1.70005 0.830348 0
M  V30 3738 O 374.94 -1.82576 -0.20286 0
M  V30 3739 C 375.002 -1.56516 3.2364 0
M  V30 3740 C 374.666 -0.7752 4.50377 0
M  V30 3741 C 375.663 -0.0803326 5.19838 0
M  V30 3742 C 373.348 -0.733002 4.96923 0
M  V30 3743 C 375.342 0.646154 6.34116 0
M  V30 3744 C 373.029 -0.00276321 6.111 0
M  V30 3745 C 374.027 0.685585 6.7955 0
M  V30 3746 O 373.715 1.40399 7.91545 0
M  V30 3747 H 373.447 -0.214861 0.640945 0
M  V30 3748 H 376.001 -0.00503675 2.05399 0
M  V30 3749 H 374.231 -2.3478 3.07271 0
M  V30 3750 H 375.92 -2.15076 3.44234 0
M  V30 3751 H 376.686 -0.104035 4.84888 0
M  V30 3752 H 372.565 -1.25827 4.43496 0
M  V30 3753 H 376.109 1.18398 6.87479 0
M  V30 3754 H 372.006 0.0229012 6.45496 0
M  V30 3755 H 372.774 1.31653 8.07843 0
M  V30 3756 N 375.437 -1.54477 -0.31217 0
M  V30 3757 C 376.685 -1.72884 -1.04668 0
M  V30 3758 C 377.006 -0.511477 -1.88173 0
M  V30 3759 O 376.276 0.474407 -1.90069 0
M  V30 3760 H 374.856 -0.637461 -0.389425 0
M  V30 3761 H 377.518 -1.91807 -0.345852 0
M  V30 3762 H 376.614 -2.61334 -1.70619 0
M  V30 3763 N 376.915 0.57481 -1.46744 0
M  V30 3764 C 378.143 1.35856 -1.56047 0
M  V30 3765 C 378.558 1.87691 -0.204365 0
M  V30 3766 O 377.915 1.64049 0.79963 0
M  V30 3767 C 377.966 2.54066 -2.57163 0
M  V30 3768 O 377.687 2.04377 -3.87507 0
M  V30 3769 C 379.188 3.46514 -2.76483 0
M  V30 3770 H 376.408 0.414754 -0.527466 0
M  V30 3771 H 378.952 0.698035 -1.92218 0
M  V30 3772 H 377.107 3.16092 -2.23974 0
M  V30 3773 H 377.521 2.81419 -4.4261 0
M  V30 3774 H 378.995 4.25919 -3.51137 0
M  V30 3775 H 379.472 3.98951 -1.83671 0
M  V30 3776 H 380.078 2.90318 -3.10799 0
M  V30 3777 N 378.394 1.34581 0.820102 0
M  V30 3778 C 379.634 1.28448 1.58998 0
M  V30 3779 C 379.998 -0.142883 1.91468 0
M  V30 3780 O 381.199 -0.328422 2.66786 0
M  V30 3781 C 379.47 2.153 2.85273 0
M  V30 3782 S 381.029 2.26548 3.75794 0
M  V30 3783 H 377.847 0.456685 0.54494 0
M  V30 3784 H 380.449 1.69825 0.968487 0
M  V30 3785 H 379.153 3.18008 2.59421 0
M  V30 3786 H 378.684 1.7483 3.52417 0
M  V30 3787 H 380.699 1.44034 4.74835 0
M  V30 3788 N 379.872 -1.04064 1.18357 0
M  V30 3789 C 381.1 -1.80916 1.00384 0
M  V30 3790 C 381.515 -1.83414 -0.447738 0
M  V30 3791 O 380.872 -1.26962 -1.31099 0
M  V30 3792 C 380.923 -3.26516 1.55144 0
M  V30 3793 O 380.644 -3.2424 2.94618 0
M  V30 3794 C 382.145 -4.20013 1.41789 0
M  V30 3795 H 379.365 -0.569728 0.354474 0
M  V30 3796 H 381.909 -1.31151 1.56906 0
M  V30 3797 H 380.064 -3.73512 1.02798 0
M  V30 3798 H 380.478 -4.15452 3.20156 0
M  V30 3799 H 381.952 -5.20111 1.84901 0
M  V30 3800 H 382.429 -4.37667 0.36661 0
M  V30 3801 H 383.035 -3.78881 1.93207 0
M  V30 3802 N 381.35 -0.985608 -1.22978 0
M  V30 3803 C 382.28 -0.549649 -2.26939 0
M  V30 3804 C 383.261 0.419803 -1.64838 0
M  V30 3805 O 384.446 0.31203 -1.91677 0
M  V30 3806 C 381.576 0.143652 -3.47003 0
M  V30 3807 C 380.53 -0.743606 -4.21491 0
M  V30 3808 C 379.856 0.0822027 -5.34637 0
M  V30 3809 C 381.156 -2.03694 -4.80943 0
M  V30 3810 H 382.85 -1.41862 -2.63658 0
M  V30 3811 H 380.396 -0.683571 -1.26741 0
M  V30 3812 H 382.349 0.459985 -4.18882 0
M  V30 3813 H 381.073 1.04711 -3.09359 0
M  V30 3814 H 379.732 -1.04347 -3.51436 0
M  V30 3815 H 379.38 0.986359 -4.93234 0
M  V30 3816 H 379.08 -0.508377 -5.85397 0
M  V30 3817 H 380.604 0.392797 -6.09335 0
M  V30 3818 H 382.018 -1.78504 -5.44802 0
M  V30 3819 H 380.415 -2.57573 -5.42011 0
M  V30 3820 H 381.485 -2.72042 -4.01399 0
M  V30 3821 N 382.828 1.3818 -0.7579 0
M  V30 3822 C 384.074 2.00316 -0.316453 0
M  V30 3823 C 384.407 1.60026 1.10025 0
M  V30 3824 O 383.682 0.839835 1.75434 0
M  V30 3825 C 383.965 3.57349 -0.444245 0
M  V30 3826 C 383.818 4.07591 -1.90236 0
M  V30 3827 C 385.137 4.3981 0.1598 0
M  V30 3828 H 382.256 0.727741 -0.116459 0
M  V30 3829 H 384.898 1.6406 -0.958352 0
M  V30 3830 H 383.048 3.88365 0.102233 0
M  V30 3831 H 384.72 3.87199 -2.50748 0
M  V30 3832 H 382.963 3.60297 -2.41595 0
M  V30 3833 H 383.634 5.16677 -1.94291 0
M  V30 3834 H 386.11 4.14971 -0.306314 0
M  V30 3835 H 384.986 5.48885 0.0401675 0
M  V30 3836 H 385.247 4.24102 1.24859 0
M  V30 3837 N 384.306 0.507319 1.49211 0
M  V30 3838 C 385.236 -0.256939 2.32082 0
M  V30 3839 C 386.217 -0.956609 1.40652 0
M  V30 3840 O 387.402 -0.946788 1.69557 0
M  V30 3841 C 384.532 -1.31802 3.21318 0
M  V30 3842 C 383.486 -0.737855 4.21592 0
M  V30 3843 C 382.812 -1.89992 4.99807 0
M  V30 3844 C 384.112 0.275325 5.21574 0
M  V30 3845 H 385.806 0.434798 2.96226 0
M  V30 3846 H 383.352 0.210546 1.42452 0
M  V30 3847 H 385.305 -1.86045 3.78107 0
M  V30 3848 H 384.029 -2.03903 2.5513 0
M  V30 3849 H 382.688 -0.217126 3.65956 0
M  V30 3850 H 382.336 -2.60877 4.30061 0
M  V30 3851 H 382.036 -1.51777 5.6766 0
M  V30 3852 H 383.56 -2.44657 5.59442 0
M  V30 3853 H 384.974 -0.179193 5.7302 0
M  V30 3854 H 383.371 0.573649 5.97352 0
M  V30 3855 H 384.441 1.18903 4.70096 0
M  V30 3856 N 385.784 -1.5574 0.241426 0
M  V30 3857 C 386.717 -2.17168 -0.700935 0
M  V30 3858 C 387.695 -1.12206 -1.1768 0
M  V30 3859 O 388.879 -1.40565 -1.25593 0
M  V30 3860 C 386.006 -2.76796 -1.95196 0
M  V30 3861 C 385.052 -3.94764 -1.61442 0
M  V30 3862 S 385.885 -5.30613 -0.72182 0
M  V30 3863 C 387.041 -5.93691 -1.98197 0
M  V30 3864 H 387.274 -2.96761 -0.178882 0
M  V30 3865 H 384.807 -1.54378 0.0259299 0
M  V30 3866 H 386.765 -3.11787 -2.67019 0
M  V30 3867 H 385.426 -1.9716 -2.44514 0
M  V30 3868 H 384.619 -4.35057 -2.54443 0
M  V30 3869 H 384.221 -3.61022 -0.976672 0
M  V30 3870 H 386.513 -6.10874 -2.92983 0
M  V30 3871 H 387.456 -6.89258 -1.62262 0
M  V30 3872 H 387.864 -5.22709 -2.13156 0
M  V30 3873 N 387.262 0.0317525 -1.57568 0
M  V30 3874 C 388.225 1.01783 -2.0536 0
M  V30 3875 C 389.225 1.29203 -0.957253 0
M  V30 3876 O 390.415 1.24251 -1.22095 0
M  V30 3877 C 387.547 2.35137 -2.46827 0
M  V30 3878 H 388.74 0.605062 -2.93733 0
M  V30 3879 H 386.293 0.278514 -1.53799 0
M  V30 3880 H 387.028 2.81168 -1.61602 0
M  V30 3881 H 386.813 2.16566 -3.26866 0
M  V30 3882 H 388.303 3.05938 -2.84239 0
M  V30 3883 N 388.74 1.54641 0.303973 0
M  V30 3884 C 389.67 1.88386 1.3796 0
M  V30 3885 C 390.651 0.742485 1.5304 0
M  V30 3886 O 391.836 0.997959 1.66597 0
M  V30 3887 C 388.966 2.12854 2.74427 0
M  V30 3888 C 387.92 3.28702 2.74115 0
M  V30 3889 C 387.246 3.38582 4.13844 0
M  V30 3890 C 388.546 4.65881 2.3612 0
M  V30 3891 H 390.24 2.78474 1.09966 0
M  V30 3892 H 387.786 1.33988 0.527556 0
M  V30 3893 H 389.739 2.35047 3.49758 0
M  V30 3894 H 388.463 1.19535 3.03939 0
M  V30 3895 H 387.122 3.06428 2.0124 0
M  V30 3896 H 386.77 2.42784 4.40528 0
M  V30 3897 H 386.47 4.16453 4.14537 0
M  V30 3898 H 387.994 3.63031 4.90959 0
M  V30 3899 H 389.408 4.87823 3.01167 0
M  V30 3900 H 387.805 5.46444 2.48031 0
M  V30 3901 H 388.875 4.66799 1.3125 0
M  V30 3902 N 390.218 -0.567019 1.47046 0
M  V30 3903 C 391.464 -1.32658 1.53394 0
M  V30 3904 C 391.797 -1.93254 0.19148 0
M  V30 3905 O 391.072 -1.77338 -0.798844 0
M  V30 3906 C 391.355 -2.44412 2.64452 0
M  V30 3907 C 391.208 -1.88749 4.08282 0
M  V30 3908 C 392.527 -3.46387 2.71485 0
M  V30 3909 H 389.646 -0.48098 0.558415 0
M  V30 3910 H 392.288 -0.635481 1.79058 0
M  V30 3911 H 390.438 -3.03363 2.427 0
M  V30 3912 H 392.11 -1.34134 4.41368 0
M  V30 3913 H 390.353 -1.19481 4.17021 0
M  V30 3914 H 391.024 -2.69491 4.81745 0
M  V30 3915 H 393.5 -2.9734 2.91081 0
M  V30 3916 H 392.376 -4.2202 3.50985 0
M  V30 3917 H 392.637 -4.04616 1.78153 0
M  V30 3918 N 391.696 -1.35014 -0.812953 0
M  V30 3919 C 392.942 -1.2812 -1.57204 0
M  V30 3920 C 393.275 0.145869 -1.93651 0
M  V30 3921 O 392.55 1.0937 -1.60836 0
M  V30 3922 C 392.833 -2.18162 -2.86492 0
M  V30 3923 C 392.686 -3.69454 -2.56561 0
M  V30 3924 C 394.005 -2.07439 -3.88145 0
M  V30 3925 H 391.124 -0.466746 -0.570366 0
M  V30 3926 H 393.766 -1.65357 -0.935783 0
M  V30 3927 H 391.916 -1.86535 -3.40789 0
M  V30 3928 H 393.588 -4.11493 -2.08497 0
M  V30 3929 H 391.831 -3.9005 -1.89851 0
M  V30 3930 H 392.502 -4.27835 -3.48799 0
M  V30 3931 H 394.978 -2.35228 -3.4323 0
M  V30 3932 H 393.854 -2.7265 -4.76396 0
M  V30 3933 H 394.115 -1.05439 -4.29343 0
M  V30 3934 N 393.175 1.03435 -1.18907 0
M  V30 3935 C 394.422 1.76743 -0.988334 0
M  V30 3936 C 394.75 1.88447 0.481441 0
M  V30 3937 O 394.005 1.39383 1.37371 0
M  V30 3938 C 394.304 3.19792 -1.59586 0
M  V30 3939 C 393.97 3.28108 -3.09283 0
M  V30 3940 C 392.632 3.30084 -3.5014 0
M  V30 3941 C 394.984 3.27696 -4.05296 0
M  V30 3942 C 392.312 3.29299 -4.85571 0
M  V30 3943 C 394.664 3.28451 -5.4065 0
M  V30 3944 C 393.328 3.28723 -5.80946 0
M  V30 3945 H 392.598 0.64675 -0.361657 0
M  V30 3946 H 395.245 1.21442 -1.48068 0
M  V30 3947 H 393.55 3.78136 -1.02568 0
M  V30 3948 H 395.247 3.75171 -1.41589 0
M  V30 3949 H 391.837 3.27294 -2.76725 0
M  V30 3950 H 396.021 3.25354 -3.74778 0
M  V30 3951 H 391.277 3.2783 -5.16079 0
M  V30 3952 H 395.451 3.27082 -6.14809 0
M  V30 3953 H 393.078 3.27868 -6.85862 0
M  V30 3954 N 394.653 0.992116 1.22453 0
M  V30 3955 C 395.899 0.668523 1.91464 0
M  V30 3956 C 396.232 -0.797313 1.77078 0
M  V30 3957 O 395.507 -1.5765 1.13916 0
M  V30 3958 C 395.79 1.07424 3.43703 0
M  V30 3959 C 395.643 2.59857 3.67143 0
M  V30 3960 C 396.962 0.626891 4.35612 0
M  V30 3961 H 394.081 0.244341 0.695318 0
M  V30 3962 H 396.723 1.2355 1.44345 0
M  V30 3963 H 394.873 0.591816 3.83966 0
M  V30 3964 H 396.545 3.15764 3.3629 0
M  V30 3965 H 394.788 3.01961 3.11451 0
M  V30 3966 H 395.459 2.83296 4.73759 0
M  V30 3967 H 397.935 1.04125 4.02861 0
M  V30 3968 H 396.811 0.939076 5.40807 0
M  V30 3969 H 397.072 -0.472457 4.39568 0
M  V30 3970 N 396.131 -1.37776 0.765217 0
M  V30 3971 C 397.379 -1.99454 0.325943 0
M  V30 3972 C 397.7 -1.61049 -1.09947 0
M  V30 3973 O 396.97 -0.872821 -1.75381 0
M  V30 3974 H 395.55 -0.737697 0.117525 0
M  V30 3975 H 398.212 -1.68359 0.981895 0
M  V30 3976 H 397.308 -3.09547 0.398353 0
M  V30 3977 N 397.609 -0.515225 -1.4894 0
M  V30 3978 C 398.855 0.0242508 -2.02785 0
M  V30 3979 C 399.188 1.35323 -1.39289 0
M  V30 3980 O 398.463 1.87041 -0.533469 0
M  V30 3981 C 398.746 0.16184 -3.59736 0
M  V30 3982 C 398.599 -1.19127 -4.33738 0
M  V30 3983 C 399.918 0.895719 -4.30888 0
M  V30 3984 H 397.037 0.00733914 -0.736963 0
M  V30 3985 H 399.679 -0.669395 -1.77818 0
M  V30 3986 H 397.829 0.752624 -3.8114 0
M  V30 3987 H 399.501 -1.82202 -4.23792 0
M  V30 3988 H 397.744 -1.77695 -3.95736 0
M  V30 3989 H 398.415 -1.04815 -5.41957 0
M  V30 3990 H 400.891 0.394528 -4.14225 0
M  V30 3991 H 399.767 0.960859 -5.40425 0
M  V30 3992 H 400.028 1.9427 -3.97129 0
M  V30 3993 N 399.087 1.5561 -0.249682 0
M  V30 3994 C 400.034 2.21496 0.648694 0
M  V30 3995 C 401.004 1.17977 1.16921 0
M  V30 3996 O 402.189 1.46434 1.22318 0
M  V30 3997 C 399.329 2.92039 1.83868 0
M  V30 3998 C 398.442 4.10219 1.35442 0
M  V30 3999 C 397.577 4.6847 2.50419 0
M  V30 4000 C 396.616 5.78893 1.98869 0
M  V30 4001 N 395.753 6.31315 3.07223 0
M  V30 4002 H 400.593 2.97892 0.0801582 0
M  V30 4003 H 398.13 1.47074 0.0278031 0
M  V30 4004 H 400.088 3.31138 2.53778 0
M  V30 4005 H 398.718 2.18111 2.37965 0
M  V30 4006 H 397.77 3.76413 0.54928 0
M  V30 4007 H 399.082 4.89927 0.936649 0
M  V30 4008 H 398.236 5.10158 3.28366 0
M  V30 4009 H 396.975 3.87984 2.95499 0
M  V30 4010 H 395.98 5.3668 1.19393 0
M  V30 4011 H 397.205 6.61232 1.54755 0
M  V30 4012 H 395.151 5.53733 3.51732 0
M  V30 4013 H 395.068 7.06224 2.69784 0
M  V30 4014 H 396.336 6.77662 3.8522 0
M  V30 4015 N 400.565 -0.0233959 1.57583 0
M  V30 4016 C 401.795 -0.723631 1.93513 0
M  V30 4017 C 402.203 -1.69115 0.848333 0
M  V30 4018 O 401.546 -1.82781 -0.183484 0
M  V30 4019 C 401.608 -1.53075 3.25282 0
M  V30 4020 C 401.272 -0.727388 4.51174 0
M  V30 4021 C 402.269 -0.0251924 5.19894 0
M  V30 4022 C 399.954 -0.680256 4.97672 0
M  V30 4023 C 401.948 0.713374 6.33395 0
M  V30 4024 C 399.635 0.0620523 6.11068 0
M  V30 4025 C 400.633 0.757622 6.78785 0
M  V30 4026 O 400.321 1.48787 7.90011 0
M  V30 4027 H 400.053 -0.208051 0.643188 0
M  V30 4028 H 402.607 0.0167489 2.05393 0
M  V30 4029 H 400.837 -2.31508 3.09744 0
M  V30 4030 H 402.526 -2.11413 3.46496 0
M  V30 4031 H 403.292 -0.0526003 4.84971 0
M  V30 4032 H 399.171 -1.21116 4.44805 0
M  V30 4033 H 402.715 1.25683 6.86185 0
M  V30 4034 H 398.612 0.0913634 6.45435 0
M  V30 4035 H 399.38 1.40213 8.06401 0
M  V30 4036 N 402.043 -1.548 -0.295768 0
M  V30 4037 C 403.289 -1.74588 -1.03184 0
M  V30 4038 C 403.622 -0.532962 -1.86744 0
M  V30 4039 O 402.897 0.469872 -1.88739 0
M  V30 4040 C 403.18 -3.03791 -1.93347 0
M  V30 4041 C 403.033 -4.35392 -1.12933 0
M  V30 4042 C 404.352 -3.28892 -2.92435 0
M  V30 4043 H 401.471 -0.635221 -0.373715 0
M  V30 4044 H 404.113 -1.87519 -0.30606 0
M  V30 4045 H 402.263 -2.92898 -2.55232 0
M  V30 4046 H 403.935 -4.58211 -0.532943 0
M  V30 4047 H 402.178 -4.31642 -0.432168 0
M  V30 4048 H 402.849 -5.22074 -1.79284 0
M  V30 4049 H 405.325 -3.39429 -2.4068 0
M  V30 4050 H 404.201 -4.20603 -3.52682 0
M  V30 4051 H 404.462 -2.47437 -3.6637 0
M  V30 4052 N 403.521 0.559213 -1.47345 0
M  V30 4053 C 404.469 1.68747 -1.60085 0
M  V30 4054 C 405.463 1.628 -0.46825 0
M  V30 4055 O 406.669 1.68009 -0.645977 0
M  V30 4056 H 403.044 0.558329 -0.503759 0
M  V30 4057 H 405.015 1.55138 -2.54902 0
M  V30 4058 C 403.764 3.07103 -1.63042 0
M  V30 4059 H 403.087 3.12361 -2.49541 0
M  V30 4060 H 404.527 3.85743 -1.76006 0
M  V30 4061 C 402.986 3.34935 -0.363357 0
M  V30 4062 O 403.516 3.98102 0.536416 0
M  V30 4063 N 401.722 2.89574 -0.244 0
M  V30 4064 H 401.269 2.38348 -0.977133 0
M  V30 4065 H 401.227 3.08566 0.602836 0
M  V30 4066 N 404.999 1.35443 0.805782 0
M  V30 4067 C 405.946 1.28431 1.91766 0
M  V30 4068 C 406.916 0.156102 1.65365 0
M  V30 4069 O 408.101 0.339936 1.87747 0
M  V30 4070 C 405.241 1.06301 3.2832 0
M  V30 4071 C 404.354 2.2805 3.66902 0
M  V30 4072 C 403.489 1.99064 4.92491 0
M  V30 4073 C 402.528 3.16863 5.23703 0
M  V30 4074 N 401.665 2.87647 6.40471 0
M  V30 4075 H 406.505 2.23511 1.97096 0
M  V30 4076 H 404.042 1.11105 0.964054 0
M  V30 4077 H 406 0.915012 4.07042 0
M  V30 4078 H 404.63 0.148822 3.22457 0
M  V30 4079 H 403.682 2.53711 2.83434 0
M  V30 4080 H 404.994 3.1601 3.85927 0
M  V30 4081 H 404.148 1.81099 5.7904 0
M  V30 4082 H 402.887 1.0839 4.75503 0
M  V30 4083 H 401.892 3.35404 4.35642 0
M  V30 4084 H 403.117 4.08339 5.4262 0
M  V30 4085 H 401.063 1.99568 6.24907 0
M  V30 4086 H 400.98 3.69141 6.59751 0
M  V30 4087 H 402.248 2.73226 7.30047 0
M  V30 4088 N 406.477 -1.02803 1.19454 0
M  V30 4089 C 407.407 -2.12999 0.956758 0
M  V30 4090 C 408.388 -1.69743 -0.110188 0
M  V30 4091 O 409.573 -1.94148 0.0450038 0
M  V30 4092 C 406.703 -3.43746 0.495553 0
M  V30 4093 C 405.657 -4.00688 1.50443 0
M  V30 4094 C 404.983 -5.27067 0.900275 0
M  V30 4095 C 406.283 -4.35397 2.8849 0
M  V30 4096 H 407.977 -2.33148 1.87836 0
M  V30 4097 H 405.523 -1.12045 0.904539 0
M  V30 4098 H 407.476 -4.2021 0.316493 0
M  V30 4099 H 406.2 -3.23321 -0.461646 0
M  V30 4100 H 404.859 -3.2632 1.67065 0
M  V30 4101 H 404.507 -5.02959 -0.064503 0
M  V30 4102 H 404.207 -5.66127 1.57397 0
M  V30 4103 H 405.731 -6.06196 0.73203 0
M  V30 4104 H 407.145 -5.02795 2.75446 0
M  V30 4105 H 405.542 -4.85541 3.52661 0
M  V30 4106 H 406.612 -3.44662 3.41081 0
M  V30 4107 N 407.956 -0.998596 -1.21925 0
M  V30 4108 C 408.919 -0.558679 -2.22287 0
M  V30 4109 C 409.919 0.361525 -1.56683 0
M  V30 4110 O 411.109 0.152695 -1.73529 0
M  V30 4111 C 408.241 0.18661 -3.40389 0
M  V30 4112 H 409.434 -1.4463 -2.62721 0
M  V30 4113 H 406.987 -0.786413 -1.35075 0
M  V30 4114 H 407.722 1.08996 -3.05435 0
M  V30 4115 H 407.507 -0.474188 -3.89222 0
M  V30 4116 H 408.997 0.482367 -4.14805 0
M  V30 4117 N 409.434 1.37368 -0.772513 0
M  V30 4118 C 410.364 2.32856 -0.173304 0
M  V30 4119 C 411.345 1.55818 0.682262 0
M  V30 4120 O 412.53 1.84052 0.619566 0
M  V30 4121 C 409.66 3.40048 0.706007 0
M  V30 4122 C 408.614 4.27973 -0.0483144 0
M  V30 4123 C 407.94 5.26184 0.950491 0
M  V30 4124 C 409.24 5.07665 -1.22776 0
M  V30 4125 H 410.934 2.83217 -0.971002 0
M  V30 4126 H 408.48 1.3617 -0.468377 0
M  V30 4127 H 410.433 4.05827 1.13501 0
M  V30 4128 H 409.157 2.88214 1.53623 0
M  V30 4129 H 407.816 3.63726 -0.458107 0
M  V30 4130 H 407.464 4.7063 1.77529 0
M  V30 4131 H 407.164 5.85872 0.450314 0
M  V30 4132 H 408.688 5.94838 1.37842 0
M  V30 4133 H 410.102 5.66578 -0.875366 0
M  V30 4134 H 408.499 5.76681 -1.66007 0
M  V30 4135 H 409.569 4.40294 -2.03149 0
M  V30 4136 N 410.912 0.523116 1.48665 0
M  V30 4137 C 412.158 -0.0134963 2.02796 0
M  V30 4138 C 412.491 -1.34582 1.40004 0
M  V30 4139 O 411.766 -1.86756 0.543381 0
M  V30 4140 C 412.049 -0.14276 3.59817 0
M  V30 4141 C 411.902 1.21425 4.331 0
M  V30 4142 C 413.221 -0.872856 4.31357 0
M  V30 4143 H 410.34 -0.00343074 0.736992 0
M  V30 4144 H 412.982 0.678816 1.7746 0
M  V30 4145 H 411.132 -0.732401 3.81534 0
M  V30 4146 H 412.804 1.84447 4.2282 0
M  V30 4147 H 411.047 1.79791 3.94788 0
M  V30 4148 H 411.718 1.07687 5.41394 0
M  V30 4149 H 414.194 -0.372555 4.14429 0
M  V30 4150 H 413.07 -0.932185 5.40927 0
M  V30 4151 H 413.331 -1.92161 3.98154 0
M  V30 4152 N 412.39 -1.55475 0.257931 0
M  V30 4153 C 413.637 -1.99207 -0.363728 0
M  V30 4154 C 413.965 -1.1462 -1.57139 0
M  V30 4155 O 413.22 -0.199653 -1.94679 0
M  V30 4156 C 413.519 -3.48183 -0.806433 0
M  V30 4157 C 413.185 -4.49936 0.294684 0
M  V30 4158 C 411.847 -4.77481 0.597076 0
M  V30 4159 C 414.199 -5.10769 1.03751 0
M  V30 4160 C 411.527 -5.63132 1.64618 0
M  V30 4161 C 413.879 -5.97558 2.07622 0
M  V30 4162 C 412.543 -6.23432 2.38514 0
M  V30 4163 H 411.813 -0.728949 -0.133097 0
M  V30 4164 H 414.46 -1.8793 0.368059 0
M  V30 4165 H 412.765 -3.56848 -1.61761 0
M  V30 4166 H 414.462 -3.79415 -1.29789 0
M  V30 4167 H 411.052 -4.28572 0.0488649 0
M  V30 4168 H 415.236 -4.89527 0.817149 0
M  V30 4169 H 410.492 -5.8143 1.89074 0
M  V30 4170 H 414.666 -6.43735 2.65666 0
M  V30 4171 H 412.293 -6.89594 3.19943 0
M  V30 4172 N 413.868 0.0150385 -1.57593 0
M  V30 4173 C 414.798 1.01047 -2.10503 0
M  V30 4174 C 415.779 1.36816 -1.01071 0
M  V30 4175 O 416.964 1.45455 -1.28672 0
M  V30 4176 C 414.094 2.30708 -2.59598 0
M  V30 4177 C 413.048 2.09142 -3.73421 0
M  V30 4178 C 412.374 3.44685 -4.08774 0
M  V30 4179 C 413.674 1.46619 -5.01298 0
M  V30 4180 H 415.368 0.569978 -2.93925 0
M  V30 4181 H 412.914 0.272724 -1.41394 0
M  V30 4182 H 414.867 3.00687 -2.95238 0
M  V30 4183 H 413.591 2.76843 -1.73279 0
M  V30 4184 H 412.25 1.41592 -3.38153 0
M  V30 4185 H 411.898 3.88495 -3.195 0
M  V30 4186 H 411.598 3.31077 -4.8545 0
M  V30 4187 H 413.122 4.16004 -4.4696 0
M  V30 4188 H 414.536 2.06535 -5.34805 0
M  V30 4189 H 412.933 1.43544 -5.82679 0
M  V30 4190 H 414.003 0.433611 -4.82957 0
M  V30 4191 N 415.346 1.54954 0.287554 0
M  V30 4192 C 416.309 1.86076 1.33823 0
M  V30 4193 C 417.309 0.734414 1.43049 0
M  V30 4194 O 418.499 1.00266 1.42452 0
M  V30 4195 C 415.631 2.05305 2.72144 0
M  V30 4196 H 416.824 2.79984 1.07465 0
M  V30 4197 H 414.377 1.47223 0.524902 0
M  V30 4198 H 415.112 1.1373 3.03704 0
M  V30 4199 H 414.897 2.873 2.66836 0
M  V30 4200 H 416.387 2.30706 3.48087 0
M  V30 4201 N 416.824 -0.551391 1.4764 0
M  V30 4202 C 418.064 -1.31901 1.56145 0
M  V30 4203 C 418.428 -1.90724 0.221013 0
M  V30 4204 O 419.629 -2.6819 0.180945 0
M  V30 4205 C 417.9 -2.39517 2.65267 0
M  V30 4206 S 419.459 -3.26289 2.93395 0
M  V30 4207 H 416.277 -0.448965 0.551318 0
M  V30 4208 H 418.879 -0.630599 1.85051 0
M  V30 4209 H 417.583 -1.94747 3.6125 0
M  V30 4210 H 417.114 -3.13092 2.38195 0
M  V30 4211 H 419.129 -4.39122 2.31055 0
M  V30 4212 N 418.302 -1.35869 -0.798587 0
M  V30 4213 C 419.548 -1.2978 -1.55836 0
M  V30 4214 C 419.881 0.125322 -1.93795 0
M  V30 4215 O 419.156 1.07658 -1.61987 0
M  V30 4216 C 419.439 -2.21188 -2.84162 0
M  V30 4217 C 419.292 -3.72155 -2.52628 0
M  V30 4218 C 420.611 -2.11545 -3.85923 0
M  V30 4219 H 417.73 -0.472769 -0.565383 0
M  V30 4220 H 420.372 -1.66341 -0.918192 0
M  V30 4221 H 418.522 -1.90139 -3.38791 0
M  V30 4222 H 420.194 -4.13682 -2.04121 0
M  V30 4223 H 418.437 -3.92042 -1.85704 0
M  V30 4224 H 419.108 -4.31511 -3.44242 0
M  V30 4225 H 421.584 -2.38855 -3.40716 0
M  V30 4226 H 420.46 -2.77688 -4.73477 0
M  V30 4227 H 420.721 -1.09987 -4.282 0
M  V30 4228 N 419.78 1.02168 -1.19998 0
M  V30 4229 C 421.026 1.75945 -1.00852 0
M  V30 4230 C 421.359 1.88702 0.458828 0
M  V30 4231 O 420.634 1.40911 1.34069 0
M  V30 4232 C 420.917 3.18154 -1.68671 0
M  V30 4233 C 420.77 3.13224 -3.22817 0
M  V30 4234 C 422.089 4.16711 -1.41561 0
M  V30 4235 H 419.208 0.638673 -0.367785 0
M  V30 4236 H 421.85 1.19222 -1.4794 0
M  V30 4237 H 420 3.66586 -1.28636 0
M  V30 4238 H 421.672 2.72635 -3.72112 0
M  V30 4239 H 419.915 2.50751 -3.53986 0
M  V30 4240 H 420.586 4.13728 -3.65422 0
M  V30 4241 H 423.062 3.76913 -1.76284 0
M  V30 4242 H 421.938 5.14391 -1.91553 0
M  V30 4243 H 422.199 4.40774 -0.342193 0
M  V30 4244 N 421.258 1.00505 1.21394 0
M  V30 4245 C 422.188 0.585684 2.26035 0
M  V30 4246 C 423.169 -0.393525 1.65485 0
M  V30 4247 O 424.354 -0.281497 1.92149 0
M  V30 4248 C 421.484 -0.0884283 3.47187 0
M  V30 4249 C 420.438 0.810567 4.20254 0
M  V30 4250 C 419.764 0.00286382 5.347 0
M  V30 4251 C 421.064 2.1132 4.77641 0
M  V30 4252 H 422.758 1.46039 2.61368 0
M  V30 4253 H 420.304 0.703648 1.25638 0
M  V30 4254 H 422.257 -0.393286 4.19561 0
M  V30 4255 H 420.981 -0.997766 3.10986 0
M  V30 4256 H 419.64 1.09925 3.49731 0
M  V30 4257 H 419.288 -0.907765 4.94741 0
M  V30 4258 H 418.988 0.601444 5.84514 0
M  V30 4259 H 420.512 -0.295808 6.09883 0
M  V30 4260 H 421.926 1.87148 5.41893 0
M  V30 4261 H 420.323 2.66164 5.37845 0
M  V30 4262 H 421.393 2.78393 3.9702 0
M  V30 4263 N 422.737 -1.36956 0.779787 0
M  V30 4264 C 423.962 -2.04283 0.358224 0
M  V30 4265 C 424.387 -1.58422 -1.01411 0
M  V30 4266 O 423.745 -0.748179 -1.65142 0
M  V30 4267 C 423.793 -3.58152 0.419479 0
M  V30 4268 O 422.897 -4.08342 -0.577142 0
M  V30 4269 H 422.238 -0.645967 0.153698 0
M  V30 4270 H 424.768 -1.75108 1.05822 0
M  V30 4271 H 424.778 -4.07041 0.279636 0
M  V30 4272 H 423.453 -3.90886 1.42061 0
M  V30 4273 H 422.03 -3.70751 -0.399755 0
M  V30 4274 N 424.215 -0.530993 -1.48385 0
M  V30 4275 C 425.464 0.00474348 -2.01699 0
M  V30 4276 C 425.777 1.35227 -1.41325 0
M  V30 4277 O 426.983 1.97643 -1.86144 0
M  V30 4278 C 425.439 0.0588473 -3.59852 0
M  V30 4279 C 425.047 -1.28385 -4.2921 0
M  V30 4280 C 426.791 0.543358 -4.21008 0
M  V30 4281 C 424.698 -1.19028 -5.79298 0
M  V30 4282 H 423.628 0.00554317 -0.75398 0
M  V30 4283 H 426.279 -0.674924 -1.70637 0
M  V30 4284 H 424.661 0.803612 -3.8776 0
M  V30 4285 H 425.835 -2.04426 -4.12973 0
M  V30 4286 H 424.15 -1.70418 -3.7993 0
M  V30 4287 H 426.747 0.631351 -5.3096 0
M  V30 4288 H 427.09 1.54937 -3.86394 0
M  V30 4289 H 427.623 -0.145754 -3.97533 0
M  V30 4290 H 424.362 -2.17147 -6.18488 0
M  V30 4291 H 423.882 -0.471246 -5.97946 0
M  V30 4292 H 425.561 -0.881365 -6.40969 0
M  V30 4293 N 425.693 1.55336 -0.266172 0
M  V30 4294 C 426.623 2.25146 0.618981 0
M  V30 4295 C 427.604 1.23845 1.16604 0
M  V30 4296 O 428.789 1.52544 1.20183 0
M  V30 4297 C 425.919 2.96572 1.80728 0
M  V30 4298 C 424.873 4.04726 1.39215 0
M  V30 4299 C 424.199 4.63678 2.66283 0
M  V30 4300 C 425.499 5.19407 0.548942 0
M  V30 4301 H 427.193 2.99377 0.0368116 0
M  V30 4302 H 424.739 1.43991 0.0162651 0
M  V30 4303 H 426.692 3.44116 2.43232 0
M  V30 4304 H 425.416 2.19861 2.41514 0
M  V30 4305 H 424.075 3.57979 0.790351 0
M  V30 4306 H 423.723 3.83646 3.25308 0
M  V30 4307 H 423.423 5.367 2.39222 0
M  V30 4308 H 424.947 5.13967 3.29651 0
M  V30 4309 H 426.361 5.63059 1.07876 0
M  V30 4310 H 424.758 5.98936 0.373593 0
M  V30 4311 H 425.828 4.8295 -0.434394 0
M  V30 4312 N 427.171 -0.0066808 1.57599 0
M  V30 4313 C 428.134 -0.985035 2.06953 0
M  V30 4314 C 429.134 -1.27663 0.977687 0
M  V30 4315 O 430.324 -1.22293 1.24057 0
M  V30 4316 C 427.456 -2.3118 2.50536 0
M  V30 4317 H 428.649 -0.558255 2.94658 0
M  V30 4318 H 426.202 -0.254011 1.54222 0
M  V30 4319 H 426.937 -2.78561 1.66054 0
M  V30 4320 H 426.722 -2.11338 3.3027 0
M  V30 4321 H 428.212 -3.01377 2.8907 0
M  V30 4322 N 428.649 -1.55105 -0.279332 0
M  V30 4323 C 429.898 -1.74618 -1.00952 0
M  V30 4324 C 430.211 -0.551096 -1.87676 0
M  V30 4325 O 431.417 -0.628507 -2.64125 0
M  V30 4326 C 429.873 -3.09025 -1.84476 0
M  V30 4327 C 429.481 -4.36081 -1.0265 0
M  V30 4328 C 431.225 -3.37891 -2.56963 0
M  V30 4329 C 429.132 -5.6153 -1.85576 0
M  V30 4330 H 428.062 -0.650868 -0.38064 0
M  V30 4331 H 430.713 -1.81569 -0.265475 0
M  V30 4332 H 429.095 -2.96095 -2.62952 0
M  V30 4333 H 430.269 -4.59909 -0.286354 0
M  V30 4334 H 428.584 -4.14312 -0.416464 0
M  V30 4335 H 431.181 -4.28822 -3.19399 0
M  V30 4336 H 431.524 -2.57737 -3.26921 0
M  V30 4337 H 432.057 -3.5189 -1.85522 0
M  V30 4338 H 428.796 -6.44413 -1.2005 0
M  V30 4339 H 428.316 -5.41854 -2.57204 0
M  V30 4340 H 429.995 -5.99594 -2.43096 0
M  V30 4341 N 430.127 0.543554 -1.4793 0
M  V30 4342 C 431.357 1.32324 -1.58663 0
M  V30 4343 C 431.765 1.8766 -0.240896 0
M  V30 4344 O 431.108 1.66411 0.778011 0
M  V30 4345 C 431.17 2.52094 -2.56299 0
M  V30 4346 C 430.834 2.17944 -4.01683 0
M  V30 4347 C 431.831 1.74422 -4.89768 0
M  V30 4348 C 429.516 2.28884 -4.47121 0
M  V30 4349 C 431.51 1.42287 -6.21316 0
M  V30 4350 C 429.197 1.96361 -5.78693 0
M  V30 4351 C 430.195 1.53132 -6.65612 0
M  V30 4352 O 429.883 1.21029 -7.94737 0
M  V30 4353 H 429.615 0.409174 -0.538101 0
M  V30 4354 H 432.169 0.663887 -1.94375 0
M  V30 4355 H 430.399 3.20965 -2.15681 0
M  V30 4356 H 432.088 3.14165 -2.57012 0
M  V30 4357 H 432.854 1.65452 -4.55907 0
M  V30 4358 H 428.733 2.61488 -3.79664 0
M  V30 4359 H 432.277 1.08472 -6.89115 0
M  V30 4360 H 428.174 2.04967 -6.12094 0
M  V30 4361 H 428.942 1.34543 -8.07366 0
M  V30 4362 N 431.605 1.3629 0.791371 0
M  V30 4363 C 432.568 1.30309 1.88553 0
M  V30 4364 C 433.568 0.211204 1.59407 0
M  V30 4365 O 434.758 0.465865 1.67855 0
M  V30 4366 C 431.89 1.01956 3.25297 0
M  V30 4367 H 433.083 2.27614 1.95273 0
M  V30 4368 H 430.636 1.21035 0.988953 0
M  V30 4369 H 431.371 0.050998 3.2426 0
M  V30 4370 H 431.156 1.80968 3.4784 0
M  V30 4371 H 432.646 1.0037 4.05359 0
M  V30 4372 N 433.083 -1.0153 1.20538 0
M  V30 4373 C 434.331 -1.74803 1.01432 0
M  V30 4374 C 434.652 -1.8963 -0.454456 0
M  V30 4375 O 433.922 -1.43975 -1.32846 0
M  V30 4376 H 432.502 -0.647598 0.372324 0
M  V30 4377 H 435.164 -1.22402 1.5167 0
M  V30 4378 H 434.26 -2.75114 1.47373 0
M  V30 4379 N 434.561 -1.01147 -1.20859 0
M  V30 4380 C 435.807 -0.698899 -1.90377 0
M  V30 4381 C 436.14 0.76904 -1.78324 0
M  V30 4382 O 435.415 1.55817 -1.16409 0
M  V30 4383 C 435.698 -1.12878 -3.41951 0
M  V30 4384 C 435.551 -2.65665 -3.62963 0
M  V30 4385 C 436.87 -0.696114 -4.3456 0
M  V30 4386 H 433.989 -0.255372 -0.691342 0
M  V30 4387 H 436.631 -1.25831 -1.42361 0
M  V30 4388 H 434.781 -0.652827 -3.82976 0
M  V30 4389 H 436.453 -3.21074 -3.31224 0
M  V30 4390 H 434.696 -3.06878 -3.06608 0
M  V30 4391 H 435.367 -2.90797 -4.69192 0
M  V30 4392 H 437.843 -1.10521 -4.01154 0
M  V30 4393 H 436.719 -1.025 -5.39245 0
M  V30 4394 H 436.98 0.402465 -4.40264 0
M  V30 4395 N 436.039 1.36541 -0.78704 0
M  V30 4396 C 437.288 1.98552 -0.35494 0
M  V30 4397 C 437.601 1.63171 1.07864 0
M  V30 4398 O 438.807 2.18399 1.61289 0
M  V30 4399 C 437.263 3.55136 -0.583671 0
M  V30 4400 C 436.871 3.99444 -2.02851 0
M  V30 4401 C 438.615 4.2395 -0.215957 0
M  V30 4402 C 436.522 5.48796 -2.20403 0
M  V30 4403 H 435.452 0.742888 -0.128972 0
M  V30 4404 H 438.103 1.5587 -0.968337 0
M  V30 4405 H 436.485 3.95875 0.0994046 0
M  V30 4406 H 437.659 3.6991 -2.74779 0
M  V30 4407 H 435.974 3.43459 -2.35425 0
M  V30 4408 H 438.571 5.33709 -0.325405 0
M  V30 4409 H 438.914 4.07827 0.835646 0
M  V30 4410 H 439.447 3.88565 -0.852175 0
M  V30 4411 H 436.186 5.69864 -3.23937 0
M  V30 4412 H 435.706 5.79964 -1.52977 0
M  V30 4413 H 437.385 6.14986 -2.01002 0
M  V30 4414 N 437.518 0.538854 1.48102 0
M  V30 4415 C 438.465 -0.219042 2.29758 0
M  V30 4416 C 439.435 -0.925562 1.37922 0
M  V30 4417 O 440.62 -0.924855 1.66886 0
M  V30 4418 C 437.76 -1.25452 3.2149 0
M  V30 4419 C 436.873 -0.555943 4.28408 0
M  V30 4420 C 436.008 -1.57512 5.0731 0
M  V30 4421 C 435.047 -0.860498 6.06021 0
M  V30 4422 N 434.184 -1.82564 6.77949 0
M  V30 4423 H 439.024 0.483449 2.94052 0
M  V30 4424 H 436.561 0.250247 1.44956 0
M  V30 4425 H 438.519 -1.86727 3.7308 0
M  V30 4426 H 437.149 -1.92528 2.591 0
M  V30 4427 H 436.201 0.170938 3.80016 0
M  V30 4428 H 437.513 0.00474616 4.988 0
M  V30 4429 H 436.667 -2.26191 5.62959 0
M  V30 4430 H 435.406 -2.16972 4.36778 0
M  V30 4431 H 434.411 -0.159686 5.49568 0
M  V30 4432 H 435.636 -0.271897 6.78555 0
M  V30 4433 H 433.582 -2.40915 6.10161 0
M  V30 4434 H 433.499 -1.31662 7.44447 0
M  V30 4435 H 434.767 -2.50414 7.38182 0
M  V30 4436 N 438.996 -1.55193 0.274407 0
M  V30 4437 C 440.221 -2.04446 -0.348824 0
M  V30 4438 C 440.646 -1.15149 -1.48735 0
M  V30 4439 O 440.004 -0.149952 -1.80679 0
M  V30 4440 C 440.052 -3.51431 -0.808009 0
M  V30 4441 O 439.156 -3.65225 -1.91531 0
M  V30 4442 H 438.497 -0.66006 -0.0722276 0
M  V30 4443 H 441.027 -2.00481 0.408498 0
M  V30 4444 H 441.037 -3.92781 -1.10395 0
M  V30 4445 H 439.712 -4.15892 0.0249865 0
M  V30 4446 H 438.289 -3.35778 -1.62196 0
M  V30 4447 N 440.474 -0.00167713 -1.576 0
M  V30 4448 C 441.437 0.974046 -2.07473 0
M  V30 4449 C 442.437 1.27143 -0.984444 0
M  V30 4450 O 443.627 1.21633 -1.24703 0
M  V30 4451 C 440.759 2.29849 -2.51759 0
M  V30 4452 H 441.952 0.54262 -2.9495 0
M  V30 4453 H 439.505 0.245829 -1.54355 0
M  V30 4454 H 440.24 2.77677 -1.67529 0
M  V30 4455 H 440.025 2.09584 -3.31386 0
M  V30 4456 H 441.515 2.9984 -2.90664 0
M  V30 4457 N 441.952 1.55251 0.271103 0
M  V30 4458 C 443.199 1.75946 1.00245 0
M  V30 4459 C 443.527 0.561611 1.86215 0
M  V30 4460 O 442.782 -0.455832 1.90317 0
M  V30 4461 C 443.081 3.01879 1.91321 0
M  V30 4462 C 442.747 4.34337 1.21086 0
M  V30 4463 C 441.409 4.70338 1.01666 0
M  V30 4464 C 443.761 5.16325 0.71119 0
M  V30 4465 C 441.089 5.8588 0.310099 0
M  V30 4466 C 443.441 6.32597 0.0182157 0
M  V30 4467 C 442.105 6.67236 -0.18768 0
M  V30 4468 H 441.375 0.643833 0.366824 0
M  V30 4469 H 444.022 1.89521 0.27458 0
M  V30 4470 H 442.327 2.83212 2.70736 0
M  V30 4471 H 444.024 3.15088 2.48033 0
M  V30 4472 H 440.614 4.06043 1.37213 0
M  V30 4473 H 444.798 4.88987 0.848844 0
M  V30 4474 H 440.054 6.1124 0.139873 0
M  V30 4475 H 444.228 6.9538 -0.376711 0
M  V30 4476 H 441.855 7.56618 -0.73715 0
M  V30 4477 N 443.43 -0.535701 1.48216 0
M  V30 4478 C 444.707 -1.29683 1.46429 0
M  V30 4479 C 445.087 -2.10391 0.172852 0
M  V30 4480 O 444.435 -2.12282 -0.845488 0
M  V30 4481 C 444.645 -2.18313 2.72287 0
M  V30 4482 C 445.993 -2.78639 3.20383 0
M  V30 4483 O 447.017 -2.28604 2.73164 0
M  V30 4484 O 445.876 -3.69636 4.02531 0
M  V30 4485 H 442.97 -0.585026 0.584529 0
M  V30 4486 H 445.516 -0.552827 1.60443 0
M  V30 4487 H 444.288 -1.58421 3.57797 0
M  V30 4488 H 443.911 -2.99971 2.60966 0
M  V30 4489 N 444.908 -1.36708 -0.784132 0
M  V30 4490 C 446.319 -1.27947 -1.35965 0
M  V30 4491 C 446.67 0.0784013 -1.96043 0
M  V30 4492 O 445.795 0.979989 -1.92938 0
M  V30 4493 C 446.39 -2.31689 -2.47195 0
M  V30 4494 C 444.949 -2.26601 -3.00548 0
M  V30 4495 C 444.096 -2.16184 -1.73666 0
M  V30 4496 H 447.047 -1.4751 -0.585358 0
M  V30 4497 H 447.068 -1.95638 -3.26352 0
M  V30 4498 H 446.58 -3.30506 -2.03439 0
M  V30 4499 H 444.681 -1.31268 -3.48711 0
M  V30 4500 H 444.794 -3.19508 -3.57004 0
M  V30 4501 H 443.158 -1.62524 -1.96107 0
M  V30 4502 H 443.941 -3.16896 -1.32031 0
M  V30 4503 N 446.386 1.0089 -1.21074 0
M  V30 4504 C 447.797 1.56056 -1.02486 0
M  V30 4505 C 448.148 1.91728 0.416506 0
M  V30 4506 O 447.273 1.73066 1.29912 0
M  V30 4507 C 447.868 2.83563 -1.85411 0
M  V30 4508 C 446.427 3.3523 -1.71166 0
M  V30 4509 C 445.574 2.0846 -1.82865 0
M  V30 4510 H 448.525 0.831818 -1.35154 0
M  V30 4511 H 448.546 3.55286 -1.36205 0
M  V30 4512 H 448.058 2.57569 -2.9031 0
M  V30 4513 H 446.159 3.66167 -0.689361 0
M  V30 4514 H 446.272 4.06913 -2.52901 0
M  V30 4515 H 444.636 2.21275 -1.26132 0
M  V30 4516 H 445.419 1.84883 -2.89263 0
M  V30 4517 N 447.864 1.01787 1.20321 0
M  V30 4518 C 449.141 0.622978 1.85414 0
M  V30 4519 C 449.521 -0.898887 1.91006 0
M  V30 4520 O 448.869 -1.79112 1.41884 0
M  V30 4521 C 449.079 1.27226 3.24984 0
M  V30 4522 C 450.427 1.3885 4.01255 0
M  V30 4523 O 451.451 1.22857 3.34342 0
M  V30 4524 O 450.31 1.64705 5.2109 0
M  V30 4525 H 447.404 0.215116 0.798533 0
M  V30 4526 H 449.95 1.11533 1.27901 0
M  V30 4527 H 448.722 2.31209 3.15687 0
M  V30 4528 H 448.345 0.767069 3.90131 0
M  V30 4529 N 449.342 -1.36122 0.79427 0
M  V30 4530 C 450.591 -1.98361 0.365464 0
M  V30 4531 C 450.904 -1.6374 -1.06997 0
M  V30 4532 O 452.11 -2.19251 -1.60129 0
M  V30 4533 C 450.566 -3.54821 0.602496 0
M  V30 4534 C 450.174 -3.98362 2.04967 0
M  V30 4535 C 451.918 -4.2383 0.238437 0
M  V30 4536 C 449.825 -5.47619 2.2331 0
M  V30 4537 H 448.755 -0.742193 0.13291 0
M  V30 4538 H 451.406 -1.55354 0.976589 0
M  V30 4539 H 449.788 -3.95922 -0.078409 0
M  V30 4540 H 450.962 -3.68447 2.76737 0
M  V30 4541 H 449.277 -3.42206 2.37243 0
M  V30 4542 H 451.874 -5.33529 0.353705 0
M  V30 4543 H 452.217 -4.08264 -0.814006 0
M  V30 4544 H 452.75 -3.88108 0.872769 0
M  V30 4545 H 449.489 -5.68138 3.26955 0
M  V30 4546 H 449.009 -5.79145 1.5605 0
M  V30 4547 H 450.688 -6.13911 2.0426 0
M  V30 4548 N 450.82 -0.546701 -1.47814 0
M  V30 4549 C 452.231 -0.110564 -1.86372 0
M  V30 4550 C 452.582 1.31678 -1.45449 0
M  V30 4551 O 451.707 1.98889 -0.852758 0
M  V30 4552 C 452.302 -0.193873 -3.38245 0
M  V30 4553 C 450.861 0.187164 -3.75934 0
M  V30 4554 C 450.008 -0.546166 -2.71868 0
M  V30 4555 H 452.959 -0.757022 -1.39481 0
M  V30 4556 H 452.98 0.590218 -3.75895 0
M  V30 4557 H 452.492 -1.23282 -3.67999 0
M  V30 4558 H 450.593 1.22762 -3.51796 0
M  V30 4559 H 450.706 -0.164083 -4.78819 0
M  V30 4560 H 449.07 0.00953904 -2.54698 0
M  V30 4561 H 449.853 -1.58606 -3.04465 0
M  V30 4562 N 452.299 1.55045 -0.282633 0
M  V30 4563 C 453.545 2.00056 0.332481 0
M  V30 4564 C 453.878 1.1708 1.54939 0
M  V30 4565 O 453.153 0.2427 1.9298 0
M  V30 4566 C 453.436 3.53086 0.70725 0
M  V30 4567 C 453.289 4.46813 -0.517521 0
M  V30 4568 C 454.608 4.12245 1.54084 0
M  V30 4569 H 451.727 0.727268 0.119373 0
M  V30 4570 H 454.369 1.85932 -0.391076 0
M  V30 4571 H 452.519 3.65253 1.32372 0
M  V30 4572 H 454.191 4.46579 -1.15607 0
M  V30 4573 H 452.434 4.18163 -1.1542 0
M  V30 4574 H 453.105 5.51595 -0.211426 0
M  V30 4575 H 455.581 4.03401 1.02013 0
M  V30 4576 H 454.457 5.19515 1.77186 0
M  V30 4577 H 454.718 3.62951 2.52427 0
M  V30 4578 N 453.777 0.010035 1.57597 0
M  V30 4579 C 455.017 -0.677084 1.9286 0
M  V30 4580 C 455.381 -1.70377 0.885192 0
M  V30 4581 O 456.582 -2.44199 1.12339 0
M  V30 4582 C 454.853 -1.29452 3.33132 0
M  V30 4583 S 456.412 -2.00537 3.90295 0
M  V30 4584 H 453.23 -0.223409 0.674989 0
M  V30 4585 H 455.832 0.0691289 1.95378 0
M  V30 4586 H 454.536 -0.534593 4.06903 0
M  V30 4587 H 454.067 -2.07845 3.34012 0
M  V30 4588 H 456.082 -3.28168 3.72183 0
M  V30 4589 N 455.255 -1.55392 -0.262866 0
M  V30 4590 C 456.185 -1.91978 -1.32917 0
M  V30 4591 C 457.166 -0.7828 -1.51017 0
M  V30 4592 O 458.351 -1.04178 -1.63892 0
M  V30 4593 C 455.481 -2.20055 -2.68687 0
M  V30 4594 C 454.435 -3.35854 -2.65304 0
M  V30 4595 C 453.761 -3.49435 -4.04721 0
M  V30 4596 C 455.061 -4.71977 -2.23685 0
M  V30 4597 H 456.755 -2.81292 -1.02544 0
M  V30 4598 H 454.301 -1.3534 -0.491846 0
M  V30 4599 H 456.254 -2.44237 -3.43404 0
M  V30 4600 H 454.978 -1.27551 -3.00663 0
M  V30 4601 H 453.637 -3.11655 -1.93045 0
M  V30 4602 H 453.285 -2.54379 -4.33936 0
M  V30 4603 H 452.985 -4.27297 -4.0335 0
M  V30 4604 H 454.509 -3.7592 -4.81161 0
M  V30 4605 H 455.923 -4.95637 -2.88127 0
M  V30 4606 H 454.32 -5.52828 -2.33456 0
M  V30 4607 H 455.39 -4.70115 -1.18827 0
M  V30 4608 N 456.733 0.527833 -1.48498 0
M  V30 4609 C 457.663 1.64136 -1.66077 0
M  V30 4610 C 458.644 1.62286 -0.509625 0
M  V30 4611 O 459.829 1.79449 -0.742413 0
M  V30 4612 C 456.959 3.02717 -1.70234 0
M  V30 4613 C 455.913 3.19426 -2.8487 0
M  V30 4614 C 455.239 4.5909 -2.74118 0
M  V30 4615 C 456.539 3.01993 -4.26142 0
M  V30 4616 H 458.233 1.4968 -2.593 0
M  V30 4617 H 455.779 0.718654 -1.24785 0
M  V30 4618 H 457.732 3.80491 -1.8112 0
M  V30 4619 H 456.456 3.18201 -0.735911 0
M  V30 4620 H 455.115 2.4407 -2.73542 0
M  V30 4621 H 454.763 4.71413 -1.7544 0
M  V30 4622 H 454.463 4.71214 -3.51042 0
M  V30 4623 H 455.987 5.3896 -2.86974 0
M  V30 4624 H 457.401 3.69558 -4.38292 0
M  V30 4625 H 455.798 3.2561 -5.04082 0
M  V30 4626 H 456.868 1.98396 -4.42456 0
M  V30 4627 N 458.211 1.37122 0.776871 0
M  V30 4628 C 459.459 1.31787 1.53221 0
M  V30 4629 C 459.78 -0.0987589 1.9475 0
M  V30 4630 O 459.05 -1.0417 1.65908 0
M  V30 4631 H 457.63 0.484839 0.568278 0
M  V30 4632 H 460.292 1.71556 0.924917 0
M  V30 4633 H 459.388 1.95355 2.43398 0
M  V30 4634 N 459.689 -1.00246 1.21608 0
M  V30 4635 C 460.637 -2.11193 0.97469 0
M  V30 4636 C 461.631 -1.69216 -0.0789303 0
M  V30 4637 O 462.837 -1.79853 0.0726806 0
M  V30 4638 H 459.212 -0.690455 0.297953 0
M  V30 4639 H 461.183 -2.2873 1.91638 0
M  V30 4640 C 459.932 -3.43182 0.558717 0
M  V30 4641 H 459.255 -3.75918 1.3611 0
M  V30 4642 H 460.695 -4.21823 0.429154 0
M  V30 4643 C 459.154 -3.28882 -0.730648 0
M  V30 4644 O 459.684 -3.59835 -1.78554 0
M  V30 4645 N 457.89 -2.8209 -0.698131 0
M  V30 4646 H 457.437 -2.57099 0.16061 0
M  V30 4647 H 457.395 -2.72903 -1.56113 0
M  V30 4648 N 461.167 -1.02423 -1.1978 0
M  V30 4649 C 462.583 -0.740459 -1.41384 0
M  V30 4650 C 462.783 0.676827 -1.89793 0
M  V30 4651 O 461.839 1.4435 -2.0717 0
M  V30 4652 C 463.152 -1.77264 -2.42895 0
M  V30 4653 C 464.7 -1.79165 -2.56649 0
M  V30 4654 C 465.175 -2.8133 -3.6141 0
M  V30 4655 N 466.666 -2.80118 -3.68901 0
M  V30 4656 C 467.401 -3.55824 -4.49641 0
M  V30 4657 N 466.897 -4.41231 -5.34123 0
M  V30 4658 N 468.69 -3.44387 -4.44246 0
M  V30 4659 H 460.841 -1.9391 -0.866764 0
M  V30 4660 H 463.104 -0.838074 -0.443098 0
M  V30 4661 H 462.81 -2.7884 -2.14339 0
M  V30 4662 H 462.684 -1.59108 -3.42001 0
M  V30 4663 H 465.071 -0.782702 -2.84531 0
M  V30 4664 H 465.152 -2.01396 -1.57713 0
M  V30 4665 H 464.796 -3.82394 -3.34271 0
M  V30 4666 H 464.726 -2.56359 -4.59986 0
M  V30 4667 H 467.217 -2.1817 -3.08562 0
M  V30 4668 H 467.53 -4.95747 -5.92836 0
M  V30 4669 H 465.875 -4.45306 -5.33599 0
M  V30 4670 H 469.066 -2.7708 -3.77285 0
M  V30 4671 H 469.239 -4.0364 -5.06931 0
M  V30 4672 N 462.645 1.35699 -0.801477 0
M  V30 4673 C 463.873 2.03157 -0.391768 0
M  V30 4674 C 464.288 1.60412 0.995668 0
M  V30 4675 O 463.645 0.799228 1.64069 0
M  V30 4676 C 463.696 3.58566 -0.459671 0
M  V30 4677 O 463.417 3.99756 -1.7924 0
M  V30 4678 C 464.918 4.4328 -0.0421205 0
M  V30 4679 H 462.138 0.651688 -0.159825 0
M  V30 4680 H 464.682 1.73426 -1.08368 0
M  V30 4681 H 462.837 3.86963 0.183939 0
M  V30 4682 H 463.251 4.94387 -1.75162 0
M  V30 4683 H 464.725 5.51821 -0.140754 0
M  V30 4684 H 465.202 4.27383 1.01196 0
M  V30 4685 H 465.808 4.20168 -0.658687 0
M  V30 4686 N 464.123 0.554532 1.47522 0
M  V30 4687 C 465.053 -0.182974 2.32782 0
M  V30 4688 C 466.034 -0.911377 1.43624 0
M  V30 4689 O 467.219 -0.892366 1.72483 0
M  V30 4690 C 464.349 -1.21513 3.25349 0
M  V30 4691 C 463.303 -0.603355 4.23726 0
M  V30 4692 C 462.629 -1.73995 5.05598 0
M  V30 4693 C 463.929 0.441121 5.20434 0
M  V30 4694 H 465.623 0.52882 2.94693 0
M  V30 4695 H 463.169 0.255759 1.41711 0
M  V30 4696 H 465.122 -1.73922 3.83835 0
M  V30 4697 H 463.846 -1.95683 2.61487 0
M  V30 4698 H 462.505 -0.10059 3.66462 0
M  V30 4699 H 462.153 -2.47063 4.38143 0
M  V30 4700 H 461.853 -1.3364 5.72201 0
M  V30 4701 H 463.377 -2.26735 5.66942 0
M  V30 4702 H 464.791 0.00319931 5.733 0
M  V30 4703 H 463.188 0.763402 5.95224 0
M  V30 4704 H 464.258 1.33799 4.66075 0
M  V30 4705 N 465.601 -1.54893 0.290851 0
M  V30 4706 C 466.826 -2.04804 -0.32712 0
M  V30 4707 C 467.251 -1.16721 -1.47506 0
M  V30 4708 O 466.609 -0.169107 -1.8051 0
M  V30 4709 C 466.657 -3.52268 -0.770689 0
M  V30 4710 O 465.761 -3.67236 -1.87647 0
M  V30 4711 H 465.102 -0.660789 -0.0652227 0
M  V30 4712 H 467.632 -2.00036 0.429739 0
M  V30 4713 H 467.642 -3.9393 -1.06223 0
M  V30 4714 H 466.317 -4.15843 0.069096 0
M  V30 4715 H 464.894 -3.37479 -1.58626 0
M  V30 4716 N 467.08 -0.0183926 -1.57589 0
M  V30 4717 C 468.496 0.337897 -1.55982 0
M  V30 4718 C 468.696 1.73604 -1.02294 0
M  V30 4719 O 467.752 2.43589 -0.664895 0
M  V30 4720 C 469.065 0.196305 -3.00059 0
M  V30 4721 C 470.613 0.269875 -3.11834 0
M  V30 4722 C 471.088 0.157197 -4.5773 0
M  V30 4723 N 472.579 0.214521 -4.62703 0
M  V30 4724 C 473.314 0.150955 -5.73201 0
M  V30 4725 N 472.81 0.0369212 -6.9279 0
M  V30 4726 N 474.603 0.204162 -5.61729 0
M  V30 4727 H 466.754 -0.93279 -1.90821 0
M  V30 4728 H 469.017 -0.359253 -0.877292 0
M  V30 4729 H 468.723 -0.766383 -3.43248 0
M  V30 4730 H 468.597 0.970908 -3.6449 0
M  V30 4731 H 470.984 1.22302 -2.68563 0
M  V30 4732 H 471.065 -0.534918 -2.50144 0
M  V30 4733 H 470.709 -0.792479 -5.01679 0
M  V30 4734 H 470.639 0.980717 -5.17387 0
M  V30 4735 H 473.13 0.303238 -3.76681 0
M  V30 4736 H 473.443 -0.00518321 -7.728 0
M  V30 4737 H 471.788 0.0022886 -6.95 0
M  V30 4738 H 474.979 0.291575 -4.67191 0
M  V30 4739 H 475.152 0.15116 -6.47824 0
M  V30 4740 N 468.558 1.5553 0.254621 0
M  V30 4741 C 469.974 1.4778 0.602753 0
M  V30 4742 C 470.174 0.707047 1.88688 0
M  V30 4743 O 469.23 0.233288 2.5142 0
M  V30 4744 C 470.543 2.92133 0.712648 0
M  V30 4745 C 472.091 3.02458 0.805488 0
M  V30 4746 C 472.566 4.48102 0.947009 0
M  V30 4747 N 474.057 4.52008 1.01207 0
M  V30 4748 C 474.792 5.61939 1.1407 0
M  V30 4749 N 474.288 6.81697 1.23536 0
M  V30 4750 N 476.081 5.49719 1.17325 0
M  V30 4751 H 468.232 2.04085 -0.588463 0
M  V30 4752 H 470.495 0.926229 -0.202001 0
M  V30 4753 H 470.201 3.51332 -0.160766 0
M  V30 4754 H 470.075 3.42187 1.58707 0
M  V30 4755 H 472.462 2.43344 1.66936 0
M  V30 4756 H 472.543 2.55627 -0.0939266 0
M  V30 4757 H 472.187 5.07824 0.087725 0
M  V30 4758 H 472.117 4.92607 1.86135 0
M  V30 4759 H 474.608 3.65749 0.950577 0
M  V30 4760 H 474.921 7.61228 1.33236 0
M  V30 4761 H 473.266 6.84473 1.20508 0
M  V30 4762 H 476.457 4.55095 1.09573 0
M  V30 4763 H 476.63 6.35432 1.27005 0
M  V30 4764 N 470.036 -0.519951 1.48776 0
M  V30 4765 C 471.261 -1.30447 1.6124 0
M  V30 4766 C 471.686 -1.86055 0.276591 0
M  V30 4767 O 471.044 -1.64915 -0.753183 0
M  V30 4768 C 471.092 -2.42406 2.66967 0
M  V30 4769 O 470.196 -3.45728 2.24824 0
M  V30 4770 H 469.537 -0.385924 0.540332 0
M  V30 4771 H 472.067 -0.624572 1.94834 0
M  V30 4772 H 472.077 -2.88447 2.88552 0
M  V30 4773 H 470.752 -2.01294 3.63941 0
M  V30 4774 H 469.329 -3.05737 2.13494 0
M  V30 4775 N 471.514 -1.37532 -0.769588 0
M  V30 4776 C 472.761 -1.3286 -1.52822 0
M  V30 4777 C 473.089 0.0862597 -1.94309 0
M  V30 4778 O 472.344 1.05995 -1.6451 0
M  V30 4779 C 472.643 -2.21558 -2.8044 0
M  V30 4780 C 472.309 -3.69796 -2.57996 0
M  V30 4781 C 470.971 -4.10194 -2.51583 0
M  V30 4782 C 473.323 -4.63699 -2.37976 0
M  V30 4783 C 470.651 -5.42608 -2.23144 0
M  V30 4784 C 473.003 -5.96353 -2.1106 0
M  V30 4785 C 471.667 -6.35853 -2.03093 0
M  V30 4786 H 470.937 -0.486168 -0.559215 0
M  V30 4787 H 473.584 -1.69757 -0.886277 0
M  V30 4788 H 471.889 -1.77663 -3.49204 0
M  V30 4789 H 473.586 -2.15256 -3.38328 0
M  V30 4790 H 470.176 -3.37759 -2.63851 0
M  V30 4791 H 474.36 -4.33346 -2.41919 0
M  V30 4792 H 469.616 -5.72173 -2.15472 0
M  V30 4793 H 473.79 -6.68667 -1.94568 0
M  V30 4794 H 471.417 -7.38382 -1.8082 0
M  V30 4795 N 472.992 0.995999 -1.22138 0
M  V30 4796 C 474.269 1.70834 -0.952642 0
M  V30 4797 C 474.649 2.04257 0.533119 0
M  V30 4798 O 473.997 1.72343 1.50034 0
M  V30 4799 C 474.207 2.96119 -1.84701 0
M  V30 4800 C 475.555 3.68962 -2.10124 0
M  V30 4801 O 476.579 3.0612 -1.82124 0
M  V30 4802 O 475.438 4.82017 -2.57531 0
M  V30 4803 H 472.532 0.745498 -0.357997 0
M  V30 4804 H 475.078 1.05262 -1.33109 0
M  V30 4805 H 473.85 2.67898 -2.85213 0
M  V30 4806 H 473.473 3.6943 -1.46995 0
M  V30 4807 N 474.47 1.03057 1.19235 0
M  V30 4808 C 475.433 0.617418 2.20727 0
M  V30 4809 C 476.433 -0.319856 1.57587 0
M  V30 4810 O 477.623 -0.106633 1.73873 0
M  V30 4811 C 474.755 -0.096296 3.40764 0
M  V30 4812 H 475.948 1.51544 2.58794 0
M  V30 4813 H 473.501 0.821949 1.32942 0
M  V30 4814 H 474.236 -1.00859 3.08217 0
M  V30 4815 H 474.021 0.577217 3.87828 0
M  V30 4816 H 475.511 -0.372219 4.15938 0
M  V30 4817 N 475.948 -1.35272 0.808662 0
M  V30 4818 C 477.188 -2.00534 0.395668 0
M  V30 4819 C 477.552 -1.62755 -1.01857 0
M  V30 4820 O 478.753 -2.20752 -1.53368 0
M  V30 4821 C 477.024 -3.52732 0.575771 0
M  V30 4822 S 478.583 -4.38067 0.253507 0
M  V30 4823 H 475.401 -0.694962 0.150165 0
M  V30 4824 H 478.003 -1.64823 1.05137 0
M  V30 4825 H 476.707 -3.77714 1.60499 0
M  V30 4826 H 476.238 -3.93285 -0.0951739 0
M  V30 4827 H 478.253 -4.87252 -0.938068 0
M  V30 4828 N 477.426 -0.562348 -1.47226 0
M  V30 4829 C 478.672 -0.0402761 -2.0276 0
M  V30 4830 C 479.005 1.30823 -1.43523 0
M  V30 4831 O 478.28 1.85249 -0.592705 0
M  V30 4832 C 478.563 0.047311 -3.60069 0
M  V30 4833 C 478.416 -1.32865 -4.29729 0
M  V30 4834 C 479.735 0.758182 -4.3352 0
M  V30 4835 H 476.854 -0.0161105 -0.736824 0
M  V30 4836 H 479.496 -0.725628 -1.75598 0
M  V30 4837 H 477.646 0.630986 -3.83342 0
M  V30 4838 H 479.318 -1.95593 -4.17781 0
M  V30 4839 H 477.561 -1.90195 -3.89882 0
M  V30 4840 H 478.232 -1.22004 -5.38349 0
M  V30 4841 H 480.708 0.262546 -4.15271 0
M  V30 4842 H 479.584 0.78844 -5.43208 0
M  V30 4843 H 479.845 1.81537 -4.03109 0
M  V30 4844 N 478.904 1.54736 -0.299062 0
M  V30 4845 C 479.851 2.23448 0.577899 0
M  V30 4846 C 480.821 1.21637 1.13109 0
M  V30 4847 O 482.006 1.50252 1.17597 0
M  V30 4848 C 479.146 2.9774 1.74484 0
M  V30 4849 C 478.259 4.1432 1.22323 0
M  V30 4850 C 477.394 4.76199 2.35388 0
M  V30 4851 C 476.433 5.84927 1.80351 0
M  V30 4852 N 475.57 6.4077 2.86982 0
M  V30 4853 H 480.41 2.97996 -0.0146545 0
M  V30 4854 H 477.947 1.47088 -0.0190013 0
M  V30 4855 H 479.905 3.39045 2.43114 0
M  V30 4856 H 478.535 2.25572 2.30905 0
M  V30 4857 H 477.587 3.7797 0.429249 0
M  V30 4858 H 478.899 4.92659 0.780309 0
M  V30 4859 H 478.053 5.20346 3.11969 0
M  V30 4860 H 476.792 3.97188 2.83006 0
M  V30 4861 H 475.797 5.40207 1.02259 0
M  V30 4862 H 477.022 6.65821 1.3364 0
M  V30 4863 H 474.968 5.64643 3.33938 0
M  V30 4864 H 474.885 7.1445 2.4718 0
M  V30 4865 H 476.153 6.89574 3.63466 0
M  V30 4866 N 480.382 0.0267497 1.57577 0
M  V30 4867 C 481.345 -0.940916 2.08996 0
M  V30 4868 C 482.345 -1.25561 1.00455 0
M  V30 4869 O 483.535 -1.19634 1.26623 0
M  V30 4870 C 480.667 -2.25814 2.55384 0
M  V30 4871 H 481.86 -0.495628 2.95776 0
M  V30 4872 H 479.413 -0.221241 1.54726 0
M  V30 4873 H 480.148 -2.74976 1.71926 0
M  V30 4874 H 479.933 -2.04285 3.34679 0
M  V30 4875 H 481.423 -2.95178 2.95398 0
M  V30 4876 N 481.861 -1.55662 -0.24637 0
M  V30 4877 C 483.091 -1.81312 -0.990438 0
M  V30 4878 C 483.499 -0.600234 -1.79426 0
M  V30 4879 O 482.842 0.440537 -1.78339 0
M  V30 4880 C 482.904 -3.0032 -1.97607 0
M  V30 4881 C 482.568 -4.36322 -1.35912 0
M  V30 4882 C 483.565 -5.14295 -0.761348 0
M  V30 4883 C 481.25 -4.83019 -1.37833 0
M  V30 4884 C 483.244 -6.37114 -0.190998 0
M  V30 4885 C 480.931 -6.05786 -0.804128 0
M  V30 4886 C 481.929 -6.82672 -0.211489 0
M  V30 4887 O 481.617 -8.03121 0.353845 0
M  V30 4888 H 481.349 -0.607233 -0.297058 0
M  V30 4889 H 483.903 -2.0356 -0.274351 0
M  V30 4890 H 482.133 -2.73829 -2.73047 0
M  V30 4891 H 483.822 -3.13057 -2.58361 0
M  V30 4892 H 484.588 -4.79337 -0.739013 0
M  V30 4893 H 480.467 -4.23165 -1.829 0
M  V30 4894 H 484.011 -6.97069 0.272206 0
M  V30 4895 H 479.908 -6.40222 -0.823792 0
M  V30 4896 H 480.676 -8.18131 0.245761 0
M  V30 4897 N 483.339 0.512053 -1.4905 0
M  V30 4898 C 484.587 1.26436 -1.57665 0
M  V30 4899 C 484.908 1.93255 -0.260293 0
M  V30 4900 O 484.178 1.82206 0.719564 0
M  V30 4901 H 482.758 0.469658 -0.580888 0
M  V30 4902 H 485.42 0.594398 -1.85615 0
M  V30 4903 H 484.516 2.03417 -2.36702 0
M  V30 4904 N 484.817 1.37938 0.762283 0
M  V30 4905 C 486.066 1.32989 1.51647 0
M  V30 4906 C 486.379 -0.0802922 1.95435 0
M  V30 4907 O 487.585 -0.252295 2.70325 0
M  V30 4908 C 486.041 2.33485 2.73885 0
M  V30 4909 C 485.649 3.80079 2.37157 0
M  V30 4910 C 487.393 2.37563 3.51801 0
M  V30 4911 C 485.3 4.72283 3.55954 0
M  V30 4912 H 484.23 0.494301 0.56937 0
M  V30 4913 H 486.881 1.63448 0.834083 0
M  V30 4914 H 485.263 1.96056 3.44061 0
M  V30 4915 H 486.437 4.26398 1.74704 0
M  V30 4916 H 484.752 3.79037 1.72395 0
M  V30 4917 H 487.349 3.0365 4.40114 0
M  V30 4918 H 487.692 1.39199 3.92338 0
M  V30 4919 H 488.225 2.73747 2.8863 0
M  V30 4920 H 484.964 5.7181 3.2049 0
M  V30 4921 H 484.484 4.30663 4.1748 0
M  V30 4922 H 486.163 4.89876 4.22647 0
M  V30 4923 N 486.295 -0.989507 1.22664 0
M  V30 4924 C 487.245 -2.06478 0.967005 0
M  V30 4925 C 488.229 -1.60682 -0.0836374 0
M  V30 4926 O 489.421 -1.76541 0.127322 0
M  V30 4927 C 486.55 -3.38861 0.550313 0
M  V30 4928 C 485.636 -3.9128 1.63587 0
M  V30 4929 N 486.027 -4.16884 2.86429 0
M  V30 4930 C 484.325 -4.1972 1.50834 0
M  V30 4931 C 485.026 -4.5954 3.56648 0
M  V30 4932 N 484.002 -4.63434 2.84131 0
M  V30 4933 H 487.804 -2.24219 1.90008 0
M  V30 4934 H 485.318 -1.17153 1.12467 0
M  V30 4935 H 487.315 -4.15465 0.345612 0
M  V30 4936 H 485.975 -3.22518 -0.375822 0
M  V30 4937 H 486.986 -4.04976 3.22823 0
M  V30 4938 H 483.663 -4.1243 0.648643 0
M  V30 4939 H 485.053 -4.87944 4.61909 0
M  V30 4940 N 487.773 -1.03688 -1.18687 0
M  V30 4941 C 488.721 -0.618292 -2.24232 0
M  V30 4942 C 489.715 0.353045 -1.6568 0
M  V30 4943 O 490.921 0.220749 -1.78641 0
M  V30 4944 H 487.296 -0.181711 -0.729716 0
M  V30 4945 H 489.267 -1.51893 -2.56848 0
M  V30 4946 C 488.016 0.00677342 -3.47699 0
M  V30 4947 H 487.339 -0.731692 -3.93047 0
M  V30 4948 H 488.779 0.262492 -4.23187 0
M  V30 4949 C 487.238 1.25572 -3.12623 0
M  V30 4950 O 487.768 2.34691 -3.26011 0
M  V30 4951 N 485.974 1.14755 -2.66982 0
M  V30 4952 H 485.521 0.259601 -2.56289 0
M  V30 4953 H 485.479 1.98412 -2.43885 0
M  V30 4954 N 489.251 1.34841 -0.815825 0
M  V30 4955 C 490.199 2.31549 -0.220888 0
M  V30 4956 C 491.193 1.5707 0.634457 0
M  V30 4957 O 492.399 1.72125 0.526589 0
M  V30 4958 H 488.774 0.750153 -0.0526782 0
M  V30 4959 H 490.745 2.7926 -1.05149 0
M  V30 4960 C 489.494 3.42335 0.608427 0
M  V30 4961 H 488.817 3.9978 -0.0404121 0
M  V30 4962 H 490.257 4.12258 0.990931 0
M  V30 4963 C 488.716 2.86173 1.77782 0
M  V30 4964 O 489.246 2.80474 2.87571 0
M  V30 4965 N 487.452 2.43093 1.59229 0
M  V30 4966 H 486.999 2.47928 0.699237 0
M  V30 4967 H 486.957 2.05866 2.37627 0
M  V30 4968 N 490.729 0.570148 1.46925 0
M  V30 4969 C 491.954 0.0542592 2.07329 0
M  V30 4970 C 492.379 -1.23582 1.41806 0
M  V30 4971 O 491.737 -1.74341 0.497479 0
M  V30 4972 C 491.785 -0.111175 3.60429 0
M  V30 4973 O 490.889 -1.17071 3.95434 0
M  V30 4974 H 490.23 0.0571425 0.661537 0
M  V30 4975 H 492.76 0.789516 1.88753 0
M  V30 4976 H 492.77 -0.321315 4.06733 0
M  V30 4977 H 491.445 0.831012 4.07513 0
M  V30 4978 H 490.022 -0.940029 3.60857 0
M  V30 4979 N 492.207 -1.54576 0.307264 0
M  V30 4980 C 493.17 -2.22423 -0.553224 0
M  V30 4981 C 494.17 -1.21231 -1.05639 0
M  V30 4982 O 495.36 -1.45923 -0.951419 0
M  V30 4983 C 492.492 -2.91552 -1.76664 0
M  V30 4984 H 493.685 -2.99874 0.0396484 0
M  V30 4985 H 491.238 -1.56192 0.0581629 0
M  V30 4986 H 491.973 -2.18196 -2.39918 0
M  V30 4987 H 491.758 -3.65738 -1.41343 0
M  V30 4988 H 493.248 -3.43292 -2.37783 0
M  V30 4989 N 493.685 -0.035106 -1.57561 0
M  V30 4990 C 494.913 0.652258 -1.9635 0
M  V30 4991 C 495.328 1.65317 -0.911897 0
M  V30 4992 O 494.685 1.82194 0.105657 0
M  V30 4993 C 494.736 1.35337 -3.35211 0
M  V30 4994 O 494.457 0.392548 -4.36338 0
M  V30 4995 C 495.958 2.13199 -3.88666 0
M  V30 4996 H 493.178 0.179444 -0.646561 0
M  V30 4997 H 495.722 -0.0966459 -2.04271 0
M  V30 4998 H 493.877 2.05362 -3.28489 0
M  V30 4999 H 494.291 0.891097 -5.16875 0
M  V30 5000 H 495.765 2.577 -4.88154 0
M  V30 5001 H 496.242 2.97353 -3.23231 0
M  V30 5002 H 496.848 1.48118 -3.98674 0
M  V30 5003 N 495.163 1.55791 0.238111 0
M  V30 5004 C 496.388 1.8244 0.986432 0
M  V30 5005 C 496.813 0.613314 1.7782 0
M  V30 5006 O 496.171 -0.437767 1.75935 0
M  V30 5007 C 496.219 3.06917 1.893 0
M  V30 5008 O 495.323 2.84449 2.98601 0
M  V30 5009 H 494.664 0.601975 0.280218 0
M  V30 5010 H 497.194 2.02987 0.256437 0
M  V30 5011 H 497.204 3.36583 2.30598 0
M  V30 5012 H 495.879 3.947 1.31091 0
M  V30 5013 H 494.456 2.65972 2.61368 0
M  V30 5014 N 496.642 -0.504142 1.49319 0
M  V30 5015 C 497.605 -1.5883 1.65244 0
M  V30 5016 C 498.605 -1.52009 0.524386 0
M  V30 5017 O 499.795 -1.55218 0.79077 0
M  V30 5018 C 496.927 -2.98481 1.64687 0
M  V30 5019 H 498.12 -1.4604 2.61939 0
M  V30 5020 H 495.673 -0.728144 1.38303 0
M  V30 5021 H 496.408 -3.16751 0.695644 0
M  V30 5022 H 496.193 -3.0484 2.46607 0
M  V30 5023 H 497.683 -3.77256 1.79075 0
M  V30 5024 N 498.12 -1.38341 -0.754957 0
M  V30 5025 C 499.05 -1.38176 -1.88227 0
M  V30 5026 C 500.031 -0.247873 -1.68284 0
M  V30 5027 O 501.216 -0.45075 -1.88896 0
M  V30 5028 C 498.346 -1.20471 -3.25736 0
M  V30 5029 C 497.3 -2.3105 -3.60278 0
M  V30 5030 C 496.626 -1.98452 -4.96509 0
M  V30 5031 C 497.926 -3.73305 -3.65295 0
M  V30 5032 H 499.62 -2.32512 -1.88622 0
M  V30 5033 H 497.166 -1.1192 -0.906082 0
M  V30 5034 H 499.119 -1.18982 -4.04254 0
M  V30 5035 H 497.843 -0.225965 -3.25817 0
M  V30 5036 H 496.502 -2.31723 -2.84078 0
M  V30 5037 H 496.15 -0.990641 -4.93148 0
M  V30 5038 H 495.85 -2.7251 -5.20588 0
M  V30 5039 H 497.374 -1.98578 -5.77407 0
M  V30 5040 H 498.788 -3.7467 -4.3393 0
M  V30 5041 H 497.185 -4.46557 -4.00883 0
M  V30 5042 H 498.255 -4.05719 -2.65556 0
M  V30 5043 N 499.598 0.982988 -1.23187 0
M  V30 5044 C 500.844 1.7273 -1.07405 0
M  V30 5045 C 501.199 1.885 0.385447 0
M  V30 5046 O 500.492 1.4243 1.28157 0
M  V30 5047 C 500.686 3.12736 -1.73006 0
M  V30 5048 C 500.515 3.10621 -3.25184 0
M  V30 5049 C 499.285 3.15957 -3.94334 0
M  V30 5050 C 501.483 2.93992 -4.21987 0
M  V30 5051 N 499.465 3.03701 -5.33516 0
M  V30 5052 C 500.836 2.8987 -5.48065 0
M  V30 5053 C 502.891 2.78457 -4.12754 0
M  V30 5054 C 501.594 2.71804 -6.65969 0
M  V30 5055 C 503.62 2.61754 -5.30319 0
M  V30 5056 C 502.982 2.58328 -6.55321 0
M  V30 5057 H 499.081 0.641279 -0.447533 0
M  V30 5058 H 501.665 1.16664 -1.55877 0
M  V30 5059 H 499.836 3.67026 -1.2707 0
M  V30 5060 H 501.568 3.75786 -1.50224 0
M  V30 5061 H 498.323 3.24034 -3.45397 0
M  V30 5062 H 498.747 3.00855 -6.06478 0
M  V30 5063 H 503.389 2.79898 -3.16886 0
M  V30 5064 H 501.107 2.69108 -7.61975 0
M  V30 5065 H 504.693 2.50702 -5.25014 0
M  V30 5066 H 503.573 2.45564 -7.4476 0
M  V30 5067 N 501.076 1.04316 1.18135 0
M  V30 5068 C 502.324 0.746542 1.87806 0
M  V30 5069 C 502.645 -0.728082 1.80898 0
M  V30 5070 O 501.915 -1.52554 1.22899 0
M  V30 5071 H 500.495 0.273157 0.695265 0
M  V30 5072 H 503.157 1.32044 1.43354 0
M  V30 5073 H 502.253 1.05362 2.93778 0
M  V30 5074 N 502.554 -1.34406 0.822964 0
M  V30 5075 C 503.484 -2.32052 0.259608 0
M  V30 5076 C 504.465 -1.58243 -0.623961 0
M  V30 5077 O 505.65 -1.86224 -0.55083 0
M  V30 5078 C 502.78 -3.42434 -0.579314 0
M  V30 5079 C 501.734 -4.27499 0.20712 0
M  V30 5080 C 501.06 -5.29349 -0.754547 0
M  V30 5081 C 502.36 -5.02758 1.41533 0
M  V30 5082 H 504.054 -2.79418 1.07545 0
M  V30 5083 H 501.6 -1.34338 0.518593 0
M  V30 5084 H 503.553 -4.0976 -0.983612 0
M  V30 5085 H 502.277 -2.93717 -1.4282 0
M  V30 5086 H 500.936 -3.61776 0.592787 0
M  V30 5087 H 500.584 -4.76895 -1.59939 0
M  V30 5088 H 500.284 -5.8714 -0.232561 0
M  V30 5089 H 501.808 -5.99544 -1.1567 0
M  V30 5090 H 503.222 -5.62938 1.08504 0
M  V30 5091 H 501.619 -5.70123 1.87296 0
M  V30 5092 H 502.689 -4.32451 2.1935 0
M  V30 5093 N 504.032 -0.577932 -1.46621 0
M  V30 5094 C 505.279 -0.0616879 -2.02406 0
M  V30 5095 C 505.607 1.29638 -1.44997 0
M  V30 5096 O 504.862 1.86176 -0.60308 0
M  V30 5097 C 505.161 0.0590832 -3.57351 0
M  V30 5098 C 504.827 -1.23077 -4.33777 0
M  V30 5099 C 503.489 -1.58416 -4.54376 0
M  V30 5100 C 505.841 -2.08457 -4.77698 0
M  V30 5101 C 503.169 -2.78943 -5.16147 0
M  V30 5102 C 505.521 -3.28204 -5.408 0
M  V30 5103 C 504.185 -3.63832 -5.59627 0
M  V30 5104 H 503.455 -0.0225732 -0.740656 0
M  V30 5105 H 506.102 -0.753609 -1.76048 0
M  V30 5106 H 504.407 0.834104 -3.82818 0
M  V30 5107 H 506.104 0.474202 -3.98186 0
M  V30 5108 H 502.694 -0.945652 -4.18038 0
M  V30 5109 H 506.878 -1.82459 -4.61544 0
M  V30 5110 H 502.134 -3.06689 -5.28916 0
M  V30 5111 H 506.308 -3.94634 -5.73792 0
M  V30 5112 H 503.935 -4.57315 -6.07262 0
M  V30 5113 N 505.51 1.54411 -0.315457 0
M  V30 5114 C 506.75 2.02329 0.290236 0
M  V30 5115 C 507.114 1.19878 1.49977 0
M  V30 5116 O 508.315 1.57562 2.17779 0
M  V30 5117 C 506.586 3.51912 0.623937 0
M  V30 5118 S 508.145 4.21775 1.21044 0
M  V30 5119 H 504.963 0.705499 0.0882739 0
M  V30 5120 H 507.565 1.90328 -0.446694 0
M  V30 5121 H 506.269 4.09546 -0.264624 0
M  V30 5122 H 505.8 3.67977 1.39128 0
M  V30 5123 H 507.815 4.28757 2.49764 0
M  V30 5124 N 506.988 0.0434614 1.5754 0
M  V30 5125 C 507.936 -0.951465 2.1225 0
M  V30 5126 C 508.93 -1.3274 1.05245 0
M  V30 5127 O 510.136 -1.30795 1.23663 0
M  V30 5128 H 506.511 -0.324667 0.678303 0
M  V30 5129 H 508.482 -0.464855 2.94757 0
M  V30 5130 C 507.231 -2.21972 2.67626 0
M  V30 5131 H 506.554 -1.93923 3.4962 0
M  V30 5132 H 507.994 -2.89765 3.09536 0
M  V30 5133 C 506.453 -2.95919 1.61038 0
M  V30 5134 O 506.983 -3.8857 1.01862 0
M  V30 5135 N 505.189 -2.58511 1.32741 0
M  V30 5136 H 504.736 -1.83244 1.81051 0
M  V30 5137 H 504.694 -3.08296 0.616531 0
M  V30 5138 N 508.466 -1.55915 -0.229846 0
M  V30 5139 C 509.714 -1.7819 -0.953565 0
M  V30 5140 C 510.035 -0.610504 -1.85197 0
M  V30 5141 O 509.305 0.372988 -1.92316 0
M  V30 5142 H 507.885 -0.657208 -0.355087 0
M  V30 5143 H 510.547 -1.9337 -0.243693 0
M  V30 5144 H 509.643 -2.70011 -1.56527 0
M  V30 5145 N 509.944 0.496216 -1.49584 0
M  V30 5146 C 511.169 1.27865 -1.63295 0
M  V30 5147 C 511.594 1.85592 -0.306156 0
M  V30 5148 O 510.952 1.66092 0.726851 0
M  V30 5149 C 511 2.38128 -2.7079 0
M  V30 5150 O 510.104 3.42108 -2.30296 0
M  V30 5151 H 509.445 0.377279 -0.546403 0
M  V30 5152 H 511.975 0.593497 -1.95803 0
M  V30 5153 H 511.985 2.8382 -2.93104 0
M  V30 5154 H 510.66 1.95479 -3.67098 0
M  V30 5155 H 509.237 3.02301 -2.18331 0
M  V30 5156 N 511.423 1.38739 0.74761 0
M  V30 5157 C 512.355 1.32341 1.87132 0
M  V30 5158 C 513.368 0.234502 1.61102 0
M  V30 5159 O 514.557 0.492516 1.71571 0
M  V30 5160 C 511.657 1.02915 3.22896 0
M  V30 5161 C 510.83 2.22834 3.76383 0
M  V30 5162 C 509.889 1.90059 4.90677 0
M  V30 5163 O 508.915 2.62615 5.04997 0
M  V30 5164 N 510.117 0.859141 5.74107 0
M  V30 5165 H 512.882 2.29175 1.93129 0
M  V30 5166 H 510.443 1.32678 0.927805 0
M  V30 5167 H 512.435 0.79031 3.96908 0
M  V30 5168 H 511.005 0.148572 3.12247 0
M  V30 5169 H 510.225 2.62747 2.93867 0
M  V30 5170 H 511.513 3.02851 4.08851 0
M  V30 5171 H 510.911 0.257564 5.65113 0
M  V30 5172 H 509.468 0.680189 6.48241 0
M  V30 5173 N 512.901 -0.976442 1.23707 0
M  V30 5174 C 514.312 -1.53284 1.06587 0
M  V30 5175 C 514.663 -1.92765 -0.365526 0
M  V30 5176 O 513.788 -1.7645 -1.25277 0
M  V30 5177 C 514.383 -2.78548 1.92864 0
M  V30 5178 C 512.942 -3.30574 1.79994 0
M  V30 5179 C 512.089 -2.03538 1.88328 0
M  V30 5180 H 515.04 -0.795692 1.37311 0
M  V30 5181 H 515.061 -3.5155 1.45577 0
M  V30 5182 H 514.573 -2.49782 2.97037 0
M  V30 5183 H 512.674 -3.64211 0.786202 0
M  V30 5184 H 512.787 -4.00065 2.636 0
M  V30 5185 H 511.151 -2.17853 1.31954 0
M  V30 5186 H 511.934 -1.77149 2.94063 0
M  V30 5187 N 514.379 -1.04941 -1.1758 0
M  V30 5188 C 515.604 -0.778253 -1.92245 0
M  V30 5189 C 516.029 0.659707 -1.76152 0
M  V30 5190 O 515.387 1.45803 -1.07755 0
M  V30 5191 C 515.435 -1.16051 -3.41416 0
M  V30 5192 O 514.539 -0.291153 -4.11371 0
M  V30 5193 H 513.88 -0.285619 -0.599431 0
M  V30 5194 H 516.41 -1.40159 -1.49052 0
M  V30 5195 H 516.42 -1.12619 -3.92149 0
M  V30 5196 H 515.095 -2.208 -3.52449 0
M  V30 5197 H 513.672 -0.385851 -3.70898 0
M  V30 5198 N 515.857 1.33968 -0.830081 0
M  V30 5199 C 516.82 2.27694 -0.26235 0
M  V30 5200 C 517.82 1.50589 0.563876 0
M  V30 5201 O 519.01 1.70028 0.378941 0
M  V30 5202 C 516.142 3.35002 0.63138 0
M  V30 5203 H 517.335 2.79419 -1.08928 0
M  V30 5204 H 514.888 1.44221 -0.602486 0
M  V30 5205 H 515.623 2.88504 1.48109 0
M  V30 5206 H 515.408 3.92079 0.0403276 0
M  V30 5207 H 516.898 4.04897 1.02217 0
M  V30 5208 N 517.335 0.585699 1.46312 0
M  V30 5209 C 518.298 -0.135673 2.28798 0
M  V30 5210 C 519.298 -0.815988 1.38558 0
M  V30 5211 O 520.488 -0.667487 1.60904 0
M  V30 5212 C 517.62 -1.20163 3.1902 0
M  V30 5213 H 518.813 0.589257 2.94054 0
M  V30 5214 H 516.366 0.343794 1.52472 0
M  V30 5215 H 517.101 -1.95804 2.58517 0
M  V30 5216 H 516.886 -0.718282 3.85465 0
M  V30 5217 H 518.376 -1.70749 3.81096 0
M  V30 5218 N 518.813 -1.54241 0.323641 0
M  V30 5219 C 520.053 -2.0248 -0.279502 0
M  V30 5220 C 520.417 -1.20672 -1.49339 0
M  V30 5221 O 521.618 -1.58715 -2.1694 0
M  V30 5222 C 519.889 -3.52238 -0.605266 0
M  V30 5223 S 521.448 -4.22411 -1.18805 0
M  V30 5224 H 518.266 -0.705957 -0.0845313 0
M  V30 5225 H 520.868 -1.90089 0.456781 0
M  V30 5226 H 519.572 -4.094 0.286339 0
M  V30 5227 H 519.103 -3.6871 -1.37174 0
M  V30 5228 H 521.118 -4.30075 -2.47487 0
M  V30 5229 N 520.291 -0.0518155 -1.57515 0
M  V30 5230 C 521.568 0.661727 -1.84067 0
M  V30 5231 C 521.948 1.88999 -0.940351 0
M  V30 5232 O 521.296 2.285 -0.00155404 0
M  V30 5233 C 521.506 1.01841 -3.3381 0
M  V30 5234 C 522.854 1.40043 -4.00841 0
M  V30 5235 O 523.878 1.11073 -3.38439 0
M  V30 5236 O 522.737 1.94111 -5.10865 0
M  V30 5237 H 519.831 0.326702 -0.759733 0
M  V30 5238 H 522.377 -0.0812277 -1.69505 0
M  V30 5239 H 521.149 0.145202 -3.91031 0
M  V30 5240 H 520.772 1.81879 -3.53562 0
M  V30 5241 N 521.769 1.56035 0.221574 0
M  V30 5242 C 522.679 1.95581 1.29558 0
M  V30 5243 C 523.695 0.859639 1.51282 0
M  V30 5244 O 524.871 1.16321 1.64413 0
M  V30 5245 C 521.936 2.26447 2.62531 0
M  V30 5246 C 520.997 3.49632 2.4911 0
M  V30 5247 C 520.23 3.79017 3.75742 0
M  V30 5248 O 520.453 3.10077 4.78757 0
M  V30 5249 O 519.387 4.72507 3.72855 0
M  V30 5250 H 523.213 2.8711 0.990035 0
M  V30 5251 H 520.798 1.43244 0.424434 0
M  V30 5252 H 522.68 2.47494 3.41064 0
M  V30 5253 H 521.355 1.38092 2.92766 0
M  V30 5254 H 520.262 3.33864 1.68777 0
M  V30 5255 H 521.595 4.3837 2.23814 0
M  V30 5256 N 523.247 -0.488276 1.49845 0
M  V30 5257 C 524.477 -1.26344 1.63465 0
M  V30 5258 C 524.885 -1.86637 0.310379 0
M  V30 5259 O 524.228 -1.69184 -0.715712 0
M  V30 5260 C 524.29 -2.42407 2.65479 0
M  V30 5261 C 523.954 -2.02886 4.09495 0
M  V30 5262 C 524.951 -1.56124 4.95904 0
M  V30 5263 C 522.636 -2.12131 4.55308 0
M  V30 5264 C 524.63 -1.19129 6.26169 0
M  V30 5265 C 522.317 -1.74747 5.85582 0
M  V30 5266 C 523.315 -1.28322 6.70837 0
M  V30 5267 O 523.003 -0.914491 7.98682 0
M  V30 5268 H 522.735 -0.388921 0.552916 0
M  V30 5269 H 525.289 -0.591288 1.96705 0
M  V30 5270 H 523.519 -3.12739 2.27445 0
M  V30 5271 H 525.208 -3.04409 2.68495 0
M  V30 5272 H 525.974 -1.48417 4.61733 0
M  V30 5273 H 521.853 -2.47217 3.89107 0
M  V30 5274 H 525.397 -0.828211 6.92666 0
M  V30 5275 H 521.294 -1.82109 6.19279 0
M  V30 5276 H 522.062 -1.04485 8.11804 0
M  V30 5277 N 524.725 -1.39134 -0.740242 0
M  V30 5278 C 525.972 -1.36071 -1.49969 0
M  V30 5279 C 526.3 0.0450245 -1.94448 0
M  V30 5280 O 525.555 1.02482 -1.66721 0
M  V30 5281 C 525.854 -2.27457 -2.75678 0
M  V30 5282 C 525.52 -3.75185 -2.50094 0
M  V30 5283 C 524.182 -4.15439 -2.42825 0
M  V30 5284 C 526.534 -4.68643 -2.28086 0
M  V30 5285 C 523.862 -5.4722 -2.11584 0
M  V30 5286 C 526.214 -6.00695 -1.98363 0
M  V30 5287 C 524.878 -6.40018 -1.8956 0
M  V30 5288 H 524.148 -0.497921 -0.548777 0
M  V30 5289 H 526.795 -1.71599 -0.85007 0
M  V30 5290 H 525.1 -1.8503 -3.45356 0
M  V30 5291 H 526.797 -2.22384 -3.33686 0
M  V30 5292 H 523.387 -3.43279 -2.56627 0
M  V30 5293 H 527.571 -4.3838 -2.32672 0
M  V30 5294 H 522.827 -5.76615 -2.03287 0
M  V30 5295 H 527.001 -6.72644 -1.80341 0
M  V30 5296 H 524.628 -7.42051 -1.65117 0
M  V30 5297 N 526.204 0.969867 -1.24223 0
M  V30 5298 C 527.453 1.70687 -1.07466 0
M  V30 5299 C 527.766 1.91736 0.386861 0
M  V30 5300 O 528.972 2.62986 0.674581 0
M  V30 5301 C 527.428 3.07217 -1.87472 0
M  V30 5302 C 527.036 2.94018 -3.3802 0
M  V30 5303 C 528.78 3.84804 -1.79237 0
M  V30 5304 C 526.687 4.25844 -4.10379 0
M  V30 5305 H 525.617 0.640067 -0.398536 0
M  V30 5306 H 528.268 1.08092 -1.48285 0
M  V30 5307 H 526.65 3.70628 -1.39466 0
M  V30 5308 H 527.824 2.39632 -3.9359 0
M  V30 5309 H 526.139 2.29898 -3.47183 0
M  V30 5310 H 528.736 4.82417 -2.30603 0
M  V30 5311 H 529.079 4.09356 -0.757197 0
M  V30 5312 H 529.612 3.28115 -2.24912 0
M  V30 5313 H 526.351 4.06486 -5.14246 0
M  V30 5314 H 525.871 4.80054 -3.59594 0
M  V30 5315 H 527.55 4.94475 -4.17257 0
M  V30 5316 N 527.682 1.05563 1.17022 0
M  V30 5317 C 528.614 0.617888 2.20714 0
M  V30 5318 C 529.627 -0.320303 1.59618 0
M  V30 5319 O 530.816 -0.112449 1.78145 0
M  V30 5320 C 527.916 -0.115333 3.38704 0
M  V30 5321 C 527.089 0.834493 4.29366 0
M  V30 5322 C 526.148 0.141855 5.26009 0
M  V30 5323 O 525.174 0.777151 5.6387 0
M  V30 5324 N 526.376 -1.11934 5.69606 0
M  V30 5325 H 529.141 1.50981 2.58892 0
M  V30 5326 H 526.702 0.938008 1.31958 0
M  V30 5327 H 528.694 -0.588918 4.00392 0
M  V30 5328 H 527.264 -0.908967 2.99093 0
M  V30 5329 H 526.484 1.48762 3.65053 0
M  V30 5330 H 527.772 1.4791 4.86827 0
M  V30 5331 H 527.17 -1.65574 5.40927 0
M  V30 5332 H 525.727 -1.53692 6.33421 0
M  V30 5333 N 529.16 -1.33526 0.837174 0
M  V30 5334 C 530.108 -2.31168 0.257698 0
M  V30 5335 C 531.102 -1.5806 -0.609388 0
M  V30 5336 O 532.308 -1.72941 -0.499139 0
M  V30 5337 H 528.683 -0.74922 0.0646058 0
M  V30 5338 H 530.654 -2.77552 1.09578 0
M  V30 5339 C 529.403 -3.4326 -0.553887 0
M  V30 5340 H 528.726 -3.99665 0.104008 0
M  V30 5341 H 530.166 -4.13782 -0.925219 0
M  V30 5342 C 528.625 -2.88965 -1.73207 0
M  V30 5343 O 529.155 -2.85013 -2.83073 0
M  V30 5344 N 527.361 -2.45596 -1.55342 0
M  V30 5345 H 526.908 -2.49009 -0.659705 0
M  V30 5346 H 526.866 -2.0962 -2.34322 0
M  V30 5347 N 530.638 -0.59345 -1.46 0
M  V30 5348 C 531.586 0.146268 -2.3214 0
M  V30 5349 C 532.58 0.873743 -1.45128 0
M  V30 5350 O 533.786 0.790912 -1.61693 0
M  V30 5351 H 530.161 0.0660349 -0.749095 0
M  V30 5352 H 532.132 -0.598895 -2.92328 0
M  V30 5353 C 530.881 1.1396 -3.28494 0
M  V30 5354 H 530.204 0.589252 -3.95434 0
M  V30 5355 H 531.644 1.62738 -3.91526 0
M  V30 5356 C 530.103 2.20604 -2.54628 0
M  V30 5357 O 530.633 3.28128 -2.31722 0
M  V30 5358 N 528.839 1.95502 -2.15005 0
M  V30 5359 H 528.386 1.0807 -2.33834 0
M  V30 5360 H 528.344 2.67064 -1.65904 0
M  V30 5361 N 532.116 1.54067 -0.331816 0
M  V30 5362 C 533.362 2.01012 0.268667 0
M  V30 5363 C 533.695 1.2195 1.51136 0
M  V30 5364 O 532.97 0.303972 1.9211 0
M  V30 5365 C 533.253 3.55158 0.59456 0
M  V30 5366 C 533.106 4.4494 -0.659409 0
M  V30 5367 C 534.425 4.16939 1.4089 0
M  V30 5368 H 531.544 0.730698 0.0961756 0
M  V30 5369 H 534.186 1.84593 -0.450031 0
M  V30 5370 H 532.336 3.6928 1.20685 0
M  V30 5371 H 534.008 4.42675 -1.29756 0
M  V30 5372 H 532.251 4.1428 -1.28665 0
M  V30 5373 H 532.922 5.50643 -0.386804 0
M  V30 5374 H 535.398 4.06443 0.891272 0
M  V30 5375 H 534.274 5.24889 1.60569 0
M  V30 5376 H 534.535 3.70798 2.40752 0
M  V30 5377 N 533.594 0.0601682 1.57485 0
M  V30 5378 C 534.822 -0.620937 1.97363 0
M  V30 5379 C 535.237 -1.63846 0.938082 0
M  V30 5380 O 534.594 -1.82339 -0.0766578 0
M  V30 5381 C 534.645 -1.29987 3.37321 0
M  V30 5382 O 534.366 -0.323081 4.36907 0
M  V30 5383 C 535.867 -2.06989 3.92008 0
M  V30 5384 H 533.087 -0.169135 0.649334 0
M  V30 5385 H 535.631 0.129132 2.04092 0
M  V30 5386 H 533.786 -2.0011 3.31715 0
M  V30 5387 H 534.2 -0.808754 5.18227 0
M  V30 5388 H 535.674 -2.49901 4.92192 0
M  V30 5389 H 536.151 -2.92173 3.2792 0
M  V30 5390 H 536.757 -1.41757 4.0098 0
M  V30 5391 N 535.072 -1.5615 -0.213296 0
M  V30 5392 C 535.982 -1.96265 -1.28519 0
M  V30 5393 C 536.998 -0.86765 -1.50824 0
M  V30 5394 O 538.174 -1.17191 -1.63793 0
M  V30 5395 C 535.239 -2.27836 -2.61327 0
M  V30 5396 C 534.3 -3.50949 -2.47252 0
M  V30 5397 C 533.533 -3.81004 -3.73727 0
M  V30 5398 O 533.756 -3.12612 -4.77106 0
M  V30 5399 O 532.69 -4.74477 -3.70344 0
M  V30 5400 H 536.516 -2.87631 -0.974795 0
M  V30 5401 H 534.101 -1.43467 -0.416832 0
M  V30 5402 H 535.983 -2.49299 -3.39747 0
M  V30 5403 H 534.658 -1.39643 -2.9203 0
M  V30 5404 H 533.565 -3.34754 -1.67004 0
M  V30 5405 H 534.898 -4.39551 -2.21486 0
M  V30 5406 N 536.55 0.480323 -1.50102 0
M  V30 5407 C 537.799 1.22979 -1.59872 0
M  V30 5408 C 538.112 1.93282 -0.30022 0
M  V30 5409 O 539.318 2.70086 -0.276709 0
M  V30 5410 C 537.774 2.23408 -2.82164 0
M  V30 5411 C 537.382 1.5895 -4.18854 0
M  V30 5412 C 539.126 2.99055 -3.01275 0
M  V30 5413 C 537.033 2.57611 -5.32344 0
M  V30 5414 H 535.963 0.462707 -0.59533 0
M  V30 5415 H 538.614 0.501291 -1.7652 0
M  V30 5416 H 536.996 2.99511 -2.59055 0
M  V30 5417 H 538.17 0.887 -4.52182 0
M  V30 5418 H 536.485 0.956191 -4.05273 0
M  V30 5419 H 539.082 3.72876 -3.83233 0
M  V30 5420 H 539.425 3.57897 -2.12639 0
M  V30 5421 H 539.958 2.30066 -3.24522 0
M  V30 5422 H 536.697 2.03521 -6.23105 0
M  V30 5423 H 536.217 3.26041 -5.03445 0
M  V30 5424 H 537.896 3.19627 -5.62537 0
M  V30 5425 N 538.028 1.39524 0.732853 0
M  V30 5426 C 538.96 1.34318 1.85718 0
M  V30 5427 C 539.973 0.251576 1.60844 0
M  V30 5428 O 541.162 0.510685 1.71039 0
M  V30 5429 C 538.262 1.06334 3.21786 0
M  V30 5430 C 537.435 2.26813 3.73998 0
M  V30 5431 C 536.494 1.95253 4.88634 0
M  V30 5432 O 535.52 2.67957 5.02183 0
M  V30 5433 N 536.722 0.919984 5.73164 0
M  V30 5434 H 539.487 2.3121 1.90688 0
M  V30 5435 H 537.048 1.33654 0.91368 0
M  V30 5436 H 539.04 0.832363 3.96048 0
M  V30 5437 H 537.61 0.181682 3.12072 0
M  V30 5438 H 536.83 2.65849 2.91064 0
M  V30 5439 H 538.118 3.0717 4.05616 0
M  V30 5440 H 537.516 0.317487 5.64808 0
M  V30 5441 H 536.073 0.748905 6.47483 0
M  V30 5442 N 539.506 -0.963266 1.24736 0
M  V30 5443 C 540.754 -1.70343 1.08755 0
M  V30 5444 C 541.075 -1.91387 -0.373619 0
M  V30 5445 O 540.345 -1.4948 -1.2662 0
M  V30 5446 H 538.925 -0.631224 0.399456 0
M  V30 5447 H 541.587 -1.15859 1.56725 0
M  V30 5448 H 540.683 -2.68616 1.58909 0
M  V30 5449 N 540.985 -1.06182 -1.16461 0
M  V30 5450 C 542.234 -0.772927 -1.86303 0
M  V30 5451 C 542.547 0.703187 -1.82523 0
M  V30 5452 O 543.753 1.10641 -2.47933 0
M  V30 5453 C 542.209 -1.33249 -3.34324 0
M  V30 5454 C 541.817 -2.83876 -3.46581 0
M  V30 5455 C 543.561 -1.12108 -4.09429 0
M  V30 5456 C 541.468 -3.33082 -4.88682 0
M  V30 5457 H 540.398 -0.285452 -0.697878 0
M  V30 5458 H 543.049 -1.28039 -1.31447 0
M  V30 5459 H 541.431 -0.7528 -3.88779 0
M  V30 5460 H 542.605 -3.47786 -3.02293 0
M  V30 5461 H 540.92 -3.03671 -2.84909 0
M  V30 5462 H 543.517 -1.46361 -5.14279 0
M  V30 5463 H 543.86 -0.0593832 -4.16258 0
M  V30 5464 H 544.393 -1.6665 -3.6121 0
M  V30 5465 H 541.132 -4.38726 -4.87032 0
M  V30 5466 H 540.652 -2.73919 -5.33599 0
M  V30 5467 H 542.331 -3.28344 -5.57494 0
M  V30 5468 N 542.463 1.3308 -0.844243 0
M  V30 5469 C 543.874 1.7992 -0.498566 0
M  V30 5470 C 544.225 1.69808 0.982834 0
M  V30 5471 O 543.35 1.25051 1.7661 0
M  V30 5472 C 543.945 3.26677 -0.898204 0
M  V30 5473 C 542.504 3.71513 -0.604583 0
M  V30 5474 C 541.651 2.54393 -1.10362 0
M  V30 5475 H 544.602 1.20526 -1.03244 0
M  V30 5476 H 544.623 3.79918 -0.21039 0
M  V30 5477 H 544.135 3.34004 -1.97643 0
M  V30 5478 H 542.236 3.69708 0.46335 0
M  V30 5479 H 542.349 4.64755 -1.16358 0
M  V30 5480 H 540.713 2.49246 -0.524273 0
M  V30 5481 H 541.496 2.6448 -2.18873 0
M  V30 5482 N 543.941 0.601185 1.45683 0
M  V30 5483 C 545.189 0.0936957 2.01883 0
M  V30 5484 C 545.51 -1.2779 1.47291 0
M  V30 5485 O 544.78 -1.84279 0.664691 0
M  V30 5486 H 543.36 0.0316466 0.746329 0
M  V30 5487 H 546.022 0.781137 1.78562 0
M  V30 5488 H 545.118 0.0386297 3.12076 0
M  V30 5489 N 545.419 -1.53889 0.339982 0
M  V30 5490 C 546.382 -2.23547 -0.50592 0
M  V30 5491 C 547.382 -1.23445 -1.03044 0
M  V30 5492 O 548.572 -1.47909 -0.920253 0
M  V30 5493 C 545.704 -2.95234 -1.7044 0
M  V30 5494 H 546.897 -2.99722 0.103247 0
M  V30 5495 H 544.45 -1.56033 0.0912804 0
M  V30 5496 H 545.185 -2.23236 -2.35236 0
M  V30 5497 H 544.97 -3.68654 -1.33553 0
M  V30 5498 H 546.46 -3.48258 -2.30447 0
M  V30 5499 N 546.897 -0.0685191 -1.57451 0
M  V30 5500 C 547.86 0.885173 -2.11417 0
M  V30 5501 C 548.86 1.22853 -1.03748 0
M  V30 5502 O 550.05 1.16235 -1.2975 0
M  V30 5503 C 547.182 2.18964 -2.61281 0
M  V30 5504 H 548.375 0.417034 -2.96986 0
M  V30 5505 H 545.928 0.18014 -1.55258 0
M  V30 5506 H 546.663 2.70321 -1.79156 0
M  V30 5507 H 546.448 1.9534 -3.39977 0
M  V30 5508 H 547.938 2.87242 -3.0312 0
M  V30 5509 N 548.375 1.56261 0.205012 0
M  V30 5510 C 549.6 1.84491 0.947512 0
M  V30 5511 C 550.025 0.650894 1.76479 0
M  V30 5512 O 549.383 -0.40035 1.76824 0
M  V30 5513 C 549.431 3.10863 1.82747 0
M  V30 5514 O 548.535 2.90719 2.925 0
M  V30 5515 H 547.876 0.607783 0.267386 0
M  V30 5516 H 550.406 2.03485 0.213323 0
M  V30 5517 H 550.416 3.41399 2.23407 0
M  V30 5518 H 549.091 3.97392 1.2269 0
M  V30 5519 H 547.668 2.71457 2.55667 0
M  V30 5520 N 549.853 -0.472356 1.50355 0
M  V30 5521 C 551.101 -1.22211 1.60962 0
M  V30 5522 C 551.422 -1.92497 0.311439 0
M  V30 5523 O 550.692 -1.8405 -0.671002 0
M  V30 5524 H 549.272 -0.454092 0.593135 0
M  V30 5525 H 551.934 -0.544977 1.87126 0
M  V30 5526 H 551.03 -1.9707 2.42012 0
M  V30 5527 N 551.331 -1.39911 -0.725443 0
M  V30 5528 C 552.577 -1.37858 -1.48738 0
M  V30 5529 C 552.91 0.0224187 -1.94187 0
M  V30 5530 O 552.185 0.989204 -1.67466 0
M  V30 5531 C 552.468 -2.3594 -2.72038 0
M  V30 5532 C 552.321 -3.85023 -2.32546 0
M  V30 5533 C 553.64 -2.31704 -3.74167 0
M  V30 5534 H 550.759 -0.502074 -0.539528 0
M  V30 5535 H 553.401 -1.70974 -0.828728 0
M  V30 5536 H 551.551 -2.0783 -3.28236 0
M  V30 5537 H 553.223 -4.2392 -1.81905 0
M  V30 5538 H 551.466 -4.01334 -1.64661 0
M  V30 5539 H 552.137 -4.49152 -3.20884 0
M  V30 5540 H 554.613 -2.5658 -3.27576 0
M  V30 5541 H 553.489 -3.02395 -4.58092 0
M  V30 5542 H 553.75 -1.3253 -4.21768 0
M  V30 5543 N 552.809 0.956637 -1.25245 0
M  V30 5544 C 554.056 1.701 -1.09874 0
M  V30 5545 C 554.384 1.91128 0.36062 0
M  V30 5546 O 553.639 1.47837 1.28229 0
M  V30 5547 C 553.938 3.08996 -1.79601 0
M  V30 5548 C 553.604 3.07774 -3.29523 0
M  V30 5549 C 552.266 3.07149 -3.70423 0
M  V30 5550 C 554.618 3.01257 -4.25316 0
M  V30 5551 C 551.946 2.97752 -5.0553 0
M  V30 5552 C 554.298 2.93403 -5.60444 0
M  V30 5553 C 552.962 2.91111 -6.00675 0
M  V30 5554 H 552.232 0.62244 -0.402056 0
M  V30 5555 H 554.879 1.1178 -1.55491 0
M  V30 5556 H 553.184 3.70848 -1.26408 0
M  V30 5557 H 554.881 3.65407 -1.65162 0
M  V30 5558 H 551.471 3.09032 -2.9698 0
M  V30 5559 H 555.655 3.00861 -3.9471 0
M  V30 5560 H 550.911 2.94346 -5.35883 0
M  V30 5561 H 555.085 2.87321 -6.34366 0
M  V30 5562 H 552.712 2.83586 -7.05325 0
M  V30 5563 N 554.287 1.06798 1.15896 0
M  V30 5564 C 555.217 0.704677 2.22613 0
M  V30 5565 C 556.198 -0.305252 1.67339 0
M  V30 5566 O 557.383 -0.179247 1.93371 0
M  V30 5567 C 554.513 0.0957325 3.47168 0
M  V30 5568 C 553.467 1.0322 4.15367 0
M  V30 5569 C 552.793 0.286293 5.33933 0
M  V30 5570 C 554.093 2.36341 4.65768 0
M  V30 5571 H 555.787 1.59688 2.53259 0
M  V30 5572 H 553.333 0.769257 1.21731 0
M  V30 5573 H 555.286 -0.170333 4.21056 0
M  V30 5574 H 554.01 -0.831516 3.15838 0
M  V30 5575 H 552.669 1.28309 3.43413 0
M  V30 5576 H 552.317 -0.644237 4.98857 0
M  V30 5577 H 552.017 0.910436 5.80504 0
M  V30 5578 H 553.541 0.0278938 6.10594 0
M  V30 5579 H 554.955 2.1561 5.31211 0
M  V30 5580 H 553.352 2.94299 5.2298 0
M  V30 5581 H 554.422 2.99047 3.81705 0
M  V30 5582 N 555.766 -1.3263 0.851289 0
M  V30 5583 C 556.676 -2.32722 0.296268 0
M  V30 5584 C 557.692 -1.63901 -0.584162 0
M  V30 5585 O 558.868 -1.95465 -0.485334 0
M  V30 5586 C 555.933 -3.42942 -0.509103 0
M  V30 5587 C 554.994 -4.2746 0.397069 0
M  V30 5588 C 554.227 -5.32416 -0.36996 0
M  V30 5589 O 554.45 -5.47491 -1.6003 0
M  V30 5590 O 553.384 -6.01327 0.262493 0
M  V30 5591 H 557.21 -2.82078 1.12543 0
M  V30 5592 H 554.795 -1.36194 0.614135 0
M  V30 5593 H 556.677 -4.1017 -0.96634 0
M  V30 5594 H 555.352 -2.95781 -1.31512 0
M  V30 5595 H 554.259 -3.63053 0.902411 0
M  V30 5596 H 555.592 -4.78136 1.16818 0
M  V30 5597 N 557.244 -0.608902 -1.45362 0
M  V30 5598 C 558.192 0.121639 -2.32282 0
M  V30 5599 C 559.186 0.858301 -1.46046 0
M  V30 5600 O 560.392 0.773718 -1.62523 0
M  V30 5601 H 556.767 0.058086 -0.749753 0
M  V30 5602 H 558.738 -0.629866 -2.91677 0
M  V30 5603 C 557.487 1.1047 -3.29684 0
M  V30 5604 H 556.81 0.547278 -3.96036 0
M  V30 5605 H 558.25 1.58576 -3.9323 0
M  V30 5606 C 556.709 2.17891 -2.56954 0
M  V30 5607 O 557.239 3.25652 -2.35189 0
M  V30 5608 N 555.445 1.93211 -2.17066 0
M  V30 5609 H 554.992 1.05584 -2.34967 0
M  V30 5610 H 554.95 2.6529 -1.68727 0
M  V30 5611 N 558.722 1.53707 -0.348139 0
M  V30 5612 C 559.652 2.28111 0.498766 0
M  V30 5613 C 560.633 1.29851 1.09876 0
M  V30 5614 O 561.818 1.587 1.11928 0
M  V30 5615 C 558.948 3.05735 1.64753 0
M  V30 5616 C 557.902 4.11537 1.17565 0
M  V30 5617 C 557.228 4.77142 2.4133 0
M  V30 5618 C 558.528 5.21587 0.272844 0
M  V30 5619 H 560.222 2.99152 -0.121934 0
M  V30 5620 H 557.768 1.43875 -0.0600842 0
M  V30 5621 H 559.721 3.56526 2.24649 0
M  V30 5622 H 558.445 2.32354 2.2952 0
M  V30 5623 H 557.104 3.61665 0.599483 0
M  V30 5624 H 556.752 4.0035 3.04514 0
M  V30 5625 H 556.452 5.48626 2.10436 0
M  V30 5626 H 557.976 5.30719 3.01943 0
M  V30 5627 H 559.39 5.67986 0.778779 0
M  V30 5628 H 557.787 6.00074 0.0555849 0
M  V30 5629 H 558.857 4.79969 -0.689785 0
M  V30 5630 N 560.2 0.0768682 1.57412 0
M  V30 5631 C 561.446 -0.585926 1.94778 0
M  V30 5632 C 561.801 -1.66912 0.956982 0
M  V30 5633 O 561.094 -1.9159 -0.0199454 0
M  V30 5634 C 561.288 -1.20268 3.36557 0
M  V30 5635 C 561.117 -0.18076 4.49337 0
M  V30 5636 C 559.887 0.236362 5.04747 0
M  V30 5637 C 562.085 0.583978 5.10974 0
M  V30 5638 N 560.067 1.24846 6.01071 0
M  V30 5639 C 561.438 1.44841 6.02844 0
M  V30 5640 C 563.493 0.639492 4.93776 0
M  V30 5641 C 562.196 2.36343 6.79363 0
M  V30 5642 C 564.222 1.54204 5.70942 0
M  V30 5643 C 563.584 2.39414 6.62465 0
M  V30 5644 H 559.683 -0.185281 0.759734 0
M  V30 5645 H 562.267 0.155193 1.9408 0
M  V30 5646 H 560.438 -1.9137 3.37982 0
M  V30 5647 H 562.17 -1.82636 3.61146 0
M  V30 5648 H 558.925 -0.14777 4.73369 0
M  V30 5649 H 559.349 1.75217 6.53933 0
M  V30 5650 H 563.991 -0.00510074 4.228 0
M  V30 5651 H 561.709 3.01836 7.49614 0
M  V30 5652 H 565.295 1.5899 5.59655 0
M  V30 5653 H 564.175 3.0812 7.21132 0
M  V30 5654 N 561.678 -1.56367 -0.196722 0
M  V30 5655 C 562.903 -1.84991 -0.937714 0
M  V30 5656 C 563.328 -0.660244 -1.76132 0
M  V30 5657 O 562.686 0.390967 -1.77034 0
M  V30 5658 C 562.734 -3.11828 -1.81096 0
M  V30 5659 O 561.838 -2.92266 -2.90955 0
M  V30 5660 H 561.179 -0.609193 -0.264159 0
M  V30 5661 H 563.709 -2.03595 -0.202529 0
M  V30 5662 H 563.719 -3.42579 -2.21594 0
M  V30 5663 H 562.394 -3.98037 -1.2058 0
M  V30 5664 H 560.971 -2.72809 -2.54224 0
M  V30 5665 N 563.156 0.464375 -1.50603 0
M  V30 5666 C 564.384 1.23907 -1.65695 0
M  V30 5667 C 564.799 1.85658 -0.343027 0
M  V30 5668 O 564.156 1.69529 0.675739 0
M  V30 5669 C 564.207 2.3429 -2.75301 0
M  V30 5670 O 563.928 1.7507 -4.01599 0
M  V30 5671 C 565.429 3.25051 -3.01424 0
M  V30 5672 H 562.649 0.374485 -0.556778 0
M  V30 5673 H 565.193 0.55353 -1.96866 0
M  V30 5674 H 563.348 2.98607 -2.46804 0
M  V30 5675 H 563.762 2.47812 -4.62266 0
M  V30 5676 H 565.236 3.98699 -3.81763 0
M  V30 5677 H 565.713 3.84227 -2.12758 0
M  V30 5678 H 566.319 2.66463 -3.31477 0
M  V30 5679 N 564.634 1.40294 0.718013 0
M  V30 5680 C 565.864 1.41544 1.50495 0
M  V30 5681 C 566.272 0.0127877 1.89196 0
M  V30 5682 O 565.615 -0.97305 1.55812 0
M  V30 5683 C 565.677 2.24021 2.81167 0
M  V30 5684 C 565.341 3.72463 2.64803 0
M  V30 5685 C 566.338 4.65154 2.32223 0
M  V30 5686 C 564.023 4.1625 2.81143 0
M  V30 5687 C 566.017 5.99618 2.16189 0
M  V30 5688 C 563.704 5.50784 2.64727 0
M  V30 5689 C 564.702 6.42283 2.32297 0
M  V30 5690 O 564.39 7.74337 2.16004 0
M  V30 5691 H 564.122 0.484819 0.471091 0
M  V30 5692 H 566.676 1.84948 0.893488 0
M  V30 5693 H 564.906 1.75393 3.44636 0
M  V30 5694 H 566.595 2.17243 3.42871 0
M  V30 5695 H 567.361 4.32622 2.19234 0
M  V30 5696 H 563.24 3.45352 3.05373 0
M  V30 5697 H 566.784 6.71 1.90799 0
M  V30 5698 H 562.681 5.82902 2.773 0
M  V30 5699 H 563.449 7.85244 2.30942 0
M  V30 5700 N 566.112 -0.949982 1.2575 0
M  V30 5701 C 567.075 -2.02894 1.06615 0
M  V30 5702 C 568.075 -1.60791 0.0173905 0
M  V30 5703 O 569.265 -1.72249 0.260003 0
M  V30 5704 C 566.397 -3.35219 0.619751 0
M  V30 5705 H 567.59 -2.21302 2.02399 0
M  V30 5706 H 565.143 -1.12772 1.08223 0
M  V30 5707 H 565.878 -3.22508 -0.340486 0
M  V30 5708 H 565.663 -3.67129 1.37692 0
M  V30 5709 H 567.153 -4.14505 0.507443 0
M  V30 5710 N 567.59 -1.07411 -1.15328 0
M  V30 5711 C 568.54 -0.664788 -2.18093 0
M  V30 5712 C 569.524 0.310395 -1.57878 0
M  V30 5713 O 570.716 0.124026 -1.76565 0
M  V30 5714 C 567.845 -0.0647822 -3.43239 0
M  V30 5715 C 566.931 -1.06514 -4.10506 0
M  V30 5716 N 567.322 -2.24491 -4.53252 0
M  V30 5717 C 565.62 -0.898613 -4.36853 0
M  V30 5718 C 566.321 -2.8796 -5.05424 0
M  V30 5719 N 565.297 -2.15622 -4.99007 0
M  V30 5720 H 569.099 -1.56333 -2.48872 0
M  V30 5721 H 566.613 -0.947393 -1.31902 0
M  V30 5722 H 568.61 0.246363 -4.16171 0
M  V30 5723 H 567.27 0.828866 -3.13943 0
M  V30 5724 H 568.281 -2.62205 -4.46619 0
M  V30 5725 H 564.958 -0.0579118 -4.1746 0
M  V30 5726 H 566.348 -3.88137 -5.48452 0
M  V30 5727 N 569.068 1.32177 -0.85831 0
M  V30 5728 C 570.031 2.27086 -0.310588 0
M  V30 5729 C 571.031 1.51751 0.531806 0
M  V30 5730 O 572.221 1.70794 0.34279 0
M  V30 5731 C 569.353 3.36266 0.560179 0
M  V30 5732 H 570.546 2.77045 -1.1483 0
M  V30 5733 H 568.099 1.42911 -0.632942 0
M  V30 5734 H 568.834 2.9158 1.41956 0
M  V30 5735 H 568.619 3.92077 -0.0428473 0
M  V30 5736 H 570.109 4.06974 0.936056 0
M  V30 5737 N 570.547 0.616602 1.45037 0
M  V30 5738 C 571.795 0.115103 2.01772 0
M  V30 5739 C 572.116 -1.2622 1.48639 0
M  V30 5740 O 571.386 -1.83563 0.684199 0
M  V30 5741 H 569.966 0.0395607 0.745952 0
M  V30 5742 H 572.628 0.800032 1.77723 0
M  V30 5743 H 571.724 0.0717274 3.12018 0
M  V30 5744 N 572.025 -1.5352 0.356285 0
M  V30 5745 C 572.988 -2.24071 -0.482182 0
M  V30 5746 C 573.988 -1.24531 -1.01729 0
M  V30 5747 O 575.178 -1.48876 -0.904513 0
M  V30 5748 C 572.31 -2.97025 -1.67299 0
M  V30 5749 H 573.503 -2.99596 0.135031 0
M  V30 5750 H 571.056 -1.55928 0.107825 0
M  V30 5751 H 571.791 -2.25719 -2.32855 0
M  V30 5752 H 571.576 -3.7005 -1.29636 0
M  V30 5753 H 573.066 -3.50683 -2.26741 0
M  V30 5754 N 573.503 -0.0852151 -1.57369 0
M  V30 5755 C 574.75 0.580806 -1.93992 0
M  V30 5756 C 575.078 1.68801 -0.966252 0
M  V30 5757 O 574.333 1.95694 0.0158649 0
M  V30 5758 C 574.632 1.18482 -3.3719 0
M  V30 5759 C 574.298 0.2024 -4.50446 0
M  V30 5760 C 572.96 -0.0678318 -4.81152 0
M  V30 5761 C 575.312 -0.46895 -5.19086 0
M  V30 5762 C 572.64 -1.01627 -5.77831 0
M  V30 5763 C 574.992 -1.4058 -6.16782 0
M  V30 5764 C 573.656 -1.68436 -6.45899 0
M  V30 5765 H 572.926 0.212532 -0.709867 0
M  V30 5766 H 575.573 -0.158947 -1.90839 0
M  V30 5767 H 573.878 2.0006 -3.36873 0
M  V30 5768 H 575.575 1.70767 -3.62822 0
M  V30 5769 H 572.165 0.423208 -4.26505 0
M  V30 5770 H 576.349 -0.273307 -4.95547 0
M  V30 5771 H 571.605 -1.2392 -5.9871 0
M  V30 5772 H 575.779 -1.93188 -6.69068 0
M  V30 5773 H 573.406 -2.42088 -7.20623 0
M  V30 5774 N 574.981 1.5647 0.188427 0
M  V30 5775 C 576.227 1.81281 0.909124 0
M  V30 5776 C 576.56 0.66034 1.82628 0
M  V30 5777 O 575.835 -0.338737 1.91528 0
M  V30 5778 C 576.118 3.16388 1.7196 0
M  V30 5779 C 575.971 4.42137 0.826714 0
M  V30 5780 C 577.29 3.48256 2.69083 0
M  V30 5781 H 574.409 0.659457 0.329068 0
M  V30 5782 H 577.051 1.89182 0.176156 0
M  V30 5783 H 575.201 3.09784 2.34448 0
M  V30 5784 H 576.873 4.60794 0.216025 0
M  V30 5785 H 575.116 4.33594 0.133792 0
M  V30 5786 H 575.787 5.33184 1.42893 0
M  V30 5787 H 578.263 3.55203 2.16726 0
M  V30 5788 H 577.139 4.43899 3.2287 0
M  V30 5789 H 577.4 2.72088 3.48455 0
M  V30 5790 N 576.459 -0.456382 1.50847 0
M  V30 5791 C 577.369 -1.57805 1.73594 0
M  V30 5792 C 578.385 -1.62599 0.619476 0
M  V30 5793 O 579.561 -1.80195 0.899532 0
M  V30 5794 C 576.626 -2.93926 1.8387 0
M  V30 5795 C 575.687 -2.99402 3.07663 0
M  V30 5796 C 574.92 -4.29031 3.1744 0
M  V30 5797 O 575.143 -5.20358 2.33631 0
M  V30 5798 O 574.077 -4.40401 4.10281 0
M  V30 5799 H 577.903 -1.41531 2.68705 0
M  V30 5800 H 575.488 -0.637422 1.3512 0
M  V30 5801 H 577.37 -3.74747 1.92725 0
M  V30 5802 H 576.045 -3.10368 0.91944 0
M  V30 5803 H 574.952 -2.17606 3.043 0
M  V30 5804 H 576.285 -2.87901 3.99216 0
M  V30 5805 N 577.937 -1.40673 -0.710563 0
M  V30 5806 C 578.884 -1.41336 -1.82463 0
M  V30 5807 C 579.854 -0.269648 -1.63897 0
M  V30 5808 O 581.039 -0.468463 -1.8496 0
M  V30 5809 C 578.179 -1.28665 -3.20218 0
M  V30 5810 C 577.292 -2.52784 -3.5032 0
M  V30 5811 C 576.427 -2.32517 -4.77608 0
M  V30 5812 C 575.466 -3.52187 -5.0063 0
M  V30 5813 N 574.603 -3.31084 -6.19135 0
M  V30 5814 H 579.443 -2.36558 -1.8123 0
M  V30 5815 H 576.98 -1.17483 -0.885226 0
M  V30 5816 H 578.938 -1.19324 -3.99772 0
M  V30 5817 H 577.568 -0.370602 -3.20666 0
M  V30 5818 H 576.62 -2.72634 -2.65283 0
M  V30 5819 H 577.932 -3.41845 -3.63241 0
M  V30 5820 H 577.086 -2.20558 -5.65189 0
M  V30 5821 H 575.825 -1.40889 -4.66906 0
M  V30 5822 H 574.83 -3.64617 -4.11502 0
M  V30 5823 H 576.055 -4.44749 -5.13201 0
M  V30 5824 H 574.001 -2.42143 -6.09674 0
M  V30 5825 H 573.918 -4.13713 -6.32754 0
M  V30 5826 H 575.186 -3.22868 -7.0949 0
M  V30 5827 N 579.415 0.9433 -1.26252 0
M  V30 5828 C 580.362 2.0417 -1.07625 0
M  V30 5829 C 581.332 1.6609 0.0180738 0
M  V30 5830 O 582.517 1.90276 -0.141289 0
M  V30 5831 C 579.657 3.37653 -0.713043 0
M  V30 5832 C 578.77 3.88783 -1.8834 0
M  V30 5833 C 577.905 5.10642 -1.4635 0
M  V30 5834 C 576.944 5.54028 -2.60229 0
M  V30 5835 N 576.081 6.67092 -2.18936 0
M  V30 5836 H 580.921 2.19436 -2.01623 0
M  V30 5837 H 578.458 1.07519 -1.00389 0
M  V30 5838 H 580.416 4.14391 -0.483358 0
M  V30 5839 H 579.046 3.22241 0.18996 0
M  V30 5840 H 578.098 3.08464 -2.22608 0
M  V30 5841 H 579.41 4.16922 -2.73821 0
M  V30 5842 H 578.564 5.94832 -1.19414 0
M  V30 5843 H 577.303 4.84244 -0.579568 0
M  V30 5844 H 576.308 4.68396 -2.87898 0
M  V30 5845 H 577.533 5.82429 -3.49219 0
M  V30 5846 H 575.479 6.42381 -1.32974 0
M  V30 5847 H 575.396 6.94806 -2.97961 0
M  V30 5848 H 576.664 7.54662 -1.95206 0
M  V30 5849 N 580.893 1.08022 1.14757 0
M  V30 5850 C 582.141 0.805913 1.85336 0
M  V30 5851 C 582.462 -0.670162 1.83122 0
M  V30 5852 O 581.732 -1.48567 1.2769 0
M  V30 5853 H 580.312 0.295138 0.686223 0
M  V30 5854 H 582.974 1.36538 1.3908 0
M  V30 5855 H 582.07 1.14655 2.90277 0
M  V30 5856 N 582.371 -1.3172 0.865308 0
M  V30 5857 C 583.617 -1.97168 0.474633 0
M  V30 5858 C 583.95 -1.68263 -0.969604 0
M  V30 5859 O 583.225 -0.976588 -1.68205 0
M  V30 5860 C 583.508 -3.52689 0.726808 0
M  V30 5861 C 583.361 -3.91185 2.22024 0
M  V30 5862 C 584.68 -4.39689 0.190201 0
M  V30 5863 H 581.799 -0.716185 0.17392 0
M  V30 5864 H 584.441 -1.55925 1.08569 0
M  V30 5865 H 582.591 -3.8795 0.206705 0
M  V30 5866 H 584.263 -3.66049 2.80724 0
M  V30 5867 H 582.506 -3.3996 2.69462 0
M  V30 5868 H 583.177 -4.99604 2.34735 0
M  V30 5869 H 585.653 -4.11225 0.635103 0
M  V30 5870 H 584.529 -5.47469 0.396132 0
M  V30 5871 H 584.79 -4.32683 -0.907625 0
M  V30 5872 N 583.85 -0.624285 -1.44708 0
M  V30 5873 C 585.26 -0.2092 -1.85524 0
M  V30 5874 C 585.611 1.23783 -1.52225 0
M  V30 5875 O 584.736 1.94089 -0.956986 0
M  V30 5876 C 585.332 -0.372897 -3.36742 0
M  V30 5877 C 583.891 -0.012374 -3.76398 0
M  V30 5878 C 583.038 -0.68951 -2.68591 0
M  V30 5879 H 585.989 -0.829894 -1.35272 0
M  V30 5880 H 586.01 0.390134 -3.78495 0
M  V30 5881 H 585.522 -1.42615 -3.60947 0
M  V30 5882 H 583.623 1.03941 -3.57809 0
M  V30 5883 H 583.736 -0.417663 -4.77276 0
M  V30 5884 H 582.1 -0.125484 -2.54391 0
M  V30 5885 H 582.883 -1.74522 -2.9563 0
M  V30 5886 N 585.328 1.53329 -0.364422 0
M  V30 5887 C 586.553 2.06132 0.229033 0
M  V30 5888 C 586.978 1.23625 1.41769 0
M  V30 5889 O 586.336 0.255038 1.79497 0
M  V30 5890 C 586.384 3.55544 0.60174 0
M  V30 5891 O 585.488 3.75771 1.69912 0
M  V30 5892 H 584.829 0.663148 0.0336213 0
M  V30 5893 H 587.359 1.97758 -0.524689 0
M  V30 5894 H 587.369 3.98549 0.873073 0
M  V30 5895 H 586.044 4.15039 -0.267421 0
M  V30 5896 H 584.621 3.44663 1.42343 0
M  V30 5897 N 586.806 0.0935595 1.57322 0
M  V30 5898 C 588.052 -0.571355 1.94585 0
M  V30 5899 C 588.385 -1.67929 0.975366 0
M  V30 5900 O 587.66 -1.94498 0.00816206 0
M  V30 5901 C 587.943 -1.12797 3.41978 0
M  V30 5902 C 587.796 -0.0251881 4.49793 0
M  V30 5903 C 589.115 -2.02682 3.90651 0
M  V30 5904 H 586.234 -0.206223 0.70756 0
M  V30 5905 H 588.876 0.163956 1.89291 0
M  V30 5906 H 587.026 -1.75461 3.4662 0
M  V30 5907 H 588.698 0.608979 4.57263 0
M  V30 5908 H 586.941 0.641399 4.29032 0
M  V30 5909 H 587.612 -0.455433 5.50118 0
M  V30 5910 H 590.088 -1.49925 3.88152 0
M  V30 5911 H 588.964 -2.38555 4.94351 0
M  V30 5912 H 589.225 -2.94362 3.29854 0
M  V30 5913 N 588.284 -1.56567 -0.180126 0
M  V30 5914 C 589.695 -1.7126 -0.743422 0
M  V30 5915 C 590.046 -0.70263 -1.83187 0
M  V30 5916 O 589.171 0.137856 -2.1596 0
M  V30 5917 C 589.766 -3.10512 -1.35528 0
M  V30 5918 C 588.325 -3.26919 -1.8655 0
M  V30 5919 C 587.472 -2.67213 -0.741099 0
M  V30 5920 H 590.423 -1.58636 0.0451543 0
M  V30 5921 H 590.444 -3.08673 -2.22489 0
M  V30 5922 H 589.956 -3.83997 -0.562862 0
M  V30 5923 H 588.057 -2.58376 -2.68464 0
M  V30 5924 H 588.17 -4.34574 -2.01699 0
M  V30 5925 H 586.534 -2.26788 -1.15927 0
M  V30 5926 H 587.317 -3.43277 0.0393291 0
M  V30 5927 N 589.762 0.448376 -1.51087 0
M  V30 5928 C 591.008 1.20049 -1.6345 0
M  V30 5929 C 591.341 1.91121 -0.344444 0
M  V30 5930 O 590.616 1.83125 0.655396 0
M  V30 5931 C 590.899 2.22624 -2.83038 0
M  V30 5932 C 590.752 1.55708 -4.21989 0
M  V30 5933 C 592.071 3.23718 -2.98152 0
M  V30 5934 H 589.19 0.435085 -0.59487 0
M  V30 5935 H 591.832 0.491183 -1.83541 0
M  V30 5936 H 589.982 2.83117 -2.66039 0
M  V30 5937 H 591.654 0.986367 -4.50631 0
M  V30 5938 H 589.897 0.859647 -4.25197 0
M  V30 5939 H 590.568 2.30357 -5.01637 0
M  V30 5940 H 593.044 2.73269 -3.13788 0
M  V30 5941 H 591.92 3.92795 -3.83411 0
M  V30 5942 H 592.181 3.89179 -2.09743 0
M  V30 5943 N 591.24 1.41047 0.703093 0
M  V30 5944 C 592.203 1.42036 1.79884 0
M  V30 5945 C 593.203 0.312153 1.57741 0
M  V30 5946 O 594.393 0.571672 1.64553 0
M  V30 5947 C 591.525 1.22437 3.18154 0
M  V30 5948 H 592.718 2.39572 1.80403 0
M  V30 5949 H 590.271 1.27079 0.909977 0
M  V30 5950 H 591.006 0.257112 3.23279 0
M  V30 5951 H 590.791 2.02723 3.35627 0
M  V30 5952 H 592.281 1.25946 3.98155 0
M  V30 5953 N 592.718 -0.936591 1.26751 0
M  V30 5954 C 593.628 -2.06949 1.10496 0
M  V30 5955 C 594.644 -1.7396 0.037271 0
M  V30 5956 O 595.82 -1.99941 0.241944 0
M  V30 5957 C 592.885 -3.38612 0.744491 0
M  V30 5958 C 591.946 -3.85355 1.89209 0
M  V30 5959 C 591.179 -5.10735 1.54873 0
M  V30 5960 O 591.402 -5.68602 0.452546 0
M  V30 5961 O 590.336 -5.52632 2.38499 0
M  V30 5962 H 594.162 -2.23571 2.05547 0
M  V30 5963 H 591.747 -1.05428 1.05855 0
M  V30 5964 H 593.629 -4.17711 0.556396 0
M  V30 5965 H 592.304 -3.23218 -0.176582 0
M  V30 5966 H 591.211 -3.07182 2.13518 0
M  V30 5967 H 592.544 -4.05277 2.79305 0
M  V30 5968 N 594.196 -1.08629 -1.14182 0
M  V30 5969 C 595.106 -0.730126 -2.22949 0
M  V30 5970 C 596.122 0.26436 -1.7198 0
M  V30 5971 O 597.298 0.107742 -2.01112 0
M  V30 5972 C 594.363 -0.147227 -3.46387 0
M  V30 5973 C 593.424 -1.19662 -4.12286 0
M  V30 5974 C 592.657 -0.641437 -5.29831 0
M  V30 5975 O 592.88 0.538351 -5.67854 0
M  V30 5976 O 591.814 -1.39257 -5.85569 0
M  V30 5977 H 595.64 -1.63753 -2.55771 0
M  V30 5978 H 593.225 -0.860118 -1.22157 0
M  V30 5979 H 595.107 0.174923 -4.21037 0
M  V30 5980 H 593.782 0.733304 -3.15285 0
M  V30 5981 H 592.689 -1.57133 -3.395 0
M  V30 5982 H 594.022 -2.0495 -4.475 0
M  V30 5983 N 595.674 1.31259 -0.872281 0
M  V30 5984 C 596.899 2.0133 -0.498099 0
M  V30 5985 C 597.324 1.65031 0.902568 0
M  V30 5986 O 596.682 0.860164 1.59596 0
M  V30 5987 C 596.73 3.54411 -0.665205 0
M  V30 5988 O 595.834 4.11347 0.294473 0
M  V30 5989 H 595.175 0.633844 -0.197832 0
M  V30 5990 H 597.705 1.67402 -1.17633 0
M  V30 5991 H 597.715 4.04147 -0.559373 0
M  V30 5992 H 596.39 3.80171 -1.68651 0
M  V30 5993 H 594.967 3.72624 0.143403 0
M  V30 5994 N 597.152 0.631951 1.44375 0
M  V30 5995 C 598.568 0.297642 1.568 0
M  V30 5996 C 598.768 -1.19916 1.61934 0
M  V30 5997 O 597.824 -1.98324 1.56281 0
M  V30 5998 C 599.137 0.990286 2.83926 0
M  V30 5999 C 600.685 0.968507 2.97639 0
M  V30 6000 C 601.16 1.64163 4.27568 0
M  V30 6001 N 602.651 1.60826 4.34384 0
M  V30 6002 C 603.386 2.09802 5.33639 0
M  V30 6003 N 602.882 2.66973 6.39294 0
M  V30 6004 N 604.675 2.00426 5.25153 0
M  V30 6005 H 596.826 1.60353 1.39286 0
M  V30 6006 H 599.089 0.673142 0.667521 0
M  V30 6007 H 598.795 2.04519 2.8612 0
M  V30 6008 H 598.669 0.528563 3.73478 0
M  V30 6009 H 601.056 -0.0779247 2.94997 0
M  V30 6010 H 601.137 1.46873 2.09433 0
M  V30 6011 H 600.781 2.68752 4.3097 0
M  V30 6012 H 600.711 1.11624 5.14634 0
M  V30 6013 H 603.202 1.19087 3.58646 0
M  V30 6014 H 603.515 3.02074 7.11316 0
M  V30 6015 H 601.86 2.71024 6.39977 0
M  V30 6016 H 605.051 1.55483 4.41523 0
M  V30 6017 H 605.224 2.38906 6.02352 0
M  V30 6018 N 598.631 -1.53133 0.372548 0
M  V30 6019 C 599.594 -2.24569 -0.458389 0
M  V30 6020 C 600.594 -1.25603 -1.00402 0
M  V30 6021 O 601.784 -1.49827 -0.888672 0
M  V30 6022 C 598.916 -2.98783 -1.6414 0
M  V30 6023 H 600.109 -2.99436 0.166799 0
M  V30 6024 H 597.662 -1.55805 0.124357 0
M  V30 6025 H 598.397 -2.28176 -2.30448 0
M  V30 6026 H 598.182 -3.71404 -1.25704 0
M  V30 6027 H 599.672 -3.53068 -2.23008 0
M  V30 6028 N 600.109 -0.101901 -1.5727 0
M  V30 6029 C 601.334 0.571759 -1.99363 0
M  V30 6030 C 601.759 1.60507 -0.980768 0
M  V30 6031 O 601.117 1.81231 0.0498517 0
M  V30 6032 C 601.165 1.18996 -3.404 0
M  V30 6033 O 600.269 2.30572 -3.41922 0
M  V30 6034 H 599.61 0.144449 -0.648098 0
M  V30 6035 H 602.14 -0.185325 -2.03759 0
M  V30 6036 H 602.15 1.52962 -3.78241 0
M  V30 6037 H 600.825 0.432984 -4.1364 0
M  V30 6038 H 599.402 1.98173 -3.15883 0
M  V30 6039 N 601.587 1.56661 0.17182 0
M  V30 6040 C 602.55 1.9549 1.19651 0
M  V30 6041 C 603.55 0.838501 1.37207 0
M  V30 6042 O 604.74 1.10556 1.34622 0
M  V30 6043 C 601.872 2.24927 2.56166 0
M  V30 6044 H 603.065 2.87184 0.864007 0
M  V30 6045 H 600.618 1.50711 0.41425 0
M  V30 6046 H 601.353 1.35944 2.94431 0
M  V30 6047 H 601.138 3.06301 2.4479 0
M  V30 6048 H 602.628 2.55891 3.30014 0
M  V30 6049 N 603.065 -0.440357 1.51323 0
M  V30 6050 C 603.995 -1.54174 1.75364 0
M  V30 6051 C 604.976 -1.59039 0.603375 0
M  V30 6052 O 606.161 -1.74815 0.845774 0
M  V30 6053 C 603.291 -2.92277 1.87593 0
M  V30 6054 C 602.245 -3.02274 3.03009 0
M  V30 6055 C 601.571 -4.42327 3.00418 0
M  V30 6056 C 602.871 -2.76634 4.43024 0
M  V30 6057 H 604.565 -1.34307 2.67585 0
M  V30 6058 H 602.111 -0.644678 1.28763 0
M  V30 6059 H 604.064 -3.69284 2.02995 0
M  V30 6060 H 602.788 -3.13369 0.920179 0
M  V30 6061 H 601.447 -2.27706 2.87307 0
M  V30 6062 H 601.095 -4.60382 2.02626 0
M  V30 6063 H 600.795 -4.49946 3.77918 0
M  V30 6064 H 602.319 -5.21312 3.17909 0
M  V30 6065 H 603.733 -3.43376 4.59093 0
M  V30 6066 H 602.13 -2.95666 5.22208 0
M  V30 6067 H 603.2 -1.72262 4.5327 0
M  V30 6068 N 604.543 -1.41418 -0.695603 0
M  V30 6069 C 605.954 -1.36335 -1.27552 0
M  V30 6070 C 606.305 -0.0464336 -1.96145 0
M  V30 6071 O 605.43 0.855304 -1.9878 0
M  V30 6072 C 606.025 -2.46941 -2.3196 0
M  V30 6073 C 604.584 -2.45256 -2.85529 0
M  V30 6074 C 603.731 -2.2679 -1.59566 0
M  V30 6075 H 606.682 -1.50934 -0.490362 0
M  V30 6076 H 606.703 -2.15997 -3.1325 0
M  V30 6077 H 606.215 -3.42775 -1.82008 0
M  V30 6078 H 604.316 -1.53179 -3.39657 0
M  V30 6079 H 604.429 -3.41565 -3.35961 0
M  V30 6080 H 602.793 -1.74667 -1.85374 0
M  V30 6081 H 603.576 -3.24651 -1.1161 0
M  V30 6082 N 606.021 0.929856 -1.27246 0
M  V30 6083 C 607.251 1.70895 -1.16096 0
M  V30 6084 C 607.659 1.87039 0.285122 0
M  V30 6085 O 607.002 1.38557 1.20614 0
M  V30 6086 C 607.064 3.12919 -1.7698 0
M  V30 6087 C 606.728 3.2012 -3.26148 0
M  V30 6088 C 607.725 3.02533 -4.22812 0
M  V30 6089 C 605.41 3.43148 -3.66817 0
M  V30 6090 C 607.404 3.07861 -5.58122 0
M  V30 6091 C 605.091 3.48109 -5.02258 0
M  V30 6092 C 606.089 3.30483 -5.97721 0
M  V30 6093 O 605.777 3.35175 -7.30694 0
M  V30 6094 H 605.509 0.54152 -0.404639 0
M  V30 6095 H 608.063 1.17342 -1.68582 0
M  V30 6096 H 606.293 3.67945 -1.18969 0
M  V30 6097 H 607.982 3.72787 -1.60576 0
M  V30 6098 H 608.748 2.84586 -3.92728 0
M  V30 6099 H 604.627 3.55918 -2.9299 0
M  V30 6100 H 608.171 2.94021 -6.32612 0
M  V30 6101 H 604.068 3.65579 -5.31998 0
M  V30 6102 H 604.836 3.51644 -7.39114 0
M  V30 6103 N 607.499 1.09233 1.13605 0
M  V30 6104 C 608.745 0.828385 1.8511 0
M  V30 6105 C 609.078 -0.64437 1.83198 0
M  V30 6106 O 608.353 -1.47428 1.26867 0
M  V30 6107 C 608.636 1.36167 3.33363 0
M  V30 6108 C 608.489 2.90038 3.438 0
M  V30 6109 C 609.808 0.993819 4.28732 0
M  V30 6110 H 606.927 0.30239 0.672108 0
M  V30 6111 H 609.569 1.35339 1.33355 0
M  V30 6112 H 607.719 0.9151 3.77569 0
M  V30 6113 H 609.391 3.43128 3.08319 0
M  V30 6114 H 607.634 3.27271 2.84739 0
M  V30 6115 H 608.305 3.22428 4.48045 0
M  V30 6116 H 610.781 1.37893 3.92587 0
M  V30 6117 H 609.657 1.39403 5.30903 0
M  V30 6118 H 609.918 -0.0982206 4.41991 0
M  V30 6119 N 608.977 -1.30795 0.87923 0
M  V30 6120 C 609.907 -2.30742 0.357796 0
M  V30 6121 C 610.888 -1.60747 -0.556283 0
M  V30 6122 O 612.073 -1.88393 -0.47135 0
M  V30 6123 C 609.203 -3.44583 -0.433555 0
M  V30 6124 C 608.157 -4.26235 0.388251 0
M  V30 6125 C 607.483 -5.32073 -0.529352 0
M  V30 6126 C 608.783 -4.96303 1.62729 0
M  V30 6127 H 610.477 -2.74605 1.19299 0
M  V30 6128 H 608.023 -1.32017 0.575104 0
M  V30 6129 H 609.976 -4.13563 -0.808934 0
M  V30 6130 H 608.7 -2.99511 -1.30234 0
M  V30 6131 H 607.359 -3.58936 0.745695 0
M  V30 6132 H 607.007 -4.83249 -1.39569 0
M  V30 6133 H 606.707 -5.87598 0.0166741 0
M  V30 6134 H 608.231 -6.0391 -0.901373 0
M  V30 6135 H 609.645 -5.5783 1.32283 0
M  V30 6136 H 608.042 -5.61666 2.11309 0
M  V30 6137 H 609.112 -4.22758 2.37494 0
M  V30 6138 N 610.455 -0.639598 -1.44038 0
M  V30 6139 C 611.683 -0.154811 -2.0632 0
M  V30 6140 C 612.098 1.17406 -1.47856 0
M  V30 6141 O 611.455 1.72193 -0.604638 0
M  V30 6142 C 611.506 -0.0429958 -3.61474 0
M  V30 6143 O 611.227 -1.31932 -4.17763 0
M  V30 6144 C 612.728 0.469486 -4.40807 0
M  V30 6145 H 609.948 -0.0835862 -0.665773 0
M  V30 6146 H 612.492 -0.876397 -1.84769 0
M  V30 6147 H 610.647 0.629075 -3.82258 0
M  V30 6148 H 611.061 -1.16965 -5.11292 0
M  V30 6149 H 612.535 0.496712 -5.49761 0
M  V30 6150 H 613.012 1.49819 -4.12857 0
M  V30 6151 H 613.618 -0.169624 -4.24962 0
M  V30 6152 N 611.933 1.52934 -0.380664 0
M  V30 6153 C 613.21 1.93845 0.261417 0
M  V30 6154 C 613.59 1.31544 1.65104 0
M  V30 6155 O 612.938 0.480234 2.23397 0
M  V30 6156 C 613.148 3.47739 0.296466 0
M  V30 6157 C 614.496 4.21284 0.529578 0
M  V30 6158 O 615.52 3.54199 0.377041 0
M  V30 6159 O 614.379 5.40195 0.827753 0
M  V30 6160 H 611.473 0.811318 0.160285 0
M  V30 6161 H 614.019 1.64042 -0.434544 0
M  V30 6162 H 612.791 3.85395 -0.67724 0
M  V30 6163 H 612.414 3.8382 1.0377 0
M  V30 6164 N 613.412 0.11024 1.57214 0
M  V30 6165 C 614.661 -0.549638 1.94067 0
M  V30 6166 C 614.974 -1.68388 0.995234 0
M  V30 6167 O 616.18 -2.40593 1.25807 0
M  V30 6168 C 614.636 -1.02912 3.44873 0
M  V30 6169 C 614.244 0.0761861 4.47935 0
M  V30 6170 C 615.988 -1.66087 3.9066 0
M  V30 6171 C 613.895 -0.419502 5.8991 0
M  V30 6172 H 612.825 -0.209092 0.724428 0
M  V30 6173 H 615.476 0.188683 1.82527 0
M  V30 6174 H 613.858 -1.82159 3.51616 0
M  V30 6175 H 615.032 0.852185 4.52851 0
M  V30 6176 H 613.347 0.614052 4.11847 0
M  V30 6177 H 615.944 -2.04272 4.94143 0
M  V30 6178 H 616.287 -2.53591 3.30148 0
M  V30 6179 H 616.82 -0.933959 3.86681 0
M  V30 6180 H 613.559 0.419277 6.54158 0
M  V30 6181 H 613.079 -1.16217 5.88433 0
M  V30 6182 H 614.758 -0.883577 6.40938 0
M  V30 6183 N 614.89 -1.56749 -0.16351 0
M  V30 6184 C 615.853 -1.96121 -1.18613 0
M  V30 6185 C 616.853 -0.845765 -1.36761 0
M  V30 6186 O 618.043 -1.11268 -1.34033 0
M  V30 6187 C 615.175 -2.26282 -2.54969 0
M  V30 6188 H 616.368 -2.87639 -0.848764 0
M  V30 6189 H 613.921 -1.50928 -0.406251 0
M  V30 6190 H 614.656 -1.37504 -2.93706 0
M  V30 6191 H 614.441 -3.07595 -2.43162 0
M  V30 6192 H 615.931 -2.57638 -3.28653 0
M  V30 6193 N 616.368 0.432326 -1.51554 0
M  V30 6194 C 617.331 1.50765 -1.72634 0
M  V30 6195 C 618.331 1.49334 -0.596314 0
M  V30 6196 O 619.521 1.51268 -0.863925 0
M  V30 6197 C 616.653 2.90284 -1.7874 0
M  V30 6198 H 617.846 1.33377 -2.68609 0
M  V30 6199 H 615.399 0.661329 -1.4162 0
M  V30 6200 H 616.134 3.13071 -0.845977 0
M  V30 6201 H 615.919 2.92727 -2.6087 0
M  V30 6202 H 617.409 3.68282 -1.96871 0
M  V30 6203 N 617.846 1.41785 0.688094 0
M  V30 6204 C 619.071 1.45117 1.48175 0
M  V30 6205 C 619.496 0.060129 1.88004 0
M  V30 6206 O 618.854 -0.938385 1.55126 0
M  V30 6207 C 618.902 2.37224 2.71583 0
M  V30 6208 O 618.006 1.83443 3.69354 0
M  V30 6209 H 617.347 0.492208 0.445676 0
M  V30 6210 H 619.877 1.86329 0.845145 0
M  V30 6211 H 619.887 2.53353 3.19806 0
M  V30 6212 H 618.562 3.38293 2.41931 0
M  V30 6213 H 617.139 1.76802 3.28322 0
M  V30 6214 N 619.324 -0.923095 1.27737 0
M  V30 6215 C 620.571 -1.67127 1.14345 0
M  V30 6216 C 620.899 -1.92017 -0.30982 0
M  V30 6217 O 620.154 -1.51185 -1.24264 0
M  V30 6218 C 620.453 -3.04125 1.8773 0
M  V30 6219 C 620.119 -2.98929 3.37568 0
M  V30 6220 C 618.781 -2.9722 3.78436 0
M  V30 6221 C 621.133 -2.89875 4.33154 0
M  V30 6222 C 618.461 -2.84244 5.13247 0
M  V30 6223 C 620.813 -2.7844 5.68026 0
M  V30 6224 C 619.477 -2.75083 6.08182 0
M  V30 6225 H 618.747 -0.611562 0.418417 0
M  V30 6226 H 621.394 -1.07618 1.584 0
M  V30 6227 H 619.699 -3.67366 1.36196 0
M  V30 6228 H 621.396 -3.609 1.74792 0
M  V30 6229 H 617.986 -3.0105 3.05069 0
M  V30 6230 H 622.17 -2.9029 4.02548 0
M  V30 6231 H 617.426 -2.80034 5.43499 0
M  V30 6232 H 621.6 -2.70401 6.4176 0
M  V30 6233 H 619.227 -2.64786 7.12596 0
M  V30 6234 N 620.802 -1.09834 -1.13024 0
M  V30 6235 C 622.03 -0.858902 -1.8823 0
M  V30 6236 C 622.445 0.590164 -1.79339 0
M  V30 6237 O 621.802 1.4065 -1.16292 0
M  V30 6238 C 621.853 -1.29066 -3.37675 0
M  V30 6239 O 621.574 -2.6829 -3.46341 0
M  V30 6240 C 623.075 -1.08421 -4.29837 0
M  V30 6241 H 620.295 -0.308713 -0.595766 0
M  V30 6242 H 622.839 -1.4614 -1.4305 0
M  V30 6243 H 620.994 -0.731961 -3.80422 0
M  V30 6244 H 621.408 -2.86598 -4.39274 0
M  V30 6245 H 622.882 -1.43553 -5.33007 0
M  V30 6246 H 623.359 -0.0223315 -4.39194 0
M  V30 6247 H 623.965 -1.62907 -3.92863 0
M  V30 6248 N 622.28 1.30327 -0.886154 0
M  V30 6249 C 623.21 2.30549 -0.370028 0
M  V30 6250 C 624.191 1.61039 0.547751 0
M  V30 6251 O 625.376 1.8864 0.461353 0
M  V30 6252 C 622.506 3.44808 0.415275 0
M  V30 6253 C 621.46 4.26024 -0.41085 0
M  V30 6254 C 620.786 5.32347 0.501128 0
M  V30 6255 C 622.086 4.95433 -1.65359 0
M  V30 6256 H 623.78 2.73969 -1.20754 0
M  V30 6257 H 621.326 1.3171 -0.582097 0
M  V30 6258 H 623.279 4.13986 0.78699 0
M  V30 6259 H 622.003 3.00197 1.28644 0
M  V30 6260 H 620.662 3.58535 -0.764719 0
M  V30 6261 H 620.31 4.83982 1.37004 0
M  V30 6262 H 620.01 5.87581 -0.0478356 0
M  V30 6263 H 621.534 6.0438 0.869333 0
M  V30 6264 H 622.948 5.5712 -1.35239 0
M  V30 6265 H 621.345 5.60537 -2.14284 0
M  V30 6266 H 622.415 4.21493 -2.39733 0
M  V30 6267 N 623.758 0.647228 1.43697 0
M  V30 6268 C 624.688 -0.0345631 2.33474 0
M  V30 6269 C 625.669 -0.818193 1.4913 0
M  V30 6270 O 626.854 -0.780867 1.77809 0
M  V30 6271 C 623.984 -1.00576 3.32418 0
M  V30 6272 C 622.938 -0.33266 4.26705 0
M  V30 6273 C 622.264 -1.41489 5.1564 0
M  V30 6274 C 623.564 0.771204 5.16575 0
M  V30 6275 H 625.258 0.715163 2.90733 0
M  V30 6276 H 622.804 0.345364 1.39797 0
M  V30 6277 H 624.757 -1.49159 3.94119 0
M  V30 6278 H 623.481 -1.78657 2.73403 0
M  V30 6279 H 622.14 0.13267 3.6636 0
M  V30 6280 H 621.788 -2.18698 4.52968 0
M  V30 6281 H 621.488 -0.969799 5.79542 0
M  V30 6282 H 623.012 -1.9022 5.80214 0
M  V30 6283 H 624.426 0.36779 5.72119 0
M  V30 6284 H 622.823 1.1404 5.89165 0
M  V30 6285 H 623.893 1.63169 4.56622 0
M  V30 6286 N 625.236 -1.5273 0.388769 0
M  V30 6287 C 626.482 -2.01871 -0.193877 0
M  V30 6288 C 626.815 -1.27475 -1.46505 0
M  V30 6289 O 626.09 -0.375063 -1.90849 0
M  V30 6290 C 626.373 -3.5712 -0.462336 0
M  V30 6291 C 626.226 -4.42186 0.824091 0
M  V30 6292 C 627.545 -4.21881 -1.25319 0
M  V30 6293 H 624.664 -0.733764 -0.0689899 0
M  V30 6294 H 627.306 -1.82796 0.518231 0
M  V30 6295 H 625.456 -3.73504 -1.06896 0
M  V30 6296 H 627.128 -4.37554 1.46096 0
M  V30 6297 H 625.371 -4.09219 1.43952 0
M  V30 6298 H 626.042 -5.48828 0.590905 0
M  V30 6299 H 628.518 -4.0947 -0.73981 0
M  V30 6300 H 627.394 -5.30487 -1.40977 0
M  V30 6301 H 627.655 -3.79478 -2.26824 0
M  V30 6302 N 626.714 -0.118576 -1.57153 0
M  V30 6303 C 627.962 0.538461 -1.94795 0
M  V30 6304 C 628.283 1.67243 -1.00274 0
M  V30 6305 O 627.553 1.95811 -0.0589692 0
M  V30 6306 H 626.133 0.201904 -0.719197 0
M  V30 6307 H 628.795 -0.187418 -1.93997 0
M  V30 6308 H 627.891 0.933315 -2.97818 0
M  V30 6309 N 628.193 1.56834 0.155195 0
M  V30 6310 C 629.442 1.82088 0.867567 0
M  V30 6311 C 629.755 0.69849 1.82703 0
M  V30 6312 O 630.961 0.836407 2.58295 0
M  V30 6313 C 629.417 3.22707 1.59336 0
M  V30 6314 C 629.025 4.42859 0.676719 0
M  V30 6315 C 630.769 3.57242 2.293 0
M  V30 6316 C 628.676 5.74501 1.40367 0
M  V30 6317 H 627.606 0.679057 0.327715 0
M  V30 6318 H 630.257 1.83105 0.120351 0
M  V30 6319 H 628.639 3.16054 2.38591 0
M  V30 6320 H 629.813 4.60731 -0.0800196 0
M  V30 6321 H 628.128 4.16311 0.0859129 0
M  V30 6322 H 630.725 4.52847 2.84312 0
M  V30 6323 H 631.068 2.82901 3.05406 0
M  V30 6324 H 631.601 3.6552 1.56972 0
M  V30 6325 H 628.34 6.51915 0.684623 0
M  V30 6326 H 627.86 5.60579 2.13332 0
M  V30 6327 H 629.539 6.17016 1.94681 0
M  V30 6328 N 629.671 -0.424282 1.51781 0
M  V30 6329 C 630.901 -1.19297 1.68677 0
M  V30 6330 C 631.309 -1.85152 0.389258 0
M  V30 6331 O 630.652 -1.72067 -0.643311 0
M  V30 6332 C 630.714 -2.30929 2.75521 0
M  V30 6333 C 630.378 -1.85335 4.17732 0
M  V30 6334 C 631.375 -1.34951 5.0208 0
M  V30 6335 C 629.06 -1.92629 4.63896 0
M  V30 6336 C 631.054 -0.924636 6.30658 0
M  V30 6337 C 628.741 -1.49754 5.92467 0
M  V30 6338 C 629.739 -0.997543 6.75676 0
M  V30 6339 O 629.427 -0.57492 8.01842 0
M  V30 6340 H 629.159 -0.36512 0.568914 0
M  V30 6341 H 631.713 -0.507327 1.99036 0
M  V30 6342 H 629.943 -3.02811 2.40505 0
M  V30 6343 H 631.632 -2.92748 2.81165 0
M  V30 6344 H 632.398 -1.287 4.67612 0
M  V30 6345 H 628.277 -2.30491 3.99243 0
M  V30 6346 H 631.821 -0.533682 6.95556 0
M  V30 6347 H 627.718 -1.55679 6.26446 0
M  V30 6348 H 628.486 -0.699597 8.15505 0
M  V30 6349 N 631.149 -1.42148 -0.680565 0
M  V30 6350 C 632.396 -1.4231 -1.44063 0
M  V30 6351 C 632.724 -0.037488 -1.94464 0
M  V30 6352 O 631.979 0.953184 -1.70918 0
M  V30 6353 C 632.278 -2.38945 -2.65782 0
M  V30 6354 C 631.944 -3.85455 -2.33956 0
M  V30 6355 C 630.606 -4.25364 -2.24987 0
M  V30 6356 C 632.958 -4.77895 -2.08004 0
M  V30 6357 C 630.286 -5.55701 -1.88184 0
M  V30 6358 C 632.638 -6.08568 -1.72706 0
M  V30 6359 C 631.302 -6.47482 -1.62244 0
M  V30 6360 H 630.572 -0.520748 -0.527164 0
M  V30 6361 H 633.219 -1.7505 -0.776524 0
M  V30 6362 H 631.524 -1.99511 -3.37198 0
M  V30 6363 H 633.221 -2.36336 -3.23954 0
M  V30 6364 H 629.811 -3.53855 -2.41836 0
M  V30 6365 H 633.995 -4.47854 -2.1387 0
M  V30 6366 H 629.251 -5.84718 -1.78648 0
M  V30 6367 H 633.425 -6.79688 -1.5165 0
M  V30 6368 H 631.052 -7.48387 -1.33496 0
M  V30 6369 N 632.627 0.916307 -1.28225 0
M  V30 6370 C 634.038 1.48024 -1.13779 0
M  V30 6371 C 634.389 1.94289 0.273139 0
M  V30 6372 O 633.514 1.82226 1.16716 0
M  V30 6373 C 634.109 2.69029 -2.05935 0
M  V30 6374 C 632.668 3.2161 -1.95561 0
M  V30 6375 C 631.815 1.94321 -1.97825 0
M  V30 6376 H 634.766 0.729272 -1.40951 0
M  V30 6377 H 634.787 3.44204 -1.62184 0
M  V30 6378 H 634.299 2.35325 -3.08616 0
M  V30 6379 H 632.4 3.60045 -0.959076 0
M  V30 6380 H 632.513 3.87032 -2.82388 0
M  V30 6381 H 630.877 2.1131 -1.42198 0
M  V30 6382 H 631.66 1.62917 -3.0218 0
M  V30 6383 N 634.105 1.10431 1.1244 0
M  V30 6384 C 635.33 0.869089 1.88313 0
M  V30 6385 C 635.755 -0.574912 1.79099 0
M  V30 6386 O 635.113 -1.40496 1.14589 0
M  V30 6387 C 635.161 1.32208 3.3549 0
M  V30 6388 O 634.265 0.487092 4.09513 0
M  V30 6389 H 633.606 0.313894 0.585121 0
M  V30 6390 H 636.136 1.47111 1.42195 0
M  V30 6391 H 636.146 1.31201 3.86329 0
M  V30 6392 H 634.821 2.37364 3.41513 0
M  V30 6393 H 633.398 0.562372 3.68635 0
M  V30 6394 N 635.583 -1.29855 0.893053 0
M  V30 6395 C 636.829 -1.96116 0.516349 0
M  V30 6396 C 637.162 -1.70281 -0.933695 0
M  V30 6397 O 636.437 -1.01205 -1.66096 0
M  V30 6398 C 636.72 -3.51068 0.801455 0
M  V30 6399 C 636.573 -3.86387 2.30272 0
M  V30 6400 C 637.892 -4.39186 0.283423 0
M  V30 6401 H 635.011 -0.712335 0.189072 0
M  V30 6402 H 637.653 -1.53587 1.11852 0
M  V30 6403 H 635.803 -3.87424 0.288949 0
M  V30 6404 H 637.475 -3.60012 2.88425 0
M  V30 6405 H 635.718 -3.34167 2.76613 0
M  V30 6406 H 636.389 -4.94512 2.45279 0
M  V30 6407 H 638.865 -4.09785 0.722187 0
M  V30 6408 H 637.741 -5.46505 0.512169 0
M  V30 6409 H 638.002 -4.34511 -0.815643 0
M  V30 6410 N 637.061 -0.65484 -1.43351 0
M  V30 6411 C 638.289 -0.176685 -2.06144 0
M  V30 6412 C 638.704 1.15831 -1.49093 0
M  V30 6413 O 638.061 1.71542 -0.622868 0
M  V30 6414 C 638.112 -0.0813326 -3.61408 0
M  V30 6415 O 637.833 -1.36355 -4.1634 0
M  V30 6416 C 639.334 0.422706 -4.4128 0
M  V30 6417 H 636.554 -0.0906429 -0.66485 0
M  V30 6418 H 639.098 -0.895945 -1.83829 0
M  V30 6419 H 637.253 0.588496 -3.82904 0
M  V30 6420 H 637.667 -1.22381 -5.10023 0
M  V30 6421 H 639.141 0.438375 -5.50257 0
M  V30 6422 H 639.618 1.45432 -4.14423 0
M  V30 6423 H 640.224 -0.214687 -4.24758 0
M  V30 6424 N 638.539 1.52521 -0.396863 0
M  V30 6425 C 639.787 2.01274 0.182536 0
M  V30 6426 C 640.108 1.28485 1.46685 0
M  V30 6427 O 639.378 0.407134 1.91623 0
M  V30 6428 H 637.958 0.743671 0.0704442 0
M  V30 6429 H 640.62 1.87547 -0.530289 0
M  V30 6430 H 639.716 3.09687 0.387385 0
M  V30 6431 N 640.017 0.126909 1.57088 0
M  V30 6432 C 641.266 -0.529024 1.94639 0
M  V30 6433 C 641.579 -1.67323 1.01304 0
M  V30 6434 O 642.785 -2.39245 1.28352 0
M  V30 6435 C 641.241 -0.992483 3.45945 0
M  V30 6436 C 640.849 0.123691 4.47829 0
M  V30 6437 C 642.593 -1.61934 3.924 0
M  V30 6438 C 640.5 -0.356911 5.90322 0
M  V30 6439 H 639.43 -0.201397 0.726605 0
M  V30 6440 H 642.081 0.208032 1.82317 0
M  V30 6441 H 640.463 -1.7842 3.53528 0
M  V30 6442 H 641.637 0.900168 4.51922 0
M  V30 6443 H 639.952 0.657699 4.11173 0
M  V30 6444 H 642.549 -1.9902 4.96281 0
M  V30 6445 H 642.892 -2.50075 3.32819 0
M  V30 6446 H 643.425 -0.892894 3.8765 0
M  V30 6447 H 640.164 0.488636 6.53676 0
M  V30 6448 H 639.684 -1.0997 5.89633 0
M  V30 6449 H 641.363 -0.815547 6.41839 0
M  V30 6450 N 641.495 -1.56914 -0.146875 0
M  V30 6451 C 642.428 -1.93425 -1.21087 0
M  V30 6452 C 643.406 -0.800106 -1.41552 0
M  V30 6453 O 644.59 -1.05572 -1.56162 0
M  V30 6454 C 641.717 -2.20639 -2.56975 0
M  V30 6455 C 640.763 -3.43279 -2.53104 0
M  V30 6456 S 641.596 -4.96836 -1.99786 0
M  V30 6457 C 642.752 -5.27172 -3.37403 0
M  V30 6458 H 642.985 -2.8337 -0.899378 0
M  V30 6459 H 640.518 -1.50322 -0.352494 0
M  V30 6460 H 642.476 -2.36998 -3.35175 0
M  V30 6461 H 641.137 -1.31357 -2.85314 0
M  V30 6462 H 640.33 -3.59599 -3.53136 0
M  V30 6463 H 639.932 -3.26163 -1.83012 0
M  V30 6464 H 642.224 -5.20647 -4.33513 0
M  V30 6465 H 643.167 -6.28626 -3.25937 0
M  V30 6466 H 643.575 -4.54687 -3.34544 0
M  V30 6467 N 642.974 0.416227 -1.52004 0
M  V30 6468 C 643.937 1.48926 -1.74223 0
M  V30 6469 C 644.937 1.48693 -0.612119 0
M  V30 6470 O 646.127 1.50343 -0.879921 0
M  V30 6471 C 643.259 2.88372 -1.81809 0
M  V30 6472 H 644.452 1.3052 -2.70008 0
M  V30 6473 H 642.005 0.646271 -1.42313 0
M  V30 6474 H 642.74 3.12157 -0.879135 0
M  V30 6475 H 642.525 2.89944 -2.6396 0
M  V30 6476 H 644.015 3.66173 -2.00766 0
M  V30 6477 N 644.452 1.42507 0.673017 0
M  V30 6478 C 645.7 1.42789 1.43023 0
M  V30 6479 C 646.021 0.0459738 1.94946 0
M  V30 6480 O 645.291 -0.915765 1.73178 0
M  V30 6481 H 643.871 0.525657 0.530748 0
M  V30 6482 H 646.533 1.77944 0.795113 0
M  V30 6483 H 645.629 2.12872 2.28237 0
M  V30 6484 N 645.93 -0.909495 1.28709 0
M  V30 6485 C 647.155 -1.69801 1.1909 0
M  V30 6486 C 647.58 -1.86479 -0.246388 0
M  V30 6487 O 646.938 -1.37802 -1.17815 0
M  V30 6488 C 646.986 -3.06543 1.89904 0
M  V30 6489 O 646.09 -3.94268 1.2094 0
M  V30 6490 H 645.431 -0.519783 0.413185 0
M  V30 6491 H 647.961 -1.13689 1.70106 0
M  V30 6492 H 647.971 -3.56748 1.97977 0
M  V30 6493 H 646.646 -2.93722 2.94449 0
M  V30 6494 H 645.223 -3.52702 1.2106 0
M  V30 6495 N 647.408 -1.11026 -1.11852 0
M  V30 6496 C 648.356 -0.759643 -2.19846 0
M  V30 6497 C 649.35 0.246964 -1.6759 0
M  V30 6498 O 650.556 0.106693 -1.79684 0
M  V30 6499 H 646.931 -0.22775 -0.716683 0
M  V30 6500 H 648.902 -1.6792 -2.46669 0
M  V30 6501 C 647.651 -0.214364 -3.47039 0
M  V30 6502 H 646.974 -0.980175 -3.87599 0
M  V30 6503 H 648.414 -0.00717047 -4.23999 0
M  V30 6504 C 646.873 1.05436 -3.19976 0
M  V30 6505 O 647.403 2.13483 -3.40276 0
M  V30 6506 N 645.609 0.975436 -2.7374 0
M  V30 6507 H 645.156 0.0960853 -2.57421 0
M  V30 6508 H 645.114 1.82501 -2.5601 0
M  V30 6509 N 648.886 1.2938 -0.899927 0
M  V30 6510 C 650.302 1.48052 -0.596059 0
M  V30 6511 C 650.502 1.82114 0.862372 0
M  V30 6512 O 649.558 1.91774 1.64253 0
M  V30 6513 C 650.871 2.59332 -1.52208 0
M  V30 6514 C 652.419 2.73208 -1.5273 0
M  V30 6515 C 652.894 3.87617 -2.43961 0
M  V30 6516 N 654.385 3.9495 -2.42009 0
M  V30 6517 C 655.12 4.82824 -3.09303 0
M  V30 6518 N 654.616 5.75387 -3.85877 0
M  V30 6519 N 656.409 4.76317 -2.98459 0
M  V30 6520 H 648.56 1.05546 -1.8432 0
M  V30 6521 H 650.823 0.524314 -0.78981 0
M  V30 6522 H 650.529 2.41029 -2.56121 0
M  V30 6523 H 650.403 3.56139 -1.24278 0
M  V30 6524 H 652.79 2.90908 -0.495614 0
M  V30 6525 H 652.871 1.76975 -1.84698 0
M  V30 6526 H 652.515 3.70672 -3.47224 0
M  V30 6527 H 652.445 4.83218 -2.09303 0
M  V30 6528 H 654.936 3.28744 -1.86375 0
M  V30 6529 H 655.249 6.39235 -4.34279 0
M  V30 6530 H 653.594 5.75272 -3.89984 0
M  V30 6531 H 656.785 4.0299 -2.38152 0
M  V30 6532 H 656.958 5.44589 -3.51179 0
M  V30 6533 N 650.364 0.662433 1.43002 0
M  V30 6534 C 651.589 0.186003 2.06564 0
M  V30 6535 C 652.014 -1.14314 1.49379 0
M  V30 6536 O 651.372 -1.70824 0.607346 0
M  V30 6537 C 651.42 0.118269 3.60406 0
M  V30 6538 O 650.524 -0.916859 4.02079 0
M  V30 6539 H 649.865 0.0990981 0.656563 0
M  V30 6540 H 652.395 0.907958 1.8335 0
M  V30 6541 H 652.405 -0.0619981 4.07953 0
M  V30 6542 H 651.08 1.08849 4.01403 0
M  V30 6543 H 649.657 -0.708635 3.66105 0
M  V30 6544 N 651.842 -1.52309 0.404946 0
M  V30 6545 C 653.09 -2.01368 -0.17186 0
M  V30 6546 C 653.411 -1.29261 -1.46002 0
M  V30 6547 O 652.681 -0.41729 -1.91404 0
M  V30 6548 H 651.261 -0.744034 -0.0664993 0
M  V30 6549 H 653.923 -1.87263 0.540228 0
M  V30 6550 H 653.019 -3.09888 -0.370957 0
M  V30 6551 N 653.32 -0.135238 -1.57019 0
M  V30 6552 C 654.597 0.563227 -1.87316 0
M  V30 6553 C 654.977 1.83749 -1.03921 0
M  V30 6554 O 654.325 2.2817 -0.122675 0
M  V30 6555 C 654.535 0.840031 -3.3874 0
M  V30 6556 C 655.883 1.18598 -4.077 0
M  V30 6557 O 656.907 0.92977 -3.43851 0
M  V30 6558 O 655.766 1.66758 -5.20436 0
M  V30 6559 H 652.86 0.285971 -0.775983 0
M  V30 6560 H 655.406 -0.170965 -1.68837 0
M  V30 6561 H 654.178 -0.0622785 -3.9125 0
M  V30 6562 H 653.801 1.62882 -3.62706 0
M  V30 6563 N 654.798 1.5699 0.138552 0
M  V30 6564 C 655.728 2.01933 1.17241 0
M  V30 6565 C 656.709 0.90033 1.44319 0
M  V30 6566 O 657.894 1.16872 1.55095 0
M  V30 6567 C 655.024 2.40711 2.50351 0
M  V30 6568 C 653.978 3.55874 2.37776 0
M  V30 6569 C 653.304 3.80491 3.75674 0
M  V30 6570 C 654.604 4.8826 1.85472 0
M  V30 6571 H 656.298 2.88551 0.798672 0
M  V30 6572 H 653.844 1.3882 0.382743 0
M  V30 6573 H 655.797 2.70754 3.22909 0
M  V30 6574 H 654.521 1.5104 2.89576 0
M  V30 6575 H 653.18 3.2601 1.67669 0
M  V30 6576 H 652.828 2.88057 4.12349 0
M  V30 6577 H 652.528 4.57998 3.68119 0
M  V30 6578 H 654.052 4.12967 4.49767 0
M  V30 6579 H 655.466 5.16965 2.4783 0
M  V30 6580 H 653.863 5.69631 1.88787 0
M  V30 6581 H 654.933 4.78071 0.810935 0
M  V30 6582 N 656.276 -0.40816 1.52223 0
M  V30 6583 C 657.223 -1.49737 1.75635 0
M  V30 6584 C 658.193 -1.5493 0.598824 0
M  V30 6585 O 659.378 -1.71487 0.83648 0
M  V30 6586 C 656.518 -2.87174 1.91376 0
M  V30 6587 C 655.631 -2.91283 3.19027 0
M  V30 6588 C 654.766 -4.20026 3.25195 0
M  V30 6589 C 653.805 -4.18113 4.47044 0
M  V30 6590 N 652.942 -5.38429 4.50598 0
M  V30 6591 H 657.782 -1.29075 2.68596 0
M  V30 6592 H 655.319 -0.626518 1.33091 0
M  V30 6593 H 657.277 -3.66959 1.98486 0
M  V30 6594 H 655.907 -3.06329 1.01795 0
M  V30 6595 H 654.959 -2.03984 3.21084 0
M  V30 6596 H 656.271 -2.85734 4.08849 0
M  V30 6597 H 655.425 -5.08204 3.31382 0
M  V30 6598 H 654.164 -4.28271 2.33313 0
M  V30 6599 H 653.169 -3.28325 4.41002 0
M  V30 6600 H 654.394 -4.11507 5.40221 0
M  V30 6601 H 652.34 -5.4734 3.616 0
M  V30 6602 H 652.257 -5.34879 5.34266 0
M  V30 6603 H 653.525 -6.28557 4.61016 0
M  V30 6604 N 657.755 -1.42862 -0.66545 0
M  V30 6605 C 659.032 -1.3431 -1.42197 0
M  V30 6606 C 659.412 0.0150265 -2.11095 0
M  V30 6607 O 658.76 1.03101 -2.03918 0
M  V30 6608 C 658.97 -2.51783 -2.41674 0
M  V30 6609 C 660.318 -2.94321 -3.0604 0
M  V30 6610 O 661.342 -2.51741 -2.52001 0
M  V30 6611 O 660.201 -3.68047 -4.03985 0
M  V30 6612 H 657.295 -0.530159 -0.634713 0
M  V30 6613 H 659.841 -1.54888 -0.693386 0
M  V30 6614 H 658.613 -3.42282 -1.89627 0
M  V30 6615 H 658.236 -2.33241 -3.22001 0
M  V30 6616 N 659.233 0.902656 -1.29189 0
M  V30 6617 C 660.196 1.98797 -1.14071 0
M  V30 6618 C 661.196 1.60615 -0.0770549 0
M  V30 6619 O 662.386 1.71165 -0.323753 0
M  V30 6620 C 659.518 3.32688 -0.743739 0
M  V30 6621 H 660.711 2.13637 -2.10473 0
M  V30 6622 H 658.264 1.08678 -1.12334 0
M  V30 6623 H 658.999 3.23549 0.220554 0
M  V30 6624 H 658.784 3.61765 -1.51223 0
M  V30 6625 H 660.274 4.12337 -0.660935 0
M  V30 6626 N 660.711 1.11618 1.11262 0
M  V30 6627 C 661.643 0.734015 2.17129 0
M  V30 6628 C 662.656 -0.235243 1.61091 0
M  V30 6629 O 663.845 -0.0178597 1.78491 0
M  V30 6630 C 660.945 0.0643682 3.38839 0
M  V30 6631 C 660.118 1.06092 4.24339 0
M  V30 6632 C 659.177 0.420482 5.24517 0
M  V30 6633 O 658.203 1.07495 5.58957 0
M  V30 6634 N 659.405 -0.815828 5.74739 0
M  V30 6635 H 662.17 1.64492 2.50524 0
M  V30 6636 H 659.731 1.00664 1.26801 0
M  V30 6637 H 661.723 -0.375851 4.02951 0
M  V30 6638 H 660.293 -0.749147 3.03491 0
M  V30 6639 H 659.513 1.67903 3.56654 0
M  V30 6640 H 660.801 1.73507 4.78302 0
M  V30 6641 H 660.199 -1.36668 5.48943 0
M  V30 6642 H 658.756 -1.199 6.40677 0
M  V30 6643 N 662.189 -1.289 0.906776 0
M  V30 6644 C 663.136 -2.2751 0.388313 0
M  V30 6645 C 664.106 -1.57301 -0.533439 0
M  V30 6646 O 665.291 -1.85243 -0.457148 0
M  V30 6647 C 662.431 -3.43091 -0.37181 0
M  V30 6648 C 661.544 -4.28066 0.581647 0
M  V30 6649 C 660.679 -5.30837 -0.19623 0
M  V30 6650 C 659.718 -6.07472 0.751294 0
M  V30 6651 N 658.855 -7.021 0.00737727 0
M  V30 6652 H 663.695 -2.71237 1.23428 0
M  V30 6653 H 661.232 -1.33397 0.619962 0
M  V30 6654 H 663.19 -4.08888 -0.828641 0
M  V30 6655 H 661.82 -3.00374 -1.18218 0
M  V30 6656 H 660.872 -3.62378 1.157 0
M  V30 6657 H 662.184 -4.81382 1.30665 0
M  V30 6658 H 661.338 -6.02485 -0.71394 0
M  V30 6659 H 660.077 -4.78272 -0.954324 0
M  V30 6660 H 659.082 -5.34682 1.28044 0
M  V30 6661 H 660.307 -6.62126 1.50883 0
M  V30 6662 H 658.253 -6.51894 -0.732854 0
M  V30 6663 H 658.17 -7.53004 0.672334 0
M  V30 6664 H 659.438 -7.77956 -0.490365 0
M  V30 6665 N 663.667 -0.670007 -1.42649 0
M  V30 6666 C 664.892 -0.196955 -2.06463 0
M  V30 6667 C 665.317 1.1352 -1.49983 0
M  V30 6668 O 664.675 1.705 -0.616397 0
M  V30 6669 C 664.723 -0.137381 -3.60338 0
M  V30 6670 O 663.827 0.895523 -4.02559 0
M  V30 6671 H 663.168 -0.102579 -0.656029 0
M  V30 6672 H 665.698 -0.917669 -1.82866 0
M  V30 6673 H 665.708 0.0403625 -4.0798 0
M  V30 6674 H 664.383 -1.10977 -4.0082 0
M  V30 6675 H 662.96 0.689209 -3.66476 0
M  V30 6676 N 665.145 1.52092 -0.413018 0
M  V30 6677 C 666.394 2.01041 0.16287 0
M  V30 6678 C 666.707 1.30288 1.45892 0
M  V30 6679 O 667.913 1.70075 2.11629 0
M  V30 6680 C 666.369 3.58283 0.340806 0
M  V30 6681 C 665.977 4.37955 -0.943377 0
M  V30 6682 C 667.721 4.15452 0.871774 0
M  V30 6683 C 665.628 5.86847 -0.732417 0
M  V30 6684 H 664.558 0.751224 0.0646414 0
M  V30 6685 H 667.209 1.75404 -0.539059 0
M  V30 6686 H 665.591 3.80266 1.10516 0
M  V30 6687 H 666.765 4.2773 -1.71418 0
M  V30 6688 H 665.08 3.92122 -1.40105 0
M  V30 6689 H 667.677 5.24375 1.0457 0
M  V30 6690 H 668.02 3.73057 1.84755 0
M  V30 6691 H 668.553 3.97452 0.166377 0
M  V30 6692 H 665.292 6.33609 -1.67986 0
M  V30 6693 H 664.812 5.998 -0.000980058 0
M  V30 6694 H 666.491 6.45906 -0.376105 0
M  V30 6695 N 666.623 0.143563 1.56945 0
M  V30 6696 C 668.034 -0.37783 1.82837 0
M  V30 6697 C 668.385 -1.64967 1.06209 0
M  V30 6698 O 667.51 -2.14221 0.306291 0
M  V30 6699 C 668.105 -0.692274 3.31652 0
M  V30 6700 C 666.664 -1.1582 3.58138 0
M  V30 6701 C 665.811 -0.17951 2.76718 0
M  V30 6702 H 668.762 0.368317 1.54367 0
M  V30 6703 H 668.783 -1.54729 3.47619 0
M  V30 6704 H 668.295 0.233572 3.87397 0
M  V30 6705 H 666.396 -2.10011 3.07776 0
M  V30 6706 H 666.509 -1.08655 4.66616 0
M  V30 6707 H 664.873 -0.671458 2.4569 0
M  V30 6708 H 665.656 0.739865 3.35233 0
M  V30 6709 N 668.101 -1.57061 -0.130224 0
M  V30 6710 C 669.329 -1.88432 -0.854456 0
M  V30 6711 C 669.744 -0.733608 -1.73964 0
M  V30 6712 O 669.101 0.296029 -1.80083 0
M  V30 6713 C 669.152 -3.1918 -1.69724 0
M  V30 6714 O 668.873 -4.2982 -0.847705 0
M  V30 6715 C 670.374 -3.6418 -2.5276 0
M  V30 6716 H 667.594 -0.624193 -0.246221 0
M  V30 6717 H 670.138 -2.04159 -0.11798 0
M  V30 6718 H 668.293 -3.05156 -2.3866 0
M  V30 6719 H 668.707 -5.04689 -1.42792 0
M  V30 6720 H 670.181 -4.58457 -3.07443 0
M  V30 6721 H 670.658 -2.90285 -3.29592 0
M  V30 6722 H 671.264 -3.80954 -1.89087 0
M  V30 6723 N 669.579 0.400081 -1.52437 0
M  V30 6724 C 670.827 1.14392 -1.6661 0
M  V30 6725 C 671.148 1.90792 -0.402927 0
M  V30 6726 O 670.418 1.87042 0.582425 0
M  V30 6727 H 668.998 0.425275 -0.614125 0
M  V30 6728 H 671.66 0.455076 -1.89513 0
M  V30 6729 H 670.756 1.85298 -2.51139 0
M  V30 6730 N 671.057 1.43213 0.657864 0
M  V30 6731 C 672.285 1.48015 1.44566 0
M  V30 6732 C 672.7 0.0965951 1.88553 0
M  V30 6733 O 672.057 -0.892221 1.59203 0
M  V30 6734 C 672.108 2.42199 2.68369 0
M  V30 6735 O 671.829 3.75173 2.26223 0
M  V30 6736 C 673.33 2.56195 3.61772 0
M  V30 6737 H 670.55 0.502861 0.444266 0
M  V30 6738 H 673.094 1.87907 0.806917 0
M  V30 6739 H 671.249 2.05514 3.28394 0
M  V30 6740 H 671.663 4.25776 3.06293 0
M  V30 6741 H 673.137 3.26182 4.4532 0
M  V30 6742 H 673.614 1.60534 4.0881 0
M  V30 6743 H 674.22 2.93671 3.07632 0
M  V30 6744 N 672.536 -0.895792 1.29666 0
M  V30 6745 C 673.785 -1.64131 1.17234 0
M  V30 6746 C 674.098 -1.93665 -0.274416 0
M  V30 6747 O 675.304 -2.66472 -0.520105 0
M  V30 6748 C 673.76 -2.95764 2.05065 0
M  V30 6749 C 673.368 -2.7381 3.54587 0
M  V30 6750 C 675.112 -3.737 2.01367 0
M  V30 6751 C 673.019 -4.01194 4.34508 0
M  V30 6752 H 671.949 -0.615742 0.435175 0
M  V30 6753 H 674.6 -0.992626 1.54335 0
M  V30 6754 H 672.982 -3.61867 1.60837 0
M  V30 6755 H 674.156 -2.16277 4.06892 0
M  V30 6756 H 672.471 -2.09265 3.59996 0
M  V30 6757 H 675.068 -4.68152 2.58337 0
M  V30 6758 H 675.411 -4.04245 0.994575 0
M  V30 6759 H 675.944 -3.14444 2.43659 0
M  V30 6760 H 672.683 -3.75813 5.37071 0
M  V30 6761 H 672.203 -4.58272 3.86971 0
M  V30 6762 H 673.882 -4.69307 4.45376 0
M  V30 6763 N 674.014 -1.12206 -1.10668 0
M  V30 6764 C 674.944 -0.810086 -2.18997 0
M  V30 6765 C 675.925 0.225065 -1.68604 0
M  V30 6766 O 677.11 0.086783 -1.94006 0
M  V30 6767 C 674.24 -0.261262 -3.46316 0
M  V30 6768 C 673.194 -1.2292 -4.09969 0
M  V30 6769 C 672.52 -0.540713 -5.31959 0
M  V30 6770 C 673.82 -2.58295 -4.53962 0
M  V30 6771 H 675.514 -1.7159 -2.45352 0
M  V30 6772 H 673.06 -0.82646 -1.17922 0
M  V30 6773 H 675.013 -0.0307522 -4.21389 0
M  V30 6774 H 673.737 0.679879 -3.19445 0
M  V30 6775 H 672.396 -1.44548 -3.369 0
M  V30 6776 H 672.044 0.405492 -5.01363 0
M  V30 6777 H 671.744 -1.18637 -5.75499 0
M  V30 6778 H 673.268 -0.319184 -6.09765 0
M  V30 6779 H 674.682 -2.40709 -5.20319 0
M  V30 6780 H 673.079 -3.18916 -5.08343 0
M  V30 6781 H 674.149 -3.16918 -3.67002 0
M  V30 6782 N 675.492 1.28418 -0.913599 0
M  V30 6783 C 676.455 2.25564 -0.406624 0
M  V30 6784 C 677.455 1.5387 0.466965 0
M  V30 6785 O 678.645 1.72094 0.270042 0
M  V30 6786 C 675.777 3.38339 0.417053 0
M  V30 6787 H 676.97 2.71926 -1.26477 0
M  V30 6788 H 674.523 1.40098 -0.692986 0
M  V30 6789 H 675.258 2.97339 1.29461 0
M  V30 6790 H 675.043 3.91542 -0.209102 0
M  V30 6791 H 676.533 4.10578 0.762602 0
M  V30 6792 N 676.97 0.677563 1.42291 0
M  V30 6793 C 678.219 0.198173 2.00724 0
M  V30 6794 C 678.532 -1.20325 1.54211 0
M  V30 6795 O 679.738 -1.77916 2.05081 0
M  V30 6796 C 678.194 0.303432 3.58619 0
M  V30 6797 C 677.802 1.70909 4.14119 0
M  V30 6798 C 679.546 -0.117103 4.24338 0
M  V30 6799 C 677.453 1.76696 5.64387 0
M  V30 6800 H 676.383 0.070329 0.750713 0
M  V30 6801 H 679.034 0.843147 1.62982 0
M  V30 6802 H 677.416 -0.409482 3.93877 0
M  V30 6803 H 678.59 2.44931 3.90315 0
M  V30 6804 H 676.905 2.07771 3.6086 0
M  V30 6805 H 679.502 -0.0940471 5.34617 0
M  V30 6806 H 679.845 -1.15283 4.00019 0
M  V30 6807 H 680.378 0.5449 3.9405 0
M  V30 6808 H 677.117 2.7826 5.93508 0
M  V30 6809 H 676.637 1.07034 5.90173 0
M  V30 6810 H 678.316 1.52166 6.28852 0
M  V30 6811 N 678.448 -1.51871 0.421078 0
M  V30 6812 C 679.694 -2.02237 -0.151014 0
M  V30 6813 C 680.027 -1.30554 -1.43768 0
M  V30 6814 O 679.302 -0.41546 -1.90011 0
M  V30 6815 C 679.585 -3.5802 -0.386482 0
M  V30 6816 C 679.438 -4.40339 0.9177 0
M  V30 6817 C 680.757 -4.24444 -1.16342 0
M  V30 6818 H 677.876 -0.735062 -0.0534102 0
M  V30 6819 H 680.518 -1.81656 0.556888 0
M  V30 6820 H 678.668 -3.75688 -0.989494 0
M  V30 6821 H 680.34 -4.34357 1.55344 0
M  V30 6822 H 678.583 -4.06073 1.526 0
M  V30 6823 H 679.254 -5.47451 0.707187 0
M  V30 6824 H 681.73 -4.10948 -0.652788 0
M  V30 6825 H 680.606 -5.33358 -1.29693 0
M  V30 6826 H 680.867 -3.84204 -2.18724 0
M  V30 6827 N 679.926 -0.151884 -1.56866 0
M  V30 6828 C 681.154 0.504813 -2.00647 0
M  V30 6829 C 681.569 1.58098 -1.03201 0
M  V30 6830 O 680.926 1.82476 -0.0297814 0
M  V30 6831 C 680.977 1.10099 -3.44326 0
M  V30 6832 O 680.698 0.0678021 -4.38048 0
M  V30 6833 C 682.199 1.83782 -4.03409 0
M  V30 6834 H 679.419 0.130989 -0.65809 0
M  V30 6835 H 681.963 -0.247903 -2.02992 0
M  V30 6836 H 680.118 1.8043 -3.42817 0
M  V30 6837 H 680.532 0.505237 -5.22061 0
M  V30 6838 H 682.006 2.2078 -5.05925 0
M  V30 6839 H 682.483 2.72557 -3.44397 0
M  V30 6840 H 683.089 1.18138 -4.08563 0
M  V30 6841 N 681.404 1.57128 0.121893 0
M  V30 6842 C 682.632 1.88883 0.844451 0
M  V30 6843 C 683.047 0.742824 1.73573 0
M  V30 6844 O 682.404 -0.286475 1.80238 0
M  V30 6845 C 682.455 3.20076 1.68029 0
M  V30 6846 O 682.176 4.30264 0.824898 0
M  V30 6847 C 683.677 3.65515 2.50826 0
M  V30 6848 H 680.897 0.62549 0.242907 0
M  V30 6849 H 683.441 2.04219 0.107151 0
M  V30 6850 H 681.596 3.06418 2.37038 0
M  V30 6851 H 682.01 5.05439 1.40113 0
M  V30 6852 H 683.484 4.60081 3.05008 0
M  V30 6853 H 683.961 2.92029 3.28048 0
M  V30 6854 H 684.567 3.81952 1.87064 0
M  V30 6855 N 682.882 -0.391992 1.52647 0
M  V30 6856 C 684.107 -1.16312 1.71716 0
M  V30 6857 C 684.532 -1.83042 0.433279 0
M  V30 6858 O 683.89 -1.70705 -0.610707 0
M  V30 6859 C 683.938 -2.18908 2.86551 0
M  V30 6860 O 683.042 -3.2543 2.53316 0
M  V30 6861 H 682.383 -0.338743 0.571095 0
M  V30 6862 H 684.913 -0.457202 1.99426 0
M  V30 6863 H 684.923 -2.62954 3.1196 0
M  V30 6864 H 683.598 -1.69726 3.79692 0
M  V30 6865 H 682.175 -2.86543 2.38637 0
M  V30 6866 N 684.36 -1.4356 -0.65026 0
M  V30 6867 C 685.607 -1.45333 -1.41012 0
M  V30 6868 C 685.935 -0.0787282 -1.94341 0
M  V30 6869 O 685.19 0.916715 -1.72901 0
M  V30 6870 C 685.489 -2.44528 -2.60654 0
M  V30 6871 C 685.155 -3.90331 -2.25727 0
M  V30 6872 C 683.817 -4.3004 -2.15914 0
M  V30 6873 C 686.169 -4.822 -1.97821 0
M  V30 6874 C 683.497 -5.59568 -1.76354 0
M  V30 6875 C 685.849 -6.12095 -1.59759 0
M  V30 6876 C 684.513 -6.50778 -1.48473 0
M  V30 6877 H 683.783 -0.531813 -0.516 0
M  V30 6878 H 686.43 -1.76657 -0.739219 0
M  V30 6879 H 684.735 -2.06619 -3.3289 0
M  V30 6880 H 686.432 -2.43155 -3.18868 0
M  V30 6881 H 683.022 -3.58905 -2.34276 0
M  V30 6882 H 687.206 -4.5229 -2.04322 0
M  V30 6883 H 682.462 -5.88376 -1.66205 0
M  V30 6884 H 686.636 -6.82751 -1.37198 0
M  V30 6885 H 684.263 -7.5105 -1.17591 0
M  V30 6886 N 685.838 0.888903 -1.30139 0
M  V30 6887 C 687.087 1.63507 -1.18103 0
M  V30 6888 C 687.4 1.93808 0.264141 0
M  V30 6889 O 688.606 2.66744 0.505966 0
M  V30 6890 C 687.062 2.94673 -2.0663 0
M  V30 6891 C 686.67 2.71926 -3.56034 0
M  V30 6892 C 688.414 3.72626 -2.03346 0
M  V30 6893 C 686.321 3.98884 -4.3663 0
M  V30 6894 H 685.251 0.613426 -0.438435 0
M  V30 6895 H 687.902 0.984427 -1.54859 0
M  V30 6896 H 686.284 3.61009 -1.62754 0
M  V30 6897 H 687.458 2.14116 -4.08033 0
M  V30 6898 H 685.773 2.07353 -3.61101 0
M  V30 6899 H 688.37 4.66775 -2.60816 0
M  V30 6900 H 688.713 4.03712 -1.016 0
M  V30 6901 H 689.246 3.13147 -2.45324 0
M  V30 6902 H 685.985 3.72959 -5.39056 0
M  V30 6903 H 685.505 4.56214 -3.89396 0
M  V30 6904 H 687.184 4.66938 -4.47859 0
M  V30 6905 N 687.317 1.12792 1.10072 0
M  V30 6906 C 688.547 0.907189 1.85617 0
M  V30 6907 C 688.955 -0.547181 1.81115 0
M  V30 6908 O 688.298 -1.39024 1.20075 0
M  V30 6909 C 688.36 1.30872 3.34832 0
M  V30 6910 C 688.024 2.77516 3.6309 0
M  V30 6911 C 689.021 3.75696 3.59373 0
M  V30 6912 C 686.706 3.14513 3.91646 0
M  V30 6913 C 688.7 5.08888 3.83812 0
M  V30 6914 C 686.387 4.47886 4.15742 0
M  V30 6915 C 687.385 5.44882 4.11816 0
M  V30 6916 O 687.073 6.7585 4.35295 0
M  V30 6917 H 686.805 0.323855 0.593375 0
M  V30 6918 H 689.359 1.50262 1.40038 0
M  V30 6919 H 687.589 0.656518 3.81086 0
M  V30 6920 H 689.278 1.06153 3.91773 0
M  V30 6921 H 690.044 3.48458 3.37345 0
M  V30 6922 H 685.923 2.39622 3.93831 0
M  V30 6923 H 689.467 5.84586 3.80663 0
M  V30 6924 H 685.364 4.74851 4.37249 0
M  V30 6925 H 686.132 6.81853 4.52791 0
M  V30 6926 N 688.795 -1.27931 0.920396 0
M  V30 6927 C 689.725 -2.29487 0.431024 0
M  V30 6928 C 690.706 -1.62435 -0.504861 0
M  V30 6929 O 691.891 -1.89797 -0.411176 0
M  V30 6930 C 689.021 -3.45788 -0.323709 0
M  V30 6931 C 687.975 -4.24784 0.523658 0
M  V30 6932 C 687.301 -5.33488 -0.359809 0
M  V30 6933 C 688.601 -4.90874 1.78437 0
M  V30 6934 H 690.295 -2.70671 1.27975 0
M  V30 6935 H 687.841 -1.30121 0.616813 0
M  V30 6936 H 689.794 -4.15927 -0.676952 0
M  V30 6937 H 688.518 -3.03502 -1.2064 0
M  V30 6938 H 687.177 -3.56382 0.85951 0
M  V30 6939 H 686.825 -4.87445 -1.24124 0
M  V30 6940 H 686.525 -5.87247 0.203605 0
M  V30 6941 H 688.049 -6.06472 -0.708787 0
M  V30 6942 H 689.463 -5.53339 1.49963 0
M  V30 6943 H 687.86 -5.54659 2.29071 0
M  V30 6944 H 688.93 -4.14988 2.50824 0
M  V30 6945 N 690.273 -0.685099 -1.4193 0
M  V30 6946 C 691.498 -0.218842 -2.06242 0
M  V30 6947 C 691.923 1.11923 -1.51178 0
M  V30 6948 O 691.281 1.69837 -0.634446 0
M  V30 6949 C 691.329 -0.175592 -3.60172 0
M  V30 6950 O 690.433 0.852776 -4.03487 0
M  V30 6951 H 689.774 -0.109531 -0.654904 0
M  V30 6952 H 692.304 -0.937013 -1.81882 0
M  V30 6953 H 692.314 -0.00291151 -4.08 0
M  V30 6954 H 690.989 -1.15222 -3.99621 0
M  V30 6955 H 689.566 0.650301 -3.67186 0
M  V30 6956 N 691.751 1.51645 -0.429126 0
M  V30 6957 C 692.991 2.03924 0.139354 0
M  V30 6958 C 693.355 1.30673 1.40672 0
M  V30 6959 O 694.556 1.73282 2.05491 0
M  V30 6960 C 692.827 3.5557 0.361179 0
M  V30 6961 S 694.386 4.29591 0.894241 0
M  V30 6962 H 691.204 0.710103 0.0356986 0
M  V30 6963 H 693.806 1.86491 -0.586644 0
M  V30 6964 H 692.51 4.06455 -0.567686 0
M  V30 6965 H 692.041 3.77283 1.11449 0
M  V30 6966 H 694.056 4.46102 2.17272 0
M  V30 6967 N 693.229 0.160201 1.56784 0
M  V30 6968 C 694.478 -0.487619 1.95717 0
M  V30 6969 C 694.791 -1.65136 1.0483 0
M  V30 6970 O 695.997 -2.36468 1.33398 0
M  V30 6971 C 694.453 -0.91888 3.47972 0
M  V30 6972 C 694.061 0.218655 4.47466 0
M  V30 6973 C 695.805 -1.53575 3.95746 0
M  V30 6974 C 693.712 -0.231614 5.90946 0
M  V30 6975 H 692.642 -0.185939 0.730714 0
M  V30 6976 H 695.293 0.246657 1.81835 0
M  V30 6977 H 693.675 -1.70881 3.57234 0
M  V30 6978 H 694.849 0.995825 4.49911 0
M  V30 6979 H 693.164 0.744767 4.09685 0
M  V30 6980 H 695.761 -1.88448 5.00391 0
M  V30 6981 H 696.104 -2.42959 3.38048 0
M  V30 6982 H 696.637 -0.810467 3.89456 0
M  V30 6983 H 693.376 0.62718 6.52493 0
M  V30 6984 H 692.896 -0.974379 5.91833 0
M  V30 6985 H 694.575 -0.67922 6.43425 0
M  V30 6986 N 694.707 -1.5719 -0.113559 0
M  V30 6987 C 695.953 -1.85412 -0.821597 0
M  V30 6988 C 696.286 -0.746722 -1.7927 0
M  V30 6989 O 695.561 0.246971 -1.92926 0
M  V30 6990 C 695.844 -3.24233 -1.56669 0
M  V30 6991 C 695.697 -4.45578 -0.614823 0
M  V30 6992 C 697.016 -3.60697 -2.52161 0
M  V30 6993 H 694.135 -0.674406 -0.29723 0
M  V30 6994 H 696.777 -1.89807 -0.085694 0
M  V30 6995 H 694.927 -3.20617 -2.19401 0
M  V30 6996 H 696.599 -4.613 0.00407137 0
M  V30 6997 H 694.842 -4.33738 0.0732332 0
M  V30 6998 H 695.513 -5.39395 -1.17292 0
M  V30 6999 H 697.989 -3.65139 -1.99532 0
M  V30 7000 H 696.865 -4.58798 -3.01323 0
M  V30 7001 H 697.126 -2.88403 -3.35076 0
M  V30 7002 N 696.185 0.383891 -1.52853 0
M  V30 7003 C 697.115 1.47559 -1.80965 0
M  V30 7004 C 698.096 1.5669 -0.661986 0
M  V30 7005 O 699.281 1.71556 -0.910072 0
M  V30 7006 C 696.411 2.85114 -1.98312 0
M  V30 7007 C 695.365 2.9082 -3.14019 0
M  V30 7008 C 694.691 4.30873 -3.16627 0
M  V30 7009 C 695.991 2.60001 -4.52986 0
M  V30 7010 H 697.685 1.24283 -2.72386 0
M  V30 7011 H 695.231 0.596445 -1.31067 0
M  V30 7012 H 697.184 3.61496 -2.16561 0
M  V30 7013 H 695.908 3.09738 -1.03585 0
M  V30 7014 H 694.567 2.16886 -2.9556 0
M  V30 7015 H 694.215 4.52545 -2.19573 0
M  V30 7016 H 693.915 4.3561 -3.94357 0
M  V30 7017 H 695.439 5.09154 -3.37038 0
M  V30 7018 H 696.853 3.261 -4.71521 0
M  V30 7019 H 695.25 2.76081 -5.32822 0
M  V30 7020 H 696.32 1.5532 -4.59351 0
M  V30 7021 N 697.663 1.43903 0.642637 0
M  V30 7022 C 698.91 1.46079 1.40239 0
M  V30 7023 C 699.238 0.0890335 1.94296 0
M  V30 7024 O 698.493 -0.907533 1.73385 0
M  V30 7025 C 698.792 2.45907 2.59354 0
M  V30 7026 C 698.458 3.91522 2.23654 0
M  V30 7027 C 697.12 4.31179 2.1363 0
M  V30 7028 C 699.472 4.83242 1.95261 0
M  V30 7029 C 696.8 5.60495 1.73384 0
M  V30 7030 C 699.152 6.12933 1.56511 0
M  V30 7031 C 697.816 6.51556 1.4502 0
M  V30 7032 H 697.086 0.534542 0.513172 0
M  V30 7033 H 699.733 1.77047 0.72984 0
M  V30 7034 H 698.038 2.08381 3.3179 0
M  V30 7035 H 699.735 2.44842 3.17574 0
M  V30 7036 H 696.325 3.60142 2.32369 0
M  V30 7037 H 700.509 4.53367 2.0192 0
M  V30 7038 H 695.765 5.89249 1.63082 0
M  V30 7039 H 699.939 6.83469 1.33576 0
M  V30 7040 H 697.566 7.51663 1.13606 0
M  V30 7041 N 699.141 -0.881989 1.30609 0
M  V30 7042 C 700.389 -1.63082 1.19368 0
M  V30 7043 C 700.71 -1.93376 -0.251147 0
M  V30 7044 O 699.98 -1.5723 -1.16857 0
M  V30 7045 H 698.56 -0.604542 0.438791 0
M  V30 7046 H 701.222 -1.05658 1.63776 0
M  V30 7047 H 700.318 -2.57966 1.7567 0
M  V30 7048 N 700.619 -1.13374 -1.09472 0
M  V30 7049 C 701.582 -0.813639 -2.14272 0
M  V30 7050 C 702.582 0.176677 -1.59826 0
M  V30 7051 O 703.772 -0.0503441 -1.74127 0
M  V30 7052 C 700.904 -0.210897 -3.40247 0
M  V30 7053 H 702.097 -1.74229 -2.44099 0
M  V30 7054 H 699.65 -0.938304 -1.25002 0
M  V30 7055 H 700.385 0.726998 -3.16046 0
M  V30 7056 H 700.17 -0.924048 -3.81056 0
M  V30 7057 H 701.66 -0.00377603 -4.176 0
M  V30 7058 N 702.098 1.27442 -0.927168 0
M  V30 7059 C 703.338 1.96157 -0.574608 0
M  V30 7060 C 703.702 1.71265 0.867897 0
M  V30 7061 O 704.903 2.33664 1.3287 0
M  V30 7062 C 703.174 3.46115 -0.891009 0
M  V30 7063 S 704.733 4.34006 -0.646885 0
M  V30 7064 H 701.551 0.678619 -0.212125 0
M  V30 7065 H 704.153 1.54688 -1.19549 0
M  V30 7066 H 702.857 3.6173 -1.93854 0
M  V30 7067 H 702.388 3.92545 -0.259301 0
M  V30 7068 H 704.403 4.93719 0.495568 0
M  V30 7069 N 703.576 0.692616 1.41565 0
M  V30 7070 C 704.825 0.219452 2.00503 0
M  V30 7071 C 705.138 -1.18683 1.55479 0
M  V30 7072 O 706.344 -1.75731 2.06956 0
M  V30 7073 C 704.8 0.341451 3.58277 0
M  V30 7074 C 704.408 1.75291 4.12283 0
M  V30 7075 C 706.152 -0.0720899 4.24439 0
M  V30 7076 C 704.059 1.82673 5.62481 0
M  V30 7077 H 702.989 0.0782874 0.749925 0
M  V30 7078 H 705.64 0.860386 1.62079 0
M  V30 7079 H 704.022 -0.367683 3.94289 0
M  V30 7080 H 705.196 2.49057 3.87695 0
M  V30 7081 H 703.511 2.11587 3.58636 0
M  V30 7082 H 706.108 -0.0373385 5.34687 0
M  V30 7083 H 706.451 -1.11034 4.0122 0
M  V30 7084 H 706.984 0.586663 3.9345 0
M  V30 7085 H 703.723 2.84539 5.90523 0
M  V30 7086 H 703.243 1.13288 5.89004 0
M  V30 7087 H 704.922 1.58827 6.27203 0
M  V30 7088 N 705.054 -1.51416 0.437162 0
M  V30 7089 C 705.964 -2.31493 -0.380537 0
M  V30 7090 C 706.98 -1.40399 -1.02782 0
M  V30 7091 O 708.156 -1.73471 -1.02323 0
M  V30 7092 C 705.221 -3.1413 -1.46709 0
M  V30 7093 C 704.282 -4.21003 -0.839953 0
M  V30 7094 C 703.515 -4.9969 -1.87473 0
M  V30 7095 O 703.738 -4.79008 -3.09689 0
M  V30 7096 O 702.672 -5.8379 -1.46536 0
M  V30 7097 H 706.498 -3.02469 0.273183 0
M  V30 7098 H 704.083 -1.48059 0.199706 0
M  V30 7099 H 705.965 -3.65505 -2.09724 0
M  V30 7100 H 704.64 -2.45919 -2.10489 0
M  V30 7101 H 703.547 -3.73706 -0.171752 0
M  V30 7102 H 704.88 -4.91587 -0.245638 0
M  V30 7103 N 706.532 -0.168513 -1.56696 0
M  V30 7104 C 707.78 0.476216 -1.96409 0
M  V30 7105 C 708.101 1.63968 -1.05544 0
M  V30 7106 O 707.371 1.95525 -0.121235 0
M  V30 7107 H 705.951 0.178921 -0.725256 0
M  V30 7108 H 708.613 -0.249042 -1.93302 0
M  V30 7109 H 707.709 0.838094 -3.00637 0
M  V30 7110 N 708.01 1.57248 0.105221 0
M  V30 7111 C 709.256 1.85845 0.811753 0
M  V30 7112 C 709.589 0.756219 1.78871 0
M  V30 7113 O 708.864 -0.236736 1.93054 0
M  V30 7114 C 709.147 3.25059 1.54947 0
M  V30 7115 C 709 4.45898 0.591185 0
M  V30 7116 C 710.319 3.6203 2.50245 0
M  V30 7117 H 707.438 0.675973 0.293649 0
M  V30 7118 H 710.08 1.89849 0.0756269 0
M  V30 7119 H 708.23 3.21776 2.17698 0
M  V30 7120 H 709.902 4.61291 -0.0285352 0
M  V30 7121 H 708.145 4.33693 -0.0962343 0
M  V30 7122 H 708.816 5.40009 1.1443 0
M  V30 7123 H 711.292 3.66192 1.97593 0
M  V30 7124 H 710.168 4.60389 2.98886 0
M  V30 7125 H 710.429 2.90176 3.33542 0
M  V30 7126 N 709.488 -0.375779 1.53054 0
M  V30 7127 C 710.734 -1.12114 1.68992 0
M  V30 7128 C 711.067 -1.8926 0.435238 0
M  V30 7129 O 710.342 -1.86044 -0.567278 0
M  V30 7130 C 710.625 -2.08867 2.93337 0
M  V30 7131 C 710.478 -1.35397 4.28938 0
M  V30 7132 C 711.797 -3.09124 3.13257 0
M  V30 7133 H 708.916 -0.406207 0.614951 0
M  V30 7134 H 711.558 -0.403054 1.85676 0
M  V30 7135 H 709.708 -2.70102 2.79244 0
M  V30 7136 H 711.38 -0.770242 4.54824 0
M  V30 7137 H 709.623 -0.655801 4.28814 0
M  V30 7138 H 710.294 -2.06161 5.12056 0
M  V30 7139 H 712.77 -2.57987 3.26469 0
M  V30 7140 H 711.646 -3.74054 4.01715 0
M  V30 7141 H 711.907 -3.78729 2.28072 0
M  V30 7142 N 710.966 -1.44241 -0.634997 0
M  V30 7143 C 711.896 -1.53632 -1.7584 0
M  V30 7144 C 712.877 -0.389603 -1.65578 0
M  V30 7145 O 714.062 -0.609219 -1.84397 0
M  V30 7146 C 711.192 -1.47644 -3.14354 0
M  V30 7147 C 710.146 -2.60752 -3.394 0
M  V30 7148 C 709.472 -2.39817 -4.77904 0
M  V30 7149 C 710.772 -4.02921 -3.32343 0
M  V30 7150 H 712.466 -2.47662 -1.68238 0
M  V30 7151 H 710.012 -1.19197 -0.807969 0
M  V30 7152 H 711.965 -1.52815 -3.92716 0
M  V30 7153 H 710.689 -0.501284 -3.2273 0
M  V30 7154 H 709.348 -2.54965 -2.63417 0
M  V30 7155 H 708.996 -1.40502 -4.82978 0
M  V30 7156 H 708.696 -3.15649 -4.9562 0
M  V30 7157 H 710.22 -2.46799 -5.585 0
M  V30 7158 H 711.634 -4.10098 -4.00615 0
M  V30 7159 H 710.031 -4.78925 -3.61595 0
M  V30 7160 H 711.101 -4.26766 -2.30215 0
M  V30 7161 N 712.444 0.87505 -1.31075 0
M  V30 7162 C 713.86 1.15997 -1.09622 0
M  V30 7163 C 714.06 2.01036 0.136611 0
M  V30 7164 O 713.116 2.38559 0.827397 0
M  V30 7165 C 714.429 1.85702 -2.36506 0
M  V30 7166 C 715.977 1.98425 -2.42067 0
M  V30 7167 C 716.452 2.71544 -3.68819 0
M  V30 7168 N 717.943 2.79084 -3.69684 0
M  V30 7169 C 718.678 3.36259 -4.64454 0
M  V30 7170 N 718.174 3.94406 -5.69575 0
M  V30 7171 N 719.967 3.34169 -4.51982 0
M  V30 7172 H 712.118 0.308258 -2.10151 0
M  V30 7173 H 714.381 0.199145 -0.926847 0
M  V30 7174 H 714.087 1.30663 -3.26527 0
M  V30 7175 H 713.961 2.86017 -2.45915 0
M  V30 7176 H 716.348 2.5263 -1.52518 0
M  V30 7177 H 716.429 0.971682 -2.36626 0
M  V30 7178 H 716.073 2.18008 -4.58732 0
M  V30 7179 H 716.003 3.73198 -3.71525 0
M  V30 7180 H 718.494 2.3781 -2.93691 0
M  V30 7181 H 718.807 4.36129 -6.37974 0
M  V30 7182 H 717.152 3.92797 -5.73355 0
M  V30 7183 H 720.343 2.87977 -3.69035 0
M  V30 7184 H 720.516 3.78431 -5.26017 0
M  V30 7185 N 713.922 1.13953 1.08869 0
M  V30 7186 C 715.199 0.815768 1.77777 0
M  V30 7187 C 715.579 -0.691624 1.99449 0
M  V30 7188 O 714.927 -1.63085 1.60049 0
M  V30 7189 C 715.137 1.60916 3.09689 0
M  V30 7190 C 716.485 1.80549 3.84301 0
M  V30 7191 O 717.509 1.57562 3.19457 0
M  V30 7192 O 716.368 2.18946 5.00724 0
M  V30 7193 H 713.462 0.298445 0.771271 0
M  V30 7194 H 716.008 1.24446 1.15374 0
M  V30 7195 H 714.78 2.6333 2.89435 0
M  V30 7196 H 714.403 1.17578 3.79817 0
M  V30 7197 N 715.4 -1.26948 0.933913 0
M  V30 7198 C 716.347 -2.26635 0.436484 0
M  V30 7199 C 717.317 -1.58397 -0.499953 0
M  V30 7200 O 718.502 -1.86171 -0.417753 0
M  V30 7201 C 715.642 -3.43803 -0.298951 0
M  V30 7202 C 714.755 -4.26736 0.672316 0
M  V30 7203 C 713.89 -5.31134 -0.0835872 0
M  V30 7204 C 712.929 -6.05742 0.879979 0
M  V30 7205 N 712.066 -7.01926 0.156301 0
M  V30 7206 H 716.906 -2.68558 1.29154 0
M  V30 7207 H 714.443 -1.32052 0.648118 0
M  V30 7208 H 716.401 -4.10554 -0.741723 0
M  V30 7209 H 715.031 -3.02814 -1.1182 0
M  V30 7210 H 714.083 -3.59842 1.23361 0
M  V30 7211 H 715.395 -4.78502 1.40846 0
M  V30 7212 H 714.549 -6.03863 -0.585984 0
M  V30 7213 H 713.288 -4.80188 -0.852661 0
M  V30 7214 H 712.293 -5.31846 1.39357 0
M  V30 7215 H 713.518 -6.58777 1.64894 0
M  V30 7216 H 711.464 -6.53301 -0.594413 0
M  V30 7217 H 711.381 -7.51409 0.831906 0
M  V30 7218 H 712.649 -7.78821 -0.325239 0
M  V30 7219 N 716.879 -0.700114 -1.41195 0
M  V30 7220 C 718.126 -0.233006 -2.01155 0
M  V30 7221 C 718.454 1.16883 -1.55462 0
M  V30 7222 O 717.709 1.80395 -0.758695 0
M  V30 7223 C 718.008 -0.243986 -3.56566 0
M  V30 7224 C 717.674 -1.59397 -4.21786 0
M  V30 7225 C 716.336 -1.96355 -4.39316 0
M  V30 7226 C 718.688 -2.48192 -4.58312 0
M  V30 7227 C 716.016 -3.21683 -4.9065 0
M  V30 7228 C 718.368 -3.72857 -5.11039 0
M  V30 7229 C 717.032 -4.09951 -5.26779 0
M  V30 7230 H 716.302 -0.085263 -0.736078 0
M  V30 7231 H 718.949 -0.9001 -1.69028 0
M  V30 7232 H 717.254 0.506663 -3.8851 0
M  V30 7233 H 718.951 0.135031 -4.00773 0
M  V30 7234 H 715.541 -1.29654 -4.08519 0
M  V30 7235 H 719.725 -2.20918 -4.4442 0
M  V30 7236 H 714.981 -3.50412 -5.01021 0
M  V30 7237 H 719.155 -4.41844 -5.38282 0
M  V30 7238 H 716.782 -5.07136 -5.66319 0
M  V30 7239 N 718.357 1.51182 -0.445186 0
M  V30 7240 C 719.605 2.01753 0.11841 0
M  V30 7241 C 719.926 1.33087 1.42523 0
M  V30 7242 O 719.196 0.467891 1.9023 0
M  V30 7243 H 717.776 0.745536 0.0467492 0
M  V30 7244 H 720.438 1.85765 -0.589688 0
M  V30 7245 H 719.534 3.10762 0.288665 0
M  V30 7246 N 719.835 0.176821 1.56605 0
M  V30 7247 C 720.745 -0.763682 2.21822 0
M  V30 7248 C 721.761 -1.24889 1.21156 0
M  V30 7249 O 722.937 -1.29987 1.53836 0
M  V30 7250 C 720.002 -1.97352 2.8505 0
M  V30 7251 C 719.063 -1.53466 4.00932 0
M  V30 7252 C 718.296 -2.68682 4.61135 0
M  V30 7253 O 718.519 -3.85694 4.20234 0
M  V30 7254 O 717.453 -2.42442 5.50913 0
M  V30 7255 H 721.279 -0.238363 3.02763 0
M  V30 7256 H 718.864 -0.0516331 1.49311 0
M  V30 7257 H 720.746 -2.68096 3.25119 0
M  V30 7258 H 719.421 -2.48779 2.07101 0
M  V30 7259 H 718.328 -0.796551 3.65521 0
M  V30 7260 H 719.661 -1.06724 4.8049 0
M  V30 7261 N 721.313 -1.57302 -0.09688 0
M  V30 7262 C 722.276 -2.00976 -1.10188 0
M  V30 7263 C 723.276 -0.903009 -1.3305 0
M  V30 7264 O 724.466 -1.16853 -1.29194 0
M  V30 7265 C 721.598 -2.36893 -2.45142 0
M  V30 7266 H 722.791 -2.9098 -0.726003 0
M  V30 7267 H 720.344 -1.52515 -0.341872 0
M  V30 7268 H 721.079 -1.49837 -2.8761 0
M  V30 7269 H 720.864 -3.17632 -2.29897 0
M  V30 7270 H 722.354 -2.71345 -3.1743 0
M  V30 7271 N 722.791 0.367657 -1.53252 0
M  V30 7272 C 723.721 1.45632 -1.8252 0
M  V30 7273 C 724.702 1.55979 -0.678568 0
M  V30 7274 O 725.887 1.70581 -0.928217 0
M  V30 7275 C 723.017 2.82994 -2.01325 0
M  V30 7276 C 721.971 2.87473 -3.17086 0
M  V30 7277 C 721.297 4.2749 -3.21179 0
M  V30 7278 C 722.597 2.55182 -4.55719 0
M  V30 7279 H 724.291 1.21387 -2.73689 0
M  V30 7280 H 721.837 0.58251 -1.31692 0
M  V30 7281 H 723.79 3.59179 -2.20383 0
M  V30 7282 H 722.514 3.08622 -1.06864 0
M  V30 7283 H 721.173 2.13739 -2.97844 0
M  V30 7284 H 720.821 4.5019 -2.24361 0
M  V30 7285 H 720.521 4.31403 -3.98955 0
M  V30 7286 H 722.045 5.0555 -3.42419 0
M  V30 7287 H 723.459 3.21081 -4.74953 0
M  V30 7288 H 721.856 2.70414 -5.3572 0
M  V30 7289 H 722.926 1.5044 -4.60973 0
M  V30 7290 N 724.269 1.44576 0.627338 0
M  V30 7291 C 725.201 1.47724 1.75243 0
M  V30 7292 C 726.214 0.370193 1.58535 0
M  V30 7293 O 727.403 0.636151 1.66779 0
M  V30 7294 C 724.503 1.2991 3.13012 0
M  V30 7295 C 723.676 2.5393 3.56143 0
M  V30 7296 C 722.735 2.30961 4.72804 0
M  V30 7297 O 721.761 3.04469 4.80923 0
M  V30 7298 N 722.963 1.34261 5.6476 0
M  V30 7299 H 725.728 2.44718 1.73012 0
M  V30 7300 H 723.289 1.40064 0.812022 0
M  V30 7301 H 725.281 1.12385 3.88782 0
M  V30 7302 H 723.851 0.412668 3.09864 0
M  V30 7303 H 723.071 2.86707 2.70542 0
M  V30 7304 H 724.359 3.36411 3.81713 0
M  V30 7305 H 723.757 0.735573 5.60897 0
M  V30 7306 H 722.314 1.22713 6.40144 0
M  V30 7307 N 725.747 -0.868086 1.31537 0
M  V30 7308 C 726.995 -1.61807 1.21091 0
M  V30 7309 C 727.316 -1.93631 -0.230623 0
M  V30 7310 O 726.586 -1.5846 -1.15183 0
M  V30 7311 H 725.166 -0.599854 0.445178 0
M  V30 7312 H 727.828 -1.03915 1.64887 0
M  V30 7313 H 726.924 -2.56088 1.78396 0
M  V30 7314 N 727.225 -1.14528 -1.08264 0
M  V30 7315 C 728.173 -0.829201 -2.17318 0
M  V30 7316 C 729.167 0.193521 -1.68291 0
M  V30 7317 O 730.373 0.0494744 -1.79932 0
M  V30 7318 H 726.748 -0.250435 -0.709074 0
M  V30 7319 H 728.719 -1.75683 -2.41201 0
M  V30 7320 C 727.468 -0.324663 -3.46181 0
M  V30 7321 H 726.791 -1.10299 -3.84284 0
M  V30 7322 H 728.231 -0.142059 -4.23762 0
M  V30 7323 C 726.69 0.952033 -3.23169 0
M  V30 7324 O 727.22 2.02549 -3.46896 0
M  V30 7325 N 725.426 0.887854 -2.76705 0
M  V30 7326 H 724.973 0.0141402 -2.57596 0
M  V30 7327 H 724.931 1.74263 -2.61686 0
M  V30 7328 N 728.703 1.26451 -0.940633 0
M  V30 7329 C 729.633 2.28773 -0.467479 0
M  V30 7330 C 730.614 1.63218 0.478955 0
M  V30 7331 O 731.799 1.90427 0.380929 0
M  V30 7332 C 728.929 3.46259 0.268656 0
M  V30 7333 C 727.883 4.23898 -0.591171 0
M  V30 7334 C 727.209 5.33993 0.274891 0
M  V30 7335 C 728.509 4.87974 -1.86223 0
M  V30 7336 H 730.203 2.68601 -1.32265 0
M  V30 7337 H 727.749 1.29123 -0.637436 0
M  V30 7338 H 729.702 4.16951 0.610696 0
M  V30 7339 H 728.426 3.05383 1.15796 0
M  V30 7340 H 727.085 3.54969 -0.916098 0
M  V30 7341 H 726.733 4.89358 1.16353 0
M  V30 7342 H 726.433 5.86849 -0.297006 0
M  V30 7343 H 727.957 6.07523 0.612213 0
M  V30 7344 H 729.371 5.50883 -1.58747 0
M  V30 7345 H 727.768 5.50945 -2.37866 0
M  V30 7346 H 728.838 4.10945 -2.57394 0
M  V30 7347 N 730.181 0.707592 1.40822 0
M  V30 7348 C 731.427 0.244031 2.01326 0
M  V30 7349 C 731.76 -1.15722 1.55955 0
M  V30 7350 O 731.035 -1.78347 0.776044 0
M  V30 7351 C 731.318 0.315128 3.58718 0
M  V30 7352 C 731.171 1.75419 4.14184 0
M  V30 7353 C 732.49 -0.318251 4.38948 0
M  V30 7354 H 729.609 0.0901471 0.731466 0
M  V30 7355 H 732.251 0.898584 1.67408 0
M  V30 7356 H 730.401 -0.242176 3.87744 0
M  V30 7357 H 732.073 2.36626 3.95987 0
M  V30 7358 H 730.316 2.28449 3.68773 0
M  V30 7359 H 730.987 1.75538 5.23345 0
M  V30 7360 H 733.463 0.156514 4.15806 0
M  V30 7361 H 732.339 -0.238019 5.48384 0
M  V30 7362 H 732.6 -1.40067 4.19325 0
M  V30 7363 N 731.66 -1.50943 0.453197 0
M  V30 7364 C 732.909 -2.01402 -0.10951 0
M  V30 7365 C 733.222 -1.3411 -1.42386 0
M  V30 7366 O 734.428 -1.75626 -2.07045 0
M  V30 7367 C 732.884 -3.5906 -0.245693 0
M  V30 7368 C 732.492 -4.353 1.05916 0
M  V30 7369 C 734.236 -4.17617 -0.761318 0
M  V30 7370 C 732.143 -5.84699 0.887752 0
M  V30 7371 H 731.073 -0.752674 -0.0447013 0
M  V30 7372 H 733.724 -1.73913 0.585375 0
M  V30 7373 H 732.106 -3.83062 -1.00395 0
M  V30 7374 H 733.28 -4.23034 1.82698 0
M  V30 7375 H 731.595 -3.88269 1.50452 0
M  V30 7376 H 734.192 -5.26963 -0.906306 0
M  V30 7377 H 734.535 -3.77824 -1.74799 0
M  V30 7378 H 735.068 -3.97753 -0.0609416 0
M  V30 7379 H 731.807 -6.28933 1.84726 0
M  V30 7380 H 731.327 -5.99587 0.160006 0
M  V30 7381 H 733.006 -6.44682 0.547223 0
M  V30 7382 N 733.138 -0.185124 -1.56509 0
M  V30 7383 C 734.386 0.455357 -1.96903 0
M  V30 7384 C 734.707 1.62839 -1.07277 0
M  V30 7385 O 733.977 1.95385 -0.141966 0
M  V30 7386 H 732.557 0.171218 -0.727113 0
M  V30 7387 H 735.219 -0.26953 -1.93027 0
M  V30 7388 H 734.315 0.80616 -3.01509 0
M  V30 7389 N 734.616 1.57351 0.0885366 0
M  V30 7390 C 735.549 1.97786 1.13825 0
M  V30 7391 C 736.527 0.852091 1.38485 0
M  V30 7392 O 737.711 1.11296 1.52137 0
M  V30 7393 C 734.838 2.30024 2.48609 0
M  V30 7394 C 733.884 3.52437 2.40189 0
M  V30 7395 S 734.717 5.03908 1.81209 0
M  V30 7396 C 735.873 5.39331 3.17605 0
M  V30 7397 H 736.106 2.86513 0.793587 0
M  V30 7398 H 733.639 1.51527 0.29646 0
M  V30 7399 H 735.597 2.49274 3.26148 0
M  V30 7400 H 734.258 1.41856 2.80242 0
M  V30 7401 H 733.451 3.72457 3.39546 0
M  V30 7402 H 733.053 3.32731 1.70781 0
M  V30 7403 H 735.345 5.36378 4.13891 0
M  V30 7404 H 736.288 6.4029 3.02381 0
M  V30 7405 H 736.696 4.6679 3.17438 0
M  V30 7406 N 736.094 -0.359525 1.53444 0
M  V30 7407 C 737.024 -1.44662 1.8329 0
M  V30 7408 C 738.005 -1.55617 0.68683 0
M  V30 7409 O 739.19 -1.70086 0.93725 0
M  V30 7410 C 736.32 -2.81923 2.02822 0
M  V30 7411 C 735.274 -2.85787 3.18606 0
M  V30 7412 C 734.6 -4.25781 3.23442 0
M  V30 7413 C 735.9 -2.52762 4.57065 0
M  V30 7414 H 737.594 -1.19934 2.74329 0
M  V30 7415 H 735.14 -0.575517 1.31999 0
M  V30 7416 H 737.093 -3.58005 2.22285 0
M  V30 7417 H 735.817 -3.08051 1.085 0
M  V30 7418 H 734.476 -2.12157 2.98973 0
M  V30 7419 H 734.124 -4.48994 2.26745 0
M  V30 7420 H 733.824 -4.29281 4.01238 0
M  V30 7421 H 735.348 -5.03727 3.45096 0
M  V30 7422 H 736.762 -3.18557 4.76649 0
M  V30 7423 H 735.159 -2.67569 5.37147 0
M  V30 7424 H 736.229 -1.47993 4.61764 0
M  V30 7425 N 737.572 -1.44907 -0.619662 0
M  V30 7426 C 738.535 -1.52282 -1.71297 0
M  V30 7427 C 739.535 -0.40359 -1.55653 0
M  V30 7428 O 740.725 -0.666638 -1.6094 0
M  V30 7429 C 737.857 -1.40778 -3.10474 0
M  V30 7430 H 739.05 -2.49683 -1.66128 0
M  V30 7431 H 736.603 -1.32168 -0.834339 0
M  V30 7432 H 737.338 -0.445156 -3.2123 0
M  V30 7433 H 737.123 -2.21947 -3.23237 0
M  V30 7434 H 738.613 -1.48946 -3.90135 0
M  V30 7435 N 739.05 0.861098 -1.31996 0
M  V30 7436 C 740.296 1.61707 -1.23379 0
M  V30 7437 C 740.651 1.91315 0.204026 0
M  V30 7438 O 739.944 1.53997 1.13998 0
M  V30 7439 C 740.138 2.94822 -2.02027 0
M  V30 7440 C 739.967 2.78212 -3.5331 0
M  V30 7441 C 738.737 2.76933 -4.22654 0
M  V30 7442 C 740.935 2.52432 -4.48088 0
M  V30 7443 N 738.917 2.51466 -5.60034 0
M  V30 7444 C 740.288 2.36312 -5.73198 0
M  V30 7445 C 742.343 2.37848 -4.37416 0
M  V30 7446 C 741.046 2.0709 -6.88844 0
M  V30 7447 C 743.072 2.10016 -5.52854 0
M  V30 7448 C 742.434 1.94691 -6.7696 0
M  V30 7449 H 738.533 0.595703 -0.506618 0
M  V30 7450 H 741.117 1.01275 -1.66287 0
M  V30 7451 H 739.288 3.53243 -1.61474 0
M  V30 7452 H 741.02 3.59756 -1.85358 0
M  V30 7453 H 737.775 2.89638 -3.74709 0
M  V30 7454 H 738.199 2.41679 -6.32392 0
M  V30 7455 H 742.841 2.4842 -3.42122 0
M  V30 7456 H 740.559 1.95256 -7.84156 0
M  V30 7457 H 744.145 1.99519 -5.46519 0
M  V30 7458 H 743.025 1.7346 -7.64775 0
M  V30 7459 N 740.528 1.15101 1.07655 0
M  V30 7460 C 741.939 0.933848 1.61667 0
M  V30 7461 C 742.29 -0.525569 1.8903 0
M  V30 7462 O 741.415 -1.39605 1.65346 0
M  V30 7463 C 742.01 1.68876 2.93711 0
M  V30 7464 C 740.569 1.51697 3.44478 0
M  V30 7465 C 739.716 1.70633 2.18586 0
M  V30 7466 H 742.667 1.30171 0.907816 0
M  V30 7467 H 742.688 1.15645 3.625 0
M  V30 7468 H 742.2 2.7509 2.73764 0
M  V30 7469 H 740.301 0.478635 3.69513 0
M  V30 7470 H 740.414 2.29194 4.20722 0
M  V30 7471 H 738.778 1.13259 2.28132 0
M  V30 7472 H 739.561 2.78206 2.01137 0
M  V30 7473 N 742.006 -1.2595 0.947325 0
M  V30 7474 C 743.231 -1.98083 0.614633 0
M  V30 7475 C 743.656 -1.70013 -0.804815 0
M  V30 7476 O 743.014 -0.95175 -1.54309 0
M  V30 7477 C 743.062 -3.4993 0.870706 0
M  V30 7478 O 742.166 -4.12364 -0.0541451 0
M  V30 7479 H 741.507 -0.621232 0.234451 0
M  V30 7480 H 744.037 -1.60259 1.27193 0
M  V30 7481 H 744.047 -4.00198 0.794051 0
M  V30 7482 H 742.722 -3.69691 1.90529 0
M  V30 7483 H 741.299 -3.72826 0.0740917 0
M  V30 7484 N 743.484 -0.715051 -1.40445 0
M  V30 7485 C 744.895 -0.326763 -1.83818 0
M  V30 7486 C 745.246 1.13851 -1.59789 0
M  V30 7487 O 744.371 1.87611 -1.07848 0
M  V30 7488 C 744.966 -0.586297 -3.33688 0
M  V30 7489 C 743.525 -0.251724 -3.75557 0
M  V30 7490 C 742.672 -0.858928 -2.63662 0
M  V30 7491 H 745.623 -0.914241 -1.2972 0
M  V30 7492 H 745.644 0.148636 -3.8021 0
M  V30 7493 H 745.156 -1.65281 -3.51146 0
M  V30 7494 H 743.257 0.809754 -3.63695 0
M  V30 7495 H 743.37 -0.720348 -4.73654 0
M  V30 7496 H 741.734 -0.287013 -2.53078 0
M  V30 7497 H 742.517 -1.9297 -2.83932 0
M  V30 7498 N 744.962 1.50701 -0.461195 0
M  V30 7499 C 746.208 2.03203 0.0895017 0
M  V30 7500 C 746.563 1.33768 1.38289 0
M  V30 7501 O 745.856 0.451304 1.86209 0
M  V30 7502 C 746.05 3.55788 0.33908 0
M  V30 7503 C 745.879 4.40009 -0.928571 0
M  V30 7504 C 744.649 4.83475 -1.46903 0
M  V30 7505 C 746.847 4.80972 -1.82129 0
M  V30 7506 N 744.829 5.51985 -2.68673 0
M  V30 7507 C 746.2 5.48792 -2.88491 0
M  V30 7508 C 748.255 4.62937 -1.83285 0
M  V30 7509 C 746.958 6.00489 -3.95987 0
M  V30 7510 C 748.984 5.15568 -2.89731 0
M  V30 7511 C 748.346 5.83355 -3.94812 0
M  V30 7512 H 744.445 0.781968 -0.00702462 0
M  V30 7513 H 747.029 1.84321 -0.627195 0
M  V30 7514 H 745.2 3.74636 1.02481 0
M  V30 7515 H 746.932 3.94944 0.883242 0
M  V30 7516 H 743.687 4.62495 -1.01959 0
M  V30 7517 H 744.111 5.90854 -3.30486 0
M  V30 7518 H 748.753 4.0997 -1.03366 0
M  V30 7519 H 746.471 6.52499 -4.7673 0
M  V30 7520 H 750.057 5.0345 -2.91597 0
M  V30 7521 H 748.937 6.23347 -4.75824 0
M  V30 7522 N 746.441 0.193421 1.56409 0
M  V30 7523 C 747.687 -0.446449 1.97825 0
M  V30 7524 C 748.02 -1.61386 1.08019 0
M  V30 7525 O 747.295 -1.94053 0.131839 0
M  V30 7526 C 747.578 -0.908199 3.48459 0
M  V30 7527 C 747.431 0.260914 4.49043 0
M  V30 7528 C 748.75 -1.77428 4.0275 0
M  V30 7529 H 745.869 -0.160807 0.719243 0
M  V30 7530 H 748.511 0.284006 1.87865 0
M  V30 7531 H 746.661 -1.53062 3.57077 0
M  V30 7532 H 748.333 0.898548 4.52464 0
M  V30 7533 H 746.576 0.912949 4.24085 0
M  V30 7534 H 747.247 -0.104657 5.51901 0
M  V30 7535 H 749.723 -1.24936 3.96901 0
M  V30 7536 H 748.599 -2.06633 5.08521 0
M  V30 7537 H 748.86 -2.72788 3.47907 0
M  V30 7538 N 747.919 -1.57396 -0.0801906 0
M  V30 7539 C 749.168 -1.8602 -0.779702 0
M  V30 7540 C 749.481 -0.784864 -1.79163 0
M  V30 7541 O 750.687 -0.958691 -2.54011 0
M  V30 7542 C 749.143 -3.29942 -1.43758 0
M  V30 7543 C 748.751 -4.45584 -0.464654 0
M  V30 7544 C 750.495 -3.67775 -2.11995 0
M  V30 7545 C 748.402 -5.80544 -1.12797 0
M  V30 7546 H 747.332 -0.69392 -0.294943 0
M  V30 7547 H 749.983 -1.83471 -0.0328527 0
M  V30 7548 H 748.365 -3.27078 -2.2324 0
M  V30 7549 H 749.539 -4.59824 0.299749 0
M  V30 7550 H 747.854 -4.16247 0.112813 0
M  V30 7551 H 750.451 -4.65896 -2.62383 0
M  V30 7552 H 750.794 -2.9715 -2.91561 0
M  V30 7553 H 751.327 -3.72593 -1.39354 0
M  V30 7554 H 748.066 -6.54439 -0.372807 0
M  V30 7555 H 747.586 -5.70119 -1.86344 0
M  V30 7556 H 749.265 -6.25602 -1.6502 0
M  V30 7557 N 749.397 0.351382 -1.53633 0
M  V30 7558 C 750.643 1.09411 -1.70754 0
M  V30 7559 C 750.976 1.88544 -0.465293 0
M  V30 7560 O 750.251 1.86923 0.537608 0
M  V30 7561 C 750.534 2.04173 -2.96623 0
M  V30 7562 C 750.387 1.28556 -4.31038 0
M  V30 7563 C 751.706 3.04102 -3.18136 0
M  V30 7564 H 748.825 0.396373 -0.621335 0
M  V30 7565 H 751.467 0.373464 -1.86293 0
M  V30 7566 H 749.617 2.65625 -2.83506 0
M  V30 7567 H 751.289 0.697786 -4.55992 0
M  V30 7568 H 749.532 0.587498 -4.29803 0
M  V30 7569 H 750.203 1.97989 -5.15271 0
M  V30 7570 H 752.679 2.5276 -3.30532 0
M  V30 7571 H 751.555 3.67616 -4.07615 0
M  V30 7572 H 751.816 3.75053 -2.34068 0
M  V30 7573 N 750.875 1.45233 0.611969 0
M  V30 7574 C 752.124 1.48296 1.36716 0
M  V30 7575 C 752.437 0.12706 1.95187 0
M  V30 7576 O 753.643 0.0353066 2.71477 0
M  V30 7577 C 752.099 2.61168 2.47627 0
M  V30 7578 C 751.707 4.03051 1.95587 0
M  V30 7579 C 753.451 2.73472 3.24674 0
M  V30 7580 C 751.358 5.07312 3.03954 0
M  V30 7581 H 750.288 0.5518 0.513841 0
M  V30 7582 H 752.939 1.7136 0.656359 0
M  V30 7583 H 751.321 2.31379 3.21372 0
M  V30 7584 H 752.495 4.42497 1.2858 0
M  V30 7585 H 750.81 3.95158 1.31298 0
M  V30 7586 H 753.407 3.48537 4.05494 0
M  V30 7587 H 753.75 1.79953 3.75397 0
M  V30 7588 H 754.283 3.02765 2.58028 0
M  V30 7589 H 751.022 6.02525 2.58154 0
M  V30 7590 H 750.542 4.7244 3.69541 0
M  V30 7591 H 752.221 5.31867 3.6841 0
M  V30 7592 N 752.353 -0.854086 1.3245 0
M  V30 7593 C 753.601 -1.60513 1.228 0
M  V30 7594 C 753.922 -1.93865 -0.210073 0
M  V30 7595 O 753.192 -1.59673 -1.13496 0
M  V30 7596 H 751.772 -0.595099 0.451516 0
M  V30 7597 H 754.434 -1.0216 1.6598 0
M  V30 7598 H 753.53 -2.54182 1.81102 0
M  V30 7599 N 753.831 -1.1567 -1.07043 0
M  V30 7600 C 755.056 -0.957946 -1.83952 0
M  V30 7601 C 755.481 0.488807 -1.81638 0
M  V30 7602 O 754.839 1.34869 -1.21162 0
M  V30 7603 C 754.887 -1.48064 -3.288 0
M  V30 7604 O 753.991 -0.681921 -4.06723 0
M  V30 7605 H 753.332 -0.341453 -0.569479 0
M  V30 7606 H 755.862 -1.53728 -1.35015 0
M  V30 7607 H 755.872 -1.49484 -3.7963 0
M  V30 7608 H 754.547 -2.53388 -3.29799 0
M  V30 7609 H 753.124 -0.737612 -3.65532 0
M  V30 7610 N 755.309 1.25446 -0.953992 0
M  V30 7611 C 756.556 1.93143 -0.608429 0
M  V30 7612 C 756.884 1.74727 0.854451 0
M  V30 7613 O 756.139 1.0855 1.62836 0
M  V30 7614 C 756.438 3.45555 -0.912496 0
M  V30 7615 C 756.104 3.84126 -2.36131 0
M  V30 7616 C 754.766 3.94367 -2.75732 0
M  V30 7617 C 757.118 4.0324 -3.30223 0
M  V30 7618 C 754.446 4.21127 -4.08496 0
M  V30 7619 C 756.798 4.31493 -4.62598 0
M  V30 7620 C 755.462 4.3995 -5.01996 0
M  V30 7621 H 754.732 0.706762 -0.22264 0
M  V30 7622 H 757.379 1.49005 -1.20291 0
M  V30 7623 H 755.684 3.91091 -0.235618 0
M  V30 7624 H 757.381 3.9612 -0.623714 0
M  V30 7625 H 753.971 3.76711 -2.04418 0
M  V30 7626 H 758.155 3.94744 -3.00817 0
M  V30 7627 H 753.411 4.2589 -4.38665 0
M  V30 7628 H 757.585 4.45227 -5.35486 0
M  V30 7629 H 755.212 4.60439 -6.04896 0
M  V30 7630 N 756.787 0.722489 1.40064 0
M  V30 7631 C 758.034 0.264979 2.00759 0
M  V30 7632 C 758.362 -1.14395 1.57302 0
M  V30 7633 O 757.617 -1.79165 0.787298 0
M  V30 7634 C 757.916 0.300682 3.56133 0
M  V30 7635 C 757.582 1.66087 4.19197 0
M  V30 7636 C 756.244 2.03319 4.36136 0
M  V30 7637 C 758.596 2.55452 4.54306 0
M  V30 7638 C 755.924 3.29448 4.8547 0
M  V30 7639 C 758.276 3.8094 5.05042 0
M  V30 7640 C 756.94 4.1828 5.2019 0
M  V30 7641 H 756.21 0.0969625 0.734629 0
M  V30 7642 H 758.857 0.926877 1.67575 0
M  V30 7643 H 757.162 -0.44479 3.89267 0
M  V30 7644 H 758.859 -0.0712542 4.00937 0
M  V30 7645 H 755.449 1.36137 4.06405 0
M  V30 7646 H 759.633 2.27961 4.40849 0
M  V30 7647 H 754.889 3.58338 4.95382 0
M  V30 7648 H 759.063 4.50351 5.31184 0
M  V30 7649 H 756.69 5.16081 5.58179 0
M  V30 7650 N 758.265 -1.50454 0.469181 0
M  V30 7651 C 759.49 -2.0722 -0.0864892 0
M  V30 7652 C 759.915 -1.33098 -1.32916 0
M  V30 7653 O 759.273 -0.378084 -1.77314 0
M  V30 7654 C 759.321 -3.58845 -0.355384 0
M  V30 7655 O 758.425 -3.86583 -1.43622 0
M  V30 7656 H 757.766 -0.663889 0.0121414 0
M  V30 7657 H 760.296 -1.93674 0.659674 0
M  V30 7658 H 760.306 -4.03617 -0.596447 0
M  V30 7659 H 758.981 -4.12211 0.552698 0
M  V30 7660 H 757.558 -3.5365 -1.18262 0
M  V30 7661 N 759.743 -0.201713 -1.56304 0
M  V30 7662 C 760.971 0.440723 -2.02152 0
M  V30 7663 C 761.386 1.54735 -1.08179 0
M  V30 7664 O 760.743 1.82289 -0.0878196 0
M  V30 7665 C 760.794 0.990884 -3.47655 0
M  V30 7666 O 760.515 -0.0715937 -4.38041 0
M  V30 7667 C 762.016 1.70854 -4.09052 0
M  V30 7668 H 759.236 0.109987 -0.661924 0
M  V30 7669 H 761.78 -0.312358 -2.021 0
M  V30 7670 H 759.935 1.69432 -3.48384 0
M  V30 7671 H 760.349 0.338892 -5.23404 0
M  V30 7672 H 761.823 2.04572 -5.12693 0
M  V30 7673 H 762.3 2.61462 -3.52894 0
M  V30 7674 H 762.906 1.0508 -4.12114 0
M  V30 7675 N 761.222 1.57436 0.0718424 0
M  V30 7676 C 762.462 1.89082 0.776351 0
M  V30 7677 C 762.826 0.795494 1.74745 0
M  V30 7678 O 764.027 0.995025 2.49705 0
M  V30 7679 C 762.298 3.25958 1.46582 0
M  V30 7680 S 763.857 3.79352 2.2054 0
M  V30 7681 H 760.675 0.662472 0.25817 0
M  V30 7682 H 763.277 1.95473 0.0324536 0
M  V30 7683 H 761.981 4.03577 0.745237 0
M  V30 7684 H 761.512 3.22764 2.24915 0
M  V30 7685 H 763.527 3.54634 3.47058 0
M  V30 7686 N 762.7 -0.34323 1.53817 0
M  V30 7687 C 763.948 -1.0813 1.70741 0
M  V30 7688 C 764.269 -1.89165 0.473461 0
M  V30 7689 O 763.539 -1.89075 -0.512605 0
M  V30 7690 H 762.119 -0.40219 0.629486 0
M  V30 7691 H 764.781 -0.384426 1.91071 0
M  V30 7692 H 763.877 -1.7585 2.57843 0
M  V30 7693 N 764.178 -1.45556 -0.604258 0
M  V30 7694 C 765.141 -1.54091 -1.69672 0
M  V30 7695 C 766.141 -0.420076 -1.55216 0
M  V30 7696 O 767.331 -0.683671 -1.60224 0
M  V30 7697 C 764.463 -1.44063 -3.08964 0
M  V30 7698 H 765.656 -2.51431 -1.6347 0
M  V30 7699 H 763.209 -1.33046 -0.820273 0
M  V30 7700 H 763.944 -0.479201 -3.2074 0
M  V30 7701 H 763.729 -2.25362 -3.20865 0
M  V30 7702 H 765.219 -1.53075 -3.88533 0
M  V30 7703 N 765.656 0.84705 -1.32902 0
M  V30 7704 C 766.904 1.5986 -1.2365 0
M  V30 7705 C 767.225 1.93974 0.199789 0
M  V30 7706 O 766.495 1.60273 1.12648 0
M  V30 7707 H 765.075 0.592696 -0.454665 0
M  V30 7708 H 767.737 1.01278 -1.66519 0
M  V30 7709 H 766.833 2.53218 -1.82448 0
M  V30 7710 N 767.134 1.16236 1.06428 0
M  V30 7711 C 768.064 0.890807 2.1584 0
M  V30 7712 C 769.045 -0.162333 1.69324 0
M  V30 7713 O 770.23 -0.0147191 1.94194 0
M  V30 7714 C 767.36 0.389615 3.45108 0
M  V30 7715 C 766.314 1.38051 4.05125 0
M  V30 7716 C 765.64 0.737773 5.29586 0
M  V30 7717 C 766.94 2.74965 4.44062 0
M  V30 7718 H 768.634 1.80577 2.38814 0
M  V30 7719 H 766.18 0.869657 1.14774 0
M  V30 7720 H 768.133 0.187127 4.20984 0
M  V30 7721 H 766.857 -0.560851 3.21748 0
M  V30 7722 H 765.516 1.56952 3.31303 0
M  V30 7723 H 765.164 -0.219135 5.02522 0
M  V30 7724 H 764.864 1.39914 5.70699 0
M  V30 7725 H 766.388 0.545275 6.0816 0
M  V30 7726 H 767.802 2.59855 5.11027 0
M  V30 7727 H 766.199 3.37563 4.96156 0
M  V30 7728 H 767.269 3.30321 3.54987 0
M  V30 7729 N 768.612 -1.24939 0.960631 0
M  V30 7730 C 769.544 -2.24879 0.442937 0
M  V30 7731 C 770.557 -1.56615 -0.444464 0
M  V30 7732 O 771.746 -1.76715 -0.251776 0
M  V30 7733 C 768.846 -3.36757 -0.380537 0
M  V30 7734 C 768.019 -4.34587 0.495283 0
M  V30 7735 C 767.078 -5.25502 -0.270995 0
M  V30 7736 O 766.104 -5.68227 0.332661 0
M  V30 7737 N 767.306 -5.59077 -1.56249 0
M  V30 7738 H 770.071 -2.69932 1.30218 0
M  V30 7739 H 767.632 -1.38907 0.83166 0
M  V30 7740 H 769.624 -3.94542 -0.90103 0
M  V30 7741 H 768.194 -2.91045 -1.14067 0
M  V30 7742 H 767.414 -3.75593 1.19682 0
M  V30 7743 H 768.702 -4.96925 1.09285 0
M  V30 7744 H 768.1 -5.2628 -2.07476 0
M  V30 7745 H 766.657 -6.19421 -2.02882 0
M  V30 7746 N 770.09 -0.729906 -1.39679 0
M  V30 7747 C 771.315 -0.284345 -2.05442 0
M  V30 7748 C 771.74 1.07056 -1.54663 0
M  V30 7749 O 771.098 1.67732 -0.688157 0
M  V30 7750 C 771.146 -0.290089 -3.59431 0
M  V30 7751 O 770.25 0.723978 -4.05995 0
M  V30 7752 H 769.591 -0.130311 -0.651088 0
M  V30 7753 H 772.121 -0.994403 -1.78809 0
M  V30 7754 H 772.131 -0.132712 -4.07784 0
M  V30 7755 H 770.806 -1.27877 -3.95753 0
M  V30 7756 H 769.383 0.533154 -3.69069 0
M  V30 7757 N 771.568 1.50203 -0.477153 0
M  V30 7758 C 772.498 2.31517 0.303646 0
M  V30 7759 C 773.479 1.38696 0.984753 0
M  V30 7760 O 774.664 1.67615 0.980758 0
M  V30 7761 C 771.794 3.18598 1.38249 0
M  V30 7762 C 770.748 4.2002 0.822645 0
M  V30 7763 C 770.074 4.95878 2.00024 0
M  V30 7764 C 771.374 5.22023 -0.170185 0
M  V30 7765 H 773.068 2.97042 -0.375027 0
M  V30 7766 H 770.614 1.42848 -0.181802 0
M  V30 7767 H 772.567 3.74282 1.93625 0
M  V30 7768 H 771.291 2.5097 2.09002 0
M  V30 7769 H 769.95 3.65445 0.290813 0
M  V30 7770 H 769.598 4.24717 2.69489 0
M  V30 7771 H 769.298 5.64487 1.63183 0
M  V30 7772 H 770.822 5.54399 2.55878 0
M  V30 7773 H 772.236 5.72543 0.294606 0
M  V30 7774 H 770.633 5.98386 -0.453181 0
M  V30 7775 H 771.703 4.72396 -1.09408 0
M  V30 7776 N 773.046 0.209999 1.56195 0
M  V30 7777 C 774.274 -0.429996 2.02382 0
M  V30 7778 C 774.689 -1.54159 1.08998 0
M  V30 7779 O 774.046 -1.82239 0.0974856 0
M  V30 7780 C 774.097 -0.972433 3.48175 0
M  V30 7781 O 773.818 0.0948231 4.37997 0
M  V30 7782 C 775.319 -1.68683 4.09952 0
M  V30 7783 H 772.539 -0.106475 0.662498 0
M  V30 7784 H 775.083 0.323072 2.01932 0
M  V30 7785 H 773.238 -1.67582 3.49278 0
M  V30 7786 H 773.652 -0.31113 5.23576 0
M  V30 7787 H 775.126 -2.01851 5.13771 0
M  V30 7788 H 775.603 -2.59587 3.54276 0
M  V30 7789 H 776.209 -1.02893 4.12666 0
M  V30 7790 N 774.524 -1.57472 -0.0634922 0
M  V30 7791 C 775.772 -1.87283 -0.759563 0
M  V30 7792 C 776.093 -0.803135 -1.77693 0
M  V30 7793 O 775.363 0.167293 -1.95184 0
M  V30 7794 H 773.943 -0.691106 -0.283516 0
M  V30 7795 H 776.605 -1.94864 -0.0376091 0
M  V30 7796 H 775.701 -2.85064 -1.27062 0
M  V30 7797 N 776.003 0.335068 -1.53997 0
M  V30 7798 C 776.966 1.39481 -1.81872 0
M  V30 7799 C 777.966 1.4524 -0.690078 0
M  V30 7800 O 779.156 1.45467 -0.958377 0
M  V30 7801 C 776.288 2.78329 -1.9684 0
M  V30 7802 H 777.481 1.16024 -2.76547 0
M  V30 7803 H 775.034 0.569926 -1.45539 0
M  V30 7804 H 775.769 3.07058 -1.04337 0
M  V30 7805 H 775.554 2.75544 -2.78958 0
M  V30 7806 H 777.044 3.55016 -2.19894 0
M  V30 7807 N 777.481 1.45874 0.596531 0
M  V30 7808 C 778.892 1.44798 1.17857 0
M  V30 7809 C 779.243 0.181443 1.95359 0
M  V30 7810 O 778.368 -0.716336 2.042 0
M  V30 7811 C 778.963 2.62333 2.14398 0
M  V30 7812 C 777.522 2.64342 2.67955 0
M  V30 7813 C 776.669 2.37244 1.43564 0
M  V30 7814 H 779.62 1.53954 0.385222 0
M  V30 7815 H 779.641 2.37063 2.97626 0
M  V30 7816 H 779.153 3.54499 1.57963 0
M  V30 7817 H 777.254 1.76213 3.28298 0
M  V30 7818 H 777.367 3.63897 3.11634 0
M  V30 7819 H 775.731 1.87022 1.72901 0
M  V30 7820 H 776.514 3.31568 0.889805 0
M  V30 7821 N 778.959 -0.83999 1.33349 0
M  V30 7822 C 780.375 -1.13049 1.12659 0
M  V30 7823 C 780.575 -2.01328 -0.0832613 0
M  V30 7824 O 779.631 -2.40669 -0.763856 0
M  V30 7825 C 780.944 -1.79366 2.41347 0
M  V30 7826 C 782.492 -1.91937 2.47243 0
M  V30 7827 C 782.967 -2.6167 3.75889 0
M  V30 7828 N 784.458 -2.69184 3.76954 0
M  V30 7829 C 785.193 -3.23827 4.73206 0
M  V30 7830 N 784.689 -3.79166 5.79832 0
M  V30 7831 N 786.482 -3.22068 4.60683 0
M  V30 7832 H 778.633 -0.252432 2.10895 0
M  V30 7833 H 780.896 -0.174501 0.931801 0
M  V30 7834 H 780.602 -1.2196 3.29877 0
M  V30 7835 H 780.476 -2.79396 2.53412 0
M  V30 7836 H 782.863 -2.48498 1.59163 0
M  V30 7837 H 782.944 -0.908604 2.39119 0
M  V30 7838 H 782.588 -2.05769 4.64351 0
M  V30 7839 H 782.518 -3.63217 3.81289 0
M  V30 7840 H 785.009 -2.2994 2.99893 0
M  V30 7841 H 785.322 -4.19061 6.49313 0
M  V30 7842 H 783.667 -3.77457 5.83568 0
M  V30 7843 H 786.858 -2.78092 3.7654 0
M  V30 7844 H 787.031 -3.64351 5.35866 0
M  V30 7845 N 780.437 -1.16799 -1.0581 0
M  V30 7846 C 781.367 -0.902241 -2.15364 0
M  V30 7847 C 782.348 0.153351 -1.69407 0
M  V30 7848 O 783.533 0.00442032 -1.94199 0
M  V30 7849 C 780.663 -0.407911 -3.44896 0
M  V30 7850 C 779.617 -1.40197 -4.04387 0
M  V30 7851 C 778.943 -0.765848 -5.29187 0
M  V30 7852 C 780.243 -2.77316 -4.42598 0
M  V30 7853 H 781.937 -1.81841 -2.37853 0
M  V30 7854 H 779.483 -0.875731 -1.14311 0
M  V30 7855 H 781.436 -0.20945 -4.20879 0
M  V30 7856 H 780.16 0.54378 -3.22041 0
M  V30 7857 H 778.819 -1.58707 -3.30466 0
M  V30 7858 H 778.467 0.192482 -5.02632 0
M  V30 7859 H 778.167 -1.42939 -5.69949 0
M  V30 7860 H 779.691 -0.577519 -6.07863 0
M  V30 7861 H 781.105 -2.62561 -5.09642 0
M  V30 7862 H 779.502 -3.4019 -4.94359 0
M  V30 7863 H 780.572 -3.32199 -3.53231 0
M  V30 7864 N 781.915 1.24427 -0.967243 0
M  V30 7865 C 782.845 2.2773 -0.515899 0
M  V30 7866 C 783.826 1.64197 0.444227 0
M  V30 7867 O 785.011 1.91193 0.340451 0
M  V30 7868 C 782.141 3.46751 0.195149 0
M  V30 7869 C 781.095 4.22548 -0.680953 0
M  V30 7870 C 780.421 5.34456 0.161561 0
M  V30 7871 C 781.721 4.83914 -1.96532 0
M  V30 7872 H 783.415 2.65735 -1.37933 0
M  V30 7873 H 780.961 1.27742 -0.664681 0
M  V30 7874 H 782.914 4.18153 0.522117 0
M  V30 7875 H 781.638 3.07771 1.09292 0
M  V30 7876 H 780.297 3.52946 -0.991186 0
M  V30 7877 H 779.945 4.91716 1.05947 0
M  V30 7878 H 779.645 5.86087 -0.421418 0
M  V30 7879 H 781.169 6.08685 0.483211 0
M  V30 7880 H 782.583 5.47392 -1.70396 0
M  V30 7881 H 780.98 5.45775 -2.49499 0
M  V30 7882 H 782.05 4.05393 -2.66053 0
M  V30 7883 N 783.393 0.737304 1.3929 0
M  V30 7884 C 784.325 0.0592106 2.29124 0
M  V30 7885 C 785.338 -0.701026 1.46934 0
M  V30 7886 O 786.527 -0.544808 1.69983 0
M  V30 7887 C 783.627 -0.940358 3.25592 0
M  V30 7888 C 782.8 -0.241163 4.36735 0
M  V30 7889 C 781.859 -1.14916 5.13498 0
M  V30 7890 O 780.885 -0.625783 5.6575 0
M  V30 7891 N 782.087 -2.47869 5.2492 0
M  V30 7892 H 784.852 0.830647 2.87959 0
M  V30 7893 H 782.413 0.586718 1.50895 0
M  V30 7894 H 784.405 -1.55046 3.73822 0
M  V30 7895 H 782.975 -1.61299 2.67771 0
M  V30 7896 H 782.195 0.549441 3.90352 0
M  V30 7897 H 783.483 0.243299 5.08218 0
M  V30 7898 H 782.881 -2.92864 4.83991 0
M  V30 7899 H 781.438 -3.03969 5.76581 0
M  V30 7900 N 784.871 -1.49948 0.485112 0
M  V30 7901 C 785.834 -2.27351 -0.290546 0
M  V30 7902 C 786.834 -1.32704 -0.908087 0
M  V30 7903 O 788.024 -1.56007 -0.775085 0
M  V30 7904 C 785.156 -3.10135 -1.41524 0
M  V30 7905 H 786.349 -2.97374 0.388454 0
M  V30 7906 H 783.902 -1.54453 0.239586 0
M  V30 7907 H 784.637 -2.44641 -2.12888 0
M  V30 7908 H 784.422 -3.79705 -0.978074 0
M  V30 7909 H 785.912 -3.68638 -1.96204 0
M  V30 7910 N 786.349 -0.21828 -1.56081 0
M  V30 7911 C 787.598 0.414644 -1.97392 0
M  V30 7912 C 787.911 1.61132 -1.10887 0
M  V30 7913 O 789.117 2.31355 -1.42082 0
M  V30 7914 C 787.573 0.789099 -3.51143 0
M  V30 7915 C 787.181 -0.384578 -4.46346 0
M  V30 7916 C 788.925 1.38781 -4.01173 0
M  V30 7917 C 786.832 0.0121288 -5.91399 0
M  V30 7918 H 785.762 0.158691 -0.737111 0
M  V30 7919 H 788.413 -0.313974 -1.80794 0
M  V30 7920 H 786.795 1.57505 -3.6333 0
M  V30 7921 H 787.969 -1.16212 -4.45905 0
M  V30 7922 H 786.284 -0.896306 -4.06639 0
M  V30 7923 H 788.881 1.69746 -5.07041 0
M  V30 7924 H 789.224 2.30245 -3.46833 0
M  V30 7925 H 789.757 0.665364 -3.92196 0
M  V30 7926 H 786.496 -0.868917 -6.49715 0
M  V30 7927 H 786.016 0.754053 -5.95041 0
M  V30 7928 H 787.695 0.439949 -6.45502 0
M  V30 7929 N 787.827 1.57504 0.0551401 0
M  V30 7930 C 788.79 2.03826 1.04821 0
M  V30 7931 C 789.79 0.937968 1.30609 0
M  V30 7932 O 790.98 1.20237 1.2605 0
M  V30 7933 C 788.112 2.43309 2.38775 0
M  V30 7934 H 789.305 2.92802 0.6486 0
M  V30 7935 H 786.858 1.53368 0.301315 0
M  V30 7936 H 787.593 1.5741 2.83536 0
M  V30 7937 H 787.378 3.23615 2.21395 0
M  V30 7938 H 788.868 2.79666 3.10124 0
M  V30 7939 N 789.305 -0.326896 1.54172 0
M  V30 7940 C 790.721 -0.671034 1.44808 0
M  V30 7941 C 790.921 -1.91781 0.618258 0
M  V30 7942 O 789.977 -2.52235 0.115751 0
M  V30 7943 C 791.29 -0.848147 2.88491 0
M  V30 7944 C 792.838 -0.945702 2.98371 0
M  V30 7945 C 793.313 -1.15501 4.43197 0
M  V30 7946 N 794.804 -1.22183 4.46795 0
M  V30 7947 C 795.539 -1.4016 5.56006 0
M  V30 7948 N 795.035 -1.55202 6.75192 0
M  V30 7949 N 796.828 -1.42841 5.43648 0
M  V30 7950 H 788.979 0.49262 2.06608 0
M  V30 7951 H 791.242 0.158574 0.934643 0
M  V30 7952 H 790.948 -0.00329969 3.517 0
M  V30 7953 H 790.822 -1.74497 3.34411 0
M  V30 7954 H 793.209 -1.78106 2.35292 0
M  V30 7955 H 793.29 -0.0254215 2.55787 0
M  V30 7956 H 792.934 -0.324521 5.06862 0
M  V30 7957 H 792.864 -2.08911 4.83388 0
M  V30 7958 H 795.355 -1.12016 3.60917 0
M  V30 7959 H 795.668 -1.68601 7.54184 0
M  V30 7960 H 794.013 -1.52306 6.78106 0
M  V30 7961 H 797.204 -1.30683 4.49488 0
M  V30 7962 H 797.377 -1.56509 6.28816 0
M  V30 7963 N 790.784 -1.46188 -0.588786 0
M  V30 7964 C 792.061 -1.41659 -1.34878 0
M  V30 7965 C 792.441 -0.0968913 -2.10878 0
M  V30 7966 O 791.789 0.921468 -2.09096 0
M  V30 7967 C 791.999 -2.6424 -2.27988 0
M  V30 7968 C 793.347 -3.1013 -2.90008 0
M  V30 7969 O 794.371 -2.64745 -2.38303 0
M  V30 7970 O 793.23 -3.88944 -3.83908 0
M  V30 7971 H 790.324 -0.563058 -0.605718 0
M  V30 7972 H 792.87 -1.58346 -0.610309 0
M  V30 7973 H 791.642 -3.51853 -1.71217 0
M  V30 7974 H 791.265 -2.49982 -3.09184 0
M  V30 7975 N 792.262 0.832906 -1.33792 0
M  V30 7976 C 793.51 1.58539 -1.25338 0
M  V30 7977 C 793.831 1.94175 0.179204 0
M  V30 7978 O 793.101 1.61458 1.10941 0
M  V30 7979 H 791.681 0.58784 -0.460926 0
M  V30 7980 H 794.343 0.995064 -1.67584 0
M  V30 7981 H 793.439 2.51268 -1.85123 0
M  V30 7982 N 793.74 1.17359 1.05189 0
M  V30 7983 C 794.989 0.956412 1.77583 0
M  V30 7984 C 795.302 -0.516018 1.88671 0
M  V30 7985 O 796.508 -0.851401 2.57805 0
M  V30 7986 C 794.964 1.66203 3.19225 0
M  V30 7987 C 794.572 3.17299 3.16267 0
M  V30 7988 C 796.316 1.52725 3.96075 0
M  V30 7989 C 794.223 3.8055 4.52698 0
M  V30 7990 H 793.153 0.354204 0.665624 0
M  V30 7991 H 795.804 1.40612 1.17901 0
M  V30 7992 H 794.186 1.14006 3.79234 0
M  V30 7993 H 795.36 3.76431 2.65776 0
M  V30 7994 H 793.675 3.3079 2.52917 0
M  V30 7995 H 796.272 1.97351 4.96947 0
M  V30 7996 H 796.615 0.477803 4.13549 0
M  V30 7997 H 797.148 2.02139 3.42614 0
M  V30 7998 H 793.887 4.85492 4.4043 0
M  V30 7999 H 793.407 3.26206 5.03339 0
M  V30 8000 H 795.086 3.82757 5.21638 0
M  V30 8001 N 795.218 -1.23913 0.973828 0
M  V30 8002 C 796.464 -1.92436 0.640026 0
M  V30 8003 C 796.797 -1.75875 -0.823512 0
M  V30 8004 O 796.072 -1.11563 -1.59323 0
M  V30 8005 C 796.355 -3.4526 1.0231 0
M  V30 8006 C 796.208 -3.70961 2.54378 0
M  V30 8007 C 797.527 -4.36495 0.562155 0
M  V30 8008 H 794.646 -0.698868 0.233992 0
M  V30 8009 H 797.288 -1.46163 1.21393 0
M  V30 8010 H 795.438 -3.84802 0.534751 0
M  V30 8011 H 797.11 -3.40941 3.10737 0
M  V30 8012 H 795.353 -3.15899 2.97305 0
M  V30 8013 H 796.024 -4.77912 2.76232 0
M  V30 8014 H 798.5 -4.04363 0.981333 0
M  V30 8015 H 797.376 -5.42142 0.858689 0
M  V30 8016 H 797.637 -4.38818 -0.537659 0
M  V30 8017 N 796.696 -0.74468 -1.38897 0
M  V30 8018 C 798.107 -0.36568 -1.83084 0
M  V30 8019 C 798.458 1.10436 -1.62168 0
M  V30 8020 O 797.583 1.85281 -1.11804 0
M  V30 8021 C 798.178 -0.656946 -3.3237 0
M  V30 8022 C 796.737 -0.331329 -3.74939 0
M  V30 8023 C 795.884 -0.914661 -2.61781 0
M  V30 8024 H 798.835 -0.941551 -1.27752 0
M  V30 8025 H 798.856 0.0679546 -3.80439 0
M  V30 8026 H 798.368 -1.72693 -3.47561 0
M  V30 8027 H 796.469 0.732426 -3.6533 0
M  V30 8028 H 796.582 -0.820655 -4.72019 0
M  V30 8029 H 794.946 -0.34063 -2.52412 0
M  V30 8030 H 795.729 -1.98949 -2.79775 0
M  V30 8031 N 798.174 1.49689 -0.493057 0
M  V30 8032 C 799.421 2.02427 0.0542714 0
M  V30 8033 C 799.749 1.37339 1.37725 0
M  V30 8034 O 799.004 0.495523 1.89323 0
M  V30 8035 C 799.303 3.56427 0.263536 0
M  V30 8036 C 798.969 4.40111 -0.98046 0
M  V30 8037 C 797.631 4.62699 -1.32148 0
M  V30 8038 C 799.983 4.88847 -1.80771 0
M  V30 8039 C 797.311 5.31268 -2.48941 0
M  V30 8040 C 799.663 5.587 -2.96711 0
M  V30 8041 C 798.327 5.79536 -3.31202 0
M  V30 8042 H 797.597 0.740734 0.0198593 0
M  V30 8043 H 800.244 1.80073 -0.651603 0
M  V30 8044 H 798.549 3.77416 1.05186 0
M  V30 8045 H 800.246 3.94819 0.701348 0
M  V30 8046 H 796.836 4.22765 -0.704814 0
M  V30 8047 H 801.02 4.71231 -1.55741 0
M  V30 8048 H 796.276 5.45603 -2.75911 0
M  V30 8049 H 800.45 5.9544 -3.61143 0
M  V30 8050 H 798.077 6.32443 -4.21805 0
M  V30 8051 N 799.652 0.226554 1.55963 0
M  V30 8052 C 800.582 -0.676079 2.23498 0
M  V30 8053 C 801.563 -1.19718 1.20837 0
M  V30 8054 O 802.748 -1.24027 1.49436 0
M  V30 8055 C 799.878 -1.88217 2.91876 0
M  V30 8056 C 798.832 -1.4947 4.01052 0
M  V30 8057 C 798.158 -2.77997 4.56751 0
M  V30 8058 C 799.458 -0.680951 5.17842 0
M  V30 8059 H 801.152 -0.112989 2.99187 0
M  V30 8060 H 798.698 -0.0529046 1.43903 0
M  V30 8061 H 800.651 -2.51911 3.37815 0
M  V30 8062 H 799.375 -2.47031 2.13643 0
M  V30 8063 H 798.034 -0.881199 3.55852 0
M  V30 8064 H 797.682 -3.34966 3.75243 0
M  V30 8065 H 797.382 -2.52803 5.30438 0
M  V30 8066 H 798.906 -3.42625 5.05411 0
M  V30 8067 H 800.32 -1.22171 5.60131 0
M  V30 8068 H 798.717 -0.525898 5.97791 0
M  V30 8069 H 799.787 0.311346 4.83899 0
M  V30 8070 N 801.13 -1.57531 -0.0467866 0
M  V30 8071 C 802.062 -2.02156 -1.08007 0
M  V30 8072 C 803.075 -0.931434 -1.33522 0
M  V30 8073 O 804.264 -1.209 -1.31321 0
M  V30 8074 C 801.364 -2.36675 -2.42566 0
M  V30 8075 C 800.537 -3.67848 -2.36658 0
M  V30 8076 C 799.596 -3.89754 -3.53523 0
M  V30 8077 O 798.622 -4.61036 -3.33818 0
M  V30 8078 N 799.824 -3.34025 -4.74771 0
M  V30 8079 H 802.589 -2.91414 -0.699845 0
M  V30 8080 H 800.15 -1.60185 -0.235041 0
M  V30 8081 H 802.142 -2.48482 -3.19435 0
M  V30 8082 H 800.712 -1.53178 -2.72498 0
M  V30 8083 H 799.932 -3.66561 -1.45005 0
M  V30 8084 H 801.22 -4.53931 -2.29835 0
M  V30 8085 H 800.618 -2.76214 -4.93683 0
M  V30 8086 H 799.175 -3.51241 -5.49066 0
M  V30 8087 N 802.608 0.318715 -1.54344 0
M  V30 8088 C 803.854 1.05765 -1.73037 0
M  V30 8089 C 804.187 1.87514 -0.505181 0
M  V30 8090 O 803.462 1.88021 0.497838 0
M  V30 8091 C 803.745 1.97836 -3.00887 0
M  V30 8092 C 803.598 1.19384 -4.33668 0
M  V30 8093 C 804.917 2.97285 -3.24514 0
M  V30 8094 H 802.036 0.383104 -0.629603 0
M  V30 8095 H 804.678 0.333864 -1.87044 0
M  V30 8096 H 802.828 2.59552 -2.89076 0
M  V30 8097 H 804.5 0.600906 -4.57369 0
M  V30 8098 H 802.743 0.496198 -4.30953 0
M  V30 8099 H 803.414 1.87014 -5.19355 0
M  V30 8100 H 805.89 2.45693 -3.35819 0
M  V30 8101 H 804.766 3.58887 -4.15321 0
M  V30 8102 H 805.027 3.70003 -2.41971 0
M  V30 8103 N 804.086 1.46499 0.581025 0
M  V30 8104 C 805.333 1.51896 1.33918 0
M  V30 8105 C 805.661 0.171361 1.93744 0
M  V30 8106 O 804.916 -0.833178 1.77078 0
M  V30 8107 C 805.215 2.56686 2.48691 0
M  V30 8108 C 804.881 4.00656 2.06847 0
M  V30 8109 C 803.543 4.39852 1.9515 0
M  V30 8110 C 805.895 4.91089 1.74589 0
M  V30 8111 C 803.223 5.67345 1.49456 0
M  V30 8112 C 805.575 6.1902 1.30373 0
M  V30 8113 C 804.239 6.57121 1.17255 0
M  V30 8114 H 803.509 0.555826 0.490039 0
M  V30 8115 H 806.156 1.79983 0.654092 0
M  V30 8116 H 804.461 2.22266 3.22653 0
M  V30 8117 H 806.158 2.58091 3.06904 0
M  V30 8118 H 802.748 3.69674 2.16886 0
M  V30 8119 H 806.932 4.61523 1.8251 0
M  V30 8120 H 802.188 5.95635 1.37944 0
M  V30 8121 H 806.362 6.8852 1.04467 0
M  V30 8122 H 803.989 7.55805 0.816236 0
M  V30 8123 N 805.565 -0.825799 1.34232 0
M  V30 8124 C 806.813 -1.57873 1.26177 0
M  V30 8125 C 807.134 -1.94267 -0.168904 0
M  V30 8126 O 806.404 -1.62045 -1.10084 0
M  V30 8127 H 804.984 -0.585388 0.464037 0
M  V30 8128 H 807.646 -0.986163 1.6811 0
M  V30 8129 H 806.742 -2.50283 1.86453 0
M  V30 8130 N 807.043 -1.17915 -1.04565 0
M  V30 8131 C 807.993 -0.869634 -2.10764 0
M  V30 8132 C 808.977 0.158502 -1.60117 0
M  V30 8133 O 810.169 -0.04483 -1.76943 0
M  V30 8134 C 807.298 -0.391642 -3.41059 0
M  V30 8135 C 806.384 -1.45156 -3.98485 0
M  V30 8136 N 806.775 -2.6667 -4.29792 0
M  V30 8137 C 805.073 -1.3109 -4.263 0
M  V30 8138 C 805.774 -3.34823 -4.75677 0
M  V30 8139 N 804.75 -2.62203 -4.76183 0
M  V30 8140 H 808.552 -1.79342 -2.32838 0
M  V30 8141 H 806.066 -1.0688 -1.22272 0
M  V30 8142 H 808.063 -0.151428 -4.16625 0
M  V30 8143 H 806.723 0.525862 -3.20413 0
M  V30 8144 H 807.734 -3.0358 -4.19594 0
M  V30 8145 H 804.411 -0.455545 -4.15007 0
M  V30 8146 H 805.801 -4.38645 -5.0896 0
M  V30 8147 N 808.521 1.23394 -0.980386 0
M  V30 8148 C 809.769 1.91431 -0.647978 0
M  V30 8149 C 810.09 1.76871 0.821066 0
M  V30 8150 O 809.36 1.14808 1.58732 0
M  V30 8151 H 807.94 0.708516 -0.236673 0
M  V30 8152 H 810.602 1.50019 -1.2442 0
M  V30 8153 H 809.698 2.98854 -0.899592 0
M  V30 8154 N 809.999 0.752036 1.385 0
M  V30 8155 C 810.946 0.123288 2.3047 0
M  V30 8156 C 811.916 -0.711326 1.50098 0
M  V30 8157 O 813.101 -0.667775 1.78733 0
M  V30 8158 C 810.241 -0.765085 3.36512 0
M  V30 8159 C 809.354 0.0839885 4.31918 0
M  V30 8160 C 808.489 -0.807243 5.25031 0
M  V30 8161 C 807.528 0.0455583 6.12083 0
M  V30 8162 N 806.665 -0.802547 6.97498 0
M  V30 8163 H 811.505 0.913169 2.83664 0
M  V30 8164 H 809.042 0.46195 1.39658 0
M  V30 8165 H 811 -1.29476 3.966 0
M  V30 8166 H 809.63 -1.52077 2.84732 0
M  V30 8167 H 808.682 0.731276 3.73305 0
M  V30 8168 H 809.994 0.74265 4.9324 0
M  V30 8169 H 809.148 -1.40414 5.90228 0
M  V30 8170 H 807.887 -1.49964 4.64071 0
M  V30 8171 H 806.892 0.655137 5.45883 0
M  V30 8172 H 808.117 0.734994 6.75111 0
M  V30 8173 H 806.063 -1.47992 6.39089 0
M  V30 8174 H 805.98 -0.200747 7.55733 0
M  V30 8175 H 807.248 -1.38447 7.67107 0
M  V30 8176 N 811.477 -1.49425 0.500989 0
M  V30 8177 C 812.44 -2.27646 -0.266416 0
M  V30 8178 C 813.44 -1.3366 -0.893961 0
M  V30 8179 O 814.63 -1.5682 -0.758495 0
M  V30 8180 C 811.762 -3.11618 -1.38227 0
M  V30 8181 H 812.955 -2.96945 0.419973 0
M  V30 8182 H 810.508 -1.5419 0.255954 0
M  V30 8183 H 811.243 -2.46885 -2.10281 0
M  V30 8184 H 811.028 -3.80721 -0.937746 0
M  V30 8185 H 812.518 -3.70698 -1.92283 0
M  V30 8186 N 812.955 -0.234822 -1.55841 0
M  V30 8187 C 813.903 0.686145 -2.22249 0
M  V30 8188 C 814.897 1.18948 -1.20614 0
M  V30 8189 O 816.103 1.14777 -1.38659 0
M  V30 8190 H 812.478 0.239724 -0.712767 0
M  V30 8191 H 814.449 0.102762 -2.98223 0
M  V30 8192 C 813.198 1.8776 -2.92646 0
M  V30 8193 H 812.521 1.49943 -3.70617 0
M  V30 8194 H 813.961 2.4995 -3.42493 0
M  V30 8195 C 812.42 2.74127 -1.95847 0
M  V30 8196 O 812.95 3.7329 -1.48384 0
M  V30 8197 N 811.156 2.4044 -1.63209 0
M  V30 8198 H 810.703 1.59854 -2.02001 0
M  V30 8199 H 810.661 2.98504 -0.987063 0
M  V30 8200 N 814.433 1.57553 0.0384317 0
M  V30 8201 C 815.681 1.88468 0.729672 0
M  V30 8202 C 816.002 0.831302 1.76393 0
M  V30 8203 O 815.272 -0.13622 1.95426 0
M  V30 8204 H 813.852 0.695529 0.272485 0
M  V30 8205 H 816.514 1.94899 0.0066032 0
M  V30 8206 H 815.61 2.8705 1.22511 0
M  V30 8207 N 815.911 -0.310526 1.54511 0
M  V30 8208 C 816.821 -1.4054 1.87844 0
M  V30 8209 C 817.837 -1.55954 0.771635 0
M  V30 8210 O 819.013 -1.70801 1.06719 0
M  V30 8211 C 816.078 -2.75063 2.11048 0
M  V30 8212 C 815.139 -2.68715 3.348 0
M  V30 8213 C 814.372 -3.96821 3.56887 0
M  V30 8214 O 814.595 -4.95721 2.82165 0
M  V30 8215 O 813.529 -3.99291 4.50389 0
M  V30 8216 H 817.355 -1.15275 2.80972 0
M  V30 8217 H 814.94 -0.505732 1.4058 0
M  V30 8218 H 816.822 -3.54671 2.27566 0
M  V30 8219 H 815.497 -3.00191 1.21108 0
M  V30 8220 H 814.404 -1.87611 3.23655 0
M  V30 8221 H 815.737 -2.4854 4.2484 0
M  V30 8222 N 817.389 -1.46805 -0.573248 0
M  V30 8223 C 818.8 -1.46655 -1.15539 0
M  V30 8224 C 819.151 -0.2125 -1.95046 0
M  V30 8225 O 818.276 0.683759 -2.05314 0
M  V30 8226 C 818.871 -2.65711 -2.10198 0
M  V30 8227 C 817.43 -2.68572 -2.63716 0
M  V30 8228 C 816.577 -2.39498 -1.39772 0
M  V30 8229 H 819.528 -1.54547 -0.36068 0
M  V30 8230 H 819.549 -2.41768 -2.93817 0
M  V30 8231 H 819.061 -3.56967 -1.52303 0
M  V30 8232 H 817.162 -1.81414 -3.25453 0
M  V30 8233 H 817.275 -3.68809 -3.05805 0
M  V30 8234 H 815.639 -1.89749 -1.69904 0
M  V30 8235 H 816.422 -3.32942 -0.836943 0
M  V30 8236 N 818.867 0.818669 -1.34668 0
M  V30 8237 C 820.095 1.60674 -1.30351 0
M  V30 8238 C 820.51 1.88408 0.121546 0
M  V30 8239 O 819.867 1.47849 1.06991 0
M  V30 8240 C 819.918 2.94516 -2.09625 0
M  V30 8241 O 819.639 2.6799 -3.46573 0
M  V30 8242 C 821.14 3.8891 -2.12754 0
M  V30 8243 H 818.36 0.499306 -0.448258 0
M  V30 8244 H 820.904 1.01828 -1.77345 0
M  V30 8245 H 819.059 3.49908 -1.66262 0
M  V30 8246 H 819.473 3.53361 -3.87603 0
M  V30 8247 H 820.947 4.79972 -2.72637 0
M  V30 8248 H 821.424 4.24599 -1.12306 0
M  V30 8249 H 822.03 3.39453 -2.56225 0
M  V30 8250 N 820.346 1.18468 1.03938 0
M  V30 8251 C 821.592 0.992302 1.77553 0
M  V30 8252 C 821.947 -0.472959 1.86496 0
M  V30 8253 O 821.24 -1.34662 1.36296 0
M  V30 8254 C 821.434 1.58229 3.20466 0
M  V30 8255 C 821.263 3.1034 3.25452 0
M  V30 8256 C 820.033 3.79166 3.34008 0
M  V30 8257 C 822.231 4.07814 3.13357 0
M  V30 8258 N 820.213 5.18768 3.28258 0
M  V30 8259 C 821.584 5.33946 3.15121 0
M  V30 8260 C 823.639 3.99315 2.97409 0
M  V30 8261 C 822.342 6.52565 3.02574 0
M  V30 8262 C 824.368 5.17532 2.86208 0
M  V30 8263 C 823.73 6.42557 2.88617 0
M  V30 8264 H 819.829 0.417131 0.661457 0
M  V30 8265 H 822.413 1.50265 1.23808 0
M  V30 8266 H 820.584 1.0981 3.72554 0
M  V30 8267 H 822.316 1.32531 3.82384 0
M  V30 8268 H 819.071 3.29905 3.39794 0
M  V30 8269 H 819.495 5.91783 3.28818 0
M  V30 8270 H 824.137 3.03485 2.94375 0
M  V30 8271 H 821.855 7.48592 3.0436 0
M  V30 8272 H 825.441 5.12748 2.7492 0
M  V30 8273 H 824.321 7.32494 2.80039 0
M  V30 8274 N 821.824 -1.22873 0.986916 0
M  V30 8275 C 822.787 -2.2281 0.537442 0
M  V30 8276 C 823.787 -1.56331 -0.37646 0
M  V30 8277 O 824.977 -1.73376 -0.169247 0
M  V30 8278 C 822.109 -3.40195 -0.219082 0
M  V30 8279 H 823.302 -2.64089 1.42116 0
M  V30 8280 H 820.855 -1.35819 0.773488 0
M  V30 8281 H 821.59 -3.04381 -1.11905 0
M  V30 8282 H 821.375 -3.89657 0.437026 0
M  V30 8283 H 822.865 -4.14326 -0.521926 0
M  V30 8284 N 823.302 -0.75937 -1.38099 0
M  V30 8285 C 824.232 -0.151077 -2.33011 0
M  V30 8286 C 825.213 0.697099 -1.5516 0
M  V30 8287 O 826.398 0.637101 -1.83452 0
M  V30 8288 C 823.528 0.738423 -3.39359 0
M  V30 8289 C 822.482 -0.0074741 -4.27999 0
M  V30 8290 C 821.808 1.00066 -5.25253 0
M  V30 8291 C 823.108 -1.17926 -5.08813 0
M  V30 8292 H 824.802 -0.943933 -2.84131 0
M  V30 8293 H 822.348 -0.455362 -1.36611 0
M  V30 8294 H 824.301 1.17369 -4.04725 0
M  V30 8295 H 823.025 1.56366 -2.86735 0
M  V30 8296 H 821.684 -0.423379 -3.64147 0
M  V30 8297 H 821.332 1.82012 -4.68914 0
M  V30 8298 H 821.032 0.506199 -5.85416 0
M  V30 8299 H 822.556 1.43512 -5.93495 0
M  V30 8300 H 823.97 -0.821262 -5.67387 0
M  V30 8301 H 822.367 -1.60497 -5.78239 0
M  V30 8302 H 823.437 -1.98938 -4.42212 0
M  V30 8303 N 824.78 1.49157 -0.508906 0
M  V30 8304 C 825.71 2.32109 0.254469 0
M  V30 8305 C 826.691 1.40754 0.955111 0
M  V30 8306 O 827.876 1.69658 0.944983 0
M  V30 8307 C 825.006 3.21458 1.3146 0
M  V30 8308 C 823.96 4.2167 0.733368 0
M  V30 8309 C 823.286 5.00009 1.8946 0
M  V30 8310 C 824.586 5.21544 -0.280875 0
M  V30 8311 H 826.28 2.9618 -0.43795 0
M  V30 8312 H 823.826 1.4243 -0.212062 0
M  V30 8313 H 825.779 3.78305 1.85643 0
M  V30 8314 H 824.503 2.55346 2.03632 0
M  V30 8315 H 823.162 3.65979 0.213231 0
M  V30 8316 H 822.81 4.30338 2.60419 0
M  V30 8317 H 822.51 5.67821 1.51173 0
M  V30 8318 H 824.034 5.59702 2.44061 0
M  V30 8319 H 825.448 5.73039 0.173095 0
M  V30 8320 H 823.845 5.97291 -0.580006 0
M  V30 8321 H 824.915 4.69969 -1.19404 0
M  V30 8322 N 826.258 0.243083 1.55714 0
M  V30 8323 C 827.188 -0.652336 2.24203 0
M  V30 8324 C 828.169 -1.1843 1.221 0
M  V30 8325 O 829.354 -1.22435 1.50743 0
M  V30 8326 C 826.484 -1.85111 2.93856 0
M  V30 8327 C 825.438 -1.45208 4.02615 0
M  V30 8328 C 824.764 -2.73137 4.59674 0
M  V30 8329 C 826.064 -0.625988 5.18535 0
M  V30 8330 H 827.758 -0.0812504 2.9929 0
M  V30 8331 H 825.304 -0.0376388 1.43951 0
M  V30 8332 H 827.257 -2.48314 3.40468 0
M  V30 8333 H 825.981 -2.44751 2.16251 0
M  V30 8334 H 824.64 -0.843406 3.56766 0
M  V30 8335 H 824.288 -3.30967 3.78774 0
M  V30 8336 H 823.988 -2.47163 5.33089 0
M  V30 8337 H 825.512 -3.37245 5.09017 0
M  V30 8338 H 826.926 -1.16223 5.61396 0
M  V30 8339 H 825.323 -0.462465 5.98315 0
M  V30 8340 H 826.393 0.362652 4.83542 0
M  V30 8341 N 827.736 -1.57571 -0.0300757 0
M  V30 8342 C 828.964 -1.93485 -0.732891 0
M  V30 8343 C 829.379 -0.842758 -1.68947 0
M  V30 8344 O 828.736 0.180904 -1.81601 0
M  V30 8345 C 828.787 -3.29328 -1.49082 0
M  V30 8346 O 828.508 -4.34341 -0.572639 0
M  V30 8347 C 830.009 -3.79517 -2.29088 0
M  V30 8348 H 827.229 -0.638588 -0.206026 0
M  V30 8349 H 829.773 -2.04496 0.0120966 0
M  V30 8350 H 827.928 -3.19716 -2.1877 0
M  V30 8351 H 828.342 -5.12748 -1.10406 0
M  V30 8352 H 829.816 -4.77081 -2.77665 0
M  V30 8353 H 830.293 -3.10659 -3.10464 0
M  V30 8354 H 830.899 -3.92208 -1.64477 0
M  V30 8355 N 829.214 0.302327 -1.54673 0
M  V30 8356 C 830.46 1.03924 -1.74149 0
M  V30 8357 C 830.793 1.86968 -0.525041 0
M  V30 8358 O 830.068 1.88538 0.477868 0
M  V30 8359 C 830.351 1.94633 -3.02969 0
M  V30 8360 C 830.204 1.14778 -4.34909 0
M  V30 8361 C 831.523 2.93826 -3.27649 0
M  V30 8362 H 828.642 0.376405 -0.633631 0
M  V30 8363 H 831.284 0.314007 -1.87387 0
M  V30 8364 H 829.434 2.56471 -2.91813 0
M  V30 8365 H 831.106 0.552363 -4.57981 0
M  V30 8366 H 829.349 0.450462 -4.31455 0
M  V30 8367 H 830.02 1.81495 -5.21309 0
M  V30 8368 H 832.496 2.42117 -3.38406 0
M  V30 8369 H 831.372 3.54462 -4.19104 0
M  V30 8370 H 831.633 3.67416 -2.45882 0
M  V30 8371 N 830.692 1.47107 0.565454 0
M  V30 8372 C 831.622 1.61846 1.68309 0
M  V30 8373 C 832.603 0.468159 1.63531 0
M  V30 8374 O 833.788 0.696504 1.8128 0
M  V30 8375 C 830.918 1.62474 3.06952 0
M  V30 8376 C 829.872 2.76649 3.26572 0
M  V30 8377 C 829.198 2.62345 4.65917 0
M  V30 8378 C 830.498 4.18319 3.12741 0
M  V30 8379 H 832.192 2.55407 1.5623 0
M  V30 8380 H 829.738 1.22916 0.750179 0
M  V30 8381 H 831.691 1.71378 3.84977 0
M  V30 8382 H 830.415 0.654692 3.19971 0
M  V30 8383 H 829.074 2.67242 2.50952 0
M  V30 8384 H 828.722 1.63386 4.75725 0
M  V30 8385 H 828.422 3.38936 4.79996 0
M  V30 8386 H 829.946 2.73165 5.46089 0
M  V30 8387 H 831.36 4.28745 3.80593 0
M  V30 8388 H 829.757 4.95632 3.38333 0
M  V30 8389 H 830.827 4.37263 2.09592 0
M  V30 8390 N 832.17 -0.811516 1.35101 0
M  V30 8391 C 833.419 -1.56343 1.27435 0
M  V30 8392 C 833.732 -1.95019 -0.150696 0
M  V30 8393 O 834.938 -2.6924 -0.349586 0
M  V30 8394 C 833.394 -2.82124 2.23459 0
M  V30 8395 C 833.002 -2.50706 3.71283 0
M  V30 8396 C 834.746 -3.60137 2.24726 0
M  V30 8397 C 832.653 -3.72748 4.59143 0
M  V30 8398 H 831.583 -0.58682 0.473453 0
M  V30 8399 H 834.234 -0.892465 1.60335 0
M  V30 8400 H 832.616 -3.50905 1.83525 0
M  V30 8401 H 833.79 -1.89962 4.19823 0
M  V30 8402 H 832.105 -1.85947 3.72576 0
M  V30 8403 H 834.702 -4.50775 2.87587 0
M  V30 8404 H 835.045 -3.97101 1.24965 0
M  V30 8405 H 835.578 -2.98311 2.63164 0
M  V30 8406 H 832.317 -3.40896 5.59884 0
M  V30 8407 H 831.837 -4.32735 4.15332 0
M  V30 8408 H 833.516 -4.40033 4.74321 0
M  V30 8409 N 833.648 -1.19017 -1.03309 0
M  V30 8410 C 834.888 -1.00129 -1.78195 0
M  V30 8411 C 835.252 0.460236 -1.86402 0
M  V30 8412 O 836.453 0.768802 -2.57571 0
M  V30 8413 C 834.724 -1.64703 -3.17187 0
M  V30 8414 S 836.283 -1.60695 -4.08317 0
M  V30 8415 H 833.101 -0.359395 -0.613479 0
M  V30 8416 H 835.703 -1.51293 -1.23818 0
M  V30 8417 H 834.407 -2.70283 -3.08829 0
M  V30 8418 H 833.938 -1.136 -3.76641 0
M  V30 8419 H 835.953 -0.628171 -4.92208 0
M  V30 8420 N 835.127 1.22348 -0.993418 0
M  V30 8421 C 836.037 2.27987 -0.553076 0
M  V30 8422 C 837.053 1.69378 0.398386 0
M  V30 8423 O 838.229 1.99648 0.26509 0
M  V30 8424 C 835.294 3.46475 0.124809 0
M  V30 8425 C 834.355 4.20399 -0.869682 0
M  V30 8426 C 833.588 5.33229 -0.224052 0
M  V30 8427 O 833.811 5.61885 0.981915 0
M  V30 8428 O 832.745 5.94685 -0.929174 0
M  V30 8429 H 836.571 2.67822 -1.43195 0
M  V30 8430 H 834.156 1.28525 -0.761694 0
M  V30 8431 H 836.038 4.18369 0.504496 0
M  V30 8432 H 834.713 3.08565 0.978243 0
M  V30 8433 H 833.62 3.50774 -1.30031 0
M  V30 8434 H 834.953 4.62191 -1.69233 0
M  V30 8435 N 836.605 0.766683 1.37694 0
M  V30 8436 C 837.833 0.339939 2.04088 0
M  V30 8437 C 838.248 -1.03617 1.57826 0
M  V30 8438 O 837.605 -1.6605 0.757214 0
M  V30 8439 C 837.656 0.368269 3.59619 0
M  V30 8440 O 837.377 1.69009 4.04188 0
M  V30 8441 C 838.878 -0.0707053 4.43244 0
M  V30 8442 H 836.098 0.143189 0.655544 0
M  V30 8443 H 838.642 1.03919 1.76128 0
M  V30 8444 H 836.797 -0.282359 3.8637 0
M  V30 8445 H 837.211 1.62523 4.98685 0
M  V30 8446 H 838.685 0.000273538 5.52 0
M  V30 8447 H 839.162 -1.1204 4.24669 0
M  V30 8448 H 839.768 0.551543 4.21709 0
M  V30 8449 N 838.083 -1.48885 0.516809 0
M  V30 8450 C 839.331 -2.02088 -0.0220166 0
M  V30 8451 C 839.652 -1.39735 -1.36011 0
M  V30 8452 O 838.922 -0.558119 -1.87781 0
M  V30 8453 H 837.502 -0.746917 -0.0111255 0
M  V30 8454 H 840.164 -1.8274 0.677647 0
M  V30 8455 H 839.26 -3.11786 -0.140067 0
M  V30 8456 N 839.561 -0.251338 -1.55583 0
M  V30 8457 C 840.81 0.372681 -1.98227 0
M  V30 8458 C 841.123 1.58743 -1.1428 0
M  V30 8459 O 842.329 2.28289 -1.46957 0
M  V30 8460 C 840.785 0.714439 -3.52738 0
M  V30 8461 C 840.393 -0.479168 -4.4543 0
M  V30 8462 C 842.137 1.3024 -4.04027 0
M  V30 8463 C 840.044 -0.113318 -5.91291 0
M  V30 8464 H 838.974 0.14302 -0.740312 0
M  V30 8465 H 841.625 -0.352253 -1.80087 0
M  V30 8466 H 840.007 1.49762 -3.66589 0
M  V30 8467 H 841.181 -1.25644 -4.4334 0
M  V30 8468 H 839.496 -0.982359 -4.04646 0
M  V30 8469 H 842.093 1.58953 -5.10527 0
M  V30 8470 H 842.436 2.22837 -3.51638 0
M  V30 8471 H 842.969 0.582024 -3.93519 0
M  V30 8472 H 839.708 -1.00654 -6.47726 0
M  V30 8473 H 839.228 0.627666 -5.96507 0
M  V30 8474 H 840.907 0.30293 -6.4629 0
M  V30 8475 N 841.039 1.57585 0.0217189 0
M  V30 8476 C 841.969 2.10073 1.01939 0
M  V30 8477 C 842.95 1.0049 1.37243 0
M  V30 8478 O 844.135 1.28055 1.45999 0
M  V30 8479 C 841.265 2.58618 2.31806 0
M  V30 8480 C 840.219 3.72531 2.10724 0
M  V30 8481 C 839.545 4.07309 3.46415 0
M  V30 8482 C 840.845 5.00672 1.48743 0
M  V30 8483 H 842.539 2.9368 0.582432 0
M  V30 8484 H 840.085 1.41277 0.278715 0
M  V30 8485 H 842.038 2.9396 3.01936 0
M  V30 8486 H 840.762 1.72104 2.77575 0
M  V30 8487 H 839.421 3.37549 1.43025 0
M  V30 8488 H 839.069 3.17851 3.89846 0
M  V30 8489 H 838.769 4.84042 3.33132 0
M  V30 8490 H 840.293 4.45192 4.17895 0
M  V30 8491 H 841.707 5.33925 2.088 0
M  V30 8492 H 840.104 5.82065 1.46013 0
M  V30 8493 H 841.174 4.82769 0.45408 0
M  V30 8494 N 842.517 -0.29412 1.54831 0
M  V30 8495 C 843.766 -1.02614 1.73647 0
M  V30 8496 C 844.079 -1.88193 0.533162 0
M  V30 8497 O 845.285 -2.64713 0.603275 0
M  V30 8498 C 843.741 -1.87417 3.07251 0
M  V30 8499 C 843.349 -1.06806 4.35082 0
M  V30 8500 C 845.093 -2.60176 3.35423 0
M  V30 8501 C 843 -1.90926 5.59733 0
M  V30 8502 H 841.93 -0.386834 0.647206 0
M  V30 8503 H 844.581 -0.282789 1.81308 0
M  V30 8504 H 842.963 -2.65765 2.93572 0
M  V30 8505 H 844.137 -0.330226 4.59615 0
M  V30 8506 H 842.452 -0.455979 4.13896 0
M  V30 8507 H 845.049 -3.23476 4.25755 0
M  V30 8508 H 845.392 -3.29365 2.54606 0
M  V30 8509 H 845.925 -1.88871 3.50103 0
M  V30 8510 H 842.664 -1.26194 6.43238 0
M  V30 8511 H 842.184 -2.62363 5.39375 0
M  V30 8512 H 843.863 -2.48807 5.97247 0
M  V30 8513 N 843.995 -1.47404 -0.557645 0
M  V30 8514 C 844.958 -1.59411 -1.64684 0
M  V30 8515 C 845.958 -0.469244 -1.53801 0
M  V30 8516 O 847.148 -0.734298 -1.57967 0
M  V30 8517 C 844.28 -1.5382 -3.04224 0
M  V30 8518 H 845.473 -2.56504 -1.55389 0
M  V30 8519 H 843.026 -1.35588 -0.777531 0
M  V30 8520 H 843.761 -0.581 -3.19053 0
M  V30 8521 H 843.546 -2.35456 -3.13533 0
M  V30 8522 H 845.036 -1.65358 -3.83466 0
M  V30 8523 N 845.473 0.80434 -1.35529 0
M  V30 8524 C 846.698 1.598 -1.32207 0
M  V30 8525 C 847.123 1.87848 0.0974226 0
M  V30 8526 O 846.481 1.46728 1.06492 0
M  V30 8527 C 846.529 2.90483 -2.13663 0
M  V30 8528 O 845.633 3.83411 -1.51888 0
M  V30 8529 H 844.974 0.485305 -0.453183 0
M  V30 8530 H 847.504 0.998119 -1.78602 0
M  V30 8531 H 847.514 3.39888 -2.257 0
M  V30 8532 H 846.189 2.69395 -3.16859 0
M  V30 8533 H 844.766 3.41967 -1.48704 0
M  V30 8534 N 846.951 1.19563 1.02676 0
M  V30 8535 C 847.881 0.959024 2.12897 0
M  V30 8536 C 848.862 -0.108382 1.69754 0
M  V30 8537 O 850.047 0.0470698 1.94143 0
M  V30 8538 C 847.177 0.499211 3.43693 0
M  V30 8539 C 846.131 1.5087 4.00528 0
M  V30 8540 C 845.457 0.905884 5.2697 0
M  V30 8541 C 846.757 2.88954 4.3509 0
M  V30 8542 H 848.451 1.88084 2.32948 0
M  V30 8543 H 845.997 0.905731 1.11949 0
M  V30 8544 H 847.95 0.320965 4.20176 0
M  V30 8545 H 846.674 -0.458205 3.2337 0
M  V30 8546 H 845.333 1.67413 3.26142 0
M  V30 8547 H 844.981 -0.0591506 5.02965 0
M  V30 8548 H 844.681 1.58 5.65959 0
M  V30 8549 H 846.205 0.73848 6.06118 0
M  V30 8550 H 847.619 2.75981 5.02501 0
M  V30 8551 H 846.016 3.53177 4.85166 0
M  V30 8552 H 847.086 3.41447 3.44299 0
M  V30 8553 N 848.429 -1.21819 0.999893 0
M  V30 8554 C 849.706 -1.86318 0.595384 0
M  V30 8555 C 850.086 -1.8965 -0.927143 0
M  V30 8556 O 849.434 -1.3921 -1.81199 0
M  V30 8557 C 849.644 -3.26837 1.22387 0
M  V30 8558 C 850.992 -4.03272 1.32878 0
M  V30 8559 O 852.016 -3.36129 1.1788 0
M  V30 8560 O 850.875 -5.23477 1.56952 0
M  V30 8561 H 847.969 -0.801638 0.203238 0
M  V30 8562 H 850.515 -1.29542 1.09622 0
M  V30 8563 H 849.287 -3.19084 2.26497 0
M  V30 8564 H 848.91 -3.91226 0.709069 0
M  V30 8565 N 849.908 -0.773975 -1.37286 0
M  V30 8566 C 851.133 -0.349561 -2.04433 0
M  V30 8567 C 851.558 1.02082 -1.5799 0
M  V30 8568 O 850.916 1.65458 -0.741172 0
M  V30 8569 C 850.964 -0.404292 -3.58326 0
M  V30 8570 O 850.068 0.594447 -4.08093 0
M  V30 8571 H 849.409 -0.150959 -0.646612 0
M  V30 8572 H 851.939 -1.05079 -1.75555 0
M  V30 8573 H 851.949 -0.262378 -4.07155 0
M  V30 8574 H 850.624 -1.40403 -3.91484 0
M  V30 8575 H 849.201 0.415468 -3.70578 0
M  V30 8576 N 851.386 1.48609 -0.524698 0
M  V30 8577 C 852.632 2.02797 0.0113382 0
M  V30 8578 C 852.965 1.40147 1.34433 0
M  V30 8579 O 852.24 0.545368 1.86698 0
M  V30 8580 C 852.523 3.59832 0.138931 0
M  V30 8581 C 852.376 4.32971 -1.21886 0
M  V30 8582 C 853.695 4.3145 0.868265 0
M  V30 8583 H 850.814 0.736995 0.00264645 0
M  V30 8584 H 853.456 1.77388 -0.680704 0
M  V30 8585 H 851.606 3.81612 0.72834 0
M  V30 8586 H 853.278 4.22624 -1.84897 0
M  V30 8587 H 851.521 3.94597 -1.80211 0
M  V30 8588 H 852.192 5.41279 -1.08263 0
M  V30 8589 H 854.668 4.14468 0.368145 0
M  V30 8590 H 853.544 5.41025 0.926428 0
M  V30 8591 H 853.805 3.98358 1.91737 0
M  V30 8592 N 852.864 0.259585 1.55447 0
M  V30 8593 C 853.827 -0.621359 2.20617 0
M  V30 8594 C 854.827 -1.09317 1.17925 0
M  V30 8595 O 856.017 -0.995842 1.42929 0
M  V30 8596 C 853.149 -1.85546 2.85982 0
M  V30 8597 H 854.342 -0.0525833 2.99854 0
M  V30 8598 H 851.895 0.0101055 1.56297 0
M  V30 8599 H 852.63 -2.46515 2.10715 0
M  V30 8600 H 852.415 -1.52523 3.61219 0
M  V30 8601 H 853.905 -2.48227 3.35817 0
M  V30 8602 N 854.342 -1.57594 -0.0133615 0
M  V30 8603 C 855.753 -1.78168 -0.557937 0
M  V30 8604 C 856.104 -0.892616 -1.74719 0
M  V30 8605 O 855.229 -0.0915491 -2.16206 0
M  V30 8606 C 855.824 -3.23115 -1.01894 0
M  V30 8607 C 854.383 -3.44831 -1.50892 0
M  V30 8608 C 853.53 -2.73558 -0.454044 0
M  V30 8609 H 856.481 -1.57266 0.212843 0
M  V30 8610 H 856.502 -3.30493 -1.8856 0
M  V30 8611 H 856.014 -3.87798 -0.153175 0
M  V30 8612 H 854.115 -2.85345 -2.39602 0
M  V30 8613 H 854.228 -4.53485 -1.54559 0
M  V30 8614 H 852.592 -2.37787 -0.912666 0
M  V30 8615 H 853.375 -3.40932 0.402524 0
M  V30 8616 N 855.82 0.285905 -1.54985 0
M  V30 8617 C 857.069 1.01691 -1.74189 0
M  V30 8618 C 857.382 1.87908 -0.543135 0
M  V30 8619 O 858.588 2.64389 -0.617305 0
M  V30 8620 C 857.044 1.85785 -3.0824 0
M  V30 8621 C 856.652 1.04497 -4.35642 0
M  V30 8622 C 858.396 2.58393 -3.36798 0
M  V30 8623 C 856.303 1.87955 -5.60738 0
M  V30 8624 H 855.233 0.383396 -0.649248 0
M  V30 8625 H 857.884 0.27317 -1.81455 0
M  V30 8626 H 856.266 2.64205 -2.94978 0
M  V30 8627 H 857.44 0.305847 -4.59784 0
M  V30 8628 H 855.755 0.434023 -4.14132 0
M  V30 8629 H 858.352 3.21214 -4.27464 0
M  V30 8630 H 858.695 3.28011 -2.56349 0
M  V30 8631 H 859.228 1.87012 -3.511 0
M  V30 8632 H 855.967 1.22781 -6.43898 0
M  V30 8633 H 855.487 2.59499 -5.40759 0
M  V30 8634 H 857.166 2.45636 -5.98558 0
M  V30 8635 N 857.298 1.47698 0.54982 0
M  V30 8636 C 858.228 1.63622 1.66583 0
M  V30 8637 C 859.209 0.485477 1.63025 0
M  V30 8638 O 860.394 0.715692 1.80531 0
M  V30 8639 C 857.524 1.65721 3.05211 0
M  V30 8640 C 856.478 2.80097 3.2362 0
M  V30 8641 C 855.804 2.67272 4.63109 0
M  V30 8642 C 857.104 4.21612 3.08286 0
M  V30 8643 H 858.798 2.57049 1.53512 0
M  V30 8644 H 856.344 1.23705 0.737099 0
M  V30 8645 H 858.297 1.75451 3.83138 0
M  V30 8646 H 857.021 0.688593 3.19258 0
M  V30 8647 H 855.68 2.69889 2.48104 0
M  V30 8648 H 855.328 1.68422 4.73965 0
M  V30 8649 H 855.028 3.44008 4.76374 0
M  V30 8650 H 856.552 2.78942 5.43161 0
M  V30 8651 H 857.966 4.32758 3.76024 0
M  V30 8652 H 856.363 4.99193 3.33057 0
M  V30 8653 H 857.433 4.39462 2.04942 0
M  V30 8654 N 858.776 -0.797141 1.35954 0
M  V30 8655 C 860.001 -1.59097 1.33053 0
M  V30 8656 C 860.426 -1.87897 -0.0874592 0
M  V30 8657 O 859.784 -1.47291 -1.05712 0
M  V30 8658 C 859.832 -2.89346 2.152 0
M  V30 8659 O 858.936 -3.826 1.5392 0
M  V30 8660 H 858.277 -0.482895 0.45575 0
M  V30 8661 H 860.807 -0.988633 1.79129 0
M  V30 8662 H 860.817 -3.38686 2.27499 0
M  V30 8663 H 859.492 -2.6771 3.18283 0
M  V30 8664 H 858.069 -3.41174 1.50516 0
M  V30 8665 N 860.254 -1.20106 -1.0204 0
M  V30 8666 C 861.187 -0.889795 -2.10138 0
M  V30 8667 C 862.165 0.156595 -1.61844 0
M  V30 8668 O 863.349 0.0310192 -1.88474 0
M  V30 8669 C 860.476 -0.333227 -3.37057 0
M  V30 8670 C 859.522 -1.36001 -4.04235 0
M  V30 8671 S 860.355 -2.92366 -4.48645 0
M  V30 8672 C 861.511 -2.38274 -5.78771 0
M  V30 8673 H 861.744 -1.80523 -2.36217 0
M  V30 8674 H 859.277 -1.02912 -1.15102 0
M  V30 8675 H 861.235 -0.0186507 -4.10496 0
M  V30 8676 H 859.896 0.560652 -3.09056 0
M  V30 8677 H 859.089 -0.919874 -4.95534 0
M  V30 8678 H 858.691 -1.62186 -3.37004 0
M  V30 8679 H 860.983 -1.77799 -6.53754 0
M  V30 8680 H 861.926 -3.27955 -6.27576 0
M  V30 8681 H 862.334 -1.8054 -5.34851 0
M  V30 8682 N 861.732 1.21287 -1.00634 0
M  V30 8683 C 862.979 1.90389 -0.6898 0
M  V30 8684 C 863.307 1.78193 0.779574 0
M  V30 8685 O 862.562 1.15358 1.58085 0
M  V30 8686 C 862.861 3.41374 -1.05824 0
M  V30 8687 C 862.527 3.73766 -2.5221 0
M  V30 8688 C 861.189 3.82317 -2.92211 0
M  V30 8689 C 863.541 3.88871 -3.47028 0
M  V30 8690 C 860.869 4.03423 -4.2599 0
M  V30 8691 C 863.221 4.11484 -4.80483 0
M  V30 8692 C 861.885 4.18263 -5.20204 0
M  V30 8693 H 861.155 0.696683 -0.252416 0
M  V30 8694 H 863.802 1.43769 -1.26502 0
M  V30 8695 H 862.107 3.8974 -0.401281 0
M  V30 8696 H 863.804 3.93118 -0.79116 0
M  V30 8697 H 860.394 3.67702 -2.20212 0
M  V30 8698 H 864.578 3.8163 -3.17289 0
M  V30 8699 H 859.834 4.06902 -4.56334 0
M  V30 8700 H 864.008 4.22115 -5.53888 0
M  V30 8701 H 861.635 4.34369 -6.23881 0
M  V30 8702 N 863.21 0.781244 1.36873 0
M  V30 8703 C 864.457 0.349889 1.99454 0
M  V30 8704 C 864.785 -1.07621 1.62013 0
M  V30 8705 O 864.04 -1.75665 0.86258 0
M  V30 8706 C 864.339 0.45146 3.54537 0
M  V30 8707 C 864.005 1.83718 4.11775 0
M  V30 8708 C 862.667 2.21634 4.2712 0
M  V30 8709 C 865.019 2.7449 4.43063 0
M  V30 8710 C 862.347 3.49742 4.7106 0
M  V30 8711 C 864.699 4.02017 4.88431 0
M  V30 8712 C 863.363 4.39967 5.01982 0
M  V30 8713 H 862.633 0.128033 0.729855 0
M  V30 8714 H 865.28 0.997117 1.63493 0
M  V30 8715 H 863.585 -0.279288 3.90803 0
M  V30 8716 H 865.282 0.0988609 4.00878 0
M  V30 8717 H 861.872 1.53251 4.00265 0
M  V30 8718 H 866.056 2.46453 4.30783 0
M  V30 8719 H 861.312 3.79026 4.79738 0
M  V30 8720 H 865.486 4.72475 5.11605 0
M  V30 8721 H 863.113 5.39291 5.35788 0
M  V30 8722 N 864.689 -1.48329 0.532571 0
M  V30 8723 C 865.619 -2.32485 -0.217511 0
M  V30 8724 C 866.6 -1.42255 -0.932598 0
M  V30 8725 O 867.785 -1.7114 -0.917873 0
M  V30 8726 C 864.915 -3.23509 -1.26329 0
M  V30 8727 C 863.869 -4.22784 -0.666191 0
M  V30 8728 C 863.195 -5.0296 -1.81482 0
M  V30 8729 C 864.495 -5.21031 0.363813 0
M  V30 8730 H 866.189 -2.95445 0.485014 0
M  V30 8731 H 863.735 -1.42075 0.234694 0
M  V30 8732 H 865.688 -3.81211 -1.79601 0
M  V30 8733 H 864.412 -2.58554 -1.99543 0
M  V30 8734 H 863.071 -3.66272 -0.15498 0
M  V30 8735 H 862.719 -4.34427 -2.5354 0
M  V30 8736 H 862.419 -5.70154 -1.4212 0
M  V30 8737 H 863.943 -5.63514 -2.35126 0
M  V30 8738 H 865.357 -5.73241 -0.0819079 0
M  V30 8739 H 863.754 -5.96292 0.674956 0
M  V30 8740 H 864.824 -4.6801 1.26865 0
M  V30 8741 N 866.167 -0.267825 -1.55308 0
M  V30 8742 C 867.1 0.663973 -2.18327 0
M  V30 8743 C 868.078 1.15759 -1.14187 0
M  V30 8744 O 869.262 1.23189 -1.42677 0
M  V30 8745 C 866.389 1.9047 -2.8007 0
M  V30 8746 C 865.435 1.54718 -3.97447 0
M  V30 8747 S 866.268 0.631654 -5.31762 0
M  V30 8748 C 867.424 1.88092 -5.96969 0
M  V30 8749 H 867.657 0.128486 -2.97022 0
M  V30 8750 H 865.19 -0.052129 -1.54312 0
M  V30 8751 H 867.148 2.61688 -3.16275 0
M  V30 8752 H 865.809 2.41132 -2.01281 0
M  V30 8753 H 865.002 2.47022 -4.39313 0
M  V30 8754 H 864.604 0.915254 -3.62628 0
M  V30 8755 H 866.896 2.82572 -6.15759 0
M  V30 8756 H 867.839 1.50539 -6.91913 0
M  V30 8757 H 868.247 2.04254 -5.26252 0
M  V30 8758 N 867.645 1.57599 0.00500368 0
M  V30 8759 C 868.885 1.92205 0.695456 0
M  V30 8760 C 869.249 0.868894 1.71214 0
M  V30 8761 O 870.45 1.10004 2.4526 0
M  V30 8762 C 868.721 3.31882 1.32625 0
M  V30 8763 S 870.28 3.88364 2.04252 0
M  V30 8764 H 867.098 0.672826 0.22984 0
M  V30 8765 H 869.7 1.95435 -0.0504824 0
M  V30 8766 H 868.404 4.06375 0.573396 0
M  V30 8767 H 867.935 3.32013 2.11023 0
M  V30 8768 H 869.95 3.69035 3.31704 0
M  V30 8769 N 869.123 -0.277682 1.55134 0
M  V30 8770 C 870.353 -1.02677 1.79279 0
M  V30 8771 C 870.761 -1.80599 0.563962 0
M  V30 8772 O 870.104 -1.77416 -0.476378 0
M  V30 8773 C 870.166 -2.03617 2.96277 0
M  V30 8774 C 869.83 -1.44676 4.33495 0
M  V30 8775 C 870.827 -0.864811 5.12657 0
M  V30 8776 C 868.512 -1.47537 4.80144 0
M  V30 8777 C 870.506 -0.319322 6.366 0
M  V30 8778 C 868.193 -0.926016 6.04043 0
M  V30 8779 C 869.191 -0.348988 6.82108 0
M  V30 8780 O 868.879 0.191964 8.03671 0
M  V30 8781 H 868.611 -0.309232 0.601125 0
M  V30 8782 H 871.165 -0.315308 2.02965 0
M  V30 8783 H 869.395 -2.78509 2.68272 0
M  V30 8784 H 871.084 -2.64616 3.07788 0
M  V30 8785 H 871.85 -0.835438 4.7775 0
M  V30 8786 H 867.729 -1.91389 4.19394 0
M  V30 8787 H 871.273 0.131709 6.97476 0
M  V30 8788 H 867.17 -0.952613 6.38432 0
M  V30 8789 H 867.938 0.0808779 8.1846 0
M  V30 8790 N 870.601 -1.47988 -0.541979 0
M  V30 8791 C 871.531 -1.64503 -1.65713 0
M  V30 8792 C 872.512 -0.494116 -1.62765 0
M  V30 8793 O 873.697 -0.725256 -1.80149 0
M  V30 8794 C 870.827 -1.67337 -3.04328 0
M  V30 8795 C 869.781 -2.81809 -3.2213 0
M  V30 8796 C 869.107 -2.69724 -4.61685 0
M  V30 8797 C 870.407 -4.23241 -3.06046 0
M  V30 8798 H 872.101 -2.5786 -1.52147 0
M  V30 8799 H 869.647 -1.24094 -0.730529 0
M  V30 8800 H 871.6 -1.77481 -3.82202 0
M  V30 8801 H 870.324 -0.705514 -3.18889 0
M  V30 8802 H 868.983 -2.71201 -2.46669 0
M  V30 8803 H 868.631 -1.70934 -4.73065 0
M  V30 8804 H 868.331 -3.4653 -4.74543 0
M  V30 8805 H 869.855 -2.81818 -5.41674 0
M  V30 8806 H 871.269 -4.34746 -3.73723 0
M  V30 8807 H 869.666 -5.00952 -3.30405 0
M  V30 8808 H 870.736 -4.40543 -2.02609 0
M  V30 8809 N 872.079 0.78992 -1.36375 0
M  V30 8810 C 873.326 1.54777 -1.30576 0
M  V30 8811 C 873.654 1.94159 0.115095 0
M  V30 8812 O 872.909 1.62918 1.08426 0
M  V30 8813 C 873.208 2.83698 -2.17371 0
M  V30 8814 C 872.874 2.63457 -3.65925 0
M  V30 8815 C 871.536 2.57645 -4.06415 0
M  V30 8816 C 873.888 2.44833 -4.60115 0
M  V30 8817 C 871.216 2.31174 -5.39236 0
M  V30 8818 C 873.568 2.19889 -5.93154 0
M  V30 8819 C 872.232 2.1251 -6.32768 0
M  V30 8820 H 871.502 0.566371 -0.477813 0
M  V30 8821 H 874.149 0.91138 -1.68422 0
M  V30 8822 H 872.454 3.51802 -1.72459 0
M  V30 8823 H 874.151 3.41487 -2.10209 0
M  V30 8824 H 870.741 2.68836 -3.33804 0
M  V30 8825 H 874.925 2.48325 -4.29707 0
M  V30 8826 H 870.181 2.23942 -5.68911 0
M  V30 8827 H 874.355 2.04473 -6.65705 0
M  V30 8828 H 871.982 1.91761 -7.35616 0
M  V30 8829 N 873.557 1.20646 1.01402 0
M  V30 8830 C 874.803 1.0197 1.753 0
M  V30 8831 C 875.136 -0.446803 1.8899 0
M  V30 8832 O 874.411 -1.33169 1.41762 0
M  V30 8833 C 874.694 1.70693 3.17074 0
M  V30 8834 C 874.547 3.24805 3.11162 0
M  V30 8835 C 875.866 1.44212 4.15802 0
M  V30 8836 H 872.985 0.371844 0.636318 0
M  V30 8837 H 875.627 1.48696 1.18277 0
M  V30 8838 H 873.777 1.30968 3.65759 0
M  V30 8839 H 875.449 3.73841 2.70261 0
M  V30 8840 H 873.692 3.55576 2.48492 0
M  V30 8841 H 874.363 3.68049 4.11393 0
M  V30 8842 H 876.839 1.7868 3.75783 0
M  V30 8843 H 875.715 1.94825 5.13161 0
M  V30 8844 H 875.976 0.370252 4.40547 0
M  V30 8845 N 875.035 -1.20752 1.01276 0
M  V30 8846 C 875.983 -2.25432 0.572989 0
M  V30 8847 C 876.977 -1.64935 -0.386354 0
M  V30 8848 O 878.183 -1.7816 -0.256696 0
M  V30 8849 H 874.558 -0.733229 0.166972 0
M  V30 8850 H 876.529 -2.59856 1.46687 0
M  V30 8851 C 875.278 -3.47615 -0.0768249 0
M  V30 8852 H 874.601 -3.94442 0.652354 0
M  V30 8853 H 876.041 -4.22572 -0.3477 0
M  V30 8854 C 874.5 -3.1003 -1.31845 0
M  V30 8855 O 875.03 -3.21216 -2.41211 0
M  V30 8856 N 873.236 -2.64616 -1.20111 0
M  V30 8857 H 872.783 -2.55714 -0.311184 0
M  V30 8858 H 872.741 -2.39838 -2.03286 0
M  V30 8859 N 876.513 -0.788492 -1.36457 0
M  V30 8860 C 877.443 -0.200468 -2.32638 0
M  V30 8861 C 878.424 0.664031 -1.56603 0
M  V30 8862 O 879.609 0.598045 -1.84762 0
M  V30 8863 C 876.739 0.666274 -3.40849 0
M  V30 8864 C 875.693 -0.0982574 -4.27887 0
M  V30 8865 C 875.019 0.889018 -5.27258 0
M  V30 8866 C 876.319 -1.28692 -5.06197 0
M  V30 8867 H 878.013 -1.00399 -2.82065 0
M  V30 8868 H 875.559 -0.484237 -1.35614 0
M  V30 8869 H 877.512 1.08757 -4.07124 0
M  V30 8870 H 876.236 1.50249 -2.89987 0
M  V30 8871 H 874.895 -0.500525 -3.63167 0
M  V30 8872 H 874.543 1.72024 -4.7267 0
M  V30 8873 H 874.243 0.381909 -5.86358 0
M  V30 8874 H 875.767 1.30891 -5.96406 0
M  V30 8875 H 877.181 -0.941429 -5.65517 0
M  V30 8876 H 875.578 -1.72726 -5.74705 0
M  V30 8877 H 876.648 -2.08273 -4.37893 0
M  V30 8878 N 877.991 1.48044 -0.54043 0
M  V30 8879 C 878.954 2.28273 0.205966 0
M  V30 8880 C 879.954 1.35983 0.858209 0
M  V30 8881 O 881.144 1.58776 0.716651 0
M  V30 8882 C 878.276 3.15174 1.29917 0
M  V30 8883 H 879.469 2.95727 -0.498555 0
M  V30 8884 H 877.022 1.53457 -0.296745 0
M  V30 8885 H 877.757 2.52374 2.03661 0
M  V30 8886 H 877.542 3.83074 0.836475 0
M  V30 8887 H 879.032 3.75666 1.82387 0
M  V30 8888 N 879.47 0.276058 1.55163 0
M  V30 8889 C 880.71 -0.341634 2.01525 0
M  V30 8890 C 881.074 -1.52979 1.16023 0
M  V30 8891 O 882.275 -2.21718 1.51968 0
M  V30 8892 C 880.546 -0.713294 3.5021 0
M  V30 8893 S 882.105 -1.31739 4.18558 0
M  V30 8894 H 878.923 -0.1062 0.703024 0
M  V30 8895 H 881.525 0.398112 1.91404 0
M  V30 8896 H 880.229 0.160311 4.10087 0
M  V30 8897 H 879.76 -1.48448 3.64317 0
M  V30 8898 H 881.775 -2.60595 4.22261 0
M  V30 8899 N 880.948 -1.576 0.00335426 0
M  V30 8900 C 881.911 -2.07576 -0.971838 0
M  V30 8901 C 882.911 -0.985796 -1.27038 0
M  V30 8902 O 884.101 -1.24833 -1.21501 0
M  V30 8903 C 881.233 -2.52003 -2.29581 0
M  V30 8904 H 882.426 -2.95008 -0.539481 0
M  V30 8905 H 879.979 -1.54381 -0.244186 0
M  V30 8906 H 880.714 -1.67825 -2.77498 0
M  V30 8907 H 880.499 -3.31609 -2.09231 0
M  V30 8908 H 881.989 -2.90983 -2.99531 0
M  V30 8909 N 882.426 0.269451 -1.5528 0
M  V30 8910 C 883.672 1.00206 -1.76314 0
M  V30 8911 C 884.005 1.85812 -0.564581 0
M  V30 8912 O 883.28 1.89509 0.437769 0
M  V30 8913 C 883.563 1.88163 -3.07029 0
M  V30 8914 C 883.416 1.05527 -4.37246 0
M  V30 8915 C 884.735 2.8681 -3.33808 0
M  V30 8916 H 881.854 0.36288 -0.641473 0
M  V30 8917 H 884.496 0.274188 -1.88011 0
M  V30 8918 H 882.646 2.50224 -2.97187 0
M  V30 8919 H 884.318 0.455094 -4.5905 0
M  V30 8920 H 882.561 0.358842 -4.32313 0
M  V30 8921 H 883.232 1.70397 -5.25042 0
M  V30 8922 H 885.708 2.34884 -3.43466 0
M  V30 8923 H 884.584 3.45492 -4.26528 0
M  V30 8924 H 884.845 3.62118 -2.5362 0
M  V30 8925 N 883.904 1.48273 0.534124 0
M  V30 8926 C 884.836 1.5857 1.65494 0
M  V30 8927 C 885.849 0.470266 1.5586 0
M  V30 8928 O 887.038 0.740928 1.62396 0
M  V30 8929 C 884.138 1.49554 3.04117 0
M  V30 8930 C 883.311 2.76066 3.39273 0
M  V30 8931 C 882.37 2.60562 4.57159 0
M  V30 8932 O 881.396 3.34438 4.60587 0
M  V30 8933 N 882.598 1.69906 5.55079 0
M  V30 8934 H 885.363 2.55226 1.57099 0
M  V30 8935 H 882.924 1.44944 0.721303 0
M  V30 8936 H 884.916 1.36882 3.80848 0
M  V30 8937 H 883.486 0.608895 3.06613 0
M  V30 8938 H 882.706 3.03332 2.51761 0
M  V30 8939 H 883.994 3.60006 3.59546 0
M  V30 8940 H 883.392 1.09079 5.55084 0
M  V30 8941 H 881.949 1.63175 6.31044 0
M  V30 8942 N 885.382 -0.782676 1.36792 0
M  V30 8943 C 886.61 -1.57162 1.34565 0
M  V30 8944 C 887.025 -1.88664 -0.0715501 0
M  V30 8945 O 886.382 -1.50633 -1.03033 0
M  V30 8946 C 886.433 -2.88854 2.1736 0
M  V30 8947 O 886.154 -2.58707 3.53557 0
M  V30 8948 C 887.655 -3.83132 2.2299 0
M  V30 8949 H 884.875 -0.487245 0.461338 0
M  V30 8950 H 887.419 -0.970905 1.79982 0
M  V30 8951 H 885.574 -3.45377 1.7548 0
M  V30 8952 H 885.988 -3.42961 3.96835 0
M  V30 8953 H 887.462 -4.72575 2.85266 0
M  V30 8954 H 887.939 -4.21472 1.23524 0
M  V30 8955 H 888.545 -3.32541 2.65135 0
M  V30 8956 N 886.86 -1.21182 -1.00761 0
M  V30 8957 C 887.79 -0.992773 -2.11344 0
M  V30 8958 C 888.771 0.0813618 -1.69905 0
M  V30 8959 O 889.956 -0.0779503 -1.94043 0
M  V30 8960 C 887.086 -0.553826 -3.42856 0
M  V30 8961 C 886.04 -1.57223 -3.98077 0
M  V30 8962 C 885.366 -0.989605 -5.25463 0
M  V30 8963 C 886.666 -2.95839 -4.30438 0
M  V30 8964 H 888.36 -1.91766 -2.29927 0
M  V30 8965 H 885.906 -0.923426 -1.10494 0
M  V30 8966 H 887.859 -0.387771 -4.19612 0
M  V30 8967 H 886.583 0.406702 -3.24058 0
M  V30 8968 H 885.242 -1.7258 -3.23437 0
M  V30 8969 H 884.89 -0.0208743 -5.02996 0
M  V30 8970 H 884.59 -1.66984 -5.63374 0
M  V30 8971 H 886.114 -0.834815 -6.04866 0
M  V30 8972 H 887.528 -2.8394 -4.98047 0
M  V30 8973 H 885.925 -3.60851 -4.79486 0
M  V30 8974 H 886.995 -3.46882 -3.38823 0
M  V30 8975 N 888.338 1.20213 -1.01915 0
M  V30 8976 C 889.268 2.25336 -0.612023 0
M  V30 8977 C 890.249 1.65933 0.374186 0
M  V30 8978 O 891.434 1.92464 0.259053 0
M  V30 8979 C 888.564 3.47267 0.047904 0
M  V30 8980 C 887.518 4.1928 -0.859557 0
M  V30 8981 C 886.844 5.3466 -0.0652655 0
M  V30 8982 C 888.144 4.75143 -2.1688 0
M  V30 8983 H 889.838 2.59645 -1.49079 0
M  V30 8984 H 887.384 1.24808 -0.718263 0
M  V30 8985 H 889.337 4.19991 0.344294 0
M  V30 8986 H 888.061 3.12129 0.961404 0
M  V30 8987 H 886.72 3.48425 -1.13999 0
M  V30 8988 H 886.368 4.95767 0.849964 0
M  V30 8989 H 886.068 5.83772 -0.669618 0
M  V30 8990 H 887.592 6.10187 0.224612 0
M  V30 8991 H 889.006 5.39672 -1.9346 0
M  V30 8992 H 887.403 5.34702 -2.72422 0
M  V30 8993 H 888.473 3.93744 -2.83008 0
M  V30 8994 N 889.816 0.795718 1.36037 0
M  V30 8995 C 891.232 0.478145 1.52269 0
M  V30 8996 C 891.432 -1.0025 1.74792 0
M  V30 8997 O 890.488 -1.78783 1.78305 0
M  V30 8998 C 891.801 1.31406 2.70468 0
M  V30 8999 C 893.349 1.3084 2.84341 0
M  V30 9000 C 893.824 2.12819 4.05551 0
M  V30 9001 N 895.315 2.10298 4.12709 0
M  V30 9002 C 896.05 2.70495 5.05589 0
M  V30 9003 N 895.546 3.39576 6.03871 0
M  V30 9004 N 897.339 2.60195 4.98252 0
M  V30 9005 H 889.49 1.75477 1.19673 0
M  V30 9006 H 891.753 0.74627 0.584624 0
M  V30 9007 H 891.459 2.36435 2.60368 0
M  V30 9008 H 891.333 0.959726 3.64786 0
M  V30 9009 H 893.72 0.266003 2.93899 0
M  V30 9010 H 893.801 1.70254 1.90912 0
M  V30 9011 H 893.445 3.17093 3.96755 0
M  V30 9012 H 893.375 1.70772 4.98141 0
M  V30 9013 H 895.866 1.60026 3.42345 0
M  V30 9014 H 896.179 3.82823 6.71317 0
M  V30 9015 H 894.524 3.43679 6.04077 0
M  V30 9016 H 897.715 2.05823 4.20422 0
M  V30 9017 H 897.888 3.074 5.70447 0
M  V30 9018 N 891.294 -1.47756 0.548274 0
M  V30 9019 C 892.522 -2.06884 0.0254873 0
M  V30 9020 C 892.937 -1.40225 -1.26422 0
M  V30 9021 O 892.294 -0.495776 -1.75637 0
M  V30 9022 C 892.345 -3.61036 -0.183134 0
M  V30 9023 O 892.066 -4.25195 1.05549 0
M  V30 9024 C 893.567 -4.37008 -0.744222 0
M  V30 9025 H 890.787 -0.669697 0.041789 0
M  V30 9026 H 893.331 -1.89888 0.759138 0
M  V30 9027 H 891.486 -3.77576 -0.866886 0
M  V30 9028 H 891.9 -5.17606 0.847629 0
M  V30 9029 H 893.374 -5.45579 -0.839529 0
M  V30 9030 H 893.851 -4.0268 -1.75344 0
M  V30 9031 H 894.457 -4.25191 -0.0964542 0
M  V30 9032 N 892.772 -0.284283 -1.55015 0
M  V30 9033 C 894.183 0.211681 -1.85496 0
M  V30 9034 C 894.534 1.54735 -1.2063 0
M  V30 9035 O 893.659 2.10594 -0.497918 0
M  V30 9036 C 894.254 0.390864 -3.36538 0
M  V30 9037 C 892.813 0.831055 -3.67111 0
M  V30 9038 C 891.96 -0.0703581 -2.77211 0
M  V30 9039 H 894.911 -0.505803 -1.50424 0
M  V30 9040 H 894.932 1.22803 -3.60138 0
M  V30 9041 H 894.444 -0.581409 -3.8372 0
M  V30 9042 H 892.545 1.81447 -3.25434 0
M  V30 9043 H 892.658 0.662026 -4.74504 0
M  V30 9044 H 891.022 0.447528 -2.50737 0
M  V30 9045 H 891.805 -1.03868 -3.2721 0
M  V30 9046 N 894.251 1.57596 -0.0117121 0
M  V30 9047 C 895.199 2.1029 0.994035 0
M  V30 9048 C 896.193 1.02549 1.34833 0
M  V30 9049 O 897.399 1.21003 1.3326 0
M  V30 9050 H 893.774 0.671624 0.338268 0
M  V30 9051 H 895.745 2.93761 0.524147 0
M  V30 9052 C 894.494 2.63099 2.27319 0
M  V30 9053 H 893.817 3.45642 2.00927 0
M  V30 9054 H 895.257 3.03635 2.95942 0
M  V30 9055 C 893.716 1.55044 2.99104 0
M  V30 9056 O 894.246 0.940127 3.90544 0
M  V30 9057 N 892.452 1.27506 2.61133 0
M  V30 9058 H 891.999 1.77322 1.86855 0
M  V30 9059 H 891.957 0.554292 3.09475 0
M  V30 9060 N 895.729 -0.261212 1.5542 0
M  V30 9061 C 896.975 -0.988533 1.77763 0
M  V30 9062 C 897.33 -1.83504 0.578286 0
M  V30 9063 O 896.623 -1.8674 -0.428808 0
M  V30 9064 C 896.817 -1.89395 3.03091 0
M  V30 9065 C 896.646 -1.13658 4.351 0
M  V30 9066 C 895.416 -0.847467 4.98143 0
M  V30 9067 C 897.614 -0.52118 5.11652 0
M  V30 9068 N 895.596 -0.0645324 6.13866 0
M  V30 9069 C 896.967 0.127016 6.1987 0
M  V30 9070 C 899.022 -0.430206 4.96038 0
M  V30 9071 C 897.725 0.857433 7.14171 0
M  V30 9072 C 899.751 0.286645 5.90705 0
M  V30 9073 C 899.113 0.923534 6.9832 0
M  V30 9074 H 895.212 -0.343317 0.702608 0
M  V30 9075 H 897.796 -0.263035 1.92915 0
M  V30 9076 H 895.967 -2.5916 2.89293 0
M  V30 9077 H 897.699 -2.55576 3.13788 0
M  V30 9078 H 894.454 -1.15569 4.59283 0
M  V30 9079 H 894.878 0.31461 6.76269 0
M  V30 9080 H 899.52 -0.908278 4.12929 0
M  V30 9081 H 897.238 1.34715 7.96792 0
M  V30 9082 H 900.824 0.357511 5.80701 0
M  V30 9083 H 899.704 1.46939 7.70311 0
M  V30 9084 N 897.207 -1.48554 -0.526253 0
M  V30 9085 C 898.623 -1.34757 -0.855138 0
M  V30 9086 C 898.823 -0.36142 -1.98232 0
M  V30 9087 O 897.879 0.216026 -2.51574 0
M  V30 9088 C 899.192 -2.74877 -1.21915 0
M  V30 9089 C 900.74 -2.83393 -1.32882 0
M  V30 9090 C 901.215 -4.24223 -1.72624 0
M  V30 9091 N 902.706 -4.26913 -1.7972 0
M  V30 9092 C 903.441 -5.32824 -2.11863 0
M  V30 9093 N 902.937 -6.49008 -2.42405 0
M  V30 9094 N 904.73 -5.20221 -2.12901 0
M  V30 9095 H 896.881 -2.11284 0.217422 0
M  V30 9096 H 899.144 -0.947367 0.0346362 0
M  V30 9097 H 898.85 -3.48619 -0.464486 0
M  V30 9098 H 898.724 -3.0864 -2.16844 0
M  V30 9099 H 901.111 -2.09904 -2.07424 0
M  V30 9100 H 901.192 -2.53245 -0.360638 0
M  V30 9101 H 900.836 -4.98229 -0.986411 0
M  V30 9102 H 900.766 -4.51817 -2.70498 0
M  V30 9103 H 903.257 -3.4311 -1.58379 0
M  V30 9104 H 903.57 -7.25561 -2.66048 0
M  V30 9105 H 901.915 -6.52277 -2.39917 0
M  V30 9106 H 905.106 -4.28469 -1.885 0
M  V30 9107 H 905.279 -6.02861 -2.37619 0
M  V30 9108 N 898.685 0.775411 -1.37205 0
M  V30 9109 C 900.096 1.35147 -1.28811 0
M  V30 9110 C 900.447 1.96089 0.0659168 0
M  V30 9111 O 899.572 1.93558 0.967684 0
M  V30 9112 C 900.167 2.45715 -2.33258 0
M  V30 9113 C 898.726 2.99099 -2.2851 0
M  V30 9114 C 897.873 1.72286 -2.17285 0
M  V30 9115 H 900.824 0.575954 -1.4788 0
M  V30 9116 H 900.845 3.251 -1.97712 0
M  V30 9117 H 900.357 2.01331 -3.31795 0
M  V30 9118 H 898.458 3.47868 -1.33485 0
M  V30 9119 H 898.571 3.54962 -3.21774 0
M  V30 9120 H 896.935 1.95068 -1.6377 0
M  V30 9121 H 897.718 1.3001 -3.1773 0
M  V30 9122 N 900.163 1.21714 1.00117 0
M  V30 9123 C 901.579 0.97532 1.26332 0
M  V30 9124 C 901.779 -0.336029 1.98678 0
M  V30 9125 O 900.835 -1.06073 2.29139 0
M  V30 9126 C 902.148 2.16848 2.0832 0
M  V30 9127 C 903.696 2.21115 2.21533 0
M  V30 9128 C 904.171 3.3996 3.06906 0
M  V30 9129 N 905.662 3.40071 3.14494 0
M  V30 9130 C 906.397 4.28678 3.80818 0
M  V30 9131 N 905.893 5.2749 4.49139 0
M  V30 9132 N 907.686 4.16476 3.77497 0
M  V30 9133 H 899.837 2.06039 0.515897 0
M  V30 9134 H 902.1 0.902423 0.290408 0
M  V30 9135 H 901.806 3.119 1.62515 0
M  V30 9136 H 901.68 2.16226 3.09073 0
M  V30 9137 H 904.067 1.26616 2.66557 0
M  V30 9138 H 904.148 2.2578 1.20238 0
M  V30 9139 H 903.792 4.34755 2.62585 0
M  V30 9140 H 903.722 3.32534 4.08324 0
M  V30 9141 H 906.213 2.68563 2.65861 0
M  V30 9142 H 906.526 5.91397 4.97463 0
M  V30 9143 H 904.871 5.31412 4.47914 0
M  V30 9144 H 908.062 3.38539 3.23278 0
M  V30 9145 H 908.235 4.85739 4.28908 0
M  V30 9146 N 901.641 -1.19671 1.02551 0
M  V30 9147 C 902.888 -1.89268 0.720002 0
M  V30 9148 C 903.216 -1.79411 -0.751127 0
M  V30 9149 O 902.471 -1.17859 -1.5623 0
M  V30 9150 C 902.77 -3.39647 1.11241 0
M  V30 9151 C 902.436 -3.69706 2.58125 0
M  V30 9152 C 901.098 -3.7762 2.98256 0
M  V30 9153 C 903.45 -3.83301 3.53171 0
M  V30 9154 C 900.778 -3.96594 4.32354 0
M  V30 9155 C 903.13 -4.03788 4.86968 0
M  V30 9156 C 901.794 -4.09934 5.26793 0
M  V30 9157 H 901.064 -0.692579 0.263467 0
M  V30 9158 H 903.711 -1.41738 1.28774 0
M  V30 9159 H 902.016 -3.89052 0.463234 0
M  V30 9160 H 903.713 -3.91809 0.853602 0
M  V30 9161 H 900.303 -3.64152 2.26033 0
M  V30 9162 H 904.487 -3.76534 3.2332 0
M  V30 9163 H 899.743 -3.9959 4.6275 0
M  V30 9164 H 903.917 -4.1325 5.60533 0
M  V30 9165 H 901.544 -4.24389 6.30712 0
M  V30 9166 N 903.119 -0.802921 -1.35613 0
M  V30 9167 C 904.066 -0.20874 -2.29854 0
M  V30 9168 C 905.036 0.655128 -1.52634 0
M  V30 9169 O 906.221 0.600979 -1.81088 0
M  V30 9170 C 903.361 0.639663 -3.3912 0
M  V30 9171 C 902.474 -0.244234 -4.31309 0
M  V30 9172 C 901.609 0.611825 -5.27665 0
M  V30 9173 C 900.648 -0.272698 -6.11492 0
M  V30 9174 N 899.785 0.543122 -6.99996 0
M  V30 9175 H 904.625 -1.01782 -2.80079 0
M  V30 9176 H 902.162 -0.513465 -1.37848 0
M  V30 9177 H 904.12 1.14668 -4.01132 0
M  V30 9178 H 902.75 1.41404 -2.9018 0
M  V30 9179 H 901.802 -0.869322 -3.70334 0
M  V30 9180 H 903.114 -0.925202 -4.90144 0
M  V30 9181 H 902.268 1.18412 -5.95032 0
M  V30 9182 H 901.007 1.32637 -4.69317 0
M  V30 9183 H 900.012 -0.857287 -5.43075 0
M  V30 9184 H 901.237 -0.985051 -6.71918 0
M  V30 9185 H 899.183 1.24171 -6.44141 0
M  V30 9186 H 899.1 -0.0798767 -7.55958 0
M  V30 9187 H 900.368 1.09881 -7.71717 0
M  V30 9188 N 904.597 1.47463 -0.556102 0
M  V30 9189 C 905.844 2.02475 -0.0316337 0
M  V30 9190 C 906.172 1.43057 1.31777 0
M  V30 9191 O 905.427 0.575376 1.87051 0
M  V30 9192 C 905.726 3.57224 0.112126 0
M  V30 9193 C 905.392 4.35557 -1.16624 0
M  V30 9194 C 904.054 4.56678 -1.51654 0
M  V30 9195 C 906.406 4.8074 -2.01342 0
M  V30 9196 C 903.734 5.20231 -2.7125 0
M  V30 9197 C 906.086 5.45613 -3.2014 0
M  V30 9198 C 904.75 5.64967 -3.55484 0
M  V30 9199 H 904.02 0.74091 -0.0115756 0
M  V30 9200 H 906.667 1.77148 -0.727392 0
M  V30 9201 H 904.972 3.81538 0.890842 0
M  V30 9202 H 906.669 3.97438 0.533261 0
M  V30 9203 H 903.259 4.19395 -0.883489 0
M  V30 9204 H 907.443 4.64201 -1.75587 0
M  V30 9205 H 902.699 5.3341 -2.98804 0
M  V30 9206 H 906.873 5.79587 -3.86073 0
M  V30 9207 H 904.5 6.13984 -4.4825 0
M  V30 9208 N 906.075 0.2925 1.54862 0
M  V30 9209 C 907.305 -0.321646 2.04081 0
M  V30 9210 C 907.713 -1.48712 1.16967 0
M  V30 9211 O 907.056 -1.82755 0.18609 0
M  V30 9212 C 907.118 -0.848678 3.49339 0
M  V30 9213 C 906.782 0.190416 4.56603 0
M  V30 9214 C 907.779 1.01595 5.09877 0
M  V30 9215 C 905.464 0.329666 5.01217 0
M  V30 9216 C 907.458 1.96676 6.06298 0
M  V30 9217 C 905.145 1.28393 5.9746 0
M  V30 9218 C 906.143 2.10097 6.49883 0
M  V30 9219 O 905.831 3.03907 7.44242 0
M  V30 9220 H 905.563 -0.075098 0.671816 0
M  V30 9221 H 908.117 0.427531 2.00901 0
M  V30 9222 H 906.347 -1.64823 3.49815 0
M  V30 9223 H 908.036 -1.37779 3.81801 0
M  V30 9224 H 908.802 0.919197 4.7621 0
M  V30 9225 H 904.681 -0.296317 4.60047 0
M  V30 9226 H 908.225 2.60488 6.47141 0
M  V30 9227 H 904.122 1.38144 6.30545 0
M  V30 9228 H 904.89 2.98787 7.62016 0
M  V30 9229 N 907.553 -1.57587 0.0200696 0
M  V30 9230 C 908.503 -2.0616 -0.973751 0
M  V30 9231 C 909.487 -0.960282 -1.29102 0
M  V30 9232 O 910.679 -1.22391 -1.27865 0
M  V30 9233 C 907.808 -2.58487 -2.25919 0
M  V30 9234 C 906.894 -3.75533 -1.97068 0
M  V30 9235 N 907.285 -4.86482 -1.38451 0
M  V30 9236 C 905.583 -3.83847 -2.27107 0
M  V30 9237 C 906.284 -5.67773 -1.26527 0
M  V30 9238 N 905.26 -5.14398 -1.75772 0
M  V30 9239 H 909.062 -2.89346 -0.515365 0
M  V30 9240 H 906.576 -1.61341 -0.185163 0
M  V30 9241 H 908.573 -2.91572 -2.97979 0
M  V30 9242 H 907.233 -1.76728 -2.72392 0
M  V30 9243 H 908.244 -5.06922 -1.06069 0
M  V30 9244 H 904.921 -3.12978 -2.76316 0
M  V30 9245 H 906.311 -6.66966 -0.812785 0
M  V30 9246 N 909.032 0.252966 -1.55557 0
M  V30 9247 C 910.278 0.979092 -1.78284 0
M  V30 9248 C 910.633 1.83194 -0.588009 0
M  V30 9249 O 909.926 1.86965 0.418899 0
M  V30 9250 C 910.12 1.87785 -3.04091 0
M  V30 9251 C 909.949 1.11349 -4.35697 0
M  V30 9252 C 908.719 0.821038 -4.98585 0
M  V30 9253 C 910.917 0.494039 -5.11922 0
M  V30 9254 N 908.899 0.0319767 -6.13892 0
M  V30 9255 C 910.27 -0.159888 -6.19794 0
M  V30 9256 C 912.325 0.403894 -4.96259 0
M  V30 9257 C 911.028 -0.895295 -7.13706 0
M  V30 9258 C 913.054 -0.317968 -5.90545 0
M  V30 9259 C 912.416 -0.960555 -6.9782 0
M  V30 9260 H 908.515 0.339586 -0.704419 0
M  V30 9261 H 911.099 0.252801 -1.93052 0
M  V30 9262 H 909.27 2.57623 -2.90663 0
M  V30 9263 H 911.002 2.53908 -3.15139 0
M  V30 9264 H 907.757 1.13132 -4.59889 0
M  V30 9265 H 908.181 -0.35047 -6.76092 0
M  V30 9266 H 912.823 0.886366 -4.13405 0
M  V30 9267 H 910.541 -1.38939 -7.96066 0
M  V30 9268 H 914.127 -0.388302 -5.80503 0
M  V30 9269 H 913.007 -1.51022 -7.69521 0
M  V30 9270 N 910.51 1.48831 0.518367 0
M  V30 9271 C 911.738 1.6112 1.298 0
M  V30 9272 C 912.153 0.275872 1.86774 0
M  V30 9273 O 911.51 -0.736416 1.66983 0
M  V30 9274 C 911.561 2.66675 2.44063 0
M  V30 9275 O 911.282 3.95027 1.89434 0
M  V30 9276 C 912.783 2.8951 3.35706 0
M  V30 9277 H 910.003 0.542916 0.394314 0
M  V30 9278 H 912.547 1.94743 0.624142 0
M  V30 9279 H 910.702 2.35879 3.07311 0
M  V30 9280 H 911.116 4.53031 2.64316 0
M  V30 9281 H 912.59 3.67142 4.12202 0
M  V30 9282 H 913.067 1.98768 3.91648 0
M  V30 9283 H 913.673 3.21656 2.7824 0
M  V30 9284 N 911.988 -0.768124 1.37614 0
M  V30 9285 C 912.918 -1.89537 1.36374 0
M  V30 9286 C 913.899 -1.68513 0.231803 0
M  V30 9287 O 915.084 -1.89318 0.432705 0
M  V30 9288 C 912.214 -3.26871 1.17358 0
M  V30 9289 C 911.168 -3.62466 2.27602 0
M  V30 9290 C 910.494 -4.9838 1.93705 0
M  V30 9291 C 911.794 -3.68841 3.69802 0
M  V30 9292 H 913.488 -1.90832 2.30702 0
M  V30 9293 H 911.034 -0.91672 1.11051 0
M  V30 9294 H 912.987 -4.05371 1.15119 0
M  V30 9295 H 911.711 -3.26018 0.194865 0
M  V30 9296 H 910.37 -2.86276 2.29002 0
M  V30 9297 H 910.018 -4.94071 0.943539 0
M  V30 9298 H 909.718 -5.23165 2.6753 0
M  V30 9299 H 911.242 -5.79276 1.93059 0
M  V30 9300 H 912.656 -4.37485 3.70513 0
M  V30 9301 H 911.053 -4.05126 4.42711 0
M  V30 9302 H 912.123 -2.69415 4.03167 0
M  V30 9303 N 913.466 -1.22244 -0.994698 0
M  V30 9304 C 914.691 -1.07299 -1.77487 0
M  V30 9305 C 915.116 0.372302 -1.84379 0
M  V30 9306 O 914.474 1.2689 -1.29494 0
M  V30 9307 C 914.522 -1.68675 -3.18718 0
M  V30 9308 O 913.626 -0.939202 -4.01563 0
M  V30 9309 H 912.967 -0.376979 -0.546611 0
M  V30 9310 H 915.497 -1.62003 -1.24965 0
M  V30 9311 H 915.507 -1.73324 -3.69354 0
M  V30 9312 H 914.182 -2.73849 -3.13017 0
M  V30 9313 H 912.759 -0.968583 -3.60101 0
M  V30 9314 N 914.944 1.19125 -1.03184 0
M  V30 9315 C 916.191 1.88883 -0.730029 0
M  V30 9316 C 916.519 1.79807 0.741602 0
M  V30 9317 O 915.774 1.18686 1.55603 0
M  V30 9318 C 916.073 3.39052 -1.13041 0
M  V30 9319 C 915.739 3.68332 -2.60082 0
M  V30 9320 C 914.401 3.76033 -3.00254 0
M  V30 9321 C 916.753 3.81423 -3.55199 0
M  V30 9322 C 914.081 3.94296 -4.34451 0
M  V30 9323 C 916.433 4.012 -4.89103 0
M  V30 9324 C 915.097 4.07134 -5.28959 0
M  V30 9325 H 914.367 0.691172 -0.267137 0
M  V30 9326 H 917.014 1.41053 -1.29523 0
M  V30 9327 H 915.319 3.88801 -0.48386 0
M  V30 9328 H 917.016 3.91351 -0.874368 0
M  V30 9329 H 913.606 3.62948 -2.27961 0
M  V30 9330 H 917.79 3.74814 -3.25313 0
M  V30 9331 H 913.046 3.97131 -4.64863 0
M  V30 9332 H 917.22 4.10271 -5.62717 0
M  V30 9333 H 914.847 4.21038 -6.32954 0
M  V30 9334 N 916.422 0.810101 1.35185 0
M  V30 9335 C 917.352 0.237453 2.32289 0
M  V30 9336 C 918.333 -0.639032 1.5764 0
M  V30 9337 O 919.518 -0.568575 1.8569 0
M  V30 9338 C 916.648 -0.611964 3.41866 0
M  V30 9339 C 915.602 0.166318 4.27677 0
M  V30 9340 C 914.928 -0.805024 5.28605 0
M  V30 9341 C 916.228 1.36729 5.04086 0
M  V30 9342 H 917.922 1.04874 2.80432 0
M  V30 9343 H 915.468 0.505751 1.34826 0
M  V30 9344 H 917.421 -1.02267 4.08802 0
M  V30 9345 H 916.145 -1.45617 2.92341 0
M  V30 9346 H 914.804 0.558238 3.62325 0
M  V30 9347 H 914.452 -1.64483 4.75347 0
M  V30 9348 H 914.152 -0.288577 5.86891 0
M  V30 9349 H 915.676 -1.21386 5.98413 0
M  V30 9350 H 917.09 1.03128 5.63948 0
M  V30 9351 H 915.487 1.81848 5.71884 0
M  V30 9352 H 916.557 2.15214 4.34524 0
M  V30 9353 N 917.9 -1.47166 0.563914 0
M  V30 9354 C 919.148 -2.02056 0.0422873 0
M  V30 9355 C 919.469 -1.43992 -1.31497 0
M  V30 9356 O 918.739 -0.617578 -1.85911 0
M  V30 9357 H 917.319 -0.746893 0.0126427 0
M  V30 9358 H 919.981 -1.80492 0.735441 0
M  V30 9359 H 919.077 -3.12073 -0.0408044 0
M  V30 9360 N 919.378 -0.300708 -1.54705 0
M  V30 9361 C 920.311 0.617513 -2.19686 0
M  V30 9362 C 921.289 1.1331 -1.16617 0
M  V30 9363 O 922.473 1.20135 -1.45258 0
M  V30 9364 C 919.6 1.84486 -2.84047 0
M  V30 9365 C 918.646 1.46253 -4.0064 0
M  V30 9366 S 919.479 0.518718 -5.32982 0
M  V30 9367 C 920.635 1.75387 -6.00825 0
M  V30 9368 H 920.868 0.0654548 -2.97228 0
M  V30 9369 H 918.401 -0.0848492 -1.54167 0
M  V30 9370 H 920.359 2.54921 -3.21754 0
M  V30 9371 H 919.02 2.36808 -2.06351 0
M  V30 9372 H 918.213 2.37648 -4.44454 0
M  V30 9373 H 917.815 0.838129 -3.64488 0
M  V30 9374 H 920.107 2.69448 -6.21614 0
M  V30 9375 H 921.05 1.35829 -6.9495 0
M  V30 9376 H 921.458 1.93045 -5.30466 0
M  V30 9377 N 920.856 1.57574 -0.0284266 0
M  V30 9378 C 922.081 1.96479 0.664137 0
M  V30 9379 C 922.506 0.904826 1.64908 0
M  V30 9380 O 921.864 -0.134339 1.80802 0
M  V30 9381 C 921.912 3.34479 1.34745 0
M  V30 9382 O 921.016 3.30794 2.46271 0
M  V30 9383 H 920.357 0.640654 0.174524 0
M  V30 9384 H 922.887 2.04402 -0.0900729 0
M  V30 9385 H 922.897 3.70694 1.7044 0
M  V30 9386 H 921.572 4.1117 0.625468 0
M  V30 9387 H 920.149 3.06294 2.12693 0
M  V30 9388 N 922.334 -0.244713 1.55689 0
M  V30 9389 C 923.264 -1.30667 1.93516 0
M  V30 9390 C 924.245 -1.50094 0.800371 0
M  V30 9391 O 925.43 -1.62665 1.06083 0
M  V30 9392 C 922.56 -2.66101 2.23176 0
M  V30 9393 C 921.514 -2.61366 3.38927 0
M  V30 9394 C 920.84 -4.00616 3.54134 0
M  V30 9395 C 922.14 -2.18161 4.74555 0
M  V30 9396 H 923.834 -0.992546 2.82469 0
M  V30 9397 H 921.38 -0.476018 1.35905 0
M  V30 9398 H 923.333 -3.4053 2.48228 0
M  V30 9399 H 922.057 -2.99154 1.31051 0
M  V30 9400 H 920.716 -1.89395 3.13887 0
M  V30 9401 H 920.364 -4.30938 2.59426 0
M  V30 9402 H 920.064 -3.98335 4.31975 0
M  V30 9403 H 921.588 -4.76741 3.8151 0
M  V30 9404 H 923.002 -2.82323 4.98965 0
M  V30 9405 H 921.399 -2.26988 5.55515 0
M  V30 9406 H 922.469 -1.13333 4.7147 0
M  V30 9407 N 923.813 -1.49104 -0.510467 0
M  V30 9408 C 925.053 -1.59723 -1.27545 0
M  V30 9409 C 925.417 -0.273525 -1.90042 0
M  V30 9410 O 926.618 -0.254835 -2.67589 0
M  V30 9411 C 924.889 -2.71771 -2.3211 0
M  V30 9412 S 926.448 -3.02282 -3.18074 0
M  V30 9413 H 923.266 -0.563489 -0.433591 0
M  V30 9414 H 925.868 -1.86719 -0.579328 0
M  V30 9415 H 924.572 -3.66483 -1.84711 0
M  V30 9416 H 924.103 -2.46739 -3.06404 0
M  V30 9417 H 926.118 -2.43076 -4.32583 0
M  V30 9418 N 925.291 0.760815 -1.38019 0
M  V30 9419 C 926.221 1.88811 -1.37377 0
M  V30 9420 C 927.202 1.68388 -0.240737 0
M  V30 9421 O 928.387 1.89086 -0.442739 0
M  V30 9422 C 925.517 3.26244 -1.1909 0
M  V30 9423 C 924.471 3.61254 -2.29521 0
M  V30 9424 C 923.797 4.97346 -1.96345 0
M  V30 9425 C 925.097 3.66874 -3.71753 0
M  V30 9426 H 926.791 1.89606 -2.31711 0
M  V30 9427 H 924.337 0.910818 -1.11535 0
M  V30 9428 H 926.29 4.04755 -1.17267 0
M  V30 9429 H 925.014 3.2591 -0.212152 0
M  V30 9430 H 923.673 2.85057 -2.30517 0
M  V30 9431 H 923.321 4.93564 -0.969728 0
M  V30 9432 H 923.021 5.21739 -2.703 0
M  V30 9433 H 924.545 5.78244 -1.96129 0
M  V30 9434 H 925.959 4.35514 -3.72828 0
M  V30 9435 H 924.356 4.02772 -4.44853 0
M  V30 9436 H 925.426 2.67273 -4.0459 0
M  V30 9437 N 926.769 1.22769 0.988202 0
M  V30 9438 C 927.732 1.00325 2.06076 0
M  V30 9439 C 928.732 -0.0320618 1.60768 0
M  V30 9440 O 929.922 0.206912 1.72967 0
M  V30 9441 C 927.054 0.516376 3.36966 0
M  V30 9442 H 928.247 1.95499 2.27421 0
M  V30 9443 H 925.8 1.04704 1.16047 0
M  V30 9444 H 926.535 -0.439498 3.21308 0
M  V30 9445 H 926.32 1.26337 3.71189 0
M  V30 9446 H 927.81 0.37974 4.1587 0
M  V30 9447 N 928.247 -1.18576 1.03814 0
M  V30 9448 C 929.177 -2.24334 0.647795 0
M  V30 9449 C 930.158 -1.66508 -0.34774 0
M  V30 9450 O 931.343 -1.92852 -0.228401 0
M  V30 9451 C 928.473 -3.47299 0.00734922 0
M  V30 9452 C 927.427 -4.17859 0.926152 0
M  V30 9453 C 926.753 -5.34489 0.150317 0
M  V30 9454 C 928.053 -4.71632 2.24411 0
M  V30 9455 H 929.747 -2.57241 1.53191 0
M  V30 9456 H 927.293 -1.23649 0.738028 0
M  V30 9457 H 929.246 -4.20486 -0.277434 0
M  V30 9458 H 927.97 -3.13619 -0.911626 0
M  V30 9459 H 926.629 -3.46567 1.19528 0
M  V30 9460 H 926.277 -4.97056 -0.770985 0
M  V30 9461 H 925.977 -5.82633 0.762407 0
M  V30 9462 H 927.501 -6.10467 -0.127508 0
M  V30 9463 H 928.915 -5.36526 2.02021 0
M  V30 9464 H 927.312 -5.303 2.80894 0
M  V30 9465 H 928.382 -3.89192 2.89236 0
M  V30 9466 N 929.725 -0.817259 -1.34754 0
M  V30 9467 C 930.658 -0.180483 -2.27485 0
M  V30 9468 C 931.636 0.659792 -1.48612 0
M  V30 9469 O 932.82 0.624761 -1.77845 0
M  V30 9470 C 929.947 0.748487 -3.30326 0
M  V30 9471 C 928.993 -0.0135304 -4.26498 0
M  V30 9472 S 929.826 -1.35685 -5.18025 0
M  V30 9473 C 930.982 -0.432605 -6.24403 0
M  V30 9474 H 931.215 -0.966677 -2.81145 0
M  V30 9475 H 928.748 -0.612864 -1.41716 0
M  V30 9476 H 930.706 1.27893 -3.90069 0
M  V30 9477 H 929.367 1.50816 -2.75524 0
M  V30 9478 H 928.56 0.692454 -4.9922 0
M  V30 9479 H 928.162 -0.474344 -3.7098 0
M  V30 9480 H 930.454 0.378035 -6.76444 0
M  V30 9481 H 931.397 -1.12934 -6.99036 0
M  V30 9482 H 931.805 -0.0235533 -5.64495 0
M  V30 9483 N 931.203 1.46865 -0.571711 0
M  V30 9484 C 932.45 2.0243 -0.0531071 0
M  V30 9485 C 932.778 1.44446 1.30252 0
M  V30 9486 O 932.033 0.595182 1.8643 0
M  V30 9487 C 932.332 3.57323 0.0742311 0
M  V30 9488 C 931.998 4.34295 -1.21237 0
M  V30 9489 C 930.66 4.55044 -1.56489 0
M  V30 9490 C 933.012 4.78577 -2.0643 0
M  V30 9491 C 930.34 5.17325 -2.76752 0
M  V30 9492 C 932.692 5.42186 -3.25909 0
M  V30 9493 C 931.356 5.61165 -3.61456 0
M  V30 9494 H 930.626 0.740745 -0.0194333 0
M  V30 9495 H 933.273 1.76366 -0.74614 0
M  V30 9496 H 931.578 3.82461 0.850325 0
M  V30 9497 H 933.275 3.97982 0.491077 0
M  V30 9498 H 929.865 4.18435 -0.927922 0
M  V30 9499 H 934.049 4.62313 -1.80501 0
M  V30 9500 H 929.305 5.30211 -3.04444 0
M  V30 9501 H 933.479 5.75459 -3.92198 0
M  V30 9502 H 931.106 6.09195 -4.54737 0
M  V30 9503 N 932.681 0.308908 1.54543 0
M  V30 9504 C 933.93 -0.298854 1.99474 0
M  V30 9505 C 934.243 -1.54393 1.20093 0
M  V30 9506 O 935.449 -2.22677 1.55329 0
M  V30 9507 C 933.905 -0.58303 3.55146 0
M  V30 9508 C 933.513 0.644157 4.43345 0
M  V30 9509 C 935.257 -1.15155 4.08582 0
M  V30 9510 C 933.164 0.332694 5.90463 0
M  V30 9511 H 932.094 -0.115445 0.74511 0
M  V30 9512 H 934.745 0.418848 1.78656 0
M  V30 9513 H 933.127 -1.36053 3.71894 0
M  V30 9514 H 934.301 1.42012 4.38371 0
M  V30 9515 H 932.616 1.13186 4.00722 0
M  V30 9516 H 935.213 -1.39896 5.16075 0
M  V30 9517 H 935.556 -2.09632 3.59667 0
M  V30 9518 H 936.089 -0.435571 3.95408 0
M  V30 9519 H 932.828 1.24624 6.43544 0
M  V30 9520 H 932.348 -0.405844 5.98425 0
M  V30 9521 H 934.027 -0.0628545 6.46969 0
M  V30 9522 N 934.159 -1.57557 0.0367827 0
M  V30 9523 C 935.399 -1.93981 -0.644252 0
M  V30 9524 C 935.763 -0.913982 -1.6885 0
M  V30 9525 O 936.964 -1.16468 -2.42257 0
M  V30 9526 C 935.235 -3.35281 -1.23779 0
M  V30 9527 S 936.794 -3.93643 -1.93883 0
M  V30 9528 H 933.612 -0.678683 -0.21192 0
M  V30 9529 H 936.214 -1.95232 0.102281 0
M  V30 9530 H 934.918 -4.07752 -0.465451 0
M  V30 9531 H 934.449 -3.37492 -2.02146 0
M  V30 9532 H 936.464 -3.777 -3.21803 0
M  V30 9533 N 935.637 0.236453 -1.55816 0
M  V30 9534 C 936.862 0.98449 -1.82545 0
M  V30 9535 C 937.287 1.77755 -0.615206 0
M  V30 9536 O 936.645 1.75982 0.435895 0
M  V30 9537 C 936.693 1.88973 -3.07118 0
M  V30 9538 O 935.797 2.98298 -2.84766 0
M  V30 9539 H 935.138 0.279577 -0.602273 0
M  V30 9540 H 937.668 0.254277 -2.03014 0
M  V30 9541 H 937.678 2.3024 -3.36829 0
M  V30 9542 H 936.353 1.30671 -3.94839 0
M  V30 9543 H 934.93 2.61085 -2.6625 0
M  V30 9544 N 937.115 1.49373 0.502552 0
M  V30 9545 C 938.361 1.5999 1.25597 0
M  V30 9546 C 938.716 0.282287 1.90318 0
M  V30 9547 O 938.009 -0.71735 1.77664 0
M  V30 9548 C 938.203 2.69508 2.34735 0
M  V30 9549 C 938.032 4.11791 1.80716 0
M  V30 9550 C 936.802 4.78598 1.62087 0
M  V30 9551 C 939 4.97074 1.31991 0
M  V30 9552 N 936.982 6.05201 1.02981 0
M  V30 9553 C 938.353 6.14144 0.850098 0
M  V30 9554 C 940.408 4.83086 1.20549 0
M  V30 9555 C 939.111 7.18766 0.277192 0
M  V30 9556 C 941.137 5.87855 0.64656 0
M  V30 9557 C 940.499 7.04152 0.186968 0
M  V30 9558 H 936.598 0.639822 0.449613 0
M  V30 9559 H 939.182 1.86371 0.563361 0
M  V30 9560 H 937.353 2.44902 3.01459 0
M  V30 9561 H 939.085 2.69656 3.01774 0
M  V30 9562 H 935.84 4.35372 1.8641 0
M  V30 9563 H 936.264 6.72793 0.753601 0
M  V30 9564 H 940.906 3.93489 1.54681 0
M  V30 9565 H 938.624 8.08064 -0.0763971 0
M  V30 9566 H 942.21 5.79091 0.560832 0
M  V30 9567 H 941.09 7.83836 -0.238784 0
M  V30 9568 N 938.594 -0.753485 1.38421 0
M  V30 9569 C 939.824 -1.54049 1.37669 0
M  V30 9570 C 940.232 -1.89167 -0.0353656 0
M  V30 9571 O 939.575 -1.53285 -1.01239 0
M  V30 9572 C 939.637 -2.86777 2.16793 0
M  V30 9573 C 939.301 -2.74196 3.65603 0
M  V30 9574 C 940.298 -2.43985 4.59094 0
M  V30 9575 C 937.983 -2.91645 4.0896 0
M  V30 9576 C 939.977 -2.31379 5.93921 0
M  V30 9577 C 937.664 -2.78658 5.43868 0
M  V30 9578 C 938.662 -2.48568 6.36163 0
M  V30 9579 O 938.35 -2.3564 7.68589 0
M  V30 9580 H 938.082 -0.483276 0.472673 0
M  V30 9581 H 940.636 -0.940267 1.82615 0
M  V30 9582 H 938.866 -3.48988 1.66565 0
M  V30 9583 H 940.555 -3.48289 2.08446 0
M  V30 9584 H 941.321 -2.30172 4.26902 0
M  V30 9585 H 937.2 -3.14063 3.37469 0
M  V30 9586 H 940.744 -2.07813 6.65927 0
M  V30 9587 H 936.641 -2.92044 5.75656 0
M  V30 9588 H 937.409 -2.50851 7.79112 0
M  V30 9589 N 940.072 -1.23292 -0.981677 0
M  V30 9590 C 941.302 -1.0893 -1.7555 0
M  V30 9591 C 941.71 0.362219 -1.857 0
M  V30 9592 O 941.053 1.2624 -1.33451 0
M  V30 9593 C 941.115 -1.6389 -3.19969 0
M  V30 9594 C 940.779 -3.12632 -3.33332 0
M  V30 9595 C 941.776 -4.0994 -3.19758 0
M  V30 9596 C 939.461 -3.52314 -3.58022 0
M  V30 9597 C 941.455 -5.44915 -3.30676 0
M  V30 9598 C 939.142 -4.87434 -3.6858 0
M  V30 9599 C 940.14 -5.83544 -3.54916 0
M  V30 9600 O 939.828 -7.16209 -3.65102 0
M  V30 9601 H 939.56 -0.381901 -0.557788 0
M  V30 9602 H 942.114 -1.63586 -1.24213 0
M  V30 9603 H 940.344 -1.03653 -3.72549 0
M  V30 9604 H 942.033 -1.45023 -3.79108 0
M  V30 9605 H 942.799 -3.80625 -3.00582 0
M  V30 9606 H 938.678 -2.78022 -3.67729 0
M  V30 9607 H 942.222 -6.19913 -3.19928 0
M  V30 9608 H 938.119 -5.16426 -3.87265 0
M  V30 9609 H 938.887 -7.23941 -3.81905 0
M  V30 9610 N 941.55 1.18024 -1.04442 0
M  V30 9611 C 942.513 2.19992 -0.643136 0
M  V30 9612 C 943.513 1.57949 0.301444 0
M  V30 9613 O 944.703 1.73986 0.0863341 0
M  V30 9614 C 941.835 3.40853 0.0565208 0
M  V30 9615 H 943.028 2.57008 -1.54554 0
M  V30 9616 H 940.581 1.31974 -0.837408 0
M  V30 9617 H 941.316 3.09373 0.972553 0
M  V30 9618 H 941.101 3.87128 -0.622439 0
M  V30 9619 H 942.591 4.16344 0.323652 0
M  V30 9620 N 943.028 0.824394 1.34319 0
M  V30 9621 C 943.958 0.262077 2.32025 0
M  V30 9622 C 944.939 -0.622277 1.58309 0
M  V30 9623 O 946.124 -0.548848 1.86283 0
M  V30 9624 C 943.254 -0.57567 3.42496 0
M  V30 9625 C 942.208 0.21167 4.27476 0
M  V30 9626 C 941.534 -0.748913 5.29429 0
M  V30 9627 C 942.834 1.42068 5.02607 0
M  V30 9628 H 944.528 1.07842 2.79304 0
M  V30 9629 H 942.074 0.520022 1.34282 0
M  V30 9630 H 944.027 -0.979251 4.09864 0
M  V30 9631 H 942.751 -1.42508 2.93869 0
M  V30 9632 H 941.41 0.596636 3.61712 0
M  V30 9633 H 941.058 -1.59432 4.77064 0
M  V30 9634 H 940.758 -0.226313 5.87164 0
M  V30 9635 H 942.282 -1.15032 5.99667 0
M  V30 9636 H 943.696 1.09103 5.62823 0
M  V30 9637 H 942.093 1.87903 5.69923 0
M  V30 9638 H 943.163 2.1981 4.32217 0
M  V30 9639 N 944.506 -1.46559 0.579492 0
M  V30 9640 C 945.731 -2.0729 0.0674595 0
M  V30 9641 C 946.156 -1.4259 -1.22677 0
M  V30 9642 O 945.514 -0.50857 -1.74021 0
M  V30 9643 C 945.562 -3.60492 -0.0882227 0
M  V30 9644 O 944.666 -3.96172 -1.14551 0
M  V30 9645 H 944.007 -0.661159 0.0613536 0
M  V30 9646 H 946.537 -1.88247 0.801519 0
M  V30 9647 H 946.547 -4.06929 -0.295411 0
M  V30 9648 H 945.222 -4.06976 0.856943 0
M  V30 9649 H 943.799 -3.61448 -0.917033 0
M  V30 9650 N 945.984 -0.3171 -1.54377 0
M  V30 9651 C 946.947 0.53905 -2.22771 0
M  V30 9652 C 947.947 1.04865 -1.21901 0
M  V30 9653 O 949.137 0.942108 -1.46526 0
M  V30 9654 C 946.269 1.74804 -2.92671 0
M  V30 9655 H 947.462 -0.0587417 -2.99842 0
M  V30 9656 H 945.015 -0.068107 -1.56152 0
M  V30 9657 H 945.75 2.38524 -2.1972 0
M  V30 9658 H 945.535 1.39011 -3.66631 0
M  V30 9659 H 947.025 2.35592 -3.44799 0
M  V30 9660 N 947.462 1.57535 -0.0451378 0
M  V30 9661 C 948.395 2.06721 0.96653 0
M  V30 9662 C 949.373 0.966392 1.30766 0
M  V30 9663 O 950.557 1.23789 1.42157 0
M  V30 9664 C 947.684 2.50266 2.2822 0
M  V30 9665 C 946.73 3.71525 2.09455 0
M  V30 9666 S 947.563 5.17453 1.37851 0
M  V30 9667 C 948.719 5.64308 2.70753 0
M  V30 9668 H 948.952 2.92207 0.547911 0
M  V30 9669 H 946.485 1.53494 0.166973 0
M  V30 9670 H 948.443 2.76019 3.03849 0
M  V30 9671 H 947.104 1.65097 2.67211 0
M  V30 9672 H 946.297 3.99894 3.06759 0
M  V30 9673 H 945.899 3.46008 1.41967 0
M  V30 9674 H 948.191 5.69525 3.66943 0
M  V30 9675 H 949.134 6.63613 2.47028 0
M  V30 9676 H 949.542 4.92014 2.76736 0
M  V30 9677 N 948.94 -0.228186 1.55939 0
M  V30 9678 C 949.87 -1.28607 1.94891 0
M  V30 9679 C 950.851 -1.49236 0.816245 0
M  V30 9680 O 952.036 -1.61531 1.07803 0
M  V30 9681 C 949.166 -2.63719 2.25986 0
M  V30 9682 C 948.12 -2.57757 3.4168 0
M  V30 9683 C 947.446 -3.96837 3.58364 0
M  V30 9684 C 948.746 -2.13116 4.76843 0
M  V30 9685 H 950.44 -0.962531 2.83506 0
M  V30 9686 H 947.986 -0.461577 1.36402 0
M  V30 9687 H 949.939 -3.37878 2.51826 0
M  V30 9688 H 948.663 -2.97747 1.34217 0
M  V30 9689 H 947.322 -1.86055 3.15878 0
M  V30 9690 H 946.97 -4.28162 2.63982 0
M  V30 9691 H 946.67 -3.93731 4.36176 0
M  V30 9692 H 948.194 -4.72668 3.86545 0
M  V30 9693 H 949.608 -2.77015 5.01932 0
M  V30 9694 H 948.005 -2.21083 5.57891 0
M  V30 9695 H 949.075 -1.08326 4.72645 0
M  V30 9696 N 950.418 -1.49637 -0.494624 0
M  V30 9697 C 951.667 -1.58691 -1.24499 0
M  V30 9698 C 951.98 -0.281763 -1.9356 0
M  V30 9699 O 953.186 -0.250925 -2.70338 0
M  V30 9700 C 951.642 -2.8002 -2.26091 0
M  V30 9701 C 951.25 -4.17318 -1.6294 0
M  V30 9702 C 952.994 -2.98407 -3.01916 0
M  V30 9703 C 950.901 -5.29862 -2.62679 0
M  V30 9704 H 949.831 -0.590888 -0.468367 0
M  V30 9705 H 952.482 -1.76034 -0.518112 0
M  V30 9706 H 950.864 -2.56185 -3.01969 0
M  V30 9707 H 952.038 -4.51315 -0.930108 0
M  V30 9708 H 950.353 -4.04342 -0.994819 0
M  V30 9709 H 952.95 -3.79658 -3.76516 0
M  V30 9710 H 953.293 -2.09214 -3.5991 0
M  V30 9711 H 953.826 -3.22312 -2.33152 0
M  V30 9712 H 950.565 -6.21134 -2.09458 0
M  V30 9713 H 950.085 -5.00311 -3.3083 0
M  V30 9714 H 951.764 -5.59461 -3.2498 0
M  V30 9715 N 951.896 0.746133 -1.38819 0
M  V30 9716 C 952.859 1.84167 -1.36437 0
M  V30 9717 C 953.859 1.58626 -0.263499 0
M  V30 9718 O 955.049 1.66233 -0.520801 0
M  V30 9719 C 952.181 3.21769 -1.12596 0
M  V30 9720 H 953.374 1.87684 -2.33912 0
M  V30 9721 H 950.927 0.948625 -1.24221 0
M  V30 9722 H 951.662 3.23917 -0.15758 0
M  V30 9723 H 951.447 3.41702 -1.92307 0
M  V30 9724 H 952.937 4.0184 -1.13643 0
M  V30 9725 N 953.375 1.23811 0.975125 0
M  V30 9726 C 954.623 1.07124 1.71373 0
M  V30 9727 C 954.944 -0.391864 1.91022 0
M  V30 9728 O 954.214 -1.28041 1.48265 0
M  V30 9729 H 952.794 0.393415 0.635007 0
M  V30 9730 H 955.456 1.55612 1.17349 0
M  V30 9731 H 954.552 1.56338 2.7012 0
M  V30 9732 N 954.853 -1.17469 1.05066 0
M  V30 9733 C 956.093 -1.89382 0.769012 0
M  V30 9734 C 956.457 -1.79126 -0.691217 0
M  V30 9735 O 957.658 -2.45845 -1.08692 0
M  V30 9736 C 955.929 -3.35397 1.23465 0
M  V30 9737 S 957.488 -4.25297 1.08018 0
M  V30 9738 H 954.306 -0.653839 0.279312 0
M  V30 9739 H 956.908 -1.41877 1.34503 0
M  V30 9740 H 955.612 -3.40395 2.29258 0
M  V30 9741 H 955.143 -3.87945 0.652853 0
M  V30 9742 H 957.158 -4.962 0.00358573 0
M  V30 9743 N 956.331 -0.831506 -1.3388 0
M  V30 9744 C 957.58 -0.420028 -1.97278 0
M  V30 9745 C 957.893 1.02441 -1.66629 0
M  V30 9746 O 959.099 1.54021 -2.23584 0
M  V30 9747 C 957.555 -0.700116 -3.53025 0
M  V30 9748 C 957.163 -2.15874 -3.92559 0
M  V30 9749 C 958.907 -0.355226 -4.23011 0
M  V30 9750 C 956.814 -2.38327 -5.41252 0
M  V30 9751 H 955.744 -0.153326 -0.738246 0
M  V30 9752 H 958.395 -1.01906 -1.52602 0
M  V30 9753 H 956.777 -0.0308044 -3.95988 0
M  V30 9754 H 957.951 -2.86792 -3.60675 0
M  V30 9755 H 956.266 -2.4659 -3.35533 0
M  V30 9756 H 958.863 -0.500701 -5.32351 0
M  V30 9757 H 959.206 0.70111 -4.10354 0
M  V30 9758 H 959.739 -0.979466 -3.85553 0
M  V30 9759 H 956.478 -3.42498 -5.58906 0
M  V30 9760 H 955.998 -1.71962 -5.74621 0
M  V30 9761 H 957.677 -2.21113 -6.08045 0
M  V30 9762 N 957.809 1.4625 -0.587256 0
M  V30 9763 C 959.039 2.06444 -0.0802135 0
M  V30 9764 C 959.447 1.43585 1.23207 0
M  V30 9765 O 958.79 0.536956 1.75677 0
M  V30 9766 C 958.852 3.59165 0.155129 0
M  V30 9767 C 958.516 4.44243 -1.07225 0
M  V30 9768 C 959.513 4.80497 -1.98542 0
M  V30 9769 C 957.198 4.8531 -1.29537 0
M  V30 9770 C 959.192 5.56649 -3.10516 0
M  V30 9771 C 956.879 5.61221 -2.41815 0
M  V30 9772 C 957.877 5.96805 -3.32134 0
M  V30 9773 O 957.565 6.71181 -4.42461 0
M  V30 9774 H 957.297 0.673626 -0.0566063 0
M  V30 9775 H 959.851 1.88797 -0.809004 0
M  V30 9776 H 958.081 3.75137 0.938583 0
M  V30 9777 H 959.77 4.01271 0.611243 0
M  V30 9778 H 960.536 4.49345 -1.82522 0
M  V30 9779 H 956.415 4.5706 -0.601431 0
M  V30 9780 H 959.959 5.84343 -3.81037 0
M  V30 9781 H 955.856 5.91786 -2.57797 0
M  V30 9782 H 956.624 6.8961 -4.40886 0
M  V30 9783 N 959.287 0.325282 1.54207 0
M  V30 9784 C 960.234 -0.539889 2.24397 0
M  V30 9785 C 961.204 -1.11028 1.2354 0
M  V30 9786 O 962.389 -1.1503 1.52226 0
M  V30 9787 C 959.529 -1.69405 3.00659 0
M  V30 9788 C 958.642 -1.15273 4.16337 0
M  V30 9789 C 957.777 -2.27272 4.80126 0
M  V30 9790 C 956.816 -1.70397 5.87904 0
M  V30 9791 N 955.953 -2.76065 6.45548 0
M  V30 9792 H 960.793 0.0652318 2.97929 0
M  V30 9793 H 958.33 0.043964 1.47034 0
M  V30 9794 H 960.288 -2.37325 3.43122 0
M  V30 9795 H 958.918 -2.27043 2.29458 0
M  V30 9796 H 957.97 -0.365034 3.78645 0
M  V30 9797 H 959.282 -0.696576 4.93912 0
M  V30 9798 H 958.436 -3.03092 5.25566 0
M  V30 9799 H 957.175 -2.76224 4.01935 0
M  V30 9800 H 956.18 -0.930752 5.41864 0
M  V30 9801 H 957.405 -1.22319 6.67993 0
M  V30 9802 H 955.351 -3.24306 5.7023 0
M  V30 9803 H 955.268 -2.35018 7.18542 0
M  V30 9804 H 956.536 -3.5171 6.95644 0
M  V30 9805 N 960.765 -1.57509 0.0534917 0
M  V30 9806 C 961.995 -1.96812 -0.628386 0
M  V30 9807 C 962.403 -0.929808 -1.64776 0
M  V30 9808 O 961.746 0.0941155 -1.83459 0
M  V30 9809 C 961.808 -3.32361 -1.37027 0
M  V30 9810 C 961.472 -4.54185 -0.506465 0
M  V30 9811 C 962.469 -5.19398 0.228412 0
M  V30 9812 C 960.154 -5.00398 -0.43671 0
M  V30 9813 C 962.148 -6.29162 1.02146 0
M  V30 9814 C 959.835 -6.10039 0.360022 0
M  V30 9815 C 960.833 -6.74282 1.08779 0
M  V30 9816 O 960.521 -7.81814 1.87142 0
M  V30 9817 H 960.253 -0.65257 -0.176432 0
M  V30 9818 H 962.807 -2.05067 0.116908 0
M  V30 9819 H 961.037 -3.20667 -2.16125 0
M  V30 9820 H 962.726 -3.56395 -1.94261 0
M  V30 9821 H 963.492 -4.84651 0.184003 0
M  V30 9822 H 959.371 -4.50183 -0.992772 0
M  V30 9823 H 962.915 -6.79238 1.59002 0
M  V30 9824 H 958.812 -6.44222 0.406061 0
M  V30 9825 H 959.58 -7.98602 1.79378 0
M  V30 9826 N 962.243 0.219913 -1.56058 0
M  V30 9827 C 963.492 0.942119 -1.78345 0
M  V30 9828 C 963.805 1.85435 -0.622344 0
M  V30 9829 O 965.011 2.61533 -0.728886 0
M  V30 9830 C 963.467 1.72544 -3.15843 0
M  V30 9831 C 963.075 0.859263 -4.39682 0
M  V30 9832 C 964.819 2.43876 -3.47455 0
M  V30 9833 C 962.726 1.64003 -5.68205 0
M  V30 9834 H 961.656 0.355514 -0.664925 0
M  V30 9835 H 964.307 0.195963 -1.82451 0
M  V30 9836 H 962.689 2.51456 -3.05918 0
M  V30 9837 H 963.863 0.110562 -4.60667 0
M  V30 9838 H 962.178 0.257985 -4.156 0
M  V30 9839 H 964.775 3.02794 -4.40704 0
M  V30 9840 H 965.118 3.16843 -2.7003 0
M  V30 9841 H 965.651 1.71952 -3.58716 0
M  V30 9842 H 962.39 0.953606 -6.48526 0
M  V30 9843 H 961.91 2.3633 -5.51279 0
M  V30 9844 H 963.589 2.20028 -6.08438 0
M  V30 9845 N 963.721 1.49897 0.486681 0
M  V30 9846 C 964.631 1.70379 1.6127 0
M  V30 9847 C 965.647 0.58659 1.63814 0
M  V30 9848 O 966.823 0.863044 1.81971 0
M  V30 9849 C 963.888 1.77911 2.97571 0
M  V30 9850 C 962.949 3.01569 3.0554 0
M  V30 9851 C 962.182 3.08732 4.35339 0
M  V30 9852 O 962.405 2.23099 5.2496 0
M  V30 9853 O 961.339 4.01325 4.48578 0
M  V30 9854 H 965.165 2.65799 1.46916 0
M  V30 9855 H 962.75 1.33808 0.664516 0
M  V30 9856 H 964.632 1.85135 3.78554 0
M  V30 9857 H 963.307 0.856722 3.12157 0
M  V30 9858 H 962.214 2.99854 2.23693 0
M  V30 9859 H 963.547 3.93335 2.95886 0
M  V30 9860 N 965.199 -0.738761 1.39212 0
M  V30 9861 C 966.429 -1.5258 1.39295 0
M  V30 9862 C 966.837 -1.89194 -0.0153 0
M  V30 9863 O 966.18 -1.5435 -0.996073 0
M  V30 9864 C 966.242 -2.84462 2.19822 0
M  V30 9865 C 965.906 -2.70303 3.68491 0
M  V30 9866 C 966.903 -2.39102 4.61656 0
M  V30 9867 C 964.588 -2.87291 4.1203 0
M  V30 9868 C 966.582 -2.25066 5.96342 0
M  V30 9869 C 964.269 -2.72874 5.46793 0
M  V30 9870 C 965.267 -2.41807 6.38763 0
M  V30 9871 O 964.955 -2.27475 7.71045 0
M  V30 9872 H 964.687 -0.478236 0.477772 0
M  V30 9873 H 967.241 -0.920846 1.83602 0
M  V30 9874 H 965.471 -3.47202 1.70257 0
M  V30 9875 H 967.16 -3.46058 2.12129 0
M  V30 9876 H 967.926 -2.25632 4.2932 0
M  V30 9877 H 963.805 -3.10466 3.40781 0
M  V30 9878 H 967.349 -2.00739 6.68094 0
M  V30 9879 H 963.246 -2.85922 5.78722 0
M  V30 9880 H 964.014 -2.42574 7.81729 0
M  V30 9881 N 966.677 -1.24326 -0.968545 0
M  V30 9882 C 968.093 -1.00847 -1.23701 0
M  V30 9883 C 968.293 0.283235 -1.99499 0
M  V30 9884 O 967.349 0.999607 -2.31871 0
M  V30 9885 C 968.662 -2.22295 -2.02498 0
M  V30 9886 C 970.21 -2.26911 -2.15593 0
M  V30 9887 C 970.685 -3.47978 -2.97784 0
M  V30 9888 N 972.176 -3.48289 -3.05367 0
M  V30 9889 C 972.911 -4.38625 -3.69318 0
M  V30 9890 N 972.407 -5.39213 -4.34995 0
M  V30 9891 N 974.2 -4.26339 -3.66322 0
M  V30 9892 H 966.351 -2.07335 -0.461087 0
M  V30 9893 H 968.614 -0.909805 -0.26638 0
M  V30 9894 H 968.32 -3.161 -1.54188 0
M  V30 9895 H 968.194 -2.24344 -3.03232 0
M  V30 9896 H 970.581 -1.33639 -2.63106 0
M  V30 9897 H 970.662 -2.28888 -1.14209 0
M  V30 9898 H 970.306 -4.41564 -2.50965 0
M  V30 9899 H 970.236 -3.43244 -3.99364 0
M  V30 9900 H 972.727 -2.75517 -2.58648 0
M  V30 9901 H 973.04 -6.04378 -4.81608 0
M  V30 9902 H 971.385 -5.43101 -4.33667 0
M  V30 9903 H 974.576 -3.46991 -3.14189 0
M  V30 9904 H 974.749 -4.9694 -4.15878 0
M  V30 9905 N 968.156 1.1691 -1.05688 0
M  V30 9906 C 969.404 1.86922 -0.768409 0
M  V30 9907 C 969.725 1.81735 0.706921 0
M  V30 9908 O 968.995 1.24671 1.51109 0
M  V30 9909 H 967.575 0.69203 -0.281253 0
M  V30 9910 H 970.237 1.41803 -1.33708 0
M  V30 9911 H 969.333 2.92528 -1.08783 0
M  V30 9912 N 969.634 0.838594 1.33437 0
M  V30 9913 C 970.597 0.276843 2.27522 0
M  V30 9914 C 971.597 -0.554275 1.50945 0
M  V30 9915 O 972.787 -0.368107 1.70266 0
M  V30 9916 C 969.919 -0.610036 3.35397 0
M  V30 9917 H 971.112 1.10705 2.78719 0
M  V30 9918 H 968.665 0.611657 1.43835 0
M  V30 9919 H 969.4 -1.46269 2.89441 0
M  V30 9920 H 969.185 -0.0153615 3.92097 0
M  V30 9921 H 970.675 -0.996368 4.05539 0
M  V30 9922 N 971.112 -1.45937 0.595003 0
M  V30 9923 C 972.022 -2.34221 -0.133325 0
M  V30 9924 C 973.038 -1.50491 -0.873407 0
M  V30 9925 O 974.214 -1.83328 -0.833828 0
M  V30 9926 C 971.279 -3.27896 -1.12628 0
M  V30 9927 C 970.34 -4.27529 -0.389532 0
M  V30 9928 C 969.573 -5.16729 -1.33519 0
M  V30 9929 O 969.796 -5.09102 -2.57238 0
M  V30 9930 O 968.73 -5.96023 -0.839084 0
M  V30 9931 H 972.556 -2.97877 0.591861 0
M  V30 9932 H 970.141 -1.45113 0.355329 0
M  V30 9933 H 972.023 -3.85654 -1.69851 0
M  V30 9934 H 970.698 -2.6682 -1.83272 0
M  V30 9935 H 969.605 -3.73424 0.224843 0
M  V30 9936 H 970.938 -4.91425 0.276169 0
M  V30 9937 N 972.59 -0.333456 -1.54032 0
M  V30 9938 C 973.537 0.527981 -2.2468 0
M  V30 9939 C 974.507 1.10371 -1.24127 0
M  V30 9940 O 975.692 1.14221 -1.52834 0
M  V30 9941 C 972.832 1.67808 -3.01553 0
M  V30 9942 C 971.945 1.13064 -4.16942 0
M  V30 9943 C 971.08 2.24722 -4.81325 0
M  V30 9944 C 970.119 1.67277 -5.88799 0
M  V30 9945 N 969.256 2.72638 -6.47003 0
M  V30 9946 H 974.096 -0.0810308 -2.9789 0
M  V30 9947 H 971.633 -0.051761 -1.47009 0
M  V30 9948 H 973.591 2.35502 -3.44376 0
M  V30 9949 H 972.221 2.25823 -2.30659 0
M  V30 9950 H 971.273 0.344948 -3.78833 0
M  V30 9951 H 972.585 0.670373 -4.94275 0
M  V30 9952 H 971.739 3.00301 -5.27166 0
M  V30 9953 H 970.478 2.74089 -4.03394 0
M  V30 9954 H 969.483 0.902002 -5.4235 0
M  V30 9955 H 970.708 1.18775 -6.68632 0
M  V30 9956 H 968.654 3.21277 -5.71941 0
M  V30 9957 H 968.571 2.31204 -7.19778 0
M  V30 9958 H 969.839 3.48015 -6.97499 0
M  V30 9959 N 974.068 1.57479 -0.061844 0
M  V30 9960 C 974.978 2.15645 0.923826 0
M  V30 9961 C 975.994 1.117 1.33413 0
M  V30 9962 O 977.17 1.4392 1.40887 0
M  V30 9963 C 974.235 2.69857 2.17665 0
M  V30 9964 C 973.296 3.88638 1.8237 0
M  V30 9965 C 972.529 4.40256 3.01679 0
M  V30 9966 O 972.752 3.90908 4.15388 0
M  V30 9967 O 971.686 5.31713 2.82073 0
M  V30 9968 H 975.512 3.0021 0.459094 0
M  V30 9969 H 973.097 1.48534 0.160665 0
M  V30 9970 H 974.979 3.04647 2.9115 0
M  V30 9971 H 973.654 1.88357 2.63255 0
M  V30 9972 H 972.561 3.58719 1.06167 0
M  V30 9973 H 973.894 4.71401 1.4157 0
M  V30 9974 N 975.546 -0.211634 1.56173 0
M  V30 9975 C 976.792 -0.931479 1.80818 0
M  V30 9976 C 977.147 -1.81571 0.636373 0
M  V30 9977 O 976.44 -1.8801 -0.369182 0
M  V30 9978 C 976.634 -1.79657 3.08963 0
M  V30 9979 C 976.463 -0.997577 4.38496 0
M  V30 9980 C 975.233 -0.688558 5.00587 0
M  V30 9981 C 977.431 -0.358138 5.13052 0
M  V30 9982 N 975.413 0.130797 6.13761 0
M  V30 9983 C 976.784 0.324159 6.19152 0
M  V30 9984 C 978.839 -0.272178 4.97156 0
M  V30 9985 C 977.542 1.08421 7.11082 0
M  V30 9986 C 979.568 0.474428 5.89494 0
M  V30 9987 C 978.93 1.14523 6.95028 0
M  V30 9988 H 975.029 -0.32079 0.713174 0
M  V30 9989 H 977.613 -0.201528 1.93654 0
M  V30 9990 H 975.784 -2.49826 2.97392 0
M  V30 9991 H 977.516 -2.45464 3.2176 0
M  V30 9992 H 974.271 -1.00899 4.62727 0
M  V30 9993 H 974.695 0.5296 6.74925 0
M  V30 9994 H 979.337 -0.776448 4.15609 0
M  V30 9995 H 977.055 1.59996 7.92103 0
M  V30 9996 H 980.641 0.542076 5.79269 0
M  V30 9997 H 979.521 1.71371 7.65246 0
M  V30 9998 N 977.024 -1.50153 -0.478725 0
M  V30 9999 C 978.272 -1.60443 -1.22892 0
M  V30 10000 C 978.593 -0.303276 -1.92627 0
M  V30 10001 O 977.863 0.678798 -1.83764 0
M  V30 10002 H 976.443 -0.591205 -0.456602 0
M  V30 10003 H 979.105 -1.86893 -0.552905 0
M  V30 10004 H 978.201 -2.41175 -1.98094 0
M  V30 10005 N 978.502 0.731368 -1.39602 0
M  V30 10006 C 979.779 1.48308 -1.27531 0
M  V30 10007 C 980.159 2.10795 0.113482 0
M  V30 10008 O 979.507 1.98886 1.12501 0
M  V30 10009 C 979.717 2.53156 -2.40235 0
M  V30 10010 C 981.065 3.19436 -2.79725 0
M  V30 10011 O 982.089 2.6347 -2.39712 0
M  V30 10012 O 980.948 4.20714 -3.48801 0
M  V30 10013 H 978.042 0.658753 -0.499973 0
M  V30 10014 H 980.588 0.764884 -1.51485 0
M  V30 10015 H 979.36 2.05387 -3.33064 0
M  V30 10016 H 978.983 3.3253 -2.17966 0
M  V30 10017 N 979.98 1.24838 0.961938 0
M  V30 10018 C 981.228 1.08936 1.70227 0
M  V30 10019 C 981.549 -0.371582 1.91427 0
M  V30 10020 O 980.819 -1.26461 1.49614 0
M  V30 10021 H 979.399 0.400128 0.630799 0
M  V30 10022 H 982.061 1.56848 1.15692 0
M  V30 10023 H 981.157 1.59195 2.68446 0
M  V30 10024 N 981.458 -1.16348 1.06306 0
M  V30 10025 C 982.707 -1.8622 0.774909 0
M  V30 10026 C 983.02 -1.82598 -0.701245 0
M  V30 10027 O 984.226 -2.48051 -1.10377 0
M  V30 10028 C 982.682 -3.34182 1.33604 0
M  V30 10029 C 982.29 -3.46279 2.84245 0
M  V30 10030 C 984.034 -4.09309 1.12544 0
M  V30 10031 C 981.941 -4.88327 3.33602 0
M  V30 10032 H 980.871 -0.697574 0.286194 0
M  V30 10033 H 983.522 -1.31311 1.28179 0
M  V30 10034 H 981.904 -3.88698 0.756937 0
M  V30 10035 H 983.078 -3.01923 3.48108 0
M  V30 10036 H 981.393 -2.84585 3.03974 0
M  V30 10037 H 983.99 -5.14123 1.46909 0
M  V30 10038 H 984.333 -4.16251 0.0638129 0
M  V30 10039 H 984.866 -3.61032 1.67034 0
M  V30 10040 H 981.605 -4.86565 4.39244 0
M  V30 10041 H 981.125 -5.33307 2.74487 0
M  V30 10042 H 982.804 -5.57144 3.28937 0
M  V30 10043 N 982.937 -0.845659 -1.3299 0
M  V30 10044 C 984.353 -0.53433 -1.5039 0
M  V30 10045 C 984.553 0.936939 -1.78392 0
M  V30 10046 O 983.609 1.72043 -1.84818 0
M  V30 10047 C 984.922 -1.41354 -2.65404 0
M  V30 10048 C 986.47 -1.41303 -2.79289 0
M  V30 10049 C 986.945 -2.27724 -3.97373 0
M  V30 10050 N 988.436 -2.25471 -4.0462 0
M  V30 10051 C 989.171 -2.89074 -4.95201 0
M  V30 10052 N 988.667 -3.61755 -5.90851 0
M  V30 10053 N 990.46 -2.78508 -4.88251 0
M  V30 10054 H 982.611 -1.79798 -1.13078 0
M  V30 10055 H 984.874 -0.767454 -0.556524 0
M  V30 10056 H 984.58 -2.45936 -2.51413 0
M  V30 10057 H 984.454 -1.09445 -3.60973 0
M  V30 10058 H 986.841 -0.374899 -2.92709 0
M  V30 10059 H 986.922 -1.77222 -1.84461 0
M  V30 10060 H 986.566 -3.316 -3.84713 0
M  V30 10061 H 986.496 -1.89142 -4.9146 0
M  V30 10062 H 988.987 -1.72622 -3.3617 0
M  V30 10063 H 989.3 -4.07475 -6.56646 0
M  V30 10064 H 987.645 -3.65863 -5.90906 0
M  V30 10065 H 990.836 -2.21285 -4.12493 0
M  V30 10066 H 991.009 -3.2836 -5.58645 0
M  V30 10067 N 984.415 1.45619 -0.602734 0
M  V30 10068 C 985.663 2.01873 -0.095844 0
M  V30 10069 C 985.984 1.47427 1.27633 0
M  V30 10070 O 985.254 0.666652 1.84208 0
M  V30 10071 H 983.834 0.746295 -0.0324408 0
M  V30 10072 H 986.496 1.78478 -0.783037 0
M  V30 10073 H 985.592 3.12072 -0.0419507 0
M  V30 10074 N 985.893 0.34162 1.53853 0
M  V30 10075 C 986.823 -0.508431 2.27897 0
M  V30 10076 C 987.804 -1.10425 1.29384 0
M  V30 10077 O 988.989 -1.126 1.58224 0
M  V30 10078 C 986.119 -1.66048 3.05034 0
M  V30 10079 C 985.073 -1.19309 4.11035 0
M  V30 10080 C 984.399 -2.4335 4.76114 0
M  V30 10081 C 985.699 -0.294952 5.21467 0
M  V30 10082 H 987.393 0.109251 2.99201 0
M  V30 10083 H 984.939 0.0539847 1.43899 0
M  V30 10084 H 986.892 -2.26158 3.5557 0
M  V30 10085 H 985.616 -2.30503 2.31379 0
M  V30 10086 H 984.275 -0.614809 3.61408 0
M  V30 10087 H 983.923 -3.06208 3.99056 0
M  V30 10088 H 983.623 -2.1276 5.47729 0
M  V30 10089 H 985.147 -3.0419 5.29434 0
M  V30 10090 H 986.561 -0.80285 5.67651 0
M  V30 10091 H 984.958 -0.0810221 6.00045 0
M  V30 10092 H 986.028 0.669433 4.80257 0
M  V30 10093 N 987.371 -1.57444 0.0701946 0
M  V30 10094 C 988.596 -1.98171 -0.61181 0
M  V30 10095 C 989.021 -0.94823 -1.62451 0
M  V30 10096 O 988.379 0.0863553 -1.81094 0
M  V30 10097 C 988.427 -3.37934 -1.2583 0
M  V30 10098 O 987.531 -3.37207 -2.37414 0
M  V30 10099 H 986.872 -0.645056 -0.157477 0
M  V30 10100 H 989.402 -2.04091 0.144235 0
M  V30 10101 H 989.412 -3.75083 -1.60552 0
M  V30 10102 H 988.087 -4.12684 -0.516234 0
M  V30 10103 H 986.664 -3.11826 -2.04497 0
M  V30 10104 N 988.849 0.203349 -1.56283 0
M  V30 10105 C 989.779 1.2549 -1.96912 0
M  V30 10106 C 990.76 1.47919 -0.839884 0
M  V30 10107 O 991.945 1.59795 -1.10359 0
M  V30 10108 C 989.075 2.6009 -2.30153 0
M  V30 10109 C 988.029 2.52289 -3.45738 0
M  V30 10110 C 987.355 3.91086 -3.64632 0
M  V30 10111 C 988.655 2.05503 -4.80173 0
M  V30 10112 H 990.349 0.917306 -2.85002 0
M  V30 10113 H 987.895 0.439818 -1.37119 0
M  V30 10114 H 989.848 3.33829 -2.5717 0
M  V30 10115 H 988.572 2.95574 -1.38937 0
M  V30 10116 H 987.231 1.81006 -3.18798 0
M  V30 10117 H 986.879 4.23908 -2.7076 0
M  V30 10118 H 986.579 3.86742 -4.42385 0
M  V30 10119 H 988.103 4.66459 -3.94016 0
M  V30 10120 H 989.517 2.68995 -5.06275 0
M  V30 10121 H 987.914 2.1218 -5.61337 0
M  V30 10122 H 988.984 1.00793 -4.74309 0
M  V30 10123 N 990.327 1.50405 0.470755 0
M  V30 10124 C 991.275 1.6982 1.58946 0
M  V30 10125 C 992.269 0.56407 1.59733 0
M  V30 10126 O 993.475 0.744576 1.63878 0
M  V30 10127 H 989.85 0.536016 0.527438 0
M  V30 10128 H 991.821 2.63662 1.39732 0
M  V30 10129 C 990.57 1.80986 2.96883 0
M  V30 10130 H 989.893 2.67645 2.96996 0
M  V30 10131 H 991.333 1.98596 3.74614 0
M  V30 10132 C 989.792 0.561551 3.32187 0
M  V30 10133 O 990.322 -0.299136 4.00585 0
M  V30 10134 N 988.528 0.415476 2.87615 0
M  V30 10135 H 988.075 1.11691 2.32127 0
M  V30 10136 H 988.033 -0.418592 3.11601 0
M  V30 10137 N 991.805 -0.723954 1.39988 0
M  V30 10138 C 992.768 -1.81973 1.3935 0
M  V30 10139 C 993.768 -1.58187 0.288702 0
M  V30 10140 O 994.958 -1.65383 0.547181 0
M  V30 10141 C 992.09 -3.19937 1.177 0
M  V30 10142 H 993.283 -1.83939 2.36868 0
M  V30 10143 H 990.836 -0.928742 1.25714 0
M  V30 10144 H 991.571 -3.23625 0.209093 0
M  V30 10145 H 991.356 -3.386 1.97719 0
M  V30 10146 H 992.846 -3.99981 1.20022 0
M  V30 10147 N 993.283 -1.25346 -0.955304 0
M  V30 10148 C 994.246 -1.05754 -2.03344 0
M  V30 10149 C 995.246 -0.0105743 -1.60797 0
M  V30 10150 O 996.436 -0.252699 -1.72357 0
M  V30 10151 C 993.568 -0.605536 -3.35479 0
M  V30 10152 H 994.761 -2.01459 -2.22158 0
M  V30 10153 H 992.314 -1.07744 -1.1323 0
M  V30 10154 H 993.049 0.354154 -3.2236 0
M  V30 10155 H 992.834 -1.36134 -3.67709 0
M  V30 10156 H 994.324 -0.489867 -4.14717 0
M  V30 10157 N 994.761 1.15782 -1.06922 0
M  V30 10158 C 996.177 1.38454 -0.793896 0
M  V30 10159 C 996.377 1.92238 0.603875 0
M  V30 10160 O 995.433 2.1253 1.36335 0
M  V30 10161 C 996.746 2.3595 -1.86408 0
M  V30 10162 C 998.294 2.49622 -1.88833 0
M  V30 10163 C 998.769 3.50406 -2.94923 0
M  V30 10164 N 1000.26 3.57938 -2.93997 0
M  V30 10165 C 1001 4.35728 -3.72731 0
M  V30 10166 N 1000.49 5.16888 -4.61301 0
M  V30 10167 N 1002.28 4.30774 -3.61096 0
M  V30 10168 H 994.435 0.792101 -1.97077 0
M  V30 10169 H 996.698 0.410779 -0.85438 0
M  V30 10170 H 996.404 2.03537 -2.86819 0
M  V30 10171 H 996.278 3.35677 -1.72049 0
M  V30 10172 H 998.665 2.81335 -0.890759 0
M  V30 10173 H 998.746 1.49909 -2.0727 0
M  V30 10174 H 998.39 3.19429 -3.94877 0
M  V30 10175 H 998.32 4.49864 -2.73734 0
M  V30 10176 H 1000.81 3.00007 -2.29791 0
M  V30 10177 H 1001.12 5.73477 -5.18019 0
M  V30 10178 H 999.469 5.16209 -4.65353 0
M  V30 10179 H 1002.66 3.66432 -2.91282 0
M  V30 10180 H 1002.83 4.91151 -4.22699 0
M  V30 10181 N 996.239 0.8527 1.3254 0
M  V30 10182 C 997.469 0.468363 2.01221 0
M  V30 10183 C 997.877 -0.938966 1.64256 0
M  V30 10184 O 997.22 -1.62387 0.858837 0
M  V30 10185 C 997.282 0.525457 3.55639 0
M  V30 10186 C 996.946 1.89133 4.16026 0
M  V30 10187 C 997.943 2.85652 4.34395 0
M  V30 10188 C 995.628 2.18795 4.52144 0
M  V30 10189 C 997.622 4.09985 4.88048 0
M  V30 10190 C 995.309 3.43381 5.05502 0
M  V30 10191 C 996.307 4.38792 5.23403 0
M  V30 10192 O 995.995 5.61173 5.75622 0
M  V30 10193 H 995.727 0.182712 0.65084 0
M  V30 10194 H 998.281 1.15076 1.70138 0
M  V30 10195 H 996.511 -0.213779 3.86109 0
M  V30 10196 H 998.2 0.156999 4.05596 0
M  V30 10197 H 998.966 2.6404 4.06827 0
M  V30 10198 H 994.845 1.45317 4.37498 0
M  V30 10199 H 998.389 4.84465 5.01936 0
M  V30 10200 H 994.286 3.64844 5.32503 0
M  V30 10201 H 995.054 5.63104 5.94017 0
M  V30 10202 N 997.718 -1.45297 0.610449 0
M  V30 10203 C 998.681 -2.28995 -0.0968194 0
M  V30 10204 C 999.681 -1.39923 -0.792353 0
M  V30 10205 O 1000.87 -1.62014 -0.64008 0
M  V30 10206 C 998.003 -3.21013 -1.14731 0
M  V30 10207 H 999.196 -2.93012 0.639082 0
M  V30 10208 H 996.749 -1.51867 0.369624 0
M  V30 10209 H 997.484 -2.61803 -1.91388 0
M  V30 10210 H 997.269 -3.86628 -0.652753 0
M  V30 10211 H 998.759 -3.8394 -1.64256 0
M  V30 10212 N 999.196 -0.349774 -1.5367 0
M  V30 10213 C 1000.13 0.496338 -2.28164 0
M  V30 10214 C 1001.11 1.09737 -1.29968 0
M  V30 10215 O 1002.29 1.11759 -1.58819 0
M  V30 10216 C 999.422 1.64428 -3.0591 0
M  V30 10217 C 998.376 1.17127 -4.11661 0
M  V30 10218 C 997.702 2.40822 -4.77398 0
M  V30 10219 C 999.002 0.267293 -5.21616 0
M  V30 10220 H 1000.7 -0.125117 -2.99138 0
M  V30 10221 H 998.242 -0.0616152 -1.43868 0
M  V30 10222 H 1000.19 2.2427 -3.56765 0
M  V30 10223 H 998.919 2.29272 -2.32598 0
M  V30 10224 H 997.578 0.595634 -3.61729 0
M  V30 10225 H 997.226 3.04088 -4.00674 0
M  V30 10226 H 996.926 2.09852 -5.48849 0
M  V30 10227 H 998.45 3.01378 -5.3104 0
M  V30 10228 H 999.864 0.772734 -5.68068 0
M  V30 10229 H 998.261 0.0491991 -6.0008 0
M  V30 10230 H 999.331 -0.694892 -4.79895 0
M  V30 10231 N 1000.67 1.57404 -0.0785433 0
M  V30 10232 C 1001.6 2.16131 0.883726 0
M  V30 10233 C 1002.58 1.09015 1.30575 0
M  V30 10234 O 1003.77 1.3708 1.37559 0
M  V30 10235 C 1000.9 2.72836 2.1489 0
M  V30 10236 C 999.854 3.85178 1.86605 0
M  V30 10237 C 999.18 4.28516 3.1981 0
M  V30 10238 C 1000.48 5.09118 1.16601 0
M  V30 10239 H 1002.17 2.9679 0.394484 0
M  V30 10240 H 999.72 1.42763 0.188304 0
M  V30 10241 H 1001.67 3.12567 2.8263 0
M  V30 10242 H 1000.4 1.89408 2.66068 0
M  V30 10243 H 999.056 3.45962 1.21268 0
M  V30 10244 H 998.704 3.42 3.68843 0
M  V30 10245 H 998.404 5.04249 3.01674 0
M  V30 10246 H 999.928 4.70868 3.88737 0
M  V30 10247 H 1001.34 5.46123 1.74422 0
M  V30 10248 H 999.739 5.90173 1.087 0
M  V30 10249 H 1000.81 4.8468 0.146138 0
M  V30 10250 N 1002.15 -0.195058 1.56388 0
M  V30 10251 C 1003.57 -0.545894 1.49974 0
M  V30 10252 C 1003.77 -1.85851 0.778568 0
M  V30 10253 O 1002.82 -2.50346 0.329105 0
M  V30 10254 C 1004.14 -0.600599 2.94641 0
M  V30 10255 C 1005.68 -0.689429 3.05313 0
M  V30 10256 C 1006.16 -0.775243 4.51391 0
M  V30 10257 N 1007.65 -0.838769 4.55542 0
M  V30 10258 C 1008.39 -0.925337 5.65884 0
M  V30 10259 N 1007.88 -0.974204 6.85916 0
M  V30 10260 N 1009.67 -0.962528 5.53798 0
M  V30 10261 H 1001.83 0.66595 2.0169 0
M  V30 10262 H 1004.09 0.237215 0.917842 0
M  V30 10263 H 1003.79 0.29478 3.50462 0
M  V30 10264 H 1003.67 -1.45528 3.47996 0
M  V30 10265 H 1006.06 -1.57524 2.4954 0
M  V30 10266 H 1006.14 0.191451 2.55083 0
M  V30 10267 H 1005.78 0.106215 5.07789 0
M  V30 10268 H 1005.71 -1.67193 4.99354 0
M  V30 10269 H 1008.2 -0.810249 3.69112 0
M  V30 10270 H 1008.51 -1.04077 7.6576 0
M  V30 10271 H 1006.86 -0.942881 6.88574 0
M  V30 10272 H 1010.05 -0.921188 4.58946 0
M  V30 10273 H 1010.22 -1.02653 6.39817 0
M  V30 10274 N 1003.63 -1.50653 -0.462772 0
M  V30 10275 C 1004.88 -1.62297 -1.21603 0
M  V30 10276 C 1005.21 -0.326191 -1.91441 0
M  V30 10277 O 1004.48 0.67284 -1.82491 0
M  V30 10278 C 1004.77 -2.80901 -2.25315 0
M  V30 10279 C 1004.62 -4.20484 -1.59728 0
M  V30 10280 C 1005.94 -2.95049 -3.26549 0
M  V30 10281 H 1003.06 -0.590691 -0.440741 0
M  V30 10282 H 1005.7 -1.83064 -0.508675 0
M  V30 10283 H 1003.85 -2.63325 -2.85643 0
M  V30 10284 H 1005.52 -4.49669 -1.02932 0
M  V30 10285 H 1003.76 -4.24357 -0.900181 0
M  V30 10286 H 1004.44 -4.99416 -2.35133 0
M  V30 10287 H 1006.91 -3.11166 -2.76251 0
M  V30 10288 H 1005.79 -3.79645 -3.96435 0
M  V30 10289 H 1006.05 -2.06019 -3.91163 0
M  V30 10290 N 1005.11 0.71652 -1.4037 0
M  V30 10291 C 1006.02 1.86074 -1.42876 0
M  V30 10292 C 1007.03 1.71005 -0.321475 0
M  V30 10293 O 1008.21 1.93286 -0.565909 0
M  V30 10294 C 1005.28 3.21862 -1.28863 0
M  V30 10295 C 1004.34 3.49193 -2.49726 0
M  V30 10296 C 1003.57 4.78502 -2.36372 0
M  V30 10297 O 1003.79 5.53529 -1.37703 0
M  V30 10298 O 1002.73 5.06147 -3.25728 0
M  V30 10299 H 1006.55 1.86916 -2.39366 0
M  V30 10300 H 1004.14 0.866818 -1.21683 0
M  V30 10301 H 1006.02 4.02972 -1.23253 0
M  V30 10302 H 1004.69 3.2175 -0.354783 0
M  V30 10303 H 1003.6 2.68095 -2.60913 0
M  V30 10304 H 1004.93 3.54101 -3.41868 0
M  V30 10305 N 1006.59 1.25851 0.948643 0
M  V30 10306 C 1007.54 1.03437 2.03187 0
M  V30 10307 C 1008.52 -0.0307632 1.60871 0
M  V30 10308 O 1009.71 0.185296 1.76027 0
M  V30 10309 C 1006.84 0.661426 3.36868 0
M  V30 10310 C 1005.93 1.76363 3.8569 0
M  V30 10311 N 1006.32 2.9998 4.07241 0
M  V30 10312 C 1004.62 1.64552 4.14534 0
M  V30 10313 C 1005.32 3.71564 4.47566 0
M  V30 10314 N 1004.29 2.99214 4.53841 0
M  V30 10315 H 1008.1 1.97277 2.17851 0
M  V30 10316 H 1005.61 1.16258 1.13392 0
M  V30 10317 H 1007.61 0.482021 4.14104 0
M  V30 10318 H 1006.27 -0.269582 3.23579 0
M  V30 10319 H 1007.28 3.35963 3.94143 0
M  V30 10320 H 1003.95 0.783891 4.10075 0
M  V30 10321 H 1005.34 4.77702 4.72494 0
M  V30 10322 N 1008.06 -1.15214 1.07534 0
M  V30 10323 C 1009.31 -1.85676 0.79805 0
M  V30 10324 C 1009.63 -1.82837 -0.677919 0
M  V30 10325 O 1008.9 -1.27059 -1.49107 0
M  V30 10326 H 1007.48 -0.687468 0.292227 0
M  V30 10327 H 1010.15 -1.39658 1.35947 0
M  V30 10328 H 1009.24 -2.9076 1.13423 0
M  V30 10329 N 1009.54 -0.859717 -1.32086 0
M  V30 10330 C 1010.95 -0.519529 -1.79326 0
M  V30 10331 C 1011.3 0.96295 -1.70944 0
M  V30 10332 O 1010.43 1.75139 -1.27104 0
M  V30 10333 C 1011.02 -0.936267 -3.25606 0
M  V30 10334 C 1009.58 -0.647899 -3.70782 0
M  V30 10335 C 1008.73 -1.13323 -2.53087 0
M  V30 10336 H 1011.68 -1.04643 -1.19312 0
M  V30 10337 H 1011.7 -0.254714 -3.79646 0
M  V30 10338 H 1011.21 -2.01527 -3.31675 0
M  V30 10339 H 1009.32 0.420172 -3.70223 0
M  V30 10340 H 1009.43 -1.21774 -4.63366 0
M  V30 10341 H 1007.79 -0.553325 -2.48617 0
M  V30 10342 H 1008.58 -2.21945 -2.61907 0
M  V30 10343 N 1011.02 1.44971 -0.618145 0
M  V30 10344 C 1012.43 1.85611 -0.201334 0
M  V30 10345 C 1012.78 1.51698 1.24427 0
M  V30 10346 O 1011.91 0.94875 1.94493 0
M  V30 10347 C 1012.5 3.36897 -0.358619 0
M  V30 10348 C 1011.06 3.764 0.00358196 0
M  V30 10349 C 1010.21 2.68881 -0.678118 0
M  V30 10350 H 1013.16 1.35622 -0.824152 0
M  V30 10351 H 1013.18 3.78326 0.406176 0
M  V30 10352 H 1012.69 3.61548 -1.41084 0
M  V30 10353 H 1010.79 3.57365 1.05457 0
M  V30 10354 H 1010.91 4.77449 -0.397427 0
M  V30 10355 H 1009.27 2.54442 -0.114699 0
M  V30 10356 H 1010.05 2.96367 -1.73268 0
M  V30 10357 N 1012.5 0.357919 1.53482 0
M  V30 10358 C 1013.45 -0.50845 2.22258 0
M  V30 10359 C 1014.43 -1.05476 1.21506 0
M  V30 10360 O 1015.62 -0.986075 1.46988 0
M  V30 10361 C 1012.75 -1.65157 3.00962 0
M  V30 10362 C 1011.84 -1.11851 4.09084 0
M  V30 10363 N 1012.23 -0.307818 5.04862 0
M  V30 10364 C 1010.53 -1.39405 4.23653 0
M  V30 10365 C 1011.23 -0.016842 5.81698 0
M  V30 10366 N 1010.21 -0.612396 5.40139 0
M  V30 10367 H 1014.01 0.117836 2.93664 0
M  V30 10368 H 1011.52 0.16553 1.61554 0
M  V30 10369 H 1013.52 -2.28435 3.48745 0
M  V30 10370 H 1012.18 -2.281 2.31086 0
M  V30 10371 H 1013.19 0.0523313 5.17874 0
M  V30 10372 H 1009.87 -2.02682 3.65002 0
M  V30 10373 H 1011.26 0.638046 6.68864 0
M  V30 10374 N 1013.98 -1.5736 0.0868897 0
M  V30 10375 C 1015.2 -1.98388 -0.587349 0
M  V30 10376 C 1015.62 -0.965757 -1.6223 0
M  V30 10377 O 1014.98 0.0456981 -1.82443 0
M  V30 10378 C 1015.03 -3.39479 -1.24242 0
M  V30 10379 O 1014.75 -4.37393 -0.248878 0
M  V30 10380 C 1016.25 -3.95465 -2.00305 0
M  V30 10381 H 1013.47 -0.652111 -0.15809 0
M  V30 10382 H 1016.01 -2.03843 0.163754 0
M  V30 10383 H 1014.17 -3.35063 -1.94451 0
M  V30 10384 H 1014.58 -5.19525 -0.720678 0
M  V30 10385 H 1016.06 -4.96363 -2.41511 0
M  V30 10386 H 1016.53 -3.32832 -2.86565 0
M  V30 10387 H 1017.14 -4.03328 -1.34931 0
M  V30 10388 N 1015.45 0.186762 -1.56489 0
M  V30 10389 C 1016.4 1.23141 -1.95205 0
M  V30 10390 C 1017.37 1.44799 -0.81378 0
M  V30 10391 O 1018.56 1.57795 -1.07263 0
M  V30 10392 C 1015.7 2.56926 -2.30397 0
M  V30 10393 C 1014.81 2.42777 -3.57328 0
M  V30 10394 C 1013.94 3.69323 -3.81804 0
M  V30 10395 C 1012.98 3.50041 -5.02133 0
M  V30 10396 N 1012.12 4.68619 -5.2282 0
M  V30 10397 H 1016.96 0.894256 -2.84266 0
M  V30 10398 H 1014.5 0.430187 -1.40669 0
M  V30 10399 H 1016.46 3.3488 -2.4882 0
M  V30 10400 H 1015.09 2.88668 -1.44466 0
M  V30 10401 H 1014.14 1.56078 -3.46906 0
M  V30 10402 H 1015.45 2.24468 -4.45439 0
M  V30 10403 H 1014.6 4.55715 -4.00511 0
M  V30 10404 H 1013.34 3.90595 -2.92039 0
M  V30 10405 H 1012.35 2.62034 -4.8334 0
M  V30 10406 H 1013.57 3.30206 -5.93414 0
M  V30 10407 H 1011.52 4.90139 -4.36005 0
M  V30 10408 H 1011.44 4.53165 -6.05126 0
M  V30 10409 H 1012.7 5.56338 -5.45993 0
M  V30 10410 N 1016.93 1.50896 0.454776 0
M  V30 10411 C 1017.88 1.71497 1.57136 0
M  V30 10412 C 1018.87 0.58098 1.59126 0
M  V30 10413 O 1020.08 0.761916 1.63079 0
M  V30 10414 H 1016.46 0.54158 0.521724 0
M  V30 10415 H 1018.43 2.65129 1.36928 0
M  V30 10416 C 1017.18 1.84125 2.94947 0
M  V30 10417 H 1016.5 2.7078 2.9414 0
M  V30 10418 H 1017.94 2.02558 3.72487 0
M  V30 10419 C 1016.4 0.596752 3.31573 0
M  V30 10420 O 1016.93 -0.256632 4.00879 0
M  V30 10421 N 1015.13 0.445958 2.87158 0
M  V30 10422 H 1014.68 1.14146 2.30929 0
M  V30 10423 H 1014.64 -0.385519 3.12027 0
M  V30 10424 N 1018.41 -0.709066 1.40748 0
M  V30 10425 C 1019.66 -1.46993 1.40587 0
M  V30 10426 C 1020.01 -1.92397 0.00986301 0
M  V30 10427 O 1019.3 -1.65712 -0.961772 0
M  V30 10428 C 1019.5 -2.70543 2.33541 0
M  V30 10429 C 1019.33 -2.37222 3.82041 0
M  V30 10430 C 1018.1 -2.28244 4.50813 0
M  V30 10431 C 1020.3 -2.01069 4.73367 0
M  V30 10432 N 1018.28 -1.87667 5.84512 0
M  V30 10433 C 1019.65 -1.71144 5.95911 0
M  V30 10434 C 1021.7 -1.87761 4.6114 0
M  V30 10435 C 1020.41 -1.2925 7.07592 0
M  V30 10436 C 1022.43 -1.47271 5.7277 0
M  V30 10437 C 1021.79 -1.18249 6.94404 0
M  V30 10438 H 1017.89 -0.535708 0.569685 0
M  V30 10439 H 1020.48 -0.821669 1.76513 0
M  V30 10440 H 1018.65 -3.33109 1.99733 0
M  V30 10441 H 1020.38 -3.36927 2.24192 0
M  V30 10442 H 1017.14 -2.46199 4.04578 0
M  V30 10443 H 1017.56 -1.69899 6.55335 0
M  V30 10444 H 1022.2 -2.08858 3.67611 0
M  V30 10445 H 1019.92 -1.06896 8.00999 0
M  V30 10446 H 1023.51 -1.37544 5.65308 0
M  V30 10447 H 1022.39 -0.873897 7.79316 0
M  V30 10448 N 1019.89 -1.26353 -0.941956 0
M  V30 10449 C 1021.31 -1.03448 -1.21534 0
M  V30 10450 C 1021.51 0.240855 -2.00055 0
M  V30 10451 O 1020.56 0.950199 -2.33939 0
M  V30 10452 C 1021.87 -2.2654 -1.97737 0
M  V30 10453 C 1023.42 -2.31433 -2.10731 0
M  V30 10454 C 1023.9 -3.54216 -2.90336 0
M  V30 10455 N 1025.39 -3.54688 -2.9791 0
M  V30 10456 C 1026.12 -4.4636 -3.59931 0
M  V30 10457 N 1025.62 -5.48319 -4.2346 0
M  V30 10458 N 1027.41 -4.34013 -3.57196 0
M  V30 10459 H 1019.56 -2.08266 -0.417005 0
M  V30 10460 H 1021.83 -0.915251 -0.247021 0
M  V30 10461 H 1021.53 -3.19299 -1.47449 0
M  V30 10462 H 1021.41 -2.30726 -2.98405 0
M  V30 10463 H 1023.79 -1.3919 -2.60212 0
M  V30 10464 H 1023.87 -2.31259 -1.09329 0
M  V30 10465 H 1023.52 -4.46788 -2.41543 0
M  V30 10466 H 1023.45 -3.51637 -3.91993 0
M  V30 10467 H 1025.94 -2.80942 -2.52745 0
M  V30 10468 H 1026.25 -6.14458 -4.6868 0
M  V30 10469 H 1024.6 -5.52177 -4.22049 0
M  V30 10470 H 1027.79 -3.53578 -3.06758 0
M  V30 10471 H 1027.96 -5.0565 -4.05244 0
M  V30 10472 N 1021.37 1.14642 -1.08144 0
M  V30 10473 C 1022.78 1.6719 -0.830923 0
M  V30 10474 C 1023.13 1.85373 0.642749 0
M  V30 10475 O 1022.25 1.56293 1.49671 0
M  V30 10476 C 1022.85 3.03697 -1.50179 0
M  V30 10477 C 1021.41 3.5329 -1.29858 0
M  V30 10478 C 1020.56 2.28828 -1.5663 0
M  V30 10479 H 1023.51 0.987441 -1.24239 0
M  V30 10480 H 1023.53 3.69023 -0.9275 0
M  V30 10481 H 1023.04 2.90431 -2.57432 0
M  V30 10482 H 1021.14 3.71783 -0.246626 0
M  V30 10483 H 1021.25 4.34231 -2.02436 0
M  V30 10484 H 1019.62 2.34769 -0.987716 0
M  V30 10485 H 1020.4 2.18141 -2.65084 0
M  V30 10486 N 1022.85 0.866709 1.31628 0
M  V30 10487 C 1023.78 0.277328 2.27516 0
M  V30 10488 C 1024.79 -0.557786 1.52946 0
M  V30 10489 O 1025.98 -0.38031 1.74402 0
M  V30 10490 C 1023.08 -0.625742 3.33073 0
M  V30 10491 C 1022.25 0.176204 4.37045 0
M  V30 10492 C 1021.31 -0.654497 5.22114 0
M  V30 10493 O 1020.34 -0.0836961 5.69138 0
M  V30 10494 N 1021.54 -1.96708 5.46156 0
M  V30 10495 H 1024.3 1.10133 2.78731 0
M  V30 10496 H 1021.87 0.72787 1.44616 0
M  V30 10497 H 1023.86 -1.18709 3.86898 0
M  V30 10498 H 1022.43 -1.35042 2.81926 0
M  V30 10499 H 1021.65 0.918999 3.83338 0
M  V30 10500 H 1022.94 0.726594 5.03585 0
M  V30 10501 H 1022.33 -2.454 5.09701 0
M  V30 10502 H 1020.89 -2.47629 6.02929 0
M  V30 10503 N 1024.32 -1.44642 0.625825 0
M  V30 10504 C 1025.57 -2.02393 0.128391 0
M  V30 10505 C 1025.9 -1.49075 -1.2446 0
M  V30 10506 O 1025.18 -0.672684 -1.82497 0
M  V30 10507 C 1025.46 -3.59934 0.109279 0
M  V30 10508 C 1025.31 -4.23546 1.51423 0
M  V30 10509 C 1026.63 -4.36406 -0.568985 0
M  V30 10510 H 1023.75 -0.735427 0.0481299 0
M  V30 10511 H 1026.39 -1.72277 0.801286 0
M  V30 10512 H 1024.54 -3.85722 -0.463726 0
M  V30 10513 H 1026.22 -4.08882 2.13572 0
M  V30 10514 H 1024.46 -3.81245 2.06966 0
M  V30 10515 H 1025.13 -5.32535 1.45294 0
M  V30 10516 H 1027.61 -4.1602 -0.0817516 0
M  V30 10517 H 1026.48 -5.46122 -0.551527 0
M  V30 10518 H 1026.74 -4.1062 -1.6384 0
M  V30 10519 N 1025.8 -0.366053 -1.5329 0
M  V30 10520 C 1026.73 0.47211 -2.28677 0
M  V30 10521 C 1027.71 1.08353 -1.31125 0
M  V30 10522 O 1028.9 1.10069 -1.59995 0
M  V30 10523 C 1026.03 1.61174 -3.07637 0
M  V30 10524 C 1024.98 1.12755 -4.12881 0
M  V30 10525 C 1024.31 2.35745 -4.79925 0
M  V30 10526 C 1025.61 0.211954 -5.2187 0
M  V30 10527 H 1027.3 -0.156838 -2.98989 0
M  V30 10528 H 1024.85 -0.0768709 -1.43795 0
M  V30 10529 H 1026.8 2.20473 -3.59123 0
M  V30 10530 H 1025.52 2.26793 -2.35016 0
M  V30 10531 H 1024.18 0.557234 -3.6234 0
M  V30 10532 H 1023.83 2.99821 -4.03877 0
M  V30 10533 H 1023.53 2.04019 -5.51044 0
M  V30 10534 H 1025.06 2.95729 -5.34207 0
M  V30 10535 H 1026.47 0.71244 -5.68856 0
M  V30 10536 H 1024.87 -0.0144501 -6.00098 0
M  V30 10537 H 1025.94 -0.745753 -4.79131 0
M  V30 10538 N 1027.28 1.57312 -0.0952337 0
M  V30 10539 C 1028.53 1.94646 0.569284 0
M  V30 10540 C 1028.86 0.977152 1.67825 0
M  V30 10541 O 1028.13 0.0102318 1.94497 0
M  V30 10542 C 1028.42 3.42098 1.12433 0
M  V30 10543 C 1028.27 4.49795 0.0204016 0
M  V30 10544 C 1029.59 3.90866 2.02266 0
M  V30 10545 H 1026.71 0.707779 0.205469 0
M  V30 10546 H 1029.35 1.89274 -0.16597 0
M  V30 10547 H 1027.5 3.46807 1.75092 0
M  V30 10548 H 1029.17 4.57198 -0.613845 0
M  V30 10549 H 1027.41 4.28964 -0.645965 0
M  V30 10550 H 1028.09 5.50166 0.449579 0
M  V30 10551 H 1030.56 3.88311 1.49512 0
M  V30 10552 H 1029.44 4.94604 2.38029 0
M  V30 10553 H 1029.7 3.30167 2.9401 0
M  V30 10554 N 1028.76 -0.17846 1.56586 0
M  V30 10555 C 1029.69 -1.2496 1.90946 0
M  V30 10556 C 1030.67 -1.43136 0.771424 0
M  V30 10557 O 1031.85 -1.58258 1.02405 0
M  V30 10558 C 1028.98 -2.61368 2.15417 0
M  V30 10559 C 1028.03 -2.59969 3.3811 0
M  V30 10560 S 1028.86 -2.09756 4.9271 0
M  V30 10561 C 1030.01 -3.47956 5.20267 0
M  V30 10562 H 1030.25 -0.956287 2.815 0
M  V30 10563 H 1027.78 -0.382709 1.49582 0
M  V30 10564 H 1029.74 -3.39882 2.30197 0
M  V30 10565 H 1028.4 -2.87903 1.25582 0
M  V30 10566 H 1027.59 -3.60309 3.52411 0
M  V30 10567 H 1027.19 -1.89547 3.2241 0
M  V30 10568 H 1029.49 -4.43914 5.11807 0
M  V30 10569 H 1030.43 -3.38536 6.21932 0
M  V30 10570 H 1030.84 -3.43637 4.47855 0
M  V30 10571 N 1030.24 -1.51135 -0.446768 0
M  V30 10572 C 1031.17 -1.74709 -1.54916 0
M  V30 10573 C 1032.15 -0.596628 -1.59293 0
M  V30 10574 O 1033.33 -0.838356 -1.75172 0
M  V30 10575 C 1030.46 -1.86353 -2.9307 0
M  V30 10576 C 1029.42 -3.01725 -3.03556 0
M  V30 10577 C 1028.74 -2.9854 -4.43597 0
M  V30 10578 C 1030.04 -4.41848 -2.7851 0
M  V30 10579 H 1031.74 -2.67014 -1.3544 0
M  V30 10580 H 1029.28 -1.28489 -0.650131 0
M  V30 10581 H 1031.23 -2.01428 -3.70141 0
M  V30 10582 H 1029.96 -0.906887 -3.13756 0
M  V30 10583 H 1028.62 -2.86339 -2.28922 0
M  V30 10584 H 1028.27 -2.00673 -4.61237 0
M  V30 10585 H 1027.97 -3.76008 -4.51544 0
M  V30 10586 H 1029.49 -3.15696 -5.22655 0
M  V30 10587 H 1030.9 -4.57633 -3.45319 0
M  V30 10588 H 1029.3 -5.2095 -2.97877 0
M  V30 10589 H 1030.37 -4.52536 -1.74182 0
M  V30 10590 N 1031.71 0.701592 -1.41122 0
M  V30 10591 C 1032.66 1.83691 -1.4269 0
M  V30 10592 C 1033.66 1.6662 -0.305658 0
M  V30 10593 O 1034.86 1.73554 -0.477392 0
M  V30 10594 H 1031.24 0.605222 -0.44633 0
M  V30 10595 H 1033.21 1.79485 -2.38386 0
M  V30 10596 C 1031.96 3.21666 -1.32008 0
M  V30 10597 H 1031.28 3.35416 -2.17569 0
M  V30 10598 H 1032.72 4.012 -1.37165 0
M  V30 10599 C 1031.18 3.36885 -0.0317678 0
M  V30 10600 O 1031.71 3.90885 0.925836 0
M  V30 10601 N 1029.91 2.90569 0.0423401 0
M  V30 10602 H 1029.46 2.46812 -0.737673 0
M  V30 10603 H 1029.42 3.0113 0.903764 0
M  V30 10604 N 1033.19 1.2685 0.935242 0
M  V30 10605 C 1034.12 1.1143 2.05196 0
M  V30 10606 C 1035.1 0.0178362 1.70091 0
M  V30 10607 O 1036.29 0.190951 1.93259 0
M  V30 10608 C 1033.42 0.752779 3.39044 0
M  V30 10609 C 1032.37 1.80164 3.88233 0
M  V30 10610 C 1031.7 1.29428 5.18799 0
M  V30 10611 C 1033 3.20431 4.12457 0
M  V30 10612 H 1034.69 2.04845 2.18355 0
M  V30 10613 H 1032.24 0.986276 1.04922 0
M  V30 10614 H 1034.19 0.631757 4.16637 0
M  V30 10615 H 1032.91 -0.217075 3.25878 0
M  V30 10616 H 1031.57 1.91144 3.12825 0
M  V30 10617 H 1031.22 0.3141 5.02018 0
M  V30 10618 H 1030.92 1.99546 5.5268 0
M  V30 10619 H 1032.45 1.18605 5.9897 0
M  V30 10620 H 1033.86 3.12495 4.80645 0
M  V30 10621 H 1032.26 3.88193 4.57631 0
M  V30 10622 H 1033.33 3.66046 3.18023 0
M  V30 10623 N 1034.67 -1.14067 1.0875 0
M  V30 10624 C 1035.95 -1.81389 0.73195 0
M  V30 10625 C 1036.33 -1.96005 -0.78391 0
M  V30 10626 O 1035.68 -1.52267 -1.70373 0
M  V30 10627 C 1035.89 -3.16858 1.46294 0
M  V30 10628 C 1037.23 -3.92305 1.62426 0
M  V30 10629 O 1038.26 -3.26459 1.42488 0
M  V30 10630 O 1037.12 -5.10393 1.9535 0
M  V30 10631 H 1034.21 -0.784354 0.262141 0
M  V30 10632 H 1036.76 -1.21054 1.18929 0
M  V30 10633 H 1035.53 -3.01404 2.49542 0
M  V30 10634 H 1035.15 -3.84889 0.997318 0
M  V30 10635 N 1036.15 -0.873678 -1.31166 0
M  V30 10636 C 1037.11 -0.337069 -2.26708 0
M  V30 10637 C 1038.11 0.51406 -1.52362 0
M  V30 10638 O 1039.3 0.322834 -1.71182 0
M  V30 10639 C 1036.43 0.520897 -3.36897 0
M  V30 10640 H 1037.63 -1.18056 -2.75686 0
M  V30 10641 H 1035.18 -0.649577 -1.42163 0
M  V30 10642 H 1035.91 1.38543 -2.93217 0
M  V30 10643 H 1035.7 -0.0886015 -3.92 0
M  V30 10644 H 1037.19 0.888497 -4.08039 0
M  V30 10645 N 1037.63 1.44308 -0.633487 0
M  V30 10646 C 1038.54 2.34492 0.0711787 0
M  V30 10647 C 1039.55 1.52754 0.8332 0
M  V30 10648 O 1040.73 1.85475 0.784929 0
M  V30 10649 C 1037.79 3.30767 1.03895 0
M  V30 10650 C 1036.85 4.28412 0.276043 0
M  V30 10651 C 1036.09 5.20087 1.19772 0
M  V30 10652 O 1036.31 5.15743 2.4365 0
M  V30 10653 O 1035.24 5.98038 0.680764 0
M  V30 10654 H 1039.07 2.96203 -0.67063 0
M  V30 10655 H 1036.66 1.4412 -0.393678 0
M  V30 10656 H 1038.54 3.90021 1.59566 0
M  V30 10657 H 1037.21 2.71586 1.76133 0
M  V30 10658 H 1036.12 3.72696 -0.32377 0
M  V30 10659 H 1037.45 4.9052 -0.406364 0
M  V30 10660 N 1039.1 0.374177 1.53094 0
M  V30 10661 C 1040.04 -0.503065 2.23611 0
M  V30 10662 C 1041.05 -1.03915 1.25321 0
M  V30 10663 O 1042.24 -0.944064 1.51492 0
M  V30 10664 C 1039.34 -1.70825 2.92698 0
M  V30 10665 C 1038.51 -1.30217 4.17567 0
M  V30 10666 C 1037.57 -2.37036 4.69788 0
M  V30 10667 O 1036.6 -1.99069 5.33254 0
M  V30 10668 N 1037.8 -3.68743 4.4834 0
M  V30 10669 H 1040.56 0.101013 2.9953 0
M  V30 10670 H 1038.12 0.199778 1.60663 0
M  V30 10671 H 1040.12 -2.41779 3.24538 0
M  V30 10672 H 1038.69 -2.219 2.2018 0
M  V30 10673 H 1037.91 -0.422121 3.91933 0
M  V30 10674 H 1039.19 -1.00728 4.9873 0
M  V30 10675 H 1038.59 -4.0236 3.97647 0
M  V30 10676 H 1037.15 -4.35776 4.84709 0
M  V30 10677 N 1040.58 -1.57259 0.103575 0
M  V30 10678 C 1041.55 -2.13337 -0.837859 0
M  V30 10679 C 1042.55 -1.06459 -1.20512 0
M  V30 10680 O 1043.74 -1.32307 -1.13316 0
M  V30 10681 C 1040.87 -2.66093 -2.13089 0
M  V30 10682 H 1042.06 -2.97842 -0.350775 0
M  V30 10683 H 1039.61 -1.55621 -0.145511 0
M  V30 10684 H 1040.35 -1.85133 -2.66264 0
M  V30 10685 H 1040.13 -3.44244 -1.87719 0
M  V30 10686 H 1041.62 -3.09443 -2.80419 0
M  V30 10687 N 1042.06 0.170153 -1.56679 0
M  V30 10688 C 1043.31 0.887906 -1.8233 0
M  V30 10689 C 1043.64 1.81845 -0.681608 0
M  V30 10690 O 1042.91 1.9191 0.316362 0
M  V30 10691 C 1043.2 1.68256 -3.18374 0
M  V30 10692 C 1043.05 0.775059 -4.43072 0
M  V30 10693 C 1044.37 2.65001 -3.51372 0
M  V30 10694 H 1041.49 0.32135 -0.663252 0
M  V30 10695 H 1044.13 0.154065 -1.89374 0
M  V30 10696 H 1042.28 2.30817 -3.12499 0
M  V30 10697 H 1043.95 0.162234 -4.61015 0
M  V30 10698 H 1042.2 0.0831809 -4.3372 0
M  V30 10699 H 1042.87 1.36661 -5.34816 0
M  V30 10700 H 1045.34 2.12566 -3.57708 0
M  V30 10701 H 1044.22 3.17667 -4.47637 0
M  V30 10702 H 1044.48 3.45255 -2.76136 0
M  V30 10703 N 1043.54 1.5137 0.438746 0
M  V30 10704 C 1044.49 1.72582 1.53245 0
M  V30 10705 C 1045.46 0.567488 1.56105 0
M  V30 10706 O 1046.64 0.80176 1.73137 0
M  V30 10707 C 1043.78 1.85551 2.90972 0
M  V30 10708 C 1042.89 3.13094 2.97652 0
M  V30 10709 C 1042.03 3.16666 4.26493 0
M  V30 10710 C 1041.07 4.38529 4.27035 0
M  V30 10711 N 1040.2 4.39659 5.47398 0
M  V30 10712 H 1045.04 2.65941 1.3446 0
M  V30 10713 H 1042.58 1.31801 0.653206 0
M  V30 10714 H 1044.54 1.91053 3.70884 0
M  V30 10715 H 1043.17 0.956025 3.08318 0
M  V30 10716 H 1042.22 3.16909 2.10412 0
M  V30 10717 H 1043.53 4.03009 2.93914 0
M  V30 10718 H 1042.69 3.21075 5.14777 0
M  V30 10719 H 1041.43 2.24637 4.32885 0
M  V30 10720 H 1040.43 4.34297 3.37144 0
M  V30 10721 H 1041.66 5.31821 4.22307 0
M  V30 10722 H 1039.6 3.50499 5.54514 0
M  V30 10723 H 1039.52 5.23382 5.45534 0
M  V30 10724 H 1040.79 4.48259 6.37718 0
M  V30 10725 N 1045.02 -0.694098 1.41492 0
M  V30 10726 C 1045.97 -1.80016 1.39923 0
M  V30 10727 C 1046.95 -1.58561 0.273377 0
M  V30 10728 O 1048.14 -1.69368 0.514157 0
M  V30 10729 C 1045.27 -3.18333 1.28526 0
M  V30 10730 C 1044.36 -3.45478 2.45979 0
M  V30 10731 N 1044.75 -3.43313 3.71443 0
M  V30 10732 C 1043.05 -3.76033 2.39824 0
M  V30 10733 C 1043.75 -3.69404 4.4935 0
M  V30 10734 N 1042.72 -3.89221 3.79484 0
M  V30 10735 H 1046.53 -1.76707 2.34844 0
M  V30 10736 H 1044.04 -0.894148 1.35568 0
M  V30 10737 H 1046.04 -3.97567 1.25484 0
M  V30 10738 H 1044.7 -3.22852 0.345904 0
M  V30 10739 H 1045.71 -3.2366 4.04308 0
M  V30 10740 H 1042.38 -3.87913 1.54368 0
M  V30 10741 H 1043.77 -3.73854 5.58285 0
M  V30 10742 N 1046.49 -1.27344 -0.928501 0
M  V30 10743 C 1047.91 -1.12361 -1.49103 0
M  V30 10744 C 1048.26 0.291667 -1.9402 0
M  V30 10745 O 1047.38 1.18449 -1.81104 0
M  V30 10746 C 1047.98 -2.03358 -2.70981 0
M  V30 10747 C 1046.54 -1.92483 -3.23461 0
M  V30 10748 C 1045.68 -1.95961 -1.962 0
M  V30 10749 H 1048.63 -1.40249 -0.742689 0
M  V30 10750 H 1048.65 -1.58892 -3.45736 0
M  V30 10751 H 1048.17 -3.06356 -2.38259 0
M  V30 10752 H 1046.27 -0.924676 -3.60944 0
M  V30 10753 H 1046.38 -2.78682 -3.89709 0
M  V30 10754 H 1044.74 -1.40175 -2.12657 0
M  V30 10755 H 1045.53 -3.00612 -1.65793 0
M  V30 10756 N 1047.97 1.13488 -1.09353 0
M  V30 10757 C 1049.39 1.36739 -0.823086 0
M  V30 10758 C 1049.59 1.93476 0.562963 0
M  V30 10759 O 1048.64 2.15374 1.31796 0
M  V30 10760 C 1049.96 2.31943 -1.91371 0
M  V30 10761 C 1051.51 2.4556 -1.94085 0
M  V30 10762 C 1051.98 3.44072 -3.02289 0
M  V30 10763 N 1053.47 3.51622 -3.01524 0
M  V30 10764 C 1054.21 4.27724 -3.8189 0
M  V30 10765 N 1053.7 5.06987 -4.72161 0
M  V30 10766 N 1055.5 4.23018 -3.70152 0
M  V30 10767 H 1047.65 0.75012 -1.98713 0
M  V30 10768 H 1049.91 0.392564 -0.862901 0
M  V30 10769 H 1049.62 1.97408 -2.91072 0
M  V30 10770 H 1049.49 3.31952 -1.79131 0
M  V30 10771 H 1051.88 2.79382 -0.950234 0
M  V30 10772 H 1051.96 1.45479 -2.10403 0
M  V30 10773 H 1051.6 3.10981 -4.01564 0
M  V30 10774 H 1051.53 4.43956 -2.83214 0
M  V30 10775 H 1054.02 2.95066 -2.36103 0
M  V30 10776 H 1054.34 5.6236 -5.30067 0
M  V30 10777 H 1052.68 5.06222 -4.76197 0
M  V30 10778 H 1055.87 3.60171 -2.98989 0
M  V30 10779 H 1056.04 4.82075 -4.33022 0
M  V30 10780 N 1049.45 0.880621 1.30701 0
M  V30 10781 C 1050.38 0.360251 2.30704 0
M  V30 10782 C 1051.36 -0.554572 1.60806 0
M  V30 10783 O 1052.55 -0.469345 1.88443 0
M  V30 10784 C 1049.68 -0.429888 3.44629 0
M  V30 10785 C 1048.63 0.392786 4.26194 0
M  V30 10786 C 1047.96 -0.52369 5.32129 0
M  V30 10787 C 1049.26 1.63258 4.96129 0
M  V30 10788 H 1050.95 1.19591 2.74478 0
M  V30 10789 H 1048.5 0.576508 1.31956 0
M  V30 10790 H 1050.45 -0.804532 4.13649 0
M  V30 10791 H 1049.17 -1.29916 2.99649 0
M  V30 10792 H 1047.83 0.749514 3.58856 0
M  V30 10793 H 1047.48 -1.39054 4.83397 0
M  V30 10794 H 1047.18 0.0229272 5.87596 0
M  V30 10795 H 1048.71 -0.894946 6.04006 0
M  V30 10796 H 1050.12 1.32877 5.57689 0
M  V30 10797 H 1048.52 2.11906 5.61441 0
M  V30 10798 H 1049.59 2.37944 4.22505 0
M  V30 10799 N 1050.93 -1.4397 0.641131 0
M  V30 10800 C 1051.86 -2.33458 -0.04446 0
M  V30 10801 C 1052.84 -1.48781 -0.824507 0
M  V30 10802 O 1054.03 -1.77477 -0.788397 0
M  V30 10803 C 1051.16 -3.31989 -1.01984 0
M  V30 10804 C 1050.11 -4.2656 -0.350745 0
M  V30 10805 C 1049.44 -5.15036 -1.43673 0
M  V30 10806 C 1050.74 -5.16897 0.749299 0
M  V30 10807 H 1052.43 -2.91034 0.702832 0
M  V30 10808 H 1049.98 -1.39942 0.339435 0
M  V30 10809 H 1051.93 -3.93483 -1.50828 0
M  V30 10810 H 1050.65 -2.72643 -1.79815 0
M  V30 10811 H 1049.31 -3.66413 0.117139 0
M  V30 10812 H 1048.96 -4.52037 -2.20617 0
M  V30 10813 H 1048.66 -5.79125 -0.994358 0
M  V30 10814 H 1050.18 -5.79403 -1.92678 0
M  V30 10815 H 1051.6 -5.7227 0.343534 0
M  V30 10816 H 1049.99 -5.89643 1.11541 0
M  V30 10817 H 1051.06 -4.5731 1.61232 0
M  V30 10818 N 1052.41 -0.382291 -1.52893 0
M  V30 10819 C 1053.63 0.204961 -2.06385 0
M  V30 10820 C 1054.06 1.40316 -1.25271 0
M  V30 10821 O 1053.42 1.79187 -0.275969 0
M  V30 10822 C 1053.46 0.560205 -3.56222 0
M  V30 10823 O 1052.57 1.65515 -3.77728 0
M  V30 10824 H 1051.91 0.0258798 -0.663495 0
M  V30 10825 H 1054.44 -0.547733 -1.97132 0
M  V30 10826 H 1054.45 0.826501 -3.99541 0
M  V30 10827 H 1053.12 -0.31584 -4.14699 0
M  V30 10828 H 1051.7 1.38311 -3.46301 0
M  V30 10829 N 1053.89 1.57202 -0.111913 0
M  V30 10830 C 1055.13 1.9495 0.547795 0
M  V30 10831 C 1055.46 0.994763 1.67137 0
M  V30 10832 O 1054.72 0.0173528 1.95692 0
M  V30 10833 C 1055.01 3.39152 1.12741 0
M  V30 10834 C 1054.68 4.50724 0.125916 0
M  V30 10835 C 1053.34 4.80968 -0.149489 0
M  V30 10836 C 1055.69 5.18215 -0.556987 0
M  V30 10837 C 1053.02 5.76023 -1.1142 0
M  V30 10838 C 1055.37 6.14307 -1.51029 0
M  V30 10839 C 1054.04 6.42947 -1.79375 0
M  V30 10840 H 1053.31 0.713372 0.200453 0
M  V30 10841 H 1055.96 1.90542 -0.191316 0
M  V30 10842 H 1054.26 3.4022 1.94313 0
M  V30 10843 H 1055.96 3.65668 1.64584 0
M  V30 10844 H 1052.55 4.27162 0.350756 0
M  V30 10845 H 1056.73 4.95012 -0.357378 0
M  V30 10846 H 1051.99 5.9652 -1.34064 0
M  V30 10847 H 1056.16 6.65692 -2.04516 0
M  V30 10848 H 1053.79 7.1641 -2.54284 0
M  V30 10849 N 1055.36 -0.161842 1.56767 0
M  V30 10850 C 1056.59 -0.892247 1.86672 0
M  V30 10851 C 1057.01 -1.75407 0.69841 0
M  V30 10852 O 1056.36 -1.7945 -0.332251 0
M  V30 10853 C 1056.41 -1.7612 3.15696 0
M  V30 10854 O 1056.14 -0.934131 4.28025 0
M  V30 10855 C 1057.64 -2.60046 3.59014 0
M  V30 10856 H 1054.86 -0.258747 0.619105 0
M  V30 10857 H 1057.4 -0.159089 2.0388 0
M  V30 10858 H 1055.56 -2.44759 3.00286 0
M  V30 10859 H 1055.97 -1.52931 5.01709 0
M  V30 10860 H 1057.44 -3.16618 4.5217 0
M  V30 10861 H 1057.92 -3.35374 2.83586 0
M  V30 10862 H 1058.53 -1.96724 3.77067 0
M  V30 10863 N 1056.84 -1.516 -0.430713 0
M  V30 10864 C 1058.07 -1.687 -1.20644 0
M  V30 10865 C 1058.49 -0.386555 -1.84085 0
M  V30 10866 O 1057.85 0.653952 -1.69095 0
M  V30 10867 C 1057.9 -2.80887 -2.2613 0
M  V30 10868 O 1057 -2.44952 -3.31772 0
M  V30 10869 H 1056.34 -0.562289 -0.353167 0
M  V30 10870 H 1058.87 -1.98198 -0.507807 0
M  V30 10871 H 1058.88 -3.05167 -2.70809 0
M  V30 10872 H 1057.56 -3.75249 -1.79334 0
M  V30 10873 H 1056.13 -2.31267 -2.92523 0
M  V30 10874 N 1058.32 0.686584 -1.41858 0
M  V30 10875 C 1059.25 1.81202 -1.40352 0
M  V30 10876 C 1060.26 1.5993 -0.304322 0
M  V30 10877 O 1061.45 1.69267 -0.566643 0
M  V30 10878 C 1058.55 3.18116 -1.16856 0
M  V30 10879 C 1057.73 3.66339 -2.38987 0
M  V30 10880 C 1056.79 4.8195 -2.11212 0
M  V30 10881 O 1055.81 4.93102 -2.84323 0
M  V30 10882 N 1057.01 5.69829 -1.10793 0
M  V30 10883 H 1059.78 1.82983 -2.37355 0
M  V30 10884 H 1057.34 0.869244 -1.36586 0
M  V30 10885 H 1059.33 3.93097 -0.962125 0
M  V30 10886 H 1057.9 3.11306 -0.284186 0
M  V30 10887 H 1057.12 2.82166 -2.75274 0
M  V30 10888 H 1058.41 3.95297 -3.2034 0
M  V30 10889 H 1057.81 5.63459 -0.503012 0
M  V30 10890 H 1056.36 6.44671 -0.961379 0
M  V30 10891 N 1059.8 1.27835 0.921735 0
M  V30 10892 C 1060.73 1.136 2.04003 0
M  V30 10893 C 1061.71 0.0358756 1.70062 0
M  V30 10894 O 1062.89 0.211438 1.93046 0
M  V30 10895 C 1060.02 0.788697 3.38226 0
M  V30 10896 C 1058.98 1.84272 3.863 0
M  V30 10897 C 1058.3 1.34923 5.17397 0
M  V30 10898 C 1059.6 3.24788 4.09035 0
M  V30 10899 H 1061.3 2.07149 2.1617 0
M  V30 10900 H 1058.84 0.997349 1.0387 0
M  V30 10901 H 1060.8 0.675911 4.15944 0
M  V30 10902 H 1059.52 -0.182499 3.2609 0
M  V30 10903 H 1058.18 1.94451 3.1078 0
M  V30 10904 H 1057.83 0.367328 5.01657 0
M  V30 10905 H 1057.53 2.05397 5.50532 0
M  V30 10906 H 1059.05 1.24951 5.97678 0
M  V30 10907 H 1060.47 3.17575 4.77304 0
M  V30 10908 H 1058.86 3.93025 4.53488 0
M  V30 10909 H 1059.93 3.69398 3.14122 0
M  V30 10910 N 1061.28 -1.12907 1.09954 0
M  V30 10911 C 1062.22 -2.18485 0.743848 0
M  V30 10912 C 1063.19 -1.63766 -0.277494 0
M  V30 10913 O 1064.38 -1.90146 -0.157899 0
M  V30 10914 C 1061.52 -3.44649 0.176437 0
M  V30 10915 C 1060.63 -4.13445 1.25248 0
M  V30 10916 C 1059.77 -5.27242 0.647242 0
M  V30 10917 C 1058.8 -5.87897 1.70421 0
M  V30 10918 N 1057.94 -6.93116 1.1196 0
M  V30 10919 H 1062.78 -2.48257 1.64841 0
M  V30 10920 H 1060.32 -1.21891 0.823471 0
M  V30 10921 H 1062.28 -4.16852 -0.170384 0
M  V30 10922 H 1060.91 -3.15309 -0.69137 0
M  V30 10923 H 1059.96 -3.39471 1.7165 0
M  V30 10924 H 1061.27 -4.54601 2.05279 0
M  V30 10925 H 1060.42 -6.06186 0.249579 0
M  V30 10926 H 1059.16 -4.87351 -0.184556 0
M  V30 10927 H 1058.17 -5.07643 2.11136 0
M  V30 10928 H 1059.39 -6.2986 2.53877 0
M  V30 10929 H 1057.34 -6.55271 0.309181 0
M  V30 10930 H 1057.26 -7.32843 1.85681 0
M  V30 10931 H 1058.52 -7.759 0.748326 0
M  V30 10932 N 1062.75 -0.88754 -1.30232 0
M  V30 10933 C 1063.72 -0.361095 -2.26338 0
M  V30 10934 C 1064.72 0.497871 -1.52898 0
M  V30 10935 O 1065.91 0.30466 -1.71515 0
M  V30 10936 C 1063.04 0.485135 -3.3743 0
M  V30 10937 H 1064.23 -1.20973 -2.74419 0
M  V30 10938 H 1061.78 -0.664619 -1.41466 0
M  V30 10939 H 1062.52 1.35425 -2.9467 0
M  V30 10940 H 1062.3 -0.130173 -3.91884 0
M  V30 10941 H 1063.79 0.845169 -4.08958 0
M  V30 10942 N 1064.23 1.43628 -0.648757 0
M  V30 10943 C 1065.48 2.01465 -0.16002 0
M  V30 10944 C 1065.8 1.51413 1.22878 0
M  V30 10945 O 1065.07 0.724919 1.81994 0
M  V30 10946 H 1063.65 0.744885 -0.0561672 0
M  V30 10947 H 1066.31 1.75897 -0.839422 0
M  V30 10948 H 1065.41 3.1178 -0.141213 0
M  V30 10949 N 1065.71 0.390394 1.52688 0
M  V30 10950 C 1066.66 -0.444229 2.26485 0
M  V30 10951 C 1067.63 -1.05688 1.28138 0
M  V30 10952 O 1068.81 -1.0847 1.56968 0
M  V30 10953 C 1065.95 -1.56501 3.07574 0
M  V30 10954 C 1065.07 -0.975111 4.20851 0
M  V30 10955 C 1064.2 -2.06704 4.89333 0
M  V30 10956 C 1063.24 -1.45309 5.94602 0
M  V30 10957 N 1062.38 -2.48437 6.56676 0
M  V30 10958 H 1067.22 0.191535 2.97384 0
M  V30 10959 H 1064.75 0.106287 1.46716 0
M  V30 10960 H 1066.71 -2.22558 3.52879 0
M  V30 10961 H 1065.34 -2.17107 2.38881 0
M  V30 10962 H 1064.39 -0.204109 3.79852 0
M  V30 10963 H 1065.71 -0.486465 4.96422 0
M  V30 10964 H 1064.86 -2.80528 5.37949 0
M  V30 10965 H 1063.6 -2.58928 4.13289 0
M  V30 10966 H 1062.6 -0.700091 5.45324 0
M  V30 10967 H 1063.83 -0.938775 6.7258 0
M  V30 10968 H 1061.77 -2.99829 5.83471 0
M  V30 10969 H 1061.69 -2.04331 7.27863 0
M  V30 10970 H 1062.96 -3.21888 7.09935 0
M  V30 10971 N 1067.19 -1.57141 0.120249 0
M  V30 10972 C 1068.44 -1.94852 -0.536387 0
M  V30 10973 C 1068.76 -1.00452 -1.67136 0
M  V30 10974 O 1068.03 -0.061053 -1.95805 0
M  V30 10975 H 1066.61 -0.719411 -0.201138 0
M  V30 10976 H 1069.27 -1.93977 0.189482 0
M  V30 10977 H 1068.37 -2.97917 -0.930145 0
M  V30 10978 N 1068.67 0.153526 -1.5685 0
M  V30 10979 C 1069.6 1.19162 -2.00805 0
M  V30 10980 C 1070.58 1.45172 -0.886518 0
M  V30 10981 O 1071.76 1.56203 -1.15387 0
M  V30 10982 C 1068.89 2.52637 -2.38311 0
M  V30 10983 C 1067.85 2.41161 -3.53589 0
M  V30 10984 C 1067.17 3.79287 -3.76889 0
M  V30 10985 C 1068.47 1.90122 -4.86468 0
M  V30 10986 H 1070.17 0.82617 -2.87776 0
M  V30 10987 H 1067.71 0.395972 -1.38449 0
M  V30 10988 H 1069.67 3.25478 -2.6766 0
M  V30 10989 H 1068.39 2.91005 -1.4827 0
M  V30 10990 H 1067.05 1.70772 -3.24395 0
M  V30 10991 H 1066.7 4.15079 -2.84109 0
M  V30 10992 H 1066.4 3.72472 -4.54465 0
M  V30 10993 H 1067.92 4.53687 -4.08657 0
M  V30 10994 H 1069.33 2.52752 -5.14577 0
M  V30 10995 H 1067.73 1.94214 -5.67804 0
M  V30 10996 H 1068.8 0.856517 -4.77275 0
M  V30 10997 N 1070.14 1.51827 0.422667 0
M  V30 10998 C 1071.37 1.69049 1.1929 0
M  V30 10999 C 1071.79 0.394095 1.84641 0
M  V30 11000 O 1071.14 -0.628731 1.71328 0
M  V30 11001 C 1071.2 2.81657 2.26609 0
M  V30 11002 O 1070.92 4.06275 1.63929 0
M  V30 11003 C 1072.42 3.10274 3.16615 0
M  V30 11004 H 1069.64 0.566894 0.358988 0
M  V30 11005 H 1072.18 1.98318 0.499029 0
M  V30 11006 H 1070.34 2.54945 2.91688 0
M  V30 11007 H 1070.75 4.68924 2.3497 0
M  V30 11008 H 1072.22 3.92613 3.88019 0
M  V30 11009 H 1072.7 2.23273 3.78214 0
M  V30 11010 H 1073.31 3.387 2.57221 0
M  V30 11011 N 1071.62 -0.679052 1.4222 0
M  V30 11012 C 1072.87 -1.43485 1.41757 0
M  V30 11013 C 1073.18 -1.95567 0.0358698 0
M  V30 11014 O 1074.39 -2.71346 -0.0913713 0
M  V30 11015 C 1072.85 -2.59541 2.49332 0
M  V30 11016 C 1072.45 -2.14176 3.93488 0
M  V30 11017 C 1074.2 -3.37078 2.58029 0
M  V30 11018 C 1072.11 -3.27289 4.92581 0
M  V30 11019 H 1071.04 -0.539022 0.52723 0
M  V30 11020 H 1073.69 -0.735581 1.68111 0
M  V30 11021 H 1072.07 -3.31815 2.16135 0
M  V30 11022 H 1073.24 -1.49082 4.36017 0
M  V30 11023 H 1071.56 -1.49589 3.88603 0
M  V30 11024 H 1074.15 -4.21312 3.29242 0
M  V30 11025 H 1074.5 -3.83383 1.62245 0
M  V30 11026 H 1075.03 -2.7187 2.90399 0
M  V30 11027 H 1071.77 -2.8598 5.89827 0
M  V30 11028 H 1071.29 -3.91178 4.54687 0
M  V30 11029 H 1072.97 -3.9282 5.14103 0
M  V30 11030 N 1073.1 -1.28322 -0.914942 0
M  V30 11031 C 1074.35 -1.15578 -1.66642 0
M  V30 11032 C 1074.68 0.295209 -1.91943 0
M  V30 11033 O 1073.95 1.21482 -1.51896 0
M  V30 11034 C 1074.24 -1.9535 -3.02507 0
M  V30 11035 C 1074.09 -3.48504 -2.84367 0
M  V30 11036 C 1075.41 -1.76798 -4.03027 0
M  V30 11037 H 1072.53 -0.421234 -0.604757 0
M  V30 11038 H 1075.17 -1.57625 -1.06087 0
M  V30 11039 H 1073.32 -1.59619 -3.54195 0
M  V30 11040 H 1074.99 -3.94135 -2.39699 0
M  V30 11041 H 1073.24 -3.74198 -2.1945 0
M  V30 11042 H 1073.91 -3.99576 -3.80845 0
M  V30 11043 H 1076.38 -2.07977 -3.60395 0
M  V30 11044 H 1075.26 -2.34987 -4.96057 0
M  V30 11045 H 1075.52 -0.719162 -4.36211 0
M  V30 11046 N 1074.58 1.12322 -1.10551 0
M  V30 11047 C 1075.83 1.83495 -0.846998 0
M  V30 11048 C 1076.15 1.8457 0.629205 0
M  V30 11049 O 1075.42 1.30968 1.45686 0
M  V30 11050 H 1074 0.679479 -0.310351 0
M  V30 11051 H 1076.66 1.36004 -1.39602 0
M  V30 11052 H 1075.76 2.87651 -1.21092 0
M  V30 11053 N 1076.06 0.894434 1.2976 0
M  V30 11054 C 1077.28 0.5322 2.00455 0
M  V30 11055 C 1077.71 -0.874427 1.66539 0
M  V30 11056 O 1077.06 -1.58113 0.887129 0
M  V30 11057 C 1077.11 0.725264 3.53231 0
M  V30 11058 O 1076.22 -0.224612 4.11788 0
M  V30 11059 H 1075.56 0.208562 0.630395 0
M  V30 11060 H 1078.09 1.20458 1.65382 0
M  V30 11061 H 1078.1 0.627889 4.0314 0
M  V30 11062 H 1076.77 1.75079 3.77253 0
M  V30 11063 H 1075.35 -0.0801361 3.72814 0
M  V30 11064 N 1077.53 -1.43282 0.656365 0
M  V30 11065 C 1078.78 -2.02075 0.171293 0
M  V30 11066 C 1079.11 -1.51682 -1.21269 0
M  V30 11067 O 1078.39 -0.711243 -1.81029 0
M  V30 11068 C 1078.67 -3.59621 0.185602 0
M  V30 11069 C 1078.52 -4.20239 1.60373 0
M  V30 11070 C 1079.84 -4.37515 -0.476289 0
M  V30 11071 H 1076.96 -0.73424 0.0637185 0
M  V30 11072 H 1079.6 -1.70539 0.837648 0
M  V30 11073 H 1077.75 -3.86619 -0.381804 0
M  V30 11074 H 1079.43 -4.0426 2.22197 0
M  V30 11075 H 1077.67 -3.76769 2.15006 0
M  V30 11076 H 1078.34 -5.29333 1.56557 0
M  V30 11077 H 1080.82 -4.16099 0.00651073 0
M  V30 11078 H 1079.69 -5.47169 -0.435562 0
M  V30 11079 H 1079.95 -4.14003 -1.55093 0
M  V30 11080 N 1079.01 -0.398486 -1.52479 0
M  V30 11081 C 1079.94 0.423498 -2.29627 0
M  V30 11082 C 1080.92 1.05547 -1.33394 0
M  V30 11083 O 1082.11 1.0665 -1.62294 0
M  V30 11084 C 1079.24 1.54612 -3.10986 0
M  V30 11085 C 1078.19 1.03971 -4.15179 0
M  V30 11086 C 1077.52 2.25512 -4.84818 0
M  V30 11087 C 1078.82 0.10121 -5.22202 0
M  V30 11088 H 1080.51 -0.220222 -2.98589 0
M  V30 11089 H 1078.06 -0.107355 -1.43599 0
M  V30 11090 H 1080.01 2.12806 -3.63719 0
M  V30 11091 H 1078.74 2.21756 -2.39774 0
M  V30 11092 H 1077.4 0.480251 -3.63441 0
M  V30 11093 H 1077.04 2.91187 -4.10145 0
M  V30 11094 H 1076.74 1.92285 -5.55248 0
M  V30 11095 H 1078.27 2.84331 -5.40359 0
M  V30 11096 H 1079.68 0.591617 -5.70239 0
M  V30 11097 H 1078.08 -0.141737 -5.99933 0
M  V30 11098 H 1079.15 -0.847216 -4.77441 0
M  V30 11099 N 1080.49 1.57075 -0.12858 0
M  V30 11100 C 1081.4 2.19369 0.831533 0
M  V30 11101 C 1082.42 1.17258 1.28555 0
M  V30 11102 O 1083.59 1.49766 1.34656 0
M  V30 11103 C 1080.66 2.78846 2.06024 0
M  V30 11104 C 1079.72 3.96024 1.65722 0
M  V30 11105 C 1078.95 4.52655 2.82735 0
M  V30 11106 O 1079.18 4.08175 3.98434 0
M  V30 11107 O 1078.11 5.43198 2.59268 0
M  V30 11108 H 1081.94 3.01887 0.331352 0
M  V30 11109 H 1079.52 1.49081 0.0975226 0
M  V30 11110 H 1081.4 3.16721 2.77967 0
M  V30 11111 H 1080.08 1.99353 2.5503 0
M  V30 11112 H 1078.98 3.62899 0.908574 0
M  V30 11113 H 1080.32 4.76981 1.21449 0
M  V30 11114 N 1081.97 -0.145205 1.5693 0
M  V30 11115 C 1083.22 -0.855822 1.83085 0
M  V30 11116 C 1083.54 -1.81625 0.709747 0
M  V30 11117 O 1082.81 -1.94052 -0.268456 0
M  V30 11118 H 1081.39 -0.319032 0.675446 0
M  V30 11119 H 1084.05 -0.138781 1.94405 0
M  V30 11120 H 1083.15 -1.41698 2.78079 0
M  V30 11121 N 1083.45 -1.52049 -0.414609 0
M  V30 11122 C 1084.68 -1.69679 -1.18392 0
M  V30 11123 C 1085.09 -0.403881 -1.84429 0
M  V30 11124 O 1084.45 0.619636 -1.71659 0
M  V30 11125 C 1084.5 -2.82855 -2.25112 0
M  V30 11126 O 1084.22 -4.07138 -1.61772 0
M  V30 11127 C 1085.72 -3.11948 -3.14965 0
M  V30 11128 H 1082.94 -0.56879 -0.355977 0
M  V30 11129 H 1085.48 -1.9858 -0.488505 0
M  V30 11130 H 1083.64 -2.56488 -2.90332 0
M  V30 11131 H 1084.05 -4.70163 -2.32479 0
M  V30 11132 H 1085.53 -3.94665 -3.85932 0
M  V30 11133 H 1086 -2.25276 -3.77024 0
M  V30 11134 H 1086.61 -3.40059 -2.55421 0
M  V30 11135 N 1084.93 0.6715 -1.42579 0
M  V30 11136 C 1086.16 1.4576 -1.46416 0
M  V30 11137 C 1086.56 1.89051 -0.0749843 0
M  V30 11138 O 1085.91 1.58927 0.921296 0
M  V30 11139 C 1085.97 2.7365 -2.33144 0
M  V30 11140 C 1085.63 2.52414 -3.80968 0
M  V30 11141 C 1086.63 2.16804 -4.72538 0
M  V30 11142 C 1084.31 2.67306 -4.25268 0
M  V30 11143 C 1086.31 1.96358 -6.06401 0
M  V30 11144 C 1084 2.46475 -5.5919 0
M  V30 11145 C 1084.99 2.11055 -6.49573 0
M  V30 11146 O 1084.68 1.90428 -7.8102 0
M  V30 11147 H 1084.41 0.454896 -0.500045 0
M  V30 11148 H 1086.97 0.832198 -1.87786 0
M  V30 11149 H 1085.2 3.38684 -1.86629 0
M  V30 11150 H 1086.89 3.35543 -2.28398 0
M  V30 11151 H 1087.65 2.04891 -4.39596 0
M  V30 11152 H 1083.53 2.93854 -3.55206 0
M  V30 11153 H 1087.08 1.68634 -6.76911 0
M  V30 11154 H 1082.97 2.57985 -5.91704 0
M  V30 11155 H 1083.74 2.05 -7.92412 0
M  V30 11156 N 1086.4 1.28806 0.908124 0
M  V30 11157 C 1087.33 1.15758 2.02787 0
M  V30 11158 C 1088.31 0.053911 1.70015 0
M  V30 11159 O 1089.5 0.231901 1.9281 0
M  V30 11160 C 1086.63 0.824526 3.37371 0
M  V30 11161 C 1085.58 1.88359 3.84324 0
M  V30 11162 C 1084.91 1.40404 5.15937 0
M  V30 11163 C 1086.21 3.29108 4.05568 0
M  V30 11164 H 1087.9 2.09431 2.13961 0
M  V30 11165 H 1085.45 1.00831 1.02806 0
M  V30 11166 H 1087.4 0.71999 4.15204 0
M  V30 11167 H 1086.13 -0.147902 3.26265 0
M  V30 11168 H 1084.79 1.97736 3.087 0
M  V30 11169 H 1084.43 0.420515 5.01239 0
M  V30 11170 H 1084.13 2.11224 5.48323 0
M  V30 11171 H 1085.66 1.31283 5.9632 0
M  V30 11172 H 1087.07 3.2262 4.73909 0
M  V30 11173 H 1085.47 3.97812 4.49294 0
M  V30 11174 H 1086.54 3.72709 3.10187 0
M  V30 11175 N 1087.88 -1.11734 1.11145 0
M  V30 11176 C 1089.16 -1.79795 0.770261 0
M  V30 11177 C 1089.54 -1.97624 -0.742158 0
M  V30 11178 O 1088.89 -1.55847 -1.67105 0
M  V30 11179 C 1089.1 -3.13684 1.52982 0
M  V30 11180 C 1090.44 -3.88771 1.70711 0
M  V30 11181 O 1091.47 -3.23363 1.49381 0
M  V30 11182 O 1090.33 -5.06134 2.06132 0
M  V30 11183 H 1087.42 -0.778617 0.27872 0
M  V30 11184 H 1089.97 -1.18504 1.2147 0
M  V30 11185 H 1088.74 -2.96043 2.55879 0
M  V30 11186 H 1088.36 -3.82687 1.07873 0
M  V30 11187 N 1089.36 -0.901303 -1.29284 0
M  V30 11188 C 1090.31 -0.378666 -2.27672 0
M  V30 11189 C 1091.28 0.540102 -1.57074 0
M  V30 11190 O 1092.46 0.464997 -1.85047 0
M  V30 11191 C 1089.6 0.38635 -3.42931 0
M  V30 11192 C 1088.71 -0.563496 -4.28309 0
M  V30 11193 C 1087.85 0.218731 -5.30749 0
M  V30 11194 C 1086.89 -0.725536 -6.07785 0
M  V30 11195 N 1086.03 0.0223854 -7.02096 0
M  V30 11196 H 1090.87 -1.22277 -2.71758 0
M  V30 11197 H 1088.4 -0.614302 -1.33659 0
M  V30 11198 H 1090.36 0.845967 -4.08533 0
M  V30 11199 H 1088.99 1.1949 -2.9987 0
M  V30 11200 H 1088.04 -1.14163 -3.62865 0
M  V30 11201 H 1089.35 -1.28623 -4.81931 0
M  V30 11202 H 1088.51 0.739473 -6.02177 0
M  V30 11203 H 1087.25 0.97459 -4.77863 0
M  V30 11204 H 1086.25 -1.25776 -5.3522 0
M  V30 11205 H 1087.48 -1.48075 -6.6276 0
M  V30 11206 H 1085.42 0.760482 -6.51577 0
M  V30 11207 H 1085.34 -0.640408 -7.53283 0
M  V30 11208 H 1086.61 0.523339 -7.77741 0
M  V30 11209 N 1090.84 1.42931 -0.663954 0
M  V30 11210 C 1091.79 2.27958 0.0436184 0
M  V30 11211 C 1092.77 1.40493 0.784258 0
M  V30 11212 O 1093.96 1.64035 0.664956 0
M  V30 11213 C 1091.09 3.28357 1.00183 0
M  V30 11214 C 1090.18 4.23308 0.259099 0
M  V30 11215 N 1090.57 5.00502 -0.730182 0
M  V30 11216 C 1088.87 4.43199 0.499061 0
M  V30 11217 C 1089.57 5.69771 -1.17201 0
M  V30 11218 N 1088.54 5.41258 -0.504105 0
M  V30 11219 H 1092.35 2.85061 -0.715348 0
M  V30 11220 H 1089.86 1.54764 -0.492117 0
M  V30 11221 H 1091.86 3.88061 1.52362 0
M  V30 11222 H 1090.52 2.72815 1.76074 0
M  V30 11223 H 1091.53 5.0588 -1.10932 0
M  V30 11224 H 1088.21 3.98713 1.23831 0
M  V30 11225 H 1089.6 6.41718 -1.99117 0
M  V30 11226 N 1092.32 0.406567 1.52266 0
M  V30 11227 C 1093.25 -0.464709 2.23418 0
M  V30 11228 C 1094.23 -1.05008 1.24146 0
M  V30 11229 O 1095.41 -1.09843 1.53188 0
M  V30 11230 C 1092.54 -1.64481 2.96081 0
M  V30 11231 C 1091.58 -1.18307 4.09763 0
M  V30 11232 S 1092.42 -0.150326 5.35289 0
M  V30 11233 C 1093.57 -1.3358 6.11479 0
M  V30 11234 H 1093.81 0.139455 2.96973 0
M  V30 11235 H 1091.34 0.19085 1.53216 0
M  V30 11236 H 1093.3 -2.3215 3.38551 0
M  V30 11237 H 1091.96 -2.22031 2.22174 0
M  V30 11238 H 1091.15 -2.06466 4.59769 0
M  V30 11239 H 1090.75 -0.58505 3.69396 0
M  V30 11240 H 1093.04 -2.25986 6.38699 0
M  V30 11241 H 1093.99 -0.876328 7.02656 0
M  V30 11242 H 1094.4 -1.56044 5.42504 0
M  V30 11243 N 1093.79 -1.57004 0.136909 0
M  V30 11244 C 1094.7 -2.19807 -0.819887 0
M  V30 11245 C 1095.72 -1.17939 -1.27932 0
M  V30 11246 O 1096.9 -1.50478 -1.3386 0
M  V30 11247 C 1093.96 -2.79935 -2.04542 0
M  V30 11248 C 1093.02 -3.96897 -1.6362 0
M  V30 11249 C 1092.26 -4.54148 -2.80331 0
M  V30 11250 O 1092.48 -4.10282 -3.96264 0
M  V30 11251 O 1091.41 -5.44565 -2.56384 0
M  V30 11252 H 1095.24 -3.02058 -0.315337 0
M  V30 11253 H 1092.82 -1.49131 -0.0896151 0
M  V30 11254 H 1094.71 -3.18191 -2.76283 0
M  V30 11255 H 1093.38 -2.00703 -2.53969 0
M  V30 11256 H 1092.29 -3.63376 -0.889316 0
M  V30 11257 H 1093.62 -4.77618 -1.18918 0
M  V30 11258 N 1095.27 0.136881 -1.57004 0
M  V30 11259 C 1096.24 1.15267 -1.98106 0
M  V30 11260 C 1097.24 1.35305 -0.868856 0
M  V30 11261 O 1098.43 1.32126 -1.13527 0
M  V30 11262 C 1095.56 2.51092 -2.30577 0
M  V30 11263 H 1096.75 0.799821 -2.89038 0
M  V30 11264 H 1094.3 0.380576 -1.51596 0
M  V30 11265 H 1095.04 2.9133 -1.42469 0
M  V30 11266 H 1094.82 2.37906 -3.11678 0
M  V30 11267 H 1096.31 3.24232 -2.63179 0
M  V30 11268 N 1096.75 1.52266 0.40654 0
M  V30 11269 C 1097.68 1.72025 1.51459 0
M  V30 11270 C 1098.7 0.600667 1.51314 0
M  V30 11271 O 1099.88 0.875894 1.55532 0
M  V30 11272 C 1096.98 1.7479 2.90348 0
M  V30 11273 C 1096.16 3.03826 3.14656 0
M  V30 11274 C 1095.22 2.98369 4.33431 0
M  V30 11275 O 1094.24 3.7227 4.30586 0
M  V30 11276 N 1095.44 2.16338 5.38682 0
M  V30 11277 H 1098.21 2.67622 1.34903 0
M  V30 11278 H 1095.77 1.50536 0.595867 0
M  V30 11279 H 1097.76 1.68667 3.67877 0
M  V30 11280 H 1096.33 0.86656 3.00349 0
M  V30 11281 H 1095.55 3.23577 2.25148 0
M  V30 11282 H 1096.84 3.89182 3.27742 0
M  V30 11283 H 1096.24 1.55731 5.43842 0
M  V30 11284 H 1094.8 2.1607 6.14945 0
M  V30 11285 N 1098.23 -0.663929 1.42933 0
M  V30 11286 C 1099.64 -0.978346 1.26097 0
M  V30 11287 C 1099.84 -2.00756 0.172968 0
M  V30 11288 O 1098.9 -2.48418 -0.452184 0
M  V30 11289 C 1100.21 -1.4728 2.62162 0
M  V30 11290 C 1101.76 -1.59001 2.69606 0
M  V30 11291 C 1102.24 -2.1184 4.06064 0
M  V30 11292 N 1103.73 -2.19158 4.08074 0
M  V30 11293 C 1104.46 -2.61141 5.10483 0
M  V30 11294 N 1103.96 -3.02498 6.23271 0
M  V30 11295 N 1105.75 -2.60986 4.97838 0
M  V30 11296 H 1097.9 0.0173096 2.12393 0
M  V30 11297 H 1100.17 -0.0548116 0.946414 0
M  V30 11298 H 1099.87 -0.791008 3.42689 0
M  V30 11299 H 1099.75 -2.4497 2.86827 0
M  V30 11300 H 1102.13 -2.26284 1.89418 0
M  V30 11301 H 1102.21 -0.597728 2.48718 0
M  V30 11302 H 1101.86 -1.45162 4.86714 0
M  V30 11303 H 1101.79 -3.1188 4.2431 0
M  V30 11304 H 1104.28 -1.90013 3.26655 0
M  V30 11305 H 1104.59 -3.33251 6.97254 0
M  V30 11306 H 1102.94 -3.00328 6.2676 0
M  V30 11307 H 1106.13 -2.28046 4.08794 0
M  V30 11308 H 1106.3 -2.93384 5.7778 0
M  V30 11309 N 1099.71 -1.29285 -0.901281 0
M  V30 11310 C 1100.67 -1.14283 -1.98676 0
M  V30 11311 C 1101.67 -0.0787641 -1.60607 0
M  V30 11312 O 1102.86 -0.325574 -1.71131 0
M  V30 11313 C 1099.99 -0.747279 -3.32609 0
M  V30 11314 H 1101.18 -2.10701 -2.13413 0
M  V30 11315 H 1098.74 -1.12449 -1.08558 0
M  V30 11316 H 1099.47 0.217111 -3.23572 0
M  V30 11317 H 1099.26 -1.51608 -3.61604 0
M  V30 11318 H 1100.75 -0.665322 -4.12266 0
M  V30 11319 N 1101.18 1.11143 -1.11736 0
M  V30 11320 C 1102.09 2.20851 -0.791331 0
M  V30 11321 C 1103.11 1.72644 0.216833 0
M  V30 11322 O 1104.29 2.01332 0.0522401 0
M  V30 11323 C 1101.35 3.4585 -0.242694 0
M  V30 11324 C 1100.41 4.08829 -1.30986 0
M  V30 11325 C 1099.65 5.27861 -0.787305 0
M  V30 11326 O 1099.87 5.69122 0.381549 0
M  V30 11327 O 1098.8 5.81506 -1.55352 0
M  V30 11328 H 1102.63 2.51158 -1.70744 0
M  V30 11329 H 1100.21 1.19739 -0.893478 0
M  V30 11330 H 1102.1 4.21359 0.0587472 0
M  V30 11331 H 1100.77 3.17187 0.646079 0
M  V30 11332 H 1099.68 3.35037 -1.66436 0
M  V30 11333 H 1101.01 4.41678 -2.17213 0
M  V30 11334 N 1102.66 0.908147 1.28804 0
M  V30 11335 C 1103.57 0.397167 2.31214 0
M  V30 11336 C 1104.59 -0.512352 1.66286 0
M  V30 11337 O 1105.76 -0.399893 1.9739 0
M  V30 11338 C 1102.83 -0.359522 3.44831 0
M  V30 11339 C 1101.89 0.582539 4.25329 0
M  V30 11340 C 1101.12 -0.138133 5.33521 0
M  V30 11341 O 1101.35 -1.36076 5.53931 0
M  V30 11342 O 1100.28 0.523682 5.99618 0
M  V30 11343 H 1104.11 1.247 2.76918 0
M  V30 11344 H 1101.69 0.672766 1.33395 0
M  V30 11345 H 1103.57 -0.787098 4.13984 0
M  V30 11346 H 1102.25 -1.18528 3.01219 0
M  V30 11347 H 1101.16 1.0594 3.58786 0
M  V30 11348 H 1102.49 1.37495 4.72605 0
M  V30 11349 N 1104.14 -1.42577 0.671525 0
M  V30 11350 C 1105.09 -2.32591 -0.0205354 0
M  V30 11351 C 1106.08 -1.4964 -0.793993 0
M  V30 11352 O 1107.29 -1.65733 -0.702327 0
M  V30 11353 H 1103.66 -0.75157 -0.0254344 0
M  V30 11354 H 1105.63 -2.88662 0.756082 0
M  V30 11355 C 1104.38 -3.34175 -0.960316 0
M  V30 11356 H 1103.71 -3.98041 -0.374577 0
M  V30 11357 H 1105.15 -3.99752 -1.4133 0
M  V30 11358 C 1103.61 -2.66184 -2.06513 0
M  V30 11359 O 1104.14 -2.49125 -3.15119 0
M  V30 11360 N 1102.34 -2.25261 -1.83591 0
M  V30 11361 H 1101.89 -2.39336 -0.952689 0
M  V30 11362 H 1101.85 -1.80101 -2.57703 0
M  V30 11363 N 1105.62 -0.414636 -1.52048 0
M  V30 11364 C 1106.87 0.16073 -2.01059 0
M  V30 11365 C 1107.18 1.45753 -1.30443 0
M  V30 11366 O 1108.39 2.11448 -1.703 0
M  V30 11367 C 1106.84 0.336993 -3.58319 0
M  V30 11368 C 1106.45 -0.948037 -4.37854 0
M  V30 11369 C 1108.19 0.867353 -4.15545 0
M  V30 11370 C 1106.1 -0.738662 -5.86769 0
M  V30 11371 H 1105.03 0.0638419 -0.751292 0
M  V30 11372 H 1107.68 -0.540925 -1.75346 0
M  V30 11373 H 1106.06 1.10111 -3.80383 0
M  V30 11374 H 1107.24 -1.71873 -4.27547 0
M  V30 11375 H 1105.55 -1.40522 -3.91972 0
M  V30 11376 H 1108.15 1.04012 -5.24486 0
M  V30 11377 H 1108.49 1.84358 -3.73253 0
M  V30 11378 H 1109.03 0.162148 -3.97469 0
M  V30 11379 H 1105.77 -1.6866 -6.3343 0
M  V30 11380 H 1105.29 -0.00736294 -5.998 0
M  V30 11381 H 1106.96 -0.382978 -6.45866 0
M  V30 11382 N 1107.1 1.56929 -0.145233 0
M  V30 11383 C 1108.51 1.58196 0.211194 0
M  V30 11384 C 1108.71 1.15941 1.64803 0
M  V30 11385 O 1107.77 0.858888 2.37443 0
M  V30 11386 C 1109.08 3.00665 -0.0459569 0
M  V30 11387 C 1110.63 3.12995 0.0178913 0
M  V30 11388 C 1111.1 4.5751 -0.211905 0
M  V30 11389 N 1112.6 4.62928 -0.158772 0
M  V30 11390 C 1113.33 5.72555 -0.311111 0
M  V30 11391 N 1112.83 6.90838 -0.521074 0
M  V30 11392 N 1114.62 5.61549 -0.248838 0
M  V30 11393 H 1106.77 1.8269 -1.08342 0
M  V30 11394 H 1109.03 0.845514 -0.428731 0
M  V30 11395 H 1108.74 3.35962 -1.0403 0
M  V30 11396 H 1108.61 3.71125 0.674246 0
M  V30 11397 H 1111 2.7754 1.00278 0
M  V30 11398 H 1111.08 2.45025 -0.734612 0
M  V30 11399 H 1110.73 4.93669 -1.19389 0
M  V30 11400 H 1110.66 5.23604 0.560901 0
M  V30 11401 H 1113.15 3.779 -0.00107283 0
M  V30 11402 H 1113.46 7.70248 -0.62747 0
M  V30 11403 H 1111.8 6.92761 -0.557374 0
M  V30 11404 H 1115 4.68022 -0.0855821 0
M  V30 11405 H 1115.17 6.46937 -0.370997 0
M  V30 11406 N 1108.58 -0.128553 1.57075 0
M  V30 11407 C 1109.8 -0.8564 1.88893 0
M  V30 11408 C 1110.23 -1.73095 0.736196 0
M  V30 11409 O 1109.58 -1.78567 -0.313629 0
M  V30 11410 C 1109.63 -1.67368 3.19406 0
M  V30 11411 O 1108.74 -2.77973 3.04639 0
M  V30 11412 H 1108.08 -0.237424 0.620102 0
M  V30 11413 H 1110.61 -0.113821 2.04283 0
M  V30 11414 H 1110.62 -2.0649 3.51889 0
M  V30 11415 H 1109.29 -1.03161 4.02903 0
M  V30 11416 H 1107.87 -2.42123 2.83603 0
M  V30 11417 N 1110.05 -1.5248 -0.398459 0
M  V30 11418 C 1110.98 -1.79549 -1.49279 0
M  V30 11419 C 1111.96 -0.647004 -1.57315 0
M  V30 11420 O 1113.15 -0.893661 -1.72416 0
M  V30 11421 C 1110.28 -1.95582 -2.86993 0
M  V30 11422 C 1109.23 -3.1123 -2.93803 0
M  V30 11423 C 1108.56 -3.12501 -4.33874 0
M  V30 11424 C 1109.86 -4.50485 -2.64312 0
M  V30 11425 H 1111.55 -2.71187 -1.26877 0
M  V30 11426 H 1109.1 -1.30492 -0.608924 0
M  V30 11427 H 1111.05 -2.13102 -3.63546 0
M  V30 11428 H 1109.78 -1.00625 -3.10712 0
M  V30 11429 H 1108.44 -2.93477 -2.19697 0
M  V30 11430 H 1108.08 -2.15245 -4.54619 0
M  V30 11431 H 1107.78 -3.90183 -4.39353 0
M  V30 11432 H 1109.31 -3.32164 -5.12347 0
M  V30 11433 H 1110.72 -4.68387 -3.30585 0
M  V30 11434 H 1109.12 -5.30163 -2.81153 0
M  V30 11435 H 1110.19 -4.57848 -1.59696 0
M  V30 11436 N 1111.53 0.65634 -1.43283 0
M  V30 11437 C 1112.46 1.78122 -1.42646 0
M  V30 11438 C 1113.44 1.60024 -0.288301 0
M  V30 11439 O 1114.63 1.82249 -0.481407 0
M  V30 11440 C 1111.75 3.1538 -1.23505 0
M  V30 11441 C 1110.8 3.52186 -2.40556 0
M  V30 11442 S 1111.63 3.52515 -4.03105 0
M  V30 11443 C 1112.79 4.92435 -3.8634 0
M  V30 11444 H 1113.02 1.78391 -2.37832 0
M  V30 11445 H 1110.55 0.828699 -1.30276 0
M  V30 11446 H 1112.51 3.94598 -1.13148 0
M  V30 11447 H 1111.17 3.12676 -0.298726 0
M  V30 11448 H 1110.37 4.52002 -2.22959 0
M  V30 11449 H 1109.97 2.80373 -2.47522 0
M  V30 11450 H 1112.26 5.81011 -3.48472 0
M  V30 11451 H 1113.2 5.15082 -4.85897 0
M  V30 11452 H 1113.61 4.65823 -3.18857 0
M  V30 11453 N 1113.01 1.29761 0.894412 0
M  V30 11454 C 1114.23 1.21064 1.68399 0
M  V30 11455 C 1114.66 -0.224608 1.86754 0
M  V30 11456 O 1114.02 -1.16199 1.39167 0
M  V30 11457 C 1114.07 1.93468 3.04306 0
M  V30 11458 O 1113.17 1.25533 3.9283 0
M  V30 11459 H 1112.51 0.419223 0.514925 0
M  V30 11460 H 1115.04 1.71421 1.11696 0
M  V30 11461 H 1115.05 2.02127 3.54413 0
M  V30 11462 H 1113.73 2.97857 2.90265 0
M  V30 11463 H 1112.3 1.25168 3.51266 0
M  V30 11464 N 1114.49 -1.10549 1.12324 0
M  V30 11465 C 1115.72 -1.8627 0.900618 0
M  V30 11466 C 1116.13 -1.80609 -0.550069 0
M  V30 11467 O 1115.49 -1.19396 -1.38025 0
M  V30 11468 C 1115.54 -3.34716 1.36556 0
M  V30 11469 O 1115.26 -3.40279 2.75938 0
M  V30 11470 C 1116.76 -4.27315 1.17969 0
M  V30 11471 H 1113.98 -0.588741 0.321908 0
M  V30 11472 H 1116.52 -1.39759 1.49291 0
M  V30 11473 H 1114.68 -3.78697 0.81652 0
M  V30 11474 H 1115.09 -4.32781 2.96312 0
M  V30 11475 H 1116.57 -5.29677 1.55391 0
M  V30 11476 H 1117.04 -4.39036 0.120158 0
M  V30 11477 H 1117.65 -3.89137 1.71617 0
M  V30 11478 N 1115.97 -0.914965 -1.28321 0
M  V30 11479 C 1116.88 -0.409424 -2.31 0
M  V30 11480 C 1117.89 0.503526 -1.66555 0
M  V30 11481 O 1119.07 0.38942 -1.97599 0
M  V30 11482 C 1116.13 0.34123 -3.45017 0
M  V30 11483 C 1115.19 -0.605087 -4.25014 0
M  V30 11484 C 1114.43 0.109837 -5.33587 0
M  V30 11485 O 1114.65 1.33136 -5.54645 0
M  V30 11486 O 1113.58 -0.555474 -5.99331 0
M  V30 11487 H 1117.41 -1.26167 -2.76253 0
M  V30 11488 H 1114.99 -0.679831 -1.33036 0
M  V30 11489 H 1116.88 0.765132 -4.14396 0
M  V30 11490 H 1115.55 1.16929 -3.01843 0
M  V30 11491 H 1114.46 -1.07841 -3.58219 0
M  V30 11492 H 1115.79 -1.39999 -4.7187 0
M  V30 11493 N 1117.44 1.42219 -0.679077 0
M  V30 11494 C 1118.39 2.308 -0.00340316 0
M  V30 11495 C 1119.36 1.462 0.788334 0
M  V30 11496 O 1120.55 1.75023 0.759716 0
M  V30 11497 C 1117.69 3.32084 0.938854 0
M  V30 11498 C 1116.8 4.31772 0.140485 0
M  V30 11499 C 1115.93 5.20128 1.07888 0
M  V30 11500 C 1114.97 6.11493 0.27245 0
M  V30 11501 N 1114.11 6.92388 1.16378 0
M  V30 11502 H 1118.95 2.88024 -0.764587 0
M  V30 11503 H 1116.49 1.41869 -0.38878 0
M  V30 11504 H 1118.44 3.89339 1.49903 0
M  V30 11505 H 1117.07 2.76448 1.66662 0
M  V30 11506 H 1116.13 3.76599 -0.536376 0
M  V30 11507 H 1117.44 4.96432 -0.485433 0
M  V30 11508 H 1116.59 5.82137 1.70884 0
M  V30 11509 H 1115.33 4.55655 1.73868 0
M  V30 11510 H 1114.34 5.48549 -0.370693 0
M  V30 11511 H 1115.56 6.78017 -0.383315 0
M  V30 11512 H 1113.51 6.30538 1.8099 0
M  V30 11513 H 1113.42 7.5367 0.593043 0
M  V30 11514 H 1114.69 7.58879 1.78107 0
M  V30 11515 N 1118.92 0.422693 1.51826 0
M  V30 11516 C 1120.15 -0.147744 2.06372 0
M  V30 11517 C 1120.56 -1.37714 1.29152 0
M  V30 11518 O 1119.92 -1.7917 0.347046 0
M  V30 11519 C 1119.97 -0.484642 3.58237 0
M  V30 11520 O 1119.69 0.695944 4.32537 0
M  V30 11521 C 1121.19 -1.10734 4.29247 0
M  V30 11522 H 1118.41 -0.0144047 0.670845 0
M  V30 11523 H 1120.96 0.597558 1.95575 0
M  V30 11524 H 1119.11 -1.17984 3.68997 0
M  V30 11525 H 1119.53 0.411471 5.22884 0
M  V30 11526 H 1121 -1.29318 5.36639 0
M  V30 11527 H 1121.48 -2.08429 3.86593 0
M  V30 11528 H 1122.08 -0.451958 4.22892 0
M  V30 11529 N 1120.4 -1.5685 0.153553 0
M  V30 11530 C 1121.35 -2.1709 -0.783626 0
M  V30 11531 C 1122.32 -1.10567 -1.23952 0
M  V30 11532 O 1123.5 -1.38638 -1.31088 0
M  V30 11533 C 1120.64 -2.80183 -2.01473 0
M  V30 11534 C 1119.75 -4.01117 -1.60403 0
M  V30 11535 C 1118.89 -4.5219 -2.78743 0
M  V30 11536 C 1117.93 -5.65574 -2.34079 0
M  V30 11537 N 1117.07 -6.11235 -3.4545 0
M  V30 11538 H 1121.91 -2.96836 -0.263127 0
M  V30 11539 H 1119.44 -1.46625 -0.11816 0
M  V30 11540 H 1121.4 -3.14912 -2.73654 0
M  V30 11541 H 1120.03 -2.03071 -2.50923 0
M  V30 11542 H 1119.08 -3.72325 -0.779631 0
M  V30 11543 H 1120.39 -4.83243 -1.23605 0
M  V30 11544 H 1119.55 -4.89008 -3.59105 0
M  V30 11545 H 1118.29 -3.69085 -3.18791 0
M  V30 11546 H 1117.29 -5.28326 -1.52158 0
M  V30 11547 H 1118.52 -6.50468 -1.95109 0
M  V30 11548 H 1116.46 -5.31064 -3.85106 0
M  V30 11549 H 1116.38 -6.88304 -3.12687 0
M  V30 11550 H 1117.65 -6.527 -4.26149 0
M  V30 11551 N 1121.88 0.120221 -1.57141 0
M  V30 11552 C 1123.13 0.826586 -1.84423 0
M  V30 11553 C 1123.45 1.80473 -0.738553 0
M  V30 11554 O 1122.72 1.94454 0.23755 0
M  V30 11555 H 1121.3 0.308246 -0.680436 0
M  V30 11556 H 1123.96 0.107835 -1.94601 0
M  V30 11557 H 1123.05 1.37256 -2.80298 0
M  V30 11558 N 1123.36 1.52689 0.390367 0
M  V30 11559 C 1124.6 1.67666 1.13553 0
M  V30 11560 C 1124.93 0.415903 1.90001 0
M  V30 11561 O 1124.19 -0.601664 1.86222 0
M  V30 11562 C 1124.49 2.86177 2.14096 0
M  V30 11563 C 1124.15 4.23671 1.54316 0
M  V30 11564 C 1122.81 4.61066 1.37739 0
M  V30 11565 C 1125.17 5.09278 1.1084 0
M  V30 11566 C 1122.49 5.81727 0.76231 0
M  V30 11567 C 1124.85 6.30562 0.507433 0
M  V30 11568 C 1123.51 6.66689 0.328945 0
M  V30 11569 H 1122.78 0.613533 0.415521 0
M  V30 11570 H 1125.43 1.8683 0.420339 0
M  V30 11571 H 1123.73 2.61424 2.9183 0
M  V30 11572 H 1125.43 2.9496 2.7166 0
M  V30 11573 H 1122.02 3.94214 1.68207 0
M  V30 11574 H 1126.2 4.80957 1.2245 0
M  V30 11575 H 1121.46 6.08327 0.612208 0
M  V30 11576 H 1125.63 6.96211 0.162248 0
M  V30 11577 H 1123.26 7.60052 -0.149748 0
M  V30 11578 N 1124.83 -0.648732 1.43629 0
M  V30 11579 C 1126.07 -1.42032 1.46991 0
M  V30 11580 C 1126.44 -1.91774 0.0931841 0
M  V30 11581 O 1127.64 -2.688 0.00148504 0
M  V30 11582 C 1125.91 -2.56693 2.48684 0
M  V30 11583 S 1127.47 -3.45149 2.70956 0
M  V30 11584 H 1124.29 -0.484772 0.520113 0
M  V30 11585 H 1126.89 -0.75274 1.80427 0
M  V30 11586 H 1125.59 -2.18431 3.47442 0
M  V30 11587 H 1125.12 -3.28296 2.1676 0
M  V30 11588 H 1127.14 -4.53569 2.01221 0
M  V30 11589 N 1126.31 -1.30234 -0.887518 0
M  V30 11590 C 1127.24 -1.12212 -1.99853 0
M  V30 11591 C 1128.26 -0.0660929 -1.62666 0
M  V30 11592 O 1129.45 -0.311853 -1.75755 0
M  V30 11593 C 1126.55 -0.688591 -3.31831 0
M  V30 11594 C 1125.72 -1.82581 -3.97471 0
M  V30 11595 C 1124.78 -1.38126 -5.07748 0
M  V30 11596 O 1123.8 -2.08805 -5.29518 0
M  V30 11597 N 1125.01 -0.258868 -5.79923 0
M  V30 11598 H 1127.77 -2.07901 -2.15864 0
M  V30 11599 H 1125.33 -1.22336 -1.06045 0
M  V30 11600 H 1127.32 -0.374252 -4.02966 0
M  V30 11601 H 1125.89 0.176185 -3.12103 0
M  V30 11602 H 1125.11 -2.3084 -3.19541 0
M  V30 11603 H 1126.4 -2.58798 -4.38065 0
M  V30 11604 H 1125.8 0.330131 -5.64736 0
M  V30 11605 H 1124.36 -0.00396813 -6.518 0
M  V30 11606 N 1127.79 1.09952 -1.12909 0
M  V30 11607 C 1128.72 2.18477 -0.824014 0
M  V30 11608 C 1129.7 1.68744 0.214324 0
M  V30 11609 O 1130.89 1.94057 0.0744281 0
M  V30 11610 C 1128.02 3.46143 -0.283308 0
M  V30 11611 C 1126.97 4.09178 -1.25528 0
M  V30 11612 C 1126.3 5.31604 -0.574574 0
M  V30 11613 C 1127.6 4.52308 -2.6118 0
M  V30 11614 H 1129.29 2.44254 -1.73148 0
M  V30 11615 H 1126.84 1.17394 -0.833952 0
M  V30 11616 H 1128.79 4.21361 -0.057583 0
M  V30 11617 H 1127.51 3.19872 0.659525 0
M  V30 11618 H 1126.17 3.35973 -1.4669 0
M  V30 11619 H 1125.82 5.01611 0.37356 0
M  V30 11620 H 1125.52 5.74732 -1.22299 0
M  V30 11621 H 1127.04 6.0955 -0.358004 0
M  V30 11622 H 1128.46 5.18776 -2.44017 0
M  V30 11623 H 1126.86 5.06302 -3.22147 0
M  V30 11624 H 1127.93 3.64977 -3.19249 0
M  V30 11625 N 1129.27 0.921757 1.27833 0
M  V30 11626 C 1130.51 0.559906 1.94918 0
M  V30 11627 C 1130.85 -0.895532 1.72319 0
M  V30 11628 O 1130.12 -1.638 1.04879 0
M  V30 11629 C 1130.41 0.879458 3.49196 0
M  V30 11630 C 1130.26 2.38821 3.81162 0
M  V30 11631 C 1131.58 0.381183 4.38446 0
M  V30 11632 H 1128.7 0.204893 0.707946 0
M  V30 11633 H 1131.34 1.15246 1.51058 0
M  V30 11634 H 1129.49 0.375177 3.86684 0
M  V30 11635 H 1131.16 2.96373 3.53498 0
M  V30 11636 H 1129.4 2.83988 3.27923 0
M  V30 11637 H 1130.07 2.56234 4.88926 0
M  V30 11638 H 1132.55 0.813289 4.08075 0
M  V30 11639 H 1131.43 0.633778 5.45229 0
M  V30 11640 H 1131.69 -0.718651 4.3622 0
M  V30 11641 N 1130.75 -1.41857 0.686609 0
M  V30 11642 C 1131.99 -2.01666 0.214118 0
M  V30 11643 C 1132.33 -1.5422 -1.18025 0
M  V30 11644 O 1131.6 -0.749482 -1.7948 0
M  V30 11645 C 1131.88 -3.59147 0.261841 0
M  V30 11646 C 1131.74 -4.16742 1.69251 0
M  V30 11647 C 1133.06 -4.38427 -0.383378 0
M  V30 11648 H 1130.17 -0.732724 0.0792785 0
M  V30 11649 H 1132.82 -1.68724 0.873633 0
M  V30 11650 H 1130.97 -3.87342 -0.29971 0
M  V30 11651 H 1132.64 -3.99456 2.30722 0
M  V30 11652 H 1130.88 -3.72124 2.2295 0
M  V30 11653 H 1131.55 -5.25894 1.6775 0
M  V30 11654 H 1134.03 -4.15992 0.0947701 0
M  V30 11655 H 1132.9 -5.4797 -0.319401 0
M  V30 11656 H 1133.17 -4.172 -1.46276 0
M  V30 11657 N 1132.22 -0.430739 -1.51599 0
M  V30 11658 C 1133.45 0.139197 -2.06932 0
M  V30 11659 C 1133.87 1.3626 -1.29672 0
M  V30 11660 O 1133.23 1.78219 -0.332836 0
M  V30 11661 C 1133.28 0.446593 -3.57824 0
M  V30 11662 O 1132.38 1.53414 -3.82803 0
M  V30 11663 H 1131.73 0.00475812 -0.663983 0
M  V30 11664 H 1134.26 -0.610171 -1.9529 0
M  V30 11665 H 1134.27 0.698972 -4.01968 0
M  V30 11666 H 1132.94 -0.447613 -4.13484 0
M  V30 11667 H 1131.52 1.27224 -3.50526 0
M  V30 11668 N 1133.7 1.56767 -0.161869 0
M  V30 11669 C 1134.93 2.01401 0.49523 0
M  V30 11670 C 1135.35 1.04133 1.56646 0
M  V30 11671 O 1134.71 0.0193747 1.8129 0
M  V30 11672 C 1134.76 3.44695 1.05913 0
M  V30 11673 O 1133.86 3.50475 2.1735 0
M  V30 11674 H 1133.2 0.65314 0.1196 0
M  V30 11675 H 1135.73 2.02903 -0.26298 0
M  V30 11676 H 1135.74 3.83805 1.3841 0
M  V30 11677 H 1134.42 4.14991 0.274749 0
M  V30 11678 H 1133 3.23218 1.85969 0
M  V30 11679 N 1135.18 -0.111886 1.57202 0
M  V30 11680 C 1136.41 -0.836317 1.89791 0
M  V30 11681 C 1136.83 -1.72304 0.754513 0
M  V30 11682 O 1136.19 -1.78889 -0.294672 0
M  V30 11683 C 1136.24 -1.63971 3.21164 0
M  V30 11684 O 1135.34 -2.74726 3.0757 0
M  V30 11685 H 1134.68 -0.230833 0.622585 0
M  V30 11686 H 1137.21 -0.0921478 2.04392 0
M  V30 11687 H 1137.22 -2.02746 3.54059 0
M  V30 11688 H 1135.9 -0.98882 4.03974 0
M  V30 11689 H 1134.47 -2.39101 2.86156 0
M  V30 11690 N 1136.66 -1.52894 -0.382264 0
M  V30 11691 C 1137.59 -1.81122 -1.47367 0
M  V30 11692 C 1138.57 -0.663653 -1.56619 0
M  V30 11693 O 1139.75 -0.911898 -1.71459 0
M  V30 11694 C 1136.88 -1.98615 -2.84902 0
M  V30 11695 C 1135.84 -3.14328 -2.90485 0
M  V30 11696 C 1135.16 -3.17086 -4.30535 0
M  V30 11697 C 1136.46 -4.53263 -2.59519 0
M  V30 11698 H 1138.16 -2.72518 -1.23993 0
M  V30 11699 H 1135.7 -1.3113 -0.595049 0
M  V30 11700 H 1137.66 -2.16946 -3.61265 0
M  V30 11701 H 1136.38 -1.03915 -3.09628 0
M  V30 11702 H 1135.04 -2.95791 -2.16572 0
M  V30 11703 H 1134.69 -2.20055 -4.52311 0
M  V30 11704 H 1134.39 -3.94821 -4.3519 0
M  V30 11705 H 1135.91 -3.3758 -5.08795 0
M  V30 11706 H 1137.33 -4.71867 -3.25598 0
M  V30 11707 H 1135.72 -5.33115 -2.75514 0
M  V30 11708 H 1136.79 -4.59516 -1.54831 0
M  V30 11709 N 1138.14 0.641106 -1.43971 0
M  V30 11710 C 1139.55 0.958161 -1.27638 0
M  V30 11711 C 1139.75 2.00456 -0.204885 0
M  V30 11712 O 1138.81 2.49106 0.412606 0
M  V30 11713 C 1140.12 1.43091 -2.64472 0
M  V30 11714 C 1141.67 1.54692 -2.72102 0
M  V30 11715 C 1142.15 2.05353 -4.09382 0
M  V30 11716 N 1143.64 2.12638 -4.11509 0
M  V30 11717 C 1144.37 2.52987 -5.14573 0
M  V30 11718 N 1143.87 2.92544 -6.28005 0
M  V30 11719 N 1145.66 2.53033 -5.01927 0
M  V30 11720 H 1137.81 -0.0510973 -2.12339 0
M  V30 11721 H 1140.07 0.039748 -0.947166 0
M  V30 11722 H 1139.78 0.736389 -3.43904 0
M  V30 11723 H 1139.65 2.40375 -2.90688 0
M  V30 11724 H 1142.04 2.23242 -1.92994 0
M  V30 11725 H 1142.12 0.558083 -2.49638 0
M  V30 11726 H 1141.77 1.37401 -4.88962 0
M  V30 11727 H 1141.7 3.0509 -4.29218 0
M  V30 11728 H 1144.19 1.84792 -3.29636 0
M  V30 11729 H 1144.5 3.22116 -7.02468 0
M  V30 11730 H 1142.85 2.90319 -6.31458 0
M  V30 11731 H 1146.04 2.21514 -4.1237 0
M  V30 11732 H 1146.21 2.84155 -5.82375 0
M  V30 11733 N 1139.62 1.30703 0.880598 0
M  V30 11734 C 1140.89 1.1043 1.61445 0
M  V30 11735 C 1141.27 -0.344837 2.08264 0
M  V30 11736 O 1140.62 -1.33711 1.85293 0
M  V30 11737 C 1140.83 2.10908 2.78063 0
M  V30 11738 C 1142.18 2.42861 3.48287 0
M  V30 11739 O 1143.2 2.09252 2.88257 0
M  V30 11740 O 1142.06 3.00369 4.56553 0
M  V30 11741 H 1139.16 0.424419 0.709787 0
M  V30 11742 H 1141.7 1.42144 0.926991 0
M  V30 11743 H 1140.47 3.08431 2.40803 0
M  V30 11744 H 1140.1 1.80036 3.54503 0
M  V30 11745 N 1141.09 -1.09351 1.1349 0
M  V30 11746 C 1142.34 -1.81185 0.89535 0
M  V30 11747 C 1142.66 -1.86173 -0.580048 0
M  V30 11748 O 1141.93 -1.34784 -1.42162 0
M  V30 11749 H 1140.51 -0.671011 0.328257 0
M  V30 11750 H 1143.17 -1.32255 1.43159 0
M  V30 11751 H 1142.27 -2.84339 1.28676 0
M  V30 11752 N 1142.57 -0.928524 -1.27343 0
M  V30 11753 C 1143.5 -0.372628 -2.25137 0
M  V30 11754 C 1144.48 0.531468 -1.53669 0
M  V30 11755 O 1145.67 0.471788 -1.825 0
M  V30 11756 C 1142.79 0.465841 -3.35481 0
M  V30 11757 C 1141.84 -0.374941 -4.24849 0
M  V30 11758 S 1142.67 -1.791 -5.04662 0
M  V30 11759 C 1143.83 -0.960233 -6.1849 0
M  V30 11760 H 1144.06 -1.20147 -2.71941 0
M  V30 11761 H 1141.59 -0.730764 -1.36012 0
M  V30 11762 H 1143.55 0.943741 -3.99504 0
M  V30 11763 H 1142.21 1.26922 -2.87314 0
M  V30 11764 H 1141.41 0.266871 -5.03293 0
M  V30 11765 H 1141.01 -0.787045 -3.65625 0
M  V30 11766 H 1143.3 -0.196615 -6.77215 0
M  V30 11767 H 1144.24 -1.71771 -6.8695 0
M  V30 11768 H 1144.65 -0.501881 -5.62265 0
M  V30 11769 N 1144.05 1.41491 -0.694123 0
M  V30 11770 C 1145.27 2.06099 -0.23197 0
M  V30 11771 C 1145.7 1.51888 1.10958 0
M  V30 11772 O 1145.06 0.645247 1.69429 0
M  V30 11773 C 1145.11 3.60053 -0.198522 0
M  V30 11774 O 1144.21 4.04021 0.827067 0
M  V30 11775 H 1143.55 0.654193 -0.113699 0
M  V30 11776 H 1146.08 1.81282 -0.948575 0
M  V30 11777 H 1146.09 4.0799 -0.0288904 0
M  V30 11778 H 1144.77 3.98879 -1.17764 0
M  V30 11779 H 1143.34 3.67593 0.626908 0
M  V30 11780 N 1145.53 0.438773 1.51369 0
M  V30 11781 C 1146.48 -0.389921 2.24641 0
M  V30 11782 C 1147.46 -0.988871 1.26926 0
M  V30 11783 O 1148.65 -0.906774 1.52009 0
M  V30 11784 C 1145.78 -1.48972 3.09293 0
M  V30 11785 C 1144.87 -0.900093 4.14438 0
M  V30 11786 N 1145.26 -0.0397688 5.05784 0
M  V30 11787 C 1143.56 -1.16752 4.30447 0
M  V30 11788 C 1144.26 0.291527 5.80969 0
M  V30 11789 N 1143.23 -0.325219 5.42626 0
M  V30 11790 H 1147.04 0.273335 2.92626 0
M  V30 11791 H 1144.55 0.250934 1.6045 0
M  V30 11792 H 1146.55 -2.09627 3.60364 0
M  V30 11793 H 1145.21 -2.1553 2.42852 0
M  V30 11794 H 1146.22 0.326771 5.16868 0
M  V30 11795 H 1142.9 -1.83049 3.75232 0
M  V30 11796 H 1144.29 0.991699 6.64541 0
M  V30 11797 N 1147.01 -1.56678 0.170181 0
M  V30 11798 C 1147.94 -2.20916 -0.756213 0
M  V30 11799 C 1148.92 -1.16442 -1.23997 0
M  V30 11800 O 1150.1 -1.44867 -1.29333 0
M  V30 11801 C 1147.23 -2.84901 -1.98617 0
M  V30 11802 C 1146.19 -3.95403 -1.63831 0
M  V30 11803 C 1145.51 -4.46432 -2.94282 0
M  V30 11804 C 1146.81 -5.15051 -0.867195 0
M  V30 11805 H 1148.51 -2.98585 -0.220776 0
M  V30 11806 H 1146.05 -1.43619 -0.104748 0
M  V30 11807 H 1148 -3.28514 -2.63926 0
M  V30 11808 H 1146.73 -2.04598 -2.54572 0
M  V30 11809 H 1145.39 -3.52444 -1.00891 0
M  V30 11810 H 1145.04 -3.62923 -3.48276 0
M  V30 11811 H 1144.74 -5.20979 -2.71762 0
M  V30 11812 H 1146.26 -4.92731 -3.60622 0
M  V30 11813 H 1147.67 -5.55363 -1.42285 0
M  V30 11814 H 1146.07 -5.95507 -0.741065 0
M  V30 11815 H 1147.14 -4.84707 0.136693 0
M  V30 11816 N 1148.48 0.103547 -1.57259 0
M  V30 11817 C 1149.73 0.807231 -1.84842 0
M  V30 11818 C 1150.05 1.80308 -0.758181 0
M  V30 11819 O 1151.25 2.55406 -0.920877 0
M  V30 11820 C 1149.71 1.4864 -3.27771 0
M  V30 11821 C 1149.32 0.53075 -4.44845 0
M  V30 11822 C 1151.06 2.17431 -3.64587 0
M  V30 11823 C 1148.97 1.21403 -5.78805 0
M  V30 11824 H 1147.9 0.305212 -0.689465 0
M  V30 11825 H 1150.55 0.0600855 -1.83402 0
M  V30 11826 H 1148.93 2.28071 -3.23728 0
M  V30 11827 H 1150.1 -0.231455 -4.60218 0
M  V30 11828 H 1148.42 -0.0510078 -4.16369 0
M  V30 11829 H 1151.02 2.6927 -4.6195 0
M  V30 11830 H 1151.36 2.9594 -2.92789 0
M  V30 11831 H 1151.89 1.4487 -3.70483 0
M  V30 11832 H 1148.63 0.469918 -6.53813 0
M  V30 11833 H 1148.15 1.94787 -5.6729 0
M  V30 11834 H 1149.83 1.74289 -6.23083 0
M  V30 11835 N 1149.96 1.53094 0.37415 0
M  V30 11836 C 1150.89 1.75199 1.47776 0
M  V30 11837 C 1151.91 0.632627 1.50006 0
M  V30 11838 O 1153.1 0.908688 1.5364 0
M  V30 11839 C 1150.2 1.80909 2.86575 0
M  V30 11840 C 1149.37 3.10432 3.08141 0
M  V30 11841 C 1148.43 3.07495 4.27005 0
M  V30 11842 O 1147.45 3.81319 4.22592 0
M  V30 11843 N 1148.66 2.27715 5.33972 0
M  V30 11844 H 1151.42 2.70423 1.29196 0
M  V30 11845 H 1148.98 1.51766 0.563802 0
M  V30 11846 H 1150.97 1.76432 3.64217 0
M  V30 11847 H 1149.54 0.930074 2.98443 0
M  V30 11848 H 1148.76 3.2828 2.18233 0
M  V30 11849 H 1150.05 3.96047 3.19413 0
M  V30 11850 H 1149.45 1.67231 5.40417 0
M  V30 11851 H 1148.01 2.29065 6.10223 0
M  V30 11852 N 1151.44 -0.633461 1.44309 0
M  V30 11853 C 1152.66 -1.42527 1.50668 0
M  V30 11854 C 1153.09 -1.87637 0.131861 0
M  V30 11855 O 1152.45 -1.58595 -0.878477 0
M  V30 11856 C 1152.5 -2.62328 2.47419 0
M  V30 11857 O 1151.6 -3.62081 1.97411 0
M  V30 11858 H 1150.94 -0.426559 0.508864 0
M  V30 11859 H 1153.47 -0.773392 1.8942 0
M  V30 11860 H 1153.48 -3.09901 2.65378 0
M  V30 11861 H 1152.16 -2.2884 3.47283 0
M  V30 11862 H 1150.73 -3.21333 1.89208 0
M  V30 11863 N 1152.92 -1.31168 -0.873655 0
M  V30 11864 C 1153.88 -1.18471 -1.96207 0
M  V30 11865 C 1154.88 -0.112814 -1.60404 0
M  V30 11866 O 1156.07 -0.3618 -1.70401 0
M  V30 11867 C 1153.2 -0.817662 -3.30949 0
M  V30 11868 H 1154.4 -2.1518 -2.08896 0
M  V30 11869 H 1151.95 -1.14727 -1.06149 0
M  V30 11870 H 1152.68 0.148428 -3.2396 0
M  V30 11871 H 1152.47 -1.59244 -3.58307 0
M  V30 11872 H 1153.96 -0.75262 -4.10762 0
M  V30 11873 N 1154.4 1.08748 -1.14068 0
M  V30 11874 C 1155.64 1.80707 -0.904947 0
M  V30 11875 C 1155.97 1.86478 0.570167 0
M  V30 11876 O 1155.24 1.35536 1.41445 0
M  V30 11877 H 1153.82 0.669261 -0.331811 0
M  V30 11878 H 1156.48 1.31494 -1.43859 0
M  V30 11879 H 1155.57 2.83653 -1.30182 0
M  V30 11880 N 1155.87 0.935264 1.26849 0
M  V30 11881 C 1156.8 0.457776 2.28969 0
M  V30 11882 C 1157.79 -0.48587 1.63013 0
M  V30 11883 O 1158.97 -0.388998 1.90264 0
M  V30 11884 C 1156.1 -0.283332 3.46142 0
M  V30 11885 C 1155.05 0.573196 4.24144 0
M  V30 11886 C 1154.38 -0.297525 5.33872 0
M  V30 11887 C 1155.68 1.84153 4.88759 0
M  V30 11888 H 1157.37 1.31125 2.69159 0
M  V30 11889 H 1154.92 0.631956 1.29392 0
M  V30 11890 H 1156.87 -0.628366 4.16689 0
M  V30 11891 H 1155.6 -1.1709 3.04889 0
M  V30 11892 H 1154.26 0.901043 3.55354 0
M  V30 11893 H 1153.9 -1.18427 4.8886 0
M  V30 11894 H 1153.6 0.272126 5.8697 0
M  V30 11895 H 1155.13 -0.637961 6.07258 0
M  V30 11896 H 1156.54 1.5641 5.51551 0
M  V30 11897 H 1154.94 2.35528 5.51948 0
M  V30 11898 H 1156.01 2.5565 4.12033 0
M  V30 11899 N 1157.35 -1.41121 0.701616 0
M  V30 11900 C 1158.6 -2.00733 0.234682 0
M  V30 11901 C 1158.92 -1.55869 -1.17174 0
M  V30 11902 O 1158.19 -0.791965 -1.79178 0
M  V30 11903 H 1156.77 -0.742288 0.0837745 0
M  V30 11904 H 1159.43 -1.7266 0.904127 0
M  V30 11905 H 1158.53 -3.11041 0.256831 0
M  V30 11906 N 1158.83 -0.446794 -1.51134 0
M  V30 11907 C 1160.08 0.116263 -2.01765 0
M  V30 11908 C 1160.4 1.42382 -1.33238 0
M  V30 11909 O 1159.67 1.9018 -0.469915 0
M  V30 11910 H 1158.25 0.0459558 -0.745585 0
M  V30 11911 H 1160.91 -0.591664 -1.85702 0
M  V30 11912 H 1160.01 0.285358 -3.10793 0
M  V30 11913 N 1160.31 1.56586 -0.178487 0
M  V30 11914 C 1161.24 2.21313 0.744486 0
M  V30 11915 C 1162.22 1.17098 1.23377 0
M  V30 11916 O 1163.4 1.45551 1.28563 0
M  V30 11917 C 1160.53 2.8595 1.97103 0
M  V30 11918 C 1159.49 3.96266 1.61732 0
M  V30 11919 C 1158.81 4.47987 2.91911 0
M  V30 11920 C 1160.11 5.15503 0.839868 0
M  V30 11921 H 1161.81 2.98698 0.204938 0
M  V30 11922 H 1159.35 1.43672 0.0971306 0
M  V30 11923 H 1161.31 3.29909 2.6218 0
M  V30 11924 H 1160.03 2.05946 2.53484 0
M  V30 11925 H 1158.69 3.52974 0.990208 0
M  V30 11926 H 1158.34 3.64765 3.46346 0
M  V30 11927 H 1158.04 5.22413 2.68995 0
M  V30 11928 H 1159.56 4.94637 3.58004 0
M  V30 11929 H 1160.98 5.5611 1.39337 0
M  V30 11930 H 1159.37 5.95891 0.709473 0
M  V30 11931 H 1160.44 4.84628 -0.162396 0
M  V30 11932 N 1161.79 -0.095206 1.57312 0
M  V30 11933 C 1162.73 -1.11551 2.02052 0
M  V30 11934 C 1163.7 -1.39808 0.896818 0
M  V30 11935 O 1164.89 -1.51273 1.1628 0
M  V30 11936 C 1162.03 -2.43056 2.44985 0
M  V30 11937 C 1161.14 -2.21531 3.70875 0
M  V30 11938 C 1160.28 -3.46434 4.02687 0
M  V30 11939 C 1159.32 -3.2017 5.21687 0
M  V30 11940 N 1158.45 -4.37339 5.49253 0
M  V30 11941 H 1163.29 -0.727 2.88996 0
M  V30 11942 H 1160.83 -0.347441 1.42938 0
M  V30 11943 H 1162.79 -3.19803 2.67921 0
M  V30 11944 H 1161.42 -2.79754 1.61051 0
M  V30 11945 H 1160.47 -1.35587 3.55416 0
M  V30 11946 H 1161.78 -1.98116 4.57768 0
M  V30 11947 H 1160.94 -4.31589 4.26399 0
M  V30 11948 H 1159.67 -3.72904 3.14315 0
M  V30 11949 H 1158.68 -2.33409 4.97796 0
M  V30 11950 H 1159.9 -2.95047 6.11657 0
M  V30 11951 H 1157.85 -4.63885 4.6384 0
M  V30 11952 H 1157.77 -4.17114 6.30517 0
M  V30 11953 H 1159.04 -5.23559 5.775 0
M  V30 11954 N 1163.26 -1.53291 -0.366026 0
M  V30 11955 C 1164.21 -1.76077 -1.44847 0
M  V30 11956 C 1165.2 -0.615302 -1.4867 0
M  V30 11957 O 1166.39 -0.873952 -1.53919 0
M  V30 11958 C 1163.52 -1.95371 -2.82286 0
M  V30 11959 C 1162.61 -3.15918 -2.82943 0
M  V30 11960 N 1163 -4.37835 -2.53247 0
M  V30 11961 C 1161.29 -3.16631 -3.14103 0
M  V30 11962 C 1162 -5.19573 -2.6157 0
M  V30 11963 N 1160.97 -4.55773 -2.96263 0
M  V30 11964 H 1164.77 -2.67949 -1.2075 0
M  V30 11965 H 1162.29 -1.5191 -0.574206 0
M  V30 11966 H 1164.28 -2.09823 -3.6025 0
M  V30 11967 H 1162.94 -1.04727 -3.07347 0
M  V30 11968 H 1163.96 -4.65575 -2.26848 0
M  V30 11969 H 1160.63 -2.35878 -3.44482 0
M  V30 11970 H 1162.02 -6.26821 -2.41961 0
M  V30 11971 N 1164.74 0.6258 -1.44643 0
M  V30 11972 C 1165.69 1.75869 -1.52226 0
M  V30 11973 C 1166.68 1.64765 -0.39355 0
M  V30 11974 O 1167.89 1.70779 -0.568718 0
M  V30 11975 H 1164.27 0.580712 -0.477784 0
M  V30 11976 H 1166.24 1.66596 -2.47565 0
M  V30 11977 C 1164.99 3.14217 -1.48873 0
M  V30 11978 H 1164.31 3.23411 -2.35043 0
M  V30 11979 H 1165.75 3.93365 -1.58239 0
M  V30 11980 C 1164.21 3.36243 -0.210299 0
M  V30 11981 O 1164.74 3.95243 0.717335 0
M  V30 11982 N 1162.94 2.90385 -0.111744 0
M  V30 11983 H 1162.49 2.42555 -0.867466 0
M  V30 11984 H 1162.45 3.05498 0.742871 0
M  V30 11985 N 1166.22 1.31629 0.866686 0
M  V30 11986 C 1167.45 1.24474 1.65269 0
M  V30 11987 C 1167.86 -0.18939 1.87848 0
M  V30 11988 O 1167.22 -1.12251 1.43895 0
M  V30 11989 C 1167.27 1.98872 3.01881 0
M  V30 11990 O 1166.99 3.36687 2.8031 0
M  V30 11991 C 1168.49 1.98595 3.96327 0
M  V30 11992 H 1165.71 0.429966 0.515141 0
M  V30 11993 H 1168.26 1.73559 1.08156 0
M  V30 11994 H 1166.41 1.53539 3.55675 0
M  V30 11995 H 1166.83 3.74612 3.67105 0
M  V30 11996 H 1168.3 2.55156 4.89489 0
M  V30 11997 H 1168.78 0.969257 4.28371 0
M  V30 11998 H 1169.38 2.43821 3.4847 0
M  V30 11999 N 1167.7 -1.08142 1.14644 0
M  V30 12000 C 1168.95 -1.80849 0.917685 0
M  V30 12001 C 1169.28 -1.86123 -0.554249 0
M  V30 12002 O 1168.55 -1.33907 -1.41065 0
M  V30 12003 C 1168.84 -3.26325 1.52264 0
M  V30 12004 C 1168.69 -3.29244 3.06461 0
M  V30 12005 C 1170.01 -4.23375 1.20175 0
M  V30 12006 H 1167.13 -0.656559 0.334812 0
M  V30 12007 H 1169.77 -1.26595 1.41682 0
M  V30 12008 H 1167.92 -3.72656 1.09817 0
M  V30 12009 H 1169.59 -2.91216 3.57758 0
M  V30 12010 H 1167.83 -2.68438 3.40769 0
M  V30 12011 H 1168.51 -4.31785 3.43897 0
M  V30 12012 H 1170.98 -3.85394 1.56877 0
M  V30 12013 H 1169.86 -5.23472 1.65132 0
M  V30 12014 H 1170.12 -4.41944 0.117474 0
M  V30 12015 N 1169.18 -0.941978 -1.26351 0
M  V30 12016 C 1170.11 -0.469913 -2.28723 0
M  V30 12017 C 1171.09 0.477218 -1.63269 0
M  V30 12018 O 1172.27 0.378902 -1.90468 0
M  V30 12019 C 1169.4 0.264971 -3.46288 0
M  V30 12020 C 1168.36 -0.595682 -4.23834 0
M  V30 12021 C 1167.68 0.269208 -5.34022 0
M  V30 12022 C 1168.98 -1.86743 -4.87775 0
M  V30 12023 H 1170.68 -1.32551 -2.6846 0
M  V30 12024 H 1168.22 -0.638809 -1.29055 0
M  V30 12025 H 1170.18 0.606259 -4.17016 0
M  V30 12026 H 1168.9 1.15471 -3.05506 0
M  V30 12027 H 1167.56 -0.919875 -3.54872 0
M  V30 12028 H 1167.21 1.15832 -4.89481 0
M  V30 12029 H 1166.91 -0.30325 -5.86817 0
M  V30 12030 H 1168.43 0.605748 -6.07588 0
M  V30 12031 H 1169.85 -1.59333 -5.50714 0
M  V30 12032 H 1168.24 -2.38452 -5.50691 0
M  V30 12033 H 1169.31 -2.57831 -4.10671 0
M  V30 12034 N 1170.66 1.40747 -0.709091 0
M  V30 12035 C 1171.59 2.282 -0.00156906 0
M  V30 12036 C 1172.57 1.42981 0.774279 0
M  V30 12037 O 1173.75 1.724 0.762276 0
M  V30 12038 C 1170.88 3.23441 1.00517 0
M  V30 12039 C 1169.92 4.25291 0.320904 0
M  V30 12040 S 1170.76 5.27069 -0.946518 0
M  V30 12041 C 1171.91 6.25873 0.0582856 0
M  V30 12042 H 1172.15 2.87859 -0.743271 0
M  V30 12043 H 1169.68 1.46085 -0.499866 0
M  V30 12044 H 1171.64 3.78841 1.58082 0
M  V30 12045 H 1170.3 2.62851 1.71954 0
M  V30 12046 H 1169.49 4.92255 1.08173 0
M  V30 12047 H 1169.09 3.73557 -0.18202 0
M  V30 12048 H 1171.38 6.71398 0.907233 0
M  V30 12049 H 1172.33 7.05739 -0.577787 0
M  V30 12050 H 1172.74 5.62942 0.419108 0
M  V30 12051 N 1172.13 0.454803 1.50895 0
M  V30 12052 C 1173.1 -0.336293 2.26719 0
M  V30 12053 C 1174.1 -0.93464 1.30848 0
M  V30 12054 O 1175.29 -0.80636 1.54413 0
M  V30 12055 C 1172.42 -1.47744 3.07221 0
M  V30 12056 H 1173.61 0.328462 2.98096 0
M  V30 12057 H 1171.16 0.208419 1.54904 0
M  V30 12058 H 1171.9 -2.17773 2.40302 0
M  V30 12059 H 1171.68 -1.05438 3.77658 0
M  V30 12060 H 1173.17 -2.03592 3.6461 0
M  V30 12061 N 1173.61 -1.56489 0.186789 0
M  V30 12062 C 1174.86 -1.98399 -0.448244 0
M  V30 12063 C 1175.21 -1.07139 -1.59809 0
M  V30 12064 O 1174.51 -0.114119 -1.9126 0
M  V30 12065 C 1174.7 -3.44145 -0.964315 0
M  V30 12066 C 1174.53 -4.495 0.133992 0
M  V30 12067 C 1173.3 -5.01857 0.588851 0
M  V30 12068 C 1175.5 -5.05637 0.939971 0
M  V30 12069 N 1173.48 -5.90866 1.66585 0
M  V30 12070 C 1174.85 -5.91236 1.86655 0
M  V30 12071 C 1176.9 -4.88093 0.983319 0
M  V30 12072 C 1175.61 -6.61167 2.83286 0
M  V30 12073 C 1177.63 -5.58757 1.93764 0
M  V30 12074 C 1177 -6.44096 2.85167 0
M  V30 12075 H 1173.09 -0.770833 -0.131684 0
M  V30 12076 H 1175.68 -1.9252 0.290571 0
M  V30 12077 H 1173.85 -3.50541 -1.6726 0
M  V30 12078 H 1175.58 -3.73036 -1.56926 0
M  V30 12079 H 1172.34 -4.73244 0.183712 0
M  V30 12080 H 1172.76 -6.40075 2.2053 0
M  V30 12081 H 1177.4 -4.218 0.290658 0
M  V30 12082 H 1175.12 -7.26664 3.53532 0
M  V30 12083 H 1178.71 -5.47163 1.97748 0
M  V30 12084 H 1177.59 -6.97813 3.57808 0
M  V30 12085 N 1175.09 0.086862 -1.5736 0
M  V30 12086 C 1176.5 0.640442 -1.75372 0
M  V30 12087 C 1176.85 1.78693 -0.81014 0
M  V30 12088 O 1175.98 2.16398 0.00940712 0
M  V30 12089 C 1176.57 1.16856 -3.1801 0
M  V30 12090 C 1175.13 1.66813 -3.37417 0
M  V30 12091 C 1174.28 0.58116 -2.71142 0
M  V30 12092 H 1177.23 -0.139249 -1.58088 0
M  V30 12093 H 1177.25 2.03772 -3.21337 0
M  V30 12094 H 1176.76 0.333909 -3.86661 0
M  V30 12095 H 1174.86 2.52652 -2.73858 0
M  V30 12096 H 1174.98 1.75545 -4.45781 0
M  V30 12097 H 1173.34 1.0226 -2.3327 0
M  V30 12098 H 1174.12 -0.243047 -3.42439 0
M  V30 12099 N 1176.57 1.53483 0.357892 0
M  V30 12100 C 1177.53 1.79782 1.42166 0
M  V30 12101 C 1178.53 0.668441 1.46248 0
M  V30 12102 O 1179.72 0.936677 1.46874 0
M  V30 12103 C 1176.85 1.92686 2.8122 0
M  V30 12104 H 1178.05 2.74794 1.20117 0
M  V30 12105 H 1175.6 1.44677 0.591468 0
M  V30 12106 H 1176.33 0.997669 3.08573 0
M  V30 12107 H 1176.12 2.74837 2.79655 0
M  V30 12108 H 1177.61 2.14599 3.58242 0
M  V30 12109 N 1178.05 -0.61812 1.44973 0
M  V30 12110 C 1179.27 -1.40921 1.52171 0
M  V30 12111 C 1179.7 -1.87487 0.151755 0
M  V30 12112 O 1179.05 -1.59518 -0.861606 0
M  V30 12113 C 1179.1 -2.59689 2.50188 0
M  V30 12114 O 1178.21 -3.59967 2.0124 0
M  V30 12115 H 1177.55 -0.421138 0.51336 0
M  V30 12116 H 1180.08 -0.753258 1.90229 0
M  V30 12117 H 1180.09 -3.07069 2.6865 0
M  V30 12118 H 1178.76 -2.25144 3.4969 0
M  V30 12119 H 1177.34 -3.19308 1.92605 0
M  V30 12120 N 1179.52 -1.32087 -0.859693 0
M  V30 12121 C 1180.77 -1.23551 -1.61575 0
M  V30 12122 C 1181.12 0.20199 -1.91337 0
M  V30 12123 O 1180.42 1.13834 -1.54118 0
M  V30 12124 C 1180.61 -2.0234 -2.94607 0
M  V30 12125 C 1180.44 -3.53606 -2.77836 0
M  V30 12126 C 1179.21 -4.22948 -2.76483 0
M  V30 12127 C 1181.41 -4.48356 -2.51955 0
M  V30 12128 N 1179.39 -5.60301 -2.5087 0
M  V30 12129 C 1180.76 -5.7345 -2.35702 0
M  V30 12130 C 1182.82 -4.37669 -2.37383 0
M  V30 12131 C 1181.52 -6.89064 -2.06357 0
M  V30 12132 C 1183.55 -5.53077 -2.09427 0
M  V30 12133 C 1182.91 -6.77167 -1.93971 0
M  V30 12134 H 1179.01 -0.507252 -0.595164 0
M  V30 12135 H 1181.59 -1.66395 -1.01098 0
M  V30 12136 H 1179.76 -1.6185 -3.53071 0
M  V30 12137 H 1181.49 -1.8574 -3.59559 0
M  V30 12138 H 1178.25 -3.75017 -2.89239 0
M  V30 12139 H 1178.67 -6.32649 -2.41006 0
M  V30 12140 H 1183.31 -3.42386 -2.48056 0
M  V30 12141 H 1181.03 -7.84363 -1.94421 0
M  V30 12142 H 1184.62 -5.46731 -1.98937 0
M  V30 12143 H 1183.5 -7.64959 -1.72646 0
M  V30 12144 N 1181 1.07532 -1.15215 0
M  V30 12145 C 1181.95 2.14687 -0.847243 0
M  V30 12146 C 1182.92 1.64903 0.199043 0
M  V30 12147 O 1184.1 1.90682 0.0669986 0
M  V30 12148 C 1181.24 3.43414 -0.340673 0
M  V30 12149 C 1180.36 4.06999 -1.44831 0
M  V30 12150 C 1179.49 5.23554 -0.898059 0
M  V30 12151 C 1178.53 5.79097 -1.98276 0
M  V30 12152 N 1177.67 6.86985 -1.44902 0
M  V30 12153 H 1182.51 2.4011 -1.76498 0
M  V30 12154 H 1180.04 1.17823 -0.880689 0
M  V30 12155 H 1182 4.1719 -0.0286956 0
M  V30 12156 H 1180.63 3.18249 0.540144 0
M  V30 12157 H 1179.68 3.30895 -1.87651 0
M  V30 12158 H 1181 4.44289 -2.26735 0
M  V30 12159 H 1180.15 6.04305 -0.538514 0
M  V30 12160 H 1178.89 4.87676 -0.0481752 0
M  V30 12161 H 1177.89 4.96992 -2.35115 0
M  V30 12162 H 1179.12 6.1703 -2.83639 0
M  V30 12163 H 1177.07 6.5305 -0.621468 0
M  V30 12164 H 1176.98 7.23149 -2.20434 0
M  V30 12165 H 1178.25 7.71446 -1.11767 0
M  V30 12166 N 1182.48 0.948665 1.2585 0
M  V30 12167 C 1183.41 0.421458 2.25292 0
M  V30 12168 C 1184.43 -0.459389 1.56184 0
M  V30 12169 O 1185.61 -0.268627 1.76467 0
M  V30 12170 C 1182.71 -0.412653 3.36378 0
M  V30 12171 C 1181.89 0.453792 4.3504 0
M  V30 12172 C 1180.95 -0.321127 5.25219 0
M  V30 12173 O 1179.97 0.278424 5.68519 0
M  V30 12174 N 1181.17 -1.61576 5.5756 0
M  V30 12175 H 1183.94 1.27636 2.71162 0
M  V30 12176 H 1181.5 0.818367 1.39694 0
M  V30 12177 H 1183.49 -0.938637 3.93664 0
M  V30 12178 H 1182.06 -1.16839 2.89944 0
M  V30 12179 H 1181.28 1.16093 3.76718 0
M  V30 12180 H 1182.57 1.04538 4.97945 0
M  V30 12181 H 1181.97 -2.12488 5.24276 0
M  V30 12182 H 1180.53 -2.08783 6.17457 0
M  V30 12183 N 1183.96 -1.40369 0.716545 0
M  V30 12184 C 1184.87 -2.34508 0.065658 0
M  V30 12185 C 1185.88 -1.57352 -0.742723 0
M  V30 12186 O 1187.06 -1.89735 -0.675456 0
M  V30 12187 C 1184.13 -3.36262 -0.844337 0
M  V30 12188 C 1183.19 -4.29292 -0.0257971 0
M  V30 12189 C 1182.42 -5.26185 -0.892452 0
M  V30 12190 O 1182.64 -5.29071 -2.13166 0
M  V30 12191 O 1181.58 -6.0099 -0.330933 0
M  V30 12192 H 1185.4 -2.91789 0.842184 0
M  V30 12193 H 1182.99 -1.41579 0.477034 0
M  V30 12194 H 1184.87 -3.98661 -1.36555 0
M  V30 12195 H 1183.54 -2.81393 -1.59999 0
M  V30 12196 H 1182.45 -3.70175 0.540512 0
M  V30 12197 H 1183.78 -4.87316 0.69166 0
M  V30 12198 N 1185.44 -0.462799 -1.50652 0
M  V30 12199 C 1186.71 0.156221 -1.94975 0
M  V30 12200 C 1187.09 1.5775 -1.40279 0
M  V30 12201 O 1186.44 2.20473 -0.600323 0
M  V30 12202 C 1186.65 0.108008 -3.48833 0
M  V30 12203 C 1188 0.301013 -4.23532 0
M  V30 12204 O 1189.02 0.184973 -3.55719 0
M  V30 12205 O 1187.88 0.534457 -5.4388 0
M  V30 12206 H 1184.98 0.116182 -0.818798 0
M  V30 12207 H 1187.52 -0.522607 -1.61453 0
M  V30 12208 H 1186.29 -0.884634 -3.81169 0
M  V30 12209 H 1185.92 0.828653 -3.88869 0
M  V30 12210 N 1186.91 1.56388 -0.195085 0
M  V30 12211 C 1187.86 2.20431 0.742484 0
M  V30 12212 C 1188.86 1.17548 1.21979 0
M  V30 12213 O 1190.06 1.35693 1.18269 0
M  V30 12214 H 1186.44 0.706435 0.257786 0
M  V30 12215 H 1188.41 2.97865 0.178624 0
M  V30 12216 C 1187.16 2.87772 1.95147 0
M  V30 12217 H 1186.48 3.66681 1.59326 0
M  V30 12218 H 1187.92 3.36021 2.58585 0
M  V30 12219 C 1186.38 1.88807 2.79022 0
M  V30 12220 O 1186.91 1.38836 3.76945 0
M  V30 12221 N 1185.12 1.57037 2.44515 0
M  V30 12222 H 1184.66 1.97868 1.64943 0
M  V30 12223 H 1184.62 0.910776 3.00919 0
M  V30 12224 N 1188.39 -0.0785156 1.57404 0
M  V30 12225 C 1189.8 -0.631132 1.75709 0
M  V30 12226 C 1190.15 -1.78261 0.819605 0
M  V30 12227 O 1189.28 -2.164 0.00206912 0
M  V30 12228 C 1189.87 -1.15168 3.18625 0
M  V30 12229 C 1188.43 -1.65021 3.38297 0
M  V30 12230 C 1187.58 -0.566773 2.71446 0
M  V30 12231 H 1190.53 0.147631 1.58012 0
M  V30 12232 H 1190.55 -2.02065 3.22413 0
M  V30 12233 H 1190.06 -0.313399 3.86833 0
M  V30 12234 H 1188.17 -2.51196 2.75194 0
M  V30 12235 H 1188.28 -1.73179 4.46706 0
M  V30 12236 H 1186.64 -1.01021 2.33809 0
M  V30 12237 H 1187.43 0.261204 3.42305 0
M  V30 12238 N 1189.87 -1.5367 -0.349747 0
M  V30 12239 C 1191.12 -1.70618 -1.09068 0
M  V30 12240 C 1191.45 -0.466133 -1.88832 0
M  V30 12241 O 1190.7 0.552079 -1.87751 0
M  V30 12242 C 1191 -2.91753 -2.06434 0
M  V30 12243 C 1190.67 -4.27614 -1.43029 0
M  V30 12244 C 1189.33 -4.64555 -1.25466 0
M  V30 12245 C 1191.68 -5.12037 -0.972987 0
M  V30 12246 C 1189.01 -5.83543 -0.607807 0
M  V30 12247 C 1191.36 -6.31685 -0.340073 0
M  V30 12248 C 1190.02 -6.67327 -0.152069 0
M  V30 12249 H 1189.29 -0.624334 -0.399108 0
M  V30 12250 H 1191.94 -1.87879 -0.370657 0
M  V30 12251 H 1190.25 -2.6907 -2.84796 0
M  V30 12252 H 1191.94 -3.02059 -2.63744 0
M  V30 12253 H 1188.53 -3.98535 -1.57696 0
M  V30 12254 H 1192.72 -4.84035 -1.09655 0
M  V30 12255 H 1187.97 -6.09737 -0.450705 0
M  V30 12256 H 1192.15 -6.96396 0.0223973 0
M  V30 12257 H 1189.77 -7.59388 0.35121 0
M  V30 12258 N 1191.35 0.610423 -1.45298 0
M  V30 12259 C 1192.57 1.40112 -1.52917 0
M  V30 12260 C 1193 1.87404 -0.161696 0
M  V30 12261 O 1192.36 1.59973 0.853135 0
M  V30 12262 C 1192.4 2.58359 -2.51561 0
M  V30 12263 O 1191.51 3.58895 -2.03146 0
M  V30 12264 H 1190.85 0.41841 -0.515586 0
M  V30 12265 H 1193.38 0.743159 -1.90626 0
M  V30 12266 H 1193.39 3.0564 -2.70275 0
M  V30 12267 H 1192.06 2.23286 -3.50879 0
M  V30 12268 H 1190.64 3.18282 -1.94296 0
M  V30 12269 N 1192.83 1.32541 0.852676 0
M  V30 12270 C 1194.07 1.24406 1.60918 0
M  V30 12271 C 1194.43 -0.19184 1.91441 0
M  V30 12272 O 1193.72 -1.13016 1.54719 0
M  V30 12273 C 1193.91 2.039 2.9353 0
M  V30 12274 C 1193.74 3.55074 2.75957 0
M  V30 12275 C 1192.51 4.24409 2.74236 0
M  V30 12276 C 1194.71 4.49686 2.49574 0
M  V30 12277 N 1192.69 5.61624 2.47895 0
M  V30 12278 C 1194.06 5.74692 2.32658 0
M  V30 12279 C 1196.12 4.38921 2.35058 0
M  V30 12280 C 1194.82 6.90149 2.027 0
M  V30 12281 C 1196.85 5.5418 2.06491 0
M  V30 12282 C 1196.21 6.78186 1.90377 0
M  V30 12283 H 1192.31 0.510401 0.592465 0
M  V30 12284 H 1194.89 1.66929 1.00214 0
M  V30 12285 H 1193.06 1.6372 3.52208 0
M  V30 12286 H 1194.8 1.87644 3.58569 0
M  V30 12287 H 1191.55 3.76546 2.87246 0
M  V30 12288 H 1191.98 6.33918 2.37648 0
M  V30 12289 H 1196.62 3.43697 2.46236 0
M  V30 12290 H 1194.34 7.85383 1.90259 0
M  V30 12291 H 1197.92 5.47779 1.96035 0
M  V30 12292 H 1196.8 7.65864 1.68587 0
M  V30 12293 N 1194.3 -1.0692 1.15784 0
M  V30 12294 C 1195.25 -2.14235 0.858616 0
M  V30 12295 C 1196.22 -1.65006 -0.190295 0
M  V30 12296 O 1197.41 -1.90715 -0.0568853 0
M  V30 12297 C 1194.55 -3.43229 0.35888 0
M  V30 12298 C 1193.66 -4.06225 1.46987 0
M  V30 12299 C 1192.79 -5.2307 0.925812 0
M  V30 12300 C 1191.83 -5.78037 2.01345 0
M  V30 12301 N 1190.97 -6.86206 1.48544 0
M  V30 12302 H 1195.81 -2.3917 1.77769 0
M  V30 12303 H 1193.35 -1.17354 0.886925 0
M  V30 12304 H 1195.31 -4.17169 0.0508198 0
M  V30 12305 H 1193.94 -3.18531 -0.523259 0
M  V30 12306 H 1192.99 -3.29895 1.89403 0
M  V30 12307 H 1194.3 -4.43081 2.29088 0
M  V30 12308 H 1193.45 -6.04011 0.570555 0
M  V30 12309 H 1192.19 -4.87644 0.0740371 0
M  V30 12310 H 1191.2 -4.95738 2.37748 0
M  V30 12311 H 1192.42 -6.15517 2.86907 0
M  V30 12312 H 1190.37 -6.52711 0.656092 0
M  V30 12313 H 1190.29 -7.2197 2.24266 0
M  V30 12314 H 1191.55 -7.70842 1.15856 0
M  V30 12315 N 1195.78 -0.955326 -1.25345 0
M  V30 12316 C 1196.73 -0.467205 -2.2786 0
M  V30 12317 C 1197.72 0.462873 -1.62954 0
M  V30 12318 O 1198.93 0.339526 -1.76769 0
M  V30 12319 H 1195.31 -0.132586 -0.74022 0
M  V30 12320 H 1197.28 -1.34406 -2.66416 0
M  V30 12321 C 1196.03 0.238898 -3.46878 0
M  V30 12322 H 1195.35 -0.467644 -3.97056 0
M  V30 12323 H 1196.79 0.544444 -4.2049 0
M  V30 12324 C 1195.25 1.46164 -3.03542 0
M  V30 12325 O 1195.78 2.55933 -3.09615 0
M  V30 12326 N 1193.98 1.32324 -2.58725 0
M  V30 12327 H 1193.53 0.430131 -2.53984 0
M  V30 12328 H 1193.49 2.14253 -2.30094 0
M  V30 12329 N 1197.26 1.39987 -0.723979 0
M  V30 12330 C 1198.51 2.00731 -0.267115 0
M  V30 12331 C 1198.84 1.57424 1.14228 0
M  V30 12332 O 1198.09 0.789205 1.79081 0
M  V30 12333 C 1198.39 3.56101 -0.304472 0
M  V30 12334 C 1198.06 4.1902 -1.66533 0
M  V30 12335 C 1196.72 4.3592 -2.03783 0
M  V30 12336 C 1199.07 4.54034 -2.55935 0
M  V30 12337 C 1196.4 4.85119 -3.29964 0
M  V30 12338 C 1198.75 5.04637 -3.81477 0
M  V30 12339 C 1197.41 5.19745 -4.18833 0
M  V30 12340 H 1196.68 0.734525 -0.0977442 0
M  V30 12341 H 1199.33 1.67476 -0.928659 0
M  V30 12342 H 1197.64 3.89314 0.440647 0
M  V30 12343 H 1199.33 4.00944 0.0669875 0
M  V30 12344 H 1195.92 4.0626 -1.36569 0
M  V30 12345 H 1200.11 4.40606 -2.2843 0
M  V30 12346 H 1195.36 4.95001 -3.58865 0
M  V30 12347 H 1199.54 5.30705 -4.50916 0
M  V30 12348 H 1197.16 5.5763 -5.16675 0
M  V30 12349 N 1198.74 0.470782 1.50404 0
M  V30 12350 C 1199.99 -0.0844409 2.02624 0
M  V30 12351 C 1200.32 -1.39398 1.3521 0
M  V30 12352 O 1199.59 -1.88542 0.477707 0
M  V30 12353 C 1199.88 -0.268563 3.59097 0
M  V30 12354 C 1199.73 1.06198 4.37084 0
M  V30 12355 C 1201.05 -1.02324 4.28039 0
M  V30 12356 H 1198.17 -0.0292141 0.736421 0
M  V30 12357 H 1200.81 0.616312 1.79726 0
M  V30 12358 H 1198.96 -0.865441 3.78738 0
M  V30 12359 H 1200.63 1.69541 4.29015 0
M  V30 12360 H 1198.87 1.65868 4.00837 0
M  V30 12361 H 1199.55 0.886795 5.4483 0
M  V30 12362 H 1202.02 -0.517325 4.12872 0
M  V30 12363 H 1200.9 -1.12087 5.37334 0
M  V30 12364 H 1201.16 -2.05974 3.91187 0
M  V30 12365 N 1200.22 -1.56282 0.203376 0
M  V30 12366 C 1201.49 -1.89587 -0.481256 0
M  V30 12367 C 1201.87 -1.11812 -1.79057 0
M  V30 12368 O 1201.22 -0.221759 -2.27421 0
M  V30 12369 C 1201.43 -3.42071 -0.691965 0
M  V30 12370 C 1202.78 -4.12471 -1.00761 0
M  V30 12371 O 1203.8 -3.47568 -0.779396 0
M  V30 12372 O 1202.66 -5.27194 -1.43974 0
M  V30 12373 H 1199.76 -0.787682 -0.251963 0
M  V30 12374 H 1202.3 -1.67934 0.244207 0
M  V30 12375 H 1201.08 -3.9061 0.232322 0
M  V30 12376 H 1200.7 -3.69444 -1.46958 0
M  V30 12377 N 1201.7 0.070167 -1.57444 0
M  V30 12378 C 1202.92 0.781894 -1.91557 0
M  V30 12379 C 1203.34 1.71037 -0.799489 0
M  V30 12380 O 1202.7 1.81082 0.227062 0
M  V30 12381 C 1202.75 1.57415 -3.25427 0
M  V30 12382 O 1202.47 0.682991 -4.32743 0
M  V30 12383 C 1203.97 2.38673 -3.73564 0
M  V30 12384 H 1201.19 0.222211 -0.633138 0
M  V30 12385 H 1203.73 0.0399504 -2.04461 0
M  V30 12386 H 1201.89 2.26835 -3.14045 0
M  V30 12387 H 1202.3 1.2342 -5.09772 0
M  V30 12388 H 1203.78 2.89716 -4.6986 0
M  V30 12389 H 1204.25 3.18269 -3.02657 0
M  V30 12390 H 1204.86 1.74405 -3.87896 0
M  V30 12391 N 1203.17 1.53854 0.341593 0
M  V30 12392 C 1204.42 1.71447 1.08322 0
M  V30 12393 C 1204.75 0.477289 1.88243 0
M  V30 12394 O 1204.03 -0.525695 1.87261 0
M  V30 12395 C 1204.31 2.97917 2.02281 0
M  V30 12396 C 1204.16 4.31847 1.25809 0
M  V30 12397 C 1205.48 3.20065 3.0207 0
M  V30 12398 H 1202.6 0.623847 0.392408 0
M  V30 12399 H 1205.24 1.86527 0.361594 0
M  V30 12400 H 1203.39 2.85191 2.63815 0
M  V30 12401 H 1205.07 4.56427 0.668737 0
M  V30 12402 H 1203.31 4.30169 0.560119 0
M  V30 12403 H 1203.98 5.16522 1.94704 0
M  V30 12404 H 1206.46 3.32135 2.50651 0
M  V30 12405 H 1205.33 4.09947 3.65013 0
M  V30 12406 H 1205.59 2.36452 3.73554 0
M  V30 12407 N 1204.65 -0.602709 1.4562 0
M  V30 12408 C 1206.07 -0.923983 1.30133 0
M  V30 12409 C 1206.27 -1.99842 0.25796 0
M  V30 12410 O 1205.32 -2.50112 -0.346414 0
M  V30 12411 C 1206.64 -1.36029 2.68173 0
M  V30 12412 C 1208.18 -1.47423 2.76108 0
M  V30 12413 C 1208.66 -1.94427 4.14683 0
M  V30 12414 N 1210.15 -2.01653 4.17002 0
M  V30 12415 C 1210.89 -2.39255 5.211 0
M  V30 12416 N 1210.38 -2.75791 6.3554 0
M  V30 12417 N 1212.17 -2.39636 5.08459 0
M  V30 12418 H 1204.33 0.107377 2.12128 0
M  V30 12419 H 1206.59 -0.0146216 0.947887 0
M  V30 12420 H 1206.29 -0.644949 3.45736 0
M  V30 12421 H 1206.17 -2.32584 2.96959 0
M  V30 12422 H 1208.56 -2.18047 1.98845 0
M  V30 12423 H 1208.64 -0.4917 2.5103 0
M  V30 12424 H 1208.28 -1.24389 4.92433 0
M  V30 12425 H 1208.21 -2.93603 4.37156 0
M  V30 12426 H 1210.7 -1.75988 3.3442 0
M  V30 12427 H 1211.01 -3.03378 7.10761 0
M  V30 12428 H 1209.36 -2.73475 6.38934 0
M  V30 12429 H 1212.55 -2.10502 4.18098 0
M  V30 12430 H 1212.72 -2.68614 5.89704 0
M  V30 12431 N 1206.13 -1.32992 -0.845635 0
M  V30 12432 C 1207.41 -1.14671 -1.58461 0
M  V30 12433 C 1207.79 0.289498 -2.09106 0
M  V30 12434 O 1207.13 1.28751 -1.88773 0
M  V30 12435 C 1207.34 -2.18206 -2.72373 0
M  V30 12436 C 1208.69 -2.5201 -3.41726 0
M  V30 12437 O 1209.72 -2.16821 -2.82608 0
M  V30 12438 O 1208.58 -3.12368 -4.48429 0
M  V30 12439 H 1205.67 -0.443088 -0.698285 0
M  V30 12440 H 1208.22 -1.44552 -0.888978 0
M  V30 12441 H 1206.99 -3.14707 -2.32541 0
M  V30 12442 H 1206.61 -1.89372 -3.49605 0
M  V30 12443 N 1207.61 1.06304 -1.1635 0
M  V30 12444 C 1208.84 1.82799 -0.96913 0
M  V30 12445 C 1209.25 1.82526 0.482659 0
M  V30 12446 O 1208.61 1.24437 1.33498 0
M  V30 12447 C 1208.66 3.29417 -1.48884 0
M  V30 12448 O 1208.38 3.29803 -2.88377 0
M  V30 12449 C 1209.88 4.22642 -1.33748 0
M  V30 12450 H 1207.1 0.576388 -0.343537 0
M  V30 12451 H 1209.64 1.34122 -1.54375 0
M  V30 12452 H 1207.8 3.75406 -0.956509 0
M  V30 12453 H 1208.21 4.21486 -3.1217 0
M  V30 12454 H 1209.69 5.23545 -1.74942 0
M  V30 12455 H 1210.16 4.38287 -0.283021 0
M  V30 12456 H 1210.77 3.82499 -1.85942 0
M  V30 12457 N 1209.09 0.96196 1.24836 0
M  V30 12458 C 1210.31 0.63814 1.96813 0
M  V30 12459 C 1210.73 -0.79127 1.71419 0
M  V30 12460 O 1210.09 -1.5302 0.994546 0
M  V30 12461 C 1210.14 0.89626 3.50213 0
M  V30 12462 O 1209.86 2.26947 3.74735 0
M  V30 12463 C 1211.36 0.585836 4.39412 0
M  V30 12464 H 1208.58 0.238598 0.627146 0
M  V30 12465 H 1211.12 1.28833 1.58815 0
M  V30 12466 H 1209.28 0.292368 3.86295 0
M  V30 12467 H 1209.69 2.34514 4.69152 0
M  V30 12468 H 1211.17 0.816935 5.45921 0
M  V30 12469 H 1211.64 -0.479784 4.36572 0
M  V30 12470 H 1212.25 1.16938 4.08908 0
M  V30 12471 N 1210.56 -1.39601 0.731392 0
M  V30 12472 C 1211.53 -2.28992 0.0976037 0
M  V30 12473 C 1212.53 -1.46135 -0.670917 0
M  V30 12474 O 1213.72 -1.66856 -0.50047 0
M  V30 12475 C 1210.85 -3.29582 -0.871124 0
M  V30 12476 H 1212.04 -2.86541 0.885112 0
M  V30 12477 H 1209.59 -1.48188 0.497002 0
M  V30 12478 H 1210.33 -2.77082 -1.68512 0
M  V30 12479 H 1210.11 -3.9077 -0.322735 0
M  V30 12480 H 1211.6 -3.96479 -1.31126 0
M  V30 12481 N 1212.04 -0.478751 -1.50152 0
M  V30 12482 C 1213.01 0.300181 -2.27226 0
M  V30 12483 C 1214.01 0.913705 -1.32318 0
M  V30 12484 O 1215.2 0.781692 -1.55677 0
M  V30 12485 C 1212.33 1.42838 -3.09532 0
M  V30 12486 H 1213.52 -0.375845 -2.97536 0
M  V30 12487 H 1211.07 -0.233037 -1.54553 0
M  V30 12488 H 1211.81 2.13923 -2.43737 0
M  V30 12489 H 1211.59 0.994161 -3.79287 0
M  V30 12490 H 1213.08 1.97765 -3.67802 0
M  V30 12491 N 1213.52 1.56172 -0.211661 0
M  V30 12492 C 1214.47 2.16477 0.715675 0
M  V30 12493 C 1215.45 1.11023 1.16459 0
M  V30 12494 O 1216.65 1.3704 1.12023 0
M  V30 12495 C 1213.78 2.84055 1.92789 0
M  V30 12496 C 1212.86 3.96721 1.49911 0
M  V30 12497 N 1213.25 4.99714 0.782304 0
M  V30 12498 C 1211.55 4.08628 1.78716 0
M  V30 12499 C 1212.25 5.78949 0.565043 0
M  V30 12500 N 1211.23 5.31963 1.11878 0
M  V30 12501 H 1215.03 2.93467 0.15948 0
M  V30 12502 H 1212.54 1.62395 -0.012521 0
M  V30 12503 H 1214.54 3.25662 2.60289 0
M  V30 12504 H 1213.2 2.08558 2.48865 0
M  V30 12505 H 1214.21 5.16061 0.436021 0
M  V30 12506 H 1210.89 3.44273 2.36183 0
M  V30 12507 H 1212.28 6.719 -0.00477074 0
M  V30 12508 N 1215 -0.0618163 1.57479 0
M  V30 12509 C 1215.93 -1.09931 2.01116 0
M  V30 12510 C 1216.94 -1.34405 0.91865 0
M  V30 12511 O 1218.13 -1.32469 1.19642 0
M  V30 12512 C 1215.23 -2.44814 2.34349 0
M  V30 12513 C 1214.41 -2.40157 3.65573 0
M  V30 12514 C 1213.46 -3.57226 3.86363 0
M  V30 12515 O 1212.49 -3.38202 4.5783 0
M  V30 12516 N 1213.69 -4.77937 3.2948 0
M  V30 12517 H 1216.46 -0.727621 2.90733 0
M  V30 12518 H 1214.02 -0.250315 1.59953 0
M  V30 12519 H 1216.01 -3.21792 2.45422 0
M  V30 12520 H 1214.58 -2.73947 1.50571 0
M  V30 12521 H 1213.8 -1.48496 3.65161 0
M  V30 12522 H 1215.09 -2.34156 4.51717 0
M  V30 12523 H 1214.49 -4.96296 2.7149 0
M  V30 12524 H 1213.04 -5.52392 3.45986 0
M  V30 12525 N 1216.48 -1.54033 -0.333429 0
M  V30 12526 C 1217.44 -1.82021 -1.39288 0
M  V30 12527 C 1218.44 -0.691623 -1.45166 0
M  V30 12528 O 1219.63 -0.959925 -1.45365 0
M  V30 12529 C 1216.76 -1.97136 -2.78119 0
M  V30 12530 H 1217.95 -2.76671 -1.1573 0
M  V30 12531 H 1215.51 -1.45599 -0.568376 0
M  V30 12532 H 1216.24 -1.04663 -3.06946 0
M  V30 12533 H 1216.03 -2.79251 -2.75247 0
M  V30 12534 H 1217.52 -2.20271 -3.54782 0
M  V30 12535 N 1217.95 0.594978 -1.45938 0
M  V30 12536 C 1218.88 1.71536 -1.58422 0
M  V30 12537 C 1219.87 1.64441 -0.435116 0
M  V30 12538 O 1221.05 1.82647 -0.659839 0
M  V30 12539 C 1218.18 3.10163 -1.56257 0
M  V30 12540 C 1217.13 3.3208 -2.70013 0
M  V30 12541 C 1216.46 4.71108 -2.52905 0
M  V30 12542 C 1217.76 3.21105 -4.11933 0
M  V30 12543 H 1219.45 1.61344 -2.52207 0
M  V30 12544 H 1217 0.774791 -1.2138 0
M  V30 12545 H 1218.95 3.88352 -1.63587 0
M  V30 12546 H 1217.68 3.21225 -0.590093 0
M  V30 12547 H 1216.34 2.56286 -2.62132 0
M  V30 12548 H 1215.98 4.7892 -1.53768 0
M  V30 12549 H 1215.68 4.86727 -3.29197 0
M  V30 12550 H 1217.21 5.51482 -2.62107 0
M  V30 12551 H 1218.62 3.89153 -4.2099 0
M  V30 12552 H 1217.02 3.4825 -4.88715 0
M  V30 12553 H 1218.09 2.18359 -4.32952 0
M  V30 12554 N 1219.43 1.33438 0.838571 0
M  V30 12555 C 1220.36 1.26344 1.96365 0
M  V30 12556 C 1221.34 0.143956 1.6949 0
M  V30 12557 O 1222.53 0.333779 1.9131 0
M  V30 12558 C 1219.66 1.0022 3.32526 0
M  V30 12559 C 1218.61 2.08466 3.73799 0
M  V30 12560 C 1217.94 1.67555 5.07769 0
M  V30 12561 C 1219.24 3.50144 3.87552 0
M  V30 12562 H 1220.93 2.20478 2.02558 0
M  V30 12563 H 1218.48 1.06139 0.973168 0
M  V30 12564 H 1220.43 0.939068 4.10803 0
M  V30 12565 H 1219.16 0.0252514 3.2659 0
M  V30 12566 H 1217.81 2.13822 2.97785 0
M  V30 12567 H 1217.46 0.685619 4.98305 0
M  V30 12568 H 1217.16 2.39993 5.36356 0
M  V30 12569 H 1218.69 1.62708 5.88522 0
M  V30 12570 H 1220.1 3.47287 4.56141 0
M  V30 12571 H 1218.5 4.21069 4.27575 0
M  V30 12572 H 1219.57 3.88628 2.89994 0
M  V30 12573 N 1220.91 -1.05686 1.16912 0
M  V30 12574 C 1222.16 -1.78862 0.955839 0
M  V30 12575 C 1222.49 -1.87257 -0.514645 0
M  V30 12576 O 1221.76 -1.36869 -1.38193 0
M  V30 12577 C 1222.05 -3.23021 1.59152 0
M  V30 12578 C 1221.9 -3.22669 3.13376 0
M  V30 12579 C 1223.22 -4.2073 1.29128 0
M  V30 12580 H 1220.34 -0.64931 0.348663 0
M  V30 12581 H 1222.98 -1.23561 1.44335 0
M  V30 12582 H 1221.13 -3.70243 1.17697 0
M  V30 12583 H 1222.8 -2.83562 3.63855 0
M  V30 12584 H 1221.05 -2.61149 3.46386 0
M  V30 12585 H 1221.72 -4.24394 3.52979 0
M  V30 12586 H 1224.19 -3.8198 1.65017 0
M  V30 12587 H 1223.07 -5.19851 1.76198 0
M  V30 12588 H 1223.33 -4.41595 0.21119 0
M  V30 12589 N 1222.39 -0.968567 -1.24324 0
M  V30 12590 C 1223.35 -0.504307 -2.23583 0
M  V30 12591 C 1224.35 0.399626 -1.55755 0
M  V30 12592 O 1225.54 0.194966 -1.73106 0
M  V30 12593 C 1222.67 0.26956 -3.39833 0
M  V30 12594 H 1223.87 -1.3818 -2.6617 0
M  V30 12595 H 1221.42 -0.753241 -1.36952 0
M  V30 12596 H 1222.15 1.16411 -3.02686 0
M  V30 12597 H 1221.94 -0.379133 -3.90263 0
M  V30 12598 H 1223.43 0.583376 -4.13505 0
M  V30 12599 N 1223.87 1.39211 -0.738786 0
M  V30 12600 C 1224.81 2.30578 -0.10129 0
M  V30 12601 C 1225.78 1.49412 0.725616 0
M  V30 12602 O 1226.97 1.78087 0.684799 0
M  V30 12603 C 1224.11 3.35767 0.797161 0
M  V30 12604 C 1223.22 4.31979 -0.0427701 0
M  V30 12605 C 1222.36 5.24236 0.857306 0
M  V30 12606 C 1221.4 6.12099 0.0128501 0
M  V30 12607 N 1220.53 6.96701 0.869067 0
M  V30 12608 H 1225.37 2.84522 -0.88606 0
M  V30 12609 H 1222.91 1.40093 -0.448602 0
M  V30 12610 H 1224.87 3.95347 1.33255 0
M  V30 12611 H 1223.5 2.83268 1.54787 0
M  V30 12612 H 1222.55 3.73986 -0.695622 0
M  V30 12613 H 1223.86 4.93927 -0.69555 0
M  V30 12614 H 1223.02 5.88861 1.4604 0
M  V30 12615 H 1221.75 4.62619 1.54386 0
M  V30 12616 H 1220.76 5.46483 -0.603018 0
M  V30 12617 H 1221.98 6.75781 -0.67054 0
M  V30 12618 H 1219.93 6.37647 1.54084 0
M  V30 12619 H 1219.85 7.55507 0.272852 0
M  V30 12620 H 1221.12 7.65751 1.4576 0
M  V30 12621 N 1225.34 0.486708 1.49896 0
M  V30 12622 C 1226.29 -0.313156 2.30482 0
M  V30 12623 C 1227.29 -0.976043 1.38455 0
M  V30 12624 O 1228.49 -0.905364 1.55574 0
M  V30 12625 H 1224.87 -0.119839 0.74239 0
M  V30 12626 H 1226.84 0.386701 2.95884 0
M  V30 12627 C 1225.59 -1.37334 3.19429 0
M  V30 12628 H 1224.91 -0.87265 3.9016 0
M  V30 12629 H 1226.35 -1.90526 3.78782 0
M  V30 12630 C 1224.81 -2.38378 2.38071 0
M  V30 12631 O 1225.34 -3.43972 2.07476 0
M  V30 12632 N 1223.55 -2.10486 2.00359 0
M  V30 12633 H 1223.09 -1.24638 2.2544 0
M  V30 12634 H 1223.05 -2.78324 1.46229 0
M  V30 12635 N 1226.82 -1.56058 0.219941 0
M  V30 12636 C 1228.07 -1.98554 -0.412808 0
M  V30 12637 C 1228.4 -1.10742 -1.5953 0
M  V30 12638 O 1227.68 -0.164757 -1.93801 0
M  V30 12639 C 1227.96 -3.4995 -0.848923 0
M  V30 12640 C 1227.81 -4.48535 0.337094 0
M  V30 12641 C 1229.13 -4.05703 -1.70567 0
M  V30 12642 H 1226.25 -0.721869 -0.148576 0
M  V30 12643 H 1228.89 -1.87356 0.315852 0
M  V30 12644 H 1227.04 -3.59624 -1.46979 0
M  V30 12645 H 1228.72 -4.50874 0.975216 0
M  V30 12646 H 1226.96 -4.22474 0.984798 0
M  V30 12647 H 1227.63 -5.51999 -0.0109665 0
M  V30 12648 H 1230.11 -3.98964 -1.18182 0
M  V30 12649 H 1228.98 -5.11955 -1.97972 0
M  V30 12650 H 1229.24 -3.52487 -2.66844 0
M  V30 12651 N 1228.3 0.053464 -1.57509 0
M  V30 12652 C 1229.58 0.783141 -1.79238 0
M  V30 12653 C 1229.96 1.94855 -0.812069 0
M  V30 12654 O 1229.31 2.28 0.151006 0
M  V30 12655 C 1229.52 1.239 -3.26266 0
M  V30 12656 C 1230.86 1.66492 -3.90596 0
M  V30 12657 O 1231.89 1.33421 -3.30269 0
M  V30 12658 O 1230.75 2.27785 -4.96766 0
M  V30 12659 H 1227.84 0.376696 -0.736226 0
M  V30 12660 H 1230.39 0.0321229 -1.6967 0
M  V30 12661 H 1229.16 0.405948 -3.89189 0
M  V30 12662 H 1228.78 2.05078 -3.4063 0
M  V30 12663 N 1229.78 1.54207 0.325255 0
M  V30 12664 C 1231 1.7661 1.08736 0
M  V30 12665 C 1231.43 0.512449 1.80985 0
M  V30 12666 O 1230.79 -0.535913 1.73198 0
M  V30 12667 C 1230.84 2.95797 2.06243 0
M  V30 12668 O 1229.94 2.67225 3.14109 0
M  V30 12669 H 1229.28 0.585282 0.313593 0
M  V30 12670 H 1231.81 2.01225 0.370066 0
M  V30 12671 H 1231.82 3.23097 2.49143 0
M  V30 12672 H 1230.5 3.86712 1.53058 0
M  V30 12673 H 1229.07 2.50869 2.75897 0
M  V30 12674 N 1231.26 -0.58723 1.46251 0
M  V30 12675 C 1232.5 -1.3456 1.51327 0
M  V30 12676 C 1232.83 -1.93815 0.163146 0
M  V30 12677 O 1232.09 -1.76723 -0.840677 0
M  V30 12678 C 1232.39 -2.49776 2.5563 0
M  V30 12679 C 1232.05 -2.08543 3.99776 0
M  V30 12680 C 1230.71 -1.97013 4.39021 0
M  V30 12681 C 1233.07 -1.76669 4.90344 0
M  V30 12682 C 1230.39 -1.5186 5.66706 0
M  V30 12683 C 1232.75 -1.32996 6.18462 0
M  V30 12684 C 1231.41 -1.20039 6.56618 0
M  V30 12685 H 1230.68 -0.492391 0.553744 0
M  V30 12686 H 1233.33 -0.661715 1.79704 0
M  V30 12687 H 1231.63 -3.23592 2.20897 0
M  V30 12688 H 1233.33 -3.07995 2.56788 0
M  V30 12689 H 1229.92 -2.18451 3.68751 0
M  V30 12690 H 1234.1 -1.84465 4.60746 0
M  V30 12691 H 1229.36 -1.40467 5.95045 0
M  V30 12692 H 1233.53 -1.07385 6.88071 0
M  V30 12693 H 1231.16 -0.848268 7.55452 0
M  V30 12694 N 1232.74 -1.33881 -0.831482 0
M  V30 12695 C 1234.15 -1.23112 -1.40358 0
M  V30 12696 C 1234.5 0.146944 -1.95649 0
M  V30 12697 O 1233.62 1.04689 -1.89391 0
M  V30 12698 C 1234.22 -2.22899 -2.5515 0
M  V30 12699 C 1232.78 -2.15946 -3.08292 0
M  V30 12700 C 1231.92 -2.09975 -1.81124 0
M  V30 12701 H 1234.87 -1.45372 -0.63661 0
M  V30 12702 H 1234.9 -1.841 -3.32997 0
M  V30 12703 H 1234.41 -3.23186 -2.14878 0
M  V30 12704 H 1232.51 -1.18987 -3.53091 0
M  V30 12705 H 1232.62 -3.06822 -3.67964 0
M  V30 12706 H 1230.99 -1.55564 -2.01673 0
M  V30 12707 H 1231.77 -3.12082 -1.43037 0
M  V30 12708 N 1234.21 1.05064 -1.1747 0
M  V30 12709 C 1235.15 2.12842 -0.850344 0
M  V30 12710 C 1236.16 1.62128 0.147796 0
M  V30 12711 O 1237.35 1.78327 -0.0786774 0
M  V30 12712 C 1234.45 3.37995 -0.247486 0
M  V30 12713 C 1233.62 4.17981 -1.28881 0
M  V30 12714 C 1232.68 5.21476 -0.703476 0
M  V30 12715 O 1231.71 5.52327 -1.37561 0
M  V30 12716 N 1232.91 5.78309 0.50387 0
M  V30 12717 H 1235.67 2.41264 -1.77797 0
M  V30 12718 H 1233.23 1.21172 -1.07373 0
M  V30 12719 H 1235.23 4.04394 0.157424 0
M  V30 12720 H 1233.8 3.07097 0.583952 0
M  V30 12721 H 1233.02 3.47054 -1.86942 0
M  V30 12722 H 1234.3 4.6822 -1.99116 0
M  V30 12723 H 1233.7 5.5553 1.06787 0
M  V30 12724 H 1232.26 6.46223 0.850828 0
M  V30 12725 N 1235.69 0.975146 1.23809 0
M  V30 12726 C 1236.64 0.503396 2.27087 0
M  V30 12727 C 1237.63 -0.43689 1.63669 0
M  V30 12728 O 1238.84 -0.31136 1.77287 0
M  V30 12729 H 1235.21 0.144346 0.738017 0
M  V30 12730 H 1237.19 1.38627 2.64244 0
M  V30 12731 C 1235.93 -0.183682 3.47214 0
M  V30 12732 H 1235.26 0.530753 3.96261 0
M  V30 12733 H 1236.7 -0.477479 4.21303 0
M  V30 12734 C 1235.16 -1.41317 3.05829 0
M  V30 12735 O 1235.69 -2.50975 3.13647 0
M  V30 12736 N 1233.89 -1.28191 2.60798 0
M  V30 12737 H 1233.44 -0.38967 2.54636 0
M  V30 12738 H 1233.4 -2.10565 2.33473 0
M  V30 12739 N 1237.17 -1.38817 0.746158 0
M  V30 12740 C 1238.1 -2.29081 0.0737986 0
M  V30 12741 C 1239.11 -1.47377 -0.691656 0
M  V30 12742 O 1240.3 -1.70326 -0.533973 0
M  V30 12743 C 1237.4 -3.26185 -0.919607 0
M  V30 12744 C 1236.58 -4.36879 -0.213349 0
M  V30 12745 C 1235.64 -5.1422 -1.11644 0
M  V30 12746 O 1234.66 -5.66137 -0.589747 0
M  V30 12747 N 1235.86 -5.26488 -2.44521 0
M  V30 12748 H 1238.63 -2.87424 0.848966 0
M  V30 12749 H 1236.19 -1.50518 0.596314 0
M  V30 12750 H 1238.18 -3.74802 -1.52662 0
M  V30 12751 H 1236.75 -2.68793 -1.5959 0
M  V30 12752 H 1235.97 -3.89994 0.574285 0
M  V30 12753 H 1237.26 -5.08053 0.275655 0
M  V30 12754 H 1236.66 -4.85846 -2.89777 0
M  V30 12755 H 1235.21 -5.78505 -3.00291 0
M  V30 12756 N 1238.65 -0.49465 -1.49636 0
M  V30 12757 C 1239.56 0.291881 -2.32777 0
M  V30 12758 C 1240.57 0.973468 -1.44221 0
M  V30 12759 O 1241.75 0.956252 -1.77251 0
M  V30 12760 C 1238.81 1.34609 -3.19502 0
M  V30 12761 C 1237.88 0.678611 -4.23903 0
M  V30 12762 C 1237.11 1.68259 -5.06483 0
M  V30 12763 O 1237.33 2.91176 -4.90482 0
M  V30 12764 O 1236.27 1.24141 -5.88959 0
M  V30 12765 H 1240.09 -0.388459 -3.01205 0
M  V30 12766 H 1237.68 -0.256086 -1.47189 0
M  V30 12767 H 1239.56 1.95617 -3.73245 0
M  V30 12768 H 1238.23 2.00947 -2.53775 0
M  V30 12769 H 1237.14 0.0289541 -3.74089 0
M  V30 12770 H 1238.47 0.0577817 -4.92166 0
M  V30 12771 N 1240.13 1.55939 -0.228214 0
M  V30 12772 C 1241.54 1.59094 0.12704 0
M  V30 12773 C 1241.74 1.24514 1.58425 0
M  V30 12774 O 1240.8 0.983544 2.32557 0
M  V30 12775 C 1242.11 2.99999 -0.205268 0
M  V30 12776 C 1243.66 3.1265 -0.148046 0
M  V30 12777 C 1244.13 4.55743 -0.454122 0
M  V30 12778 N 1245.62 4.61435 -0.403937 0
M  V30 12779 C 1246.36 5.70101 -0.614173 0
M  V30 12780 N 1245.86 6.87104 -0.88654 0
M  V30 12781 N 1247.65 5.5944 -0.546153 0
M  V30 12782 H 1239.8 1.7669 -1.17874 0
M  V30 12783 H 1242.06 0.821599 -0.472947 0
M  V30 12784 H 1241.77 3.29976 -1.21692 0
M  V30 12785 H 1241.64 3.74177 0.476573 0
M  V30 12786 H 1244.03 2.82465 0.854255 0
M  V30 12787 H 1244.11 2.40786 -0.863462 0
M  V30 12788 H 1243.75 4.86646 -1.45389 0
M  V30 12789 H 1243.68 5.25841 0.282561 0
M  V30 12790 H 1246.18 3.77363 -0.201388 0
M  V30 12791 H 1246.49 7.65839 -1.03488 0
M  V30 12792 H 1244.83 6.88833 -0.923808 0
M  V30 12793 H 1248.02 4.6691 -0.33355 0
M  V30 12794 H 1248.2 6.44061 -0.713402 0
M  V30 12795 N 1241.6 -0.0451101 1.57535 0
M  V30 12796 C 1242.85 -0.739114 1.88529 0
M  V30 12797 C 1243.18 -1.76208 0.823468 0
M  V30 12798 O 1242.43 -1.94893 -0.177512 0
M  V30 12799 C 1242.73 -1.45938 3.26247 0
M  V30 12800 C 1242.4 -0.57391 4.47233 0
M  V30 12801 C 1241.06 -0.329974 4.80067 0
M  V30 12802 C 1243.41 0.0384272 5.21186 0
M  V30 12803 C 1240.74 0.535339 5.84253 0
M  V30 12804 C 1243.09 0.891349 6.26289 0
M  V30 12805 C 1241.76 1.1449 6.57608 0
M  V30 12806 H 1241.03 -0.270461 0.689878 0
M  V30 12807 H 1243.67 0.000714103 1.915 0
M  V30 12808 H 1241.98 -2.27212 3.1919 0
M  V30 12809 H 1243.68 -2.00162 3.47471 0
M  V30 12810 H 1240.27 -0.774181 4.2155 0
M  V30 12811 H 1244.45 -0.137096 4.96111 0
M  V30 12812 H 1239.71 0.740253 6.06902 0
M  V30 12813 H 1243.88 1.37243 6.82743 0
M  V30 12814 H 1241.51 1.81715 7.38162 0
M  V30 12815 N 1243.08 -1.54377 -0.317073 0
M  V30 12816 C 1244.33 -1.72551 -1.05216 0
M  V30 12817 C 1244.65 -0.5055 -1.88334 0
M  V30 12818 O 1243.92 0.480439 -1.89917 0
M  V30 12819 H 1242.5 -0.636222 -0.391447 0
M  V30 12820 H 1245.16 -1.91696 -0.35194 0
M  V30 12821 H 1244.26 -2.60791 -1.71448 0
M  V30 12822 N 1244.56 0.579466 -1.4656 0
M  V30 12823 C 1245.81 1.33492 -1.51738 0
M  V30 12824 C 1246.13 1.94241 -0.171926 0
M  V30 12825 O 1245.4 1.78737 0.801875 0
M  V30 12826 H 1243.98 0.49565 -0.558874 0
M  V30 12827 H 1246.64 0.678394 -1.82712 0
M  V30 12828 H 1245.74 2.13995 -2.27183 0
M  V30 12829 N 1246.04 1.3432 0.824371 0
M  V30 12830 C 1247.29 1.26345 1.57738 0
M  V30 12831 C 1247.61 -0.166836 1.94285 0
M  V30 12832 O 1246.88 -1.09911 1.62162 0
M  V30 12833 H 1245.46 0.46466 0.584893 0
M  V30 12834 H 1248.12 1.68214 0.984373 0
M  V30 12835 H 1247.22 1.8672 2.50084 0
M  V30 12836 N 1247.52 -1.0444 1.18026 0
M  V30 12837 C 1248.47 -2.10671 0.871877 0
M  V30 12838 C 1249.45 -1.60134 -0.156798 0
M  V30 12839 O 1250.64 -1.76938 0.0467129 0
M  V30 12840 C 1247.77 -3.41017 0.395271 0
M  V30 12841 C 1246.86 -3.98331 1.4558 0
M  V30 12842 N 1247.25 -4.29508 2.67127 0
M  V30 12843 C 1245.55 -4.2616 1.31544 0
M  V30 12844 C 1246.25 -4.7532 3.35329 0
M  V30 12845 N 1245.22 -4.75904 2.6271 0
M  V30 12846 H 1249.03 -2.32647 1.79589 0
M  V30 12847 H 1246.54 -1.22158 1.0701 0
M  V30 12848 H 1248.54 -4.16609 0.155861 0
M  V30 12849 H 1247.2 -3.20469 -0.522452 0
M  V30 12850 H 1248.21 -4.19271 3.04027 0
M  V30 12851 H 1244.88 -4.14959 0.459962 0
M  V30 12852 H 1246.27 -5.08493 4.39186 0
M  V30 12853 N 1248.99 -0.981699 -1.2329 0
M  V30 12854 C 1250.24 -0.646818 -1.91048 0
M  V30 12855 C 1250.56 0.823479 -1.77421 0
M  V30 12856 O 1251.76 1.26948 -2.39993 0
M  V30 12857 C 1250.22 -1.1063 -3.42475 0
M  V30 12858 C 1249.83 -2.60103 -3.6476 0
M  V30 12859 C 1251.57 -0.845227 -4.16 0
M  V30 12860 C 1249.48 -2.99712 -5.0983 0
M  V30 12861 H 1248.41 -0.238221 -0.715379 0
M  V30 12862 H 1251.06 -1.18977 -1.39702 0
M  V30 12863 H 1249.44 -0.491554 -3.92937 0
M  V30 12864 H 1250.61 -3.26828 -3.24839 0
M  V30 12865 H 1248.93 -2.83972 -3.04547 0
M  V30 12866 H 1251.53 -1.11699 -5.22903 0
M  V30 12867 H 1251.87 0.218661 -4.15725 0
M  V30 12868 H 1252.4 -1.42162 -3.7153 0
M  V30 12869 H 1249.14 -4.0523 -5.15237 0
M  V30 12870 H 1248.66 -2.37683 -5.50697 0
M  V30 12871 H 1250.34 -2.9039 -5.78172 0
M  V30 12872 N 1250.47 1.3842 -0.753509 0
M  V30 12873 C 1251.75 1.94181 -0.235142 0
M  V30 12874 C 1252.13 1.68881 1.26659 0
M  V30 12875 O 1251.48 1.02731 2.04104 0
M  V30 12876 C 1251.69 3.43998 -0.588751 0
M  V30 12877 C 1253.04 4.21044 -0.548352 0
M  V30 12878 O 1254.06 3.52279 -0.52704 0
M  V30 12879 O 1252.92 5.43631 -0.559221 0
M  V30 12880 H 1250.01 0.825536 -0.0491834 0
M  V30 12881 H 1252.56 1.47813 -0.833626 0
M  V30 12882 H 1251.33 3.55921 -1.6259 0
M  V30 12883 H 1250.95 3.97582 0.0377429 0
M  V30 12884 N 1251.95 0.502579 1.49372 0
M  V30 12885 C 1253.2 -0.0414423 2.02758 0
M  V30 12886 C 1253.53 -1.36499 1.38136 0
M  V30 12887 O 1252.8 -1.87487 0.517593 0
M  V30 12888 C 1253.09 -0.192333 3.59586 0
M  V30 12889 C 1252.94 1.15445 4.34733 0
M  V30 12890 C 1254.26 -0.932218 4.30114 0
M  V30 12891 H 1251.38 -0.0135869 0.736875 0
M  V30 12892 H 1254.02 0.654296 1.78379 0
M  V30 12893 H 1252.17 -0.78491 3.80488 0
M  V30 12894 H 1253.84 1.78603 4.25322 0
M  V30 12895 H 1252.09 1.74333 3.97228 0
M  V30 12896 H 1252.76 1.00216 5.42827 0
M  V30 12897 H 1255.23 -0.429632 4.13876 0
M  V30 12898 H 1254.11 -1.00664 5.39591 0
M  V30 12899 H 1254.37 -1.9763 3.95468 0
M  V30 12900 N 1253.43 -1.55816 0.23648 0
M  V30 12901 C 1254.67 -1.99725 -0.384898 0
M  V30 12902 C 1255.03 -1.12169 -1.5632 0
M  V30 12903 O 1254.32 -0.17491 -1.908 0
M  V30 12904 C 1254.52 -3.47039 -0.85434 0
M  V30 12905 C 1254.35 -4.48847 0.276929 0
M  V30 12906 C 1253.12 -4.9973 0.748215 0
M  V30 12907 C 1255.31 -5.02391 1.10036 0
M  V30 12908 N 1253.3 -5.85267 1.85298 0
M  V30 12909 C 1254.67 -5.84998 2.0537 0
M  V30 12910 C 1256.72 -4.84718 1.1381 0
M  V30 12911 C 1255.42 -6.5182 3.04177 0
M  V30 12912 C 1257.45 -5.5231 2.11442 0
M  V30 12913 C 1256.81 -6.34697 3.05514 0
M  V30 12914 H 1252.91 -0.774632 -0.107094 0
M  V30 12915 H 1255.5 -1.91498 0.351673 0
M  V30 12916 H 1253.67 -3.55684 -1.56023 0
M  V30 12917 H 1255.4 -3.7784 -1.44979 0
M  V30 12918 H 1252.15 -4.7242 0.334178 0
M  V30 12919 H 1252.58 -6.32735 2.40782 0
M  V30 12920 H 1257.22 -4.20662 0.424703 0
M  V30 12921 H 1254.94 -7.15049 3.76471 0
M  V30 12922 H 1258.52 -5.40594 2.15056 0
M  V30 12923 H 1257.4 -6.86077 3.79827 0
M  V30 12924 N 1254.91 0.036755 -1.57557 0
M  V30 12925 C 1256.15 0.72475 -1.9005 0
M  V30 12926 C 1256.51 1.73374 -0.834226 0
M  V30 12927 O 1255.8 1.90948 0.157943 0
M  V30 12928 C 1255.99 1.44206 -3.27016 0
M  V30 12929 C 1255.82 0.504059 -4.46866 0
M  V30 12930 C 1254.59 0.127948 -5.05138 0
M  V30 12931 C 1256.79 -0.214278 -5.13853 0
M  V30 12932 N 1254.77 -0.812111 -6.08505 0
M  V30 12933 C 1256.14 -1.01027 -6.11714 0
M  V30 12934 C 1258.2 -0.28204 -4.97101 0
M  V30 12935 C 1256.9 -1.86778 -6.94627 0
M  V30 12936 C 1258.93 -1.12664 -5.80569 0
M  V30 12937 C 1258.29 -1.91058 -6.77994 0
M  V30 12938 H 1254.39 0.239542 -0.744408 0
M  V30 12939 H 1256.97 -0.0149454 -1.94694 0
M  V30 12940 H 1255.14 2.15226 -3.23314 0
M  V30 12941 H 1256.88 2.08183 -3.47047 0
M  V30 12942 H 1253.63 0.488471 -4.71074 0
M  V30 12943 H 1254.06 -1.27642 -6.64858 0
M  V30 12944 H 1258.7 0.309735 -4.21664 0
M  V30 12945 H 1256.42 -2.47038 -7.69414 0
M  V30 12946 H 1260 -1.18251 -5.69656 0
M  V30 12947 H 1258.88 -2.55358 -7.41459 0
M  V30 12948 N 1256.39 1.54543 0.308881 0
M  V30 12949 C 1257.63 1.7266 1.04266 0
M  V30 12950 C 1257.95 0.51518 1.88694 0
M  V30 12951 O 1259.15 0.577988 2.65276 0
M  V30 12952 C 1257.61 3.05448 1.9034 0
M  V30 12953 C 1257.22 4.34043 1.10953 0
M  V30 12954 C 1258.96 3.32925 2.63365 0
M  V30 12955 C 1256.87 5.57886 1.96258 0
M  V30 12956 H 1255.8 0.643485 0.392992 0
M  V30 12957 H 1258.45 1.8103 0.300077 0
M  V30 12958 H 1256.83 2.91023 2.68555 0
M  V30 12959 H 1258.01 4.59279 0.374069 0
M  V30 12960 H 1256.32 4.13442 0.495453 0
M  V30 12961 H 1258.92 4.22649 3.27524 0
M  V30 12962 H 1259.26 2.51451 3.3178 0
M  V30 12963 H 1259.79 3.48285 1.92204 0
M  V30 12964 H 1256.53 6.42005 1.32326 0
M  V30 12965 H 1256.05 5.36847 2.67498 0
M  V30 12966 H 1257.73 5.94846 2.54494 0
M  V30 12967 N 1257.86 -0.571685 1.46866 0
M  V30 12968 C 1259.11 -1.33145 1.52972 0
M  V30 12969 C 1259.44 -1.93314 0.185344 0
M  V30 12970 O 1258.72 -1.77083 -0.80447 0
M  V30 12971 C 1259 -2.4525 2.63675 0
M  V30 12972 C 1258.85 -1.90044 4.0768 0
M  V30 12973 C 1260.17 -3.47247 2.70384 0
M  V30 12974 H 1257.29 -0.482751 0.556885 0
M  V30 12975 H 1259.93 -0.641163 1.78855 0
M  V30 12976 H 1258.08 -3.04132 2.41735 0
M  V30 12977 H 1259.76 -1.35535 4.4094 0
M  V30 12978 H 1258 -1.20805 4.1664 0
M  V30 12979 H 1258.67 -2.71019 4.80887 0
M  V30 12980 H 1261.15 -2.98263 2.90135 0
M  V30 12981 H 1260.02 -4.23132 3.49643 0
M  V30 12982 H 1260.28 -4.05179 1.76868 0
M  V30 12983 N 1259.34 -1.34755 -0.817236 0
M  V30 12984 C 1260.29 -1.23351 -1.91751 0
M  V30 12985 C 1261.28 -0.131215 -1.60364 0
M  V30 12986 O 1262.47 -0.361425 -1.73271 0
M  V30 12987 C 1259.6 -0.996932 -3.28506 0
M  V30 12988 C 1258.68 -2.14265 -3.65993 0
M  V30 12989 N 1259.07 -3.39424 -3.75 0
M  V30 12990 C 1257.37 -2.05416 -3.95879 0
M  V30 12991 C 1258.07 -4.14701 -4.07919 0
M  V30 12992 N 1257.05 -3.43349 -4.21441 0
M  V30 12993 H 1260.85 -2.18191 -1.96901 0
M  V30 12994 H 1258.36 -1.27075 -1.01122 0
M  V30 12995 H 1260.36 -0.89613 -4.07155 0
M  V30 12996 H 1259.02 -0.0572789 -3.24649 0
M  V30 12997 H 1260.03 -3.73907 -3.58349 0
M  V30 12998 H 1256.71 -1.19242 -4.0011 0
M  V30 12999 H 1258.1 -5.22808 -4.22044 0
M  V30 13000 N 1260.82 1.03812 -1.18578 0
M  V30 13001 C 1262.1 1.74062 -0.892288 0
M  V30 13002 C 1262.48 2.02267 0.604256 0
M  V30 13003 O 1261.82 1.66988 1.55972 0
M  V30 13004 C 1262.03 3.024 -1.74228 0
M  V30 13005 C 1263.38 3.76088 -1.97087 0
M  V30 13006 O 1264.41 3.12305 -1.71302 0
M  V30 13007 O 1263.27 4.90732 -2.40509 0
M  V30 13008 H 1260.36 0.757567 -0.331695 0
M  V30 13009 H 1262.91 1.09855 -1.29345 0
M  V30 13010 H 1261.68 2.77713 -2.75665 0
M  V30 13011 H 1261.3 3.74346 -1.3398 0
M  V30 13012 N 1262.3 0.988223 1.22768 0
M  V30 13013 C 1263.55 0.660154 1.91014 0
M  V30 13014 C 1263.87 -0.809788 1.77391 0
M  V30 13015 O 1263.14 -1.57998 1.15817 0
M  V30 13016 H 1261.72 0.24118 0.706995 0
M  V30 13017 H 1264.38 1.25372 1.49224 0
M  V30 13018 H 1263.47 0.918603 2.98275 0
M  V30 13019 N 1263.78 -1.38018 0.760839 0
M  V30 13020 C 1265.02 -1.99557 0.319609 0
M  V30 13021 C 1265.34 -1.60699 -1.10457 0
M  V30 13022 O 1264.61 -0.867248 -1.75658 0
M  V30 13023 H 1263.19 -0.738066 0.115182 0
M  V30 13024 H 1265.86 -1.6867 0.976544 0
M  V30 13025 H 1264.95 -3.09672 0.388523 0
M  V30 13026 N 1265.25 -0.510493 -1.49103 0
M  V30 13027 C 1266.19 0.309697 -2.26089 0
M  V30 13028 C 1267.16 0.962061 -1.31084 0
M  V30 13029 O 1268.35 0.990296 -1.60391 0
M  V30 13030 C 1265.48 1.43693 -3.06708 0
M  V30 13031 C 1264.52 0.897978 -4.1694 0
M  V30 13032 S 1265.35 -0.218781 -5.35053 0
M  V30 13033 C 1266.51 0.911396 -6.19229 0
M  V30 13034 H 1266.74 -0.343702 -2.95307 0
M  V30 13035 H 1264.28 -0.295944 -1.51537 0
M  V30 13036 H 1266.23 2.08277 -3.53739 0
M  V30 13037 H 1264.9 2.06198 -2.36941 0
M  V30 13038 H 1264.09 1.74303 -4.729 0
M  V30 13039 H 1263.69 0.329192 -3.72548 0
M  V30 13040 H 1265.98 1.8145 -6.5275 0
M  V30 13041 H 1266.93 0.390201 -7.07024 0
M  V30 13042 H 1267.33 1.18301 -5.51965 0
M  V30 13043 N 1266.73 1.55688 -0.24474 0
M  V30 13044 C 1267.66 2.24272 0.64995 0
M  V30 13045 C 1268.64 1.22226 1.183 0
M  V30 13046 O 1269.83 1.50873 1.22274 0
M  V30 13047 C 1266.96 2.94053 1.84798 0
M  V30 13048 C 1265.91 4.02769 1.44779 0
M  V30 13049 C 1265.24 4.59965 2.72647 0
M  V30 13050 C 1266.54 5.18601 0.62047 0
M  V30 13051 H 1268.23 2.99298 0.0780654 0
M  V30 13052 H 1265.78 1.43955 0.0361069 0
M  V30 13053 H 1267.73 3.40732 2.47951 0
M  V30 13054 H 1266.45 2.16511 2.44521 0
M  V30 13055 H 1265.11 3.56856 0.839609 0
M  V30 13056 H 1264.76 3.79126 3.30564 0
M  V30 13057 H 1264.46 5.33352 2.46596 0
M  V30 13058 H 1265.99 5.09376 3.36703 0
M  V30 13059 H 1267.4 5.61519 1.15625 0
M  V30 13060 H 1265.8 5.98364 0.456097 0
M  V30 13061 H 1266.87 4.83503 -0.367798 0
M  V30 13062 N 1268.21 -0.0283989 1.57574 0
M  V30 13063 C 1269.14 -1.06191 2.01987 0
M  V30 13064 C 1270.12 -1.35131 0.90434 0
M  V30 13065 O 1271.3 -1.47777 1.17023 0
M  V30 13066 C 1268.43 -2.39646 2.39348 0
M  V30 13067 C 1267.48 -2.26558 3.6135 0
M  V30 13068 S 1268.31 -1.61839 5.10459 0
M  V30 13069 C 1269.47 -2.96783 5.51063 0
M  V30 13070 H 1269.7 -0.683625 2.89333 0
M  V30 13071 H 1267.23 -0.238394 1.52548 0
M  V30 13072 H 1269.19 -3.16394 2.61544 0
M  V30 13073 H 1267.85 -2.74622 1.52452 0
M  V30 13074 H 1267.04 -3.25079 3.85149 0
M  V30 13075 H 1266.65 -1.57954 3.39008 0
M  V30 13076 H 1268.94 -3.93111 5.51788 0
M  V30 13077 H 1269.88 -2.77716 6.51367 0
M  V30 13078 H 1270.29 -2.99386 4.78569 0
M  V30 13079 N 1269.69 -1.54705 -0.300681 0
M  V30 13080 C 1270.62 -1.88679 -1.37559 0
M  V30 13081 C 1271.6 -0.74574 -1.52881 0
M  V30 13082 O 1272.78 -1.0015 -1.66384 0
M  V30 13083 C 1269.91 -2.13438 -2.73974 0
M  V30 13084 C 1268.87 -3.29284 -2.73415 0
M  V30 13085 C 1268.19 -3.39462 -4.13122 0
M  V30 13086 C 1269.49 -4.66382 -2.35128 0
M  V30 13087 H 1271.19 -2.78707 -1.09373 0
M  V30 13088 H 1268.73 -1.341 -0.524704 0
M  V30 13089 H 1270.69 -2.35791 -3.49257 0
M  V30 13090 H 1269.41 -1.20181 -3.03684 0
M  V30 13091 H 1268.07 -3.06855 -2.00588 0
M  V30 13092 H 1267.72 -2.43721 -4.4001 0
M  V30 13093 H 1267.42 -4.17334 -4.1365 0
M  V30 13094 H 1268.94 -3.64075 -4.90185 0
M  V30 13095 H 1270.36 -4.88463 -3.00128 0
M  V30 13096 H 1268.75 -5.4697 -2.46867 0
M  V30 13097 H 1269.82 -4.67078 -1.30256 0
M  V30 13098 N 1271.17 0.563888 -1.47167 0
M  V30 13099 C 1272.1 1.68137 -1.62025 0
M  V30 13100 C 1273.08 1.63481 -0.469899 0
M  V30 13101 O 1274.26 1.81206 -0.698432 0
M  V30 13102 C 1271.39 3.06779 -1.62801 0
M  V30 13103 C 1270.35 3.26278 -2.76996 0
M  V30 13104 C 1269.67 4.65638 -2.62841 0
M  V30 13105 C 1270.97 3.12295 -4.18651 0
M  V30 13106 H 1272.67 1.55958 -2.55573 0
M  V30 13107 H 1270.21 0.74887 -1.22996 0
M  V30 13108 H 1272.17 3.84795 -1.71787 0
M  V30 13109 H 1270.89 3.19901 -0.658097 0
M  V30 13110 H 1269.55 2.50668 -2.67509 0
M  V30 13111 H 1269.2 4.75551 -1.63892 0
M  V30 13112 H 1268.9 4.79635 -3.39447 0
M  V30 13113 H 1270.42 5.45798 -2.73746 0
M  V30 13114 H 1271.83 3.80136 -4.2915 0
M  V30 13115 H 1270.23 3.37805 -4.95992 0
M  V30 13116 H 1271.3 2.09126 -4.37486 0
M  V30 13117 N 1272.64 1.35187 0.810078 0
M  V30 13118 C 1274.06 1.25329 1.38381 0
M  V30 13119 C 1274.41 -0.115799 1.95858 0
M  V30 13120 O 1273.53 -1.01663 1.91033 0
M  V30 13121 C 1274.13 2.2693 2.51572 0
M  V30 13122 C 1272.69 2.20824 3.04818 0
M  V30 13123 C 1271.83 2.1283 1.7776 0
M  V30 13124 H 1274.78 1.46366 0.613402 0
M  V30 13125 H 1274.8 1.89375 3.30026 0
M  V30 13126 H 1274.32 3.26563 2.09709 0
M  V30 13127 H 1272.42 1.24589 3.51153 0
M  V30 13128 H 1272.53 3.12637 3.63036 0
M  V30 13129 H 1270.89 1.58752 1.99173 0
M  V30 13130 H 1271.68 3.14318 1.38054 0
M  V30 13131 N 1274.12 -1.03182 1.19127 0
M  V30 13132 C 1275.37 -1.76533 0.992093 0
M  V30 13133 C 1275.7 -1.88549 -0.477429 0
M  V30 13134 O 1274.95 -1.39675 -1.37074 0
M  V30 13135 C 1275.25 -3.19452 1.60267 0
M  V30 13136 C 1274.92 -3.27449 3.09981 0
M  V30 13137 C 1273.58 -3.29338 3.50841 0
M  V30 13138 C 1275.93 -3.26833 4.05992 0
M  V30 13139 C 1273.26 -3.28265 4.86271 0
M  V30 13140 C 1275.61 -3.27299 5.41348 0
M  V30 13141 C 1274.28 -3.27485 5.81644 0
M  V30 13142 H 1273.55 -0.645979 0.363033 0
M  V30 13143 H 1276.19 -1.21127 1.48326 0
M  V30 13144 H 1274.5 -3.77917 1.03372 0
M  V30 13145 H 1276.19 -3.74869 1.42388 0
M  V30 13146 H 1272.78 -3.26704 2.77421 0
M  V30 13147 H 1276.97 -3.24556 3.75469 0
M  V30 13148 H 1272.22 -3.26731 5.16775 0
M  V30 13149 H 1276.4 -3.25773 6.15504 0
M  V30 13150 H 1274.03 -3.26407 6.86558 0
M  V30 13151 N 1275.6 -0.99472 -1.22242 0
M  V30 13152 C 1276.53 -0.566499 -2.26524 0
M  V30 13153 C 1277.51 0.407541 -1.65146 0
M  V30 13154 O 1278.7 0.297777 -1.91903 0
M  V30 13155 C 1275.83 0.11786 -3.471 0
M  V30 13156 C 1274.78 -0.774908 -4.20927 0
M  V30 13157 C 1274.11 0.0424687 -5.34683 0
M  V30 13158 C 1275.41 -2.07263 -4.79416 0
M  V30 13159 H 1277.1 -1.43818 -2.62596 0
M  V30 13160 H 1274.65 -0.692971 -1.2623 0
M  V30 13161 H 1276.6 0.428842 -4.19212 0
M  V30 13162 H 1275.32 1.0241 -3.10129 0
M  V30 13163 H 1273.98 -1.06956 -3.50651 0
M  V30 13164 H 1273.63 0.949677 -4.93954 0
M  V30 13165 H 1273.33 -0.551867 -5.85003 0
M  V30 13166 H 1274.85 0.347504 -6.0961 0
M  V30 13167 H 1276.27 -1.82548 -5.4346 0
M  V30 13168 H 1274.67 -2.61594 -5.40082 0
M  V30 13169 H 1275.74 -2.75017 -3.99366 0
M  V30 13170 N 1277.08 1.37613 -0.768148 0
M  V30 13171 C 1278.01 2.3291 -0.165911 0
M  V30 13172 C 1278.99 1.556 0.687205 0
M  V30 13173 O 1280.17 1.83854 0.625407 0
M  V30 13174 C 1277.3 3.39822 0.7168 0
M  V30 13175 C 1276.26 4.27986 -0.0347264 0
M  V30 13176 C 1275.58 5.2588 0.967192 0
M  V30 13177 C 1276.88 5.08052 -1.21164 0
M  V30 13178 H 1278.58 2.83524 -0.962006 0
M  V30 13179 H 1276.12 1.36318 -0.464051 0
M  V30 13180 H 1278.08 4.05464 1.14789 0
M  V30 13181 H 1276.8 2.87725 1.54538 0
M  V30 13182 H 1275.46 3.6387 -0.446557 0
M  V30 13183 H 1275.11 4.70064 1.79022 0
M  V30 13184 H 1274.81 5.85726 0.468913 0
M  V30 13185 H 1276.33 5.94397 1.3973 0
M  V30 13186 H 1277.75 5.66853 -0.857373 0
M  V30 13187 H 1276.14 5.77206 -1.64176 0
M  V30 13188 H 1277.21 4.40936 -2.0175 0
M  V30 13189 N 1278.56 0.518393 1.4883 0
M  V30 13190 C 1279.97 0.175476 1.58632 0
M  V30 13191 C 1280.17 -1.32081 1.52174 0
M  V30 13192 O 1279.23 -2.09817 1.40474 0
M  V30 13193 C 1280.54 0.767722 2.90734 0
M  V30 13194 C 1282.09 0.735402 3.04238 0
M  V30 13195 C 1282.56 1.30602 4.38984 0
M  V30 13196 N 1284.06 1.26748 4.45521 0
M  V30 13197 C 1284.79 1.679 5.48267 0
M  V30 13198 N 1284.29 2.16728 6.58028 0
M  V30 13199 N 1286.08 1.59209 5.39082 0
M  V30 13200 H 1278.23 1.491 1.51271 0
M  V30 13201 H 1280.49 0.619497 0.717584 0
M  V30 13202 H 1280.2 1.81777 3.01081 0
M  V30 13203 H 1280.07 0.238119 3.76448 0
M  V30 13204 H 1282.46 -0.305852 2.93511 0
M  V30 13205 H 1282.54 1.30235 2.20165 0
M  V30 13206 H 1282.19 2.34614 4.50465 0
M  V30 13207 H 1282.12 0.714858 5.21725 0
M  V30 13208 H 1284.61 0.90991 3.66782 0
M  V30 13209 H 1284.92 2.46154 7.32549 0
M  V30 13210 H 1283.26 2.20714 6.59022 0
M  V30 13211 H 1286.46 1.20869 4.52226 0
M  V30 13212 H 1286.63 1.91602 6.19025 0
M  V30 13213 N 1280.03 -1.55556 0.252993 0
M  V30 13214 C 1280.97 -2.18978 -0.676837 0
M  V30 13215 C 1281.98 -1.16788 -1.13421 0
M  V30 13216 O 1283.17 -1.43623 -1.05993 0
M  V30 13217 C 1280.27 -2.78404 -1.93248 0
M  V30 13218 C 1279.44 -4.06072 -1.62555 0
M  V30 13219 C 1278.5 -4.49757 -2.7314 0
M  V30 13220 O 1277.53 -5.16005 -2.40266 0
M  V30 13221 N 1278.73 -4.18049 -4.0276 0
M  V30 13222 H 1281.49 -2.994 -0.134142 0
M  V30 13223 H 1279.05 -1.61734 0.0731965 0
M  V30 13224 H 1281.05 -3.04583 -2.6648 0
M  V30 13225 H 1279.62 -2.02104 -2.3848 0
M  V30 13226 H 1278.84 -3.87417 -0.728115 0
M  V30 13227 H 1280.12 -4.89297 -1.39521 0
M  V30 13228 H 1279.52 -3.64876 -4.32298 0
M  V30 13229 H 1278.08 -4.4905 -4.72438 0
M  V30 13230 N 1281.51 0.0200419 -1.57587 0
M  V30 13231 C 1282.46 1.0259 -2.03615 0
M  V30 13232 C 1283.45 1.31504 -0.927116 0
M  V30 13233 O 1284.64 1.30938 -1.19098 0
M  V30 13234 C 1281.77 2.32424 -2.52654 0
M  V30 13235 C 1280.85 2.06561 -3.70396 0
M  V30 13236 N 1281.24 1.50787 -4.82801 0
M  V30 13237 C 1279.54 2.36802 -3.77943 0
M  V30 13238 C 1280.24 1.40935 -5.64369 0
M  V30 13239 N 1279.22 1.88806 -5.09758 0
M  V30 13240 H 1283.02 0.588835 -2.87941 0
M  V30 13241 H 1280.54 0.226163 -1.60817 0
M  V30 13242 H 1282.53 3.05303 -2.83894 0
M  V30 13243 H 1281.19 2.76801 -1.69738 0
M  V30 13244 H 1282.2 1.18935 -5.04058 0
M  V30 13245 H 1278.88 2.84192 -3.05845 0
M  V30 13246 H 1280.27 0.982261 -6.64681 0
M  V30 13247 N 1282.99 1.54862 0.292472 0
M  V30 13248 C 1283.94 1.86403 1.36098 0
M  V30 13249 C 1284.91 0.713694 1.49985 0
M  V30 13250 O 1286.09 0.963134 1.64707 0
M  V30 13251 C 1283.23 2.1244 2.71962 0
M  V30 13252 C 1282.35 3.40038 2.66454 0
M  V30 13253 C 1281.48 3.55875 3.94368 0
M  V30 13254 C 1280.52 4.77235 3.83293 0
M  V30 13255 N 1279.66 4.89832 5.03 0
M  V30 13256 H 1284.5 2.77546 1.085 0
M  V30 13257 H 1282.03 1.37427 0.524607 0
M  V30 13258 H 1283.99 2.25533 3.50985 0
M  V30 13259 H 1282.62 1.24554 2.97802 0
M  V30 13260 H 1281.67 3.35521 1.79248 0
M  V30 13261 H 1282.99 4.29188 2.54163 0
M  V30 13262 H 1282.14 3.68679 4.8183 0
M  V30 13263 H 1280.88 2.64874 4.09503 0
M  V30 13264 H 1279.88 4.64455 2.94214 0
M  V30 13265 H 1281.11 5.69651 3.69695 0
M  V30 13266 H 1279.05 4.01756 5.18582 0
M  V30 13267 H 1278.97 5.72996 4.93165 0
M  V30 13268 H 1280.24 5.07001 5.92089 0
M  V30 13269 N 1284.47 -0.556076 1.47464 0
M  V30 13270 C 1285.71 -1.31515 1.54375 0
M  V30 13271 C 1286.05 -1.93106 0.205837 0
M  V30 13272 O 1285.32 -1.77927 -0.785643 0
M  V30 13273 C 1285.61 -2.4244 2.66261 0
M  V30 13274 C 1285.46 -1.8571 4.09673 0
M  V30 13275 C 1286.78 -3.4436 2.74051 0
M  V30 13276 H 1283.9 -0.476817 0.561974 0
M  V30 13277 H 1286.54 -0.622157 1.79525 0
M  V30 13278 H 1284.69 -3.01551 2.44948 0
M  V30 13279 H 1286.36 -1.30851 4.42353 0
M  V30 13280 H 1284.6 -1.16379 4.17898 0
M  V30 13281 H 1285.27 -2.65904 4.83735 0
M  V30 13282 H 1287.75 -2.95169 2.93282 0
M  V30 13283 H 1286.63 -4.194 3.54111 0
M  V30 13284 H 1286.89 -4.03281 1.81155 0
M  V30 13285 N 1285.95 -1.35615 -0.802897 0
M  V30 13286 C 1287.19 -1.30293 -1.5619 0
M  V30 13287 C 1287.55 0.120656 -1.92021 0
M  V30 13288 O 1286.84 1.07195 -1.58807 0
M  V30 13289 C 1287.04 -2.14653 -2.8576 0
M  V30 13290 C 1286.86 -3.65072 -2.62589 0
M  V30 13291 C 1285.63 -4.34294 -2.58295 0
M  V30 13292 C 1287.83 -4.58639 -2.32712 0
M  V30 13293 N 1285.81 -5.70437 -2.2688 0
M  V30 13294 C 1287.19 -5.82931 -2.11168 0
M  V30 13295 C 1289.24 -4.47343 -2.18606 0
M  V30 13296 C 1287.94 -6.97196 -1.76946 0
M  V30 13297 C 1289.97 -5.61462 -1.85781 0
M  V30 13298 C 1289.33 -6.84784 -1.65075 0
M  V30 13299 H 1285.43 -0.532038 -0.573114 0
M  V30 13300 H 1288.01 -1.70533 -0.939498 0
M  V30 13301 H 1286.19 -1.76679 -3.45889 0
M  V30 13302 H 1287.92 -2.00823 -3.51358 0
M  V30 13303 H 1284.67 -3.86947 -2.73073 0
M  V30 13304 H 1285.1 -6.42302 -2.13956 0
M  V30 13305 H 1289.74 -3.52599 -2.33311 0
M  V30 13306 H 1287.46 -7.91904 -1.60979 0
M  V30 13307 H 1291.04 -5.54677 -1.7557 0
M  V30 13308 H 1289.92 -7.71594 -1.40046 0
M  V30 13309 N 1287.43 1.02549 -1.19673 0
M  V30 13310 C 1288.84 1.28271 -0.94967 0
M  V30 13311 C 1289.04 1.97961 0.37599 0
M  V30 13312 O 1288.1 2.26955 1.10668 0
M  V30 13313 C 1289.41 2.12647 -2.12607 0
M  V30 13314 C 1290.96 2.25943 -2.16607 0
M  V30 13315 C 1291.43 3.13693 -3.33708 0
M  V30 13316 N 1292.92 3.21281 -3.33665 0
M  V30 13317 C 1293.66 3.89377 -4.20919 0
M  V30 13318 N 1293.16 4.59675 -5.18334 0
M  V30 13319 N 1294.95 3.85811 -4.08786 0
M  V30 13320 H 1287.1 0.557304 -2.04958 0
M  V30 13321 H 1289.36 0.308531 -0.896389 0
M  V30 13322 H 1289.07 1.68766 -3.08563 0
M  V30 13323 H 1288.94 3.13367 -2.09955 0
M  V30 13324 H 1291.33 2.69053 -1.2122 0
M  V30 13325 H 1291.41 1.24762 -2.23311 0
M  V30 13326 H 1291.05 2.7129 -4.29376 0
M  V30 13327 H 1290.98 4.14941 -3.2424 0
M  V30 13328 H 1293.48 2.71218 -2.63152 0
M  V30 13329 H 1293.79 5.09277 -5.81254 0
M  V30 13330 H 1292.13 4.58529 -5.22279 0
M  V30 13331 H 1295.32 3.30033 -3.31957 0
M  V30 13332 H 1295.5 4.38607 -4.76999 0
M  V30 13333 N 1288.9 1.00119 1.21713 0
M  V30 13334 C 1289.85 0.558388 2.23943 0
M  V30 13335 C 1290.82 -0.413576 1.60869 0
M  V30 13336 O 1292.01 -0.316478 1.88157 0
M  V30 13337 C 1289.15 -0.112618 3.44916 0
M  V30 13338 C 1288.26 0.902071 4.22477 0
M  V30 13339 C 1287.39 0.203722 5.30809 0
M  V30 13340 C 1286.43 1.20622 6.00097 0
M  V30 13341 N 1285.57 0.535607 7.00054 0
M  V30 13342 H 1290.41 1.43486 2.61182 0
M  V30 13343 H 1287.95 0.718572 1.28355 0
M  V30 13344 H 1289.9 -0.51865 4.13964 0
M  V30 13345 H 1288.53 -0.952827 3.08417 0
M  V30 13346 H 1287.59 1.42637 3.52645 0
M  V30 13347 H 1288.9 1.66513 4.70186 0
M  V30 13348 H 1288.05 -0.258614 6.06149 0
M  V30 13349 H 1286.79 -0.591773 4.84096 0
M  V30 13350 H 1285.8 1.6791 5.23532 0
M  V30 13351 H 1287.02 2.00273 6.48897 0
M  V30 13352 H 1284.97 -0.2403 6.5556 0
M  V30 13353 H 1284.88 1.23698 7.45812 0
M  V30 13354 H 1286.15 0.0963489 7.7944 0
M  V30 13355 N 1290.38 -1.37203 0.775435 0
M  V30 13356 C 1291.62 -2.01439 0.346649 0
M  V30 13357 C 1291.99 -1.60223 -1.05795 0
M  V30 13358 O 1293.19 -2.16947 -1.58706 0
M  V30 13359 C 1291.46 -3.54031 0.489584 0
M  V30 13360 S 1293.02 -4.38555 0.146606 0
M  V30 13361 H 1289.83 -0.698417 0.133173 0
M  V30 13362 H 1292.44 -1.67338 1.01086 0
M  V30 13363 H 1291.14 -3.81516 1.51241 0
M  V30 13364 H 1290.67 -3.92936 -0.19105 0
M  V30 13365 H 1292.69 -4.8482 -1.05661 0
M  V30 13366 N 1291.86 -0.526279 -1.48553 0
M  V30 13367 C 1293.28 -0.183886 -1.58537 0
M  V30 13368 C 1293.48 1.31272 -1.52872 0
M  V30 13369 O 1292.53 2.09069 -1.41585 0
M  V30 13370 C 1293.84 -0.78313 -2.90323 0
M  V30 13371 C 1295.39 -0.751527 -3.03844 0
M  V30 13372 C 1295.87 -1.32928 -4.38285 0
M  V30 13373 N 1297.36 -1.29109 -4.44843 0
M  V30 13374 C 1298.09 -1.70806 -5.47369 0
M  V30 13375 N 1297.59 -2.20215 -6.56869 0
M  V30 13376 N 1299.38 -1.62065 -5.3823 0
M  V30 13377 H 1291.53 -1.499 -1.50478 0
M  V30 13378 H 1293.8 -0.623294 -0.714289 0
M  V30 13379 H 1293.5 -1.83371 -3.00113 0
M  V30 13380 H 1293.38 -0.25808 -3.76316 0
M  V30 13381 H 1295.76 0.290282 -2.93669 0
M  V30 13382 H 1295.84 -1.314 -2.19471 0
M  V30 13383 H 1295.49 -2.37 -4.49214 0
M  V30 13384 H 1295.42 -0.742516 -5.21339 0
M  V30 13385 H 1297.91 -0.929348 -3.66294 0
M  V30 13386 H 1298.22 -2.50035 -7.31233 0
M  V30 13387 H 1296.57 -2.24206 -6.57842 0
M  V30 13388 H 1299.76 -1.23265 -4.51579 0
M  V30 13389 H 1299.93 -1.94883 -6.18001 0
M  V30 13390 N 1293.34 1.5542 -0.261239 0
M  V30 13391 C 1294.27 2.18043 0.673222 0
M  V30 13392 C 1295.25 1.13696 1.16242 0
M  V30 13393 O 1296.43 1.42153 1.23793 0
M  V30 13394 C 1293.56 2.7926 1.91655 0
M  V30 13395 C 1292.61 3.96788 1.56402 0
M  V30 13396 S 1293.44 5.31489 0.654191 0
M  V30 13397 C 1294.59 5.96167 1.9062 0
M  V30 13398 H 1294.83 2.96965 0.141076 0
M  V30 13399 H 1292.36 1.54333 -0.0455871 0
M  V30 13400 H 1294.32 3.15162 2.63026 0
M  V30 13401 H 1292.98 2.00257 2.41983 0
M  V30 13402 H 1292.17 4.38262 2.48882 0
M  V30 13403 H 1291.77 3.62237 0.930618 0
M  V30 13404 H 1294.07 6.14556 2.8518 0
M  V30 13405 H 1295.01 6.91269 1.53471 0
M  V30 13406 H 1295.42 5.25381 2.06483 0
M  V30 13407 N 1294.82 -0.0116844 1.57596 0
M  V30 13408 C 1296.23 -0.367602 1.55309 0
M  V30 13409 C 1296.43 -1.75524 0.98962 0
M  V30 13410 O 1295.49 -2.44813 0.618289 0
M  V30 13411 C 1296.8 -0.253532 2.99629 0
M  V30 13412 C 1298.35 -0.329335 3.11263 0
M  V30 13413 C 1298.82 -0.24452 4.57347 0
M  V30 13414 N 1300.31 -0.302782 4.62209 0
M  V30 13415 C 1301.05 -0.260315 5.72809 0
M  V30 13416 N 1300.55 -0.169124 6.92594 0
M  V30 13417 N 1302.34 -0.311323 5.61237 0
M  V30 13418 H 1294.49 0.896204 1.92567 0
M  V30 13419 H 1296.75 0.342445 0.883988 0
M  V30 13420 H 1296.46 0.70074 3.44648 0
M  V30 13421 H 1296.33 -1.04029 3.62571 0
M  V30 13422 H 1298.72 -1.27405 2.66181 0
M  V30 13423 H 1298.8 0.487084 2.5112 0
M  V30 13424 H 1298.44 0.696597 5.031 0
M  V30 13425 H 1298.37 -1.07927 5.15421 0
M  V30 13426 H 1300.87 -0.375067 3.76034 0
M  V30 13427 H 1301.18 -0.142296 7.72669 0
M  V30 13428 H 1299.52 -0.134919 6.94869 0
M  V30 13429 H 1302.71 -0.380678 4.6655 0
M  V30 13430 H 1302.89 -0.274761 6.47417 0
M  V30 13431 N 1296.29 -1.55015 -0.284256 0
M  V30 13432 C 1297.54 -1.74297 -1.01506 0
M  V30 13433 C 1297.86 -0.545134 -1.8785 0
M  V30 13434 O 1299.06 -0.620118 -2.64323 0
M  V30 13435 C 1297.52 -3.08438 -1.85456 0
M  V30 13436 C 1297.13 -4.35753 -1.04034 0
M  V30 13437 C 1298.87 -3.37073 -2.58035 0
M  V30 13438 C 1296.78 -5.60938 -1.87358 0
M  V30 13439 H 1295.71 -0.649656 -0.382705 0
M  V30 13440 H 1298.36 -1.81484 -0.271239 0
M  V30 13441 H 1296.74 -2.95259 -2.63891 0
M  V30 13442 H 1297.91 -4.59816 -0.300954 0
M  V30 13443 H 1296.23 -4.14178 -0.429616 0
M  V30 13444 H 1298.83 -4.27806 -3.20759 0
M  V30 13445 H 1299.17 -2.56698 -3.27738 0
M  V30 13446 H 1299.7 -3.51299 -1.86638 0
M  V30 13447 H 1296.44 -6.44029 -1.22096 0
M  V30 13448 H 1295.96 -5.41035 -2.58923 0
M  V30 13449 H 1297.64 -5.98819 -2.44999 0
M  V30 13450 N 1297.77 0.548248 -1.47757 0
M  V30 13451 C 1299.02 1.30501 -1.54841 0
M  V30 13452 C 1299.35 1.93314 -0.214476 0
M  V30 13453 O 1298.6 1.7889 0.793526 0
M  V30 13454 C 1298.9 2.42911 -2.62162 0
M  V30 13455 C 1298.57 1.97871 -4.05164 0
M  V30 13456 C 1297.23 1.85304 -4.4409 0
M  V30 13457 C 1299.58 1.63606 -4.94856 0
M  V30 13458 C 1296.91 1.36781 -5.70533 0
M  V30 13459 C 1299.26 1.16552 -6.2177 0
M  V30 13460 C 1297.92 1.02588 -6.5957 0
M  V30 13461 H 1297.19 0.477536 -0.566604 0
M  V30 13462 H 1299.84 0.613837 -1.81395 0
M  V30 13463 H 1298.15 3.17622 -2.29398 0
M  V30 13464 H 1299.84 3.01078 -2.64864 0
M  V30 13465 H 1296.43 2.08597 -3.74413 0
M  V30 13466 H 1300.62 1.72184 -4.65474 0
M  V30 13467 H 1295.87 1.24641 -5.9856 0
M  V30 13468 H 1300.05 0.891041 -6.90676 0
M  V30 13469 H 1297.67 0.647675 -7.57436 0
M  V30 13470 N 1299.25 1.36039 0.795694 0
M  V30 13471 C 1300.48 1.33059 1.58439 0
M  V30 13472 C 1300.89 -0.0895496 1.88588 0
M  V30 13473 O 1300.25 -1.04466 1.49643 0
M  V30 13474 C 1300.3 2.14594 2.90915 0
M  V30 13475 O 1300.02 3.51072 2.62069 0
M  V30 13476 C 1301.52 2.19324 3.85242 0
M  V30 13477 H 1298.74 0.456668 0.491625 0
M  V30 13478 H 1301.29 1.79048 0.988035 0
M  V30 13479 H 1299.44 1.72177 3.47036 0
M  V30 13480 H 1299.86 3.93545 3.46732 0
M  V30 13481 H 1301.33 2.80744 4.75276 0
M  V30 13482 H 1301.81 1.19496 4.22631 0
M  V30 13483 H 1302.41 2.6195 3.35056 0
M  V30 13484 N 1300.73 -1.01913 1.20215 0
M  V30 13485 C 1301.97 -1.7573 1.01226 0
M  V30 13486 C 1302.31 -1.88799 -0.45481 0
M  V30 13487 O 1301.58 -1.41196 -1.33768 0
M  V30 13488 C 1301.87 -3.17795 1.69348 0
M  V30 13489 C 1301.72 -3.12536 3.23483 0
M  V30 13490 C 1303.04 -4.16409 1.42448 0
M  V30 13491 H 1300.16 -0.637889 0.369144 0
M  V30 13492 H 1302.8 -1.18907 1.48193 0
M  V30 13493 H 1300.95 -3.66311 1.29416 0
M  V30 13494 H 1302.62 -2.71843 3.72692 0
M  V30 13495 H 1300.86 -2.49997 3.54519 0
M  V30 13496 H 1301.53 -4.12949 3.66302 0
M  V30 13497 H 1304.01 -3.76537 1.77086 0
M  V30 13498 H 1302.89 -5.13983 1.92648 0
M  V30 13499 H 1303.15 -4.407 0.351574 0
M  V30 13500 N 1302.21 -1.00763 -1.2118 0
M  V30 13501 C 1303.17 -0.575183 -2.21865 0
M  V30 13502 C 1304.17 0.349871 -1.56948 0
M  V30 13503 O 1305.36 0.139795 -1.73638 0
M  V30 13504 C 1302.49 0.161308 -3.40518 0
M  V30 13505 H 1303.68 -1.46578 -2.61639 0
M  V30 13506 H 1301.24 -0.79643 -1.34487 0
M  V30 13507 H 1301.97 1.06723 -3.06236 0
M  V30 13508 H 1301.76 -0.503101 -3.88859 0
M  V30 13509 H 1303.25 0.451527 -4.15152 0
M  V30 13510 N 1303.68 1.3679 -0.7827 0
M  V30 13511 C 1304.62 2.28805 -0.13451 0
M  V30 13512 C 1305.63 1.49159 0.652338 0
M  V30 13513 O 1306.82 1.71682 0.488626 0
M  V30 13514 C 1303.92 3.28508 0.832802 0
M  V30 13515 C 1303.09 4.37291 0.0974435 0
M  V30 13516 C 1302.15 5.16999 0.979715 0
M  V30 13517 O 1301.18 5.67501 0.439439 0
M  V30 13518 N 1302.38 5.32786 2.30477 0
M  V30 13519 H 1305.14 2.85072 -0.924873 0
M  V30 13520 H 1302.7 1.48884 -0.636012 0
M  V30 13521 H 1304.7 3.78718 1.42671 0
M  V30 13522 H 1303.27 2.7293 1.52408 0
M  V30 13523 H 1302.49 3.88335 -0.677483 0
M  V30 13524 H 1303.77 5.07143 -0.410259 0
M  V30 13525 H 1303.17 4.93358 2.76793 0
M  V30 13526 H 1301.73 5.86264 2.84848 0
M  V30 13527 N 1305.16 0.53415 1.48272 0
M  V30 13528 C 1306.41 0.00157492 2.028 0
M  V30 13529 C 1306.74 -1.33538 1.41001 0
M  V30 13530 O 1306.02 -1.86347 0.557245 0
M  V30 13531 C 1306.3 -0.116016 3.59913 0
M  V30 13532 C 1306.15 1.2464 4.32186 0
M  V30 13533 C 1307.47 -0.840775 4.31994 0
M  V30 13534 H 1304.59 0.00204634 0.736997 0
M  V30 13535 H 1307.23 0.691985 1.76951 0
M  V30 13536 H 1305.38 -0.704027 3.82068 0
M  V30 13537 H 1307.05 1.87584 4.21438 0
M  V30 13538 H 1305.3 1.8272 3.93441 0
M  V30 13539 H 1305.97 1.11708 5.40579 0
M  V30 13540 H 1308.44 -0.341746 4.14694 0
M  V30 13541 H 1307.32 -0.89196 5.41604 0
M  V30 13542 H 1307.58 -1.89197 3.99571 0
M  V30 13543 N 1306.64 -1.55279 0.269478 0
M  V30 13544 C 1307.92 -1.91458 -0.400412 0
M  V30 13545 C 1308.3 -1.19306 -1.74153 0
M  V30 13546 O 1307.65 -0.318017 -2.26276 0
M  V30 13547 C 1307.86 -3.44698 -0.546258 0
M  V30 13548 C 1309.2 -4.16374 -0.831758 0
M  V30 13549 O 1310.23 -3.50561 -0.631279 0
M  V30 13550 O 1309.09 -5.32826 -1.21484 0
M  V30 13551 H 1306.18 -0.79766 -0.218328 0
M  V30 13552 H 1308.73 -1.66747 0.315214 0
M  V30 13553 H 1307.5 -3.89273 0.397784 0
M  V30 13554 H 1307.12 -3.75345 -1.31157 0
M  V30 13555 N 1308.12 0.00332656 -1.576 0
M  V30 13556 C 1309.4 0.725722 -1.81639 0
M  V30 13557 C 1309.78 1.92173 -0.87365 0
M  V30 13558 O 1309.12 2.28365 0.0783931 0
M  V30 13559 C 1309.33 1.13458 -3.30043 0
M  V30 13560 C 1310.68 1.53982 -3.95695 0
M  V30 13561 O 1311.71 1.22846 -3.34346 0
M  V30 13562 O 1310.56 2.11866 -5.03761 0
M  V30 13563 H 1307.66 0.353083 -0.747838 0
M  V30 13564 H 1310.2 -0.0218724 -1.69686 0
M  V30 13565 H 1308.98 0.281925 -3.90283 0
M  V30 13566 H 1308.6 1.94138 -3.46982 0
M  V30 13567 N 1309.6 1.55164 0.276031 0
M  V30 13568 C 1310.54 1.88623 1.36104 0
M  V30 13569 C 1311.54 0.762265 1.51281 0
M  V30 13570 O 1312.74 0.946573 1.53101 0
M  V30 13571 H 1309.12 0.59863 0.455133 0
M  V30 13572 H 1311.09 2.79266 1.05134 0
M  V30 13573 C 1309.84 2.17207 2.71508 0
M  V30 13574 H 1309.16 3.03179 2.6062 0
M  V30 13575 H 1310.6 2.44541 3.46375 0
M  V30 13576 C 1309.06 0.978671 3.22372 0
M  V30 13577 O 1309.59 0.211766 4.01141 0
M  V30 13578 N 1307.8 0.777199 2.80014 0
M  V30 13579 H 1307.34 1.40252 2.16072 0
M  V30 13580 H 1307.3 -0.0196754 3.14394 0
M  V30 13581 N 1311.07 -0.540404 1.48045 0
M  V30 13582 C 1312.3 -1.32656 1.59427 0
M  V30 13583 C 1312.72 -1.86419 0.250924 0
M  V30 13584 O 1312.08 -1.63861 -0.775838 0
M  V30 13585 C 1312.13 -2.46062 2.63602 0
M  V30 13586 O 1311.23 -3.48794 2.20038 0
M  V30 13587 H 1310.58 -0.393334 0.534962 0
M  V30 13588 H 1313.11 -0.651363 1.93955 0
M  V30 13589 H 1313.12 -2.92396 2.84549 0
M  V30 13590 H 1311.79 -2.06291 3.61133 0
M  V30 13591 H 1310.37 -3.0865 2.0926 0
M  V30 13592 N 1312.55 -1.36459 -0.788468 0
M  V30 13593 C 1313.8 -1.3007 -1.54158 0
M  V30 13594 C 1314.11 0.117574 -1.95246 0
M  V30 13595 O 1315.32 0.303837 -2.69795 0
M  V30 13596 C 1313.78 -2.28216 -2.78291 0
M  V30 13597 C 1313.38 -3.75484 -2.44368 0
M  V30 13598 C 1315.13 -2.30806 -3.56271 0
M  V30 13599 C 1313.04 -4.65404 -3.64902 0
M  V30 13600 H 1311.97 -0.483345 -0.5787 0
M  V30 13601 H 1314.62 -1.61827 -0.865123 0
M  V30 13602 H 1313 -1.89454 -3.4774 0
M  V30 13603 H 1314.17 -4.22986 -1.82809 0
M  V30 13604 H 1312.49 -3.75678 -1.79597 0
M  V30 13605 H 1315.08 -2.95196 -4.45829 0
M  V30 13606 H 1315.43 -1.31687 -3.94923 0
M  V30 13607 H 1315.96 -2.68189 -2.93802 0
M  V30 13608 H 1312.7 -5.65589 -3.31344 0
M  V30 13609 H 1312.22 -4.22617 -4.25623 0
M  V30 13610 H 1313.9 -4.81721 -4.31919 0
M  V30 13611 N 1314.03 1.01274 -1.20754 0
M  V30 13612 C 1314.96 2.10029 -0.917628 0
M  V30 13613 C 1315.98 1.62516 0.0961411 0
M  V30 13614 O 1317.16 1.77986 -0.135371 0
M  V30 13615 C 1314.26 3.37037 -0.354891 0
M  V30 13616 C 1313.44 4.1367 -1.42113 0
M  V30 13617 C 1312.5 5.18974 -0.869023 0
M  V30 13618 O 1311.52 5.47671 -1.55063 0
M  V30 13619 N 1312.72 5.79619 0.319631 0
M  V30 13620 H 1315.49 2.35485 -1.85383 0
M  V30 13621 H 1313.05 1.17695 -1.11173 0
M  V30 13622 H 1315.04 4.0469 0.0286895 0
M  V30 13623 H 1313.61 3.088 0.485956 0
M  V30 13624 H 1312.83 3.40931 -1.97889 0
M  V30 13625 H 1314.12 4.61649 -2.13911 0
M  V30 13626 H 1313.52 5.58646 0.89059 0
M  V30 13627 H 1312.08 6.48603 0.644807 0
M  V30 13628 N 1315.51 1.01404 1.20644 0
M  V30 13629 C 1316.44 0.526835 2.22035 0
M  V30 13630 C 1317.42 -0.424347 1.56965 0
M  V30 13631 O 1318.6 -0.344947 1.85317 0
M  V30 13632 C 1315.73 -0.233628 3.37893 0
M  V30 13633 C 1314.78 0.666719 4.21257 0
M  V30 13634 S 1315.61 2.13439 4.91125 0
M  V30 13635 C 1316.77 1.38402 6.10406 0
M  V30 13636 H 1317 1.38595 2.63018 0
M  V30 13637 H 1314.53 0.822723 1.30655 0
M  V30 13638 H 1316.49 -0.666289 4.05057 0
M  V30 13639 H 1315.15 -1.06828 2.95375 0
M  V30 13640 H 1314.34 0.0804713 5.03936 0
M  V30 13641 H 1313.95 1.03705 3.59335 0
M  V30 13642 H 1316.24 0.662667 6.74251 0
M  V30 13643 H 1317.18 2.18686 6.73485 0
M  V30 13644 H 1317.59 0.888021 5.57471 0
M  V30 13645 N 1316.99 -1.36373 0.789944 0
M  V30 13646 C 1317.93 -2.30043 0.186798 0
M  V30 13647 C 1318.9 -1.52002 -0.669663 0
M  V30 13648 O 1320.09 -1.80506 -0.618232 0
M  V30 13649 C 1317.23 -3.38494 -0.671994 0
M  V30 13650 C 1316.34 -4.31522 0.203067 0
M  V30 13651 C 1315.48 -5.27057 -0.662148 0
M  V30 13652 C 1314.52 -6.11725 0.214335 0
M  V30 13653 N 1313.65 -6.99446 -0.609892 0
M  V30 13654 H 1318.49 -2.81038 0.991048 0
M  V30 13655 H 1316.03 -1.38331 0.500288 0
M  V30 13656 H 1317.99 -4.0002 -1.1849 0
M  V30 13657 H 1316.62 -2.88818 -1.44167 0
M  V30 13658 H 1315.67 -3.71146 0.833945 0
M  V30 13659 H 1316.98 -4.91005 0.878389 0
M  V30 13660 H 1316.14 -5.93875 -1.24084 0
M  V30 13661 H 1314.88 -4.6803 -1.37109 0
M  V30 13662 H 1313.88 -5.43868 0.805426 0
M  V30 13663 H 1315.11 -6.72827 0.92089 0
M  V30 13664 H 1313.05 -6.42927 -1.30312 0
M  V30 13665 H 1312.97 -7.56 0.00773786 0
M  V30 13666 H 1314.24 -7.70633 -1.1724 0
M  V30 13667 N 1318.47 -0.542005 -1.47987 0
M  V30 13668 C 1319.41 0.214151 -2.29804 0
M  V30 13669 C 1320.38 0.922625 -1.38119 0
M  V30 13670 O 1321.57 0.921301 -1.67083 0
M  V30 13671 C 1318.71 1.24768 -3.21756 0
M  V30 13672 C 1317.82 0.546824 -4.28525 0
M  V30 13673 C 1316.96 1.56432 -5.07644 0
M  V30 13674 C 1315.99 0.847598 -6.06203 0
M  V30 13675 N 1315.13 1.81121 -6.78336 0
M  V30 13676 H 1319.97 -0.489707 -2.93949 0
M  V30 13677 H 1317.51 -0.253331 -1.44902 0
M  V30 13678 H 1319.47 1.85933 -3.73477 0
M  V30 13679 H 1318.1 1.91976 -2.59509 0
M  V30 13680 H 1317.15 -0.179026 -3.79978 0
M  V30 13681 H 1318.46 -0.0153623 -4.98798 0
M  V30 13682 H 1317.61 2.24992 -5.63439 0
M  V30 13683 H 1316.35 2.16041 -4.37238 0
M  V30 13684 H 1315.36 0.147989 -5.49601 0
M  V30 13685 H 1316.58 0.257454 -6.78612 0
M  V30 13686 H 1314.53 2.39615 -6.10672 0
M  V30 13687 H 1314.45 1.30077 -7.44725 0
M  V30 13688 H 1315.71 2.48842 -7.38714 0
M  V30 13689 N 1319.94 1.55134 -0.277709 0
M  V30 13690 C 1321.22 1.91667 0.390253 0
M  V30 13691 C 1321.6 1.20228 1.73518 0
M  V30 13692 O 1320.95 0.330013 2.26104 0
M  V30 13693 C 1321.16 3.44983 0.52797 0
M  V30 13694 C 1322.51 4.16809 0.809665 0
M  V30 13695 O 1323.53 3.50891 0.612679 0
M  V30 13696 O 1322.39 5.33463 1.18656 0
M  V30 13697 H 1319.48 0.798807 0.214095 0
M  V30 13698 H 1322.03 1.66577 -0.324053 0
M  V30 13699 H 1320.8 3.89056 -0.418422 0
M  V30 13700 H 1320.42 3.76035 1.29164 0
M  V30 13701 N 1321.42 0.00503138 1.57599 0
M  V30 13702 C 1322.35 -0.983586 2.11773 0
M  V30 13703 C 1323.33 -1.35518 1.02805 0
M  V30 13704 O 1324.52 -1.43804 1.30514 0
M  V30 13705 C 1321.65 -2.27383 2.62515 0
M  V30 13706 C 1320.6 -2.0437 3.76054 0
M  V30 13707 C 1319.93 -3.39451 4.1313 0
M  V30 13708 C 1321.23 -1.40223 5.03125 0
M  V30 13709 H 1322.92 -0.532501 2.94627 0
M  V30 13710 H 1320.47 -0.254696 1.4173 0
M  V30 13711 H 1322.42 -2.96903 2.99043 0
M  V30 13712 H 1321.14 -2.74614 1.7679 0
M  V30 13713 H 1319.8 -1.37275 3.39928 0
M  V30 13714 H 1319.45 -3.84395 3.24422 0
M  V30 13715 H 1319.15 -3.24868 4.89627 0
M  V30 13716 H 1320.68 -4.10279 4.52221 0
M  V30 13717 H 1322.09 -1.99708 5.37392 0
M  V30 13718 H 1320.49 -1.36112 5.8446 0
M  V30 13719 H 1321.56 -0.372073 4.8347 0
M  V30 13720 N 1322.9 -1.55308 -0.267798 0
M  V30 13721 C 1323.83 -1.84963 -1.35356 0
M  V30 13722 C 1324.84 -0.73446 -1.45291 0
M  V30 13723 O 1326.03 -1.01237 -1.47015 0
M  V30 13724 C 1323.13 -2.00221 -2.73432 0
M  V30 13725 C 1322.31 -3.30922 -2.86024 0
M  V30 13726 C 1321.37 -3.3618 -4.04808 0
M  V30 13727 O 1320.39 -4.09525 -3.9532 0
M  V30 13728 N 1321.59 -2.63958 -5.17017 0
M  V30 13729 H 1324.36 -2.7868 -1.1026 0
M  V30 13730 H 1321.92 -1.55289 -0.457914 0
M  V30 13731 H 1323.91 -2.01103 -3.51197 0
M  V30 13732 H 1322.48 -1.13346 -2.91327 0
M  V30 13733 H 1321.7 -3.42534 -1.951 0
M  V30 13734 H 1322.99 -4.17109 -2.91371 0
M  V30 13735 H 1322.39 -2.04062 -5.27613 0
M  V30 13736 H 1320.94 -2.70558 -5.92994 0
M  V30 13737 N 1324.38 0.532545 -1.4833 0
M  V30 13738 C 1325.31 1.65392 -1.57229 0
M  V30 13739 C 1326.29 1.57005 -0.422884 0
M  V30 13740 O 1327.47 1.77513 -0.634132 0
M  V30 13741 C 1324.6 3.03778 -1.49789 0
M  V30 13742 C 1323.65 3.30532 -2.69538 0
M  V30 13743 S 1324.48 3.17084 -4.3153 0
M  V30 13744 C 1325.63 4.57921 -4.26684 0
M  V30 13745 H 1325.87 1.57593 -2.52095 0
M  V30 13746 H 1323.4 0.715307 -1.36831 0
M  V30 13747 H 1325.36 3.83589 -1.46183 0
M  V30 13748 H 1324.02 3.0902 -0.562646 0
M  V30 13749 H 1323.21 4.31479 -2.60464 0
M  V30 13750 H 1322.81 2.58386 -2.70393 0
M  V30 13751 H 1325.11 5.49387 -3.96459 0
M  V30 13752 H 1326.05 4.72049 -5.27802 0
M  V30 13753 H 1326.46 4.37123 -3.57188 0
M  V30 13754 N 1325.86 1.36875 0.78122 0
M  V30 13755 C 1327.1 1.31559 1.53943 0
M  V30 13756 C 1327.43 -0.10273 1.94229 0
M  V30 13757 O 1326.69 -1.07386 1.63605 0
M  V30 13758 C 1326.98 2.19173 2.82309 0
M  V30 13759 C 1326.65 3.67595 2.61121 0
M  V30 13760 C 1325.31 4.08047 2.55051 0
M  V30 13761 C 1327.66 4.61665 2.41898 0
M  V30 13762 C 1324.99 5.40697 2.27736 0
M  V30 13763 C 1327.34 5.94542 2.16108 0
M  V30 13764 C 1326.01 6.34109 2.08476 0
M  V30 13765 H 1325.28 0.48141 0.563317 0
M  V30 13766 H 1327.93 1.68999 0.900638 0
M  V30 13767 H 1326.23 1.74696 3.50697 0
M  V30 13768 H 1327.93 2.12379 3.40141 0
M  V30 13769 H 1324.52 3.35509 2.66705 0
M  V30 13770 H 1328.7 4.3128 2.45584 0
M  V30 13771 H 1323.96 5.70325 2.20315 0
M  V30 13772 H 1328.13 6.66994 2.0023 0
M  V30 13773 H 1325.76 7.36823 1.87073 0
M  V30 13774 N 1327.33 -1.00632 1.21289 0
M  V30 13775 C 1328.26 -2.11238 0.995021 0
M  V30 13776 C 1329.24 -1.69914 -0.0795537 0
M  V30 13777 O 1330.43 -1.94035 0.0800152 0
M  V30 13778 C 1327.56 -3.42797 0.557475 0
M  V30 13779 C 1326.51 -3.97909 1.57646 0
M  V30 13780 C 1325.84 -5.25357 0.995197 0
M  V30 13781 C 1327.14 -4.30123 2.96297 0
M  V30 13782 H 1328.83 -2.29722 1.9201 0
M  V30 13783 H 1326.38 -1.10395 0.924602 0
M  V30 13784 H 1328.33 -4.19571 0.392236 0
M  V30 13785 H 1327.06 -3.24101 -0.403253 0
M  V30 13786 H 1325.72 -3.23254 1.72924 0
M  V30 13787 H 1325.36 -5.02993 0.026227 0
M  V30 13788 H 1325.06 -5.63196 1.67583 0
M  V30 13789 H 1326.59 -6.04777 0.841251 0
M  V30 13790 H 1328 -4.97744 2.8447 0
M  V30 13791 H 1326.4 -4.79101 3.61361 0
M  V30 13792 H 1327.47 -3.38454 3.47242 0
M  V30 13793 N 1328.81 -1.02043 -1.20104 0
M  V30 13794 C 1330.04 -0.730255 -1.93264 0
M  V30 13795 C 1330.45 0.71359 -1.75227 0
M  V30 13796 O 1329.79 1.49609 -1.06597 0
M  V30 13797 C 1329.85 -0.990978 -3.45572 0
M  V30 13798 C 1329.52 -2.4247 -3.87373 0
M  V30 13799 C 1330.52 -3.40569 -3.92822 0
M  V30 13800 C 1328.2 -2.76645 -4.19253 0
M  V30 13801 C 1330.19 -4.70904 -4.29568 0
M  V30 13802 C 1327.88 -4.07192 -4.55673 0
M  V30 13803 C 1328.88 -5.04132 -4.60804 0
M  V30 13804 O 1328.57 -6.32341 -4.96386 0
M  V30 13805 H 1328.3 -0.267146 -0.620974 0
M  V30 13806 H 1330.85 -1.36557 -1.53432 0
M  V30 13807 H 1329.08 -0.298508 -3.85546 0
M  V30 13808 H 1330.77 -0.691793 -3.99961 0
M  V30 13809 H 1331.54 -3.15503 -3.68352 0
M  V30 13810 H 1327.42 -2.01876 -4.14448 0
M  V30 13811 H 1330.96 -5.46566 -4.33487 0
M  V30 13812 H 1326.86 -4.32035 -4.796 0
M  V30 13813 H 1327.63 -6.36687 -5.14365 0
M  V30 13814 N 1330.29 1.35952 -0.797165 0
M  V30 13815 C 1331.24 2.27336 -0.173856 0
M  V30 13816 C 1332.22 1.47328 0.646778 0
M  V30 13817 O 1333.42 1.69626 0.505581 0
M  V30 13818 C 1330.55 3.36411 0.684297 0
M  V30 13819 C 1329.63 4.2385 -0.145551 0
M  V30 13820 N 1330.02 4.91263 -1.20391 0
M  V30 13821 C 1328.32 4.45938 0.074359 0
M  V30 13822 C 1329.02 5.56006 -1.70974 0
M  V30 13823 N 1328 5.33989 -1.0177 0
M  V30 13824 H 1331.8 2.76945 -0.983794 0
M  V30 13825 H 1329.31 1.49369 -0.637388 0
M  V30 13826 H 1331.31 4.00817 1.14681 0
M  V30 13827 H 1329.97 2.88355 1.49269 0
M  V30 13828 H 1330.98 4.93004 -1.58644 0
M  V30 13829 H 1327.66 4.08701 0.852644 0
M  V30 13830 H 1329.05 6.19818 -2.59375 0
M  V30 13831 N 1331.77 0.549846 1.47697 0
M  V30 13832 C 1332.7 -0.190364 2.32723 0
M  V30 13833 C 1333.68 -0.915933 1.43334 0
M  V30 13834 O 1334.86 -0.897838 1.72199 0
M  V30 13835 C 1331.99 -1.22545 3.24961 0
M  V30 13836 C 1330.95 -0.616805 4.23532 0
M  V30 13837 C 1330.27 -1.75599 5.05044 0
M  V30 13838 C 1331.57 0.424595 5.20571 0
M  V30 13839 H 1333.27 0.519461 2.94859 0
M  V30 13840 H 1330.81 0.251259 1.41791 0
M  V30 13841 H 1332.77 -1.75139 3.83281 0
M  V30 13842 H 1331.49 -1.96512 2.60865 0
M  V30 13843 H 1330.15 -0.112224 3.66428 0
M  V30 13844 H 1329.8 -2.48453 4.37356 0
M  V30 13845 H 1329.5 -1.35456 5.71774 0
M  V30 13846 H 1331.02 -2.28533 5.6622 0
M  V30 13847 H 1332.44 -0.0150025 5.73298 0
M  V30 13848 H 1330.83 0.7445 5.95464 0
M  V30 13849 H 1331.9 1.32318 4.66497 0
M  V30 13850 N 1333.25 -1.54984 0.285932 0
M  V30 13851 C 1334.66 -1.59455 -0.0679061 0
M  V30 13852 C 1334.86 -1.30308 -1.53695 0
M  V30 13853 O 1333.92 -1.06918 -2.28746 0
M  V30 13854 C 1335.23 -2.9903 0.316469 0
M  V30 13855 C 1336.78 -3.11885 0.263982 0
M  V30 13856 C 1337.25 -4.53744 0.622956 0
M  V30 13857 N 1338.75 -4.59618 0.574917 0
M  V30 13858 C 1339.48 -5.67429 0.825339 0
M  V30 13859 N 1338.98 -6.83341 1.14094 0
M  V30 13860 N 1340.77 -5.57028 0.75341 0
M  V30 13861 H 1332.92 -1.72194 1.2435 0
M  V30 13862 H 1335.18 -0.80348 0.503114 0
M  V30 13863 H 1334.89 -3.25232 1.33855 0
M  V30 13864 H 1334.76 -3.75688 -0.337371 0
M  V30 13865 H 1337.15 -2.85441 -0.748832 0
M  V30 13866 H 1337.23 -2.37416 0.952233 0
M  V30 13867 H 1336.88 -4.80915 1.63351 0
M  V30 13868 H 1336.81 -5.26528 -0.0872039 0
M  V30 13869 H 1339.3 -3.76356 0.341305 0
M  V30 13870 H 1339.61 -7.61471 1.3184 0
M  V30 13871 H 1337.95 -6.8493 1.17883 0
M  V30 13872 H 1341.15 -4.6535 0.506611 0
M  V30 13873 H 1341.32 -6.4097 0.95195 0
M  V30 13874 N 1334.72 -0.0133892 -1.57594 0
M  V30 13875 C 1335.97 0.667896 -1.90321 0
M  V30 13876 C 1336.29 1.74187 -0.88984 0
M  V30 13877 O 1337.49 2.47871 -1.10779 0
M  V30 13878 C 1335.95 1.23917 -3.37894 0
M  V30 13879 C 1335.56 0.199313 -4.47556 0
M  V30 13880 C 1337.3 1.89788 -3.79712 0
M  V30 13881 C 1335.21 0.781339 -5.86216 0
M  V30 13882 H 1334.14 0.253229 -0.710205 0
M  V30 13883 H 1336.79 -0.0761229 -1.83342 0
M  V30 13884 H 1335.17 2.03429 -3.39754 0
M  V30 13885 H 1336.34 -0.572196 -4.57234 0
M  V30 13886 H 1334.66 -0.359719 -4.14843 0
M  V30 13887 H 1337.26 2.34262 -4.80651 0
M  V30 13888 H 1337.6 2.73406 -3.13934 0
M  V30 13889 H 1338.13 1.16989 -3.80208 0
M  V30 13890 H 1334.87 -0.0163598 -6.55498 0
M  V30 13891 H 1334.39 1.5217 -5.80176 0
M  V30 13892 H 1336.07 1.2759 -6.34295 0
M  V30 13893 N 1336.2 1.55448 0.259558 0
M  V30 13894 C 1337.43 1.81063 1.01148 0
M  V30 13895 C 1337.85 0.58875 1.78649 0
M  V30 13896 O 1337.21 -0.461971 1.75315 0
M  V30 13897 C 1337.26 3.04279 1.93512 0
M  V30 13898 O 1336.36 2.80307 3.02493 0
M  V30 13899 H 1335.7 0.598056 0.288487 0
M  V30 13900 H 1338.23 2.02614 0.284387 0
M  V30 13901 H 1338.24 3.33373 2.35215 0
M  V30 13902 H 1336.92 3.92856 1.36518 0
M  V30 13903 H 1335.5 2.62345 2.65008 0
M  V30 13904 N 1337.68 -0.524672 1.4861 0
M  V30 13905 C 1338.64 -1.61092 1.63039 0
M  V30 13906 C 1339.64 -1.52718 0.503387 0
M  V30 13907 O 1340.83 -1.56293 0.769304 0
M  V30 13908 C 1337.97 -3.00722 1.60558 0
M  V30 13909 H 1339.16 -1.49636 2.59902 0
M  V30 13910 H 1336.71 -0.747135 1.37287 0
M  V30 13911 H 1337.45 -3.1768 0.651926 0
M  V30 13912 H 1337.23 -3.0821 2.42382 0
M  V30 13913 H 1338.72 -3.79688 1.73859 0
M  V30 13914 N 1339.16 -1.37287 -0.77395 0
M  V30 13915 C 1340.07 -1.35059 -1.91823 0
M  V30 13916 C 1341.08 -0.250489 -1.72188 0
M  V30 13917 O 1342.26 -0.485501 -1.95461 0
M  V30 13918 C 1339.33 -1.15444 -3.26915 0
M  V30 13919 C 1338.39 -2.35073 -3.5922 0
M  V30 13920 C 1337.62 -2.16384 -4.87867 0
M  V30 13921 O 1337.84 -1.14696 -5.58749 0
M  V30 13922 O 1336.78 -3.0452 -5.19183 0
M  V30 13923 H 1340.6 -2.31432 -1.96654 0
M  V30 13924 H 1338.19 -1.17994 -0.916392 0
M  V30 13925 H 1340.07 -1.06484 -4.07724 0
M  V30 13926 H 1338.74 -0.221435 -3.22942 0
M  V30 13927 H 1337.65 -2.49604 -2.78655 0
M  V30 13928 H 1338.98 -3.26933 -3.67934 0
M  V30 13929 N 1340.64 0.999871 -1.21821 0
M  V30 13930 C 1341.88 1.74098 -1.04009 0
M  V30 13931 C 1342.22 1.89499 0.424716 0
M  V30 13932 O 1341.49 1.43306 1.31505 0
M  V30 13933 C 1341.77 3.1506 -1.74382 0
M  V30 13934 C 1341.63 3.0735 -3.28414 0
M  V30 13935 C 1342.95 4.1409 -1.49055 0
M  V30 13936 H 1340.06 0.631935 -0.379245 0
M  V30 13937 H 1342.71 1.16534 -1.50066 0
M  V30 13938 H 1340.86 3.64206 -1.35227 0
M  V30 13939 H 1342.53 2.65879 -3.76969 0
M  V30 13940 H 1340.77 2.44325 -3.58452 0
M  V30 13941 H 1341.44 4.07069 -3.72825 0
M  V30 13942 H 1343.92 3.73672 -1.83054 0
M  V30 13943 H 1342.79 5.10853 -2.008 0
M  V30 13944 H 1343.06 4.40085 -0.421641 0
M  V30 13945 N 1342.11 1.02678 1.19562 0
M  V30 13946 C 1343.02 0.615738 2.26375 0
M  V30 13947 C 1344.04 -0.351525 1.70412 0
M  V30 13948 O 1345.22 -0.209932 2.00303 0
M  V30 13949 C 1342.28 -0.0292135 3.46688 0
M  V30 13950 C 1341.34 0.985284 4.1784 0
M  V30 13951 C 1340.58 0.371016 5.32409 0
M  V30 13952 O 1340.8 -0.826591 5.64379 0
M  V30 13953 O 1339.73 1.09282 5.91896 0
M  V30 13954 H 1343.56 1.50526 2.63772 0
M  V30 13955 H 1341.14 0.796847 1.26375 0
M  V30 13956 H 1343.03 -0.38893 4.19601 0
M  V30 13957 H 1341.7 -0.892778 3.11145 0
M  V30 13958 H 1340.61 1.39655 3.47055 0
M  V30 13959 H 1341.94 1.81915 4.57349 0
M  V30 13960 N 1343.59 -1.35528 0.804364 0
M  V30 13961 C 1344.84 -1.99126 0.384261 0
M  V30 13962 C 1345.17 -1.63668 -1.0453 0
M  V30 13963 O 1344.45 -0.898896 -1.72482 0
M  V30 13964 C 1344.73 -3.55636 0.565278 0
M  V30 13965 C 1344.58 -4.00899 2.03961 0
M  V30 13966 C 1345.9 -4.40099 -0.0104301 0
M  V30 13967 H 1343.02 -0.723369 0.141092 0
M  V30 13968 H 1345.66 -1.60712 1.01348 0
M  V30 13969 H 1343.81 -3.88489 0.0296425 0
M  V30 13970 H 1345.48 -3.78465 2.63746 0
M  V30 13971 H 1343.73 -3.5189 2.53685 0
M  V30 13972 H 1344.4 -5.09785 2.11716 0
M  V30 13973 H 1346.87 -4.13692 0.446985 0
M  V30 13974 H 1345.75 -5.48705 0.146155 0
M  V30 13975 H 1346.01 -4.28096 -1.10392 0
M  V30 13976 N 1345.07 -0.557671 -1.47404 0
M  V30 13977 C 1346.32 -0.0338384 -2.02772 0
M  V30 13978 C 1346.65 1.31278 -1.43107 0
M  V30 13979 O 1345.93 1.85436 -0.58682 0
M  V30 13980 C 1346.21 0.0587427 -3.60052 0
M  V30 13981 C 1346.06 -1.315 -4.30148 0
M  V30 13982 C 1347.38 0.771942 -4.33277 0
M  V30 13983 H 1344.5 -0.0137711 -0.736871 0
M  V30 13984 H 1347.14 -0.720049 -1.75827 0
M  V30 13985 H 1345.29 0.643154 -3.83139 0
M  V30 13986 H 1346.96 -1.94265 -4.184 0
M  V30 13987 H 1345.21 -1.88956 -3.90484 0
M  V30 13988 H 1345.88 -1.20294 -5.38733 0
M  V30 13989 H 1348.35 0.275729 -4.15185 0
M  V30 13990 H 1347.23 0.805683 -5.42955 0
M  V30 13991 H 1347.49 1.82816 -4.0253 0
M  V30 13992 N 1346.55 1.54831 -0.294147 0
M  V30 13993 C 1347.46 2.26939 0.594621 0
M  V30 13994 C 1348.48 1.30209 1.15419 0
M  V30 13995 O 1349.65 1.6318 1.18044 0
M  V30 13996 C 1346.72 2.9909 1.75345 0
M  V30 13997 C 1345.78 4.11342 1.22865 0
M  V30 13998 C 1345.01 4.80043 2.33225 0
M  V30 13999 O 1345.23 4.48062 3.52983 0
M  V30 14000 O 1344.17 5.67593 2.00304 0
M  V30 14001 H 1347.99 3.03698 0.00989235 0
M  V30 14002 H 1345.58 1.49276 -0.0608528 0
M  V30 14003 H 1347.46 3.44369 2.42875 0
M  V30 14004 H 1346.14 2.25232 2.32492 0
M  V30 14005 H 1345.04 3.70478 0.519279 0
M  V30 14006 H 1346.38 4.87158 0.702703 0
M  V30 14007 N 1348.03 0.0217466 1.57585 0
M  V30 14008 C 1348.96 -0.997112 2.05263 0
M  V30 14009 C 1349.94 -1.32186 0.946873 0
M  V30 14010 O 1351.12 -1.43979 1.21665 0
M  V30 14011 C 1348.25 -2.3191 2.46851 0
M  V30 14012 C 1347.3 -2.14948 3.68375 0
M  V30 14013 S 1348.13 -1.45517 5.15349 0
M  V30 14014 C 1349.28 -2.79101 5.60226 0
M  V30 14015 H 1349.52 -0.591229 2.91362 0
M  V30 14016 H 1347.05 -0.189741 1.5323 0
M  V30 14017 H 1349.01 -3.07913 2.71477 0
M  V30 14018 H 1347.67 -2.69633 1.61112 0
M  V30 14019 H 1346.86 -3.12661 3.95296 0
M  V30 14020 H 1346.46 -1.47088 3.43862 0
M  V30 14021 H 1348.76 -3.75357 5.64015 0
M  V30 14022 H 1349.7 -2.56853 6.59873 0
M  V30 14023 H 1350.11 -2.84009 4.87851 0
M  V30 14024 N 1349.51 -1.55583 -0.251311 0
M  V30 14025 C 1350.75 -1.77471 -0.981418 0
M  V30 14026 C 1351.08 -0.586228 -1.85141 0
M  V30 14027 O 1350.36 0.415623 -1.90007 0
M  V30 14028 C 1350.64 -3.09204 -1.84567 0
M  V30 14029 C 1350.5 -4.38448 -1.00417 0
M  V30 14030 C 1351.81 -3.37133 -2.82895 0
M  V30 14031 H 1348.93 -0.645664 -0.355369 0
M  V30 14032 H 1351.58 -1.88318 -0.252228 0
M  V30 14033 H 1349.73 -3.00087 -2.46738 0
M  V30 14034 H 1351.4 -4.5955 -0.40149 0
M  V30 14035 H 1349.64 -4.32703 -0.308365 0
M  V30 14036 H 1350.31 -5.26995 -1.64258 0
M  V30 14037 H 1352.79 -3.46183 -2.3086 0
M  V30 14038 H 1351.66 -4.30531 -3.40491 0
M  V30 14039 H 1351.92 -2.57829 -3.59133 0
M  V30 14040 N 1350.98 0.516783 -1.48886 0
M  V30 14041 C 1351.89 1.6467 -1.67095 0
M  V30 14042 C 1352.91 1.64963 -0.553466 0
M  V30 14043 O 1354.09 1.83673 -0.826206 0
M  V30 14044 C 1351.15 3.01095 -1.71879 0
M  V30 14045 C 1350.21 3.11554 -2.95352 0
M  V30 14046 C 1349.44 4.41471 -2.99898 0
M  V30 14047 O 1349.67 5.29348 -2.12477 0
M  V30 14048 O 1348.6 4.56573 -3.92205 0
M  V30 14049 H 1352.43 1.52242 -2.62785 0
M  V30 14050 H 1350.01 0.69134 -1.32442 0
M  V30 14051 H 1351.89 3.82207 -1.77471 0
M  V30 14052 H 1350.57 3.1382 -0.793656 0
M  V30 14053 H 1349.48 2.29689 -2.95286 0
M  V30 14054 H 1350.81 3.03751 -3.87294 0
M  V30 14055 N 1352.46 1.37696 0.766659 0
M  V30 14056 C 1353.41 1.33966 1.90147 0
M  V30 14057 C 1354.4 0.2276 1.67864 0
M  V30 14058 O 1355.61 0.395912 1.75592 0
M  V30 14059 H 1351.98 0.417611 0.625384 0
M  V30 14060 H 1353.96 2.29753 1.9041 0
M  V30 14061 C 1352.7 1.16859 3.27474 0
M  V30 14062 H 1352.03 2.01686 3.452 0
M  V30 14063 H 1353.47 1.18301 4.07162 0
M  V30 14064 C 1351.93 -0.125418 3.36666 0
M  V30 14065 O 1352.46 -1.10717 3.86141 0
M  V30 14066 N 1350.66 -0.17784 2.90055 0
M  V30 14067 H 1350.21 0.621737 2.49984 0
M  V30 14068 H 1350.17 -1.04325 2.96587 0
M  V30 14069 N 1353.94 -0.993397 1.22349 0
M  V30 14070 C 1355.22 -1.7063 0.956275 0
M  V30 14071 C 1355.6 -2.0437 -0.52877 0
M  V30 14072 O 1354.94 -1.72662 -1.49667 0
M  V30 14073 C 1355.15 -2.95725 1.85331 0
M  V30 14074 C 1356.5 -3.68514 2.10909 0
M  V30 14075 O 1357.53 -3.05732 1.82775 0
M  V30 14076 O 1356.39 -4.81468 2.58556 0
M  V30 14077 H 1353.48 -0.744734 0.359583 0
M  V30 14078 H 1356.03 -1.04979 1.33333 0
M  V30 14079 H 1354.8 -2.6729 2.85782 0
M  V30 14080 H 1354.42 -3.69116 1.47781 0
M  V30 14081 N 1355.42 -1.03311 -1.19015 0
M  V30 14082 C 1356.67 -0.727266 -1.88132 0
M  V30 14083 C 1356.98 0.747488 -1.80754 0
M  V30 14084 O 1358.19 1.16654 -2.45161 0
M  V30 14085 C 1356.64 -1.25056 -3.37474 0
M  V30 14086 C 1356.25 -2.7534 -3.534 0
M  V30 14087 C 1357.99 -1.02091 -4.12041 0
M  V30 14088 C 1355.9 -3.21066 -4.96659 0
M  V30 14089 H 1354.83 -0.268349 -0.704631 0
M  V30 14090 H 1357.48 -1.24795 -1.3453 0
M  V30 14091 H 1355.86 -0.65777 -3.90499 0
M  V30 14092 H 1357.04 -3.40311 -3.10684 0
M  V30 14093 H 1355.35 -2.96633 -2.92229 0
M  V30 14094 H 1357.95 -1.33777 -5.17695 0
M  V30 14095 H 1358.29 0.0421413 -4.16279 0
M  V30 14096 H 1358.83 -1.57792 -3.65166 0
M  V30 14097 H 1355.56 -4.26719 -4.97586 0
M  V30 14098 H 1355.08 -2.60826 -5.4012 0
M  V30 14099 H 1356.76 -3.14651 -5.65335 0
M  V30 14100 N 1356.9 1.35099 -0.81154 0
M  V30 14101 C 1358.12 2.03391 -0.405805 0
M  V30 14102 C 1358.55 1.60745 0.97686 0
M  V30 14103 O 1357.9 0.786518 1.63351 0
M  V30 14104 C 1357.95 3.57075 -0.502954 0
M  V30 14105 O 1357.06 4.09577 0.481681 0
M  V30 14106 H 1356.4 0.642203 -0.168733 0
M  V30 14107 H 1358.93 1.72591 -1.0988 0
M  V30 14108 H 1358.94 4.06277 -0.37456 0
M  V30 14109 H 1357.61 3.87463 -1.51145 0
M  V30 14110 H 1356.19 3.71583 0.313115 0
M  V30 14111 N 1358.37 0.56548 1.47106 0
M  V30 14112 C 1359.34 -0.167191 2.28589 0
M  V30 14113 C 1360.34 -0.835005 1.3742 0
M  V30 14114 O 1361.53 -0.689598 1.59969 0
M  V30 14115 C 1358.66 -1.24548 3.17333 0
M  V30 14116 H 1359.85 0.548677 2.94838 0
M  V30 14117 H 1357.4 0.322749 1.52931 0
M  V30 14118 H 1358.14 -1.99348 2.55794 0
M  V30 14119 H 1357.92 -0.771335 3.84438 0
M  V30 14120 H 1359.41 -1.75985 3.78707 0
M  V30 14121 N 1359.85 -1.54672 0.302354 0
M  V30 14122 C 1361.1 -2.00167 -0.306524 0
M  V30 14123 C 1361.43 -1.19073 -1.53791 0
M  V30 14124 O 1360.68 -0.255328 -1.94027 0
M  V30 14125 C 1360.98 -3.5035 -0.70638 0
M  V30 14126 C 1360.65 -4.48907 0.423429 0
M  V30 14127 C 1359.31 -4.75575 0.733586 0
M  V30 14128 C 1361.66 -5.07588 1.18338 0
M  V30 14129 C 1358.99 -5.58186 1.80679 0
M  V30 14130 C 1361.34 -5.91367 2.24651 0
M  V30 14131 C 1360.01 -6.16345 2.56272 0
M  V30 14132 H 1359.28 -0.732462 -0.112165 0
M  V30 14133 H 1361.92 -1.86798 0.421732 0
M  V30 14134 H 1360.23 -3.61335 -1.51474 0
M  V30 14135 H 1361.92 -3.82977 -1.18869 0
M  V30 14136 H 1358.51 -4.28256 0.171591 0
M  V30 14137 H 1362.7 -4.86985 0.957018 0
M  V30 14138 H 1357.95 -5.75776 2.05649 0
M  V30 14139 H 1362.13 -6.35862 2.83994 0
M  V30 14140 H 1359.76 -6.80148 3.39563 0
M  V30 14141 N 1361.33 -0.0301034 -1.57571 0
M  V30 14142 C 1362.56 0.658488 -1.96142 0
M  V30 14143 C 1362.97 1.65606 -0.906644 0
M  V30 14144 O 1362.33 1.82159 0.111441 0
M  V30 14145 C 1362.38 1.364 -3.34779 0
M  V30 14146 O 1362.1 0.4064 -4.36211 0
M  V30 14147 C 1363.6 2.14432 -3.87987 0
M  V30 14148 H 1360.82 0.181496 -0.645988 0
M  V30 14149 H 1363.37 -0.09016 -2.04301 0
M  V30 14150 H 1361.52 2.06404 -3.27836 0
M  V30 14151 H 1361.94 0.907503 -5.16589 0
M  V30 14152 H 1363.41 2.59248 -4.87334 0
M  V30 14153 H 1363.89 2.98377 -3.22285 0
M  V30 14154 H 1364.49 1.49383 -3.98202 0
M  V30 14155 N 1362.81 1.55714 0.243056 0
M  V30 14156 C 1364.04 1.81522 0.986577 0
M  V30 14157 C 1364.45 0.604051 1.79298 0
M  V30 14158 O 1363.79 -0.43674 1.78433 0
M  V30 14159 C 1363.85 3.0074 1.96967 0
M  V30 14160 C 1363.52 4.3661 1.34983 0
M  V30 14161 C 1364.51 5.14456 0.7504 0
M  V30 14162 C 1362.2 4.83311 1.36805 0
M  V30 14163 C 1364.19 6.37153 0.177438 0
M  V30 14164 C 1361.88 6.05956 0.791233 0
M  V30 14165 C 1362.88 6.82716 0.196959 0
M  V30 14166 O 1362.56 8.03044 -0.370938 0
M  V30 14167 H 1362.3 0.607864 0.295765 0
M  V30 14168 H 1364.85 2.03617 0.270018 0
M  V30 14169 H 1363.08 2.74409 2.72464 0
M  V30 14170 H 1364.77 3.13606 2.57694 0
M  V30 14171 H 1365.54 4.79493 0.728809 0
M  V30 14172 H 1361.41 4.23553 1.81999 0
M  V30 14173 H 1364.96 6.97009 -0.287042 0
M  V30 14174 H 1360.86 6.40396 0.810164 0
M  V30 14175 H 1361.62 8.18077 -0.263173 0
M  V30 14176 N 1364.29 -0.50888 1.49158 0
M  V30 14177 C 1365.2 -1.63782 1.67966 0
M  V30 14178 C 1366.21 -1.64667 0.562207 0
M  V30 14179 O 1367.39 -1.83232 0.835935 0
M  V30 14180 C 1364.45 -3.00179 1.73474 0
M  V30 14181 C 1363.51 -3.09983 2.97 0
M  V30 14182 C 1362.75 -4.39875 3.02235 0
M  V30 14183 O 1362.97 -5.28214 2.15282 0
M  V30 14184 O 1361.9 -4.54486 3.94621 0
M  V30 14185 H 1365.73 -1.50846 2.63589 0
M  V30 14186 H 1363.32 -0.684306 1.32807 0
M  V30 14187 H 1365.2 -3.8126 1.79495 0
M  V30 14188 H 1363.87 -3.13394 0.810287 0
M  V30 14189 H 1362.78 -2.28119 2.965 0
M  V30 14190 H 1364.11 -3.01693 3.88899 0
M  V30 14191 N 1365.76 -1.381 -0.759346 0
M  V30 14192 C 1367.18 -1.19171 -1.06162 0
M  V30 14193 C 1367.38 -0.0364043 -2.01467 0
M  V30 14194 O 1366.44 0.619635 -2.44779 0
M  V30 14195 C 1367.75 -2.51569 -1.64723 0
M  V30 14196 C 1369.3 -2.58201 -1.76921 0
M  V30 14197 C 1369.77 -3.9076 -2.38894 0
M  V30 14198 N 1371.26 -3.92269 -2.46331 0
M  V30 14199 C 1372 -4.91595 -2.95164 0
M  V30 14200 N 1371.49 -6.01318 -3.44075 0
M  V30 14201 N 1373.29 -4.7899 -2.94152 0
M  V30 14202 H 1365.44 -2.12021 -0.126788 0
M  V30 14203 H 1367.7 -0.940517 -0.118877 0
M  V30 14204 H 1367.41 -3.36535 -1.02162 0
M  V30 14205 H 1367.28 -2.69551 -2.6386 0
M  V30 14206 H 1369.67 -1.73634 -2.38611 0
M  V30 14207 H 1369.75 -2.44092 -0.765047 0
M  V30 14208 H 1369.39 -4.75747 -1.7784 0
M  V30 14209 H 1369.32 -4.02179 -3.39941 0
M  V30 14210 H 1371.81 -3.13015 -2.11731 0
M  V30 14211 H 1372.13 -6.73046 -3.79776 0
M  V30 14212 H 1370.47 -6.04946 -3.42148 0
M  V30 14213 H 1373.66 -3.92385 -2.55248 0
M  V30 14214 H 1373.84 -5.5655 -3.31897 0
M  V30 14215 N 1367.24 0.986894 -1.22875 0
M  V30 14216 C 1368.47 1.76266 -1.08342 0
M  V30 14217 C 1368.89 1.85226 0.365602 0
M  V30 14218 O 1368.24 1.32675 1.25314 0
M  V30 14219 C 1368.29 3.19282 -1.69533 0
M  V30 14220 O 1368.01 3.10796 -3.08768 0
M  V30 14221 C 1369.52 4.13281 -1.60355 0
M  V30 14222 H 1366.74 0.553374 -0.379497 0
M  V30 14223 H 1369.28 1.24033 -1.62592 0
M  V30 14224 H 1367.43 3.68563 -1.19332 0
M  V30 14225 H 1367.85 4.0078 -3.38343 0
M  V30 14226 H 1369.32 5.11359 -2.07884 0
M  V30 14227 H 1369.8 4.356 -0.561182 0
M  V30 14228 H 1370.41 3.699 -2.09891 0
M  V30 14229 N 1368.72 1.0394 1.18466 0
M  V30 14230 C 1369.65 0.650182 2.24265 0
M  V30 14231 C 1370.63 -0.345968 1.66545 0
M  V30 14232 O 1371.82 -0.226348 1.92876 0
M  V30 14233 C 1368.95 0.0110451 3.47298 0
M  V30 14234 C 1367.9 0.930599 4.17761 0
M  V30 14235 C 1367.23 0.156005 5.34472 0
M  V30 14236 C 1368.53 2.24913 4.71393 0
M  V30 14237 H 1370.22 1.53465 2.57078 0
M  V30 14238 H 1367.77 0.739343 1.23571 0
M  V30 14239 H 1369.72 -0.272959 4.20515 0
M  V30 14240 H 1368.44 -0.908288 3.13716 0
M  V30 14241 H 1367.1 1.19897 3.4644 0
M  V30 14242 H 1366.75 -0.765695 4.97138 0
M  V30 14243 H 1366.45 0.768606 5.82551 0
M  V30 14244 H 1367.97 -0.121011 6.1048 0
M  V30 14245 H 1369.39 2.02592 5.36311 0
M  V30 14246 H 1367.79 2.81459 5.30001 0
M  V30 14247 H 1368.86 2.8965 3.88884 0
M  V30 14248 N 1370.2 -1.34667 0.818693 0
M  V30 14249 C 1371.13 -2.27466 0.182904 0
M  V30 14250 C 1372.11 -1.48682 -0.65821 0
M  V30 14251 O 1373.29 -1.77912 -0.622868 0
M  V30 14252 C 1370.42 -3.30406 -0.744971 0
M  V30 14253 C 1369.47 -4.26496 0.018069 0
M  V30 14254 S 1370.3 -5.1788 1.36236 0
M  V30 14255 C 1371.46 -6.24357 0.43925 0
M  V30 14256 H 1371.69 -2.81042 0.969668 0
M  V30 14257 H 1369.22 -1.4165 0.614372 0
M  V30 14258 H 1371.18 -3.90205 -1.27478 0
M  V30 14259 H 1369.84 -2.75684 -1.50522 0
M  V30 14260 H 1369.03 -4.99294 -0.687141 0
M  V30 14261 H 1368.64 -3.70929 0.478291 0
M  V30 14262 H 1370.93 -6.76484 -0.370837 0
M  V30 14263 H 1371.87 -6.98916 1.13678 0
M  V30 14264 H 1372.28 -5.64492 0.0295605 0
M  V30 14265 N 1371.68 -0.573274 -1.46804 0
M  V30 14266 C 1372.61 0.213527 -2.27199 0
M  V30 14267 C 1373.59 0.905598 -1.35047 0
M  V30 14268 O 1374.77 0.921377 -1.64447 0
M  V30 14269 C 1371.9 1.30556 -3.12527 0
M  V30 14270 C 1370.94 0.720331 -4.20373 0
M  V30 14271 S 1371.78 -0.445518 -5.33644 0
M  V30 14272 C 1372.93 0.64794 -6.22537 0
M  V30 14273 H 1373.17 -0.468642 -2.93583 0
M  V30 14274 H 1370.7 -0.359949 -1.50146 0
M  V30 14275 H 1372.66 1.93086 -3.62254 0
M  V30 14276 H 1371.32 1.95963 -2.45474 0
M  V30 14277 H 1370.51 1.54089 -4.79867 0
M  V30 14278 H 1370.11 0.170885 -3.73609 0
M  V30 14279 H 1372.41 1.53602 -6.59858 0
M  V30 14280 H 1373.35 0.0899764 -7.08043 0
M  V30 14281 H 1373.76 0.94784 -5.56486 0
M  V30 14282 N 1373.15 1.5451 -0.310553 0
M  V30 14283 C 1374.06 2.27557 0.570518 0
M  V30 14284 C 1375.08 1.31426 1.14032 0
M  V30 14285 O 1376.26 1.64423 1.16306 0
M  V30 14286 C 1373.32 3.00933 1.72163 0
M  V30 14287 C 1372.38 4.12623 1.18495 0
M  V30 14288 C 1371.62 4.8249 2.28121 0
M  V30 14289 O 1371.84 4.5178 3.48211 0
M  V30 14290 O 1370.77 5.69686 1.94273 0
M  V30 14291 H 1374.6 3.03692 -0.0223195 0
M  V30 14292 H 1372.18 1.49203 -0.0766821 0
M  V30 14293 H 1374.07 3.46925 2.39208 0
M  V30 14294 H 1372.74 2.27685 2.3009 0
M  V30 14295 H 1371.65 3.71008 0.479956 0
M  V30 14296 H 1372.98 4.87876 0.650994 0
M  V30 14297 N 1374.63 0.0384594 1.57553 0
M  V30 14298 C 1375.57 -0.969185 2.077 0
M  V30 14299 C 1376.58 -1.2829 1.00227 0
M  V30 14300 O 1377.77 -1.24592 1.27824 0
M  V30 14301 C 1374.87 -2.29414 2.49444 0
M  V30 14302 C 1374.04 -2.16422 3.80106 0
M  V30 14303 C 1373.1 -3.31931 4.08299 0
M  V30 14304 O 1372.13 -3.08401 4.78412 0
M  V30 14305 N 1373.33 -4.56015 3.59208 0
M  V30 14306 H 1376.09 -0.541252 2.94772 0
M  V30 14307 H 1373.65 -0.148084 1.61221 0
M  V30 14308 H 1375.65 -3.05533 2.6539 0
M  V30 14309 H 1374.22 -2.63817 1.67688 0
M  V30 14310 H 1373.44 -1.24973 3.73866 0
M  V30 14311 H 1374.72 -2.04954 4.65694 0
M  V30 14312 H 1374.12 -4.78025 3.02503 0
M  V30 14313 H 1372.68 -5.29271 3.80415 0
M  V30 14314 N 1376.11 -1.55841 -0.234795 0
M  V30 14315 C 1377.53 -1.48536 -0.583885 0
M  V30 14316 C 1377.73 -0.731018 -1.87772 0
M  V30 14317 O 1376.78 -0.265287 -2.51103 0
M  V30 14318 C 1378.1 -2.93017 -0.675389 0
M  V30 14319 C 1379.64 -3.03459 -0.766906 0
M  V30 14320 C 1380.12 -4.49272 -0.889868 0
M  V30 14321 N 1381.61 -4.5326 -0.95443 0
M  V30 14322 C 1382.35 -5.63346 -1.06905 0
M  V30 14323 N 1381.84 -6.83215 -1.14845 0
M  V30 14324 N 1383.63 -5.51169 -1.10315 0
M  V30 14325 H 1375.79 -2.0332 0.614405 0
M  V30 14326 H 1378.05 -0.923581 0.213779 0
M  V30 14327 H 1377.75 -3.51099 0.205493 0
M  V30 14328 H 1377.63 -3.4418 -1.54337 0
M  V30 14329 H 1380.02 -2.4545 -1.63823 0
M  V30 14330 H 1380.1 -2.55487 0.126472 0
M  V30 14331 H 1379.74 -5.07895 -0.0230489 0
M  V30 14332 H 1379.67 -4.94937 -1.79847 0
M  V30 14333 H 1382.16 -3.6693 -0.903923 0
M  V30 14334 H 1382.47 -7.62863 -1.23532 0
M  V30 14335 H 1380.82 -6.85952 -1.11781 0
M  V30 14336 H 1384.01 -4.56453 -1.03769 0
M  V30 14337 H 1384.18 -6.36998 -1.18903 0
M  V30 14338 N 1377.59 0.500963 -1.49426 0
M  V30 14339 C 1378.81 1.28383 -1.62888 0
M  V30 14340 C 1379.24 1.85688 -0.300262 0
M  V30 14341 O 1378.6 1.6586 0.73212 0
M  V30 14342 C 1378.65 2.38987 -2.70033 0
M  V30 14343 O 1377.75 3.42837 -2.29208 0
M  V30 14344 H 1377.09 0.379012 -0.545202 0
M  V30 14345 H 1379.62 0.59971 -1.95613 0
M  V30 14346 H 1379.63 2.84749 -2.92202 0
M  V30 14347 H 1378.31 1.96643 -3.66475 0
M  V30 14348 H 1376.88 3.02993 -2.1737 0
M  V30 14349 N 1379.07 1.38501 0.752011 0
M  V30 14350 C 1380 1.31746 1.87551 0
M  V30 14351 C 1381.01 0.229386 1.61176 0
M  V30 14352 O 1382.2 0.487066 1.71726 0
M  V30 14353 C 1379.3 1.01889 3.23221 0
M  V30 14354 C 1378.47 2.21637 3.77088 0
M  V30 14355 C 1377.53 1.885 4.91278 0
M  V30 14356 O 1376.56 2.61011 5.05828 0
M  V30 14357 N 1377.76 0.840909 5.74377 0
M  V30 14358 H 1380.53 2.28561 1.93856 0
M  V30 14359 H 1378.09 1.32383 0.932013 0
M  V30 14360 H 1380.08 0.777704 3.97157 0
M  V30 14361 H 1378.65 0.138658 3.12292 0
M  V30 14362 H 1377.87 2.61812 2.947 0
M  V30 14363 H 1379.16 3.01551 4.0981 0
M  V30 14364 H 1378.56 0.23962 5.65192 0
M  V30 14365 H 1377.11 0.659604 6.48454 0
M  V30 14366 N 1380.55 -0.980364 1.23396 0
M  V30 14367 C 1381.48 -2.07099 0.958403 0
M  V30 14368 C 1382.46 -1.62272 -0.1033 0
M  V30 14369 O 1383.64 -1.88475 0.0309639 0
M  V30 14370 C 1380.77 -3.35779 0.443864 0
M  V30 14371 C 1379.81 -3.99545 1.49218 0
M  V30 14372 S 1380.65 -4.3879 3.06958 0
M  V30 14373 C 1381.8 -5.70624 2.57174 0
M  V30 14374 H 1382.04 -2.30154 1.88192 0
M  V30 14375 H 1379.57 -1.11656 1.06641 0
M  V30 14376 H 1381.53 -4.10213 0.153603 0
M  V30 14377 H 1380.19 -3.10732 -0.458738 0
M  V30 14378 H 1379.38 -4.92242 1.0823 0
M  V30 14379 H 1378.98 -3.31489 1.73179 0
M  V30 14380 H 1381.27 -6.47555 1.99197 0
M  V30 14381 H 1382.22 -6.16454 3.48411 0
M  V30 14382 H 1382.63 -5.28626 1.98028 0
M  V30 14383 N 1382.02 -1.04567 -1.17913 0
M  V30 14384 C 1382.95 -0.662066 -2.23917 0
M  V30 14385 C 1383.93 0.33713 -1.66726 0
M  V30 14386 O 1385.12 0.216116 -1.92994 0
M  V30 14387 C 1382.25 -0.029463 -3.47288 0
M  V30 14388 C 1381.2 -0.95274 -4.17261 0
M  V30 14389 C 1380.53 -0.184347 -5.34382 0
M  V30 14390 C 1381.83 -2.2741 -4.70194 0
M  V30 14391 H 1383.52 -1.54826 -2.5626 0
M  V30 14392 H 1381.07 -0.745886 -1.23177 0
M  V30 14393 H 1383.02 0.250654 -4.20654 0
M  V30 14394 H 1381.75 0.891638 -3.14193 0
M  V30 14395 H 1380.41 -1.21732 -3.45799 0
M  V30 14396 H 1380.05 0.73932 -4.97537 0
M  V30 14397 H 1379.75 -0.79949 -5.82136 0
M  V30 14398 H 1381.28 0.0886344 -6.10536 0
M  V30 14399 H 1382.69 -2.05433 -5.35229 0
M  V30 14400 H 1381.09 -2.84265 -5.28501 0
M  V30 14401 H 1382.16 -2.91708 -3.87342 0
M  V30 14402 N 1383.5 1.34231 -0.825823 0
M  V30 14403 C 1384.45 2.29467 -0.247724 0
M  V30 14404 C 1385.42 1.53724 0.629127 0
M  V30 14405 O 1386.6 1.82082 0.570156 0
M  V30 14406 C 1383.74 3.40157 0.582012 0
M  V30 14407 C 1382.86 4.30832 -0.317406 0
M  V30 14408 C 1381.99 5.28627 0.522176 0
M  V30 14409 C 1381.03 6.10941 -0.376448 0
M  V30 14410 N 1380.17 7.00817 0.424232 0
M  V30 14411 H 1385.01 2.78311 -1.06521 0
M  V30 14412 H 1382.54 1.36956 -0.536788 0
M  V30 14413 H 1384.5 4.03021 1.07843 0
M  V30 14414 H 1383.13 2.92539 1.36459 0
M  V30 14415 H 1382.18 3.68805 -0.932054 0
M  V30 14416 H 1383.5 4.88503 -1.00826 0
M  V30 14417 H 1382.65 5.96957 1.08295 0
M  V30 14418 H 1381.39 4.71501 1.24652 0
M  V30 14419 H 1380.39 5.41542 -0.94934 0
M  V30 14420 H 1381.62 6.70149 -1.09895 0
M  V30 14421 H 1379.57 6.46156 1.1322 0
M  V30 14422 H 1379.48 7.55713 -0.208175 0
M  V30 14423 H 1380.75 7.7347 0.967664 0
M  V30 14424 N 1384.98 0.581051 1.46498 0
M  V30 14425 C 1385.91 -0.19094 2.28403 0
M  V30 14426 C 1386.92 -0.857039 1.38415 0
M  V30 14427 O 1388.11 -0.726881 1.6303 0
M  V30 14428 C 1385.21 -1.28972 3.134 0
M  V30 14429 C 1384.39 -0.715867 4.31502 0
M  V30 14430 C 1383.45 -1.70215 4.97909 0
M  V30 14431 O 1382.47 -1.23885 5.55555 0
M  V30 14432 N 1383.67 -3.0362 4.94768 0
M  V30 14433 H 1386.44 0.511754 2.95298 0
M  V30 14434 H 1384 0.41871 1.56392 0
M  V30 14435 H 1385.99 -1.94877 3.5469 0
M  V30 14436 H 1384.56 -1.8953 2.4859 0
M  V30 14437 H 1383.78 0.120591 3.94016 0
M  V30 14438 H 1385.07 -0.312226 5.07841 0
M  V30 14439 H 1384.47 -3.43885 4.49177 0
M  V30 14440 H 1383.02 -3.65018 5.40005 0
M  V30 14441 N 1386.46 -1.54343 0.318742 0
M  V30 14442 C 1387.39 -2.20392 -0.591833 0
M  V30 14443 C 1388.37 -1.17931 -1.11942 0
M  V30 14444 O 1389.55 -1.4665 -1.18432 0
M  V30 14445 C 1386.68 -2.8618 -1.81159 0
M  V30 14446 C 1385.73 -4.02319 -1.41568 0
M  V30 14447 S 1386.56 -5.33551 -0.456481 0
M  V30 14448 C 1387.71 -6.02831 -1.68363 0
M  V30 14449 H 1387.95 -2.97284 -0.0307625 0
M  V30 14450 H 1385.48 -1.54057 0.102835 0
M  V30 14451 H 1387.44 -3.24707 -2.51148 0
M  V30 14452 H 1386.1 -2.091 -2.34384 0
M  V30 14453 H 1385.29 -4.47197 -2.32445 0
M  V30 14454 H 1384.89 -3.65441 -0.795535 0
M  V30 14455 H 1387.19 -6.24716 -2.62175 0
M  V30 14456 H 1388.13 -6.96488 -1.27709 0
M  V30 14457 H 1388.54 -5.32682 -1.86841 0
M  V30 14458 N 1387.94 -0.0468143 -1.5753 0
M  V30 14459 C 1388.87 0.958157 -2.08211 0
M  V30 14460 C 1389.88 1.27757 -1.00906 0
M  V30 14461 O 1391.07 1.23913 -1.28483 0
M  V30 14462 C 1388.17 2.28088 -2.50657 0
M  V30 14463 C 1387.34 2.14403 -3.81248 0
M  V30 14464 C 1386.4 3.29761 -4.10054 0
M  V30 14465 O 1385.43 3.05859 -4.8004 0
M  V30 14466 N 1386.63 4.54104 -3.61621 0
M  V30 14467 H 1389.39 0.525612 -2.95055 0
M  V30 14468 H 1386.96 0.139532 -1.61298 0
M  V30 14469 H 1388.95 3.04121 -2.67007 0
M  V30 14470 H 1387.52 2.62924 -1.69085 0
M  V30 14471 H 1386.74 1.22988 -3.74523 0
M  V30 14472 H 1388.03 2.02482 -4.66775 0
M  V30 14473 H 1387.42 4.76414 -3.05034 0
M  V30 14474 H 1385.98 5.27246 -3.83217 0
M  V30 14475 N 1389.41 1.55964 0.226527 0
M  V30 14476 C 1390.34 1.95028 1.284 0
M  V30 14477 C 1391.33 0.817833 1.49149 0
M  V30 14478 O 1392.51 1.07975 1.61416 0
M  V30 14479 C 1389.64 2.26266 2.63478 0
M  V30 14480 C 1388.59 3.41954 2.57393 0
M  V30 14481 C 1387.92 3.58786 3.96456 0
M  V30 14482 C 1389.22 4.77069 2.12608 0
M  V30 14483 H 1390.91 2.83608 0.959513 0
M  V30 14484 H 1388.46 1.36451 0.460125 0
M  V30 14485 H 1390.41 2.52186 3.3761 0
M  V30 14486 H 1389.14 1.34533 2.97604 0
M  V30 14487 H 1387.8 3.16076 1.85719 0
M  V30 14488 H 1387.44 2.64437 4.27881 0
M  V30 14489 H 1387.14 4.36595 3.93267 0
M  V30 14490 H 1388.67 3.87048 4.72256 0
M  V30 14491 H 1390.08 5.02226 2.76481 0
M  V30 14492 H 1388.48 5.58126 2.2049 0
M  V30 14493 H 1389.55 4.7276 1.07823 0
M  V30 14494 N 1390.89 -0.493031 1.4969 0
M  V30 14495 C 1392.12 -1.27517 1.63567 0
M  V30 14496 C 1392.54 -1.85526 0.310105 0
M  V30 14497 O 1391.9 -1.66246 -0.723314 0
M  V30 14498 C 1391.95 -2.37551 2.71296 0
M  V30 14499 O 1391.05 -3.41617 2.31023 0
M  V30 14500 H 1390.39 -0.376116 0.547205 0
M  V30 14501 H 1392.92 -0.589328 1.95929 0
M  V30 14502 H 1392.93 -2.83196 2.93708 0
M  V30 14503 H 1391.61 -1.94697 3.67513 0
M  V30 14504 H 1390.19 -3.01836 2.18974 0
M  V30 14505 N 1392.37 -1.38898 -0.744656 0
M  V30 14506 C 1393.32 -1.36845 -1.85855 0
M  V30 14507 C 1394.29 -0.2296 -1.64505 0
M  V30 14508 O 1395.47 -0.423221 -1.86047 0
M  V30 14509 C 1392.61 -1.20818 -3.2326 0
M  V30 14510 C 1391.73 -2.44166 -3.5638 0
M  V30 14511 C 1390.86 -2.20801 -4.83136 0
M  V30 14512 C 1389.9 -3.39874 -5.0907 0
M  V30 14513 N 1389.04 -3.15888 -6.27024 0
M  V30 14514 H 1393.88 -2.32068 -1.86945 0
M  V30 14515 H 1391.41 -1.15289 -0.913611 0
M  V30 14516 H 1393.37 -1.0954 -4.02563 0
M  V30 14517 H 1392 -0.292295 -3.21474 0
M  V30 14518 H 1391.05 -2.66083 -2.71852 0
M  V30 14519 H 1392.37 -3.32885 -3.71469 0
M  V30 14520 H 1391.52 -2.0671 -5.704 0
M  V30 14521 H 1390.26 -1.29462 -4.70203 0
M  V30 14522 H 1389.26 -3.54474 -4.20271 0
M  V30 14523 H 1390.49 -4.32102 -5.23894 0
M  V30 14524 H 1388.43 -2.27204 -6.15398 0
M  V30 14525 H 1388.35 -3.9816 -6.42655 0
M  V30 14526 H 1389.62 -3.0547 -7.17153 0
M  V30 14527 N 1393.85 0.973806 -1.23914 0
M  V30 14528 C 1394.8 2.08861 -1.02372 0
M  V30 14529 C 1395.79 1.69354 0.039415 0
M  V30 14530 O 1397 1.79635 -0.114637 0
M  V30 14531 H 1393.37 0.683313 -0.313986 0
M  V30 14532 H 1395.34 2.24195 -1.96924 0
M  V30 14533 C 1394.09 3.41784 -0.638661 0
M  V30 14534 H 1393.41 3.72639 -1.44846 0
M  V30 14535 H 1394.85 4.20706 -0.527487 0
M  V30 14536 C 1393.31 3.30497 0.65369 0
M  V30 14537 O 1393.84 3.63905 1.70107 0
M  V30 14538 N 1392.05 2.83642 0.632104 0
M  V30 14539 H 1391.6 2.56654 -0.220571 0
M  V30 14540 H 1391.55 2.76472 1.49701 0
M  V30 14541 N 1395.33 1.05191 1.17357 0
M  V30 14542 C 1396.24 0.663617 2.25018 0
M  V30 14543 C 1397.25 -0.315299 1.71119 0
M  V30 14544 O 1398.43 -0.167398 2.00703 0
M  V30 14545 C 1395.49 0.0443307 3.46672 0
M  V30 14546 C 1394.55 1.07369 4.15656 0
M  V30 14547 C 1393.79 0.483864 5.31502 0
M  V30 14548 O 1394.01 -0.706692 5.66005 0
M  V30 14549 O 1392.94 1.21812 5.89445 0
M  V30 14550 H 1396.77 1.56088 2.60519 0
M  V30 14551 H 1394.36 0.823474 1.24657 0
M  V30 14552 H 1396.24 -0.299839 4.20332 0
M  V30 14553 H 1394.91 -0.826579 3.12969 0
M  V30 14554 H 1393.82 1.46985 3.44015 0
M  V30 14555 H 1395.15 1.91575 4.53387 0
M  V30 14556 N 1396.8 -1.33791 0.83293 0
M  V30 14557 C 1397.74 -2.28148 0.219336 0
M  V30 14558 C 1398.75 -1.51477 -0.596529 0
M  V30 14559 O 1399.94 -1.73377 -0.424571 0
M  V30 14560 C 1397.04 -3.31373 -0.710305 0
M  V30 14561 C 1396.21 -4.37352 0.0649215 0
M  V30 14562 C 1395.27 -5.20279 -0.78716 0
M  V30 14563 O 1394.3 -5.68741 -0.228511 0
M  V30 14564 N 1395.5 -5.40973 -2.10544 0
M  V30 14565 H 1398.26 -2.81443 1.03004 0
M  V30 14566 H 1395.82 -1.46421 0.690831 0
M  V30 14567 H 1397.82 -3.83752 -1.28517 0
M  V30 14568 H 1396.39 -2.78398 -1.42173 0
M  V30 14569 H 1395.61 -3.85553 0.821144 0
M  V30 14570 H 1396.89 -5.05271 0.598199 0
M  V30 14571 H 1396.29 -5.03291 -2.58292 0
M  V30 14572 H 1394.85 -5.96432 -2.62893 0
M  V30 14573 N 1398.28 -0.588812 -1.46187 0
M  V30 14574 C 1399.19 0.143253 -2.34162 0
M  V30 14575 C 1400.21 0.879779 -1.5012 0
M  V30 14576 O 1401.38 0.841592 -1.82973 0
M  V30 14577 C 1398.45 1.14017 -3.27416 0
M  V30 14578 C 1397.51 0.407651 -4.2736 0
M  V30 14579 C 1396.74 1.35708 -5.16158 0
M  V30 14580 O 1396.97 2.59394 -5.08007 0
M  V30 14581 O 1395.9 0.864343 -5.95662 0
M  V30 14582 H 1399.73 -0.579228 -2.98125 0
M  V30 14583 H 1397.31 -0.349174 -1.45262 0
M  V30 14584 H 1399.19 1.71484 -3.8493 0
M  V30 14585 H 1397.87 1.84401 -2.66041 0
M  V30 14586 H 1396.78 -0.209011 -3.73516 0
M  V30 14587 H 1398.11 -0.255334 -4.91537 0
M  V30 14588 N 1399.76 1.54172 -0.326923 0
M  V30 14589 C 1401.18 1.59579 0.0256055 0
M  V30 14590 C 1401.38 1.34337 1.50186 0
M  V30 14591 O 1400.43 1.12945 2.25831 0
M  V30 14592 C 1401.75 2.98086 -0.395641 0
M  V30 14593 C 1403.29 3.11075 -0.346579 0
M  V30 14594 C 1403.77 4.51932 -0.743039 0
M  V30 14595 N 1405.26 4.57932 -0.696575 0
M  V30 14596 C 1405.99 5.65041 -0.975493 0
M  V30 14597 N 1405.49 6.80075 -1.32172 0
M  V30 14598 N 1407.28 5.54835 -0.900831 0
M  V30 14599 H 1399.43 1.68836 -1.28872 0
M  V30 14600 H 1401.7 0.789858 -0.52424 0
M  V30 14601 H 1401.4 3.21568 -1.42431 0
M  V30 14602 H 1401.28 3.76451 0.237645 0
M  V30 14603 H 1403.66 2.87326 0.672889 0
M  V30 14604 H 1403.75 2.34807 -1.01484 0
M  V30 14605 H 1403.39 4.76415 -1.76044 0
M  V30 14606 H 1403.32 5.26574 -0.0524263 0
M  V30 14607 H 1405.81 3.75318 -0.440969 0
M  V30 14608 H 1406.12 7.57708 -1.51983 0
M  V30 14609 H 1404.47 6.81563 -1.36001 0
M  V30 14610 H 1407.66 4.63844 -0.629812 0
M  V30 14611 H 1407.83 6.3822 -1.12156 0
M  V30 14612 N 1401.24 0.0551678 1.57503 0
M  V30 14613 C 1402.15 -0.932959 2.15251 0
M  V30 14614 C 1403.16 -1.33885 1.11134 0
M  V30 14615 O 1404.34 -1.41495 1.43321 0
M  V30 14616 C 1401.41 -2.18807 2.68932 0
M  V30 14617 C 1400.47 -1.84016 3.87862 0
M  V30 14618 C 1399.7 -3.03543 4.38973 0
M  V30 14619 O 1399.92 -4.17041 3.89144 0
M  V30 14620 O 1398.86 -2.84325 5.30512 0
M  V30 14621 H 1402.68 -0.471816 3.00013 0
M  V30 14622 H 1400.27 -0.16696 1.48464 0
M  V30 14623 H 1402.15 -2.92439 3.0341 0
M  V30 14624 H 1400.82 -2.64051 1.87239 0
M  V30 14625 H 1399.73 -1.07687 3.58266 0
M  V30 14626 H 1401.06 -1.43567 4.70796 0
M  V30 14627 N 1402.72 -1.56081 -0.218252 0
M  V30 14628 C 1403.68 -1.91851 -1.25402 0
M  V30 14629 C 1404.68 -0.797399 -1.39636 0
M  V30 14630 O 1405.87 -1.06511 -1.37844 0
M  V30 14631 C 1403 -2.17223 -2.6273 0
M  V30 14632 H 1404.19 -2.84493 -0.948882 0
M  V30 14633 H 1401.75 -1.49414 -0.458809 0
M  V30 14634 H 1402.48 -1.27144 -2.98337 0
M  V30 14635 H 1402.27 -2.98899 -2.53775 0
M  V30 14636 H 1403.76 -2.45981 -3.37466 0
M  V30 14637 N 1404.2 0.485086 -1.49949 0
M  V30 14638 C 1405.13 1.60191 -1.63926 0
M  V30 14639 C 1406.14 1.5423 -0.521256 0
M  V30 14640 O 1407.33 1.59872 -0.79392 0
M  V30 14641 C 1404.43 2.99035 -1.59472 0
M  V30 14642 C 1403.6 3.30014 -2.87071 0
M  V30 14643 C 1402.66 4.48345 -2.75451 0
M  V30 14644 O 1401.69 4.49342 -3.494 0
M  V30 14645 N 1402.89 5.49192 -1.88064 0
M  V30 14646 H 1405.65 1.48622 -2.60253 0
M  V30 14647 H 1403.22 0.673258 -1.47237 0
M  V30 14648 H 1405.21 3.76142 -1.4933 0
M  V30 14649 H 1403.78 3.04445 -0.709373 0
M  V30 14650 H 1403 2.41652 -3.11445 0
M  V30 14651 H 1404.29 3.47515 -3.71632 0
M  V30 14652 H 1403.68 5.51198 -1.2727 0
M  V30 14653 H 1402.24 6.25338 -1.83835 0
M  V30 14654 N 1405.67 1.39291 0.737279 0
M  V30 14655 C 1406.6 1.40562 1.86452 0
M  V30 14656 C 1407.58 0.269283 1.67955 0
M  V30 14657 O 1408.77 0.474769 1.88307 0
M  V30 14658 C 1405.9 1.2461 3.24175 0
M  V30 14659 C 1404.85 2.35619 3.57306 0
M  V30 14660 C 1404.18 2.04758 4.93941 0
M  V30 14661 C 1405.48 3.77927 3.60512 0
M  V30 14662 H 1407.17 2.34896 1.85646 0
M  V30 14663 H 1404.72 1.13065 0.891756 0
M  V30 14664 H 1406.67 1.2412 4.02706 0
M  V30 14665 H 1405.4 0.267438 3.25503 0
M  V30 14666 H 1404.06 2.35322 2.81104 0
M  V30 14667 H 1403.7 1.05336 4.91847 0
M  V30 14668 H 1403.4 2.79117 5.17076 0
M  V30 14669 H 1404.93 2.05915 5.74832 0
M  V30 14670 H 1406.34 3.80166 4.29123 0
M  V30 14671 H 1404.74 4.51626 3.95164 0
M  V30 14672 H 1405.81 4.09068 2.60368 0
M  V30 14673 N 1407.15 -0.967221 1.24429 0
M  V30 14674 C 1408.4 -1.70458 1.07829 0
M  V30 14675 C 1408.71 -1.91818 -0.38278 0
M  V30 14676 O 1409.92 -2.63129 -0.668982 0
M  V30 14677 C 1408.38 -3.06817 1.88125 0
M  V30 14678 C 1407.98 -2.93298 3.38645 0
M  V30 14679 C 1409.73 -3.84422 1.80056 0
M  V30 14680 C 1407.63 -4.2497 4.11284 0
M  V30 14681 H 1406.56 -0.639217 0.399897 0
M  V30 14682 H 1409.22 -1.07776 1.48515 0
M  V30 14683 H 1407.6 -3.70331 1.40254 0
M  V30 14684 H 1408.77 -2.38793 3.94099 0
M  V30 14685 H 1407.09 -2.29159 3.47671 0
M  V30 14686 H 1409.68 -4.81925 2.31629 0
M  V30 14687 H 1410.03 -4.09194 0.765908 0
M  V30 14688 H 1410.56 -3.27636 2.2561 0
M  V30 14689 H 1407.3 -4.05391 5.1511 0
M  V30 14690 H 1406.82 -4.79288 3.60615 0
M  V30 14691 H 1408.5 -4.93586 4.18308 0
M  V30 14692 N 1408.63 -1.05812 -1.16797 0
M  V30 14693 C 1409.58 -0.634669 -2.18988 0
M  V30 14694 C 1410.56 0.332122 -1.57435 0
M  V30 14695 O 1411.76 0.148346 -1.76377 0
M  V30 14696 C 1408.88 -0.0174742 -3.43296 0
M  V30 14697 C 1407.97 -1.00847 -4.11935 0
M  V30 14698 N 1408.36 -2.18223 -4.56303 0
M  V30 14699 C 1406.66 -0.838325 -4.3805 0
M  V30 14700 C 1407.36 -2.80967 -5.09345 0
M  V30 14701 N 1406.34 -2.08725 -5.01931 0
M  V30 14702 H 1410.14 -1.52888 -2.51003 0
M  V30 14703 H 1407.65 -0.929125 -1.33195 0
M  V30 14704 H 1409.65 0.303692 -4.15792 0
M  V30 14705 H 1408.31 0.872052 -3.1277 0
M  V30 14706 H 1409.32 -2.56025 -4.5019 0
M  V30 14707 H 1406 -0.000376066 -4.175 0
M  V30 14708 H 1407.39 -3.80541 -5.53749 0
M  V30 14709 N 1410.11 1.33347 -0.840014 0
M  V30 14710 C 1411.38 1.92293 -0.358158 0
M  V30 14711 C 1411.76 1.76594 1.15662 0
M  V30 14712 O 1411.11 1.15503 1.97158 0
M  V30 14713 C 1411.32 3.39558 -0.806329 0
M  V30 14714 C 1412.67 4.16705 -0.81501 0
M  V30 14715 O 1413.69 3.48214 -0.75001 0
M  V30 14716 O 1412.55 5.38974 -0.903818 0
M  V30 14717 H 1409.65 0.820737 -0.101585 0
M  V30 14718 H 1412.19 1.42213 -0.925942 0
M  V30 14719 H 1410.97 3.44861 -1.84897 0
M  V30 14720 H 1410.59 3.97017 -0.215181 0
M  V30 14721 N 1411.59 0.596556 1.45873 0
M  V30 14722 C 1413 0.259317 1.57479 0
M  V30 14723 C 1413.2 -1.23829 1.58961 0
M  V30 14724 O 1412.26 -2.02076 1.51399 0
M  V30 14725 C 1413.57 0.920755 2.86256 0
M  V30 14726 C 1415.12 0.895638 2.99912 0
M  V30 14727 C 1415.59 1.53688 4.31444 0
M  V30 14728 N 1417.08 1.50186 4.38176 0
M  V30 14729 C 1417.82 1.96727 5.38596 0
M  V30 14730 N 1417.32 2.51304 6.45615 0
M  V30 14731 N 1419.11 1.87561 5.29884 0
M  V30 14732 H 1411.26 1.56909 1.43155 0
M  V30 14733 H 1413.52 0.656664 0.683737 0
M  V30 14734 H 1413.23 1.97481 2.91023 0
M  V30 14735 H 1413.1 0.437331 3.74656 0
M  V30 14736 H 1415.49 -0.149838 2.94719 0
M  V30 14737 H 1415.57 1.41722 2.12952 0
M  V30 14738 H 1415.21 2.58163 4.37395 0
M  V30 14739 H 1415.14 0.990408 5.17203 0
M  V30 14740 H 1417.64 1.10305 3.61443 0
M  V30 14741 H 1417.95 2.84639 7.18471 0
M  V30 14742 H 1416.29 2.55337 6.46396 0
M  V30 14743 H 1419.48 1.4467 4.45183 0
M  V30 14744 H 1419.66 2.24146 6.07999 0
M  V30 14745 N 1413.06 -1.53996 0.335095 0
M  V30 14746 C 1414.01 -2.26221 -0.541007 0
M  V30 14747 C 1415.01 -1.28053 -1.109 0
M  V30 14748 O 1416.21 -1.4579 -1.05571 0
M  V30 14749 H 1412.59 -0.726775 -0.193136 0
M  V30 14750 H 1414.56 -2.98263 0.0902792 0
M  V30 14751 C 1413.31 -3.04173 -1.68445 0
M  V30 14752 H 1412.63 -3.79537 -1.25665 0
M  V30 14753 H 1414.07 -3.57937 -2.27282 0
M  V30 14754 C 1412.53 -2.13162 -2.6089 0
M  V30 14755 O 1413.06 -1.7221 -3.62914 0
M  V30 14756 N 1411.26 -1.78414 -2.29384 0
M  V30 14757 H 1410.81 -2.11914 -1.46458 0
M  V30 14758 H 1410.77 -1.178 -2.91497 0
M  V30 14759 N 1414.54 -0.0635198 -1.57472 0
M  V30 14760 C 1415.77 0.616735 -1.97494 0
M  V30 14761 C 1416.18 1.63646 -0.941568 0
M  V30 14762 O 1415.54 1.82355 0.0727768 0
M  V30 14763 C 1415.59 1.29268 -3.37597 0
M  V30 14764 O 1415.31 0.313781 -4.36975 0
M  V30 14765 C 1416.81 2.06154 -3.92448 0
M  V30 14766 H 1414.03 0.167753 -0.649692 0
M  V30 14767 H 1416.58 -0.133475 -2.04064 0
M  V30 14768 H 1414.73 1.99404 -3.3214 0
M  V30 14769 H 1415.15 0.797723 -5.18398 0
M  V30 14770 H 1416.62 2.48853 -4.92723 0
M  V30 14771 H 1417.1 2.91474 -3.28541 0
M  V30 14772 H 1417.7 1.40903 -4.01281 0
M  V30 14773 N 1416.02 1.56195 0.209972 0
M  V30 14774 C 1416.98 1.92514 1.24383 0
M  V30 14775 C 1417.98 0.804793 1.39211 0
M  V30 14776 O 1419.17 1.0724 1.37278 0
M  V30 14777 C 1416.3 2.18613 2.61574 0
M  V30 14778 H 1417.5 2.84992 0.933781 0
M  V30 14779 H 1415.05 1.49656 0.450878 0
M  V30 14780 H 1415.79 1.28724 2.97659 0
M  V30 14781 H 1415.57 3.00241 2.52186 0
M  V30 14782 H 1417.06 2.47767 3.36156 0
M  V30 14783 N 1417.5 -0.477127 1.50204 0
M  V30 14784 C 1418.72 -1.25775 1.6491 0
M  V30 14785 C 1419.15 -1.85187 0.329765 0
M  V30 14786 O 1418.51 -1.67004 -0.705641 0
M  V30 14787 C 1418.55 -2.3466 2.73801 0
M  V30 14788 O 1417.66 -3.39147 2.34634 0
M  V30 14789 H 1417 -0.370291 0.551163 0
M  V30 14790 H 1419.53 -0.568514 1.96543 0
M  V30 14791 H 1419.54 -2.80065 2.96695 0
M  V30 14792 H 1418.21 -1.90788 3.69557 0
M  V30 14793 H 1416.79 -2.99496 2.22163 0
M  V30 14794 N 1418.98 -1.3968 -0.729882 0
M  V30 14795 C 1419.93 -1.35296 -1.83518 0
M  V30 14796 C 1420.91 -0.232935 -1.59205 0
M  V30 14797 O 1422.1 -0.470887 -1.70621 0
M  V30 14798 C 1419.23 -1.20383 -3.21501 0
M  V30 14799 C 1418.32 -2.37108 -3.51626 0
M  V30 14800 N 1418.71 -3.62585 -3.52655 0
M  V30 14801 C 1417.01 -2.30177 -3.82014 0
M  V30 14802 C 1417.71 -4.39803 -3.8072 0
M  V30 14803 N 1416.68 -3.69456 -3.98752 0
M  V30 14804 H 1420.49 -2.30271 -1.82627 0
M  V30 14805 H 1418 -1.33249 -0.92836 0
M  V30 14806 H 1420 -1.15325 -4.00632 0
M  V30 14807 H 1418.66 -0.263628 -3.23628 0
M  V30 14808 H 1419.67 -3.9594 -3.33845 0
M  V30 14809 H 1416.34 -1.44446 -3.91716 0
M  V30 14810 H 1417.73 -5.4859 -3.87941 0
M  V30 14811 N 1420.45 0.960609 -1.2494 0
M  V30 14812 C 1421.68 1.73928 -1.12057 0
M  V30 14813 C 1422.1 1.8596 0.32623 0
M  V30 14814 O 1421.45 1.35303 1.22472 0
M  V30 14815 C 1421.51 3.15614 -1.76267 0
M  V30 14816 O 1421.23 3.04177 -3.15291 0
M  V30 14817 C 1422.73 4.09786 -1.69086 0
M  V30 14818 H 1419.95 0.5452 -0.39115 0
M  V30 14819 H 1422.49 1.20556 -1.65186 0
M  V30 14820 H 1420.65 3.65949 -1.27123 0
M  V30 14821 H 1421.06 3.93513 -3.46768 0
M  V30 14822 H 1422.53 5.06835 -2.18683 0
M  V30 14823 H 1423.01 4.34312 -0.653453 0
M  V30 14824 H 1423.62 3.65365 -2.1769 0
M  V30 14825 N 1421.93 1.0643 1.16234 0
M  V30 14826 C 1422.9 0.680383 2.18869 0
M  V30 14827 C 1423.9 -0.274591 1.58438 0
M  V30 14828 O 1425.09 -0.0567907 1.74107 0
M  V30 14829 C 1422.22 0.00134091 3.409 0
M  V30 14830 H 1423.41 1.58894 2.54347 0
M  V30 14831 H 1420.96 0.859688 1.30534 0
M  V30 14832 H 1421.7 -0.919903 3.1098 0
M  V30 14833 H 1421.48 0.688057 3.86016 0
M  V30 14834 H 1422.97 -0.252938 4.16833 0
M  V30 14835 N 1423.41 -1.329 0.847073 0
M  V30 14836 C 1424.37 -2.27341 0.291324 0
M  V30 14837 C 1425.37 -1.51295 -0.544653 0
M  V30 14838 O 1426.56 -1.70497 -0.357258 0
M  V30 14839 C 1423.7 -3.35779 -0.588668 0
M  V30 14840 H 1424.89 -2.78009 1.12477 0
M  V30 14841 H 1422.44 -1.43442 0.620803 0
M  V30 14842 H 1423.18 -2.90366 -1.44423 0
M  V30 14843 H 1422.96 -3.92099 0.00960515 0
M  V30 14844 H 1424.45 -4.06166 -0.970526 0
M  V30 14845 N 1424.89 -0.604284 -1.45555 0
M  V30 14846 C 1425.85 0.106526 -2.28952 0
M  V30 14847 C 1426.85 0.798277 -1.39586 0
M  V30 14848 O 1428.04 0.646943 -1.61741 0
M  V30 14849 C 1425.17 1.16091 -3.20524 0
M  V30 14850 H 1426.37 -0.626655 -2.9328 0
M  V30 14851 H 1423.92 -0.363183 -1.52022 0
M  V30 14852 H 1424.65 1.92496 -2.6099 0
M  V30 14853 H 1424.44 0.669137 -3.86348 0
M  V30 14854 H 1425.93 1.65882 -3.8324 0
M  V30 14855 N 1426.37 1.53816 -0.343257 0
M  V30 14856 C 1427.33 2.23654 0.501161 0
M  V30 14857 C 1428.33 1.23664 1.02781 0
M  V30 14858 O 1429.52 1.48104 0.917103 0
M  V30 14859 C 1426.65 2.95596 1.69812 0
M  V30 14860 H 1427.84 2.997 -0.109626 0
M  V30 14861 H 1425.4 1.56013 -0.0946011 0
M  V30 14862 H 1426.13 2.23736 2.34761 0
M  V30 14863 H 1425.92 3.68938 1.32768 0
M  V30 14864 H 1427.41 3.48748 2.29706 0
M  V30 14865 N 1427.84 0.0718701 1.57436 0
M  V30 14866 C 1429.26 -0.28476 1.57039 0
M  V30 14867 C 1429.46 -1.70032 1.08127 0
M  V30 14868 O 1428.52 -2.41191 0.747189 0
M  V30 14869 C 1429.83 -0.0943482 3.00552 0
M  V30 14870 C 1431.38 -0.163879 3.12571 0
M  V30 14871 C 1431.85 -0.00174658 4.58 0
M  V30 14872 N 1433.34 -0.0573489 4.63164 0
M  V30 14873 C 1434.08 0.0436849 5.73383 0
M  V30 14874 N 1433.57 0.198243 6.92516 0
M  V30 14875 N 1435.37 -0.0133856 5.62098 0
M  V30 14876 H 1427.52 0.99702 1.87545 0
M  V30 14877 H 1429.78 0.388822 0.864593 0
M  V30 14878 H 1429.49 0.882445 3.40449 0
M  V30 14879 H 1429.36 -0.846636 3.67576 0
M  V30 14880 H 1431.75 -1.13116 2.7256 0
M  V30 14881 H 1431.83 0.619513 2.48185 0
M  V30 14882 H 1431.47 0.9623 4.98701 0
M  V30 14883 H 1431.4 -0.804543 5.20418 0
M  V30 14884 H 1433.89 -0.175212 3.77494 0
M  V30 14885 H 1434.21 0.267479 7.72337 0
M  V30 14886 H 1432.55 0.233606 6.94607 0
M  V30 14887 H 1435.74 -0.132835 4.67911 0
M  V30 14888 H 1435.92 0.0688076 6.47963 0
M  V30 14889 N 1429.32 -1.56304 -0.201686 0
M  V30 14890 C 1430.55 -1.84341 -0.939465 0
M  V30 14891 C 1430.97 -0.653544 -1.77128 0
M  V30 14892 O 1430.32 0.377813 -1.78546 0
M  V30 14893 C 1430.37 -3.11111 -1.84098 0
M  V30 14894 O 1430.09 -4.25509 -1.04276 0
M  V30 14895 C 1431.6 -3.52279 -2.69099 0
M  V30 14896 H 1428.82 -0.61232 -0.274419 0
M  V30 14897 H 1431.36 -2.03409 -0.210924 0
M  V30 14898 H 1429.51 -2.9396 -2.52322 0
M  V30 14899 H 1429.93 -4.97655 -1.6565 0
M  V30 14900 H 1431.4 -4.43965 -3.28023 0
M  V30 14901 H 1431.88 -2.74959 -3.42482 0
M  V30 14902 H 1432.49 -3.71939 -2.06256 0
M  V30 14903 N 1430.8 0.469154 -1.50455 0
M  V30 14904 C 1431.73 1.58443 -1.65615 0
M  V30 14905 C 1432.75 1.53668 -0.537584 0
M  V30 14906 O 1433.93 1.59021 -0.810832 0
M  V30 14907 C 1431.03 2.97327 -1.62634 0
M  V30 14908 C 1430.21 3.2695 -2.90555 0
M  V30 14909 C 1429.27 4.45398 -2.80191 0
M  V30 14910 O 1428.29 4.45611 -3.54146 0
M  V30 14911 N 1429.49 5.47167 -1.93878 0
M  V30 14912 H 1432.26 1.45854 -2.61814 0
M  V30 14913 H 1429.82 0.657604 -1.47943 0
M  V30 14914 H 1431.81 3.74537 -1.53311 0
M  V30 14915 H 1430.38 3.03675 -0.741624 0
M  V30 14916 H 1429.6 2.38335 -3.13991 0
M  V30 14917 H 1430.89 3.43554 -3.75297 0
M  V30 14918 H 1430.29 5.49817 -1.33109 0
M  V30 14919 H 1428.85 6.23353 -1.90457 0
M  V30 14920 N 1432.28 1.40065 0.722464 0
M  V30 14921 C 1433.24 1.39544 1.81825 0
M  V30 14922 C 1434.24 0.290385 1.58156 0
M  V30 14923 O 1435.43 0.54894 1.65325 0
M  V30 14924 C 1432.56 1.18041 3.19811 0
M  V30 14925 H 1433.76 2.37063 1.83687 0
M  V30 14926 H 1431.31 1.25813 0.927404 0
M  V30 14927 H 1432.04 0.212536 3.23603 0
M  V30 14928 H 1431.83 1.98079 3.38389 0
M  V30 14929 H 1433.32 1.20447 3.99853 0
M  V30 14930 N 1433.76 -0.95397 1.25448 0
M  V30 14931 C 1435.17 -1.51337 1.09335 0
M  V30 14932 C 1435.52 -1.93393 -0.330698 0
M  V30 14933 O 1434.64 -1.78681 -1.22074 0
M  V30 14934 C 1435.24 -2.75024 1.97857 0
M  V30 14935 C 1433.8 -3.27274 1.85927 0
M  V30 14936 C 1432.95 -2.00108 1.91969 0
M  V30 14937 H 1435.9 -0.770795 1.38724 0
M  V30 14938 H 1435.92 -3.48867 1.51894 0
M  V30 14939 H 1435.43 -2.44383 3.01494 0
M  V30 14940 H 1433.53 -3.62734 0.851767 0
M  V30 14941 H 1433.64 -3.95245 2.70773 0
M  V30 14942 H 1432.01 -2.15438 1.35862 0
M  V30 14943 H 1432.79 -1.71816 2.97211 0
M  V30 14944 N 1435.24 -1.07045 -1.15668 0
M  V30 14945 C 1436.65 -0.814932 -1.67975 0
M  V30 14946 C 1437 0.660408 -1.84751 0
M  V30 14947 O 1436.12 1.51156 -1.54857 0
M  V30 14948 C 1436.72 -1.47274 -3.05116 0
M  V30 14949 C 1435.28 -1.26481 -3.54513 0
M  V30 14950 C 1434.42 -1.54439 -2.30312 0
M  V30 14951 H 1437.37 -1.23291 -0.999251 0
M  V30 14952 H 1437.4 -0.892244 -3.69891 0
M  V30 14953 H 1436.91 -2.54649 -2.92874 0
M  V30 14954 H 1435.01 -0.211138 -3.72001 0
M  V30 14955 H 1435.12 -1.98283 -4.36143 0
M  V30 14956 H 1433.49 -0.965269 -2.357 0
M  V30 14957 H 1434.27 -2.6299 -2.20661 0
M  V30 14958 N 1436.71 1.32449 -0.85411 0
M  V30 14959 C 1437.94 2.01463 -0.471188 0
M  V30 14960 C 1438.36 1.64195 0.931954 0
M  V30 14961 O 1437.71 0.862994 1.60806 0
M  V30 14962 C 1437.76 3.56486 -0.600022 0
M  V30 14963 O 1437.49 3.92414 -1.94789 0
M  V30 14964 C 1438.99 4.42773 -0.216036 0
M  V30 14965 H 1436.21 0.644914 -0.185275 0
M  V30 14966 H 1438.75 1.6904 -1.1509 0
M  V30 14967 H 1436.91 3.87387 0.0319488 0
M  V30 14968 H 1437.32 4.87133 -1.94427 0
M  V30 14969 H 1438.79 5.50843 -0.357186 0
M  V30 14970 H 1439.27 4.31025 0.843468 0
M  V30 14971 H 1439.88 4.1726 -0.823058 0
M  V30 14972 N 1438.19 0.611994 1.45232 0
M  V30 14973 C 1439.6 0.193464 1.85695 0
M  V30 14974 C 1439.95 -1.25069 1.5117 0
M  V30 14975 O 1439.08 -1.94894 0.940497 0
M  V30 14976 C 1439.67 0.344334 3.37046 0
M  V30 14977 C 1438.23 -0.0195378 3.76395 0
M  V30 14978 C 1437.38 0.666714 2.69166 0
M  V30 14979 H 1440.33 0.818395 1.35971 0
M  V30 14980 H 1440.35 -0.422209 3.7815 0
M  V30 14981 H 1439.86 1.3955 3.62143 0
M  V30 14982 H 1437.96 -1.06971 3.56915 0
M  V30 14983 H 1438.08 0.377184 4.77613 0
M  V30 14984 H 1436.44 0.103912 2.54488 0
M  V30 14985 H 1437.22 1.7201 2.97099 0
M  V30 14986 N 1439.67 -1.53632 0.351409 0
M  V30 14987 C 1440.95 -1.93311 -0.298362 0
M  V30 14988 C 1441.33 -1.28369 -1.67584 0
M  V30 14989 O 1440.67 -0.437514 -2.24272 0
M  V30 14990 C 1440.88 -3.47109 -0.362773 0
M  V30 14991 C 1442.23 -4.20197 -0.609878 0
M  V30 14992 O 1443.26 -3.53415 -0.444566 0
M  V30 14993 O 1442.12 -5.38517 -0.930691 0
M  V30 14994 H 1439.21 -0.808112 -0.175739 0
M  V30 14995 H 1441.76 -1.64841 0.40316 0
M  V30 14996 H 1440.53 -3.86617 0.60357 0
M  V30 14997 H 1440.15 -3.81769 -1.11076 0
M  V30 14998 N 1441.15 -0.0802183 -1.57396 0
M  V30 14999 C 1442.09 0.884041 -2.13198 0
M  V30 15000 C 1443.06 1.28975 -1.04664 0
M  V30 15001 O 1444.25 1.37413 -1.32372 0
M  V30 15002 C 1441.39 2.14323 -2.7048 0
M  V30 15003 C 1440.5 1.7894 -3.93198 0
M  V30 15004 C 1439.64 2.99534 -4.38695 0
M  V30 15005 C 1438.68 2.60207 -5.54039 0
M  V30 15006 N 1437.81 3.73587 -5.94455 0
M  V30 15007 H 1442.65 0.40131 -2.95285 0
M  V30 15008 H 1440.19 0.186429 -1.45914 0
M  V30 15009 H 1442.15 2.88046 -3.01804 0
M  V30 15010 H 1440.78 2.60122 -1.91144 0
M  V30 15011 H 1439.83 0.952465 -3.68283 0
M  V30 15012 H 1441.14 1.46012 -4.76951 0
M  V30 15013 H 1440.3 3.81526 -4.71724 0
M  V30 15014 H 1439.04 3.35661 -3.53812 0
M  V30 15015 H 1438.04 1.76638 -5.20652 0
M  V30 15016 H 1439.27 2.2524 -6.40659 0
M  V30 15017 H 1437.21 4.0946 -5.12521 0
M  V30 15018 H 1437.13 3.44455 -6.72969 0
M  V30 15019 H 1438.4 4.56133 -6.3211 0
M  V30 15020 N 1442.63 1.56409 0.193394 0
M  V30 15021 C 1443.87 1.80991 0.914875 0
M  V30 15022 C 1444.2 0.654538 1.82837 0
M  V30 15023 O 1443.48 -0.344816 1.91419 0
M  V30 15024 C 1443.76 3.15841 1.72964 0
M  V30 15025 C 1443.62 4.41873 0.840748 0
M  V30 15026 C 1444.93 3.474 2.70188 0
M  V30 15027 H 1442.05 0.658408 0.331161 0
M  V30 15028 H 1444.7 1.89125 0.182161 0
M  V30 15029 H 1442.85 3.09038 2.35431 0
M  V30 15030 H 1444.52 4.60723 0.230654 0
M  V30 15031 H 1442.76 4.33549 0.147558 0
M  V30 15032 H 1443.43 5.32728 1.44586 0
M  V30 15033 H 1445.91 3.54513 2.17852 0
M  V30 15034 H 1444.78 4.42872 3.24278 0
M  V30 15035 H 1445.04 2.7098 3.49317 0
M  V30 15036 N 1444.1 -0.461169 1.50702 0
M  V30 15037 C 1445.04 -1.57562 1.66453 0
M  V30 15038 C 1446.05 -1.53381 0.545726 0
M  V30 15039 O 1447.24 -1.58589 0.819254 0
M  V30 15040 C 1444.34 -2.9646 1.64209 0
M  V30 15041 C 1443.51 -3.25405 2.92285 0
M  V30 15042 C 1442.57 -4.43906 2.82549 0
M  V30 15043 O 1441.6 -4.43726 3.56505 0
M  V30 15044 N 1442.8 -5.46131 1.96777 0
M  V30 15045 H 1445.56 -1.44463 2.62584 0
M  V30 15046 H 1443.12 -0.649749 1.4829 0
M  V30 15047 H 1445.12 -3.73719 1.55295 0
M  V30 15048 H 1443.69 -3.03278 0.757718 0
M  V30 15049 H 1442.91 -2.36666 3.1525 0
M  V30 15050 H 1444.19 -3.41559 3.77114 0
M  V30 15051 H 1443.59 -5.49103 1.36023 0
M  V30 15052 H 1442.15 -6.22335 1.9376 0
M  V30 15053 N 1445.58 -1.40446 -0.715026 0
M  V30 15054 C 1446.51 -1.35159 -1.83868 0
M  V30 15055 C 1447.49 -0.221884 -1.61079 0
M  V30 15056 O 1448.68 -0.405635 -1.84084 0
M  V30 15057 C 1445.8 -1.10358 -3.20217 0
M  V30 15058 C 1444.85 -2.25787 -3.61832 0
M  V30 15059 S 1445.68 -3.88183 -3.68882 0
M  V30 15060 C 1446.84 -3.65647 -5.07989 0
M  V30 15061 H 1447.07 -2.30252 -1.88073 0
M  V30 15062 H 1444.6 -1.26738 -0.881859 0
M  V30 15063 H 1446.56 -0.967343 -3.9894 0
M  V30 15064 H 1445.22 -0.169178 -3.13644 0
M  V30 15065 H 1444.42 -2.04078 -4.60834 0
M  V30 15066 H 1444.02 -2.35717 -2.90368 0
M  V30 15067 H 1446.31 -3.24149 -5.94923 0
M  V30 15068 H 1447.25 -4.64182 -5.34734 0
M  V30 15069 H 1447.66 -2.99322 -4.78609 0
M  V30 15070 N 1447.06 0.947303 -1.25952 0
M  V30 15071 C 1448.29 1.7273 -1.13895 0
M  V30 15072 C 1448.7 1.86296 0.306488 0
M  V30 15073 O 1448.06 1.36594 1.2103 0
M  V30 15074 C 1448.11 3.13727 -1.79604 0
M  V30 15075 O 1447.83 3.00816 -3.18499 0
M  V30 15076 C 1449.33 4.0797 -1.73422 0
M  V30 15077 H 1446.55 0.54102 -0.39691 0
M  V30 15078 H 1449.1 1.18797 -1.66456 0
M  V30 15079 H 1447.25 3.6458 -1.30997 0
M  V30 15080 H 1447.67 3.89813 -3.50922 0
M  V30 15081 H 1449.14 5.04487 -2.24047 0
M  V30 15082 H 1449.62 4.33594 -0.699481 0
M  V30 15083 H 1450.22 3.63035 -2.21553 0
M  V30 15084 N 1448.54 1.07657 1.15099 0
M  V30 15085 C 1449.78 0.812636 1.86461 0
M  V30 15086 C 1450.14 -0.654311 1.80932 0
M  V30 15087 O 1449.43 -1.47429 1.22373 0
M  V30 15088 C 1449.63 1.25903 3.3449 0
M  V30 15089 C 1449.46 2.76783 3.54431 0
M  V30 15090 C 1448.23 3.44432 3.69722 0
M  V30 15091 C 1450.42 3.74974 3.51993 0
M  V30 15092 N 1448.41 4.83922 3.77747 0
M  V30 15093 C 1449.78 5.0032 3.66169 0
M  V30 15094 C 1451.83 3.68087 3.35285 0
M  V30 15095 C 1450.53 6.19598 3.65364 0
M  V30 15096 C 1452.56 4.86832 3.3578 0
M  V30 15097 C 1451.92 6.11013 3.50489 0
M  V30 15098 H 1448.02 0.349967 0.699319 0
M  V30 15099 H 1450.61 1.37343 1.38003 0
M  V30 15100 H 1448.78 0.725898 3.81556 0
M  V30 15101 H 1450.51 0.942315 3.93577 0
M  V30 15102 H 1447.26 2.94841 3.70629 0
M  V30 15103 H 1447.69 5.56527 3.85495 0
M  V30 15104 H 1452.33 2.73021 3.2283 0
M  V30 15105 H 1450.05 7.14982 3.76597 0
M  V30 15106 H 1453.63 4.83183 3.24076 0
M  V30 15107 H 1452.51 7.01358 3.50809 0
M  V30 15108 N 1450.02 -1.31994 0.861122 0
M  V30 15109 C 1451.24 -2.01211 0.481865 0
M  V30 15110 C 1451.66 -1.64687 -0.923233 0
M  V30 15111 O 1451.02 -0.87151 -1.60346 0
M  V30 15112 C 1451.07 -3.56162 0.618919 0
M  V30 15113 O 1450.79 -3.91376 1.96868 0
M  V30 15114 C 1452.29 -4.42652 0.239514 0
M  V30 15115 H 1449.51 -0.643922 0.188693 0
M  V30 15116 H 1452.05 -1.68427 1.15985 0
M  V30 15117 H 1450.21 -3.87398 -0.0114042 0
M  V30 15118 H 1450.62 -4.86095 1.97008 0
M  V30 15119 H 1452.1 -5.50646 0.386394 0
M  V30 15120 H 1452.57 -4.31466 -0.820598 0
M  V30 15121 H 1453.18 -4.16818 0.845175 0
M  V30 15122 N 1451.49 -0.619688 -1.44906 0
M  V30 15123 C 1452.91 -0.284338 -1.57047 0
M  V30 15124 C 1453.11 1.21284 -1.60911 0
M  V30 15125 O 1452.17 1.99642 -1.54594 0
M  V30 15126 C 1453.48 -0.966179 -2.84755 0
M  V30 15127 C 1455.03 -0.943239 -2.98449 0
M  V30 15128 C 1455.5 -1.60532 -4.28945 0
M  V30 15129 N 1456.99 -1.57138 -4.35732 0
M  V30 15130 C 1457.73 -2.05271 -5.35399 0
M  V30 15131 N 1457.22 -2.61543 -6.41535 0
M  V30 15132 N 1459.02 -1.95967 -5.26833 0
M  V30 15133 H 1451.17 -1.59167 -1.40641 0
M  V30 15134 H 1453.43 -0.667458 -0.673204 0
M  V30 15135 H 1453.14 -2.02086 -2.87844 0
M  V30 15136 H 1453.01 -0.49688 -3.73913 0
M  V30 15137 H 1455.4 0.102932 -2.9492 0
M  V30 15138 H 1455.48 -1.45092 -2.1067 0
M  V30 15139 H 1455.12 -2.65088 -4.33233 0
M  V30 15140 H 1455.05 -1.07256 -5.15561 0
M  V30 15141 H 1457.54 -1.16042 -3.59643 0
M  V30 15142 H 1457.86 -2.96033 -7.13852 0
M  V30 15143 H 1456.2 -2.65588 -6.42252 0
M  V30 15144 H 1459.39 -1.51734 -4.42825 0
M  V30 15145 H 1459.57 -2.33791 -6.04356 0
M  V30 15146 N 1452.97 1.53444 -0.359552 0
M  V30 15147 C 1453.88 2.29257 0.497834 0
M  V30 15148 C 1454.9 1.34987 1.09793 0
M  V30 15149 O 1456.07 1.68039 1.11017 0
M  V30 15150 C 1453.14 3.06258 1.62502 0
M  V30 15151 C 1452.2 4.16183 1.05308 0
M  V30 15152 C 1451.43 4.89503 2.12655 0
M  V30 15153 O 1451.66 4.6263 3.33661 0
M  V30 15154 O 1450.59 5.75578 1.76051 0
M  V30 15155 H 1454.42 3.03467 -0.118925 0
M  V30 15156 H 1452 1.48884 -0.124111 0
M  V30 15157 H 1453.88 3.5436 2.2805 0
M  V30 15158 H 1452.56 2.3489 2.22729 0
M  V30 15159 H 1451.47 3.72348 0.361679 0
M  V30 15160 H 1452.8 4.897 0.49545 0
M  V30 15161 N 1454.45 0.0885642 1.57351 0
M  V30 15162 C 1455.4 -0.872723 2.13664 0
M  V30 15163 C 1456.37 -1.28418 1.05347 0
M  V30 15164 O 1457.55 -1.36709 1.33099 0
M  V30 15165 C 1454.69 -2.12886 2.71613 0
M  V30 15166 C 1453.81 -1.76852 3.94141 0
M  V30 15167 C 1452.94 -2.97203 4.40277 0
M  V30 15168 C 1451.98 -2.57265 5.55411 0
M  V30 15169 N 1451.12 -3.70429 5.96428 0
M  V30 15170 H 1455.96 -0.385644 2.95494 0
M  V30 15171 H 1453.49 -0.178688 1.46011 0
M  V30 15172 H 1455.45 -2.86441 3.03327 0
M  V30 15173 H 1454.08 -2.59105 1.92521 0
M  V30 15174 H 1453.13 -0.932921 3.68783 0
M  V30 15175 H 1454.45 -1.43481 4.77718 0
M  V30 15176 H 1453.6 -3.79019 4.7374 0
M  V30 15177 H 1452.34 -3.3378 3.55587 0
M  V30 15178 H 1451.34 -1.73875 5.21582 0
M  V30 15179 H 1452.57 -2.21839 6.41844 0
M  V30 15180 H 1450.51 -4.06737 5.14686 0
M  V30 15181 H 1450.43 -3.40881 6.74786 0
M  V30 15182 H 1451.7 -4.52774 6.3452 0
M  V30 15183 N 1455.93 -1.56509 -0.185096 0
M  V30 15184 C 1456.86 -1.98363 -1.23184 0
M  V30 15185 C 1457.84 -0.85709 -1.46929 0
M  V30 15186 O 1459.02 -1.12216 -1.58497 0
M  V30 15187 C 1456.15 -2.33172 -2.57387 0
M  V30 15188 C 1455.11 -3.48658 -2.48236 0
M  V30 15189 C 1454.43 -3.69171 -3.86804 0
M  V30 15190 C 1455.73 -4.82538 -1.99885 0
M  V30 15191 H 1457.43 -2.86053 -0.883982 0
M  V30 15192 H 1454.97 -1.37623 -0.423786 0
M  V30 15193 H 1456.93 -2.61048 -3.30805 0
M  V30 15194 H 1455.65 -1.42377 -2.93933 0
M  V30 15195 H 1454.31 -3.20889 -1.77273 0
M  V30 15196 H 1453.96 -2.75689 -4.20719 0
M  V30 15197 H 1453.66 -4.46868 -3.81553 0
M  V30 15198 H 1455.18 -3.99433 -4.61829 0
M  V30 15199 H 1456.6 -5.0938 -2.63068 0
M  V30 15200 H 1454.99 -5.63775 -2.05614 0
M  V30 15201 H 1456.06 -4.75453 -0.952503 0
M  V30 15202 N 1457.41 0.45317 -1.50944 0
M  V30 15203 C 1458.66 1.20076 -1.62064 0
M  V30 15204 C 1458.97 1.92709 -0.335034 0
M  V30 15205 O 1460.17 2.69543 -0.32538 0
M  V30 15206 C 1458.63 2.18283 -2.86148 0
M  V30 15207 C 1458.24 1.5137 -4.21653 0
M  V30 15208 C 1459.98 2.93572 -3.0662 0
M  V30 15209 C 1457.89 2.47968 -5.36904 0
M  V30 15210 H 1456.82 0.451894 -0.603579 0
M  V30 15211 H 1459.47 0.46937 -1.77396 0
M  V30 15212 H 1457.85 2.94789 -2.64415 0
M  V30 15213 H 1459.03 0.805295 -4.53709 0
M  V30 15214 H 1457.34 0.882935 -4.06931 0
M  V30 15215 H 1459.94 3.65903 -3.89897 0
M  V30 15216 H 1460.28 3.54003 -2.1906 0
M  V30 15217 H 1460.81 2.24175 -3.28619 0
M  V30 15218 H 1457.55 1.92249 -6.26674 0
M  V30 15219 H 1457.07 3.16907 -5.09244 0
M  V30 15220 H 1458.75 3.09428 -5.6821 0
M  V30 15221 N 1458.88 1.40823 0.707568 0
M  V30 15222 C 1459.85 1.41464 1.80334 0
M  V30 15223 C 1460.85 0.307143 1.57839 0
M  V30 15224 O 1462.04 0.566444 1.64733 0
M  V30 15225 C 1459.17 1.21426 3.18541 0
M  V30 15226 H 1460.36 2.38998 1.81162 0
M  V30 15227 H 1457.92 1.2679 0.914007 0
M  V30 15228 H 1458.65 0.246847 3.23359 0
M  V30 15229 H 1458.44 2.01657 3.36269 0
M  V30 15230 H 1459.93 1.24681 3.98553 0
M  V30 15231 N 1460.36 -0.94061 1.26453 0
M  V30 15232 C 1461.27 -2.07298 1.09839 0
M  V30 15233 C 1462.29 -1.73971 0.0317477 0
M  V30 15234 O 1463.46 -2.00017 0.235594 0
M  V30 15235 C 1460.53 -3.38847 0.733736 0
M  V30 15236 C 1459.59 -3.85954 1.87985 0
M  V30 15237 C 1458.82 -5.11224 1.5325 0
M  V30 15238 O 1459.05 -5.68743 0.434491 0
M  V30 15239 O 1457.98 -5.53386 2.36743 0
M  V30 15240 H 1461.81 -2.24222 2.04837 0
M  V30 15241 H 1459.39 -1.05763 1.0552 0
M  V30 15242 H 1461.27 -4.17885 0.543131 0
M  V30 15243 H 1459.95 -3.2316 -0.186843 0
M  V30 15244 H 1458.86 -3.07858 2.12542 0
M  V30 15245 H 1460.19 -4.06162 2.78017 0
M  V30 15246 N 1461.84 -1.08266 -1.14527 0
M  V30 15247 C 1462.79 -0.711332 -2.19565 0
M  V30 15248 C 1463.76 0.301774 -1.63336 0
M  V30 15249 O 1464.94 0.186109 -1.8989 0
M  V30 15250 C 1462.08 -0.125255 -3.44873 0
M  V30 15251 C 1461.2 -1.19096 -4.15259 0
M  V30 15252 C 1460.33 -0.568901 -5.28145 0
M  V30 15253 C 1459.37 -1.61675 -5.90362 0
M  V30 15254 N 1458.51 -1.01659 -6.94701 0
M  V30 15255 H 1463.35 -1.61137 -2.50677 0
M  V30 15256 H 1460.88 -0.805286 -1.231 0
M  V30 15257 H 1462.84 0.232247 -4.16553 0
M  V30 15258 H 1461.47 0.738101 -3.14248 0
M  V30 15259 H 1460.52 -1.66591 -3.41982 0
M  V30 15260 H 1461.84 -1.98508 -4.57598 0
M  V30 15261 H 1460.99 -0.159563 -6.0649 0
M  V30 15262 H 1459.73 0.256884 -4.87023 0
M  V30 15263 H 1458.73 -2.03576 -5.10722 0
M  V30 15264 H 1459.96 -2.44498 -6.33559 0
M  V30 15265 H 1457.9 -0.211872 -6.55658 0
M  V30 15266 H 1457.82 -1.74781 -7.35518 0
M  V30 15267 H 1459.09 -0.63306 -7.76925 0
M  V30 15268 N 1463.32 1.31536 -0.86811 0
M  V30 15269 C 1464.55 2.00661 -0.491815 0
M  V30 15270 C 1464.96 1.65341 0.919733 0
M  V30 15271 O 1464.3 0.87773 1.61374 0
M  V30 15272 C 1464.36 3.55002 -0.566926 0
M  V30 15273 C 1464.03 4.1379 -1.93976 0
M  V30 15274 C 1465.02 4.31032 -2.90702 0
M  V30 15275 C 1462.71 4.4956 -2.24056 0
M  V30 15276 C 1464.7 4.8323 -4.15653 0
M  V30 15277 C 1462.39 5.01461 -3.49257 0
M  V30 15278 C 1463.39 5.18246 -4.44871 0
M  V30 15279 O 1463.08 5.69033 -5.67852 0
M  V30 15280 H 1462.81 0.648663 -0.190296 0
M  V30 15281 H 1465.36 1.68783 -1.17053 0
M  V30 15282 H 1463.59 3.86332 0.168704 0
M  V30 15283 H 1465.28 4.05385 -0.204323 0
M  V30 15284 H 1466.05 4.03717 -2.6877 0
M  V30 15285 H 1461.93 4.35772 -1.50412 0
M  V30 15286 H 1465.47 4.96247 -4.9029 0
M  V30 15287 H 1461.37 5.28209 -3.71033 0
M  V30 15288 H 1462.13 5.87405 -5.69998 0
M  V30 15289 N 1464.8 0.627364 1.44575 0
M  V30 15290 C 1466.21 0.292662 1.56894 0
M  V30 15291 C 1466.41 -1.20429 1.61552 0
M  V30 15292 O 1465.47 -1.98819 1.55651 0
M  V30 15293 C 1466.78 0.981267 2.84239 0
M  V30 15294 C 1468.33 0.959053 2.97945 0
M  V30 15295 C 1468.81 1.62805 4.28087 0
M  V30 15296 N 1470.3 1.59446 4.34892 0
M  V30 15297 C 1471.03 2.08107 5.34302 0
M  V30 15298 N 1470.53 2.64942 6.40139 0
M  V30 15299 N 1472.32 1.98758 5.25787 0
M  V30 15300 H 1464.47 1.5991 1.39795 0
M  V30 15301 H 1466.73 0.671019 0.669655 0
M  V30 15302 H 1466.44 2.0361 2.86768 0
M  V30 15303 H 1466.31 0.516703 3.73644 0
M  V30 15304 H 1468.7 -0.0872902 2.94971 0
M  V30 15305 H 1468.78 1.46207 2.09898 0
M  V30 15306 H 1468.43 2.67382 4.31821 0
M  V30 15307 H 1468.36 1.09989 5.14985 0
M  V30 15308 H 1470.85 1.17947 3.59022 0
M  V30 15309 H 1471.16 2.99814 7.12272 0
M  V30 15310 H 1469.51 2.68991 6.40835 0
M  V30 15311 H 1472.7 1.54081 4.42014 0
M  V30 15312 H 1472.87 2.36992 6.03107 0
M  V30 15313 N 1466.28 -1.53251 0.367684 0
M  V30 15314 C 1467.5 -2.0618 -0.224645 0
M  V30 15315 C 1467.93 -1.23927 -1.41505 0
M  V30 15316 O 1467.28 -0.258858 -1.79443 0
M  V30 15317 C 1467.33 -3.55671 -0.594171 0
M  V30 15318 O 1466.44 -3.76132 -1.69112 0
M  V30 15319 H 1465.78 -0.663218 -0.0322099 0
M  V30 15320 H 1468.31 -1.97646 0.528897 0
M  V30 15321 H 1468.32 -3.98734 -0.864589 0
M  V30 15322 H 1466.99 -4.14982 0.276254 0
M  V30 15323 H 1465.57 -3.44965 -1.41609 0
M  V30 15324 N 1467.75 -0.0969077 -1.57302 0
M  V30 15325 C 1469.17 0.25974 -1.57472 0
M  V30 15326 C 1469.37 1.6829 -1.10818 0
M  V30 15327 O 1468.43 2.39972 -0.785466 0
M  V30 15328 C 1469.74 0.0465211 -3.00664 0
M  V30 15329 C 1471.29 0.114131 -3.12792 0
M  V30 15330 C 1471.76 -0.0711175 -4.57945 0
M  V30 15331 N 1473.25 -0.0163438 -4.63197 0
M  V30 15332 C 1473.99 -0.1349 -5.73241 0
M  V30 15333 N 1473.48 -0.308391 -6.92113 0
M  V30 15334 N 1475.28 -0.0760411 -5.62049 0
M  V30 15335 H 1467.43 -1.02673 -1.85935 0
M  V30 15336 H 1469.69 -0.402528 -0.858298 0
M  V30 15337 H 1469.4 -0.936496 -3.39002 0
M  V30 15338 H 1469.27 0.78805 -3.68876 0
M  V30 15339 H 1471.66 1.08765 -2.74325 0
M  V30 15340 H 1471.74 -0.658918 -2.47168 0
M  V30 15341 H 1471.38 -1.04152 -4.97106 0
M  V30 15342 H 1471.31 0.721647 -5.21632 0
M  V30 15343 H 1473.8 0.115134 -3.77725 0
M  V30 15344 H 1474.12 -0.390318 -7.71814 0
M  V30 15345 H 1472.46 -0.344082 -6.94148 0
M  V30 15346 H 1475.65 0.0583778 -4.68064 0
M  V30 15347 H 1475.83 -0.171884 -6.47772 0
M  V30 15348 N 1469.23 1.56605 0.176793 0
M  V30 15349 C 1470.51 1.72546 0.921261 0
M  V30 15350 C 1470.89 0.656794 2.00623 0
M  V30 15351 O 1470.24 -0.329303 2.26115 0
M  V30 15352 C 1470.45 3.15548 1.491 0
M  V30 15353 C 1471.79 3.7634 1.96604 0
M  V30 15354 O 1472.82 3.18791 1.58905 0
M  V30 15355 O 1471.68 4.77377 2.66033 0
M  V30 15356 H 1468.77 0.704425 0.43326 0
M  V30 15357 H 1471.32 1.68895 0.165052 0
M  V30 15358 H 1470.09 3.84808 0.709839 0
M  V30 15359 H 1469.71 3.23502 2.31154 0
M  V30 15360 N 1470.71 -0.445159 1.51182 0
M  V30 15361 C 1471.94 -1.21787 1.67259 0
M  V30 15362 C 1472.35 -1.85206 0.366641 0
M  V30 15363 O 1471.71 -1.70376 -0.654095 0
M  V30 15364 C 1471.76 -2.30765 2.78262 0
M  V30 15365 O 1471.48 -1.69942 4.03796 0
M  V30 15366 C 1472.98 -3.21186 3.05539 0
M  V30 15367 H 1470.2 -0.367364 0.561502 0
M  V30 15368 H 1472.75 -0.528415 1.97555 0
M  V30 15369 H 1470.9 -2.9544 2.50587 0
M  V30 15370 H 1471.32 -2.41905 4.65384 0
M  V30 15371 H 1472.79 -3.93805 3.8681 0
M  V30 15372 H 1473.27 -3.81487 2.17634 0
M  V30 15373 H 1473.87 -2.62221 3.34844 0
M  V30 15374 N 1472.19 -1.41197 -0.700089 0
M  V30 15375 C 1473.41 -1.43856 -1.494 0
M  V30 15376 C 1473.84 -0.0441877 -1.88048 0
M  V30 15377 O 1473.2 0.951503 -1.54325 0
M  V30 15378 C 1473.24 -2.34913 -2.73584 0
M  V30 15379 O 1472.35 -1.80305 -3.70896 0
M  V30 15380 H 1471.69 -0.488412 -0.449833 0
M  V30 15381 H 1474.22 -1.85606 -0.860911 0
M  V30 15382 H 1474.23 -2.50633 -3.21943 0
M  V30 15383 H 1472.9 -3.36229 -2.44791 0
M  V30 15384 H 1471.48 -1.74012 -3.29809 0
M  V30 15385 N 1473.67 0.933891 -1.2695 0
M  V30 15386 C 1474.6 2.05078 -1.11649 0
M  V30 15387 C 1475.58 1.70089 -0.0196463 0
M  V30 15388 O 1476.76 1.93239 -0.193007 0
M  V30 15389 C 1473.89 3.38963 -0.756387 0
M  V30 15390 C 1472.85 3.88041 -1.80577 0
M  V30 15391 C 1472.17 5.18661 -1.2998 0
M  V30 15392 C 1473.47 4.12116 -3.2087 0
M  V30 15393 H 1475.17 2.18137 -2.05077 0
M  V30 15394 H 1472.71 1.04817 -0.987392 0
M  V30 15395 H 1474.66 4.1657 -0.63619 0
M  V30 15396 H 1473.39 3.25901 0.213607 0
M  V30 15397 H 1472.05 3.12622 -1.91477 0
M  V30 15398 H 1471.7 5.01985 -0.319442 0
M  V30 15399 H 1471.4 5.52467 -2.00134 0
M  V30 15400 H 1472.92 5.98844 -1.19242 0
M  V30 15401 H 1474.33 4.80312 -3.13006 0
M  V30 15402 H 1472.73 4.57218 -3.88679 0
M  V30 15403 H 1473.8 3.17633 -3.66384 0
M  V30 15404 N 1475.14 1.08871 1.13951 0
M  V30 15405 C 1476.37 0.843055 1.89492 0
M  V30 15406 C 1476.79 -0.599539 1.78289 0
M  V30 15407 O 1476.15 -1.42062 1.12642 0
M  V30 15408 C 1476.2 1.27572 3.3728 0
M  V30 15409 O 1475.3 0.430611 4.10146 0
M  V30 15410 H 1474.64 0.3058 0.589391 0
M  V30 15411 H 1477.17 1.45137 1.44209 0
M  V30 15412 H 1477.18 1.25864 3.88101 0
M  V30 15413 H 1475.86 2.32635 3.44751 0
M  V30 15414 H 1474.44 0.511516 3.69375 0
M  V30 15415 N 1476.62 -1.31073 0.875073 0
M  V30 15416 C 1477.87 -1.9613 0.487584 0
M  V30 15417 C 1478.19 -1.69482 -0.964407 0
M  V30 15418 O 1477.46 -1.013 -1.67676 0
M  V30 15419 H 1476.04 -0.725649 0.177319 0
M  V30 15420 H 1478.7 -1.59787 1.11598 0
M  V30 15421 H 1477.8 -3.05265 0.649574 0
M  V30 15422 N 1478.1 -0.635022 -1.4424 0
M  V30 15423 C 1479.35 -0.141067 -2.02008 0
M  V30 15424 C 1479.68 1.23849 -1.49973 0
M  V30 15425 O 1478.93 1.83666 -0.675673 0
M  V30 15426 C 1479.23 -0.081191 -3.57308 0
M  V30 15427 C 1478.9 -1.40004 -4.28614 0
M  V30 15428 C 1477.56 -1.76125 -4.4781 0
M  V30 15429 C 1479.91 -2.27041 -4.6915 0
M  V30 15430 C 1477.24 -2.98982 -5.04804 0
M  V30 15431 C 1479.59 -3.49173 -5.27504 0
M  V30 15432 C 1478.25 -3.85512 -5.44919 0
M  V30 15433 H 1477.52 -0.05162 -0.7392 0
M  V30 15434 H 1480.17 -0.822112 -1.72955 0
M  V30 15435 H 1478.48 0.68324 -3.85797 0
M  V30 15436 H 1480.17 0.317584 -3.9974 0
M  V30 15437 H 1476.76 -1.10897 -4.14005 0
M  V30 15438 H 1480.95 -2.0043 -4.54028 0
M  V30 15439 H 1476.2 -3.27208 -5.16473 0
M  V30 15440 H 1480.38 -4.16847 -5.57864 0
M  V30 15441 H 1478 -4.80793 -5.88848 0
M  V30 15442 N 1479.58 1.53054 -0.375806 0
M  V30 15443 C 1480.53 2.2605 0.46582 0
M  V30 15444 C 1481.5 1.27123 1.06906 0
M  V30 15445 O 1482.68 1.55926 1.09963 0
M  V30 15446 C 1479.82 3.06066 1.59429 0
M  V30 15447 C 1478.93 4.19901 1.01523 0
M  V30 15448 C 1478.07 4.87339 2.11363 0
M  V30 15449 C 1477.11 5.93189 1.50976 0
M  V30 15450 N 1476.24 6.54276 2.54692 0
M  V30 15451 H 1481.08 2.97553 -0.163149 0
M  V30 15452 H 1478.62 1.4681 -0.092282 0
M  V30 15453 H 1480.58 3.50739 2.25915 0
M  V30 15454 H 1479.21 2.36799 2.19377 0
M  V30 15455 H 1478.26 3.7964 0.240346 0
M  V30 15456 H 1479.57 4.95935 0.533812 0
M  V30 15457 H 1478.73 5.35247 2.85649 0
M  V30 15458 H 1477.47 4.10799 2.6286 0
M  V30 15459 H 1476.47 5.44632 0.752095 0
M  V30 15460 H 1477.7 6.71654 1.00291 0
M  V30 15461 H 1475.64 5.80584 3.05383 0
M  V30 15462 H 1475.56 7.2588 2.11267 0
M  V30 15463 H 1476.83 7.06831 3.28648 0
M  V30 15464 N 1481.06 0.105248 1.57248 0
M  V30 15465 C 1482.33 -0.598871 1.86207 0
M  V30 15466 C 1482.71 -1.85698 1.00396 0
M  V30 15467 O 1482.06 -2.28363 0.0791093 0
M  V30 15468 C 1482.27 -0.904522 3.37075 0
M  V30 15469 C 1483.62 -1.26357 4.05363 0
M  V30 15470 O 1484.64 -0.99522 3.42014 0
M  V30 15471 O 1483.5 -1.76659 5.17159 0
M  V30 15472 H 1480.6 -0.300727 0.770384 0
M  V30 15473 H 1483.14 0.138713 1.69132 0
M  V30 15474 H 1481.91 -0.0123974 3.91298 0
M  V30 15475 H 1481.54 -1.69774 3.59531 0
M  V30 15476 N 1482.53 -1.56697 -0.168486 0
M  V30 15477 C 1483.46 -1.99659 -1.21073 0
M  V30 15478 C 1484.45 -0.872625 -1.46011 0
M  V30 15479 O 1485.63 -1.13891 -1.57297 0
M  V30 15480 C 1482.76 -2.35889 -2.54899 0
M  V30 15481 C 1481.71 -3.51272 -2.44524 0
M  V30 15482 C 1481.04 -3.73253 -3.82866 0
M  V30 15483 C 1482.34 -4.84631 -1.94756 0
M  V30 15484 H 1484.03 -2.86974 -0.853593 0
M  V30 15485 H 1481.58 -1.38065 -0.409165 0
M  V30 15486 H 1483.53 -2.64542 -3.28017 0
M  V30 15487 H 1482.26 -1.45486 -2.92406 0
M  V30 15488 H 1480.92 -3.22751 -1.7386 0
M  V30 15489 H 1480.56 -2.80136 -4.17772 0
M  V30 15490 H 1480.26 -4.5089 -3.76792 0
M  V30 15491 H 1481.79 -4.04309 -4.57566 0
M  V30 15492 H 1483.2 -5.12142 -2.5765 0
M  V30 15493 H 1481.6 -5.65925 -1.99623 0
M  V30 15494 H 1482.67 -4.76436 -0.902021 0
M  V30 15495 N 1484.01 0.437135 -1.51416 0
M  V30 15496 C 1485.26 1.18655 -1.64095 0
M  V30 15497 C 1485.59 1.9119 -0.35728 0
M  V30 15498 O 1484.84 1.84283 0.658644 0
M  V30 15499 C 1485.14 2.22795 -2.79458 0
M  V30 15500 C 1484.81 1.67271 -4.18726 0
M  V30 15501 C 1483.47 1.51852 -4.56612 0
M  V30 15502 C 1485.82 1.26448 -5.05629 0
M  V30 15503 C 1483.15 0.940834 -5.79107 0
M  V30 15504 C 1485.5 0.701095 -6.28703 0
M  V30 15505 C 1484.17 0.533801 -6.65362 0
M  V30 15506 H 1483.44 0.434191 -0.600466 0
M  V30 15507 H 1486.08 0.477592 -1.85449 0
M  V30 15508 H 1484.39 2.99731 -2.52327 0
M  V30 15509 H 1486.08 2.80602 -2.86467 0
M  V30 15510 H 1482.67 1.80249 -3.88855 0
M  V30 15511 H 1486.86 1.37182 -4.76964 0
M  V30 15512 H 1482.11 0.798982 -6.06157 0
M  V30 15513 H 1486.29 0.37626 -6.95383 0
M  V30 15514 H 1483.92 0.0840431 -7.60154 0
M  V30 15515 N 1485.49 1.41566 0.692592 0
M  V30 15516 C 1486.72 1.44646 1.48635 0
M  V30 15517 C 1487.14 0.0541597 1.88022 0
M  V30 15518 O 1486.5 -0.943305 1.54827 0
M  V30 15519 C 1486.55 2.3636 2.72335 0
M  V30 15520 O 1485.65 1.8227 3.69934 0
M  V30 15521 H 1484.99 0.490791 0.447236 0
M  V30 15522 H 1487.52 1.8606 0.851056 0
M  V30 15523 H 1487.53 2.52337 3.20609 0
M  V30 15524 H 1486.21 3.37523 2.43004 0
M  V30 15525 H 1484.78 1.75759 3.28882 0
M  V30 15526 N 1486.97 -0.927146 1.27443 0
M  V30 15527 C 1487.9 -2.02847 1.04538 0
M  V30 15528 C 1488.88 -1.62564 -0.0343819 0
M  V30 15529 O 1490.06 -1.88174 0.110875 0
M  V30 15530 C 1487.19 -3.33594 0.58588 0
M  V30 15531 C 1486.24 -3.92857 1.66029 0
M  V30 15532 S 1487.07 -4.25376 3.25292 0
M  V30 15533 C 1488.23 -5.59203 2.81145 0
M  V30 15534 H 1488.46 -2.21965 1.97784 0
M  V30 15535 H 1485.99 -1.07033 1.11281 0
M  V30 15536 H 1487.95 -4.09192 0.32745 0
M  V30 15537 H 1486.61 -3.12398 -0.326534 0
M  V30 15538 H 1485.8 -4.87209 1.2901 0
M  V30 15539 H 1485.41 -3.23846 1.87082 0
M  V30 15540 H 1487.7 -6.38523 2.26482 0
M  V30 15541 H 1488.64 -6.01122 3.74243 0
M  V30 15542 H 1489.05 -5.19751 2.2027 0
M  V30 15543 N 1488.45 -1.09474 -1.13372 0
M  V30 15544 C 1489.39 -0.73458 -2.18798 0
M  V30 15545 C 1490.36 0.284433 -1.63647 0
M  V30 15546 O 1491.55 0.165958 -1.90077 0
M  V30 15547 C 1488.69 -0.161826 -3.4472 0
M  V30 15548 C 1487.8 -1.23494 -4.13973 0
M  V30 15549 C 1486.94 -0.624886 -5.27512 0
M  V30 15550 C 1485.98 -1.67927 -5.88614 0
M  V30 15551 N 1485.11 -1.09021 -6.93584 0
M  V30 15552 H 1489.95 -1.63787 -2.48954 0
M  V30 15553 H 1487.49 -0.818297 -1.22239 0
M  V30 15554 H 1489.45 0.188053 -4.16776 0
M  V30 15555 H 1488.08 0.70473 -3.15013 0
M  V30 15556 H 1487.13 -1.70209 -3.40196 0
M  V30 15557 H 1488.44 -2.0335 -4.55467 0
M  V30 15558 H 1487.6 -0.22388 -6.06287 0
M  V30 15559 H 1486.33 0.205214 -4.87268 0
M  V30 15560 H 1485.34 -2.08982 -5.08534 0
M  V30 15561 H 1486.56 -2.51204 -6.3093 0
M  V30 15562 H 1484.51 -0.281401 -6.55396 0
M  V30 15563 H 1484.43 -1.82573 -7.33623 0
M  V30 15564 H 1485.7 -0.715428 -7.7621 0
M  V30 15565 N 1489.92 1.30607 -0.882012 0
M  V30 15566 C 1491.34 1.78418 -0.549892 0
M  V30 15567 C 1491.69 1.72553 0.933797 0
M  V30 15568 O 1490.81 1.30058 1.72956 0
M  V30 15569 C 1491.41 3.2397 -0.991398 0
M  V30 15570 C 1489.97 3.69629 -0.710739 0
M  V30 15571 C 1489.11 2.51127 -1.17602 0
M  V30 15572 H 1492.06 1.17519 -1.06653 0
M  V30 15573 H 1492.08 3.79159 -0.319115 0
M  V30 15574 H 1491.6 3.28207 -2.07128 0
M  V30 15575 H 1489.7 3.70883 0.357273 0
M  V30 15576 H 1489.81 4.61232 -1.29621 0
M  V30 15577 H 1488.17 2.47642 -0.595444 0
M  V30 15578 H 1488.96 2.58103 -2.26358 0
M  V30 15579 N 1491.4 0.642663 1.43901 0
M  V30 15580 C 1492.68 0.0821715 1.95427 0
M  V30 15581 C 1493.06 -1.3951 1.58431 0
M  V30 15582 O 1492.41 -2.11531 0.864118 0
M  V30 15583 C 1492.62 0.317229 3.47555 0
M  V30 15584 C 1493.97 0.216547 4.24047 0
M  V30 15585 O 1494.99 0.249216 3.55327 0
M  V30 15586 O 1493.85 0.131269 5.46342 0
M  V30 15587 H 1490.94 -0.0156936 0.826851 0
M  V30 15588 H 1493.49 0.715168 1.53894 0
M  V30 15589 H 1492.26 1.34184 3.67574 0
M  V30 15590 H 1491.88 -0.349348 3.96062 0
M  V30 15591 N 1492.88 -1.52852 0.383918 0
M  V30 15592 C 1493.81 -2.23927 -0.488816 0
M  V30 15593 C 1494.83 -1.2598 -1.03115 0
M  V30 15594 O 1496.02 -1.5209 -0.934398 0
M  V30 15595 C 1493.12 -2.9378 -1.68957 0
M  V30 15596 C 1492.29 -4.18388 -1.27555 0
M  V30 15597 C 1491.35 -4.71287 -2.3404 0
M  V30 15598 O 1490.37 -5.34511 -1.9567 0
M  V30 15599 N 1491.58 -4.50679 -3.65881 0
M  V30 15600 H 1494.34 -2.99459 0.120084 0
M  V30 15601 H 1491.9 -1.60532 0.210004 0
M  V30 15602 H 1493.89 -3.26071 -2.39707 0
M  V30 15603 H 1492.46 -2.21588 -2.20493 0
M  V30 15604 H 1491.68 -3.92194 -0.397157 0
M  V30 15605 H 1492.97 -4.99361 -0.975506 0
M  V30 15606 H 1492.37 -4.00201 -3.9982 0
M  V30 15607 H 1490.93 -4.87473 -4.32681 0
M  V30 15608 N 1494.36 -0.113586 -1.5719 0
M  V30 15609 C 1495.58 0.556928 -1.99783 0
M  V30 15610 C 1496.01 1.59774 -0.992669 0
M  V30 15611 O 1495.37 1.81263 0.0363821 0
M  V30 15612 C 1495.42 1.16463 -3.41275 0
M  V30 15613 O 1494.52 2.28024 -3.43626 0
M  V30 15614 H 1493.86 0.139628 -0.649153 0
M  V30 15615 H 1496.39 -0.200462 -2.03616 0
M  V30 15616 H 1496.4 1.50147 -3.79368 0
M  V30 15617 H 1495.08 0.402232 -4.1395 0
M  V30 15618 H 1493.65 1.9582 -3.17347 0
M  V30 15619 N 1495.84 1.56784 0.160173 0
M  V30 15620 C 1496.79 1.98199 1.21737 0
M  V30 15621 C 1497.78 0.872381 1.4521 0
M  V30 15622 O 1498.99 1.05753 1.45658 0
M  V30 15623 H 1495.36 0.630742 0.409474 0
M  V30 15624 H 1497.33 2.86295 0.841289 0
M  V30 15625 C 1496.08 2.36748 2.54648 0
M  V30 15626 H 1495.4 3.21676 2.37413 0
M  V30 15627 H 1496.84 2.69561 3.27281 0
M  V30 15628 C 1495.3 1.2151 3.14224 0
M  V30 15629 O 1495.83 0.508739 3.98465 0
M  V30 15630 N 1494.04 0.982766 2.73478 0
M  V30 15631 H 1493.59 1.55893 2.05073 0
M  V30 15632 H 1493.54 0.213589 3.13674 0
M  V30 15633 N 1497.32 -0.429099 1.51646 0
M  V30 15634 C 1498.56 -1.17958 1.64966 0
M  V30 15635 C 1498.89 -1.90667 0.368755 0
M  V30 15636 O 1498.17 -1.83945 -0.632023 0
M  V30 15637 C 1498.45 -2.19002 2.8585 0
M  V30 15638 C 1498.31 -1.50321 4.23938 0
M  V30 15639 C 1499.62 -3.19895 3.0225 0
M  V30 15640 H 1496.74 -0.427474 0.600362 0
M  V30 15641 H 1499.39 -0.46777 1.84152 0
M  V30 15642 H 1497.54 -2.79707 2.69623 0
M  V30 15643 H 1499.21 -0.928902 4.51851 0
M  V30 15644 H 1497.45 -0.805431 4.26257 0
M  V30 15645 H 1498.12 -2.2395 5.0453 0
M  V30 15646 H 1500.6 -2.69251 3.17243 0
M  V30 15647 H 1499.47 -3.8788 3.88381 0
M  V30 15648 H 1499.73 -3.86477 2.14682 0
M  V30 15649 N 1498.79 -1.41931 -0.685074 0
M  V30 15650 C 1500.21 -1.24631 -0.996957 0
M  V30 15651 C 1500.41 -0.143146 -2.00991 0
M  V30 15652 O 1499.47 0.489012 -2.47719 0
M  V30 15653 C 1500.78 -2.59947 -1.51156 0
M  V30 15654 C 1502.33 -2.67216 -1.62986 0
M  V30 15655 C 1502.8 -4.02874 -2.17845 0
M  V30 15656 N 1504.29 -4.04775 -2.25192 0
M  V30 15657 C 1505.03 -5.0655 -2.68691 0
M  V30 15658 N 1504.52 -6.18712 -3.11717 0
M  V30 15659 N 1506.32 -4.93909 -2.68348 0
M  V30 15660 H 1498.47 -2.12395 -0.0142223 0
M  V30 15661 H 1500.73 -0.945496 -0.0688552 0
M  V30 15662 H 1500.44 -3.41477 -0.841793 0
M  V30 15663 H 1500.31 -2.83159 -2.49201 0
M  V30 15664 H 1502.7 -1.86038 -2.29071 0
M  V30 15665 H 1502.78 -2.47804 -0.634584 0
M  V30 15666 H 1502.42 -4.84505 -1.52372 0
M  V30 15667 H 1502.35 -4.19633 -3.18144 0
M  V30 15668 H 1504.84 -3.23798 -1.94841 0
M  V30 15669 H 1505.16 -6.9223 -3.43565 0
M  V30 15670 H 1503.5 -6.22232 -3.096 0
M  V30 15671 H 1506.69 -4.05364 -2.34089 0
M  V30 15672 H 1506.87 -5.73361 -3.01929 0
M  V30 15673 N 1500.27 0.920374 -1.27933 0
M  V30 15674 C 1501.69 1.19761 -1.05496 0
M  V30 15675 C 1501.89 2.00435 0.206864 0
M  V30 15676 O 1500.94 2.35518 0.910356 0
M  V30 15677 C 1502.26 1.93863 -2.29864 0
M  V30 15678 C 1503.8 2.06773 -2.34976 0
M  V30 15679 C 1504.28 2.84282 -3.59093 0
M  V30 15680 N 1505.77 2.91847 -3.59694 0
M  V30 15681 C 1506.51 3.52303 -4.52404 0
M  V30 15682 N 1506 4.14092 -5.55427 0
M  V30 15683 N 1507.79 3.49778 -4.40013 0
M  V30 15684 H 1499.95 0.381596 -2.08944 0
M  V30 15685 H 1502.21 0.231451 -0.919312 0
M  V30 15686 H 1501.91 1.42008 -3.21756 0
M  V30 15687 H 1501.79 2.94446 -2.35757 0
M  V30 15688 H 1504.18 2.57812 -1.43586 0
M  V30 15689 H 1504.26 1.05388 -2.33082 0
M  V30 15690 H 1503.9 2.33925 -4.50823 0
M  V30 15691 H 1503.83 3.85968 -3.5824 0
M  V30 15692 H 1506.32 2.4794 -2.85191 0
M  V30 15693 H 1506.63 4.58183 -6.22325 0
M  V30 15694 H 1504.98 4.12616 -5.59261 0
M  V30 15695 H 1508.17 3.00712 -3.58733 0
M  V30 15696 H 1508.34 3.96603 -5.12455 0
M  V30 15697 N 1501.75 1.10074 1.1279 0
M  V30 15698 C 1502.68 0.690084 2.17516 0
M  V30 15699 C 1503.66 -0.306745 1.5968 0
M  V30 15700 O 1504.84 -0.206533 1.87365 0
M  V30 15701 C 1501.97 0.0176562 3.38695 0
M  V30 15702 C 1501.02 0.97736 4.1515 0
M  V30 15703 S 1501.85 2.49282 4.7394 0
M  V30 15704 C 1503.01 1.83299 5.98458 0
M  V30 15705 H 1503.24 1.57723 2.52013 0
M  V30 15706 H 1500.77 0.917373 1.24192 0
M  V30 15707 H 1502.73 -0.363992 4.08883 0
M  V30 15708 H 1501.39 -0.846237 3.02486 0
M  V30 15709 H 1500.58 0.454057 5.01951 0
M  V30 15710 H 1500.19 1.30073 3.50652 0
M  V30 15711 H 1502.48 1.16098 6.67478 0
M  V30 15712 H 1503.42 2.68041 6.55408 0
M  V30 15713 H 1503.83 1.29909 5.49349 0
M  V30 15714 N 1503.23 -1.30138 0.888926 0
M  V30 15715 C 1504.18 -2.25598 0.33005 0
M  V30 15716 C 1505.16 -1.51434 -0.543751 0
M  V30 15717 O 1506.35 -1.72706 -0.387529 0
M  V30 15718 C 1503.48 -3.40326 -0.450925 0
M  V30 15719 C 1502.57 -4.21841 0.437187 0
M  V30 15720 N 1502.96 -4.81803 1.53947 0
M  V30 15721 C 1501.26 -4.45391 0.233015 0
M  V30 15722 C 1501.96 -5.42907 2.0887 0
M  V30 15723 N 1500.93 -5.25709 1.38314 0
M  V30 15724 H 1504.74 -2.6951 1.17224 0
M  V30 15725 H 1502.25 -1.44623 0.738771 0
M  V30 15726 H 1504.25 -4.07764 -0.867971 0
M  V30 15727 H 1502.91 -2.97953 -1.2905 0
M  V30 15728 H 1503.92 -4.80904 1.92229 0
M  V30 15729 H 1500.6 -4.13603 -0.569074 0
M  V30 15730 H 1501.99 -6.00478 3.01457 0
M  V30 15731 N 1504.71 -0.650285 -1.43559 0
M  V30 15732 C 1505.93 -0.170139 -2.06199 0
M  V30 15733 C 1506.35 1.16304 -1.48724 0
M  V30 15734 O 1505.71 1.71739 -0.617418 0
M  V30 15735 C 1505.76 -0.0698577 -3.61432 0
M  V30 15736 O 1505.48 -1.35033 -4.16771 0
M  V30 15737 C 1506.98 0.436714 -4.41144 0
M  V30 15738 H 1504.2 -0.0885316 -0.665134 0
M  V30 15739 H 1506.74 -0.890104 -1.84112 0
M  V30 15740 H 1504.9 0.60065 -3.82715 0
M  V30 15741 H 1505.31 -1.20762 -5.10409 0
M  V30 15742 H 1506.79 0.455843 -5.50115 0
M  V30 15743 H 1507.26 1.46747 -4.13959 0
M  V30 15744 H 1507.87 -0.201201 -4.24824 0
M  V30 15745 N 1506.18 1.52647 -0.392018 0
M  V30 15746 C 1507.15 2.25135 0.429754 0
M  V30 15747 C 1508.15 1.26871 0.987946 0
M  V30 15748 O 1509.34 1.50947 0.86952 0
M  V30 15749 C 1506.47 3.00849 1.60321 0
M  V30 15750 H 1507.66 2.99199 -0.204918 0
M  V30 15751 H 1505.21 1.55634 -0.144188 0
M  V30 15752 H 1505.95 2.31092 2.27524 0
M  V30 15753 H 1505.73 3.72975 1.20964 0
M  V30 15754 H 1507.22 3.55879 2.18494 0
M  V30 15755 N 1507.66 0.121921 1.57128 0
M  V30 15756 C 1508.91 -0.536164 1.95584 0
M  V30 15757 C 1509.24 -1.66143 1.0055 0
M  V30 15758 O 1508.52 -1.94452 0.0432427 0
M  V30 15759 C 1508.8 -1.0661 3.43957 0
M  V30 15760 C 1508.65 0.0559458 4.49765 0
M  V30 15761 C 1509.97 -1.95603 3.94243 0
M  V30 15762 H 1507.09 -0.193427 0.711165 0
M  V30 15763 H 1509.73 0.198072 1.88965 0
M  V30 15764 H 1507.88 -1.69181 3.49729 0
M  V30 15765 H 1509.55 0.691357 4.5609 0
M  V30 15766 H 1507.8 0.71868 4.27805 0
M  V30 15767 H 1508.47 -0.356133 5.5085 0
M  V30 15768 H 1510.94 -1.42899 3.90793 0
M  V30 15769 H 1509.82 -2.29599 4.98573 0
M  V30 15770 H 1510.08 -2.88364 3.3511 0
M  V30 15771 N 1509.14 -1.56867 -0.151857 0
M  V30 15772 C 1510.09 -1.97899 -1.18763 0
M  V30 15773 C 1511.06 -0.845833 -1.42951 0
M  V30 15774 O 1512.24 -1.10751 -1.55367 0
M  V30 15775 C 1509.38 -2.36063 -2.5173 0
M  V30 15776 C 1508.5 -3.62647 -2.34757 0
M  V30 15777 C 1507.63 -3.89936 -3.60726 0
M  V30 15778 C 1506.67 -5.09806 -3.38769 0
M  V30 15779 N 1505.81 -5.33129 -4.56856 0
M  V30 15780 H 1510.65 -2.86187 -0.830713 0
M  V30 15781 H 1508.18 -1.41592 -0.398745 0
M  V30 15782 H 1510.14 -2.56218 -3.29254 0
M  V30 15783 H 1508.77 -1.50861 -2.85379 0
M  V30 15784 H 1507.82 -3.50297 -1.48312 0
M  V30 15785 H 1509.14 -4.50328 -2.1449 0
M  V30 15786 H 1508.29 -4.10563 -4.4668 0
M  V30 15787 H 1507.03 -3.00668 -3.83993 0
M  V30 15788 H 1506.03 -4.89057 -2.51203 0
M  V30 15789 H 1507.26 -6.00623 -3.16906 0
M  V30 15790 H 1505.2 -4.46815 -4.80305 0
M  V30 15791 H 1505.12 -6.1507 -4.39574 0
M  V30 15792 H 1506.39 -5.5825 -5.44038 0
M  V30 15793 N 1510.62 0.421051 -1.51871 0
M  V30 15794 C 1511.55 1.51928 -1.77313 0
M  V30 15795 C 1512.53 1.58258 -0.623579 0
M  V30 15796 O 1513.71 1.73724 -0.867967 0
M  V30 15797 C 1510.84 2.89865 -1.913 0
M  V30 15798 C 1509.8 2.98391 -3.06834 0
M  V30 15799 C 1509.12 4.38466 -3.06026 0
M  V30 15800 C 1510.42 2.7097 -4.46511 0
M  V30 15801 H 1512.12 1.30889 -2.69274 0
M  V30 15802 H 1509.66 0.628229 -1.29573 0
M  V30 15803 H 1511.62 3.66669 -2.07682 0
M  V30 15804 H 1510.34 3.12172 -0.960011 0
M  V30 15805 H 1509 2.24029 -2.90184 0
M  V30 15806 H 1508.65 4.57764 -2.08472 0
M  V30 15807 H 1508.35 4.45097 -3.83618 0
M  V30 15808 H 1509.87 5.17221 -3.24522 0
M  V30 15809 H 1511.29 3.37501 -4.63428 0
M  V30 15810 H 1509.68 2.88992 -5.25931 0
M  V30 15811 H 1510.75 1.66476 -4.55427 0
M  V30 15812 N 1512.1 1.42293 0.677538 0
M  V30 15813 C 1513.04 1.45787 1.81243 0
M  V30 15814 C 1514.04 0.333895 1.66077 0
M  V30 15815 O 1515.24 0.50678 1.72719 0
M  V30 15816 H 1511.62 0.456538 0.597559 0
M  V30 15817 H 1513.59 2.41398 1.75413 0
M  V30 15818 C 1512.34 1.37449 3.19379 0
M  V30 15819 H 1511.66 2.23231 3.31674 0
M  V30 15820 H 1513.1 1.43955 3.98814 0
M  V30 15821 C 1511.56 0.0889433 3.36783 0
M  V30 15822 O 1512.09 -0.859357 3.924 0
M  V30 15823 N 1510.3 0.00698476 2.90599 0
M  V30 15824 H 1509.84 0.779459 2.45524 0
M  V30 15825 H 1509.8 -0.852522 3.02621 0
M  V30 15826 N 1513.57 -0.913576 1.28419 0
M  V30 15827 C 1514.82 -1.65944 1.15355 0
M  V30 15828 C 1515.14 -1.92706 -0.298228 0
M  V30 15829 O 1514.41 -1.54333 -1.20657 0
M  V30 15830 H 1512.99 -0.615063 0.423919 0
M  V30 15831 H 1515.66 -1.0962 1.6115 0
M  V30 15832 H 1514.75 -2.62173 1.69327 0
M  V30 15833 N 1515.05 -1.1067 -1.12204 0
M  V30 15834 C 1516.3 -0.85189 -1.8404 0
M  V30 15835 C 1516.63 0.620988 -1.84004 0
M  V30 15836 O 1515.91 1.45801 -1.28734 0
M  V30 15837 C 1516.19 -1.40401 -3.31602 0
M  V30 15838 C 1516.04 -2.94392 -3.40078 0
M  V30 15839 C 1517.36 -1.04834 -4.27432 0
M  V30 15840 H 1514.48 -0.310924 -0.668203 0
M  V30 15841 H 1517.12 -1.37026 -1.3162 0
M  V30 15842 H 1515.27 -0.963107 -3.76373 0
M  V30 15843 H 1516.94 -3.47027 -3.03924 0
M  V30 15844 H 1515.19 -3.3087 -2.80548 0
M  V30 15845 H 1515.86 -3.28107 -4.43903 0
M  V30 15846 H 1518.33 -1.42882 -3.90799 0
M  V30 15847 H 1517.21 -1.46153 -5.29085 0
M  V30 15848 H 1517.47 0.0419272 -4.4208 0
M  V30 15849 N 1516.53 1.29665 -0.895815 0
M  V30 15850 C 1517.78 1.96006 -0.520522 0
M  V30 15851 C 1518.11 1.7048 0.930068 0
M  V30 15852 O 1517.38 1.01558 1.6588 0
M  V30 15853 C 1517.67 3.50897 -0.808925 0
M  V30 15854 C 1517.52 3.85896 -2.31093 0
M  V30 15855 C 1518.84 4.39125 -0.292769 0
M  V30 15856 H 1515.96 0.711931 -0.190588 0
M  V30 15857 H 1518.6 1.53349 -1.12179 0
M  V30 15858 H 1516.75 3.87362 -0.297194 0
M  V30 15859 H 1518.42 3.59397 -2.89191 0
M  V30 15860 H 1516.67 3.33578 -2.77323 0
M  V30 15861 H 1517.34 4.93989 -2.46331 0
M  V30 15862 H 1519.81 4.0963 -0.730906 0
M  V30 15863 H 1518.69 5.46395 -0.523799 0
M  V30 15864 H 1518.95 4.34683 0.806393 0
M  V30 15865 N 1518.01 0.657889 1.43212 0
M  V30 15866 C 1518.94 -0.0172114 2.33494 0
M  V30 15867 C 1519.92 -0.807087 1.49733 0
M  V30 15868 O 1521.1 -0.767631 1.78385 0
M  V30 15869 C 1518.23 -0.981029 3.33156 0
M  V30 15870 C 1517.19 -0.30094 4.26941 0
M  V30 15871 C 1516.51 -1.37653 5.16678 0
M  V30 15872 C 1517.81 0.809572 5.15988 0
M  V30 15873 H 1519.51 0.736749 2.90194 0
M  V30 15874 H 1517.05 0.355744 1.39537 0
M  V30 15875 H 1519.01 -1.46226 3.95216 0
M  V30 15876 H 1517.73 -1.76621 2.74723 0
M  V30 15877 H 1516.39 0.159893 3.66251 0
M  V30 15878 H 1516.04 -2.15326 4.54581 0
M  V30 15879 H 1515.74 -0.926704 5.80246 0
M  V30 15880 H 1517.26 -1.85903 5.81612 0
M  V30 15881 H 1518.68 0.410297 5.7183 0
M  V30 15882 H 1517.07 1.18415 5.88301 0
M  V30 15883 H 1518.14 1.66558 4.55397 0
M  V30 15884 N 1519.49 -1.52437 0.400108 0
M  V30 15885 C 1520.43 -2.28312 -0.444572 0
M  V30 15886 C 1521.43 -1.32641 -1.0537 0
M  V30 15887 O 1522.63 -1.50136 -0.99293 0
M  V30 15888 H 1519.01 -0.734313 -0.162137 0
M  V30 15889 H 1520.98 -2.97612 0.216702 0
M  V30 15890 C 1519.73 -3.11044 -1.55393 0
M  V30 15891 H 1519.05 -3.84525 -1.09455 0
M  V30 15892 H 1520.49 -3.67255 -2.11896 0
M  V30 15893 C 1518.95 -2.24035 -2.51614 0
M  V30 15894 O 1519.48 -1.87447 -3.55284 0
M  V30 15895 N 1517.69 -1.87982 -2.2161 0
M  V30 15896 H 1517.23 -2.17936 -1.37338 0
M  V30 15897 H 1517.19 -1.30058 -2.86238 0
M  V30 15898 N 1520.96 -0.130252 -1.57061 0
M  V30 15899 C 1521.91 0.815767 -2.15902 0
M  V30 15900 C 1522.88 1.2558 -1.08715 0
M  V30 15901 O 1524.07 1.33132 -1.36677 0
M  V30 15902 C 1521.21 2.0561 -2.77162 0
M  V30 15903 C 1520.32 1.6634 -3.98692 0
M  V30 15904 C 1519.45 2.85425 -4.48002 0
M  V30 15905 C 1518.49 2.42449 -5.62036 0
M  V30 15906 N 1517.63 3.54486 -6.0604 0
M  V30 15907 H 1522.47 0.307164 -2.96413 0
M  V30 15908 H 1520.01 0.139913 -1.46433 0
M  V30 15909 H 1521.97 2.78298 -3.10815 0
M  V30 15910 H 1520.6 2.5391 -1.99323 0
M  V30 15911 H 1519.65 0.834817 -3.71127 0
M  V30 15912 H 1520.96 1.30765 -4.81354 0
M  V30 15913 H 1520.11 3.66325 -4.83623 0
M  V30 15914 H 1518.85 3.24235 -3.64312 0
M  V30 15915 H 1517.86 1.59985 -5.26008 0
M  V30 15916 H 1519.08 2.04744 -6.475 0
M  V30 15917 H 1517.03 3.92948 -5.25289 0
M  V30 15918 H 1516.95 3.22871 -6.83586 0
M  V30 15919 H 1518.21 4.35792 -6.46302 0
M  V30 15920 N 1522.44 1.56945 0.143535 0
M  V30 15921 C 1523.67 1.88067 0.874385 0
M  V30 15922 C 1524.09 0.719645 1.73789 0
M  V30 15923 O 1523.45 -0.330654 1.78259 0
M  V30 15924 C 1523.5 3.17795 1.70408 0
M  V30 15925 O 1522.6 3.01973 2.80867 0
M  V30 15926 H 1521.94 0.617808 0.24333 0
M  V30 15927 H 1524.47 2.04165 0.133309 0
M  V30 15928 H 1524.48 3.49903 2.09838 0
M  V30 15929 H 1523.16 4.019 1.07001 0
M  V30 15930 H 1521.74 2.8128 2.44818 0
M  V30 15931 N 1523.92 -0.412991 1.52093 0
M  V30 15932 C 1524.85 -1.52187 1.71382 0
M  V30 15933 C 1525.87 -1.51567 0.594247 0
M  V30 15934 O 1527.06 -1.55902 0.869293 0
M  V30 15935 C 1524.16 -2.91086 1.73557 0
M  V30 15936 C 1523.33 -3.15941 3.0249 0
M  V30 15937 C 1522.39 -4.34692 2.96529 0
M  V30 15938 O 1521.41 -4.3216 3.70441 0
M  V30 15939 N 1522.62 -5.39594 2.14052 0
M  V30 15940 H 1525.38 -1.36036 2.67047 0
M  V30 15941 H 1522.94 -0.602243 1.50282 0
M  V30 15942 H 1524.93 -3.68589 1.67106 0
M  V30 15943 H 1523.5 -3.00714 0.85382 0
M  V30 15944 H 1522.72 -2.26517 3.2262 0
M  V30 15945 H 1524.01 -3.29388 3.87789 0
M  V30 15946 H 1523.41 -5.44498 1.53424 0
M  V30 15947 H 1521.97 -6.15855 2.13461 0
M  V30 15948 N 1525.4 -1.4265 -0.669982 0
M  V30 15949 C 1526.68 -1.33858 -1.42623 0
M  V30 15950 C 1527.06 0.0217285 -2.11089 0
M  V30 15951 O 1526.4 1.03748 -2.03589 0
M  V30 15952 C 1526.61 -2.51015 -2.42472 0
M  V30 15953 C 1527.96 -2.93348 -3.06972 0
M  V30 15954 O 1528.99 -2.5094 -2.52799 0
M  V30 15955 O 1527.85 -3.66762 -4.05151 0
M  V30 15956 H 1524.94 -0.528141 -0.636393 0
M  V30 15957 H 1527.49 -1.54667 -0.6983 0
M  V30 15958 H 1526.26 -3.41679 -1.90713 0
M  V30 15959 H 1525.88 -2.32218 -3.2274 0
M  V30 15960 N 1526.88 0.906753 -1.28902 0
M  V30 15961 C 1527.84 1.99158 -1.1344 0
M  V30 15962 C 1528.84 1.60639 -0.0719551 0
M  V30 15963 O 1530.03 1.71267 -0.318317 0
M  V30 15964 C 1527.16 3.32923 -0.733172 0
M  V30 15965 H 1528.36 2.14305 -2.09794 0
M  V30 15966 H 1525.91 1.09034 -1.11988 0
M  V30 15967 H 1526.64 3.23477 0.230826 0
M  V30 15968 H 1526.43 3.62244 -1.50073 0
M  V30 15969 H 1527.92 4.12544 -0.64784 0
M  V30 15970 N 1528.36 1.11264 1.11616 0
M  V30 15971 C 1529.29 0.727118 2.17361 0
M  V30 15972 C 1530.3 -0.240356 1.61016 0
M  V30 15973 O 1531.49 -0.0235265 1.78484 0
M  V30 15974 C 1528.59 0.05361 3.38858 0
M  V30 15975 C 1527.76 1.04744 4.24673 0
M  V30 15976 C 1526.82 0.403827 5.24648 0
M  V30 15977 O 1525.85 1.0572 5.59296 0
M  V30 15978 N 1527.05 -0.834071 5.74477 0
M  V30 15979 H 1529.81 1.63696 2.51045 0
M  V30 15980 H 1527.38 1.00261 1.2712 0
M  V30 15981 H 1529.37 -0.388643 4.0283 0
M  V30 15982 H 1527.94 -0.758778 3.03251 0
M  V30 15983 H 1527.16 1.6677 3.57185 0
M  V30 15984 H 1528.45 1.71988 4.7885 0
M  V30 15985 H 1527.84 -1.3841 5.48506 0
M  V30 15986 H 1526.4 -1.21933 6.40293 0
M  V30 15987 N 1529.83 -1.29188 0.902679 0
M  V30 15988 C 1530.76 -2.3006 0.399357 0
M  V30 15989 C 1531.74 -1.61724 -0.527199 0
M  V30 15990 O 1532.93 -1.89213 -0.437293 0
M  V30 15991 C 1530.06 -3.45309 -0.371331 0
M  V30 15992 C 1529.01 -4.25466 0.465068 0
M  V30 15993 C 1528.34 -5.32941 -0.433295 0
M  V30 15994 C 1529.64 -4.93287 1.71655 0
M  V30 15995 H 1531.33 -2.72409 1.24233 0
M  V30 15996 H 1528.88 -1.30958 0.598822 0
M  V30 15997 H 1530.83 -4.14955 -0.734207 0
M  V30 15998 H 1529.56 -3.01811 -1.24811 0
M  V30 15999 H 1528.22 -3.57532 0.810315 0
M  V30 16000 H 1527.86 -4.85688 -1.3083 0
M  V30 16001 H 1527.56 -5.87472 0.122657 0
M  V30 16002 H 1529.09 -6.05438 -0.792298 0
M  V30 16003 H 1530.5 -5.55353 1.42323 0
M  V30 16004 H 1528.9 -5.57763 2.21405 0
M  V30 16005 H 1529.97 -4.18406 2.45081 0
M  V30 16006 N 1531.31 -0.665475 -1.42861 0
M  V30 16007 C 1532.56 -0.184156 -2.01962 0
M  V30 16008 C 1532.89 1.20301 -1.52451 0
M  V30 16009 O 1532.17 1.80573 -0.722756 0
M  V30 16010 C 1532.45 -0.208497 -3.59496 0
M  V30 16011 C 1532.3 -1.63045 -4.19209 0
M  V30 16012 C 1533.62 0.448421 -4.3781 0
M  V30 16013 H 1530.74 -0.0683924 -0.73382 0
M  V30 16014 H 1533.38 -0.84849 -1.70002 0
M  V30 16015 H 1531.53 0.357179 -3.86855 0
M  V30 16016 H 1533.2 -2.24766 -4.02837 0
M  V30 16017 H 1531.45 -2.17401 -3.75392 0
M  V30 16018 H 1532.12 -1.59924 -5.28326 0
M  V30 16019 H 1534.59 -0.0330053 -4.16087 0
M  V30 16020 H 1533.47 0.400713 -5.47435 0
M  V30 16021 H 1533.73 1.52454 -4.14982 0
M  V30 16022 N 1532.79 1.52222 -0.408187 0
M  V30 16023 C 1533.72 2.29892 0.408868 0
M  V30 16024 C 1534.7 1.34063 1.04695 0
M  V30 16025 O 1535.89 1.6297 1.05615 0
M  V30 16026 C 1533.02 3.11964 1.52629 0
M  V30 16027 C 1531.97 4.15833 1.01326 0
M  V30 16028 C 1531.3 4.86244 2.2242 0
M  V30 16029 C 1532.6 5.22256 0.0679573 0
M  V30 16030 H 1534.29 2.98443 -0.23923 0
M  V30 16031 H 1531.84 1.43528 -0.116496 0
M  V30 16032 H 1533.79 3.65067 2.10486 0
M  V30 16033 H 1532.51 2.41181 2.20225 0
M  V30 16034 H 1531.17 3.63739 0.4571 0
M  V30 16035 H 1530.82 4.11991 2.88569 0
M  V30 16036 H 1530.52 5.56461 1.88746 0
M  V30 16037 H 1532.04 5.42159 2.80885 0
M  V30 16038 H 1533.46 5.70604 0.555295 0
M  V30 16039 H 1531.85 5.9983 -0.179934 0
M  V30 16040 H 1532.92 4.76892 -0.877599 0
M  V30 16041 N 1534.27 0.138579 1.5699 0
M  V30 16042 C 1535.2 -0.800568 2.19347 0
M  V30 16043 C 1536.18 -1.26318 1.13921 0
M  V30 16044 O 1537.36 -1.32226 1.42232 0
M  V30 16045 C 1534.49 -2.04317 2.80842 0
M  V30 16046 C 1533.45 -1.71764 3.92022 0
M  V30 16047 C 1532.77 -3.03217 4.40413 0
M  V30 16048 C 1534.07 -0.970789 5.13199 0
M  V30 16049 H 1535.77 -0.280888 2.98079 0
M  V30 16050 H 1533.31 -0.133663 1.43378 0
M  V30 16051 H 1535.27 -2.70491 3.2313 0
M  V30 16052 H 1533.99 -2.58643 1.99428 0
M  V30 16053 H 1532.65 -1.07972 3.50339 0
M  V30 16054 H 1532.3 -3.55517 3.55832 0
M  V30 16055 H 1532 -2.82203 5.15398 0
M  V30 16056 H 1533.52 -3.70477 4.85365 0
M  V30 16057 H 1534.94 -1.53445 5.52384 0
M  V30 16058 H 1533.33 -0.860895 5.93893 0
M  V30 16059 H 1534.4 0.0390088 4.84884 0
M  V30 16060 N 1535.75 -1.57019 -0.13521 0
M  V30 16061 C 1536.69 -2.0011 -1.18569 0
M  V30 16062 C 1537.69 -0.895372 -1.43804 0
M  V30 16063 O 1538.89 -1.08057 -1.43957 0
M  V30 16064 H 1535.27 -0.637176 -0.399388 0
M  V30 16065 H 1537.24 -2.87597 -0.795636 0
M  V30 16066 C 1535.99 -2.40769 -2.50849 0
M  V30 16067 H 1535.31 -3.25412 -2.32265 0
M  V30 16068 H 1536.75 -2.74733 -3.22951 0
M  V30 16069 C 1535.21 -1.26494 -3.12251 0
M  V30 16070 O 1535.74 -0.572067 -3.97606 0
M  V30 16071 N 1533.95 -1.02615 -2.7188 0
M  V30 16072 H 1533.49 -1.59136 -2.02567 0
M  V30 16073 H 1533.45 -0.263464 -3.13294 0
M  V30 16074 N 1537.22 0.404919 -1.52309 0
M  V30 16075 C 1538.16 1.51471 -1.7068 0
M  V30 16076 C 1539.14 1.52856 -0.554425 0
M  V30 16077 O 1540.32 1.715 -0.782294 0
M  V30 16078 C 1537.45 2.8999 -1.74995 0
M  V30 16079 C 1536.49 3.06499 -2.96581 0
M  V30 16080 S 1537.33 2.7937 -4.56851 0
M  V30 16081 C 1538.48 4.20112 -4.63958 0
M  V30 16082 H 1538.71 1.35661 -2.64544 0
M  V30 16083 H 1536.25 0.596769 -1.42401 0
M  V30 16084 H 1538.21 3.6982 -1.78167 0
M  V30 16085 H 1536.87 3.03139 -0.822517 0
M  V30 16086 H 1536.06 4.07853 -2.96095 0
M  V30 16087 H 1535.66 2.34541 -2.91319 0
M  V30 16088 H 1537.95 5.13811 -4.41594 0
M  V30 16089 H 1538.9 4.2562 -5.6591 0
M  V30 16090 H 1539.3 4.05279 -3.9295 0
M  V30 16091 N 1538.7 1.43003 0.662408 0
M  V30 16092 C 1540.11 1.39275 1.24336 0
M  V30 16093 C 1540.46 0.0921999 1.95983 0
M  V30 16094 O 1539.59 -0.808677 2.00722 0
M  V30 16095 C 1540.18 2.52287 2.26134 0
M  V30 16096 C 1538.74 2.51853 2.79727 0
M  V30 16097 C 1537.89 2.30453 1.5423 0
M  V30 16098 H 1540.84 1.52038 0.455002 0
M  V30 16099 H 1540.86 2.23249 3.08123 0
M  V30 16100 H 1540.37 3.46929 1.73959 0
M  V30 16101 H 1538.48 1.61064 3.3599 0
M  V30 16102 H 1538.59 3.49313 3.27898 0
M  V30 16103 H 1536.95 1.78946 1.81247 0
M  V30 16104 H 1537.74 3.27167 1.04003 0
M  V30 16105 N 1540.18 -0.899904 1.29381 0
M  V30 16106 C 1541.43 -1.64712 1.17109 0
M  V30 16107 C 1541.75 -1.93011 -0.277772 0
M  V30 16108 O 1541.02 -1.55604 -1.19013 0
M  V30 16109 H 1539.6 -0.610532 0.430418 0
M  V30 16110 H 1542.26 -1.07905 1.62304 0
M  V30 16111 H 1541.36 -2.60362 1.72098 0
M  V30 16112 N 1541.66 -1.11854 -1.11024 0
M  V30 16113 C 1543.07 -0.885443 -1.64368 0
M  V30 16114 C 1543.42 0.581455 -1.87386 0
M  V30 16115 O 1542.55 1.44452 -1.61129 0
M  V30 16116 C 1543.14 -1.60082 -2.98595 0
M  V30 16117 C 1541.7 -1.41403 -3.4883 0
M  V30 16118 C 1540.85 -1.64069 -2.23555 0
M  V30 16119 H 1543.8 -1.27418 -0.94606 0
M  V30 16120 H 1543.82 -1.04832 -3.65774 0
M  V30 16121 H 1543.33 -2.66842 -2.8181 0
M  V30 16122 H 1541.43 -0.368727 -3.70771 0
M  V30 16123 H 1541.54 -2.16603 -4.27341 0
M  V30 16124 H 1539.91 -1.06437 -2.31394 0
M  V30 16125 H 1540.69 -2.72112 -2.09308 0
M  V30 16126 N 1543.14 1.28707 -0.909517 0
M  V30 16127 C 1544.55 1.77212 -0.587613 0
M  V30 16128 C 1544.9 1.74495 0.896986 0
M  V30 16129 O 1544.02 1.33698 1.70158 0
M  V30 16130 C 1544.62 3.21794 -1.05989 0
M  V30 16131 C 1543.18 3.68038 -0.788983 0
M  V30 16132 C 1542.32 2.48576 -1.22903 0
M  V30 16133 H 1545.28 1.1523 -1.09122 0
M  V30 16134 H 1545.3 3.78397 -0.399469 0
M  V30 16135 H 1544.81 3.23739 -2.14043 0
M  V30 16136 H 1542.91 3.71558 0.278523 0
M  V30 16137 H 1543.02 4.58379 -1.39376 0
M  V30 16138 H 1541.39 2.46323 -0.647838 0
M  V30 16139 H 1542.17 2.53243 -2.31782 0
M  V30 16140 N 1544.61 0.673042 1.42506 0
M  V30 16141 C 1545.56 -0.00638067 2.30799 0
M  V30 16142 C 1546.53 -0.794524 1.45865 0
M  V30 16143 O 1547.72 -0.767129 1.74699 0
M  V30 16144 C 1544.86 -0.952923 3.31683 0
M  V30 16145 C 1543.97 -0.158787 4.31708 0
M  V30 16146 C 1543.1 -1.10092 5.19666 0
M  V30 16147 C 1542.14 -0.29837 6.11372 0
M  V30 16148 N 1541.28 -1.19312 6.91888 0
M  V30 16149 H 1546.12 0.75237 2.88346 0
M  V30 16150 H 1543.66 0.382763 1.42033 0
M  V30 16151 H 1545.62 -1.51552 3.887 0
M  V30 16152 H 1544.25 -1.67832 2.75739 0
M  V30 16153 H 1543.3 0.520406 3.76823 0
M  V30 16154 H 1544.61 0.464385 4.96634 0
M  V30 16155 H 1543.76 -1.7335 5.81407 0
M  V30 16156 H 1542.5 -1.75798 4.54914 0
M  V30 16157 H 1541.51 0.347437 5.48701 0
M  V30 16158 H 1542.73 0.354569 6.78174 0
M  V30 16159 H 1540.68 -1.83661 6.29765 0
M  V30 16160 H 1540.6 -0.624986 7.53412 0
M  V30 16161 H 1541.86 -1.81323 7.58118 0
M  V30 16162 N 1546.09 -1.52004 0.416254 0
M  V30 16163 C 1547.04 -2.28771 -0.420331 0
M  V30 16164 C 1548.03 -1.33751 -1.03957 0
M  V30 16165 O 1549.24 -1.51181 -0.976951 0
M  V30 16166 H 1545.62 -0.735991 -0.15434 0
M  V30 16167 H 1547.59 -2.97366 0.248255 0
M  V30 16168 C 1546.34 -3.12675 -1.52085 0
M  V30 16169 H 1545.66 -3.85665 -1.0537 0
M  V30 16170 H 1547.1 -3.69482 -2.07989 0
M  V30 16171 C 1545.56 -2.26692 -2.49224 0
M  V30 16172 O 1546.09 -1.91205 -3.53276 0
M  V30 16173 N 1544.29 -1.90322 -2.19604 0
M  V30 16174 H 1543.84 -2.1938 -1.35019 0
M  V30 16175 H 1543.8 -1.33086 -2.84843 0
M  V30 16176 N 1547.57 -0.146903 -1.56914 0
M  V30 16177 C 1548.99 0.20951 -1.58219 0
M  V30 16178 C 1549.19 1.64679 -1.16116 0
M  V30 16179 O 1548.24 2.37352 -0.861414 0
M  V30 16180 C 1549.56 -0.0491564 -3.0066 0
M  V30 16181 C 1551.1 0.0145605 -3.12997 0
M  V30 16182 C 1551.58 -0.216773 -4.57487 0
M  V30 16183 N 1553.07 -0.163698 -4.62911 0
M  V30 16184 C 1553.8 -0.317204 -5.72522 0
M  V30 16185 N 1553.3 -0.528426 -6.90782 0
M  V30 16186 N 1555.09 -0.254814 -5.61522 0
M  V30 16187 H 1547.24 -1.08536 -1.82575 0
M  V30 16188 H 1549.51 -0.42963 -0.845057 0
M  V30 16189 H 1549.21 -1.04387 -3.35851 0
M  V30 16190 H 1549.09 0.670296 -3.71197 0
M  V30 16191 H 1551.47 0.999829 -2.77646 0
M  V30 16192 H 1551.56 -0.737219 -2.44946 0
M  V30 16193 H 1551.2 -1.19914 -4.93541 0
M  V30 16194 H 1551.13 0.555329 -5.23664 0
M  V30 16195 H 1553.62 -0.00509433 -3.779 0
M  V30 16196 H 1553.93 -0.635667 -7.70181 0
M  V30 16197 H 1552.28 -0.564746 -6.92702 0
M  V30 16198 H 1555.47 -0.0905626 -4.68012 0
M  V30 16199 H 1555.64 -0.377881 -6.46897 0
M  V30 16200 N 1549.05 1.57088 0.126881 0
M  V30 16201 C 1549.98 1.96399 1.18153 0
M  V30 16202 C 1550.99 0.862288 1.38089 0
M  V30 16203 O 1552.18 1.14062 1.37303 0
M  V30 16204 C 1549.28 2.24026 2.54295 0
M  V30 16205 C 1548.46 3.5533 2.55068 0
M  V30 16206 C 1547.51 3.71261 3.72896 0
M  V30 16207 O 1546.54 4.43454 3.56844 0
M  V30 16208 N 1547.74 3.09435 4.91152 0
M  V30 16209 H 1550.51 2.87476 0.847217 0
M  V30 16210 H 1548.07 1.58781 0.316242 0
M  V30 16211 H 1550.06 2.31906 3.31665 0
M  V30 16212 H 1548.63 1.39114 2.79939 0
M  V30 16213 H 1547.85 3.58708 1.63468 0
M  V30 16214 H 1549.14 4.41649 2.52634 0
M  V30 16215 H 1548.54 2.50736 5.07097 0
M  V30 16216 H 1547.09 3.22848 5.66226 0
M  V30 16217 N 1550.53 -0.396836 1.52522 0
M  V30 16218 C 1551.77 -1.14037 1.66853 0
M  V30 16219 C 1552.1 -1.90706 0.406987 0
M  V30 16220 O 1551.37 -1.87165 -0.578443 0
M  V30 16221 H 1549.95 -0.423967 0.615029 0
M  V30 16222 H 1552.61 -0.451042 1.89609 0
M  V30 16223 H 1551.7 -1.84763 2.51533 0
M  V30 16224 N 1552.01 -1.43353 -0.654814 0
M  V30 16225 C 1553.28 -1.35363 -1.41195 0
M  V30 16226 C 1553.66 -0.000661523 -2.111 0
M  V30 16227 O 1553.01 1.01583 -2.04678 0
M  V30 16228 C 1553.22 -2.53572 -2.39796 0
M  V30 16229 C 1554.57 -2.96587 -3.03844 0
M  V30 16230 O 1555.59 -2.53607 -2.50124 0
M  V30 16231 O 1554.45 -3.71039 -4.01239 0
M  V30 16232 H 1551.55 -0.534861 -0.630756 0
M  V30 16233 H 1554.09 -1.55399 -0.681857 0
M  V30 16234 H 1552.86 -3.43682 -1.87078 0
M  V30 16235 H 1552.49 -2.35628 -3.20258 0
M  V30 16236 N 1553.48 0.89303 -1.29857 0
M  V30 16237 C 1554.39 2.03079 -1.17457 0
M  V30 16238 C 1555.41 1.73733 -0.0962941 0
M  V30 16239 O 1556.59 1.99005 -0.309667 0
M  V30 16240 C 1553.65 3.3589 -0.858991 0
M  V30 16241 C 1552.71 3.78711 -2.0218 0
M  V30 16242 C 1551.94 5.05184 -1.72118 0
M  V30 16243 O 1552.17 5.66738 -0.645276 0
M  V30 16244 O 1551.1 5.44218 -2.57119 0
M  V30 16245 H 1554.93 2.16465 -2.13017 0
M  V30 16246 H 1552.51 1.01774 -1.09373 0
M  V30 16247 H 1554.39 4.15582 -0.697852 0
M  V30 16248 H 1553.07 3.23631 0.0667756 0
M  V30 16249 H 1551.98 2.99758 -2.23822 0
M  V30 16250 H 1553.31 3.95563 -2.929 0
M  V30 16251 N 1554.96 1.12442 1.10429 0
M  V30 16252 C 1555.91 0.787578 2.18861 0
M  V30 16253 C 1556.9 -0.225602 1.67891 0
M  V30 16254 O 1558.11 -0.0838029 1.79805 0
M  V30 16255 H 1554.48 0.236858 0.713724 0
M  V30 16256 H 1556.46 1.71048 2.4451 0
M  V30 16257 C 1555.2 0.25854 3.46737 0
M  V30 16258 H 1554.53 1.02945 3.86319 0
M  V30 16259 H 1555.97 0.0611642 4.23956 0
M  V30 16260 C 1554.43 -1.01353 3.21293 0
M  V30 16261 O 1554.96 -2.09132 3.42967 0
M  V30 16262 N 1553.16 -0.940498 2.7496 0
M  V30 16263 H 1552.71 -0.0632962 2.57522 0
M  V30 16264 H 1552.67 -1.79226 2.58313 0
M  V30 16265 N 1556.44 -1.28223 0.91633 0
M  V30 16266 C 1557.67 -1.98697 0.56595 0
M  V30 16267 C 1558.08 -1.6864 -0.857734 0
M  V30 16268 O 1557.42 -0.937018 -1.58005 0
M  V30 16269 C 1557.48 -3.52653 0.698292 0
M  V30 16270 C 1557.15 -4.06306 2.092 0
M  V30 16271 C 1558.14 -4.19946 3.06499 0
M  V30 16272 C 1555.83 -4.40934 2.40587 0
M  V30 16273 C 1557.82 -4.67471 4.33301 0
M  V30 16274 C 1555.51 -4.88153 3.67628 0
M  V30 16275 C 1556.51 -5.01378 4.63798 0
M  V30 16276 O 1556.2 -5.47566 5.8858 0
M  V30 16277 H 1555.93 -0.641153 0.214239 0
M  V30 16278 H 1558.48 -1.64322 1.23237 0
M  V30 16279 H 1556.71 -3.86692 -0.0252036 0
M  V30 16280 H 1558.4 -4.04348 0.354638 0
M  V30 16281 H 1559.17 -3.93464 2.83569 0
M  V30 16282 H 1555.05 -4.29889 1.66482 0
M  V30 16283 H 1558.59 -4.77709 5.0837 0
M  V30 16284 H 1554.49 -5.14074 3.90382 0
M  V30 16285 H 1555.25 -5.65845 5.91406 0
M  V30 16286 N 1557.92 -0.68059 -1.42147 0
M  V30 16287 C 1558.85 0.0444079 -2.28157 0
M  V30 16288 C 1559.83 0.802929 -1.41392 0
M  V30 16289 O 1561.01 0.796856 -1.70829 0
M  V30 16290 C 1558.14 1.07013 -3.2135 0
M  V30 16291 C 1557.19 0.406524 -4.24558 0
M  V30 16292 S 1558.02 -0.840134 -5.28869 0
M  V30 16293 C 1559.17 0.184372 -6.25628 0
M  V30 16294 H 1559.41 -0.685124 -2.89298 0
M  V30 16295 H 1556.94 -0.470332 -1.47062 0
M  V30 16296 H 1558.9 1.65683 -3.75579 0
M  V30 16297 H 1557.56 1.77215 -2.59333 0
M  V30 16298 H 1556.75 1.18069 -4.89975 0
M  V30 16299 H 1556.35 -0.10672 -3.73848 0
M  V30 16300 H 1558.65 1.04232 -6.69434 0
M  V30 16301 H 1559.59 -0.43548 -7.0676 0
M  V30 16302 H 1560 0.532442 -5.61983 0
M  V30 16303 N 1559.4 1.51781 -0.424309 0
M  V30 16304 C 1560.31 2.31162 0.40015 0
M  V30 16305 C 1561.32 1.39523 1.03969 0
M  V30 16306 O 1562.5 1.72597 1.0379 0
M  V30 16307 C 1559.56 3.12875 1.49366 0
M  V30 16308 C 1558.62 4.20275 0.875616 0
M  V30 16309 C 1557.86 4.98082 1.91702 0
M  V30 16310 O 1558.08 4.76365 3.13739 0
M  V30 16311 O 1557.01 5.82527 1.5148 0
M  V30 16312 H 1560.84 3.0269 -0.247529 0
M  V30 16313 H 1558.42 1.48223 -0.187146 0
M  V30 16314 H 1560.31 3.63714 2.12815 0
M  V30 16315 H 1558.98 2.44125 2.12567 0
M  V30 16316 H 1557.89 3.73546 0.203429 0
M  V30 16317 H 1559.22 4.91361 0.287306 0
M  V30 16318 N 1560.87 0.155222 1.56834 0
M  V30 16319 C 1562.12 -0.493826 1.96386 0
M  V30 16320 C 1562.45 -1.6433 1.04048 0
M  V30 16321 O 1561.7 -1.9557 0.0713123 0
M  V30 16322 C 1562 -1.03346 3.42132 0
M  V30 16323 C 1561.67 -0.00157215 4.509 0
M  V30 16324 C 1560.33 0.282068 4.80373 0
M  V30 16325 C 1562.68 0.699684 5.16482 0
M  V30 16326 C 1560.01 1.27263 5.72731 0
M  V30 16327 C 1562.36 1.67912 6.09908 0
M  V30 16328 C 1561.03 1.97037 6.37756 0
M  V30 16329 H 1560.3 -0.180704 0.718629 0
M  V30 16330 H 1562.94 0.243789 1.89942 0
M  V30 16331 H 1561.25 -1.84857 3.45449 0
M  V30 16332 H 1562.95 -1.54437 3.70068 0
M  V30 16333 H 1559.54 -0.232824 4.27967 0
M  V30 16334 H 1563.72 0.493751 4.93838 0
M  V30 16335 H 1558.98 1.50464 5.92597 0
M  V30 16336 H 1563.15 2.22796 6.59799 0
M  V30 16337 H 1560.78 2.73944 7.09125 0
M  V30 16338 N 1562.35 -1.57153 -0.118549 0
M  V30 16339 C 1563.28 -2.03409 -1.1466 0
M  V30 16340 C 1564.26 -0.918636 -1.43161 0
M  V30 16341 O 1565.45 -1.18838 -1.53594 0
M  V30 16342 C 1562.58 -2.43879 -2.47265 0
M  V30 16343 C 1561.53 -3.58873 -2.33225 0
M  V30 16344 C 1560.86 -3.85244 -3.70798 0
M  V30 16345 C 1562.16 -4.90582 -1.79239 0
M  V30 16346 H 1563.85 -2.89545 -0.761862 0
M  V30 16347 H 1561.4 -1.39296 -0.365034 0
M  V30 16348 H 1563.35 -2.74844 -3.19435 0
M  V30 16349 H 1562.07 -1.54715 -2.8763 0
M  V30 16350 H 1560.73 -3.28119 -1.63504 0
M  V30 16351 H 1560.38 -2.93285 -4.08648 0
M  V30 16352 H 1560.08 -4.62649 -3.62257 0
M  V30 16353 H 1561.61 -4.18661 -4.44472 0
M  V30 16354 H 1563.02 -5.20079 -2.41227 0
M  V30 16355 H 1561.42 -5.71989 -1.81518 0
M  V30 16356 H 1562.49 -4.79065 -0.74999 0
M  V30 16357 N 1563.83 0.388742 -1.5273 0
M  V30 16358 C 1564.74 1.49916 -1.8045 0
M  V30 16359 C 1565.76 1.59679 -0.691282 0
M  V30 16360 O 1566.93 1.7601 -0.978898 0
M  V30 16361 C 1564 2.85445 -1.96779 0
M  V30 16362 C 1563.06 2.85402 -3.20693 0
M  V30 16363 C 1562.29 4.14466 -3.36234 0
M  V30 16364 O 1562.51 5.09436 -2.56576 0
M  V30 16365 O 1561.45 4.2169 -4.29489 0
M  V30 16366 H 1565.27 1.29423 -2.74743 0
M  V30 16367 H 1562.86 0.576607 -1.37825 0
M  V30 16368 H 1564.74 3.65791 -2.09224 0
M  V30 16369 H 1563.42 3.05964 -1.05676 0
M  V30 16370 H 1562.32 2.03836 -3.1369 0
M  V30 16371 H 1563.66 2.69835 -4.11643 0
M  V30 16372 N 1565.31 1.43698 0.647203 0
M  V30 16373 C 1566.55 1.45849 1.40911 0
M  V30 16374 C 1566.89 0.0846767 1.94015 0
M  V30 16375 O 1566.16 -0.89537 1.72665 0
M  V30 16376 C 1566.44 2.50579 2.58616 0
M  V30 16377 C 1566.3 3.97258 2.10965 0
M  V30 16378 C 1567.62 2.51981 3.60824 0
M  V30 16379 H 1564.74 0.531056 0.511027 0
M  V30 16380 H 1567.38 1.75283 0.733204 0
M  V30 16381 H 1565.53 2.25611 3.16278 0
M  V30 16382 H 1567.2 4.33304 1.58257 0
M  V30 16383 H 1565.44 4.09802 1.42284 0
M  V30 16384 H 1566.11 4.6616 2.95633 0
M  V30 16385 H 1568.59 2.7425 3.12932 0
M  V30 16386 H 1567.47 3.27191 4.40723 0
M  V30 16387 H 1567.73 1.55582 4.1382 0
M  V30 16388 N 1566.79 -0.886131 1.30328 0
M  V30 16389 C 1567.72 -2.00793 1.19183 0
M  V30 16390 C 1568.7 -1.69899 0.08276 0
M  V30 16391 O 1569.88 -1.92389 0.264593 0
M  V30 16392 C 1567.01 -3.35922 0.881669 0
M  V30 16393 C 1565.97 -3.81072 1.94855 0
M  V30 16394 C 1565.29 -5.1348 1.4914 0
M  V30 16395 C 1566.59 -3.99923 3.35944 0
M  V30 16396 H 1568.29 -2.10375 2.13032 0
M  V30 16397 H 1565.83 -1.0108 1.02561 0
M  V30 16398 H 1567.79 -4.13922 0.790359 0
M  V30 16399 H 1566.51 -3.26469 -0.0925037 0
M  V30 16400 H 1565.17 -3.053 2.02947 0
M  V30 16401 H 1564.82 -5.00453 0.50553 0
M  V30 16402 H 1564.52 -5.44659 2.205 0
M  V30 16403 H 1566.04 -5.94005 1.41386 0
M  V30 16404 H 1567.45 -4.68364 3.30617 0
M  V30 16405 H 1565.85 -4.42477 4.05381 0
M  V30 16406 H 1566.92 -3.03816 3.77921 0
M  V30 16407 N 1568.26 -1.13026 -1.09832 0
M  V30 16408 C 1569.49 -0.91246 -1.85693 0
M  V30 16409 C 1569.91 0.538558 -1.80956 0
M  V30 16410 O 1569.26 1.37262 -1.20273 0
M  V30 16411 C 1569.32 -1.38684 -3.3384 0
M  V30 16412 O 1569.04 -2.78099 -3.38515 0
M  V30 16413 C 1570.54 -1.20688 -4.26555 0
M  V30 16414 H 1567.76 -0.32565 -0.58668 0
M  V30 16415 H 1570.3 -1.50177 -1.38806 0
M  V30 16416 H 1568.46 -0.840617 -3.7817 0
M  V30 16417 H 1568.87 -2.99061 -4.30886 0
M  V30 16418 H 1570.34 -1.5876 -5.28677 0
M  V30 16419 H 1570.82 -0.148111 -4.3895 0
M  V30 16420 H 1571.43 -1.74092 -3.88036 0
M  V30 16421 N 1569.74 1.27735 -0.923117 0
M  V30 16422 C 1570.65 2.30734 -0.424124 0
M  V30 16423 C 1571.67 1.66872 0.49291 0
M  V30 16424 O 1572.84 1.97843 0.37683 0
M  V30 16425 C 1569.91 3.45227 0.319254 0
M  V30 16426 C 1568.97 4.2462 -0.632137 0
M  V30 16427 C 1568.2 5.33646 0.0758596 0
M  V30 16428 O 1568.43 5.55481 1.29602 0
M  V30 16429 O 1567.36 5.98966 -0.593624 0
M  V30 16430 H 1571.19 2.75444 -1.27923 0
M  V30 16431 H 1568.77 1.32601 -0.688288 0
M  V30 16432 H 1570.65 4.14874 0.73873 0
M  V30 16433 H 1569.33 3.02582 1.15004 0
M  V30 16434 H 1568.24 3.57525 -1.1012 0
M  V30 16435 H 1569.57 4.70969 -1.43001 0
M  V30 16436 N 1571.22 0.688118 1.41784 0
M  V30 16437 C 1572.47 0.215517 2.00948 0
M  V30 16438 C 1572.79 -1.18656 1.54744 0
M  V30 16439 O 1572.06 -1.79925 0.774831 0
M  V30 16440 H 1570.64 0.0766876 0.743053 0
M  V30 16441 H 1573.3 0.88761 1.73515 0
M  V30 16442 H 1572.4 0.227139 3.11272 0
M  V30 16443 N 1572.7 -1.51554 0.432352 0
M  V30 16444 C 1573.63 -2.30514 -0.372243 0
M  V30 16445 C 1574.61 -1.35712 -1.02549 0
M  V30 16446 O 1575.79 -1.6463 -1.03009 0
M  V30 16447 C 1572.92 -3.14353 -1.47646 0
M  V30 16448 C 1571.88 -4.17392 -0.946974 0
M  V30 16449 C 1571.2 -4.89721 -2.14656 0
M  V30 16450 C 1572.5 -5.22298 0.0151377 0
M  V30 16451 H 1574.2 -2.98024 0.28668 0
M  V30 16452 H 1571.74 -1.43325 0.139315 0
M  V30 16453 H 1573.7 -3.68369 -2.04651 0
M  V30 16454 H 1572.42 -2.44654 -2.1636 0
M  V30 16455 H 1571.08 -3.6442 -0.399174 0
M  V30 16456 H 1570.73 -4.1653 -2.81978 0
M  V30 16457 H 1570.43 -5.59393 -1.79869 0
M  V30 16458 H 1571.95 -5.46559 -2.72224 0
M  V30 16459 H 1573.37 -5.71416 -0.464447 0
M  V30 16460 H 1571.76 -5.99468 0.275339 0
M  V30 16461 H 1572.83 -4.75436 0.953357 0
M  V30 16462 N 1574.18 -0.163538 -1.56749 0
M  V30 16463 C 1575.12 0.786745 -2.18891 0
M  V30 16464 C 1576.12 1.24323 -1.15066 0
M  V30 16465 O 1577.32 1.20979 -1.33282 0
M  V30 16466 H 1573.7 0.271967 -0.701098 0
M  V30 16467 H 1575.67 0.2386 -2.97445 0
M  V30 16468 C 1574.42 2.00905 -2.83782 0
M  V30 16469 H 1573.74 1.66681 -3.63397 0
M  V30 16470 H 1575.18 2.65302 -3.30743 0
M  V30 16471 C 1573.64 2.8277 -1.83148 0
M  V30 16472 O 1574.17 3.79666 -1.31213 0
M  V30 16473 N 1572.38 2.47629 -1.52079 0
M  V30 16474 H 1571.92 1.68896 -1.94504 0
M  V30 16475 H 1571.88 3.02693 -0.849963 0
M  V30 16476 N 1575.65 1.57214 0.110213 0
M  V30 16477 C 1577.07 1.52706 0.464004 0
M  V30 16478 C 1577.27 0.87792 1.81369 0
M  V30 16479 O 1576.33 0.463987 2.482 0
M  V30 16480 C 1577.64 2.97457 0.440406 0
M  V30 16481 C 1579.19 3.08594 0.523336 0
M  V30 16482 C 1579.66 4.54923 0.53004 0
M  V30 16483 N 1581.15 4.59411 0.591228 0
M  V30 16484 C 1581.89 5.7006 0.618007 0
M  V30 16485 N 1581.38 6.9018 0.601901 0
M  V30 16486 N 1583.18 5.58192 0.661679 0
M  V30 16487 H 1575.33 1.97794 -0.77403 0
M  V30 16488 H 1577.59 0.903673 -0.286496 0
M  V30 16489 H 1577.3 3.48356 -0.483845 0
M  V30 16490 H 1577.17 3.55356 1.26498 0
M  V30 16491 H 1579.56 2.57692 1.43801 0
M  V30 16492 H 1579.64 2.53674 -0.329095 0
M  V30 16493 H 1579.28 5.06472 -0.380623 0
M  V30 16494 H 1579.21 5.07663 1.39948 0
M  V30 16495 H 1581.7 3.72953 0.609483 0
M  V30 16496 H 1582.02 7.70267 0.6252 0
M  V30 16497 H 1580.36 6.92665 0.569186 0
M  V30 16498 H 1583.55 4.63256 0.671686 0
M  V30 16499 H 1583.73 6.44432 0.67908 0
M  V30 16500 N 1577.13 -0.380637 1.52934 0
M  V30 16501 C 1578.38 -1.1265 1.68635 0
M  V30 16502 C 1578.71 -1.89397 0.429227 0
M  V30 16503 O 1577.99 -1.85863 -0.573182 0
M  V30 16504 C 1578.27 -2.09797 2.92673 0
M  V30 16505 C 1578.12 -1.36758 4.28506 0
M  V30 16506 C 1579.44 -3.10117 3.12274 0
M  V30 16507 H 1576.56 -0.408158 0.613658 0
M  V30 16508 H 1579.2 -0.408947 1.85547 0
M  V30 16509 H 1577.35 -2.70987 2.78385 0
M  V30 16510 H 1579.02 -0.784679 4.54577 0
M  V30 16511 H 1577.27 -0.669413 4.28604 0
M  V30 16512 H 1577.94 -2.07786 5.11399 0
M  V30 16513 H 1580.41 -2.59022 3.25648 0
M  V30 16514 H 1579.29 -3.75328 4.00525 0
M  V30 16515 H 1579.55 -3.79451 2.26868 0
M  V30 16516 N 1578.61 -1.44039 -0.639573 0
M  V30 16517 C 1579.54 -1.53073 -1.76327 0
M  V30 16518 C 1580.52 -0.384344 -1.65701 0
M  V30 16519 O 1581.71 -0.603362 -1.84589 0
M  V30 16520 C 1578.84 -1.46646 -3.14821 0
M  V30 16521 C 1577.79 -2.59673 -3.40226 0
M  V30 16522 C 1577.12 -2.38298 -4.78663 0
M  V30 16523 C 1578.42 -4.01864 -3.33621 0
M  V30 16524 H 1580.11 -2.47126 -1.69023 0
M  V30 16525 H 1577.66 -1.1894 -0.811749 0
M  V30 16526 H 1579.61 -1.51567 -3.93199 0
M  V30 16527 H 1578.33 -0.491035 -3.22888 0
M  V30 16528 H 1576.99 -2.54127 -2.64225 0
M  V30 16529 H 1576.64 -1.38968 -4.83422 0
M  V30 16530 H 1576.34 -3.14074 -4.9662 0
M  V30 16531 H 1577.86 -2.45025 -5.59281 0
M  V30 16532 H 1579.28 -4.08824 -4.01915 0
M  V30 16533 H 1577.68 -4.77775 -3.63113 0
M  V30 16534 H 1578.75 -4.26033 -2.31569 0
M  V30 16535 N 1580.09 0.879207 -1.30796 0
M  V30 16536 C 1581.02 2.00158 -1.20246 0
M  V30 16537 C 1582 1.69852 -0.091769 0
M  V30 16538 O 1583.18 1.92246 -0.274792 0
M  V30 16539 C 1580.31 3.3545 -0.899472 0
M  V30 16540 C 1579.27 3.80033 -1.96873 0
M  V30 16541 C 1578.59 5.12681 -1.51861 0
M  V30 16542 C 1579.89 3.98136 -3.38061 0
M  V30 16543 H 1581.59 2.09242 -2.14145 0
M  V30 16544 H 1579.13 1.00535 -1.03096 0
M  V30 16545 H 1581.09 4.13497 -0.812299 0
M  V30 16546 H 1579.81 3.26513 0.075189 0
M  V30 16547 H 1578.47 3.04219 -2.04564 0
M  V30 16548 H 1578.12 5.00178 -0.532063 0
M  V30 16549 H 1577.82 5.43482 -2.23386 0
M  V30 16550 H 1579.34 5.93247 -1.44534 0
M  V30 16551 H 1580.76 4.66604 -3.33096 0
M  V30 16552 H 1579.15 4.40321 -4.07722 0
M  V30 16553 H 1580.22 3.01807 -3.79526 0
M  V30 16554 N 1581.57 1.13606 1.09231 0
M  V30 16555 C 1582.81 0.900386 1.81717 0
M  V30 16556 C 1583.15 -0.571984 1.85586 0
M  V30 16557 O 1582.42 -1.42336 1.32554 0
M  V30 16558 C 1582.7 1.49143 3.27763 0
M  V30 16559 C 1582.56 3.03306 3.32153 0
M  V30 16560 C 1583.88 1.16129 4.24502 0
M  V30 16561 H 1581 0.328531 0.659724 0
M  V30 16562 H 1583.64 1.40467 1.27941 0
M  V30 16563 H 1581.79 1.06256 3.73687 0
M  V30 16564 H 1583.46 3.54963 2.94617 0
M  V30 16565 H 1581.7 3.38192 2.71677 0
M  V30 16566 H 1582.37 3.39761 4.35047 0
M  V30 16567 H 1584.85 1.53193 3.86874 0
M  V30 16568 H 1583.73 1.60129 5.25024 0
M  V30 16569 H 1583.99 0.0752973 4.42036 0
M  V30 16570 N 1583.05 -1.27244 0.929878 0
M  V30 16571 C 1584.46 -1.4662 0.630451 0
M  V30 16572 C 1584.66 -1.84077 -0.819633 0
M  V30 16573 O 1583.72 -1.95555 -1.59733 0
M  V30 16574 C 1585.03 -2.55709 1.58219 0
M  V30 16575 C 1586.58 -2.69569 1.59065 0
M  V30 16576 C 1587.05 -3.81818 2.52941 0
M  V30 16577 N 1588.54 -3.89195 2.51161 0
M  V30 16578 C 1589.28 -4.75474 3.20488 0
M  V30 16579 N 1588.78 -5.66225 3.99201 0
M  V30 16580 N 1590.57 -4.69222 3.09495 0
M  V30 16581 H 1582.72 -1.01216 1.86733 0
M  V30 16582 H 1584.98 -0.505737 0.801832 0
M  V30 16583 H 1584.69 -2.34985 2.61677 0
M  V30 16584 H 1584.56 -3.53141 1.32556 0
M  V30 16585 H 1586.95 -2.89672 0.563375 0
M  V30 16586 H 1587.03 -1.72616 1.88778 0
M  V30 16587 H 1586.67 -3.62467 3.55781 0
M  V30 16588 H 1586.6 -4.78202 2.20524 0
M  V30 16589 H 1589.1 -3.24305 1.93997 0
M  V30 16590 H 1589.41 -6.28925 4.4908 0
M  V30 16591 H 1587.75 -5.66013 4.03304 0
M  V30 16592 H 1590.94 -3.97322 2.47493 0
M  V30 16593 H 1591.12 -5.36244 3.63794 0
M  V30 16594 N 1584.52 -0.695628 -1.41417 0
M  V30 16595 C 1585.77 -0.226171 -2.0083 0
M  V30 16596 C 1586.09 1.17833 -1.55371 0
M  V30 16597 O 1585.36 1.79512 -0.784362 0
M  V30 16598 H 1583.94 -0.0806271 -0.742636 0
M  V30 16599 H 1586.6 -0.8968 -1.73042 0
M  V30 16600 H 1585.7 -0.243643 -3.11148 0
M  V30 16601 N 1586 1.51322 -0.440383 0
M  V30 16602 C 1587.25 2.01714 0.124815 0
M  V30 16603 C 1587.57 1.32634 1.42945 0
M  V30 16604 O 1586.84 0.461849 1.90378 0
M  V30 16605 H 1585.42 0.745384 0.049116 0
M  V30 16606 H 1588.08 1.85951 -0.583787 0
M  V30 16607 H 1587.18 3.10669 0.29853 0
M  V30 16608 N 1587.48 0.171848 1.5666 0
M  V30 16609 C 1588.73 -0.472034 1.9651 0
M  V30 16610 C 1589.05 -1.63743 1.05893 0
M  V30 16611 O 1588.32 -1.95498 0.125396 0
M  V30 16612 H 1586.9 -0.177377 0.725635 0
M  V30 16613 H 1589.56 0.253155 1.93249 0
M  V30 16614 H 1588.66 -0.831693 3.00814 0
M  V30 16615 N 1588.96 -1.5727 -0.101874 0
M  V30 16616 C 1590.37 -1.5295 -0.455899 0
M  V30 16617 C 1590.57 -0.887526 -1.80901 0
M  V30 16618 O 1589.63 -0.477143 -2.47951 0
M  V30 16619 C 1590.94 -2.97687 -0.424625 0
M  V30 16620 C 1592.49 -3.08867 -0.506963 0
M  V30 16621 C 1592.97 -4.55197 -0.505907 0
M  V30 16622 N 1594.46 -4.59718 -0.566856 0
M  V30 16623 C 1595.19 -5.7038 -0.587766 0
M  V30 16624 N 1594.69 -6.9049 -0.56529 0
M  V30 16625 N 1596.48 -5.58535 -0.632067 0
M  V30 16626 H 1588.63 -1.97381 0.784509 0
M  V30 16627 H 1590.89 -0.902141 0.291284 0
M  V30 16628 H 1590.6 -3.48094 0.502312 0
M  V30 16629 H 1590.47 -3.56022 -1.24612 0
M  V30 16630 H 1592.86 -2.58451 -1.42432 0
M  V30 16631 H 1592.94 -2.53496 0.342544 0
M  V30 16632 H 1592.59 -5.06263 0.407477 0
M  V30 16633 H 1592.52 -5.08399 -1.37253 0
M  V30 16634 H 1595.01 -3.73271 -0.589696 0
M  V30 16635 H 1595.32 -7.70588 -0.584342 0
M  V30 16636 H 1593.67 -6.92957 -0.532444 0
M  V30 16637 H 1596.86 -4.63606 -0.647109 0
M  V30 16638 H 1597.03 -6.44783 -0.644895 0
M  V30 16639 N 1590.44 0.372521 -1.53134 0
M  V30 16640 C 1591.35 1.47994 -1.8203 0
M  V30 16641 C 1592.36 1.58937 -0.708179 0
M  V30 16642 O 1593.54 1.74962 -0.997511 0
M  V30 16643 C 1590.6 2.83342 -1.99796 0
M  V30 16644 C 1589.66 2.81984 -3.23702 0
M  V30 16645 C 1588.9 4.10877 -3.40611 0
M  V30 16646 O 1589.12 5.06686 -2.61964 0
M  V30 16647 O 1588.05 4.17111 -4.33938 0
M  V30 16648 H 1591.88 1.26501 -2.761 0
M  V30 16649 H 1589.46 0.561957 -1.38428 0
M  V30 16650 H 1591.35 3.63551 -2.13092 0
M  V30 16651 H 1590.02 3.04826 -1.08916 0
M  V30 16652 H 1588.93 2.00498 -3.15834 0
M  V30 16653 H 1590.26 2.65453 -4.14482 0
M  V30 16654 N 1591.91 1.44376 0.631925 0
M  V30 16655 C 1593.16 1.47335 1.39356 0
M  V30 16656 C 1593.49 0.10525 1.93915 0
M  V30 16657 O 1592.77 -0.877006 1.73605 0
M  V30 16658 C 1593.05 2.53308 2.55943 0
M  V30 16659 C 1592.9 3.99473 2.06739 0
M  V30 16660 C 1594.22 2.55794 3.58131 0
M  V30 16661 H 1591.34 0.536447 0.505365 0
M  V30 16662 H 1593.98 1.76051 0.714572 0
M  V30 16663 H 1592.13 2.28953 3.13868 0
M  V30 16664 H 1593.81 4.34958 1.53652 0
M  V30 16665 H 1592.05 4.11288 1.37929 0
M  V30 16666 H 1592.72 4.69269 2.90672 0
M  V30 16667 H 1595.2 2.77554 3.10005 0
M  V30 16668 H 1594.07 3.31847 4.37228 0
M  V30 16669 H 1594.33 1.59962 4.12146 0
M  V30 16670 N 1593.39 -0.872258 1.31261 0
M  V30 16671 C 1594.64 -1.6199 1.20176 0
M  V30 16672 C 1594.95 -1.94129 -0.239439 0
M  V30 16673 O 1596.16 -2.67366 -0.471956 0
M  V30 16674 C 1594.62 -2.92017 2.10366 0
M  V30 16675 C 1594.22 -2.6737 3.59468 0
M  V30 16676 C 1595.97 -3.70007 2.08075 0
M  V30 16677 C 1593.87 -3.93291 4.41674 0
M  V30 16678 H 1592.8 -0.607793 0.446211 0
M  V30 16679 H 1595.46 -0.964627 1.561 0
M  V30 16680 H 1593.84 -3.58907 1.67338 0
M  V30 16681 H 1595.01 -2.08902 4.10727 0
M  V30 16682 H 1593.33 -2.02738 3.63712 0
M  V30 16683 H 1595.92 -4.63416 2.66739 0
M  V30 16684 H 1596.27 -4.02385 1.06733 0
M  V30 16685 H 1596.8 -3.09998 2.49291 0
M  V30 16686 H 1593.54 -3.66064 5.43762 0
M  V30 16687 H 1593.06 -4.51218 3.95174 0
M  V30 16688 H 1594.74 -4.61197 4.53769 0
M  V30 16689 N 1594.87 -1.14184 -1.08627 0
M  V30 16690 C 1596.1 -0.932104 -1.84714 0
M  V30 16691 C 1596.51 0.519335 -1.81517 0
M  V30 16692 O 1595.87 1.35978 -1.21722 0
M  V30 16693 C 1595.92 -1.42217 -3.3235 0
M  V30 16694 O 1595.64 -2.81674 -3.35547 0
M  V30 16695 C 1597.14 -1.25205 -4.25251 0
M  V30 16696 H 1594.36 -0.331854 -0.583193 0
M  V30 16697 H 1596.91 -1.51641 -1.37205 0
M  V30 16698 H 1595.06 -0.880679 -3.77257 0
M  V30 16699 H 1595.48 -3.03615 -4.2769 0
M  V30 16700 H 1596.95 -1.64358 -5.26963 0
M  V30 16701 H 1597.43 -0.194659 -4.38768 0
M  V30 16702 H 1598.03 -1.78198 -3.86168 0
M  V30 16703 N 1596.35 1.26749 -0.936613 0
M  V30 16704 C 1597.6 1.93255 -0.577524 0
M  V30 16705 C 1597.91 1.74337 0.886905 0
M  V30 16706 O 1599.12 2.3526 1.35517 0
M  V30 16707 C 1597.57 3.4624 -0.982119 0
M  V30 16708 C 1597.18 3.739 -2.46784 0
M  V30 16709 C 1598.92 4.18777 -0.694706 0
M  V30 16710 C 1596.83 5.20303 -2.81138 0
M  V30 16711 H 1595.76 0.723502 -0.212276 0
M  V30 16712 H 1598.41 1.43901 -1.13863 0
M  V30 16713 H 1596.79 3.94454 -0.349577 0
M  V30 16714 H 1597.97 3.3641 -3.14905 0
M  V30 16715 H 1596.28 3.14587 -2.72808 0
M  V30 16716 H 1598.88 5.2659 -0.927756 0
M  V30 16717 H 1599.22 4.14667 0.368392 0
M  V30 16718 H 1599.76 3.76414 -1.28676 0
M  V30 16719 H 1596.5 5.29511 -3.86392 0
M  V30 16720 H 1596.02 5.58907 -2.17675 0
M  V30 16721 H 1597.69 5.88265 -2.69358 0
M  V30 16722 N 1597.83 0.703118 1.41046 0
M  V30 16723 C 1599.06 0.246194 2.05128 0
M  V30 16724 C 1599.46 -1.11245 1.5304 0
M  V30 16725 O 1598.81 -1.70783 0.676678 0
M  V30 16726 C 1598.87 0.134596 3.59248 0
M  V30 16727 C 1598.53 1.4265 4.34166 0
M  V30 16728 C 1599.53 2.3659 4.62948 0
M  V30 16729 C 1597.22 1.68196 4.73303 0
M  V30 16730 C 1599.21 3.54332 5.29837 0
M  V30 16731 C 1596.9 2.86223 5.39926 0
M  V30 16732 C 1597.89 3.79114 5.68121 0
M  V30 16733 O 1597.58 4.95072 6.33371 0
M  V30 16734 H 1597.31 0.110667 0.66688 0
M  V30 16735 H 1599.87 0.958407 1.81669 0
M  V30 16736 H 1598.1 -0.633453 3.81476 0
M  V30 16737 H 1599.79 -0.286131 4.0489 0
M  V30 16738 H 1600.55 2.18113 4.33188 0
M  V30 16739 H 1596.43 0.96753 4.50733 0
M  V30 16740 H 1599.98 4.26855 5.51762 0
M  V30 16741 H 1595.87 3.04614 5.69105 0
M  V30 16742 H 1596.64 4.94986 6.51868 0
M  V30 16743 N 1599.3 -1.51086 0.448402 0
M  V30 16744 C 1600.53 -2.07081 -0.115038 0
M  V30 16745 C 1600.95 -1.31253 -1.34737 0
M  V30 16746 O 1600.31 -0.353613 -1.77818 0
M  V30 16747 C 1600.36 -3.58321 -0.404803 0
M  V30 16748 O 1599.46 -3.84567 -1.48936 0
M  V30 16749 H 1598.81 -0.663993 0.00299118 0
M  V30 16750 H 1601.34 -1.94564 0.632921 0
M  V30 16751 H 1601.35 -4.02756 -0.652013 0
M  V30 16752 H 1600.02 -4.12934 0.495838 0
M  V30 16753 H 1598.6 -3.51987 -1.23124 0
M  V30 16754 O 1600.82 -0.321328 -1.58271 0
M  V30 16755 H 1601.51 0.238994 -1.9222 0
M  V30 END ATOM
M  V30 BEGIN BOND
M  V30 END BOND
M  V30 END CTAB
M  END
$$$$
