drugbank_target|Q9Y694 Solute carrier family 22 member 7 (DB00493)
 OpenBabel12092120363D

  0  0  0     0  0            999 V3000
M  V30 BEGIN CTAB
M  V30 COUNTS 8526 8630 0 0 0
M  V30 BEGIN ATOM
M  V30 1 H -0.908 1.98254 -0.117106 0
M  V30 2 N 0 1.576 0 0
M  V30 3 C 0.933 2.03868 1.02534 0
M  V30 4 C 1.911 0.928543 1.3348 0
M  V30 5 O 3.095 1.19667 1.45644 0
M  V30 6 C 0.222 2.43627 2.35294 0
M  V30 7 C -0.732 3.65373 2.2001 0
M  V30 8 S 0.101 5.13292 1.52614 0
M  V30 9 C 1.257 5.56322 2.86805 0
M  V30 10 H 1.49 2.90518 0.631377 0
M  V30 11 H -0.977 1.52953 0.210867 0
M  V30 12 H 0.981 2.67203 3.11629 0
M  V30 13 H -0.358 1.57376 2.7183 0
M  V30 14 H -1.165 3.90944 3.18086 0
M  V30 15 H -1.563 3.418 1.51819 0
M  V30 16 H 0.729 5.58782 3.83104 0
M  V30 17 H 1.672 6.56266 2.65933 0
M  V30 18 H 2.08 4.83886 2.90714 0
M  V30 19 N 1.4781 -0.272755 1.55222 0
M  V30 20 C 2.7261 -1.00234 1.75492 0
M  V30 21 C 3.0471 -1.8681 0.5592 0
M  V30 22 O 2.3171 -1.91215 -0.425882 0
M  V30 23 H 0.8971 -0.373076 0.647166 0
M  V30 24 H 3.5591 -0.296926 1.92625 0
M  V30 25 H 2.6551 -1.63913 2.65592 0
M  V30 26 N 2.9562 -1.48159 -0.537278 0
M  V30 27 C 4.2032 -1.55804 -1.29349 0
M  V30 28 C 4.5312 -0.228802 -1.9315 0
M  V30 29 O 3.7862 0.780242 -1.79473 0
M  V30 30 C 4.0852 -2.63956 -2.40961 0
M  V30 31 C 3.7512 -4.0662 -1.94861 0
M  V30 32 C 2.4132 -4.45452 -1.82006 0
M  V30 33 C 4.7652 -4.96055 -1.59933 0
M  V30 34 C 2.0932 -5.71531 -1.32547 0
M  V30 35 C 4.4452 -6.22617 -1.11939 0
M  V30 36 C 3.1092 -6.60312 -0.976951 0
M  V30 37 H 2.3792 -0.570129 -0.473322 0
M  V30 38 H 5.0262 -1.81845 -0.600372 0
M  V30 39 H 3.3312 -2.31747 -3.15912 0
M  V30 40 H 5.0282 -2.67089 -2.99107 0
M  V30 41 H 1.6182 -3.75949 -2.05815 0
M  V30 42 H 5.8022 -4.66738 -1.68728 0
M  V30 43 H 1.0582 -5.99468 -1.202 0
M  V30 44 H 5.2322 -6.91318 -0.839811 0
M  V30 45 H 2.8592 -7.57895 -0.591501 0
M  V30 46 N 4.4343 0.785586 -1.36625 0
M  V30 47 C 5.3443 1.92964 -1.33425 0
M  V30 48 C 6.3603 1.72394 -0.235851 0
M  V30 49 O 7.5363 1.95866 -0.468878 0
M  V30 50 C 4.6013 3.27884 -1.12662 0
M  V30 51 C 3.6623 3.61204 -2.32013 0
M  V30 52 C 2.8953 4.89687 -2.12231 0
M  V30 53 O 3.1183 5.59704 -1.09945 0
M  V30 54 O 2.0523 5.21752 -3.00098 0
M  V30 55 H 5.8783 1.98613 -2.29753 0
M  V30 56 H 3.4633 0.926384 -1.17211 0
M  V30 57 H 5.3453 4.08614 -1.03016 0
M  V30 58 H 4.0203 3.23118 -0.193991 0
M  V30 59 H 2.9273 2.80765 -2.47228 0
M  V30 60 H 4.2603 3.70698 -3.23796 0
M  V30 61 N 5.9124 1.20967 1.01018 0
M  V30 62 C 6.8224 0.980157 2.13143 0
M  V30 63 C 7.8384 -0.0660665 1.73875 0
M  V30 64 O 9.0144 0.122821 2.01025 0
M  V30 65 C 6.0794 0.54216 3.42435 0
M  V30 66 C 5.1404 1.65999 3.95908 0
M  V30 67 C 4.3734 1.2428 5.19028 0
M  V30 68 O 4.5964 0.114196 5.70286 0
M  V30 69 O 3.5304 2.05271 5.65816 0
M  V30 70 H 7.3564 1.91913 2.35379 0
M  V30 71 H 4.9414 0.994099 1.11526 0
M  V30 72 H 6.8234 0.30744 4.20277 0
M  V30 73 H 5.4984 -0.36815 3.216 0
M  V30 74 H 4.4054 1.94906 3.19316 0
M  V30 75 H 5.7384 2.54753 4.21143 0
M  V30 76 N 7.3905 -1.2043 1.01659 0
M  V30 77 C 8.3205 -2.25466 0.607226 0
M  V30 78 C 9.3015 -1.65853 -0.377716 0
M  V30 79 O 10.4865 -1.92409 -0.263149 0
M  V30 80 C 7.6165 -3.47256 -0.0552949 0
M  V30 81 C 6.5705 -4.19462 0.850632 0
M  V30 82 C 5.8965 -5.34673 0.0538859 0
M  V30 83 C 7.1965 -4.75603 2.15868 0
M  V30 84 H 8.8905 -2.59962 1.48526 0
M  V30 85 H 6.4365 -1.2496 0.715605 0
M  V30 86 H 8.3895 -4.19917 -0.353233 0
M  V30 87 H 7.1135 -3.11924 -0.968045 0
M  V30 88 H 5.7725 -3.48667 1.13257 0
M  V30 89 H 5.4205 -4.95585 -0.860514 0
M  V30 90 H 5.1205 -5.83913 0.657192 0
M  V30 91 H 6.6445 -6.10138 -0.237598 0
M  V30 92 H 8.0585 -5.40083 1.92311 0
M  V30 93 H 6.4555 -5.3528 2.71284 0
M  V30 94 H 7.5255 -3.94346 2.82169 0
M  V30 95 N 8.8686 -0.792821 -1.36206 0
M  V30 96 C 9.7986 -0.207853 -2.32573 0
M  V30 97 C 10.7796 0.659055 -1.56813 0
M  V30 98 O 11.9646 0.592176 -1.84951 0
M  V30 99 C 9.0946 0.655449 -3.41059 0
M  V30 100 C 8.0486 -0.111842 -4.27854 0
M  V30 101 C 7.3746 0.872274 -5.27537 0
M  V30 102 C 8.6746 -1.30299 -5.05786 0
M  V30 103 H 10.3686 -1.01294 -2.81744 0
M  V30 104 H 7.9146 -0.48854 -1.3546 0
M  V30 105 H 9.8676 1.07464 -4.07467 0
M  V30 106 H 8.5916 1.49328 -2.90463 0
M  V30 107 H 7.2506 -0.512053 -3.63006 0
M  V30 108 H 6.8986 1.70523 -4.73214 0
M  V30 109 H 6.5986 0.363291 -5.86476 0
M  V30 110 H 8.1226 1.28996 -5.96818 0
M  V30 111 H 9.5366 -0.959379 -5.65216 0
M  V30 112 H 7.9336 -1.7455 -5.74154 0
M  V30 113 H 9.0036 -2.09663 -4.37229 0
M  V30 114 N 10.3467 1.47872 -0.545128 0
M  V30 115 C 11.2567 2.33633 0.212746 0
M  V30 116 C 12.2727 1.4744 0.923983 0
M  V30 117 O 13.4487 1.80393 0.895572 0
M  V30 118 C 10.5137 3.23884 1.23693 0
M  V30 119 C 9.5747 4.25961 0.534417 0
M  V30 120 C 8.8077 5.11899 1.5098 0
M  V30 121 O 9.0307 5.00077 2.7437 0
M  V30 122 O 7.9647 5.92831 1.0409 0
M  V30 123 H 11.7907 2.99714 -0.490416 0
M  V30 124 H 9.3757 1.46235 -0.305871 0
M  V30 125 H 11.2577 3.79666 1.82843 0
M  V30 126 H 9.9327 2.60446 1.92222 0
M  V30 127 H 8.8397 3.73972 -0.0979679 0
M  V30 128 H 10.1727 4.92079 -0.109213 0
M  V30 129 N 11.8248 0.280983 1.55075 0
M  V30 130 C 12.7568 -0.637268 2.20163 0
M  V30 131 C 13.7698 -1.11298 1.18813 0
M  V30 132 O 14.9588 -1.03388 1.4551 0
M  V30 133 C 12.0588 -1.88199 2.81841 0
M  V30 134 C 11.2318 -1.55211 4.08936 0
M  V30 135 C 10.2908 -2.64991 4.54606 0
M  V30 136 O 9.3168 -2.30929 5.2025 0
M  V30 137 N 10.5188 -3.95161 4.25238 0
M  V30 138 H 13.2838 -0.0801694 2.99593 0
M  V30 139 H 10.8448 0.102329 1.61576 0
M  V30 140 H 12.8368 -2.60948 3.09335 0
M  V30 141 H 11.4068 -2.34799 2.06369 0
M  V30 142 H 10.6268 -0.658185 3.88666 0
M  V30 143 H 11.9148 -1.30681 4.91732 0
M  V30 144 H 11.3128 -4.25653 3.72607 0
M  V30 145 H 9.8698 -4.6427 4.5749 0
M  V30 146 N 13.3029 -1.57598 0.00835791 0
M  V30 147 C 14.5489 -1.91211 -0.675732 0
M  V30 148 C 14.8819 -0.883139 -1.72958 0
M  V30 149 O 14.1569 0.097016 -1.94258 0
M  V30 150 C 14.4399 -3.35379 -1.31123 0
M  V30 151 C 14.2929 -4.48999 -0.268356 0
M  V30 152 C 15.6119 -3.7912 -2.23508 0
M  V30 153 H 12.7309 -0.695374 -0.244179 0
M  V30 154 H 15.3729 -1.89901 0.0613655 0
M  V30 155 H 13.5229 -3.36626 -1.93946 0
M  V30 156 H 15.1949 -4.59887 0.360844 0
M  V30 157 H 13.4379 -4.31873 0.408482 0
M  V30 158 H 14.1089 -5.46851 -0.752218 0
M  V30 159 H 16.5849 -3.79477 -1.70693 0
M  V30 160 H 15.4609 -4.80729 -2.64936 0
M  V30 161 H 15.7219 -3.13455 -3.11766 0
M  V30 162 N 14.781 0.264519 -1.55364 0
M  V30 163 C 16.029 0.993021 -1.76021 0
M  V30 164 C 16.35 1.86511 -0.569099 0
M  V30 165 O 15.62 1.91438 0.415735 0
M  V30 166 H 14.2 0.369639 -0.649135 0
M  V30 167 H 16.862 0.286707 -1.9278 0
M  V30 168 H 15.958 1.62502 -2.66457 0
M  V30 169 N 16.2591 1.48442 0.529413 0
M  V30 170 C 17.5071 1.56179 1.28267 0
M  V30 171 C 17.8281 0.237721 1.93546 0
M  V30 172 O 17.0981 -0.740779 1.81354 0
M  V30 173 H 15.6781 0.575367 0.476405 0
M  V30 174 H 18.3401 1.84909 0.61602 0
M  V30 175 H 17.4361 2.34312 2.06165 0
M  V30 176 N 17.7372 -0.778329 1.37039 0
M  V30 177 C 18.9842 -1.53665 1.31884 0
M  V30 178 C 19.3122 -1.9425 -0.0986303 0
M  V30 179 O 18.5672 -1.63832 -1.07041 0
M  V30 180 C 18.8662 -2.81845 2.19768 0
M  V30 181 C 18.5322 -2.60345 3.68146 0
M  V30 182 C 17.1942 -2.5419 4.08584 0
M  V30 183 C 19.5462 -2.40923 4.62175 0
M  V30 184 C 16.8742 -2.26594 5.41177 0
M  V30 185 C 19.2262 -2.14852 5.94997 0
M  V30 186 C 17.8902 -2.07137 6.34547 0
M  V30 187 H 17.1602 -0.562299 0.482598 0
M  V30 188 H 19.8072 -0.897069 1.69189 0
M  V30 189 H 18.1122 -3.50328 1.75436 0
M  V30 190 H 19.8092 -3.39692 2.13097 0
M  V30 191 H 16.3992 -2.65996 3.36072 0
M  V30 192 H 20.5832 -2.44673 4.31797 0
M  V30 193 H 15.8392 -2.19111 5.70789 0
M  V30 194 H 20.0132 -1.98822 6.67415 0
M  V30 195 H 17.6402 -1.85518 7.37216 0
M  V30 196 N 19.2153 -1.21501 -1.00376 0
M  V30 197 C 20.4633 -1.03095 -1.73827 0
M  V30 198 C 20.7843 0.436341 -1.90055 0
M  V30 199 O 20.0543 1.31466 -1.45236 0
M  V30 200 H 18.6343 -0.378487 -0.644016 0
M  V30 201 H 21.2963 -1.52831 -1.20949 0
M  V30 202 H 20.3923 -1.49991 -2.73695 0
M  V30 203 N 20.6934 1.19889 -1.02296 0
M  V30 204 C 22.1044 1.71124 -0.746568 0
M  V30 205 C 22.4554 1.81939 0.734335 0
M  V30 206 O 21.5804 1.48639 1.57275 0
M  V30 207 C 22.1754 3.10804 -1.34857 0
M  V30 208 C 20.7344 3.59323 -1.1209 0
M  V30 209 C 19.8814 2.3635 -1.45031 0
M  V30 210 H 22.8324 1.04813 -1.19163 0
M  V30 211 H 22.8534 3.73186 -0.742437 0
M  V30 212 H 22.3654 3.029 -2.42638 0
M  V30 213 H 20.4664 3.7255 -0.0610337 0
M  V30 214 H 20.5794 4.4378 -1.80544 0
M  V30 215 H 18.9434 2.39399 -0.869487 0
M  V30 216 H 19.7264 2.31081 -2.53883 0
M  V30 217 N 22.1715 0.800033 1.35784 0
M  V30 218 C 23.4185 0.377342 1.98953 0
M  V30 219 C 23.7465 -1.05378 1.6348 0
M  V30 220 O 23.0015 -1.74459 0.886707 0
M  V30 221 C 23.3005 0.500276 3.53881 0
M  V30 222 C 22.9665 1.89375 4.09204 0
M  V30 223 C 21.6285 2.27499 4.24025 0
M  V30 224 C 23.9805 2.8057 4.39238 0
M  V30 225 C 21.3085 3.562 4.66195 0
M  V30 226 C 23.6605 4.0871 4.82844 0
M  V30 227 C 22.3245 4.46843 4.95871 0
M  V30 228 H 21.5945 0.138079 0.728021 0
M  V30 229 H 24.2415 1.01955 1.62103 0
M  V30 230 H 22.5465 -0.225405 3.91151 0
M  V30 231 H 24.2435 0.154097 4.00704 0
M  V30 232 H 20.8335 1.58753 3.98115 0
M  V30 233 H 25.0175 2.52367 4.27346 0
M  V30 234 H 20.2735 3.85602 4.74469 0
M  V30 235 H 24.4475 4.79481 5.05046 0
M  V30 236 H 22.0745 5.46623 5.28306 0
M  V30 237 N 23.6496 -1.47581 0.552962 0
M  V30 238 C 24.5816 -2.27997 -0.234533 0
M  V30 239 C 25.5946 -1.36753 -0.883321 0
M  V30 240 O 26.7836 -1.61612 -0.757889 0
M  V30 241 C 23.8836 -3.10879 -1.34935 0
M  V30 242 C 23.0566 -4.30056 -0.798158 0
M  V30 243 C 22.1156 -4.94567 -1.79694 0
M  V30 244 O 21.1416 -5.53087 -1.34474 0
M  V30 245 N 22.3436 -4.88878 -3.13015 0
M  V30 246 H 25.1086 -2.96222 0.455255 0
M  V30 247 H 22.6696 -1.57163 0.388761 0
M  V30 248 H 24.6616 -3.50903 -2.01616 0
M  V30 249 H 23.2316 -2.44924 -1.94244 0
M  V30 250 H 22.4516 -3.94174 0.0453079 0
M  V30 251 H 23.7396 -5.07152 -0.409173 0
M  V30 252 H 23.1376 -4.42526 -3.52402 0
M  V30 253 H 21.6946 -5.32934 -3.75266 0
M  V30 254 N 25.1277 -0.289203 -1.54924 0
M  V30 255 C 26.0577 0.58549 -2.2604 0
M  V30 256 C 27.0387 1.14753 -1.25562 0
M  V30 257 O 28.2237 1.17906 -1.54311 0
M  V30 258 C 25.3537 1.76305 -2.99222 0
M  V30 259 C 24.3077 1.33191 -4.06748 0
M  V30 260 C 23.6337 2.5937 -4.6758 0
M  V30 261 C 24.9337 0.471775 -5.20165 0
M  V30 262 H 26.6277 -0.00763532 -2.99399 0
M  V30 263 H 24.1737 -0.00511229 -1.43999 0
M  V30 264 H 26.1267 2.38097 -3.47689 0
M  V30 265 H 24.8507 2.38223 -2.23422 0
M  V30 266 H 23.5097 0.737121 -3.59113 0
M  V30 267 H 23.1577 3.19576 -3.88433 0
M  V30 268 H 22.8577 2.31228 -5.40192 0
M  V30 269 H 24.3817 3.21985 -5.18804 0
M  V30 270 H 25.7957 0.995056 -5.64599 0
M  V30 271 H 24.1927 0.284639 -5.99425 0
M  V30 272 H 25.2627 -0.506041 -4.82252 0
M  V30 273 N 26.6058 1.57591 -0.0167156 0
M  V30 274 C 28.0218 1.55946 0.339557 0
M  V30 275 C 28.2218 1.02109 1.73713 0
M  V30 276 O 27.2778 0.662303 2.43659 0
M  V30 277 C 28.5908 3.00037 0.199499 0
M  V30 278 C 30.1388 3.11805 0.273193 0
M  V30 279 C 30.6138 4.57713 0.162068 0
M  V30 280 N 32.1048 4.6268 0.219444 0
M  V30 281 C 32.8398 5.73185 0.157054 0
M  V30 282 N 32.3358 6.92786 0.0442936 0
M  V30 283 N 34.1288 5.61707 0.21014 0
M  V30 284 H 26.2798 1.90921 -0.930758 0
M  V30 285 H 28.5428 0.877674 -0.358319 0
M  V30 286 H 28.2488 3.4333 -0.76273 0
M  V30 287 H 28.1228 3.64387 0.974786 0
M  V30 288 H 30.5098 2.68433 1.22587 0
M  V30 289 H 30.5908 2.50201 -0.532256 0
M  V30 290 H 30.2348 5.01763 -0.78714 0
M  V30 291 H 30.1648 5.17283 0.986222 0
M  V30 292 H 32.6558 3.76649 0.307246 0
M  V30 293 H 32.9688 7.728 0.00304069 0
M  V30 294 H 31.3138 6.94999 0.00968457 0
M  V30 295 H 34.5048 4.6716 0.296546 0
M  V30 296 H 34.6778 6.47807 0.158054 0
M  V30 297 N 28.0839 -0.256276 1.55502 0
M  V30 298 C 29.0319 -1.33694 1.90338 0
M  V30 299 C 30.0259 -1.50299 0.781441 0
M  V30 300 O 31.2319 -1.51885 0.965966 0
M  V30 301 H 27.6069 -0.447483 0.60437 0
M  V30 302 H 29.5779 -1.01574 2.8058 0
M  V30 303 C 28.3269 -2.68724 2.20642 0
M  V30 304 H 27.6499 -2.56743 3.06469 0
M  V30 305 H 29.0899 -3.43237 2.48926 0
M  V30 306 C 27.5489 -3.21101 1.01959 0
M  V30 307 O 28.0789 -4.0084 0.262762 0
M  V30 308 N 26.2849 -2.79003 0.812746 0
M  V30 309 H 25.8319 -2.14271 1.42989 0
M  V30 310 H 25.7899 -3.14393 0.0203076 0
M  V30 311 N 29.562 -1.4872 -0.521534 0
M  V30 312 C 30.808 -1.574 -1.27879 0
M  V30 313 C 31.141 -0.250817 -1.92573 0
M  V30 314 O 30.416 0.743934 -1.79711 0
M  V30 315 C 30.699 -2.71843 -2.36164 0
M  V30 316 C 30.552 -4.13893 -1.76105 0
M  V30 317 C 31.871 -2.82008 -3.37875 0
M  V30 318 H 28.99 -0.572941 -0.463581 0
M  V30 319 H 31.632 -1.80927 -0.580119 0
M  V30 320 H 29.782 -2.51914 -2.95756 0
M  V30 321 H 31.454 -4.45284 -1.20499 0
M  V30 322 H 29.697 -4.20498 -1.06601 0
M  V30 323 H 30.368 -4.89804 -2.5455 0
M  V30 324 H 32.844 -3.00086 -2.88249 0
M  V30 325 H 31.72 -3.63796 -4.11028 0
M  V30 326 H 31.981 -1.90511 -3.98946 0
M  V30 327 N 31.0401 0.771051 -1.3745 0
M  V30 328 C 32.0031 1.86598 -1.33093 0
M  V30 329 C 33.0031 1.59076 -0.234845 0
M  V30 330 O 34.1931 1.67145 -0.490732 0
M  V30 331 C 31.3251 3.23747 -1.06773 0
M  V30 332 H 32.5181 1.91873 -2.30488 0
M  V30 333 H 30.0711 0.970876 -1.2249 0
M  V30 334 H 30.8061 3.24148 -0.099129 0
M  V30 335 H 30.5911 3.45115 -1.86112 0
M  V30 336 H 32.0811 4.03824 -1.06377 0
M  V30 337 N 32.5182 1.22032 0.997298 0
M  V30 338 C 33.4482 1.01065 2.10495 0
M  V30 339 C 34.4292 -0.0669542 1.69968 0
M  V30 340 O 35.6142 0.0943987 1.9397 0
M  V30 341 C 32.7442 0.582874 3.42374 0
M  V30 342 C 31.6982 1.60592 3.96729 0
M  V30 343 C 31.0242 1.03412 5.24605 0
M  V30 344 C 32.3242 2.99478 4.27914 0
M  V30 345 H 34.0182 1.93708 2.28292 0
M  V30 346 H 31.5642 0.932761 1.09707 0
M  V30 347 H 33.5172 0.423332 4.19268 0
M  V30 348 H 32.2412 -0.379213 3.24391 0
M  V30 349 H 30.9002 1.75316 3.21963 0
M  V30 350 H 30.5482 0.063518 5.0296 0
M  V30 351 H 30.2482 1.71754 5.61938 0
M  V30 352 H 31.7722 0.886066 6.04137 0
M  V30 353 H 33.1862 2.88153 4.95622 0
M  V30 354 H 31.5832 3.64903 4.76409 0
M  V30 355 H 32.6532 3.49742 3.3587 0
M  V30 356 N 33.9963 -1.19345 1.0293 0
M  V30 357 C 34.9263 -2.2481 0.631105 0
M  V30 358 C 35.9073 -1.66245 -0.360104 0
M  V30 359 O 37.0923 -1.92677 -0.242726 0
M  V30 360 C 34.2223 -3.47295 -0.0184607 0
M  V30 361 C 33.1763 -4.18536 0.895073 0
M  V30 362 C 32.5023 -5.34586 0.110592 0
M  V30 363 C 33.8023 -4.73287 2.209 0
M  V30 364 H 35.4963 -2.58372 1.51275 0
M  V30 365 H 33.0423 -1.24194 0.728818 0
M  V30 366 H 34.9953 -4.20268 -0.308675 0
M  V30 367 H 33.7193 -3.12933 -0.934907 0
M  V30 368 H 32.3783 -3.47446 1.16949 0
M  V30 369 H 32.0263 -4.96469 -0.807902 0
M  V30 370 H 31.7263 -5.83183 0.719087 0
M  V30 371 H 33.2503 -6.10355 -0.172871 0
M  V30 372 H 34.6643 -5.38013 1.98028 0
M  V30 373 H 33.0613 -5.32373 2.76946 0
M  V30 374 H 34.1313 -3.91331 2.86336 0
M  V30 375 N 35.4744 -0.807222 -1.35358 0
M  V30 376 C 36.4374 -0.223665 -2.28106 0
M  V30 377 C 37.4374 0.589354 -1.4961 0
M  V30 378 O 38.6274 0.407745 -1.69361 0
M  V30 379 C 35.7594 0.688149 -3.33882 0
M  V30 380 H 36.9524 -1.04169 -2.81227 0
M  V30 381 H 34.5054 -0.577921 -1.45223 0
M  V30 382 H 35.2404 1.52984 -2.85948 0
M  V30 383 H 35.0254 0.10687 -3.91954 0
M  V30 384 H 36.5154 1.09075 -4.03104 0
M  V30 385 N 36.9525 1.47285 -0.560781 0
M  V30 386 C 37.8825 2.32857 0.173105 0
M  V30 387 C 38.8635 1.44009 0.905281 0
M  V30 388 O 40.0485 1.7286 0.885046 0
M  V30 389 C 37.1785 3.25861 1.20133 0
M  V30 390 C 36.1325 4.23978 0.585388 0
M  V30 391 C 35.4585 5.06332 1.7185 0
M  V30 392 C 36.7585 5.20242 -0.463178 0
M  V30 393 H 38.4525 2.94466 -0.541307 0
M  V30 394 H 35.9985 1.41601 -0.261764 0
M  V30 395 H 37.9515 3.84569 1.72293 0
M  V30 396 H 36.6755 2.62315 1.94573 0
M  V30 397 H 35.3345 3.66501 0.085054 0
M  V30 398 H 34.9825 4.39186 2.45203 0
M  V30 399 H 34.6825 5.72762 1.31213 0
M  V30 400 H 36.2065 5.67899 2.24329 0
M  V30 401 H 37.6205 5.73293 -0.027502 0
M  V30 402 H 36.0175 5.94896 -0.788627 0
M  V30 403 H 37.0875 4.65504 -1.35773 0
M  V30 404 N 38.4306 0.297415 1.54768 0
M  V30 405 C 39.8416 -0.195947 1.85669 0
M  V30 406 C 40.1926 -1.53707 1.21937 0
M  V30 407 O 39.3176 -2.10164 0.515754 0
M  V30 408 C 39.9126 -0.362318 3.36857 0
M  V30 409 C 38.4716 -0.799901 3.67802 0
M  V30 410 C 37.6186 0.0938578 2.77141 0
M  V30 411 H 40.5696 0.518538 1.4999 0
M  V30 412 H 40.5906 -1.19745 3.61167 0
M  V30 413 H 40.1026 0.613921 3.83214 0
M  V30 414 H 38.2036 -1.78682 3.26961 0
M  V30 415 H 38.3166 -0.621773 4.75048 0
M  V30 416 H 36.6806 -0.426254 2.51108 0
M  V30 417 H 37.4636 1.06639 3.26318 0
M  V30 418 N 39.9087 -1.5758 0.0250728 0
M  V30 419 C 41.3247 -1.56124 -0.331282 0
M  V30 420 C 41.5247 -1.03029 -1.73169 0
M  V30 421 O 40.5807 -0.675215 -2.43305 0
M  V30 422 C 41.8937 -3.00139 -0.183584 0
M  V30 423 C 43.4417 -3.11946 -0.256654 0
M  V30 424 C 43.9167 -4.57793 -0.137792 0
M  V30 425 N 45.4077 -4.6279 -0.194904 0
M  V30 426 C 46.1427 -5.7326 -0.126655 0
M  V30 427 N 45.6387 -6.928 -0.00755288 0
M  V30 428 N 47.4317 -5.61811 -0.180348 0
M  V30 429 H 39.5827 -1.90424 0.94087 0
M  V30 430 H 41.8457 -0.875761 0.362968 0
M  V30 431 H 41.5517 -3.4292 0.780927 0
M  V30 432 H 41.4257 -3.64899 -0.955448 0
M  V30 433 H 43.8127 -2.69079 -1.21162 0
M  V30 434 H 43.8937 -2.49915 0.545517 0
M  V30 435 H 43.5377 -5.01339 0.813739 0
M  V30 436 H 43.4677 -5.17798 -0.958775 0
M  V30 437 H 45.9587 -3.76807 -0.287267 0
M  V30 438 H 46.2717 -7.72791 0.0379428 0
M  V30 439 H 44.6167 -6.94995 0.0271731 0
M  V30 440 H 47.8077 -4.6731 -0.271767 0
M  V30 441 H 47.9807 -6.47882 -0.123697 0
M  V30 442 N 41.3868 0.248026 -1.55636 0
M  V30 443 C 42.6328 0.97767 -1.77678 0
M  V30 444 C 42.9658 1.85016 -0.590135 0
M  V30 445 O 42.2408 1.90095 0.411611 0
M  V30 446 C 42.5238 1.83914 -3.09593 0
M  V30 447 C 42.3768 0.99491 -4.38659 0
M  V30 448 C 43.6958 2.82183 -3.37729 0
M  V30 449 H 40.8148 0.354005 -0.646413 0
M  V30 450 H 43.4568 0.248253 -1.88371 0
M  V30 451 H 41.6068 2.46104 -3.00608 0
M  V30 452 H 43.2788 0.391789 -4.59633 0
M  V30 453 H 41.5218 0.299231 -4.32767 0
M  V30 454 H 42.1928 1.63145 -5.2734 0
M  V30 455 H 44.6688 2.30129 -3.4667 0
M  V30 456 H 43.5448 3.39582 -4.31249 0
M  V30 457 H 43.8058 3.58588 -2.58586 0
M  V30 458 N 42.8649 1.48995 0.513639 0
M  V30 459 C 43.7949 1.67636 1.62544 0
M  V30 460 C 44.7759 0.525087 1.61793 0
M  V30 461 O 45.9609 0.759502 1.78732 0
M  V30 462 C 43.0909 1.73114 3.01079 0
M  V30 463 C 42.0449 2.87905 3.16693 0
M  V30 464 C 41.3709 2.78486 4.56453 0
M  V30 465 C 42.6709 4.29005 2.97913 0
M  V30 466 H 44.3649 2.60716 1.47198 0
M  V30 467 H 41.9109 1.25465 0.706714 0
M  V30 468 H 43.8639 1.84742 3.78746 0
M  V30 469 H 42.5879 0.766241 3.17484 0
M  V30 470 H 41.2469 2.75859 2.41448 0
M  V30 471 H 40.8949 1.7993 4.69717 0
M  V30 472 H 40.5949 3.55523 4.67843 0
M  V30 473 H 42.1189 2.92104 5.36197 0
M  V30 474 H 43.5329 4.41798 3.65359 0
M  V30 475 H 41.9299 5.07166 3.20785 0
M  V30 476 H 42.9999 4.44329 1.94165 0
M  V30 477 N 44.343 -0.763751 1.37857 0
M  V30 478 C 45.273 -1.89103 1.36975 0
M  V30 479 C 46.254 -1.68439 0.237152 0
M  V30 480 O 47.439 -1.8918 0.438713 0
M  V30 481 C 44.569 -3.26496 1.18395 0
M  V30 482 C 43.523 -3.61741 2.28751 0
M  V30 483 C 42.849 -4.97762 1.95286 0
M  V30 484 C 44.149 -3.67665 3.70972 0
M  V30 485 H 45.843 -1.90099 2.31307 0
M  V30 486 H 43.389 -0.91319 1.11341 0
M  V30 487 H 45.342 -4.05003 1.16406 0
M  V30 488 H 44.066 -3.25955 0.205215 0
M  V30 489 H 42.725 -2.85547 2.29909 0
M  V30 490 H 42.373 -4.93769 0.959221 0
M  V30 491 H 42.073 -5.22313 2.69189 0
M  V30 492 H 43.597 -5.7866 1.94898 0
M  V30 493 H 45.011 -4.36307 3.719 0
M  V30 494 H 43.408 -4.03718 4.43995 0
M  V30 495 H 44.478 -2.68134 4.0402 0
M  V30 496 N 45.8211 -1.22559 -0.990812 0
M  V30 497 C 47.2321 -1.04791 -1.54518 0
M  V30 498 C 47.5831 0.387998 -1.92325 0
M  V30 499 O 46.7081 1.27328 -1.74976 0
M  V30 500 C 47.3031 -1.896 -2.80779 0
M  V30 501 C 45.8621 -1.76124 -3.32652 0
M  V30 502 C 45.0091 -1.8594 -2.05722 0
M  V30 503 H 47.9601 -1.36374 -0.811662 0
M  V30 504 H 47.9811 -1.41464 -3.53225 0
M  V30 505 H 47.4931 -2.94101 -2.53231 0
M  V30 506 H 45.5941 -0.743643 -3.65104 0
M  V30 507 H 45.7071 -2.58913 -4.03114 0
M  V30 508 H 44.0711 -1.29403 -2.19379 0
M  V30 509 H 44.8541 -2.91976 -1.80568 0
M  V30 510 N 47.2992 1.18797 -1.03562 0
M  V30 511 C 48.2292 2.24472 -0.643019 0
M  V30 512 C 49.2102 1.66433 0.351283 0
M  V30 513 O 50.3952 1.92803 0.232505 0
M  V30 514 C 47.5252 3.473 4.24935e-05 0
M  V30 515 C 46.4792 4.18055 -0.917257 0
M  V30 516 C 45.8052 5.34519 -0.138941 0
M  V30 517 C 47.1052 4.72109 -2.23407 0
M  V30 518 H 48.7992 2.57566 -1.52643 0
M  V30 519 H 46.3452 1.23806 -0.735394 0
M  V30 520 H 48.2982 4.20426 0.286383 0
M  V30 521 H 47.0222 3.13424 0.918299 0
M  V30 522 H 45.6812 3.46821 -1.1879 0
M  V30 523 H 45.3292 4.96891 0.781562 0
M  V30 524 H 45.0292 5.82794 -0.750005 0
M  V30 525 H 46.5532 6.10438 0.1405 0
M  V30 526 H 47.9672 5.36955 -2.00879 0
M  V30 527 H 46.3642 5.30897 -2.79765 0
M  V30 528 H 47.4342 3.89807 -2.88407 0
M  V30 529 N 48.7773 0.814389 1.34928 0
M  V30 530 C 49.7273 0.202752 2.27097 0
M  V30 531 C 50.7113 -0.62799 1.48139 0
M  V30 532 O 51.9033 -0.483969 1.70255 0
M  V30 533 C 49.0323 -0.64146 3.37254 0
M  V30 534 C 48.1183 0.19944 4.23631 0
M  V30 535 N 48.5093 1.26628 4.89693 0
M  V30 536 C 46.8073 -0.0176433 4.45997 0
M  V30 537 C 47.5083 1.78031 5.53787 0
M  V30 538 N 46.4843 1.08553 5.32651 0
M  V30 539 H 50.2863 1.01893 2.75672 0
M  V30 540 H 47.8003 0.656332 1.48546 0
M  V30 541 H 49.7973 -1.09575 4.02243 0
M  V30 542 H 48.4573 -1.4559 2.9023 0
M  V30 543 H 49.4683 1.64901 4.90946 0
M  V30 544 H 46.1453 -0.800601 4.09752 0
M  V30 545 H 47.5353 2.67236 6.16469 0
M  V30 546 N 50.2554 -1.46986 0.568584 0
M  V30 547 C 51.5024 -2.02441 0.0487986 0
M  V30 548 C 51.8304 -1.44169 -1.30559 0
M  V30 549 O 51.0854 -0.591213 -1.86556 0
M  V30 550 C 51.3844 -3.57306 -0.081836 0
M  V30 551 C 51.0504 -4.34552 1.20313 0
M  V30 552 C 49.7124 -4.55376 1.5552 0
M  V30 553 C 52.0644 -4.79016 2.05411 0
M  V30 554 C 49.3924 -5.17913 2.7565 0
M  V30 555 C 51.7444 -5.42879 3.24754 0
M  V30 556 C 50.4084 -5.61933 3.60261 0
M  V30 557 H 49.6784 -0.740785 0.0178567 0
M  V30 558 H 52.3254 -1.76525 0.742384 0
M  V30 559 H 50.6304 -3.8228 -0.858463 0
M  V30 560 H 52.3274 -3.97876 -0.499546 0
M  V30 561 H 48.9174 -4.18631 0.919014 0
M  V30 562 H 53.1014 -4.62696 1.79516 0
M  V30 563 H 48.3574 -5.30858 3.03315 0
M  V30 564 H 52.5314 -5.76293 3.90973 0
M  V30 565 H 50.1584 -6.10161 4.53439 0
M  V30 566 N 51.7335 -0.305618 -1.54608 0
M  V30 567 C 52.6635 0.561482 -2.26649 0
M  V30 568 C 53.6445 1.13415 -1.26772 0
M  V30 569 O 54.8295 1.16262 -1.55553 0
M  V30 570 C 51.9595 1.73122 -3.01075 0
M  V30 571 C 50.9135 1.2887 -4.08138 0
M  V30 572 C 50.2395 2.54396 -4.70305 0
M  V30 573 C 51.5395 0.416578 -5.20636 0
M  V30 574 H 53.2335 -0.0393902 -2.99374 0
M  V30 575 H 50.7795 -0.020385 -1.43986 0
M  V30 576 H 52.7325 2.34396 -3.50195 0
M  V30 577 H 51.4565 2.3584 -2.25936 0
M  V30 578 H 50.1155 0.698991 -3.59875 0
M  V30 579 H 49.7635 3.15439 -3.918 0
M  V30 580 H 49.4635 2.25486 -5.42614 0
M  V30 581 H 50.9875 3.16464 -5.2219 0
M  V30 582 H 52.4015 0.935116 -5.65622 0
M  V30 583 H 50.7985 0.221046 -5.99693 0
M  V30 584 H 51.8685 -0.557162 -4.81688 0
M  V30 585 N 53.2116 1.57565 -0.0334293 0
M  V30 586 C 54.1416 2.13511 0.945265 0
M  V30 587 C 55.1226 1.05231 1.33643 0
M  V30 588 O 56.3076 1.33084 1.41429 0
M  V30 589 C 53.4376 2.6657 2.22616 0
M  V30 590 C 52.3916 3.79676 1.97561 0
M  V30 591 C 51.7176 4.1918 3.31952 0
M  V30 592 C 53.0176 5.0557 1.31135 0
M  V30 593 H 54.7116 2.95538 0.479325 0
M  V30 594 H 52.2576 1.42166 0.229115 0
M  V30 595 H 54.2106 3.04344 2.91466 0
M  V30 596 H 52.9346 1.8171 2.71384 0
M  V30 597 H 51.5936 3.42347 1.31127 0
M  V30 598 H 51.2416 3.31296 3.78487 0
M  V30 599 H 50.9416 4.95402 3.15992 0
M  V30 600 H 52.4656 4.59541 4.02063 0
M  V30 601 H 53.8796 5.40903 1.89992 0
M  V30 602 H 52.2766 5.86818 1.25559 0
M  V30 603 H 53.3466 4.84062 0.284894 0
M  V30 604 N 54.6897 -0.239769 1.55765 0
M  V30 605 C 56.1007 -0.808263 1.68297 0
M  V30 606 C 56.4517 -1.85736 0.632181 0
M  V30 607 O 55.5767 -2.15277 -0.220204 0
M  V30 608 C 56.1717 -1.47284 3.05111 0
M  V30 609 C 54.7307 -1.98895 3.19559 0
M  V30 610 C 53.8777 -0.842575 2.64189 0
M  V30 611 H 56.8287 -0.0154422 1.58692 0
M  V30 612 H 56.8497 -2.34111 2.99954 0
M  V30 613 H 56.3617 -0.709053 3.81568 0
M  V30 614 H 54.4627 -2.78132 2.47938 0
M  V30 615 H 54.5757 -2.18143 4.26556 0
M  V30 616 H 52.9397 -1.24501 2.22197 0
M  V30 617 H 53.7227 -0.0917552 3.43177 0
M  V30 618 N 56.1678 -1.49265 -0.50573 0
M  V30 619 C 57.4168 -1.57761 -1.25675 0
M  V30 620 C 57.7298 -0.267371 -1.93764 0
M  V30 621 O 58.9358 -0.230827 -2.70517 0
M  V30 622 C 57.3918 -2.78332 -2.28165 0
M  V30 623 C 56.9998 -4.16096 -1.66037 0
M  V30 624 C 58.7438 -2.96155 -3.04125 0
M  V30 625 C 56.6508 -5.27895 -2.6661 0
M  V30 626 H 55.5808 -0.587391 -0.472745 0
M  V30 627 H 58.2318 -1.75644 -0.53118 0
M  V30 628 H 56.6138 -2.53934 -3.03865 0
M  V30 629 H 57.7878 -4.50612 -0.963622 0
M  V30 630 H 56.1028 -4.03591 -1.02484 0
M  V30 631 H 58.6998 -3.76849 -3.79327 0
M  V30 632 H 59.0428 -2.06534 -3.61455 0
M  V30 633 H 59.5758 -3.2057 -2.35541 0
M  V30 634 H 56.3148 -6.1956 -2.14068 0
M  V30 635 H 55.8348 -4.97839 -3.34539 0
M  V30 636 H 57.5138 -5.57031 -3.29129 0
M  V30 637 N 57.6459 0.756429 -1.3826 0
M  V30 638 C 58.8929 1.51547 -1.34312 0
M  V30 639 C 59.2209 1.94382 0.0677144 0
M  V30 640 O 58.4759 1.65514 1.04421 0
M  V30 641 C 58.7749 2.78313 -2.24224 0
M  V30 642 C 58.4409 2.54455 -3.72241 0
M  V30 643 C 57.1029 2.47657 -4.12576 0
M  V30 644 C 59.4549 2.3354 -4.65949 0
M  V30 645 C 56.7829 2.17956 -5.44713 0
M  V30 646 C 59.1349 2.05359 -5.9834 0
M  V30 647 C 57.7989 1.97016 -6.37762 0
M  V30 648 H 57.0689 0.55455 -0.491482 0
M  V30 649 H 59.7159 0.870039 -1.70595 0
M  V30 650 H 58.0209 3.47492 -1.80987 0
M  V30 651 H 59.7179 3.36259 -2.18474 0
M  V30 652 H 56.3079 2.60616 -3.40261 0
M  V30 653 H 60.4919 2.37772 -4.35635 0
M  V30 654 H 55.7479 2.10003 -5.74203 0
M  V30 655 H 59.9219 1.88179 -6.70494 0
M  V30 656 H 57.5489 1.73766 -7.40074 0
M  V30 657 N 59.124 1.23083 0.984299 0
M  V30 658 C 60.054 1.03292 2.09411 0
M  V30 659 C 61.035 -0.048923 1.7003 0
M  V30 660 O 62.22 0.114967 1.93859 0
M  V30 661 C 59.35 0.619155 3.41736 0
M  V30 662 C 58.304 1.64791 3.95004 0
M  V30 663 C 57.63 1.0897 5.23478 0
M  V30 664 C 58.93 3.03999 4.24714 0
M  V30 665 H 60.624 1.96119 2.26225 0
M  V30 666 H 58.17 0.944344 1.08711 0
M  V30 667 H 60.123 0.467777 4.18796 0
M  V30 668 H 58.847 -0.344786 3.24775 0
M  V30 669 H 57.506 1.78721 3.20085 0
M  V30 670 H 57.154 0.11686 5.02864 0
M  V30 671 H 56.854 1.77704 5.60085 0
M  V30 672 H 58.378 0.950093 6.03163 0
M  V30 673 H 59.792 2.93393 4.92538 0
M  V30 674 H 58.189 3.69936 4.72512 0
M  V30 675 H 59.259 3.53285 3.32142 0
M  V30 676 N 60.6021 -1.18246 1.0419 0
M  V30 677 C 61.5651 -2.20128 0.638452 0
M  V30 678 C 62.5651 -1.57885 -0.304805 0
M  V30 679 O 63.7551 -1.73967 -0.0900369 0
M  V30 680 C 60.8871 -3.4084 -0.0637751 0
M  V30 681 H 62.0801 -2.57336 1.54007 0
M  V30 682 H 59.6331 -1.32152 0.834598 0
M  V30 683 H 60.3681 -3.09166 -0.979136 0
M  V30 684 H 60.1531 -3.8726 0.614198 0
M  V30 685 H 61.6431 -4.16274 -0.332512 0
M  V30 686 N 62.0802 -0.821533 -1.34494 0
M  V30 687 C 63.0432 -0.247847 -2.27856 0
M  V30 688 C 64.0432 0.573453 -1.50227 0
M  V30 689 O 65.2332 0.389759 -1.69784 0
M  V30 690 C 62.3652 0.652698 -3.34593 0
M  V30 691 H 63.5582 -1.07146 -2.80107 0
M  V30 692 H 61.1112 -0.593291 -1.44602 0
M  V30 693 H 61.8462 1.49943 -2.87555 0
M  V30 694 H 61.6312 0.065292 -3.92046 0
M  V30 695 H 63.1212 1.04793 -4.04238 0
M  V30 696 N 63.5583 1.46682 -0.576371 0
M  V30 697 C 64.8043 2.02712 -0.0596221 0
M  V30 698 C 65.1373 1.44765 1.29448 0
M  V30 699 O 64.4123 0.610355 1.84675 0
M  V30 700 C 64.6953 3.60098 0.0129503 0
M  V30 701 C 64.5483 4.28441 -1.3696 0
M  V30 702 C 65.8673 4.34224 0.71678 0
M  V30 703 H 62.9863 0.736637 -0.0231407 0
M  V30 704 H 65.6283 1.74898 -0.742351 0
M  V30 705 H 63.7783 3.83926 0.594378 0
M  V30 706 H 65.4503 4.15896 -1.9957 0
M  V30 707 H 63.6933 3.8805 -1.93907 0
M  V30 708 H 64.3643 5.3716 -1.27135 0
M  V30 709 H 66.8403 4.15503 0.222908 0
M  V30 710 H 65.7163 5.43936 0.73657 0
M  V30 711 H 65.9773 4.04823 1.77682 0
M  V30 712 N 65.0364 0.313813 1.54444 0
M  V30 713 C 66.4474 -0.176243 1.85866 0
M  V30 714 C 66.7984 -1.52405 1.23561 0
M  V30 715 O 65.9234 -2.09605 0.538016 0
M  V30 716 C 66.5184 -0.32657 3.37222 0
M  V30 717 C 65.0774 -0.760846 3.6863 0
M  V30 718 C 64.2244 0.123247 2.77026 0
M  V30 719 H 67.1754 0.534418 1.49431 0
M  V30 720 H 67.1964 -1.15908 3.62416 0
M  V30 721 H 66.7084 0.654531 3.82541 0
M  V30 722 H 64.8094 -1.75204 3.28838 0
M  V30 723 H 64.9224 -0.571353 4.75681 0
M  V30 724 H 63.2864 -0.399597 2.51546 0
M  V30 725 H 64.0694 1.10094 3.25168 0
M  V30 726 N 66.5145 -1.57545 0.0417849 0
M  V30 727 C 67.4775 -2.09885 -0.92093 0
M  V30 728 C 68.4775 -1.01648 -1.24596 0
M  V30 729 O 69.6675 -1.27759 -1.1842 0
M  V30 730 C 66.7995 -2.57527 -2.23367 0
M  V30 731 H 67.9925 -2.96236 -0.467382 0
M  V30 732 H 65.5455 -1.5493 -0.206467 0
M  V30 733 H 66.2805 -1.74542 -2.73323 0
M  V30 734 H 66.0655 -3.36613 -2.01083 0
M  V30 735 H 67.5555 -2.98201 -2.92346 0
M  V30 736 N 67.9926 0.231505 -1.5589 0
M  V30 737 C 68.9426 1.29007 -1.87993 0
M  V30 738 C 69.9266 1.42764 -0.742102 0
M  V30 739 O 71.1186 1.45747 -1.00433 0
M  V30 740 C 68.2476 2.6425 -2.1915 0
M  V30 741 C 67.3336 2.54435 -3.39299 0
M  V30 742 N 67.7246 2.14262 -4.58176 0
M  V30 743 C 66.0226 2.85416 -3.42715 0
M  V30 744 C 66.7236 2.15455 -5.40328 0
M  V30 745 N 65.6996 2.55558 -4.79783 0
M  V30 746 H 69.5016 0.970213 -2.77424 0
M  V30 747 H 67.0156 0.440097 -1.56323 0
M  V30 748 H 69.0126 3.40665 -2.40319 0
M  V30 749 H 67.6726 2.9709 -1.31025 0
M  V30 750 H 68.6836 1.85554 -4.83518 0
M  V30 751 H 65.3606 3.22693 -2.64906 0
M  V30 752 H 66.7506 1.86605 -6.45467 0
M  V30 753 N 69.4707 1.49531 0.497807 0
M  V30 754 C 70.8867 1.36365 0.829266 0
M  V30 755 C 71.0867 0.399184 1.97506 0
M  V30 756 O 70.1427 -0.167977 2.51941 0
M  V30 757 C 71.4557 2.77153 1.16647 0
M  V30 758 C 73.0037 2.85877 1.27449 0
M  V30 759 C 73.4787 4.2744 1.64497 0
M  V30 760 N 74.9697 4.30265 1.7154 0
M  V30 761 C 75.7047 5.3677 2.01656 0
M  V30 762 N 75.2007 6.53516 2.29976 0
M  V30 763 N 76.9937 5.24189 2.02934 0
M  V30 764 H 69.1447 2.10831 -0.257703 0
M  V30 765 H 71.4077 0.946534 -0.0527091 0
M  V30 766 H 71.1137 3.49442 0.397872 0
M  V30 767 H 70.9877 3.12722 2.10915 0
M  V30 768 H 73.3747 2.13824 2.0338 0
M  V30 769 H 73.4557 2.53887 0.312244 0
M  V30 770 H 73.0997 5.00021 0.891151 0
M  V30 771 H 73.0297 4.56896 2.61827 0
M  V30 772 H 75.5207 3.4607 1.51802 0
M  V30 773 H 75.8337 7.30506 2.52153 0
M  V30 774 H 74.1787 6.56737 2.27425 0
M  V30 775 H 77.3697 4.31988 1.80289 0
M  V30 776 H 77.5427 6.07286 2.26071 0
M  V30 777 N 70.9488 -0.749086 1.3866 0
M  V30 778 C 72.1888 -1.52112 1.36534 0
M  V30 779 C 72.5528 -1.91951 -0.0432316 0
M  V30 780 O 73.7538 -2.68132 -0.189396 0
M  V30 781 C 72.0248 -2.73704 2.29828 0
M  V30 782 S 73.5838 -3.63519 2.45763 0
M  V30 783 H 70.4018 -0.520482 0.484375 0
M  V30 784 H 73.0038 -0.878963 1.74627 0
M  V30 785 H 71.7078 -2.42552 3.31054 0
M  V30 786 H 71.2388 -3.4286 1.929 0
M  V30 787 H 73.2538 -4.66712 1.68505 0
M  V30 788 N 72.4269 -1.23603 -0.977757 0
M  V30 789 C 73.3899 -1.02069 -2.05218 0
M  V30 790 C 74.3899 0.0184305 -1.60789 0
M  V30 791 O 75.5799 -0.221569 -1.72785 0
M  V30 792 C 72.7119 -0.544926 -3.36517 0
M  V30 793 H 73.9049 -1.9742 -2.25755 0
M  V30 794 H 71.4579 -1.05684 -1.15155 0
M  V30 795 H 72.1929 0.412241 -3.21669 0
M  V30 796 H 71.9779 -1.2948 -3.70105 0
M  V30 797 H 73.4679 -0.414985 -4.15533 0
M  V30 798 N 73.905 1.17692 -1.04816 0
M  V30 799 C 74.835 2.23777 -0.666791 0
M  V30 800 C 75.816 1.66796 0.33361 0
M  V30 801 O 77.001 1.93039 0.212042 0
M  V30 802 C 74.131 3.47281 -0.0367933 0
M  V30 803 C 73.085 4.17059 -0.961546 0
M  V30 804 C 72.411 5.34342 -0.195626 0
M  V30 805 C 73.711 4.69713 -2.28402 0
M  V30 806 H 75.405 2.55933 -1.55367 0
M  V30 807 H 72.951 1.23019 -0.748484 0
M  V30 808 H 74.904 4.20706 0.241775 0
M  V30 809 H 73.628 3.14381 0.885004 0
M  V30 810 H 72.287 3.45541 -1.22462 0
M  V30 811 H 71.935 4.97692 0.728816 0
M  V30 812 H 71.635 5.81966 -0.811775 0
M  V30 813 H 73.159 6.10553 0.0757473 0
M  V30 814 H 74.573 5.34794 -2.06563 0
M  V30 815 H 72.97 5.279 -2.8538 0
M  V30 816 H 74.04 3.86726 -2.92525 0
M  V30 817 N 75.3831 0.828654 1.34056 0
M  V30 818 C 76.7941 0.477534 1.8049 0
M  V30 819 C 77.1451 -1.00258 1.6865 0
M  V30 820 O 76.2701 -1.78057 1.22982 0
M  V30 821 C 76.8651 0.860018 3.27703 0
M  V30 822 C 75.4241 0.561185 3.72193 0
M  V30 823 C 74.5711 1.07385 2.55663 0
M  V30 824 H 77.5221 1.0183 1.21722 0
M  V30 825 H 77.5431 0.166038 3.80138 0
M  V30 826 H 77.0551 1.93731 3.36288 0
M  V30 827 H 75.1561 -0.506465 3.69142 0
M  V30 828 H 75.2691 1.10926 4.66082 0
M  V30 829 H 73.6331 0.495149 2.49841 0
M  V30 830 H 74.4161 2.15771 2.67016 0
M  V30 831 N 76.8612 -1.46375 0.584142 0
M  V30 832 C 78.1092 -2.01978 0.0701287 0
M  V30 833 C 78.4302 -1.4579 -1.295 0
M  V30 834 O 77.7002 -0.64314 -1.85042 0
M  V30 835 H 76.2802 -0.746648 0.0229345 0
M  V30 836 H 78.9422 -1.79461 0.760245 0
M  V30 837 H 78.0382 -3.121 0.0022064 0
M  V30 838 N 78.3393 -0.321999 -1.54275 0
M  V30 839 C 79.3023 0.531975 -2.22941 0
M  V30 840 C 80.3023 1.04478 -1.22234 0
M  V30 841 O 81.4923 0.937452 -1.46825 0
M  V30 842 C 78.6243 1.73874 -2.93224 0
M  V30 843 H 79.8173 -0.0682612 -2.99822 0
M  V30 844 H 77.3703 -0.0730644 -1.56129 0
M  V30 845 H 78.1053 2.37825 -2.20476 0
M  V30 846 H 77.8903 1.37847 -3.6707 0
M  V30 847 H 79.3803 2.34496 -3.45545 0
M  V30 848 N 79.8174 1.5752 -0.0501392 0
M  V30 849 C 81.2284 1.80271 0.485705 0
M  V30 850 C 81.5794 0.96228 1.70981 0
M  V30 851 O 80.7044 0.178578 2.15662 0
M  V30 852 C 81.2994 3.26957 0.887938 0
M  V30 853 C 79.8584 3.5063 1.36877 0
M  V30 854 C 79.0054 2.75165 0.343468 0
M  V30 855 H 81.9564 1.56281 -0.276028 0
M  V30 856 H 81.9774 3.37821 1.75093 0
M  V30 857 H 81.4894 3.881 -0.0031809 0
M  V30 858 H 79.5904 2.94766 2.27911 0
M  V30 859 H 79.7034 4.59343 1.36164 0
M  V30 860 H 78.0674 2.4127 0.816128 0
M  V30 861 H 78.8504 3.39034 -0.539548 0
M  V30 862 N 81.2955 -0.223234 1.56011 0
M  V30 863 C 82.2585 -1.26014 1.9145 0
M  V30 864 C 83.2585 -1.3989 0.792937 0
M  V30 865 O 84.4485 -1.38184 1.0607 0
M  V30 866 C 81.5805 -2.63422 2.16383 0
M  V30 867 H 82.7735 -0.95796 2.84189 0
M  V30 868 H 80.3265 -0.463576 1.49267 0
M  V30 869 H 81.0615 -2.98741 1.2619 0
M  V30 870 H 80.8465 -2.54728 2.98088 0
M  V30 871 H 82.3365 -3.38249 2.44903 0
M  V30 872 N 82.7736 -1.49793 -0.48987 0
M  V30 873 C 83.7216 -1.67783 -1.61095 0
M  V30 874 C 84.7156 -0.543683 -1.60438 0
M  V30 875 O 85.9216 -0.723647 -1.64813 0
M  V30 876 H 82.2966 -0.529255 -0.534222 0
M  V30 877 H 84.2676 -2.61861 -1.43078 0
M  V30 878 C 83.0166 -1.77191 -2.99164 0
M  V30 879 H 82.3396 -2.63841 -3.0038 0
M  V30 880 H 83.7796 -1.93809 -3.77113 0
M  V30 881 C 82.2386 -0.519203 -3.32875 0
M  V30 882 O 82.7686 0.350124 -4.00171 0
M  V30 883 N 80.9746 -0.378816 -2.8812 0
M  V30 884 H 80.5216 -1.08725 -2.33531 0
M  V30 885 H 80.4796 0.458239 -3.11043 0
M  V30 886 N 84.2517 0.741722 -1.39055 0
M  V30 887 C 85.4987 1.50114 -1.35912 0
M  V30 888 C 85.8267 1.94443 0.0470937 0
M  V30 889 O 85.0817 1.66612 1.02659 0
M  V30 890 C 85.3807 2.7592 -2.27163 0
M  V30 891 C 85.0467 2.50493 -3.74919 0
M  V30 892 C 83.7087 2.43267 -4.1518 0
M  V30 893 C 86.0607 2.28585 -4.684 0
M  V30 894 C 83.3887 2.12166 -5.46994 0
M  V30 895 C 85.7407 1.99002 -6.00484 0
M  V30 896 C 84.4047 1.90241 -6.39816 0
M  V30 897 H 83.6747 0.549306 -0.497336 0
M  V30 898 H 86.3217 0.851896 -1.71508 0
M  V30 899 H 84.6267 3.45553 -1.84663 0
M  V30 900 H 86.3237 3.33923 -2.22028 0
M  V30 901 H 82.9137 2.56992 -3.43006 0
M  V30 902 H 87.0977 2.33139 -4.38132 0
M  V30 903 H 82.3537 2.03901 -5.76398 0
M  V30 904 H 86.5277 1.81057 -6.72452 0
M  V30 905 H 84.1547 1.65907 -7.41875 0
M  V30 906 N 85.7298 1.2412 0.971189 0
M  V30 907 C 86.9548 1.10667 1.75407 0
M  V30 908 C 87.3798 -0.337048 1.85056 0
M  V30 909 O 86.7378 -1.24396 1.31892 0
M  V30 910 C 86.7858 1.74726 3.15441 0
M  V30 911 O 85.8898 1.01566 3.99697 0
M  V30 912 H 85.2308 0.387341 0.539317 0
M  V30 913 H 87.7608 1.64358 1.2185 0
M  V30 914 H 87.7708 1.80341 3.6598 0
M  V30 915 H 86.4458 2.79773 3.07734 0
M  V30 916 H 85.0228 1.03713 3.58187 0
M  V30 917 N 87.2079 -1.17134 1.05439 0
M  V30 918 C 88.1579 -2.1919 0.627675 0
M  V30 919 C 89.1419 -1.57328 -0.337147 0
M  V30 920 O 90.3339 -1.76329 -0.153976 0
M  V30 921 C 87.4629 -3.43299 0.00651435 0
M  V30 922 C 86.5489 -4.12255 0.995312 0
M  V30 923 N 86.9399 -4.56997 2.16765 0
M  V30 924 C 85.2379 -4.38316 0.824336 0
M  V30 925 C 85.9389 -5.10239 2.7934 0
M  V30 926 N 84.9149 -5.02595 2.07122 0
M  V30 927 H 88.7169 -2.5149 1.52086 0
M  V30 928 H 86.2309 -1.33491 0.924868 0
M  V30 929 H 88.2279 -4.15693 -0.316965 0
M  V30 930 H 86.8879 -3.1249 -0.882033 0
M  V30 931 H 87.8989 -4.51006 2.54587 0
M  V30 932 H 84.5759 -4.17498 -0.0129526 0
M  V30 933 H 85.9659 -5.54961 3.78772 0
M  V30 934 N 88.686 -0.835752 -1.33615 0
M  V30 935 C 89.618 -0.224151 -2.28101 0
M  V30 936 C 90.631 0.593331 -1.51603 0
M  V30 937 O 91.82 0.420911 -1.73466 0
M  V30 938 C 88.92 0.703309 -3.31522 0
M  V30 939 C 88.093 -0.0741528 -4.37337 0
M  V30 940 C 87.152 0.776176 -5.20444 0
M  V30 941 O 86.178 0.216506 -5.68788 0
M  V30 942 N 87.38 2.09401 -5.41416 0
M  V30 943 H 90.145 -1.03598 -2.81225 0
M  V30 944 H 87.706 -0.69392 -1.46275 0
M  V30 945 H 89.698 1.27707 -3.84022 0
M  V30 946 H 88.268 1.41585 -2.78698 0
M  V30 947 H 87.488 -0.82928 -3.85378 0
M  V30 948 H 88.776 -0.608863 -5.05144 0
M  V30 949 H 88.174 2.57229 -5.03835 0
M  V30 950 H 86.731 2.61633 -5.96985 0
M  V30 951 N 90.1641 1.46063 -0.591896 0
M  V30 952 C 91.4411 1.95595 -0.0137119 0
M  V30 953 C 91.8211 1.5345 1.4497 0
M  V30 954 O 91.1691 0.789543 2.14426 0
M  V30 955 C 91.3791 3.48453 -0.195373 0
M  V30 956 C 92.7271 4.24546 -0.0679765 0
M  V30 957 O 93.7511 3.55982 -0.124681 0
M  V30 958 O 92.6101 5.46467 0.0600579 0
M  V30 959 H 89.7041 0.825795 0.0446279 0
M  V30 960 H 92.2501 1.56303 -0.660859 0
M  V30 961 H 91.0221 3.72045 -1.21235 0
M  V30 962 H 90.6451 3.94597 0.487775 0
M  V30 963 N 91.6422 0.330177 1.54103 0
M  V30 964 C 92.8882 -0.270806 2.00984 0
M  V30 965 C 93.2212 -1.51265 1.21789 0
M  V30 966 O 92.4962 -1.92142 0.301927 0
M  V30 967 C 92.7792 -0.598339 3.55094 0
M  V30 968 C 92.6322 0.654674 4.4501 0
M  V30 969 C 93.9512 -1.41334 4.16789 0
M  V30 970 H 91.0702 -0.0969531 0.730595 0
M  V30 971 H 93.7122 0.448066 1.84641 0
M  V30 972 H 91.8622 -1.21078 3.69151 0
M  V30 973 H 93.5342 1.29285 4.42813 0
M  V30 974 H 91.7772 1.28224 4.14416 0
M  V30 975 H 92.4482 0.380944 5.50684 0
M  V30 976 H 94.9242 -0.895597 4.06347 0
M  V30 977 H 93.8002 -1.61127 5.24718 0
M  V30 978 H 94.0612 -2.41146 3.70541 0
M  V30 979 N 93.1203 -1.57491 0.0584922 0
M  V30 980 C 94.3663 -1.94081 -0.608617 0
M  V30 981 C 94.7213 -0.937438 -1.68017 0
M  V30 982 O 94.0143 0.0423034 -1.91553 0
M  V30 983 C 94.2083 -3.3513 -1.24188 0
M  V30 984 C 94.0373 -4.49095 -0.233187 0
M  V30 985 C 92.8073 -5.04988 0.177439 0
M  V30 986 C 95.0053 -5.1162 0.524306 0
M  V30 987 N 92.9873 -6.02487 1.17823 0
M  V30 988 C 94.3583 -6.04493 1.37796 0
M  V30 989 C 96.4133 -4.94489 0.581822 0
M  V30 990 C 95.1163 -6.82075 2.28399 0
M  V30 991 C 97.1423 -5.72703 1.47531 0
M  V30 992 C 96.5043 -6.65214 2.31667 0
M  V30 993 H 92.6033 -0.75752 -0.194134 0
M  V30 994 H 95.1873 -1.94248 0.132533 0
M  V30 995 H 93.3583 -3.35726 -1.95302 0
M  V30 996 H 95.0903 -3.5899 -1.86838 0
M  V30 997 H 91.8453 -4.73165 -0.203004 0
M  V30 998 H 92.2693 -6.55933 1.67573 0
M  V30 999 H 96.9113 -4.22765 -0.054443 0
M  V30 1000 H 94.6293 -7.53085 2.93067 0
M  V30 1001 H 98.2153 -5.61472 1.52448 0
M  V30 1002 H 97.0953 -7.24679 2.99683 0
M  V30 1003 N 94.5984 0.214957 -1.56127 0
M  V30 1004 C 95.5284 1.2695 -1.95974 0
M  V30 1005 C 96.5094 1.48539 -0.828868 0
M  V30 1006 O 97.6944 1.60611 -1.09168 0
M  V30 1007 C 94.8244 2.61794 -2.28214 0
M  V30 1008 C 93.7784 2.54851 -3.43853 0
M  V30 1009 C 93.1044 3.93785 -3.61715 0
M  V30 1010 C 94.4044 2.09065 -4.78632 0
M  V30 1011 H 96.0984 0.93846 -2.84312 0
M  V30 1012 H 93.6444 0.449996 -1.36788 0
M  V30 1013 H 95.5974 3.35731 -2.54682 0
M  V30 1014 H 94.3214 2.96599 -1.36736 0
M  V30 1015 H 92.9804 1.8337 -3.17444 0
M  V30 1016 H 92.6284 4.25908 -2.67602 0
M  V30 1017 H 92.3284 3.90019 -4.39498 0
M  V30 1018 H 93.8524 4.69374 -3.90539 0
M  V30 1019 H 95.2664 2.7275 -5.04262 0
M  V30 1020 H 93.6634 2.16346 -5.59745 0
M  V30 1021 H 94.7334 1.04315 -4.73547 0
M  V30 1022 N 96.0765 1.50051 0.48192 0
M  V30 1023 C 96.9865 1.7089 1.60728 0
M  V30 1024 C 98.0025 0.591788 1.63627 0
M  V30 1025 O 99.1785 0.868817 1.81696 0
M  V30 1026 C 96.2435 1.78855 2.97005 0
M  V30 1027 C 95.3045 3.02537 3.04581 0
M  V30 1028 C 94.5375 3.10112 4.34357 0
M  V30 1029 O 94.7605 2.24765 5.24249 0
M  V30 1030 O 93.6945 4.02747 4.47301 0
M  V30 1031 H 97.5205 2.66264 1.46072 0
M  V30 1032 H 95.1055 1.34018 0.660264 0
M  V30 1033 H 96.9875 1.86336 3.77964 0
M  V30 1034 H 95.6625 0.866628 3.11883 0
M  V30 1035 H 94.5695 3.00563 2.22739 0
M  V30 1036 H 95.9025 3.94272 2.94636 0
M  V30 1037 N 97.5546 -0.734337 1.39446 0
M  V30 1038 C 98.5176 -1.83004 1.37994 0
M  V30 1039 C 99.5176 -1.58397 0.276938 0
M  V30 1040 O 100.708 -1.65785 0.534875 0
M  V30 1041 C 97.8396 -3.20802 1.1532 0
M  V30 1042 H 99.0326 -1.85694 2.35494 0
M  V30 1043 H 96.5856 -0.938059 1.25021 0
M  V30 1044 H 97.3206 -3.23772 0.185036 0
M  V30 1045 H 97.1056 -3.4006 1.95197 0
M  V30 1046 H 98.5956 -4.00862 1.17046 0
M  V30 1047 N 99.0327 -1.24633 -0.964593 0
M  V30 1048 C 99.9827 -1.00841 -2.04487 0
M  V30 1049 C 100.967 0.0512468 -1.60818 0
M  V30 1050 O 102.159 -0.162865 -1.76249 0
M  V30 1051 C 99.2877 -0.618474 -3.37683 0
M  V30 1052 C 98.3737 -1.71437 -3.87905 0
M  V30 1053 N 98.7647 -2.9477 -4.11029 0
M  V30 1054 C 97.0627 -1.5926 -4.16596 0
M  V30 1055 C 97.7637 -3.65834 -4.52261 0
M  V30 1056 N 96.7397 -2.9341 -4.57615 0
M  V30 1057 H 100.542 -1.94487 -2.20345 0
M  V30 1058 H 98.0557 -1.14805 -1.14863 0
M  V30 1059 H 100.053 -0.429247 -4.14684 0
M  V30 1060 H 98.7127 0.310766 -3.23209 0
M  V30 1061 H 99.7237 -3.30917 -3.9839 0
M  V30 1062 H 96.4007 -0.731606 -4.1104 0
M  V30 1063 H 97.7907 -4.71646 -4.78539 0
M  V30 1064 N 100.511 1.16574 -1.06058 0
M  V30 1065 C 101.441 2.23057 -0.690488 0
M  V30 1066 C 102.422 1.67141 0.315901 0
M  V30 1067 O 103.607 1.93253 0.191556 0
M  V30 1068 C 100.737 3.47222 -0.073625 0
M  V30 1069 C 99.6908 4.16016 -1.00573 0
M  V30 1070 C 99.0168 5.34104 -0.252289 0
M  V30 1071 C 100.317 4.67264 -2.33371 0
M  V30 1072 H 102.011 2.54271 -1.58072 0
M  V30 1073 H 99.5568 1.22218 -0.76149 0
M  V30 1074 H 101.51 4.20939 0.19714 0
M  V30 1075 H 100.234 3.15302 0.85161 0
M  V30 1076 H 98.8928 3.44223 -1.2612 0
M  V30 1077 H 98.5408 4.98437 0.675988 0
M  V30 1078 H 98.2408 5.81072 -0.873455 0
M  V30 1079 H 99.7648 6.10599 0.0109857 0
M  V30 1080 H 101.179 5.32573 -2.12223 0
M  V30 1081 H 99.5758 5.24843 -2.90963 0
M  V30 1082 H 100.646 3.83602 -2.96611 0
M  V30 1083 N 101.989 0.842826 1.3317 0
M  V30 1084 C 103.4 0.496651 1.79973 0
M  V30 1085 C 103.751 -0.984641 1.69703 0
M  V30 1086 O 102.876 -1.76743 1.24863 0
M  V30 1087 C 103.471 0.894727 3.26772 0
M  V30 1088 C 102.03 0.600629 3.71577 0
M  V30 1089 C 101.177 1.10091 2.5451 0
M  V30 1090 H 104.128 1.03116 1.20635 0
M  V30 1091 H 104.149 0.206347 3.7994 0
M  V30 1092 H 103.661 1.97287 3.34215 0
M  V30 1093 H 101.762 -0.467284 3.69658 0
M  V30 1094 H 101.875 1.15863 4.64879 0
M  V30 1095 H 100.239 0.52162 2.49301 0
M  V30 1096 H 101.022 2.18591 2.64713 0
M  V30 1097 N 103.467 -1.45747 0.599634 0
M  V30 1098 C 104.883 -1.57424 0.26264 0
M  V30 1099 C 105.083 -1.59222 -1.23493 0
M  V30 1100 O 104.139 -1.51825 -2.01756 0
M  V30 1101 C 105.452 -2.86061 0.926795 0
M  V30 1102 C 107 -2.99722 0.901967 0
M  V30 1103 C 107.475 -4.31119 1.54598 0
M  V30 1104 N 108.966 -4.37858 1.5111 0
M  V30 1105 C 109.701 -5.3818 1.97863 0
M  V30 1106 N 109.197 -6.45083 2.52666 0
M  V30 1107 N 110.99 -5.29487 1.88679 0
M  V30 1108 H 103.141 -1.42823 1.57211 0
M  V30 1109 H 105.404 -0.68235 0.658105 0
M  V30 1110 H 105.11 -2.90605 1.98095 0
M  V30 1111 H 104.984 -3.74563 0.445238 0
M  V30 1112 H 107.371 -2.9475 -0.143617 0
M  V30 1113 H 107.452 -2.12652 1.42171 0
M  V30 1114 H 107.096 -4.36849 2.59085 0
M  V30 1115 H 107.026 -5.16992 1.00132 0
M  V30 1116 H 109.517 -3.61209 1.11068 0
M  V30 1117 H 109.83 -7.17869 2.86155 0
M  V30 1118 H 108.175 -6.45856 2.56701 0
M  V30 1119 H 111.366 -4.44877 1.4561 0
M  V30 1120 H 111.539 -6.07524 2.25429 0
M  V30 1121 N 104.945 -0.338344 -1.53925 0
M  V30 1122 C 105.855 0.529421 -2.28548 0
M  V30 1123 C 106.871 1.11645 -1.3346 0
M  V30 1124 O 108.047 1.13325 -1.66492 0
M  V30 1125 C 105.112 1.66713 -3.03987 0
M  V30 1126 C 104.173 1.11041 -4.14691 0
M  V30 1127 C 103.406 2.19389 -4.86522 0
M  V30 1128 O 103.629 3.40013 -4.57982 0
M  V30 1129 O 102.563 1.83976 -5.73094 0
M  V30 1130 H 106.389 -0.0770399 -3.03602 0
M  V30 1131 H 103.974 -0.103555 -1.49041 0
M  V30 1132 H 105.856 2.32918 -3.5118 0
M  V30 1133 H 104.531 2.25949 -2.31794 0
M  V30 1134 H 103.438 0.413024 -3.71813 0
M  V30 1135 H 104.771 0.562975 -4.8897 0
M  V30 1136 N 106.423 1.57458 -0.0668435 0
M  V30 1137 C 107.834 1.80776 0.466558 0
M  V30 1138 C 108.185 0.980361 1.69951 0
M  V30 1139 O 107.31 0.201441 2.1546 0
M  V30 1140 C 107.905 3.27881 0.85321 0
M  V30 1141 C 106.464 3.52062 1.3315 0
M  V30 1142 C 105.611 2.75513 0.314264 0
M  V30 1143 H 108.562 1.5598 -0.292588 0
M  V30 1144 H 108.583 3.39659 1.715 0
M  V30 1145 H 108.095 3.88075 -0.0443439 0
M  V30 1146 H 106.196 2.97167 2.24772 0
M  V30 1147 H 106.309 4.60762 1.31285 0
M  V30 1148 H 104.673 2.42123 0.790492 0
M  V30 1149 H 105.456 3.38442 -0.575477 0
M  V30 1150 N 107.901 -0.206675 1.56239 0
M  V30 1151 C 109.178 -0.954051 1.70755 0
M  V30 1152 C 109.558 -2.01841 0.618353 0
M  V30 1153 O 108.906 -2.25444 -0.372434 0
M  V30 1154 C 109.116 -1.551 3.12642 0
M  V30 1155 C 110.464 -2.03757 3.72516 0
M  V30 1156 O 111.488 -1.64965 3.15698 0
M  V30 1157 O 110.347 -2.75103 4.72208 0
M  V30 1158 H 107.441 -0.446636 0.696021 0
M  V30 1159 H 109.987 -0.197283 1.68549 0
M  V30 1160 H 108.759 -0.783212 3.83382 0
M  V30 1161 H 108.382 -2.37291 3.19028 0
M  V30 1162 N 109.379 -1.50304 -0.473955 0
M  V30 1163 C 110.627 -1.60832 -1.22382 0
M  V30 1164 C 110.948 -0.30939 -1.9253 0
M  V30 1165 O 110.218 0.67296 -1.83978 0
M  V30 1166 H 108.798 -0.592652 -0.454723 0
M  V30 1167 H 111.46 -1.87068 -0.546968 0
M  V30 1168 H 110.556 -2.41803 -1.97327 0
M  V30 1169 N 110.857 0.726932 -1.39834 0
M  V30 1170 C 112.085 1.51613 -1.40787 0
M  V30 1171 C 112.5 1.88799 -0.00451505 0
M  V30 1172 O 111.857 1.54662 0.968809 0
M  V30 1173 C 111.908 2.79863 -2.28821 0
M  V30 1174 O 111.629 2.44253 -3.63692 0
M  V30 1175 C 113.13 3.73837 -2.38245 0
M  V30 1176 H 110.35 0.468264 -0.480593 0
M  V30 1177 H 112.894 0.897607 -1.83748 0
M  V30 1178 H 111.049 3.38027 -1.89252 0
M  V30 1179 H 111.463 3.26695 -4.1033 0
M  V30 1180 H 112.937 4.60699 -3.04073 0
M  V30 1181 H 113.414 4.16153 -1.40403 0
M  V30 1182 H 114.02 3.21589 -2.78317 0
M  V30 1183 N 112.336 1.25143 0.95797 0
M  V30 1184 C 113.266 1.07711 2.07173 0
M  V30 1185 C 114.247 -0.0128462 1.70095 0
M  V30 1186 O 115.432 0.156061 1.93572 0
M  V30 1187 C 112.562 0.691503 3.40346 0
M  V30 1188 C 111.516 1.73132 3.9142 0
M  V30 1189 C 110.842 1.20049 5.21049 0
M  V30 1190 C 112.142 3.1294 4.1817 0
M  V30 1191 H 113.836 2.00873 2.22014 0
M  V30 1192 H 111.382 0.967191 1.06684 0
M  V30 1193 H 113.335 0.556505 4.17709 0
M  V30 1194 H 112.059 -0.275819 3.25433 0
M  V30 1195 H 110.718 1.8547 3.16222 0
M  V30 1196 H 110.366 0.223499 5.02503 0
M  V30 1197 H 110.066 1.89545 5.56189 0
M  V30 1198 H 111.59 1.07782 6.01012 0
M  V30 1199 H 113.004 3.03775 4.86203 0
M  V30 1200 H 111.401 3.79875 4.64559 0
M  V30 1201 H 112.471 3.6025 3.24573 0
M  V30 1202 N 113.814 -1.1601 1.06675 0
M  V30 1203 C 115.039 -1.91068 0.806706 0
M  V30 1204 C 115.464 -1.77112 -0.633485 0
M  V30 1205 O 114.822 -1.09908 -1.44187 0
M  V30 1206 C 114.87 -3.39655 1.21106 0
M  V30 1207 O 113.974 -4.10893 0.352189 0
M  V30 1208 H 113.315 -0.595125 0.294486 0
M  V30 1209 H 115.845 -1.46955 1.42356 0
M  V30 1210 H 115.855 -3.90434 1.18428 0
M  V30 1211 H 114.53 -3.49132 2.26008 0
M  V30 1212 H 113.107 -3.70285 0.440868 0
M  V30 1213 N 115.292 -0.849877 -1.32721 0
M  V30 1214 C 116.517 -0.463856 -2.02146 0
M  V30 1215 C 116.942 0.930449 -1.63476 0
M  V30 1216 O 116.3 1.61033 -0.832952 0
M  V30 1217 C 116.348 -0.604955 -3.55489 0
M  V30 1218 O 115.452 0.36425 -4.10788 0
M  V30 1219 H 114.793 -0.187046 -0.637111 0
M  V30 1220 H 117.323 -1.14775 -1.69375 0
M  V30 1221 H 117.333 -0.490696 -4.05038 0
M  V30 1222 H 116.008 -1.62174 -3.82978 0
M  V30 1223 H 114.585 0.206628 -3.72327 0
M  V30 1224 N 116.77 1.45427 -0.607355 0
M  V30 1225 C 118.01 2.04128 -0.105458 0
M  V30 1226 C 118.374 1.46555 1.24039 0
M  V30 1227 O 119.575 1.96608 1.833 0
M  V30 1228 C 117.846 3.57338 -0.0665324 0
M  V30 1229 S 119.405 4.37201 0.374207 0
M  V30 1230 H 116.223 0.709278 -0.0494575 0
M  V30 1231 H 118.825 1.78139 -0.805404 0
M  V30 1232 H 117.529 3.96752 -1.04957 0
M  V30 1233 H 117.06 3.87902 0.655415 0
M  V30 1234 H 119.075 4.6888 1.62377 0
M  V30 1235 N 118.248 0.346503 1.53744 0
M  V30 1236 C 119.178 -0.501193 2.28058 0
M  V30 1237 C 120.159 -1.10014 1.29734 0
M  V30 1238 O 121.344 -1.12097 1.58581 0
M  V30 1239 C 118.474 -1.65078 3.05559 0
M  V30 1240 C 117.428 -1.18003 4.11411 0
M  V30 1241 C 116.754 -2.41837 4.76884 0
M  V30 1242 C 118.054 -0.278394 5.21558 0
M  V30 1243 H 119.748 0.11875 2.99164 0
M  V30 1244 H 117.294 0.0585531 1.43881 0
M  V30 1245 H 119.247 -2.25028 3.56287 0
M  V30 1246 H 117.971 -2.29767 2.32109 0
M  V30 1247 H 116.63 -0.603331 3.61601 0
M  V30 1248 H 116.278 -3.0494 4.00026 0
M  V30 1249 H 115.978 -2.1102 5.48402 0
M  V30 1250 H 117.502 -3.02508 5.30397 0
M  V30 1251 H 118.916 -0.784823 5.67903 0
M  V30 1252 H 117.313 -0.0619707 6.00068 0
M  V30 1253 H 118.383 0.684677 4.80042 0
M  V30 1254 N 119.726 -1.57421 0.075193 0
M  V30 1255 C 121.142 -1.57099 -0.281444 0
M  V30 1256 C 121.342 -1.08486 -1.69803 0
M  V30 1257 O 120.398 -0.752279 -2.41033 0
M  V30 1258 C 121.711 -3.00571 -0.0880041 0
M  V30 1259 C 123.259 -3.12605 -0.157281 0
M  V30 1260 C 123.734 -4.57999 0.0079207 0
M  V30 1261 N 125.225 -4.63176 -0.0475725 0
M  V30 1262 C 125.96 -5.73373 0.0557876 0
M  V30 1263 N 125.456 -6.92473 0.21286 0
M  V30 1264 N 127.249 -5.621 -0.00152098 0
M  V30 1265 H 119.4 -1.87335 1.00098 0
M  V30 1266 H 121.663 -0.86377 0.390646 0
M  V30 1267 H 121.369 -3.40262 0.889629 0
M  V30 1268 H 121.243 -3.67754 -0.838875 0
M  V30 1269 H 123.63 -2.72798 -1.1254 0
M  V30 1270 H 123.711 -2.48053 0.62475 0
M  V30 1271 H 123.355 -4.98496 0.972824 0
M  V30 1272 H 123.285 -5.20586 -0.793556 0
M  V30 1273 H 125.776 -3.7753 -0.167244 0
M  V30 1274 H 126.089 -7.72279 0.283781 0
M  V30 1275 H 124.434 -6.94556 0.248267 0
M  V30 1276 H 127.625 -4.67938 -0.122958 0
M  V30 1277 H 127.798 -6.47948 0.0824844 0
M  V30 1278 N 121.204 0.198386 -1.56346 0
M  V30 1279 C 122.451 0.919286 -1.80431 0
M  V30 1280 C 122.779 1.83393 -0.647866 0
M  V30 1281 O 122.034 1.92236 0.366556 0
M  V30 1282 C 122.333 1.77031 -3.10475 0
M  V30 1283 C 121.999 1.00693 -4.39513 0
M  V30 1284 C 120.661 0.796145 -4.74568 0
M  V30 1285 C 123.013 0.469559 -5.19081 0
M  V30 1286 C 120.341 0.0364588 -5.86689 0
M  V30 1287 C 122.693 -0.2769 -6.31994 0
M  V30 1288 C 121.357 -0.49873 -6.65634 0
M  V30 1289 H 120.627 0.336391 -0.660244 0
M  V30 1290 H 123.274 0.185872 -1.90596 0
M  V30 1291 H 121.579 2.5723 -2.95533 0
M  V30 1292 H 123.276 2.33065 -3.26315 0
M  V30 1293 H 119.866 1.18122 -4.12001 0
M  V30 1294 H 124.05 0.619816 -4.92414 0
M  V30 1295 H 119.306 -0.145412 -6.11227 0
M  V30 1296 H 123.48 -0.700684 -6.92866 0
M  V30 1297 H 121.107 -1.0893 -7.52355 0
M  V30 1298 N 122.682 1.50554 0.465978 0
M  V30 1299 C 123.645 1.69233 1.54574 0
M  V30 1300 C 124.645 0.562901 1.50626 0
M  V30 1301 O 125.835 0.830016 1.53155 0
M  V30 1302 C 122.967 1.7223 2.94193 0
M  V30 1303 H 124.16 2.65571 1.39327 0
M  V30 1304 H 121.713 1.40111 0.692711 0
M  V30 1305 H 122.448 0.77603 3.14878 0
M  V30 1306 H 122.233 2.54285 2.98466 0
M  V30 1307 H 123.723 1.88618 3.72576 0
M  V30 1308 N 124.16 -0.719506 1.40217 0
M  V30 1309 C 125.39 -1.50646 1.41384 0
M  V30 1310 C 125.798 -1.89197 0.0107743 0
M  V30 1311 O 125.141 -1.55709 -0.974708 0
M  V30 1312 C 125.203 -2.81405 2.23722 0
M  V30 1313 C 124.867 -2.65199 3.72181 0
M  V30 1314 C 125.864 -2.32717 4.64907 0
M  V30 1315 C 123.549 -2.81586 4.1595 0
M  V30 1316 C 125.543 -2.16827 5.99387 0
M  V30 1317 C 123.23 -2.65313 5.50502 0
M  V30 1318 C 124.228 -2.32981 6.42035 0
M  V30 1319 O 123.916 -2.16827 7.74107 0
M  V30 1320 H 123.648 -0.471606 0.484318 0
M  V30 1321 H 126.202 -0.895456 1.84853 0
M  V30 1322 H 124.432 -3.44823 1.75026 0
M  V30 1323 H 126.121 -3.43102 2.16878 0
M  V30 1324 H 126.887 -2.19694 4.32388 0
M  V30 1325 H 122.766 -3.0574 3.45027 0
M  V30 1326 H 126.31 -1.91513 6.70797 0
M  V30 1327 H 122.207 -2.7792 5.82607 0
M  V30 1328 H 122.975 -2.31778 7.84998 0
M  V30 1329 N 125.638 -1.25649 -0.95132 0
M  V30 1330 C 127.049 -1.09654 -1.51106 0
M  V30 1331 C 127.4 0.326615 -1.93462 0
M  V30 1332 O 126.525 1.21697 -1.78938 0
M  V30 1333 C 127.12 -1.98437 -2.74605 0
M  V30 1334 C 125.679 -1.86618 -3.2688 0
M  V30 1335 C 124.826 -1.9239 -1.99703 0
M  V30 1336 H 127.777 -1.38887 -0.767865 0
M  V30 1337 H 127.798 -1.5263 -3.48546 0
M  V30 1338 H 127.31 -3.02009 -2.43746 0
M  V30 1339 H 125.411 -0.859421 -3.62553 0
M  V30 1340 H 125.524 -2.71607 -3.94673 0
M  V30 1341 H 123.888 -1.36317 -2.15151 0
M  V30 1342 H 124.671 -2.97573 -1.71188 0
M  V30 1343 N 127.117 1.15442 -1.07289 0
M  V30 1344 C 128.049 2.19773 -0.650585 0
M  V30 1345 C 129.062 1.60076 0.296572 0
M  V30 1346 O 130.251 1.78293 0.0859905 0
M  V30 1347 C 127.351 3.38838 0.0650398 0
M  V30 1348 C 126.524 4.2808 -0.898141 0
M  V30 1349 C 125.583 5.2574 -0.219926 0
M  V30 1350 O 124.609 5.62654 -0.860773 0
M  V30 1351 N 125.811 5.71205 1.03466 0
M  V30 1352 H 128.576 2.56622 -1.54808 0
M  V30 1353 H 126.137 1.30551 -0.957494 0
M  V30 1354 H 128.129 4.01222 0.529415 0
M  V30 1355 H 126.699 3.00409 0.864466 0
M  V30 1356 H 125.919 3.62804 -1.54165 0
M  V30 1357 H 127.207 4.84577 -1.5512 0
M  V30 1358 H 126.605 5.43325 1.57526 0
M  V30 1359 H 125.162 6.35633 1.44272 0
M  V30 1360 N 128.595 0.856903 1.32268 0
M  V30 1361 C 129.558 0.308171 2.27119 0
M  V30 1362 C 130.558 -0.533421 1.51695 0
M  V30 1363 O 131.748 -0.344607 1.70757 0
M  V30 1364 C 128.88 -0.563757 3.36206 0
M  V30 1365 H 130.073 1.14535 2.77167 0
M  V30 1366 H 127.626 0.631421 1.42978 0
M  V30 1367 H 128.361 -1.42266 2.91429 0
M  V30 1368 H 128.146 0.0386749 3.92081 0
M  V30 1369 H 129.636 -0.940386 4.06874 0
M  V30 1370 N 130.073 -1.45103 0.615059 0
M  V30 1371 C 131.003 -2.33339 -0.0865619 0
M  V30 1372 C 131.984 -1.4727 -0.851209 0
M  V30 1373 O 133.169 -1.76026 -0.820281 0
M  V30 1374 C 130.299 -3.30095 -1.07956 0
M  V30 1375 C 129.253 -4.25858 -0.427628 0
M  V30 1376 C 128.579 -5.12361 -1.5294 0
M  V30 1377 C 129.879 -5.18165 0.655944 0
M  V30 1378 H 131.573 -2.92254 0.650224 0
M  V30 1379 H 129.119 -1.40532 0.314138 0
M  V30 1380 H 131.072 -3.90698 -1.57901 0
M  V30 1381 H 129.796 -2.69355 -1.84703 0
M  V30 1382 H 128.455 -3.66564 0.0510292 0
M  V30 1383 H 128.103 -4.47984 -2.28734 0
M  V30 1384 H 127.803 -5.77238 -1.09865 0
M  V30 1385 H 129.327 -5.75833 -2.03098 0
M  V30 1386 H 130.741 -5.72796 0.240257 0
M  V30 1387 H 129.138 -5.91559 1.00888 0
M  V30 1388 H 130.208 -4.60144 1.52957 0
M  V30 1389 N 131.551 -0.354651 -1.53558 0
M  V30 1390 C 132.962 0.126902 -1.86268 0
M  V30 1391 C 133.313 1.49075 -1.27558 0
M  V30 1392 O 132.438 2.08105 -0.5934 0
M  V30 1393 C 133.033 0.237046 -3.3797 0
M  V30 1394 C 131.592 0.662842 -3.70518 0
M  V30 1395 C 130.739 -0.196652 -2.76602 0
M  V30 1396 H 133.69 -0.573849 -1.47962 0
M  V30 1397 H 133.711 1.06259 -3.65362 0
M  V30 1398 H 133.223 -0.755725 -3.80671 0
M  V30 1399 H 131.324 1.66424 -3.33367 0
M  V30 1400 H 131.437 0.445034 -4.77029 0
M  V30 1401 H 129.801 0.332763 -2.52517 0
M  V30 1402 H 130.584 -1.18676 -3.22135 0
M  V30 1403 N 133.029 1.57378 -0.0835403 0
M  V30 1404 C 133.977 2.14602 0.89714 0
M  V30 1405 C 134.971 1.08589 1.30018 0
M  V30 1406 O 136.177 1.26952 1.27606 0
M  V30 1407 H 132.552 0.686346 0.3073 0
M  V30 1408 H 134.523 2.95845 0.38969 0
M  V30 1409 C 133.272 2.73188 2.15089 0
M  V30 1410 H 132.595 3.54442 1.84962 0
M  V30 1411 H 134.035 3.1681 2.81793 0
M  V30 1412 C 132.494 1.68517 2.91725 0
M  V30 1413 O 133.024 1.11718 3.85852 0
M  V30 1414 N 131.23 1.39277 2.55049 0
M  V30 1415 H 130.777 1.85655 1.78577 0
M  V30 1416 H 130.735 0.694791 3.06627 0
M  V30 1417 N 134.507 -0.190092 1.56449 0
M  V30 1418 C 135.735 -0.925772 1.85033 0
M  V30 1419 C 136.15 -1.76638 0.666658 0
M  V30 1420 O 135.507 -1.78822 -0.364565 0
M  V30 1421 C 135.558 -1.81786 3.12468 0
M  V30 1422 O 135.279 -1.01118 4.26271 0
M  V30 1423 C 136.78 -2.6648 3.54265 0
M  V30 1424 H 134 -0.269872 0.614337 0
M  V30 1425 H 136.544 -0.195837 2.0356 0
M  V30 1426 H 134.699 -2.50136 2.95822 0
M  V30 1427 H 135.113 -1.61956 4.98869 0
M  V30 1428 H 136.587 -3.24722 4.46385 0
M  V30 1429 H 137.064 -3.40434 2.77491 0
M  V30 1430 H 137.67 -2.03493 3.73458 0
M  V30 1431 N 135.985 -1.50799 -0.457987 0
M  V30 1432 C 137.213 -1.66218 -1.23203 0
M  V30 1433 C 137.628 -0.350894 -1.85511 0
M  V30 1434 O 136.985 0.668546 -1.69814 0
M  V30 1435 C 137.036 -2.76291 -2.33121 0
M  V30 1436 O 136.757 -4.02338 -1.73366 0
M  V30 1437 C 138.258 -3.028 -3.2377 0
M  V30 1438 H 135.478 -0.558361 -0.372121 0
M  V30 1439 H 138.022 -1.97099 -0.545179 0
M  V30 1440 H 136.177 -2.48068 -2.97558 0
M  V30 1441 H 136.591 -4.63312 -2.4585 0
M  V30 1442 H 138.065 -3.8345 -3.97077 0
M  V30 1443 H 138.542 -2.14385 -3.83322 0
M  V30 1444 H 139.148 -3.32604 -2.65056 0
M  V30 1445 N 137.463 0.71206 -1.40597 0
M  V30 1446 C 138.393 1.83889 -1.43899 0
M  V30 1447 C 139.374 1.67442 -0.299504 0
M  V30 1448 O 140.559 1.87421 -0.508624 0
M  V30 1449 C 137.689 3.21877 -1.30431 0
M  V30 1450 C 136.643 3.53002 -2.42019 0
M  V30 1451 C 135.969 4.90172 -2.13626 0
M  V30 1452 C 137.269 3.53643 -3.84362 0
M  V30 1453 H 138.963 1.81383 -2.38203 0
M  V30 1454 H 136.509 0.871237 -1.14654 0
M  V30 1455 H 138.462 4.00404 -1.31357 0
M  V30 1456 H 137.186 3.24968 -0.326049 0
M  V30 1457 H 135.845 2.76818 -2.40349 0
M  V30 1458 H 135.493 4.89869 -1.14182 0
M  V30 1459 H 135.193 5.11962 -2.88389 0
M  V30 1460 H 136.717 5.71028 -2.1624 0
M  V30 1461 H 138.131 4.22203 -3.87837 0
M  V30 1462 H 136.528 3.86961 -4.58673 0
M  V30 1463 H 137.598 2.52954 -4.13693 0
M  V30 1464 N 138.941 1.26152 0.944643 0
M  V30 1465 C 140.189 1.11271 1.6871 0
M  V30 1466 C 140.51 -0.345166 1.91921 0
M  V30 1467 O 139.78 -1.24387 1.51343 0
M  V30 1468 H 138.36 0.408783 0.625224 0
M  V30 1469 H 141.022 1.58427 1.1352 0
M  V30 1470 H 140.118 1.62879 2.66227 0
M  V30 1471 N 140.419 -1.14872 1.07899 0
M  V30 1472 C 141.329 -2.2341 0.715915 0
M  V30 1473 C 142.345 -1.71808 -0.275306 0
M  V30 1474 O 143.521 -2.01039 -0.120545 0
M  V30 1475 C 140.586 -3.46474 0.125168 0
M  V30 1476 C 139.647 -4.13039 1.17034 0
M  V30 1477 C 138.88 -5.30229 0.607688 0
M  V30 1478 O 139.103 -5.675 -0.574497 0
M  V30 1479 O 138.037 -5.86444 1.35526 0
M  V30 1480 H 141.863 -2.56808 1.62121 0
M  V30 1481 H 139.448 -1.22702 0.852322 0
M  V30 1482 H 141.33 -4.20917 -0.201729 0
M  V30 1483 H 140.005 -3.14811 -0.753364 0
M  V30 1484 H 138.912 -3.40493 1.54968 0
M  V30 1485 H 140.245 -4.48796 2.02097 0
M  V30 1486 N 141.898 -0.863906 -1.31812 0
M  V30 1487 C 142.808 -0.318461 -2.32428 0
M  V30 1488 C 143.824 0.568496 -1.64451 0
M  V30 1489 O 145 0.46666 -1.95919 0
M  V30 1490 C 142.065 0.476355 -3.43412 0
M  V30 1491 C 141.126 -0.43784 -4.27061 0
M  V30 1492 C 140.359 0.319138 -5.32745 0
M  V30 1493 O 140.582 1.54799 -5.48993 0
M  V30 1494 O 139.516 -0.319861 -6.01049 0
M  V30 1495 H 143.342 -1.15229 -2.80991 0
M  V30 1496 H 140.927 -0.627103 -1.35602 0
M  V30 1497 H 142.809 0.927156 -4.11074 0
M  V30 1498 H 141.484 1.28683 -2.97022 0
M  V30 1499 H 140.391 -0.937013 -3.62175 0
M  V30 1500 H 141.724 -1.21375 -4.77 0
M  V30 1501 N 143.376 1.44774 -0.622745 0
M  V30 1502 C 144.792 1.56986 -0.287652 0
M  V30 1503 C 144.992 1.61167 1.20944 0
M  V30 1504 O 144.048 1.55015 1.99315 0
M  V30 1505 C 145.361 2.84551 -0.972188 0
M  V30 1506 C 146.909 2.9825 -0.949536 0
M  V30 1507 C 147.384 4.28605 -1.61437 0
M  V30 1508 N 148.875 4.35399 -1.58057 0
M  V30 1509 C 149.61 5.34964 -2.064 0
M  V30 1510 N 149.106 6.40981 -2.62897 0
M  V30 1511 N 150.899 5.26419 -1.97078 0
M  V30 1512 H 143.05 1.40304 -1.59463 0
M  V30 1513 H 145.313 0.671794 -0.668878 0
M  V30 1514 H 145.019 2.87417 -2.02693 0
M  V30 1515 H 144.893 3.73807 -0.504771 0
M  V30 1516 H 147.28 2.94941 0.0967067 0
M  V30 1517 H 147.361 2.10364 -1.45536 0
M  V30 1518 H 147.005 4.32672 -2.66002 0
M  V30 1519 H 146.935 5.15334 -1.08344 0
M  V30 1520 H 149.426 3.59397 -1.16801 0
M  V30 1521 H 149.739 7.13225 -2.97539 0
M  V30 1522 H 148.084 6.4169 -2.66943 0
M  V30 1523 H 151.275 4.42504 -1.52669 0
M  V30 1524 H 151.448 6.03861 -2.35066 0
M  V30 1525 N 144.854 0.36279 1.53368 0
M  V30 1526 C 145.786 -0.519668 2.23231 0
M  V30 1527 C 146.799 -1.04844 1.24546 0
M  V30 1528 O 147.988 -0.955296 1.50786 0
M  V30 1529 C 145.088 -1.72995 2.9142 0
M  V30 1530 C 144.261 -1.33316 4.16588 0
M  V30 1531 C 143.32 -2.40521 4.68013 0
M  V30 1532 O 142.346 -2.03027 5.3176 0
M  V30 1533 N 143.548 -3.72065 4.45587 0
M  V30 1534 H 146.313 0.078751 2.99597 0
M  V30 1535 H 143.874 0.187833 1.60807 0
M  V30 1536 H 145.866 -2.44184 3.22733 0
M  V30 1537 H 144.436 -2.2353 2.18525 0
M  V30 1538 H 143.656 -0.451236 3.91609 0
M  V30 1539 H 144.944 -1.04432 4.97967 0
M  V30 1540 H 144.342 -4.05304 3.94646 0
M  V30 1541 H 142.899 -4.39366 4.81457 0
M  V30 1542 N 146.332 -1.57332 0.0918853 0
M  V30 1543 C 147.557 -1.98995 -0.584442 0
M  V30 1544 C 147.982 -0.970528 -1.61128 0
M  V30 1545 O 147.34 0.0613904 -1.81196 0
M  V30 1546 C 147.388 -3.39636 -1.21161 0
M  V30 1547 O 146.492 -3.40447 -2.32744 0
M  V30 1548 H 145.833 -0.647165 -0.148572 0
M  V30 1549 H 148.363 -2.03873 0.172347 0
M  V30 1550 H 148.373 -3.7726 -1.55367 0
M  V30 1551 H 147.048 -4.13356 -0.459313 0
M  V30 1552 H 145.625 -3.14614 -2.0018 0
M  V30 1553 N 147.81 0.181792 -1.56548 0
M  V30 1554 C 149.226 0.53316 -1.50431 0
M  V30 1555 C 149.426 1.85184 -0.794297 0
M  V30 1556 O 148.482 2.50058 -0.350318 0
M  V30 1557 C 149.795 0.575597 -2.9514 0
M  V30 1558 C 151.343 0.663519 -3.05886 0
M  V30 1559 C 151.818 0.736946 -4.52032 0
M  V30 1560 N 153.309 0.800118 -4.56237 0
M  V30 1561 C 154.044 0.877327 -5.66649 0
M  V30 1562 N 153.54 0.916016 -6.86718 0
M  V30 1563 N 155.333 0.915542 -5.54594 0
M  V30 1564 H 147.484 -0.683025 -2.01118 0
M  V30 1565 H 149.747 -0.244988 -0.915797 0
M  V30 1566 H 149.453 -0.324482 -3.502 0
M  V30 1567 H 149.327 1.42572 -3.49218 0
M  V30 1568 H 151.714 1.55403 -2.50867 0
M  V30 1569 H 151.795 -0.21307 -2.54911 0
M  V30 1570 H 151.439 -0.149262 -5.07681 0
M  V30 1571 H 151.369 1.62953 -5.00753 0
M  V30 1572 H 153.86 0.778926 -3.69785 0
M  V30 1573 H 154.173 0.975813 -7.66614 0
M  V30 1574 H 152.518 0.884469 -6.89349 0
M  V30 1575 H 155.709 0.882245 -4.59711 0
M  V30 1576 H 155.882 0.972253 -6.40665 0
M  V30 1577 N 149.288 1.51039 0.449983 0
M  V30 1578 C 150.536 1.62759 1.19808 0
M  V30 1579 C 150.857 0.339981 1.92013 0
M  V30 1580 O 150.127 -0.643606 1.85026 0
M  V30 1581 H 148.707 0.599811 0.445237 0
M  V30 1582 H 151.369 1.87914 0.517138 0
M  V30 1583 H 150.465 2.44911 1.93455 0
M  V30 1584 N 150.766 -0.704594 1.40972 0
M  V30 1585 C 151.676 -1.84856 1.44448 0
M  V30 1586 C 152.692 -1.70726 0.335961 0
M  V30 1587 O 153.868 -1.92799 0.582276 0
M  V30 1588 C 150.933 -3.20758 1.31587 0
M  V30 1589 C 149.994 -3.47063 2.52677 0
M  V30 1590 C 149.227 -4.76481 2.4042 0
M  V30 1591 O 149.45 -5.52341 1.42391 0
M  V30 1592 O 148.384 -5.03367 3.30007 0
M  V30 1593 H 152.21 -1.8488 2.40942 0
M  V30 1594 H 149.795 -0.85647 1.22413 0
M  V30 1595 H 151.677 -4.01913 1.26665 0
M  V30 1596 H 150.352 -3.21438 0.382049 0
M  V30 1597 H 149.259 -2.65873 2.63177 0
M  V30 1598 H 150.592 -3.5119 3.44858 0
M  V30 1599 N 152.244 -1.26651 -0.937939 0
M  V30 1600 C 153.174 -1.10993 -2.05433 0
M  V30 1601 C 154.155 -0.0142161 -1.70094 0
M  V30 1602 O 155.34 -0.186837 -1.93299 0
M  V30 1603 C 152.47 -0.745561 -3.39203 0
M  V30 1604 C 151.424 -1.79337 -3.88616 0
M  V30 1605 C 150.75 -1.28324 -5.19073 0
M  V30 1606 C 152.05 -3.19553 -4.13138 0
M  V30 1607 H 153.744 -2.0438 -2.1879 0
M  V30 1608 H 151.29 -0.984041 -1.05131 0
M  V30 1609 H 153.243 -0.622888 -4.16771 0
M  V30 1610 H 151.967 0.22401 -3.25831 0
M  V30 1611 H 150.626 -1.90477 -3.13231 0
M  V30 1612 H 150.274 -0.303414 -5.02084 0
M  V30 1613 H 149.974 -1.98369 -5.53103 0
M  V30 1614 H 151.498 -1.1733 -5.99221 0
M  V30 1615 H 152.912 -3.11471 -4.81309 0
M  V30 1616 H 151.309 -3.87218 -4.58457 0
M  V30 1617 H 152.379 -3.65368 -3.18801 0
M  V30 1618 N 153.722 1.14298 -1.08507 0
M  V30 1619 C 154.632 2.23027 -0.727753 0
M  V30 1620 C 155.648 1.71952 0.26619 0
M  V30 1621 O 156.824 2.011 0.109882 0
M  V30 1622 C 153.889 3.46403 -0.143541 0
M  V30 1623 C 152.95 4.12413 -1.19223 0
M  V30 1624 C 152.183 5.29899 -0.635798 0
M  V30 1625 O 152.406 5.67796 0.544393 0
M  V30 1626 O 151.34 5.85717 -1.38634 0
M  V30 1627 H 155.166 2.55945 -1.63481 0
M  V30 1628 H 152.751 1.22248 -0.858817 0
M  V30 1629 H 154.633 4.21018 0.179404 0
M  V30 1630 H 153.308 3.15206 0.736659 0
M  V30 1631 H 152.215 3.39667 -1.56772 0
M  V30 1632 H 153.548 4.47718 -2.04474 0
M  V30 1633 N 155.201 0.870884 1.31352 0
M  V30 1634 C 156.478 0.402907 1.91405 0
M  V30 1635 C 156.858 -1.11512 1.79244 0
M  V30 1636 O 156.206 -1.94411 1.2007 0
M  V30 1637 C 156.416 0.885301 3.37585 0
M  V30 1638 C 157.764 0.911971 4.14691 0
M  V30 1639 O 158.788 0.831016 3.46371 0
M  V30 1640 O 157.647 1.02927 5.3672 0
M  V30 1641 H 154.741 0.120698 0.818145 0
M  V30 1642 H 157.287 0.958857 1.40014 0
M  V30 1643 H 156.059 1.92889 3.40455 0
M  V30 1644 H 155.682 0.307714 3.96407 0
M  V30 1645 N 156.679 -1.44442 0.630414 0
M  V30 1646 C 157.589 -2.34476 -0.0761693 0
M  V30 1647 C 158.605 -1.52576 -0.836449 0
M  V30 1648 O 159.781 -1.85307 -0.788874 0
M  V30 1649 C 156.846 -3.30545 -1.04599 0
M  V30 1650 C 155.907 -4.28352 -0.28516 0
M  V30 1651 C 155.14 -5.19831 -1.20878 0
M  V30 1652 O 155.363 -5.15223 -2.44747 0
M  V30 1653 O 154.297 -5.97892 -0.693491 0
M  V30 1654 H 158.123 -2.96345 0.664324 0
M  V30 1655 H 155.708 -1.44203 0.39061 0
M  V30 1656 H 157.59 -3.89681 -1.60396 0
M  V30 1657 H 156.265 -2.7121 -1.76711 0
M  V30 1658 H 155.172 -3.72764 0.315837 0
M  V30 1659 H 156.505 -4.90605 0.395924 0
M  V30 1660 N 158.157 -0.370918 -1.53173 0
M  V30 1661 C 159.568 0.107139 -1.86392 0
M  V30 1662 C 159.919 1.47714 -1.29132 0
M  V30 1663 O 159.044 2.07464 -0.615439 0
M  V30 1664 C 159.639 0.201187 -3.38202 0
M  V30 1665 C 158.198 0.623507 -3.712 0
M  V30 1666 C 157.345 -0.225978 -2.76378 0
M  V30 1667 H 160.296 -0.58951 -1.47345 0
M  V30 1668 H 160.317 1.02377 -3.66468 0
M  V30 1669 H 159.829 -0.796058 -3.79848 0
M  V30 1670 H 157.93 1.62879 -3.35114 0
M  V30 1671 H 158.043 0.394414 -4.77474 0
M  V30 1672 H 156.407 0.305962 -2.52856 0
M  V30 1673 H 157.19 -1.22086 -3.20858 0
M  V30 1674 N 159.635 1.57281 -0.100228 0
M  V30 1675 C 160.598 2.13158 0.842398 0
M  V30 1676 C 161.598 1.06202 1.20738 0
M  V30 1677 O 162.788 1.32066 1.13597 0
M  V30 1678 C 159.92 2.65639 2.13655 0
M  V30 1679 H 161.113 2.97766 0.357114 0
M  V30 1680 H 158.666 1.5559 0.148823 0
M  V30 1681 H 159.401 1.84566 2.66657 0
M  V30 1682 H 159.186 3.43844 1.88451 0
M  V30 1683 H 160.676 3.08846 2.81077 0
M  V30 1684 N 161.113 -0.173488 1.56642 0
M  V30 1685 C 162.341 -0.906095 1.86004 0
M  V30 1686 C 162.756 -1.75921 0.685355 0
M  V30 1687 O 162.113 -1.79198 -0.345578 0
M  V30 1688 C 162.164 -1.78462 3.14378 0
M  V30 1689 O 161.885 -0.965914 4.27319 0
M  V30 1690 C 163.386 -2.62707 3.57071 0
M  V30 1691 H 160.606 -0.263341 0.617165 0
M  V30 1692 H 163.15 -0.174236 2.03756 0
M  V30 1693 H 161.305 -2.46984 2.98459 0
M  V30 1694 H 161.719 -1.56655 5.00559 0
M  V30 1695 H 163.193 -3.19969 4.49804 0
M  V30 1696 H 163.67 -3.37472 2.81086 0
M  V30 1697 H 164.276 -1.99521 3.75595 0
M  V30 1698 N 162.591 -1.51276 -0.441967 0
M  V30 1699 C 163.837 -1.63958 -1.19355 0
M  V30 1700 C 164.17 -0.352543 -1.90973 0
M  V30 1701 O 163.445 0.647627 -1.83401 0
M  V30 1702 C 163.728 -2.83979 -2.21422 0
M  V30 1703 C 163.581 -4.22646 -1.53918 0
M  V30 1704 C 164.9 -2.99521 -3.22451 0
M  V30 1705 H 162.019 -0.596709 -0.432559 0
M  V30 1706 H 164.661 -1.83748 -0.483398 0
M  V30 1707 H 162.811 -2.67237 -2.81987 0
M  V30 1708 H 164.483 -4.51045 -0.967256 0
M  V30 1709 H 162.726 -4.25558 -0.841615 0
M  V30 1710 H 163.397 -5.02609 -2.28229 0
M  V30 1711 H 165.873 -3.14944 -2.71937 0
M  V30 1712 H 164.749 -3.85072 -3.91166 0
M  V30 1713 H 165.01 -2.11391 -3.88287 0
M  V30 1714 N 164.069 0.697108 -1.41344 0
M  V30 1715 C 165.48 1.27697 -1.36199 0
M  V30 1716 C 165.831 1.9615 -0.0443463 0
M  V30 1717 O 164.956 1.98689 0.857419 0
M  V30 1718 C 165.551 2.32223 -2.46694 0
M  V30 1719 C 164.11 2.8579 -2.44952 0
M  V30 1720 C 163.257 1.59807 -2.26621 0
M  V30 1721 H 166.208 0.491968 -1.50882 0
M  V30 1722 H 166.229 3.1348 -2.15664 0
M  V30 1723 H 165.741 1.82373 -3.42581 0
M  V30 1724 H 163.842 3.3982 -1.52817 0
M  V30 1725 H 163.955 3.36325 -3.41207 0
M  V30 1726 H 162.319 1.8556 -1.7447 0
M  V30 1727 H 163.102 1.11956 -3.24532 0
M  V30 1728 N 165.547 1.27147 0.931209 0
M  V30 1729 C 166.787 1.14511 1.69312 0
M  V30 1730 C 167.151 -0.304638 1.89568 0
M  V30 1731 O 168.352 -0.553343 2.63043 0
M  V30 1732 C 166.623 1.90349 3.02493 0
M  V30 1733 S 168.182 1.93884 3.93642 0
M  V30 1734 H 165 0.408858 0.581684 0
M  V30 1735 H 167.602 1.61006 1.10893 0
M  V30 1736 H 166.306 2.94877 2.85439 0
M  V30 1737 H 165.837 1.44333 3.65966 0
M  V30 1738 H 167.852 1.03273 4.85334 0
M  V30 1739 N 167.025 -1.13721 1.09112 0
M  V30 1740 C 168.25 -1.89314 0.847053 0
M  V30 1741 C 168.675 -1.78416 -0.595774 0
M  V30 1742 O 168.033 -1.12942 -1.41823 0
M  V30 1743 C 168.081 -3.3701 1.28284 0
M  V30 1744 O 167.185 -4.10054 0.439267 0
M  V30 1745 H 166.526 -0.588745 0.307044 0
M  V30 1746 H 169.056 -1.43902 1.45442 0
M  V30 1747 H 169.066 -3.87834 1.26683 0
M  V30 1748 H 167.741 -3.4426 2.33363 0
M  V30 1749 H 166.318 -3.69266 0.519312 0
M  V30 1750 N 168.503 -0.877838 -1.30888 0
M  V30 1751 C 169.435 -0.296607 -2.27273 0
M  V30 1752 C 170.448 0.544799 -1.53414 0
M  V30 1753 O 171.637 0.365511 -1.74718 0
M  V30 1754 C 168.737 0.597481 -3.33592 0
M  V30 1755 C 167.91 -0.213251 -4.3688 0
M  V30 1756 C 166.969 0.610208 -5.2265 0
M  V30 1757 O 165.995 0.035441 -5.69189 0
M  V30 1758 N 167.197 1.92071 -5.47804 0
M  V30 1759 H 169.962 -1.12492 -2.77787 0
M  V30 1760 H 167.523 -0.740105 -1.43993 0
M  V30 1761 H 169.515 1.15425 -3.87891 0
M  V30 1762 H 168.085 1.32647 -2.83061 0
M  V30 1763 H 167.305 -0.951466 -3.82545 0
M  V30 1764 H 168.593 -0.769262 -5.02951 0
M  V30 1765 H 167.991 2.4107 -5.11763 0
M  V30 1766 H 166.548 2.42508 -6.05007 0
M  V30 1767 N 169.982 1.44106 -0.638065 0
M  V30 1768 C 171.23 2.01579 -0.145043 0
M  V30 1769 C 171.551 1.50496 1.24 0
M  V30 1770 O 170.821 0.711374 1.82527 0
M  V30 1771 H 169.401 0.745282 -0.05063 0
M  V30 1772 H 172.063 1.76516 -0.826327 0
M  V30 1773 H 171.159 3.11877 -0.118039 0
M  V30 1774 N 171.46 0.379036 1.52974 0
M  V30 1775 C 172.706 -0.199244 2.02422 0
M  V30 1776 C 173.061 -1.4532 1.26095 0
M  V30 1777 O 172.354 -1.88377 0.34996 0
M  V30 1778 C 172.548 -0.53096 3.53434 0
M  V30 1779 C 172.377 0.689298 4.44386 0
M  V30 1780 C 171.147 1.20546 4.9071 0
M  V30 1781 C 173.345 1.55856 4.90116 0
M  V30 1782 N 171.327 2.38434 5.65705 0
M  V30 1783 C 172.698 2.58396 5.63588 0
M  V30 1784 C 174.753 1.57986 4.7217 0
M  V30 1785 C 173.456 3.62939 6.21022 0
M  V30 1786 C 175.482 2.6143 5.30479 0
M  V30 1787 C 174.844 3.62693 6.03849 0
M  V30 1788 H 170.943 -0.0352671 0.781204 0
M  V30 1789 H 173.527 0.526614 1.87443 0
M  V30 1790 H 171.698 -1.22588 3.68547 0
M  V30 1791 H 173.43 -1.0955 3.89591 0
M  V30 1792 H 170.185 0.768022 4.67331 0
M  V30 1793 H 170.609 2.98055 6.07859 0
M  V30 1794 H 175.251 0.810475 4.14959 0
M  V30 1795 H 172.969 4.40751 6.77321 0
M  V30 1796 H 176.555 2.63949 5.18481 0
M  V30 1797 H 175.435 4.41424 6.48163 0
M  V30 1798 N 172.938 -1.57226 0.108567 0
M  V30 1799 C 173.848 -2.18292 -0.859401 0
M  V30 1800 C 174.864 -1.15612 -1.30038 0
M  V30 1801 O 176.04 -1.48039 -1.36552 0
M  V30 1802 C 173.105 -2.762 -2.09558 0
M  V30 1803 C 172.166 -3.93881 -1.70752 0
M  V30 1804 C 171.399 -4.49018 -2.88477 0
M  V30 1805 O 171.622 -4.03068 -4.036 0
M  V30 1806 O 170.556 -5.39852 -2.66164 0
M  V30 1807 H 174.382 -3.01441 -0.369769 0
M  V30 1808 H 171.967 -1.48945 -0.1165 0
M  V30 1809 H 173.849 -3.13156 -2.81978 0
M  V30 1810 H 172.524 -1.96089 -2.57548 0
M  V30 1811 H 171.431 -3.61713 -0.954714 0
M  V30 1812 H 172.764 -4.75396 -1.27513 0
M  V30 1813 N 174.416 0.165178 -1.56732 0
M  V30 1814 C 175.646 0.894919 -1.86212 0
M  V30 1815 C 176.054 1.76066 -0.692627 0
M  V30 1816 O 175.397 1.80387 0.347303 0
M  V30 1817 C 175.459 1.8174 -3.10179 0
M  V30 1818 C 175.123 1.13064 -4.42793 0
M  V30 1819 C 176.12 0.493169 -5.17556 0
M  V30 1820 C 173.805 1.12556 -4.89527 0
M  V30 1821 C 175.799 -0.140209 -6.37246 0
M  V30 1822 C 173.486 0.488366 -6.09145 0
M  V30 1823 C 174.484 -0.143411 -6.82849 0
M  V30 1824 O 174.172 -0.77055 -8.00199 0
M  V30 1825 H 173.904 0.265114 -0.621844 0
M  V30 1826 H 176.458 0.168242 -2.0471 0
M  V30 1827 H 174.688 2.58455 -2.87642 0
M  V30 1828 H 176.377 2.4175 -3.26055 0
M  V30 1829 H 177.143 0.489023 -4.82528 0
M  V30 1830 H 173.022 1.60672 -4.32094 0
M  V30 1831 H 176.566 -0.633932 -6.94714 0
M  V30 1832 H 172.463 0.490116 -6.43637 0
M  V30 1833 H 173.231 -0.670408 -8.1575 0
M  V30 1834 N 175.894 1.51508 0.433938 0
M  V30 1835 C 177.171 1.54888 1.19453 0
M  V30 1836 C 177.551 0.315154 2.08734 0
M  V30 1837 O 176.899 -0.699558 2.17528 0
M  V30 1838 C 177.109 2.86467 1.99342 0
M  V30 1839 C 178.457 3.38545 2.56267 0
M  V30 1840 O 179.481 2.88041 2.0955 0
M  V30 1841 O 178.34 4.26675 3.41483 0
M  V30 1842 H 175.434 0.622863 0.544032 0
M  V30 1843 H 177.98 1.63823 0.442732 0
M  V30 1844 H 176.752 3.67718 1.33788 0
M  V30 1845 H 176.375 2.8071 2.8158 0
M  V30 1846 N 177.372 -0.689602 1.41712 0
M  V30 1847 C 178.322 -1.79571 1.40493 0
M  V30 1848 C 179.306 -1.58473 0.278409 0
M  V30 1849 O 180.498 -1.69204 0.519532 0
M  V30 1850 C 177.627 -3.17923 1.29536 0
M  V30 1851 C 176.713 -3.44695 2.47075 0
M  V30 1852 N 177.104 -3.42132 3.72531 0
M  V30 1853 C 175.402 -3.75269 2.41017 0
M  V30 1854 C 176.103 -3.67976 4.50521 0
M  V30 1855 N 175.079 -3.88014 3.80718 0
M  V30 1856 H 178.881 -1.75961 2.35404 0
M  V30 1857 H 176.395 -0.889839 1.35851 0
M  V30 1858 H 178.392 -3.97167 1.26745 0
M  V30 1859 H 177.052 -3.22741 0.356153 0
M  V30 1860 H 178.063 -3.22375 4.05333 0
M  V30 1861 H 174.74 -3.87421 1.55599 0
M  V30 1862 H 176.13 -3.7208 5.59469 0
M  V30 1863 N 178.85 -1.27639 -0.924453 0
M  V30 1864 C 180.075 -1.17101 -1.71179 0
M  V30 1865 C 180.5 0.268134 -1.86179 0
M  V30 1866 O 179.858 1.19415 -1.36418 0
M  V30 1867 C 179.906 -1.86313 -3.08739 0
M  V30 1868 O 179.01 -1.16331 -3.95652 0
M  V30 1869 H 178.351 -0.407091 -0.524569 0
M  V30 1870 H 180.881 -1.68767 -1.15666 0
M  V30 1871 H 180.891 -1.938 -3.59034 0
M  V30 1872 H 179.566 -2.91001 -2.97138 0
M  V30 1873 H 178.143 -1.16935 -3.54091 0
M  V30 1874 N 180.328 1.1314 -1.09713 0
M  V30 1875 C 181.238 2.22242 -0.751367 0
M  V30 1876 C 182.254 1.72224 0.247938 0
M  V30 1877 O 183.43 2.01205 0.0885463 0
M  V30 1878 C 180.495 3.46231 -0.180274 0
M  V30 1879 C 179.556 4.11125 -1.2359 0
M  V30 1880 C 178.789 5.29195 -0.691966 0
M  V30 1881 O 179.012 5.68342 0.48414 0
M  V30 1882 O 177.946 5.84214 -1.44838 0
M  V30 1883 H 181.772 2.54197 -1.66186 0
M  V30 1884 H 179.357 1.21331 -0.871735 0
M  V30 1885 H 181.239 4.21185 0.134739 0
M  V30 1886 H 179.914 3.1597 0.703185 0
M  V30 1887 H 178.821 3.37985 -1.60366 0
M  V30 1888 H 180.154 4.45524 -2.09211 0
M  V30 1889 N 181.806 0.884767 1.30421 0
M  V30 1890 C 183.053 0.503105 1.96151 0
M  V30 1891 C 183.381 -0.947676 1.69851 0
M  V30 1892 O 182.636 -1.68467 0.995861 0
M  V30 1893 C 182.935 0.724318 3.49983 0
M  V30 1894 C 182.601 2.15015 3.96332 0
M  V30 1895 C 181.263 2.54005 4.08699 0
M  V30 1896 C 183.615 3.07936 4.20505 0
M  V30 1897 C 180.943 3.85128 4.42599 0
M  V30 1898 C 183.295 4.3859 4.55874 0
M  V30 1899 C 181.959 4.77474 4.66449 0
M  V30 1900 H 181.229 0.184099 0.717766 0
M  V30 1901 H 183.876 1.12058 1.55291 0
M  V30 1902 H 182.181 0.0238086 3.91793 0
M  V30 1903 H 183.878 0.408617 3.98913 0
M  V30 1904 H 180.468 1.8375 3.87213 0
M  V30 1905 H 184.652 2.79033 4.10431 0
M  V30 1906 H 179.908 4.14996 4.48986 0
M  V30 1907 H 184.082 5.10629 4.7353 0
M  V30 1908 H 181.709 5.79115 4.92473 0
M  V30 1909 N 183.284 -1.43765 0.645699 0
M  V30 1910 C 184.509 -2.06767 0.161883 0
M  V30 1911 C 184.934 -1.48034 -1.16049 0
M  V30 1912 O 184.292 -0.587369 -1.71522 0
M  V30 1913 C 184.34 -3.60519 0.0762003 0
M  V30 1914 O 183.444 -4.00982 -0.963721 0
M  V30 1915 H 182.785 -0.657675 0.091429 0
M  V30 1916 H 185.315 -1.84397 0.886499 0
M  V30 1917 H 185.325 -4.07853 -0.109604 0
M  V30 1918 H 184 -4.02646 1.04157 0
M  V30 1919 H 182.577 -3.65253 -0.751312 0
M  V30 1920 N 184.763 -0.387143 -1.52771 0
M  V30 1921 C 185.988 0.198407 -2.06449 0
M  V30 1922 C 186.413 1.39918 -1.25716 0
M  V30 1923 O 185.771 1.79099 -0.281657 0
M  V30 1924 C 185.819 0.548893 -3.56398 0
M  V30 1925 O 184.923 1.64315 -3.78252 0
M  V30 1926 H 184.264 0.0237731 -0.663574 0
M  V30 1927 H 186.794 -0.553989 -1.96957 0
M  V30 1928 H 186.804 0.813812 -3.99801 0
M  V30 1929 H 185.479 -0.329005 -4.14597 0
M  V30 1930 H 184.056 1.37211 -3.46738 0
M  V30 1931 N 186.241 1.57166 -0.116904 0
M  V30 1932 C 187.469 1.99473 0.549383 0
M  V30 1933 C 187.884 0.996541 1.60357 0
M  V30 1934 O 187.241 -0.0108731 1.82497 0
M  V30 1935 C 187.292 3.41788 1.17741 0
M  V30 1936 O 187.013 4.37788 0.165362 0
M  V30 1937 C 188.514 3.99216 1.92722 0
M  V30 1938 H 185.734 0.655009 0.145616 0
M  V30 1939 H 188.278 2.03494 -0.202625 0
M  V30 1940 H 186.433 3.38713 1.88021 0
M  V30 1941 H 186.847 5.20806 0.621403 0
M  V30 1942 H 188.321 5.00882 2.31995 0
M  V30 1943 H 188.798 3.3824 2.80161 0
M  V30 1944 H 189.404 4.0583 1.27209 0
M  V30 1945 N 187.719 -0.156864 1.56817 0
M  V30 1946 C 188.968 -0.869504 1.81996 0
M  V30 1947 C 189.281 -1.82777 0.696545 0
M  V30 1948 O 190.487 -2.58384 0.833658 0
M  V30 1949 C 188.943 -1.59679 3.22538 0
M  V30 1950 C 188.551 -0.681431 4.42787 0
M  V30 1951 C 190.295 -2.2968 3.56997 0
M  V30 1952 C 188.202 -1.40978 5.74351 0
M  V30 1953 H 187.132 -0.328438 0.678708 0
M  V30 1954 H 189.783 -0.1223 1.83092 0
M  V30 1955 H 188.165 -2.38927 3.158 0
M  V30 1956 H 189.339 0.0751166 4.60739 0
M  V30 1957 H 187.654 -0.0903431 4.16302 0
M  V30 1958 H 190.251 -2.84794 4.52544 0
M  V30 1959 H 190.594 -3.05707 2.82576 0
M  V30 1960 H 191.127 -1.57361 3.65352 0
M  V30 1961 H 187.866 -0.691561 6.51842 0
M  V30 1962 H 187.386 -2.13929 5.60352 0
M  V30 1963 H 189.065 -1.95337 6.16808 0
M  V30 1964 N 189.197 -1.51736 -0.425897 0
M  V30 1965 C 190.16 -1.73271 -1.50032 0
M  V30 1966 C 191.16 -0.602639 -1.4908 0
M  V30 1967 O 192.35 -0.87033 -1.509 0
M  V30 1968 C 189.482 -1.79969 -2.89523 0
M  V30 1969 H 190.675 -2.69172 -1.32237 0
M  V30 1970 H 188.228 -1.41899 -0.65532 0
M  V30 1971 H 188.963 -0.859241 -3.1271 0
M  V30 1972 H 188.748 -2.62109 -2.91619 0
M  V30 1973 H 190.238 -1.9843 -3.67444 0
M  V30 1974 N 190.675 0.682077 -1.42076 0
M  V30 1975 C 191.903 1.47057 -1.4554 0
M  V30 1976 C 192.318 1.8869 -0.0645779 0
M  V30 1977 O 191.675 1.57666 0.919115 0
M  V30 1978 C 191.726 2.72442 -2.37609 0
M  V30 1979 O 191.447 2.32559 -3.71279 0
M  V30 1980 C 192.948 3.66069 -2.50017 0
M  V30 1981 H 190.168 0.452737 -0.495248 0
M  V30 1982 H 192.712 0.838695 -1.8651 0
M  V30 1983 H 190.867 3.31835 -1.9991 0
M  V30 1984 H 191.281 3.13475 -4.20516 0
M  V30 1985 H 192.755 4.50792 -3.18576 0
M  V30 1986 H 193.232 4.11476 -1.53572 0
M  V30 1987 H 193.838 3.12572 -2.88407 0
M  V30 1988 N 192.153 1.28127 0.917671 0
M  V30 1989 C 193.063 1.13556 2.05286 0
M  V30 1990 C 194.079 0.0630914 1.73886 0
M  V30 1991 O 195.255 0.271598 1.9956 0
M  V30 1992 C 192.32 0.794676 3.3747 0
M  V30 1993 C 191.381 1.94909 3.82504 0
M  V30 1994 C 190.614 1.62437 5.0838 0
M  V30 1995 O 190.837 0.536905 5.67867 0
M  V30 1996 O 189.771 2.46677 5.4903 0
M  V30 1997 H 193.597 2.08844 2.20495 0
M  V30 1998 H 191.182 1.07409 1.03845 0
M  V30 1999 H 193.064 0.618344 4.16839 0
M  V30 2000 H 191.739 -0.128581 3.23445 0
M  V30 2001 H 190.646 2.18055 3.03978 0
M  V30 2002 H 191.979 2.85291 4.01086 0
M  V30 2003 N 193.631 -1.12557 1.10312 0
M  V30 2004 C 194.856 -1.88405 0.867085 0
M  V30 2005 C 195.281 -1.79038 -0.576817 0
M  V30 2006 O 194.639 -1.14439 -1.40618 0
M  V30 2007 C 194.687 -3.3563 1.31851 0
M  V30 2008 O 193.791 -4.09565 0.482734 0
M  V30 2009 H 193.132 -0.585455 0.313271 0
M  V30 2010 H 195.662 -1.42352 1.4696 0
M  V30 2011 H 195.672 -3.86469 1.3079 0
M  V30 2012 H 194.347 -3.41765 2.37001 0
M  V30 2013 H 192.924 -3.68695 0.558448 0
M  V30 2014 N 195.109 -0.891671 -1.2995 0
M  V30 2015 C 196.041 -0.320695 -2.26945 0
M  V30 2016 C 197.054 0.528497 -1.53983 0
M  V30 2017 O 198.243 0.346959 -1.75096 0
M  V30 2018 C 195.343 0.562066 -3.34207 0
M  V30 2019 C 194.516 -0.259576 -4.36629 0
M  V30 2020 C 193.575 0.554739 -5.23268 0
M  V30 2021 O 192.601 -0.0249311 -5.69195 0
M  V30 2022 N 193.803 1.8625 -5.4981 0
M  V30 2023 H 196.568 -1.15432 -2.76578 0
M  V30 2024 H 194.129 -0.755336 -1.432 0
M  V30 2025 H 196.121 1.11304 -3.89093 0
M  V30 2026 H 194.691 1.29637 -2.84452 0
M  V30 2027 H 193.911 -0.991986 -3.81514 0
M  V30 2028 H 195.199 -0.822564 -5.02107 0
M  V30 2029 H 194.597 2.35628 -5.14292 0
M  V30 2030 H 193.154 2.36078 -6.07545 0
M  V30 2031 N 196.587 1.43421 -0.653314 0
M  V30 2032 C 197.833 2.02641 -0.175593 0
M  V30 2033 C 198.188 1.5062 1.19713 0
M  V30 2034 O 197.481 0.689697 1.78756 0
M  V30 2035 C 197.675 3.57176 -0.126623 0
M  V30 2036 C 197.504 4.24191 -1.49306 0
M  V30 2037 C 196.274 4.60257 -2.08547 0
M  V30 2038 C 198.472 4.53193 -2.43148 0
M  V30 2039 N 196.454 5.12345 -3.38194 0
M  V30 2040 C 197.825 5.06601 -3.57429 0
M  V30 2041 C 199.88 4.35161 -2.41949 0
M  V30 2042 C 198.583 5.43875 -4.70736 0
M  V30 2043 C 200.609 4.73498 -3.54336 0
M  V30 2044 C 199.971 5.27039 -4.67343 0
M  V30 2045 H 196.07 0.77441 -0.108686 0
M  V30 2046 H 198.654 1.74596 -0.861638 0
M  V30 2047 H 196.825 3.84784 0.528766 0
M  V30 2048 H 198.557 4.03078 0.36198 0
M  V30 2049 H 195.312 4.45302 -1.61255 0
M  V30 2050 H 195.736 5.42842 -4.04538 0
M  V30 2051 H 200.378 3.9304 -1.55818 0
M  V30 2052 H 198.096 5.8494 -5.57558 0
M  V30 2053 H 201.682 4.61241 -3.5461 0
M  V30 2054 H 200.562 5.56153 -5.52868 0
M  V30 2055 N 198.065 0.39524 1.52563 0
M  V30 2056 C 199.342 -0.242908 1.94086 0
M  V30 2057 C 199.722 -1.63841 1.33114 0
M  V30 2058 O 199.07 -2.22928 0.501529 0
M  V30 2059 C 199.28 -0.26327 3.48006 0
M  V30 2060 C 200.628 -0.489354 4.21771 0
M  V30 2061 O 201.652 -0.343226 3.54543 0
M  V30 2062 O 200.511 -0.776169 5.4096 0
M  V30 2063 H 197.605 -0.152536 0.812811 0
M  V30 2064 H 200.151 0.450178 1.6362 0
M  V30 2065 H 198.923 0.713985 3.84731 0
M  V30 2066 H 198.546 -1.00103 3.84792 0
M  V30 2067 N 199.544 -1.57102 0.125237 0
M  V30 2068 C 200.474 -2.18659 -0.819174 0
M  V30 2069 C 201.455 -1.12843 -1.27281 0
M  V30 2070 O 202.64 -1.41104 -1.33429 0
M  V30 2071 C 199.77 -2.79096 -2.06695 0
M  V30 2072 C 198.724 -3.90548 -1.75088 0
M  V30 2073 C 198.05 -4.37821 -3.06948 0
M  V30 2074 C 199.35 -5.12356 -1.01435 0
M  V30 2075 H 201.044 -2.9783 -0.306202 0
M  V30 2076 H 198.59 -1.4326 -0.145839 0
M  V30 2077 H 200.543 -3.2082 -2.73226 0
M  V30 2078 H 199.267 -1.97223 -2.60328 0
M  V30 2079 H 197.926 -3.49409 -1.10944 0
M  V30 2080 H 197.574 -3.52799 -3.58527 0
M  V30 2081 H 197.274 -5.12982 -2.86571 0
M  V30 2082 H 198.798 -4.822 -3.74587 0
M  V30 2083 H 200.212 -5.5106 -1.58132 0
M  V30 2084 H 198.609 -5.9314 -0.911319 0
M  V30 2085 H 199.679 -4.849 -0.00218681 0
M  V30 2086 N 201.022 0.148545 -1.56898 0
M  V30 2087 C 202.268 0.862694 -1.83536 0
M  V30 2088 C 202.601 1.80889 -0.706604 0
M  V30 2089 O 201.876 1.92328 0.289885 0
M  V30 2090 C 202.159 1.63853 -3.20662 0
M  V30 2091 C 202.012 0.713925 -4.44098 0
M  V30 2092 C 203.331 2.60133 -3.54991 0
M  V30 2093 H 200.45 0.312179 -0.667618 0
M  V30 2094 H 203.092 0.127953 -1.89569 0
M  V30 2095 H 201.242 2.26489 -3.1565 0
M  V30 2096 H 202.914 0.098686 -4.61194 0
M  V30 2097 H 201.157 0.0234019 -4.33794 0
M  V30 2098 H 201.828 1.29278 -5.36648 0
M  V30 2099 H 204.304 2.07616 -3.60603 0
M  V30 2100 H 203.18 3.11468 -4.51972 0
M  V30 2101 H 203.441 3.41417 -2.80868 0
M  V30 2102 N 202.5 1.5196 0.417844 0
M  V30 2103 C 203.74 1.67262 1.17486 0
M  V30 2104 C 204.104 0.38983 1.88001 0
M  V30 2105 O 205.305 0.418845 2.65517 0
M  V30 2106 C 203.576 2.85526 2.14965 0
M  V30 2107 S 205.135 3.21263 2.98891 0
M  V30 2108 H 201.953 0.589077 0.398132 0
M  V30 2109 H 204.555 1.89927 0.463452 0
M  V30 2110 H 203.259 3.77145 1.61833 0
M  V30 2111 H 202.79 2.65107 2.90657 0
M  V30 2112 H 204.805 2.69208 4.16823 0
M  V30 2113 N 203.978 -0.674533 1.42435 0
M  V30 2114 C 204.888 -1.81751 1.48337 0
M  V30 2115 C 205.904 -1.69975 0.372099 0
M  V30 2116 O 207.08 -1.91521 0.62304 0
M  V30 2117 C 204.145 -3.17895 1.38361 0
M  V30 2118 C 203.206 -3.41625 2.59982 0
M  V30 2119 C 202.439 -4.71274 2.50473 0
M  V30 2120 O 202.662 -5.49197 1.54075 0
M  V30 2121 O 201.596 -4.96254 3.4061 0
M  V30 2122 H 205.422 -1.79728 2.44809 0
M  V30 2123 H 203.007 -0.830312 1.24202 0
M  V30 2124 H 204.889 -3.99136 1.35161 0
M  V30 2125 H 203.564 -3.20555 0.450144 0
M  V30 2126 H 202.471 -2.60231 2.68757 0
M  V30 2127 H 203.804 -3.43796 3.52229 0
M  V30 2128 N 205.456 -1.28612 -0.910864 0
M  V30 2129 C 206.388 -1.08589 -2.01844 0
M  V30 2130 C 207.401 -0.0367419 -1.62759 0
M  V30 2131 O 208.59 -0.280101 -1.76289 0
M  V30 2132 C 205.69 -0.628626 -3.33019 0
M  V30 2133 C 204.863 -1.75382 -4.00699 0
M  V30 2134 C 203.922 -1.28945 -5.10156 0
M  V30 2135 O 202.948 -1.9922 -5.33198 0
M  V30 2136 N 204.15 -0.154224 -5.80295 0
M  V30 2137 H 206.915 -2.03973 -2.19579 0
M  V30 2138 H 204.476 -1.20403 -1.08234 0
M  V30 2139 H 206.468 -0.301508 -4.03575 0
M  V30 2140 H 205.038 0.232451 -3.11735 0
M  V30 2141 H 204.258 -2.25039 -3.23653 0
M  V30 2142 H 205.546 -2.50854 -4.42662 0
M  V30 2143 H 204.944 0.43194 -5.64049 0
M  V30 2144 H 203.501 0.113599 -6.51701 0
M  V30 2145 N 206.934 1.1197 -1.10907 0
M  V30 2146 C 207.881 2.17846 -0.762345 0
M  V30 2147 C 208.851 1.63995 0.263599 0
M  V30 2148 O 210.036 1.90273 0.141773 0
M  V30 2149 C 207.176 3.44487 -0.205651 0
M  V30 2150 C 206.289 4.12369 -1.28748 0
M  V30 2151 C 205.424 5.26674 -0.691919 0
M  V30 2152 C 204.463 5.86431 -1.75399 0
M  V30 2153 N 203.6 6.92142 -1.17833 0
M  V30 2154 H 208.44 2.46851 -1.6694 0
M  V30 2155 H 205.977 1.21188 -0.833776 0
M  V30 2156 H 207.935 4.16981 0.135037 0
M  V30 2157 H 206.565 3.15884 0.664613 0
M  V30 2158 H 205.617 3.38003 -1.74522 0
M  V30 2159 H 206.929 4.52844 -2.09125 0
M  V30 2160 H 206.083 6.05953 -0.300963 0
M  V30 2161 H 204.822 4.8749 0.143232 0
M  V30 2162 H 203.827 5.05835 -2.15432 0
M  V30 2163 H 205.052 6.27685 -2.59208 0
M  V30 2164 H 202.998 6.54985 -0.364725 0
M  V30 2165 H 202.915 7.31242 -1.91887 0
M  V30 2166 H 204.183 7.75237 -0.81408 0
M  V30 2167 N 208.412 0.89855 1.29475 0
M  V30 2168 C 209.66 0.522847 1.9522 0
M  V30 2169 C 209.981 -0.93371 1.71192 0
M  V30 2170 O 209.251 -1.65823 1.04305 0
M  V30 2171 H 207.831 0.190366 0.722336 0
M  V30 2172 H 210.493 1.14459 1.5775 0
M  V30 2173 H 209.589 0.704476 3.04045 0
M  V30 2174 N 209.89 -1.43072 0.660911 0
M  V30 2175 C 210.82 -2.33497 -0.0122829 0
M  V30 2176 C 211.801 -1.49903 -0.803925 0
M  V30 2177 O 212.986 -1.78546 -0.763864 0
M  V30 2178 C 210.116 -3.33363 -0.973994 0
M  V30 2179 C 209.07 -4.27003 -0.291928 0
M  V30 2180 C 208.396 -5.16967 -1.36562 0
M  V30 2181 C 209.696 -5.15816 0.820462 0
M  V30 2182 H 211.39 -2.90038 0.742873 0
M  V30 2183 H 208.936 -1.39461 0.358688 0
M  V30 2184 H 210.889 -3.95524 -1.45392 0
M  V30 2185 H 209.613 -2.75095 -1.7604 0
M  V30 2186 H 208.272 -3.66217 0.167623 0
M  V30 2187 H 207.92 -4.55034 -2.14366 0
M  V30 2188 H 207.62 -5.80441 -0.914454 0
M  V30 2189 H 209.144 -5.82003 -1.84675 0
M  V30 2190 H 210.558 -5.71742 0.422366 0
M  V30 2191 H 208.955 -5.8805 1.19656 0
M  V30 2192 H 210.025 -4.55045 1.67518 0
M  V30 2193 N 211.368 -0.403325 -1.52352 0
M  V30 2194 C 212.316 0.439752 -2.28405 0
M  V30 2195 C 213.31 1.05089 -1.32863 0
M  V30 2196 O 214.516 0.989759 -1.50345 0
M  V30 2197 H 210.891 0.160587 -0.734653 0
M  V30 2198 H 212.862 -0.222983 -2.97566 0
M  V30 2199 C 211.611 1.54736 -3.11371 0
M  V30 2200 H 210.934 1.08643 -3.84755 0
M  V30 2201 H 212.374 2.1112 -3.67701 0
M  V30 2202 C 210.833 2.51141 -2.24566 0
M  V30 2203 O 211.363 3.54887 -1.88196 0
M  V30 2204 N 209.569 2.21213 -1.8845 0
M  V30 2205 H 209.116 1.36878 -2.18225 0
M  V30 2206 H 209.074 2.85963 -1.30662 0
M  V30 2207 N 212.846 1.57033 -0.133567 0
M  V30 2208 C 214.262 1.58035 0.222944 0
M  V30 2209 C 214.462 1.14713 1.6566 0
M  V30 2210 O 213.518 0.841218 2.38075 0
M  V30 2211 C 214.831 3.00691 -0.0236116 0
M  V30 2212 C 216.379 3.12973 0.0411512 0
M  V30 2213 C 216.854 4.57654 -0.177899 0
M  V30 2214 N 218.345 4.63033 -0.124365 0
M  V30 2215 C 219.08 5.72771 -0.268553 0
M  V30 2216 N 218.576 6.91206 -0.46972 0
M  V30 2217 N 220.369 5.61718 -0.2071 0
M  V30 2218 H 212.52 1.8349 -1.06981 0
M  V30 2219 H 214.783 0.848677 -0.422436 0
M  V30 2220 H 214.489 3.36726 -1.0153 0
M  V30 2221 H 214.363 3.70614 0.701808 0
M  V30 2222 H 216.75 2.76787 1.02338 0
M  V30 2223 H 216.831 2.45564 -0.716383 0
M  V30 2224 H 216.475 4.94542 -1.15717 0
M  V30 2225 H 216.405 5.23173 0.599797 0
M  V30 2226 H 218.896 3.7789 0.027011 0
M  V30 2227 H 219.209 7.70693 -0.570212 0
M  V30 2228 H 217.554 6.93156 -0.505876 0
M  V30 2229 H 220.745 4.68072 -0.0507986 0
M  V30 2230 H 220.918 6.47195 -0.322909 0
M  V30 2231 N 214.325 -0.140222 1.56975 0
M  V30 2232 C 215.288 -1.15689 1.97861 0
M  V30 2233 C 216.288 -1.3549 0.865974 0
M  V30 2234 O 217.478 -1.32367 1.13246 0
M  V30 2235 C 214.61 -2.51582 2.30042 0
M  V30 2236 H 215.803 -0.805971 2.88867 0
M  V30 2237 H 213.356 -0.383801 1.51515 0
M  V30 2238 H 214.091 -2.91632 1.41849 0
M  V30 2239 H 213.876 -2.38569 3.11171 0
M  V30 2240 H 215.366 -3.24792 2.62488 0
M  V30 2241 N 215.803 -1.52179 -0.40978 0
M  V30 2242 C 216.766 -1.74853 -1.48186 0
M  V30 2243 C 217.766 -0.618417 -1.48433 0
M  V30 2244 O 218.956 -0.886286 -1.49969 0
M  V30 2245 C 216.088 -1.8303 -2.87598 0
M  V30 2246 H 217.281 -2.70559 -1.29374 0
M  V30 2247 H 214.834 -1.42586 -0.640233 0
M  V30 2248 H 215.569 -0.89236 -3.11781 0
M  V30 2249 H 215.354 -2.65187 -2.88822 0
M  V30 2250 H 216.844 -2.02316 -3.65319 0
M  V30 2251 N 217.281 0.66697 -1.42791 0
M  V30 2252 C 218.506 1.46004 -1.47301 0
M  V30 2253 C 218.931 1.87894 -0.0880317 0
M  V30 2254 O 218.289 1.56502 0.915253 0
M  V30 2255 C 218.337 2.68031 -2.41229 0
M  V30 2256 O 217.441 3.6659 -1.88906 0
M  V30 2257 H 216.782 0.43832 -0.49877 0
M  V30 2258 H 219.312 0.817391 -1.87563 0
M  V30 2259 H 219.322 3.1601 -2.58073 0
M  V30 2260 H 217.997 2.36883 -3.41847 0
M  V30 2261 H 216.574 3.25661 -1.81656 0
M  V30 2262 N 218.759 1.29093 0.90403 0
M  V30 2263 C 219.987 1.19689 1.68766 0
M  V30 2264 C 220.402 -0.243113 1.87228 0
M  V30 2265 O 219.759 -1.16326 1.40621 0
M  V30 2266 C 219.81 1.90144 3.07453 0
M  V30 2267 O 219.531 3.2852 2.89838 0
M  V30 2268 C 221.032 1.87162 4.01852 0
M  V30 2269 H 218.252 0.415035 0.527244 0
M  V30 2270 H 220.796 1.7039 1.13082 0
M  V30 2271 H 218.951 1.43289 3.59926 0
M  V30 2272 H 219.365 3.63944 3.77684 0
M  V30 2273 H 220.839 2.41032 4.96596 0
M  V30 2274 H 221.316 0.84617 4.30972 0
M  V30 2275 H 221.922 2.33741 3.5531 0
M  V30 2276 N 220.237 -1.11381 1.11499 0
M  V30 2277 C 221.484 -1.83132 0.864231 0
M  V30 2278 C 221.812 -1.84683 -0.610114 0
M  V30 2279 O 221.067 -1.29589 -1.46646 0
M  V30 2280 C 221.366 -3.30026 1.37177 0
M  V30 2281 C 221.032 -3.48634 2.85946 0
M  V30 2282 C 219.694 -3.53421 3.26569 0
M  V30 2283 C 222.046 -3.54837 3.81759 0
M  V30 2284 C 219.374 -3.61967 4.61733 0
M  V30 2285 C 221.726 -3.64915 5.1674 0
M  V30 2286 C 220.39 -3.67962 5.5692 0
M  V30 2287 H 219.66 -0.670127 0.316245 0
M  V30 2288 H 222.307 -1.31354 1.3935 0
M  V30 2289 H 220.612 -3.84304 0.762753 0
M  V30 2290 H 222.309 -3.84034 1.15408 0
M  V30 2291 H 218.899 -3.45579 2.53521 0
M  V30 2292 H 223.083 -3.50399 3.51474 0
M  V30 2293 H 218.339 -3.62603 4.92269 0
M  V30 2294 H 222.513 -3.68658 5.90816 0
M  V30 2295 H 220.14 -3.74336 6.61647 0
M  V30 2296 N 221.715 -0.905404 -1.28997 0
M  V30 2297 C 222.962 -0.534248 -1.95325 0
M  V30 2298 C 223.29 0.920535 -1.71337 0
M  V30 2299 O 222.545 1.66861 -1.02254 0
M  V30 2300 C 222.844 -0.779906 -3.48787 0
M  V30 2301 C 222.51 -2.21293 -3.92861 0
M  V30 2302 C 221.172 -2.60475 -4.04606 0
M  V30 2303 C 223.524 -3.14587 -4.15553 0
M  V30 2304 C 220.852 -3.9212 -4.36416 0
M  V30 2305 C 223.204 -4.45787 -4.48839 0
M  V30 2306 C 221.868 -4.84834 -4.58794 0
M  V30 2307 H 221.138 -0.195495 -0.714747 0
M  V30 2308 H 223.785 -1.14514 -1.53488 0
M  V30 2309 H 222.09 -0.0861365 -3.91705 0
M  V30 2310 H 223.787 -0.472029 -3.98212 0
M  V30 2311 H 220.377 -1.89887 -3.84241 0
M  V30 2312 H 224.561 -2.85528 -4.0594 0
M  V30 2313 H 219.817 -4.22086 -4.42327 0
M  V30 2314 H 223.991 -5.18098 -4.65346 0
M  V30 2315 H 221.618 -5.86877 -4.83197 0
M  V30 2316 N 223.193 1.4272 -0.668489 0
M  V30 2317 C 224.44 2.01624 -0.18814 0
M  V30 2318 C 224.768 1.5282 1.20317 0
M  V30 2319 O 224.023 0.718323 1.8204 0
M  V30 2320 C 224.322 3.57021 -0.164499 0
M  V30 2321 C 223.988 4.25232 -1.49962 0
M  V30 2322 C 222.65 4.4358 -1.8652 0
M  V30 2323 C 225.002 4.63727 -2.37921 0
M  V30 2324 C 222.33 4.97694 -3.10674 0
M  V30 2325 C 224.682 5.19218 -3.6138 0
M  V30 2326 C 223.346 5.3578 -3.98115 0
M  V30 2327 H 222.616 0.737795 -0.0688454 0
M  V30 2328 H 225.263 1.70991 -0.862225 0
M  V30 2329 H 223.568 3.87285 0.593079 0
M  V30 2330 H 225.265 4.00372 0.224271 0
M  V30 2331 H 221.855 4.11306 -1.20522 0
M  V30 2332 H 226.039 4.4923 -2.10964 0
M  V30 2333 H 221.295 5.08702 -3.39164 0
M  V30 2334 H 225.469 5.4799 -4.29743 0
M  V30 2335 H 223.096 5.77475 -4.94395 0
M  V30 2336 N 224.671 0.411399 1.52136 0
M  V30 2337 C 225.634 -0.401089 2.25663 0
M  V30 2338 C 226.634 -0.971732 1.28117 0
M  V30 2339 O 227.824 -0.850254 1.52041 0
M  V30 2340 C 224.956 -1.56483 3.02863 0
M  V30 2341 H 226.149 0.24295 2.98914 0
M  V30 2342 H 223.702 0.163968 1.55438 0
M  V30 2343 H 224.437 -2.24567 2.33967 0
M  V30 2344 H 224.222 -1.16211 3.74483 0
M  V30 2345 H 225.712 -2.13951 3.58629 0
M  V30 2346 N 226.149 -1.5696 0.141893 0
M  V30 2347 C 227.397 -1.95573 -0.509484 0
M  V30 2348 C 227.718 -1.02746 -1.65736 0
M  V30 2349 O 226.988 -0.0880311 -1.95702 0
M  V30 2350 H 225.568 -0.722115 -0.191205 0
M  V30 2351 H 228.23 -1.93697 0.216196 0
M  V30 2352 H 227.326 -2.99171 -0.889 0
M  V30 2353 N 227.627 0.131896 -1.57047 0
M  V30 2354 C 228.873 0.843179 -1.84441 0
M  V30 2355 C 229.206 1.80129 -0.725749 0
M  V30 2356 O 228.481 1.92624 0.269469 0
M  V30 2357 C 228.764 1.60442 -3.22382 0
M  V30 2358 C 228.617 0.666782 -4.4483 0
M  V30 2359 C 229.936 2.56354 -3.5773 0
M  V30 2360 H 227.055 0.305081 -0.670891 0
M  V30 2361 H 229.697 0.107839 -1.89694 0
M  V30 2362 H 227.847 2.23128 -3.18035 0
M  V30 2363 H 229.519 0.0497646 -4.61273 0
M  V30 2364 H 227.762 -0.022609 -4.33794 0
M  V30 2365 H 228.433 1.23579 -5.37989 0
M  V30 2366 H 230.909 2.0378 -3.62785 0
M  V30 2367 H 229.785 3.06657 -4.5525 0
M  V30 2368 H 230.046 3.38419 -2.84473 0
M  V30 2369 N 229.106 1.52395 0.401703 0
M  V30 2370 C 230.036 1.79231 1.49661 0
M  V30 2371 C 231.017 0.643654 1.57452 0
M  V30 2372 O 232.202 0.889989 1.72606 0
M  V30 2373 C 229.332 1.94971 2.87409 0
M  V30 2374 C 228.286 3.10604 2.94465 0
M  V30 2375 C 227.612 3.11577 4.34538 0
M  V30 2376 C 228.912 4.49921 2.6527 0
M  V30 2377 H 230.606 2.70917 1.27454 0
M  V30 2378 H 228.152 1.30362 0.6117 0
M  V30 2379 H 230.105 2.12328 3.63999 0
M  V30 2380 H 228.829 0.999632 3.10926 0
M  V30 2381 H 227.488 2.93009 2.20321 0
M  V30 2382 H 227.136 2.14277 4.55076 0
M  V30 2383 H 226.836 3.89247 4.40183 0
M  V30 2384 H 228.36 3.31073 5.13053 0
M  V30 2385 H 229.774 4.67683 3.31581 0
M  V30 2386 H 228.171 5.29564 2.82281 0
M  V30 2387 H 229.241 4.57507 1.60671 0
M  V30 2388 N 230.584 -0.659388 1.43143 0
M  V30 2389 C 231.83 -1.42145 1.44647 0
M  V30 2390 C 232.163 -1.9408 0.0681907 0
M  V30 2391 O 231.438 -1.71899 -0.910007 0
M  V30 2392 C 231.721 -2.60735 2.48373 0
M  V30 2393 C 231.574 -2.14332 3.95451 0
M  V30 2394 C 232.893 -3.62951 2.48906 0
M  V30 2395 H 230.012 -0.51552 0.526696 0
M  V30 2396 H 232.654 -0.748069 1.74654 0
M  V30 2397 H 230.804 -3.18184 2.22916 0
M  V30 2398 H 232.476 -1.61932 4.31944 0
M  V30 2399 H 230.719 -1.4576 4.08578 0
M  V30 2400 H 231.39 -2.99583 4.63631 0
M  V30 2401 H 233.866 -3.1525 2.71582 0
M  V30 2402 H 232.742 -4.43487 3.23435 0
M  V30 2403 H 233.003 -4.15126 1.52061 0
M  V30 2404 N 232.062 -1.29571 -0.897171 0
M  V30 2405 C 233.31 -1.17456 -1.64464 0
M  V30 2406 C 233.631 0.273698 -1.9307 0
M  V30 2407 O 232.901 1.18684 -1.55855 0
M  V30 2408 H 231.481 -0.431706 -0.609622 0
M  V30 2409 H 234.143 -1.62531 -1.07562 0
M  V30 2410 H 233.239 -1.72648 -2.59998 0
M  V30 2411 N 233.54 1.10788 -1.12088 0
M  V30 2412 C 234.503 2.15207 -0.788577 0
M  V30 2413 C 235.503 1.59609 0.195317 0
M  V30 2414 O 236.693 1.74174 -0.0300193 0
M  V30 2415 C 233.825 3.4047 -0.171174 0
M  V30 2416 H 235.018 2.46116 -1.71368 0
M  V30 2417 H 232.571 1.26089 -0.923652 0
M  V30 2418 H 233.306 3.15176 0.763832 0
M  V30 2419 H 233.091 3.82109 -0.879514 0
M  V30 2420 H 234.581 4.17576 0.04496 0
M  V30 2421 N 235.018 0.912232 1.28515 0
M  V30 2422 C 236.264 0.545405 1.95328 0
M  V30 2423 C 236.597 -0.908313 1.71649 0
M  V30 2424 O 235.872 -1.64575 1.03659 0
M  V30 2425 C 236.155 0.853483 3.4984 0
M  V30 2426 C 236.008 2.35982 3.82926 0
M  V30 2427 C 237.327 0.348589 4.38717 0
M  V30 2428 H 234.446 0.199626 0.709449 0
M  V30 2429 H 237.088 1.1412 1.5191 0
M  V30 2430 H 235.238 0.34643 3.86952 0
M  V30 2431 H 236.91 2.93738 3.55691 0
M  V30 2432 H 235.153 2.81543 3.30024 0
M  V30 2433 H 235.824 2.52593 4.90816 0
M  V30 2434 H 238.3 0.78294 4.08668 0
M  V30 2435 H 237.176 0.593242 5.45685 0
M  V30 2436 H 237.437 -0.751049 4.35674 0
M  V30 2437 N 236.496 -1.42363 0.676048 0
M  V30 2438 C 237.459 -2.29199 0.00766941 0
M  V30 2439 C 238.459 -1.43389 -0.727745 0
M  V30 2440 O 239.649 -1.64764 -0.56556 0
M  V30 2441 C 236.781 -3.2591 -0.999785 0
M  V30 2442 H 237.974 -2.89794 0.771988 0
M  V30 2443 H 235.527 -1.50024 0.438468 0
M  V30 2444 H 236.262 -2.70256 -1.79255 0
M  V30 2445 H 236.047 -3.89202 -0.475829 0
M  V30 2446 H 237.537 -3.91028 -1.46583 0
M  V30 2447 N 237.974 -0.419461 -1.51915 0
M  V30 2448 C 239.221 0.152939 -2.01922 0
M  V30 2449 C 239.549 1.4426 -1.30458 0
M  V30 2450 O 238.804 1.91514 -0.402593 0
M  V30 2451 C 239.103 0.437067 -3.54717 0
M  V30 2452 C 238.769 -0.764632 -4.44369 0
M  V30 2453 C 237.431 -1.09423 -4.68594 0
M  V30 2454 C 239.783 -1.56713 -4.97082 0
M  V30 2455 C 237.111 -2.22732 -5.42777 0
M  V30 2456 C 239.463 -2.69107 -5.72507 0
M  V30 2457 C 238.127 -3.02541 -5.95 0
M  V30 2458 H 237.397 0.0559644 -0.738884 0
M  V30 2459 H 240.044 -0.562998 -1.83037 0
M  V30 2460 H 238.349 1.23469 -3.71837 0
M  V30 2461 H 240.046 0.893083 -3.90928 0
M  V30 2462 H 236.636 -0.497775 -4.257 0
M  V30 2463 H 240.82 -1.32571 -4.78266 0
M  V30 2464 H 236.076 -2.48971 -5.58411 0
M  V30 2465 H 240.25 -3.31671 -6.12346 0
M  V30 2466 H 237.877 -3.90457 -6.52264 0
M  V30 2467 N 239.452 1.56882 -0.150215 0
M  V30 2468 C 240.7 1.9584 0.499105 0
M  V30 2469 C 241.021 1.03623 1.65188 0
M  V30 2470 O 240.291 0.0984084 1.95653 0
M  V30 2471 H 238.871 0.723119 0.187373 0
M  V30 2472 H 241.533 1.9358 -0.226466 0
M  V30 2473 H 240.629 2.99638 0.873122 0
M  V30 2474 N 240.93 -0.123565 1.57115 0
M  V30 2475 C 242.16 -0.845233 1.88519 0
M  V30 2476 C 242.568 -1.74168 0.739064 0
M  V30 2477 O 241.911 -1.81244 -0.299355 0
M  V30 2478 C 241.973 -1.73452 3.14888 0
M  V30 2479 C 241.637 -1.01285 4.45635 0
M  V30 2480 C 242.634 -0.355774 5.18681 0
M  V30 2481 C 240.319 -0.99538 4.92339 0
M  V30 2482 C 242.313 0.309114 6.3665 0
M  V30 2483 C 240 -0.32669 6.10226 0
M  V30 2484 C 240.998 0.324406 6.82229 0
M  V30 2485 O 240.686 0.982437 7.97874 0
M  V30 2486 H 240.418 -0.248534 0.628655 0
M  V30 2487 H 242.972 -0.113907 2.05084 0
M  V30 2488 H 241.202 -2.50737 2.94394 0
M  V30 2489 H 242.891 -2.33021 3.32349 0
M  V30 2490 H 243.657 -0.360918 4.83655 0
M  V30 2491 H 239.536 -1.49159 4.36202 0
M  V30 2492 H 243.08 0.8179 6.92789 0
M  V30 2493 H 238.977 -0.319294 6.4471 0
M  V30 2494 H 239.745 0.886454 8.13686 0
M  V30 2495 N 242.408 -1.52605 -0.393616 0
M  V30 2496 C 243.338 -1.80022 -1.48709 0
M  V30 2497 C 244.319 -0.651995 -1.57108 0
M  V30 2498 O 245.504 -0.89913 -1.72132 0
M  V30 2499 C 242.634 -1.96492 -2.86371 0
M  V30 2500 C 241.588 -3.12161 -2.92813 0
M  V30 2501 C 240.914 -3.13877 -4.3288 0
M  V30 2502 C 242.214 -4.51322 -2.6288 0
M  V30 2503 H 243.908 -2.71589 -1.26015 0
M  V30 2504 H 241.454 -1.30684 -0.604778 0
M  V30 2505 H 243.407 -2.14255 -3.62867 0
M  V30 2506 H 242.131 -1.01611 -3.10391 0
M  V30 2507 H 240.79 -2.94173 -2.18764 0
M  V30 2508 H 240.438 -2.16687 -4.53933 0
M  V30 2509 H 240.138 -3.91576 -4.38112 0
M  V30 2510 H 241.662 -3.33789 -5.1129 0
M  V30 2511 H 243.076 -4.69435 -3.29096 0
M  V30 2512 H 241.473 -5.31053 -2.79468 0
M  V30 2513 H 242.543 -4.58353 -1.58242 0
M  V30 2514 N 243.887 0.651787 -1.4349 0
M  V30 2515 C 245.112 1.44434 -1.48841 0
M  V30 2516 C 245.537 1.8779 -0.107955 0
M  V30 2517 O 244.895 1.57464 0.898602 0
M  V30 2518 C 244.943 2.65458 -2.44059 0
M  V30 2519 O 244.047 3.64566 -1.92784 0
M  V30 2520 H 243.388 0.433005 -0.503391 0
M  V30 2521 H 245.918 0.797451 -1.88419 0
M  V30 2522 H 245.928 3.13255 -2.6141 0
M  V30 2523 H 244.603 2.33244 -3.4434 0
M  V30 2524 H 243.18 3.23716 -1.851 0
M  V30 2525 N 245.365 1.30045 0.890287 0
M  V30 2526 C 246.642 1.09227 1.62262 0
M  V30 2527 C 247.022 -0.360305 2.08002 0
M  V30 2528 O 246.37 -1.35084 1.84295 0
M  V30 2529 C 246.58 2.08835 2.79623 0
M  V30 2530 C 247.928 2.40266 3.50082 0
M  V30 2531 O 248.952 2.07104 2.89804 0
M  V30 2532 O 247.811 2.96967 4.58773 0
M  V30 2533 H 244.905 0.419132 0.712922 0
M  V30 2534 H 247.451 1.41451 0.937529 0
M  V30 2535 H 246.223 3.06633 2.43089 0
M  V30 2536 H 245.846 1.77397 3.55832 0
M  V30 2537 N 246.843 -1.10192 1.12674 0
M  V30 2538 C 248.259 -1.34235 0.863317 0
M  V30 2539 C 248.459 -1.95062 -0.505277 0
M  V30 2540 O 247.515 -2.19192 -1.25345 0
M  V30 2541 C 248.828 -2.2616 1.98172 0
M  V30 2542 C 250.376 -2.3969 2.0129 0
M  V30 2543 C 250.851 -3.34946 3.1237 0
M  V30 2544 N 252.342 -3.42515 3.11829 0
M  V30 2545 C 253.077 -4.16199 3.94419 0
M  V30 2546 N 252.573 -4.92747 4.87004 0
M  V30 2547 N 254.366 -4.11843 3.82547 0
M  V30 2548 H 246.517 -0.690798 2.00853 0
M  V30 2549 H 248.78 -0.366774 0.874174 0
M  V30 2550 H 248.486 -1.8868 2.96804 0
M  V30 2551 H 248.36 -3.26488 1.88906 0
M  V30 2552 H 250.747 -2.76438 1.03276 0
M  V30 2553 H 250.828 -1.39169 2.14629 0
M  V30 2554 H 250.472 -2.98923 4.10619 0
M  V30 2555 H 250.402 -4.35353 2.96269 0
M  V30 2556 H 252.893 -2.87926 2.44759 0
M  V30 2557 H 253.206 -5.46376 5.46528 0
M  V30 2558 H 251.551 -4.91862 4.91016 0
M  V30 2559 H 254.742 -3.51136 3.0955 0
M  V30 2560 H 254.915 -4.69007 4.47142 0
M  V30 2561 N 248.321 -0.919034 -1.28029 0
M  V30 2562 C 249.568 -0.554934 -1.94748 0
M  V30 2563 C 249.896 0.90231 -1.72304 0
M  V30 2564 O 249.151 1.65767 -1.04018 0
M  V30 2565 C 249.45 -0.816855 -3.4794 0
M  V30 2566 C 249.116 -2.25448 -3.90492 0
M  V30 2567 C 247.778 -2.64752 -4.01821 0
M  V30 2568 C 250.13 -3.18977 -4.12193 0
M  V30 2569 C 247.458 -3.96727 -4.32232 0
M  V30 2570 C 249.81 -4.50523 -4.44086 0
M  V30 2571 C 248.474 -4.89673 -4.53626 0
M  V30 2572 H 247.744 -0.203065 -0.712633 0
M  V30 2573 H 250.391 -1.16136 -1.52265 0
M  V30 2574 H 248.696 -0.127677 -3.91592 0
M  V30 2575 H 250.393 -0.514238 -3.97689 0
M  V30 2576 H 246.983 -1.93952 -3.82205 0
M  V30 2577 H 251.167 -2.89817 -4.02889 0
M  V30 2578 H 246.423 -4.26754 -4.37825 0
M  V30 2579 H 250.597 -5.23005 -4.59825 0
M  V30 2580 H 248.224 -5.91969 -4.76946 0
M  V30 2581 N 249.799 1.42003 -0.683588 0
M  V30 2582 C 251.047 2.01015 -0.209101 0
M  V30 2583 C 251.368 1.54365 1.19149 0
M  V30 2584 O 250.638 0.769083 1.80172 0
M  V30 2585 H 249.218 0.743294 -0.074315 0
M  V30 2586 H 251.88 1.73798 -0.882066 0
M  V30 2587 H 250.976 3.11343 -0.2172 0
M  V30 2588 N 251.277 0.427512 1.51691 0
M  V30 2589 C 252.693 0.0792977 1.59403 0
M  V30 2590 C 252.893 -1.41035 1.43914 0
M  V30 2591 O 251.949 -2.17922 1.27539 0
M  V30 2592 C 253.262 0.590636 2.94842 0
M  V30 2593 C 254.81 0.550215 3.08126 0
M  V30 2594 C 255.285 1.03836 4.46074 0
M  V30 2595 N 256.776 0.995943 4.52366 0
M  V30 2596 C 257.511 1.34463 5.57411 0
M  V30 2597 N 257.007 1.76569 6.69922 0
M  V30 2598 N 258.8 1.26343 5.47717 0
M  V30 2599 H 250.951 1.39687 1.60004 0
M  V30 2600 H 253.214 0.575003 0.753708 0
M  V30 2601 H 252.92 1.63251 3.11516 0
M  V30 2602 H 252.794 0.0102061 3.77199 0
M  V30 2603 H 255.181 -0.482654 2.91126 0
M  V30 2604 H 255.262 1.16693 2.27632 0
M  V30 2605 H 254.906 2.06965 4.63819 0
M  V30 2606 H 254.836 0.398286 5.25092 0
M  V30 2607 H 257.327 0.68661 3.7161 0
M  V30 2608 H 257.64 2.01438 7.46085 0
M  V30 2609 H 255.985 1.80488 6.71155 0
M  V30 2610 H 259.176 0.933209 4.58703 0
M  V30 2611 H 259.349 1.53846 6.29472 0
M  V30 2612 N 252.755 -1.56801 0.158532 0
M  V30 2613 C 254.171 -1.5837 -0.197774 0
M  V30 2614 C 254.371 -1.17334 -1.63814 0
M  V30 2615 O 253.427 -0.878988 -2.36707 0
M  V30 2616 C 254.74 -3.00615 0.0714459 0
M  V30 2617 C 256.288 -3.12999 0.00864533 0
M  V30 2618 C 256.763 -4.57313 0.250685 0
M  V30 2619 N 258.254 -4.62777 0.198014 0
M  V30 2620 C 258.989 -5.72271 0.359642 0
M  V30 2621 N 258.485 -6.90371 0.579625 0
M  V30 2622 N 260.278 -5.61318 0.296438 0
M  V30 2623 H 252.429 -1.81765 1.09887 0
M  V30 2624 H 254.692 -0.841849 0.435884 0
M  V30 2625 H 254.398 -3.35068 1.06874 0
M  V30 2626 H 254.272 -3.71683 -0.642757 0
M  V30 2627 H 256.659 -2.7838 -0.979217 0
M  V30 2628 H 256.74 -2.44393 0.755359 0
M  V30 2629 H 256.384 -4.92639 1.2357 0
M  V30 2630 H 256.314 -5.24061 -0.516489 0
M  V30 2631 H 258.805 -3.77885 0.0331115 0
M  V30 2632 H 259.118 -7.69689 0.69275 0
M  V30 2633 H 257.463 -6.92264 0.616087 0
M  V30 2634 H 260.654 -4.67932 0.125258 0
M  V30 2635 H 260.827 -6.46599 0.425831 0
M  V30 2636 N 254.233 0.115231 -1.57178 0
M  V30 2637 C 255.649 0.468877 -1.52557 0
M  V30 2638 C 255.849 1.81649 -0.872125 0
M  V30 2639 O 254.905 2.48347 -0.45606 0
M  V30 2640 C 256.218 0.4499 -2.97315 0
M  V30 2641 C 257.766 0.533185 -3.08425 0
M  V30 2642 C 258.241 0.54456 -4.54751 0
M  V30 2643 N 259.732 0.605892 -4.5922 0
M  V30 2644 C 260.467 0.636203 -5.6986 0
M  V30 2645 N 259.963 0.623931 -6.89985 0
M  V30 2646 N 261.756 0.679496 -5.57978 0
M  V30 2647 H 253.907 -0.767712 -1.9804 0
M  V30 2648 H 256.17 -0.283609 -0.904583 0
M  V30 2649 H 255.876 -0.472721 -3.48509 0
M  V30 2650 H 255.75 1.27632 -3.5495 0
M  V30 2651 H 258.137 1.44623 -2.57232 0
M  V30 2652 H 258.218 -0.320995 -2.53778 0
M  V30 2653 H 257.862 -0.364452 -5.06591 0
M  V30 2654 H 257.792 1.41568 -5.07214 0
M  V30 2655 H 260.283 0.621386 -3.72756 0
M  V30 2656 H 260.596 0.649787 -7.70063 0
M  V30 2657 H 258.941 0.591296 -6.9248 0
M  V30 2658 H 262.132 0.686472 -4.63039 0
M  V30 2659 H 262.305 0.69965 -6.44212 0
M  V30 2660 N 255.711 1.52812 0.385517 0
M  V30 2661 C 256.641 1.80808 1.47752 0
M  V30 2662 C 257.622 0.660318 1.5676 0
M  V30 2663 O 258.807 0.908246 1.71652 0
M  V30 2664 C 255.937 1.98008 2.85324 0
M  V30 2665 C 254.891 3.13709 2.91154 0
M  V30 2666 C 254.217 3.16169 4.31209 0
M  V30 2667 C 255.517 4.52709 2.60483 0
M  V30 2668 H 257.211 2.72253 1.24573 0
M  V30 2669 H 254.757 1.31003 0.597839 0
M  V30 2670 H 256.71 2.16176 3.61726 0
M  V30 2671 H 255.434 1.03255 3.09848 0
M  V30 2672 H 254.093 2.95329 2.17201 0
M  V30 2673 H 253.741 2.19092 4.52778 0
M  V30 2674 H 253.441 3.93894 4.36029 0
M  V30 2675 H 254.965 3.36496 5.09512 0
M  V30 2676 H 256.379 4.71173 3.26602 0
M  V30 2677 H 254.776 5.32528 2.76648 0
M  V30 2678 H 255.846 4.59186 1.55809 0
M  V30 2679 N 257.189 -0.644168 1.43834 0
M  V30 2680 C 258.119 -1.76814 1.52509 0
M  V30 2681 C 259.1 -1.65823 0.379052 0
M  V30 2682 O 260.285 -1.84781 0.597466 0
M  V30 2683 C 257.415 -3.15288 1.4564 0
M  V30 2684 C 256.369 -3.41053 2.58586 0
M  V30 2685 C 255.695 -4.79421 2.36769 0
M  V30 2686 C 256.995 -3.34902 4.00797 0
M  V30 2687 H 258.689 -1.69812 2.46586 0
M  V30 2688 H 256.235 -0.815542 1.1868 0
M  V30 2689 H 258.188 -3.93681 1.50311 0
M  V30 2690 H 256.912 -3.23043 0.480725 0
M  V30 2691 H 255.571 -2.65035 2.53282 0
M  V30 2692 H 255.219 -4.83863 1.37424 0
M  V30 2693 H 254.919 -4.9762 3.12487 0
M  V30 2694 H 256.443 -5.6006 2.43238 0
M  V30 2695 H 257.857 -4.03218 4.07539 0
M  V30 2696 H 256.254 -3.64637 4.76613 0
M  V30 2697 H 257.324 -2.32928 4.25291 0
M  V30 2698 N 258.668 -1.30515 -0.883378 0
M  V30 2699 C 259.598 -1.19607 -2.00541 0
M  V30 2700 C 260.579 -0.086346 -1.69881 0
M  V30 2701 O 261.764 -0.268654 -1.92333 0
M  V30 2702 C 258.894 -0.888758 -3.35736 0
M  V30 2703 C 257.848 -1.95659 -3.8066 0
M  V30 2704 C 257.174 -1.50224 -5.13164 0
M  V30 2705 C 258.474 -3.36788 -3.99213 0
M  V30 2706 H 260.168 -2.13476 -2.09925 0
M  V30 2707 H 257.714 -1.02775 -1.00863 0
M  V30 2708 H 259.667 -0.799094 -4.13754 0
M  V30 2709 H 258.391 0.0856125 -3.26488 0
M  V30 2710 H 257.05 -2.03591 -3.04871 0
M  V30 2711 H 256.698 -0.516092 -5.00345 0
M  V30 2712 H 256.398 -2.2165 -5.44192 0
M  V30 2713 H 257.922 -1.42639 -5.93706 0
M  V30 2714 H 259.336 -3.31605 -4.67665 0
M  V30 2715 H 257.733 -4.06314 -4.41621 0
M  V30 2716 H 258.803 -3.78561 -3.03017 0
M  V30 2717 N 260.146 1.09593 -1.13257 0
M  V30 2718 C 261.392 1.82003 -0.89458 0
M  V30 2719 C 261.725 1.85402 0.577906 0
M  V30 2720 O 261 1.32099 1.42759 0
M  V30 2721 C 261.283 3.28237 -1.48096 0
M  V30 2722 C 261.136 3.3312 -3.02244 0
M  V30 2723 C 262.455 4.24871 -1.14774 0
M  V30 2724 H 259.574 0.66077 -0.326424 0
M  V30 2725 H 262.216 1.28389 -1.40058 0
M  V30 2726 H 260.366 3.74024 -1.05062 0
M  V30 2727 H 262.038 2.95748 -3.54021 0
M  V30 2728 H 260.281 2.72756 -3.37323 0
M  V30 2729 H 260.952 4.3613 -3.38371 0
M  V30 2730 H 263.428 3.87361 -1.51957 0
M  V30 2731 H 262.304 5.25532 -1.58452 0
M  V30 2732 H 262.565 4.42058 -0.0611849 0
M  V30 2733 N 261.624 0.925811 1.2754 0
M  V30 2734 C 262.587 0.428129 2.25166 0
M  V30 2735 C 263.587 -0.452261 1.54309 0
M  V30 2736 O 264.777 -0.253608 1.72344 0
M  V30 2737 C 261.909 -0.384749 3.38722 0
M  V30 2738 H 263.102 1.29066 2.70706 0
M  V30 2739 H 260.655 0.706323 1.3943 0
M  V30 2740 H 261.39 -1.26618 2.98561 0
M  V30 2741 H 261.175 0.246454 3.91325 0
M  V30 2742 H 262.665 -0.723389 4.11287 0
M  V30 2743 N 263.102 -1.41638 0.69111 0
M  V30 2744 C 264.332 -2.0533 0.228758 0
M  V30 2745 C 264.74 -1.52089 -1.12541 0
M  V30 2746 O 264.083 -0.662145 -1.71351 0
M  V30 2747 C 264.145 -3.59349 0.10407 0
M  V30 2748 C 263.809 -4.35362 1.38956 0
M  V30 2749 C 264.806 -4.64942 2.32648 0
M  V30 2750 C 262.491 -4.74714 1.64169 0
M  V30 2751 C 264.485 -5.32828 3.49818 0
M  V30 2752 C 262.172 -5.42338 2.81625 0
M  V30 2753 C 263.17 -5.71322 3.74273 0
M  V30 2754 O 262.858 -6.37554 4.89673 0
M  V30 2755 H 262.59 -0.667796 0.104997 0
M  V30 2756 H 265.144 -1.82477 0.942938 0
M  V30 2757 H 263.374 -3.80924 -0.665839 0
M  V30 2758 H 265.063 -4.04633 -0.320519 0
M  V30 2759 H 265.829 -4.35025 2.14425 0
M  V30 2760 H 261.708 -4.51538 0.929202 0
M  V30 2761 H 265.252 -5.55368 4.22152 0
M  V30 2762 H 261.149 -5.71673 2.99768 0
M  V30 2763 H 261.917 -6.56049 4.8943 0
M  V30 2764 N 264.58 -0.43555 -1.51462 0
M  V30 2765 C 265.826 0.131709 -2.02372 0
M  V30 2766 C 266.159 1.42516 -1.3192 0
M  V30 2767 O 265.434 1.89606 -0.433573 0
M  V30 2768 C 265.717 0.352301 -3.58373 0
M  V30 2769 C 265.57 -0.959676 -4.39443 0
M  V30 2770 C 266.889 1.12286 -4.25535 0
M  V30 2771 H 264.008 0.0463936 -0.735538 0
M  V30 2772 H 266.65 -0.574197 -1.81116 0
M  V30 2773 H 264.8 0.9536 -3.76615 0
M  V30 2774 H 266.472 -1.59482 -4.32855 0
M  V30 2775 H 264.715 -1.56468 -4.04599 0
M  V30 2776 H 265.386 -0.759394 -5.46752 0
M  V30 2777 H 267.862 0.613545 -4.11552 0
M  V30 2778 H 266.738 1.24598 -5.34571 0
M  V30 2779 H 266.999 2.15048 -3.86273 0
M  V30 2780 N 266.058 1.56714 -0.166846 0
M  V30 2781 C 267.283 2.01557 0.488833 0
M  V30 2782 C 267.708 1.0463 1.56314 0
M  V30 2783 O 267.066 0.0251304 1.81283 0
M  V30 2784 C 267.114 3.4503 1.04818 0
M  V30 2785 O 266.218 3.51163 2.16236 0
M  V30 2786 H 265.559 0.653516 0.117526 0
M  V30 2787 H 268.089 2.02818 -0.269421 0
M  V30 2788 H 268.099 3.84243 1.37191 0
M  V30 2789 H 266.774 4.15077 0.261572 0
M  V30 2790 H 265.351 3.23807 1.84942 0
M  V30 2791 N 267.536 -0.106894 1.57237 0
M  V30 2792 C 268.764 -0.826389 1.8968 0
M  V30 2793 C 269.179 -1.72856 0.759353 0
M  V30 2794 O 268.536 -1.80503 -0.269263 0
M  V30 2795 C 268.587 -1.64967 3.21665 0
M  V30 2796 O 268.308 -0.783804 4.31031 0
M  V30 2797 C 269.809 -2.47326 3.67892 0
M  V30 2798 H 267.029 -0.236927 0.627779 0
M  V30 2799 H 269.573 -0.0876593 2.04312 0
M  V30 2800 H 267.728 -2.34103 3.08666 0
M  V30 2801 H 268.142 -1.35284 5.06753 0
M  V30 2802 H 269.616 -3.00604 4.6297 0
M  V30 2803 H 270.093 -3.25247 2.95146 0
M  V30 2804 H 270.699 -1.83411 3.83719 0
M  V30 2805 N 269.014 -1.53014 -0.377408 0
M  V30 2806 C 269.944 -1.81589 -1.46791 0
M  V30 2807 C 270.925 -0.668622 -1.56408 0
M  V30 2808 O 272.11 -0.917337 -1.71168 0
M  V30 2809 C 269.24 -1.99519 -2.8427 0
M  V30 2810 C 268.194 -3.15249 -2.89486 0
M  V30 2811 C 267.52 -3.18451 -4.29527 0
M  V30 2812 C 268.82 -4.54084 -2.58079 0
M  V30 2813 H 270.514 -2.7291 -1.23127 0
M  V30 2814 H 268.06 -1.31319 -0.590883 0
M  V30 2815 H 270.013 -2.18092 -3.60575 0
M  V30 2816 H 268.737 -1.04897 -3.09296 0
M  V30 2817 H 267.396 -2.96477 -2.15631 0
M  V30 2818 H 267.044 -2.2149 -4.5161 0
M  V30 2819 H 266.744 -3.962 -4.33934 0
M  V30 2820 H 268.268 -3.39193 -5.07721 0
M  V30 2821 H 269.682 -4.72899 -3.24098 0
M  V30 2822 H 268.079 -5.33987 -2.7382 0
M  V30 2823 H 269.149 -4.60006 -1.53372 0
M  V30 2824 N 270.492 0.636531 -1.44174 0
M  V30 2825 C 271.738 1.39826 -1.4689 0
M  V30 2826 C 272.071 1.93947 -0.0990585 0
M  V30 2827 O 271.346 1.73325 0.882544 0
M  V30 2828 C 271.629 2.56751 -2.5249 0
M  V30 2829 C 271.482 2.08014 -3.98811 0
M  V30 2830 C 272.801 3.58946 -2.54649 0
M  V30 2831 H 269.92 0.507075 -0.53483 0
M  V30 2832 H 272.562 0.720188 -1.75822 0
M  V30 2833 H 270.712 3.14597 -2.2795 0
M  V30 2834 H 272.384 1.5504 -4.34466 0
M  V30 2835 H 270.627 1.39242 -4.10846 0
M  V30 2836 H 271.298 2.92169 -4.68339 0
M  V30 2837 H 273.774 3.1089 -2.76563 0
M  V30 2838 H 272.65 4.38286 -3.3045 0
M  V30 2839 H 272.911 4.12655 -1.58646 0
M  V30 2840 N 271.97 1.30982 0.876444 0
M  V30 2841 C 272.9 1.20668 1.99903 0
M  V30 2842 C 273.881 0.095354 1.69833 0
M  V30 2843 O 275.066 0.27885 1.92188 0
M  V30 2844 C 272.196 0.90655 3.3526 0
M  V30 2845 C 271.15 1.97675 3.79617 0
M  V30 2846 C 270.476 1.52943 5.1236 0
M  V30 2847 C 271.776 3.389 3.97422 0
M  V30 2848 H 273.47 2.14586 2.0879 0
M  V30 2849 H 271.016 1.03308 1.00317 0
M  V30 2850 H 272.969 0.821025 4.13324 0
M  V30 2851 H 271.693 -0.0682969 3.26529 0
M  V30 2852 H 270.352 2.05205 3.03787 0
M  V30 2853 H 270 0.54262 5.00065 0
M  V30 2854 H 269.7 2.24532 5.43009 0
M  V30 2855 H 271.224 1.45786 5.92941 0
M  V30 2856 H 272.638 3.34081 4.659 0
M  V30 2857 H 271.035 4.0865 4.3946 0
M  V30 2858 H 272.105 3.80163 3.01006 0
M  V30 2859 N 273.449 -1.08991 1.13837 0
M  V30 2860 C 274.697 -1.80899 0.901098 0
M  V30 2861 C 275.018 -1.86356 -0.574134 0
M  V30 2862 O 274.288 -1.35235 -1.41733 0
M  V30 2863 H 272.868 -0.669966 0.330386 0
M  V30 2864 H 275.53 -1.318 1.43578 0
M  V30 2865 H 274.626 -2.83929 1.29578 0
M  V30 2866 N 274.927 -0.932562 -1.27047 0
M  V30 2867 C 275.857 -0.452902 -2.29066 0
M  V30 2868 C 276.838 0.489338 -1.62909 0
M  V30 2869 O 278.023 0.393046 -1.90181 0
M  V30 2870 C 275.153 0.290698 -3.46081 0
M  V30 2871 C 274.107 -0.564168 -4.24265 0
M  V30 2872 C 273.433 0.308886 -5.33807 0
M  V30 2873 C 274.733 -1.83112 -4.89149 0
M  V30 2874 H 276.427 -1.30552 -2.69437 0
M  V30 2875 H 273.973 -0.629201 -1.29526 0
M  V30 2876 H 275.926 0.637233 -4.16554 0
M  V30 2877 H 274.65 1.17738 -3.0464 0
M  V30 2878 H 273.309 -0.893477 -3.55545 0
M  V30 2879 H 272.957 1.19467 -4.88607 0
M  V30 2880 H 272.657 -0.259633 -5.87026 0
M  V30 2881 H 274.181 0.650884 -6.07121 0
M  V30 2882 H 275.595 -1.55236 -5.51883 0
M  V30 2883 H 273.992 -2.34353 -5.52448 0
M  V30 2884 H 275.062 -2.54772 -4.12576 0
M  V30 2885 N 276.405 1.4127 -0.698611 0
M  V30 2886 C 277.368 2.29158 -0.044132 0
M  V30 2887 C 278.368 1.44529 0.704841 0
M  V30 2888 O 279.558 1.65643 0.539276 0
M  V30 2889 C 276.69 3.27459 0.947809 0
M  V30 2890 H 277.883 2.88529 -0.817994 0
M  V30 2891 H 275.436 1.49307 -0.46228 0
M  V30 2892 H 276.171 2.73073 1.74933 0
M  V30 2893 H 275.956 3.8991 0.41385 0
M  V30 2894 H 277.446 3.93311 1.40344 0
M  V30 2895 N 277.883 0.443576 1.51229 0
M  V30 2896 C 279.108 -0.121648 2.07043 0
M  V30 2897 C 279.533 -1.35156 1.30823 0
M  V30 2898 O 278.891 -1.7793 0.347934 0
M  V30 2899 C 278.939 -0.41624 3.5819 0
M  V30 2900 O 278.043 -1.50163 3.8409 0
M  V30 2901 H 277.384 0.000871367 0.663999 0
M  V30 2902 H 279.914 0.626706 1.94765 0
M  V30 2903 H 279.924 -0.664867 4.02546 0
M  V30 2904 H 278.599 0.482653 4.1309 0
M  V30 2905 H 277.176 -1.24248 3.51592 0
M  V30 2906 N 279.361 -1.56624 0.175154 0
M  V30 2907 C 280.324 -2.16934 -0.739738 0
M  V30 2908 C 281.324 -1.11842 -1.15533 0
M  V30 2909 O 282.514 -1.37335 -1.07167 0
M  V30 2910 C 279.646 -2.75531 -2.00738 0
M  V30 2911 H 280.839 -2.99131 -0.214639 0
M  V30 2912 H 278.392 -1.56123 -0.0744197 0
M  V30 2913 H 279.127 -1.97078 -2.57548 0
M  V30 2914 H 278.912 -3.52444 -1.71831 0
M  V30 2915 H 280.402 -3.21904 -2.66021 0
M  V30 2916 N 280.839 0.0985539 -1.57292 0
M  V30 2917 C 281.802 1.10402 -2.00858 0
M  V30 2918 C 282.802 1.33146 -0.901593 0
M  V30 2919 O 283.992 1.29318 -1.16716 0
M  V30 2920 C 281.124 2.45394 -2.36632 0
M  V30 2921 H 282.317 0.729099 -2.90902 0
M  V30 2922 H 279.87 0.343495 -1.52479 0
M  V30 2923 H 280.605 2.87769 -1.49531 0
M  V30 2924 H 280.39 2.30235 -3.17387 0
M  V30 2925 H 281.88 3.17718 -2.71007 0
M  V30 2926 N 282.317 1.53212 0.369288 0
M  V30 2927 C 283.542 1.73423 1.1375 0
M  V30 2928 C 283.967 0.460404 1.82378 0
M  V30 2929 O 283.325 -0.585298 1.71592 0
M  V30 2930 C 283.373 2.89769 2.1463 0
M  V30 2931 O 282.477 2.58119 3.21634 0
M  V30 2932 H 281.818 0.576061 0.330227 0
M  V30 2933 H 284.348 2.00083 0.427547 0
M  V30 2934 H 284.358 3.15829 2.58294 0
M  V30 2935 H 283.033 3.8217 1.64071 0
M  V30 2936 H 281.61 2.42864 2.82969 0
M  V30 2937 N 283.795 -0.628877 1.44509 0
M  V30 2938 C 285.041 -1.39045 1.47629 0
M  V30 2939 C 285.374 -1.93892 0.109343 0
M  V30 2940 O 284.649 -1.7379 -0.87334 0
M  V30 2941 C 284.932 -2.55408 2.53848 0
M  V30 2942 C 284.785 -2.05896 3.99909 0
M  V30 2943 C 286.104 -3.5759 2.56549 0
M  V30 2944 H 283.223 -0.504232 0.537512 0
M  V30 2945 H 285.865 -0.710854 1.76201 0
M  V30 2946 H 284.015 -3.13384 2.29615 0
M  V30 2947 H 285.687 -1.52734 4.35282 0
M  V30 2948 H 283.93 -1.37061 4.11578 0
M  V30 2949 H 284.601 -2.89681 4.69882 0
M  V30 2950 H 287.077 -3.09419 2.78207 0
M  V30 2951 H 285.953 -4.36527 3.32769 0
M  V30 2952 H 286.214 -4.11808 1.60832 0
M  V30 2953 N 285.273 -1.31445 -0.869486 0
M  V30 2954 C 286.498 -1.24256 -1.66058 0
M  V30 2955 C 286.923 0.188928 -1.87149 0
M  V30 2956 O 286.281 1.13522 -1.4136 0
M  V30 2957 C 286.329 -1.9924 -3.00559 0
M  V30 2958 O 285.433 -1.33007 -3.90362 0
M  V30 2959 H 284.774 -0.428973 -0.506831 0
M  V30 2960 H 287.304 -1.73521 -1.08404 0
M  V30 2961 H 287.314 -2.08854 -3.50491 0
M  V30 2962 H 285.989 -3.03342 -2.84528 0
M  V30 2963 H 284.566 -1.31848 -3.48813 0
M  V30 2964 N 286.751 1.08385 -1.14413 0
M  V30 2965 C 287.981 1.8425 -0.934644 0
M  V30 2966 C 288.389 1.81907 0.520234 0
M  V30 2967 O 287.732 1.22126 1.37226 0
M  V30 2968 C 287.794 3.32853 -1.35828 0
M  V30 2969 C 287.458 3.5893 -2.82875 0
M  V30 2970 C 288.455 3.53756 -3.80989 0
M  V30 2971 C 286.14 3.86934 -3.20293 0
M  V30 2972 C 288.134 3.76216 -5.14529 0
M  V30 2973 C 285.821 4.09047 -4.54008 0
M  V30 2974 C 286.819 4.03682 -5.50936 0
M  V30 2975 O 286.507 4.25214 -6.82238 0
M  V30 2976 H 286.239 0.588502 -0.332628 0
M  V30 2977 H 288.793 1.37792 -1.52324 0
M  V30 2978 H 287.023 3.8007 -0.713019 0
M  V30 2979 H 288.712 3.90154 -1.11957 0
M  V30 2980 H 289.478 3.32135 -3.53428 0
M  V30 2981 H 285.357 3.9023 -2.45442 0
M  V30 2982 H 288.901 3.71943 -5.90173 0
M  V30 2983 H 284.798 4.30151 -4.8129 0
M  V30 2984 H 285.566 4.42619 -6.88499 0
M  V30 2985 N 288.23 0.939286 1.26551 0
M  V30 2986 C 289.476 0.586715 1.94128 0
M  V30 2987 C 289.809 -0.8717 1.73537 0
M  V30 2988 O 289.084 -1.62339 1.07127 0
M  V30 2989 C 289.367 0.927497 3.4795 0
M  V30 2990 C 289.22 2.44052 3.77834 0
M  V30 2991 C 290.539 0.441569 4.37879 0
M  V30 2992 H 287.658 0.21463 0.705055 0
M  V30 2993 H 290.3 1.17316 1.49455 0
M  V30 2994 H 288.45 0.428431 3.8613 0
M  V30 2995 H 290.122 3.01216 3.4938 0
M  V30 2996 H 288.365 2.8848 3.23978 0
M  V30 2997 H 289.036 2.62947 4.85348 0
M  V30 2998 H 291.512 0.869448 4.06915 0
M  V30 2999 H 290.388 0.708856 5.44304 0
M  V30 3000 H 290.649 -0.658467 4.37169 0
M  V30 3001 N 289.708 -1.40897 0.706093 0
M  V30 3002 C 290.641 -2.282 -0.00328781 0
M  V30 3003 C 291.619 -1.42816 -0.77732 0
M  V30 3004 O 292.803 -1.72237 -0.765944 0
M  V30 3005 C 289.93 -3.23226 -1.01205 0
M  V30 3006 C 288.976 -4.25222 -0.329955 0
M  V30 3007 S 289.809 -5.27269 0.935298 0
M  V30 3008 C 290.965 -6.25859 -0.0716061 0
M  V30 3009 H 291.198 -2.88016 0.737143 0
M  V30 3010 H 288.731 -1.46191 0.496756 0
M  V30 3011 H 290.689 -3.78503 -1.58888 0
M  V30 3012 H 289.35 -2.62485 -1.72513 0
M  V30 3013 H 288.543 -4.92023 -1.09221 0
M  V30 3014 H 288.145 -3.73595 0.174069 0
M  V30 3015 H 290.437 -6.71204 -0.921521 0
M  V30 3016 H 291.38 -7.0586 0.562765 0
M  V30 3017 H 291.788 -5.62852 -0.431088 0
M  V30 3018 N 291.186 -0.45159 -1.50991 0
M  V30 3019 C 292.433 0.110074 -2.02201 0
M  V30 3020 C 292.761 1.4146 -1.33489 0
M  V30 3021 O 292.016 1.90617 -0.443125 0
M  V30 3022 C 292.315 0.361728 -3.55565 0
M  V30 3023 C 291.981 -0.858717 -4.42648 0
M  V30 3024 C 290.643 -1.19338 -4.66167 0
M  V30 3025 C 292.995 -1.67221 -4.93646 0
M  V30 3026 C 290.323 -2.34195 -5.37931 0
M  V30 3027 C 292.675 -2.8119 -5.6667 0
M  V30 3028 C 291.339 -3.15094 -5.88449 0
M  V30 3029 H 290.609 0.040279 -0.739904 0
M  V30 3030 H 293.256 -0.601696 -1.81802 0
M  V30 3031 H 291.561 1.15554 -3.74372 0
M  V30 3032 H 293.258 0.80996 -3.92735 0
M  V30 3033 H 289.848 -0.58796 -4.24548 0
M  V30 3034 H 294.032 -1.42686 -4.75347 0
M  V30 3035 H 289.288 -2.6076 -5.53005 0
M  V30 3036 H 293.462 -3.44585 -6.05173 0
M  V30 3037 H 291.089 -4.04204 -6.43835 0
M  V30 3038 N 292.664 1.56529 -0.183458 0
M  V30 3039 C 293.627 2.17324 0.728223 0
M  V30 3040 C 294.627 1.12453 1.14939 0
M  V30 3041 O 295.817 1.37902 1.06437 0
M  V30 3042 C 292.949 2.76591 1.99274 0
M  V30 3043 H 294.142 2.99241 0.198772 0
M  V30 3044 H 291.695 1.5616 0.0661391 0
M  V30 3045 H 292.43 1.98441 2.56499 0
M  V30 3046 H 292.215 3.5335 1.69959 0
M  V30 3047 H 293.705 3.23311 2.6431 0
M  V30 3048 N 294.142 -0.090211 1.57342 0
M  V30 3049 C 295.391 -0.791531 1.8552 0
M  V30 3050 C 295.704 -1.79659 0.773441 0
M  V30 3051 O 296.91 -2.54616 0.942497 0
M  V30 3052 C 295.366 -1.45856 3.2902 0
M  V30 3053 C 294.974 -0.493017 4.45279 0
M  V30 3054 C 296.718 -2.14332 3.66418 0
M  V30 3055 C 294.625 -1.16491 5.79814 0
M  V30 3056 H 293.555 -0.299356 0.692027 0
M  V30 3057 H 296.206 -0.0445343 1.83446 0
M  V30 3058 H 294.588 -2.25318 3.2565 0
M  V30 3059 H 295.762 0.270464 4.60006 0
M  V30 3060 H 294.077 0.0863061 4.16311 0
M  V30 3061 H 296.674 -2.65344 4.64216 0
M  V30 3062 H 297.017 -2.93447 2.95287 0
M  V30 3063 H 297.55 -1.41724 3.71698 0
M  V30 3064 H 294.289 -0.41447 6.54188 0
M  V30 3065 H 293.809 -1.8997 5.68921 0
M  V30 3066 H 295.488 -1.69001 6.24538 0
M  V30 3067 N 295.62 -1.53406 -0.361157 0
M  V30 3068 C 296.848 -1.73717 -1.12383 0
M  V30 3069 C 297.263 -0.468161 -1.82904 0
M  V30 3070 O 296.62 0.559198 -1.73722 0
M  V30 3071 C 296.671 -2.90558 -2.15078 0
M  V30 3072 O 296.392 -4.12549 -1.47428 0
M  V30 3073 C 297.893 -3.22777 -3.03858 0
M  V30 3074 H 295.113 -0.580896 -0.335858 0
M  V30 3075 H 297.657 -2.00167 -0.418728 0
M  V30 3076 H 295.812 -2.66489 -2.8118 0
M  V30 3077 H 296.226 -4.78009 -2.15887 0
M  V30 3078 H 297.7 -4.07927 -3.71887 0
M  V30 3079 H 298.177 -2.38329 -3.68912 0
M  V30 3080 H 298.783 -3.48787 -2.43367 0
M  V30 3081 N 297.098 0.621204 -1.44841 0
M  V30 3082 C 298.514 0.94048 -1.28946 0
M  V30 3083 C 298.714 2.00154 -0.23249 0
M  V30 3084 O 297.77 2.49651 0.378237 0
M  V30 3085 C 299.083 1.39433 -2.66419 0
M  V30 3086 C 300.631 1.50927 -2.74208 0
M  V30 3087 C 301.106 1.99692 -4.12174 0
M  V30 3088 N 302.597 2.06947 -4.144 0
M  V30 3089 C 303.332 2.45871 -5.1801 0
M  V30 3090 N 302.828 2.83862 -6.31977 0
M  V30 3091 N 304.621 2.46092 -5.05366 0
M  V30 3092 H 296.772 -0.0803548 -2.12248 0
M  V30 3093 H 299.035 0.0266913 -0.947624 0
M  V30 3094 H 298.741 0.688925 -3.44887 0
M  V30 3095 H 298.615 2.36347 -2.93973 0
M  V30 3096 H 301.002 2.20561 -1.96053 0
M  V30 3097 H 301.083 0.523627 -2.50383 0
M  V30 3098 H 300.727 1.30649 -4.90809 0
M  V30 3099 H 300.657 2.99146 -4.33381 0
M  V30 3100 H 303.148 1.80232 -3.32152 0
M  V30 3101 H 303.461 3.12405 -7.0684 0
M  V30 3102 H 301.806 2.8159 -6.35399 0
M  V30 3103 H 304.997 2.1581 -4.15384 0
M  V30 3104 H 305.17 2.76102 -5.86235 0
M  V30 3105 N 298.576 1.31904 0.862503 0
M  V30 3106 C 299.804 1.24998 1.64873 0
M  V30 3107 C 300.219 -0.183425 1.87907 0
M  V30 3108 O 299.576 -1.11794 1.44251 0
M  V30 3109 C 299.627 1.99829 3.01248 0
M  V30 3110 O 299.348 3.37575 2.79239 0
M  V30 3111 C 300.849 1.99852 3.95694 0
M  V30 3112 H 298.069 0.431599 0.513773 0
M  V30 3113 H 300.613 1.73901 1.07604 0
M  V30 3114 H 298.768 1.54668 3.55185 0
M  V30 3115 H 299.182 3.75776 3.65914 0
M  V30 3116 H 300.656 2.56709 4.88676 0
M  V30 3117 H 301.133 0.982852 4.28062 0
M  V30 3118 H 301.739 2.44926 3.47694 0
M  V30 3119 N 300.054 -1.07777 1.14986 0
M  V30 3120 C 300.984 -2.16865 0.865557 0
M  V30 3121 C 301.965 -1.69123 -0.182083 0
M  V30 3122 O 303.15 -1.94164 -0.0373815 0
M  V30 3123 C 300.28 -3.45539 0.349313 0
M  V30 3124 C 299.234 -4.06708 1.33313 0
M  V30 3125 C 298.56 -5.30411 0.675918 0
M  V30 3126 C 299.86 -4.47241 2.69764 0
M  V30 3127 H 301.554 -2.40905 1.77778 0
M  V30 3128 H 299.1 -1.15781 0.856203 0
M  V30 3129 H 301.053 -4.21174 0.137983 0
M  V30 3130 H 299.777 -3.21072 -0.598362 0
M  V30 3131 H 298.436 -3.33112 1.53075 0
M  V30 3132 H 298.084 -5.02232 -0.277767 0
M  V30 3133 H 297.784 -5.72293 1.33244 0
M  V30 3134 H 299.308 -6.08755 0.474262 0
M  V30 3135 H 300.722 -5.14025 2.53873 0
M  V30 3136 H 299.119 -5.00062 3.3175 0
M  V30 3137 H 300.189 -3.58818 3.26156 0
M  V30 3138 N 301.532 -0.945985 -1.26051 0
M  V30 3139 C 302.76 -0.613025 -1.9761 0
M  V30 3140 C 303.175 0.813035 -1.70397 0
M  V30 3141 O 302.532 1.54274 -0.974979 0
M  V30 3142 C 302.583 -0.85159 -3.51326 0
M  V30 3143 O 302.304 -2.22157 -3.77595 0
M  V30 3144 C 303.805 -0.529831 -4.40122 0
M  V30 3145 H 301.025 -0.230593 -0.630133 0
M  V30 3146 H 303.569 -1.268 -1.60443 0
M  V30 3147 H 301.724 -0.243151 -3.86636 0
M  V30 3148 H 302.138 -2.2852 -4.721 0
M  V30 3149 H 303.612 -0.747348 -5.46917 0
M  V30 3150 H 304.089 0.535341 -4.35925 0
M  V30 3151 H 304.695 -1.11721 -4.10364 0
M  V30 3152 N 303.011 1.40521 -0.713556 0
M  V30 3153 C 304.259 2.00527 -0.251692 0
M  V30 3154 C 304.58 1.56857 1.15848 0
M  V30 3155 O 303.85 0.807127 1.785 0
M  V30 3156 H 302.43 0.741551 -0.0900646 0
M  V30 3157 H 305.092 1.71887 -0.918733 0
M  V30 3158 H 304.188 3.10813 -0.283192 0
M  V30 3159 N 304.489 0.459591 1.5075 0
M  V30 3160 C 305.714 -0.0996819 2.0716 0
M  V30 3161 C 306.139 -1.33761 1.32249 0
M  V30 3162 O 305.497 -1.77551 0.366786 0
M  V30 3163 C 305.545 -0.378226 3.58611 0
M  V30 3164 O 304.649 -1.46081 3.85661 0
M  V30 3165 H 303.99 0.00791392 0.663953 0
M  V30 3166 H 306.52 0.647329 1.9409 0
M  V30 3167 H 306.53 -0.622135 4.03229 0
M  V30 3168 H 305.205 0.526439 4.12555 0
M  V30 3169 H 303.782 -1.20511 3.5289 0
M  V30 3170 N 305.967 -1.56429 0.191757 0
M  V30 3171 C 306.93 -2.17707 -0.716688 0
M  V30 3172 C 307.93 -1.13061 -1.14341 0
M  V30 3173 O 309.12 -1.38464 -1.05704 0
M  V30 3174 C 306.252 -2.77644 -1.97804 0
M  V30 3175 H 307.445 -2.99342 -0.1829 0
M  V30 3176 H 304.998 -1.56193 -0.0578566 0
M  V30 3177 H 305.733 -1.99799 -2.55443 0
M  V30 3178 H 305.518 -3.54246 -1.68083 0
M  V30 3179 H 307.008 -3.24708 -2.62592 0
M  V30 3180 N 307.445 0.0818655 -1.57387 0
M  V30 3181 C 308.375 1.09885 -2.06028 0
M  V30 3182 C 309.356 1.4098 -0.951774 0
M  V30 3183 O 310.541 1.50781 -1.22387 0
M  V30 3184 C 307.671 2.4151 -2.4958 0
M  V30 3185 C 306.625 2.24792 -3.64215 0
M  V30 3186 C 305.951 3.61712 -3.93787 0
M  V30 3187 C 307.251 1.67749 -4.94629 0
M  V30 3188 H 308.945 0.694128 -2.91243 0
M  V30 3189 H 306.491 0.332448 -1.4011 0
M  V30 3190 H 308.444 3.12939 -2.82219 0
M  V30 3191 H 307.168 2.83943 -1.61381 0
M  V30 3192 H 305.827 1.55807 -3.31843 0
M  V30 3193 H 305.475 4.01697 -3.02735 0
M  V30 3194 H 305.175 3.51368 -4.70971 0
M  V30 3195 H 306.699 4.34587 -4.28913 0
M  V30 3196 H 308.113 2.29032 -5.25564 0
M  V30 3197 H 306.51 1.68128 -5.76067 0
M  V30 3198 H 307.58 0.638059 -4.80684 0
M  V30 3199 N 308.923 1.53595 0.353017 0
M  V30 3200 C 309.886 1.80232 1.41594 0
M  V30 3201 C 310.886 0.673081 1.46035 0
M  V30 3202 O 312.076 0.941335 1.46576 0
M  V30 3203 C 309.208 1.93578 2.80607 0
M  V30 3204 H 310.401 2.75174 1.19244 0
M  V30 3205 H 307.954 1.44864 0.586872 0
M  V30 3206 H 308.689 1.00746 3.08254 0
M  V30 3207 H 308.474 2.75724 2.78781 0
M  V30 3208 H 309.964 2.15735 3.57558 0
M  V30 3209 N 310.401 -0.613514 1.45168 0
M  V30 3210 C 311.649 -1.36997 1.48581 0
M  V30 3211 C 311.97 -1.94589 0.126545 0
M  V30 3212 O 311.24 -1.76816 -0.843372 0
M  V30 3213 H 309.82 -0.508558 0.547154 0
M  V30 3214 H 312.482 -0.720853 1.81079 0
M  V30 3215 H 311.578 -2.1924 2.22127 0
M  V30 3216 N 311.879 -1.3236 -0.855495 0
M  V30 3217 C 313.126 -1.22872 -1.60962 0
M  V30 3218 C 313.454 0.209658 -1.93367 0
M  V30 3219 O 312.709 1.16243 -1.57436 0
M  V30 3220 C 313.008 -2.03275 -2.93963 0
M  V30 3221 C 312.674 -3.5264 -2.80991 0
M  V30 3222 C 311.336 -3.93364 -2.7716 0
M  V30 3223 C 313.688 -4.47626 -2.66983 0
M  V30 3224 C 311.016 -5.27319 -2.572 0
M  V30 3225 C 313.368 -5.81723 -2.48558 0
M  V30 3226 C 312.032 -6.2165 -2.4312 0
M  V30 3227 H 311.302 -0.44962 -0.589001 0
M  V30 3228 H 313.949 -1.63777 -0.992442 0
M  V30 3229 H 312.254 -1.55095 -3.59795 0
M  V30 3230 H 313.951 -1.93303 -3.51333 0
M  V30 3231 H 310.541 -3.20295 -2.84797 0
M  V30 3232 H 314.725 -4.17084 -2.68988 0
M  V30 3233 H 309.981 -5.57311 -2.51424 0
M  V30 3234 H 314.155 -6.5494 -2.36699 0
M  V30 3235 H 311.782 -7.25388 -2.27412 0
M  V30 3236 N 313.357 1.07166 -1.15556 0
M  V30 3237 C 314.585 1.83514 -0.955519 0
M  V30 3238 C 315 1.82163 0.49621 0
M  V30 3239 O 314.357 1.23441 1.34419 0
M  V30 3240 C 314.408 3.30515 -1.46432 0
M  V30 3241 O 314.129 3.31937 -2.85918 0
M  V30 3242 C 315.63 4.23625 -1.30603 0
M  V30 3243 H 312.85 0.578926 -0.339244 0
M  V30 3244 H 315.394 1.35265 -1.53374 0
M  V30 3245 H 313.549 3.76106 -0.928584 0
M  V30 3246 H 313.963 4.23794 -3.09029 0
M  V30 3247 H 315.437 5.24831 -1.71047 0
M  V30 3248 H 315.914 4.38485 -0.250441 0
M  V30 3249 H 316.52 3.83871 -1.83094 0
M  V30 3250 N 314.835 0.952656 1.25548 0
M  V30 3251 C 316.084 0.602053 1.92505 0
M  V30 3252 C 316.397 -0.864663 1.75451 0
M  V30 3253 O 317.603 -1.32514 2.36965 0
M  V30 3254 C 316.059 1.02607 3.44963 0
M  V30 3255 C 315.667 2.51519 3.70732 0
M  V30 3256 C 317.411 0.747905 4.1786 0
M  V30 3257 C 315.318 2.87732 5.16686 0
M  V30 3258 H 314.248 0.22146 0.720744 0
M  V30 3259 H 316.899 1.15684 1.42441 0
M  V30 3260 H 315.281 0.399712 3.93978 0
M  V30 3261 H 316.455 3.19157 3.32378 0
M  V30 3262 H 314.77 2.76786 3.11092 0
M  V30 3263 H 317.367 0.994647 5.25367 0
M  V30 3264 H 317.71 -0.315629 4.15102 0
M  V30 3265 H 318.243 1.33452 3.74747 0
M  V30 3266 H 314.982 3.93095 5.24554 0
M  V30 3267 H 314.502 2.24765 5.56094 0
M  V30 3268 H 316.181 2.76817 5.84792 0
M  V30 3269 N 316.313 -1.40141 0.720998 0
M  V30 3270 C 317.562 -2.0002 0.259804 0
M  V30 3271 C 317.875 -1.57839 -1.15526 0
M  V30 3272 O 319.081 -2.10455 -1.71525 0
M  V30 3273 C 317.537 -3.57516 0.413566 0
M  V30 3274 C 317.145 -4.08667 1.83562 0
M  V30 3275 C 318.889 -4.24498 0.0134387 0
M  V30 3276 C 316.796 -5.58686 1.93968 0
M  V30 3277 H 315.726 -0.748195 0.0933806 0
M  V30 3278 H 318.377 -1.60313 0.892866 0
M  V30 3279 H 316.759 -3.9495 -0.288169 0
M  V30 3280 H 317.933 -3.82598 2.56817 0
M  V30 3281 H 316.248 -3.543 2.1877 0
M  V30 3282 H 318.845 -5.34654 0.0703954 0
M  V30 3283 H 319.188 -4.03375 -1.02927 0
M  V30 3284 H 319.721 -3.92188 0.665815 0
M  V30 3285 H 316.46 -5.8467 2.96379 0
M  V30 3286 H 315.98 -5.86602 1.25131 0
M  V30 3287 H 317.659 -6.23875 1.71431 0
M  V30 3288 N 317.792 -0.46758 -1.50504 0
M  V30 3289 C 319.038 0.0887532 -2.02606 0
M  V30 3290 C 319.371 1.39686 -1.34913 0
M  V30 3291 O 318.646 1.88644 -0.473694 0
M  V30 3292 C 318.929 0.276206 -3.59039 0
M  V30 3293 C 318.782 -1.05267 -4.37309 0
M  V30 3294 C 320.101 1.03235 -4.27821 0
M  V30 3295 H 317.22 0.0307814 -0.736357 0
M  V30 3296 H 319.862 -0.612485 -1.79857 0
M  V30 3297 H 318.012 0.8735 -3.78553 0
M  V30 3298 H 319.684 -1.68628 -4.29374 0
M  V30 3299 H 317.927 -1.65015 -4.01189 0
M  V30 3300 H 318.598 -0.875197 -5.45018 0
M  V30 3301 H 321.074 0.526111 -4.12761 0
M  V30 3302 H 319.95 1.1323 -5.37094 0
M  V30 3303 H 320.211 2.06806 -3.90748 0
M  V30 3304 N 319.27 1.56325 -0.20005 0
M  V30 3305 C 320.203 2.15234 0.758267 0
M  V30 3306 C 321.181 1.09046 1.20614 0
M  V30 3307 O 322.365 1.37186 1.29276 0
M  V30 3308 C 319.492 2.71524 2.02466 0
M  V30 3309 C 318.538 3.90345 1.71852 0
M  V30 3310 S 319.371 5.28513 0.862249 0
M  V30 3311 C 320.527 5.88227 2.13868 0
M  V30 3312 H 320.76 2.96183 0.2575 0
M  V30 3313 H 318.293 1.54393 0.0150099 0
M  V30 3314 H 320.251 3.04598 2.75191 0
M  V30 3315 H 318.912 1.90607 2.49655 0
M  V30 3316 H 318.105 4.28158 2.65888 0
M  V30 3317 H 317.707 3.58306 1.07205 0
M  V30 3318 H 319.999 6.02891 3.09076 0
M  V30 3319 H 320.942 6.84714 1.80479 0
M  V30 3320 H 321.35 5.16874 2.2694 0
M  V30 3321 N 320.748 -0.0735177 1.57428 0
M  V30 3322 C 322.159 -0.625551 1.75908 0
M  V30 3323 C 322.51 -1.78 0.825261 0
M  V30 3324 O 321.635 -2.16398 0.00893964 0
M  V30 3325 C 322.23 -1.14155 3.18989 0
M  V30 3326 C 320.789 -1.63946 3.38819 0
M  V30 3327 C 319.936 -0.558151 2.71625 0
M  V30 3328 H 322.887 0.152647 1.57964 0
M  V30 3329 H 322.908 -2.0104 3.23053 0
M  V30 3330 H 322.42 -0.301116 3.8693 0
M  V30 3331 H 320.521 -2.50321 2.7599 0
M  V30 3332 H 320.634 -1.71759 4.47253 0
M  V30 3333 H 318.998 -1.00278 2.34129 0
M  V30 3334 H 319.781 0.272071 3.4222 0
M  V30 3335 N 322.226 -1.5378 -0.344866 0
M  V30 3336 C 323.156 -1.84662 -1.42906 0
M  V30 3337 C 324.137 -0.701648 -1.54955 0
M  V30 3338 O 325.322 -0.953438 -1.69184 0
M  V30 3339 C 322.452 -2.05503 -2.79974 0
M  V30 3340 C 321.406 -3.21318 -2.82734 0
M  V30 3341 C 320.732 -3.2749 -4.22675 0
M  V30 3342 C 322.032 -4.59456 -2.48389 0
M  V30 3343 H 323.726 -2.75461 -1.17311 0
M  V30 3344 H 321.272 -1.32542 -0.562896 0
M  V30 3345 H 323.225 -2.25691 -3.55867 0
M  V30 3346 H 321.949 -1.11434 -3.07002 0
M  V30 3347 H 320.608 -3.00984 -2.09294 0
M  V30 3348 H 320.256 -2.31019 -4.4681 0
M  V30 3349 H 319.956 -4.05316 -4.25433 0
M  V30 3350 H 321.48 -3.49887 -5.00412 0
M  V30 3351 H 322.894 -4.79667 -3.13995 0
M  V30 3352 H 321.291 -5.39675 -2.62432 0
M  V30 3353 H 322.361 -4.63155 -1.4358 0
M  V30 3354 N 323.704 0.605807 -1.45491 0
M  V30 3355 C 324.614 1.74466 -1.56839 0
M  V30 3356 C 325.63 1.68006 -0.452772 0
M  V30 3357 O 326.806 1.8833 -0.713708 0
M  V30 3358 C 323.871 3.10931 -1.53371 0
M  V30 3359 C 322.932 3.28832 -2.75986 0
M  V30 3360 C 322.165 4.58787 -2.72673 0
M  V30 3361 O 322.388 5.4122 -1.80102 0
M  V30 3362 O 321.322 4.79438 -3.63899 0
M  V30 3363 H 325.148 1.67843 -2.53106 0
M  V30 3364 H 322.733 0.770108 -1.28022 0
M  V30 3365 H 324.615 3.92233 -1.54051 0
M  V30 3366 H 323.29 3.18042 -0.602572 0
M  V30 3367 H 322.197 2.47112 -2.80867 0
M  V30 3368 H 323.53 3.26599 -3.68231 0
M  V30 3369 N 325.182 1.32811 0.848464 0
M  V30 3370 C 326.112 1.24882 1.97299 0
M  V30 3371 C 327.093 0.131357 1.69592 0
M  V30 3372 O 328.278 0.319553 1.91553 0
M  V30 3373 C 325.408 0.97746 3.33261 0
M  V30 3374 C 324.362 2.05682 3.75338 0
M  V30 3375 C 323.688 1.63777 5.09 0
M  V30 3376 C 324.988 3.47254 3.90144 0
M  V30 3377 H 326.682 2.18966 2.04191 0
M  V30 3378 H 324.228 1.05413 0.981029 0
M  V30 3379 H 326.181 0.908513 4.1149 0
M  V30 3380 H 324.905 0.000980011 3.266 0
M  V30 3381 H 323.564 2.11603 2.99366 0
M  V30 3382 H 323.212 0.648569 4.98801 0
M  V30 3383 H 322.912 2.36 5.38124 0
M  V30 3384 H 324.436 1.5833 5.89715 0
M  V30 3385 H 325.85 3.43888 4.58709 0
M  V30 3386 H 324.247 4.1788 4.30693 0
M  V30 3387 H 325.317 3.86462 2.92874 0
M  V30 3388 N 326.66 -1.06551 1.16123 0
M  V30 3389 C 327.57 -2.17484 0.879662 0
M  V30 3390 C 328.586 -1.73377 -0.147104 0
M  V30 3391 O 329.762 -2.01379 0.0289128 0
M  V30 3392 C 326.827 -3.44591 0.381829 0
M  V30 3393 C 325.888 -4.0322 1.4735 0
M  V30 3394 C 325.121 -5.24261 0.999324 0
M  V30 3395 O 325.344 -5.70198 -0.151957 0
M  V30 3396 O 324.278 -5.74775 1.78653 0
M  V30 3397 H 328.104 -2.44075 1.80724 0
M  V30 3398 H 325.689 -1.16042 0.940992 0
M  V30 3399 H 327.571 -4.21254 0.111053 0
M  V30 3400 H 326.246 -3.19532 -0.51777 0
M  V30 3401 H 325.153 -3.2806 1.79798 0
M  V30 3402 H 326.486 -4.32568 2.34831 0
M  V30 3403 N 328.138 -0.959301 -1.25041 0
M  V30 3404 C 329.384 -0.627096 -1.93492 0
M  V30 3405 C 329.739 0.827484 -1.73696 0
M  V30 3406 O 329.032 1.58651 -1.07427 0
M  V30 3407 C 329.226 -0.927136 -3.45165 0
M  V30 3408 C 329.055 -2.40933 -3.79712 0
M  V30 3409 C 327.825 -3.0677 -4.01522 0
M  V30 3410 C 330.023 -3.38894 -3.86853 0
M  V30 3411 N 328.005 -4.44815 -4.231 0
M  V30 3412 C 329.376 -4.62263 -4.13174 0
M  V30 3413 C 331.431 -3.33668 -3.69554 0
M  V30 3414 C 330.134 -5.81052 -4.23995 0
M  V30 3415 C 332.16 -4.518 -3.81616 0
M  V30 3416 C 331.522 -5.73957 -4.08354 0
M  V30 3417 H 327.621 -0.280166 -0.73009 0
M  V30 3418 H 330.205 -1.23244 -1.50729 0
M  V30 3419 H 328.376 -0.350685 -3.86814 0
M  V30 3420 H 330.108 -0.554361 -4.00885 0
M  V30 3421 H 326.863 -2.57327 -3.97593 0
M  V30 3422 H 327.287 -5.16319 -4.37885 0
M  V30 3423 H 331.929 -2.40268 -3.47895 0
M  V30 3424 H 329.647 -6.74888 -4.44468 0
M  V30 3425 H 333.233 -4.49309 -3.69612 0
M  V30 3426 H 332.113 -6.6384 -4.17475 0
M  V30 3427 N 329.616 1.39756 -0.72842 0
M  V30 3428 C 330.546 2.33289 -0.0991354 0
M  V30 3429 C 331.527 1.53568 0.731489 0
M  V30 3430 O 332.712 1.81987 0.677807 0
M  V30 3431 C 329.842 3.3763 0.813834 0
M  V30 3432 C 328.796 4.2791 0.0878663 0
M  V30 3433 C 328.122 5.22894 1.11741 0
M  V30 3434 C 329.422 5.11314 -1.06563 0
M  V30 3435 H 331.116 2.86163 -0.880408 0
M  V30 3436 H 328.662 1.37591 -0.424819 0
M  V30 3437 H 330.615 4.0201 1.26355 0
M  V30 3438 H 329.339 2.83181 1.62715 0
M  V30 3439 H 327.998 3.65 -0.342159 0
M  V30 3440 H 327.646 4.64744 1.92412 0
M  V30 3441 H 327.346 5.84143 0.636477 0
M  V30 3442 H 328.87 5.90151 1.56697 0
M  V30 3443 H 330.284 5.69076 -0.694671 0
M  V30 3444 H 328.681 5.81671 -1.47577 0
M  V30 3445 H 329.751 4.46534 -1.89038 0
M  V30 3446 N 331.094 0.475555 1.50254 0
M  V30 3447 C 332.371 -0.139685 1.95101 0
M  V30 3448 C 332.751 -1.56555 1.41611 0
M  V30 3449 O 332.099 -2.19956 0.618993 0
M  V30 3450 C 332.309 -0.0784298 3.48912 0
M  V30 3451 C 333.657 -0.265095 4.23772 0
M  V30 3452 O 334.681 -0.154808 3.55863 0
M  V30 3453 O 333.54 -0.488327 5.44314 0
M  V30 3454 H 330.634 -0.109236 0.819754 0
M  V30 3455 H 333.18 0.536276 1.61004 0
M  V30 3456 H 331.952 0.916918 3.80405 0
M  V30 3457 H 331.575 -0.795655 3.89558 0
M  V30 3458 N 332.573 -1.56217 0.208337 0
M  V30 3459 C 333.819 -1.98242 -0.427552 0
M  V30 3460 C 334.152 -1.09554 -1.60348 0
M  V30 3461 O 333.427 -0.15035 -1.93918 0
M  V30 3462 C 333.71 -3.4931 -0.874907 0
M  V30 3463 C 333.563 -4.48773 0.303751 0
M  V30 3464 C 334.882 -4.04424 -1.73577 0
M  V30 3465 H 332.001 -0.720744 -0.153936 0
M  V30 3466 H 334.643 -1.87586 0.30192 0
M  V30 3467 H 332.793 -3.58522 -1.49648 0
M  V30 3468 H 334.465 -4.51586 0.941682 0
M  V30 3469 H 332.708 -4.23194 0.953375 0
M  V30 3470 H 333.379 -5.51976 -0.0519883 0
M  V30 3471 H 335.855 -3.98075 -1.21143 0
M  V30 3472 H 334.731 -5.1047 -2.01771 0
M  V30 3473 H 334.992 -3.50494 -2.69456 0
M  V30 3474 N 334.051 0.0651679 -1.57465 0
M  V30 3475 C 334.961 1.09448 -2.07505 0
M  V30 3476 C 335.977 1.41974 -1.00595 0
M  V30 3477 O 337.153 1.52018 -1.32107 0
M  V30 3478 C 334.218 2.38689 -2.51453 0
M  V30 3479 C 333.279 2.13073 -3.72691 0
M  V30 3480 C 332.512 3.36152 -4.14533 0
M  V30 3481 O 332.735 4.45517 -3.56189 0
M  V30 3482 O 331.669 3.23974 -5.07272 0
M  V30 3483 H 335.495 0.69935 -2.95538 0
M  V30 3484 H 333.08 0.279752 -1.46757 0
M  V30 3485 H 334.962 3.14736 -2.80212 0
M  V30 3486 H 333.637 2.77568 -1.66546 0
M  V30 3487 H 332.544 1.34709 -3.49005 0
M  V30 3488 H 333.877 1.79071 -4.5847 0
M  V30 3489 N 335.529 1.53961 0.336706 0
M  V30 3490 C 336.479 1.7881 1.41461 0
M  V30 3491 C 337.463 0.643561 1.47469 0
M  V30 3492 O 338.655 0.903166 1.52223 0
M  V30 3493 C 335.784 2.00722 2.78506 0
M  V30 3494 C 334.87 3.2126 2.76862 0
M  V30 3495 N 335.261 4.42588 2.44845 0
M  V30 3496 C 333.559 3.22568 3.08004 0
M  V30 3497 C 334.26 5.2447 2.51607 0
M  V30 3498 N 333.236 4.61344 2.87511 0
M  V30 3499 H 337.038 2.70205 1.15615 0
M  V30 3500 H 334.552 1.52978 0.545112 0
M  V30 3501 H 336.549 2.1666 3.5618 0
M  V30 3502 H 335.209 1.10573 3.05293 0
M  V30 3503 H 336.22 4.69819 2.17922 0
M  V30 3504 H 332.897 2.42409 3.39918 0
M  V30 3505 H 334.287 6.31324 2.29955 0
M  V30 3506 N 337.007 -0.598083 1.45811 0
M  V30 3507 C 338.423 -0.919847 1.30426 0
M  V30 3508 C 338.623 -1.99759 0.264303 0
M  V30 3509 O 337.679 -2.50221 -0.338472 0
M  V30 3510 C 338.992 -1.35176 2.68603 0
M  V30 3511 C 340.54 -1.46546 2.76574 0
M  V30 3512 C 341.015 -1.9311 4.15298 0
M  V30 3513 N 342.506 -2.00328 4.1764 0
M  V30 3514 C 343.241 -2.37599 5.21856 0
M  V30 3515 N 342.737 -2.73771 6.36413 0
M  V30 3516 N 344.53 -2.38021 5.09218 0
M  V30 3517 H 336.681 0.114111 2.12093 0
M  V30 3518 H 338.944 -0.0116121 0.947929 0
M  V30 3519 H 338.65 -0.633969 3.45939 0
M  V30 3520 H 338.524 -2.3164 2.97696 0
M  V30 3521 H 340.911 -2.17415 1.99537 0
M  V30 3522 H 340.992 -0.483727 2.51185 0
M  V30 3523 H 340.636 -1.22824 4.92825 0
M  V30 3524 H 340.566 -2.92213 4.38086 0
M  V30 3525 H 343.057 -1.74925 3.34977 0
M  V30 3526 H 343.37 -3.0112 7.11721 0
M  V30 3527 H 341.715 -2.71445 6.39799 0
M  V30 3528 H 344.906 -2.09174 4.18765 0
M  V30 3529 H 345.079 -2.66741 5.90554 0
M  V30 3530 N 338.485 -1.33259 -0.841409 0
M  V30 3531 C 339.713 -1.27605 -1.62864 0
M  V30 3532 C 340.128 0.153507 -1.88175 0
M  V30 3533 O 339.485 1.09485 -1.46011 0
M  V30 3534 C 339.536 -2.04596 -2.98031 0
M  V30 3535 O 339.257 -3.41975 -2.73834 0
M  V30 3536 C 340.758 -2.06122 -3.92465 0
M  V30 3537 H 337.978 -0.439718 -0.506842 0
M  V30 3538 H 340.522 -1.75591 -1.04824 0
M  V30 3539 H 338.677 -1.60299 -3.5268 0
M  V30 3540 H 339.091 -3.81549 -3.59889 0
M  V30 3541 H 340.565 -2.64451 -4.84531 0
M  V30 3542 H 341.042 -1.05083 -4.26444 0
M  V30 3543 H 341.648 -2.50427 -3.43753 0
M  V30 3544 N 339.963 1.05934 -1.16686 0
M  V30 3545 C 341.209 1.79065 -0.95203 0
M  V30 3546 C 341.542 1.87147 0.518629 0
M  V30 3547 O 340.817 1.36574 1.38484 0
M  V30 3548 C 341.1 3.23359 -1.58464 0
M  V30 3549 C 340.953 3.23336 -3.12689 0
M  V30 3550 C 342.272 4.21004 -1.28232 0
M  V30 3551 H 339.391 0.65005 -0.34728 0
M  V30 3552 H 342.033 1.23868 -1.44072 0
M  V30 3553 H 340.183 3.70493 -1.16908 0
M  V30 3554 H 341.855 2.84336 -3.6325 0
M  V30 3555 H 340.098 2.61886 -3.4583 0
M  V30 3556 H 340.769 4.25144 -3.52075 0
M  V30 3557 H 343.245 3.8233 -1.64203 0
M  V30 3558 H 342.121 5.20225 -1.75092 0
M  V30 3559 H 342.382 4.41639 -0.201791 0
M  V30 3560 N 341.441 0.965919 1.2453 0
M  V30 3561 C 342.404 0.499547 2.2369 0
M  V30 3562 C 343.404 -0.40294 1.5567 0
M  V30 3563 O 344.594 -0.19865 1.73064 0
M  V30 3564 C 341.726 -0.276792 3.39774 0
M  V30 3565 H 342.919 1.37613 2.66463 0
M  V30 3566 H 340.472 0.750324 1.37112 0
M  V30 3567 H 341.207 -1.17055 3.02438 0
M  V30 3568 H 340.992 0.370826 3.90343 0
M  V30 3569 H 342.482 -0.592175 4.1338 0
M  V30 3570 N 342.919 -1.39368 0.735821 0
M  V30 3571 C 344.167 -2.00101 0.283562 0
M  V30 3572 C 344.488 -1.5868 -1.13338 0
M  V30 3573 O 343.758 -0.835423 -1.77193 0
M  V30 3574 H 342.338 -0.740024 0.101851 0
M  V30 3575 H 345 -1.70404 0.945962 0
M  V30 3576 H 344.096 -3.10323 0.332604 0
M  V30 3577 N 344.397 -0.483516 -1.5 0
M  V30 3578 C 345.643 0.0672592 -2.02688 0
M  V30 3579 C 345.976 1.38247 -1.36387 0
M  V30 3580 O 345.251 1.88131 -0.493675 0
M  V30 3581 C 345.534 0.238109 -3.59312 0
M  V30 3582 C 345.387 -1.099 -4.36168 0
M  V30 3583 C 346.706 0.986916 -4.28892 0
M  V30 3584 H 343.825 0.0229696 -0.736642 0
M  V30 3585 H 346.467 -0.631527 -1.79197 0
M  V30 3586 H 344.617 0.8333 -3.79458 0
M  V30 3587 H 346.289 -1.73172 -4.27562 0
M  V30 3588 H 344.532 -1.69261 -3.99416 0
M  V30 3589 H 345.203 -0.932954 -5.44059 0
M  V30 3590 H 347.679 0.482302 -4.13295 0
M  V30 3591 H 346.555 1.07527 -5.38265 0
M  V30 3592 H 346.816 2.0265 -3.92919 0
M  V30 3593 N 345.875 1.56104 -0.216619 0
M  V30 3594 C 346.805 2.23063 0.690296 0
M  V30 3595 C 347.786 1.20072 1.20485 0
M  V30 3596 O 348.971 1.48643 1.24976 0
M  V30 3597 C 346.101 2.90672 1.90072 0
M  V30 3598 C 345.055 4.00092 1.5202 0
M  V30 3599 C 344.381 4.54972 2.80899 0
M  V30 3600 C 345.681 5.17398 0.71391 0
M  V30 3601 H 347.375 2.99109 0.132038 0
M  V30 3602 H 344.921 1.43866 0.0620664 0
M  V30 3603 H 346.874 3.36204 2.54057 0
M  V30 3604 H 345.598 2.12066 2.48386 0
M  V30 3605 H 344.257 3.55283 0.903839 0
M  V30 3606 H 343.905 3.73102 3.37348 0
M  V30 3607 H 343.605 5.28817 2.56176 0
M  V30 3608 H 345.129 5.0322 3.45836 0
M  V30 3609 H 346.543 5.59342 1.25735 0
M  V30 3610 H 344.94 5.97444 0.563951 0
M  V30 3611 H 346.01 4.84088 -0.280527 0
M  V30 3612 N 347.353 -0.0568162 1.57498 0
M  V30 3613 C 348.578 -0.769402 1.92601 0
M  V30 3614 C 349.003 -1.69559 0.814336 0
M  V30 3615 O 348.361 -1.79811 -0.231903 0
M  V30 3616 C 348.409 -1.52634 3.26704 0
M  V30 3617 O 347.513 -2.63797 3.16994 0
M  V30 3618 H 346.854 -0.208909 0.63028 0
M  V30 3619 H 349.384 -0.0205798 2.0459 0
M  V30 3620 H 349.394 -1.90234 3.60936 0
M  V30 3621 H 348.069 -0.846875 4.07186 0
M  V30 3622 H 346.646 -2.28943 2.94346 0
M  V30 3623 N 348.832 -1.54138 -0.328536 0
M  V30 3624 C 350.057 -1.76378 -1.09112 0
M  V30 3625 C 350.482 -0.508596 -1.81094 0
M  V30 3626 O 349.84 0.539598 -1.73084 0
M  V30 3627 C 349.888 -2.95358 -2.06872 0
M  V30 3628 O 348.992 -2.66556 -3.14677 0
M  V30 3629 H 348.333 -0.584614 -0.314838 0
M  V30 3630 H 350.863 -2.01146 -0.374348 0
M  V30 3631 H 350.873 -3.22566 -2.4983 0
M  V30 3632 H 349.548 -3.86385 -1.5388 0
M  V30 3633 H 348.125 -2.50282 -2.7643 0
M  V30 3634 N 350.31 0.590341 -1.46126 0
M  V30 3635 C 351.538 1.37504 -1.54597 0
M  V30 3636 C 351.953 1.87897 -0.184447 0
M  V30 3637 O 351.31 1.63192 0.816984 0
M  V30 3638 C 351.361 2.56779 -2.54454 0
M  V30 3639 O 351.082 2.08476 -3.85317 0
M  V30 3640 C 352.583 3.49427 -2.72792 0
M  V30 3641 H 349.803 0.420325 -0.523037 0
M  V30 3642 H 352.347 0.718383 -1.91467 0
M  V30 3643 H 350.502 3.1845 -2.20609 0
M  V30 3644 H 350.916 2.86097 -4.396 0
M  V30 3645 H 352.39 4.29619 -3.466 0
M  V30 3646 H 352.867 4.00876 -1.79429 0
M  V30 3647 H 353.473 2.93598 -3.07702 0
M  V30 3648 N 351.788 1.33704 0.83433 0
M  V30 3649 C 353.035 1.25417 1.58987 0
M  V30 3650 C 353.363 -0.178869 1.93676 0
M  V30 3651 O 352.618 -1.13723 1.59265 0
M  V30 3652 C 352.917 2.07926 2.90692 0
M  V30 3653 C 352.583 3.57066 2.75345 0
M  V30 3654 C 351.245 3.97724 2.70867 0
M  V30 3655 C 353.597 4.51817 2.59828 0
M  V30 3656 C 350.925 5.31344 2.48778 0
M  V30 3657 C 353.277 5.85604 2.39272 0
M  V30 3658 C 351.941 6.25439 2.33199 0
M  V30 3659 H 351.211 0.458934 0.581774 0
M  V30 3660 H 353.858 1.65335 0.966261 0
M  V30 3661 H 352.163 1.608 3.57282 0
M  V30 3662 H 353.86 1.98868 3.48213 0
M  V30 3663 H 350.45 3.24785 2.79665 0
M  V30 3664 H 354.634 4.21311 2.62319 0
M  V30 3665 H 349.89 5.61241 2.42526 0
M  V30 3666 H 354.064 6.58623 2.2625 0
M  V30 3667 H 351.691 7.28914 2.15843 0
M  V30 3668 N 353.266 -1.05314 1.17247 0
M  V30 3669 C 354.512 -1.78699 0.971513 0
M  V30 3670 C 354.867 -1.85932 -0.494692 0
M  V30 3671 O 354.16 -1.34716 -1.36243 0
M  V30 3672 C 354.354 -3.2229 1.54479 0
M  V30 3673 C 354.183 -3.29052 3.06521 0
M  V30 3674 C 352.953 -3.3841 3.75242 0
M  V30 3675 C 355.151 -3.18095 4.04129 0
M  V30 3676 N 353.133 -3.34289 5.14902 0
M  V30 3677 C 354.504 -3.21331 5.30232 0
M  V30 3678 C 356.559 -3.02049 3.95817 0
M  V30 3679 C 355.262 -3.10169 6.4899 0
M  V30 3680 C 357.288 -2.92228 5.14156 0
M  V30 3681 C 356.65 -2.96096 6.39145 0
M  V30 3682 H 352.749 -0.66628 0.409383 0
M  V30 3683 H 355.333 -1.25553 1.4881 0
M  V30 3684 H 353.504 -3.7381 1.05455 0
M  V30 3685 H 355.236 -3.83905 1.28059 0
M  V30 3686 H 351.991 -3.43621 3.25917 0
M  V30 3687 H 352.415 -3.35702 5.87906 0
M  V30 3688 H 357.057 -2.97897 3.00029 0
M  V30 3689 H 354.775 -3.13076 7.44989 0
M  V30 3690 H 358.361 -2.80885 5.09505 0
M  V30 3691 H 357.241 -2.88568 7.29176 0
M  V30 3692 N 354.744 -0.972509 -1.24016 0
M  V30 3693 C 355.972 -0.654803 -1.96265 0
M  V30 3694 C 356.387 0.776708 -1.72083 0
M  V30 3695 O 355.744 1.52171 -1.00748 0
M  V30 3696 C 355.795 -0.92592 -3.49441 0
M  V30 3697 O 355.516 -2.30116 -3.72798 0
M  V30 3698 C 357.017 -0.623068 -4.38899 0
M  V30 3699 H 354.237 -0.243907 -0.6251 0
M  V30 3700 H 356.781 -1.30175 -1.57717 0
M  V30 3701 H 354.936 -0.325108 -3.86033 0
M  V30 3702 H 355.35 -2.38483 -4.67147 0
M  V30 3703 H 356.824 -0.863189 -5.45209 0
M  V30 3704 H 357.301 0.442754 -4.36963 0
M  V30 3705 H 357.907 -1.204 -4.07902 0
M  V30 3706 N 356.222 1.38976 -0.743202 0
M  V30 3707 C 357.47 1.99948 -0.29417 0
M  V30 3708 C 357.791 1.59279 1.12495 0
M  V30 3709 O 357.061 0.844808 1.76748 0
M  V30 3710 H 355.641 0.739473 -0.105774 0
M  V30 3711 H 358.303 1.699 -0.954986 0
M  V30 3712 H 357.399 3.10142 -0.349056 0
M  V30 3713 N 357.7 0.491464 1.49741 0
M  V30 3714 C 358.948 -0.0563141 2.02022 0
M  V30 3715 C 359.269 -1.38363 1.37407 0
M  V30 3716 O 358.539 -1.88702 0.526166 0
M  V30 3717 H 357.119 -0.0238014 0.746621 0
M  V30 3718 H 359.781 0.646533 1.83864 0
M  V30 3719 H 358.877 -0.192967 3.11503 0
M  V30 3720 N 359.178 -1.55987 0.224894 0
M  V30 3721 C 360.424 -1.98684 -0.406502 0
M  V30 3722 C 360.757 -1.11248 -1.59177 0
M  V30 3723 O 360.032 -0.170909 -1.93748 0
M  V30 3724 C 360.315 -3.50218 -0.837808 0
M  V30 3725 C 360.168 -4.48426 0.351332 0
M  V30 3726 C 361.487 -4.06243 -1.69278 0
M  V30 3727 H 358.606 -0.722337 -0.146283 0
M  V30 3728 H 361.248 -1.87255 0.321799 0
M  V30 3729 H 359.398 -3.60089 -1.45837 0
M  V30 3730 H 361.07 -4.50562 0.989526 0
M  V30 3731 H 359.313 -4.22159 0.998207 0
M  V30 3732 H 359.984 -5.52 0.00655905 0
M  V30 3733 H 362.46 -3.99337 -1.16914 0
M  V30 3734 H 361.336 -5.12581 -1.96346 0
M  V30 3735 H 361.597 -3.53332 -2.65723 0
M  V30 3736 N 360.656 0.0484629 -1.57525 0
M  V30 3737 C 361.589 1.08755 -2.00618 0
M  V30 3738 C 362.567 1.36272 -0.887058 0
M  V30 3739 O 363.751 1.49255 -1.15131 0
M  V30 3740 C 360.878 2.42675 -2.36277 0
M  V30 3741 C 359.924 2.31142 -3.58435 0
M  V30 3742 S 360.757 1.68326 -5.08357 0
M  V30 3743 C 361.913 3.03776 -5.47239 0
M  V30 3744 H 362.146 0.720415 -2.88439 0
M  V30 3745 H 359.679 0.257801 -1.52233 0
M  V30 3746 H 361.637 3.19699 -2.57494 0
M  V30 3747 H 360.298 2.76541 -1.48942 0
M  V30 3748 H 359.491 3.29957 -3.80978 0
M  V30 3749 H 359.093 1.62258 -3.36969 0
M  V30 3750 H 361.385 4.00106 -5.46737 0
M  V30 3751 H 362.328 2.85988 -6.47778 0
M  V30 3752 H 362.736 3.05456 -4.74718 0
M  V30 3753 N 362.134 1.5431 0.320358 0
M  V30 3754 C 363.064 1.86912 1.3995 0
M  V30 3755 C 364.045 0.726211 1.53819 0
M  V30 3756 O 365.23 0.980233 1.67646 0
M  V30 3757 C 362.36 2.09932 2.7667 0
M  V30 3758 C 361.314 3.25776 2.77586 0
M  V30 3759 C 360.64 3.34173 4.17412 0
M  V30 3760 C 361.94 4.6335 2.41048 0
M  V30 3761 H 363.634 2.77292 1.12914 0
M  V30 3762 H 361.18 1.33421 0.541738 0
M  V30 3763 H 363.133 2.31324 3.52232 0
M  V30 3764 H 361.857 1.16304 3.0519 0
M  V30 3765 H 360.516 3.04276 2.04479 0
M  V30 3766 H 360.164 2.38098 4.43078 0
M  V30 3767 H 359.864 4.12033 4.18931 0
M  V30 3768 H 361.388 3.57803 4.94782 0
M  V30 3769 H 362.802 4.84602 3.06324 0
M  V30 3770 H 361.199 5.43782 2.53813 0
M  V30 3771 H 362.269 4.65381 1.36193 0
M  V30 3772 N 363.613 -0.582584 1.46437 0
M  V30 3773 C 364.543 -1.70187 1.59871 0
M  V30 3774 C 365.524 -1.64066 0.449042 0
M  V30 3775 O 366.709 -1.82081 0.6753 0
M  V30 3776 C 363.839 -3.08827 1.58881 0
M  V30 3777 C 362.793 -3.29779 2.72819 0
M  V30 3778 C 362.119 -4.68947 2.5689 0
M  V30 3779 C 363.419 -3.17601 4.1464 0
M  V30 3780 H 365.113 -1.592 2.53566 0
M  V30 3781 H 362.659 -0.764472 1.22032 0
M  V30 3782 H 364.612 -3.86951 1.66873 0
M  V30 3783 H 363.336 -3.20713 0.617306 0
M  V30 3784 H 361.995 -2.54054 2.64296 0
M  V30 3785 H 361.643 -4.77599 1.57823 0
M  V30 3786 H 361.343 -4.83919 3.33312 0
M  V30 3787 H 362.867 -5.4924 2.66773 0
M  V30 3788 H 364.281 -3.8557 4.24274 0
M  V30 3789 H 362.678 -3.44094 4.9165 0
M  V30 3790 H 363.748 -2.14681 4.34788 0
M  V30 3791 N 365.091 -1.34144 -0.827227 0
M  V30 3792 C 366.054 -1.25264 -1.91942 0
M  V30 3793 C 367.054 -0.168866 -1.59911 0
M  V30 3794 O 368.244 -0.421198 -1.69031 0
M  V30 3795 C 365.376 -0.932952 -3.27885 0
M  V30 3796 H 366.569 -2.22357 -2.0124 0
M  V30 3797 H 364.122 -1.1837 -1.0207 0
M  V30 3798 H 364.857 0.0349917 -3.24281 0
M  V30 3799 H 364.642 -1.71682 -3.52516 0
M  V30 3800 H 366.132 -0.895874 -4.07877 0
M  V30 3801 N 366.569 1.04691 -1.17803 0
M  V30 3802 C 367.499 2.14494 -0.92275 0
M  V30 3803 C 368.48 1.69546 0.137179 0
M  V30 3804 O 369.665 1.94195 -0.0141108 0
M  V30 3805 C 366.795 3.44491 -0.440803 0
M  V30 3806 C 365.749 4.03031 -1.4405 0
M  V30 3807 C 365.075 5.28432 -0.81631 0
M  V30 3808 C 366.375 4.39932 -2.81527 0
M  V30 3809 H 368.069 2.36107 -1.84103 0
M  V30 3810 H 365.615 1.1347 -0.886599 0
M  V30 3811 H 367.568 4.2066 -0.249602 0
M  V30 3812 H 366.292 3.22546 0.513025 0
M  V30 3813 H 364.951 3.28937 -1.61853 0
M  V30 3814 H 364.599 5.02792 0.144511 0
M  V30 3815 H 364.299 5.68559 -1.48371 0
M  V30 3816 H 365.823 6.07284 -0.635496 0
M  V30 3817 H 367.237 5.07113 -2.67412 0
M  V30 3818 H 365.634 4.9109 -3.44892 0
M  V30 3819 H 366.704 3.50045 -3.35554 0
M  V30 3820 N 368.047 0.979072 1.23499 0
M  V30 3821 C 369.293 0.648178 1.92163 0
M  V30 3822 C 369.626 -0.816049 1.76222 0
M  V30 3823 O 368.901 -1.58849 1.12237 0
M  V30 3824 C 369.184 1.03773 3.44824 0
M  V30 3825 C 369.037 2.55948 3.69879 0
M  V30 3826 C 370.356 0.580653 4.36253 0
M  V30 3827 H 367.475 0.236952 0.69787 0
M  V30 3828 H 370.117 1.22012 1.45647 0
M  V30 3829 H 368.267 0.551058 3.84572 0
M  V30 3830 H 369.939 3.12179 3.3962 0
M  V30 3831 H 368.182 2.98641 3.14636 0
M  V30 3832 H 368.853 2.78255 4.76737 0
M  V30 3833 H 371.329 0.998465 4.03943 0
M  V30 3834 H 370.205 0.881663 5.41773 0
M  V30 3835 H 370.466 -0.519052 4.39042 0
M  V30 3836 N 369.525 -1.3858 0.750561 0
M  V30 3837 C 370.773 -1.99789 0.30477 0
M  V30 3838 C 371.094 -1.59874 -1.11649 0
M  V30 3839 O 370.364 -0.85417 -1.76297 0
M  V30 3840 H 368.944 -0.738902 0.109694 0
M  V30 3841 H 371.606 -1.69391 0.963983 0
M  V30 3842 H 370.702 -3.09952 0.365499 0
M  V30 3843 N 371.003 -0.499398 -1.49478 0
M  V30 3844 C 372.233 0.0424839 -2.06556 0
M  V30 3845 C 372.641 1.31514 -1.36018 0
M  V30 3846 O 371.984 1.78555 -0.431718 0
M  V30 3847 C 372.046 0.368074 -3.57611 0
M  V30 3848 C 371.71 -0.806631 -4.49825 0
M  V30 3849 C 372.707 -1.69667 -4.91436 0
M  V30 3850 C 370.392 -1.00498 -4.92144 0
M  V30 3851 C 372.386 -2.76923 -5.74101 0
M  V30 3852 C 370.073 -2.08072 -5.74586 0
M  V30 3853 C 371.071 -2.96119 -6.15469 0
M  V30 3854 O 370.759 -4.01836 -6.96264 0
M  V30 3855 H 370.491 -0.0165165 -0.675798 0
M  V30 3856 H 373.045 -0.695497 -1.93267 0
M  V30 3857 H 371.275 1.15963 -3.68903 0
M  V30 3858 H 372.964 0.848381 -3.96935 0
M  V30 3859 H 373.73 -1.55524 -4.59388 0
M  V30 3860 H 369.609 -0.329036 -4.59824 0
M  V30 3861 H 373.153 -3.45676 -6.05932 0
M  V30 3862 H 369.05 -2.22211 -6.06047 0
M  V30 3863 H 369.818 -3.9917 -7.14567 0
M  V30 3864 N 372.481 1.55866 -0.233164 0
M  V30 3865 C 373.411 2.23783 0.666599 0
M  V30 3866 C 374.392 1.21343 1.19205 0
M  V30 3867 O 375.577 1.4996 1.23392 0
M  V30 3868 C 372.707 2.92671 1.86978 0
M  V30 3869 C 371.661 4.01682 1.47768 0
M  V30 3870 C 370.987 4.57926 2.76058 0
M  V30 3871 C 372.287 5.18126 0.658993 0
M  V30 3872 H 373.981 2.99232 0.100306 0
M  V30 3873 H 371.527 1.43924 0.046804 0
M  V30 3874 H 373.48 3.3888 2.50476 0
M  V30 3875 H 372.204 2.14688 2.46123 0
M  V30 3876 H 370.863 3.56222 0.866106 0
M  V30 3877 H 370.511 3.76659 3.33372 0
M  V30 3878 H 370.211 5.31505 2.50552 0
M  V30 3879 H 371.735 5.06859 3.40479 0
M  V30 3880 H 373.149 5.60644 1.19795 0
M  V30 3881 H 371.546 5.98009 0.500552 0
M  V30 3882 H 372.616 4.83763 -0.331856 0
M  V30 3883 N 373.959 -0.0401083 1.57549 0
M  V30 3884 C 375.208 -0.732108 1.87944 0
M  V30 3885 C 375.521 -1.77107 0.830206 0
M  V30 3886 O 376.727 -2.51488 1.02302 0
M  V30 3887 C 375.183 -1.35315 3.33494 0
M  V30 3888 C 374.791 -0.351105 4.46622 0
M  V30 3889 C 376.535 -2.02566 3.73051 0
M  V30 3890 C 374.442 -0.979859 5.83226 0
M  V30 3891 H 373.372 -0.277188 0.701201 0
M  V30 3892 H 376.023 0.0138501 1.83495 0
M  V30 3893 H 374.405 -2.14844 3.32653 0
M  V30 3894 H 375.579 0.416674 4.58912 0
M  V30 3895 H 373.894 0.218708 4.15825 0
M  V30 3896 H 376.491 -2.50441 4.72423 0
M  V30 3897 H 376.834 -2.83904 3.04474 0
M  V30 3898 H 377.367 -1.29827 3.76018 0
M  V30 3899 H 374.106 -0.206135 6.55176 0
M  V30 3900 H 373.626 -1.71774 5.74677 0
M  V30 3901 H 375.305 -1.49046 6.29599 0
M  V30 3902 N 375.437 -1.54477 -0.31217 0
M  V30 3903 C 376.853 -1.45442 -0.657185 0
M  V30 3904 C 377.053 -0.63653 -1.91182 0
M  V30 3905 O 376.109 -0.139815 -2.52113 0
M  V30 3906 C 377.422 -2.89287 -0.82058 0
M  V30 3907 C 378.97 -2.9926 -0.917188 0
M  V30 3908 C 379.445 -4.44279 -1.11267 0
M  V30 3909 N 380.936 -4.4794 -1.17914 0
M  V30 3910 C 381.671 -5.57318 -1.34848 0
M  V30 3911 N 381.167 -6.76642 -1.48752 0
M  V30 3912 N 382.96 -5.44986 -1.37647 0
M  V30 3913 H 375.111 -2.06129 0.512313 0
M  V30 3914 H 377.374 -0.933088 0.167485 0
M  V30 3915 H 377.08 -3.51687 0.0302604 0
M  V30 3916 H 376.954 -3.36061 -1.71298 0
M  V30 3917 H 379.341 -2.36981 -1.75852 0
M  V30 3918 H 379.422 -2.558 -0.00101257 0
M  V30 3919 H 379.066 -5.07149 -0.27614 0
M  V30 3920 H 378.996 -4.85359 -2.04289 0
M  V30 3921 H 381.487 -3.61969 -1.08567 0
M  V30 3922 H 381.8 -7.55758 -1.61397 0
M  V30 3923 H 380.145 -6.79529 -1.45828 0
M  V30 3924 H 383.336 -4.50715 -1.26388 0
M  V30 3925 H 383.509 -6.3028 -1.50501 0
M  V30 3926 N 376.915 0.57481 -1.46744 0
M  V30 3927 C 378.192 1.3352 -1.4294 0
M  V30 3928 C 378.572 2.10775 -0.117009 0
M  V30 3929 O 377.92 2.09966 0.901474 0
M  V30 3930 C 378.13 2.25456 -2.66403 0
M  V30 3931 C 379.478 2.87035 -3.12883 0
M  V30 3932 O 380.502 2.35766 -2.67007 0
M  V30 3933 O 379.361 3.80179 -3.92589 0
M  V30 3934 H 376.455 0.600318 -0.568812 0
M  V30 3935 H 379.001 0.595171 -1.58921 0
M  V30 3936 H 377.773 1.67851 -3.53471 0
M  V30 3937 H 377.396 3.06785 -2.52921 0
M  V30 3938 N 378.394 1.34581 0.820102 0
M  V30 3939 C 379.64 1.28294 1.57836 0
M  V30 3940 C 379.995 -0.145099 1.91852 0
M  V30 3941 O 379.288 -1.09209 1.57429 0
M  V30 3942 C 379.482 2.10997 2.8847 0
M  V30 3943 C 379.311 3.61698 2.67216 0
M  V30 3944 C 378.081 4.3097 2.63805 0
M  V30 3945 C 380.279 4.55638 2.38534 0
M  V30 3946 N 378.261 5.67502 2.34126 0
M  V30 3947 C 379.632 5.80194 2.18574 0
M  V30 3948 C 381.687 4.44523 2.24285 0
M  V30 3949 C 380.39 6.94886 1.8581 0
M  V30 3950 C 382.416 5.5905 1.92916 0
M  V30 3951 C 381.778 6.82627 1.73782 0
M  V30 3952 H 377.877 0.524697 0.579842 0
M  V30 3953 H 380.461 1.69323 0.961139 0
M  V30 3954 H 378.632 1.7226 3.48111 0
M  V30 3955 H 380.364 1.96333 3.53886 0
M  V30 3956 H 377.119 3.83438 2.77978 0
M  V30 3957 H 377.543 6.39525 2.22118 0
M  V30 3958 H 382.185 3.49599 2.37782 0
M  V30 3959 H 379.903 7.89789 1.7105 0
M  V30 3960 H 383.489 5.52396 1.82619 0
M  V30 3961 H 382.369 7.69748 1.49861 0
M  V30 3962 N 379.872 -1.04064 1.18357 0
M  V30 3963 C 381.288 -1.2947 0.933258 0
M  V30 3964 C 381.488 -1.97466 -0.401169 0
M  V30 3965 O 380.544 -2.25528 -1.13549 0
M  V30 3966 C 381.857 -2.15337 2.09882 0
M  V30 3967 C 383.405 -2.28683 2.13712 0
M  V30 3968 C 383.88 -3.17917 3.29686 0
M  V30 3969 N 385.371 -3.25504 3.29547 0
M  V30 3970 C 386.106 -3.94706 4.15926 0
M  V30 3971 N 385.602 -4.66239 5.12439 0
M  V30 3972 N 387.395 -3.90986 4.0384 0
M  V30 3973 H 379.546 -0.583359 2.04232 0
M  V30 3974 H 381.809 -0.319921 0.892387 0
M  V30 3975 H 381.515 -1.72682 3.06389 0
M  V30 3976 H 381.389 -3.16015 2.05947 0
M  V30 3977 H 383.776 -2.70575 1.17784 0
M  V30 3978 H 383.857 -1.27596 2.21705 0
M  V30 3979 H 383.501 -2.76736 4.25887 0
M  V30 3980 H 383.431 -4.19036 3.1893 0
M  V30 3981 H 385.922 -2.74547 2.59677 0
M  V30 3982 H 386.235 -5.16638 5.74722 0
M  V30 3983 H 384.58 -4.65143 5.16398 0
M  V30 3984 H 387.771 -3.34234 3.27727 0
M  V30 3985 H 387.944 -4.44646 4.71375 0
M  V30 3986 N 381.35 -0.985608 -1.22978 0
M  V30 3987 C 382.596 -0.667998 -1.92118 0
M  V30 3988 C 382.951 0.790454 -1.75413 0
M  V30 3989 O 382.244 1.56336 -1.10768 0
M  V30 3990 C 382.438 -1.00014 -3.43121 0
M  V30 3991 C 382.267 -2.48933 -3.74516 0
M  V30 3992 C 381.037 -3.15218 -3.94925 0
M  V30 3993 C 383.235 -3.47024 -3.79577 0
M  V30 3994 N 381.217 -4.53689 -4.13569 0
M  V30 3995 C 382.588 -4.70923 -4.03276 0
M  V30 3996 C 384.643 -3.41432 -3.62393 0
M  V30 3997 C 383.346 -5.89914 -4.11574 0
M  V30 3998 C 385.372 -4.59793 -3.71947 0
M  V30 3999 C 384.734 -5.82489 -3.96088 0
M  V30 4000 H 380.833 -0.295589 -0.723983 0
M  V30 4001 H 383.417 -1.26413 -1.4808 0
M  V30 4002 H 381.588 -0.432655 -3.85983 0
M  V30 4003 H 383.32 -0.63927 -3.99619 0
M  V30 4004 H 380.075 -2.65702 -3.92045 0
M  V30 4005 H 380.499 -5.25492 -4.26834 0
M  V30 4006 H 385.141 -2.47594 -3.4272 0
M  V30 4007 H 382.859 -6.84164 -4.30053 0
M  V30 4008 H 386.445 -4.57048 -3.59998 0
M  V30 4009 H 385.325 -6.72546 -4.033 0
M  V30 4010 N 382.828 1.3818 -0.7579 0
M  V30 4011 C 383.758 2.33027 -0.148597 0
M  V30 4012 C 384.739 1.55085 0.69875 0
M  V30 4013 O 385.924 1.83384 0.639053 0
M  V30 4014 C 383.054 3.3928 0.742034 0
M  V30 4015 C 382.008 4.28 -0.00291946 0
M  V30 4016 C 381.334 5.25146 1.00625 0
M  V30 4017 C 382.634 5.08938 -1.17385 0
M  V30 4018 H 384.328 2.84231 -0.940909 0
M  V30 4019 H 381.874 1.36659 -0.453908 0
M  V30 4020 H 383.827 4.046 1.17799 0
M  V30 4021 H 382.551 2.86569 1.56671 0
M  V30 4022 H 381.21 3.64192 -0.419504 0
M  V30 4023 H 380.858 4.68721 1.8251 0
M  V30 4024 H 380.558 5.85361 0.512428 0
M  V30 4025 H 382.082 5.93342 1.44143 0
M  V30 4026 H 383.496 5.67474 -0.815224 0
M  V30 4027 H 381.893 5.7841 -1.59882 0
M  V30 4028 H 382.963 4.42424 -1.98468 0
M  V30 4029 N 384.306 0.507319 1.49211 0
M  V30 4030 C 385.236 -0.256939 2.32082 0
M  V30 4031 C 386.217 -0.956609 1.40652 0
M  V30 4032 O 387.402 -0.946788 1.69557 0
M  V30 4033 C 384.532 -1.31802 3.21318 0
M  V30 4034 C 383.486 -0.737855 4.21592 0
M  V30 4035 C 382.812 -1.89992 4.99807 0
M  V30 4036 C 384.112 0.275325 5.21574 0
M  V30 4037 H 385.806 0.434798 2.96226 0
M  V30 4038 H 383.352 0.210546 1.42452 0
M  V30 4039 H 385.305 -1.86045 3.78107 0
M  V30 4040 H 384.029 -2.03903 2.5513 0
M  V30 4041 H 382.688 -0.217126 3.65956 0
M  V30 4042 H 382.336 -2.60877 4.30061 0
M  V30 4043 H 382.036 -1.51777 5.6766 0
M  V30 4044 H 383.56 -2.44657 5.59442 0
M  V30 4045 H 384.974 -0.179193 5.7302 0
M  V30 4046 H 383.371 0.573649 5.97352 0
M  V30 4047 H 384.441 1.18903 4.70096 0
M  V30 4048 N 385.784 -1.5574 0.241426 0
M  V30 4049 C 386.714 -2.24133 -0.654722 0
M  V30 4050 C 387.695 -1.21974 -1.1856 0
M  V30 4051 O 388.88 -1.50612 -1.22595 0
M  V30 4052 C 386.01 -2.93659 -1.85423 0
M  V30 4053 C 384.964 -4.0246 -1.45636 0
M  V30 4054 C 384.29 -4.59383 -2.73626 0
M  V30 4055 C 385.59 -5.18468 -0.631506 0
M  V30 4056 H 387.284 -2.99281 -0.0844353 0
M  V30 4057 H 384.83 -1.43947 -0.0391707 0
M  V30 4058 H 386.783 -3.40203 -2.48676 0
M  V30 4059 H 385.507 -2.15991 -2.44981 0
M  V30 4060 H 384.166 -3.56676 -0.847202 0
M  V30 4061 H 383.814 -3.78422 -3.3137 0
M  V30 4062 H 383.514 -5.32826 -2.4773 0
M  V30 4063 H 385.038 -5.08658 -3.37786 0
M  V30 4064 H 386.452 -5.61272 -1.1682 0
M  V30 4065 H 384.849 -5.98266 -0.468831 0
M  V30 4066 H 385.919 -4.8358 0.357506 0
M  V30 4067 N 387.262 0.0317525 -1.57568 0
M  V30 4068 C 388.225 1.01783 -2.0536 0
M  V30 4069 C 389.225 1.29203 -0.957253 0
M  V30 4070 O 390.415 1.24251 -1.22095 0
M  V30 4071 C 387.547 2.35137 -2.46827 0
M  V30 4072 H 388.74 0.605062 -2.93733 0
M  V30 4073 H 386.293 0.278514 -1.53799 0
M  V30 4074 H 387.028 2.81168 -1.61602 0
M  V30 4075 H 386.813 2.16566 -3.26866 0
M  V30 4076 H 388.303 3.05938 -2.84239 0
M  V30 4077 N 388.74 1.54641 0.303973 0
M  V30 4078 C 389.986 1.74038 1.04109 0
M  V30 4079 C 390.319 0.523051 1.87024 0
M  V30 4080 O 389.594 -0.479874 1.88487 0
M  V30 4081 C 389.877 3.02761 1.94955 0
M  V30 4082 C 389.73 4.34787 1.1524 0
M  V30 4083 C 391.049 3.27336 2.94175 0
M  V30 4084 H 388.168 0.63323 0.377079 0
M  V30 4085 H 390.81 1.87354 0.316001 0
M  V30 4086 H 388.96 2.9154 2.56782 0
M  V30 4087 H 390.632 4.57922 0.557236 0
M  V30 4088 H 388.875 4.31407 0.455053 0
M  V30 4089 H 389.546 5.21116 1.8205 0
M  V30 4090 H 392.022 3.38148 2.42477 0
M  V30 4091 H 390.898 4.18726 3.54908 0
M  V30 4092 H 391.159 2.45491 3.67677 0
M  V30 4093 N 390.218 -0.567019 1.47046 0
M  V30 4094 C 391.446 -1.35027 1.56765 0
M  V30 4095 C 391.861 -1.8758 0.214316 0
M  V30 4096 O 391.218 -1.64471 -0.790919 0
M  V30 4097 C 391.269 -2.52698 2.58507 0
M  V30 4098 O 390.99 -2.0232 3.88585 0
M  V30 4099 C 392.491 -3.45043 2.78316 0
M  V30 4100 H 389.711 -0.41195 0.529658 0
M  V30 4101 H 392.255 -0.687832 1.92585 0
M  V30 4102 H 390.41 -3.149 2.25648 0
M  V30 4103 H 390.824 -2.79068 4.44096 0
M  V30 4104 H 392.298 -4.2405 3.53391 0
M  V30 4105 H 392.775 -3.97971 1.85784 0
M  V30 4106 H 393.381 -2.88665 3.12334 0
M  V30 4107 N 391.696 -1.35014 -0.812953 0
M  V30 4108 C 392.626 -1.30069 -1.93919 0
M  V30 4109 C 393.607 -0.176275 -1.69184 0
M  V30 4110 O 394.792 -0.370227 -1.90638 0
M  V30 4111 C 391.922 -1.06547 -3.30552 0
M  V30 4112 C 390.876 -2.15561 -3.69753 0
M  V30 4113 C 390.202 -1.77214 -5.04479 0
M  V30 4114 C 391.502 -3.57476 -3.808 0
M  V30 4115 H 393.196 -2.24303 -1.98314 0
M  V30 4116 H 390.742 -1.07977 -0.952736 0
M  V30 4117 H 392.695 -1.01729 -4.08937 0
M  V30 4118 H 391.419 -0.0875719 -3.26483 0
M  V30 4119 H 390.078 -2.19466 -2.9365 0
M  V30 4120 H 389.726 -0.780589 -4.96906 0
M  V30 4121 H 389.426 -2.50184 -5.31678 0
M  V30 4122 H 390.95 -1.7391 -5.8531 0
M  V30 4123 H 392.364 -3.55929 -4.4943 0
M  V30 4124 H 390.761 -4.29152 -4.19462 0
M  V30 4125 H 391.831 -3.94091 -2.82525 0
M  V30 4126 N 393.175 1.03435 -1.18907 0
M  V30 4127 C 394.586 1.58195 -0.991523 0
M  V30 4128 C 394.937 1.90801 0.457081 0
M  V30 4129 O 394.062 1.70272 1.33553 0
M  V30 4130 C 394.657 2.87432 -1.79355 0
M  V30 4131 C 393.216 3.38785 -1.64017 0
M  V30 4132 C 392.363 2.12292 -1.78402 0
M  V30 4133 H 395.314 0.860299 -1.33359 0
M  V30 4134 H 395.335 3.58096 -1.28638 0
M  V30 4135 H 394.847 2.63669 -2.84781 0
M  V30 4136 H 392.948 3.67547 -0.611536 0
M  V30 4137 H 393.061 4.12186 -2.44212 0
M  V30 4138 H 391.425 2.23901 -1.2141 0
M  V30 4139 H 392.208 1.90977 -2.85277 0
M  V30 4140 N 394.653 0.992116 1.22453 0
M  V30 4141 C 395.893 0.675727 1.92907 0
M  V30 4142 C 396.257 -0.777762 1.75542 0
M  V30 4143 O 397.458 -1.20553 2.40251 0
M  V30 4144 C 395.729 1.0696 3.4102 0
M  V30 4145 S 397.288 0.871456 4.30059 0
M  V30 4146 H 394.106 0.247089 0.666684 0
M  V30 4147 H 396.708 1.27423 1.48269 0
M  V30 4148 H 395.412 2.12383 3.51172 0
M  V30 4149 H 394.943 0.462858 3.90668 0
M  V30 4150 H 396.958 -0.238436 4.95627 0
M  V30 4151 N 396.131 -1.37776 0.765217 0
M  V30 4152 C 397.094 -2.28686 0.153416 0
M  V30 4153 C 398.094 -1.47727 -0.635081 0
M  V30 4154 O 399.284 -1.68027 -0.459632 0
M  V30 4155 C 396.416 -3.31608 -0.790495 0
M  V30 4156 H 397.609 -2.84297 0.954723 0
M  V30 4157 H 395.162 -1.46932 0.53299 0
M  V30 4158 H 395.897 -2.81109 -1.61705 0
M  V30 4159 H 395.682 -3.9144 -0.227348 0
M  V30 4160 H 397.172 -3.99559 -1.21419 0
M  V30 4161 N 397.609 -0.515225 -1.4894 0
M  V30 4162 C 399.02 -0.0710067 -1.86565 0
M  V30 4163 C 399.371 1.34733 -1.42623 0
M  V30 4164 O 398.496 2.00653 -0.810379 0
M  V30 4165 C 399.091 -0.122083 -3.3858 0
M  V30 4166 C 397.65 0.266863 -3.75453 0
M  V30 4167 C 396.797 -0.488376 -2.72966 0
M  V30 4168 H 399.748 -0.727266 -1.41055 0
M  V30 4169 H 399.769 0.669818 -3.74558 0
M  V30 4170 H 399.281 -1.15448 -3.70531 0
M  V30 4171 H 397.382 1.30196 -3.49113 0
M  V30 4172 H 397.495 -0.0624811 -4.79059 0
M  V30 4173 H 395.859 0.0635622 -2.54621 0
M  V30 4174 H 396.642 -1.52113 -3.07761 0
M  V30 4175 N 399.087 1.5561 -0.249682 0
M  V30 4176 C 400.335 1.98618 0.373548 0
M  V30 4177 C 400.656 1.13919 1.58264 0
M  V30 4178 O 399.926 0.222637 1.94631 0
M  V30 4179 H 398.506 0.733571 0.141006 0
M  V30 4180 H 401.168 1.91748 -0.349117 0
M  V30 4181 H 400.264 3.04584 0.680796 0
M  V30 4182 N 400.565 -0.0233959 1.57583 0
M  V30 4183 C 401.814 -0.712133 1.8871 0
M  V30 4184 C 402.127 -1.76217 0.848944 0
M  V30 4185 O 403.333 -2.50389 1.04964 0
M  V30 4186 C 401.789 -1.3177 3.3491 0
M  V30 4187 C 401.397 -0.303715 4.46969 0
M  V30 4188 C 403.141 -1.98598 3.75179 0
M  V30 4189 C 401.048 -0.917945 5.84233 0
M  V30 4190 H 399.978 -0.269735 0.704101 0
M  V30 4191 H 402.629 0.0333114 1.8347 0
M  V30 4192 H 401.011 -2.11304 3.34913 0
M  V30 4193 H 402.185 0.465325 4.58445 0
M  V30 4194 H 400.5 0.2628 4.1557 0
M  V30 4195 H 403.097 -2.45416 4.75053 0
M  V30 4196 H 403.44 -2.80659 3.07468 0
M  V30 4197 H 403.973 -1.25831 3.77374 0
M  V30 4198 H 400.712 -0.136633 6.55358 0
M  V30 4199 H 400.232 -1.65669 5.76467 0
M  V30 4200 H 401.911 -1.4236 6.31144 0
M  V30 4201 N 402.043 -1.548 -0.295768 0
M  V30 4202 C 402.973 -1.89115 -1.36959 0
M  V30 4203 C 403.954 -0.75059 -1.52644 0
M  V30 4204 O 405.139 -1.00678 -1.66065 0
M  V30 4205 C 402.269 -2.14307 -2.73295 0
M  V30 4206 C 401.223 -3.30151 -2.72368 0
M  V30 4207 C 400.549 -3.40772 -4.12042 0
M  V30 4208 C 401.849 -4.67126 -2.33646 0
M  V30 4209 H 403.543 -2.79053 -1.08488 0
M  V30 4210 H 401.089 -1.34266 -0.520443 0
M  V30 4211 H 403.042 -2.36898 -3.48507 0
M  V30 4212 H 401.766 -1.21145 -3.03301 0
M  V30 4213 H 400.425 -3.0749 -1.99613 0
M  V30 4214 H 400.073 -2.45117 -4.39234 0
M  V30 4215 H 399.773 -4.18645 -4.12322 0
M  V30 4216 H 401.297 -3.6563 -4.89027 0
M  V30 4217 H 402.711 -4.89414 -2.98575 0
M  V30 4218 H 401.108 -5.47751 -2.45129 0
M  V30 4219 H 402.178 -4.67489 -1.28772 0
M  V30 4220 N 403.521 0.559213 -1.47345 0
M  V30 4221 C 404.746 1.34676 -1.57725 0
M  V30 4222 C 405.171 1.86723 -0.227164 0
M  V30 4223 O 404.529 1.6286 0.796642 0
M  V30 4224 C 404.577 2.49399 -2.60447 0
M  V30 4225 O 403.681 3.51567 -2.15578 0
M  V30 4226 H 403.022 0.400115 -0.52991 0
M  V30 4227 H 405.552 0.676009 -1.93109 0
M  V30 4228 H 405.562 2.95996 -2.80803 0
M  V30 4229 H 404.237 2.10873 -3.58477 0
M  V30 4230 H 402.814 3.11289 -2.05313 0
M  V30 4231 N 404.999 1.35443 0.805782 0
M  V30 4232 C 405.929 1.31095 1.93226 0
M  V30 4233 C 406.91 0.185244 1.69088 0
M  V30 4234 O 408.095 0.380332 1.90439 0
M  V30 4235 C 405.225 1.08299 3.29983 0
M  V30 4236 C 404.179 2.17519 3.68605 0
M  V30 4237 C 403.505 1.79887 5.03532 0
M  V30 4238 C 404.805 3.5949 3.78898 0
M  V30 4239 H 406.499 2.25352 1.97122 0
M  V30 4240 H 404.045 1.0848 0.946996 0
M  V30 4241 H 405.998 1.03897 4.08391 0
M  V30 4242 H 404.722 0.104885 3.26432 0
M  V30 4243 H 403.381 2.2102 2.92482 0
M  V30 4244 H 403.029 0.80693 4.96485 0
M  V30 4245 H 402.729 2.53001 5.30344 0
M  V30 4246 H 404.253 1.77011 5.84379 0
M  V30 4247 H 405.667 3.58307 4.47536 0
M  V30 4248 H 404.064 4.31371 4.1718 0
M  V30 4249 H 405.134 3.95584 2.80431 0
M  V30 4250 N 406.477 -1.02803 1.19454 0
M  V30 4251 C 407.723 -1.76598 1.0092 0
M  V30 4252 C 408.078 -1.86939 -0.455142 0
M  V30 4253 O 407.371 -1.37575 -1.33355 0
M  V30 4254 C 407.565 -3.18941 1.6128 0
M  V30 4255 C 407.394 -3.22476 3.13431 0
M  V30 4256 C 406.164 -3.30375 3.82336 0
M  V30 4257 C 408.362 -3.09451 4.10785 0
M  V30 4258 N 406.344 -3.23292 5.21877 0
M  V30 4259 C 407.715 -3.10012 5.36929 0
M  V30 4260 C 409.77 -2.93585 4.02135 0
M  V30 4261 C 408.473 -2.96334 6.55423 0
M  V30 4262 C 410.499 -2.81256 5.20239 0
M  V30 4263 C 409.861 -2.82472 6.45282 0
M  V30 4264 H 405.96 -0.657447 0.423424 0
M  V30 4265 H 408.544 -1.22369 1.5144 0
M  V30 4266 H 406.715 -3.71489 1.1336 0
M  V30 4267 H 408.447 -3.81102 1.36173 0
M  V30 4268 H 405.202 -3.3663 3.33132 0
M  V30 4269 H 405.626 -3.23156 5.94894 0
M  V30 4270 H 410.268 -2.91466 3.0628 0
M  V30 4271 H 407.986 -2.97203 7.51463 0
M  V30 4272 H 411.572 -2.70014 5.15348 0
M  V30 4273 H 410.452 -2.73036 7.35133 0
M  V30 4274 N 407.956 -0.998596 -1.21925 0
M  V30 4275 C 409.202 -0.688337 -1.91399 0
M  V30 4276 C 409.557 0.771805 -1.76241 0
M  V30 4277 O 408.85 1.55153 -1.1242 0
M  V30 4278 C 409.044 -1.03648 -3.42041 0
M  V30 4279 C 408.873 -2.52892 -3.71855 0
M  V30 4280 C 407.643 -3.19389 -3.91559 0
M  V30 4281 C 409.841 -3.5103 -3.75875 0
M  V30 4282 N 407.823 -4.5805 -4.08734 0
M  V30 4283 C 409.194 -4.75174 -3.98259 0
M  V30 4284 C 411.249 -3.45257 -3.58751 0
M  V30 4285 C 409.952 -5.94247 -4.05294 0
M  V30 4286 C 411.978 -4.63712 -3.67049 0
M  V30 4287 C 411.34 -5.86658 -3.89887 0
M  V30 4288 H 407.439 -0.303251 -0.720807 0
M  V30 4289 H 410.023 -1.27977 -1.46731 0
M  V30 4290 H 408.194 -0.473569 -3.85502 0
M  V30 4291 H 409.926 -0.681619 -3.98919 0
M  V30 4292 H 406.681 -2.69846 -3.89205 0
M  V30 4293 H 407.105 -5.29989 -4.21237 0
M  V30 4294 H 411.747 -2.51215 -3.40075 0
M  V30 4295 H 409.465 -6.88687 -4.22772 0
M  V30 4296 H 413.051 -4.6084 -3.5513 0
M  V30 4297 H 411.931 -6.76786 -3.96144 0
M  V30 4298 N 409.434 1.37368 -0.772513 0
M  V30 4299 C 410.68 1.99969 -0.337681 0
M  V30 4300 C 411.013 1.61184 1.08321 0
M  V30 4301 O 410.288 0.858395 1.74533 0
M  V30 4302 C 410.571 3.56858 -0.482121 0
M  V30 4303 C 410.424 4.0555 -1.94549 0
M  V30 4304 C 411.743 4.39955 0.113143 0
M  V30 4305 H 408.862 0.726464 -0.124171 0
M  V30 4306 H 411.504 1.63034 -0.975699 0
M  V30 4307 H 409.654 3.88452 0.0610361 0
M  V30 4308 H 411.326 3.84518 -2.54841 0
M  V30 4309 H 409.569 3.57715 -2.45403 0
M  V30 4310 H 410.24 5.14587 -1.9976 0
M  V30 4311 H 412.716 4.14623 -0.35031 0
M  V30 4312 H 411.592 5.48897 -0.0180514 0
M  V30 4313 H 411.853 4.25403 1.20354 0
M  V30 4314 N 410.912 0.523116 1.48665 0
M  V30 4315 C 412.323 0.0808997 1.86525 0
M  V30 4316 C 412.674 -1.33975 1.43336 0
M  V30 4317 O 411.799 -2.00221 0.821009 0
M  V30 4318 C 412.394 0.140037 3.3851 0
M  V30 4319 C 410.953 -0.246948 3.75589 0
M  V30 4320 C 410.1 0.502845 2.72703 0
M  V30 4321 H 413.051 0.734736 1.40667 0
M  V30 4322 H 413.072 -0.649945 3.74908 0
M  V30 4323 H 412.584 1.17412 3.69914 0
M  V30 4324 H 410.685 -1.28343 3.49798 0
M  V30 4325 H 410.798 0.0878859 4.79019 0
M  V30 4326 H 409.162 -0.0500581 2.54651 0
M  V30 4327 H 409.945 1.53743 3.0695 0
M  V30 4328 N 412.39 -1.55475 0.257931 0
M  V30 4329 C 413.3 -2.2549 -0.647425 0
M  V30 4330 C 414.316 -1.2748 -1.18427 0
M  V30 4331 O 415.492 -1.6038 -1.2182 0
M  V30 4332 C 412.557 -2.94916 -1.82278 0
M  V30 4333 C 411.618 -4.08363 -1.32432 0
M  V30 4334 C 410.851 -4.74469 -2.44366 0
M  V30 4335 O 411.074 -4.39701 -3.63344 0
M  V30 4336 O 410.008 -5.62763 -2.13497 0
M  V30 4337 H 413.834 -3.03593 -0.0807707 0
M  V30 4338 H 411.419 -1.49377 0.0259962 0
M  V30 4339 H 413.301 -3.38606 -2.50846 0
M  V30 4340 H 411.976 -2.19744 -2.37685 0
M  V30 4341 H 410.883 -3.69166 -0.605605 0
M  V30 4342 H 412.216 -4.85385 -0.816211 0
M  V30 4343 N 413.868 0.0150385 -1.57593 0
M  V30 4344 C 415.093 0.718067 -1.94573 0
M  V30 4345 C 415.518 1.6734 -0.859005 0
M  V30 4346 O 414.876 1.80362 0.184147 0
M  V30 4347 C 414.924 1.43918 -3.30636 0
M  V30 4348 O 414.028 2.55299 -3.23876 0
M  V30 4349 H 413.369 0.192125 -0.635597 0
M  V30 4350 H 415.899 -0.0336708 -2.04572 0
M  V30 4351 H 415.909 1.80598 -3.65853 0
M  V30 4352 H 414.584 0.738619 -4.09289 0
M  V30 4353 H 413.161 2.21058 -3.00312 0
M  V30 4354 N 415.346 1.54954 0.287554 0
M  V30 4355 C 416.309 1.86076 1.33823 0
M  V30 4356 C 417.309 0.734414 1.43049 0
M  V30 4357 O 418.499 1.00266 1.42452 0
M  V30 4358 C 415.631 2.05305 2.72144 0
M  V30 4359 H 416.824 2.79984 1.07465 0
M  V30 4360 H 414.377 1.47223 0.524902 0
M  V30 4361 H 415.112 1.1373 3.03704 0
M  V30 4362 H 414.897 2.873 2.66836 0
M  V30 4363 H 416.387 2.30706 3.48087 0
M  V30 4364 N 416.824 -0.551391 1.4764 0
M  V30 4365 C 418.24 -0.877887 1.33287 0
M  V30 4366 C 418.44 -1.98817 0.327721 0
M  V30 4367 O 417.496 -2.51171 -0.258695 0
M  V30 4368 C 418.809 -1.26563 2.72768 0
M  V30 4369 C 420.357 -1.37673 2.81097 0
M  V30 4370 C 420.832 -1.79799 4.21232 0
M  V30 4371 N 422.323 -1.8694 4.23802 0
M  V30 4372 C 423.058 -2.20876 5.29151 0
M  V30 4373 N 422.554 -2.53386 6.448 0
M  V30 4374 N 424.347 -2.217 5.16532 0
M  V30 4375 H 416.498 0.18153 2.11623 0
M  V30 4376 H 418.761 0.0185514 0.947818 0
M  V30 4377 H 418.467 -0.523591 3.47781 0
M  V30 4378 H 418.341 -2.22052 3.04915 0
M  V30 4379 H 420.728 -2.10956 2.06353 0
M  V30 4380 H 420.809 -0.40357 2.52596 0
M  V30 4381 H 420.453 -1.07083 4.96483 0
M  V30 4382 H 420.383 -2.78128 4.4716 0
M  V30 4383 H 422.874 -1.64179 3.40373 0
M  V30 4384 H 423.187 -2.78325 7.20941 0
M  V30 4385 H 421.532 -2.50953 6.48111 0
M  V30 4386 H 424.723 -1.95745 4.25207 0
M  V30 4387 H 424.896 -2.47818 5.98741 0
M  V30 4388 N 418.302 -1.35869 -0.798587 0
M  V30 4389 C 419.548 -1.30788 -1.55775 0
M  V30 4390 C 419.903 0.114558 -1.92059 0
M  V30 4391 O 419.196 1.06691 -1.59147 0
M  V30 4392 C 419.39 -2.1556 -2.85077 0
M  V30 4393 C 419.219 -3.65904 -2.61428 0
M  V30 4394 C 417.989 -4.35112 -2.56915 0
M  V30 4395 C 420.187 -4.59375 -2.31255 0
M  V30 4396 N 418.169 -5.71155 -2.25068 0
M  V30 4397 C 419.54 -5.83598 -2.09316 0
M  V30 4398 C 421.595 -4.48035 -2.17185 0
M  V30 4399 C 420.298 -6.97755 -1.74731 0
M  V30 4400 C 422.324 -5.62049 -1.83998 0
M  V30 4401 C 421.686 -6.85305 -1.629 0
M  V30 4402 H 417.785 -0.533855 -0.571422 0
M  V30 4403 H 420.369 -1.7083 -0.934079 0
M  V30 4404 H 418.54 -1.77776 -3.45326 0
M  V30 4405 H 420.272 -2.01938 -3.50718 0
M  V30 4406 H 417.027 -3.87812 -2.71843 0
M  V30 4407 H 417.451 -6.42978 -2.11916 0
M  V30 4408 H 422.093 -3.53338 -2.3219 0
M  V30 4409 H 419.811 -7.92411 -1.58464 0
M  V30 4410 H 423.397 -5.55232 -1.73808 0
M  V30 4411 H 422.277 -7.72034 -1.37596 0
M  V30 4412 N 419.78 1.02168 -1.19998 0
M  V30 4413 C 420.71 2.12488 -0.96804 0
M  V30 4414 C 421.691 1.69799 0.101185 0
M  V30 4415 O 422.876 1.94121 -0.0552993 0
M  V30 4416 C 420.006 3.43479 -0.513776 0
M  V30 4417 C 418.96 3.99884 -1.52566 0
M  V30 4418 C 418.286 5.26582 -0.928214 0
M  V30 4419 C 419.586 4.33861 -2.90795 0
M  V30 4420 H 421.28 2.32149 -1.89069 0
M  V30 4421 H 418.826 1.11564 -0.910468 0
M  V30 4422 H 420.779 4.20036 -0.338774 0
M  V30 4423 H 419.503 3.23561 0.444493 0
M  V30 4424 H 418.162 3.25429 -1.68794 0
M  V30 4425 H 417.81 5.02986 0.0378289 0
M  V30 4426 H 417.51 5.65284 -1.60397 0
M  V30 4427 H 419.034 6.05799 -0.764167 0
M  V30 4428 H 420.448 5.01327 -2.78109 0
M  V30 4429 H 418.845 4.83664 -3.55231 0
M  V30 4430 H 419.915 3.42848 -3.42904 0
M  V30 4431 N 421.258 1.00505 1.21394 0
M  V30 4432 C 422.188 0.585684 2.26035 0
M  V30 4433 C 423.169 -0.393525 1.65485 0
M  V30 4434 O 424.354 -0.281497 1.92149 0
M  V30 4435 C 421.484 -0.0884283 3.47187 0
M  V30 4436 C 420.438 0.810567 4.20254 0
M  V30 4437 C 419.764 0.00286382 5.347 0
M  V30 4438 C 421.064 2.1132 4.77641 0
M  V30 4439 H 422.758 1.46039 2.61368 0
M  V30 4440 H 420.304 0.703648 1.25638 0
M  V30 4441 H 422.257 -0.393286 4.19561 0
M  V30 4442 H 420.981 -0.997766 3.10986 0
M  V30 4443 H 419.64 1.09925 3.49731 0
M  V30 4444 H 419.288 -0.907765 4.94741 0
M  V30 4445 H 418.988 0.601444 5.84514 0
M  V30 4446 H 420.512 -0.295808 6.09883 0
M  V30 4447 H 421.926 1.87148 5.41893 0
M  V30 4448 H 420.323 2.66164 5.37845 0
M  V30 4449 H 421.393 2.78393 3.9702 0
M  V30 4450 N 422.737 -1.36956 0.779787 0
M  V30 4451 C 423.965 -2.03755 0.359398 0
M  V30 4452 C 424.38 -1.58807 -1.02106 0
M  V30 4453 O 423.737 -0.773024 -1.6532 0
M  V30 4454 C 423.788 -3.59251 0.402568 0
M  V30 4455 O 423.509 -4.02557 1.72858 0
M  V30 4456 C 425.01 -4.43291 -0.0284068 0
M  V30 4457 H 422.23 -0.654148 0.149437 0
M  V30 4458 H 424.774 -1.75128 1.05595 0
M  V30 4459 H 422.929 -3.86621 -0.245478 0
M  V30 4460 H 423.343 -4.97111 1.67275 0
M  V30 4461 H 424.817 -5.51975 0.0529466 0
M  V30 4462 H 425.294 -4.25719 -1.07982 0
M  V30 4463 H 425.9 -4.21163 0.591758 0
M  V30 4464 N 424.215 -0.530993 -1.48385 0
M  V30 4465 C 425.147 0.268353 -2.27624 0
M  V30 4466 C 426.16 0.903525 -1.35426 0
M  V30 4467 O 427.349 0.781796 -1.60469 0
M  V30 4468 C 424.449 1.39535 -3.08842 0
M  V30 4469 C 423.622 0.861913 -4.28824 0
M  V30 4470 C 422.681 1.87016 -4.91845 0
M  V30 4471 O 421.707 1.4267 -5.5103 0
M  V30 4472 N 422.909 3.20238 -4.84178 0
M  V30 4473 H 425.674 -0.41123 -2.96865 0
M  V30 4474 H 423.235 -0.365387 -1.57723 0
M  V30 4475 H 425.227 2.06803 -3.47871 0
M  V30 4476 H 423.797 1.97859 -2.42014 0
M  V30 4477 H 423.017 0.0132126 -3.94198 0
M  V30 4478 H 424.305 0.484415 -5.06489 0
M  V30 4479 H 423.703 3.58932 -4.37246 0
M  V30 4480 H 422.26 3.83136 -5.27305 0
M  V30 4481 N 425.693 1.55336 -0.266172 0
M  V30 4482 C 426.941 1.99003 0.35246 0
M  V30 4483 C 427.262 1.15591 1.57047 0
M  V30 4484 O 426.532 0.243268 1.94384 0
M  V30 4485 H 425.112 0.735025 0.133217 0
M  V30 4486 H 427.774 1.91367 -0.369434 0
M  V30 4487 H 426.87 3.05289 0.648453 0
M  V30 4488 N 427.171 -0.0066808 1.57599 0
M  V30 4489 C 428.121 -1.0086 2.04478 0
M  V30 4490 C 429.105 -1.30714 0.938231 0
M  V30 4491 O 430.297 -1.29924 1.20203 0
M  V30 4492 C 427.426 -2.30273 2.54615 0
M  V30 4493 C 426.512 -2.03413 3.72134 0
M  V30 4494 N 426.903 -1.46688 4.84062 0
M  V30 4495 C 425.201 -2.33589 3.79937 0
M  V30 4496 C 425.902 -1.36146 5.65543 0
M  V30 4497 N 424.878 -1.84477 5.1134 0
M  V30 4498 H 428.68 -0.564402 2.8843 0
M  V30 4499 H 426.194 -0.212521 1.61003 0
M  V30 4500 H 428.191 -3.02885 2.86472 0
M  V30 4501 H 426.851 -2.75352 1.72079 0
M  V30 4502 H 427.862 -1.14658 5.05049 0
M  V30 4503 H 424.539 -2.81589 3.08243 0
M  V30 4504 H 425.929 -0.925873 6.6549 0
M  V30 4505 N 428.649 -1.55105 -0.279332 0
M  V30 4506 C 429.895 -1.75672 -1.01327 0
M  V30 4507 C 430.228 -0.552739 -1.86168 0
M  V30 4508 O 429.503 0.449827 -1.89227 0
M  V30 4509 C 429.786 -3.05825 -1.90114 0
M  V30 4510 C 429.639 -4.36565 -1.08309 0
M  V30 4511 C 430.958 -3.31975 -2.8893 0
M  V30 4512 H 428.077 -0.639149 -0.366957 0
M  V30 4513 H 430.719 -1.87833 -0.286154 0
M  V30 4514 H 428.869 -2.95588 -2.52111 0
M  V30 4515 H 430.541 -4.58751 -0.484314 0
M  V30 4516 H 428.784 -4.32076 -0.386362 0
M  V30 4517 H 429.455 -5.23946 -1.73737 0
M  V30 4518 H 431.931 -3.41963 -2.37067 0
M  V30 4519 H 430.807 -4.2432 -3.48201 0
M  V30 4520 H 431.068 -2.51309 -3.63725 0
M  V30 4521 N 430.127 0.543554 -1.4793 0
M  V30 4522 C 431.074 1.64942 -1.6144 0
M  V30 4523 C 432.044 1.59692 -0.456903 0
M  V30 4524 O 433.229 1.78321 -0.678688 0
M  V30 4525 C 430.369 3.03238 -1.64744 0
M  V30 4526 C 429.482 3.18823 -2.91506 0
M  V30 4527 C 428.617 4.47599 -2.86057 0
M  V30 4528 C 427.656 4.56664 -4.07584 0
M  V30 4529 N 426.793 5.76811 -4.00292 0
M  V30 4530 H 431.633 1.52733 -2.55884 0
M  V30 4531 H 429.17 0.7438 -1.2691 0
M  V30 4532 H 431.128 3.83339 -1.64641 0
M  V30 4533 H 429.758 3.1425 -0.738017 0
M  V30 4534 H 428.81 2.32064 -3.01414 0
M  V30 4535 H 430.122 3.21384 -3.81463 0
M  V30 4536 H 429.276 5.35975 -2.84281 0
M  V30 4537 H 428.015 4.47538 -1.93807 0
M  V30 4538 H 427.02 3.66697 -4.09651 0
M  V30 4539 H 428.245 4.58474 -5.00978 0
M  V30 4540 H 426.191 5.77673 -3.10853 0
M  V30 4541 H 426.108 5.80808 -4.8394 0
M  V30 4542 H 427.376 6.67512 -4.02553 0
M  V30 4543 N 431.605 1.3629 0.791371 0
M  V30 4544 C 432.515 1.32606 1.93527 0
M  V30 4545 C 433.531 0.228541 1.72493 0
M  V30 4546 O 434.707 0.460571 1.96063 0
M  V30 4547 C 431.772 1.11271 3.28359 0
M  V30 4548 C 430.833 2.3048 3.62185 0
M  V30 4549 C 430.066 2.10154 4.90583 0
M  V30 4550 O 430.289 1.07572 5.60165 0
M  V30 4551 O 429.223 2.97884 5.23019 0
M  V30 4552 H 433.049 2.28909 1.99585 0
M  V30 4553 H 430.634 1.16818 0.931344 0
M  V30 4554 H 432.516 1.01283 4.09047 0
M  V30 4555 H 431.191 0.180292 3.23198 0
M  V30 4556 H 430.098 2.46036 2.81811 0
M  V30 4557 H 431.431 3.22221 3.72068 0
M  V30 4558 N 433.083 -1.0153 1.20538 0
M  V30 4559 C 434.046 -2.0826 0.957098 0
M  V30 4560 C 435.046 -1.60657 -0.0678655 0
M  V30 4561 O 436.236 -1.73385 0.168332 0
M  V30 4562 C 433.368 -3.38033 0.441188 0
M  V30 4563 H 434.561 -2.31719 1.90384 0
M  V30 4564 H 432.114 -1.1835 1.02093 0
M  V30 4565 H 432.849 -3.20249 -0.510961 0
M  V30 4566 H 432.634 -3.73911 1.18038 0
M  V30 4567 H 434.124 -4.16613 0.287009 0
M  V30 4568 N 434.561 -1.01147 -1.20859 0
M  V30 4569 C 435.511 -0.548247 -2.2131 0
M  V30 4570 C 436.495 0.393646 -1.5601 0
M  V30 4571 O 437.687 0.217445 -1.75659 0
M  V30 4572 C 434.816 0.117252 -3.431 0
M  V30 4573 C 433.902 -0.846043 -4.15575 0
M  V30 4574 N 434.293 -2.00149 -4.64515 0
M  V30 4575 C 432.591 -0.665783 -4.41003 0
M  V30 4576 C 433.292 -2.60764 -5.19978 0
M  V30 4577 N 432.268 -1.88868 -5.09735 0
M  V30 4578 H 436.07 -1.42921 -2.56809 0
M  V30 4579 H 433.584 -0.876142 -1.36739 0
M  V30 4580 H 435.581 0.46662 -4.1428 0
M  V30 4581 H 434.241 0.994115 -3.09107 0
M  V30 4582 H 435.252 -2.38162 -4.5989 0
M  V30 4583 H 431.929 0.163456 -4.1718 0
M  V30 4584 H 433.319 -3.58519 -5.68255 0
M  V30 4585 N 436.039 1.36541 -0.78704 0
M  V30 4586 C 437.455 1.52571 -0.46844 0
M  V30 4587 C 437.655 1.7415 1.01361 0
M  V30 4588 O 436.711 1.77163 1.79915 0
M  V30 4589 C 438.024 2.71299 -1.29682 0
M  V30 4590 C 439.572 2.85169 -1.29027 0
M  V30 4591 C 440.047 4.06898 -2.10233 0
M  V30 4592 N 441.538 4.1404 -2.07666 0
M  V30 4593 C 442.273 5.07301 -2.67271 0
M  V30 4594 N 441.769 6.06021 -3.35724 0
M  V30 4595 N 443.562 4.99898 -2.57018 0
M  V30 4596 H 435.713 1.20788 -1.74711 0
M  V30 4597 H 437.976 0.589364 -0.742532 0
M  V30 4598 H 437.682 2.61868 -2.34773 0
M  V30 4599 H 437.556 3.6539 -0.936479 0
M  V30 4600 H 439.943 2.94062 -0.247284 0
M  V30 4601 H 440.024 1.91992 -1.69035 0
M  V30 4602 H 439.668 3.98766 -3.1456 0
M  V30 4603 H 439.598 4.99218 -1.67597 0
M  V30 4604 H 442.089 3.43357 -1.57843 0
M  V30 4605 H 442.402 6.73741 -3.78541 0
M  V30 4606 H 440.747 6.06253 -3.39826 0
M  V30 4607 H 443.938 4.21724 -2.03142 0
M  V30 4608 H 444.111 5.72392 -3.03761 0
M  V30 4609 N 437.518 0.538854 1.48102 0
M  V30 4610 C 438.748 0.0122958 2.06596 0
M  V30 4611 C 439.156 -1.27861 1.39457 0
M  V30 4612 O 438.499 -1.77348 0.478907 0
M  V30 4613 C 438.561 -0.273131 3.58461 0
M  V30 4614 C 438.225 0.92561 4.47528 0
M  V30 4615 C 439.222 1.82637 4.86765 0
M  V30 4616 C 436.907 1.13511 4.89306 0
M  V30 4617 C 438.901 2.92047 5.66558 0
M  V30 4618 C 436.588 2.23233 5.68868 0
M  V30 4619 C 437.586 3.12333 6.07402 0
M  V30 4620 O 437.274 4.20155 6.85365 0
M  V30 4621 H 437.006 0.0344283 0.675123 0
M  V30 4622 H 439.56 0.746494 1.91355 0
M  V30 4623 H 437.79 -1.06141 3.71848 0
M  V30 4624 H 439.479 -0.742842 3.99045 0
M  V30 4625 H 440.245 1.67649 4.55103 0
M  V30 4626 H 436.124 0.450835 4.5879 0
M  V30 4627 H 439.668 3.6162 5.96554 0
M  V30 4628 H 435.565 2.38201 5.99942 0
M  V30 4629 H 436.333 4.17975 7.03732 0
M  V30 4630 N 438.996 -1.55193 0.274407 0
M  V30 4631 C 439.926 -2.25471 -0.607032 0
M  V30 4632 C 440.907 -1.24461 -1.15946 0
M  V30 4633 O 442.092 -1.53179 -1.19373 0
M  V30 4634 C 439.222 -2.97526 -1.79153 0
M  V30 4635 C 438.176 -4.05459 -1.37067 0
M  V30 4636 C 437.502 -4.65084 -2.6382 0
M  V30 4637 C 438.802 -5.19691 -0.521389 0
M  V30 4638 H 440.496 -2.99393 -0.0209343 0
M  V30 4639 H 438.042 -1.43997 -0.00862866 0
M  V30 4640 H 439.995 -3.45402 -2.41404 0
M  V30 4641 H 438.719 -2.21138 -2.40344 0
M  V30 4642 H 437.378 -3.58393 -0.771355 0
M  V30 4643 H 437.026 -3.85365 -3.23268 0
M  V30 4644 H 436.726 -5.37961 -2.36372 0
M  V30 4645 H 438.25 -5.15708 -3.26921 0
M  V30 4646 H 439.664 -5.63623 -1.04889 0
M  V30 4647 H 438.061 -5.99126 -0.341825 0
M  V30 4648 H 439.131 -4.82713 0.46 0
M  V30 4649 N 440.474 -0.00167713 -1.576 0
M  V30 4650 C 441.404 0.988091 -2.11563 0
M  V30 4651 C 442.385 1.35736 -1.02517 0
M  V30 4652 O 443.57 1.44082 -1.30208 0
M  V30 4653 C 440.7 2.27941 -2.62031 0
M  V30 4654 C 439.654 2.0517 -3.75619 0
M  V30 4655 C 438.98 3.4033 -4.12407 0
M  V30 4656 C 440.28 1.41294 -5.02825 0
M  V30 4657 H 441.974 0.538771 -2.94513 0
M  V30 4658 H 439.52 0.257712 -1.41675 0
M  V30 4659 H 441.473 2.97539 -2.9841 0
M  V30 4660 H 440.197 2.74989 -1.76205 0
M  V30 4661 H 438.856 1.37998 -3.39635 0
M  V30 4662 H 438.504 3.85085 -3.23603 0
M  V30 4663 H 438.204 3.25909 -4.88935 0
M  V30 4664 H 439.728 4.1124 -4.51347 0
M  V30 4665 H 441.142 2.00851 -5.36965 0
M  V30 4666 H 439.539 1.37356 -5.84169 0
M  V30 4667 H 440.609 0.382362 -4.8339 0
M  V30 4668 N 441.952 1.55251 0.271103 0
M  V30 4669 C 442.902 1.84649 1.33749 0
M  V30 4670 C 443.886 0.705529 1.44607 0
M  V30 4671 O 445.078 0.966916 1.48256 0
M  V30 4672 C 442.207 2.12354 2.69742 0
M  V30 4673 C 441.293 3.32714 2.62988 0
M  V30 4674 N 441.684 4.52575 2.25853 0
M  V30 4675 C 439.982 3.35341 2.94045 0
M  V30 4676 C 440.683 5.34669 2.29136 0
M  V30 4677 N 439.659 4.73123 2.67685 0
M  V30 4678 H 443.461 2.74865 1.0405 0
M  V30 4679 H 440.975 1.55152 0.479738 0
M  V30 4680 H 442.972 2.31572 3.4667 0
M  V30 4681 H 441.632 1.23422 3.00328 0
M  V30 4682 H 442.643 4.78639 1.978 0
M  V30 4683 H 439.32 2.56608 3.2933 0
M  V30 4684 H 440.71 6.40509 2.02971 0
M  V30 4685 N 443.43 -0.535701 1.48216 0
M  V30 4686 C 444.67 -1.30238 1.57536 0
M  V30 4687 C 445.034 -1.90479 0.241229 0
M  V30 4688 O 446.235 -2.67983 0.20938 0
M  V30 4689 C 444.506 -2.3669 2.67792 0
M  V30 4690 S 446.065 -3.23159 2.9684 0
M  V30 4691 H 442.883 -0.443093 0.556048 0
M  V30 4692 H 445.485 -0.610937 1.85709 0
M  V30 4693 H 444.189 -1.90905 3.63296 0
M  V30 4694 H 443.72 -3.10548 2.41502 0
M  V30 4695 H 445.735 -4.36647 2.35699 0
M  V30 4696 N 444.908 -1.36708 -0.784132 0
M  V30 4697 C 445.871 -1.31307 -1.87859 0
M  V30 4698 C 446.871 -0.219654 -1.59293 0
M  V30 4699 O 448.061 -0.47476 -1.67606 0
M  V30 4700 C 445.193 -1.03679 -3.24751 0
M  V30 4701 H 446.386 -2.28647 -1.94064 0
M  V30 4702 H 443.939 -1.21558 -0.98252 0
M  V30 4703 H 444.674 -0.0681936 -3.24228 0
M  V30 4704 H 444.459 -1.82811 -3.46876 0
M  V30 4705 H 445.949 -1.02518 -4.04821 0
M  V30 4706 N 446.386 1.0089 -1.21074 0
M  V30 4707 C 447.802 1.2695 -0.967257 0
M  V30 4708 C 448.002 1.9846 0.348673 0
M  V30 4709 O 447.058 2.28459 1.0753 0
M  V30 4710 C 448.371 2.09697 -2.15517 0
M  V30 4711 C 449.919 2.22937 -2.197 0
M  V30 4712 C 450.394 3.09064 -3.37999 0
M  V30 4713 N 451.885 3.16653 -3.38061 0
M  V30 4714 C 452.62 3.8354 -4.26245 0
M  V30 4715 N 452.116 4.52488 -5.2462 0
M  V30 4716 N 453.909 3.80141 -4.14064 0
M  V30 4717 H 446.06 0.529005 -2.05707 0
M  V30 4718 H 448.323 0.296148 -0.900556 0
M  V30 4719 H 448.029 1.64497 -3.10859 0
M  V30 4720 H 447.903 3.10444 -2.14253 0
M  V30 4721 H 450.29 2.67357 -1.24916 0
M  V30 4722 H 450.371 1.21673 -2.2501 0
M  V30 4723 H 450.015 2.65347 -4.33074 0
M  V30 4724 H 449.945 4.10433 -3.29928 0
M  V30 4725 H 452.436 2.67566 -2.66865 0
M  V30 4726 H 452.749 5.01219 -5.88217 0
M  V30 4727 H 451.094 4.51288 -5.28549 0
M  V30 4728 H 454.285 3.25427 -3.36474 0
M  V30 4729 H 454.458 4.31992 -4.82998 0
M  V30 4730 N 447.864 1.01787 1.20321 0
M  V30 4731 C 448.794 0.609625 2.25401 0
M  V30 4732 C 449.775 -0.375951 1.65893 0
M  V30 4733 O 450.96 -0.261101 1.92437 0
M  V30 4734 C 448.09 -0.0515995 3.47262 0
M  V30 4735 C 447.044 0.855095 4.19371 0
M  V30 4736 C 446.37 0.0595757 5.34667 0
M  V30 4737 C 447.67 2.16374 4.75373 0
M  V30 4738 H 449.364 1.48803 2.59804 0
M  V30 4739 H 446.91 0.716934 1.24884 0
M  V30 4740 H 448.863 -0.348764 4.19954 0
M  V30 4741 H 447.587 -0.964726 3.12027 0
M  V30 4742 H 446.246 1.13628 3.48546 0
M  V30 4743 H 445.894 -0.85524 4.95676 0
M  V30 4744 H 445.594 0.663406 5.83843 0
M  V30 4745 H 447.118 -0.231105 6.10162 0
M  V30 4746 H 448.532 1.92885 5.39878 0
M  V30 4747 H 446.929 2.71853 5.34991 0
M  V30 4748 H 447.999 2.82589 3.94045 0
M  V30 4749 N 449.342 -1.36122 0.79427 0
M  V30 4750 C 450.29 -2.31871 0.184023 0
M  V30 4751 C 451.284 -1.56041 -0.659365 0
M  V30 4752 O 452.49 -1.71266 -0.553906 0
M  V30 4753 H 448.865 -0.750896 0.0407373 0
M  V30 4754 H 450.836 -2.80898 1.00693 0
M  V30 4755 C 449.585 -3.41324 -0.662813 0
M  V30 4756 H 448.908 -3.99793 -0.0231944 0
M  V30 4757 H 450.348 -4.10629 -1.05639 0
M  V30 4758 C 448.807 -2.83308 -1.82313 0
M  V30 4759 O 449.337 -2.75863 -2.91997 0
M  V30 4760 N 447.543 -2.40529 -1.63077 0
M  V30 4761 H 447.09 -2.46785 -0.738591 0
M  V30 4762 H 447.048 -2.02059 -2.40872 0
M  V30 4763 N 450.82 -0.546701 -1.47814 0
M  V30 4764 C 452.068 -0.0187037 -2.02091 0
M  V30 4765 C 452.389 1.33168 -1.42447 0
M  V30 4766 O 451.659 1.86619 -0.595839 0
M  V30 4767 H 450.239 -0.00392531 -0.74699 0
M  V30 4768 H 452.901 -0.714327 -1.81338 0
M  V30 4769 H 451.997 0.0772219 -3.12004 0
M  V30 4770 N 452.299 1.55045 -0.282633 0
M  V30 4771 C 453.715 1.59441 0.0712997 0
M  V30 4772 C 453.915 1.2998 1.53972 0
M  V30 4773 O 452.971 1.06431 2.28973 0
M  V30 4774 C 454.284 2.99097 -0.310104 0
M  V30 4775 C 455.832 3.1194 -0.257343 0
M  V30 4776 C 456.307 4.53875 -0.613297 0
M  V30 4777 N 457.798 4.5974 -0.565134 0
M  V30 4778 C 458.533 5.67603 -0.81326 0
M  V30 4779 N 458.029 6.83582 -1.1264 0
M  V30 4780 N 459.822 5.57187 -0.741553 0
M  V30 4781 H 451.973 1.72458 -1.23984 0
M  V30 4782 H 454.236 0.804549 -0.501403 0
M  V30 4783 H 453.942 3.25516 -1.33163 0
M  V30 4784 H 453.816 3.75616 0.345366 0
M  V30 4785 H 456.203 2.85281 0.754905 0
M  V30 4786 H 456.284 2.37618 -0.947178 0
M  V30 4787 H 455.928 4.81261 -1.62327 0
M  V30 4788 H 455.858 5.26508 0.09841 0
M  V30 4789 H 458.349 3.76427 -0.333294 0
M  V30 4790 H 458.662 7.6175 -1.30219 0
M  V30 4791 H 457.007 6.85179 -1.16425 0
M  V30 4792 H 460.198 4.65457 -0.496705 0
M  V30 4793 H 460.371 6.41171 -0.938306 0
M  V30 4794 N 453.777 0.010035 1.57597 0
M  V30 4795 C 455.188 -0.531426 1.78977 0
M  V30 4796 C 455.539 -1.73375 0.918454 0
M  V30 4797 O 454.664 -2.16047 0.123635 0
M  V30 4798 C 455.259 -0.97086 3.24592 0
M  V30 4799 C 453.818 -1.45756 3.47033 0
M  V30 4800 C 452.965 -0.413384 2.74201 0
M  V30 4801 H 455.916 0.236166 1.56933 0
M  V30 4802 H 455.937 -1.83633 3.33255 0
M  V30 4803 H 455.449 -0.0955893 3.87982 0
M  V30 4804 H 453.55 -2.35339 2.88871 0
M  V30 4805 H 453.663 -1.4781 4.55729 0
M  V30 4806 H 452.027 -0.877266 2.39115 0
M  V30 4807 H 452.81 0.453092 3.40297 0
M  V30 4808 N 455.255 -1.55392 -0.262866 0
M  V30 4809 C 456.501 -1.76737 -0.99458 0
M  V30 4810 C 456.834 -0.572453 -1.85571 0
M  V30 4811 O 456.109 0.429732 -1.89693 0
M  V30 4812 C 456.392 -3.07824 -1.8686 0
M  V30 4813 C 456.245 -4.3769 -1.03672 0
M  V30 4814 C 457.564 -3.35021 -2.85393 0
M  V30 4815 H 454.683 -0.643005 -0.360157 0
M  V30 4816 H 457.325 -1.88126 -0.266216 0
M  V30 4817 H 455.475 -2.98245 -2.48962 0
M  V30 4818 H 457.147 -4.59238 -0.43563 0
M  V30 4819 H 455.39 -4.32461 -0.340513 0
M  V30 4820 H 456.061 -5.25759 -1.6817 0
M  V30 4821 H 458.537 -3.44458 -2.33426 0
M  V30 4822 H 457.413 -4.27989 -3.43681 0
M  V30 4823 H 457.674 -2.55153 -3.61039 0
M  V30 4824 N 456.733 0.527833 -1.48498 0
M  V30 4825 C 457.973 1.29401 -1.58224 0
M  V30 4826 C 458.337 1.90348 -0.251327 0
M  V30 4827 O 459.538 2.67868 -0.223588 0
M  V30 4828 C 457.809 2.35266 -2.69044 0
M  V30 4829 S 459.368 3.2158 -2.98549 0
M  V30 4830 H 456.186 0.440138 -0.558391 0
M  V30 4831 H 458.788 0.601079 -1.8603 0
M  V30 4832 H 457.492 1.88975 -3.64303 0
M  V30 4833 H 457.023 3.09263 -2.43146 0
M  V30 4834 H 459.038 4.35391 -2.38011 0
M  V30 4835 N 458.211 1.37122 0.776871 0
M  V30 4836 C 459.121 1.34651 1.9211 0
M  V30 4837 C 460.137 0.246824 1.7224 0
M  V30 4838 O 461.313 0.48134 1.95563 0
M  V30 4839 C 458.378 1.14748 3.2716 0
M  V30 4840 C 457.439 2.34308 3.5972 0
M  V30 4841 C 456.672 2.15345 4.88326 0
M  V30 4842 O 456.895 1.13507 5.58992 0
M  V30 4843 O 455.829 3.03414 5.1983 0
M  V30 4844 H 459.655 2.31013 1.97146 0
M  V30 4845 H 457.24 1.17799 0.918901 0
M  V30 4846 H 459.122 1.05616 4.0795 0
M  V30 4847 H 457.797 0.214562 3.22988 0
M  V30 4848 H 456.704 2.49011 2.79185 0
M  V30 4849 H 458.037 3.26149 3.68629 0
M  V30 4850 N 459.689 -1.00246 1.21608 0
M  V30 4851 C 460.966 -1.71336 0.943568 0
M  V30 4852 C 461.346 -2.03972 -0.543943 0
M  V30 4853 O 460.694 -1.71545 -1.50946 0
M  V30 4854 C 460.904 -2.97094 1.83128 0
M  V30 4855 C 462.252 -3.70071 2.08165 0
M  V30 4856 O 463.276 -3.07081 1.80498 0
M  V30 4857 O 462.135 -4.83376 2.54971 0
M  V30 4858 H 459.229 -0.747386 0.354039 0
M  V30 4859 H 461.775 -1.05967 1.32549 0
M  V30 4860 H 460.547 -2.69407 2.83788 0
M  V30 4861 H 460.17 -3.70204 1.45034 0
M  V30 4862 N 461.167 -1.02423 -1.1978 0
M  V30 4863 C 462.392 -0.7373 -1.93852 0
M  V30 4864 C 462.817 0.696923 -1.74713 0
M  V30 4865 O 462.175 1.48056 -1.04638 0
M  V30 4866 C 462.223 -1.08783 -3.438 0
M  V30 4867 O 461.327 -0.20383 -4.11896 0
M  V30 4868 H 460.668 -0.27284 -0.605355 0
M  V30 4869 H 463.198 -1.36966 -1.51992 0
M  V30 4870 H 463.208 -1.04276 -3.9445 0
M  V30 4871 H 461.883 -2.13274 -3.57053 0
M  V30 4872 H 460.46 -0.307091 -3.71633 0
M  V30 4873 N 462.645 1.35699 -0.801477 0
M  V30 4874 C 463.892 1.98913 -0.379459 0
M  V30 4875 C 464.22 1.63592 1.05204 0
M  V30 4876 O 463.475 0.888563 1.74365 0
M  V30 4877 C 463.774 3.53828 -0.504041 0
M  V30 4878 C 463.44 4.09002 -1.8981 0
M  V30 4879 C 462.102 4.23783 -2.27951 0
M  V30 4880 C 464.454 4.38939 -2.81038 0
M  V30 4881 C 461.782 4.65816 -3.56696 0
M  V30 4882 C 464.134 4.82409 -4.09224 0
M  V30 4883 C 462.798 4.95395 -4.4737 0
M  V30 4884 H 462.068 0.727874 -0.138854 0
M  V30 4885 H 464.715 1.61994 -1.02128 0
M  V30 4886 H 463.02 3.91175 0.221242 0
M  V30 4887 H 464.717 4.00687 -0.158361 0
M  V30 4888 H 461.307 3.97946 -1.59176 0
M  V30 4889 H 465.491 4.27077 -2.52821 0
M  V30 4890 H 460.747 4.74059 -3.86106 0
M  V30 4891 H 464.921 5.04535 -4.80018 0
M  V30 4892 H 462.548 5.27724 -5.47185 0
M  V30 4893 N 464.123 0.554532 1.47522 0
M  V30 4894 C 465.348 0.0322661 2.07375 0
M  V30 4895 C 465.773 -1.25079 1.40488 0
M  V30 4896 O 465.131 -1.74859 0.47896 0
M  V30 4897 C 465.179 -0.149397 3.6029 0
M  V30 4898 O 464.283 -1.21259 3.9417 0
M  V30 4899 H 463.624 0.0501228 0.662106 0
M  V30 4900 H 466.154 0.769452 1.8958 0
M  V30 4901 H 466.164 -0.364437 4.06369 0
M  V30 4902 H 464.839 0.787743 4.08372 0
M  V30 4903 H 463.416 -0.97825 3.5984 0
M  V30 4904 N 465.601 -1.54893 0.290851 0
M  V30 4905 C 466.533 -2.20564 -0.623236 0
M  V30 4906 C 467.546 -1.19519 -1.1054 0
M  V30 4907 O 468.735 -1.46165 -1.02459 0
M  V30 4908 C 465.835 -2.83033 -1.86401 0
M  V30 4909 C 465.008 -4.09916 -1.52604 0
M  V30 4910 C 464.067 -4.56284 -2.62091 0
M  V30 4911 O 463.093 -5.2171 -2.27612 0
M  V30 4912 N 464.295 -4.27746 -3.92446 0
M  V30 4913 H 467.06 -2.99638 -0.0610915 0
M  V30 4914 H 464.621 -1.61508 0.112615 0
M  V30 4915 H 466.613 -3.1099 -2.58973 0
M  V30 4916 H 465.183 -2.0786 -2.33481 0
M  V30 4917 H 464.403 -3.89078 -0.633424 0
M  V30 4918 H 465.691 -4.92554 -1.27547 0
M  V30 4919 H 465.089 -3.7531 -4.23272 0
M  V30 4920 H 463.646 -4.60437 -4.61347 0
M  V30 4921 N 467.08 -0.0183926 -1.57589 0
M  V30 4922 C 467.99 0.982943 -2.13015 0
M  V30 4923 C 469.006 1.36443 -1.07979 0
M  V30 4924 O 470.182 1.44802 -1.3998 0
M  V30 4925 C 467.247 2.25024 -2.63752 0
M  V30 4926 C 466.308 1.93018 -3.83461 0
M  V30 4927 C 465.541 3.13706 -4.31769 0
M  V30 4928 O 465.764 4.2601 -3.79305 0
M  V30 4929 O 464.698 2.96629 -5.23732 0
M  V30 4930 H 468.524 0.541709 -2.9883 0
M  V30 4931 H 466.109 0.201565 -1.48034 0
M  V30 4932 H 467.991 2.99441 -2.96502 0
M  V30 4933 H 466.666 2.68349 -1.81026 0
M  V30 4934 H 465.573 1.16019 -3.55655 0
M  V30 4935 H 466.906 1.54516 -4.67317 0
M  V30 4936 N 468.558 1.5553 0.254621 0
M  V30 4937 C 469.521 1.88872 1.29846 0
M  V30 4938 C 470.521 0.764591 1.41459 0
M  V30 4939 O 471.711 1.03265 1.40293 0
M  V30 4940 C 468.843 2.11032 2.67728 0
M  V30 4941 H 470.036 2.82201 1.01502 0
M  V30 4942 H 467.589 1.48303 0.493556 0
M  V30 4943 H 468.324 1.20146 3.01223 0
M  V30 4944 H 468.109 2.92895 2.60682 0
M  V30 4945 H 469.599 2.38038 3.43115 0
M  V30 4946 N 470.036 -0.519951 1.48776 0
M  V30 4947 C 471.282 -1.27711 1.57536 0
M  V30 4948 C 471.615 -1.92547 0.252866 0
M  V30 4949 O 470.89 -1.7979 -0.742021 0
M  V30 4950 C 471.173 -2.35875 2.72094 0
M  V30 4951 C 471.026 -1.75664 4.1408 0
M  V30 4952 C 472.345 -3.37575 2.82367 0
M  V30 4953 H 469.464 -0.462971 0.573434 0
M  V30 4954 H 472.106 -0.578194 1.80989 0
M  V30 4955 H 470.256 -2.95488 2.52228 0
M  V30 4956 H 471.928 -1.20025 4.45412 0
M  V30 4957 H 470.171 -1.06154 4.20611 0
M  V30 4958 H 470.842 -2.54029 4.90075 0
M  V30 4959 H 473.318 -2.87929 3.00393 0
M  V30 4960 H 472.194 -4.1064 3.64233 0
M  V30 4961 H 472.455 -3.98743 1.90936 0
M  V30 4962 N 471.514 -1.37532 -0.769588 0
M  V30 4963 C 472.739 -1.36231 -1.56384 0
M  V30 4964 C 473.164 0.0495849 -1.88035 0
M  V30 4965 O 472.522 1.02723 -1.49391 0
M  V30 4966 C 472.57 -2.20986 -2.84952 0
M  V30 4967 O 471.674 -1.61597 -3.79421 0
M  V30 4968 H 471.015 -0.465387 -0.473615 0
M  V30 4969 H 473.545 -1.81085 -0.952342 0
M  V30 4970 H 473.555 -2.34277 -3.34034 0
M  V30 4971 H 472.23 -3.23612 -2.61243 0
M  V30 4972 H 470.807 -1.57359 -3.38072 0
M  V30 4973 N 472.992 0.995999 -1.22138 0
M  V30 4974 C 473.939 2.08551 -0.988687 0
M  V30 4975 C 474.909 1.65864 0.0885021 0
M  V30 4976 O 476.094 1.90704 -0.0604589 0
M  V30 4977 C 473.234 3.40374 -0.569191 0
M  V30 4978 C 472.347 3.96421 -1.71681 0
M  V30 4979 C 471.482 5.1639 -1.2456 0
M  V30 4980 C 470.521 5.64567 -2.36497 0
M  V30 4981 N 469.658 6.75777 -1.90445 0
M  V30 4982 H 474.498 2.2779 -1.92135 0
M  V30 4983 H 472.035 1.1168 -0.957388 0
M  V30 4984 H 473.993 4.16068 -0.307166 0
M  V30 4985 H 472.623 3.21145 0.326462 0
M  V30 4986 H 471.675 3.17628 -2.09324 0
M  V30 4987 H 472.987 4.2816 -2.55891 0
M  V30 4988 H 472.141 5.99362 -0.940774 0
M  V30 4989 H 470.88 4.86266 -0.373662 0
M  V30 4990 H 469.885 4.80185 -2.67772 0
M  V30 4991 H 471.11 5.96716 -3.24202 0
M  V30 4992 H 469.056 6.47443 -1.05609 0
M  V30 4993 H 468.973 7.06818 -2.68223 0
M  V30 4994 H 470.241 7.62262 -1.63022 0
M  V30 4995 N 474.47 1.03057 1.19235 0
M  V30 4996 C 475.716 0.729098 1.89241 0
M  V30 4997 C 476.049 -0.740573 1.79525 0
M  V30 4998 O 475.324 -1.53946 1.18874 0
M  V30 4999 C 475.607 1.18304 3.40112 0
M  V30 5000 C 475.46 2.71406 3.5869 0
M  V30 5001 C 476.779 0.765161 4.33397 0
M  V30 5002 H 473.898 0.266338 0.687192 0
M  V30 5003 H 476.54 1.28079 1.40341 0
M  V30 5004 H 474.69 0.713672 3.81889 0
M  V30 5005 H 476.362 3.26303 3.26074 0
M  V30 5006 H 474.605 3.11717 3.01687 0
M  V30 5007 H 475.276 2.98225 4.64506 0
M  V30 5008 H 477.752 1.16889 3.99345 0
M  V30 5009 H 476.628 1.11065 5.37546 0
M  V30 5010 H 476.889 -0.332372 4.40849 0
M  V30 5011 N 475.948 -1.35272 0.808662 0
M  V30 5012 C 476.911 -2.28082 0.226093 0
M  V30 5013 C 477.911 -1.49673 -0.587762 0
M  V30 5014 O 479.101 -1.69404 -0.405943 0
M  V30 5015 C 476.233 -3.33955 -0.684596 0
M  V30 5016 H 477.426 -2.81116 1.04469 0
M  V30 5017 H 474.979 -1.45162 0.579466 0
M  V30 5018 H 475.714 -2.86111 -1.5268 0
M  V30 5019 H 475.499 -3.91965 -0.102699 0
M  V30 5020 H 476.989 -4.03219 -1.08646 0
M  V30 5021 N 477.426 -0.562348 -1.47226 0
M  V30 5022 C 478.389 0.172056 -2.28553 0
M  V30 5023 C 479.389 0.837928 -1.37242 0
M  V30 5024 O 480.579 0.693001 -1.59822 0
M  V30 5025 C 477.711 1.25223 -3.17068 0
M  V30 5026 H 478.904 -0.542401 -2.94954 0
M  V30 5027 H 476.457 -0.319493 -1.53 0
M  V30 5028 H 477.192 1.99892 -2.55369 0
M  V30 5029 H 476.977 0.779515 -3.84273 0
M  V30 5030 H 478.467 1.76791 -3.78332 0
M  V30 5031 N 478.904 1.54736 -0.299062 0
M  V30 5032 C 480.152 1.99706 0.31017 0
M  V30 5033 C 480.473 1.18896 1.54559 0
M  V30 5034 O 479.743 0.284445 1.93824 0
M  V30 5035 H 478.323 0.737686 0.117596 0
M  V30 5036 H 480.985 1.9054 -0.409943 0
M  V30 5037 H 480.081 3.06596 0.58355 0
M  V30 5038 N 480.382 0.0267497 1.57577 0
M  V30 5039 C 481.292 -0.971633 2.13533 0
M  V30 5040 C 482.308 -1.35868 1.08701 0
M  V30 5041 O 483.484 -1.44058 1.40746 0
M  V30 5042 C 480.549 -2.23622 2.64941 0
M  V30 5043 C 479.61 -1.90982 3.8448 0
M  V30 5044 C 478.843 -3.11411 4.33427 0
M  V30 5045 O 479.066 -4.23992 3.81558 0
M  V30 5046 O 478 -2.93848 5.25297 0
M  V30 5047 H 481.826 -0.525853 2.99113 0
M  V30 5048 H 479.411 -0.193712 1.48139 0
M  V30 5049 H 481.293 -2.97864 2.98086 0
M  V30 5050 H 479.968 -2.67386 1.82446 0
M  V30 5051 H 478.875 -1.14132 3.56265 0
M  V30 5052 H 480.208 -1.52036 4.6813 0
M  V30 5053 N 481.861 -1.55662 -0.24637 0
M  V30 5054 C 483.277 -1.48098 -0.594907 0
M  V30 5055 C 483.477 -0.717044 -1.8831 0
M  V30 5056 O 482.533 -0.246618 -2.51293 0
M  V30 5057 C 483.846 -2.92507 -0.697146 0
M  V30 5058 C 485.394 -3.02881 -0.789436 0
M  V30 5059 C 485.869 -4.48598 -0.923232 0
M  V30 5060 N 487.36 -4.52538 -0.988088 0
M  V30 5061 C 488.095 -5.62536 -1.11089 0
M  V30 5062 N 487.591 -6.82342 -1.19919 0
M  V30 5063 N 489.384 -5.50334 -1.14408 0
M  V30 5064 H 481.535 -2.0377 0.599278 0
M  V30 5065 H 483.798 -0.925145 0.20691 0
M  V30 5066 H 483.504 -3.51242 0.179396 0
M  V30 5067 H 483.378 -3.43024 -1.5689 0
M  V30 5068 H 485.765 -2.44226 -1.65643 0
M  V30 5069 H 485.846 -2.55574 0.107482 0
M  V30 5070 H 485.49 -5.07864 -0.0607927 0
M  V30 5071 H 485.42 -4.93587 -1.8352 0
M  V30 5072 H 487.911 -3.66248 -0.931167 0
M  V30 5073 H 488.224 -7.61924 -1.29197 0
M  V30 5074 H 486.569 -6.85102 -1.16876 0
M  V30 5075 H 489.76 -4.5567 -1.07158 0
M  V30 5076 H 489.933 -6.36096 -1.23634 0
M  V30 5077 N 483.339 0.512053 -1.4905 0
M  V30 5078 C 484.585 1.26874 -1.58212 0
M  V30 5079 C 484.918 1.9241 -0.263073 0
M  V30 5080 O 484.193 1.80181 0.732476 0
M  V30 5081 C 484.476 2.34428 -2.73341 0
M  V30 5082 C 484.329 1.73466 -4.15006 0
M  V30 5083 C 485.648 3.36073 -2.84154 0
M  V30 5084 H 482.767 0.459924 -0.575881 0
M  V30 5085 H 485.409 0.568587 -1.81293 0
M  V30 5086 H 483.559 2.94146 -2.53792 0
M  V30 5087 H 485.231 1.17661 -4.46042 0
M  V30 5088 H 483.474 1.03921 -4.21168 0
M  V30 5089 H 484.145 2.51426 -4.91415 0
M  V30 5090 H 486.621 2.86332 -3.01916 0
M  V30 5091 H 485.497 4.08703 -3.66406 0
M  V30 5092 H 485.758 3.97725 -1.93048 0
M  V30 5093 N 484.817 1.37938 0.762283 0
M  V30 5094 C 486.063 1.33866 1.52341 0
M  V30 5095 C 486.396 -0.0738961 1.94059 0
M  V30 5096 O 485.671 -1.03326 1.64785 0
M  V30 5097 C 485.954 2.28644 2.78197 0
M  V30 5098 C 485.807 3.78722 2.42672 0
M  V30 5099 C 487.126 2.21702 3.80179 0
M  V30 5100 H 484.245 0.487593 0.55265 0
M  V30 5101 H 486.887 1.68717 0.873767 0
M  V30 5102 H 485.037 1.99055 3.33631 0
M  V30 5103 H 486.709 4.18948 1.93081 0
M  V30 5104 H 484.952 3.96827 1.75244 0
M  V30 5105 H 485.623 4.40486 3.3268 0
M  V30 5106 H 488.099 2.47805 3.34263 0
M  V30 5107 H 486.975 2.90143 4.65949 0
M  V30 5108 H 487.236 1.21301 4.25133 0
M  V30 5109 N 486.295 -0.989507 1.22664 0
M  V30 5110 C 487.711 -1.25395 0.987331 0
M  V30 5111 C 487.911 -1.9899 -0.317056 0
M  V30 5112 O 486.967 -2.30141 -1.03882 0
M  V30 5113 C 488.28 -2.06242 2.18826 0
M  V30 5114 C 489.828 -2.19413 2.23219 0
M  V30 5115 C 490.303 -3.03648 3.42873 0
M  V30 5116 N 491.794 -3.11234 3.43056 0
M  V30 5117 C 492.529 -3.7671 4.32293 0
M  V30 5118 N 492.025 -4.44085 5.31752 0
M  V30 5119 N 493.818 -3.73505 4.2006 0
M  V30 5120 H 485.969 -0.496212 2.06522 0
M  V30 5121 H 488.232 -0.281784 0.905153 0
M  V30 5122 H 487.938 -1.59531 3.13437 0
M  V30 5123 H 487.812 -3.06996 2.19165 0
M  V30 5124 H 490.199 -2.65336 1.29154 0
M  V30 5125 H 490.28 -1.18078 2.26917 0
M  V30 5126 H 489.924 -2.58424 4.37241 0
M  V30 5127 H 489.854 -4.05132 3.36416 0
M  V30 5128 H 492.345 -2.63287 2.71088 0
M  V30 5129 H 492.658 -4.91797 5.96117 0
M  V30 5130 H 491.003 -4.42822 5.35662 0
M  V30 5131 H 494.194 -3.20033 3.41609 0
M  V30 5132 H 494.367 -4.24253 4.8981 0
M  V30 5133 N 487.773 -1.03688 -1.18687 0
M  V30 5134 C 489.189 -0.755413 -1.4059 0
M  V30 5135 C 489.389 0.656659 -1.905 0
M  V30 5136 O 488.445 1.42144 -2.08689 0
M  V30 5137 C 489.758 -1.7983 -2.41001 0
M  V30 5138 C 491.306 -1.81877 -2.54735 0
M  V30 5139 C 491.781 -2.85148 -3.58406 0
M  V30 5140 N 493.272 -2.84015 -3.6591 0
M  V30 5141 C 494.007 -3.60573 -4.45841 0
M  V30 5142 N 493.503 -4.46871 -5.29413 0
M  V30 5143 N 495.296 -3.49079 -4.40568 0
M  V30 5144 H 487.447 -1.94818 -0.846148 0
M  V30 5145 H 489.71 -0.842727 -0.434184 0
M  V30 5146 H 489.416 -2.81097 -2.1137 0
M  V30 5147 H 489.29 -1.62727 -3.40294 0
M  V30 5148 H 491.677 -0.812836 -2.83685 0
M  V30 5149 H 491.758 -2.03057 -1.55568 0
M  V30 5150 H 491.402 -3.85918 -3.30197 0
M  V30 5151 H 491.332 -2.61224 -4.57241 0
M  V30 5152 H 493.823 -2.21431 -3.0623 0
M  V30 5153 H 494.136 -5.02007 -5.87545 0
M  V30 5154 H 492.481 -4.5094 -5.28846 0
M  V30 5155 H 495.672 -2.81066 -3.74325 0
M  V30 5156 H 495.845 -4.08994 -5.02621 0
M  V30 5157 N 489.251 1.34841 -0.815825 0
M  V30 5158 C 490.662 1.80937 -0.46029 0
M  V30 5159 C 491.013 1.67685 1.01863 0
M  V30 5160 O 490.138 1.21277 1.79223 0
M  V30 5161 C 490.733 3.28509 -0.828708 0
M  V30 5162 C 489.292 3.72712 -0.525644 0
M  V30 5163 C 488.439 2.56676 -1.04941 0
M  V30 5164 H 491.39 1.22688 -1.00664 0
M  V30 5165 H 491.411 3.80279 -0.129757 0
M  V30 5166 H 490.923 3.38122 -1.90513 0
M  V30 5167 H 489.024 3.68642 0.541666 0
M  V30 5168 H 489.137 4.67119 -1.06474 0
M  V30 5169 H 487.501 2.50302 -0.471286 0
M  V30 5170 H 488.284 2.69063 -2.13214 0
M  V30 5171 N 490.729 0.570148 1.46925 0
M  V30 5172 C 491.954 0.0542592 2.07329 0
M  V30 5173 C 492.379 -1.23582 1.41806 0
M  V30 5174 O 491.737 -1.74341 0.497479 0
M  V30 5175 C 491.785 -0.111175 3.60429 0
M  V30 5176 O 490.889 -1.17071 3.95434 0
M  V30 5177 H 490.23 0.0571425 0.661537 0
M  V30 5178 H 492.76 0.789516 1.88753 0
M  V30 5179 H 492.77 -0.321315 4.06733 0
M  V30 5180 H 491.445 0.831012 4.07513 0
M  V30 5181 H 490.022 -0.940029 3.60857 0
M  V30 5182 N 492.207 -1.54576 0.307264 0
M  V30 5183 C 493.437 -2.04378 -0.302158 0
M  V30 5184 C 493.845 -1.18381 -1.47589 0
M  V30 5185 O 493.188 -0.20352 -1.82569 0
M  V30 5186 C 493.25 -3.50133 -0.815305 0
M  V30 5187 C 492.914 -4.56401 0.233977 0
M  V30 5188 C 493.911 -5.08884 1.06456 0
M  V30 5189 C 491.596 -5.0088 0.377478 0
M  V30 5190 C 493.59 -6.04394 2.02452 0
M  V30 5191 C 491.277 -5.96208 1.34088 0
M  V30 5192 C 492.275 -6.47849 2.16288 0
M  V30 5193 O 491.963 -7.41308 3.10994 0
M  V30 5194 H 491.695 -0.672502 -0.0686839 0
M  V30 5195 H 494.249 -2.00484 0.446682 0
M  V30 5196 H 492.479 -3.51371 -1.61478 0
M  V30 5197 H 494.168 -3.83098 -1.34129 0
M  V30 5198 H 494.934 -4.75311 0.964596 0
M  V30 5199 H 490.813 -4.60309 -0.252405 0
M  V30 5200 H 494.357 -6.44626 2.66652 0
M  V30 5201 H 490.254 -6.29198 1.44154 0
M  V30 5202 H 491.022 -7.5913 3.06045 0
M  V30 5203 N 493.685 -0.035106 -1.57561 0
M  V30 5204 C 494.615 0.942993 -2.13612 0
M  V30 5205 C 495.596 1.33531 -1.05373 0
M  V30 5206 O 496.781 1.41287 -1.33235 0
M  V30 5207 C 493.911 2.22332 -2.66807 0
M  V30 5208 C 492.865 1.97156 -3.79886 0
M  V30 5209 C 492.191 3.31506 -4.19533 0
M  V30 5210 C 493.491 1.30596 -5.05709 0
M  V30 5211 H 495.185 0.476179 -2.95589 0
M  V30 5212 H 492.731 0.227602 -1.4219 0
M  V30 5213 H 494.684 2.91142 -3.04654 0
M  V30 5214 H 493.408 2.7119 -1.81999 0
M  V30 5215 H 492.067 1.30763 -3.42486 0
M  V30 5216 H 491.715 3.78134 -3.31698 0
M  V30 5217 H 491.415 3.15465 -4.95738 0
M  V30 5218 H 492.939 4.01574 -4.59968 0
M  V30 5219 H 494.353 1.89416 -5.41105 0
M  V30 5220 H 492.75 1.24934 -5.86951 0
M  V30 5221 H 493.82 0.279742 -4.84092 0
M  V30 5222 N 495.163 1.55791 0.238111 0
M  V30 5223 C 496.44 1.68798 0.98826 0
M  V30 5224 C 496.82 0.577562 2.03045 0
M  V30 5225 O 496.168 -0.41778 2.24648 0
M  V30 5226 C 496.378 3.09454 1.61367 0
M  V30 5227 C 497.726 3.68335 2.11221 0
M  V30 5228 O 498.75 3.1231 1.71292 0
M  V30 5229 O 497.609 4.6657 2.84561 0
M  V30 5230 H 494.703 0.686881 0.460568 0
M  V30 5231 H 497.249 1.68118 0.231202 0
M  V30 5232 H 496.021 3.81726 0.860295 0
M  V30 5233 H 495.644 3.14182 2.4367 0
M  V30 5234 N 496.642 -0.504142 1.49319 0
M  V30 5235 C 497.572 -1.61473 1.68667 0
M  V30 5236 C 498.553 -1.61455 0.535378 0
M  V30 5237 O 499.738 -1.78245 0.770868 0
M  V30 5238 C 496.868 -2.99971 1.75028 0
M  V30 5239 C 495.822 -3.14854 2.89916 0
M  V30 5240 C 495.148 -4.54671 2.81387 0
M  V30 5241 C 496.448 -2.95176 4.30893 0
M  V30 5242 H 498.142 -1.45535 2.61648 0
M  V30 5243 H 495.688 -0.698711 1.25913 0
M  V30 5244 H 497.641 -3.77562 1.8715 0
M  V30 5245 H 496.365 -3.1699 0.786441 0
M  V30 5246 H 495.024 -2.39687 2.77391 0
M  V30 5247 H 494.672 -4.68562 1.82917 0
M  V30 5248 H 494.372 -4.6557 3.58494 0
M  V30 5249 H 495.896 -5.34327 2.95512 0
M  V30 5250 H 497.31 -3.62538 4.44116 0
M  V30 5251 H 495.707 -3.17549 5.09198 0
M  V30 5252 H 496.777 -1.91332 4.45556 0
M  V30 5253 N 498.12 -1.38341 -0.754957 0
M  V30 5254 C 499.367 -1.34473 -1.51404 0
M  V30 5255 C 499.695 0.0656458 -1.94389 0
M  V30 5256 O 498.95 1.04244 -1.65625 0
M  V30 5257 C 499.249 -2.2452 -2.78075 0
M  V30 5258 C 498.915 -3.72512 -2.54059 0
M  V30 5259 C 497.577 -4.1284 -2.47218 0
M  V30 5260 C 499.929 -4.66197 -2.33044 0
M  V30 5261 C 497.257 -5.44945 -2.17376 0
M  V30 5262 C 499.609 -5.98558 -2.04723 0
M  V30 5263 C 498.273 -6.37972 -1.96337 0
M  V30 5264 H 497.543 -0.492072 -0.554027 0
M  V30 5265 H 500.19 -1.70687 -0.868223 0
M  V30 5266 H 498.495 -1.81357 -3.473 0
M  V30 5267 H 500.192 -2.18832 -3.36026 0
M  V30 5268 H 496.782 -3.40538 -2.60253 0
M  V30 5269 H 500.966 -4.35888 -2.37309 0
M  V30 5270 H 496.222 -5.74426 -2.09391 0
M  V30 5271 H 500.396 -6.70693 -1.87465 0
M  V30 5272 H 498.023 -7.40258 -1.72978 0
M  V30 5273 N 499.598 0.982988 -1.23187 0
M  V30 5274 C 501.014 1.2487 -0.993967 0
M  V30 5275 C 501.214 1.99155 0.306498 0
M  V30 5276 O 500.27 2.30688 1.0266 0
M  V30 5277 C 501.583 2.05078 -2.19917 0
M  V30 5278 C 503.131 2.18227 -2.2438 0
M  V30 5279 C 503.606 3.01825 -3.44479 0
M  V30 5280 N 505.097 3.09411 -3.44702 0
M  V30 5281 C 505.832 3.74412 -4.34285 0
M  V30 5282 N 505.328 4.41259 -5.341 0
M  V30 5283 N 507.121 3.71273 -4.22035 0
M  V30 5284 H 499.272 0.485253 -2.06783 0
M  V30 5285 H 501.535 0.276979 -0.906635 0
M  V30 5286 H 501.241 1.57867 -3.14279 0
M  V30 5287 H 501.115 3.05829 -2.2079 0
M  V30 5288 H 503.502 2.64648 -1.30559 0
M  V30 5289 H 503.583 1.16873 -2.2754 0
M  V30 5290 H 503.227 2.56102 -4.38605 0
M  V30 5291 H 503.157 4.03342 -3.38559 0
M  V30 5292 H 505.648 2.61845 -2.7248 0
M  V30 5293 H 505.961 4.88629 -5.98717 0
M  V30 5294 H 504.306 4.39975 -5.38002 0
M  V30 5295 H 507.497 3.18217 -3.43301 0
M  V30 5296 H 507.67 4.21649 -4.92053 0
M  V30 5297 N 501.076 1.04316 1.18135 0
M  V30 5298 C 502.304 0.768117 1.92113 0
M  V30 5299 C 502.719 -0.675057 1.76319 0
M  V30 5300 O 502.076 -1.46038 1.09449 0
M  V30 5301 C 502.127 1.12808 3.43448 0
M  V30 5302 O 501.848 2.5146 3.58747 0
M  V30 5303 C 503.349 0.8779 4.3452 0
M  V30 5304 H 500.569 0.279937 0.609817 0
M  V30 5305 H 503.113 1.39149 1.49859 0
M  V30 5306 H 501.268 0.549623 3.83481 0
M  V30 5307 H 501.682 2.65313 4.52448 0
M  V30 5308 H 503.156 1.17959 5.39249 0
M  V30 5309 H 503.633 -0.187239 4.38801 0
M  V30 5310 H 504.239 1.43977 4.00188 0
M  V30 5311 N 502.554 -1.34406 0.822964 0
M  V30 5312 C 503.965 -1.8069 0.469879 0
M  V30 5313 C 504.316 -1.68223 -1.00972 0
M  V30 5314 O 503.441 -1.22226 -1.78577 0
M  V30 5315 C 504.036 -3.28064 0.846118 0
M  V30 5316 C 502.595 -3.72428 0.545402 0
M  V30 5317 C 501.742 -2.56116 1.06301 0
M  V30 5318 H 504.693 -1.22153 1.01313 0
M  V30 5319 H 504.714 -3.80205 0.149922 0
M  V30 5320 H 504.226 -3.37107 1.92304 0
M  V30 5321 H 502.327 -3.68924 -0.522109 0
M  V30 5322 H 502.44 -4.66548 1.0895 0
M  V30 5323 H 500.804 -2.50048 0.484554 0
M  V30 5324 H 501.587 -2.67928 2.14638 0
M  V30 5325 N 504.032 -0.577932 -1.46621 0
M  V30 5326 C 505.448 -0.239242 -1.57797 0
M  V30 5327 C 505.648 1.25843 -1.57371 0
M  V30 5328 O 504.704 2.03988 -1.48813 0
M  V30 5329 C 506.017 -0.884227 -2.87405 0
M  V30 5330 C 507.565 -0.857373 -3.01028 0
M  V30 5331 C 508.04 -1.48181 -4.33366 0
M  V30 5332 N 509.531 -1.44593 -4.40053 0
M  V30 5333 C 510.266 -1.89852 -5.41058 0
M  V30 5334 N 509.762 -2.43062 -6.48762 0
M  V30 5335 N 511.555 -1.80797 -5.3223 0
M  V30 5336 H 503.706 -1.55073 -1.45142 0
M  V30 5337 H 505.969 -0.647903 -0.692044 0
M  V30 5338 H 505.675 -1.93759 -2.93514 0
M  V30 5339 H 505.549 -0.389585 -3.75183 0
M  V30 5340 H 507.936 0.187357 -2.94505 0
M  V30 5341 H 508.017 -1.38999 -2.14739 0
M  V30 5342 H 507.661 -2.52572 -4.40647 0
M  V30 5343 H 507.591 -0.924464 -5.18422 0
M  V30 5344 H 510.082 -1.05694 -3.62819 0
M  V30 5345 H 510.395 -2.75466 -7.22038 0
M  V30 5346 H 508.74 -2.47085 -6.49595 0
M  V30 5347 H 511.931 -1.38989 -4.46989 0
M  V30 5348 H 512.104 -2.16385 -6.10804 0
M  V30 5349 N 505.51 1.54411 -0.315457 0
M  V30 5350 C 506.44 2.27002 0.547039 0
M  V30 5351 C 507.421 1.27492 1.12605 0
M  V30 5352 O 508.606 1.5629 1.15269 0
M  V30 5353 C 505.736 3.02171 1.71201 0
M  V30 5354 C 504.69 4.0895 1.26268 0
M  V30 5355 C 504.016 4.71915 2.51396 0
M  V30 5356 C 505.316 5.20891 0.383419 0
M  V30 5357 H 507.01 2.99343 -0.0584517 0
M  V30 5358 H 504.556 1.4397 -0.0295527 0
M  V30 5359 H 506.509 3.51681 2.32161 0
M  V30 5360 H 505.233 2.27433 2.34397 0
M  V30 5361 H 503.892 3.60312 0.676062 0
M  V30 5362 H 503.54 3.93801 3.12937 0
M  V30 5363 H 503.24 5.44039 2.22026 0
M  V30 5364 H 504.764 5.24195 3.13133 0
M  V30 5365 H 506.178 5.66206 0.899082 0
M  V30 5366 H 504.575 5.99821 0.182857 0
M  V30 5367 H 505.645 4.81324 -0.587821 0
M  V30 5368 N 506.988 0.0434614 1.5754 0
M  V30 5369 C 508.404 -0.313039 1.565 0
M  V30 5370 C 508.604 -1.71954 1.05043 0
M  V30 5371 O 507.66 -2.425 0.703564 0
M  V30 5372 C 508.973 -0.148544 3.00333 0
M  V30 5373 C 510.521 -0.220231 3.12224 0
M  V30 5374 C 510.996 -0.0843565 4.57922 0
M  V30 5375 N 512.487 -0.140881 4.62986 0
M  V30 5376 C 513.222 -0.0597443 5.73369 0
M  V30 5377 N 512.718 0.0733004 6.92761 0
M  V30 5378 N 514.511 -0.11477 5.61983 0
M  V30 5379 H 506.662 0.96303 1.89313 0
M  V30 5380 H 508.925 0.373164 0.871466 0
M  V30 5381 H 508.631 0.820894 3.41986 0
M  V30 5382 H 508.505 -0.912798 3.65989 0
M  V30 5383 H 510.892 -1.18014 2.70475 0
M  V30 5384 H 510.973 0.574646 2.49262 0
M  V30 5385 H 510.617 0.872192 5.00355 0
M  V30 5386 H 510.547 -0.898281 5.18882 0
M  V30 5387 H 513.038 -0.243273 3.77116 0
M  V30 5388 H 513.351 0.128128 7.72694 0
M  V30 5389 H 511.696 0.10828 6.94916 0
M  V30 5390 H 514.887 -0.217212 4.67596 0
M  V30 5391 H 515.06 -0.0480779 6.47982 0
M  V30 5392 N 508.466 -1.55915 -0.229846 0
M  V30 5393 C 509.416 -1.8813 -1.28807 0
M  V30 5394 C 510.4 -0.743621 -1.42685 0
M  V30 5395 O 511.592 -1.00588 -1.4564 0
M  V30 5396 C 508.721 -2.19431 -2.64017 0
M  V30 5397 C 507.807 -3.39569 -2.54074 0
M  V30 5398 N 508.198 -4.58404 -2.13774 0
M  V30 5399 C 506.496 -3.43019 -2.85051 0
M  V30 5400 C 507.197 -5.40557 -2.1488 0
M  V30 5401 N 506.173 -4.80054 -2.55047 0
M  V30 5402 H 509.975 -2.77527 -0.967261 0
M  V30 5403 H 507.489 -1.5637 -0.438433 0
M  V30 5404 H 509.486 -2.40681 -3.40409 0
M  V30 5405 H 508.146 -1.31341 -2.9695 0
M  V30 5406 H 509.157 -4.83716 -1.8504 0
M  V30 5407 H 505.834 -2.65249 -3.22411 0
M  V30 5408 H 507.224 -6.45666 -1.85918 0
M  V30 5409 N 509.944 0.496216 -1.49584 0
M  V30 5410 C 511.193 1.24668 -1.58558 0
M  V30 5411 C 511.506 1.9359 -0.279703 0
M  V30 5412 O 512.712 2.70365 -0.248048 0
M  V30 5413 C 511.168 2.26388 -2.79779 0
M  V30 5414 C 510.776 1.63384 -4.17145 0
M  V30 5415 C 512.52 3.02233 -2.98086 0
M  V30 5416 C 510.427 2.63243 -5.29582 0
M  V30 5417 H 509.357 0.468995 -0.590389 0
M  V30 5418 H 512.008 0.519985 -1.75978 0
M  V30 5419 H 510.39 3.02241 -2.55863 0
M  V30 5420 H 511.564 0.93491 -4.51216 0
M  V30 5421 H 509.879 0.999121 -4.04236 0
M  V30 5422 H 512.476 3.76919 -3.79257 0
M  V30 5423 H 512.819 3.60132 -2.08831 0
M  V30 5424 H 513.352 2.33495 -3.22063 0
M  V30 5425 H 510.091 2.10119 -6.20911 0
M  V30 5426 H 509.611 3.31363 -4.99959 0
M  V30 5427 H 511.29 3.25575 -5.59115 0
M  V30 5428 N 511.423 1.38739 0.74761 0
M  V30 5429 C 512.648 1.38702 1.54197 0
M  V30 5430 C 513.073 -0.019664 1.8809 0
M  V30 5431 O 512.431 -1.00333 1.51006 0
M  V30 5432 C 512.479 2.25492 2.814 0
M  V30 5433 O 511.583 1.67613 3.76802 0
M  V30 5434 H 510.924 0.472863 0.466151 0
M  V30 5435 H 513.454 1.82577 0.923413 0
M  V30 5436 H 513.464 2.39561 3.30264 0
M  V30 5437 H 512.139 3.27727 2.56062 0
M  V30 5438 H 510.716 1.62718 3.35526 0
M  V30 5439 N 512.901 -0.976442 1.23707 0
M  V30 5440 C 513.831 -2.08749 1.04624 0
M  V30 5441 C 514.812 -1.70057 -0.0380956 0
M  V30 5442 O 515.997 -1.93782 0.127308 0
M  V30 5443 C 513.127 -3.41335 0.640902 0
M  V30 5444 C 512.081 -3.93947 1.67302 0
M  V30 5445 C 511.407 -5.22774 1.12301 0
M  V30 5446 C 512.707 -4.22769 3.06697 0
M  V30 5447 H 514.401 -2.24972 1.97555 0
M  V30 5448 H 511.947 -1.08108 0.951247 0
M  V30 5449 H 513.9 -4.18489 0.494434 0
M  V30 5450 H 512.624 -3.24988 -0.324099 0
M  V30 5451 H 511.283 -3.18941 1.80755 0
M  V30 5452 H 510.931 -5.0278 0.148877 0
M  V30 5453 H 510.631 -5.58942 1.81267 0
M  V30 5454 H 512.155 -6.02546 0.988479 0
M  V30 5455 H 513.569 -4.90659 2.96524 0
M  V30 5456 H 511.966 -4.70147 3.72937 0
M  V30 5457 H 513.036 -3.29885 3.55392 0
M  V30 5458 N 514.379 -1.04941 -1.1758 0
M  V30 5459 C 515.619 -0.766996 -1.89464 0
M  V30 5460 C 515.983 0.693123 -1.79053 0
M  V30 5461 O 517.184 1.08953 -2.45729 0
M  V30 5462 C 515.455 -1.23108 -3.35528 0
M  V30 5463 S 517.014 -1.07565 -4.25412 0
M  V30 5464 H 513.832 -0.278616 -0.654136 0
M  V30 5465 H 516.434 -1.34352 -1.4202 0
M  V30 5466 H 515.138 -2.28896 -3.40639 0
M  V30 5467 H 514.669 -0.648724 -3.88014 0
M  V30 5468 H 516.684 0.00169467 -4.962 0
M  V30 5469 N 515.857 1.33968 -0.830081 0
M  V30 5470 C 517.097 1.99879 -0.427521 0
M  V30 5471 C 517.461 1.64355 0.992546 0
M  V30 5472 O 518.662 2.23164 1.49837 0
M  V30 5473 C 516.933 3.51771 -0.631815 0
M  V30 5474 S 518.492 4.37608 -0.323168 0
M  V30 5475 H 515.31 0.692485 -0.161202 0
M  V30 5476 H 517.912 1.63129 -1.07745 0
M  V30 5477 H 516.616 3.75113 -1.66488 0
M  V30 5478 H 516.147 3.93386 0.0325936 0
M  V30 5479 H 518.162 4.88683 0.860432 0
M  V30 5480 N 517.335 0.585699 1.46312 0
M  V30 5481 C 518.581 0.0725284 2.0267 0
M  V30 5482 C 518.914 -1.28523 1.45586 0
M  V30 5483 O 518.189 -1.84283 0.622101 0
M  V30 5484 C 518.472 0.0099788 3.60099 0
M  V30 5485 C 518.325 1.39685 4.27561 0
M  V30 5486 C 519.644 -0.689117 4.34671 0
M  V30 5487 H 516.763 0.0278307 0.736474 0
M  V30 5488 H 519.405 0.753472 1.74421 0
M  V30 5489 H 517.555 -0.56992 3.84297 0
M  V30 5490 H 519.227 2.02215 4.14617 0
M  V30 5491 H 517.47 1.96374 3.86807 0
M  V30 5492 H 518.141 1.30553 5.36339 0
M  V30 5493 H 520.617 -0.196446 4.15636 0
M  V30 5494 H 519.493 -0.701921 5.44393 0
M  V30 5495 H 519.754 -1.75101 4.05946 0
M  V30 5496 N 518.813 -1.54241 0.323641 0
M  V30 5497 C 520.059 -2.00867 -0.279323 0
M  V30 5498 C 520.392 -1.21146 -1.5178 0
M  V30 5499 O 519.667 -0.29378 -1.92269 0
M  V30 5500 C 519.95 -3.54837 -0.613387 0
M  V30 5501 C 519.803 -4.45284 0.635803 0
M  V30 5502 C 521.122 -4.16186 -1.43099 0
M  V30 5503 H 518.241 -0.730177 -0.100049 0
M  V30 5504 H 520.883 -1.84829 0.440235 0
M  V30 5505 H 519.033 -3.68634 -1.22641 0
M  V30 5506 H 520.705 -4.43357 1.27406 0
M  V30 5507 H 518.948 -4.14956 1.26466 0
M  V30 5508 H 519.619 -5.5084 0.357597 0
M  V30 5509 H 522.095 -4.05964 -0.912814 0
M  V30 5510 H 520.971 -5.24031 -1.6335 0
M  V30 5511 H 521.232 -3.69516 -2.42715 0
M  V30 5512 N 520.291 -0.0518155 -1.57515 0
M  V30 5513 C 521.537 0.622745 -1.93002 0
M  V30 5514 C 521.87 1.70456 -0.930499 0
M  V30 5515 O 521.145 1.94452 0.0434086 0
M  V30 5516 C 521.428 1.21824 -3.38867 0
M  V30 5517 C 521.281 0.144434 -4.49568 0
M  V30 5518 C 522.6 2.12968 -3.8514 0
M  V30 5519 H 519.719 0.22491 -0.701844 0
M  V30 5520 H 522.361 -0.113711 -1.89659 0
M  V30 5521 H 520.511 1.8459 -3.41846 0
M  V30 5522 H 522.183 -0.48753 -4.58717 0
M  V30 5523 H 520.426 -0.527424 -4.30582 0
M  V30 5524 H 521.097 0.601127 -5.48717 0
M  V30 5525 H 523.573 1.60163 -3.8404 0
M  V30 5526 H 522.449 2.51578 -4.87852 0
M  V30 5527 H 522.71 3.03004 -3.21934 0
M  V30 5528 N 521.769 1.56035 0.221574 0
M  V30 5529 C 523.015 1.80221 0.942973 0
M  V30 5530 C 523.37 0.624799 1.81973 0
M  V30 5531 O 522.663 -0.381145 1.87771 0
M  V30 5532 C 522.857 3.07813 1.8162 0
M  V30 5533 C 522.686 4.37852 1.02548 0
M  V30 5534 C 521.456 5.00138 0.720418 0
M  V30 5535 C 523.654 5.12813 0.390799 0
M  V30 5536 N 521.636 6.13831 -0.0917139 0
M  V30 5537 C 523.007 6.19346 -0.284728 0
M  V30 5538 C 525.062 4.96972 0.303828 0
M  V30 5539 C 523.765 7.11758 -1.03891 0
M  V30 5540 C 525.791 5.89784 -0.436883 0
M  V30 5541 C 525.153 6.95743 -1.10095 0
M  V30 5542 H 521.252 0.711117 0.325325 0
M  V30 5543 H 523.836 1.93522 0.213854 0
M  V30 5544 H 522.007 2.95795 2.51714 0
M  V30 5545 H 523.739 3.20191 2.47508 0
M  V30 5546 H 520.494 4.62075 1.03843 0
M  V30 5547 H 520.918 6.75249 -0.486615 0
M  V30 5548 H 525.56 4.15107 0.802896 0
M  V30 5549 H 523.278 7.93105 -1.54949 0
M  V30 5550 H 526.864 5.79603 -0.505181 0
M  V30 5551 H 525.744 7.66322 -1.66495 0
M  V30 5552 N 523.247 -0.488276 1.49845 0
M  V30 5553 C 524.494 -1.24157 1.59973 0
M  V30 5554 C 524.822 -1.92293 0.292182 0
M  V30 5555 O 524.077 -1.81942 -0.720813 0
M  V30 5556 C 524.376 -2.32152 2.71735 0
M  V30 5557 C 524.042 -1.81387 4.12807 0
M  V30 5558 C 522.704 -1.67262 4.51195 0
M  V30 5559 C 525.056 -1.43537 5.01045 0
M  V30 5560 C 522.384 -1.13685 5.7558 0
M  V30 5561 C 524.736 -0.914081 6.25961 0
M  V30 5562 C 523.4 -0.759327 6.63167 0
M  V30 5563 H 522.67 -0.454322 0.585383 0
M  V30 5564 H 525.317 -0.540261 1.83721 0
M  V30 5565 H 523.622 -3.08122 2.42008 0
M  V30 5566 H 525.319 -2.90164 2.76778 0
M  V30 5567 H 521.909 -1.93344 3.82513 0
M  V30 5568 H 526.093 -1.53292 4.72033 0
M  V30 5569 H 521.349 -1.00426 6.03096 0
M  V30 5570 H 525.523 -0.612066 6.93705 0
M  V30 5571 H 523.15 -0.342002 7.5943 0
M  V30 5572 N 524.725 -1.39134 -0.740242 0
M  V30 5573 C 525.973 -1.35803 -1.49673 0
M  V30 5574 C 526.294 0.0470897 -1.94943 0
M  V30 5575 O 525.564 0.997347 -1.68611 0
M  V30 5576 H 524.144 -0.499736 -0.555224 0
M  V30 5577 H 526.806 -1.73947 -0.879107 0
M  V30 5578 H 525.902 -2.0174 -2.38133 0
M  V30 5579 N 526.204 0.969867 -1.24223 0
M  V30 5580 C 527.45 1.7151 -1.08223 0
M  V30 5581 C 527.783 1.90478 0.37838 0
M  V30 5582 O 527.058 1.4647 1.27971 0
M  V30 5583 C 527.341 3.10714 -1.82013 0
M  V30 5584 C 527.194 2.9925 -3.35811 0
M  V30 5585 C 528.513 4.10332 -1.59108 0
M  V30 5586 H 525.632 0.622499 -0.394543 0
M  V30 5587 H 528.274 1.1284 -1.52863 0
M  V30 5588 H 526.424 3.608 -1.44068 0
M  V30 5589 H 528.096 2.56608 -3.83341 0
M  V30 5590 H 526.339 2.35512 -3.64303 0
M  V30 5591 H 527.01 3.97857 -3.82641 0
M  V30 5592 H 529.486 3.69097 -1.92111 0
M  V30 5593 H 528.362 5.05804 -2.13198 0
M  V30 5594 H 528.623 4.38926 -0.528832 0
M  V30 5595 N 527.682 1.05563 1.17022 0
M  V30 5596 C 528.63 0.653887 2.2322 0
M  V30 5597 C 529.624 -0.326642 1.66221 0
M  V30 5598 O 530.83 -0.192301 1.7897 0
M  V30 5599 H 527.205 0.193297 0.726733 0
M  V30 5600 H 529.176 1.5596 2.54399 0
M  V30 5601 C 527.925 0.0485434 3.47666 0
M  V30 5602 H 527.248 0.79413 3.91834 0
M  V30 5603 H 528.688 -0.195133 4.23551 0
M  V30 5604 C 527.147 -1.20583 3.14581 0
M  V30 5605 O 527.677 -2.29475 3.29703 0
M  V30 5606 N 525.883 -1.10493 2.68774 0
M  V30 5607 H 525.43 -0.218795 2.56669 0
M  V30 5608 H 525.388 -1.94507 2.47011 0
M  V30 5609 N 529.16 -1.33526 0.837174 0
M  V30 5610 C 530.407 -1.97837 0.432064 0
M  V30 5611 C 530.735 -1.66324 -1.00829 0
M  V30 5612 O 529.99 -0.93448 -1.71948 0
M  V30 5613 C 530.289 -3.52367 0.597675 0
M  V30 5614 C 529.955 -4.03826 2.00587 0
M  V30 5615 C 528.617 -4.1759 2.39106 0
M  V30 5616 C 530.969 -4.31333 2.92576 0
M  V30 5617 C 528.297 -4.56195 3.68921 0
M  V30 5618 C 530.649 -4.7139 4.2187 0
M  V30 5619 C 529.313 -4.8336 4.60347 0
M  V30 5620 H 528.583 -0.723937 0.158104 0
M  V30 5621 H 531.23 -1.5923 1.06387 0
M  V30 5622 H 529.535 -3.91624 -0.117452 0
M  V30 5623 H 531.232 -4.00126 0.26454 0
M  V30 5624 H 527.822 -3.93586 1.69671 0
M  V30 5625 H 532.006 -4.20224 2.64056 0
M  V30 5626 H 527.262 -4.63655 3.9854 0
M  V30 5627 H 531.436 -4.91631 4.93226 0
M  V30 5628 H 529.063 -5.1303 5.60985 0
M  V30 5629 N 530.638 -0.59345 -1.46 0
M  V30 5630 C 531.863 -0.0872365 -2.07216 0
M  V30 5631 C 532.288 1.2131 -1.43755 0
M  V30 5632 O 531.646 1.73528 -0.525152 0
M  V30 5633 C 531.694 0.0538197 -3.6056 0
M  V30 5634 O 530.798 1.10765 -3.97247 0
M  V30 5635 H 530.139 -0.0676598 -0.660544 0
M  V30 5636 H 532.669 -0.819445 -1.87473 0
M  V30 5637 H 532.679 0.256567 -4.07193 0
M  V30 5638 H 531.354 -0.895739 -4.0614 0
M  V30 5639 H 529.931 0.882501 -3.62307 0
M  V30 5640 N 532.116 1.54067 -0.331816 0
M  V30 5641 C 533.346 2.04833 0.269605 0
M  V30 5642 C 533.754 1.20714 1.45687 0
M  V30 5643 O 533.097 0.232539 1.82222 0
M  V30 5644 C 533.159 3.51386 0.759499 0
M  V30 5645 C 532.823 4.55971 -0.306557 0
M  V30 5646 C 533.82 5.07126 -1.14538 0
M  V30 5647 C 531.505 5.00216 -0.457116 0
M  V30 5648 C 533.499 6.01096 -2.12042 0
M  V30 5649 C 531.186 5.93999 -1.43556 0
M  V30 5650 C 532.184 6.44326 -2.26568 0
M  V30 5651 O 531.872 7.36267 -3.22749 0
M  V30 5652 H 531.604 0.673509 0.0579763 0
M  V30 5653 H 534.158 1.99748 -0.478521 0
M  V30 5654 H 532.388 3.53896 1.55867 0
M  V30 5655 H 534.077 3.85184 1.28017 0
M  V30 5656 H 534.843 4.73716 -1.04009 0
M  V30 5657 H 530.722 4.60652 0.179142 0
M  V30 5658 H 534.266 6.40302 -2.76873 0
M  V30 5659 H 530.163 6.26825 -1.54146 0
M  V30 5660 H 530.931 7.54165 -3.18083 0
M  V30 5661 N 533.594 0.0601682 1.57485 0
M  V30 5662 C 534.824 -0.620037 1.97076 0
M  V30 5663 C 535.232 -1.64381 0.936784 0
M  V30 5664 O 534.575 -1.83497 -0.0863377 0
M  V30 5665 C 534.637 -1.35617 3.32939 0
M  V30 5666 C 534.301 -0.487208 4.54396 0
M  V30 5667 C 535.298 0.250428 5.19297 0
M  V30 5668 C 532.983 -0.415494 5.00579 0
M  V30 5669 C 534.977 1.04812 6.28723 0
M  V30 5670 C 532.664 0.385879 6.0988 0
M  V30 5671 C 533.662 1.11637 6.73815 0
M  V30 5672 O 533.35 1.90454 7.81014 0
M  V30 5673 H 533.082 -0.173664 0.653312 0
M  V30 5674 H 535.636 0.1256 2.05016 0
M  V30 5675 H 533.866 -2.14763 3.2158 0
M  V30 5676 H 535.555 -1.92749 3.57215 0
M  V30 5677 H 536.321 0.204546 4.84568 0
M  V30 5678 H 532.2 -0.973679 4.506 0
M  V30 5679 H 535.744 1.6188 6.78558 0
M  V30 5680 H 531.641 0.433366 6.44044 0
M  V30 5681 H 532.409 1.82762 7.97835 0
M  V30 5682 N 535.072 -1.5615 -0.213296 0
M  V30 5683 C 536.32 -1.79191 -0.934612 0
M  V30 5684 C 536.641 -0.630112 -1.84539 0
M  V30 5685 O 535.911 0.35257 -1.92701 0
M  V30 5686 H 534.491 -0.660937 -0.348097 0
M  V30 5687 H 537.153 -1.93618 -0.22317 0
M  V30 5688 H 536.249 -2.71656 -1.53654 0
M  V30 5689 N 536.55 0.480323 -1.50102 0
M  V30 5690 C 537.48 1.58769 -1.71215 0
M  V30 5691 C 538.461 1.60583 -0.560997 0
M  V30 5692 O 539.646 1.76996 -0.799127 0
M  V30 5693 C 536.776 2.97148 -1.79778 0
M  V30 5694 C 535.73 3.10201 -2.94888 0
M  V30 5695 C 535.056 4.50137 -2.88584 0
M  V30 5696 C 536.356 2.88283 -4.35534 0
M  V30 5697 H 538.05 1.41354 -2.6393 0
M  V30 5698 H 535.596 0.678591 -1.27008 0
M  V30 5699 H 537.549 3.74536 -1.93133 0
M  V30 5700 H 536.273 3.15699 -0.836772 0
M  V30 5701 H 534.932 2.35244 -2.81169 0
M  V30 5702 H 534.58 4.65593 -1.90349 0
M  V30 5703 H 534.28 4.59808 -3.65856 0
M  V30 5704 H 535.804 5.29558 -3.03976 0
M  V30 5705 H 537.218 3.55427 -4.49827 0
M  V30 5706 H 535.615 3.09408 -5.14186 0
M  V30 5707 H 536.685 1.84219 -4.48544 0
M  V30 5708 N 538.028 1.39524 0.732853 0
M  V30 5709 C 539.253 1.40329 1.52717 0
M  V30 5710 C 539.678 0.000286574 1.881 0
M  V30 5711 O 539.036 -0.987262 1.52062 0
M  V30 5712 C 539.084 2.28464 2.78992 0
M  V30 5713 O 538.188 1.716 3.75003 0
M  V30 5714 H 537.529 0.47778 0.461109 0
M  V30 5715 H 540.059 1.83546 0.903996 0
M  V30 5716 H 540.069 2.43051 3.27705 0
M  V30 5717 H 538.744 3.30425 2.52572 0
M  V30 5718 H 537.321 1.66267 3.33781 0
M  V30 5719 N 539.506 -0.963266 1.24736 0
M  V30 5720 C 540.436 -2.07628 1.06832 0
M  V30 5721 C 541.417 -1.70088 -0.0200566 0
M  V30 5722 O 542.602 -1.93636 0.147854 0
M  V30 5723 C 539.732 -3.40636 0.677069 0
M  V30 5724 C 538.686 -3.9215 1.71471 0
M  V30 5725 C 538.012 -5.21553 1.1784 0
M  V30 5726 C 539.312 -4.19493 3.11164 0
M  V30 5727 H 541.006 -2.22864 1.9993 0
M  V30 5728 H 538.552 -1.07093 0.96266 0
M  V30 5729 H 540.505 -4.17941 0.538792 0
M  V30 5730 H 539.229 -3.25313 -0.289612 0
M  V30 5731 H 537.888 -3.17005 1.84128 0
M  V30 5732 H 537.536 -5.02593 0.202195 0
M  V30 5733 H 537.236 -5.56988 1.87185 0
M  V30 5734 H 538.76 -6.01463 1.05233 0
M  V30 5735 H 540.174 -4.87487 3.01711 0
M  V30 5736 H 538.571 -4.66165 3.77902 0
M  V30 5737 H 539.641 -3.26097 3.58871 0
M  V30 5738 N 540.985 -1.06182 -1.16461 0
M  V30 5739 C 542.262 -0.691364 -1.82974 0
M  V30 5740 C 542.642 0.827377 -1.9421 0
M  V30 5741 O 541.99 1.73723 -1.48434 0
M  V30 5742 C 542.2 -1.39199 -3.20038 0
M  V30 5743 C 543.548 -1.53647 -3.95825 0
M  V30 5744 O 544.572 -1.35181 -3.29552 0
M  V30 5745 O 543.431 -1.83932 -5.14618 0
M  V30 5746 H 540.525 -0.244605 -0.789998 0
M  V30 5747 H 543.071 -1.16203 -1.23673 0
M  V30 5748 H 541.843 -2.42766 -3.06888 0
M  V30 5749 H 541.466 -0.911335 -3.87015 0
M  V30 5750 N 542.463 1.3308 -0.844243 0
M  V30 5751 C 543.709 1.97898 -0.443206 0
M  V30 5752 C 544.042 1.66699 0.99625 0
M  V30 5753 O 543.317 0.949704 1.69738 0
M  V30 5754 C 543.6 3.53801 -0.670606 0
M  V30 5755 C 543.453 3.94667 -2.15772 0
M  V30 5756 C 544.772 4.39936 -0.120226 0
M  V30 5757 H 541.891 0.718861 -0.162504 0
M  V30 5758 H 544.533 1.57633 -1.06075 0
M  V30 5759 H 542.683 3.88229 -0.14496 0
M  V30 5760 H 544.355 3.70469 -2.74865 0
M  V30 5761 H 542.598 3.44203 -2.6402 0
M  V30 5762 H 543.269 5.03275 -2.26757 0
M  V30 5763 H 545.745 4.12183 -0.5696 0
M  V30 5764 H 544.621 5.4803 -0.308984 0
M  V30 5765 H 544.882 4.31184 0.976347 0
M  V30 5766 N 543.941 0.601185 1.45683 0
M  V30 5767 C 545.166 0.0982245 2.07167 0
M  V30 5768 C 545.591 -1.20546 1.44396 0
M  V30 5769 O 544.949 -1.73247 0.534347 0
M  V30 5770 C 544.997 -0.0346976 3.60583 0
M  V30 5771 O 544.101 -1.08657 3.97828 0
M  V30 5772 H 543.442 0.0711618 0.660176 0
M  V30 5773 H 545.972 0.829376 1.87036 0
M  V30 5774 H 545.982 -0.234969 4.07323 0
M  V30 5775 H 544.657 0.917265 4.05659 0
M  V30 5776 H 543.234 -0.863275 3.6277 0
M  V30 5777 N 545.419 -1.53889 0.339982 0
M  V30 5778 C 546.667 -2.00458 -0.257112 0
M  V30 5779 C 546.988 -1.22953 -1.51353 0
M  V30 5780 O 546.258 -0.335734 -1.93002 0
M  V30 5781 H 544.838 -0.740544 -0.0979965 0
M  V30 5782 H 547.5 -1.89386 0.460317 0
M  V30 5783 H 546.596 -3.08035 -0.502057 0
M  V30 5784 N 546.897 -0.0685191 -1.57451 0
M  V30 5785 C 547.827 0.89747 -2.15564 0
M  V30 5786 C 548.808 1.31266 -1.08181 0
M  V30 5787 O 549.993 1.38429 -1.36202 0
M  V30 5788 C 547.123 2.16623 -2.71463 0
M  V30 5789 C 546.077 1.89054 -3.83982 0
M  V30 5790 C 545.403 3.22532 -4.26471 0
M  V30 5791 C 546.703 1.1984 -5.08366 0
M  V30 5792 H 548.397 0.413373 -2.96533 0
M  V30 5793 H 545.943 0.197391 -1.42641 0
M  V30 5794 H 547.896 2.84614 -3.10761 0
M  V30 5795 H 546.62 2.67269 -1.8771 0
M  V30 5796 H 545.279 1.23469 -3.45183 0
M  V30 5797 H 544.927 3.71013 -3.39644 0
M  V30 5798 H 544.627 3.04879 -5.02317 0
M  V30 5799 H 546.151 3.91727 -4.68383 0
M  V30 5800 H 547.565 1.77896 -5.45001 0
M  V30 5801 H 545.962 1.12456 -5.89469 0
M  V30 5802 H 547.032 0.176996 -4.84577 0
M  V30 5803 N 548.375 1.56261 0.205012 0
M  V30 5804 C 549.623 1.79684 0.925096 0
M  V30 5805 C 549.944 0.63989 1.84202 0
M  V30 5806 O 549.214 -0.342345 1.92885 0
M  V30 5807 H 547.794 0.662774 0.344587 0
M  V30 5808 H 550.456 1.93734 0.212899 0
M  V30 5809 H 549.552 2.72467 1.52211 0
M  V30 5810 N 549.853 -0.472356 1.50355 0
M  V30 5811 C 550.783 -1.57859 1.72055 0
M  V30 5812 C 551.764 -1.60283 0.569505 0
M  V30 5813 O 552.949 -1.7657 0.808503 0
M  V30 5814 C 550.079 -2.96191 1.81351 0
M  V30 5815 C 549.033 -3.08633 2.96529 0
M  V30 5816 C 548.359 -4.486 2.90968 0
M  V30 5817 C 549.659 -2.85969 4.37057 0
M  V30 5818 H 551.353 -1.39953 2.64676 0
M  V30 5819 H 548.899 -0.671846 1.27367 0
M  V30 5820 H 550.852 -3.73507 1.95117 0
M  V30 5821 H 549.576 -3.15251 0.853502 0
M  V30 5822 H 548.235 -2.33749 2.82413 0
M  V30 5823 H 547.883 -4.64577 1.92815 0
M  V30 5824 H 547.583 -4.57861 3.68289 0
M  V30 5825 H 549.107 -5.27938 3.0678 0
M  V30 5826 H 550.521 -3.53036 4.51706 0
M  V30 5827 H 548.918 -3.06677 5.15819 0
M  V30 5828 H 549.988 -1.81838 4.49514 0
M  V30 5829 N 551.331 -1.39911 -0.725443 0
M  V30 5830 C 552.279 -1.39552 -1.86086 0
M  V30 5831 C 553.273 -0.277334 -1.67114 0
M  V30 5832 O 554.479 -0.447865 -1.74339 0
M  V30 5833 H 550.854 -0.435993 -0.612711 0
M  V30 5834 H 552.825 -2.35305 -1.83505 0
M  V30 5835 C 551.574 -1.26529 -3.2386 0
M  V30 5836 H 550.897 -2.11845 -3.3906 0
M  V30 5837 H 552.337 -1.30336 -4.03471 0
M  V30 5838 C 550.796 0.0254168 -3.3689 0
M  V30 5839 O 551.326 0.992048 -3.89257 0
M  V30 5840 N 549.532 0.0916528 -2.90455 0
M  V30 5841 H 549.079 -0.695675 -2.48028 0
M  V30 5842 H 549.037 0.954745 -2.99553 0
M  V30 5843 N 552.809 0.956637 -1.25245 0
M  V30 5844 C 554.055 1.70352 -1.10036 0
M  V30 5845 C 554.388 1.90869 0.358156 0
M  V30 5846 O 553.663 1.47819 1.26411 0
M  V30 5847 C 553.946 3.08766 -1.85298 0
M  V30 5848 C 553.799 2.95672 -3.38966 0
M  V30 5849 C 555.118 4.08622 -1.63451 0
M  V30 5850 H 552.237 0.618279 -0.401123 0
M  V30 5851 H 554.879 1.11212 -1.54051 0
M  V30 5852 H 553.029 3.59252 -1.47887 0
M  V30 5853 H 554.701 2.52527 -3.86041 0
M  V30 5854 H 552.944 2.31634 -3.6678 0
M  V30 5855 H 553.615 3.93776 -3.86839 0
M  V30 5856 H 556.091 3.67038 -1.96015 0
M  V30 5857 H 554.967 5.03514 -2.18551 0
M  V30 5858 H 555.228 4.3834 -0.575357 0
M  V30 5859 N 554.287 1.06798 1.15896 0
M  V30 5860 C 555.517 0.807522 1.90165 0
M  V30 5861 C 555.925 -0.642417 1.7796 0
M  V30 5862 O 555.268 -1.45193 1.12537 0
M  V30 5863 C 555.33 1.12939 3.41299 0
M  V30 5864 C 554.994 2.57879 3.7729 0
M  V30 5865 C 555.991 3.56118 3.78782 0
M  V30 5866 C 553.676 2.93311 4.07767 0
M  V30 5867 C 555.67 4.87827 4.10248 0
M  V30 5868 C 553.357 4.25219 4.38899 0
M  V30 5869 C 554.355 5.22287 4.4012 0
M  V30 5870 O 554.043 6.51826 4.70508 0
M  V30 5871 H 553.775 0.291946 0.609708 0
M  V30 5872 H 556.329 1.42627 1.47806 0
M  V30 5873 H 554.559 0.45359 3.84031 0
M  V30 5874 H 556.248 0.852363 3.9685 0
M  V30 5875 H 557.014 3.30086 3.55342 0
M  V30 5876 H 552.893 2.18409 4.05979 0
M  V30 5877 H 556.437 5.63586 4.11116 0
M  V30 5878 H 552.334 4.51006 4.61805 0
M  V30 5879 H 553.102 6.56893 4.88298 0
M  V30 5880 N 555.766 -1.3263 0.851289 0
M  V30 5881 C 556.698 -2.27824 0.250757 0
M  V30 5882 C 557.711 -1.52285 -0.575598 0
M  V30 5883 O 558.9 -1.73946 -0.400638 0
M  V30 5884 C 556 -3.3232 -0.664571 0
M  V30 5885 C 555.173 -4.37221 0.125187 0
M  V30 5886 C 554.232 -5.21314 -0.715385 0
M  V30 5887 O 553.258 -5.69002 -0.150111 0
M  V30 5888 N 554.46 -5.43823 -2.03069 0
M  V30 5889 H 557.225 -2.79997 1.06873 0
M  V30 5890 H 554.786 -1.45455 0.710943 0
M  V30 5891 H 556.778 -3.85486 -1.23216 0
M  V30 5892 H 555.348 -2.80331 -1.38323 0
M  V30 5893 H 554.568 -3.84384 0.874199 0
M  V30 5894 H 555.856 -5.04399 0.667774 0
M  V30 5895 H 555.254 -5.06803 -2.51332 0
M  V30 5896 H 553.811 -5.99998 -2.54648 0
M  V30 5897 N 557.244 -0.608902 -1.45362 0
M  V30 5898 C 558.472 -0.111013 -2.06602 0
M  V30 5899 C 558.887 1.20516 -1.45332 0
M  V30 5900 O 558.244 1.73437 -0.567978 0
M  V30 5901 C 558.295 0.033688 -3.61484 0
M  V30 5902 O 558.016 -1.23041 -4.20467 0
M  V30 5903 C 559.517 0.562882 -4.39712 0
M  V30 5904 H 556.737 -0.0694453 -0.667397 0
M  V30 5905 H 559.281 -0.837008 -1.86586 0
M  V30 5906 H 557.436 0.710016 -3.80838 0
M  V30 5907 H 557.85 -1.06094 -5.13658 0
M  V30 5908 H 559.324 0.613213 -5.48583 0
M  V30 5909 H 559.801 1.58543 -4.09586 0
M  V30 5910 H 560.407 -0.0794454 -4.25226 0
M  V30 5911 N 558.722 1.53707 -0.348139 0
M  V30 5912 C 559.654 2.22725 0.540946 0
M  V30 5913 C 560.667 1.2354 1.06027 0
M  V30 5914 O 561.856 1.49867 0.96964 0
M  V30 5915 C 558.956 2.89756 1.75768 0
M  V30 5916 C 558.129 4.15297 1.37285 0
M  V30 5917 C 557.188 4.65697 2.44976 0
M  V30 5918 O 556.214 5.29798 2.08092 0
M  V30 5919 N 557.416 4.42017 3.763 0
M  V30 5920 H 560.181 2.99658 -0.0501592 0
M  V30 5921 H 557.742 1.60979 -0.17248 0
M  V30 5922 H 559.734 3.20388 2.47252 0
M  V30 5923 H 558.304 2.16382 2.25605 0
M  V30 5924 H 557.524 3.9116 0.488584 0
M  V30 5925 H 558.812 4.96948 1.09179 0
M  V30 5926 H 558.21 3.9076 4.09051 0
M  V30 5927 H 556.767 4.77242 4.4394 0
M  V30 5928 N 560.2 0.0768682 1.57412 0
M  V30 5929 C 561.13 -0.886026 2.16037 0
M  V30 5930 C 562.111 -1.30691 1.08876 0
M  V30 5931 O 563.296 -1.37705 1.36934 0
M  V30 5932 C 560.426 -2.1518 2.72608 0
M  V30 5933 C 559.38 -1.87015 3.8498 0
M  V30 5934 C 558.706 -3.20266 4.28175 0
M  V30 5935 C 560.006 -1.17143 5.08994 0
M  V30 5936 H 561.7 -0.397642 2.96748 0
M  V30 5937 H 559.246 -0.189823 1.42743 0
M  V30 5938 H 561.199 -2.82962 3.12266 0
M  V30 5939 H 559.923 -2.66269 1.89125 0
M  V30 5940 H 558.582 -1.21636 3.45833 0
M  V30 5941 H 558.23 -3.69207 3.41607 0
M  V30 5942 H 557.93 -3.0221 5.03927 0
M  V30 5943 H 559.454 -3.89237 4.70454 0
M  V30 5944 H 560.868 -1.75003 5.45937 0
M  V30 5945 H 559.265 -1.09328 5.90057 0
M  V30 5946 H 560.335 -0.151295 4.84664 0
M  V30 5947 N 561.678 -1.56367 -0.196722 0
M  V30 5948 C 562.608 -1.97442 -1.24655 0
M  V30 5949 C 563.589 -0.846147 -1.47561 0
M  V30 5950 O 564.774 -1.11035 -1.59326 0
M  V30 5951 C 561.904 -2.31253 -2.59112 0
M  V30 5952 C 560.858 -3.46804 -2.50821 0
M  V30 5953 C 560.184 -3.66286 -3.89536 0
M  V30 5954 C 561.484 -4.8104 -2.03465 0
M  V30 5955 H 563.178 -2.85388 -0.905216 0
M  V30 5956 H 560.724 -1.37304 -0.434002 0
M  V30 5957 H 562.677 -2.58583 -3.32736 0
M  V30 5958 H 561.401 -1.40188 -2.94983 0
M  V30 5959 H 560.06 -3.19563 -1.79653 0
M  V30 5960 H 559.708 -2.72555 -4.22756 0
M  V30 5961 H 559.408 -4.4402 -3.84864 0
M  V30 5962 H 560.932 -3.9599 -4.64784 0
M  V30 5963 H 562.346 -5.07411 -2.66846 0
M  V30 5964 H 560.743 -5.62232 -2.09798 0
M  V30 5965 H 561.813 -4.74732 -0.98781 0
M  V30 5966 N 563.156 0.464375 -1.50603 0
M  V30 5967 C 564.403 1.21596 -1.61928 0
M  V30 5968 C 564.731 1.91804 -0.322737 0
M  V30 5969 O 563.986 1.83065 0.691776 0
M  V30 5970 C 564.285 2.278 -2.75394 0
M  V30 5971 C 563.951 1.74797 -4.1564 0
M  V30 5972 C 562.613 1.60063 -4.53799 0
M  V30 5973 C 564.965 1.35548 -5.03266 0
M  V30 5974 C 562.293 1.04514 -5.77316 0
M  V30 5975 C 564.645 0.814381 -6.27336 0
M  V30 5976 C 563.309 0.653726 -6.64291 0
M  V30 5977 H 562.579 0.444951 -0.592536 0
M  V30 5978 H 565.226 0.510964 -1.84557 0
M  V30 5979 H 563.531 3.04233 -2.46879 0
M  V30 5980 H 565.228 2.85723 -2.81359 0
M  V30 5981 H 561.818 1.87234 -3.8554 0
M  V30 5982 H 566.002 1.45763 -4.74412 0
M  V30 5983 H 561.258 0.908186 -6.04617 0
M  V30 5984 H 565.432 0.501626 -6.94591 0
M  V30 5985 H 563.059 0.22114 -7.59878 0
M  V30 5986 N 564.634 1.40294 0.718013 0
M  V30 5987 C 565.882 1.38167 1.47494 0
M  V30 5988 C 566.203 -0.01607 1.94993 0
M  V30 5989 O 565.473 -0.970396 1.70177 0
M  V30 5990 H 564.053 0.508505 0.547203 0
M  V30 5991 H 566.715 1.75324 0.851322 0
M  V30 5992 H 565.811 2.05503 2.34894 0
M  V30 5993 N 566.112 -0.949982 1.2575 0
M  V30 5994 C 567.075 -2.02894 1.06615 0
M  V30 5995 C 568.075 -1.60791 0.0173905 0
M  V30 5996 O 569.265 -1.72249 0.260003 0
M  V30 5997 C 566.397 -3.35219 0.619751 0
M  V30 5998 H 567.59 -2.21302 2.02399 0
M  V30 5999 H 565.143 -1.12772 1.08223 0
M  V30 6000 H 565.878 -3.22508 -0.340486 0
M  V30 6001 H 565.663 -3.67129 1.37692 0
M  V30 6002 H 567.153 -4.14505 0.507443 0
M  V30 6003 N 567.59 -1.07411 -1.15328 0
M  V30 6004 C 568.836 -0.798831 -1.86404 0
M  V30 6005 C 569.169 0.673433 -1.8215 0
M  V30 6006 O 568.444 1.49428 -1.24505 0
M  V30 6007 C 568.727 -1.30846 -3.35487 0
M  V30 6008 C 568.58 -2.84532 -3.4837 0
M  V30 6009 C 569.899 -0.925486 -4.30259 0
M  V30 6010 H 567.018 -0.291659 -0.676834 0
M  V30 6011 H 569.66 -1.332 -1.35491 0
M  V30 6012 H 567.81 -0.854916 -3.78977 0
M  V30 6013 H 569.482 -3.3818 -3.13739 0
M  V30 6014 H 567.725 -3.22699 -2.8991 0
M  V30 6015 H 568.396 -3.15259 -4.53118 0
M  V30 6016 H 570.872 -1.3163 -3.94731 0
M  V30 6017 H 569.748 -1.3094 -5.33053 0
M  V30 6018 H 570.009 0.168525 -4.41779 0
M  V30 6019 N 569.068 1.32177 -0.85831 0
M  V30 6020 C 569.978 2.32561 -0.308606 0
M  V30 6021 C 570.994 1.64209 0.575462 0
M  V30 6022 O 572.17 1.95719 0.474961 0
M  V30 6023 C 569.235 3.43207 0.490909 0
M  V30 6024 C 568.296 4.27243 -0.419733 0
M  V30 6025 C 567.529 5.32605 0.341719 0
M  V30 6026 O 567.752 5.48332 1.57125 0
M  V30 6027 O 566.686 6.0118 -0.294379 0
M  V30 6028 H 570.512 2.81477 -1.14037 0
M  V30 6029 H 568.097 1.35866 -0.621349 0
M  V30 6030 H 569.979 4.10677 0.944574 0
M  V30 6031 H 568.654 2.96474 1.29941 0
M  V30 6032 H 567.561 3.62569 -0.921652 0
M  V30 6033 H 568.894 4.7751 -1.19352 0
M  V30 6034 N 570.547 0.616602 1.45037 0
M  V30 6035 C 571.477 -0.0840787 2.33349 0
M  V30 6036 C 572.458 -0.849641 1.4736 0
M  V30 6037 O 573.643 -0.818407 1.76113 0
M  V30 6038 C 570.773 -1.07604 3.3021 0
M  V30 6039 C 569.727 -0.423096 4.25904 0
M  V30 6040 C 569.053 -1.52394 5.12523 0
M  V30 6041 C 570.353 0.661457 5.18095 0
M  V30 6042 H 572.047 0.653333 2.92185 0
M  V30 6043 H 569.593 0.315634 1.40498 0
M  V30 6044 H 571.546 -1.57485 3.90866 0
M  V30 6045 H 570.27 -1.84416 2.69552 0
M  V30 6046 H 568.929 0.05493 3.66559 0
M  V30 6047 H 568.577 -2.28257 4.48227 0
M  V30 6048 H 568.277 -1.09251 5.77354 0
M  V30 6049 H 569.801 -2.02485 5.76049 0
M  V30 6050 H 571.215 0.246353 5.7277 0
M  V30 6051 H 569.612 1.01517 5.91451 0
M  V30 6052 H 570.682 1.53446 4.59981 0
M  V30 6053 N 572.025 -1.5352 0.356285 0
M  V30 6054 C 573.436 -1.86282 -0.12492 0
M  V30 6055 C 573.787 -1.27717 -1.48939 0
M  V30 6056 O 572.912 -0.595614 -2.08042 0
M  V30 6057 C 573.507 -3.37995 -0.23345 0
M  V30 6058 C 572.066 -3.70588 -0.658899 0
M  V30 6059 C 571.213 -2.76581 0.199596 0
M  V30 6060 H 574.164 -1.47901 0.575423 0
M  V30 6061 H 574.185 -3.65475 -1.0587 0
M  V30 6062 H 573.697 -3.8059 0.759776 0
M  V30 6063 H 571.798 -3.33544 -1.66069 0
M  V30 6064 H 571.911 -4.77076 -0.439957 0
M  V30 6065 H 570.275 -2.52552 -0.330076 0
M  V30 6066 H 571.058 -3.22008 1.19019 0
M  V30 6067 N 573.503 -0.0852151 -1.57369 0
M  V30 6068 C 574.728 0.592872 -1.98746 0
M  V30 6069 C 575.153 1.61538 -0.963689 0
M  V30 6070 O 574.511 1.81168 0.069071 0
M  V30 6071 C 574.559 1.22599 -3.39119 0
M  V30 6072 O 573.663 2.34185 -3.39457 0
M  V30 6073 H 573.004 0.151314 -0.646529 0
M  V30 6074 H 575.534 -0.163703 -2.03944 0
M  V30 6075 H 575.544 1.56965 -3.76598 0
M  V30 6076 H 574.219 0.476831 -4.13158 0
M  V30 6077 H 572.796 2.01512 -3.13763 0
M  V30 6078 N 574.981 1.5647 0.188427 0
M  V30 6079 C 575.928 1.95073 1.23349 0
M  V30 6080 C 576.898 0.812238 1.44886 0
M  V30 6081 O 578.083 1.07095 1.57909 0
M  V30 6082 C 575.223 2.30124 2.57171 0
M  V30 6083 C 574.336 3.57069 2.43157 0
M  V30 6084 C 573.471 3.81411 3.69729 0
M  V30 6085 C 572.51 5.0176 3.50575 0
M  V30 6086 N 571.647 5.22321 4.69175 0
M  V30 6087 H 576.487 2.84171 0.89728 0
M  V30 6088 H 574.024 1.40623 0.431683 0
M  V30 6089 H 575.982 2.48463 3.35145 0
M  V30 6090 H 574.612 1.44159 2.88822 0
M  V30 6091 H 573.664 3.4674 1.56447 0
M  V30 6092 H 574.976 4.452 2.24942 0
M  V30 6093 H 574.13 4.00026 4.56141 0
M  V30 6094 H 572.869 2.91624 3.90905 0
M  V30 6095 H 571.874 4.83061 2.62549 0
M  V30 6096 H 573.099 5.93063 3.30837 0
M  V30 6097 H 571.045 4.35483 4.90602 0
M  V30 6098 H 570.962 6.04643 4.53809 0
M  V30 6099 H 572.23 5.45401 5.56919 0
M  V30 6100 N 576.459 -0.456382 1.50847 0
M  V30 6101 C 577.389 -1.56025 1.73719 0
M  V30 6102 C 578.37 -1.5967 0.586473 0
M  V30 6103 O 579.555 -1.75702 0.827185 0
M  V30 6104 C 576.685 -2.94251 1.84483 0
M  V30 6105 C 575.639 -3.05471 2.99786 0
M  V30 6106 C 574.965 -4.45489 2.95709 0
M  V30 6107 C 576.265 -2.81318 4.40065 0
M  V30 6108 H 577.959 -1.37138 2.66146 0
M  V30 6109 H 575.505 -0.658299 1.28072 0
M  V30 6110 H 577.458 -3.71417 1.99067 0
M  V30 6111 H 576.182 -3.14328 0.886891 0
M  V30 6112 H 574.841 -2.30741 2.84876 0
M  V30 6113 H 574.489 -4.62505 1.97732 0
M  V30 6114 H 574.189 -4.53929 3.73125 0
M  V30 6115 H 575.713 -5.24655 3.12362 0
M  V30 6116 H 577.127 -3.48226 4.55425 0
M  V30 6117 H 575.524 -3.01188 5.19043 0
M  V30 6118 H 576.594 -1.7706 4.51418 0
M  V30 6119 N 577.937 -1.40673 -0.710563 0
M  V30 6120 C 578.867 -1.44095 -1.83736 0
M  V30 6121 C 579.848 -0.301286 -1.67411 0
M  V30 6122 O 581.033 -0.510618 -1.87367 0
M  V30 6123 C 578.163 -1.30773 -3.21738 0
M  V30 6124 C 577.117 -2.42395 -3.52745 0
M  V30 6125 C 576.443 -2.14147 -4.89944 0
M  V30 6126 C 577.743 -3.84738 -3.53234 0
M  V30 6127 H 579.437 -2.38396 -1.81129 0
M  V30 6128 H 576.983 -1.14746 -0.870017 0
M  V30 6129 H 578.936 -1.31783 -4.00264 0
M  V30 6130 H 577.66 -0.329507 -3.24934 0
M  V30 6131 H 576.319 -2.40643 -2.76562 0
M  V30 6132 H 575.967 -1.14703 -4.89747 0
M  V30 6133 H 575.667 -2.88934 -5.11655 0
M  V30 6134 H 577.191 -2.16848 -5.70797 0
M  V30 6135 H 578.605 -3.88286 -4.2179 0
M  V30 6136 H 577.002 -4.59085 -3.86473 0
M  V30 6137 H 578.072 -4.13962 -2.52514 0
M  V30 6138 N 579.415 0.9433 -1.26252 0
M  V30 6139 C 580.661 1.69175 -1.11837 0
M  V30 6140 C 580.994 1.91238 0.337891 0
M  V30 6141 O 580.269 1.49152 1.24836 0
M  V30 6142 C 580.552 3.06783 -1.88563 0
M  V30 6143 C 580.405 2.9206 -3.42083 0
M  V30 6144 C 581.724 4.06865 -1.67776 0
M  V30 6145 H 578.843 0.61399 -0.407658 0
M  V30 6146 H 581.485 1.09572 -1.55222 0
M  V30 6147 H 579.635 3.57663 -1.51689 0
M  V30 6148 H 581.307 2.48419 -3.88698 0
M  V30 6149 H 579.55 2.27731 -3.69217 0
M  V30 6150 H 580.221 3.89651 -3.90994 0
M  V30 6151 H 582.697 3.64939 -1.99897 0
M  V30 6152 H 581.573 5.01168 -2.23879 0
M  V30 6153 H 581.834 4.37705 -0.621816 0
M  V30 6154 N 580.893 1.08022 1.14757 0
M  V30 6155 C 582.123 0.827646 1.89298 0
M  V30 6156 C 582.531 -0.623506 1.78631 0
M  V30 6157 O 581.874 -1.43991 1.14071 0
M  V30 6158 C 581.936 1.16553 3.40082 0
M  V30 6159 C 581.6 2.61866 3.74533 0
M  V30 6160 C 582.597 3.60116 3.74984 0
M  V30 6161 C 580.282 2.97619 4.04633 0
M  V30 6162 C 582.276 4.92151 4.05051 0
M  V30 6163 C 579.963 4.2985 4.34364 0
M  V30 6164 C 580.961 5.26926 4.34555 0
M  V30 6165 O 580.649 6.5678 4.63568 0
M  V30 6166 H 580.381 0.298396 0.606577 0
M  V30 6167 H 582.935 1.44187 1.46285 0
M  V30 6168 H 581.165 0.494296 3.83528 0
M  V30 6169 H 582.854 0.894407 3.95923 0
M  V30 6170 H 583.62 3.33837 3.51821 0
M  V30 6171 H 579.499 2.22702 4.03639 0
M  V30 6172 H 583.043 5.67915 4.05115 0
M  V30 6173 H 578.94 4.55879 4.56995 0
M  V30 6174 H 579.708 6.62035 4.81303 0
M  V30 6175 N 582.371 -1.3172 0.865308 0
M  V30 6176 C 583.301 -2.31109 0.333302 0
M  V30 6177 C 584.282 -1.60148 -0.573301 0
M  V30 6178 O 585.467 -1.87882 -0.491305 0
M  V30 6179 C 582.597 -3.44104 -0.470078 0
M  V30 6180 C 581.551 -4.26623 0.343021 0
M  V30 6181 C 580.877 -5.31482 -0.585756 0
M  V30 6182 C 582.177 -4.98001 1.57456 0
M  V30 6183 H 583.871 -2.75855 1.1638 0
M  V30 6184 H 581.417 -1.3262 0.561069 0
M  V30 6185 H 583.37 -4.12682 -0.852752 0
M  V30 6186 H 582.094 -2.98112 -1.33404 0
M  V30 6187 H 580.753 -3.59707 0.707583 0
M  V30 6188 H 580.401 -4.81741 -1.44686 0
M  V30 6189 H 580.101 -5.87582 -0.0456494 0
M  V30 6190 H 581.625 -6.0292 -0.965375 0
M  V30 6191 H 583.039 -5.59201 1.26359 0
M  V30 6192 H 581.436 -5.63876 2.05339 0
M  V30 6193 H 582.506 -4.25253 2.32997 0
M  V30 6194 N 583.85 -0.624285 -1.44708 0
M  V30 6195 C 585.075 -0.131171 -2.06985 0
M  V30 6196 C 585.5 1.18234 -1.46295 0
M  V30 6197 O 584.858 1.72375 -0.561842 0
M  V30 6198 C 584.906 -0.0226724 -3.60593 0
M  V30 6199 O 584.01 1.02314 -3.99507 0
M  V30 6200 H 583.351 -0.0816556 -0.65896 0
M  V30 6201 H 585.88 -0.859027 -1.85693 0
M  V30 6202 H 585.891 0.170138 -4.07645 0
M  V30 6203 H 584.566 -0.981685 -4.04148 0
M  V30 6204 H 583.143 0.805452 -3.64097 0
M  V30 6205 N 585.328 1.53329 -0.364422 0
M  V30 6206 C 586.574 2.01537 0.225969 0
M  V30 6207 C 586.907 1.25128 1.48515 0
M  V30 6208 O 586.182 0.344653 1.91422 0
M  V30 6209 C 586.465 3.56339 0.519092 0
M  V30 6210 C 586.318 4.43441 -0.753639 0
M  V30 6211 C 587.637 4.19833 1.32015 0
M  V30 6212 H 584.756 0.732573 0.0806548 0
M  V30 6213 H 587.398 1.83597 -0.489084 0
M  V30 6214 H 585.548 3.71756 1.12825 0
M  V30 6215 H 587.22 4.39823 -1.39116 0
M  V30 6216 H 585.463 4.11457 -1.37424 0
M  V30 6217 H 586.134 5.49699 -0.503517 0
M  V30 6218 H 588.61 4.08242 0.804859 0
M  V30 6219 H 587.486 5.28177 1.49399 0
M  V30 6220 H 587.747 3.75821 2.32832 0
M  V30 6221 N 586.806 0.0935595 1.57322 0
M  V30 6222 C 588.222 -0.263091 1.57417 0
M  V30 6223 C 588.422 -1.68526 1.1046 0
M  V30 6224 O 587.478 -2.40139 0.780357 0
M  V30 6225 C 588.791 -0.0529201 3.00653 0
M  V30 6226 C 590.339 -0.120788 3.12767 0
M  V30 6227 C 590.814 0.0613707 4.57959 0
M  V30 6228 N 592.305 0.00648534 4.632 0
M  V30 6229 C 593.04 0.122699 5.73269 0
M  V30 6230 N 592.536 0.29366 6.92177 0
M  V30 6231 N 594.329 0.0640787 5.62063 0
M  V30 6232 H 586.48 1.02277 1.86154 0
M  V30 6233 H 588.743 0.4007 0.859153 0
M  V30 6234 H 588.449 0.929279 3.39201 0
M  V30 6235 H 588.323 -0.795899 3.68708 0
M  V30 6236 H 590.71 -1.09349 2.74093 0
M  V30 6237 H 590.791 0.653656 2.47307 0
M  V30 6238 H 590.435 1.03093 4.97327 0
M  V30 6239 H 590.365 -0.732748 5.21477 0
M  V30 6240 H 592.856 -0.123173 3.77699 0
M  V30 6241 H 593.169 0.37389 7.71895 0
M  V30 6242 H 591.514 0.329307 6.94219 0
M  V30 6243 H 594.705 -0.0683396 4.6805 0
M  V30 6244 H 594.878 0.158097 6.47807 0
M  V30 6245 N 588.284 -1.56567 -0.180126 0
M  V30 6246 C 589.514 -1.85349 -0.912647 0
M  V30 6247 C 589.922 -0.675795 -1.76719 0
M  V30 6248 O 589.265 0.3645 -1.80047 0
M  V30 6249 C 589.327 -3.08431 -1.84691 0
M  V30 6250 C 588.991 -4.41694 -1.17284 0
M  V30 6251 C 589.988 -5.17062 -0.542532 0
M  V30 6252 C 587.673 -4.8843 -1.17223 0
M  V30 6253 C 589.667 -6.37351 0.0793953 0
M  V30 6254 C 587.354 -6.08652 -0.54647 0
M  V30 6255 C 588.352 -6.82955 0.0782458 0
M  V30 6256 O 588.04 -8.00897 0.694158 0
M  V30 6257 H 587.772 -0.619286 -0.271036 0
M  V30 6258 H 590.326 -2.0454 -0.187768 0
M  V30 6259 H 588.556 -2.85163 -2.61188 0
M  V30 6260 H 590.245 -3.23733 -2.44851 0
M  V30 6261 H 591.011 -4.8204 -0.535045 0
M  V30 6262 H 586.89 -4.30542 -1.64788 0
M  V30 6263 H 590.434 -6.95287 0.567612 0
M  V30 6264 H 586.331 -6.4314 -0.55151 0
M  V30 6265 H 587.099 -8.16352 0.592537 0
M  V30 6266 N 589.762 0.448376 -1.51087 0
M  V30 6267 C 590.725 1.52588 -1.71025 0
M  V30 6268 C 591.725 1.49958 -0.580442 0
M  V30 6269 O 592.915 1.52176 -0.847833 0
M  V30 6270 C 590.047 2.92163 -1.75652 0
M  V30 6271 H 591.24 1.36218 -2.67179 0
M  V30 6272 H 588.793 0.676313 -1.4091 0
M  V30 6273 H 589.528 3.13951 -0.812724 0
M  V30 6274 H 589.313 2.95478 -2.57751 0
M  V30 6275 H 590.803 3.70349 -1.92953 0
M  V30 6276 N 591.24 1.41047 0.703093 0
M  V30 6277 C 592.488 1.39723 1.4602 0
M  V30 6278 C 592.809 0.00461257 1.94999 0
M  V30 6279 O 592.079 -0.952292 1.71196 0
M  V30 6280 H 590.659 0.514281 0.541779 0
M  V30 6281 H 593.321 1.76217 0.832678 0
M  V30 6282 H 592.417 2.07982 2.32701 0
M  V30 6283 N 592.718 -0.936591 1.26751 0
M  V30 6284 C 594.134 -1.21095 1.03963 0
M  V30 6285 C 594.334 -2.00156 -0.232372 0
M  V30 6286 O 593.39 -2.3434 -0.940274 0
M  V30 6287 C 594.703 -1.96775 2.27377 0
M  V30 6288 C 596.251 -2.09749 2.32324 0
M  V30 6289 C 596.726 -2.88832 3.55443 0
M  V30 6290 N 598.217 -2.96404 3.55948 0
M  V30 6291 C 598.952 -3.58036 4.47881 0
M  V30 6292 N 598.448 -4.21132 5.50109 0
M  V30 6293 N 600.241 -3.55353 4.35523 0
M  V30 6294 H 592.392 -0.408173 2.08441 0
M  V30 6295 H 594.655 -0.243139 0.91629 0
M  V30 6296 H 594.361 -1.46094 3.19921 0
M  V30 6297 H 594.235 -2.97424 2.31989 0
M  V30 6298 H 596.622 -2.5962 1.40291 0
M  V30 6299 H 596.703 -1.08347 2.31721 0
M  V30 6300 H 596.347 -2.39647 4.47808 0
M  V30 6301 H 596.277 -3.90499 3.53296 0
M  V30 6302 H 598.768 -2.51552 2.82011 0
M  V30 6303 H 599.081 -4.66071 6.16439 0
M  V30 6304 H 597.426 -4.19705 5.53961 0
M  V30 6305 H 600.617 -3.05256 3.54875 0
M  V30 6306 H 600.79 -4.03097 5.07363 0
M  V30 6307 N 594.196 -1.08629 -1.14182 0
M  V30 6308 C 595.612 -0.814363 -1.3726 0
M  V30 6309 C 595.812 0.575271 -1.93114 0
M  V30 6310 O 594.868 1.33165 -2.1453 0
M  V30 6311 C 596.181 -1.8989 -2.33157 0
M  V30 6312 C 597.729 -1.92518 -2.46791 0
M  V30 6313 C 598.204 -3.00092 -3.45989 0
M  V30 6314 N 599.695 -2.99279 -3.53534 0
M  V30 6315 C 600.43 -3.79158 -4.30147 0
M  V30 6316 N 599.926 -4.68923 -5.09983 0
M  V30 6317 N 601.719 -3.67451 -4.25366 0
M  V30 6318 H 593.87 -1.98232 -0.762758 0
M  V30 6319 H 596.133 -0.860383 -0.398051 0
M  V30 6320 H 595.839 -2.89809 -1.99257 0
M  V30 6321 H 595.713 -1.77013 -3.33086 0
M  V30 6322 H 598.1 -0.932425 -2.79982 0
M  V30 6323 H 598.181 -2.09473 -1.46816 0
M  V30 6324 H 597.825 -3.99575 -3.13532 0
M  V30 6325 H 597.755 -2.80382 -4.45751 0
M  V30 6326 H 600.246 -2.3422 -2.96563 0
M  V30 6327 H 600.559 -5.26475 -5.65724 0
M  V30 6328 H 598.904 -4.72964 -5.09244 0
M  V30 6329 H 602.095 -2.9669 -3.62067 0
M  V30 6330 H 602.268 -4.29944 -4.84822 0
M  V30 6331 N 595.674 1.31259 -0.872281 0
M  V30 6332 C 596.604 2.30929 -0.345554 0
M  V30 6333 C 597.585 1.60449 0.5648 0
M  V30 6334 O 598.77 1.8814 0.481335 0
M  V30 6335 C 595.9 3.44348 0.451823 0
M  V30 6336 C 594.854 4.26435 -0.365641 0
M  V30 6337 C 594.18 5.31785 0.557562 0
M  V30 6338 C 595.48 4.97159 -1.60095 0
M  V30 6339 H 597.174 2.75234 -1.17841 0
M  V30 6340 H 594.72 1.3232 -0.568094 0
M  V30 6341 H 596.673 4.13128 0.830854 0
M  V30 6342 H 595.397 2.98816 1.31821 0
M  V30 6343 H 594.056 3.59326 -0.726649 0
M  V30 6344 H 593.704 4.82502 1.4213 0
M  V30 6345 H 593.404 5.87598 0.0144878 0
M  V30 6346 H 594.928 6.03424 0.933387 0
M  V30 6347 H 596.342 5.58523 -1.29323 0
M  V30 6348 H 594.739 5.62779 -2.08327 0
M  V30 6349 H 595.809 4.24012 -2.35249 0
M  V30 6350 N 597.152 0.631951 1.44375 0
M  V30 6351 C 598.38 0.143867 2.06399 0
M  V30 6352 C 598.795 -1.18188 1.47231 0
M  V30 6353 O 598.152 -1.72511 0.595498 0
M  V30 6354 C 598.203 0.0238253 3.61492 0
M  V30 6355 O 597.924 1.29715 4.18456 0
M  V30 6356 C 599.425 -0.492856 4.40552 0
M  V30 6357 H 596.645 0.0800542 0.666207 0
M  V30 6358 H 599.189 0.866586 1.85231 0
M  V30 6359 H 597.344 -0.649338 3.81919 0
M  V30 6360 H 597.758 1.14252 5.11905 0
M  V30 6361 H 599.232 -0.525861 5.49489 0
M  V30 6362 H 599.709 -1.52006 4.12057 0
M  V30 6363 H 600.315 0.147085 4.25046 0
M  V30 6364 N 598.631 -1.53133 0.372548 0
M  V30 6365 C 599.563 -2.23557 -0.505444 0
M  V30 6366 C 600.576 -1.25211 -1.04049 0
M  V30 6367 O 601.765 -1.51391 -0.945675 0
M  V30 6368 C 598.865 -2.92516 -1.71136 0
M  V30 6369 C 598.038 -4.17428 -1.30661 0
M  V30 6370 C 597.097 -4.69535 -2.37536 0
M  V30 6371 O 596.123 -5.33042 -1.99637 0
M  V30 6372 N 597.325 -4.47947 -3.6922 0
M  V30 6373 H 600.09 -2.9954 0.0978259 0
M  V30 6374 H 597.651 -1.60684 0.198068 0
M  V30 6375 H 599.643 -3.24281 -2.42124 0
M  V30 6376 H 598.213 -2.19944 -2.22134 0
M  V30 6377 H 597.433 -3.91888 -0.426292 0
M  V30 6378 H 598.721 -4.98622 -1.01259 0
M  V30 6379 H 598.119 -3.97219 -4.02783 0
M  V30 6380 H 596.676 -4.84245 -4.36292 0
M  V30 6381 N 600.109 -0.101901 -1.5727 0
M  V30 6382 C 601.072 0.840129 -2.13247 0
M  V30 6383 C 602.072 1.20625 -1.06331 0
M  V30 6384 O 603.262 1.13456 -1.32186 0
M  V30 6385 C 600.394 2.13372 -2.65867 0
M  V30 6386 H 601.587 0.353945 -2.97804 0
M  V30 6387 H 599.14 0.147167 -1.55606 0
M  V30 6388 H 599.875 2.66461 -1.84849 0
M  V30 6389 H 599.66 1.88085 -3.44044 0
M  V30 6390 H 601.15 2.80748 -3.09145 0
M  V30 6391 N 601.587 1.56661 0.17182 0
M  V30 6392 C 602.835 1.81606 0.886774 0
M  V30 6393 C 603.156 0.678818 1.82803 0
M  V30 6394 O 602.426 -0.301354 1.93568 0
M  V30 6395 H 601.006 0.669934 0.330451 0
M  V30 6396 H 603.668 1.94142 0.171757 0
M  V30 6397 H 602.764 2.75634 1.46398 0
M  V30 6398 N 603.065 -0.440357 1.51323 0
M  V30 6399 C 604.293 -1.21255 1.67645 0
M  V30 6400 C 604.708 -1.85088 0.37252 0
M  V30 6401 O 604.065 -1.70582 -0.648683 0
M  V30 6402 C 604.116 -2.29881 2.78993 0
M  V30 6403 O 603.837 -1.68659 4.04334 0
M  V30 6404 C 605.338 -3.20214 3.06558 0
M  V30 6405 H 602.558 -0.36558 0.562666 0
M  V30 6406 H 605.102 -0.52214 1.97722 0
M  V30 6407 H 603.257 -2.94643 2.51524 0
M  V30 6408 H 603.671 -2.40426 4.6615 0
M  V30 6409 H 605.145 -3.92575 3.88058 0
M  V30 6410 H 605.622 -3.80794 2.18844 0
M  V30 6411 H 606.228 -2.61156 3.35675 0
M  V30 6412 N 604.543 -1.41418 -0.695603 0
M  V30 6413 C 605.473 -1.46035 -1.82197 0
M  V30 6414 C 606.454 -0.319025 -1.67082 0
M  V30 6415 O 607.639 -0.530462 -1.86815 0
M  V30 6416 C 604.769 -1.34179 -3.20333 0
M  V30 6417 C 603.723 -2.46123 -3.50154 0
M  V30 6418 C 603.049 -2.19332 -4.87645 0
M  V30 6419 C 604.349 -3.88463 -3.49133 0
M  V30 6420 H 606.043 -2.40303 -1.78591 0
M  V30 6421 H 603.589 -1.15663 -0.857797 0
M  V30 6422 H 605.542 -1.36021 -3.98844 0
M  V30 6423 H 604.266 -0.363952 -3.24566 0
M  V30 6424 H 602.925 -2.43563 -2.73994 0
M  V30 6425 H 602.573 -1.19891 -4.88503 0
M  V30 6426 H 602.273 -2.94344 -5.08562 0
M  V30 6427 H 603.797 -2.22889 -5.68465 0
M  V30 6428 H 605.211 -3.92738 -4.17648 0
M  V30 6429 H 603.608 -4.63158 -3.81582 0
M  V30 6430 H 604.678 -4.16617 -2.48109 0
M  V30 6431 N 606.021 0.929856 -1.27246 0
M  V30 6432 C 606.951 2.04722 -1.12299 0
M  V30 6433 C 607.932 1.70082 -0.0250464 0
M  V30 6434 O 609.117 1.93176 -0.199141 0
M  V30 6435 C 606.247 3.38721 -0.767145 0
M  V30 6436 C 605.201 3.87466 -1.81808 0
M  V30 6437 C 604.527 5.18246 -1.31626 0
M  V30 6438 C 605.827 4.11095 -3.22177 0
M  V30 6439 H 607.521 2.17485 -2.05769 0
M  V30 6440 H 605.067 1.04503 -0.990715 0
M  V30 6441 H 607.02 4.16366 -0.649413 0
M  V30 6442 H 605.744 3.25967 0.203259 0
M  V30 6443 H 604.403 3.12012 -1.92468 0
M  V30 6444 H 604.051 5.01881 -0.335378 0
M  V30 6445 H 603.751 5.51829 -2.01887 0
M  V30 6446 H 605.275 5.98462 -1.21143 0
M  V30 6447 H 606.689 4.79316 -3.1453 0
M  V30 6448 H 605.086 4.55982 -3.90129 0
M  V30 6449 H 606.156 3.16468 -3.67391 0
M  V30 6450 N 607.499 1.09233 1.13605 0
M  V30 6451 C 608.747 0.825525 1.84471 0
M  V30 6452 C 609.068 -0.650702 1.83823 0
M  V30 6453 O 608.338 -1.47204 1.29259 0
M  V30 6454 H 606.918 0.3024 0.683054 0
M  V30 6455 H 609.58 1.38006 1.37624 0
M  V30 6456 H 608.676 1.17727 2.89045 0
M  V30 6457 N 608.977 -1.30795 0.87923 0
M  V30 6458 C 610.205 -2.00527 0.509548 0
M  V30 6459 C 610.62 -1.65944 -0.90045 0
M  V30 6460 O 609.977 -0.893525 -1.5913 0
M  V30 6461 C 610.028 -3.55276 0.667943 0
M  V30 6462 O 609.749 -3.88625 2.02242 0
M  V30 6463 C 611.25 -4.4228 0.300494 0
M  V30 6464 H 608.47 -0.641261 0.197549 0
M  V30 6465 H 611.014 -1.66813 1.18295 0
M  V30 6466 H 609.169 -3.87377 0.0419843 0
M  V30 6467 H 609.583 -4.83334 2.03688 0
M  V30 6468 H 611.057 -5.50061 0.462242 0
M  V30 6469 H 611.534 -4.32556 -0.76106 0
M  V30 6470 H 612.14 -4.15613 0.902536 0
M  V30 6471 N 610.455 -0.639598 -1.44038 0
M  V30 6472 C 611.418 0.0506628 -2.29144 0
M  V30 6473 C 612.418 0.764001 -1.41491 0
M  V30 6474 O 613.608 0.607309 -1.63271 0
M  V30 6475 C 610.74 1.0824 -3.2326 0
M  V30 6476 H 611.933 -0.697987 -2.91664 0
M  V30 6477 H 609.486 -0.400146 -1.51091 0
M  V30 6478 H 610.221 1.86075 -2.65606 0
M  V30 6479 H 610.006 0.574725 -3.87865 0
M  V30 6480 H 611.496 1.56487 -3.87171 0
M  V30 6481 N 611.933 1.52934 -0.380664 0
M  V30 6482 C 612.863 2.29118 0.450268 0
M  V30 6483 C 613.844 1.32153 1.07096 0
M  V30 6484 O 615.029 1.61038 1.08537 0
M  V30 6485 C 612.159 3.09161 1.58231 0
M  V30 6486 C 611.113 4.13938 1.0881 0
M  V30 6487 C 610.439 4.82153 2.31155 0
M  V30 6488 C 611.739 5.22048 0.162146 0
M  V30 6489 H 613.433 2.98826 -0.185361 0
M  V30 6490 H 610.979 1.43715 -0.0905886 0
M  V30 6491 H 612.932 3.61211 2.17036 0
M  V30 6492 H 611.656 2.3717 2.2454 0
M  V30 6493 H 610.315 3.62855 0.522633 0
M  V30 6494 H 609.963 4.06719 2.95953 0
M  V30 6495 H 609.663 5.52966 1.98752 0
M  V30 6496 H 611.187 5.37004 2.90618 0
M  V30 6497 H 612.601 5.6951 0.658126 0
M  V30 6498 H 610.998 6.00057 -0.0717122 0
M  V30 6499 H 612.068 4.78398 -0.791438 0
M  V30 6500 N 613.412 0.11024 1.57214 0
M  V30 6501 C 614.375 -0.828808 2.1369 0
M  V30 6502 C 615.375 -1.20059 1.06969 0
M  V30 6503 O 616.565 -1.12754 1.32786 0
M  V30 6504 C 613.697 -2.11959 2.66994 0
M  V30 6505 H 614.89 -0.338146 2.97988 0
M  V30 6506 H 612.443 -0.138913 1.55681 0
M  V30 6507 H 613.178 -2.65476 1.8626 0
M  V30 6508 H 612.963 -1.86258 3.45037 0
M  V30 6509 H 614.453 -2.79105 3.10629 0
M  V30 6510 N 614.89 -1.56749 -0.16351 0
M  V30 6511 C 616.137 -1.82434 -0.878866 0
M  V30 6512 C 616.465 -0.688557 -1.81904 0
M  V30 6513 O 615.72 0.323644 -1.93005 0
M  V30 6514 C 616.019 -3.14342 -1.70071 0
M  V30 6515 C 615.685 -4.41647 -0.908775 0
M  V30 6516 C 614.347 -4.76224 -0.690236 0
M  V30 6517 C 616.699 -5.19998 -0.353815 0
M  V30 6518 C 614.027 -5.86624 0.0942374 0
M  V30 6519 C 616.379 -6.3122 0.41761 0
M  V30 6520 C 615.043 -6.64358 0.646879 0
M  V30 6521 H 614.313 -0.667574 -0.3216 0
M  V30 6522 H 616.96 -1.90963 -0.14337 0
M  V30 6523 H 615.265 -3.0119 -2.50583 0
M  V30 6524 H 616.962 -3.31426 -2.25738 0
M  V30 6525 H 613.552 -4.1453 -1.08916 0
M  V30 6526 H 617.736 -4.93673 -0.509975 0
M  V30 6527 H 612.992 -6.10751 0.281529 0
M  V30 6528 H 617.166 -6.91133 0.854849 0
M  V30 6529 H 614.793 -7.49742 1.25662 0
M  V30 6530 N 616.368 0.432326 -1.51554 0
M  V30 6531 C 617.616 1.17901 -1.64146 0
M  V30 6532 C 617.937 1.91604 -0.362367 0
M  V30 6533 O 617.207 1.85764 0.621968 0
M  V30 6534 H 615.787 0.438206 -0.604966 0
M  V30 6535 H 618.449 0.495172 -1.88505 0
M  V30 6536 H 617.545 1.90584 -2.47152 0
M  V30 6537 N 617.846 1.41785 0.688094 0
M  V30 6538 C 619.074 1.44915 1.47673 0
M  V30 6539 C 619.489 0.0565786 1.88715 0
M  V30 6540 O 618.846 -0.92579 1.57275 0
M  V30 6541 C 618.897 2.36452 2.73446 0
M  V30 6542 O 618.618 3.7029 2.34131 0
M  V30 6543 C 620.119 2.48463 3.67125 0
M  V30 6544 H 617.339 0.493324 0.454832 0
M  V30 6545 H 619.883 1.86153 0.846594 0
M  V30 6546 H 618.038 1.98502 3.3268 0
M  V30 6547 H 618.452 4.19183 3.15255 0
M  V30 6548 H 619.926 3.16662 4.52138 0
M  V30 6549 H 620.403 1.51826 4.12123 0
M  V30 6550 H 621.009 2.8708 3.13792 0
M  V30 6551 N 619.324 -0.923095 1.27737 0
M  V30 6552 C 620.74 -1.19985 1.05241 0
M  V30 6553 C 620.94 -2.00391 -0.21113 0
M  V30 6554 O 619.996 -2.35324 -0.915366 0
M  V30 6555 C 621.309 -1.94352 2.29451 0
M  V30 6556 C 622.857 -2.07273 2.34536 0
M  V30 6557 C 623.332 -2.85046 3.58487 0
M  V30 6558 N 624.823 -2.92612 3.59072 0
M  V30 6559 C 625.558 -3.53266 4.51654 0
M  V30 6560 N 625.054 -4.15274 5.54545 0
M  V30 6561 N 626.847 -3.50714 4.39268 0
M  V30 6562 H 618.998 -0.386042 2.08862 0
M  V30 6563 H 621.261 -0.233407 0.918817 0
M  V30 6564 H 620.967 -1.42692 3.21453 0
M  V30 6565 H 620.841 -2.94947 2.3513 0
M  V30 6566 H 623.228 -2.58117 1.43037 0
M  V30 6567 H 623.309 -1.05884 2.32857 0
M  V30 6568 H 622.953 -2.34884 4.50324 0
M  V30 6569 H 622.883 -3.8673 3.57418 0
M  V30 6570 H 625.374 -2.48547 2.84663 0
M  V30 6571 H 625.687 -4.59507 6.21348 0
M  V30 6572 H 624.032 -4.13806 5.58382 0
M  V30 6573 H 627.223 -3.01475 3.58093 0
M  V30 6574 H 627.396 -3.97693 5.1161 0
M  V30 6575 N 620.802 -1.09834 -1.13024 0
M  V30 6576 C 621.732 -0.763451 -2.20666 0
M  V30 6577 C 622.713 0.260778 -1.68089 0
M  V30 6578 O 623.898 0.127915 -1.93778 0
M  V30 6579 C 621.028 -0.187744 -3.46792 0
M  V30 6580 C 619.982 -1.14196 -4.12484 0
M  V30 6581 C 619.308 -0.427755 -5.32986 0
M  V30 6582 C 620.608 -2.48607 -4.59338 0
M  V30 6583 H 622.302 -1.66347 -2.48936 0
M  V30 6584 H 619.848 -0.801261 -1.19649 0
M  V30 6585 H 621.801 0.0586375 -4.21359 0
M  V30 6586 H 620.525 0.747485 -3.17931 0
M  V30 6587 H 619.184 -1.37369 -3.3989 0
M  V30 6588 H 618.832 0.511747 -5.0039 0
M  V30 6589 H 618.532 -1.06403 -5.77886 0
M  V30 6590 H 620.056 -0.189772 -6.10305 0
M  V30 6591 H 621.47 -2.29618 -5.25308 0
M  V30 6592 H 619.867 -3.08062 -5.14993 0
M  V30 6593 H 620.937 -3.09062 -3.73642 0
M  V30 6594 N 622.28 1.30327 -0.886154 0
M  V30 6595 C 623.21 2.30549 -0.370028 0
M  V30 6596 C 624.191 1.61039 0.547751 0
M  V30 6597 O 625.376 1.8864 0.461353 0
M  V30 6598 C 622.506 3.44808 0.415275 0
M  V30 6599 C 621.46 4.26024 -0.41085 0
M  V30 6600 C 620.786 5.32347 0.501128 0
M  V30 6601 C 622.086 4.95433 -1.65359 0
M  V30 6602 H 623.78 2.73969 -1.20754 0
M  V30 6603 H 621.326 1.3171 -0.582097 0
M  V30 6604 H 623.279 4.13986 0.78699 0
M  V30 6605 H 622.003 3.00197 1.28644 0
M  V30 6606 H 620.662 3.58535 -0.764719 0
M  V30 6607 H 620.31 4.83982 1.37004 0
M  V30 6608 H 620.01 5.87581 -0.0478356 0
M  V30 6609 H 621.534 6.0438 0.869333 0
M  V30 6610 H 622.948 5.5712 -1.35239 0
M  V30 6611 H 621.345 5.60537 -2.14284 0
M  V30 6612 H 622.415 4.21493 -2.39733 0
M  V30 6613 N 623.758 0.647228 1.43697 0
M  V30 6614 C 625.004 0.158422 2.0218 0
M  V30 6615 C 625.337 -1.22233 1.50907 0
M  V30 6616 O 624.612 -1.81478 0.699702 0
M  V30 6617 C 624.895 0.1627 3.59732 0
M  V30 6618 C 624.748 1.57694 4.21251 0
M  V30 6619 C 626.067 -0.504138 4.37203 0
M  V30 6620 H 623.186 0.059042 0.734631 0
M  V30 6621 H 625.828 0.826772 1.71069 0
M  V30 6622 H 623.978 -0.406414 3.86368 0
M  V30 6623 H 625.65 2.19618 4.05667 0
M  V30 6624 H 623.893 2.12603 3.7813 0
M  V30 6625 H 624.564 1.53183 5.3032 0
M  V30 6626 H 627.04 -0.0199841 4.16095 0
M  V30 6627 H 625.916 -0.470394 5.46881 0
M  V30 6628 H 626.177 -1.57726 4.13007 0
M  V30 6629 N 625.236 -1.5273 0.388769 0
M  V30 6630 C 626.461 -2.0647 -0.19621 0
M  V30 6631 C 626.886 -1.25865 -1.39784 0
M  V30 6632 O 626.244 -0.283562 -1.79069 0
M  V30 6633 C 626.292 -3.56456 -0.5451 0
M  V30 6634 O 625.396 -3.78426 -1.63912 0
M  V30 6635 H 624.737 -0.663599 -0.023067 0
M  V30 6636 H 627.267 -1.96898 0.556084 0
M  V30 6637 H 627.277 -3.99888 -0.809557 0
M  V30 6638 H 625.952 -4.14561 0.333417 0
M  V30 6639 H 624.529 -3.46884 -1.36842 0
M  V30 6640 N 626.714 -0.118576 -1.57153 0
M  V30 6641 C 627.939 0.550582 -1.99958 0
M  V30 6642 C 628.364 1.59458 -0.997736 0
M  V30 6643 O 627.722 1.81274 0.0306269 0
M  V30 6644 C 627.77 1.15379 -3.41643 0
M  V30 6645 O 626.874 2.26932 -3.44348 0
M  V30 6646 H 626.215 0.137567 -0.649593 0
M  V30 6647 H 628.745 -0.206926 -2.03551 0
M  V30 6648 H 628.755 1.48942 -3.79843 0
M  V30 6649 H 627.43 0.389087 -4.14076 0
M  V30 6650 H 626.007 1.94812 -3.17967 0
M  V30 6651 N 628.193 1.56834 0.155195 0
M  V30 6652 C 629.47 1.73799 0.897395 0
M  V30 6653 C 629.85 0.684379 1.99698 0
M  V30 6654 O 629.198 -0.298111 2.26547 0
M  V30 6655 C 629.408 3.17572 1.44737 0
M  V30 6656 C 630.756 3.79014 1.91399 0
M  V30 6657 O 631.78 3.20951 1.54496 0
M  V30 6658 O 630.639 4.80998 2.59429 0
M  V30 6659 H 627.733 0.710329 0.423511 0
M  V30 6660 H 630.279 1.69107 0.141761 0
M  V30 6661 H 629.051 3.85749 0.656741 0
M  V30 6662 H 628.674 3.26657 2.26674 0
M  V30 6663 N 629.671 -0.424282 1.51781 0
M  V30 6664 C 630.604 -1.53633 1.68737 0
M  V30 6665 C 631.582 -1.53549 0.534915 0
M  V30 6666 O 632.766 -1.72483 0.760391 0
M  V30 6667 C 629.893 -2.92195 1.71288 0
M  V30 6668 C 628.939 -3.10251 2.92654 0
M  V30 6669 S 629.772 -2.85166 4.53256 0
M  V30 6670 C 630.928 -4.25986 4.58571 0
M  V30 6671 H 631.161 -1.39018 2.62795 0
M  V30 6672 H 628.694 -0.614854 1.41629 0
M  V30 6673 H 630.652 -3.72059 1.73443 0
M  V30 6674 H 629.313 -3.04162 0.783847 0
M  V30 6675 H 628.506 -4.1159 2.90877 0
M  V30 6676 H 628.108 -2.38231 2.88308 0
M  V30 6677 H 630.4 -5.19392 4.35015 0
M  V30 6678 H 631.343 -4.32792 5.60444 0
M  V30 6679 H 631.751 -4.1025 3.87757 0
M  V30 6680 N 631.149 -1.42148 -0.680565 0
M  V30 6681 C 632.096 -1.45175 -1.79424 0
M  V30 6682 C 633.066 -0.304352 -1.63288 0
M  V30 6683 O 634.251 -0.507591 -1.83924 0
M  V30 6684 C 631.391 -1.35429 -3.17416 0
M  V30 6685 C 630.504 -2.60158 -3.4488 0
M  V30 6686 C 629.639 -2.42596 -4.72568 0
M  V30 6687 C 628.678 -3.62727 -4.93047 0
M  V30 6688 N 627.815 -3.44143 -6.11973 0
M  V30 6689 H 632.655 -2.40349 -1.76172 0
M  V30 6690 H 630.192 -1.19334 -0.860107 0
M  V30 6691 H 632.15 -1.27777 -3.97151 0
M  V30 6692 H 630.78 -0.438536 -3.19807 0
M  V30 6693 H 629.832 -2.78199 -2.5944 0
M  V30 6694 H 631.144 -3.49473 -3.55908 0
M  V30 6695 H 630.298 -2.32497 -5.60384 0
M  V30 6696 H 629.037 -1.50761 -4.63813 0
M  V30 6697 H 628.042 -3.73264 -4.03676 0
M  V30 6698 H 629.267 -4.55534 -5.03652 0
M  V30 6699 H 627.213 -2.5502 -6.04401 0
M  V30 6700 H 627.13 -4.27041 -6.23836 0
M  V30 6701 H 628.398 -3.37845 -7.02482 0
M  V30 6702 N 632.627 0.916307 -1.28225 0
M  V30 6703 C 633.852 1.7043 -1.18188 0
M  V30 6704 C 634.277 1.86346 0.256274 0
M  V30 6705 O 633.635 1.37175 1.18544 0
M  V30 6706 C 633.683 3.07546 -1.88275 0
M  V30 6707 O 632.787 3.94904 -1.18848 0
M  V30 6708 H 632.128 0.521967 -0.410423 0
M  V30 6709 H 634.658 1.14589 -1.69501 0
M  V30 6710 H 634.668 3.57793 -1.96082 0
M  V30 6711 H 633.343 2.95279 -2.92887 0
M  V30 6712 H 631.92 3.53339 -1.19187 0
M  V30 6713 N 634.105 1.10431 1.1244 0
M  V30 6714 C 635.351 0.857864 1.84424 0
M  V30 6715 C 635.706 -0.609995 1.82474 0
M  V30 6716 O 634.999 -1.44401 1.25932 0
M  V30 6717 C 635.193 1.34022 3.3132 0
M  V30 6718 C 635.022 2.85344 3.47576 0
M  V30 6719 C 633.792 3.53345 3.61213 0
M  V30 6720 C 635.99 3.83446 3.42744 0
M  V30 6721 N 633.972 4.92989 3.65834 0
M  V30 6722 C 635.343 5.09101 3.5386 0
M  V30 6723 C 637.398 3.76154 3.26209 0
M  V30 6724 C 636.101 6.28323 3.50146 0
M  V30 6725 C 638.127 4.94876 3.23809 0
M  V30 6726 C 637.489 6.19378 3.35485 0
M  V30 6727 H 633.588 0.366917 0.690577 0
M  V30 6728 H 636.172 1.40668 1.34613 0
M  V30 6729 H 634.343 0.818727 3.79673 0
M  V30 6730 H 636.075 1.03801 3.91162 0
M  V30 6731 H 632.83 3.03791 3.63329 0
M  V30 6732 H 633.254 5.65762 3.71809 0
M  V30 6733 H 637.896 2.80813 3.16076 0
M  V30 6734 H 635.614 7.23953 3.5905 0
M  V30 6735 H 639.2 4.90942 3.12197 0
M  V30 6736 H 638.08 7.09704 3.33602 0
M  V30 6737 N 635.583 -1.29855 0.893053 0
M  V30 6738 C 636.808 -2.00512 0.530066 0
M  V30 6739 C 637.233 -1.66446 -0.876199 0
M  V30 6740 O 636.591 -0.885446 -1.58207 0
M  V30 6741 C 636.639 -3.53308 0.721505 0
M  V30 6742 O 635.743 -4.11764 -0.228994 0
M  V30 6743 H 635.084 -0.630617 0.207891 0
M  V30 6744 H 637.614 -1.6551 1.20282 0
M  V30 6745 H 637.624 -4.03206 0.623599 0
M  V30 6746 H 636.299 -3.77439 1.74678 0
M  V30 6747 H 634.876 -3.72805 -0.0841034 0
M  V30 6748 N 637.061 -0.65484 -1.43351 0
M  V30 6749 C 638.289 -0.176685 -2.06144 0
M  V30 6750 C 638.704 1.15831 -1.49093 0
M  V30 6751 O 638.061 1.71542 -0.622868 0
M  V30 6752 C 638.112 -0.0813326 -3.61408 0
M  V30 6753 O 637.833 -1.36355 -4.1634 0
M  V30 6754 C 639.334 0.422706 -4.4128 0
M  V30 6755 H 636.554 -0.0906429 -0.66485 0
M  V30 6756 H 639.098 -0.895945 -1.83829 0
M  V30 6757 H 637.253 0.588496 -3.82904 0
M  V30 6758 H 637.667 -1.22381 -5.10023 0
M  V30 6759 H 639.141 0.438375 -5.50257 0
M  V30 6760 H 639.618 1.45432 -4.14423 0
M  V30 6761 H 640.224 -0.214687 -4.24758 0
M  V30 6762 N 638.539 1.52521 -0.396863 0
M  V30 6763 C 639.785 2.01971 0.183169 0
M  V30 6764 C 640.118 1.2825 1.45827 0
M  V30 6765 O 639.393 0.385179 1.90648 0
M  V30 6766 C 639.676 3.5736 0.443391 0
M  V30 6767 C 639.529 4.41743 -0.84753 0
M  V30 6768 C 640.848 4.22539 1.2308 0
M  V30 6769 H 637.967 0.734119 0.0650976 0
M  V30 6770 H 640.609 1.82519 -0.527918 0
M  V30 6771 H 638.759 3.74066 1.04914 0
M  V30 6772 H 640.431 4.36773 -1.48414 0
M  V30 6773 H 638.674 4.0845 -1.4612 0
M  V30 6774 H 639.345 5.48507 -0.620003 0
M  V30 6775 H 641.821 4.09857 0.718084 0
M  V30 6776 H 640.697 5.31227 1.38162 0
M  V30 6777 H 640.958 3.80675 2.24808 0
M  V30 6778 N 640.017 0.126909 1.57088 0
M  V30 6779 C 640.947 -0.816847 2.18746 0
M  V30 6780 C 641.928 -1.27161 1.12979 0
M  V30 6781 O 643.113 -1.33279 1.41246 0
M  V30 6782 C 640.243 -2.06398 2.79315 0
M  V30 6783 C 639.197 -1.74673 3.90735 0
M  V30 6784 C 638.523 -3.06482 4.38147 0
M  V30 6785 C 639.823 -1.0089 5.12463 0
M  V30 6786 H 641.517 -0.303032 2.97863 0
M  V30 6787 H 639.063 -0.144314 1.43275 0
M  V30 6788 H 641.016 -2.72885 3.2111 0
M  V30 6789 H 639.74 -2.60118 1.975 0
M  V30 6790 H 638.399 -1.10572 3.49527 0
M  V30 6791 H 638.047 -3.58152 3.5318 0
M  V30 6792 H 637.747 -2.86025 5.13287 0
M  V30 6793 H 639.271 -3.74073 4.82599 0
M  V30 6794 H 640.685 -1.57546 5.51228 0
M  V30 6795 H 639.082 -0.905006 5.93237 0
M  V30 6796 H 640.152 0.00297335 4.849 0
M  V30 6797 N 641.495 -1.56914 -0.146875 0
M  V30 6798 C 642.458 -1.97368 -1.16526 0
M  V30 6799 C 643.458 -0.860223 -1.35856 0
M  V30 6800 O 644.648 -1.12684 -1.32846 0
M  V30 6801 C 641.78 -2.28974 -2.52555 0
M  V30 6802 H 642.973 -2.88523 -0.818209 0
M  V30 6803 H 640.526 -1.5135 -0.390221 0
M  V30 6804 H 641.261 -1.40611 -2.92231 0
M  V30 6805 H 641.046 -3.10157 -2.39886 0
M  V30 6806 H 642.536 -2.61109 -3.25902 0
M  V30 6807 N 642.974 0.416227 -1.52004 0
M  V30 6808 C 644.22 1.16555 -1.6596 0
M  V30 6809 C 644.553 1.90347 -0.384906 0
M  V30 6810 O 643.828 1.84474 0.616405 0
M  V30 6811 C 644.111 2.1657 -2.87696 0
M  V30 6812 C 643.964 1.46722 -4.25197 0
M  V30 6813 C 645.283 3.17321 -3.04951 0
M  V30 6814 H 642.402 0.422369 -0.603965 0
M  V30 6815 H 645.044 0.452141 -1.84542 0
M  V30 6816 H 643.194 2.77411 -2.71985 0
M  V30 6817 H 644.866 0.89056 -4.52622 0
M  V30 6818 H 643.109 0.769263 -4.26925 0
M  V30 6819 H 643.78 2.19665 -5.0641 0
M  V30 6820 H 646.256 2.66552 -3.19514 0
M  V30 6821 H 645.132 3.84573 -3.91656 0
M  V30 6822 H 645.393 3.84643 -2.17951 0
M  V30 6823 N 644.452 1.42507 0.673017 0
M  V30 6824 C 645.385 1.40557 1.79774 0
M  V30 6825 C 646.363 0.269606 1.60349 0
M  V30 6826 O 647.547 0.460105 1.82798 0
M  V30 6827 C 644.674 1.19815 3.168 0
M  V30 6828 C 643.72 2.36429 3.5497 0
M  V30 6829 S 644.553 3.98963 3.57196 0
M  V30 6830 C 645.709 3.80567 4.9691 0
M  V30 6831 H 645.942 2.35734 1.81154 0
M  V30 6832 H 643.475 1.293 0.843846 0
M  V30 6833 H 645.433 1.08535 3.95892 0
M  V30 6834 H 644.094 0.262215 3.13004 0
M  V30 6835 H 643.287 2.17669 4.54573 0
M  V30 6836 H 642.889 2.44233 2.83242 0
M  V30 6837 H 645.181 3.41668 5.85038 0
M  V30 6838 H 646.124 4.79852 5.20718 0
M  V30 6839 H 646.532 3.13399 4.69512 0
M  V30 6840 N 645.93 -0.909495 1.28709 0
M  V30 6841 C 647.178 -1.65577 1.15882 0
M  V30 6842 C 647.499 -1.928 -0.292108 0
M  V30 6843 O 646.769 -1.54716 -1.20166 0
M  V30 6844 H 645.349 -0.613714 0.425869 0
M  V30 6845 H 648.011 -1.09108 1.61498 0
M  V30 6846 H 647.107 -2.61634 1.70159 0
M  V30 6847 N 647.408 -1.11026 -1.11852 0
M  V30 6848 C 648.355 -0.764662 -2.17765 0
M  V30 6849 C 649.325 0.261854 -1.64023 0
M  V30 6850 O 650.51 0.139748 -1.90288 0
M  V30 6851 C 647.65 -0.209317 -3.44465 0
M  V30 6852 C 646.763 -1.29187 -4.12231 0
M  V30 6853 C 645.898 -0.697523 -5.266 0
M  V30 6854 C 644.937 -1.76023 -5.86244 0
M  V30 6855 N 644.074 -1.18569 -6.92016 0
M  V30 6856 H 648.914 -1.67202 -2.46673 0
M  V30 6857 H 646.451 -0.835065 -1.21099 0
M  V30 6858 H 648.409 0.130599 -4.16996 0
M  V30 6859 H 647.039 0.661251 -3.15955 0
M  V30 6860 H 646.091 -1.74881 -3.37818 0
M  V30 6861 H 647.403 -2.09607 -4.52622 0
M  V30 6862 H 646.557 -0.307412 -6.05921 0
M  V30 6863 H 645.296 0.138044 -4.87505 0
M  V30 6864 H 644.301 -2.1597 -5.05606 0
M  V30 6865 H 645.526 -2.59875 -6.27409 0
M  V30 6866 H 643.472 -0.371695 -6.54946 0
M  V30 6867 H 643.389 -1.92666 -7.31038 0
M  V30 6868 H 644.657 -0.82233 -7.7515 0
M  V30 6869 N 648.886 1.2938 -0.899927 0
M  V30 6870 C 649.849 2.25983 -0.382677 0
M  V30 6871 C 650.849 1.53366 0.483259 0
M  V30 6872 O 652.039 1.71798 0.28828 0
M  V30 6873 C 649.171 3.37878 0.452915 0
M  V30 6874 H 650.364 2.73252 -1.23586 0
M  V30 6875 H 647.917 1.40825 -0.678088 0
M  V30 6876 H 648.652 2.95949 1.32608 0
M  V30 6877 H 648.437 3.91742 -0.167562 0
M  V30 6878 H 649.927 4.09746 0.806107 0
M  V30 6879 N 650.364 0.662433 1.43002 0
M  V30 6880 C 651.611 0.179591 2.01702 0
M  V30 6881 C 651.939 -1.20964 1.52309 0
M  V30 6882 O 651.194 -1.82343 0.7106 0
M  V30 6883 C 651.493 0.149363 3.57088 0
M  V30 6884 C 651.159 1.48158 4.25864 0
M  V30 6885 C 649.821 1.84638 4.44367 0
M  V30 6886 C 652.173 2.35953 4.64732 0
M  V30 6887 C 649.501 3.08561 4.99006 0
M  V30 6888 C 651.853 3.59176 5.20745 0
M  V30 6889 C 650.517 3.95841 5.37463 0
M  V30 6890 H 649.787 0.0657172 0.73808 0
M  V30 6891 H 652.434 0.854968 1.71355 0
M  V30 6892 H 650.739 -0.609491 3.8703 0
M  V30 6893 H 652.436 -0.241241 4.00274 0
M  V30 6894 H 649.026 1.18777 4.11813 0
M  V30 6895 H 653.21 2.09058 4.50121 0
M  V30 6896 H 648.466 3.37005 5.10135 0
M  V30 6897 H 652.64 4.27417 5.49807 0
M  V30 6898 H 650.267 4.91942 5.79566 0
M  V30 6899 N 651.842 -1.52309 0.404946 0
M  V30 6900 C 653.067 -2.06666 -0.1743 0
M  V30 6901 C 653.492 -1.27341 -1.38441 0
M  V30 6902 O 652.85 -0.302539 -1.78758 0
M  V30 6903 C 652.898 -3.57014 -0.507262 0
M  V30 6904 O 652.002 -3.80144 -1.59889 0
M  V30 6905 H 651.343 -0.663807 -0.0160273 0
M  V30 6906 H 653.873 -1.96297 0.576937 0
M  V30 6907 H 653.883 -4.00724 -0.767098 0
M  V30 6908 H 652.558 -4.14184 0.377368 0
M  V30 6909 H 651.135 -3.48316 -1.33155 0
M  V30 6910 N 653.32 -0.135238 -1.57019 0
M  V30 6911 C 654.23 0.822226 -2.19719 0
M  V30 6912 C 655.246 1.28057 -1.17802 0
M  V30 6913 O 656.422 1.3402 -1.50335 0
M  V30 6914 C 653.487 2.0484 -2.79717 0
M  V30 6915 C 652.548 1.64042 -3.96723 0
M  V30 6916 C 651.781 2.80814 -4.53849 0
M  V30 6917 O 652.004 3.967 -4.0986 0
M  V30 6918 O 650.938 2.56963 -5.44292 0
M  V30 6919 H 654.764 0.318552 -3.02025 0
M  V30 6920 H 652.349 0.0912021 -1.49121 0
M  V30 6921 H 654.231 2.76622 -3.17897 0
M  V30 6922 H 652.906 2.54182 -2.00432 0
M  V30 6923 H 651.813 0.893182 -3.63281 0
M  V30 6924 H 653.146 1.19426 -4.77492 0
M  V30 6925 N 654.798 1.5699 0.138552 0
M  V30 6926 C 655.761 1.97984 1.15478 0
M  V30 6927 C 656.761 0.867416 1.35398 0
M  V30 6928 O 657.951 1.13387 1.32246 0
M  V30 6929 C 655.083 2.3031 2.51337 0
M  V30 6930 H 656.276 2.88953 0.802896 0
M  V30 6931 H 653.829 1.51555 0.382189 0
M  V30 6932 H 654.564 1.42159 2.91481 0
M  V30 6933 H 654.349 3.11425 2.38237 0
M  V30 6934 H 655.839 2.62834 3.24512 0
M  V30 6935 N 656.276 -0.40816 1.52223 0
M  V30 6936 C 657.239 -1.48 1.7501 0
M  V30 6937 C 658.239 -1.48367 0.619996 0
M  V30 6938 O 659.429 -1.49874 0.887881 0
M  V30 6939 C 656.561 -2.87403 1.83336 0
M  V30 6940 H 657.754 -1.29086 2.70697 0
M  V30 6941 H 655.307 -0.638715 1.42654 0
M  V30 6942 H 656.042 -3.11686 0.895677 0
M  V30 6943 H 655.827 -2.8854 2.65494 0
M  V30 6944 H 657.317 -3.65103 2.02705 0
M  V30 6945 N 657.755 -1.42862 -0.66545 0
M  V30 6946 C 659.002 -1.4383 -1.42546 0
M  V30 6947 C 659.33 -0.0581114 -1.94413 0
M  V30 6948 O 658.585 0.935002 -1.71919 0
M  V30 6949 C 658.884 -2.4175 -2.63233 0
M  V30 6950 C 658.55 -3.87915 -2.29854 0
M  V30 6951 C 657.212 -4.27726 -2.20463 0
M  V30 6952 C 659.564 -4.80074 -2.02924 0
M  V30 6953 C 656.892 -5.57666 -1.82279 0
M  V30 6954 C 659.244 -6.10366 -1.66242 0
M  V30 6955 C 657.908 -6.49167 -1.55367 0
M  V30 6956 H 657.178 -0.52631 -0.521612 0
M  V30 6957 H 659.825 -1.75863 -0.757914 0
M  V30 6958 H 658.13 -2.03077 -3.35063 0
M  V30 6959 H 659.827 -2.39759 -3.21429 0
M  V30 6960 H 656.417 -3.564 -2.3807 0
M  V30 6961 H 660.601 -4.50097 -2.09108 0
M  V30 6962 H 655.857 -5.8658 -1.72436 0
M  V30 6963 H 660.031 -6.81258 -1.44432 0
M  V30 6964 H 657.658 -7.49761 -1.2555 0
M  V30 6965 N 659.233 0.902656 -1.29189 0
M  V30 6966 C 660.461 1.68639 -1.19869 0
M  V30 6967 C 660.876 1.87254 0.241121 0
M  V30 6968 O 660.233 1.40745 1.16177 0
M  V30 6969 C 660.284 3.07251 -1.90471 0
M  V30 6970 O 660.005 2.89488 -3.28829 0
M  V30 6971 C 661.506 4.01653 -1.8759 0
M  V30 6972 H 658.726 0.526802 -0.415596 0
M  V30 6973 H 661.27 1.12901 -1.7051 0
M  V30 6974 H 659.425 3.59774 -1.43672 0
M  V30 6975 H 659.839 3.77296 -3.64346 0
M  V30 6976 H 661.313 4.96339 -2.4156 0
M  V30 6977 H 661.79 4.30881 -0.850756 0
M  V30 6978 H 662.396 3.55061 -2.34119 0
M  V30 6979 N 660.711 1.11618 1.11262 0
M  V30 6980 C 661.939 0.888739 1.8684 0
M  V30 6981 C 662.354 -0.561558 1.80255 0
M  V30 6982 O 661.711 -1.38782 1.18515 0
M  V30 6983 C 661.762 1.34422 3.35579 0
M  V30 6984 O 661.483 2.73766 3.42029 0
M  V30 6985 C 662.984 1.15246 4.28058 0
M  V30 6986 H 660.204 0.318152 0.590779 0
M  V30 6987 H 662.748 1.48398 1.40707 0
M  V30 6988 H 660.903 0.79239 3.7921 0
M  V30 6989 H 661.317 2.9355 4.34659 0
M  V30 6990 H 662.791 1.52015 5.30656 0
M  V30 6991 H 663.268 0.0922007 4.39103 0
M  V30 6992 H 663.874 1.69136 3.90222 0
M  V30 6993 N 662.189 -1.289 0.906776 0
M  V30 6994 C 663.152 -2.25777 0.394656 0
M  V30 6995 C 664.152 -1.53621 -0.475119 0
M  V30 6996 O 665.342 -1.71949 -0.279165 0
M  V30 6997 C 662.474 -3.38113 -0.43499 0
M  V30 6998 H 663.667 -2.72592 1.25033 0
M  V30 6999 H 661.22 -1.40463 0.685547 0
M  V30 7000 H 661.955 -2.96648 -1.31036 0
M  V30 7001 H 661.74 -3.91647 0.188334 0
M  V30 7002 H 663.23 -4.10168 -0.784365 0
M  V30 7003 N 663.667 -0.670007 -1.42649 0
M  V30 7004 C 664.897 -0.198252 -2.05647 0
M  V30 7005 C 665.305 1.14786 -1.50402 0
M  V30 7006 O 664.648 1.72316 -0.636634 0
M  V30 7007 C 664.71 -0.0507132 -3.59464 0
M  V30 7008 C 664.374 -1.32478 -4.37377 0
M  V30 7009 C 665.371 -2.2572 -4.68344 0
M  V30 7010 C 663.056 -1.57104 -4.77099 0
M  V30 7011 C 665.05 -3.4187 -5.37963 0
M  V30 7012 C 662.737 -2.73543 -5.46459 0
M  V30 7013 C 663.735 -3.65751 -5.76815 0
M  V30 7014 O 663.423 -4.80154 -6.44753 0
M  V30 7015 H 663.155 -0.0950721 -0.669281 0
M  V30 7016 H 665.709 -0.915745 -1.83857 0
M  V30 7017 H 663.939 0.722314 -3.79894 0
M  V30 7018 H 665.628 0.380552 -4.04112 0
M  V30 7019 H 666.394 -2.07943 -4.38161 0
M  V30 7020 H 662.273 -0.862069 -4.52868 0
M  V30 7021 H 665.817 -4.13861 -5.61574 0
M  V30 7022 H 661.714 -2.91248 -5.7606 0
M  V30 7023 H 662.482 -4.79637 -6.63243 0
M  V30 7024 N 665.145 1.52092 -0.413018 0
M  V30 7025 C 666.075 2.30021 0.401567 0
M  V30 7026 C 667.056 1.34395 1.04269 0
M  V30 7027 O 668.241 1.63304 1.05097 0
M  V30 7028 C 665.371 3.12447 1.51638 0
M  V30 7029 C 664.325 4.16153 1.00005 0
M  V30 7030 C 663.651 4.86948 2.20875 0
M  V30 7031 C 664.951 5.22275 0.0513757 0
M  V30 7032 H 666.645 2.98365 -0.248704 0
M  V30 7033 H 664.191 1.4349 -0.121052 0
M  V30 7034 H 666.144 3.65733 2.09326 0
M  V30 7035 H 664.868 2.41879 2.19458 0
M  V30 7036 H 663.527 3.63882 0.445549 0
M  V30 7037 H 663.175 4.12905 2.8726 0
M  V30 7038 H 662.875 5.57057 1.86978 0
M  V30 7039 H 664.399 5.43048 2.79162 0
M  V30 7040 H 665.813 5.70778 0.537176 0
M  V30 7041 H 664.21 5.9977 -0.198977 0
M  V30 7042 H 665.28 4.76611 -0.892736 0
M  V30 7043 N 666.623 0.143563 1.56945 0
M  V30 7044 C 667.87 -0.508407 1.96014 0
M  V30 7045 C 668.198 -1.65099 1.02824 0
M  V30 7046 O 667.453 -1.95618 0.0567764 0
M  V30 7047 C 667.752 -1.05885 3.41355 0
M  V30 7048 C 667.418 -0.0350809 4.50886 0
M  V30 7049 C 666.08 0.246362 4.80569 0
M  V30 7050 C 668.432 0.661282 5.16988 0
M  V30 7051 C 665.76 1.23003 5.73661 0
M  V30 7052 C 668.112 1.63375 6.11139 0
M  V30 7053 C 666.776 1.92292 6.39203 0
M  V30 7054 H 666.046 -0.186039 0.717266 0
M  V30 7055 H 668.693 0.229667 1.90118 0
M  V30 7056 H 666.998 -1.87419 3.44066 0
M  V30 7057 H 668.695 -1.57183 3.6891 0
M  V30 7058 H 665.285 -0.264622 4.27782 0
M  V30 7059 H 669.469 0.457038 4.94191 0
M  V30 7060 H 664.725 1.46056 5.93698 0
M  V30 7061 H 668.899 2.17887 6.61436 0
M  V30 7062 H 666.526 2.68666 7.11142 0
M  V30 7063 N 668.101 -1.57061 -0.130224 0
M  V30 7064 C 669.329 -1.88432 -0.854456 0
M  V30 7065 C 669.744 -0.733608 -1.73964 0
M  V30 7066 O 669.101 0.296029 -1.80083 0
M  V30 7067 C 669.152 -3.1918 -1.69724 0
M  V30 7068 O 668.873 -4.2982 -0.847705 0
M  V30 7069 C 670.374 -3.6418 -2.5276 0
M  V30 7070 H 667.594 -0.624193 -0.246221 0
M  V30 7071 H 670.138 -2.04159 -0.11798 0
M  V30 7072 H 668.293 -3.05156 -2.3866 0
M  V30 7073 H 668.707 -5.04689 -1.42792 0
M  V30 7074 H 670.181 -4.58457 -3.07443 0
M  V30 7075 H 670.658 -2.90285 -3.29592 0
M  V30 7076 H 671.264 -3.80954 -1.89087 0
M  V30 7077 N 669.579 0.400081 -1.52437 0
M  V30 7078 C 670.804 1.17221 -1.71096 0
M  V30 7079 C 671.229 1.83269 -0.423565 0
M  V30 7080 O 670.587 1.70378 0.619751 0
M  V30 7081 C 670.635 2.20425 -2.85386 0
M  V30 7082 O 669.739 3.26769 -2.51586 0
M  V30 7083 H 669.08 0.341766 -0.569291 0
M  V30 7084 H 671.61 0.467772 -1.99181 0
M  V30 7085 H 671.62 2.64605 -3.10561 0
M  V30 7086 H 670.295 1.71737 -3.78786 0
M  V30 7087 H 668.872 2.87804 -2.37114 0
M  V30 7088 N 671.057 1.43213 0.657864 0
M  V30 7089 C 671.967 1.50448 1.80007 0
M  V30 7090 C 672.983 0.39191 1.69529 0
M  V30 7091 O 674.159 0.645349 1.90781 0
M  V30 7092 C 671.224 1.42062 3.16258 0
M  V30 7093 C 670.285 2.63951 3.38568 0
M  V30 7094 C 669.518 2.55956 4.68318 0
M  V30 7095 O 669.741 1.60473 5.47361 0
M  V30 7096 O 668.675 3.46378 4.92245 0
M  V30 7097 H 672.501 2.4689 1.76858 0
M  V30 7098 H 670.086 1.25163 0.81576 0
M  V30 7099 H 671.968 1.3981 3.97531 0
M  V30 7100 H 670.643 0.487524 3.20008 0
M  V30 7101 H 669.55 2.71776 2.57077 0
M  V30 7102 H 670.883 3.56217 3.39662 0
M  V30 7103 N 672.536 -0.895792 1.29666 0
M  V30 7104 C 673.466 -2.01673 1.17688 0
M  V30 7105 C 674.447 -1.69955 0.0701317 0
M  V30 7106 O 675.632 -1.9258 0.250289 0
M  V30 7107 C 672.762 -3.36568 0.856681 0
M  V30 7108 C 671.716 -3.82509 1.92017 0
M  V30 7109 C 671.042 -5.14574 1.4532 0
M  V30 7110 C 672.342 -4.02409 3.32963 0
M  V30 7111 H 674.036 -2.11953 2.11463 0
M  V30 7112 H 671.582 -1.01839 1.01807 0
M  V30 7113 H 673.535 -4.14498 0.759577 0
M  V30 7114 H 672.259 -3.26391 -0.116763 0
M  V30 7115 H 670.918 -3.068 2.00673 0
M  V30 7116 H 670.566 -5.00815 0.468325 0
M  V30 7117 H 670.266 -5.46283 2.16447 0
M  V30 7118 H 671.79 -5.9504 1.36968 0
M  V30 7119 H 673.204 -4.70808 3.27127 0
M  V30 7120 H 671.601 -4.45478 4.02082 0
M  V30 7121 H 672.671 -3.06616 3.75652 0
M  V30 7122 N 674.014 -1.12206 -1.10668 0
M  V30 7123 C 675.244 -0.897332 -1.86095 0
M  V30 7124 C 675.652 0.556778 -1.80822 0
M  V30 7125 O 674.995 1.39658 -1.19337 0
M  V30 7126 C 675.057 -1.29095 -3.35522 0
M  V30 7127 C 674.721 -2.75586 -3.64556 0
M  V30 7128 C 675.718 -3.73785 -3.6136 0
M  V30 7129 C 673.403 -3.12432 -3.93309 0
M  V30 7130 C 675.397 -5.06845 -3.86506 0
M  V30 7131 C 673.084 -4.45675 -4.18111 0
M  V30 7132 C 674.082 -5.42691 -4.147 0
M  V30 7133 O 673.77 -6.73532 -4.38873 0
M  V30 7134 H 673.502 -0.320704 -0.595084 0
M  V30 7135 H 676.056 -1.49517 -1.40833 0
M  V30 7136 H 674.286 -0.636299 -3.81429 0
M  V30 7137 H 675.975 -1.04073 -3.92331 0
M  V30 7138 H 676.741 -3.46664 -3.39189 0
M  V30 7139 H 672.62 -2.3753 -3.95096 0
M  V30 7140 H 676.164 -5.82559 -3.83758 0
M  V30 7141 H 672.061 -4.72526 -4.39761 0
M  V30 7142 H 672.829 -6.79442 -4.564 0
M  V30 7143 N 675.492 1.28418 -0.913599 0
M  V30 7144 C 676.903 1.77024 -0.593237 0
M  V30 7145 C 677.254 1.74779 0.891441 0
M  V30 7146 O 676.379 1.34237 1.69733 0
M  V30 7147 C 676.974 3.21456 -1.07011 0
M  V30 7148 C 675.533 3.67786 -0.800664 0
M  V30 7149 C 674.68 2.48185 -1.23691 0
M  V30 7150 H 677.631 1.14883 -1.09487 0
M  V30 7151 H 677.652 3.78269 -0.411481 0
M  V30 7152 H 677.164 3.23058 -2.1507 0
M  V30 7153 H 675.265 3.71644 0.266725 0
M  V30 7154 H 675.378 4.57934 -1.4083 0
M  V30 7155 H 673.742 2.46116 -0.655655 0
M  V30 7156 H 674.525 2.52506 -2.32585 0
M  V30 7157 N 676.97 0.677563 1.42291 0
M  V30 7158 C 678.198 0.209459 2.05837 0
M  V30 7159 C 678.613 -1.13444 1.50917 0
M  V30 7160 O 677.97 -1.70529 0.65008 0
M  V30 7161 C 678.021 0.138819 3.61233 0
M  V30 7162 O 677.742 1.42962 4.14118 0
M  V30 7163 C 679.243 -0.352449 4.41897 0
M  V30 7164 H 676.463 0.101209 0.663323 0
M  V30 7165 H 679.007 0.925077 1.8238 0
M  V30 7166 H 677.162 -0.527505 3.83792 0
M  V30 7167 H 677.576 1.3048 5.08011 0
M  V30 7168 H 679.05 -0.350778 5.50884 0
M  V30 7169 H 679.527 -1.3882 4.16684 0
M  V30 7170 H 680.133 0.282236 4.24362 0
M  V30 7171 N 678.448 -1.51871 0.421078 0
M  V30 7172 C 679.694 -2.02237 -0.151014 0
M  V30 7173 C 680.027 -1.30554 -1.43768 0
M  V30 7174 O 679.302 -0.41546 -1.90011 0
M  V30 7175 C 679.585 -3.5802 -0.386482 0
M  V30 7176 C 679.438 -4.40339 0.9177 0
M  V30 7177 C 680.757 -4.24444 -1.16342 0
M  V30 7178 H 677.876 -0.735062 -0.0534102 0
M  V30 7179 H 680.518 -1.81656 0.556888 0
M  V30 7180 H 678.668 -3.75688 -0.989494 0
M  V30 7181 H 680.34 -4.34357 1.55344 0
M  V30 7182 H 678.583 -4.06073 1.526 0
M  V30 7183 H 679.254 -5.47451 0.707187 0
M  V30 7184 H 681.73 -4.10948 -0.652788 0
M  V30 7185 H 680.606 -5.33358 -1.29693 0
M  V30 7186 H 680.867 -3.84204 -2.18724 0
M  V30 7187 N 679.926 -0.151884 -1.56866 0
M  V30 7188 C 680.856 0.781943 -2.20018 0
M  V30 7189 C 681.837 1.25347 -1.14987 0
M  V30 7190 O 683.022 1.31015 -1.43348 0
M  V30 7191 C 680.152 2.01928 -2.82564 0
M  V30 7192 C 679.106 1.68434 -3.93464 0
M  V30 7193 C 678.432 2.99472 -4.42968 0
M  V30 7194 C 679.732 0.927244 -5.14003 0
M  V30 7195 H 681.426 0.255607 -2.98307 0
M  V30 7196 H 678.972 0.121502 -1.43486 0
M  V30 7197 H 680.925 2.67741 -3.25411 0
M  V30 7198 H 679.649 2.56943 -2.01614 0
M  V30 7199 H 678.308 1.04998 -3.51242 0
M  V30 7200 H 677.956 3.52488 -3.58834 0
M  V30 7201 H 677.656 2.77823 -5.17772 0
M  V30 7202 H 679.18 3.66348 -4.88489 0
M  V30 7203 H 680.594 1.48756 -5.53665 0
M  V30 7204 H 678.991 0.810513 -5.94601 0
M  V30 7205 H 680.061 -0.0801163 -4.84834 0
M  V30 7206 N 681.404 1.57128 0.121893 0
M  V30 7207 C 682.82 1.52357 0.47534 0
M  V30 7208 C 683.02 0.864417 1.82017 0
M  V30 7209 O 682.076 0.445529 2.48538 0
M  V30 7210 C 683.389 2.97122 0.4625 0
M  V30 7211 C 684.937 3.08196 0.546255 0
M  V30 7212 C 685.412 4.54516 0.563833 0
M  V30 7213 N 686.903 4.58959 0.625353 0
M  V30 7214 C 687.638 5.69585 0.660354 0
M  V30 7215 N 687.134 6.89714 0.653175 0
M  V30 7216 N 688.927 5.57685 0.703143 0
M  V30 7217 H 681.078 1.98364 -0.75931 0
M  V30 7218 H 683.341 0.905777 -0.279772 0
M  V30 7219 H 683.047 3.48706 -0.457943 0
M  V30 7220 H 682.921 3.54406 1.29136 0
M  V30 7221 H 685.308 2.56617 1.45712 0
M  V30 7222 H 685.389 2.53912 -0.310234 0
M  V30 7223 H 685.033 5.06741 -0.342974 0
M  V30 7224 H 684.963 5.06609 1.43716 0
M  V30 7225 H 687.454 3.72489 0.637182 0
M  V30 7226 H 687.767 7.69781 0.682425 0
M  V30 7227 H 686.112 6.92223 0.620646 0
M  V30 7228 H 689.303 4.62744 0.706095 0
M  V30 7229 H 689.476 6.43909 0.726952 0
M  V30 7230 N 682.882 -0.391992 1.52647 0
M  V30 7231 C 683.814 -1.49811 1.73463 0
M  V30 7232 C 684.827 -1.50734 0.615078 0
M  V30 7233 O 686.016 -1.5469 0.890696 0
M  V30 7234 C 683.116 -2.88667 1.77552 0
M  V30 7235 C 682.289 -3.11743 3.06815 0
M  V30 7236 C 681.348 -4.30564 3.02491 0
M  V30 7237 O 680.374 -4.27014 3.76361 0
M  V30 7238 N 681.576 -5.36593 2.21468 0
M  V30 7239 H 684.341 -1.32343 2.68897 0
M  V30 7240 H 681.902 -0.581475 1.51098 0
M  V30 7241 H 683.894 -3.66251 1.7217 0
M  V30 7242 H 682.464 -2.99508 0.895181 0
M  V30 7243 H 681.684 -2.2205 3.25711 0
M  V30 7244 H 682.972 -3.24013 3.92292 0
M  V30 7245 H 682.37 -5.42332 1.60913 0
M  V30 7246 H 680.927 -6.12855 2.21928 0
M  V30 7247 N 684.36 -1.4356 -0.65026 0
M  V30 7248 C 685.588 -1.48779 -1.43779 0
M  V30 7249 C 686.003 -0.106593 -1.88499 0
M  V30 7250 O 685.36 0.883766 -1.59674 0
M  V30 7251 C 685.411 -2.43618 -2.67081 0
M  V30 7252 O 685.132 -3.76367 -2.24231 0
M  V30 7253 C 686.633 -2.5811 -3.60409 0
M  V30 7254 H 683.853 -0.50521 -0.441593 0
M  V30 7255 H 686.397 -1.88332 -0.796941 0
M  V30 7256 H 684.552 -2.07253 -3.273 0
M  V30 7257 H 684.966 -4.27394 -3.0403 0
M  V30 7258 H 686.44 -3.28539 -4.43583 0
M  V30 7259 H 686.917 -1.627 -4.07953 0
M  V30 7260 H 687.523 -2.95298 -3.0607 0
M  V30 7261 N 685.838 0.888903 -1.30139 0
M  V30 7262 C 687.086 1.63713 -1.18501 0
M  V30 7263 C 687.407 1.9324 0.261399 0
M  V30 7264 O 686.677 1.56608 1.17689 0
M  V30 7265 H 685.257 0.606861 -0.435579 0
M  V30 7266 H 687.919 1.06525 -1.63213 0
M  V30 7267 H 687.015 2.58894 -1.743 0
M  V30 7268 N 687.317 1.12792 1.10072 0
M  V30 7269 C 688.25 0.742921 2.15768 0
M  V30 7270 C 689.228 -0.267714 1.60381 0
M  V30 7271 O 690.412 -0.160782 1.87813 0
M  V30 7272 C 687.539 0.100244 3.38552 0
M  V30 7273 C 686.585 1.07831 4.12644 0
M  V30 7274 S 687.418 2.60765 4.6772 0
M  V30 7275 C 688.574 1.97838 5.9381 0
M  V30 7276 H 688.807 1.63822 2.48092 0
M  V30 7277 H 686.34 0.947385 1.21918 0
M  V30 7278 H 688.298 -0.264175 4.09649 0
M  V30 7279 H 686.959 -0.772223 3.04459 0
M  V30 7280 H 686.152 0.576325 5.00694 0
M  V30 7281 H 685.754 1.38586 3.47376 0
M  V30 7282 H 688.046 1.32341 6.64449 0
M  V30 7283 H 688.989 2.83943 6.48677 0
M  V30 7284 H 689.397 1.43267 5.46017 0
M  V30 7285 N 688.795 -1.27931 0.920396 0
M  V30 7286 C 690.043 -1.94304 0.555906 0
M  V30 7287 C 690.364 -1.72753 -0.904519 0
M  V30 7288 O 689.634 -1.07104 -1.64029 0
M  V30 7289 H 688.214 -0.719001 0.202599 0
M  V30 7290 H 690.876 -1.55785 1.1712 0
M  V30 7291 H 689.972 -3.02806 0.755981 0
M  V30 7292 N 690.273 -0.685099 -1.4193 0
M  V30 7293 C 691.203 -0.0273506 -2.33484 0
M  V30 7294 C 692.184 0.778366 -1.51246 0
M  V30 7295 O 693.369 0.733449 -1.79817 0
M  V30 7296 C 690.499 0.917272 -3.34968 0
M  V30 7297 C 689.453 0.21941 -4.27437 0
M  V30 7298 C 688.779 1.27768 -5.1921 0
M  V30 7299 C 690.079 -0.907894 -5.14349 0
M  V30 7300 H 691.773 -0.791994 -2.88735 0
M  V30 7301 H 689.319 -0.382308 -1.38832 0
M  V30 7302 H 691.272 1.38657 -3.97935 0
M  V30 7303 H 689.996 1.71346 -2.78043 0
M  V30 7304 H 688.655 -0.229757 -3.65879 0
M  V30 7305 H 688.303 2.06612 -4.58607 0
M  V30 7306 H 688.003 0.815803 -5.81909 0
M  V30 7307 H 689.527 1.7477 -5.85054 0
M  V30 7308 H 690.941 -0.519348 -5.70943 0
M  V30 7309 H 689.338 -1.2962 -5.85934 0
M  V30 7310 H 690.408 -1.75218 -4.52136 0
M  V30 7311 N 691.751 1.51645 -0.429126 0
M  V30 7312 C 692.979 2.06433 0.138994 0
M  V30 7313 C 693.394 1.29735 1.37165 0
M  V30 7314 O 692.751 0.354638 1.79021 0
M  V30 7315 C 692.802 3.58439 0.469452 0
M  V30 7316 O 692.523 4.32238 -0.714273 0
M  V30 7317 C 694.024 4.29712 1.08914 0
M  V30 7318 H 691.244 0.6709 0.0115608 0
M  V30 7319 H 693.788 1.9532 -0.605843 0
M  V30 7320 H 691.943 3.69494 1.16419 0
M  V30 7321 H 692.357 5.22704 -0.433633 0
M  V30 7322 H 693.831 5.37182 1.27042 0
M  V30 7323 H 694.308 3.87473 2.06788 0
M  V30 7324 H 694.914 4.2308 0.434028 0
M  V30 7325 N 693.229 0.160201 1.56784 0
M  V30 7326 C 694.192 -0.760405 2.16219 0
M  V30 7327 C 695.192 -1.16595 1.10735 0
M  V30 7328 O 696.382 -1.08472 1.36306 0
M  V30 7329 C 693.514 -2.03358 2.73603 0
M  V30 7330 H 694.707 -0.243173 2.98912 0
M  V30 7331 H 692.26 -0.0893139 1.56045 0
M  V30 7332 H 692.995 -2.59416 1.94612 0
M  V30 7333 H 692.78 -1.75186 3.50788 0
M  V30 7334 H 694.27 -2.69081 3.19351 0
M  V30 7335 N 694.707 -1.5719 -0.113559 0
M  V30 7336 C 695.637 -2.03772 -1.14013 0
M  V30 7337 C 696.618 -0.923176 -1.42869 0
M  V30 7338 O 697.803 -1.19325 -1.53216 0
M  V30 7339 C 694.933 -2.44663 -2.4649 0
M  V30 7340 C 693.887 -3.59612 -2.32085 0
M  V30 7341 C 693.213 -3.8642 -3.69573 0
M  V30 7342 C 694.513 -4.91149 -1.7768 0
M  V30 7343 H 696.207 -2.89785 -0.752665 0
M  V30 7344 H 693.753 -1.39412 -0.360609 0
M  V30 7345 H 695.706 -2.75857 -3.18561 0
M  V30 7346 H 694.43 -1.55628 -2.87137 0
M  V30 7347 H 693.089 -3.28636 -1.62461 0
M  V30 7348 H 692.737 -2.94581 -4.07715 0
M  V30 7349 H 692.437 -4.63797 -3.60786 0
M  V30 7350 H 693.961 -4.2007 -4.4314 0
M  V30 7351 H 695.375 -5.20843 -2.39574 0
M  V30 7352 H 693.772 -5.72562 -1.79701 0
M  V30 7353 H 694.842 -4.79301 -0.734776 0
M  V30 7354 N 696.185 0.383891 -1.52853 0
M  V30 7355 C 697.431 1.13009 -1.68395 0
M  V30 7356 C 697.764 1.89488 -0.425195 0
M  V30 7357 O 697.039 1.8574 0.577136 0
M  V30 7358 C 697.322 2.10419 -2.92226 0
M  V30 7359 C 697.175 1.3767 -4.28214 0
M  V30 7360 C 698.494 3.10781 -3.11614 0
M  V30 7361 H 695.613 0.409463 -0.612788 0
M  V30 7362 H 698.255 0.412895 -1.85459 0
M  V30 7363 H 696.405 2.71579 -2.77808 0
M  V30 7364 H 698.077 0.794352 -4.54409 0
M  V30 7365 H 696.32 0.678533 -4.2846 0
M  V30 7366 H 696.991 2.08874 -5.10956 0
M  V30 7367 H 699.467 2.59715 -3.25096 0
M  V30 7368 H 698.343 3.76179 -3.99725 0
M  V30 7369 H 698.604 3.79933 -2.2606 0
M  V30 7370 N 697.663 1.43903 0.642637 0
M  V30 7371 C 698.911 1.45791 1.39962 0
M  V30 7372 C 699.232 0.0873144 1.94804 0
M  V30 7373 O 698.502 -0.878825 1.75081 0
M  V30 7374 H 697.082 0.536797 0.519479 0
M  V30 7375 H 699.744 1.7959 0.757189 0
M  V30 7376 H 698.84 2.17665 2.2367 0
M  V30 7377 N 699.141 -0.881989 1.30609 0
M  V30 7378 C 700.557 -1.16576 1.09005 0
M  V30 7379 C 700.757 -2.00961 -0.14727 0
M  V30 7380 O 699.813 -2.38117 -0.840036 0
M  V30 7381 C 701.126 -1.86954 2.35518 0
M  V30 7382 C 702.674 -1.99706 2.41011 0
M  V30 7383 C 703.149 -2.73497 3.67374 0
M  V30 7384 N 704.64 -2.8104 3.68199 0
M  V30 7385 C 705.375 -3.38718 4.62664 0
M  V30 7386 N 704.871 -3.97421 5.67475 0
M  V30 7387 N 706.664 -3.36561 4.50203 0
M  V30 7388 H 698.815 -0.319398 2.09985 0
M  V30 7389 H 701.078 -0.204058 0.925778 0
M  V30 7390 H 700.784 -1.32393 3.2583 0
M  V30 7391 H 700.658 -2.87317 2.44395 0
M  V30 7392 H 703.045 -2.53436 1.51176 0
M  V30 7393 H 703.126 -0.984218 2.36108 0
M  V30 7394 H 702.77 -2.20438 4.57569 0
M  V30 7395 H 702.7 -3.75163 3.6954 0
M  V30 7396 H 705.191 -2.39365 2.92426 0
M  V30 7397 H 705.504 -4.39507 6.35652 0
M  V30 7398 H 703.849 -3.95832 5.71264 0
M  V30 7399 H 707.04 -2.8993 3.67503 0
M  V30 7400 H 707.213 -3.81215 5.24003 0
M  V30 7401 N 700.619 -1.13374 -1.09472 0
M  V30 7402 C 701.549 -0.833268 -2.18126 0
M  V30 7403 C 702.53 0.207169 -1.68834 0
M  V30 7404 O 703.715 0.0662012 -1.94087 0
M  V30 7405 C 700.845 -0.297979 -3.46019 0
M  V30 7406 C 699.799 -1.27261 -4.08642 0
M  V30 7407 C 699.125 -0.597104 -5.31356 0
M  V30 7408 C 700.425 -2.63095 -4.51197 0
M  V30 7409 H 702.119 -1.74182 -2.43518 0
M  V30 7410 H 699.665 -0.838921 -1.17039 0
M  V30 7411 H 701.618 -0.0754444 -4.21332 0
M  V30 7412 H 700.342 0.645959 -3.20148 0
M  V30 7413 H 699.001 -1.48113 -3.35348 0
M  V30 7414 H 698.649 0.352293 -5.01765 0
M  V30 7415 H 698.349 -1.24734 -5.74208 0
M  V30 7416 H 699.873 -0.38384 -6.09392 0
M  V30 7417 H 701.287 -2.46214 -5.17737 0
M  V30 7418 H 699.684 -3.2429 -5.04932 0
M  V30 7419 H 700.754 -3.20793 -3.6362 0
M  V30 7420 N 702.098 1.27442 -0.927168 0
M  V30 7421 C 703.346 1.94007 -0.566203 0
M  V30 7422 C 703.667 1.7323 0.895345 0
M  V30 7423 O 702.937 1.07973 1.63459 0
M  V30 7424 H 701.517 0.717917 -0.206409 0
M  V30 7425 H 704.179 1.55161 -1.17945 0
M  V30 7426 H 703.275 3.02401 -0.772028 0
M  V30 7427 N 703.576 0.692616 1.41565 0
M  V30 7428 C 704.824 0.221896 2.00878 0
M  V30 7429 C 705.145 -1.18164 1.5512 0
M  V30 7430 O 704.415 -1.79679 0.78054 0
M  V30 7431 H 702.995 0.0790463 0.742806 0
M  V30 7432 H 705.657 0.893115 1.73232 0
M  V30 7433 H 704.753 0.23702 3.11199 0
M  V30 7434 N 705.054 -1.51416 0.437162 0
M  V30 7435 C 706.279 -2.0699 -0.130424 0
M  V30 7436 C 706.704 -1.30249 -1.35709 0
M  V30 7437 O 706.062 -0.340388 -1.78076 0
M  V30 7438 C 706.11 -3.5801 -0.43142 0
M  V30 7439 O 705.214 -3.8345 -1.5179 0
M  V30 7440 H 704.555 -0.663997 -0.00194339 0
M  V30 7441 H 707.085 -1.95029 0.618445 0
M  V30 7442 H 707.095 -4.02261 -0.681926 0
M  V30 7443 H 705.77 -4.13291 0.465137 0
M  V30 7444 H 704.347 -3.51062 -1.25737 0
M  V30 7445 N 706.532 -0.168513 -1.56696 0
M  V30 7446 C 707.462 0.758563 -2.20835 0
M  V30 7447 C 708.443 1.24121 -1.1631 0
M  V30 7448 O 709.628 1.29487 -1.4473 0
M  V30 7449 C 706.758 1.9892 -2.8469 0
M  V30 7450 C 705.712 1.64252 -3.95228 0
M  V30 7451 C 705.038 2.94757 -4.46119 0
M  V30 7452 C 706.338 0.872675 -5.14958 0
M  V30 7453 H 708.032 0.223953 -2.98561 0
M  V30 7454 H 705.578 0.106277 -1.43607 0
M  V30 7455 H 707.531 2.64275 -3.28233 0
M  V30 7456 H 706.255 2.5479 -2.04327 0
M  V30 7457 H 704.914 1.01266 -3.52336 0
M  V30 7458 H 704.562 3.48662 -3.62552 0
M  V30 7459 H 704.262 2.72316 -5.2069 0
M  V30 7460 H 705.786 3.61147 -4.92347 0
M  V30 7461 H 707.2 1.42875 -5.55211 0
M  V30 7462 H 705.597 0.747402 -5.95428 0
M  V30 7463 H 706.667 -0.131535 -4.84722 0
M  V30 7464 N 708.01 1.57248 0.105221 0
M  V30 7465 C 708.973 2.00388 1.11252 0
M  V30 7466 C 709.973 0.89594 1.33527 0
M  V30 7467 O 711.163 1.16166 1.29811 0
M  V30 7468 C 708.295 2.35589 2.46395 0
M  V30 7469 H 709.488 2.90591 0.741424 0
M  V30 7470 H 707.041 1.52332 0.349956 0
M  V30 7471 H 707.776 1.4831 2.884 0
M  V30 7472 H 707.561 3.16408 2.31578 0
M  V30 7473 H 709.051 2.69658 3.18864 0
M  V30 7474 N 709.488 -0.375779 1.53054 0
M  V30 7475 C 710.899 -0.95309 1.6054 0
M  V30 7476 C 711.25 -1.90575 0.466446 0
M  V30 7477 O 710.375 -2.12507 -0.408609 0
M  V30 7478 C 710.97 -1.73537 2.90982 0
M  V30 7479 C 709.529 -2.26218 3.00836 0
M  V30 7480 C 708.676 -1.07157 2.55759 0
M  V30 7481 H 711.627 -0.154895 1.57942 0
M  V30 7482 H 711.648 -2.59574 2.78211 0
M  V30 7483 H 711.16 -1.04176 3.73857 0
M  V30 7484 H 709.261 -2.98852 2.22527 0
M  V30 7485 H 709.374 -2.54799 4.05727 0
M  V30 7486 H 707.738 -1.43553 2.10391 0
M  V30 7487 H 708.521 -0.393099 3.41042 0
M  V30 7488 N 710.966 -1.44241 -0.634997 0
M  V30 7489 C 711.896 -1.53632 -1.7584 0
M  V30 7490 C 712.877 -0.389603 -1.65578 0
M  V30 7491 O 714.062 -0.609219 -1.84397 0
M  V30 7492 C 711.192 -1.47644 -3.14354 0
M  V30 7493 C 710.146 -2.60752 -3.394 0
M  V30 7494 C 709.472 -2.39817 -4.77904 0
M  V30 7495 C 710.772 -4.02921 -3.32343 0
M  V30 7496 H 712.466 -2.47662 -1.68238 0
M  V30 7497 H 710.012 -1.19197 -0.807969 0
M  V30 7498 H 711.965 -1.52815 -3.92716 0
M  V30 7499 H 710.689 -0.501284 -3.2273 0
M  V30 7500 H 709.348 -2.54965 -2.63417 0
M  V30 7501 H 708.996 -1.40502 -4.82978 0
M  V30 7502 H 708.696 -3.15649 -4.9562 0
M  V30 7503 H 710.22 -2.46799 -5.585 0
M  V30 7504 H 711.634 -4.10098 -4.00615 0
M  V30 7505 H 710.031 -4.78925 -3.61595 0
M  V30 7506 H 711.101 -4.26766 -2.30215 0
M  V30 7507 N 712.444 0.87505 -1.31075 0
M  V30 7508 C 713.407 1.96333 -1.18263 0
M  V30 7509 C 714.407 1.60416 -0.111106 0
M  V30 7510 O 715.597 1.7044 -0.359987 0
M  V30 7511 C 712.729 3.31036 -0.81414 0
M  V30 7512 H 713.922 2.09125 -2.14958 0
M  V30 7513 H 711.475 1.06271 -1.14614 0
M  V30 7514 H 712.21 3.23944 0.151875 0
M  V30 7515 H 711.995 3.58476 -1.58862 0
M  V30 7516 H 713.485 4.10842 -0.748249 0
M  V30 7517 N 713.922 1.13953 1.08869 0
M  V30 7518 C 714.885 0.824991 2.13838 0
M  V30 7519 C 715.885 -0.168198 1.59918 0
M  V30 7520 O 717.075 0.0595778 1.74098 0
M  V30 7521 C 714.207 0.228938 3.4013 0
M  V30 7522 H 715.4 1.75521 2.43171 0
M  V30 7523 H 712.953 0.94492 1.24503 0
M  V30 7524 H 713.688 -0.710227 3.16427 0
M  V30 7525 H 713.473 0.944243 3.80561 0
M  V30 7526 H 714.963 0.0259223 4.17592 0
M  V30 7527 N 715.4 -1.26948 0.933913 0
M  V30 7528 C 716.33 -2.29017 0.45534 0
M  V30 7529 C 717.311 -1.62961 -0.487605 0
M  V30 7530 O 718.496 -1.90223 -0.391022 0
M  V30 7531 C 715.626 -3.46112 -0.287015 0
M  V30 7532 C 714.58 -4.24205 0.568682 0
M  V30 7533 C 713.906 -5.3384 -0.303206 0
M  V30 7534 C 715.206 -4.88954 1.83633 0
M  V30 7535 H 716.9 -2.69298 1.30839 0
M  V30 7536 H 714.446 -1.29459 0.630579 0
M  V30 7537 H 716.399 -4.16622 -0.6328 0
M  V30 7538 H 715.123 -3.04765 -1.17414 0
M  V30 7539 H 713.782 -3.5545 0.897261 0
M  V30 7540 H 713.43 -4.88734 -1.18947 0
M  V30 7541 H 713.13 -5.86998 0.265879 0
M  V30 7542 H 714.654 -6.0719 -0.644423 0
M  V30 7543 H 716.068 -5.51717 1.55823 0
M  V30 7544 H 714.465 -5.52198 2.34941 0
M  V30 7545 H 715.535 -4.12305 2.55211 0
M  V30 7546 N 716.879 -0.700114 -1.41195 0
M  V30 7547 C 717.809 -0.0521132 -2.33442 0
M  V30 7548 C 718.79 0.76228 -1.52063 0
M  V30 7549 O 719.975 0.714336 -1.80585 0
M  V30 7550 C 717.105 0.881693 -3.35922 0
M  V30 7551 C 716.059 0.174062 -4.27646 0
M  V30 7552 C 715.385 1.22254 -5.20536 0
M  V30 7553 C 716.685 -0.962396 -5.13357 0
M  V30 7554 H 718.379 -0.822574 -2.87879 0
M  V30 7555 H 715.925 -0.397011 -1.38419 0
M  V30 7556 H 717.878 1.34429 -3.99383 0
M  V30 7557 H 716.602 1.68387 -2.79845 0
M  V30 7558 H 715.261 -0.268551 -3.65615 0
M  V30 7559 H 714.909 2.01736 -4.60773 0
M  V30 7560 H 714.609 0.754038 -5.82742 0
M  V30 7561 H 716.133 1.68555 -5.86874 0
M  V30 7562 H 717.547 -0.579875 -5.7036 0
M  V30 7563 H 715.944 -1.35828 -5.84526 0
M  V30 7564 H 717.014 -1.80003 -4.50252 0
M  V30 7565 N 718.357 1.51182 -0.445186 0
M  V30 7566 C 719.634 1.9478 0.178965 0
M  V30 7567 C 720.014 1.38428 1.59376 0
M  V30 7568 O 719.362 0.574552 2.21159 0
M  V30 7569 C 719.572 3.48683 0.148711 0
M  V30 7570 C 720.92 4.23152 0.35042 0
M  V30 7571 O 721.944 3.55479 0.226474 0
M  V30 7572 O 720.803 5.4322 0.597893 0
M  V30 7573 H 717.897 0.817387 0.12573 0
M  V30 7574 H 720.443 1.62051 -0.503729 0
M  V30 7575 H 719.215 3.82176 -0.84009 0
M  V30 7576 H 718.838 3.87875 0.873979 0
M  V30 7577 N 719.835 0.176821 1.56605 0
M  V30 7578 C 721.083 -0.465793 1.96659 0
M  V30 7579 C 721.404 -1.63406 1.06412 0
M  V30 7580 O 720.674 -1.95457 0.131603 0
M  V30 7581 H 719.254 -0.175072 0.726195 0
M  V30 7582 H 721.916 0.25929 1.93168 0
M  V30 7583 H 721.012 -0.822138 3.01077 0
M  V30 7584 N 721.313 -1.57302 -0.09688 0
M  V30 7585 C 722.559 -1.86273 -0.801885 0
M  V30 7586 C 722.892 -0.765694 -1.78468 0
M  V30 7587 O 722.167 0.226495 -1.93177 0
M  V30 7588 C 722.45 -3.25876 -1.53221 0
M  V30 7589 C 722.303 -4.46205 -0.567529 0
M  V30 7590 C 723.622 -3.63352 -2.48321 0
M  V30 7591 H 720.741 -0.67752 -0.29006 0
M  V30 7592 H 723.383 -1.89887 -0.0655577 0
M  V30 7593 H 721.533 -3.22926 -2.15988 0
M  V30 7594 H 723.205 -4.6127 0.0529982 0
M  V30 7595 H 721.448 -4.33636 0.119233 0
M  V30 7596 H 722.119 -5.40608 -1.11564 0
M  V30 7597 H 724.595 -3.67234 -1.95648 0
M  V30 7598 H 723.471 -4.61968 -2.9644 0
M  V30 7599 H 723.732 -2.91941 -3.31998 0
M  V30 7600 N 722.791 0.367657 -1.53252 0
M  V30 7601 C 724.037 1.10864 -1.70531 0
M  V30 7602 C 724.392 1.87051 -0.4505 0
M  V30 7603 O 723.685 1.83342 0.556431 0
M  V30 7604 C 723.879 2.09825 -2.89324 0
M  V30 7605 C 723.708 1.43361 -4.26237 0
M  V30 7606 C 722.478 1.18861 -4.91121 0
M  V30 7607 C 724.676 0.872409 -5.06847 0
M  V30 7608 N 722.658 0.487258 -6.11963 0
M  V30 7609 C 724.029 0.300301 -6.19272 0
M  V30 7610 C 726.084 0.770895 -4.91896 0
M  V30 7611 C 724.787 -0.363419 -7.18381 0
M  V30 7612 C 726.813 0.12096 -5.91276 0
M  V30 7613 C 726.175 -0.440283 -7.03023 0
M  V30 7614 H 722.274 0.390902 -0.677288 0
M  V30 7615 H 724.858 0.395305 -1.90645 0
M  V30 7616 H 723.029 2.78473 -2.70753 0
M  V30 7617 H 724.761 2.76585 -2.95436 0
M  V30 7618 H 721.516 1.46934 -4.5023 0
M  V30 7619 H 721.94 0.152005 -6.76829 0
M  V30 7620 H 726.582 1.19058 -4.05691 0
M  V30 7621 H 724.3 -0.795057 -8.04179 0
M  V30 7622 H 727.886 0.0433702 -5.81784 0
M  V30 7623 H 726.766 -0.935244 -7.78603 0
M  V30 7624 N 724.269 1.44576 0.627338 0
M  V30 7625 C 725.199 1.54562 1.75022 0
M  V30 7626 C 726.18 0.398378 1.65369 0
M  V30 7627 O 727.365 0.61899 1.84071 0
M  V30 7628 C 724.495 1.49309 3.13567 0
M  V30 7629 C 723.449 2.62549 3.38012 0
M  V30 7630 C 722.775 2.42348 4.76625 0
M  V30 7631 C 724.075 4.04678 3.30202 0
M  V30 7632 H 725.769 2.4855 1.66922 0
M  V30 7633 H 723.315 1.19624 0.801636 0
M  V30 7634 H 725.268 1.54895 3.919 0
M  V30 7635 H 723.992 0.518392 3.2246 0
M  V30 7636 H 722.651 2.56358 2.62061 0
M  V30 7637 H 722.299 1.43062 4.82226 0
M  V30 7638 H 721.999 3.18273 4.93939 0
M  V30 7639 H 723.523 2.49758 5.57183 0
M  V30 7640 H 724.937 4.12217 3.98435 0
M  V30 7641 H 723.334 4.80836 3.5905 0
M  V30 7642 H 724.404 4.2798 2.27949 0
M  V30 7643 N 725.747 -0.868086 1.31537 0
M  V30 7644 C 726.972 -1.65926 1.24432 0
M  V30 7645 C 727.397 -1.87169 -0.186936 0
M  V30 7646 O 726.755 -1.4148 -1.13371 0
M  V30 7647 C 726.803 -3.00347 1.9956 0
M  V30 7648 O 725.907 -3.90221 1.33422 0
M  V30 7649 H 725.248 -0.506375 0.429512 0
M  V30 7650 H 727.778 -1.0822 1.73637 0
M  V30 7651 H 727.788 -3.50269 2.09226 0
M  V30 7652 H 726.463 -2.84205 3.03645 0
M  V30 7653 H 725.04 -3.48672 1.32219 0
M  V30 7654 N 727.225 -1.14528 -1.08264 0
M  V30 7655 C 728.155 -0.856356 -2.1723 0
M  V30 7656 C 729.136 0.189251 -1.69044 0
M  V30 7657 O 730.321 0.0456119 -1.94146 0
M  V30 7658 C 727.451 -0.334662 -3.45684 0
M  V30 7659 C 726.405 -1.31588 -4.0727 0
M  V30 7660 C 725.731 -0.653428 -5.30692 0
M  V30 7661 C 727.031 -2.67866 -4.48381 0
M  V30 7662 H 728.725 -1.76755 -2.41657 0
M  V30 7663 H 726.271 -0.851287 -1.16143 0
M  V30 7664 H 728.224 -0.120128 -4.21229 0
M  V30 7665 H 726.948 0.611967 -3.20815 0
M  V30 7666 H 725.607 -1.51661 -3.33758 0
M  V30 7667 H 725.255 0.299054 -5.0211 0
M  V30 7668 H 724.955 -1.30817 -5.72853 0
M  V30 7669 H 726.479 -0.448453 -6.08951 0
M  V30 7670 H 727.893 -2.51692 -5.15096 0
M  V30 7671 H 726.29 -3.29627 -5.01464 0
M  V30 7672 H 727.36 -3.24632 -3.60198 0
M  V30 7673 N 728.703 1.26451 -0.940633 0
M  V30 7674 C 730.114 1.75726 -0.630653 0
M  V30 7675 C 730.465 1.76631 0.854167 0
M  V30 7676 O 729.59 1.37807 1.66848 0
M  V30 7677 C 730.185 3.19114 -1.13805 0
M  V30 7678 C 728.744 3.66005 -0.878497 0
M  V30 7679 C 727.891 2.45505 -1.28928 0
M  V30 7680 H 730.842 1.12535 -1.119 0
M  V30 7681 H 730.863 3.77311 -0.491625 0
M  V30 7682 H 730.375 3.18424 -2.21874 0
M  V30 7683 H 728.476 3.72126 0.187833 0
M  V30 7684 H 728.589 4.54844 -1.50512 0
M  V30 7685 H 726.953 2.4467 -0.707713 0
M  V30 7686 H 727.736 2.47516 -2.37888 0
M  V30 7687 N 730.181 0.707592 1.40822 0
M  V30 7688 C 731.128 0.0499029 2.30746 0
M  V30 7689 C 732.098 -0.758718 1.47759 0
M  V30 7690 O 733.283 -0.724299 1.76518 0
M  V30 7691 C 730.423 -0.871756 3.33908 0
M  V30 7692 C 729.536 -0.0534655 4.31967 0
M  V30 7693 C 728.671 -0.973869 5.22197 0
M  V30 7694 C 727.71 -0.149194 6.11918 0
M  V30 7695 N 726.847 -1.02404 6.94592 0
M  V30 7696 H 731.687 0.822461 2.86426 0
M  V30 7697 H 729.224 0.417285 1.41057 0
M  V30 7698 H 731.182 -1.42028 3.9228 0
M  V30 7699 H 729.812 -1.61058 2.7975 0
M  V30 7700 H 728.864 0.612142 3.75442 0
M  V30 7701 H 730.176 0.585354 4.95353 0
M  V30 7702 H 729.33 -1.59121 5.85462 0
M  V30 7703 H 728.069 -1.64652 4.59065 0
M  V30 7704 H 727.074 0.481137 5.47691 0
M  V30 7705 H 728.299 0.519841 6.77107 0
M  V30 7706 H 726.245 -1.6825 6.34057 0
M  V30 7707 H 726.162 -0.441076 7.54712 0
M  V30 7708 H 727.43 -1.62782 7.62314 0
M  V30 7709 N 731.66 -1.50943 0.453197 0
M  V30 7710 C 732.59 -2.31005 -0.34044 0
M  V30 7711 C 733.571 -1.37112 -1.00669 0
M  V30 7712 O 734.756 -1.66033 -1.0073 0
M  V30 7713 C 731.886 -3.16358 -1.433 0
M  V30 7714 C 730.84 -4.18658 -0.889363 0
M  V30 7715 C 730.166 -4.92633 -2.07887 0
M  V30 7716 C 731.466 -5.22227 0.0871142 0
M  V30 7717 H 733.16 -2.97601 0.327723 0
M  V30 7718 H 730.706 -1.43119 0.159054 0
M  V30 7719 H 732.659 -3.71155 -1.99555 0
M  V30 7720 H 731.383 -2.47613 -2.12968 0
M  V30 7721 H 730.042 -3.64936 -0.348915 0
M  V30 7722 H 729.69 -4.20376 -2.76211 0
M  V30 7723 H 729.39 -5.61819 -1.72143 0
M  V30 7724 H 730.914 -5.50258 -2.64666 0
M  V30 7725 H 732.328 -5.72001 -0.385656 0
M  V30 7726 H 730.725 -5.99032 0.357926 0
M  V30 7727 H 731.795 -4.74077 1.01879 0
M  V30 7728 N 733.138 -0.185124 -1.56509 0
M  V30 7729 C 734.366 0.462139 -2.01673 0
M  V30 7730 C 734.781 1.55873 -1.06532 0
M  V30 7731 O 734.138 1.82371 -0.0684805 0
M  V30 7732 C 734.189 1.0277 -3.46584 0
M  V30 7733 O 733.91 -0.0251296 -4.38093 0
M  V30 7734 C 735.411 1.75183 -4.07217 0
M  V30 7735 H 732.631 0.117001 -0.660721 0
M  V30 7736 H 735.175 -0.290905 -2.0242 0
M  V30 7737 H 733.33 1.73118 -3.46568 0
M  V30 7738 H 733.744 0.394387 -5.23015 0
M  V30 7739 H 735.218 2.09999 -5.10494 0
M  V30 7740 H 735.695 2.6519 -3.50101 0
M  V30 7741 H 736.301 1.09445 -4.10977 0
M  V30 7742 N 734.616 1.57351 0.0885366 0
M  V30 7743 C 735.846 1.90355 0.80303 0
M  V30 7744 C 736.254 0.777678 1.72478 0
M  V30 7745 O 735.597 -0.258908 1.81866 0
M  V30 7746 C 735.659 3.18674 1.66395 0
M  V30 7747 C 735.323 4.4778 0.913327 0
M  V30 7748 C 736.32 5.19345 0.240148 0
M  V30 7749 C 734.005 4.94434 0.885462 0
M  V30 7750 C 735.999 6.35803 -0.450854 0
M  V30 7751 C 733.686 6.10802 0.190679 0
M  V30 7752 C 734.684 6.81337 -0.476295 0
M  V30 7753 O 734.372 7.95488 -1.15992 0
M  V30 7754 H 734.104 0.634035 0.234469 0
M  V30 7755 H 736.658 2.05287 0.0681959 0
M  V30 7756 H 734.888 2.99906 2.44117 0
M  V30 7757 H 736.577 3.37458 2.2556 0
M  V30 7758 H 737.343 4.84339 0.253092 0
M  V30 7759 H 733.222 4.39417 1.39406 0
M  V30 7760 H 736.766 6.90795 -0.972019 0
M  V30 7761 H 732.663 6.45261 0.175603 0
M  V30 7762 H 733.431 8.11509 -1.06749 0
M  V30 7763 N 736.094 -0.359525 1.53444 0
M  V30 7764 C 737.342 -1.09935 1.69584 0
M  V30 7765 C 737.663 -1.89656 0.453371 0
M  V30 7766 O 736.933 -1.8852 -0.53263 0
M  V30 7767 H 735.513 -0.408843 0.625185 0
M  V30 7768 H 738.175 -0.40467 1.90653 0
M  V30 7769 H 737.271 -1.78575 2.55964 0
M  V30 7770 N 737.572 -1.44907 -0.619662 0
M  V30 7771 C 738.82 -1.47999 -1.37625 0
M  V30 7772 C 739.141 -0.118295 -1.94641 0
M  V30 7773 O 738.411 0.85086 -1.76457 0
M  V30 7774 H 736.991 -0.544993 -0.510873 0
M  V30 7775 H 739.653 -1.80772 -0.728522 0
M  V30 7776 H 738.749 -2.21196 -2.20179 0
M  V30 7777 N 739.05 0.861098 -1.31996 0
M  V30 7778 C 740.299 1.60965 -1.21545 0
M  V30 7779 C 740.612 1.94325 0.222972 0
M  V30 7780 O 741.818 2.67757 0.449272 0
M  V30 7781 C 740.274 2.90223 -2.12834 0
M  V30 7782 C 739.882 2.64313 -3.61722 0
M  V30 7783 C 741.626 3.68229 -2.11205 0
M  V30 7784 C 739.533 3.89532 -4.44993 0
M  V30 7785 H 738.463 0.603988 -0.451348 0
M  V30 7786 H 741.114 0.951358 -1.56912 0
M  V30 7787 H 739.496 3.57475 -1.70375 0
M  V30 7788 H 740.67 2.05413 -4.12483 0
M  V30 7789 H 738.985 1.99647 -3.65418 0
M  V30 7790 H 741.582 4.61138 -2.70658 0
M  V30 7791 H 741.925 4.01466 -1.1014 0
M  V30 7792 H 742.458 3.07873 -2.51911 0
M  V30 7793 H 739.197 3.61441 -5.46846 0
M  V30 7794 H 738.717 4.47851 -3.98985 0
M  V30 7795 H 740.396 4.57334 -4.57663 0
M  V30 7796 N 740.528 1.15101 1.07655 0
M  V30 7797 C 741.491 0.847625 2.12951 0
M  V30 7798 C 742.491 -0.151227 1.60087 0
M  V30 7799 O 743.681 0.0780399 1.74025 0
M  V30 7800 C 740.813 0.265 3.39868 0
M  V30 7801 H 742.006 1.7809 2.41296 0
M  V30 7802 H 739.559 0.958072 1.23494 0
M  V30 7803 H 740.294 -0.676625 3.17163 0
M  V30 7804 H 740.079 0.984554 3.79538 0
M  V30 7805 H 741.569 0.0702121 4.17541 0
M  V30 7806 N 742.006 -1.2595 0.947325 0
M  V30 7807 C 742.936 -2.28521 0.479604 0
M  V30 7808 C 743.917 -1.63469 -0.470293 0
M  V30 7809 O 745.102 -1.90627 -0.370824 0
M  V30 7810 C 742.232 -3.46397 -0.250289 0
M  V30 7811 C 741.186 -4.23578 0.613643 0
M  V30 7812 C 740.512 -5.34131 -0.246568 0
M  V30 7813 C 741.812 -4.86979 1.88809 0
M  V30 7814 H 743.506 -2.67895 1.33688 0
M  V30 7815 H 741.052 -1.28783 0.644274 0
M  V30 7816 H 743.005 -4.17269 -0.588576 0
M  V30 7817 H 741.729 -3.05993 -1.14175 0
M  V30 7818 H 740.388 -3.54478 0.93491 0
M  V30 7819 H 740.036 -4.89968 -1.13756 0
M  V30 7820 H 739.736 -5.86683 0.328123 0
M  V30 7821 H 741.26 -6.07839 -0.579986 0
M  V30 7822 H 742.674 -5.50034 1.61666 0
M  V30 7823 H 741.071 -5.49675 2.40784 0
M  V30 7824 H 742.141 -4.09575 2.5957 0
M  V30 7825 N 743.484 -0.715051 -1.40445 0
M  V30 7826 C 744.414 -0.0768699 -2.33373 0
M  V30 7827 C 745.395 0.746109 -1.52863 0
M  V30 7828 O 746.58 0.695142 -1.81332 0
M  V30 7829 C 743.71 0.846014 -3.36838 0
M  V30 7830 C 742.664 0.128694 -4.27806 0
M  V30 7831 C 741.99 1.16726 -5.21804 0
M  V30 7832 C 743.29 -1.01679 -5.12307 0
M  V30 7833 H 744.984 -0.853061 -2.8699 0
M  V30 7834 H 742.53 -0.41167 -1.3799 0
M  V30 7835 H 744.483 1.30185 -4.00786 0
M  V30 7836 H 743.207 1.6541 -2.81615 0
M  V30 7837 H 741.866 -0.307314 -3.6531 0
M  V30 7838 H 741.514 1.96838 -4.62887 0
M  V30 7839 H 741.214 0.692188 -5.83509 0
M  V30 7840 H 742.738 1.62321 -5.88629 0
M  V30 7841 H 744.152 -0.640337 -5.69713 0
M  V30 7842 H 742.549 -1.4202 -5.83053 0
M  V30 7843 H 743.619 -1.84769 -4.48317 0
M  V30 7844 N 744.962 1.50701 -0.461195 0
M  V30 7845 C 745.925 2.2686 0.326679 0
M  V30 7846 C 746.925 1.31243 0.929085 0
M  V30 7847 O 748.115 1.54754 0.799807 0
M  V30 7848 C 745.247 3.07844 1.46441 0
M  V30 7849 H 746.44 2.97954 -0.341095 0
M  V30 7850 H 743.993 1.54814 -0.214984 0
M  V30 7851 H 744.728 2.41223 2.16753 0
M  V30 7852 H 744.513 3.78101 1.03836 0
M  V30 7853 H 746.003 3.65469 2.02044 0
M  V30 7854 N 746.441 0.193421 1.56409 0
M  V30 7855 C 747.404 -0.714371 2.17783 0
M  V30 7856 C 748.404 -1.1422 1.13183 0
M  V30 7857 O 749.594 -1.05557 1.38576 0
M  V30 7858 C 746.726 -1.97509 2.77855 0
M  V30 7859 H 747.919 -0.179714 2.99361 0
M  V30 7860 H 745.472 -0.0561944 1.56199 0
M  V30 7861 H 746.207 -2.5523 2.0007 0
M  V30 7862 H 745.992 -1.67706 3.54425 0
M  V30 7863 H 747.482 -2.62246 3.24987 0
M  V30 7864 N 747.919 -1.57396 -0.0801906 0
M  V30 7865 C 749.167 -1.86467 -0.779384 0
M  V30 7866 C 749.488 -0.784243 -1.78535 0
M  V30 7867 O 748.758 0.187986 -1.94996 0
M  V30 7868 H 747.338 -0.68806 -0.29083 0
M  V30 7869 H 750 -1.94813 -0.0582749 0
M  V30 7870 H 749.096 -2.83701 -1.30078 0
M  V30 7871 N 749.397 0.351382 -1.53633 0
M  V30 7872 C 750.625 1.11275 -1.74429 0
M  V30 7873 C 751.04 1.82602 -0.479798 0
M  V30 7874 O 750.397 1.74074 0.548125 0
M  V30 7875 C 750.448 2.13223 -2.91921 0
M  V30 7876 O 750.169 1.44798 -4.13479 0
M  V30 7877 C 751.67 3.01797 -3.24706 0
M  V30 7878 H 748.89 0.332153 -0.583023 0
M  V30 7879 H 751.434 0.405974 -2.0043 0
M  V30 7880 H 749.589 2.79477 -2.68274 0
M  V30 7881 H 750.003 2.12839 -4.79374 0
M  V30 7882 H 751.477 3.69282 -4.10286 0
M  V30 7883 H 751.954 3.67387 -2.40673 0
M  V30 7884 H 752.56 2.41141 -3.5033 0
M  V30 7885 N 750.875 1.45233 0.611969 0
M  V30 7886 C 751.838 1.53189 1.70487 0
M  V30 7887 C 752.838 0.411839 1.55437 0
M  V30 7888 O 754.028 0.675164 1.60584 0
M  V30 7889 C 751.16 1.42422 3.09723 0
M  V30 7890 H 752.353 2.5056 1.64802 0
M  V30 7891 H 749.906 1.32609 0.827318 0
M  V30 7892 H 750.641 0.462185 3.2099 0
M  V30 7893 H 750.426 2.23658 3.22055 0
M  V30 7894 H 751.916 1.51012 3.89339 0
M  V30 7895 N 752.353 -0.854086 1.3245 0
M  V30 7896 C 753.283 -1.97827 1.24044 0
M  V30 7897 C 754.264 -1.69646 0.124166 0
M  V30 7898 O 755.449 -1.91687 0.31143 0
M  V30 7899 C 752.579 -3.33673 0.963324 0
M  V30 7900 C 751.533 -3.76207 2.04089 0
M  V30 7901 C 750.859 -5.0969 1.61618 0
M  V30 7902 C 752.159 -3.91612 3.45597 0
M  V30 7903 H 753.853 -2.05118 2.18099 0
M  V30 7904 H 751.399 -0.985489 1.04996 0
M  V30 7905 H 753.352 -4.11871 0.891061 0
M  V30 7906 H 752.076 -3.26597 -0.0128649 0
M  V30 7907 H 750.735 -3.0026 2.10332 0
M  V30 7908 H 750.383 -4.99072 0.627418 0
M  V30 7909 H 750.083 -5.3912 2.33717 0
M  V30 7910 H 751.607 -5.90381 1.55829 0
M  V30 7911 H 753.021 -4.60163 3.4194 0
M  V30 7912 H 751.418 -4.3246 4.16051 0
M  V30 7913 H 752.488 -2.9451 3.85217 0
M  V30 7914 N 753.831 -1.1567 -1.07043 0
M  V30 7915 C 754.761 -0.879348 -2.16309 0
M  V30 7916 C 755.742 0.171311 -1.69235 0
M  V30 7917 O 756.927 0.0250175 -1.94184 0
M  V30 7918 C 754.057 -0.371307 -3.45309 0
M  V30 7919 C 753.011 -1.359 -4.05851 0
M  V30 7920 C 752.337 -0.709678 -5.29969 0
M  V30 7921 C 753.637 -2.72606 -4.45514 0
M  V30 7922 H 755.331 -1.79308 -2.39768 0
M  V30 7923 H 752.877 -0.863558 -1.15233 0
M  V30 7924 H 754.83 -0.164798 -4.21078 0
M  V30 7925 H 753.554 0.577906 -3.21446 0
M  V30 7926 H 752.213 -1.55193 -3.32131 0
M  V30 7927 H 751.861 0.245782 -5.02399 0
M  V30 7928 H 751.561 -1.36886 -5.71433 0
M  V30 7929 H 753.085 -0.513015 -6.08441 0
M  V30 7930 H 754.499 -2.57141 -5.12398 0
M  V30 7931 H 752.896 -3.34927 -4.97939 0
M  V30 7932 H 753.966 -3.28434 -3.56734 0
M  V30 7933 N 755.309 1.25446 -0.953992 0
M  V30 7934 C 756.239 2.28264 -0.491717 0
M  V30 7935 C 757.22 1.63717 0.461617 0
M  V30 7936 O 758.405 1.90821 0.36071 0
M  V30 7937 C 755.535 3.46525 0.231915 0
M  V30 7938 C 754.489 4.23247 -0.636098 0
M  V30 7939 C 753.815 5.34254 0.218238 0
M  V30 7940 C 755.115 4.85971 -1.91389 0
M  V30 7941 H 756.809 2.67183 -1.35106 0
M  V30 7942 H 754.355 1.2844 -0.651095 0
M  V30 7943 H 756.308 4.17576 0.566439 0
M  V30 7944 H 755.032 3.06594 1.12551 0
M  V30 7945 H 753.691 3.53978 -0.953696 0
M  V30 7946 H 753.339 4.90564 1.11156 0
M  V30 7947 H 753.039 5.86501 -0.359232 0
M  V30 7948 H 754.563 6.08138 0.547743 0
M  V30 7949 H 755.977 5.49168 -1.64581 0
M  V30 7950 H 754.374 5.48391 -2.43696 0
M  V30 7951 H 755.444 4.08192 -2.61738 0
M  V30 7952 N 756.787 0.722489 1.40064 0
M  V30 7953 C 758.198 0.336507 1.83642 0
M  V30 7954 C 758.549 -1.13002 1.6039 0
M  V30 7955 O 757.674 -1.87036 1.08842 0
M  V30 7956 C 758.269 0.603985 3.33373 0
M  V30 7957 C 756.828 0.271637 3.75419 0
M  V30 7958 C 755.975 0.872898 2.63203 0
M  V30 7959 H 758.926 0.921108 1.29233 0
M  V30 7960 H 758.947 -0.128471 3.80283 0
M  V30 7961 H 758.459 1.67141 3.50265 0
M  V30 7962 H 756.56 -0.790455 3.64119 0
M  V30 7963 H 756.673 0.745457 4.73265 0
M  V30 7964 H 755.037 0.300431 2.52922 0
M  V30 7965 H 755.82 1.94473 2.82905 0
M  V30 7966 N 758.265 -1.50454 0.469181 0
M  V30 7967 C 759.175 -2.32248 -0.331349 0
M  V30 7968 C 760.191 -1.42548 -0.997807 0
M  V30 7969 O 761.367 -1.75602 -0.9862 0
M  V30 7970 C 758.432 -3.17171 -1.40012 0
M  V30 7971 C 757.493 -4.2269 -0.750463 0
M  V30 7972 C 756.726 -5.03554 -1.76831 0
M  V30 7973 O 756.949 -4.85469 -2.99459 0
M  V30 7974 O 755.883 -5.86767 -1.3412 0
M  V30 7975 H 759.709 -3.01821 0.337279 0
M  V30 7976 H 757.294 -1.47602 0.231066 0
M  V30 7977 H 759.176 -3.69871 -2.01924 0
M  V30 7978 H 757.851 -2.50328 -2.05226 0
M  V30 7979 H 756.758 -3.73986 -0.0924446 0
M  V30 7980 H 758.091 -4.91997 -0.14131 0
M  V30 7981 N 759.743 -0.201713 -1.56304 0
M  V30 7982 C 760.971 0.440723 -2.02152 0
M  V30 7983 C 761.386 1.54735 -1.08179 0
M  V30 7984 O 760.743 1.82289 -0.0878196 0
M  V30 7985 C 760.794 0.990884 -3.47655 0
M  V30 7986 O 760.515 -0.0715937 -4.38041 0
M  V30 7987 C 762.016 1.70854 -4.09052 0
M  V30 7988 H 759.236 0.109987 -0.661924 0
M  V30 7989 H 761.78 -0.312358 -2.021 0
M  V30 7990 H 759.935 1.69432 -3.48384 0
M  V30 7991 H 760.349 0.338892 -5.23404 0
M  V30 7992 H 761.823 2.04572 -5.12693 0
M  V30 7993 H 762.3 2.61462 -3.52894 0
M  V30 7994 H 762.906 1.0508 -4.12114 0
M  V30 7995 N 761.222 1.57436 0.0718424 0
M  V30 7996 C 762.638 1.53792 0.426628 0
M  V30 7997 C 762.838 0.921887 1.79174 0
M  V30 7998 O 761.894 0.524374 2.46995 0
M  V30 7999 C 763.207 2.98443 0.367739 0
M  V30 8000 C 764.755 3.09778 0.447928 0
M  V30 8001 C 765.23 4.5608 0.418946 0
M  V30 8002 N 766.721 4.60716 0.479022 0
M  V30 8003 C 767.456 5.71397 0.47881 0
M  V30 8004 N 766.952 6.91443 0.433417 0
M  V30 8005 N 768.745 5.59639 0.525364 0
M  V30 8006 H 760.896 1.95848 -0.822033 0
M  V30 8007 H 763.159 0.896418 -0.308447 0
M  V30 8008 H 762.865 3.47072 -0.56865 0
M  V30 8009 H 762.739 3.58335 1.17795 0
M  V30 8010 H 765.126 2.61122 1.37474 0
M  V30 8011 H 765.207 2.52796 -0.390857 0
M  V30 8012 H 764.851 5.05393 -0.504016 0
M  V30 8013 H 764.781 5.10925 1.27526 0
M  V30 8014 H 767.272 3.74328 0.518355 0
M  V30 8015 H 767.585 7.71562 0.43718 0
M  V30 8016 H 765.93 6.93847 0.400106 0
M  V30 8017 H 769.121 4.64756 0.558519 0
M  V30 8018 H 769.294 6.45896 0.52173 0
M  V30 8019 N 762.7 -0.34323 1.53817 0
M  V30 8020 C 763.632 -1.44216 1.78141 0
M  V30 8021 C 764.645 -1.48701 0.662721 0
M  V30 8022 O 765.834 -1.51778 0.939458 0
M  V30 8023 C 762.934 -2.82872 1.86646 0
M  V30 8024 C 762.107 -3.01824 3.16577 0
M  V30 8025 C 761.166 -4.20723 3.16036 0
M  V30 8026 O 760.192 -4.14824 3.89756 0
M  V30 8027 N 761.394 -5.29276 2.38427 0
M  V30 8028 H 764.159 -1.23721 2.72971 0
M  V30 8029 H 761.72 -0.53311 1.52871 0
M  V30 8030 H 763.712 -3.60588 1.83735 0
M  V30 8031 H 762.282 -2.96509 0.990014 0
M  V30 8032 H 761.502 -2.11575 3.3261 0
M  V30 8033 H 762.79 -3.11369 4.02402 0
M  V30 8034 H 762.188 -5.36938 1.78085 0
M  V30 8035 H 760.745 -6.05484 2.41313 0
M  V30 8036 N 764.178 -1.45556 -0.604258 0
M  V30 8037 C 765.141 -1.54091 -1.69672 0
M  V30 8038 C 766.141 -0.420076 -1.55216 0
M  V30 8039 O 767.331 -0.683671 -1.60224 0
M  V30 8040 C 764.463 -1.44063 -3.08964 0
M  V30 8041 H 765.656 -2.51431 -1.6347 0
M  V30 8042 H 763.209 -1.33046 -0.820273 0
M  V30 8043 H 763.944 -0.479201 -3.2074 0
M  V30 8044 H 763.729 -2.25362 -3.20865 0
M  V30 8045 H 765.219 -1.53075 -3.88533 0
M  V30 8046 N 765.656 0.84705 -1.32902 0
M  V30 8047 C 766.588 1.96308 -1.18304 0
M  V30 8048 C 767.601 1.62386 -0.116082 0
M  V30 8049 O 768.79 1.74713 -0.365751 0
M  V30 8050 C 765.89 3.29556 -0.790305 0
M  V30 8051 C 765.063 3.91668 -1.94717 0
M  V30 8052 C 764.122 5.0326 -1.53674 0
M  V30 8053 O 763.148 5.22847 -2.24989 0
M  V30 8054 N 764.35 5.78852 -0.437075 0
M  V30 8055 H 767.115 2.09369 -2.14441 0
M  V30 8056 H 764.676 1.02233 -1.25539 0
M  V30 8057 H 766.668 4.01624 -0.49799 0
M  V30 8058 H 765.238 3.12497 0.0801286 0
M  V30 8059 H 764.458 3.12292 -2.40557 0
M  V30 8060 H 765.746 4.299 -2.72146 0
M  V30 8061 H 765.144 5.65484 0.156316 0
M  V30 8062 H 763.701 6.51479 -0.204399 0
M  V30 8063 N 767.134 1.16236 1.06428 0
M  V30 8064 C 768.064 0.890807 2.1584 0
M  V30 8065 C 769.045 -0.162333 1.69324 0
M  V30 8066 O 770.23 -0.0147191 1.94194 0
M  V30 8067 C 767.36 0.389615 3.45108 0
M  V30 8068 C 766.314 1.38051 4.05125 0
M  V30 8069 C 765.64 0.737773 5.29586 0
M  V30 8070 C 766.94 2.74965 4.44062 0
M  V30 8071 H 768.634 1.80577 2.38814 0
M  V30 8072 H 766.18 0.869657 1.14774 0
M  V30 8073 H 768.133 0.187127 4.20984 0
M  V30 8074 H 766.857 -0.560851 3.21748 0
M  V30 8075 H 765.516 1.56952 3.31303 0
M  V30 8076 H 765.164 -0.219135 5.02522 0
M  V30 8077 H 764.864 1.39914 5.70699 0
M  V30 8078 H 766.388 0.545275 6.0816 0
M  V30 8079 H 767.802 2.59855 5.11027 0
M  V30 8080 H 766.199 3.37563 4.96156 0
M  V30 8081 H 767.269 3.30321 3.54987 0
M  V30 8082 N 768.612 -1.24939 0.960631 0
M  V30 8083 C 770.023 -1.74701 0.658529 0
M  V30 8084 C 770.374 -1.77967 -0.825959 0
M  V30 8085 O 769.499 -1.40444 -1.64634 0
M  V30 8086 C 770.094 -3.17263 1.18867 0
M  V30 8087 C 768.653 -3.64561 0.936614 0
M  V30 8088 C 767.8 -2.43423 1.32817 0
M  V30 8089 H 770.751 -1.10741 1.13676 0
M  V30 8090 H 770.772 -3.76481 0.551589 0
M  V30 8091 H 770.284 -3.14854 2.26912 0
M  V30 8092 H 768.385 -3.72378 -0.128608 0
M  V30 8093 H 768.498 -4.52392 1.57729 0
M  V30 8094 H 766.862 -2.43513 0.746548 0
M  V30 8095 H 767.645 -2.437 2.41796 0
M  V30 8096 N 770.09 -0.729906 -1.39679 0
M  V30 8097 C 771 -0.0880322 -2.34435 0
M  V30 8098 C 772.016 0.727674 -1.58053 0
M  V30 8099 O 773.192 0.657321 -1.90371 0
M  V30 8100 C 770.257 0.812211 -3.37052 0
M  V30 8101 C 769.318 -0.0151681 -4.29297 0
M  V30 8102 C 768.551 0.842202 -5.27013 0
M  V30 8103 O 768.774 2.08108 -5.31081 0
M  V30 8104 O 767.708 0.27357 -6.01278 0
M  V30 8105 H 771.534 -0.869989 -2.90972 0
M  V30 8106 H 769.119 -0.490522 -1.41118 0
M  V30 8107 H 771.001 1.32745 -3.99946 0
M  V30 8108 H 769.676 1.57307 -2.82907 0
M  V30 8109 H 768.583 -0.575811 -3.69642 0
M  V30 8110 H 769.916 -0.738129 -4.86634 0
M  V30 8111 N 771.568 1.50203 -0.477153 0
M  V30 8112 C 772.796 2.0677 0.0732489 0
M  V30 8113 C 773.211 1.34033 1.32968 0
M  V30 8114 O 772.568 0.411412 1.77802 0
M  V30 8115 C 772.619 3.59751 0.35518 0
M  V30 8116 O 772.34 4.29747 -0.851425 0
M  V30 8117 C 773.841 4.3296 0.951877 0
M  V30 8118 H 771.061 0.670929 -0.00978923 0
M  V30 8119 H 773.605 1.93293 -0.667676 0
M  V30 8120 H 771.76 3.7301 1.04605 0
M  V30 8121 H 772.174 5.2106 -0.599708 0
M  V30 8122 H 773.648 5.40952 1.09888 0
M  V30 8123 H 774.125 3.93856 1.94356 0
M  V30 8124 H 774.731 4.24246 0.299208 0
M  V30 8125 N 773.046 0.209999 1.56195 0
M  V30 8126 C 774.295 -0.425106 1.97169 0
M  V30 8127 C 774.608 -1.61718 1.10031 0
M  V30 8128 O 775.814 -2.32105 1.40853 0
M  V30 8129 C 774.27 -0.80771 3.50719 0
M  V30 8130 C 773.878 0.360902 4.46544 0
M  V30 8131 C 775.622 -1.40906 4.00432 0
M  V30 8132 C 773.529 -0.0434919 5.91384 0
M  V30 8133 H 772.459 -0.162598 0.736259 0
M  V30 8134 H 775.11 0.304382 1.80958 0
M  V30 8135 H 773.492 -1.59429 3.62489 0
M  V30 8136 H 774.666 1.13846 4.46515 0
M  V30 8137 H 772.981 0.874729 4.07109 0
M  V30 8138 H 775.578 -1.72433 5.06133 0
M  V30 8139 H 775.921 -2.32081 3.45607 0
M  V30 8140 H 776.454 -0.686154 3.91838 0
M  V30 8141 H 773.193 0.834448 6.50167 0
M  V30 8142 H 772.713 -0.785598 5.94633 0
M  V30 8143 H 774.392 -0.474176 6.4526 0
M  V30 8144 N 774.524 -1.57472 -0.0634922 0
M  V30 8145 C 775.456 -2.00999 -1.10145 0
M  V30 8146 C 776.469 -0.917219 -1.34503 0
M  V30 8147 O 777.658 -1.19501 -1.32596 0
M  V30 8148 C 774.758 -2.34089 -2.45063 0
M  V30 8149 C 773.931 -3.65317 -2.40546 0
M  V30 8150 C 772.99 -3.85982 -3.57637 0
M  V30 8151 O 772.016 -4.5747 -3.38689 0
M  V30 8152 N 773.218 -3.28971 -4.78287 0
M  V30 8153 H 775.983 -2.90656 -0.730714 0
M  V30 8154 H 773.544 -1.59926 -0.252017 0
M  V30 8155 H 775.536 -2.4508 -3.22053 0
M  V30 8156 H 774.106 -1.50279 -2.74107 0
M  V30 8157 H 773.326 -3.65003 -1.48885 0
M  V30 8158 H 774.614 -4.51468 -2.34636 0
M  V30 8159 H 774.012 -2.70962 -4.96584 0
M  V30 8160 H 772.569 -3.45398 -5.5276 0
M  V30 8161 N 776.003 0.335068 -1.53997 0
M  V30 8162 C 777.28 1.09188 -1.62288 0
M  V30 8163 C 777.66 2.0626 -0.449458 0
M  V30 8164 O 777.008 2.21596 0.557444 0
M  V30 8165 C 777.218 1.80403 -2.98757 0
M  V30 8166 C 778.566 2.33841 -3.54406 0
M  V30 8167 O 779.59 1.90487 -3.00987 0
M  V30 8168 O 778.449 3.1318 -4.47862 0
M  V30 8169 H 775.543 0.502621 -0.656736 0
M  V30 8170 H 778.089 0.33588 -1.66343 0
M  V30 8171 H 776.861 1.09732 -3.75599 0
M  V30 8172 H 776.484 2.62841 -2.9833 0
M  V30 8173 N 777.481 1.45874 0.596531 0
M  V30 8174 C 778.727 1.5069 1.35722 0
M  V30 8175 C 779.06 0.152506 1.936 0
M  V30 8176 O 778.335 -0.834411 1.75692 0
M  V30 8177 C 778.618 2.59474 2.4969 0
M  V30 8178 C 778.471 4.04396 1.96937 0
M  V30 8179 C 779.79 2.64451 3.51787 0
M  V30 8180 H 776.909 0.548611 0.492133 0
M  V30 8181 H 779.551 1.77741 0.671428 0
M  V30 8182 H 777.701 2.36539 3.08191 0
M  V30 8183 H 779.373 4.38576 1.43 0
M  V30 8184 H 777.616 4.14529 1.27859 0
M  V30 8185 H 778.287 4.76218 2.79143 0
M  V30 8186 H 780.763 2.85031 3.03145 0
M  V30 8187 H 779.639 3.42411 4.29006 0
M  V30 8188 H 779.9 1.69965 4.08123 0
M  V30 8189 N 778.959 -0.83999 1.33349 0
M  V30 8190 C 779.869 -1.98182 1.25543 0
M  V30 8191 C 780.885 -1.73204 0.166208 0
M  V30 8192 O 782.061 -1.97596 0.389589 0
M  V30 8193 C 779.126 -3.32157 0.993614 0
M  V30 8194 C 778.187 -3.70258 2.17273 0
M  V30 8195 C 777.42 -4.9784 1.92331 0
M  V30 8196 O 777.643 -5.63679 0.873074 0
M  V30 8197 O 776.577 -5.33418 2.78835 0
M  V30 8198 H 780.403 -2.07708 2.21565 0
M  V30 8199 H 777.988 -0.972852 1.13384 0
M  V30 8200 H 779.87 -4.12433 0.864711 0
M  V30 8201 H 778.545 -3.23637 0.0636596 0
M  V30 8202 H 777.452 -2.90497 2.35716 0
M  V30 8203 H 778.785 -3.83442 3.08598 0
M  V30 8204 N 780.437 -1.16799 -1.0581 0
M  V30 8205 C 781.853 -0.913935 -1.30841 0
M  V30 8206 C 782.053 0.430439 -1.96849 0
M  V30 8207 O 781.109 1.16885 -2.23817 0
M  V30 8208 C 782.422 -2.06662 -2.18429 0
M  V30 8209 C 783.97 -2.10294 -2.31831 0
M  V30 8210 C 784.445 -3.2493 -3.22776 0
M  V30 8211 N 785.936 -3.24678 -3.30361 0
M  V30 8212 C 786.671 -4.10021 -4.00837 0
M  V30 8213 N 786.167 -5.05461 -4.73795 0
M  V30 8214 N 787.96 -3.97991 -3.96937 0
M  V30 8215 H 780.111 -2.03343 -0.613613 0
M  V30 8216 H 782.374 -0.88754 -0.333133 0
M  V30 8217 H 782.08 -3.03791 -1.77211 0
M  V30 8218 H 781.954 -2.01233 -3.19038 0
M  V30 8219 H 784.341 -1.13754 -2.72294 0
M  V30 8220 H 784.422 -2.19786 -1.30873 0
M  V30 8221 H 784.066 -4.21731 -2.83028 0
M  V30 8222 H 783.996 -3.12674 -4.23725 0
M  V30 8223 H 786.487 -2.55573 -2.78372 0
M  V30 8224 H 786.8 -5.66989 -5.25113 0
M  V30 8225 H 785.145 -5.09436 -4.72758 0
M  V30 8226 H 788.336 -3.2273 -3.39062 0
M  V30 8227 H 788.509 -4.64722 -4.51594 0
M  V30 8228 N 781.915 1.24427 -0.967243 0
M  V30 8229 C 782.862 2.25398 -0.496419 0
M  V30 8230 C 783.832 1.59667 0.457781 0
M  V30 8231 O 785.017 1.87213 0.368246 0
M  V30 8232 C 782.157 3.44474 0.207693 0
M  V30 8233 C 781.27 4.24804 -0.785221 0
M  V30 8234 C 780.405 5.31169 -0.0572631 0
M  V30 8235 C 779.444 6.03195 -1.04027 0
M  V30 8236 N 778.581 7.01265 -0.34235 0
M  V30 8237 H 783.421 2.65039 -1.36229 0
M  V30 8238 H 780.958 1.30288 -0.682902 0
M  V30 8239 H 782.916 4.12376 0.632612 0
M  V30 8240 H 781.546 3.05672 1.03752 0
M  V30 8241 H 780.598 3.56445 -1.32858 0
M  V30 8242 H 781.91 4.74599 -1.53483 0
M  V30 8243 H 781.064 6.05205 0.425674 0
M  V30 8244 H 779.803 4.8228 0.725047 0
M  V30 8245 H 778.808 5.27964 -1.53409 0
M  V30 8246 H 780.033 6.54173 -1.82302 0
M  V30 8247 H 777.979 6.54648 0.420993 0
M  V30 8248 H 777.896 7.48939 -1.03084 0
M  V30 8249 H 779.164 7.7941 0.118634 0
M  V30 8250 N 783.393 0.737304 1.3929 0
M  V30 8251 C 784.618 0.295237 2.05288 0
M  V30 8252 C 785.043 -1.06235 1.55228 0
M  V30 8253 O 784.401 -1.67365 0.697043 0
M  V30 8254 C 784.449 0.309146 3.59272 0
M  V30 8255 O 783.553 -0.702437 4.06374 0
M  V30 8256 H 782.894 0.133762 0.650387 0
M  V30 8257 H 785.424 1.00387 1.78279 0
M  V30 8258 H 785.434 0.154336 4.07708 0
M  V30 8259 H 784.109 1.29974 3.95069 0
M  V30 8260 H 782.686 -0.513574 3.69346 0
M  V30 8261 N 784.871 -1.49948 0.485112 0
M  V30 8262 C 785.834 -2.27351 -0.290546 0
M  V30 8263 C 786.834 -1.32704 -0.908087 0
M  V30 8264 O 788.024 -1.56007 -0.775085 0
M  V30 8265 C 785.156 -3.10135 -1.41524 0
M  V30 8266 H 786.349 -2.97374 0.388454 0
M  V30 8267 H 783.902 -1.54453 0.239586 0
M  V30 8268 H 784.637 -2.44641 -2.12888 0
M  V30 8269 H 784.422 -3.79705 -0.978074 0
M  V30 8270 H 785.912 -3.68638 -1.96204 0
M  V30 8271 N 786.349 -0.21828 -1.56081 0
M  V30 8272 C 787.76 0.290166 -1.84431 0
M  V30 8273 C 788.111 1.59712 -1.13958 0
M  V30 8274 O 787.236 2.12516 -0.40815 0
M  V30 8275 C 787.831 0.53325 -3.34577 0
M  V30 8276 C 786.39 0.986011 -3.63256 0
M  V30 8277 C 785.537 0.0472798 -2.7726 0
M  V30 8278 H 788.488 -0.441548 -1.52434 0
M  V30 8279 H 788.509 1.37967 -3.54606 0
M  V30 8280 H 788.021 -0.418137 -3.85841 0
M  V30 8281 H 786.122 1.95087 -3.17446 0
M  V30 8282 H 786.235 0.862684 -4.71269 0
M  V30 8283 H 784.599 0.553471 -2.48614 0
M  V30 8284 H 785.382 -0.898966 -3.31321 0
M  V30 8285 N 787.827 1.57504 0.0551401 0
M  V30 8286 C 789.055 1.92294 0.76358 0
M  V30 8287 C 789.47 0.815774 1.70266 0
M  V30 8288 O 788.827 -0.209772 1.8129 0
M  V30 8289 C 788.878 3.26914 1.54302 0
M  V30 8290 O 788.599 4.33375 0.641666 0
M  V30 8291 C 790.1 3.75825 2.35097 0
M  V30 8292 H 787.32 0.635229 0.216159 0
M  V30 8293 H 789.864 2.0449 0.0204385 0
M  V30 8294 H 788.019 3.16196 2.23828 0
M  V30 8295 H 788.433 5.10927 1.1855 0
M  V30 8296 H 789.907 4.72603 2.8522 0
M  V30 8297 H 790.384 3.0568 3.15367 0
M  V30 8298 H 790.99 3.89542 1.70696 0
M  V30 8299 N 789.305 -0.326896 1.54172 0
M  V30 8300 C 790.53 -1.08924 1.76494 0
M  V30 8301 C 790.955 -1.81039 0.510523 0
M  V30 8302 O 790.313 -1.73141 -0.537756 0
M  V30 8303 C 790.361 -2.06558 2.95578 0
M  V30 8304 O 789.465 -3.14394 2.6689 0
M  V30 8305 H 788.806 -0.314216 0.584948 0
M  V30 8306 H 791.336 -0.372207 2.01186 0
M  V30 8307 H 791.346 -2.49487 3.22832 0
M  V30 8308 H 790.021 -1.53469 3.86549 0
M  V30 8309 H 788.598 -2.76164 2.50576 0
M  V30 8310 N 790.784 -1.46188 -0.588786 0
M  V30 8311 C 791.714 -1.59148 -1.70863 0
M  V30 8312 C 792.695 -0.442083 -1.64255 0
M  V30 8313 O 793.88 -0.667575 -1.82365 0
M  V30 8314 C 791.01 -1.5757 -3.09498 0
M  V30 8315 C 789.964 -2.71418 -3.30932 0
M  V30 8316 C 789.29 -2.549 -4.70032 0
M  V30 8317 C 790.59 -4.1329 -3.19356 0
M  V30 8318 H 792.284 -2.52889 -1.60274 0
M  V30 8319 H 789.83 -1.21707 -0.769638 0
M  V30 8320 H 791.783 -1.65231 -3.87655 0
M  V30 8321 H 790.507 -0.603705 -3.20972 0
M  V30 8322 H 789.166 -2.63216 -2.55172 0
M  V30 8323 H 788.814 -1.55797 -4.78264 0
M  V30 8324 H 788.514 -3.31257 -4.85327 0
M  V30 8325 H 790.038 -2.64443 -5.50366 0
M  V30 8326 H 791.452 -4.22636 -3.87365 0
M  V30 8327 H 789.849 -4.90187 -3.46175 0
M  V30 8328 H 790.919 -4.33874 -2.16522 0
M  V30 8329 N 792.262 0.832906 -1.33792 0
M  V30 8330 C 793.194 1.95042 -1.2038 0
M  V30 8331 C 794.207 1.62253 -0.133299 0
M  V30 8332 O 795.396 1.74315 -0.384261 0
M  V30 8333 C 792.496 3.287 -0.825215 0
M  V30 8334 C 791.669 3.89581 -1.98861 0
M  V30 8335 C 790.728 5.01602 -1.59003 0
M  V30 8336 O 789.754 5.20431 -2.30522 0
M  V30 8337 N 790.956 5.78356 -0.498446 0
M  V30 8338 H 793.721 2.07083 -2.16649 0
M  V30 8339 H 791.282 1.00896 -1.26616 0
M  V30 8340 H 793.274 4.01074 -0.540559 0
M  V30 8341 H 791.844 3.12565 0.0469796 0
M  V30 8342 H 791.064 3.09723 -2.43856 0
M  V30 8343 H 792.352 4.26989 -2.76691 0
M  V30 8344 H 791.75 5.65618 0.0963297 0
M  V30 8345 H 790.307 6.51226 -0.273485 0
M  V30 8346 N 793.74 1.17359 1.05189 0
M  V30 8347 C 794.65 0.904984 2.16442 0
M  V30 8348 C 795.666 -0.12686 1.73537 0
M  V30 8349 O 796.842 0.0524127 2.01332 0
M  V30 8350 C 793.907 0.422019 3.44122 0
M  V30 8351 C 792.968 1.52045 4.01473 0
M  V30 8352 C 792.201 1.06044 5.23059 0
M  V30 8353 O 792.424 -0.0854023 5.70336 0
M  V30 8354 O 791.358 1.85349 5.72651 0
M  V30 8355 H 795.184 1.8356 2.41949 0
M  V30 8356 H 792.769 0.95447 1.14936 0
M  V30 8357 H 794.651 0.160208 4.21095 0
M  V30 8358 H 793.326 -0.480444 3.20115 0
M  V30 8359 H 792.233 1.83615 3.25939 0
M  V30 8360 H 793.566 2.39863 4.29798 0
M  V30 8361 N 795.218 -1.23913 0.973828 0
M  V30 8362 C 796.128 -2.28838 0.516735 0
M  V30 8363 C 797.144 -1.68723 -0.425282 0
M  V30 8364 O 798.32 -1.99201 -0.296819 0
M  V30 8365 C 795.385 -3.46233 -0.179914 0
M  V30 8366 C 794.446 -4.21729 0.80269 0
M  V30 8367 C 793.679 -5.33518 0.139191 0
M  V30 8368 O 793.902 -5.60252 -1.07118 0
M  V30 8369 O 792.836 -5.96088 0.834447 0
M  V30 8370 H 796.662 -2.70067 1.38916 0
M  V30 8371 H 794.247 -1.2972 0.74115 0
M  V30 8372 H 796.129 -4.17514 -0.570991 0
M  V30 8373 H 794.804 -3.06969 -1.02721 0
M  V30 8374 H 793.711 -3.52799 1.24434 0
M  V30 8375 H 795.044 -4.64825 1.61859 0
M  V30 8376 N 796.696 -0.74468 -1.38897 0
M  V30 8377 C 797.606 -0.112892 -2.34328 0
M  V30 8378 C 798.622 0.71087 -1.58816 0
M  V30 8379 O 799.798 0.637092 -1.91058 0
M  V30 8380 C 796.863 0.776417 -3.37894 0
M  V30 8381 C 795.924 -0.0606999 -4.29257 0
M  V30 8382 C 795.157 0.786258 -5.27877 0
M  V30 8383 O 795.38 2.02463 -5.33259 0
M  V30 8384 O 794.314 0.209781 -6.01534 0
M  V30 8385 H 798.14 -0.900801 -2.90033 0
M  V30 8386 H 795.725 -0.505462 -1.4059 0
M  V30 8387 H 797.607 1.28496 -4.01331 0
M  V30 8388 H 796.282 1.54297 -2.84559 0
M  V30 8389 H 795.189 -0.614984 -3.69011 0
M  V30 8390 H 796.522 -0.789702 -4.85824 0
M  V30 8391 N 798.174 1.49689 -0.493057 0
M  V30 8392 C 799.107 2.25712 0.336062 0
M  V30 8393 C 800.085 1.29953 0.977294 0
M  V30 8394 O 801.269 1.59225 1.00895 0
M  V30 8395 C 798.396 3.0501 1.47263 0
M  V30 8396 C 797.442 4.15863 0.946575 0
M  V30 8397 S 798.275 5.35272 -0.156323 0
M  V30 8398 C 799.431 6.18123 0.983601 0
M  V30 8399 H 799.664 2.95688 -0.309215 0
M  V30 8400 H 797.197 1.51872 -0.278238 0
M  V30 8401 H 799.155 3.51284 2.12391 0
M  V30 8402 H 797.816 2.34519 2.08949 0
M  V30 8403 H 797.009 4.70834 1.7981 0
M  V30 8404 H 796.611 3.72139 0.372647 0
M  V30 8405 H 798.903 6.50588 1.89056 0
M  V30 8406 H 799.846 7.06521 0.472687 0
M  V30 8407 H 800.254 5.50547 1.24735 0
M  V30 8408 N 799.652 0.226554 1.55963 0
M  V30 8409 C 801.063 -0.280381 1.84583 0
M  V30 8410 C 801.414 -1.59105 1.14804 0
M  V30 8411 O 800.539 -2.12297 0.419414 0
M  V30 8412 C 801.134 -0.515499 3.34855 0
M  V30 8413 C 799.693 -0.966733 3.63774 0
M  V30 8414 C 798.84 -0.0325753 2.77281 0
M  V30 8415 H 801.791 0.449626 1.52197 0
M  V30 8416 H 801.812 -1.36085 3.55332 0
M  V30 8417 H 801.324 0.438594 3.85614 0
M  V30 8418 H 799.425 -1.93401 3.18476 0
M  V30 8419 H 799.538 -0.837679 4.7172 0
M  V30 8420 H 797.902 -0.540279 2.48904 0
M  V30 8421 H 798.685 0.916524 3.30839 0
M  V30 8422 N 801.13 -1.57531 -0.0467866 0
M  V30 8423 C 802.063 -2.00734 -1.08541 0
M  V30 8424 C 803.041 -0.888508 -1.36177 0
M  V30 8425 O 804.225 -1.1529 -1.49132 0
M  V30 8426 C 801.352 -2.36535 -2.42423 0
M  V30 8427 C 800.398 -3.58681 -2.3076 0
M  V30 8428 S 801.231 -5.08536 -1.67785 0
M  V30 8429 C 802.387 -5.47562 -3.03194 0
M  V30 8430 H 802.62 -2.88516 -0.717345 0
M  V30 8431 H 800.153 -1.5226 -0.256181 0
M  V30 8432 H 802.111 -2.57834 -3.19424 0
M  V30 8433 H 800.772 -1.49236 -2.76382 0
M  V30 8434 H 799.965 -3.81329 -3.29552 0
M  V30 8435 H 799.567 -3.37142 -1.61899 0
M  V30 8436 H 801.859 -5.47163 -3.99524 0
M  V30 8437 H 802.802 -6.48082 -2.85299 0
M  V30 8438 H 803.21 -4.75042 -3.04951 0
M  V30 8439 N 802.608 0.318715 -1.54344 0
M  V30 8440 C 803.555 1.39242 -1.84066 0
M  V30 8441 C 804.525 1.51175 -0.688134 0
M  V30 8442 O 805.71 1.66318 -0.935039 0
M  V30 8443 C 802.85 2.75528 -2.07794 0
M  V30 8444 C 801.963 2.72187 -3.35467 0
M  V30 8445 C 801.098 4.00352 -3.4913 0
M  V30 8446 C 800.137 3.91338 -4.7066 0
M  V30 8447 N 799.274 5.11242 -4.81224 0
M  V30 8448 H 804.114 1.13196 -2.75664 0
M  V30 8449 H 801.651 0.547857 -1.36517 0
M  V30 8450 H 803.609 3.54763 -2.19543 0
M  V30 8451 H 802.239 2.99873 -1.19482 0
M  V30 8452 H 801.291 1.84917 -3.3243 0
M  V30 8453 H 802.603 2.61411 -4.24812 0
M  V30 8454 H 801.757 4.88019 -3.60448 0
M  V30 8455 H 800.496 4.1394 -2.57886 0
M  V30 8456 H 799.501 3.02055 -4.59394 0
M  V30 8457 H 800.726 3.7931 -5.63294 0
M  V30 8458 H 798.672 5.25327 -3.92897 0
M  V30 8459 H 798.589 5.0282 -5.64543 0
M  V30 8460 H 799.857 6.0061 -4.96879 0
M  V30 8461 N 804.086 1.46499 0.581025 0
M  V30 8462 C 805.018 1.53225 1.70455 0
M  V30 8463 C 806.031 0.420443 1.57277 0
M  V30 8464 O 807.22 0.688888 1.64671 0
M  V30 8465 C 804.32 1.39803 3.08721 0
M  V30 8466 C 803.493 2.65132 3.47884 0
M  V30 8467 C 802.552 2.45886 4.65217 0
M  V30 8468 O 801.578 3.19615 4.70993 0
M  V30 8469 N 802.78 1.5216 5.60203 0
M  V30 8470 H 805.545 2.50098 1.65139 0
M  V30 8471 H 803.106 1.42576 0.76705 0
M  V30 8472 H 805.098 1.24697 3.8501 0
M  V30 8473 H 803.668 0.51104 3.08394 0
M  V30 8474 H 802.888 2.95169 2.61284 0
M  V30 8475 H 804.176 3.48385 3.70817 0
M  V30 8476 H 803.574 0.913646 5.58273 0
M  V30 8477 H 802.131 1.43017 6.35916 0
M  V30 8478 N 805.565 -0.825799 1.34232 0
M  V30 8479 C 806.811 -1.58419 1.26614 0
M  V30 8480 C 807.144 -1.93503 -0.164341 0
M  V30 8481 O 806.419 -1.59785 -1.109 0
M  V30 8482 C 806.702 -2.8856 2.15418 0
M  V30 8483 C 806.555 -2.60075 3.66989 0
M  V30 8484 C 807.874 -3.90107 2.03726 0
M  V30 8485 H 804.993 -0.574794 0.461282 0
M  V30 8486 H 807.635 -0.951519 1.64457 0
M  V30 8487 H 805.785 -3.42553 1.83275 0
M  V30 8488 H 807.457 -2.12414 4.09485 0
M  V30 8489 H 805.7 -1.93565 3.88221 0
M  V30 8490 H 806.371 -3.52866 4.24488 0
M  V30 8491 H 808.847 -3.45459 2.31942 0
M  V30 8492 H 807.723 -4.78976 2.68092 0
M  V30 8493 H 807.984 -4.30329 1.01337 0
M  V30 8494 N 807.043 -1.17915 -1.04565 0
M  V30 8495 C 807.975 -0.859359 -2.1248 0
M  V30 8496 C 808.988 0.140922 -1.62189 0
M  V30 8497 O 810.177 -0.0862361 -1.78292 0
M  V30 8498 C 807.277 -0.261811 -3.37887 0
M  V30 8499 C 806.45 -1.30651 -4.17431 0
M  V30 8500 C 805.509 -0.725575 -5.21174 0
M  V30 8501 O 804.535 -1.39901 -5.51739 0
M  V30 8502 N 805.737 0.479351 -5.78517 0
M  V30 8503 H 808.502 -1.78818 -2.40508 0
M  V30 8504 H 806.063 -1.07885 -1.20716 0
M  V30 8505 H 808.055 0.14028 -4.04457 0
M  V30 8506 H 806.625 0.570929 -3.07342 0
M  V30 8507 H 805.845 -1.88412 -3.46258 0
M  V30 8508 H 807.133 -2.01099 -4.67372 0
M  V30 8509 H 806.531 1.04431 -5.55977 0
M  V30 8510 H 805.088 0.823427 -6.46578 0
M  V30 8511 N 808.521 1.23394 -0.980386 0
M  V30 8512 C 809.469 2.26872 -0.513018 0
M  V30 8513 C 810.463 1.63853 0.429948 0
M  V30 8514 O 811.669 1.77417 0.303842 0
M  V30 8515 H 808.044 0.737398 -0.147473 0
M  V30 8516 H 810.015 2.63654 -1.39746 0
M  V30 8517 C 808.764 3.47289 0.168962 0
M  V30 8518 H 808.087 3.96033 -0.547546 0
M  V30 8519 H 809.527 4.21502 0.459616 0
M  V30 8520 C 807.986 3.06425 1.40019 0
M  V30 8521 O 808.516 3.14708 2.49643 0
M  V30 8522 N 806.722 2.61339 1.27084 0
M  V30 8523 H 806.269 2.54799 0.378872 0
M  V30 8524 H 806.227 2.34364 2.09573 0
M  V30 8525 O 810.038 0.889354 1.34806 0
M  V30 8526 H 810.729 0.496436 1.8723 0
M  V30 END ATOM
M  V30 BEGIN BOND
M  V30 END BOND
M  V30 END CTAB
M  END
$$$$
