drugbank_target|Q9Y6M4 Casein kinase I isoform gamma-3 (DB04751; DB07488; DB07489; DB07664)
 OpenBabel12092120443D

  0  0  0     0  0            999 V3000
M  V30 BEGIN CTAB
M  V30 COUNTS 7191 7273 0 0 0
M  V30 BEGIN ATOM
M  V30 1 H -0.908 1.98254 -0.117106 0
M  V30 2 N 0 1.576 0 0
M  V30 3 C 0.933 2.03868 1.02534 0
M  V30 4 C 1.911 0.928543 1.3348 0
M  V30 5 O 3.095 1.19667 1.45644 0
M  V30 6 C 0.222 2.43627 2.35294 0
M  V30 7 C -0.732 3.65373 2.2001 0
M  V30 8 S 0.101 5.13292 1.52614 0
M  V30 9 C 1.257 5.56322 2.86805 0
M  V30 10 H 1.49 2.90518 0.631377 0
M  V30 11 H -0.977 1.52953 0.210867 0
M  V30 12 H 0.981 2.67203 3.11629 0
M  V30 13 H -0.358 1.57376 2.7183 0
M  V30 14 H -1.165 3.90944 3.18086 0
M  V30 15 H -1.563 3.418 1.51819 0
M  V30 16 H 0.729 5.58782 3.83104 0
M  V30 17 H 1.672 6.56266 2.65933 0
M  V30 18 H 2.08 4.83886 2.90714 0
M  V30 19 N 1.4781 -0.272755 1.55222 0
M  V30 20 C 2.3881 -1.35918 1.91216 0
M  V30 21 C 3.4041 -1.54026 0.809436 0
M  V30 22 O 4.5801 -1.68148 1.10852 0
M  V30 23 C 1.6451 -2.69834 2.17693 0
M  V30 24 C 0.7061 -2.6047 3.41253 0
M  V30 25 C -0.0609 -3.88 3.66458 0
M  V30 26 O 0.1621 -4.88693 2.94169 0
M  V30 27 O -0.9039 -3.88189 4.59992 0
M  V30 28 H 2.9221 -1.0839 2.83699 0
M  V30 29 H 0.5071 -0.471301 1.41771 0
M  V30 30 H 2.3891 -3.49017 2.36147 0
M  V30 31 H 1.0641 -2.97148 1.28392 0
M  V30 32 H -0.0289 -1.79663 3.28134 0
M  V30 33 H 1.3041 -2.38106 4.30774 0
M  V30 34 N 2.9562 -1.48159 -0.537278 0
M  V30 35 C 3.9042 -1.62573 -1.66352 0
M  V30 36 C 4.8982 -0.492366 -1.62087 0
M  V30 37 O 6.1042 -0.670847 -1.67032 0
M  V30 38 H 2.4792 -0.511992 -0.550789 0
M  V30 39 H 4.4502 -2.57176 -1.51337 0
M  V30 40 C 3.1992 -1.67583 -3.04649 0
M  V30 41 H 2.5222 -2.54151 -3.08622 0
M  V30 42 H 3.9622 -1.81713 -3.83088 0
M  V30 43 C 2.4212 -0.413039 -3.34358 0
M  V30 44 O 2.9512 0.477259 -3.98855 0
M  V30 45 N 1.1572 -0.286961 -2.8918 0
M  V30 46 H 0.7042 -1.01241 -2.36871 0
M  V30 47 H 0.6622 0.556963 -3.09427 0
M  V30 48 N 4.4343 0.785586 -1.36625 0
M  V30 49 C 5.3813 1.89838 -1.31264 0
M  V30 50 C 6.3513 1.65115 -0.180633 0
M  V30 51 O 7.5363 1.87222 -0.36777 0
M  V30 52 C 4.6763 3.26706 -1.11163 0
M  V30 53 C 3.7893 3.63476 -2.33472 0
M  V30 54 C 2.9243 4.89481 -2.06353 0
M  V30 55 C 1.9633 5.18941 -3.24602 0
M  V30 56 N 1.1003 6.36131 -2.97123 0
M  V30 57 H 5.9403 1.93756 -2.26413 0
M  V30 58 H 3.4773 0.947454 -1.12524 0
M  V30 59 H 5.4353 4.05639 -0.975337 0
M  V30 60 H 4.0653 3.222 -0.196674 0
M  V30 61 H 3.1173 2.79636 -2.57891 0
M  V30 62 H 4.4293 3.81193 -3.21704 0
M  V30 63 H 3.5833 5.76288 -1.89675 0
M  V30 64 H 2.3223 4.73841 -1.15437 0
M  V30 65 H 1.3273 4.30615 -3.41834 0
M  V30 66 H 2.5523 5.36498 -4.16349 0
M  V30 67 H 0.4983 6.21875 -2.08823 0
M  V30 68 H 0.4153 6.54198 -3.78894 0
M  V30 69 H 1.6833 7.2591 -2.84033 0
M  V30 70 N 5.9124 1.20967 1.01018 0
M  V30 71 C 6.8594 0.964281 2.09691 0
M  V30 72 C 7.8294 -0.107853 1.65749 0
M  V30 73 O 9.0144 0.0381987 1.90762 0
M  V30 74 C 6.1544 0.52943 3.41015 0
M  V30 75 C 5.2674 1.67043 3.98398 0
M  V30 76 C 4.4024 1.18525 5.17808 0
M  V30 77 C 3.4414 2.29892 5.67288 0
M  V30 78 N 2.5784 1.82546 6.77954 0
M  V30 79 H 7.4184 1.89463 2.30017 0
M  V30 80 H 4.9554 0.944289 1.1279 0
M  V30 81 H 6.9134 0.258588 4.16398 0
M  V30 82 H 5.5434 -0.363919 3.20742 0
M  V30 83 H 4.5954 2.05603 3.20049 0
M  V30 84 H 5.9074 2.50877 4.31117 0
M  V30 85 H 5.0614 0.870762 6.00419 0
M  V30 86 H 3.8004 0.316887 4.86669 0
M  V30 87 H 2.8054 2.6215 4.83278 0
M  V30 88 H 4.0304 3.17216 6.00459 0
M  V30 89 H 1.9764 0.980454 6.48632 0
M  V30 90 H 1.8934 2.59956 7.09901 0
M  V30 91 H 3.1614 1.54115 7.64113 0
M  V30 92 N 7.3905 -1.2043 1.01659 0
M  V30 93 C 8.3375 -2.23215 0.586822 0
M  V30 94 C 9.3075 -1.61382 -0.393085 0
M  V30 95 O 10.4925 -1.88544 -0.292525 0
M  V30 96 C 7.6325 -3.45032 -0.0687464 0
M  V30 97 C 6.7455 -4.21296 0.955724 0
M  V30 98 C 5.8805 -5.30507 0.271208 0
M  V30 99 C 4.9195 -5.98515 1.28244 0
M  V30 100 N 4.0565 -6.99316 0.62459 0
M  V30 101 H 8.8965 -2.59336 1.46796 0
M  V30 102 H 6.4335 -1.27431 0.734836 0
M  V30 103 H 8.3915 -4.1459 -0.465965 0
M  V30 104 H 7.0215 -3.09604 -0.913529 0
M  V30 105 H 6.0735 -3.50803 1.4711 0
M  V30 106 H 7.3855 -4.6803 1.72479 0
M  V30 107 H 6.5395 -6.06428 -0.18151 0
M  V30 108 H 5.2785 -4.8481 -0.530163 0
M  V30 109 H 4.2835 -5.21355 1.74554 0
M  V30 110 H 5.5085 -6.46298 2.08509 0
M  V30 111 H 3.4545 -6.55812 -0.156914 0
M  V30 112 H 3.3715 -7.44178 1.33172 0
M  V30 113 H 4.6395 -7.79255 0.195462 0
M  V30 114 N 8.8686 -0.792821 -1.36206 0
M  V30 115 C 10.1456 -0.290627 -1.93429 0
M  V30 116 C 10.5256 1.21773 -1.72437 0
M  V30 117 O 9.8736 2.0108 -1.08531 0
M  V30 118 C 10.0836 -0.686973 -3.42172 0
M  V30 119 C 11.4316 -0.668643 -4.19302 0
M  V30 120 O 12.4556 -0.627658 -3.50626 0
M  V30 121 O 11.3146 -0.714597 -5.41808 0
M  V30 122 H 8.4086 -0.0727927 -0.82379 0
M  V30 123 H 10.9546 -0.875593 -1.45367 0
M  V30 124 H 9.7266 -1.72711 -3.51122 0
M  V30 125 H 9.3496 -0.0760733 -3.97527 0
M  V30 126 N 10.3467 1.47872 -0.545128 0
M  V30 127 C 11.2937 2.29849 0.2093 0
M  V30 128 C 12.2637 1.38313 0.919707 0
M  V30 129 O 13.4487 1.67277 0.917772 0
M  V30 130 C 10.5887 3.22019 1.24088 0
M  V30 131 C 9.7017 4.2864 0.537778 0
M  V30 132 C 8.8367 5.07973 1.5536 0
M  V30 133 C 7.8757 6.06381 0.8348 0
M  V30 134 N 7.0127 6.78717 1.79688 0
M  V30 135 H 11.8527 2.93845 -0.49591 0
M  V30 136 H 9.3897 1.44848 -0.256389 0
M  V30 137 H 11.3477 3.73868 1.85144 0
M  V30 138 H 9.9777 2.59914 1.91428 0
M  V30 139 H 9.0297 3.7994 -0.187046 0
M  V30 140 H 10.3417 4.98793 -0.0258907 0
M  V30 141 H 9.4957 5.63912 2.23803 0
M  V30 142 H 8.2347 4.37693 2.15118 0
M  V30 143 H 7.2397 5.49631 0.136388 0
M  V30 144 H 8.4647 6.78665 0.24313 0
M  V30 145 H 6.4107 6.11177 2.38326 0
M  V30 146 H 6.3277 7.44998 1.28505 0
M  V30 147 H 7.5957 7.39237 2.47282 0
M  V30 148 N 11.8248 0.280983 1.55075 0
M  V30 149 C 13.1018 -0.386207 1.91749 0
M  V30 150 C 13.4818 -1.73264 1.20594 0
M  V30 151 O 12.8298 -2.26034 0.334784 0
M  V30 152 C 13.0398 -0.520687 3.45094 0
M  V30 153 C 14.3878 -0.800865 4.16979 0
M  V30 154 O 15.4118 -0.605271 3.5102 0
M  V30 155 O 14.2708 -1.1753 5.33712 0
M  V30 156 H 11.3648 -0.212408 0.799257 0
M  V30 157 H 13.9108 0.327568 1.66509 0
M  V30 158 H 12.6828 0.426633 3.88967 0
M  V30 159 H 12.3058 -1.2837 3.76307 0
M  V30 160 N 13.3029 -1.57598 0.00835791 0
M  V30 161 C 14.2499 -2.08945 -0.980346 0
M  V30 162 C 15.2199 -0.986738 -1.33614 0
M  V30 163 O 16.4049 -1.25968 -1.43306 0
M  V30 164 C 13.5449 -2.60425 -2.26435 0
M  V30 165 C 12.6579 -3.84628 -1.96685 0
M  V30 166 C 11.7929 -4.24579 -3.19228 0
M  V30 167 C 10.8319 -5.41596 -2.85202 0
M  V30 168 N 9.9689 -5.768 -4.00307 0
M  V30 169 H 14.8089 -2.93148 -0.535551 0
M  V30 170 H 12.3459 -1.44912 -0.252776 0
M  V30 171 H 14.3039 -2.88354 -3.01509 0
M  V30 172 H 12.9339 -1.79083 -2.68568 0
M  V30 173 H 11.9859 -3.63556 -1.11942 0
M  V30 174 H 13.2979 -4.69796 -1.67611 0
M  V30 175 H 12.4519 -4.53834 -4.02641 0
M  V30 176 H 11.1909 -3.38137 -3.51447 0
M  V30 177 H 10.1959 -5.12056 -2.00198 0
M  V30 178 H 11.4209 -6.29721 -2.54222 0
M  V30 179 H 9.3669 -4.93316 -4.32407 0
M  V30 180 H 9.2839 -6.5656 -3.74786 0
M  V30 181 H 10.5519 -6.10652 -4.84484 0
M  V30 182 N 14.781 0.264519 -1.55364 0
M  V30 183 C 16.006 1.01726 -1.80739 0
M  V30 184 C 16.431 1.78836 -0.583044 0
M  V30 185 O 15.789 1.75167 0.467566 0
M  V30 186 C 15.837 1.94482 -3.03659 0
M  V30 187 O 14.941 3.03386 -2.7934 0
M  V30 188 H 14.282 0.290395 -0.597132 0
M  V30 189 H 16.812 0.290854 -2.02522 0
M  V30 190 H 16.822 2.36278 -3.32621 0
M  V30 191 H 15.497 1.37772 -3.92418 0
M  V30 192 H 14.074 2.65844 -2.61498 0
M  V30 193 N 16.2591 1.48442 0.529413 0
M  V30 194 C 17.5361 1.46978 1.29062 0
M  V30 195 C 17.9161 0.181769 2.10316 0
M  V30 196 O 17.2641 -0.836481 2.12639 0
M  V30 197 C 17.4741 2.7321 2.17157 0
M  V30 198 C 18.8221 3.21562 2.77278 0
M  V30 199 O 19.8461 2.74131 2.27444 0
M  V30 200 O 18.7051 4.04094 3.67927 0
M  V30 201 H 15.7991 0.587003 0.582543 0
M  V30 202 H 18.3451 1.60676 0.546021 0
M  V30 203 H 17.1171 3.58465 1.56903 0
M  V30 204 H 16.7401 2.62235 2.98862 0
M  V30 205 N 17.7372 -0.778329 1.37039 0
M  V30 206 C 19.0142 -1.52551 1.22424 0
M  V30 207 C 19.3942 -2.10288 -0.184964 0
M  V30 208 O 18.7422 -1.94953 -1.19187 0
M  V30 209 C 18.9522 -2.61164 2.31504 0
M  V30 210 C 20.3002 -3.28746 2.68721 0
M  V30 211 O 21.3242 -2.71455 2.30631 0
M  V30 212 O 20.1832 -4.3231 3.3432 0
M  V30 213 H 17.2772 -0.675343 0.477326 0
M  V30 214 H 19.8232 -0.815859 1.48801 0
M  V30 215 H 18.5952 -2.16574 3.25901 0
M  V30 216 H 18.2182 -3.39737 2.06554 0
M  V30 217 N 19.2153 -1.21501 -1.00376 0
M  V30 218 C 20.6313 -0.972629 -1.26539 0
M  V30 219 C 20.8313 0.340257 -1.98606 0
M  V30 220 O 19.8873 1.06561 -2.28913 0
M  V30 221 C 21.2003 -2.16404 -2.08781 0
M  V30 222 C 22.7483 -2.20643 -2.22004 0
M  V30 223 C 23.2233 -3.39306 -3.07629 0
M  V30 224 N 24.7143 -3.39401 -3.15217 0
M  V30 225 C 25.4493 -4.27867 -3.81729 0
M  V30 226 N 24.9453 -5.26533 -4.5026 0
M  V30 227 N 26.7383 -4.15672 -3.78382 0
M  V30 228 H 18.8893 -2.05929 -0.520281 0
M  V30 229 H 21.1523 -0.901803 -0.292328 0
M  V30 230 H 20.8583 -3.11554 -1.63178 0
M  V30 231 H 20.7323 -2.15567 -3.09533 0
M  V30 232 H 23.1193 -1.26048 -2.66825 0
M  V30 233 H 23.2003 -2.25523 -1.20718 0
M  V30 234 H 22.8443 -4.34195 -2.63509 0
M  V30 235 H 22.7743 -3.31665 -4.09031 0
M  V30 236 H 25.2653 -2.67997 -2.66432 0
M  V30 237 H 25.5783 -5.90337 -4.98721 0
M  V30 238 H 23.9233 -5.30457 -4.49044 0
M  V30 239 H 27.1143 -3.3785 -3.23998 0
M  V30 240 H 27.2873 -4.84825 -4.2994 0
M  V30 241 N 20.6934 1.19889 -1.02296 0
M  V30 242 C 21.6264 2.21639 -0.543282 0
M  V30 243 C 22.6044 1.57275 0.412698 0
M  V30 244 O 23.7884 1.85568 0.331198 0
M  V30 245 C 20.9154 3.38057 0.208571 0
M  V30 246 C 19.9614 4.20751 -0.697933 0
M  V30 247 S 20.7944 4.89529 -2.17075 0
M  V30 248 C 21.9504 6.09363 -1.42923 0
M  V30 249 H 22.1834 2.61984 -1.40541 0
M  V30 250 H 19.7164 1.30041 -0.832387 0
M  V30 251 H 21.6744 4.05539 0.63624 0
M  V30 252 H 20.3354 2.96159 1.04635 0
M  V30 253 H 19.5284 5.03862 -0.117831 0
M  V30 254 H 19.1304 3.58556 -1.06366 0
M  V30 255 H 21.4224 6.73742 -0.712637 0
M  V30 256 H 22.3654 6.71845 -2.23673 0
M  V30 257 H 22.7734 5.56798 -0.929327 0
M  V30 258 N 22.1715 0.800033 1.35784 0
M  V30 259 C 23.1345 0.211565 2.28221 0
M  V30 260 C 24.1345 -0.59728 1.49296 0
M  V30 261 O 25.3245 -0.416721 1.69142 0
M  V30 262 C 22.4565 -0.705846 3.33513 0
M  V30 263 H 23.6495 1.02677 2.81776 0
M  V30 264 H 21.2025 0.570211 1.45528 0
M  V30 265 H 21.9375 -1.54498 2.85133 0
M  V30 266 H 21.7225 -0.127655 3.91892 0
M  V30 267 H 23.2125 -1.11211 4.02519 0
M  V30 268 N 23.6496 -1.47581 0.552962 0
M  V30 269 C 25.0656 -1.5818 0.212424 0
M  V30 270 C 25.2656 -1.55213 -1.28496 0
M  V30 271 O 24.3216 -1.45329 -2.06484 0
M  V30 272 C 25.6346 -2.88865 0.835318 0
M  V30 273 C 27.1826 -3.0244 0.806156 0
M  V30 274 C 27.6576 -4.35819 1.40804 0
M  V30 275 N 29.1486 -4.42444 1.37103 0
M  V30 276 C 29.8836 -5.44202 1.80641 0
M  V30 277 N 29.3796 -6.52795 2.32015 0
M  V30 278 N 31.1726 -5.35222 1.71738 0
M  V30 279 H 23.3236 -1.47753 1.52587 0
M  V30 280 H 25.5866 -0.702941 0.636064 0
M  V30 281 H 25.2926 -2.9676 1.88749 0
M  V30 282 H 25.1666 -3.7579 0.325848 0
M  V30 283 H 27.5536 -2.94144 -0.237317 0
M  V30 284 H 27.6346 -2.17068 1.35334 0
M  V30 285 H 27.2786 -4.44871 2.45056 0
M  V30 286 H 27.2086 -5.19916 0.836338 0
M  V30 287 H 29.6996 -3.6456 0.995202 0
M  V30 288 H 30.0126 -7.26609 2.63171 0
M  V30 289 H 28.3576 -6.53696 2.36023 0
M  V30 290 H 31.5486 -4.49284 1.31382 0
M  V30 291 H 31.7216 -6.14389 2.05987 0
M  V30 292 N 25.1277 -0.289203 -1.54924 0
M  V30 293 C 26.5387 0.205791 -1.85562 0
M  V30 294 C 26.8897 1.54351 -1.2112 0
M  V30 295 O 26.0147 2.10435 -0.504601 0
M  V30 296 C 26.6097 0.380177 -3.3666 0
M  V30 297 C 25.1687 0.819395 -3.67373 0
M  V30 298 C 24.3157 -0.079159 -2.77187 0
M  V30 299 H 27.2667 -0.510577 -1.50262 0
M  V30 300 H 27.2877 1.21659 -3.60526 0
M  V30 301 H 26.7997 -0.593589 -3.83534 0
M  V30 302 H 24.9007 1.80413 -3.26009 0
M  V30 303 H 25.0137 0.646957 -4.74712 0
M  V30 304 H 23.3777 0.439565 -2.50878 0
M  V30 305 H 24.1607 -1.04906 -3.26878 0
M  V30 306 N 26.6058 1.57591 -0.0167156 0
M  V30 307 C 27.8308 1.9598 0.67872 0
M  V30 308 C 28.2558 0.892546 1.65575 0
M  V30 309 O 27.6138 -0.147772 1.80697 0
M  V30 310 C 27.6618 3.33468 1.37227 0
M  V30 311 O 26.7658 3.28954 2.48722 0
M  V30 312 H 26.1068 0.639339 0.17928 0
M  V30 313 H 28.6368 2.04463 -0.0748802 0
M  V30 314 H 28.6468 3.69417 1.7319 0
M  V30 315 H 27.3218 4.10694 0.656007 0
M  V30 316 H 25.8988 3.04705 2.14963 0
M  V30 317 N 28.0839 -0.256276 1.55502 0
M  V30 318 C 29.3319 -0.983672 1.76545 0
M  V30 319 C 29.6529 -1.86206 0.578982 0
M  V30 320 O 28.9229 -1.91656 -0.405577 0
M  V30 321 H 27.5029 -0.366191 0.651086 0
M  V30 322 H 30.1649 -0.276479 1.92929 0
M  V30 323 H 29.2609 -1.61087 2.67315 0
M  V30 324 N 29.562 -1.4872 -0.521534 0
M  V30 325 C 30.978 -1.35028 -0.850855 0
M  V30 326 C 31.178 -0.367712 -1.98116 0
M  V30 327 O 30.234 0.208037 -2.51642 0
M  V30 328 C 31.547 -2.75263 -1.21041 0
M  V30 329 C 33.095 -2.83813 -1.31981 0
M  V30 330 C 33.57 -4.24769 -1.71276 0
M  V30 331 N 35.061 -4.27482 -1.78363 0
M  V30 332 C 35.796 -5.33494 -2.1017 0
M  V30 333 N 35.292 -6.49775 -2.40343 0
M  V30 334 N 37.085 -5.20894 -2.11248 0
M  V30 335 H 29.236 -2.11214 0.22413 0
M  V30 336 H 31.499 -0.947252 0.0376439 0
M  V30 337 H 31.205 -3.48765 -0.453415 0
M  V30 338 H 31.079 -3.09327 -2.15863 0
M  V30 339 H 33.466 -2.10561 -2.06756 0
M  V30 340 H 33.547 -2.53358 -0.352596 0
M  V30 341 H 33.191 -4.9854 -0.970588 0
M  V30 342 H 33.121 -4.52673 -2.69062 0
M  V30 343 H 35.612 -3.43611 -1.57288 0
M  V30 344 H 35.925 -7.26402 -2.63743 0
M  V30 345 H 34.27 -6.53035 -2.37844 0
M  V30 346 H 37.461 -4.29065 -1.87139 0
M  V30 347 H 37.634 -6.03612 -2.35704 0
M  V30 348 N 31.0401 0.771051 -1.3745 0
M  V30 349 C 32.2651 1.56529 -1.36065 0
M  V30 350 C 32.6901 1.88029 0.0515859 0
M  V30 351 O 32.0481 1.49282 1.02882 0
M  V30 352 C 32.0961 2.85187 -2.20683 0
M  V30 353 O 31.2001 3.79593 -1.61193 0
M  V30 354 H 30.5411 0.47411 -0.464883 0
M  V30 355 H 33.0711 0.954269 -1.80983 0
M  V30 356 H 33.0811 3.34283 -2.33921 0
M  V30 357 H 31.7561 2.61588 -3.23334 0
M  V30 358 H 30.3331 3.38239 -1.56999 0
M  V30 359 N 32.5182 1.22032 0.997298 0
M  V30 360 C 33.7662 1.04016 1.73278 0
M  V30 361 C 34.0872 -0.426255 1.90284 0
M  V30 362 O 33.3572 -1.30694 1.45931 0
M  V30 363 H 31.9372 0.381897 0.642 0
M  V30 364 H 34.5992 1.5347 1.20137 0
M  V30 365 H 33.6952 1.51441 2.72896 0
M  V30 366 N 33.9963 -1.19345 1.0293 0
M  V30 367 C 34.9463 -2.20472 0.58104 0
M  V30 368 C 35.9303 -1.56578 -0.370442 0
M  V30 369 O 37.1223 -1.75963 -0.191344 0
M  V30 370 C 34.2513 -3.43236 -0.066306 0
M  V30 371 C 33.3373 -4.14274 0.907642 0
M  V30 372 N 33.7283 -4.61492 2.07023 0
M  V30 373 C 32.0263 -4.39966 0.731177 0
M  V30 374 C 32.7273 -5.1605 2.68454 0
M  V30 375 N 31.7033 -5.06875 1.96414 0
M  V30 376 H 35.5053 -2.54659 1.46717 0
M  V30 377 H 33.0193 -1.35423 0.896345 0
M  V30 378 H 35.0163 -4.14927 -0.405068 0
M  V30 379 H 33.6763 -3.10549 -0.948118 0
M  V30 380 H 34.6873 -4.56304 2.44963 0
M  V30 381 H 31.3643 -4.17377 -0.101507 0
M  V30 382 H 32.7543 -5.6287 3.66915 0
M  V30 383 N 35.4744 -0.807222 -1.35358 0
M  V30 384 C 36.4224 -0.20614 -2.31685 0
M  V30 385 C 37.4164 0.644445 -1.56663 0
M  V30 386 O 38.6224 0.537538 -1.71786 0
M  V30 387 H 34.9974 -0.0479006 -0.750473 0
M  V30 388 H 36.9684 -1.03369 -2.79924 0
M  V30 389 C 35.7174 0.630212 -3.41941 0
M  V30 390 H 35.0404 -0.0149558 -3.99797 0
M  V30 391 H 36.4804 1.01716 -4.11619 0
M  V30 392 C 34.9394 1.79601 -2.85035 0
M  V30 393 O 35.4694 2.89351 -2.78637 0
M  V30 394 N 33.6754 1.60774 -2.42074 0
M  V30 395 H 33.2224 0.715009 -2.47478 0
M  V30 396 H 33.1804 2.38933 -2.04349 0
M  V30 397 N 36.9525 1.47285 -0.560781 0
M  V30 398 C 38.1805 2.06855 -0.0430262 0
M  V30 399 C 38.5955 1.41291 1.25229 0
M  V30 400 O 37.9525 0.510648 1.7521 0
M  V30 401 C 38.0035 3.61178 0.152518 0
M  V30 402 O 37.7245 4.24285 -1.0915 0
M  V30 403 C 39.2255 4.37624 0.707145 0
M  V30 404 H 36.4455 0.669319 -0.0474652 0
M  V30 405 H 38.9895 1.89237 -0.77521 0
M  V30 406 H 37.1445 3.78298 0.834843 0
M  V30 407 H 37.5585 5.16868 -0.891482 0
M  V30 408 H 39.0325 5.46271 0.793244 0
M  V30 409 H 39.5095 4.04152 1.71923 0
M  V30 410 H 40.1155 4.25257 0.0604027 0
M  V30 411 N 38.4306 0.297415 1.54768 0
M  V30 412 C 39.8466 -0.0560823 1.59501 0
M  V30 413 C 40.0466 -1.52725 1.31444 0
M  V30 414 O 39.1026 -2.27947 1.08611 0
M  V30 415 C 40.4156 0.338631 2.98787 0
M  V30 416 C 41.9636 0.287097 3.11681 0
M  V30 417 C 42.4386 0.656579 4.53269 0
M  V30 418 N 43.9296 0.608977 4.59179 0
M  V30 419 C 44.6646 0.867385 5.66802 0
M  V30 420 N 44.1606 1.19157 6.82476 0
M  V30 421 N 45.9536 0.794687 5.56454 0
M  V30 422 H 38.1046 1.25624 1.71267 0
M  V30 423 H 40.3676 0.509057 0.799728 0
M  V30 424 H 40.0736 1.36263 3.2423 0
M  V30 425 H 39.9476 -0.309508 3.75928 0
M  V30 426 H 42.3346 -0.727649 2.85988 0
M  V30 427 H 42.4156 0.969809 2.36703 0
M  V30 428 H 42.0596 1.66912 4.7969 0
M  V30 429 H 41.9896 -0.0481649 5.26578 0
M  V30 430 H 44.4806 0.369198 3.76092 0
M  V30 431 H 44.7936 1.37482 7.60473 0
M  V30 432 H 43.1386 1.22958 6.84037 0
M  V30 433 H 46.3296 0.541098 4.64962 0
M  V30 434 H 46.5026 0.999445 6.40246 0
M  V30 435 N 39.9087 -1.5758 0.0250728 0
M  V30 436 C 41.1567 -1.91255 -0.653151 0
M  V30 437 C 41.4777 -0.901691 -1.729 0
M  V30 438 O 40.7477 0.0573785 -1.95816 0
M  V30 439 H 39.3277 -0.705942 -0.244243 0
M  V30 440 H 41.9897 -1.94767 0.0719209 0
M  V30 441 H 41.0857 -2.91752 -1.10847 0
M  V30 442 N 41.3868 0.248026 -1.55636 0
M  V30 443 C 42.6148 0.993808 -1.81469 0
M  V30 444 C 43.0298 1.78991 -0.60064 0
M  V30 445 O 42.3868 1.77345 0.430682 0
M  V30 446 C 42.4378 1.93258 -3.05506 0
M  V30 447 O 42.1588 1.16869 -4.22224 0
M  V30 448 C 43.6598 2.79444 -3.4413 0
M  V30 449 H 40.8798 0.292486 -0.603898 0
M  V30 450 H 43.4238 0.271253 -2.02693 0
M  V30 451 H 41.5788 2.60943 -2.86335 0
M  V30 452 H 41.9928 1.80359 -4.92515 0
M  V30 453 H 43.4668 3.41066 -4.34026 0
M  V30 454 H 43.9438 3.50499 -2.64665 0
M  V30 455 H 44.5498 2.17214 -3.65648 0
M  V30 456 N 42.8649 1.48995 0.513639 0
M  V30 457 C 44.1129 1.57531 1.26604 0
M  V30 458 C 44.4339 0.258236 1.93283 0
M  V30 459 O 43.7039 -0.721502 1.8213 0
M  V30 460 H 42.2839 0.580387 0.470276 0
M  V30 461 H 44.9459 1.85552 0.596373 0
M  V30 462 H 44.0419 2.36486 2.03669 0
M  V30 463 N 44.343 -0.763751 1.37857 0
M  V30 464 C 45.568 -1.55805 1.36893 0
M  V30 465 C 45.993 -1.88054 -0.0416135 0
M  V30 466 O 45.351 -1.49825 -1.02089 0
M  V30 467 C 45.399 -2.84012 2.22192 0
M  V30 468 O 44.503 -3.78732 1.63204 0
M  V30 469 H 43.844 -0.471638 0.46739 0
M  V30 470 H 46.374 -0.944657 1.81487 0
M  V30 471 H 46.384 -3.33037 2.35691 0
M  V30 472 H 45.059 -2.59869 3.24716 0
M  V30 473 H 43.636 -3.37402 1.58791 0
M  V30 474 N 45.8211 -1.22559 -0.990812 0
M  V30 475 C 47.0461 -1.07862 -1.77145 0
M  V30 476 C 47.4711 0.366447 -1.84496 0
M  V30 477 O 46.8291 1.26478 -1.29896 0
M  V30 478 C 46.8771 -1.69686 -3.18181 0
M  V30 479 O 45.9811 -0.951946 -4.01263 0
M  V30 480 H 45.3221 -0.378712 -0.545411 0
M  V30 481 H 47.8521 -1.62399 -1.2445 0
M  V30 482 H 47.8621 -1.74496 -3.68802 0
M  V30 483 H 46.5371 -2.74841 -3.12146 0
M  V30 484 H 45.1141 -0.980011 -3.59792 0
M  V30 485 N 47.2992 1.18797 -1.03562 0
M  V30 486 C 48.5242 1.9314 -0.755764 0
M  V30 487 C 48.9492 1.7537 0.68022 0
M  V30 488 O 48.3072 1.06046 1.47051 0
M  V30 489 C 48.3552 3.42747 -1.12058 0
M  V30 490 O 47.4592 4.11683 -0.243124 0
M  V30 491 H 46.8002 0.602724 -0.278604 0
M  V30 492 H 49.3302 1.50678 -1.3841 0
M  V30 493 H 49.3402 3.93437 -1.08035 0
M  V30 494 H 48.0152 3.55002 -2.16672 0
M  V30 495 H 46.5922 3.71323 -0.342539 0
M  V30 496 N 48.7773 0.814389 1.34928 0
M  V30 497 C 50.0023 0.410097 2.03305 0
M  V30 498 C 50.4273 -0.973464 1.60951 0
M  V30 499 O 49.7853 -1.63185 0.789964 0
M  V30 500 C 49.8333 0.51049 3.56968 0
M  V30 501 O 48.9373 -0.473035 4.09678 0
M  V30 502 H 48.2783 0.170088 0.641846 0
M  V30 503 H 50.8083 1.10244 1.72358 0
M  V30 504 H 50.8183 0.383135 4.06197 0
M  V30 505 H 49.4933 1.51963 3.87144 0
M  V30 506 H 48.0703 -0.305272 3.71648 0
M  V30 507 N 50.2554 -1.46986 0.568584 0
M  V30 508 C 51.5034 -2.02041 0.0487022 0
M  V30 509 C 51.8244 -1.44408 -1.31039 0
M  V30 510 O 51.0944 -0.623477 -1.85714 0
M  V30 511 H 49.6744 -0.746849 0.015014 0
M  V30 512 H 52.3364 -1.80257 0.741168 0
M  V30 513 H 51.4324 -3.12085 -0.0308961 0
M  V30 514 N 51.7335 -0.305618 -1.54608 0
M  V30 515 C 52.9795 0.302746 -2.00528 0
M  V30 516 C 53.3125 1.53184 -1.19367 0
M  V30 517 O 52.5875 1.92598 -0.271321 0
M  V30 518 C 52.8705 0.654756 -3.54097 0
M  V30 519 C 52.7235 -0.583793 -4.45995 0
M  V30 520 C 54.0425 1.47947 -4.14487 0
M  V30 521 H 51.1615 0.108564 -0.72896 0
M  V30 522 H 53.8035 -0.418634 -1.85331 0
M  V30 523 H 51.9535 1.26935 -3.67178 0
M  V30 524 H 53.6255 -1.22224 -4.44814 0
M  V30 525 H 51.8685 -1.21615 -4.16404 0
M  V30 526 H 52.5395 -0.293287 -5.5122 0
M  V30 527 H 55.0155 0.96013 -4.04871 0
M  V30 528 H 53.8915 1.69454 -5.22088 0
M  V30 529 H 54.1525 2.47011 -3.66658 0
M  V30 530 N 53.2116 1.57565 -0.0334293 0
M  V30 531 C 54.1416 2.13511 0.945265 0
M  V30 532 C 55.1226 1.05231 1.33643 0
M  V30 533 O 56.3076 1.33084 1.41429 0
M  V30 534 C 53.4376 2.6657 2.22616 0
M  V30 535 C 52.3916 3.79676 1.97561 0
M  V30 536 C 51.7176 4.1918 3.31952 0
M  V30 537 C 53.0176 5.0557 1.31135 0
M  V30 538 H 54.7116 2.95538 0.479325 0
M  V30 539 H 52.2576 1.42166 0.229115 0
M  V30 540 H 54.2106 3.04344 2.91466 0
M  V30 541 H 52.9346 1.8171 2.71384 0
M  V30 542 H 51.5936 3.42347 1.31127 0
M  V30 543 H 51.2416 3.31296 3.78487 0
M  V30 544 H 50.9416 4.95402 3.15992 0
M  V30 545 H 52.4656 4.59541 4.02063 0
M  V30 546 H 53.8796 5.40903 1.89992 0
M  V30 547 H 52.2766 5.86818 1.25559 0
M  V30 548 H 53.3466 4.84062 0.284894 0
M  V30 549 N 54.6897 -0.239769 1.55765 0
M  V30 550 C 55.6227 -1.32356 1.85895 0
M  V30 551 C 56.6007 -1.46053 0.714662 0
M  V30 552 O 57.7847 -1.62154 0.961157 0
M  V30 553 C 54.9117 -2.6962 2.04994 0
M  V30 554 C 53.9577 -2.73036 3.27648 0
M  V30 555 S 54.7907 -2.28929 4.84099 0
M  V30 556 C 55.9467 -3.68103 5.06212 0
M  V30 557 H 56.1797 -1.06601 2.77531 0
M  V30 558 H 53.7127 -0.441112 1.47965 0
M  V30 559 H 55.6707 -3.48653 2.16682 0
M  V30 560 H 54.3317 -2.92609 1.14188 0
M  V30 561 H 53.5247 -3.7386 3.38 0
M  V30 562 H 53.1267 -2.02052 3.14723 0
M  V30 563 H 55.4187 -4.63656 4.93993 0
M  V30 564 H 56.3617 -3.6268 6.08168 0
M  V30 565 H 56.7697 -3.60947 4.34025 0
M  V30 566 N 56.1678 -1.49265 -0.50573 0
M  V30 567 C 57.4138 -1.58748 -1.26202 0
M  V30 568 C 57.7468 -0.271227 -1.92297 0
M  V30 569 O 57.0218 0.724831 -1.80489 0
M  V30 570 C 57.3048 -2.74332 -2.33268 0
M  V30 571 C 57.1578 -4.15737 -1.71705 0
M  V30 572 C 58.4768 -2.85576 -3.34865 0
M  V30 573 H 55.5958 -0.577826 -0.457478 0
M  V30 574 H 58.2378 -1.81532 -0.560897 0
M  V30 575 H 56.3878 -2.55036 -2.93068 0
M  V30 576 H 58.0598 -4.46537 -1.15769 0
M  V30 577 H 56.3028 -4.21605 -1.02135 0
M  V30 578 H 56.9738 -4.92477 -2.49341 0
M  V30 579 H 59.4498 -3.03127 -2.8505 0
M  V30 580 H 58.3258 -3.68135 -4.07146 0
M  V30 581 H 58.5868 -1.94732 -3.96903 0
M  V30 582 N 57.6459 0.756429 -1.3826 0
M  V30 583 C 58.8939 1.51248 -1.34047 0
M  V30 584 C 59.2149 1.94875 0.0698372 0
M  V30 585 O 58.4849 1.67436 1.01696 0
M  V30 586 H 57.0649 0.561018 -0.493222 0
M  V30 587 H 59.7269 0.899347 -1.7291 0
M  V30 588 H 58.8229 2.40472 -1.98947 0
M  V30 589 N 59.124 1.23083 0.984299 0
M  V30 590 C 60.535 1.05609 1.5396 0
M  V30 591 C 60.886 -0.377793 1.92528 0
M  V30 592 O 60.011 -1.26398 1.75649 0
M  V30 593 C 60.606 1.91087 2.7977 0
M  V30 594 C 59.165 1.77885 3.31713 0
M  V30 595 C 58.312 1.87028 2.04733 0
M  V30 596 H 61.263 1.36802 0.804419 0
M  V30 597 H 61.284 1.43336 3.5247 0
M  V30 598 H 60.796 2.9544 2.51668 0
M  V30 599 H 58.897 0.762995 3.64704 0
M  V30 600 H 59.01 2.61047 4.01735 0
M  V30 601 H 57.374 1.30565 2.18689 0
M  V30 602 H 58.157 2.92929 1.79017 0
M  V30 603 N 60.6021 -1.18246 1.0419 0
M  V30 604 C 61.5501 -2.23968 0.627792 0
M  V30 605 C 62.5441 -1.65828 -0.346019 0
M  V30 606 O 63.7501 -1.78733 -0.213175 0
M  V30 607 H 60.1251 -0.728939 0.184802 0
M  V30 608 H 62.0961 -2.56202 1.52981 0
M  V30 609 C 60.8451 -3.47699 0.00796591 0
M  V30 610 H 60.1681 -3.92734 0.748347 0
M  V30 611 H 61.6081 -4.23294 -0.24455 0
M  V30 612 C 60.0671 -3.13153 -1.24246 0
M  V30 613 O 60.5971 -3.27003 -2.33307 0
M  V30 614 N 58.8031 -2.67467 -1.13622 0
M  V30 615 H 58.3501 -2.56396 -0.248734 0
M  V30 616 H 58.3081 -2.44724 -1.97377 0
M  V30 617 N 62.0802 -0.821533 -1.34494 0
M  V30 618 C 63.3272 -0.408946 -1.98328 0
M  V30 619 C 63.6552 1.02764 -1.65136 0
M  V30 620 O 62.9102 1.73026 -0.914349 0
M  V30 621 C 63.2092 -0.556512 -3.53041 0
M  V30 622 C 62.8752 -1.95861 -4.0614 0
M  V30 623 C 61.5372 -2.34217 -4.20352 0
M  V30 624 C 63.8892 -2.87523 -4.34718 0
M  V30 625 C 61.2172 -3.63572 -4.6047 0
M  V30 626 C 63.5692 -4.1634 -4.76281 0
M  V30 627 C 62.2332 -4.54675 -4.88699 0
M  V30 628 H 61.5032 -0.149644 -0.725732 0
M  V30 629 H 64.1502 -1.04521 -1.6046 0
M  V30 630 H 62.4552 0.163148 -3.9146 0
M  V30 631 H 64.1522 -0.217826 -4.00408 0
M  V30 632 H 60.7422 -1.65066 -3.95539 0
M  V30 633 H 64.9262 -2.59133 -4.23277 0
M  V30 634 H 60.1822 -3.93101 -4.68275 0
M  V30 635 H 64.3562 -4.87455 -4.97354 0
M  V30 636 H 61.9832 -5.54959 -5.19542 0
M  V30 637 N 63.5583 1.46682 -0.576371 0
M  V30 638 C 64.9743 1.57822 -0.237562 0
M  V30 639 C 65.1743 1.57237 1.26011 0
M  V30 640 O 64.2303 1.48596 2.04146 0
M  V30 641 C 65.5433 2.87499 -0.881168 0
M  V30 642 C 67.0913 3.01119 -0.85417 0
M  V30 643 C 67.5663 4.33524 -1.4772 0
M  V30 644 N 69.0573 4.40207 -1.44125 0
M  V30 645 C 69.7923 5.4126 -1.89276 0
M  V30 646 N 69.2883 6.49021 -2.42371 0
M  V30 647 N 71.0813 5.32422 -1.80231 0
M  V30 648 H 63.2323 1.45306 -1.54919 0
M  V30 649 H 65.4953 0.692733 -0.647167 0
M  V30 650 H 65.2013 2.9372 -1.93447 0
M  V30 651 H 65.0753 3.75224 -0.385592 0
M  V30 652 H 67.4623 2.94485 0.190491 0
M  V30 653 H 67.5433 2.14887 -1.3877 0
M  V30 654 H 67.1873 4.40916 -2.52103 0
M  V30 655 H 67.1173 5.1852 -0.918947 0
M  V30 656 H 69.6083 3.62931 -1.05307 0
M  V30 657 H 69.9213 7.2233 -2.74698 0
M  V30 658 H 68.2663 6.49858 -2.46393 0
M  V30 659 H 71.4573 4.47137 -1.38514 0
M  V30 660 H 71.6303 6.11034 -2.15735 0
M  V30 661 N 65.0364 0.313813 1.54444 0
M  V30 662 C 66.2824 -0.292108 2.00685 0
M  V30 663 C 66.6154 -1.52548 1.20177 0
M  V30 664 O 65.8904 -1.92452 0.281531 0
M  V30 665 C 66.1734 -0.635968 3.5444 0
M  V30 666 C 66.0264 0.607437 4.4568 0
M  V30 667 C 67.3454 -1.45747 4.15266 0
M  V30 668 H 64.4644 -0.104697 0.729526 0
M  V30 669 H 67.1064 0.428457 1.85106 0
M  V30 670 H 65.2564 -1.24986 3.67846 0
M  V30 671 H 66.9284 1.24581 4.44159 0
M  V30 672 H 65.1714 1.23822 4.15753 0
M  V30 673 H 65.8424 0.322515 5.51057 0
M  V30 674 H 68.3184 -0.938645 4.05375 0
M  V30 675 H 67.1944 -1.66683 5.2298 0
M  V30 676 H 67.4554 -2.45063 3.67963 0
M  V30 677 N 66.5145 -1.57545 0.0417849 0
M  V30 678 C 67.7625 -1.91937 -0.632829 0
M  V30 679 C 68.0835 -0.919978 -1.71934 0
M  V30 680 O 67.3535 0.0366064 -1.95866 0
M  V30 681 H 65.9335 -0.708493 -0.236742 0
M  V30 682 H 68.5955 -1.9468 0.0925745 0
M  V30 683 H 67.6915 -2.92912 -1.07746 0
M  V30 684 N 67.9926 0.231505 -1.5589 0
M  V30 685 C 68.9396 1.28682 -1.91598 0
M  V30 686 C 69.9096 1.47071 -0.771974 0
M  V30 687 O 71.0946 1.60802 -1.027 0
M  V30 688 C 68.2346 2.6342 -2.22944 0
M  V30 689 C 67.3476 2.52912 -3.50228 0
M  V30 690 C 66.4826 3.80106 -3.7107 0
M  V30 691 C 65.5216 3.64279 -4.91902 0
M  V30 692 N 64.6586 4.834 -5.09184 0
M  V30 693 H 69.4986 0.975305 -2.81588 0
M  V30 694 H 67.0356 0.470299 -1.39379 0
M  V30 695 H 68.9936 3.41869 -2.39126 0
M  V30 696 H 67.6236 2.92687 -1.36139 0
M  V30 697 H 66.6756 1.6595 -3.42294 0
M  V30 698 H 67.9876 2.37133 -4.38827 0
M  V30 699 H 67.1416 4.66999 -3.87295 0
M  V30 700 H 65.8806 3.98799 -2.80733 0
M  V30 701 H 64.8856 2.7577 -4.75637 0
M  V30 702 H 66.1106 3.47067 -5.83714 0
M  V30 703 H 64.0566 5.02425 -4.21788 0
M  V30 704 H 63.9736 4.70311 -5.91898 0
M  V30 705 H 65.2416 5.71747 -5.29835 0
M  V30 706 N 69.4707 1.49531 0.497807 0
M  V30 707 C 70.4177 1.66436 1.59899 0
M  V30 708 C 71.3877 0.505793 1.58212 0
M  V30 709 O 72.5727 0.733202 1.7615 0
M  V30 710 C 69.7127 1.7399 2.98029 0
M  V30 711 C 68.8257 3.01172 3.09708 0
M  V30 712 C 67.9607 2.99686 4.38591 0
M  V30 713 C 66.9997 4.21434 4.43914 0
M  V30 714 N 66.1367 4.1784 5.64229 0
M  V30 715 H 70.9767 2.60459 1.44793 0
M  V30 716 H 68.5137 1.29137 0.704423 0
M  V30 717 H 70.4717 1.76352 3.78095 0
M  V30 718 H 69.1017 0.834301 3.11832 0
M  V30 719 H 68.1537 3.08408 2.22685 0
M  V30 720 H 69.4657 3.91165 3.09502 0
M  V30 721 H 68.6197 3.00628 5.2698 0
M  V30 722 H 67.3587 2.07477 4.41367 0
M  V30 723 H 66.3637 4.20733 3.53926 0
M  V30 724 H 67.5887 5.14839 4.42851 0
M  V30 725 H 65.5347 3.28469 5.67841 0
M  V30 726 H 65.4517 5.01571 5.65652 0
M  V30 727 H 66.7197 4.22889 6.54817 0
M  V30 728 N 70.9488 -0.749086 1.3866 0
M  V30 729 C 72.1978 -1.50371 1.3443 0
M  V30 730 C 72.5108 -1.95503 -0.0616397 0
M  V30 731 O 73.7168 -2.70554 -0.226489 0
M  V30 732 C 72.1728 -2.71644 2.36088 0
M  V30 733 C 71.7808 -2.3352 3.82325 0
M  V30 734 C 73.5248 -3.49518 2.40909 0
M  V30 735 C 71.4318 -3.51431 4.75658 0
M  V30 736 H 70.3618 -0.564628 0.499712 0
M  V30 737 H 73.0128 -0.818449 1.64237 0
M  V30 738 H 71.3948 -3.42175 1.9933 0
M  V30 739 H 72.5688 -1.70627 4.28046 0
M  V30 740 H 70.8838 -1.6877 3.80665 0
M  V30 741 H 73.4808 -4.37197 3.07836 0
M  V30 742 H 73.8238 -3.90992 1.42937 0
M  V30 743 H 74.3568 -2.86005 2.76489 0
M  V30 744 H 71.0958 -3.15019 5.74842 0
M  V30 745 H 70.6158 -4.13352 4.34627 0
M  V30 746 H 72.2948 -4.17953 4.93887 0
M  V30 747 N 72.4269 -1.23603 -0.977757 0
M  V30 748 C 73.6749 -1.06759 -1.71601 0
M  V30 749 C 73.9959 0.395929 -1.90938 0
M  V30 750 O 73.2659 1.28356 -1.47992 0
M  V30 751 H 71.8459 -0.392062 -0.635843 0
M  V30 752 H 74.5079 -1.55362 -1.1768 0
M  V30 753 H 73.6039 -1.55763 -2.70452 0
M  V30 754 N 73.905 1.17692 -1.04816 0
M  V30 755 C 75.145 1.89545 -0.764979 0
M  V30 756 C 75.509 1.78979 0.695028 0
M  V30 757 O 76.71 2.45613 1.09215 0
M  V30 758 C 74.981 3.35659 -1.22751 0
M  V30 759 S 76.54 4.25526 -1.07112 0
M  V30 760 H 73.358 0.654432 -0.27792 0
M  V30 761 H 75.96 1.42163 -1.34201 0
M  V30 762 H 74.664 3.40882 -2.28533 0
M  V30 763 H 74.195 3.88083 -0.644594 0
M  V30 764 H 76.21 4.962 0.00697508 0
M  V30 765 N 75.3831 0.828654 1.34056 0
M  V30 766 C 76.6311 0.41863 1.97717 0
M  V30 767 C 76.9521 -1.02314 1.66002 0
M  V30 768 O 76.2221 -1.71119 0.953683 0
M  V30 769 H 74.8021 0.151809 0.731412 0
M  V30 770 H 77.4641 1.05936 1.63596 0
M  V30 771 H 76.5601 0.542318 3.07352 0
M  V30 772 N 76.8612 -1.46375 0.584142 0
M  V30 773 C 77.8092 -2.32042 -0.161047 0
M  V30 774 C 78.8032 -1.44569 -0.882966 0
M  V30 775 O 80.0092 -1.61186 -0.801191 0
M  V30 776 H 76.3842 -0.748659 -0.0708033 0
M  V30 777 H 78.3552 -2.92704 0.580269 0
M  V30 778 C 77.1042 -3.27762 -1.1605 0
M  V30 779 H 76.4272 -3.95051 -0.614419 0
M  V30 780 H 77.8672 -3.90481 -1.65228 0
M  V30 781 C 76.3262 -2.53218 -2.22221 0
M  V30 782 O 76.8562 -2.29628 -3.29597 0
M  V30 783 N 75.0622 -2.13756 -1.96868 0
M  V30 784 H 74.6092 -2.33142 -1.09557 0
M  V30 785 H 74.5672 -1.642 -2.68115 0
M  V30 786 N 78.3393 -0.321999 -1.54275 0
M  V30 787 C 79.5863 0.281044 -2.0054 0
M  V30 788 C 79.9143 1.52265 -1.21019 0
M  V30 789 O 79.1693 1.93687 -0.279982 0
M  V30 790 C 79.4683 0.661769 -3.5122 0
M  V30 791 C 79.1343 -0.480482 -4.48333 0
M  V30 792 C 77.7963 -0.794005 -4.74604 0
M  V30 793 C 80.1483 -1.24783 -5.06042 0
M  V30 794 C 77.4763 -1.87763 -5.55844 0
M  V30 795 C 79.8283 -2.32153 -5.88462 0
M  V30 796 C 78.4923 -2.64089 -6.13036 0
M  V30 797 H 77.7623 0.102841 -0.733829 0
M  V30 798 H 80.4093 -0.445453 -1.86247 0
M  V30 799 H 78.7143 1.46867 -3.63232 0
M  V30 800 H 80.4113 1.13989 -3.84457 0
M  V30 801 H 77.0013 -0.226039 -4.28004 0
M  V30 802 H 81.1853 -1.01887 -4.85729 0
M  V30 803 H 76.4413 -2.12954 -5.73115 0
M  V30 804 H 80.6153 -2.92057 -6.32199 0
M  V30 805 H 78.2423 -3.48185 -6.75775 0
M  V30 806 N 79.8174 1.5752 -0.0501392 0
M  V30 807 C 81.0654 1.9227 0.622642 0
M  V30 808 C 81.3864 0.929083 1.71444 0
M  V30 809 O 80.6564 -0.0262186 1.95882 0
M  V30 810 H 79.2364 0.709739 0.232981 0
M  V30 811 H 81.8984 1.94628 -0.102898 0
M  V30 812 H 80.9944 2.93479 1.06191 0
M  V30 813 N 81.2955 -0.223234 1.56011 0
M  V30 814 C 82.2055 -1.29766 1.95443 0
M  V30 815 C 83.2215 -1.51373 0.858028 0
M  V30 816 O 84.3975 -1.64536 1.16146 0
M  V30 817 C 81.4625 -2.62772 2.26167 0
M  V30 818 C 80.5235 -2.49482 3.49367 0
M  V30 819 C 79.7565 -3.76145 3.78616 0
M  V30 820 O 79.9795 -4.79087 3.09568 0
M  V30 821 O 78.9135 -3.73358 4.72109 0
M  V30 822 H 82.7395 -0.99309 2.87004 0
M  V30 823 H 80.3245 -0.425958 1.43199 0
M  V30 824 H 82.2065 -3.41327 2.47131 0
M  V30 825 H 80.8815 -2.92913 1.37781 0
M  V30 826 H 79.7885 -1.69133 3.33684 0
M  V30 827 H 81.1215 -2.2428 4.38131 0
M  V30 828 N 82.7736 -1.49793 -0.48987 0
M  V30 829 C 83.7036 -1.70201 -1.59856 0
M  V30 830 C 84.6846 -0.55076 -1.60937 0
M  V30 831 O 85.8696 -0.787841 -1.77501 0
M  V30 832 C 82.9996 -1.77882 -2.98287 0
M  V30 833 C 81.9536 -2.92907 -3.12073 0
M  V30 834 C 81.2796 -2.85712 -4.51965 0
M  V30 835 C 82.5796 -4.3369 -2.91051 0
M  V30 836 H 84.2736 -2.63025 -1.43032 0
M  V30 837 H 81.8196 -1.26574 -0.686664 0
M  V30 838 H 83.7726 -1.90744 -3.75759 0
M  V30 839 H 82.4966 -0.816653 -3.16225 0
M  V30 840 H 81.1556 -2.79665 -2.37029 0
M  V30 841 H 80.8036 -1.8738 -4.66795 0
M  V30 842 H 80.5036 -3.62921 -4.62128 0
M  V30 843 H 82.0276 -3.00598 -5.31482 0
M  V30 844 H 83.4416 -4.47555 -3.58284 0
M  V30 845 H 81.8386 -5.12205 -3.12675 0
M  V30 846 H 82.9086 -4.47362 -1.87071 0
M  V30 847 N 84.2517 0.741722 -1.39055 0
M  V30 848 C 85.6677 1.04638 -1.20512 0
M  V30 849 C 85.8677 2.01405 -0.0620218 0
M  V30 850 O 84.9237 2.45547 0.588457 0
M  V30 851 C 86.2367 1.6151 -2.53643 0
M  V30 852 C 87.7847 1.73623 -2.6043 0
M  V30 853 C 88.2597 2.33906 -3.93767 0
M  V30 854 N 89.7507 2.41323 -3.9537 0
M  V30 855 C 90.4857 2.88888 -4.95309 0
M  V30 856 N 89.9817 3.36401 -6.05645 0
M  V30 857 N 91.7747 2.88037 -4.82692 0
M  V30 858 H 83.9257 0.0998155 -2.12165 0
M  V30 859 H 86.1887 0.106907 -0.941953 0
M  V30 860 H 85.8947 0.978739 -3.37807 0
M  V30 861 H 85.7687 2.60411 -2.72885 0
M  V30 862 H 88.1557 2.36384 -1.76655 0
M  V30 863 H 88.2367 0.733945 -2.45045 0
M  V30 864 H 87.8807 1.71776 -4.7797 0
M  V30 865 H 87.8107 3.34799 -4.06469 0
M  V30 866 H 90.3017 2.07734 -3.15682 0
M  V30 867 H 90.6147 3.71186 -6.77821 0
M  V30 868 H 88.9597 3.34427 -6.09248 0
M  V30 869 H 92.1507 2.50237 -3.95599 0
M  V30 870 H 92.3237 3.24792 -5.60726 0
M  V30 871 N 85.7298 1.2412 0.971189 0
M  V30 872 C 86.6598 1.05508 2.08304 0
M  V30 873 C 87.6408 -0.0308864 1.70072 0
M  V30 874 O 88.8258 0.135521 1.93727 0
M  V30 875 C 85.9558 0.655365 3.4106 0
M  V30 876 C 84.9098 1.68971 3.93234 0
M  V30 877 C 84.2358 1.14516 5.22293 0
M  V30 878 C 85.5358 3.08487 4.21465 0
M  V30 879 H 87.2298 1.98507 2.24132 0
M  V30 880 H 84.7758 0.955821 1.07704 0
M  V30 881 H 86.7288 0.51217 4.18276 0
M  V30 882 H 85.4528 -0.31032 3.25122 0
M  V30 883 H 84.1118 1.82106 3.18171 0
M  V30 884 H 83.7598 0.170189 5.02712 0
M  V30 885 H 83.4598 1.83635 5.58168 0
M  V30 886 H 84.9838 1.01401 6.02121 0
M  V30 887 H 86.3978 2.98601 4.89398 0
M  V30 888 H 84.7948 3.74926 4.68562 0
M  V30 889 H 85.8648 3.56787 3.28376 0
M  V30 890 N 87.2079 -1.17134 1.05439 0
M  V30 891 C 88.4559 -1.87085 0.764429 0
M  V30 892 C 88.7769 -1.81584 -0.710787 0
M  V30 893 O 88.0469 -1.24349 -1.51374 0
M  V30 894 H 86.6269 -0.692627 0.279779 0
M  V30 895 H 89.2889 -1.42087 1.33406 0
M  V30 896 H 88.3849 -2.92759 1.0816 0
M  V30 897 N 88.686 -0.835752 -1.33615 0
M  V30 898 C 89.633 -0.26473 -2.29277 0
M  V30 899 C 90.603 0.617712 -1.54187 0
M  V30 900 O 91.788 0.556641 -1.825 0
M  V30 901 C 88.928 0.556777 -3.40579 0
M  V30 902 C 88.041 -0.349339 -4.30585 0
M  V30 903 C 87.176 0.482969 -5.29 0
M  V30 904 C 86.215 -0.421732 -6.10645 0
M  V30 905 N 85.352 0.372262 -7.01112 0
M  V30 906 H 90.192 -1.08582 -2.77514 0
M  V30 907 H 87.729 -0.546927 -1.36554 0
M  V30 908 H 89.687 1.04852 -4.03809 0
M  V30 909 H 88.317 1.34286 -2.93542 0
M  V30 910 H 87.369 -0.959372 -3.68104 0
M  V30 911 H 88.681 -1.04445 -4.87742 0
M  V30 912 H 87.835 1.03866 -5.97743 0
M  V30 913 H 86.574 1.21153 -4.72412 0
M  V30 914 H 85.579 -0.989464 -5.40823 0
M  V30 915 H 86.804 -1.14861 -6.69316 0
M  V30 916 H 84.75 1.08426 -6.46977 0
M  V30 917 H 84.667 -0.264198 -7.55538 0
M  V30 918 H 85.935 0.910293 -7.74167 0
M  V30 919 N 90.1641 1.46063 -0.591896 0
M  V30 920 C 91.1121 2.32124 0.148739 0
M  V30 921 C 92.1061 1.45035 0.875286 0
M  V30 922 O 93.3121 1.61609 0.792632 0
M  V30 923 H 89.6871 0.749024 0.066832 0
M  V30 924 H 91.6581 2.92392 -0.595783 0
M  V30 925 C 90.4071 3.28373 1.1431 0
M  V30 926 H 89.7301 3.95371 0.59346 0
M  V30 927 H 91.1701 3.91352 1.63155 0
M  V30 928 C 89.6291 2.54393 2.20875 0
M  V30 929 O 90.1591 2.31373 3.28374 0
M  V30 930 N 88.3651 2.14797 1.95731 0
M  V30 931 H 87.9121 2.33719 1.08319 0
M  V30 932 H 87.8701 1.65619 2.67241 0
M  V30 933 N 91.6422 0.330177 1.54103 0
M  V30 934 C 92.5722 -0.525353 2.27513 0
M  V30 935 C 93.5532 -1.11383 1.2856 0
M  V30 936 O 94.7382 -1.13773 1.57383 0
M  V30 937 C 91.8682 -1.6831 3.03791 0
M  V30 938 C 90.8222 -1.2236 4.10137 0
M  V30 939 C 90.1482 -2.46882 4.74293 0
M  V30 940 C 91.4482 -0.333697 5.21233 0
M  V30 941 H 93.1422 0.087013 2.99274 0
M  V30 942 H 90.6882 0.0432893 1.43935 0
M  V30 943 H 92.6412 -2.28795 3.5388 0
M  V30 944 H 91.3652 -2.32216 2.29659 0
M  V30 945 H 90.0242 -0.64165 3.60941 0
M  V30 946 H 89.6722 -3.09165 3.96769 0
M  V30 947 H 89.3722 -2.16825 5.46133 0
M  V30 948 H 90.8962 -3.08117 5.27159 0
M  V30 949 H 92.3102 -0.845013 5.67038 0
M  V30 950 H 90.7072 -0.125612 5.99969 0
M  V30 951 H 91.7772 0.633724 4.80741 0
M  V30 952 N 93.1203 -1.57491 0.0584922 0
M  V30 953 C 94.3503 -1.9701 -0.622134 0
M  V30 954 C 94.7583 -0.935034 -1.6448 0
M  V30 955 O 94.1013 0.0882904 -1.83488 0
M  V30 956 C 94.1633 -3.32794 -1.35972 0
M  V30 957 C 93.8273 -4.54343 -0.492043 0
M  V30 958 C 94.8243 -5.19323 0.244901 0
M  V30 959 C 92.5093 -5.00534 -0.420821 0
M  V30 960 C 94.5033 -6.28835 1.04143 0
M  V30 961 C 92.1903 -6.09921 0.379389 0
M  V30 962 C 93.1883 -6.73933 1.10919 0
M  V30 963 O 92.8763 -7.81216 1.89623 0
M  V30 964 H 92.6083 -0.653127 -0.174359 0
M  V30 965 H 95.1623 -2.05029 0.123418 0
M  V30 966 H 93.3923 -3.21351 -2.15105 0
M  V30 967 H 95.0813 -3.5701 -1.93129 0
M  V30 968 H 95.8473 -4.8459 0.19939 0
M  V30 969 H 91.7263 -4.50496 -0.978474 0
M  V30 970 H 95.2703 -6.7873 1.61157 0
M  V30 971 H 91.1673 -6.44089 0.426512 0
M  V30 972 H 91.9353 -7.98029 1.81913 0
M  V30 973 N 94.5984 0.214957 -1.56127 0
M  V30 974 C 95.8264 0.955092 -1.83536 0
M  V30 975 C 96.2414 1.77677 -0.638472 0
M  V30 976 O 95.5984 1.78219 0.392968 0
M  V30 977 C 95.6494 1.86734 -3.09536 0
M  V30 978 O 95.3704 1.07887 -4.24608 0
M  V30 979 C 96.8714 2.72082 -3.4998 0
M  V30 980 H 94.0914 0.279611 -0.609966 0
M  V30 981 H 96.6354 0.228197 -2.03223 0
M  V30 982 H 94.7904 2.5481 -2.91806 0
M  V30 983 H 95.2044 1.69872 -4.9623 0
M  V30 984 H 96.6784 3.31782 -4.41163 0
M  V30 985 H 97.1554 3.44806 -2.7204 0
M  V30 986 H 97.7614 2.09409 -3.70173 0
M  V30 987 N 96.0765 1.50051 0.48192 0
M  V30 988 C 97.0245 1.68635 1.60203 0
M  V30 989 C 98.0185 0.552184 1.60148 0
M  V30 990 O 99.2245 0.732377 1.64427 0
M  V30 991 H 95.5995 0.532081 0.531407 0
M  V30 992 H 97.5705 2.62616 1.41688 0
M  V30 993 C 96.3195 1.78775 2.9822 0
M  V30 994 H 95.6425 2.6543 2.98976 0
M  V30 995 H 97.0825 1.95806 3.7608 0
M  V30 996 C 95.5415 0.536849 3.32595 0
M  V30 997 O 96.0715 -0.328897 4.00351 0
M  V30 998 N 94.2775 0.394091 2.87915 0
M  V30 999 H 93.8245 1.09962 2.32951 0
M  V30 1000 H 93.7825 -0.441737 3.11281 0
M  V30 1001 N 97.5546 -0.734337 1.39446 0
M  V30 1002 C 98.4646 -1.87879 1.40495 0
M  V30 1003 C 99.4806 -1.714 0.299672 0
M  V30 1004 O 100.657 -1.93991 0.541249 0
M  V30 1005 C 97.7216 -3.23477 1.24754 0
M  V30 1006 C 96.7826 -3.52344 2.45259 0
M  V30 1007 C 96.0156 -4.81473 2.30259 0
M  V30 1008 O 96.2386 -5.55237 1.30643 0
M  V30 1009 O 95.1726 -5.10254 3.19256 0
M  V30 1010 H 98.9986 -1.89949 2.36966 0
M  V30 1011 H 96.5836 -0.882243 1.20569 0
M  V30 1012 H 98.4656 -4.04509 1.18111 0
M  V30 1013 H 97.1406 -3.22176 0.313781 0
M  V30 1014 H 96.0476 -2.71396 2.57478 0
M  V30 1015 H 97.3806 -3.58426 3.37331 0
M  V30 1016 N 99.0327 -1.24633 -0.964593 0
M  V30 1017 C 100.263 -1.11339 -1.74032 0
M  V30 1018 C 100.671 0.336593 -1.86182 0
M  V30 1019 O 100.014 1.24389 -1.35178 0
M  V30 1020 C 100.076 -1.68284 -3.1768 0
M  V30 1021 C 99.7397 -3.17196 -3.28992 0
M  V30 1022 C 100.737 -4.14308 -3.14078 0
M  V30 1023 C 98.4217 -3.57215 -3.53133 0
M  V30 1024 C 100.416 -5.4942 -3.23135 0
M  V30 1025 C 98.1027 -4.92468 -3.61827 0
M  V30 1026 C 99.1007 -5.8838 -3.46841 0
M  V30 1027 O 98.7887 -7.21173 -3.55197 0
M  V30 1028 H 98.5207 -0.389551 -0.552472 0
M  V30 1029 H 101.075 -1.65282 -1.21946 0
M  V30 1030 H 99.3047 -1.08777 -3.71085 0
M  V30 1031 H 100.994 -1.50234 -3.77074 0
M  V30 1032 H 101.76 -3.84731 -2.95308 0
M  V30 1033 H 97.6387 -2.83063 -3.63863 0
M  V30 1034 H 101.183 -6.24263 -3.11355 0
M  V30 1035 H 97.0797 -5.21714 -3.80111 0
M  V30 1036 H 97.8477 -7.29135 -3.71892 0
M  V30 1037 N 100.511 1.16574 -1.06058 0
M  V30 1038 C 101.757 1.87324 -0.777022 0
M  V30 1039 C 102.09 1.81351 0.694645 0
M  V30 1040 O 101.365 1.22753 1.50871 0
M  V30 1041 C 101.648 3.36991 -1.26922 0
M  V30 1042 C 101.501 3.51667 -2.80447 0
M  V30 1043 C 102.82 4.3131 -0.87521 0
M  V30 1044 H 99.9388 0.680191 -0.28374 0
M  V30 1045 H 102.581 1.37036 -1.3161 0
M  V30 1046 H 100.731 3.79949 -0.81063 0
M  V30 1047 H 102.403 3.17664 -3.34495 0
M  V30 1048 H 100.646 2.93656 -3.19294 0
M  V30 1049 H 101.317 4.56766 -3.0995 0
M  V30 1050 H 103.793 3.9624 -1.27014 0
M  V30 1051 H 102.669 5.34545 -1.2471 0
M  V30 1052 H 102.93 4.41552 0.220071 0
M  V30 1053 N 101.989 0.842826 1.3317 0
M  V30 1054 C 102.952 0.284065 2.27433 0
M  V30 1055 C 103.952 -0.54948 1.5112 0
M  V30 1056 O 105.142 -0.362699 1.70382 0
M  V30 1057 C 102.274 -0.599384 3.35589 0
M  V30 1058 H 103.467 1.11589 2.78366 0
M  V30 1059 H 101.02 0.616221 1.4364 0
M  V30 1060 H 101.755 -1.45349 2.89904 0
M  V30 1061 H 101.54 -0.00291266 3.921 0
M  V30 1062 H 103.03 -0.983488 4.05854 0
M  V30 1063 N 103.467 -1.45747 0.599634 0
M  V30 1064 C 104.716 -2.01502 0.0893511 0
M  V30 1065 C 105.029 -1.4748 -1.28488 0
M  V30 1066 O 106.235 -1.95161 -1.88745 0
M  V30 1067 C 104.691 -3.59735 0.109082 0
M  V30 1068 C 104.299 -4.22754 1.48267 0
M  V30 1069 C 106.043 -4.23085 -0.346374 0
M  V30 1070 C 103.95 -5.73115 1.45921 0
M  V30 1071 H 102.88 -0.753417 0.0296347 0
M  V30 1072 H 105.531 -1.67303 0.753788 0
M  V30 1073 H 103.913 -3.91087 -0.621854 0
M  V30 1074 H 105.087 -4.02987 2.23468 0
M  V30 1075 H 103.402 -3.71567 1.87955 0
M  V30 1076 H 105.999 -5.33327 -0.38298 0
M  V30 1077 H 106.342 -3.93201 -1.36743 0
M  V30 1078 H 106.875 -3.9642 0.331038 0
M  V30 1079 H 103.614 -6.07685 2.45762 0
M  V30 1080 H 103.134 -5.95097 0.749665 0
M  V30 1081 H 104.813 -6.3616 1.17941 0
M  V30 1082 N 104.945 -0.338344 -1.53925 0
M  V30 1083 C 105.892 0.520845 -2.24846 0
M  V30 1084 C 106.862 1.09976 -1.24477 0
M  V30 1085 O 108.047 1.13735 -1.53196 0
M  V30 1086 C 105.187 1.6685 -3.02084 0
M  V30 1087 C 104.3 1.11739 -4.17299 0
M  V30 1088 C 103.435 2.23193 -4.82036 0
M  V30 1089 C 102.474 1.65407 -5.89328 0
M  V30 1090 N 101.611 2.70582 -6.47866 0
M  V30 1091 H 106.451 -0.0904881 -2.97863 0
M  V30 1092 H 103.988 -0.0564282 -1.46992 0
M  V30 1093 H 105.946 2.34407 -3.45122 0
M  V30 1094 H 104.576 2.2509 -2.31375 0
M  V30 1095 H 103.628 0.332919 -3.7894 0
M  V30 1096 H 104.94 0.654677 -4.94485 0
M  V30 1097 H 104.094 2.98626 -5.28117 0
M  V30 1098 H 102.833 2.72807 -4.04262 0
M  V30 1099 H 101.838 0.884779 -5.42634 0
M  V30 1100 H 103.063 1.16652 -6.69006 0
M  V30 1101 H 101.009 3.1946 -5.72959 0
M  V30 1102 H 100.926 2.28917 -7.20509 0
M  V30 1103 H 102.194 3.45799 -6.98601 0
M  V30 1104 N 106.423 1.57458 -0.0668435 0
M  V30 1105 C 107.353 2.15468 0.899764 0
M  V30 1106 C 108.334 1.08042 1.31381 0
M  V30 1107 O 109.519 1.36054 1.38574 0
M  V30 1108 C 106.649 2.71232 2.16911 0
M  V30 1109 C 105.603 3.83781 1.89463 0
M  V30 1110 C 104.929 4.26127 3.22986 0
M  V30 1111 C 106.229 5.08238 1.20381 0
M  V30 1112 H 107.923 2.96488 0.416529 0
M  V30 1113 H 105.469 1.4262 0.198908 0
M  V30 1114 H 107.422 3.10458 2.84945 0
M  V30 1115 H 106.146 1.87426 2.67468 0
M  V30 1116 H 104.805 3.45051 1.23836 0
M  V30 1117 H 104.453 3.39249 3.71374 0
M  V30 1118 H 104.153 5.01993 3.05413 0
M  V30 1119 H 105.677 4.67966 3.92225 0
M  V30 1120 H 107.091 5.44811 1.78475 0
M  V30 1121 H 105.488 5.89349 1.13083 0
M  V30 1122 H 106.558 4.84558 0.182153 0
M  V30 1123 N 107.901 -0.206675 1.56239 0
M  V30 1124 C 108.811 -1.27686 1.96808 0
M  V30 1125 C 109.827 -1.50455 0.874035 0
M  V30 1126 O 111.003 -1.63295 1.17884 0
M  V30 1127 C 108.068 -2.60358 2.28942 0
M  V30 1128 C 107.129 -2.45762 3.51994 0
M  V30 1129 C 106.362 -3.72108 3.82585 0
M  V30 1130 O 106.585 -4.75776 3.14631 0
M  V30 1131 O 105.519 -3.6833 4.76043 0
M  V30 1132 H 109.345 -0.962593 2.88041 0
M  V30 1133 H 106.93 -0.410746 1.43643 0
M  V30 1134 H 108.812 -3.38687 2.50737 0
M  V30 1135 H 107.487 -2.91435 1.4088 0
M  V30 1136 H 106.394 -1.65584 3.35459 0
M  V30 1137 H 107.727 -2.19621 4.40486 0
M  V30 1138 N 109.379 -1.50304 -0.473955 0
M  V30 1139 C 110.79 -1.54042 -1.0549 0
M  V30 1140 C 111.141 -0.342248 -1.93192 0
M  V30 1141 O 110.266 0.545157 -2.09421 0
M  V30 1142 C 110.861 -2.79152 -1.91989 0
M  V30 1143 C 109.42 -2.8558 -2.45196 0
M  V30 1144 C 108.567 -2.48295 -1.2347 0
M  V30 1145 H 111.518 -1.5661 -0.256693 0
M  V30 1146 H 111.539 -2.60845 -2.7702 0
M  V30 1147 H 111.051 -3.66339 -1.28131 0
M  V30 1148 H 109.152 -2.02738 -3.12615 0
M  V30 1149 H 109.265 -3.88403 -2.80499 0
M  V30 1150 H 107.629 -2.00669 -1.56856 0
M  V30 1151 H 108.412 -3.37787 -0.612789 0
M  V30 1152 N 110.857 0.726932 -1.39834 0
M  V30 1153 C 111.79 1.8501 -1.33592 0
M  V30 1154 C 112.768 1.61262 -0.208191 0
M  V30 1155 O 113.952 1.84422 -0.389981 0
M  V30 1156 C 111.079 3.21143 -1.07633 0
M  V30 1157 C 110.125 3.63737 -2.22705 0
M  V30 1158 S 110.958 3.72167 -3.85035 0
M  V30 1159 C 112.114 5.11077 -3.61318 0
M  V30 1160 H 112.347 1.90022 -2.28646 0
M  V30 1161 H 109.88 0.892595 -1.25985 0
M  V30 1162 H 111.838 3.99747 -0.933415 0
M  V30 1163 H 110.499 3.13776 -0.142526 0
M  V30 1164 H 109.692 4.62551 -2.00155 0
M  V30 1165 H 109.294 2.9236 -2.33242 0
M  V30 1166 H 111.586 5.97656 -3.19083 0
M  V30 1167 H 112.529 5.38658 -4.59623 0
M  V30 1168 H 112.937 4.81135 -2.95245 0
M  V30 1169 N 112.336 1.25143 0.95797 0
M  V30 1170 C 113.283 1.05235 2.05412 0
M  V30 1171 C 114.253 -0.0374561 1.66058 0
M  V30 1172 O 115.438 0.119073 1.90428 0
M  V30 1173 C 112.578 0.673589 3.38462 0
M  V30 1174 C 111.691 1.8379 3.90954 0
M  V30 1175 C 110.826 1.40381 5.12315 0
M  V30 1176 C 109.865 2.53746 5.57027 0
M  V30 1177 N 109.002 2.11136 6.69601 0
M  V30 1178 H 113.842 1.99048 2.21774 0
M  V30 1179 H 111.379 0.991277 1.08683 0
M  V30 1180 H 113.337 0.434964 4.14926 0
M  V30 1181 H 111.967 -0.227554 3.21997 0
M  V30 1182 H 111.019 2.18992 3.11041 0
M  V30 1183 H 112.331 2.68937 4.20089 0
M  V30 1184 H 111.485 1.12464 5.96185 0
M  V30 1185 H 110.224 0.523015 4.84887 0
M  V30 1186 H 109.229 2.82412 4.71724 0
M  V30 1187 H 110.454 3.42398 5.86464 0
M  V30 1188 H 108.4 1.25468 6.4389 0
M  V30 1189 H 108.317 2.89832 6.98236 0
M  V30 1190 H 109.585 1.86385 7.56889 0
M  V30 1191 N 113.814 -1.1601 1.06675 0
M  V30 1192 C 115.039 -1.91068 0.806706 0
M  V30 1193 C 115.464 -1.77112 -0.633485 0
M  V30 1194 O 114.822 -1.09908 -1.44187 0
M  V30 1195 C 114.87 -3.39655 1.21106 0
M  V30 1196 O 113.974 -4.10893 0.352189 0
M  V30 1197 H 113.315 -0.595125 0.294486 0
M  V30 1198 H 115.845 -1.46955 1.42356 0
M  V30 1199 H 115.855 -3.90434 1.18428 0
M  V30 1200 H 114.53 -3.49132 2.26008 0
M  V30 1201 H 113.107 -3.70285 0.440868 0
M  V30 1202 N 115.292 -0.849877 -1.32721 0
M  V30 1203 C 116.708 -0.539102 -1.50219 0
M  V30 1204 C 116.908 0.931271 -1.78689 0
M  V30 1205 O 115.964 1.71455 -1.85363 0
M  V30 1206 C 117.277 -1.42196 -2.64954 0
M  V30 1207 C 118.825 -1.42189 -2.78839 0
M  V30 1208 C 119.3 -2.28985 -3.96648 0
M  V30 1209 N 120.791 -2.26754 -4.03902 0
M  V30 1210 C 121.526 -2.90644 -4.94281 0
M  V30 1211 N 121.022 -3.63629 -5.897 0
M  V30 1212 N 122.815 -2.80057 -4.87365 0
M  V30 1213 H 114.966 -1.80156 -1.12506 0
M  V30 1214 H 117.229 -0.769217 -0.554085 0
M  V30 1215 H 116.935 -2.46733 -2.50631 0
M  V30 1216 H 116.809 -1.10591 -3.60624 0
M  V30 1217 H 119.196 -0.38419 -2.92588 0
M  V30 1218 H 119.277 -1.77807 -1.83898 0
M  V30 1219 H 118.921 -3.32819 -3.83658 0
M  V30 1220 H 118.851 -1.90702 -4.90857 0
M  V30 1221 H 121.342 -1.73688 -3.3562 0
M  V30 1222 H 121.655 -4.09558 -6.55349 0
M  V30 1223 H 120 -3.67737 -5.89741 0
M  V30 1224 H 123.191 -2.22593 -4.11789 0
M  V30 1225 H 123.364 -3.30132 -5.57599 0
M  V30 1226 N 116.77 1.45427 -0.607355 0
M  V30 1227 C 117.733 2.28974 0.101693 0
M  V30 1228 C 118.733 1.39754 0.795329 0
M  V30 1229 O 119.923 1.61878 0.643527 0
M  V30 1230 C 117.055 3.20768 1.15414 0
M  V30 1231 H 118.248 2.93147 -0.632844 0
M  V30 1232 H 115.801 1.51945 -0.366391 0
M  V30 1233 H 116.536 2.61395 1.91945 0
M  V30 1234 H 116.321 3.86489 0.66098 0
M  V30 1235 H 117.811 3.83589 1.65073 0
M  V30 1236 N 118.248 0.346503 1.53744 0
M  V30 1237 C 119.659 -0.136779 1.86198 0
M  V30 1238 C 120.01 -1.49749 1.26766 0
M  V30 1239 O 119.135 -2.08417 0.582355 0
M  V30 1240 C 119.73 -0.254966 3.37839 0
M  V30 1241 C 118.289 -0.682482 3.70161 0
M  V30 1242 C 117.436 0.181981 2.76702 0
M  V30 1243 H 120.387 0.565994 1.48264 0
M  V30 1244 H 120.408 -1.08195 3.64793 0
M  V30 1245 H 119.92 0.735526 3.81066 0
M  V30 1246 H 118.021 -1.68189 3.3248 0
M  V30 1247 H 118.134 -0.470326 4.76786 0
M  V30 1248 H 116.498 -0.34615 2.52337 0
M  V30 1249 H 117.281 1.16966 3.2276 0
M  V30 1250 N 119.726 -1.57421 0.075193 0
M  V30 1251 C 120.658 -2.09904 -0.920483 0
M  V30 1252 C 121.671 -1.03191 -1.25918 0
M  V30 1253 O 122.86 -1.30695 -1.21577 0
M  V30 1254 C 119.96 -2.54726 -2.23534 0
M  V30 1255 C 119.133 -3.8505 -2.07498 0
M  V30 1256 C 118.192 -4.15929 -3.22319 0
M  V30 1257 O 117.218 -4.85474 -2.9716 0
M  V30 1258 N 118.42 -3.69745 -4.47514 0
M  V30 1259 H 121.185 -2.95954 -0.472359 0
M  V30 1260 H 118.746 -1.61523 -0.110444 0
M  V30 1261 H 120.738 -2.72443 -2.9926 0
M  V30 1262 H 119.308 -1.73795 -2.59835 0
M  V30 1263 H 118.528 -3.76679 -1.16219 0
M  V30 1264 H 119.816 -4.70348 -1.94038 0
M  V30 1265 H 119.214 -3.13569 -4.7084 0
M  V30 1266 H 117.771 -3.92655 -5.20255 0
M  V30 1267 N 121.204 0.198386 -1.56346 0
M  V30 1268 C 122.134 1.24865 -1.9731 0
M  V30 1269 C 123.115 1.47651 -0.844576 0
M  V30 1270 O 124.3 1.59444 -1.10866 0
M  V30 1271 C 121.43 2.59358 -2.30977 0
M  V30 1272 C 120.384 2.5119 -3.46537 0
M  V30 1273 C 119.71 3.89926 -3.65871 0
M  V30 1274 C 121.01 2.03977 -4.80823 0
M  V30 1275 H 122.704 0.908252 -2.85291 0
M  V30 1276 H 120.25 0.435462 -1.37258 0
M  V30 1277 H 122.203 3.33011 -2.58228 0
M  V30 1278 H 120.927 2.95132 -1.39874 0
M  V30 1279 H 119.586 1.79993 -3.19371 0
M  V30 1280 H 119.234 4.23046 -2.72105 0
M  V30 1281 H 118.934 3.85336 -4.4361 0
M  V30 1282 H 120.458 4.65205 -3.95495 0
M  V30 1283 H 121.872 2.67386 -5.07127 0
M  V30 1284 H 120.269 2.10397 -5.62008 0
M  V30 1285 H 121.339 0.992861 -4.74626 0
M  V30 1286 N 122.682 1.50554 0.465978 0
M  V30 1287 C 123.632 1.66177 1.56106 0
M  V30 1288 C 124.616 0.516265 1.52393 0
M  V30 1289 O 125.808 0.770906 1.5933 0
M  V30 1290 C 122.937 1.76396 2.94515 0
M  V30 1291 C 122.023 2.9664 3.03093 0
M  V30 1292 N 122.414 4.20245 2.81474 0
M  V30 1293 C 120.712 2.95304 3.34233 0
M  V30 1294 C 121.413 5.01259 2.95151 0
M  V30 1295 N 120.389 4.35318 3.25576 0
M  V30 1296 H 124.191 2.59434 1.38099 0
M  V30 1297 H 121.705 1.47808 0.6728 0
M  V30 1298 H 123.702 1.85694 3.73261 0
M  V30 1299 H 122.362 0.843017 3.13565 0
M  V30 1300 H 123.373 4.4966 2.56956 0
M  V30 1301 H 120.05 2.12729 3.59239 0
M  V30 1302 H 121.44 6.09564 2.82632 0
M  V30 1303 N 124.16 -0.719506 1.40217 0
M  V30 1304 C 125.09 -1.8465 1.42922 0
M  V30 1305 C 126.071 -1.67599 0.29062 0
M  V30 1306 O 127.256 -1.87688 0.498677 0
M  V30 1307 C 124.386 -3.22565 1.28722 0
M  V30 1308 C 123.34 -3.54281 2.40144 0
M  V30 1309 C 122.666 -4.91298 2.11023 0
M  V30 1310 C 123.966 -3.55676 3.82481 0
M  V30 1311 H 125.66 -1.82644 2.37237 0
M  V30 1312 H 123.206 -0.877305 1.1419 0
M  V30 1313 H 125.159 -4.01095 1.29232 0
M  V30 1314 H 123.883 -3.25137 0.308811 0
M  V30 1315 H 122.542 -2.78088 2.38877 0
M  V30 1316 H 122.19 -4.90468 1.11582 0
M  V30 1317 H 121.89 -5.13485 2.8567 0
M  V30 1318 H 123.414 -5.72166 2.13209 0
M  V30 1319 H 124.828 -4.24254 3.85592 0
M  V30 1320 H 123.225 -3.89388 4.56614 0
M  V30 1321 H 124.295 -2.55144 4.12346 0
M  V30 1322 N 125.638 -1.25649 -0.95132 0
M  V30 1323 C 126.548 -1.08073 -2.08224 0
M  V30 1324 C 127.564 -0.0169666 -1.73992 0
M  V30 1325 O 128.74 -0.218593 -2.0021 0
M  V30 1326 C 125.805 -0.704922 -3.39458 0
M  V30 1327 C 124.866 -1.84699 -3.87537 0
M  V30 1328 C 124.099 -1.48902 -5.12508 0
M  V30 1329 O 124.322 -0.386156 -5.69091 0
M  V30 1330 O 123.256 -2.32033 -5.55378 0
M  V30 1331 H 127.082 -2.02924 -2.25954 0
M  V30 1332 H 124.667 -1.04618 -1.06656 0
M  V30 1333 H 126.549 -0.507609 -4.18332 0
M  V30 1334 H 125.224 0.214291 -3.2299 0
M  V30 1335 H 124.131 -2.09919 -3.09653 0
M  V30 1336 H 125.464 -2.74557 -4.08509 0
M  V30 1337 N 127.117 1.15442 -1.07289 0
M  V30 1338 C 128.347 1.89821 -0.815576 0
M  V30 1339 C 128.755 1.7823 0.634867 0
M  V30 1340 O 128.098 1.13152 1.44715 0
M  V30 1341 C 128.16 3.40817 -1.14385 0
M  V30 1342 C 127.824 3.76193 -2.59476 0
M  V30 1343 C 128.821 3.77269 -3.57721 0
M  V30 1344 C 126.506 4.0652 -2.95037 0
M  V30 1345 C 128.5 4.08176 -4.89562 0
M  V30 1346 C 126.187 4.37092 -4.27076 0
M  V30 1347 C 127.185 4.37902 -5.24148 0
M  V30 1348 O 126.873 4.67741 -6.53815 0
M  V30 1349 H 126.605 0.608465 -0.294528 0
M  V30 1350 H 129.159 1.472 -1.43252 0
M  V30 1351 H 127.389 3.83835 -0.469865 0
M  V30 1352 H 129.078 3.96485 -0.869179 0
M  V30 1353 H 129.844 3.5394 -3.3159 0
M  V30 1354 H 125.723 4.05049 -2.20128 0
M  V30 1355 H 129.267 4.08723 -5.65324 0
M  V30 1356 H 125.164 4.59889 -4.5296 0
M  V30 1357 H 125.932 4.85509 -6.58957 0
M  V30 1358 N 128.595 0.856903 1.32268 0
M  V30 1359 C 130.011 0.547061 1.49931 0
M  V30 1360 C 130.211 -0.921781 1.7918 0
M  V30 1361 O 129.267 -1.70469 1.8627 0
M  V30 1362 C 130.58 1.43599 2.64196 0
M  V30 1363 C 132.128 1.43665 2.78081 0
M  V30 1364 C 132.603 2.31085 3.95428 0
M  V30 1365 N 134.094 2.28893 4.02694 0
M  V30 1366 C 134.829 2.93262 4.92732 0
M  V30 1367 N 134.325 3.66751 5.87763 0
M  V30 1368 N 136.118 2.82638 4.85873 0
M  V30 1369 H 128.269 1.8075 1.11549 0
M  V30 1370 H 130.532 0.772144 0.549997 0
M  V30 1371 H 130.238 2.48058 2.49319 0
M  V30 1372 H 130.112 1.12502 3.60032 0
M  V30 1373 H 132.499 0.399701 2.92381 0
M  V30 1374 H 132.58 1.7878 1.82952 0
M  V30 1375 H 132.224 3.34849 3.81888 0
M  V30 1376 H 132.154 1.93302 4.89839 0
M  V30 1377 H 134.645 1.75466 3.34694 0
M  V30 1378 H 134.958 4.13027 6.53168 0
M  V30 1379 H 133.303 3.70859 5.87783 0
M  V30 1380 H 136.494 2.24774 4.10602 0
M  V30 1381 H 136.667 3.33084 5.55841 0
M  V30 1382 N 130.073 -1.45103 0.615059 0
M  V30 1383 C 131.32 -2.02183 0.113179 0
M  V30 1384 C 131.648 -1.48249 -1.25906 0
M  V30 1385 O 130.903 -0.650265 -1.84581 0
M  V30 1386 C 131.202 -3.57386 0.0318797 0
M  V30 1387 C 130.868 -4.30505 1.34077 0
M  V30 1388 C 129.53 -4.50197 1.69929 0
M  V30 1389 C 131.882 -4.72238 2.20546 0
M  V30 1390 C 129.21 -5.08881 2.91988 0
M  V30 1391 C 131.562 -5.32272 3.41861 0
M  V30 1392 C 130.226 -5.50187 3.77956 0
M  V30 1393 H 129.496 -0.739842 0.0414151 0
M  V30 1394 H 132.143 -1.74073 0.798168 0
M  V30 1395 H 130.448 -3.84817 -0.736409 0
M  V30 1396 H 132.145 -3.99264 -0.372712 0
M  V30 1397 H 128.735 -4.15496 1.05173 0
M  V30 1398 H 132.919 -4.56751 1.94146 0
M  V30 1399 H 128.175 -5.20939 3.2005 0
M  V30 1400 H 132.349 -5.63563 4.09109 0
M  V30 1401 H 129.976 -5.95427 4.72622 0
M  V30 1402 N 131.551 -0.354651 -1.53558 0
M  V30 1403 C 132.781 0.239167 -2.05211 0
M  V30 1404 C 133.189 1.43879 -1.22863 0
M  V30 1405 O 132.532 1.81857 -0.259565 0
M  V30 1406 C 132.594 0.707251 -3.52474 0
M  V30 1407 C 132.258 -0.374212 -4.55465 0
M  V30 1408 C 133.255 -1.22054 -5.0537 0
M  V30 1409 C 130.94 -0.531323 -4.99482 0
M  V30 1410 C 132.934 -2.20942 -5.97882 0
M  V30 1411 C 130.621 -1.52358 -5.91802 0
M  V30 1412 C 131.619 -2.36108 -6.40892 0
M  V30 1413 O 131.307 -3.33643 -7.31394 0
M  V30 1414 H 131.039 0.0479716 -0.674296 0
M  V30 1415 H 133.593 -0.508121 -1.99016 0
M  V30 1416 H 131.823 1.50596 -3.56171 0
M  V30 1417 H 133.512 1.22285 -3.87042 0
M  V30 1418 H 134.278 -1.1103 -4.7212 0
M  V30 1419 H 130.157 0.110738 -4.60867 0
M  V30 1420 H 133.701 -2.86348 -6.36121 0
M  V30 1421 H 129.598 -1.63434 -6.24467 0
M  V30 1422 H 130.366 -3.29244 -7.4936 0
M  V30 1423 N 133.029 1.57378 -0.0835403 0
M  V30 1424 C 133.976 2.13384 0.879539 0
M  V30 1425 C 134.946 1.04936 1.28754 0
M  V30 1426 O 136.131 1.32662 1.37133 0
M  V30 1427 C 133.271 2.70932 2.13752 0
M  V30 1428 C 132.384 3.93575 1.7811 0
M  V30 1429 C 131.519 4.39326 2.98607 0
M  V30 1430 C 130.558 5.54587 2.59037 0
M  V30 1431 N 129.695 5.95243 3.72331 0
M  V30 1432 H 134.535 2.9537 0.395076 0
M  V30 1433 H 132.072 1.45953 0.183349 0
M  V30 1434 H 134.03 3.02411 2.87408 0
M  V30 1435 H 132.66 1.91693 2.59718 0
M  V30 1436 H 131.712 3.68483 0.94469 0
M  V30 1437 H 133.024 4.77258 1.45005 0
M  V30 1438 H 132.178 4.72528 3.80529 0
M  V30 1439 H 130.917 3.5452 3.34913 0
M  V30 1440 H 129.922 5.21024 1.75539 0
M  V30 1441 H 131.147 6.41133 2.23887 0
M  V30 1442 H 129.093 5.13385 4.08378 0
M  V30 1443 H 129.01 6.73694 3.43034 0
M  V30 1444 H 130.278 6.33072 4.54797 0
M  V30 1445 N 134.507 -0.190092 1.56449 0
M  V30 1446 C 135.439 -1.25973 1.91477 0
M  V30 1447 C 136.452 -1.41452 0.805931 0
M  V30 1448 O 137.641 -1.41789 1.08435 0
M  V30 1449 C 134.741 -2.63117 2.13594 0
M  V30 1450 C 133.914 -2.69182 3.4476 0
M  V30 1451 C 132.973 -3.87557 3.5593 0
M  V30 1452 O 131.999 -3.74427 4.28711 0
M  V30 1453 N 133.201 -5.03224 2.89388 0
M  V30 1454 H 135.966 -0.962394 2.83828 0
M  V30 1455 H 133.527 -0.379981 1.57378 0
M  V30 1456 H 135.519 -3.40742 2.1835 0
M  V30 1457 H 134.089 -2.85319 1.27719 0
M  V30 1458 H 133.309 -1.77793 3.51828 0
M  V30 1459 H 134.597 -2.70229 4.31107 0
M  V30 1460 H 133.995 -5.16791 2.30094 0
M  V30 1461 H 132.552 -5.78778 2.99764 0
M  V30 1462 N 135.985 -1.50799 -0.457987 0
M  V30 1463 C 136.915 -1.73553 -1.5621 0
M  V30 1464 C 137.896 -0.584774 -1.59732 0
M  V30 1465 O 139.081 -0.825314 -1.7579 0
M  V30 1466 C 136.211 -1.84169 -2.94447 0
M  V30 1467 C 135.165 -2.99461 -3.0579 0
M  V30 1468 C 134.491 -2.95235 -4.45803 0
M  V30 1469 C 135.791 -4.39766 -2.81786 0
M  V30 1470 H 137.485 -2.66 -1.37421 0
M  V30 1471 H 135.031 -1.28002 -0.659662 0
M  V30 1472 H 136.984 -1.98672 -3.71628 0
M  V30 1473 H 135.708 -0.883545 -3.14422 0
M  V30 1474 H 134.367 -2.8463 -2.31044 0
M  V30 1475 H 134.015 -1.97239 -4.62715 0
M  V30 1476 H 133.715 -3.72642 -4.54326 0
M  V30 1477 H 135.239 -3.11803 -5.24987 0
M  V30 1478 H 136.653 -4.55054 -3.4871 0
M  V30 1479 H 135.05 -5.18722 -3.0174 0
M  V30 1480 H 136.12 -4.51229 -1.7754 0
M  V30 1481 N 137.463 0.71206 -1.40597 0
M  V30 1482 C 138.711 1.46907 -1.38791 0
M  V30 1483 C 139.032 1.94998 0.00780391 0
M  V30 1484 O 138.302 1.70587 0.963174 0
M  V30 1485 H 136.882 0.545043 -0.51082 0
M  V30 1486 H 139.544 0.843882 -1.75683 0
M  V30 1487 H 138.64 2.34021 -2.06496 0
M  V30 1488 N 138.941 1.26152 0.944643 0
M  V30 1489 C 140.166 1.14363 1.7302 0
M  V30 1490 C 140.591 -0.29772 1.85729 0
M  V30 1491 O 139.949 -1.2157 1.34501 0
M  V30 1492 C 139.997 1.81378 3.11664 0
M  V30 1493 O 139.101 1.10022 3.97453 0
M  V30 1494 H 138.442 0.398694 0.53098 0
M  V30 1495 H 140.972 1.66906 1.18337 0
M  V30 1496 H 140.982 1.88064 3.62072 0
M  V30 1497 H 139.657 2.86237 3.0173 0
M  V30 1498 H 138.234 1.11287 3.55907 0
M  V30 1499 N 140.419 -1.14872 1.07899 0
M  V30 1500 C 141.667 -1.85422 0.803941 0
M  V30 1501 C 141.988 -1.83051 -0.67211 0
M  V30 1502 O 141.258 -1.27532 -1.48703 0
M  V30 1503 H 139.838 -0.686537 0.294408 0
M  V30 1504 H 142.5 -1.39226 1.3639 0
M  V30 1505 H 141.596 -2.90399 1.14346 0
M  V30 1506 N 141.898 -0.863906 -1.31812 0
M  V30 1507 C 143.175 -0.39275 -1.91616 0
M  V30 1508 C 143.555 1.12461 -1.7865 0
M  V30 1509 O 142.903 1.95045 -1.19037 0
M  V30 1510 C 143.113 -0.867385 -3.38049 0
M  V30 1511 C 144.461 -0.889966 -4.15168 0
M  V30 1512 O 145.485 -0.812635 -3.46806 0
M  V30 1513 O 144.344 -1.00079 -5.37258 0
M  V30 1514 H 141.438 -0.116358 -0.818773 0
M  V30 1515 H 143.984 -0.951418 -1.40521 0
M  V30 1516 H 142.756 -1.91081 -3.41473 0
M  V30 1517 H 142.379 -0.286687 -3.96565 0
M  V30 1518 N 143.376 1.44774 -0.622745 0
M  V30 1519 C 144.624 2.01721 -0.123655 0
M  V30 1520 C 144.945 1.49172 1.25589 0
M  V30 1521 O 144.215 0.691974 1.83272 0
M  V30 1522 H 142.795 0.745777 -0.0427225 0
M  V30 1523 H 145.457 1.77382 -0.807559 0
M  V30 1524 H 144.553 3.11984 -0.0849534 0
M  V30 1525 N 144.854 0.36279 1.53368 0
M  V30 1526 C 146.103 -0.22888 2.00397 0
M  V30 1527 C 146.416 -1.50096 1.25421 0
M  V30 1528 O 147.622 -2.17106 1.63025 0
M  V30 1529 C 146.078 -0.458417 3.56969 0
M  V30 1530 C 145.686 0.798877 4.4082 0
M  V30 1531 C 147.43 -1.00789 4.12361 0
M  V30 1532 C 145.337 0.539078 5.88938 0
M  V30 1533 H 144.267 -0.089305 0.748693 0
M  V30 1534 H 146.918 0.481099 1.77081 0
M  V30 1535 H 145.3 -1.22959 3.76427 0
M  V30 1536 H 146.474 1.57262 4.33134 0
M  V30 1537 H 144.789 1.27137 3.96516 0
M  V30 1538 H 147.386 -1.21754 5.20653 0
M  V30 1539 H 147.729 -1.9692 3.66781 0
M  V30 1540 H 148.262 -0.296961 3.9669 0
M  V30 1541 H 145.001 1.47064 6.3879 0
M  V30 1542 H 144.521 -0.196222 5.99479 0
M  V30 1543 H 146.2 0.163542 6.46793 0
M  V30 1544 N 146.332 -1.57332 0.0918853 0
M  V30 1545 C 147.743 -1.81496 -0.437739 0
M  V30 1546 C 148.094 -1.00727 -1.6837 0
M  V30 1547 O 147.219 -0.235694 -2.15113 0
M  V30 1548 C 147.814 -3.29197 -0.800939 0
M  V30 1549 C 146.373 -3.54136 -1.27532 0
M  V30 1550 C 145.52 -2.75979 -0.270392 0
M  V30 1551 H 148.471 -1.55494 0.317366 0
M  V30 1552 H 148.492 -3.42344 -1.66074 0
M  V30 1553 H 148.004 -3.87955 0.106078 0
M  V30 1554 H 146.105 -3.00705 -2.20016 0
M  V30 1555 H 146.218 -4.62792 -1.23938 0
M  V30 1556 H 144.582 -2.43349 -0.751872 0
M  V30 1557 H 145.365 -3.37484 0.629248 0
M  V30 1558 N 147.81 0.181792 -1.56548 0
M  V30 1559 C 148.742 1.24956 -1.92142 0
M  V30 1560 C 149.755 1.41022 -0.813422 0
M  V30 1561 O 150.944 1.41212 -1.09186 0
M  V30 1562 C 148.044 2.61981 -2.14987 0
M  V30 1563 C 147.217 2.6735 -3.46183 0
M  V30 1564 C 146.276 3.85664 -3.5798 0
M  V30 1565 O 145.302 3.72148 -4.30691 0
M  V30 1566 N 146.504 5.01683 -2.92053 0
M  V30 1567 H 149.269 0.947329 -2.84334 0
M  V30 1568 H 146.83 0.371629 -1.57577 0
M  V30 1569 H 148.822 3.3958 -2.20154 0
M  V30 1570 H 147.392 2.84637 -1.2923 0
M  V30 1571 H 146.612 1.75925 -3.52766 0
M  V30 1572 H 147.9 2.67939 -4.32534 0
M  V30 1573 H 147.298 5.15564 -2.32832 0
M  V30 1574 H 145.855 5.77181 -3.0283 0
M  V30 1575 N 149.288 1.51039 0.449983 0
M  V30 1576 C 150.534 1.63322 1.20223 0
M  V30 1577 C 150.867 0.34241 1.91158 0
M  V30 1578 O 150.142 -0.657344 1.83055 0
M  V30 1579 C 150.425 2.82801 2.22925 0
M  V30 1580 C 150.278 4.21823 1.56157 0
M  V30 1581 C 151.597 2.97807 3.24035 0
M  V30 1582 H 148.716 0.594407 0.435718 0
M  V30 1583 H 151.358 1.83489 0.493136 0
M  V30 1584 H 149.508 2.65738 2.834 0
M  V30 1585 H 151.18 4.50526 0.991162 0
M  V30 1586 H 149.423 4.25105 0.864172 0
M  V30 1587 H 150.094 5.01391 2.30891 0
M  V30 1588 H 152.57 3.13497 2.73603 0
M  V30 1589 H 151.446 3.82992 3.93202 0
M  V30 1590 H 151.707 2.09328 3.89402 0
M  V30 1591 N 150.766 -0.704594 1.40972 0
M  V30 1592 C 151.996 -1.49138 1.42974 0
M  V30 1593 C 152.404 -1.89175 0.0308406 0
M  V30 1594 O 151.747 -1.56734 -0.958138 0
M  V30 1595 C 151.809 -2.79016 2.26694 0
M  V30 1596 C 151.473 -2.61236 3.74973 0
M  V30 1597 C 152.47 -2.27773 4.67349 0
M  V30 1598 C 150.155 -2.77158 4.18914 0
M  V30 1599 C 152.149 -2.10457 6.01653 0
M  V30 1600 C 149.836 -2.59459 5.53285 0
M  V30 1601 C 150.834 -2.26158 6.4447 0
M  V30 1602 O 150.522 -2.08605 7.76363 0
M  V30 1603 H 150.254 -0.466443 0.489292 0
M  V30 1604 H 152.808 -0.8758 1.85793 0
M  V30 1605 H 151.038 -3.42947 1.78673 0
M  V30 1606 H 152.727 -3.40782 2.20504 0
M  V30 1607 H 153.493 -2.15095 4.34694 0
M  V30 1608 H 149.372 -3.02064 3.48251 0
M  V30 1609 H 152.916 -1.84387 6.72791 0
M  V30 1610 H 148.813 -2.71725 5.85522 0
M  V30 1611 H 149.581 -2.23439 7.87412 0
M  V30 1612 N 152.244 -1.26651 -0.937939 0
M  V30 1613 C 153.474 -1.15006 -1.71631 0
M  V30 1614 C 153.882 0.297026 -1.86854 0
M  V30 1615 O 153.225 1.21493 -1.37786 0
M  V30 1616 C 153.287 -1.74984 -3.14039 0
M  V30 1617 C 152.951 -3.24103 -3.2219 0
M  V30 1618 C 153.948 -4.20877 -3.05219 0
M  V30 1619 C 151.633 -3.64625 -3.45476 0
M  V30 1620 C 153.627 -5.56151 -3.11408 0
M  V30 1621 C 151.314 -5.00032 -3.513 0
M  V30 1622 C 152.312 -5.95604 -3.34282 0
M  V30 1623 O 152 -7.28545 -3.3982 0
M  V30 1624 H 151.732 -0.401183 -0.544085 0
M  V30 1625 H 154.286 -1.67832 -1.18413 0
M  V30 1626 H 152.516 -1.16624 -3.68695 0
M  V30 1627 H 154.205 -1.58199 -3.73802 0
M  V30 1628 H 154.971 -3.90908 -2.87081 0
M  V30 1629 H 150.85 -2.90718 -3.57777 0
M  V30 1630 H 154.394 -6.30727 -2.98043 0
M  V30 1631 H 150.291 -5.29659 -3.68959 0
M  V30 1632 H 151.059 -7.3686 -3.56343 0
M  V30 1633 N 153.722 1.14298 -1.08507 0
M  V30 1634 C 154.969 1.85359 -0.815373 0
M  V30 1635 C 155.297 1.83001 0.658865 0
M  V30 1636 O 154.552 1.25655 1.50031 0
M  V30 1637 C 154.851 3.33547 -1.28379 0
M  V30 1638 C 154.517 3.56093 -2.76602 0
M  V30 1639 C 153.179 3.61955 -3.17084 0
M  V30 1640 C 155.531 3.64834 -3.72217 0
M  V30 1641 C 152.859 3.74082 -4.51973 0
M  V30 1642 C 155.211 3.78487 -5.06883 0
M  V30 1643 C 153.875 3.82598 -5.46969 0
M  V30 1644 H 153.145 0.678276 -0.298366 0
M  V30 1645 H 155.792 1.35002 -1.35819 0
M  V30 1646 H 154.097 3.86191 -0.660593 0
M  V30 1647 H 155.794 3.86959 -1.05186 0
M  V30 1648 H 152.384 3.52179 -2.4427 0
M  V30 1649 H 156.568 3.59595 -3.42061 0
M  V30 1650 H 151.824 3.75527 -4.82483 0
M  V30 1651 H 155.998 3.84193 -5.80834 0
M  V30 1652 H 153.625 3.91747 -6.51489 0
M  V30 1653 N 155.201 0.870884 1.31352 0
M  V30 1654 C 156.449 0.48132 1.96285 0
M  V30 1655 C 156.77 -0.969813 1.69173 0
M  V30 1656 O 156.04 -1.67998 1.00764 0
M  V30 1657 H 154.62 0.175002 0.726212 0
M  V30 1658 H 157.282 1.11087 1.60143 0
M  V30 1659 H 156.378 0.639825 3.05471 0
M  V30 1660 N 156.679 -1.44442 0.630414 0
M  V30 1661 C 158.09 -1.85434 0.217063 0
M  V30 1662 C 158.441 -1.52748 -1.23136 0
M  V30 1663 O 157.566 -0.965205 -1.93682 0
M  V30 1664 C 158.161 -3.36581 0.387168 0
M  V30 1665 C 156.72 -3.76389 0.0283297 0
M  V30 1666 C 155.867 -2.68296 0.700889 0
M  V30 1667 H 158.818 -1.34919 0.83562 0
M  V30 1668 H 158.839 -3.78657 -0.374086 0
M  V30 1669 H 158.351 -3.60339 1.44144 0
M  V30 1670 H 156.452 -3.58246 -1.02423 0
M  V30 1671 H 156.565 -4.77095 0.437892 0
M  V30 1672 H 154.929 -2.54335 0.136267 0
M  V30 1673 H 155.712 -2.94887 1.75774 0
M  V30 1674 N 158.157 -0.370918 -1.53173 0
M  V30 1675 C 159.397 0.217106 -2.03244 0
M  V30 1676 C 159.761 1.45558 -1.25207 0
M  V30 1677 O 160.962 2.11957 -1.65311 0
M  V30 1678 C 159.233 0.496664 -3.53932 0
M  V30 1679 S 160.792 1.0576 -4.25864 0
M  V30 1680 H 157.61 0.0627827 -0.708223 0
M  V30 1681 H 160.212 -0.515019 -1.88594 0
M  V30 1682 H 158.916 -0.412096 -4.08326 0
M  V30 1683 H 158.447 1.25772 -3.72753 0
M  V30 1684 H 160.462 2.34145 -4.37482 0
M  V30 1685 N 159.635 1.57281 -0.100228 0
M  V30 1686 C 160.883 1.94153 0.561157 0
M  V30 1687 C 161.204 0.983157 1.68401 0
M  V30 1688 O 160.474 0.0361132 1.95867 0
M  V30 1689 H 159.054 0.716791 0.210283 0
M  V30 1690 H 161.716 1.94202 -0.164765 0
M  V30 1691 H 160.812 2.96709 0.968008 0
M  V30 1692 N 161.113 -0.173488 1.56642 0
M  V30 1693 C 162.06 -1.21482 1.96242 0
M  V30 1694 C 163.03 -1.44104 0.826027 0
M  V30 1695 O 164.215 -1.5688 1.08597 0
M  V30 1696 C 161.355 -2.54964 2.32567 0
M  V30 1697 C 160.468 -2.39739 3.59373 0
M  V30 1698 C 159.603 -3.66072 3.84921 0
M  V30 1699 C 158.642 -3.45771 5.05083 0
M  V30 1700 N 157.779 -4.64169 5.26775 0
M  V30 1701 H 162.619 -0.870123 2.85014 0
M  V30 1702 H 160.156 -0.418245 1.41029 0
M  V30 1703 H 162.114 -3.32758 2.5165 0
M  V30 1704 H 160.744 -2.87433 1.46908 0
M  V30 1705 H 159.796 -1.53131 3.48217 0
M  V30 1706 H 161.108 -2.20683 4.47326 0
M  V30 1707 H 160.262 -4.52303 4.0436 0
M  V30 1708 H 159.001 -3.88105 2.9534 0
M  V30 1709 H 158.006 -2.57927 4.85545 0
M  V30 1710 H 159.231 -3.25163 5.96193 0
M  V30 1711 H 157.177 -4.86425 4.40144 0
M  V30 1712 H 157.094 -4.48019 6.08946 0
M  V30 1713 H 158.362 -5.51689 5.5069 0
M  V30 1714 N 162.591 -1.51276 -0.441967 0
M  V30 1715 C 163.821 -1.67273 -1.21257 0
M  V30 1716 C 164.229 -0.367624 -1.85594 0
M  V30 1717 O 163.572 0.663349 -1.71305 0
M  V30 1718 C 163.634 -2.72807 -2.34129 0
M  V30 1719 C 163.298 -4.1554 -1.90198 0
M  V30 1720 C 164.295 -5.00471 -1.40801 0
M  V30 1721 C 161.98 -4.61616 -1.9803 0
M  V30 1722 C 163.974 -6.29536 -0.998174 0
M  V30 1723 C 161.661 -5.90679 -1.56658 0
M  V30 1724 C 162.659 -6.74466 -1.07633 0
M  V30 1725 O 162.347 -8.01116 -0.668459 0
M  V30 1726 H 162.079 -0.564614 -0.371734 0
M  V30 1727 H 164.633 -1.9843 -0.530521 0
M  V30 1728 H 162.863 -2.36954 -3.05597 0
M  V30 1729 H 164.552 -2.77729 -2.96009 0
M  V30 1730 H 165.318 -4.66079 -1.34148 0
M  V30 1731 H 161.197 -3.96526 -2.35135 0
M  V30 1732 H 164.741 -6.94885 -0.61482 0
M  V30 1733 H 160.638 -6.24586 -1.62979 0
M  V30 1734 H 161.406 -8.14633 -0.794722 0
M  V30 1735 N 164.069 0.697108 -1.41344 0
M  V30 1736 C 165.017 1.83237 -1.43272 0
M  V30 1737 C 166.011 1.66522 -0.310947 0
M  V30 1738 O 167.217 1.73402 -0.482899 0
M  V30 1739 H 163.592 0.603802 -0.448249 0
M  V30 1740 H 165.563 1.78727 -2.38954 0
M  V30 1741 C 164.312 3.21245 -1.33029 0
M  V30 1742 H 163.635 3.34723 -2.18633 0
M  V30 1743 H 165.075 4.00763 -1.38439 0
M  V30 1744 C 163.534 3.36873 -0.0424635 0
M  V30 1745 O 164.064 3.91177 0.913421 0
M  V30 1746 N 162.27 2.90581 0.0331145 0
M  V30 1747 H 161.817 2.46577 -0.745506 0
M  V30 1748 H 161.775 3.01416 0.894199 0
M  V30 1749 N 165.547 1.27147 0.931209 0
M  V30 1750 C 166.51 1.09615 2.01289 0
M  V30 1751 C 167.51 0.0412581 1.60747 0
M  V30 1752 O 168.7 0.285545 1.71844 0
M  V30 1753 C 165.832 0.669447 3.34262 0
M  V30 1754 H 167.025 2.05662 2.18273 0
M  V30 1755 H 164.578 1.09885 1.11153 0
M  V30 1756 H 165.313 -0.292572 3.22978 0
M  V30 1757 H 165.098 1.43127 3.65044 0
M  V30 1758 H 166.588 0.568921 4.13706 0
M  V30 1759 N 167.025 -1.13721 1.09112 0
M  V30 1760 C 167.958 -2.18094 0.67158 0
M  V30 1761 C 168.936 -1.59414 -0.320299 0
M  V30 1762 O 170.12 -1.87183 -0.222444 0
M  V30 1763 C 167.247 -3.38698 -0.0111189 0
M  V30 1764 C 166.293 -4.15966 0.942055 0
M  V30 1765 S 167.126 -4.7604 2.45246 0
M  V30 1766 C 168.282 -5.99994 1.78208 0
M  V30 1767 H 168.515 -2.53344 1.55577 0
M  V30 1768 H 166.048 -1.24967 0.906789 0
M  V30 1769 H 168.006 -4.08559 -0.398716 0
M  V30 1770 H 166.667 -3.01756 -0.871905 0
M  V30 1771 H 165.86 -5.02318 0.411396 0
M  V30 1772 H 165.462 -3.51745 1.2709 0
M  V30 1773 H 167.754 -6.68441 1.10424 0
M  V30 1774 H 168.697 -6.57662 2.62463 0
M  V30 1775 H 169.105 -5.50432 1.25238 0
M  V30 1776 N 168.503 -0.877838 -1.30888 0
M  V30 1777 C 169.749 -0.493426 -1.96706 0
M  V30 1778 C 170.082 0.953504 -1.6918 0
M  V30 1779 O 169.357 1.67266 -0.992594 0
M  V30 1780 C 169.64 -0.760429 -3.51979 0
M  V30 1781 C 169.493 -2.25747 -3.89048 0
M  V30 1782 C 170.812 -0.232148 -4.39487 0
M  V30 1783 H 167.931 -0.180746 -0.714493 0
M  V30 1784 H 170.573 -1.10052 -1.54882 0
M  V30 1785 H 168.723 -0.243715 -3.87735 0
M  V30 1786 H 170.395 -2.84204 -3.63354 0
M  V30 1787 H 168.638 -2.72694 -3.37373 0
M  V30 1788 H 169.309 -2.39491 -4.97341 0
M  V30 1789 H 171.785 -0.674314 -4.106 0
M  V30 1790 H 170.661 -0.448355 -5.47066 0
M  V30 1791 H 170.922 0.866297 -4.33529 0
M  V30 1792 N 169.982 1.44106 -0.638065 0
M  V30 1793 C 170.912 2.33448 0.0494287 0
M  V30 1794 C 171.893 1.48606 0.827672 0
M  V30 1795 O 173.078 1.77308 0.792173 0
M  V30 1796 C 170.208 3.31771 1.02691 0
M  V30 1797 C 169.162 4.26485 0.359823 0
M  V30 1798 C 168.488 5.14729 1.44769 0
M  V30 1799 C 169.788 5.17056 -0.738296 0
M  V30 1800 H 171.482 2.91183 -0.696636 0
M  V30 1801 H 169.028 1.40014 -0.336456 0
M  V30 1802 H 170.981 3.93161 1.51666 0
M  V30 1803 H 169.705 2.7226 1.80395 0
M  V30 1804 H 168.364 3.66437 -0.10934 0
M  V30 1805 H 168.012 4.51566 2.21578 0
M  V30 1806 H 167.712 5.78913 1.00668 0
M  V30 1807 H 169.236 5.78991 1.93911 0
M  V30 1808 H 170.65 5.72342 -0.331354 0
M  V30 1809 H 169.047 5.89879 -1.10286 0
M  V30 1810 H 170.117 4.57652 -1.60258 0
M  V30 1811 N 171.46 0.379036 1.52974 0
M  V30 1812 C 172.37 -0.468639 2.29872 0
M  V30 1813 C 173.386 -1.08067 1.36373 0
M  V30 1814 O 174.562 -1.08871 1.69438 0
M  V30 1815 C 171.627 -1.58594 3.083 0
M  V30 1816 C 170.688 -1.00007 4.17489 0
M  V30 1817 C 169.921 -2.06413 4.92168 0
M  V30 1818 O 170.144 -3.27751 4.66835 0
M  V30 1819 O 169.078 -1.68717 5.7777 0
M  V30 1820 H 172.904 0.157508 3.03291 0
M  V30 1821 H 170.489 0.143035 1.48714 0
M  V30 1822 H 172.371 -2.23525 3.57232 0
M  V30 1823 H 171.046 -2.19724 2.37703 0
M  V30 1824 H 169.953 -0.314299 3.72777 0
M  V30 1825 H 171.286 -0.433135 4.90291 0
M  V30 1826 N 172.938 -1.57226 0.108567 0
M  V30 1827 C 173.868 -2.17778 -0.84232 0
M  V30 1828 C 174.849 -1.11487 -1.2847 0
M  V30 1829 O 176.034 -1.39681 -1.34918 0
M  V30 1830 C 173.164 -2.76888 -2.09644 0
M  V30 1831 C 172.118 -3.88669 -1.79221 0
M  V30 1832 C 171.444 -4.34541 -3.11574 0
M  V30 1833 C 172.744 -5.11251 -1.06864 0
M  V30 1834 H 174.438 -2.97489 -0.337774 0
M  V30 1835 H 171.984 -1.43097 -0.161025 0
M  V30 1836 H 173.937 -3.17904 -2.76614 0
M  V30 1837 H 172.661 -1.94451 -2.62405 0
M  V30 1838 H 171.32 -3.48213 -1.14644 0
M  V30 1839 H 170.968 -3.48977 -3.62249 0
M  V30 1840 H 170.668 -5.09914 -2.91996 0
M  V30 1841 H 172.192 -4.782 -3.7968 0
M  V30 1842 H 173.606 -5.49352 -1.63968 0
M  V30 1843 H 172.003 -5.9214 -0.974178 0
M  V30 1844 H 173.073 -4.8487 -0.0536168 0
M  V30 1845 N 174.416 0.165178 -1.56732 0
M  V30 1846 C 175.346 1.20651 -1.99914 0
M  V30 1847 C 176.327 1.45827 -0.875705 0
M  V30 1848 O 177.512 1.57057 -1.14223 0
M  V30 1849 C 174.642 2.54401 -2.36427 0
M  V30 1850 C 173.596 2.43782 -3.51787 0
M  V30 1851 C 172.922 3.82078 -3.7406 0
M  V30 1852 C 174.222 1.93732 -4.85041 0
M  V30 1853 H 175.916 0.847534 -2.87154 0
M  V30 1854 H 173.462 0.40625 -1.38151 0
M  V30 1855 H 175.415 3.27458 -2.65234 0
M  V30 1856 H 174.139 2.92098 -1.46103 0
M  V30 1857 H 172.798 1.73178 -3.23117 0
M  V30 1858 H 172.446 4.17179 -2.81017 0
M  V30 1859 H 172.146 3.7584 -4.51684 0
M  V30 1860 H 173.67 4.56712 -4.05274 0
M  V30 1861 H 175.084 2.56569 -5.12684 0
M  V30 1862 H 173.481 1.98428 -5.66345 0
M  V30 1863 H 174.551 0.891962 -4.76626 0
M  V30 1864 N 175.894 1.51508 0.433938 0
M  V30 1865 C 177.142 1.6402 1.18075 0
M  V30 1866 C 177.463 0.360328 1.91642 0
M  V30 1867 O 176.733 -0.623945 1.85698 0
M  V30 1868 H 175.313 0.6045 0.43885 0
M  V30 1869 H 177.975 1.88452 0.497178 0
M  V30 1870 H 177.071 2.46949 1.90847 0
M  V30 1871 N 177.372 -0.689602 1.41712 0
M  V30 1872 C 178.783 -1.26973 1.36875 0
M  V30 1873 C 179.134 -1.96124 0.054748 0
M  V30 1874 O 178.259 -1.99141 -0.84687 0
M  V30 1875 C 178.854 -2.30912 2.47922 0
M  V30 1876 C 177.413 -2.84486 2.46464 0
M  V30 1877 C 176.56 -1.58603 2.27465 0
M  V30 1878 H 179.511 -0.48396 1.51141 0
M  V30 1879 H 179.532 -3.12331 2.17323 0
M  V30 1880 H 179.044 -1.80554 3.43543 0
M  V30 1881 H 177.145 -3.39005 1.54617 0
M  V30 1882 H 177.258 -3.34511 3.42986 0
M  V30 1883 H 175.622 -1.84632 1.75451 0
M  V30 1884 H 176.405 -1.10233 3.25121 0
M  V30 1885 N 178.85 -1.27639 -0.924453 0
M  V30 1886 C 180.075 -1.17101 -1.71179 0
M  V30 1887 C 180.5 0.268134 -1.86179 0
M  V30 1888 O 179.858 1.19415 -1.36418 0
M  V30 1889 C 179.906 -1.86313 -3.08739 0
M  V30 1890 O 179.01 -1.16331 -3.95652 0
M  V30 1891 H 178.351 -0.407091 -0.524569 0
M  V30 1892 H 180.881 -1.68767 -1.15666 0
M  V30 1893 H 180.891 -1.938 -3.59034 0
M  V30 1894 H 179.566 -2.91001 -2.97138 0
M  V30 1895 H 178.143 -1.16935 -3.54091 0
M  V30 1896 N 180.328 1.1314 -1.09713 0
M  V30 1897 C 181.258 2.20748 -0.761102 0
M  V30 1898 C 182.239 1.68061 0.262566 0
M  V30 1899 O 183.424 1.93765 0.129977 0
M  V30 1900 C 180.554 3.46812 -0.184054 0
M  V30 1901 C 179.508 4.12606 -1.13757 0
M  V30 1902 C 178.834 5.33031 -0.422083 0
M  V30 1903 C 180.134 4.59603 -2.48118 0
M  V30 1904 H 181.828 2.49113 -1.66082 0
M  V30 1905 H 179.374 1.19734 -0.799987 0
M  V30 1906 H 181.327 4.21353 0.0631215 0
M  V30 1907 H 180.051 3.17851 0.750868 0
M  V30 1908 H 178.71 3.40036 -1.37007 0
M  V30 1909 H 178.358 5.00335 0.517072 0
M  V30 1910 H 178.058 5.77999 -1.05788 0
M  V30 1911 H 179.582 6.10325 -0.183277 0
M  V30 1912 H 180.996 5.25552 -2.29059 0
M  V30 1913 H 179.393 5.15321 -3.07514 0
M  V30 1914 H 180.463 3.73971 -3.08665 0
M  V30 1915 N 181.806 0.884767 1.30421 0
M  V30 1916 C 182.716 0.355398 2.31892 0
M  V30 1917 C 183.732 -0.542261 1.65335 0
M  V30 1918 O 184.908 -0.435432 1.96637 0
M  V30 1919 C 181.973 -0.421661 3.44126 0
M  V30 1920 C 181.034 0.505727 4.26311 0
M  V30 1921 C 180.267 -0.234343 5.33185 0
M  V30 1922 O 180.49 -1.46045 5.51386 0
M  V30 1923 O 179.424 0.415443 6.00465 0
M  V30 1924 H 183.25 1.19685 2.79122 0
M  V30 1925 H 180.835 0.648596 1.34587 0
M  V30 1926 H 182.717 -0.861641 4.12497 0
M  V30 1927 H 181.392 -1.23942 2.99032 0
M  V30 1928 H 180.299 0.994513 3.60639 0
M  V30 1929 H 181.632 1.28948 4.75009 0
M  V30 1930 N 183.284 -1.43765 0.645699 0
M  V30 1931 C 184.561 -1.9541 0.0862963 0
M  V30 1932 C 184.941 -1.58725 -1.39175 0
M  V30 1933 O 184.289 -0.868581 -2.11348 0
M  V30 1934 C 184.499 -3.47488 0.324565 0
M  V30 1935 C 185.847 -4.24001 0.225497 0
M  V30 1936 O 186.871 -3.55274 0.256715 0
M  V30 1937 O 185.73 -5.46313 0.142801 0
M  V30 1938 H 182.824 -0.826882 -0.0139483 0
M  V30 1939 H 185.37 -1.53743 0.718415 0
M  V30 1940 H 184.142 -3.67289 1.3496 0
M  V30 1941 H 183.765 -3.96135 -0.340987 0
M  V30 1942 N 184.763 -0.387143 -1.52771 0
M  V30 1943 C 185.693 0.440551 -2.29306 0
M  V30 1944 C 186.674 1.06535 -1.32606 0
M  V30 1945 O 187.859 1.07853 -1.61497 0
M  V30 1946 C 184.989 1.56919 -3.09829 0
M  V30 1947 C 183.943 1.07054 -4.14395 0
M  V30 1948 C 183.269 2.29109 -4.83129 0
M  V30 1949 C 184.569 0.140015 -5.22112 0
M  V30 1950 H 186.263 -0.198026 -2.98744 0
M  V30 1951 H 183.809 -0.09668 -1.43675 0
M  V30 1952 H 185.762 2.15503 -3.62128 0
M  V30 1953 H 184.486 2.23532 -2.3812 0
M  V30 1954 H 183.145 0.507247 -3.63074 0
M  V30 1955 H 182.793 2.94227 -4.0797 0
M  V30 1956 H 182.493 1.96406 -5.53804 0
M  V30 1957 H 184.017 2.88339 -5.38231 0
M  V30 1958 H 185.431 0.633978 -5.69784 0
M  V30 1959 H 183.828 -0.0971485 -6.00021 0
M  V30 1960 H 184.898 -0.811711 -4.78058 0
M  V30 1961 N 186.241 1.57166 -0.116904 0
M  V30 1962 C 187.488 1.95123 0.541603 0
M  V30 1963 C 187.816 1.00006 1.6682 0
M  V30 1964 O 187.071 0.0235658 1.95686 0
M  V30 1965 C 187.37 3.39508 1.11664 0
M  V30 1966 C 187.036 4.50762 0.111606 0
M  V30 1967 C 185.698 4.80918 -0.164758 0
M  V30 1968 C 188.05 5.18036 -0.573438 0
M  V30 1969 C 185.378 5.75666 -1.13249 0
M  V30 1970 C 187.73 6.13824 -1.52978 0
M  V30 1971 C 186.394 6.42374 -1.81415 0
M  V30 1972 H 185.664 0.714005 0.198187 0
M  V30 1973 H 188.311 1.9048 -0.197365 0
M  V30 1974 H 186.616 3.40835 1.93232 0
M  V30 1975 H 188.313 3.66189 1.63422 0
M  V30 1976 H 184.903 4.27272 0.337192 0
M  V30 1977 H 189.087 4.94896 -0.373092 0
M  V30 1978 H 184.343 5.96092 -1.35958 0
M  V30 1979 H 188.517 6.65039 -2.06629 0
M  V30 1980 H 186.144 7.15599 -2.56557 0
M  V30 1981 N 187.719 -0.156864 1.56817 0
M  V30 1982 C 188.996 -0.899244 1.73704 0
M  V30 1983 C 189.376 -1.99771 0.682254 0
M  V30 1984 O 188.724 -2.26515 -0.300522 0
M  V30 1985 C 188.934 -1.45075 3.17418 0
M  V30 1986 C 190.282 -1.91802 3.7881 0
M  V30 1987 O 191.306 -1.54838 3.20786 0
M  V30 1988 O 190.165 -2.5994 4.80722 0
M  V30 1989 H 187.259 -0.424267 0.709878 0
M  V30 1990 H 189.805 -0.143561 1.69092 0
M  V30 1991 H 188.577 -0.660846 3.85679 0
M  V30 1992 H 188.2 -2.27021 3.26416 0
M  V30 1993 N 189.197 -1.51736 -0.425897 0
M  V30 1994 C 190.127 -1.76827 -1.52494 0
M  V30 1995 C 191.108 -0.618524 -1.58456 0
M  V30 1996 O 192.293 -0.862416 -1.74 0
M  V30 1997 C 189.423 -1.90374 -2.90474 0
M  V30 1998 C 188.377 -3.0588 -2.99369 0
M  V30 1999 C 187.703 -3.04625 -4.3944 0
M  V30 2000 C 189.003 -4.45644 -2.72394 0
M  V30 2001 H 190.697 -2.68855 -1.31748 0
M  V30 2002 H 188.243 -1.29372 -0.632362 0
M  V30 2003 H 190.196 -2.0651 -3.6733 0
M  V30 2004 H 188.92 -0.95004 -3.12477 0
M  V30 2005 H 187.579 -2.89467 -2.24954 0
M  V30 2006 H 187.227 -2.0701 -4.58428 0
M  V30 2007 H 186.927 -3.82195 -4.46319 0
M  V30 2008 H 188.451 -3.22869 -5.18255 0
M  V30 2009 H 189.865 -4.62348 -3.38979 0
M  V30 2010 H 188.262 -5.25006 -2.9067 0
M  V30 2011 H 189.332 -4.54893 -1.67929 0
M  V30 2012 N 190.675 0.682077 -1.42076 0
M  V30 2013 C 191.915 1.45424 -1.43636 0
M  V30 2014 C 192.279 1.91939 -0.0484001 0
M  V30 2015 O 193.48 2.6873 0.0612514 0
M  V30 2016 C 191.751 2.62427 -2.42625 0
M  V30 2017 S 193.31 3.51379 -2.62827 0
M  V30 2018 H 190.128 0.496779 -0.508657 0
M  V30 2019 H 192.73 0.794645 -1.78621 0
M  V30 2020 H 191.434 2.26481 -3.42249 0
M  V30 2021 H 190.965 3.33266 -2.09039 0
M  V30 2022 H 192.98 4.58141 -1.9058 0
M  V30 2023 N 192.153 1.28127 0.917671 0
M  V30 2024 C 193.43 1.05761 1.64542 0
M  V30 2025 C 193.81 -0.404344 2.07191 0
M  V30 2026 O 193.158 -1.38963 1.81388 0
M  V30 2027 C 193.368 2.02857 2.83989 0
M  V30 2028 C 194.716 2.32786 3.551 0
M  V30 2029 O 195.74 2.0091 2.94132 0
M  V30 2030 O 194.599 2.87169 4.64969 0
M  V30 2031 H 191.693 0.403916 0.721652 0
M  V30 2032 H 194.239 1.39431 0.967322 0
M  V30 2033 H 193.011 3.01407 2.49538 0
M  V30 2034 H 192.634 1.69809 3.59514 0
M  V30 2035 N 193.631 -1.12557 1.10312 0
M  V30 2036 C 195.047 -1.36036 0.834649 0
M  V30 2037 C 195.247 -1.93946 -0.546539 0
M  V30 2038 O 194.303 -2.16484 -1.29966 0
M  V30 2039 C 195.616 -2.30312 1.9333 0
M  V30 2040 C 197.164 -2.43906 1.9616 0
M  V30 2041 C 197.639 -3.41496 3.05195 0
M  V30 2042 N 199.13 -3.49053 3.04494 0
M  V30 2043 C 199.865 -4.24471 3.85502 0
M  V30 2044 N 199.361 -5.02966 4.76442 0
M  V30 2045 N 201.154 -4.19864 3.73725 0
M  V30 2046 H 193.305 -0.733246 1.99342 0
M  V30 2047 H 195.568 -0.385234 0.866198 0
M  V30 2048 H 195.274 -1.94933 2.92735 0
M  V30 2049 H 195.148 -3.30421 1.81939 0
M  V30 2050 H 197.535 -2.78567 0.973886 0
M  V30 2051 H 197.616 -1.4369 2.11629 0
M  V30 2052 H 197.26 -3.07565 4.04186 0
M  V30 2053 H 197.19 -4.41539 2.86968 0
M  V30 2054 H 199.681 -2.93053 2.38596 0
M  V30 2055 H 199.994 -5.57846 5.34815 0
M  V30 2056 H 198.339 -5.02167 4.80472 0
M  V30 2057 H 201.53 -3.57623 3.02032 0
M  V30 2058 H 201.703 -4.78386 4.37093 0
M  V30 2059 N 195.109 -0.891671 -1.2995 0
M  V30 2060 C 196.337 -0.52866 -2.00032 0
M  V30 2061 C 196.752 0.884574 -1.66795 0
M  V30 2062 O 196.109 1.5827 -0.908669 0
M  V30 2063 C 196.16 -0.701814 -3.54622 0
M  V30 2064 O 195.881 -2.05942 -3.86678 0
M  V30 2065 C 197.382 -0.342683 -4.41973 0
M  V30 2066 H 194.602 -0.203659 -0.639347 0
M  V30 2067 H 197.146 -1.19881 -1.65677 0
M  V30 2068 H 195.301 -0.0789468 -3.8732 0
M  V30 2069 H 195.715 -2.08291 -4.81368 0
M  V30 2070 H 197.189 -0.514709 -5.49595 0
M  V30 2071 H 197.666 0.71975 -4.33262 0
M  V30 2072 H 198.272 -0.942154 -4.14733 0
M  V30 2073 N 196.587 1.43421 -0.653314 0
M  V30 2074 C 197.834 2.01812 -0.166745 0
M  V30 2075 C 198.162 1.51535 1.21931 0
M  V30 2076 O 197.417 0.698975 1.82792 0
M  V30 2077 C 197.716 3.57176 -0.126623 0
M  V30 2078 C 197.382 4.26798 -1.45444 0
M  V30 2079 C 196.044 4.45534 -1.81805 0
M  V30 2080 C 198.396 4.66225 -2.32989 0
M  V30 2081 C 195.724 5.00961 -3.05377 0
M  V30 2082 C 198.076 5.23021 -3.55853 0
M  V30 2083 C 196.74 5.39973 -3.9241 0
M  V30 2084 H 196.01 0.738484 -0.0610162 0
M  V30 2085 H 198.657 1.71896 -0.84404 0
M  V30 2086 H 196.962 3.86634 0.634123 0
M  V30 2087 H 198.659 4.00112 0.266723 0
M  V30 2088 H 195.249 4.12561 -1.16153 0
M  V30 2089 H 199.433 4.51443 -2.06187 0
M  V30 2090 H 194.689 5.12271 -3.3375 0
M  V30 2091 H 198.863 5.52518 -4.23907 0
M  V30 2092 H 196.49 5.82687 -4.88242 0
M  V30 2093 N 198.065 0.39524 1.52563 0
M  V30 2094 C 199.29 -0.187456 2.06551 0
M  V30 2095 C 199.715 -1.39249 1.26457 0
M  V30 2096 O 199.073 -1.78947 0.291151 0
M  V30 2097 C 199.121 -0.529985 3.56684 0
M  V30 2098 O 198.225 -1.62307 3.79118 0
M  V30 2099 H 197.566 -0.0202537 0.663691 0
M  V30 2100 H 200.096 0.564426 1.96661 0
M  V30 2101 H 200.106 -0.792598 4.00227 0
M  V30 2102 H 198.781 0.350987 4.14416 0
M  V30 2103 H 197.358 -1.3537 3.47461 0
M  V30 2104 N 199.544 -1.57102 0.125237 0
M  V30 2105 C 200.474 -2.18659 -0.819174 0
M  V30 2106 C 201.455 -1.12843 -1.27281 0
M  V30 2107 O 202.64 -1.41104 -1.33429 0
M  V30 2108 C 199.77 -2.79096 -2.06695 0
M  V30 2109 C 198.724 -3.90548 -1.75088 0
M  V30 2110 C 198.05 -4.37821 -3.06948 0
M  V30 2111 C 199.35 -5.12356 -1.01435 0
M  V30 2112 H 201.044 -2.9783 -0.306202 0
M  V30 2113 H 198.59 -1.4326 -0.145839 0
M  V30 2114 H 200.543 -3.2082 -2.73226 0
M  V30 2115 H 199.267 -1.97223 -2.60328 0
M  V30 2116 H 197.926 -3.49409 -1.10944 0
M  V30 2117 H 197.574 -3.52799 -3.58527 0
M  V30 2118 H 197.274 -5.12982 -2.86571 0
M  V30 2119 H 198.798 -4.822 -3.74587 0
M  V30 2120 H 200.212 -5.5106 -1.58132 0
M  V30 2121 H 198.609 -5.9314 -0.911319 0
M  V30 2122 H 199.679 -4.849 -0.00218681 0
M  V30 2123 N 201.022 0.148545 -1.56898 0
M  V30 2124 C 201.969 1.18345 -1.98149 0
M  V30 2125 C 202.939 1.42772 -0.848848 0
M  V30 2126 O 204.124 1.55132 -1.11079 0
M  V30 2127 C 201.264 2.51231 -2.36594 0
M  V30 2128 C 200.377 2.33991 -3.63142 0
M  V30 2129 C 199.512 3.59902 -3.90697 0
M  V30 2130 C 198.551 3.37692 -5.1052 0
M  V30 2131 N 197.688 4.5573 -5.34092 0
M  V30 2132 H 202.528 0.82467 -2.86362 0
M  V30 2133 H 200.065 0.395756 -1.41676 0
M  V30 2134 H 202.023 3.28713 -2.56912 0
M  V30 2135 H 200.653 2.85059 -1.51463 0
M  V30 2136 H 199.705 1.47572 -3.50609 0
M  V30 2137 H 201.017 2.13539 -4.5078 0
M  V30 2138 H 200.171 4.45813 -4.11505 0
M  V30 2139 H 198.91 3.83357 -3.01477 0
M  V30 2140 H 197.915 2.5017 -4.89587 0
M  V30 2141 H 199.14 3.15637 -6.0129 0
M  V30 2142 H 197.086 4.79361 -4.47827 0
M  V30 2143 H 197.003 4.38274 -6.15996 0
M  V30 2144 H 198.271 5.42858 -5.59397 0
M  V30 2145 N 202.5 1.5196 0.417844 0
M  V30 2146 C 203.728 1.69426 1.18753 0
M  V30 2147 C 204.143 0.399955 1.84515 0
M  V30 2148 O 203.5 -0.623288 1.71527 0
M  V30 2149 C 203.551 2.82375 2.25714 0
M  V30 2150 O 203.272 4.06793 1.62638 0
M  V30 2151 C 204.773 3.11277 3.15628 0
M  V30 2152 H 201.993 0.568031 0.357186 0
M  V30 2153 H 204.537 1.98475 0.49273 0
M  V30 2154 H 202.692 2.5587 2.90877 0
M  V30 2155 H 203.106 4.69667 2.3348 0
M  V30 2156 H 204.58 3.93843 3.86771 0
M  V30 2157 H 205.057 2.24473 3.77503 0
M  V30 2158 H 205.663 3.39515 2.56144 0
M  V30 2159 N 203.978 -0.674533 1.42435 0
M  V30 2160 C 205.224 -1.43671 1.43131 0
M  V30 2161 C 205.557 -1.94142 0.0476021 0
M  V30 2162 O 204.832 -1.70924 -0.928188 0
M  V30 2163 C 205.115 -2.63355 2.45594 0
M  V30 2164 C 204.968 -2.18514 3.93156 0
M  V30 2165 C 206.287 -3.65571 2.45043 0
M  V30 2166 H 203.406 -0.521077 0.521198 0
M  V30 2167 H 206.048 -0.766551 1.7385 0
M  V30 2168 H 204.198 -3.2053 2.19528 0
M  V30 2169 H 205.87 -1.66504 4.30202 0
M  V30 2170 H 204.113 -1.50086 4.07009 0
M  V30 2171 H 204.784 -3.04484 4.60428 0
M  V30 2172 H 207.26 -3.18113 2.68223 0
M  V30 2173 H 206.136 -4.46893 3.18713 0
M  V30 2174 H 206.397 -4.16716 1.47649 0
M  V30 2175 N 205.456 -1.28612 -0.910864 0
M  V30 2176 C 206.386 -1.15326 -2.03032 0
M  V30 2177 C 207.367 -0.0502924 -1.70026 0
M  V30 2178 O 208.552 -0.227797 -1.92859 0
M  V30 2179 C 205.682 -0.817343 -3.37545 0
M  V30 2180 C 204.636 -1.8754 -3.84724 0
M  V30 2181 C 203.962 -1.39305 -5.16235 0
M  V30 2182 C 205.262 -3.28244 -4.06267 0
M  V30 2183 H 206.956 -2.08975 -2.14406 0
M  V30 2184 H 204.502 -1.00612 -1.03021 0
M  V30 2185 H 206.455 -0.711151 -4.15356 0
M  V30 2186 H 205.179 0.154846 -3.26233 0
M  V30 2187 H 203.838 -1.97079 -3.09121 0
M  V30 2188 H 203.486 -0.409846 -5.01328 0
M  V30 2189 H 203.186 -2.10057 -5.48771 0
M  V30 2190 H 204.71 -1.30014 -5.96598 0
M  V30 2191 H 206.124 -3.21611 -4.74594 0
M  V30 2192 H 204.521 -3.96855 -4.5014 0
M  V30 2193 H 205.591 -3.72048 -3.10979 0
M  V30 2194 N 206.934 1.1197 -1.10907 0
M  V30 2195 C 207.867 2.16998 -0.706192 0
M  V30 2196 C 208.845 1.59903 0.294897 0
M  V30 2197 O 210.029 1.87513 0.192636 0
M  V30 2198 C 207.156 3.38673 -0.0427664 0
M  V30 2199 C 206.202 4.14414 -1.00811 0
M  V30 2200 S 207.035 4.72079 -2.52789 0
M  V30 2201 C 208.191 5.97083 -1.87731 0
M  V30 2202 H 208.424 2.50837 -1.59587 0
M  V30 2203 H 205.957 1.23508 -0.926555 0
M  V30 2204 H 207.915 4.09142 0.333668 0
M  V30 2205 H 206.576 3.03105 0.823788 0
M  V30 2206 H 205.769 5.016 -0.491259 0
M  V30 2207 H 205.371 3.49678 -1.3267 0
M  V30 2208 H 207.663 6.66599 -1.21044 0
M  V30 2209 H 208.606 6.53403 -2.72892 0
M  V30 2210 H 209.014 5.4837 -1.33979 0
M  V30 2211 N 208.412 0.89855 1.29475 0
M  V30 2212 C 209.661 0.519863 1.94885 0
M  V30 2213 C 209.974 -0.9383 1.71625 0
M  V30 2214 O 211.18 -1.42445 2.31131 0
M  V30 2215 C 209.636 0.878836 3.49005 0
M  V30 2216 C 209.244 2.35569 3.81066 0
M  V30 2217 C 210.988 0.570004 4.20656 0
M  V30 2218 C 208.895 2.65558 5.28425 0
M  V30 2219 H 207.825 0.190692 0.729488 0
M  V30 2220 H 210.476 1.09539 1.47219 0
M  V30 2221 H 208.858 0.232253 3.95318 0
M  V30 2222 H 210.032 3.04773 3.45616 0
M  V30 2223 H 208.347 2.63343 3.22552 0
M  V30 2224 H 210.944 0.770925 5.29113 0
M  V30 2225 H 211.287 -0.491404 4.1339 0
M  V30 2226 H 211.82 1.17438 3.8007 0
M  V30 2227 H 208.559 3.70493 5.40754 0
M  V30 2228 H 208.079 2.00977 5.65127 0
M  V30 2229 H 209.758 2.51765 5.96006 0
M  V30 2230 N 209.89 -1.43072 0.660911 0
M  V30 2231 C 210.853 -2.29194 -0.0166406 0
M  V30 2232 C 211.853 -1.42609 -0.742912 0
M  V30 2233 O 213.043 -1.64155 -0.583004 0
M  V30 2234 C 210.175 -3.24831 -1.0343 0
M  V30 2235 H 211.368 -2.90596 0.741208 0
M  V30 2236 H 208.921 -1.5048 0.422532 0
M  V30 2237 H 209.656 -2.68339 -1.82111 0
M  V30 2238 H 209.441 -3.88676 -0.517082 0
M  V30 2239 H 210.931 -3.89451 -1.50723 0
M  V30 2240 N 211.368 -0.403325 -1.52352 0
M  V30 2241 C 212.617 0.175668 -2.00934 0
M  V30 2242 C 212.93 1.46718 -1.29356 0
M  V30 2243 O 214.136 2.12708 -1.68724 0
M  V30 2244 C 212.592 0.363612 -3.58058 0
M  V30 2245 C 212.2 -0.915472 -4.38547 0
M  V30 2246 C 213.944 0.89821 -4.14888 0
M  V30 2247 C 211.851 -0.695035 -5.87302 0
M  V30 2248 H 210.781 0.0694234 -0.750797 0
M  V30 2249 H 213.432 -0.527879 -1.75743 0
M  V30 2250 H 211.814 1.12935 -3.79555 0
M  V30 2251 H 212.988 -1.68691 -4.28812 0
M  V30 2252 H 211.303 -1.37606 -3.93006 0
M  V30 2253 H 213.9 1.07907 -5.23699 0
M  V30 2254 H 214.243 1.87126 -3.71873 0
M  V30 2255 H 214.776 0.191681 -3.97338 0
M  V30 2256 H 211.515 -1.63948 -6.34666 0
M  V30 2257 H 211.035 0.0372116 -5.99788 0
M  V30 2258 H 212.714 -0.33497 -6.46132 0
M  V30 2259 N 212.846 1.57033 -0.133567 0
M  V30 2260 C 213.778 2.13176 0.841944 0
M  V30 2261 C 214.791 1.07794 1.22001 0
M  V30 2262 O 215.98 1.35117 1.16643 0
M  V30 2263 C 213.08 2.62847 2.13926 0
M  V30 2264 C 212.253 3.92486 1.93064 0
M  V30 2265 C 211.312 4.27605 3.0666 0
M  V30 2266 O 210.338 4.96168 2.78937 0
M  V30 2267 N 211.54 3.861 4.33483 0
M  V30 2268 H 214.305 2.97503 0.362192 0
M  V30 2269 H 211.866 1.61821 0.05042 0
M  V30 2270 H 213.858 2.83363 2.88942 0
M  V30 2271 H 212.428 1.83319 2.53205 0
M  V30 2272 H 211.648 3.80732 1.02159 0
M  V30 2273 H 212.936 4.77225 1.76447 0
M  V30 2274 H 212.334 3.30828 4.58878 0
M  V30 2275 H 210.891 4.11694 5.05323 0
M  V30 2276 N 214.325 -0.140222 1.56975 0
M  V30 2277 C 215.255 -1.17456 2.01808 0
M  V30 2278 C 216.236 -1.44415 0.898794 0
M  V30 2279 O 217.421 -1.5522 1.16707 0
M  V30 2280 C 214.551 -2.50607 2.40444 0
M  V30 2281 C 213.505 -2.38155 3.55621 0
M  V30 2282 C 212.831 -3.76078 3.80091 0
M  V30 2283 C 214.131 -1.85991 4.88062 0
M  V30 2284 H 215.825 -0.801743 2.88466 0
M  V30 2285 H 213.371 -0.38422 1.38779 0
M  V30 2286 H 215.324 -3.23197 2.7041 0
M  V30 2287 H 214.048 -2.89737 1.50732 0
M  V30 2288 H 212.707 -1.68016 3.25832 0
M  V30 2289 H 212.355 -4.12656 2.87618 0
M  V30 2290 H 212.055 -3.68606 4.57606 0
M  V30 2291 H 213.579 -4.50206 4.12488 0
M  V30 2292 H 214.993 -2.4838 5.16701 0
M  V30 2293 H 213.39 -1.89393 5.6943 0
M  V30 2294 H 214.46 -0.816023 4.77984 0
M  V30 2295 N 215.803 -1.52179 -0.40978 0
M  V30 2296 C 217.052 -1.65434 -1.15388 0
M  V30 2297 C 217.365 -0.390056 -1.91671 0
M  V30 2298 O 218.571 -0.402399 -2.68501 0
M  V30 2299 C 217.027 -2.92279 -2.10003 0
M  V30 2300 C 216.635 -4.25813 -1.39239 0
M  V30 2301 C 218.379 -3.14897 -2.84675 0
M  V30 2302 C 216.286 -5.43782 -2.32498 0
M  V30 2303 H 215.216 -0.616267 -0.434432 0
M  V30 2304 H 217.867 -1.78666 -0.418401 0
M  V30 2305 H 216.249 -2.72744 -2.871 0
M  V30 2306 H 217.423 -4.55828 -0.675099 0
M  V30 2307 H 215.738 -4.09292 -0.766097 0
M  V30 2308 H 218.335 -4.0021 -3.54593 0
M  V30 2309 H 218.678 -2.29103 -3.47588 0
M  V30 2310 H 219.211 -3.34901 -2.14677 0
M  V30 2311 H 215.95 -6.3192 -1.74233 0
M  V30 2312 H 215.47 -5.18106 -3.02201 0
M  V30 2313 H 217.149 -5.76834 -2.93038 0
M  V30 2314 N 217.281 0.66697 -1.42791 0
M  V30 2315 C 218.506 1.46004 -1.47301 0
M  V30 2316 C 218.931 1.87894 -0.0880317 0
M  V30 2317 O 218.289 1.56502 0.915253 0
M  V30 2318 C 218.337 2.68031 -2.41229 0
M  V30 2319 O 217.441 3.6659 -1.88906 0
M  V30 2320 H 216.782 0.43832 -0.49877 0
M  V30 2321 H 219.312 0.817391 -1.87563 0
M  V30 2322 H 219.322 3.1601 -2.58073 0
M  V30 2323 H 217.997 2.36883 -3.41847 0
M  V30 2324 H 216.574 3.25661 -1.81656 0
M  V30 2325 N 218.759 1.29093 0.90403 0
M  V30 2326 C 220.175 1.07011 1.1841 0
M  V30 2327 C 220.375 -0.181358 2.00682 0
M  V30 2328 O 219.431 -0.880331 2.36657 0
M  V30 2329 C 220.744 2.32311 1.90924 0
M  V30 2330 C 222.292 2.37587 2.03768 0
M  V30 2331 C 222.767 3.62679 2.79693 0
M  V30 2332 N 224.258 3.63376 2.87249 0
M  V30 2333 C 224.993 4.56848 3.46522 0
M  V30 2334 N 224.489 5.60648 4.06996 0
M  V30 2335 N 226.282 4.44426 3.44154 0
M  V30 2336 H 218.433 2.09412 0.354993 0
M  V30 2337 H 220.696 0.922181 0.219742 0
M  V30 2338 H 220.402 3.23536 1.37905 0
M  V30 2339 H 220.276 2.39483 2.91424 0
M  V30 2340 H 222.663 1.46853 2.55965 0
M  V30 2341 H 222.744 2.34403 1.02415 0
M  V30 2342 H 222.388 4.53762 2.28173 0
M  V30 2343 H 222.318 3.63119 3.81381 0
M  V30 2344 H 224.809 2.88321 2.44293 0
M  V30 2345 H 225.122 6.28101 4.50232 0
M  V30 2346 H 223.467 5.64463 4.05471 0
M  V30 2347 H 226.658 3.62529 2.96126 0
M  V30 2348 H 226.831 5.17457 3.90054 0
M  V30 2349 N 220.237 -1.11381 1.11499 0
M  V30 2350 C 221.17 -2.16621 0.71769 0
M  V30 2351 C 222.148 -1.60058 -0.286413 0
M  V30 2352 O 223.332 -1.87613 -0.182689 0
M  V30 2353 C 220.459 -3.38646 0.0607265 0
M  V30 2354 C 219.505 -4.13874 1.03008 0
M  V30 2355 S 220.338 -4.70731 2.55289 0
M  V30 2356 C 221.494 -5.96079 1.90895 0
M  V30 2357 H 221.727 -2.49987 1.60915 0
M  V30 2358 H 219.26 -1.23015 0.933092 0
M  V30 2359 H 221.218 -4.09313 -0.311965 0
M  V30 2360 H 219.879 -3.03537 -0.807702 0
M  V30 2361 H 219.072 -5.01333 0.517853 0
M  V30 2362 H 218.674 -3.4897 1.34522 0
M  V30 2363 H 220.966 -6.65948 1.24577 0
M  V30 2364 H 221.909 -6.51946 2.76354 0
M  V30 2365 H 222.317 -5.47652 1.36885 0
M  V30 2366 N 221.715 -0.905404 -1.28997 0
M  V30 2367 C 222.625 -0.392246 -2.31298 0
M  V30 2368 C 223.641 0.515889 -1.66176 0
M  V30 2369 O 224.817 0.404093 -1.97304 0
M  V30 2370 C 221.882 0.36686 -3.44754 0
M  V30 2371 C 220.943 -0.573485 -4.25452 0
M  V30 2372 C 220.176 0.149488 -5.33491 0
M  V30 2373 O 220.399 1.37255 -5.5364 0
M  V30 2374 O 219.333 -0.510919 -5.99728 0
M  V30 2375 H 223.159 -1.2411 -2.77183 0
M  V30 2376 H 220.744 -0.669926 -1.33538 0
M  V30 2377 H 222.626 0.795907 -4.13816 0
M  V30 2378 H 221.301 1.19169 -3.00966 0
M  V30 2379 H 220.208 -1.05176 -3.59011 0
M  V30 2380 H 221.541 -1.36489 -4.72897 0
M  V30 2381 N 223.193 1.4272 -0.668489 0
M  V30 2382 C 224.423 2.05668 -0.196063 0
M  V30 2383 C 224.831 1.5028 1.14946 0
M  V30 2384 O 224.174 0.6348 1.72383 0
M  V30 2385 C 224.236 3.59469 -0.0468879 0
M  V30 2386 C 223.9 4.37518 -1.32012 0
M  V30 2387 C 224.897 4.68584 -2.25222 0
M  V30 2388 C 222.582 4.77266 -1.56596 0
M  V30 2389 C 224.576 5.38326 -3.41297 0
M  V30 2390 C 222.263 5.4675 -2.72962 0
M  V30 2391 C 223.261 5.77204 -3.65137 0
M  V30 2392 O 222.949 6.45264 -4.79468 0
M  V30 2393 H 222.681 0.669382 -0.0943599 0
M  V30 2394 H 225.235 1.83954 -0.913788 0
M  V30 2395 H 223.465 3.79817 0.726357 0
M  V30 2396 H 225.154 4.04071 0.384852 0
M  V30 2397 H 225.92 4.38382 -2.07477 0
M  V30 2398 H 221.799 4.52959 -0.857249 0
M  V30 2399 H 225.343 5.62014 -4.13263 0
M  V30 2400 H 221.24 5.76369 -2.90635 0
M  V30 2401 H 222.008 6.63753 -4.78931 0
M  V30 2402 N 224.671 0.411399 1.52136 0
M  V30 2403 C 225.917 -0.163888 2.02137 0
M  V30 2404 C 226.25 -1.44597 1.29636 0
M  V30 2405 O 225.525 -1.90272 0.403353 0
M  V30 2406 C 225.808 -0.40927 3.57767 0
M  V30 2407 C 225.661 0.889643 4.40914 0
M  V30 2408 C 226.98 -1.19042 4.23694 0
M  V30 2409 H 224.099 -0.0580896 0.734707 0
M  V30 2410 H 226.741 0.54531 1.82007 0
M  V30 2411 H 224.891 -1.0134 3.7505 0
M  V30 2412 H 226.563 1.52575 4.35337 0
M  V30 2413 H 224.806 1.50011 4.07037 0
M  V30 2414 H 225.477 0.672314 5.4789 0
M  V30 2415 H 227.953 -0.678942 4.10524 0
M  V30 2416 H 226.829 -1.33086 5.32522 0
M  V30 2417 H 227.09 -2.21166 3.82803 0
M  V30 2418 N 226.149 -1.5696 0.141893 0
M  V30 2419 C 227.099 -2.13074 -0.811383 0
M  V30 2420 C 228.083 -1.05726 -1.21288 0
M  V30 2421 O 229.275 -1.31914 -1.18015 0
M  V30 2422 C 226.404 -2.75186 -2.0525 0
M  V30 2423 C 225.49 -3.8965 -1.67432 0
M  V30 2424 N 225.881 -4.95733 -1.0041 0
M  V30 2425 C 224.179 -4.00262 -1.96739 0
M  V30 2426 C 224.88 -5.75858 -0.822345 0
M  V30 2427 N 223.856 -5.26452 -1.3546 0
M  V30 2428 H 227.658 -2.92465 -0.290031 0
M  V30 2429 H 225.172 -1.6229 -0.0598218 0
M  V30 2430 H 227.169 -3.13745 -2.74535 0
M  V30 2431 H 225.829 -1.97266 -2.57907 0
M  V30 2432 H 226.84 -5.13607 -0.665441 0
M  V30 2433 H 223.517 -3.33412 -2.51282 0
M  V30 2434 H 224.907 -6.71254 -0.294496 0
M  V30 2435 N 227.627 0.131896 -1.57047 0
M  V30 2436 C 228.852 0.860418 -1.8871 0
M  V30 2437 C 229.277 1.73251 -0.73251 0
M  V30 2438 O 228.635 1.785 0.317429 0
M  V30 2439 C 228.683 1.68047 -3.19049 0
M  V30 2440 O 227.787 2.7862 -3.04047 0
M  V30 2441 H 227.128 0.238743 -0.619595 0
M  V30 2442 H 229.658 0.118169 -2.04258 0
M  V30 2443 H 229.668 2.07238 -3.51449 0
M  V30 2444 H 228.343 1.04018 -4.02682 0
M  V30 2445 H 226.92 2.42726 -2.83088 0
M  V30 2446 N 229.106 1.52395 0.401703 0
M  V30 2447 C 230.053 1.76268 1.48991 0
M  V30 2448 C 231.023 0.605386 1.54675 0
M  V30 2449 O 232.208 0.843742 1.7113 0
M  V30 2450 C 229.348 1.92592 2.86361 0
M  V30 2451 C 228.461 3.20259 2.89928 0
M  V30 2452 C 227.596 3.26972 4.18644 0
M  V30 2453 C 226.635 4.48812 4.16214 0
M  V30 2454 N 225.772 4.52877 5.36514 0
M  V30 2455 H 230.612 2.6914 1.27935 0
M  V30 2456 H 228.149 1.33355 0.620871 0
M  V30 2457 H 230.107 2.0004 3.66115 0
M  V30 2458 H 228.737 1.03093 3.05895 0
M  V30 2459 H 227.789 3.21945 2.02621 0
M  V30 2460 H 229.101 4.10056 2.83999 0
M  V30 2461 H 228.255 3.33533 5.06794 0
M  V30 2462 H 226.994 2.35126 4.27278 0
M  V30 2463 H 225.999 4.4239 3.26453 0
M  V30 2464 H 227.224 5.41961 4.09213 0
M  V30 2465 H 225.17 3.63917 5.45802 0
M  V30 2466 H 225.087 5.36529 5.32609 0
M  V30 2467 H 226.355 4.63676 6.26597 0
M  V30 2468 N 230.584 -0.659388 1.43143 0
M  V30 2469 C 231.532 -1.79374 1.4808 0
M  V30 2470 C 232.526 -1.65639 0.354988 0
M  V30 2471 O 233.732 -1.7206 0.528704 0
M  V30 2472 H 230.107 -0.591705 0.4641 0
M  V30 2473 H 232.078 -1.72329 2.43609 0
M  V30 2474 C 230.827 -3.17606 1.41499 0
M  V30 2475 H 230.15 -3.28809 2.27431 0
M  V30 2476 H 231.59 -3.96951 1.49015 0
M  V30 2477 C 230.049 -3.36642 0.131765 0
M  V30 2478 O 230.579 -3.93461 -0.809386 0
M  V30 2479 N 228.785 -2.90567 0.0439396 0
M  V30 2480 H 228.332 -2.44513 0.810619 0
M  V30 2481 H 228.29 -3.03681 -0.813969 0
M  V30 2482 N 232.062 -1.29571 -0.897171 0
M  V30 2483 C 232.992 -1.17473 -2.01798 0
M  V30 2484 C 233.973 -0.068323 -1.69963 0
M  V30 2485 O 235.158 -0.248239 -1.92607 0
M  V30 2486 C 232.288 -0.853099 -3.36659 0
M  V30 2487 C 231.242 -1.9161 -3.82713 0
M  V30 2488 C 230.568 -1.44773 -5.14728 0
M  V30 2489 C 231.868 -3.32535 -4.02763 0
M  V30 2490 H 233.562 -2.11237 -2.12177 0
M  V30 2491 H 231.108 -1.01699 -1.01948 0
M  V30 2492 H 233.061 -0.755165 -4.14578 0
M  V30 2493 H 231.785 0.120236 -3.26379 0
M  V30 2494 H 230.444 -2.00346 -3.07013 0
M  V30 2495 H 230.092 -0.462995 -5.00865 0
M  V30 2496 H 229.792 -2.15865 -5.46513 0
M  V30 2497 H 231.316 -1.36334 -5.95185 0
M  V30 2498 H 232.73 -3.26626 -4.71156 0
M  V30 2499 H 231.127 -4.01607 -4.45905 0
M  V30 2500 H 232.197 -3.75326 -3.07016 0
M  V30 2501 N 233.54 1.10788 -1.12088 0
M  V30 2502 C 234.789 1.82036 -0.868659 0
M  V30 2503 C 235.102 1.85929 0.607426 0
M  V30 2504 O 236.308 2.53346 0.97613 0
M  V30 2505 C 234.764 3.26951 -1.50435 0
M  V30 2506 C 234.372 3.31367 -3.01496 0
M  V30 2507 C 236.116 4.03053 -1.33225 0
M  V30 2508 C 234.023 4.7072 -3.58017 0
M  V30 2509 H 232.953 0.682108 -0.321318 0
M  V30 2510 H 235.604 1.24618 -1.34694 0
M  V30 2511 H 233.986 3.84343 -0.953735 0
M  V30 2512 H 235.16 2.83819 -3.6302 0
M  V30 2513 H 233.475 2.6875 -3.18061 0
M  V30 2514 H 236.072 5.05981 -1.72878 0
M  V30 2515 H 236.415 4.15387 -0.275529 0
M  V30 2516 H 236.948 3.52066 -1.85188 0
M  V30 2517 H 233.687 4.63585 -4.63432 0
M  V30 2518 H 233.207 5.1865 -3.01268 0
M  V30 2519 H 234.886 5.39685 -3.56859 0
M  V30 2520 N 235.018 0.912232 1.28515 0
M  V30 2521 C 236.248 0.559604 1.98877 0
M  V30 2522 C 236.656 -0.863113 1.68366 0
M  V30 2523 O 235.999 -1.58304 0.931969 0
M  V30 2524 C 236.061 0.68703 3.52874 0
M  V30 2525 C 235.725 2.07901 4.06972 0
M  V30 2526 C 236.722 3.05157 4.20922 0
M  V30 2527 C 234.407 2.39178 4.417 0
M  V30 2528 C 236.401 4.31806 4.68852 0
M  V30 2529 C 234.088 3.66068 4.89324 0
M  V30 2530 C 235.086 4.62195 5.02856 0
M  V30 2531 O 234.774 5.86829 5.49442 0
M  V30 2532 H 234.506 0.212191 0.641834 0
M  V30 2533 H 237.06 1.22712 1.64715 0
M  V30 2534 H 235.29 -0.0375486 3.86682 0
M  V30 2535 H 236.979 0.341727 4.04459 0
M  V30 2536 H 237.745 2.82311 3.94367 0
M  V30 2537 H 233.624 1.65109 4.30418 0
M  V30 2538 H 237.168 5.06842 4.79329 0
M  V30 2539 H 233.065 3.88739 5.15318 0
M  V30 2540 H 233.833 5.89597 5.6773 0
M  V30 2541 N 236.496 -1.42363 0.676048 0
M  V30 2542 C 237.912 -1.55811 0.345718 0
M  V30 2543 C 238.112 -1.65544 -1.14879 0
M  V30 2544 O 237.168 -1.62306 -1.93424 0
M  V30 2545 C 238.481 -2.80746 1.07713 0
M  V30 2546 C 240.029 -2.9452 1.05958 0
M  V30 2547 C 240.504 -4.22318 1.77233 0
M  V30 2548 N 241.995 -4.29233 1.74108 0
M  V30 2549 C 242.73 -5.26935 2.26113 0
M  V30 2550 N 242.226 -6.30783 2.86505 0
M  V30 2551 N 244.019 -5.18741 2.1648 0
M  V30 2552 H 236.17 -1.34289 1.6456 0
M  V30 2553 H 238.433 -0.646506 0.69335 0
M  V30 2554 H 238.139 -2.79696 2.13221 0
M  V30 2555 H 238.013 -3.71676 0.64316 0
M  V30 2556 H 240.4 -2.95097 0.0128255 0
M  V30 2557 H 240.481 -2.04817 1.53244 0
M  V30 2558 H 240.125 -4.22502 2.81877 0
M  V30 2559 H 240.055 -5.10958 1.27396 0
M  V30 2560 H 242.546 -3.54814 1.30059 0
M  V30 2561 H 242.859 -7.01691 3.23805 0
M  V30 2562 H 241.204 -6.31341 2.90575 0
M  V30 2563 H 244.395 -4.36533 1.68987 0
M  V30 2564 H 244.568 -5.94721 2.57316 0
M  V30 2565 N 237.974 -0.419461 -1.51915 0
M  V30 2566 C 239.251 0.211999 -1.94448 0
M  V30 2567 C 239.631 1.61703 -1.35703 0
M  V30 2568 O 238.979 2.22102 -0.536931 0
M  V30 2569 C 239.189 0.207872 -3.4838 0
M  V30 2570 C 240.537 0.422192 -4.22496 0
M  V30 2571 O 241.561 0.286778 -3.55044 0
M  V30 2572 O 240.42 0.690009 -5.42126 0
M  V30 2573 H 237.514 0.139586 -0.815135 0
M  V30 2574 H 240.06 -0.476151 -1.62883 0
M  V30 2575 H 238.832 -0.775102 -3.83546 0
M  V30 2576 H 238.455 0.939688 -3.86336 0
M  V30 2577 N 239.452 1.56882 -0.150215 0
M  V30 2578 C 240.698 1.96518 0.500834 0
M  V30 2579 C 241.031 1.03527 1.64304 0
M  V30 2580 O 240.306 0.0782751 1.94342 0
M  V30 2581 C 240.589 3.45822 1.00395 0
M  V30 2582 C 240.442 4.49591 -0.136983 0
M  V30 2583 C 241.761 3.97704 1.88467 0
M  V30 2584 H 238.88 0.714535 0.18058 0
M  V30 2585 H 241.522 1.88577 -0.232091 0
M  V30 2586 H 239.672 3.5272 1.62851 0
M  V30 2587 H 241.344 4.5477 -0.77343 0
M  V30 2588 H 239.587 4.26441 -0.795652 0
M  V30 2589 H 240.258 5.51402 0.256815 0
M  V30 2590 H 242.734 3.93304 1.35834 0
M  V30 2591 H 241.61 5.0263 2.20578 0
M  V30 2592 H 241.871 3.40252 2.82279 0
M  V30 2593 N 240.93 -0.123565 1.57115 0
M  V30 2594 C 241.877 -1.15177 2.00007 0
M  V30 2595 C 242.847 -1.41403 0.871454 0
M  V30 2596 O 244.032 -1.53346 1.13533 0
M  V30 2597 C 241.172 -2.47436 2.40561 0
M  V30 2598 C 240.285 -2.28184 3.66819 0
M  V30 2599 C 239.42 -3.53641 3.96373 0
M  V30 2600 C 238.459 -3.29528 5.15827 0
M  V30 2601 N 237.596 -4.47175 5.41275 0
M  V30 2602 H 242.436 -0.779008 2.87638 0
M  V30 2603 H 239.973 -0.373166 1.42288 0
M  V30 2604 H 241.931 -3.24584 2.62109 0
M  V30 2605 H 240.561 -2.82614 1.55978 0
M  V30 2606 H 239.613 -1.41976 3.52912 0
M  V30 2607 H 240.925 -2.0634 4.5412 0
M  V30 2608 H 240.079 -4.39209 4.18545 0
M  V30 2609 H 238.818 -3.78512 3.07538 0
M  V30 2610 H 237.823 -2.42349 4.93505 0
M  V30 2611 H 239.048 -3.06031 6.06236 0
M  V30 2612 H 236.994 -4.72175 4.55397 0
M  V30 2613 H 236.911 -4.28419 6.22891 0
M  V30 2614 H 238.179 -5.3389 5.67963 0
M  V30 2615 N 242.408 -1.52605 -0.393616 0
M  V30 2616 C 243.819 -1.59417 -0.971761 0
M  V30 2617 C 244.17 -0.444173 -1.91106 0
M  V30 2618 O 243.295 0.433382 -2.12016 0
M  V30 2619 C 243.89 -2.88936 -1.76921 0
M  V30 2620 C 242.449 -2.98175 -2.29714 0
M  V30 2621 C 241.596 -2.54491 -1.10135 0
M  V30 2622 H 244.547 -1.57751 -0.173317 0
M  V30 2623 H 244.568 -2.75163 -2.62804 0
M  V30 2624 H 244.08 -3.72616 -1.08532 0
M  V30 2625 H 242.181 -2.19024 -3.01429 0
M  V30 2626 H 242.294 -4.02726 -2.59517 0
M  V30 2627 H 240.658 -2.08702 -1.45999 0
M  V30 2628 H 241.441 -3.4056 -0.432874 0
M  V30 2629 N 243.887 0.651787 -1.4349 0
M  V30 2630 C 244.797 1.79368 -1.5121 0
M  V30 2631 C 245.813 1.69361 -0.399093 0
M  V30 2632 O 246.989 1.90505 -0.653431 0
M  V30 2633 C 244.054 3.15653 -1.43401 0
M  V30 2634 C 243.115 3.37446 -2.65384 0
M  V30 2635 C 242.348 4.67229 -2.57939 0
M  V30 2636 O 242.571 5.46676 -1.62792 0
M  V30 2637 O 241.505 4.90773 -3.48462 0
M  V30 2638 H 245.331 1.7581 -2.47638 0
M  V30 2639 H 242.916 0.810447 -1.25507 0
M  V30 2640 H 244.798 3.96935 -1.41494 0
M  V30 2641 H 243.473 3.19798 -0.501085 0
M  V30 2642 H 242.38 2.55923 -2.72863 0
M  V30 2643 H 243.713 3.38148 -3.57654 0
M  V30 2644 N 245.365 1.30045 0.890287 0
M  V30 2645 C 246.313 1.15873 2.01683 0
M  V30 2646 C 247.307 0.0719403 1.69247 0
M  V30 2647 O 248.513 0.232414 1.78493 0
M  V30 2648 H 244.888 0.358203 0.661207 0
M  V30 2649 H 246.859 2.11229 2.10772 0
M  V30 2650 C 245.608 0.861842 3.36849 0
M  V30 2651 H 244.931 1.69016 3.62317 0
M  V30 2652 H 246.371 0.802762 4.16331 0
M  V30 2653 C 244.83 -0.435132 3.34078 0
M  V30 2654 O 245.36 -1.4583 3.74295 0
M  V30 2655 N 243.566 -0.444377 2.87182 0
M  V30 2656 H 243.113 0.388723 2.5465 0
M  V30 2657 H 243.071 -1.31213 2.85711 0
M  V30 2658 N 246.843 -1.10192 1.12674 0
M  V30 2659 C 248.09 -1.82205 0.883606 0
M  V30 2660 C 248.418 -1.8532 -0.590492 0
M  V30 2661 O 247.673 -1.31137 -1.45264 0
M  V30 2662 C 247.972 -3.28552 1.4067 0
M  V30 2663 C 247.638 -3.45582 2.89627 0
M  V30 2664 C 246.3 -3.49937 3.30299 0
M  V30 2665 C 248.652 -3.50768 3.85501 0
M  V30 2666 C 245.98 -3.57049 4.65546 0
M  V30 2667 C 248.332 -3.59414 5.20581 0
M  V30 2668 C 246.996 -3.62034 5.60792 0
M  V30 2669 H 246.266 -0.666735 0.323334 0
M  V30 2670 H 248.913 -1.29868 1.40736 0
M  V30 2671 H 247.218 -3.83473 0.80347 0
M  V30 2672 H 248.915 -3.82788 1.19475 0
M  V30 2673 H 245.505 -3.42871 2.57172 0
M  V30 2674 H 249.689 -3.46651 3.55171 0
M  V30 2675 H 244.945 -3.57361 4.96088 0
M  V30 2676 H 249.119 -3.62371 5.94693 0
M  V30 2677 H 246.746 -3.67298 6.6558 0
M  V30 2678 N 248.321 -0.919034 -1.28029 0
M  V30 2679 C 249.251 -0.428581 -2.29533 0
M  V30 2680 C 250.232 0.50659 -1.62381 0
M  V30 2681 O 251.417 0.413195 -1.89753 0
M  V30 2682 C 248.547 0.327388 -3.45753 0
M  V30 2683 C 247.501 -0.519137 -4.2484 0
M  V30 2684 C 246.827 0.365486 -5.33449 0
M  V30 2685 C 248.127 -1.77914 -4.91064 0
M  V30 2686 H 249.821 -1.27687 -2.70807 0
M  V30 2687 H 247.367 -0.615428 -1.30186 0
M  V30 2688 H 249.32 0.681378 -4.15855 0
M  V30 2689 H 248.044 1.20963 -3.03374 0
M  V30 2690 H 246.703 -0.855717 -3.56473 0
M  V30 2691 H 246.351 1.24642 -4.87312 0
M  V30 2692 H 246.051 -0.197356 -5.87268 0
M  V30 2693 H 247.575 0.715241 -6.06396 0
M  V30 2694 H 248.989 -1.49374 -5.53498 0
M  V30 2695 H 247.386 -2.2848 -5.54903 0
M  V30 2696 H 248.456 -2.50382 -4.15255 0
M  V30 2697 N 249.799 1.42003 -0.683588 0
M  V30 2698 C 251.048 2.00638 -0.206681 0
M  V30 2699 C 251.361 1.5472 1.19671 0
M  V30 2700 O 252.567 2.05833 1.77045 0
M  V30 2701 C 251.023 3.58487 -0.318632 0
M  V30 2702 C 250.631 4.1339 -1.72663 0
M  V30 2703 C 252.375 4.24384 0.0991141 0
M  V30 2704 C 250.282 5.63633 -1.79087 0
M  V30 2705 H 249.212 0.750408 -0.0735107 0
M  V30 2706 H 251.863 1.62624 -0.850048 0
M  V30 2707 H 250.245 3.94047 0.392781 0
M  V30 2708 H 251.419 3.89273 -2.46583 0
M  V30 2709 H 249.734 3.59976 -2.09299 0
M  V30 2710 H 252.331 5.34652 0.0713833 0
M  V30 2711 H 252.674 4.00505 1.13586 0
M  V30 2712 H 253.207 3.93816 -0.561599 0
M  V30 2713 H 249.946 5.92323 -2.80774 0
M  V30 2714 H 249.466 5.89714 -1.09535 0
M  V30 2715 H 251.145 6.28201 -1.5483 0
M  V30 2716 N 251.277 0.427512 1.51691 0
M  V30 2717 C 252.525 -0.141948 2.01601 0
M  V30 2718 C 252.846 -1.44067 1.31414 0
M  V30 2719 O 252.116 -1.90763 0.445658 0
M  V30 2720 H 250.696 -0.0554468 0.744939 0
M  V30 2721 H 253.358 0.567968 1.86441 0
M  V30 2722 H 252.454 -0.324913 3.10404 0
M  V30 2723 N 252.755 -1.56801 0.158532 0
M  V30 2724 C 254.171 -1.5837 -0.197774 0
M  V30 2725 C 254.371 -1.17334 -1.63814 0
M  V30 2726 O 253.427 -0.878988 -2.36707 0
M  V30 2727 C 254.74 -3.00615 0.0714459 0
M  V30 2728 C 256.288 -3.12999 0.00864533 0
M  V30 2729 C 256.763 -4.57313 0.250685 0
M  V30 2730 N 258.254 -4.62777 0.198014 0
M  V30 2731 C 258.989 -5.72271 0.359642 0
M  V30 2732 N 258.485 -6.90371 0.579625 0
M  V30 2733 N 260.278 -5.61318 0.296438 0
M  V30 2734 H 252.429 -1.81765 1.09887 0
M  V30 2735 H 254.692 -0.841849 0.435884 0
M  V30 2736 H 254.398 -3.35068 1.06874 0
M  V30 2737 H 254.272 -3.71683 -0.642757 0
M  V30 2738 H 256.659 -2.7838 -0.979217 0
M  V30 2739 H 256.74 -2.44393 0.755359 0
M  V30 2740 H 256.384 -4.92639 1.2357 0
M  V30 2741 H 256.314 -5.24061 -0.516489 0
M  V30 2742 H 258.805 -3.77885 0.0331115 0
M  V30 2743 H 259.118 -7.69689 0.69275 0
M  V30 2744 H 257.463 -6.92264 0.616087 0
M  V30 2745 H 260.654 -4.67932 0.125258 0
M  V30 2746 H 260.827 -6.46599 0.425831 0
M  V30 2747 N 254.233 0.115231 -1.57178 0
M  V30 2748 C 255.644 0.67197 -1.74188 0
M  V30 2749 C 255.995 1.80125 -0.777777 0
M  V30 2750 O 255.12 2.16346 0.0484376 0
M  V30 2751 C 255.715 1.22573 -3.1585 0
M  V30 2752 C 254.274 1.72872 -3.34353 0
M  V30 2753 C 253.421 0.629972 -2.70049 0
M  V30 2754 H 256.372 -0.110712 -1.58313 0
M  V30 2755 H 256.393 2.09535 -3.17609 0
M  V30 2756 H 255.905 0.403598 -3.85996 0
M  V30 2757 H 254.006 2.5755 -2.69256 0
M  V30 2758 H 254.119 1.83557 -4.42542 0
M  V30 2759 H 252.483 1.0645 -2.31388 0
M  V30 2760 H 253.266 -0.181241 -3.42821 0
M  V30 2761 N 255.711 1.52812 0.385517 0
M  V30 2762 C 256.959 1.67694 1.12797 0
M  V30 2763 C 257.28 0.421115 1.90399 0
M  V30 2764 O 256.55 -0.564551 1.87589 0
M  V30 2765 H 255.13 0.618155 0.419396 0
M  V30 2766 H 257.792 1.89938 0.436972 0
M  V30 2767 H 256.888 2.52896 1.82894 0
M  V30 2768 N 257.189 -0.644168 1.43834 0
M  V30 2769 C 258.137 -1.77793 1.49974 0
M  V30 2770 C 259.131 -1.65253 0.372536 0
M  V30 2771 O 260.337 -1.7149 0.546924 0
M  V30 2772 H 256.712 -0.58675 0.47035 0
M  V30 2773 H 258.683 -1.69736 2.45423 0
M  V30 2774 C 257.432 -3.16087 1.4486 0
M  V30 2775 H 256.755 -3.26378 2.30905 0
M  V30 2776 H 258.195 -3.95349 1.53217 0
M  V30 2777 C 256.654 -3.36484 0.167463 0
M  V30 2778 O 257.184 -3.94298 -0.767609 0
M  V30 2779 N 255.39 -2.90504 0.0747556 0
M  V30 2780 H 254.937 -2.4364 0.836507 0
M  V30 2781 H 254.895 -3.04527 -0.781714 0
M  V30 2782 N 258.668 -1.30515 -0.883378 0
M  V30 2783 C 259.615 -1.17032 -1.98927 0
M  V30 2784 C 260.585 -0.0594241 -1.65994 0
M  V30 2785 O 261.77 -0.229895 -1.8941 0
M  V30 2786 C 258.91 -0.869777 -3.33959 0
M  V30 2787 C 258.023 -2.06271 -3.79574 0
M  V30 2788 C 257.158 -1.70011 -5.03259 0
M  V30 2789 C 256.197 -2.8579 -5.41286 0
M  V30 2790 N 255.334 -2.49816 -6.56153 0
M  V30 2791 H 260.174 -2.1164 -2.09792 0
M  V30 2792 H 257.711 -1.05296 -1.02719 0
M  V30 2793 H 259.669 -0.676138 -4.11685 0
M  V30 2794 H 258.299 0.0394332 -3.22776 0
M  V30 2795 H 257.351 -2.36755 -2.97744 0
M  V30 2796 H 258.663 -2.92971 -4.03694 0
M  V30 2797 H 257.817 -1.47032 -5.88614 0
M  V30 2798 H 256.556 -0.804829 -4.81013 0
M  V30 2799 H 255.561 -3.09434 -4.54456 0
M  V30 2800 H 256.786 -3.76008 -5.65504 0
M  V30 2801 H 254.732 -1.62795 -6.35479 0
M  V30 2802 H 254.649 -3.30048 -6.8015 0
M  V30 2803 H 255.917 -2.30197 -7.44735 0
M  V30 2804 N 260.146 1.09593 -1.13257 0
M  V30 2805 C 261.374 1.855 -0.916378 0
M  V30 2806 C 261.789 1.81069 0.534738 0
M  V30 2807 O 261.146 1.20562 1.37007 0
M  V30 2808 C 261.197 3.33546 -1.39388 0
M  V30 2809 O 260.918 3.37927 -2.78813 0
M  V30 2810 C 262.419 4.26299 -1.21588 0
M  V30 2811 H 259.639 0.585991 -0.326887 0
M  V30 2812 H 262.183 1.38488 -1.5047 0
M  V30 2813 H 260.338 3.77992 -0.848597 0
M  V30 2814 H 260.752 4.30254 -2.9997 0
M  V30 2815 H 262.226 5.28341 -1.59876 0
M  V30 2816 H 262.703 4.38918 -0.157376 0
M  V30 2817 H 263.309 3.87668 -1.7491 0
M  V30 2818 N 261.624 0.925811 1.2754 0
M  V30 2819 C 262.556 0.380753 2.26015 0
M  V30 2820 C 263.569 -0.487485 1.5533 0
M  V30 2821 O 264.758 -0.300413 1.75954 0
M  V30 2822 C 261.858 -0.473259 3.35579 0
M  V30 2823 C 261.031 0.375249 4.35787 0
M  V30 2824 C 260.09 -0.415809 5.24555 0
M  V30 2825 O 259.116 0.175834 5.68928 0
M  V30 2826 N 260.318 -1.71607 5.54555 0
M  V30 2827 H 263.083 1.22725 2.73421 0
M  V30 2828 H 260.644 0.793037 1.41147 0
M  V30 2829 H 262.636 -1.00949 3.91907 0
M  V30 2830 H 261.206 -1.2205 2.87789 0
M  V30 2831 H 260.426 1.09279 3.7875 0
M  V30 2832 H 261.714 0.955399 4.99749 0
M  V30 2833 H 261.112 -2.2191 5.20358 0
M  V30 2834 H 259.669 -2.19887 6.1359 0
M  V30 2835 N 263.102 -1.41638 0.69111 0
M  V30 2836 C 264.034 -2.29194 -0.0161523 0
M  V30 2837 C 265.047 -1.44549 -0.748955 0
M  V30 2838 O 266.236 -1.681 -0.6004 0
M  V30 2839 C 263.336 -3.22325 -1.0469 0
M  V30 2840 C 262.509 -4.35706 -0.384621 0
M  V30 2841 C 261.568 -5.09443 -1.31737 0
M  V30 2842 O 260.594 -5.63386 -0.811451 0
M  V30 2843 N 261.796 -5.16487 -2.64993 0
M  V30 2844 H 264.561 -2.90534 0.735523 0
M  V30 2845 H 262.122 -1.52742 0.53679 0
M  V30 2846 H 264.114 -3.68522 -1.67252 0
M  V30 2847 H 262.684 -2.62323 -1.70015 0
M  V30 2848 H 261.904 -3.91948 0.420804 0
M  V30 2849 H 263.192 -5.08743 0.0760765 0
M  V30 2850 H 262.59 -4.741 -3.08619 0
M  V30 2851 H 261.147 -5.66276 -3.22761 0
M  V30 2852 N 264.58 -0.43555 -1.51462 0
M  V30 2853 C 265.826 0.131709 -2.02372 0
M  V30 2854 C 266.159 1.42516 -1.3192 0
M  V30 2855 O 265.434 1.89606 -0.433573 0
M  V30 2856 C 265.717 0.352301 -3.58373 0
M  V30 2857 C 265.57 -0.959676 -4.39443 0
M  V30 2858 C 266.889 1.12286 -4.25535 0
M  V30 2859 H 264.008 0.0463936 -0.735538 0
M  V30 2860 H 266.65 -0.574197 -1.81116 0
M  V30 2861 H 264.8 0.9536 -3.76615 0
M  V30 2862 H 266.472 -1.59482 -4.32855 0
M  V30 2863 H 264.715 -1.56468 -4.04599 0
M  V30 2864 H 265.386 -0.759394 -5.46752 0
M  V30 2865 H 267.862 0.613545 -4.11552 0
M  V30 2866 H 266.738 1.24598 -5.34571 0
M  V30 2867 H 266.999 2.15048 -3.86273 0
M  V30 2868 N 266.058 1.56714 -0.166846 0
M  V30 2869 C 267.307 1.95922 0.479318 0
M  V30 2870 C 267.62 1.05529 1.6469 0
M  V30 2871 O 268.826 1.34399 2.35901 0
M  V30 2872 C 267.282 3.48359 0.90412 0
M  V30 2873 C 266.89 4.47369 -0.237621 0
M  V30 2874 C 268.634 3.96394 1.51896 0
M  V30 2875 C 266.541 5.91039 0.206561 0
M  V30 2876 H 265.471 0.731495 0.18284 0
M  V30 2877 H 268.122 1.81728 -0.254363 0
M  V30 2878 H 266.504 3.57955 1.69365 0
M  V30 2879 H 267.678 4.49485 -1.01489 0
M  V30 2880 H 265.993 4.09366 -0.762128 0
M  V30 2881 H 268.59 5.01186 1.86325 0
M  V30 2882 H 268.933 3.39075 2.41524 0
M  V30 2883 H 269.466 3.89796 0.79395 0
M  V30 2884 H 266.205 6.52221 -0.654834 0
M  V30 2885 H 265.725 5.9224 0.949282 0
M  V30 2886 H 267.404 6.43707 0.651939 0
M  V30 2887 N 267.536 -0.106894 1.57237 0
M  V30 2888 C 268.486 -1.1366 1.9765 0
M  V30 2889 C 269.47 -1.36416 0.853203 0
M  V30 2890 O 270.662 -1.37305 1.11697 0
M  V30 2891 C 267.791 -2.46 2.39455 0
M  V30 2892 C 266.877 -2.26668 3.58445 0
M  V30 2893 N 267.268 -1.77176 4.73754 0
M  V30 2894 C 265.566 -2.57279 3.64312 0
M  V30 2895 C 266.267 -1.71836 5.5574 0
M  V30 2896 N 265.243 -2.16623 4.98573 0
M  V30 2897 H 269.045 -0.74669 2.84256 0
M  V30 2898 H 266.559 -0.314483 1.59326 0
M  V30 2899 H 268.556 -3.2049 2.6663 0
M  V30 2900 H 267.216 -2.85738 1.54219 0
M  V30 2901 H 268.227 -1.46545 4.96734 0
M  V30 2902 H 264.904 -3.00622 2.89711 0
M  V30 2903 H 266.294 -1.34723 6.58255 0
M  V30 2904 N 269.014 -1.53014 -0.377408 0
M  V30 2905 C 270.263 -1.67845 -1.11853 0
M  V30 2906 C 270.576 -0.430625 -1.90801 0
M  V30 2907 O 271.782 -0.459261 -2.67587 0
M  V30 2908 C 270.238 -2.96668 -2.03756 0
M  V30 2909 C 269.846 -4.28671 -1.30175 0
M  V30 2910 C 271.59 -3.20865 -2.77932 0
M  V30 2911 C 269.497 -5.48591 -2.20911 0
M  V30 2912 H 268.427 -0.625343 -0.421263 0
M  V30 2913 H 271.078 -1.79514 -0.380409 0
M  V30 2914 H 269.46 -2.78773 -2.8125 0
M  V30 2915 H 270.634 -4.57157 -0.578259 0
M  V30 2916 H 268.949 -4.10825 -0.679108 0
M  V30 2917 H 271.546 -4.07642 -3.46024 0
M  V30 2918 H 271.889 -2.36424 -3.4265 0
M  V30 2919 H 272.422 -3.39379 -2.07525 0
M  V30 2920 H 269.161 -6.35474 -1.6079 0
M  V30 2921 H 268.681 -5.244 -2.91144 0
M  V30 2922 H 270.36 -5.8292 -2.80736 0
M  V30 2923 N 270.492 0.636531 -1.44174 0
M  V30 2924 C 271.741 1.39213 -1.45954 0
M  V30 2925 C 272.054 1.95374 -0.0939119 0
M  V30 2926 O 273.26 2.71498 0.0107767 0
M  V30 2927 C 271.716 2.52025 -2.56927 0
M  V30 2928 C 271.324 2.024 -3.99673 0
M  V30 2929 C 273.068 3.29269 -2.67922 0
M  V30 2930 C 270.975 3.12521 -5.0208 0
M  V30 2931 H 269.905 0.523132 -0.542999 0
M  V30 2932 H 272.556 0.685349 -1.70221 0
M  V30 2933 H 270.938 3.25253 -2.25891 0
M  V30 2934 H 272.112 1.36073 -4.40251 0
M  V30 2935 H 270.427 1.37987 -3.92872 0
M  V30 2936 H 273.024 4.11352 -3.41605 0
M  V30 2937 H 273.367 3.78397 -1.73555 0
M  V30 2938 H 273.9 2.63129 -2.98342 0
M  V30 2939 H 270.639 2.68343 -5.98057 0
M  V30 2940 H 270.159 3.77507 -4.66099 0
M  V30 2941 H 271.838 3.77385 -5.25538 0
M  V30 2942 N 271.97 1.30982 0.876444 0
M  V30 2943 C 273.247 1.10942 1.61094 0
M  V30 2944 C 273.627 -0.338223 2.08373 0
M  V30 2945 O 272.975 -1.33122 1.85717 0
M  V30 2946 C 273.185 2.11789 2.77392 0
M  V30 2947 C 274.533 2.43965 3.47514 0
M  V30 2948 O 275.557 2.10166 2.87591 0
M  V30 2949 O 274.416 3.01817 4.55597 0
M  V30 2950 H 271.51 0.42667 0.708436 0
M  V30 2951 H 274.056 1.42438 0.922474 0
M  V30 2952 H 272.828 3.09194 2.39823 0
M  V30 2953 H 272.451 1.81161 3.5393 0
M  V30 2954 N 273.449 -1.08991 1.13837 0
M  V30 2955 C 274.696 -1.81258 0.902882 0
M  V30 2956 C 275.024 -1.85936 -0.570803 0
M  V30 2957 O 274.279 -1.3267 -1.43865 0
M  V30 2958 C 274.578 -3.27042 1.44147 0
M  V30 2959 C 274.244 -3.4249 2.93276 0
M  V30 2960 C 272.906 -3.46414 3.33992 0
M  V30 2961 C 275.258 -3.4666 3.892 0
M  V30 2962 C 272.586 -3.52091 4.69307 0
M  V30 2963 C 274.938 -3.53872 5.24364 0
M  V30 2964 C 273.602 -3.56066 5.646 0
M  V30 2965 H 272.872 -0.663268 0.330388 0
M  V30 2966 H 275.519 -1.28368 1.42105 0
M  V30 2967 H 273.824 -3.82599 0.844097 0
M  V30 2968 H 275.521 -3.81499 1.23528 0
M  V30 2969 H 272.111 -3.40124 2.60794 0
M  V30 2970 H 276.295 -3.42865 3.58828 0
M  V30 2971 H 271.551 -3.52079 4.9985 0
M  V30 2972 H 275.725 -3.56043 5.98503 0
M  V30 2973 H 273.352 -3.60218 6.69438 0
M  V30 2974 N 274.927 -0.932562 -1.27047 0
M  V30 2975 C 276.175 -0.574422 -1.93765 0
M  V30 2976 C 276.496 0.887993 -1.73608 0
M  V30 2977 O 275.766 1.62999 -1.08665 0
M  V30 2978 H 274.346 -0.209451 -0.717035 0
M  V30 2979 H 277.008 -1.18601 -1.5466 0
M  V30 2980 H 276.104 -0.784841 -3.02071 0
M  V30 2981 N 276.405 1.4127 -0.698611 0
M  V30 2982 C 277.335 2.33447 -0.049629 0
M  V30 2983 C 278.316 1.51982 0.763898 0
M  V30 2984 O 279.501 1.80509 0.716257 0
M  V30 2985 C 276.631 3.35828 0.885267 0
M  V30 2986 C 275.585 4.27627 0.178613 0
M  V30 2987 C 274.911 5.20406 1.22807 0
M  V30 2988 C 276.211 5.13459 -0.956933 0
M  V30 2989 H 277.905 2.87966 -0.81951 0
M  V30 2990 H 275.451 1.38461 -0.395538 0
M  V30 2991 H 277.404 3.9924 1.34854 0
M  V30 2992 H 276.128 2.79666 1.68685 0
M  V30 2993 H 274.787 3.65643 -0.26466 0
M  V30 2994 H 274.435 4.60558 2.02226 0
M  V30 2995 H 274.135 5.82661 0.760239 0
M  V30 2996 H 275.659 5.86695 1.69179 0
M  V30 2997 H 277.073 5.70421 -0.573805 0
M  V30 2998 H 275.47 5.8467 -1.35205 0
M  V30 2999 H 276.54 4.50443 -1.79524 0
M  V30 3000 N 277.883 0.443576 1.51229 0
M  V30 3001 C 278.846 -0.353132 2.26463 0
M  V30 3002 C 279.846 -0.944338 1.3015 0
M  V30 3003 O 281.036 -0.817813 1.5381 0
M  V30 3004 C 278.168 -1.50023 3.06114 0
M  V30 3005 H 279.361 0.3063 2.98332 0
M  V30 3006 H 276.914 0.196902 1.55055 0
M  V30 3007 H 277.649 -2.19553 2.38677 0
M  V30 3008 H 277.434 -1.08241 3.76864 0
M  V30 3009 H 278.924 -2.06296 3.63087 0
M  V30 3010 N 279.361 -1.56624 0.175154 0
M  V30 3011 C 280.308 -2.18149 -0.753634 0
M  V30 3012 C 281.278 -1.12265 -1.22417 0
M  V30 3013 O 282.463 -1.40432 -1.29165 0
M  V30 3014 C 279.603 -2.82933 -1.97592 0
M  V30 3015 C 278.716 -4.03289 -1.5486 0
M  V30 3016 C 277.851 -4.55988 -2.72485 0
M  V30 3017 C 276.89 -5.68746 -2.26262 0
M  V30 3018 N 276.027 -6.15938 -3.36994 0
M  V30 3019 H 280.867 -2.9717 -0.222195 0
M  V30 3020 H 278.404 -1.46774 -0.0979422 0
M  V30 3021 H 280.362 -3.18653 -2.69288 0
M  V30 3022 H 278.992 -2.06509 -2.481 0
M  V30 3023 H 278.044 -3.73364 -0.728246 0
M  V30 3024 H 279.356 -4.849 -1.16933 0
M  V30 3025 H 278.51 -4.9391 -3.52332 0
M  V30 3026 H 277.249 -3.73443 -3.13674 0
M  V30 3027 H 276.254 -5.30372 -1.44863 0
M  V30 3028 H 277.479 -6.53095 -1.86127 0
M  V30 3029 H 275.425 -5.36321 -3.77751 0
M  V30 3030 H 275.342 -6.92548 -3.03172 0
M  V30 3031 H 276.61 -6.58511 -4.17114 0
M  V30 3032 N 280.839 0.0985539 -1.57292 0
M  V30 3033 C 281.749 1.13824 -2.05137 0
M  V30 3034 C 282.765 1.44076 -0.975604 0
M  V30 3035 O 283.941 1.54786 -1.28853 0
M  V30 3036 C 281.006 2.43969 -2.46333 0
M  V30 3037 C 280.067 2.2093 -3.68087 0
M  V30 3038 C 279.3 3.44869 -4.0731 0
M  V30 3039 O 279.523 4.52972 -3.46659 0
M  V30 3040 O 278.457 3.34661 -5.00285 0
M  V30 3041 H 282.283 0.761881 -2.93988 0
M  V30 3042 H 279.868 0.310818 -1.46131 0
M  V30 3043 H 281.75 3.20609 -2.73473 0
M  V30 3044 H 280.425 2.81038 -1.60621 0
M  V30 3045 H 279.332 1.42081 -3.46069 0
M  V30 3046 H 280.665 1.88755 -4.54568 0
M  V30 3047 N 282.317 1.53212 0.369288 0
M  V30 3048 C 283.547 1.72868 1.13139 0
M  V30 3049 C 283.955 0.455754 1.83629 0
M  V30 3050 O 283.298 -0.580861 1.74275 0
M  V30 3051 C 283.36 2.83667 2.20847 0
M  V30 3052 C 283.024 4.24142 1.70155 0
M  V30 3053 C 284.021 5.06619 1.16763 0
M  V30 3054 C 281.706 4.70539 1.7578 0
M  V30 3055 C 283.7 6.33581 0.696678 0
M  V30 3056 C 281.387 5.97481 1.28297 0
M  V30 3057 C 282.385 6.78833 0.753307 0
M  V30 3058 O 282.073 8.03393 0.285475 0
M  V30 3059 H 281.805 0.581707 0.344373 0
M  V30 3060 H 284.359 2.00736 0.435243 0
M  V30 3061 H 282.589 2.51265 2.93944 0
M  V30 3062 H 284.278 2.91536 2.82421 0
M  V30 3063 H 285.044 4.71948 1.11758 0
M  V30 3064 H 280.923 4.07293 2.15949 0
M  V30 3065 H 284.467 6.97027 0.282581 0
M  V30 3066 H 280.364 6.31651 1.32994 0
M  V30 3067 H 281.132 8.17497 0.405145 0
M  V30 3068 N 283.795 -0.628877 1.44509 0
M  V30 3069 C 285.044 -1.38437 1.4669 0
M  V30 3070 C 285.357 -1.95322 0.104272 0
M  V30 3071 O 286.563 -2.715 0.00362163 0
M  V30 3072 C 285.019 -2.50659 2.5826 0
M  V30 3073 C 284.627 -2.00277 4.0074 0
M  V30 3074 C 286.371 -3.27844 2.69664 0
M  V30 3075 C 284.278 -3.09854 5.0373 0
M  V30 3076 H 283.208 -0.520245 0.545766 0
M  V30 3077 H 285.859 -0.676313 1.70582 0
M  V30 3078 H 284.241 -3.2405 2.27612 0
M  V30 3079 H 285.415 -1.33736 4.40966 0
M  V30 3080 H 283.73 -1.35901 3.93599 0
M  V30 3081 H 286.327 -4.09534 3.43781 0
M  V30 3082 H 286.67 -3.77471 1.75559 0
M  V30 3083 H 287.203 -2.61543 2.99733 0
M  V30 3084 H 283.942 -2.65168 5.99472 0
M  V30 3085 H 283.462 -3.7503 4.68095 0
M  V30 3086 H 285.141 -3.74592 5.27532 0
M  V30 3087 N 285.273 -1.31445 -0.869486 0
M  V30 3088 C 286.55 -1.11795 -1.60503 0
M  V30 3089 C 286.93 0.327168 -2.08549 0
M  V30 3090 O 286.278 1.32135 -1.8642 0
M  V30 3091 C 286.488 -2.13258 -2.76265 0
M  V30 3092 C 287.836 -2.45805 -3.46215 0
M  V30 3093 O 288.86 -2.11688 -2.86473 0
M  V30 3094 O 287.719 -3.04228 -4.5399 0
M  V30 3095 H 284.813 -0.430421 -0.706163 0
M  V30 3096 H 287.359 -1.42925 -0.914907 0
M  V30 3097 H 286.131 -3.10461 -2.3818 0
M  V30 3098 H 285.754 -1.83035 -3.52964 0
M  V30 3099 N 286.751 1.08385 -1.14413 0
M  V30 3100 C 288.162 1.62258 -0.923535 0
M  V30 3101 C 288.513 1.88691 0.537595 0
M  V30 3102 O 287.638 1.64454 1.40655 0
M  V30 3103 C 288.233 2.94781 -1.67002 0
M  V30 3104 C 286.792 3.45437 -1.495 0
M  V30 3105 C 285.939 2.19668 -1.69238 0
M  V30 3106 H 288.89 0.916086 -1.2959 0
M  V30 3107 H 288.911 3.63229 -1.13334 0
M  V30 3108 H 288.423 2.7551 -2.73342 0
M  V30 3109 H 286.524 3.6981 -0.455097 0
M  V30 3110 H 286.637 4.22173 -2.2651 0
M  V30 3111 H 285.001 2.28849 -1.11804 0
M  V30 3112 H 285.784 2.02905 -2.7692 0
M  V30 3113 N 288.23 0.939286 1.26551 0
M  V30 3114 C 289.14 0.453432 2.30176 0
M  V30 3115 C 290.156 -0.471649 1.67486 0
M  V30 3116 O 291.332 -0.35164 1.98306 0
M  V30 3117 C 288.397 -0.275326 3.45605 0
M  V30 3118 C 287.458 0.686084 4.23782 0
M  V30 3119 C 286.691 -0.00798994 5.33699 0
M  V30 3120 O 286.914 -1.22528 5.57085 0
M  V30 3121 O 285.848 0.669746 5.98162 0
M  V30 3122 H 289.674 1.31416 2.73795 0
M  V30 3123 H 287.259 0.705095 1.31715 0
M  V30 3124 H 289.141 -0.685911 4.1578 0
M  V30 3125 H 287.816 -1.11147 3.0402 0
M  V30 3126 H 286.723 1.14658 3.56096 0
M  V30 3127 H 288.056 1.48979 4.69112 0
M  V30 3128 N 289.708 -1.40897 0.706093 0
M  V30 3129 C 290.936 -2.05373 0.250887 0
M  V30 3130 C 291.351 -1.53172 -1.10381 0
M  V30 3131 O 290.708 -0.684305 -1.69185 0
M  V30 3132 C 290.759 -3.6088 0.211571 0
M  V30 3133 O 290.48 -4.11153 1.51276 0
M  V30 3134 C 291.981 -4.42517 -0.263346 0
M  V30 3135 H 289.201 -0.66115 0.114552 0
M  V30 3136 H 291.745 -1.80479 0.961635 0
M  V30 3137 H 289.9 -3.84777 -0.450073 0
M  V30 3138 H 290.314 -5.05279 1.40689 0
M  V30 3139 H 291.788 -5.51479 -0.239718 0
M  V30 3140 H 292.265 -4.19396 -1.30397 0
M  V30 3141 H 292.871 -4.23708 0.367677 0
M  V30 3142 N 291.186 -0.45159 -1.50991 0
M  V30 3143 C 292.133 0.352625 -2.2809 0
M  V30 3144 C 293.103 1.0044 -1.32291 0
M  V30 3145 O 294.288 1.02058 -1.6121 0
M  V30 3146 C 291.428 1.43983 -3.13629 0
M  V30 3147 C 290.541 0.804772 -4.24438 0
M  V30 3148 C 289.676 1.86822 -4.97263 0
M  V30 3149 C 288.715 1.21236 -5.99973 0
M  V30 3150 N 287.852 2.2178 -6.66152 0
M  V30 3151 H 292.692 -0.311186 -2.96371 0
M  V30 3152 H 290.229 -0.165308 -1.46168 0
M  V30 3153 H 292.187 2.08161 -3.61559 0
M  V30 3154 H 290.817 2.07307 -2.47434 0
M  V30 3155 H 289.869 0.0509129 -3.80366 0
M  V30 3156 H 291.181 0.286076 -4.97979 0
M  V30 3157 H 290.335 2.58628 -5.48813 0
M  V30 3158 H 289.074 2.42068 -4.23385 0
M  V30 3159 H 288.079 0.479828 -5.47702 0
M  V30 3160 H 289.304 0.667051 -6.75816 0
M  V30 3161 H 287.25 2.76079 -5.95077 0
M  V30 3162 H 287.167 1.74841 -7.35504 0
M  V30 3163 H 288.435 2.93026 -7.22327 0
M  V30 3164 N 292.664 1.56529 -0.183458 0
M  V30 3165 C 293.611 2.18546 0.742055 0
M  V30 3166 C 294.581 1.12912 1.2182 0
M  V30 3167 O 295.766 1.41115 1.28418 0
M  V30 3168 C 292.906 2.83977 1.96089 0
M  V30 3169 C 292.019 4.04105 1.52719 0
M  V30 3170 C 291.154 4.57427 2.70063 0
M  V30 3171 C 290.193 5.69938 2.23243 0
M  V30 3172 N 289.33 6.17717 3.33722 0
M  V30 3173 H 294.17 2.97284 0.206432 0
M  V30 3174 H 291.707 1.46823 0.0901571 0
M  V30 3175 H 293.665 3.20077 2.67594 0
M  V30 3176 H 292.295 2.07822 2.47002 0
M  V30 3177 H 291.347 3.73745 0.708436 0
M  V30 3178 H 292.659 4.85513 1.1436 0
M  V30 3179 H 291.813 4.95772 3.49708 0
M  V30 3180 H 290.552 3.75101 3.11689 0
M  V30 3181 H 289.557 5.31133 1.42048 0
M  V30 3182 H 290.782 6.54073 1.82661 0
M  V30 3183 H 288.728 5.38317 3.74902 0
M  V30 3184 H 288.645 6.94146 2.99495 0
M  V30 3185 H 289.913 6.60713 4.13616 0
M  V30 3186 N 294.142 -0.090211 1.57342 0
M  V30 3187 C 295.092 -1.11557 1.98844 0
M  V30 3188 C 296.076 -1.35503 0.867624 0
M  V30 3189 O 297.268 -1.36113 1.13148 0
M  V30 3190 C 294.397 -2.43446 2.42051 0
M  V30 3191 C 293.483 -2.22853 3.60828 0
M  V30 3192 N 293.874 -1.72141 4.75606 0
M  V30 3193 C 292.172 -2.53401 3.67021 0
M  V30 3194 C 292.873 -1.65932 5.57531 0
M  V30 3195 N 291.849 -2.11323 5.00843 0
M  V30 3196 H 295.651 -0.716499 2.85032 0
M  V30 3197 H 293.165 -0.297567 1.59651 0
M  V30 3198 H 295.162 -3.17644 2.70014 0
M  V30 3199 H 293.822 -2.84087 1.57241 0
M  V30 3200 H 294.833 -1.41268 4.98261 0
M  V30 3201 H 291.51 -2.97532 2.92884 0
M  V30 3202 H 292.9 -1.27733 6.59647 0
M  V30 3203 N 295.62 -1.53406 -0.361157 0
M  V30 3204 C 296.869 -1.69022 -1.10066 0
M  V30 3205 C 297.182 -0.450838 -1.90333 0
M  V30 3206 O 298.388 -0.487617 -2.67085 0
M  V30 3207 C 296.844 -2.98812 -2.00598 0
M  V30 3208 C 296.452 -4.30027 -1.25621 0
M  V30 3209 C 298.196 -3.23795 -2.74513 0
M  V30 3210 C 296.103 -5.50903 -2.1508 0
M  V30 3211 H 295.033 -0.629776 -0.414606 0
M  V30 3212 H 297.684 -1.79907 -0.361348 0
M  V30 3213 H 296.066 -2.8174 -2.78278 0
M  V30 3214 H 297.24 -4.57745 -0.529739 0
M  V30 3215 H 295.555 -4.11522 -0.635496 0
M  V30 3216 H 298.152 -4.11289 -3.41681 0
M  V30 3217 H 298.495 -2.40045 -3.40123 0
M  V30 3218 H 299.028 -3.41561 -2.03914 0
M  V30 3219 H 295.767 -6.37143 -1.54041 0
M  V30 3220 H 295.287 -5.27459 -2.85565 0
M  V30 3221 H 296.966 -5.85865 -2.74538 0
M  V30 3222 N 297.098 0.621204 -1.44841 0
M  V30 3223 C 298.509 1.20298 -1.42777 0
M  V30 3224 C 298.86 1.95639 -0.148259 0
M  V30 3225 O 297.985 2.02955 0.750892 0
M  V30 3226 C 298.58 2.1882 -2.58657 0
M  V30 3227 C 297.139 2.72403 -2.59756 0
M  V30 3228 C 296.286 1.4757 -2.34773 0
M  V30 3229 H 299.237 0.411297 -1.53278 0
M  V30 3230 H 299.258 3.01607 -2.31977 0
M  V30 3231 H 298.77 1.63957 -3.51766 0
M  V30 3232 H 296.871 3.31242 -1.70615 0
M  V30 3233 H 296.984 3.17765 -3.58556 0
M  V30 3234 H 295.348 1.76051 -1.8406 0
M  V30 3235 H 296.131 0.945954 -3.3001 0
M  V30 3236 N 298.576 1.31904 0.862503 0
M  V30 3237 C 299.806 1.24817 1.64634 0
M  V30 3238 C 300.214 -0.187579 1.88268 0
M  V30 3239 O 299.557 -1.13253 1.44635 0
M  V30 3240 C 299.619 1.92996 3.03303 0
M  V30 3241 C 299.283 3.42336 3.02746 0
M  V30 3242 C 300.28 4.37956 2.80162 0
M  V30 3243 C 297.965 3.84147 3.2363 0
M  V30 3244 C 299.959 5.73361 2.78453 0
M  V30 3245 C 297.646 5.19663 3.21549 0
M  V30 3246 C 298.644 6.14081 2.98988 0
M  V30 3247 O 298.332 7.47118 2.96766 0
M  V30 3248 H 298.064 0.432222 0.519769 0
M  V30 3249 H 300.618 1.7445 1.08427 0
M  V30 3250 H 298.848 1.37922 3.61268 0
M  V30 3251 H 300.537 1.79723 3.63943 0
M  V30 3252 H 301.303 4.06981 2.63802 0
M  V30 3253 H 297.182 3.11083 3.40218 0
M  V30 3254 H 300.726 6.4703 2.60763 0
M  V30 3255 H 296.623 5.5027 3.37451 0
M  V30 3256 H 297.391 7.56382 3.12775 0
M  V30 3257 N 300.054 -1.07777 1.14986 0
M  V30 3258 C 301.47 -1.32373 0.891596 0
M  V30 3259 C 301.67 -1.9609 -0.463788 0
M  V30 3260 O 300.726 -2.21801 -1.20667 0
M  V30 3261 C 302.039 -2.21905 2.02925 0
M  V30 3262 C 303.587 -2.35367 2.06329 0
M  V30 3263 C 304.062 -3.28245 3.19405 0
M  V30 3264 N 305.553 -3.35824 3.19024 0
M  V30 3265 C 306.288 -4.07739 4.03158 0
M  V30 3266 N 305.784 -4.82306 4.97346 0
M  V30 3267 N 307.577 -4.03635 3.91197 0
M  V30 3268 H 299.728 -0.648039 2.02273 0
M  V30 3269 H 301.991 -0.348149 0.881757 0
M  V30 3270 H 301.697 -1.82342 3.0074 0
M  V30 3271 H 301.571 -3.22407 1.95789 0
M  V30 3272 H 303.958 -2.74186 1.09116 0
M  V30 3273 H 304.039 -1.34585 2.17533 0
M  V30 3274 H 303.683 -2.90146 4.16867 0
M  V30 3275 H 303.613 -4.28971 3.05437 0
M  V30 3276 H 306.104 -2.8267 2.50811 0
M  V30 3277 H 306.417 -5.34661 5.57994 0
M  V30 3278 H 304.762 -4.81337 5.01338 0
M  V30 3279 H 307.953 -3.44491 3.16928 0
M  V30 3280 H 308.126 -4.59417 4.5699 0
M  V30 3281 N 301.532 -0.945985 -1.26051 0
M  V30 3282 C 302.442 -0.465633 -2.29933 0
M  V30 3283 C 303.458 0.462761 -1.67733 0
M  V30 3284 O 304.634 0.341118 -1.9849 0
M  V30 3285 C 301.699 0.256994 -3.45746 0
M  V30 3286 C 300.76 -0.708549 -4.23412 0
M  V30 3287 C 299.993 -0.0203135 -5.33696 0
M  V30 3288 O 300.216 1.19571 -5.57726 0
M  V30 3289 O 299.15 -0.701459 -5.97799 0
M  V30 3290 H 302.976 -1.32866 -2.73094 0
M  V30 3291 H 300.561 -0.712071 -1.31339 0
M  V30 3292 H 302.443 0.663852 -4.16138 0
M  V30 3293 H 301.118 1.09533 -3.04605 0
M  V30 3294 H 300.025 -1.16545 -3.55483 0
M  V30 3295 H 301.358 -1.51465 -4.68315 0
M  V30 3296 N 303.011 1.40521 -0.713556 0
M  V30 3297 C 303.961 2.27971 -0.036165 0
M  V30 3298 C 304.945 1.43151 0.734623 0
M  V30 3299 O 306.137 1.66261 0.607158 0
M  V30 3300 C 303.266 3.31661 0.886331 0
M  V30 3301 C 302.352 4.23955 0.110836 0
M  V30 3302 N 302.743 4.97641 -0.904847 0
M  V30 3303 C 301.041 4.44674 0.343692 0
M  V30 3304 C 301.742 5.65322 -1.37064 0
M  V30 3305 N 300.718 5.39162 -0.693168 0
M  V30 3306 H 304.52 2.82384 -0.814645 0
M  V30 3307 H 302.034 1.52948 -0.545963 0
M  V30 3308 H 304.031 3.93154 1.38692 0
M  V30 3309 H 302.691 2.78808 1.66421 0
M  V30 3310 H 303.702 5.01689 -1.28563 0
M  V30 3311 H 300.379 4.02801 1.09805 0
M  V30 3312 H 301.769 6.34359 -2.21447 0
M  V30 3313 N 304.489 0.459591 1.5075 0
M  V30 3314 C 305.436 -0.340524 2.28274 0
M  V30 3315 C 306.406 -0.997371 1.32822 0
M  V30 3316 O 307.591 -1.01202 1.61749 0
M  V30 3317 C 304.731 -1.42317 3.14388 0
M  V30 3318 C 303.844 -0.782251 4.24859 0
M  V30 3319 C 302.979 -1.84182 4.98247 0
M  V30 3320 C 302.018 -1.18053 6.00608 0
M  V30 3321 N 301.155 -2.18244 6.67319 0
M  V30 3322 H 305.995 0.326899 2.96202 0
M  V30 3323 H 303.532 0.173057 1.46078 0
M  V30 3324 H 305.49 -2.06241 3.62658 0
M  V30 3325 H 304.12 -2.05992 2.4853 0
M  V30 3326 H 303.172 -0.0307404 3.80388 0
M  V30 3327 H 304.484 -0.259663 4.98124 0
M  V30 3328 H 303.638 -2.55714 5.50177 0
M  V30 3329 H 302.377 -2.39819 4.24662 0
M  V30 3330 H 301.382 -0.450776 5.47949 0
M  V30 3331 H 302.607 -0.631202 6.7616 0
M  V30 3332 H 300.553 -2.72919 5.96533 0
M  V30 3333 H 300.47 -1.70938 7.36421 0
M  V30 3334 H 301.738 -2.89191 7.23871 0
M  V30 3335 N 305.967 -1.56429 0.191757 0
M  V30 3336 C 307.192 -2.02309 -0.456706 0
M  V30 3337 C 307.617 -1.07103 -1.5463 0
M  V30 3338 O 306.975 -0.0539677 -1.8122 0
M  V30 3339 C 307.023 -3.46654 -0.993159 0
M  V30 3340 O 306.127 -3.54559 -2.10622 0
M  V30 3341 H 305.468 -0.655303 -0.107114 0
M  V30 3342 H 307.998 -2.02364 0.301653 0
M  V30 3343 H 308.008 -3.86377 -1.31061 0
M  V30 3344 H 306.683 -4.1544 -0.195504 0
M  V30 3345 H 305.26 -3.26708 -1.79767 0
M  V30 3346 N 307.445 0.0818655 -1.57387 0
M  V30 3347 C 308.375 1.09885 -2.06028 0
M  V30 3348 C 309.356 1.4098 -0.951774 0
M  V30 3349 O 310.541 1.50781 -1.22387 0
M  V30 3350 C 307.671 2.4151 -2.4958 0
M  V30 3351 C 306.625 2.24792 -3.64215 0
M  V30 3352 C 305.951 3.61712 -3.93787 0
M  V30 3353 C 307.251 1.67749 -4.94629 0
M  V30 3354 H 308.945 0.694128 -2.91243 0
M  V30 3355 H 306.491 0.332448 -1.4011 0
M  V30 3356 H 308.444 3.12939 -2.82219 0
M  V30 3357 H 307.168 2.83943 -1.61381 0
M  V30 3358 H 305.827 1.55807 -3.31843 0
M  V30 3359 H 305.475 4.01697 -3.02735 0
M  V30 3360 H 305.175 3.51368 -4.70971 0
M  V30 3361 H 306.699 4.34587 -4.28913 0
M  V30 3362 H 308.113 2.29032 -5.25564 0
M  V30 3363 H 306.51 1.68128 -5.76067 0
M  V30 3364 H 307.58 0.638059 -4.80684 0
M  V30 3365 N 308.923 1.53595 0.353017 0
M  V30 3366 C 310.151 1.74311 1.1146 0
M  V30 3367 C 310.566 0.477854 1.82653 0
M  V30 3368 O 309.923 -0.549977 1.74016 0
M  V30 3369 C 309.974 2.91694 2.13534 0
M  V30 3370 O 309.695 4.13325 1.45238 0
M  V30 3371 C 311.196 3.24384 3.02142 0
M  V30 3372 H 308.416 0.582669 0.332773 0
M  V30 3373 H 310.96 2.00386 0.408107 0
M  V30 3374 H 309.115 2.67977 2.79763 0
M  V30 3375 H 309.529 4.79148 2.13349 0
M  V30 3376 H 311.003 4.09893 3.69718 0
M  V30 3377 H 311.48 2.40282 3.67643 0
M  V30 3378 H 312.086 3.50073 2.41514 0
M  V30 3379 N 310.401 -0.613514 1.45168 0
M  V30 3380 C 311.649 -1.36997 1.48581 0
M  V30 3381 C 311.97 -1.94589 0.126545 0
M  V30 3382 O 311.24 -1.76816 -0.843372 0
M  V30 3383 H 309.82 -0.508558 0.547154 0
M  V30 3384 H 312.482 -0.720853 1.81079 0
M  V30 3385 H 311.578 -2.1924 2.22127 0
M  V30 3386 N 311.879 -1.3236 -0.855495 0
M  V30 3387 C 313.107 -1.2587 -1.64208 0
M  V30 3388 C 313.522 0.173457 -1.88002 0
M  V30 3389 O 312.879 1.11027 -1.44842 0
M  V30 3390 C 312.93 -2.01424 -3.00184 0
M  V30 3391 O 312.651 -3.39051 -2.77445 0
M  V30 3392 C 314.152 -2.01948 -3.94629 0
M  V30 3393 H 311.372 -0.434318 -0.511477 0
M  V30 3394 H 313.916 -1.74469 -1.0668 0
M  V30 3395 H 312.071 -1.56549 -3.5436 0
M  V30 3396 H 312.485 -3.77711 -3.63916 0
M  V30 3397 H 313.959 -2.59297 -4.87308 0
M  V30 3398 H 314.436 -1.00554 -4.27534 0
M  V30 3399 H 315.042 -2.46767 -3.4639 0
M  V30 3400 N 313.357 1.07166 -1.15556 0
M  V30 3401 C 314.32 2.12589 -0.856644 0
M  V30 3402 C 315.32 1.6015 0.14444 0
M  V30 3403 O 316.51 1.7399 -0.0854163 0
M  V30 3404 C 313.642 3.39753 -0.279405 0
M  V30 3405 H 314.835 2.40539 -1.79112 0
M  V30 3406 H 312.388 1.23086 -0.963298 0
M  V30 3407 H 313.123 3.17447 0.663174 0
M  V30 3408 H 312.908 3.79117 -1.00063 0
M  V30 3409 H 314.398 4.17507 -0.0879113 0
M  V30 3410 N 314.835 0.952656 1.25548 0
M  V30 3411 C 316.251 0.656769 1.4546 0
M  V30 3412 C 316.451 -0.78633 1.85524 0
M  V30 3413 O 315.507 -1.56183 1.98402 0
M  V30 3414 C 316.82 1.62801 2.52817 0
M  V30 3415 C 318.368 1.63897 2.66659 0
M  V30 3416 C 318.843 2.5978 3.77198 0
M  V30 3417 N 320.334 2.58133 3.84606 0
M  V30 3418 C 321.069 3.29003 4.69621 0
M  V30 3419 N 320.565 4.09339 5.58939 0
M  V30 3420 N 322.358 3.179 4.63569 0
M  V30 3421 H 314.509 1.88526 0.978344 0
M  V30 3422 H 316.772 0.810815 0.491206 0
M  V30 3423 H 316.478 2.65869 2.30232 0
M  V30 3424 H 316.352 1.38898 3.50695 0
M  V30 3425 H 318.739 0.615481 2.8861 0
M  V30 3426 H 318.82 1.91858 1.69187 0
M  V30 3427 H 318.464 3.62254 3.55997 0
M  V30 3428 H 318.394 2.29105 4.7415 0
M  V30 3429 H 320.885 1.99809 3.20757 0
M  V30 3430 H 321.198 4.6034 6.20731 0
M  V30 3431 H 319.543 4.13438 5.58654 0
M  V30 3432 H 322.734 2.54612 3.92798 0
M  V30 3433 H 322.907 3.73398 5.29602 0
M  V30 3434 N 316.313 -1.40141 0.720998 0
M  V30 3435 C 317.543 -2.04798 0.27226 0
M  V30 3436 C 317.951 -1.54442 -1.09289 0
M  V30 3437 O 317.294 -0.698342 -1.69908 0
M  V30 3438 C 317.356 -3.59048 0.18027 0
M  V30 3439 C 317.02 -4.32317 1.48159 0
M  V30 3440 C 318.017 -4.59902 2.42458 0
M  V30 3441 C 315.702 -4.71125 1.74202 0
M  V30 3442 C 317.696 -5.25288 3.61042 0
M  V30 3443 C 315.383 -5.36242 2.93066 0
M  V30 3444 C 316.381 -5.63254 3.86308 0
M  V30 3445 O 316.069 -6.27024 5.03086 0
M  V30 3446 H 315.801 -0.665419 0.119139 0
M  V30 3447 H 318.355 -1.80436 0.981432 0
M  V30 3448 H 316.585 -3.82251 -0.58489 0
M  V30 3449 H 318.274 -4.05221 -0.234618 0
M  V30 3450 H 319.04 -4.30379 2.23604 0
M  V30 3451 H 314.919 -4.49466 1.02477 0
M  V30 3452 H 318.463 -5.46289 4.33837 0
M  V30 3453 H 314.36 -5.65185 3.11826 0
M  V30 3454 H 315.128 -6.4552 5.03235 0
M  V30 3455 N 317.792 -0.46758 -1.50504 0
M  V30 3456 C 318.725 0.374324 -2.25109 0
M  V30 3457 C 319.703 0.99921 -1.28275 0
M  V30 3458 O 320.887 1.03583 -1.57489 0
M  V30 3459 C 318.014 1.52419 -3.02467 0
M  V30 3460 C 317.06 1.01702 -4.14197 0
M  V30 3461 S 317.893 -0.0654477 -5.3546 0
M  V30 3462 C 319.049 1.08837 -6.16365 0
M  V30 3463 H 319.282 -0.258983 -2.9617 0
M  V30 3464 H 316.815 -0.252421 -1.52323 0
M  V30 3465 H 318.773 2.18322 -3.47628 0
M  V30 3466 H 317.434 2.129 -2.30938 0
M  V30 3467 H 316.627 1.87776 -4.67714 0
M  V30 3468 H 316.229 0.435757 -3.71453 0
M  V30 3469 H 318.521 2.00071 -6.47285 0
M  V30 3470 H 319.464 0.592538 -7.05616 0
M  V30 3471 H 319.872 1.34061 -5.4835 0
M  V30 3472 N 319.27 1.56325 -0.20005 0
M  V30 3473 C 320.495 2.02548 0.44597 0
M  V30 3474 C 320.92 1.07922 1.5406 0
M  V30 3475 O 320.278 0.0635775 1.81188 0
M  V30 3476 C 320.326 3.47175 0.974761 0
M  V30 3477 O 319.43 3.55671 2.08739 0
M  V30 3478 H 318.771 0.655862 0.103638 0
M  V30 3479 H 321.301 2.02201 -0.312381 0
M  V30 3480 H 321.311 3.87067 1.2901 0
M  V30 3481 H 319.986 4.15538 0.17347 0
M  V30 3482 H 318.563 3.27657 1.78032 0
M  V30 3483 N 320.748 -0.0735177 1.57428 0
M  V30 3484 C 321.997 -0.771809 1.86349 0
M  V30 3485 C 322.31 -1.78828 0.792452 0
M  V30 3486 O 323.516 -2.53602 0.96945 0
M  V30 3487 C 321.972 -1.42358 3.30548 0
M  V30 3488 C 321.58 -0.445761 4.45777 0
M  V30 3489 C 323.324 -2.10434 3.6867 0
M  V30 3490 C 321.231 -1.10335 5.81016 0
M  V30 3491 H 320.161 -0.291999 0.695164 0
M  V30 3492 H 322.812 -0.0250749 1.83483 0
M  V30 3493 H 321.194 -2.21852 3.28021 0
M  V30 3494 H 322.368 0.319239 4.59693 0
M  V30 3495 H 320.683 0.130457 4.16196 0
M  V30 3496 H 323.28 -2.60405 4.67004 0
M  V30 3497 H 323.623 -2.90298 2.98383 0
M  V30 3498 H 324.156 -1.37773 3.7318 0
M  V30 3499 H 320.895 -0.345061 6.54591 0
M  V30 3500 H 320.415 -1.83925 5.70904 0
M  V30 3501 H 322.094 -1.62367 6.26295 0
M  V30 3502 N 322.226 -1.5378 -0.344866 0
M  V30 3503 C 323.174 -1.82373 -1.4437 0
M  V30 3504 C 324.168 -0.694128 -1.54526 0
M  V30 3505 O 325.374 -0.877442 -1.57165 0
M  V30 3506 H 321.749 -0.577765 -0.481344 0
M  V30 3507 H 323.72 -2.74306 -1.17468 0
M  V30 3508 C 322.469 -2.04898 -2.80913 0
M  V30 3509 H 321.792 -2.9127 -2.73865 0
M  V30 3510 H 323.232 -2.28871 -3.56923 0
M  V30 3511 C 321.691 -0.834116 -3.26411 0
M  V30 3512 O 322.221 -0.0328885 -4.01687 0
M  V30 3513 N 320.427 -0.65171 -2.83198 0
M  V30 3514 H 319.974 -1.30489 -2.22104 0
M  V30 3515 H 319.932 0.159686 -3.13994 0
M  V30 3516 N 323.704 0.605807 -1.45491 0
M  V30 3517 C 324.932 1.39136 -1.5313 0
M  V30 3518 C 325.347 1.88082 -0.164507 0
M  V30 3519 O 324.704 1.62316 0.834247 0
M  V30 3520 C 324.755 2.59463 -2.51716 0
M  V30 3521 O 324.476 2.12551 -3.83084 0
M  V30 3522 C 325.977 3.52301 -2.6907 0
M  V30 3523 H 323.197 0.425849 -0.51855 0
M  V30 3524 H 325.741 0.73865 -1.90694 0
M  V30 3525 H 323.896 3.20772 -2.17219 0
M  V30 3526 H 324.31 2.90744 -4.36541 0
M  V30 3527 H 325.784 4.33271 -3.42024 0
M  V30 3528 H 326.261 4.02757 -1.75167 0
M  V30 3529 H 326.867 2.96845 -3.04571 0
M  V30 3530 N 325.182 1.32811 0.848464 0
M  V30 3531 C 326.132 1.18842 1.94578 0
M  V30 3532 C 327.116 0.0937517 1.60627 0
M  V30 3533 O 328.308 0.320887 1.74067 0
M  V30 3534 C 325.437 0.91999 3.30743 0
M  V30 3535 C 324.523 2.05665 3.70894 0
M  V30 3536 N 324.914 3.30579 3.8282 0
M  V30 3537 C 323.212 1.9612 4.00566 0
M  V30 3538 C 323.913 4.05067 4.17487 0
M  V30 3539 N 322.889 3.33419 4.2934 0
M  V30 3540 H 326.691 2.13536 2.0194 0
M  V30 3541 H 324.205 1.2468 1.0406 0
M  V30 3542 H 326.202 0.800859 4.09136 0
M  V30 3543 H 324.862 -0.0185076 3.24695 0
M  V30 3544 H 325.873 3.65441 3.66978 0
M  V30 3545 H 322.55 1.09871 4.02784 0
M  V30 3546 H 323.94 5.12815 4.34131 0
M  V30 3547 N 326.66 -1.06551 1.16123 0
M  V30 3548 C 327.59 -2.15935 0.88851 0
M  V30 3549 C 328.571 -1.69306 -0.164135 0
M  V30 3550 O 329.756 -1.94193 -0.0167857 0
M  V30 3551 C 326.886 -3.45149 0.385942 0
M  V30 3552 C 325.84 -4.05271 1.3762 0
M  V30 3553 C 325.166 -5.29664 0.732137 0
M  V30 3554 C 326.466 -4.44355 2.74493 0
M  V30 3555 H 328.16 -2.39006 1.80323 0
M  V30 3556 H 325.706 -1.14866 0.868435 0
M  V30 3557 H 327.659 -4.21004 0.182647 0
M  V30 3558 H 326.383 -3.21689 -0.564274 0
M  V30 3559 H 325.042 -3.3147 1.56599 0
M  V30 3560 H 324.69 -5.02499 -0.224483 0
M  V30 3561 H 324.39 -5.70848 1.39307 0
M  V30 3562 H 325.914 -6.08218 0.538802 0
M  V30 3563 H 327.328 -5.11303 2.59311 0
M  V30 3564 H 325.725 -4.96515 3.37035 0
M  V30 3565 H 326.795 -3.55339 3.29943 0
M  V30 3566 N 328.138 -0.959301 -1.25041 0
M  V30 3567 C 329.386 -0.615393 -1.92503 0
M  V30 3568 C 329.707 0.850969 -1.75452 0
M  V30 3569 O 328.977 1.60658 -1.12098 0
M  V30 3570 H 327.557 -0.224613 -0.712431 0
M  V30 3571 H 330.219 -1.21855 -1.5211 0
M  V30 3572 H 329.315 -0.848738 -3.00338 0
M  V30 3573 N 329.616 1.39756 -0.72842 0
M  V30 3574 C 330.563 2.30647 -0.0841519 0
M  V30 3575 C 331.533 1.48869 0.7367 0
M  V30 3576 O 332.718 1.77574 0.698015 0
M  V30 3577 C 329.858 3.35165 0.822091 0
M  V30 3578 C 328.971 4.31999 -0.0106663 0
M  V30 3579 C 328.106 5.23585 0.896241 0
M  V30 3580 C 327.145 6.12072 0.0583381 0
M  V30 3581 N 326.282 6.96035 0.920818 0
M  V30 3582 H 331.122 2.85173 -0.864891 0
M  V30 3583 H 328.659 1.40422 -0.438179 0
M  V30 3584 H 330.617 3.94345 1.36189 0
M  V30 3585 H 329.247 2.8211 1.56888 0
M  V30 3586 H 328.299 3.74492 -0.66781 0
M  V30 3587 H 329.611 4.9443 -0.658825 0
M  V30 3588 H 328.765 5.87759 1.50412 0
M  V30 3589 H 327.504 4.61459 1.57819 0
M  V30 3590 H 326.509 5.46916 -0.562389 0
M  V30 3591 H 327.734 6.76261 -0.6203 0
M  V30 3592 H 325.68 6.36485 1.58818 0
M  V30 3593 H 325.597 7.55284 0.32899 0
M  V30 3594 H 326.865 7.64646 1.51447 0
M  V30 3595 N 331.094 0.475555 1.50254 0
M  V30 3596 C 332.004 -0.321501 2.32387 0
M  V30 3597 C 333.02 -0.991755 1.42969 0
M  V30 3598 O 334.196 -0.978747 1.76018 0
M  V30 3599 C 331.261 -1.38667 3.17762 0
M  V30 3600 C 330.322 -0.732538 4.23004 0
M  V30 3601 C 329.555 -1.74695 5.04299 0
M  V30 3602 O 329.778 -2.97399 4.86734 0
M  V30 3603 O 328.712 -1.31631 5.8733 0
M  V30 3604 H 332.538 0.350071 3.01676 0
M  V30 3605 H 330.123 0.237321 1.47503 0
M  V30 3606 H 332.005 -2.00354 3.70724 0
M  V30 3607 H 330.68 -2.04163 2.51196 0
M  V30 3608 H 329.587 -0.0765902 3.74022 0
M  V30 3609 H 330.92 -0.120452 4.92053 0
M  V30 3610 N 332.573 -1.56217 0.208337 0
M  V30 3611 C 333.505 -2.1695 -0.739276 0
M  V30 3612 C 334.518 -1.13492 -1.1672 0
M  V30 3613 O 335.707 -1.40529 -1.10063 0
M  V30 3614 C 332.807 -2.72755 -2.01142 0
M  V30 3615 C 331.98 -4.0125 -1.74118 0
M  V30 3616 C 331.039 -4.41749 -2.85909 0
M  V30 3617 O 330.065 -5.08912 -2.54946 0
M  V30 3618 N 331.267 -4.06342 -4.14568 0
M  V30 3619 H 334.032 -2.98893 -0.219837 0
M  V30 3620 H 331.593 -1.61878 0.0268445 0
M  V30 3621 H 333.585 -2.96826 -2.75094 0
M  V30 3622 H 332.155 -1.95191 -2.4417 0
M  V30 3623 H 331.375 -3.85173 -0.838775 0
M  V30 3624 H 332.663 -4.851 -1.53477 0
M  V30 3625 H 332.061 -3.52345 -4.42571 0
M  V30 3626 H 330.618 -4.35335 -4.85105 0
M  V30 3627 N 334.051 0.0651679 -1.57465 0
M  V30 3628 C 335.276 0.779605 -1.9219 0
M  V30 3629 C 335.701 1.69988 -0.805333 0
M  V30 3630 O 335.059 1.79685 0.241435 0
M  V30 3631 C 335.107 1.54364 -3.2589 0
M  V30 3632 O 334.211 2.65474 -3.1559 0
M  V30 3633 H 333.552 0.212249 -0.629163 0
M  V30 3634 H 336.082 0.0314294 -2.04576 0
M  V30 3635 H 336.092 1.92146 -3.59922 0
M  V30 3636 H 334.767 0.868457 -4.06732 0
M  V30 3637 H 333.344 2.30501 -2.93128 0
M  V30 3638 N 335.529 1.53961 0.336706 0
M  V30 3639 C 336.945 1.44378 0.680241 0
M  V30 3640 C 337.145 0.606034 1.9217 0
M  V30 3641 O 336.201 0.099688 2.52303 0
M  V30 3642 C 337.514 2.87945 0.8665 0
M  V30 3643 C 339.062 2.97763 0.964682 0
M  V30 3644 C 339.537 4.42453 1.18321 0
M  V30 3645 N 341.028 4.46008 1.25025 0
M  V30 3646 C 341.763 5.55102 1.43697 0
M  V30 3647 N 341.259 6.7419 1.59498 0
M  V30 3648 N 343.052 5.42727 1.463 0
M  V30 3649 H 335.203 2.06918 -0.479455 0
M  V30 3650 H 337.466 0.935634 -0.152619 0
M  V30 3651 H 337.172 3.51691 0.0256937 0
M  V30 3652 H 337.046 3.33293 1.76623 0
M  V30 3653 H 339.433 2.34153 1.796 0
M  V30 3654 H 339.514 2.55766 0.041708 0
M  V30 3655 H 339.158 5.06645 0.356788 0
M  V30 3656 H 339.088 4.82048 2.11985 0
M  V30 3657 H 341.579 3.60196 1.14312 0
M  V30 3658 H 341.892 7.53095 1.734 0
M  V30 3659 H 340.237 6.77123 1.56621 0
M  V30 3660 H 343.428 4.48647 1.33543 0
M  V30 3661 H 343.601 6.27806 1.6051 0
M  V30 3662 N 337.007 -0.598083 1.45811 0
M  V30 3663 C 338.423 -0.919847 1.30426 0
M  V30 3664 C 338.623 -1.99759 0.264303 0
M  V30 3665 O 337.679 -2.50221 -0.338472 0
M  V30 3666 C 338.992 -1.35176 2.68603 0
M  V30 3667 C 340.54 -1.46546 2.76574 0
M  V30 3668 C 341.015 -1.9311 4.15298 0
M  V30 3669 N 342.506 -2.00328 4.1764 0
M  V30 3670 C 343.241 -2.37599 5.21856 0
M  V30 3671 N 342.737 -2.73771 6.36413 0
M  V30 3672 N 344.53 -2.38021 5.09218 0
M  V30 3673 H 336.681 0.114111 2.12093 0
M  V30 3674 H 338.944 -0.0116121 0.947929 0
M  V30 3675 H 338.65 -0.633969 3.45939 0
M  V30 3676 H 338.524 -2.3164 2.97696 0
M  V30 3677 H 340.911 -2.17415 1.99537 0
M  V30 3678 H 340.992 -0.483727 2.51185 0
M  V30 3679 H 340.636 -1.22824 4.92825 0
M  V30 3680 H 340.566 -2.92213 4.38086 0
M  V30 3681 H 343.057 -1.74925 3.34977 0
M  V30 3682 H 343.37 -3.0112 7.11721 0
M  V30 3683 H 341.715 -2.71445 6.39799 0
M  V30 3684 H 344.906 -2.09174 4.18765 0
M  V30 3685 H 345.079 -2.66741 5.90554 0
M  V30 3686 N 338.485 -1.33259 -0.841409 0
M  V30 3687 C 339.762 -1.15174 -1.58096 0
M  V30 3688 C 340.142 0.282858 -2.09196 0
M  V30 3689 O 339.49 1.28151 -1.89181 0
M  V30 3690 C 339.7 -2.1907 -2.71679 0
M  V30 3691 C 341.048 -2.53093 -3.40924 0
M  V30 3692 O 342.072 -2.17717 -2.81918 0
M  V30 3693 O 340.931 -3.1379 -4.47435 0
M  V30 3694 H 338.025 -0.445303 -0.696875 0
M  V30 3695 H 340.571 -1.44833 -0.884385 0
M  V30 3696 H 339.343 -3.15443 -2.31541 0
M  V30 3697 H 338.966 -1.90481 -3.49002 0
M  V30 3698 N 339.963 1.05934 -1.16686 0
M  V30 3699 C 341.24 1.75643 -0.860747 0
M  V30 3700 C 341.62 2.01144 0.640641 0
M  V30 3701 O 340.968 1.64147 1.58959 0
M  V30 3702 C 341.178 3.05493 -1.68745 0
M  V30 3703 C 342.526 3.79581 -1.90271 0
M  V30 3704 O 343.55 3.15344 -1.65641 0
M  V30 3705 O 342.409 4.9499 -2.31618 0
M  V30 3706 H 339.503 0.763426 -0.317977 0
M  V30 3707 H 342.049 1.1217 -1.27342 0
M  V30 3708 H 340.821 2.8264 -2.70611 0
M  V30 3709 H 340.444 3.76702 -1.27206 0
M  V30 3710 N 341.441 0.965919 1.2453 0
M  V30 3711 C 342.371 0.513476 2.27784 0
M  V30 3712 C 343.352 -0.445974 1.6415 0
M  V30 3713 O 344.537 -0.342485 1.91156 0
M  V30 3714 C 341.667 -0.198839 3.4673 0
M  V30 3715 C 340.621 0.676456 4.2262 0
M  V30 3716 C 339.947 -0.167248 5.34438 0
M  V30 3717 C 341.247 1.96017 4.84123 0
M  V30 3718 H 342.941 1.3765 2.65881 0
M  V30 3719 H 340.487 0.663321 1.27813 0
M  V30 3720 H 342.44 -0.526567 4.18097 0
M  V30 3721 H 341.164 -1.0962 3.07654 0
M  V30 3722 H 339.823 0.98743 3.53052 0
M  V30 3723 H 339.471 -1.0647 4.91603 0
M  V30 3724 H 339.171 0.415181 5.86131 0
M  V30 3725 H 340.695 -0.489688 6.08633 0
M  V30 3726 H 342.109 1.69814 5.47573 0
M  V30 3727 H 340.506 2.48918 5.4604 0
M  V30 3728 H 341.576 2.65622 4.05676 0
M  V30 3729 N 342.919 -1.39368 0.735821 0
M  V30 3730 C 343.829 -2.34395 0.0979693 0
M  V30 3731 C 344.845 -1.58361 -0.720968 0
M  V30 3732 O 346.021 -1.90648 -0.649245 0
M  V30 3733 C 343.086 -3.37393 -0.797916 0
M  V30 3734 C 342.147 -4.29287 0.0333662 0
M  V30 3735 C 341.38 -5.27365 -0.819854 0
M  V30 3736 O 341.603 -5.31959 -2.05855 0
M  V30 3737 O 340.537 -6.01389 -0.248079 0
M  V30 3738 H 344.363 -2.90601 0.882315 0
M  V30 3739 H 341.948 -1.40909 0.4965 0
M  V30 3740 H 343.83 -4.00505 -1.31048 0
M  V30 3741 H 342.505 -2.83571 -1.56106 0
M  V30 3742 H 341.412 -3.69395 0.591475 0
M  V30 3743 H 342.745 -4.86317 0.758752 0
M  V30 3744 N 344.397 -0.483516 -1.5 0
M  V30 3745 C 345.36 0.292965 -2.2732 0
M  V30 3746 C 346.36 0.909499 -1.32608 0
M  V30 3747 O 347.55 0.776745 -1.55924 0
M  V30 3748 C 344.682 1.41854 -3.09984 0
M  V30 3749 H 345.875 -0.385289 -2.97415 0
M  V30 3750 H 343.428 -0.237942 -1.54478 0
M  V30 3751 H 344.163 2.13148 -2.44414 0
M  V30 3752 H 343.948 0.982114 -3.79601 0
M  V30 3753 H 345.438 1.96597 -3.68429 0
M  V30 3754 N 345.875 1.56104 -0.216619 0
M  V30 3755 C 346.805 2.23063 0.690296 0
M  V30 3756 C 347.786 1.20072 1.20485 0
M  V30 3757 O 348.971 1.48643 1.24976 0
M  V30 3758 C 346.101 2.90672 1.90072 0
M  V30 3759 C 345.055 4.00092 1.5202 0
M  V30 3760 C 344.381 4.54972 2.80899 0
M  V30 3761 C 345.681 5.17398 0.71391 0
M  V30 3762 H 347.375 2.99109 0.132038 0
M  V30 3763 H 344.921 1.43866 0.0620664 0
M  V30 3764 H 346.874 3.36204 2.54057 0
M  V30 3765 H 345.598 2.12066 2.48386 0
M  V30 3766 H 344.257 3.55283 0.903839 0
M  V30 3767 H 343.905 3.73102 3.37348 0
M  V30 3768 H 343.605 5.28817 2.56176 0
M  V30 3769 H 345.129 5.0322 3.45836 0
M  V30 3770 H 346.543 5.59342 1.25735 0
M  V30 3771 H 344.94 5.97444 0.563951 0
M  V30 3772 H 346.01 4.84088 -0.280527 0
M  V30 3773 N 347.353 -0.0568162 1.57498 0
M  V30 3774 C 348.601 -0.751617 1.87604 0
M  V30 3775 C 348.922 -1.77351 0.81066 0
M  V30 3776 O 348.192 -1.95254 -0.159018 0
M  V30 3777 H 346.772 -0.280583 0.692302 0
M  V30 3778 H 349.434 -0.0293483 1.94878 0
M  V30 3779 H 348.53 -1.25852 2.856 0
M  V30 3780 N 348.832 -1.54138 -0.328536 0
M  V30 3781 C 349.782 -1.79557 -1.4051 0
M  V30 3782 C 350.766 -0.651373 -1.47126 0
M  V30 3783 O 351.958 -0.911226 -1.51742 0
M  V30 3784 C 349.087 -2.02196 -2.77438 0
M  V30 3785 C 348.173 -3.22724 -2.75155 0
M  V30 3786 N 348.564 -4.43881 -2.42494 0
M  V30 3787 C 346.862 -3.24196 -3.06289 0
M  V30 3788 C 347.563 -5.25797 -2.48822 0
M  V30 3789 N 346.539 -4.62862 -2.8506 0
M  V30 3790 H 350.341 -2.70814 -1.1418 0
M  V30 3791 H 347.855 -1.53265 -0.536991 0
M  V30 3792 H 349.852 -2.18546 -3.55026 0
M  V30 3793 H 348.512 -1.12191 -3.04702 0
M  V30 3794 H 349.523 -4.70969 -2.15428 0
M  V30 3795 H 346.2 -2.44208 -3.38627 0
M  V30 3796 H 347.59 -6.32535 -2.26603 0
M  V30 3797 N 350.31 0.590341 -1.46126 0
M  V30 3798 C 351.243 1.71434 -1.50617 0
M  V30 3799 C 352.221 1.58543 -0.360948 0
M  V30 3800 O 353.405 1.79865 -0.563985 0
M  V30 3801 C 350.532 3.09422 -1.37753 0
M  V30 3802 C 349.578 3.40854 -2.5636 0
M  V30 3803 S 350.411 3.33773 -4.18755 0
M  V30 3804 C 351.567 4.74312 -4.08386 0
M  V30 3805 H 351.8 1.67364 -2.45717 0
M  V30 3806 H 349.333 0.76845 -1.33919 0
M  V30 3807 H 351.291 3.8903 -1.31018 0
M  V30 3808 H 349.952 3.10989 -0.440949 0
M  V30 3809 H 349.145 4.41368 -2.43332 0
M  V30 3810 H 348.747 2.68798 -2.60046 0
M  V30 3811 H 351.039 5.64522 -3.74595 0
M  V30 3812 H 351.982 4.92397 -5.08872 0
M  V30 3813 H 352.39 4.50803 -3.3976 0
M  V30 3814 N 351.788 1.33704 0.83433 0
M  V30 3815 C 353.035 1.25417 1.58987 0
M  V30 3816 C 353.363 -0.178869 1.93676 0
M  V30 3817 O 352.618 -1.13723 1.59265 0
M  V30 3818 C 352.917 2.07926 2.90692 0
M  V30 3819 C 352.583 3.57066 2.75345 0
M  V30 3820 C 351.245 3.97724 2.70867 0
M  V30 3821 C 353.597 4.51817 2.59828 0
M  V30 3822 C 350.925 5.31344 2.48778 0
M  V30 3823 C 353.277 5.85604 2.39272 0
M  V30 3824 C 351.941 6.25439 2.33199 0
M  V30 3825 H 351.211 0.458934 0.581774 0
M  V30 3826 H 353.858 1.65335 0.966261 0
M  V30 3827 H 352.163 1.608 3.57282 0
M  V30 3828 H 353.86 1.98868 3.48213 0
M  V30 3829 H 350.45 3.24785 2.79665 0
M  V30 3830 H 354.634 4.21311 2.62319 0
M  V30 3831 H 349.89 5.61241 2.42526 0
M  V30 3832 H 354.064 6.58623 2.2625 0
M  V30 3833 H 351.691 7.28914 2.15843 0
M  V30 3834 N 353.266 -1.05314 1.17247 0
M  V30 3835 C 354.199 -2.12512 0.831507 0
M  V30 3836 C 355.177 -1.61351 -0.201168 0
M  V30 3837 O 356.361 -1.88317 -0.0829831 0
M  V30 3838 C 353.488 -3.37848 0.24015 0
M  V30 3839 C 352.534 -4.07832 1.24801 0
M  V30 3840 S 353.367 -4.56537 2.79882 0
M  V30 3841 C 354.523 -5.85122 2.22223 0
M  V30 3842 H 354.756 -2.41106 1.7394 0
M  V30 3843 H 352.289 -1.17896 0.996988 0
M  V30 3844 H 354.247 -4.10391 -0.0945588 0
M  V30 3845 H 352.908 -3.07392 -0.645668 0
M  V30 3846 H 352.101 -4.97883 0.78287 0
M  V30 3847 H 351.703 -3.41348 1.52831 0
M  V30 3848 H 353.995 -6.58408 1.59703 0
M  V30 3849 H 354.938 -6.36381 3.10523 0
M  V30 3850 H 355.346 -5.39626 1.65722 0
M  V30 3851 N 354.744 -0.972509 -1.24016 0
M  V30 3852 C 355.974 -0.653853 -1.9598 0
M  V30 3853 C 356.382 0.781801 -1.72292 0
M  V30 3854 O 355.725 1.53677 -1.00644 0
M  V30 3855 C 355.787 -0.854608 -3.49194 0
M  V30 3856 C 355.451 -2.27082 -3.96589 0
M  V30 3857 C 356.448 -3.24892 -4.05883 0
M  V30 3858 C 354.133 -2.5998 -4.29786 0
M  V30 3859 C 356.127 -4.53684 -4.47716 0
M  V30 3860 C 353.814 -3.88997 -4.71301 0
M  V30 3861 C 354.812 -4.85661 -4.80232 0
M  V30 3862 O 354.5 -6.12376 -5.20818 0
M  V30 3863 H 354.232 -0.242572 -0.630979 0
M  V30 3864 H 356.786 -1.30431 -1.58673 0
M  V30 3865 H 355.016 -0.146985 -3.86421 0
M  V30 3866 H 356.705 -0.534311 -4.02368 0
M  V30 3867 H 357.471 -3.00805 -3.80449 0
M  V30 3868 H 353.35 -1.85457 -4.22051 0
M  V30 3869 H 356.894 -5.29135 -4.54601 0
M  V30 3870 H 352.791 -4.12882 -4.96184 0
M  V30 3871 H 353.559 -6.16013 -5.38953 0
M  V30 3872 N 356.222 1.38976 -0.743202 0
M  V30 3873 C 357.469 2.00343 -0.294752 0
M  V30 3874 C 357.797 1.58983 1.12047 0
M  V30 3875 O 357.052 0.813809 1.77977 0
M  V30 3876 C 357.351 3.55647 -0.353517 0
M  V30 3877 C 357.017 4.16685 -1.72292 0
M  V30 3878 C 355.679 4.3307 -2.09771 0
M  V30 3879 C 358.031 4.50464 -2.62168 0
M  V30 3880 C 355.359 4.80526 -3.36618 0
M  V30 3881 C 357.711 4.99332 -3.88395 0
M  V30 3882 C 356.375 5.13924 -4.25956 0
M  V30 3883 H 355.645 0.733108 -0.107857 0
M  V30 3884 H 358.292 1.6618 -0.951651 0
M  V30 3885 H 356.597 3.89884 0.386954 0
M  V30 3886 H 358.294 4.00998 0.0117269 0
M  V30 3887 H 354.884 4.04339 -1.42155 0
M  V30 3888 H 359.068 4.37416 -2.3448 0
M  V30 3889 H 354.324 4.90008 -3.65653 0
M  V30 3890 H 358.498 5.2444 -4.58187 0
M  V30 3891 H 356.125 5.50457 -5.2431 0
M  V30 3892 N 357.7 0.491464 1.49741 0
M  V30 3893 C 358.63 -0.28154 2.31796 0
M  V30 3894 C 359.611 -0.971473 1.3963 0
M  V30 3895 O 360.796 -0.964719 1.68543 0
M  V30 3896 C 357.926 -1.35203 3.19902 0
M  V30 3897 C 356.88 -0.782529 4.20786 0
M  V30 3898 C 356.206 -1.95283 4.97764 0
M  V30 3899 C 357.506 0.21999 5.21837 0
M  V30 3900 H 359.2 0.403355 2.96671 0
M  V30 3901 H 356.746 0.195425 1.42668 0
M  V30 3902 H 358.699 -1.90045 3.76113 0
M  V30 3903 H 357.423 -2.06598 2.52953 0
M  V30 3904 H 356.082 -0.255928 3.65706 0
M  V30 3905 H 355.73 -2.65423 4.2727 0
M  V30 3906 H 355.43 -1.57789 5.66018 0
M  V30 3907 H 356.954 -2.50577 5.56816 0
M  V30 3908 H 358.368 -0.23996 5.72798 0
M  V30 3909 H 356.765 0.51026 5.97927 0
M  V30 3910 H 357.835 1.13911 4.7133 0
M  V30 3911 N 359.178 -1.55987 0.224894 0
M  V30 3912 C 360.594 -1.59066 -0.130426 0
M  V30 3913 C 360.794 -1.24176 -1.5869 0
M  V30 3914 O 359.85 -0.978592 -2.32766 0
M  V30 3915 C 361.163 -3.00042 0.198883 0
M  V30 3916 C 362.711 -3.1268 0.141391 0
M  V30 3917 C 363.186 -4.55839 0.444422 0
M  V30 3918 N 364.677 -4.6152 0.394115 0
M  V30 3919 C 365.412 -5.70231 0.602038 0
M  V30 3920 N 364.908 -6.87291 0.871914 0
M  V30 3921 N 366.701 -5.59555 0.534245 0
M  V30 3922 H 358.852 -1.76941 1.17497 0
M  V30 3923 H 361.115 -0.822604 0.471197 0
M  V30 3924 H 360.821 -3.30234 1.2099 0
M  V30 3925 H 360.695 -3.74075 -0.484535 0
M  V30 3926 H 363.082 -2.82283 -0.860265 0
M  V30 3927 H 363.163 -2.40969 0.858335 0
M  V30 3928 H 362.807 -4.86954 1.44353 0
M  V30 3929 H 362.737 -5.2578 -0.293752 0
M  V30 3930 H 365.228 -3.77405 0.193356 0
M  V30 3931 H 365.541 -7.66058 1.01858 0
M  V30 3932 H 363.886 -6.89028 0.909145 0
M  V30 3933 H 367.077 -4.6698 0.323612 0
M  V30 3934 H 367.25 -6.44211 0.699693 0
M  V30 3935 N 360.656 0.0484629 -1.57525 0
M  V30 3936 C 361.904 0.741657 -1.88 0
M  V30 3937 C 362.225 1.76918 -0.820054 0
M  V30 3938 O 361.495 1.95335 0.148661 0
M  V30 3939 H 360.075 0.276908 -0.69378 0
M  V30 3940 H 362.737 0.019013 -1.94891 0
M  V30 3941 H 361.833 1.24336 -2.86264 0
M  V30 3942 N 362.134 1.5431 0.320358 0
M  V30 3943 C 363.359 1.76954 1.08175 0
M  V30 3944 C 363.784 0.518193 1.80821 0
M  V30 3945 O 363.142 -0.530411 1.73368 0
M  V30 3946 C 363.19 2.96451 2.05303 0
M  V30 3947 O 362.294 2.68221 3.13259 0
M  V30 3948 H 361.635 0.586275 0.311733 0
M  V30 3949 H 364.165 2.01342 0.363676 0
M  V30 3950 H 364.175 3.23887 2.48116 0
M  V30 3951 H 362.85 3.87196 1.51829 0
M  V30 3952 H 361.427 2.51744 2.75099 0
M  V30 3953 N 363.613 -0.582584 1.46437 0
M  V30 3954 C 364.543 -1.70187 1.59871 0
M  V30 3955 C 365.524 -1.64066 0.449042 0
M  V30 3956 O 366.709 -1.82081 0.6753 0
M  V30 3957 C 363.839 -3.08827 1.58881 0
M  V30 3958 C 362.793 -3.29779 2.72819 0
M  V30 3959 C 362.119 -4.68947 2.5689 0
M  V30 3960 C 363.419 -3.17601 4.1464 0
M  V30 3961 H 365.113 -1.592 2.53566 0
M  V30 3962 H 362.659 -0.764472 1.22032 0
M  V30 3963 H 364.612 -3.86951 1.66873 0
M  V30 3964 H 363.336 -3.20713 0.617306 0
M  V30 3965 H 361.995 -2.54054 2.64296 0
M  V30 3966 H 361.643 -4.77599 1.57823 0
M  V30 3967 H 361.343 -4.83919 3.33312 0
M  V30 3968 H 362.867 -5.4924 2.66773 0
M  V30 3969 H 364.281 -3.8557 4.24274 0
M  V30 3970 H 362.678 -3.44094 4.9165 0
M  V30 3971 H 363.748 -2.14681 4.34788 0
M  V30 3972 N 365.091 -1.34144 -0.827227 0
M  V30 3973 C 366.502 -1.23557 -1.39966 0
M  V30 3974 C 366.853 0.140731 -1.95695 0
M  V30 3975 O 365.978 1.04087 -1.89723 0
M  V30 3976 C 366.573 -2.23708 -2.54441 0
M  V30 3977 C 365.132 -2.16924 -3.07605 0
M  V30 3978 C 364.279 -2.10549 -1.80456 0
M  V30 3979 H 367.23 -1.45573 -0.631991 0
M  V30 3980 H 367.251 -1.85157 -3.32411 0
M  V30 3981 H 366.763 -3.23866 -2.13851 0
M  V30 3982 H 364.864 -1.20107 -3.52711 0
M  V30 3983 H 364.977 -3.07988 -3.66988 0
M  V30 3984 H 363.341 -1.56203 -2.01178 0
M  V30 3985 H 364.124 -3.12535 -1.42046 0
M  V30 3986 N 366.569 1.04691 -1.17803 0
M  V30 3987 C 367.815 1.78181 -0.980977 0
M  V30 3988 C 368.17 1.86191 0.484825 0
M  V30 3989 O 367.463 1.35436 1.35527 0
M  V30 3990 C 367.657 3.21467 -1.56186 0
M  V30 3991 C 367.486 3.27422 -3.08261 0
M  V30 3992 C 366.256 3.36415 -3.77032 0
M  V30 3993 C 368.454 3.15947 -4.0581 0
M  V30 3994 N 366.436 3.31554 -5.16667 0
M  V30 3995 C 367.807 3.18514 -5.31929 0
M  V30 3996 C 369.862 2.99945 -3.97413 0
M  V30 3997 C 368.565 3.06723 -6.50625 0
M  V30 3998 C 370.591 2.89497 -5.15699 0
M  V30 3999 C 369.953 2.92702 -6.40706 0
M  V30 4000 H 366.052 0.6641 -0.412911 0
M  V30 4001 H 368.636 1.24762 -1.49474 0
M  V30 4002 H 366.807 3.73245 -1.07436 0
M  V30 4003 H 368.539 3.8322 -1.30093 0
M  V30 4004 H 365.294 3.41887 -3.27735 0
M  V30 4005 H 365.718 3.3258 -5.89678 0
M  V30 4006 H 370.36 2.96302 -3.01604 0
M  V30 4007 H 368.078 3.0912 -7.46639 0
M  V30 4008 H 371.664 2.78179 -5.10987 0
M  V30 4009 H 370.544 2.84697 -7.30696 0
M  V30 4010 N 368.047 0.979072 1.23499 0
M  V30 4011 C 368.979 0.476271 2.24197 0
M  V30 4012 C 369.992 -0.421166 1.57258 0
M  V30 4013 O 371.181 -0.225515 1.7707 0
M  V30 4014 C 368.281 -0.330503 3.37285 0
M  V30 4015 C 367.454 0.559744 4.33804 0
M  V30 4016 C 366.513 -0.192954 5.25846 0
M  V30 4017 O 365.539 0.416978 5.67671 0
M  V30 4018 N 366.741 -1.47932 5.61334 0
M  V30 4019 H 369.506 1.34211 2.67969 0
M  V30 4020 H 367.067 0.852189 1.37657 0
M  V30 4021 H 369.059 -0.842361 3.95836 0
M  V30 4022 H 367.629 -1.09734 2.92707 0
M  V30 4023 H 366.849 1.25245 3.73775 0
M  V30 4024 H 368.137 1.1665 4.95248 0
M  V30 4025 H 367.535 -1.9964 5.29302 0
M  V30 4026 H 366.092 -1.93664 6.22364 0
M  V30 4027 N 369.525 -1.3858 0.750561 0
M  V30 4028 C 370.773 -1.99789 0.30477 0
M  V30 4029 C 371.094 -1.59874 -1.11649 0
M  V30 4030 O 370.364 -0.85417 -1.76297 0
M  V30 4031 H 368.944 -0.738902 0.109694 0
M  V30 4032 H 371.606 -1.69391 0.963983 0
M  V30 4033 H 370.702 -3.09952 0.365499 0
M  V30 4034 N 371.003 -0.499398 -1.49478 0
M  V30 4035 C 371.933 0.269244 -2.31943 0
M  V30 4036 C 372.914 0.964054 -1.40143 0
M  V30 4037 O 374.099 0.955767 -1.69052 0
M  V30 4038 C 371.229 1.33504 -3.20615 0
M  V30 4039 C 370.183 0.760202 -4.21195 0
M  V30 4040 C 369.509 1.9264 -4.98792 0
M  V30 4041 C 370.809 -0.247661 -5.21712 0
M  V30 4042 H 372.503 -0.419082 -2.96452 0
M  V30 4043 H 370.049 -0.202988 -1.42562 0
M  V30 4044 H 372.002 1.88048 -3.77115 0
M  V30 4045 H 370.726 2.05253 -2.54045 0
M  V30 4046 H 369.385 0.23653 -3.65836 0
M  V30 4047 H 369.033 2.63154 -4.28671 0
M  V30 4048 H 368.733 1.54785 -5.66847 0
M  V30 4049 H 370.257 2.4762 -5.58137 0
M  V30 4050 H 371.671 0.209579 -5.72917 0
M  V30 4051 H 370.068 -0.541962 -5.97648 0
M  V30 4052 H 371.138 -1.16409 -4.7072 0
M  V30 4053 N 372.481 1.55866 -0.233164 0
M  V30 4054 C 373.428 2.20796 0.67215 0
M  V30 4055 C 374.398 1.16731 1.18166 0
M  V30 4056 O 375.583 1.45129 1.23864 0
M  V30 4057 C 372.723 2.90072 1.86955 0
M  V30 4058 C 371.836 4.08759 1.39786 0
M  V30 4059 C 370.971 4.65787 2.55374 0
M  V30 4060 C 370.01 5.76752 2.04998 0
M  V30 4061 N 369.147 6.28021 3.13901 0
M  V30 4062 H 373.987 2.9779 0.111749 0
M  V30 4063 H 371.524 1.47036 0.0434007 0
M  V30 4064 H 373.482 3.28428 2.57276 0
M  V30 4065 H 372.112 2.15575 2.40265 0
M  V30 4066 H 371.164 3.7581 0.589173 0
M  V30 4067 H 372.476 4.88906 0.98856 0
M  V30 4068 H 371.63 5.06646 3.33758 0
M  V30 4069 H 370.369 3.84828 2.99598 0
M  V30 4070 H 369.374 5.35383 1.25079 0
M  V30 4071 H 370.599 6.59553 1.61759 0
M  V30 4072 H 368.545 5.49971 3.57586 0
M  V30 4073 H 368.462 7.03323 2.7726 0
M  V30 4074 H 369.73 6.73538 3.92386 0
M  V30 4075 N 373.959 -0.0401083 1.57549 0
M  V30 4076 C 374.922 -1.02871 2.04817 0
M  V30 4077 C 375.922 -1.29708 0.950388 0
M  V30 4078 O 377.112 -1.24897 1.21435 0
M  V30 4079 C 374.244 -2.36443 2.45576 0
M  V30 4080 H 375.437 -0.620631 2.93408 0
M  V30 4081 H 372.99 -0.286667 1.53649 0
M  V30 4082 H 373.725 -2.82021 1.60108 0
M  V30 4083 H 373.51 -2.18296 3.25713 0
M  V30 4084 H 375 -3.07441 2.82612 0
M  V30 4085 N 375.437 -1.54477 -0.31217 0
M  V30 4086 C 376.714 -1.63891 -1.06767 0
M  V30 4087 C 377.094 -0.480028 -2.0557 0
M  V30 4088 O 376.442 0.524487 -2.22399 0
M  V30 4089 C 376.652 -3.01402 -1.75948 0
M  V30 4090 C 378 -3.57838 -2.28554 0
M  V30 4091 O 379.024 -3.03782 -1.85998 0
M  V30 4092 O 377.883 -4.52462 -3.06497 0
M  V30 4093 H 374.977 -0.664125 -0.492816 0
M  V30 4094 H 377.523 -1.66823 -0.311149 0
M  V30 4095 H 376.295 -3.77187 -1.04144 0
M  V30 4096 H 375.918 -3.02199 -2.58383 0
M  V30 4097 N 376.915 0.57481 -1.46744 0
M  V30 4098 C 378.143 1.35856 -1.56047 0
M  V30 4099 C 378.558 1.87691 -0.204365 0
M  V30 4100 O 377.915 1.64049 0.79963 0
M  V30 4101 C 377.966 2.54066 -2.57163 0
M  V30 4102 O 377.687 2.04377 -3.87507 0
M  V30 4103 C 379.188 3.46514 -2.76483 0
M  V30 4104 H 376.408 0.414754 -0.527466 0
M  V30 4105 H 378.952 0.698035 -1.92218 0
M  V30 4106 H 377.107 3.16092 -2.23974 0
M  V30 4107 H 377.521 2.81419 -4.4261 0
M  V30 4108 H 378.995 4.25919 -3.51137 0
M  V30 4109 H 379.472 3.98951 -1.83671 0
M  V30 4110 H 380.078 2.90318 -3.10799 0
M  V30 4111 N 378.394 1.34581 0.820102 0
M  V30 4112 C 379.324 1.29038 1.94606 0
M  V30 4113 C 380.305 0.1673 1.69275 0
M  V30 4114 O 381.49 0.360112 1.90832 0
M  V30 4115 C 378.62 1.04793 3.31113 0
M  V30 4116 C 377.574 2.13597 3.70891 0
M  V30 4117 C 376.9 1.74537 5.05412 0
M  V30 4118 C 378.2 3.55451 3.8269 0
M  V30 4119 H 379.894 2.23248 1.99501 0
M  V30 4120 H 377.44 1.0747 0.958449 0
M  V30 4121 H 379.393 0.995592 4.0947 0
M  V30 4122 H 378.117 0.0702565 3.26524 0
M  V30 4123 H 376.776 2.17905 2.9481 0
M  V30 4124 H 376.424 0.754226 4.97313 0
M  V30 4125 H 376.124 2.47361 5.32997 0
M  V30 4126 H 377.648 1.70803 5.86224 0
M  V30 4127 H 379.062 3.5354 4.51312 0
M  V30 4128 H 377.459 4.26922 4.21732 0
M  V30 4129 H 378.529 3.92587 2.84611 0
M  V30 4130 N 379.872 -1.04064 1.18357 0
M  V30 4131 C 380.819 -2.12077 0.910603 0
M  V30 4132 C 381.789 -1.65421 -0.15 0
M  V30 4133 O 382.974 -1.90797 -0.0103614 0
M  V30 4134 C 380.114 -3.42252 0.442472 0
M  V30 4135 C 379.227 -4.0252 1.5685 0
M  V30 4136 C 378.362 -5.20657 1.05309 0
M  V30 4137 C 377.401 -5.72955 2.1538 0
M  V30 4138 N 376.538 -6.8238 1.65233 0
M  V30 4139 H 381.378 -2.34764 1.83548 0
M  V30 4140 H 378.915 -1.15157 0.915279 0
M  V30 4141 H 380.873 -4.16921 0.152534 0
M  V30 4142 H 379.503 -3.19712 -0.445428 0
M  V30 4143 H 378.555 -3.25178 1.97391 0
M  V30 4144 H 379.867 -4.37362 2.39824 0
M  V30 4145 H 379.021 -6.0244 0.717677 0
M  V30 4146 H 377.76 -4.87318 0.19293 0
M  V30 4147 H 376.765 -4.89793 2.49766 0
M  V30 4148 H 377.99 -6.08337 3.01832 0
M  V30 4149 H 375.936 -6.50917 0.815064 0
M  V30 4150 H 375.853 -7.16286 2.41805 0
M  V30 4151 H 377.121 -7.67788 1.34619 0
M  V30 4152 N 381.35 -0.985608 -1.22978 0
M  V30 4153 C 382.26 -0.538548 -2.28335 0
M  V30 4154 C 383.276 0.409163 -1.69121 0
M  V30 4155 O 384.452 0.277797 -1.99475 0
M  V30 4156 C 381.517 0.146867 -3.46389 0
M  V30 4157 C 380.578 -0.842896 -4.20944 0
M  V30 4158 C 379.811 -0.190095 -5.33361 0
M  V30 4159 O 380.034 1.01767 -5.61248 0
M  V30 4160 O 378.968 -0.891289 -5.95264 0
M  V30 4161 H 382.794 -1.41487 -2.68729 0
M  V30 4162 H 380.379 -0.753495 -1.29007 0
M  V30 4163 H 382.261 0.531125 -4.1804 0
M  V30 4164 H 380.936 0.997871 -3.07935 0
M  V30 4165 H 379.843 -1.27795 -3.51595 0
M  V30 4166 H 381.176 -1.66287 -4.6326 0
M  V30 4167 N 382.828 1.3818 -0.7579 0
M  V30 4168 C 384.244 1.5353 -0.435972 0
M  V30 4169 C 384.444 1.71961 1.05032 0
M  V30 4170 O 383.5 1.73307 1.83633 0
M  V30 4171 C 384.813 2.73989 -1.23898 0
M  V30 4172 C 386.361 2.87841 -1.22949 0
M  V30 4173 C 386.836 4.11266 -2.01554 0
M  V30 4174 N 388.327 4.18352 -1.98837 0
M  V30 4175 C 389.062 5.12856 -2.5645 0
M  V30 4176 N 388.558 6.13005 -3.22794 0
M  V30 4177 N 390.351 5.05238 -2.46356 0
M  V30 4178 H 382.502 1.24467 -1.7211 0
M  V30 4179 H 384.765 0.604982 -0.729864 0
M  V30 4180 H 384.471 2.66789 -2.29165 0
M  V30 4181 H 384.345 3.67294 -0.858764 0
M  V30 4182 H 386.732 2.9452 -0.184854 0
M  V30 4183 H 386.813 1.95534 -1.64924 0
M  V30 4184 H 386.457 4.05349 -3.06031 0
M  V30 4185 H 386.387 5.02661 -1.5697 0
M  V30 4186 H 388.878 3.46628 -1.50524 0
M  V30 4187 H 389.191 6.81619 -3.64165 0
M  V30 4188 H 387.536 6.13325 -3.2689 0
M  V30 4189 H 390.727 4.25938 -1.9415 0
M  V30 4190 H 390.9 5.78707 -2.91552 0
M  V30 4191 N 384.306 0.507319 1.49211 0
M  V30 4192 C 385.536 -0.0315292 2.06576 0
M  V30 4193 C 385.944 -1.30791 1.36713 0
M  V30 4194 O 385.287 -1.78324 0.441181 0
M  V30 4195 C 385.349 -0.349104 3.57801 0
M  V30 4196 C 385.013 0.830475 4.49391 0
M  V30 4197 C 386.01 1.72271 4.90529 0
M  V30 4198 C 383.695 1.03107 4.91604 0
M  V30 4199 C 385.689 2.79964 5.72625 0
M  V30 4200 C 383.376 2.11116 5.73475 0
M  V30 4201 C 384.374 2.99379 6.1389 0
M  V30 4202 O 384.062 4.05523 6.94123 0
M  V30 4203 H 383.794 0.0201002 0.675701 0
M  V30 4204 H 386.348 0.705737 1.92895 0
M  V30 4205 H 384.578 -1.14005 3.69513 0
M  V30 4206 H 386.267 -0.827319 3.97379 0
M  V30 4207 H 387.033 1.57958 4.58557 0
M  V30 4208 H 382.912 0.353417 4.59643 0
M  V30 4209 H 386.456 3.48884 6.04091 0
M  V30 4210 H 382.353 2.25421 6.0486 0
M  V30 4211 H 383.121 4.02953 7.1244 0
M  V30 4212 N 385.784 -1.5574 0.241426 0
M  V30 4213 C 386.716 -2.18469 -0.693091 0
M  V30 4214 C 387.729 -1.15942 -1.14286 0
M  V30 4215 O 388.918 -1.42832 -1.07058 0
M  V30 4216 C 386.018 -2.7696 -1.95311 0
M  V30 4217 C 385.191 -4.04853 -1.65568 0
M  V30 4218 C 384.25 -4.47715 -2.76474 0
M  V30 4219 O 383.276 -5.14205 -2.44094 0
M  V30 4220 N 384.478 -4.15044 -4.05855 0
M  V30 4221 H 387.243 -2.99292 -0.156388 0
M  V30 4222 H 384.804 -1.61784 0.0611752 0
M  V30 4223 H 386.796 -3.02594 -2.68736 0
M  V30 4224 H 385.366 -2.00326 -2.39975 0
M  V30 4225 H 384.586 -3.86865 -0.756886 0
M  V30 4226 H 385.874 -4.88246 -1.43153 0
M  V30 4227 H 385.272 -3.61654 -4.34998 0
M  V30 4228 H 383.829 -4.45526 -4.75762 0
M  V30 4229 N 387.262 0.0317525 -1.57568 0
M  V30 4230 C 388.209 1.0332 -2.06382 0
M  V30 4231 C 389.179 1.36082 -0.952414 0
M  V30 4232 O 390.364 1.46466 -1.2228 0
M  V30 4233 C 387.504 2.32989 -2.54578 0
M  V30 4234 C 386.617 2.0641 -3.79498 0
M  V30 4235 C 385.752 3.2993 -4.16317 0
M  V30 4236 C 384.791 2.98893 -5.34162 0
M  V30 4237 N 383.928 4.14857 -5.66426 0
M  V30 4238 H 388.768 0.609982 -2.9169 0
M  V30 4239 H 386.305 0.289573 -1.44222 0
M  V30 4240 H 388.263 3.0875 -2.80587 0
M  V30 4241 H 386.893 2.73039 -1.7219 0
M  V30 4242 H 385.945 1.21158 -3.6059 0
M  V30 4243 H 387.257 1.79513 -4.65378 0
M  V30 4244 H 386.411 4.1406 -4.4344 0
M  V30 4245 H 385.15 3.59938 -3.29083 0
M  V30 4246 H 384.155 2.13164 -5.06795 0
M  V30 4247 H 385.38 2.70165 -6.23047 0
M  V30 4248 H 383.326 4.44821 -4.82151 0
M  V30 4249 H 383.243 3.91374 -6.4681 0
M  V30 4250 H 384.511 4.99868 -5.98124 0
M  V30 4251 N 388.74 1.54641 0.303973 0
M  V30 4252 C 389.989 1.7299 1.03717 0
M  V30 4253 C 390.302 0.521168 1.88529 0
M  V30 4254 O 391.508 0.586408 2.65092 0
M  V30 4255 C 389.964 3.06051 1.89369 0
M  V30 4256 C 389.572 4.34393 1.09574 0
M  V30 4257 C 391.316 3.3376 2.62306 0
M  V30 4258 C 389.223 5.58506 1.94486 0
M  V30 4259 H 388.153 0.64473 0.390947 0
M  V30 4260 H 390.804 1.81124 0.294328 0
M  V30 4261 H 389.186 2.91874 2.67629 0
M  V30 4262 H 390.36 4.59396 0.359485 0
M  V30 4263 H 388.675 4.13597 0.482324 0
M  V30 4264 H 391.272 4.23687 3.26181 0
M  V30 4265 H 391.615 2.52503 3.3098 0
M  V30 4266 H 392.148 3.48894 1.91097 0
M  V30 4267 H 388.887 6.42422 1.30287 0
M  V30 4268 H 388.407 5.37694 2.65792 0
M  V30 4269 H 390.086 5.95651 2.52605 0
M  V30 4270 N 390.218 -0.567019 1.47046 0
M  V30 4271 C 391.466 -1.322 1.52864 0
M  V30 4272 C 391.787 -1.94088 0.188388 0
M  V30 4273 O 391.057 -1.7941 -0.786693 0
M  V30 4274 H 389.637 -0.490894 0.563056 0
M  V30 4275 H 392.299 -0.662879 1.83281 0
M  V30 4276 H 391.395 -2.12062 2.2899 0
M  V30 4277 N 391.696 -1.35014 -0.812953 0
M  V30 4278 C 392.973 -1.18502 -1.55617 0
M  V30 4279 C 393.353 0.238421 -2.09749 0
M  V30 4280 O 392.701 1.2411 -1.91857 0
M  V30 4281 C 392.911 -2.24783 -2.66971 0
M  V30 4282 C 394.259 -2.60268 -3.35478 0
M  V30 4283 O 395.283 -2.23648 -2.77236 0
M  V30 4284 O 394.142 -3.2321 -4.40678 0
M  V30 4285 H 391.236 -0.459984 -0.687272 0
M  V30 4286 H 393.782 -1.46677 -0.853464 0
M  V30 4287 H 392.554 -3.20284 -2.24798 0
M  V30 4288 H 392.177 -1.97841 -3.44884 0
M  V30 4289 N 393.175 1.03435 -1.18907 0
M  V30 4290 C 394.403 1.80381 -1.01342 0
M  V30 4291 C 394.818 1.83649 0.438005 0
M  V30 4292 O 394.175 1.27655 1.30424 0
M  V30 4293 C 394.226 3.25689 -1.56873 0
M  V30 4294 O 393.947 3.22673 -2.96334 0
M  V30 4295 C 395.448 4.19255 -1.44014 0
M  V30 4296 H 392.668 0.56784 -0.35749 0
M  V30 4297 H 395.212 1.30317 -1.576 0
M  V30 4298 H 393.367 3.72962 -1.04777 0
M  V30 4299 H 393.781 4.13748 -3.22355 0
M  V30 4300 H 395.255 5.19123 -1.87657 0
M  V30 4301 H 395.732 4.37467 -0.389815 0
M  V30 4302 H 396.338 3.77851 -1.95214 0
M  V30 4303 N 394.653 0.992116 1.22453 0
M  V30 4304 C 395.6 0.541731 2.24352 0
M  V30 4305 C 396.57 -0.425519 1.60557 0
M  V30 4306 O 397.755 -0.330453 1.87917 0
M  V30 4307 C 394.895 -0.138248 3.44823 0
M  V30 4308 C 394.008 0.870649 4.23136 0
M  V30 4309 C 393.143 0.164269 5.30946 0
M  V30 4310 C 392.182 1.16159 6.00977 0
M  V30 4311 N 391.319 0.483568 7.00433 0
M  V30 4312 H 396.159 1.41541 2.62241 0
M  V30 4313 H 393.696 0.709013 1.28885 0
M  V30 4314 H 395.654 -0.5494 4.13567 0
M  V30 4315 H 394.284 -0.975721 3.077 0
M  V30 4316 H 393.336 1.40013 3.53696 0
M  V30 4317 H 394.648 1.63014 4.7141 0
M  V30 4318 H 393.802 -0.303653 6.0594 0
M  V30 4319 H 392.541 -0.627733 4.83643 0
M  V30 4320 H 391.546 1.64015 5.24766 0
M  V30 4321 H 392.771 1.95445 6.50368 0
M  V30 4322 H 390.717 -0.289012 6.55363 0
M  V30 4323 H 390.634 1.18152 7.4671 0
M  V30 4324 H 391.902 0.0384219 7.79491 0
M  V30 4325 N 396.131 -1.37776 0.765217 0
M  V30 4326 C 397.547 -1.53297 0.444108 0
M  V30 4327 C 397.747 -1.72515 -1.04119 0
M  V30 4328 O 396.803 -1.74278 -1.82711 0
M  V30 4329 C 398.116 -2.73328 1.25349 0
M  V30 4330 C 399.664 -2.87185 1.24473 0
M  V30 4331 C 400.139 -4.10191 2.03733 0
M  V30 4332 N 401.63 -4.17291 2.01053 0
M  V30 4333 C 402.365 -5.11488 2.59166 0
M  V30 4334 N 401.861 -6.11285 3.26041 0
M  V30 4335 N 403.654 -5.03924 2.49032 0
M  V30 4336 H 395.805 -1.23552 1.72768 0
M  V30 4337 H 398.068 -0.601103 0.733062 0
M  V30 4338 H 397.774 -2.6557 2.30577 0
M  V30 4339 H 397.648 -3.66834 0.87823 0
M  V30 4340 H 400.035 -2.94418 0.20047 0
M  V30 4341 H 400.116 -1.94657 1.65959 0
M  V30 4342 H 399.76 -4.0372 3.08176 0
M  V30 4343 H 399.69 -5.01821 1.59633 0
M  V30 4344 H 402.181 -3.45825 1.5236 0
M  V30 4345 H 402.494 -6.79678 3.67774 0
M  V30 4346 H 400.839 -6.11583 3.30138 0
M  V30 4347 H 404.03 -4.24902 1.96407 0
M  V30 4348 H 404.203 -5.77152 2.94617 0
M  V30 4349 N 397.609 -0.515225 -1.4894 0
M  V30 4350 C 398.572 0.244681 -2.2789 0
M  V30 4351 C 399.572 0.881166 -1.34507 0
M  V30 4352 O 400.762 0.743497 -1.57537 0
M  V30 4353 C 397.894 1.35247 -3.12923 0
M  V30 4354 H 399.087 -0.448289 -2.96531 0
M  V30 4355 H 396.64 -0.270656 -1.53939 0
M  V30 4356 H 397.375 2.07916 -2.48881 0
M  V30 4357 H 397.16 0.901374 -3.81599 0
M  V30 4358 H 398.65 1.88737 -3.72516 0
M  V30 4359 N 399.087 1.5561 -0.249682 0
M  V30 4360 C 400.315 2.03411 0.378352 0
M  V30 4361 C 400.73 1.12886 1.51335 0
M  V30 4362 O 400.087 0.143833 1.81932 0
M  V30 4363 C 400.138 3.50537 0.88351 0
M  V30 4364 O 399.859 4.37614 -0.20626 0
M  V30 4365 C 401.36 4.14113 1.58195 0
M  V30 4366 H 398.58 0.664994 0.08958 0
M  V30 4367 H 401.124 2.01044 -0.374357 0
M  V30 4368 H 399.279 3.5343 1.58639 0
M  V30 4369 H 399.693 5.24199 0.177782 0
M  V30 4370 H 401.167 5.18741 1.8871 0
M  V30 4371 H 401.644 3.60767 2.50487 0
M  V30 4372 H 402.25 4.15151 0.923573 0
M  V30 4373 N 400.565 -0.0233959 1.57583 0
M  V30 4374 C 401.976 -0.56927 1.77809 0
M  V30 4375 C 402.327 -1.75284 0.881472 0
M  V30 4376 O 401.452 -2.1626 0.0777805 0
M  V30 4377 C 402.047 -1.03949 3.22459 0
M  V30 4378 C 400.606 -1.53084 3.43864 0
M  V30 4379 C 399.753 -0.471454 2.73263 0
M  V30 4380 H 402.704 0.202825 1.57399 0
M  V30 4381 H 402.725 -1.90661 3.29285 0
M  V30 4382 H 402.237 -0.177865 3.87692 0
M  V30 4383 H 400.338 -2.41414 2.83814 0
M  V30 4384 H 400.451 -1.57443 4.52491 0
M  V30 4385 H 398.815 -0.927788 2.37201 0
M  V30 4386 H 399.598 0.380808 3.41181 0
M  V30 4387 N 402.043 -1.548 -0.295768 0
M  V30 4388 C 403.292 -1.73538 -1.02798 0
M  V30 4389 C 403.605 -0.531159 -1.8825 0
M  V30 4390 O 404.811 -0.600458 -2.64777 0
M  V30 4391 C 403.267 -3.07051 -1.87744 0
M  V30 4392 C 402.875 -4.34968 -1.07269 0
M  V30 4393 C 404.619 -3.35146 -2.60533 0
M  V30 4394 C 402.526 -5.5953 -1.91521 0
M  V30 4395 H 401.456 -0.646794 -0.387522 0
M  V30 4396 H 404.107 -1.81278 -0.284718 0
M  V30 4397 H 402.489 -2.93289 -2.66078 0
M  V30 4398 H 403.663 -4.5958 -0.335117 0
M  V30 4399 H 401.978 -4.13847 -0.460384 0
M  V30 4400 H 404.575 -4.2541 -3.23929 0
M  V30 4401 H 404.918 -2.54255 -3.29636 0
M  V30 4402 H 405.451 -3.49902 -1.89244 0
M  V30 4403 H 402.19 -6.43103 -1.26878 0
M  V30 4404 H 401.71 -5.39096 -2.62937 0
M  V30 4405 H 403.389 -5.96982 -2.49442 0
M  V30 4406 N 403.521 0.559213 -1.47345 0
M  V30 4407 C 404.431 1.69388 -1.62311 0
M  V30 4408 C 405.447 1.6648 -0.505993 0
M  V30 4409 O 406.623 1.85964 -0.773262 0
M  V30 4410 C 403.688 3.05894 -1.63185 0
M  V30 4411 C 402.749 3.19885 -2.86307 0
M  V30 4412 C 401.982 4.49879 -2.87131 0
M  V30 4413 O 402.205 5.35217 -1.97229 0
M  V30 4414 O 401.139 4.67618 -3.78968 0
M  V30 4415 H 404.965 1.59706 -2.58317 0
M  V30 4416 H 402.55 0.728989 -1.30407 0
M  V30 4417 H 404.432 3.87133 -1.66451 0
M  V30 4418 H 403.107 3.15964 -0.70345 0
M  V30 4419 H 402.014 2.38052 -2.88587 0
M  V30 4420 H 403.347 3.14718 -3.78435 0
M  V30 4421 N 404.999 1.35443 0.805782 0
M  V30 4422 C 406.245 1.28952 1.56522 0
M  V30 4423 C 406.578 -0.135597 1.93726 0
M  V30 4424 O 405.853 -1.08516 1.61414 0
M  V30 4425 C 406.136 2.19678 2.85331 0
M  V30 4426 C 405.989 3.7081 2.54598 0
M  V30 4427 C 407.308 2.09495 3.8704 0
M  V30 4428 H 404.427 0.469764 0.567883 0
M  V30 4429 H 407.069 1.65851 0.927001 0
M  V30 4430 H 405.219 1.8834 3.39795 0
M  V30 4431 H 406.891 4.12593 2.06312 0
M  V30 4432 H 405.134 3.91051 1.8778 0
M  V30 4433 H 405.805 4.29679 3.46525 0
M  V30 4434 H 408.281 2.37045 3.41978 0
M  V30 4435 H 407.157 2.75173 4.74943 0
M  V30 4436 H 407.418 1.07714 4.28777 0
M  V30 4437 N 406.477 -1.02803 1.19454 0
M  V30 4438 C 407.407 -2.12999 0.956758 0
M  V30 4439 C 408.388 -1.69743 -0.110188 0
M  V30 4440 O 409.573 -1.94148 0.0450038 0
M  V30 4441 C 406.703 -3.43746 0.495553 0
M  V30 4442 C 405.657 -4.00688 1.50443 0
M  V30 4443 C 404.983 -5.27067 0.900275 0
M  V30 4444 C 406.283 -4.35397 2.8849 0
M  V30 4445 H 407.977 -2.33148 1.87836 0
M  V30 4446 H 405.523 -1.12045 0.904539 0
M  V30 4447 H 407.476 -4.2021 0.316493 0
M  V30 4448 H 406.2 -3.23321 -0.461646 0
M  V30 4449 H 404.859 -3.2632 1.67065 0
M  V30 4450 H 404.507 -5.02959 -0.064503 0
M  V30 4451 H 404.207 -5.66127 1.57397 0
M  V30 4452 H 405.731 -6.06196 0.73203 0
M  V30 4453 H 407.145 -5.02795 2.75446 0
M  V30 4454 H 405.542 -4.85541 3.52661 0
M  V30 4455 H 406.612 -3.44662 3.41081 0
M  V30 4456 N 407.956 -0.998596 -1.21925 0
M  V30 4457 C 409.196 -0.685948 -1.92546 0
M  V30 4458 C 409.56 0.768441 -1.75952 0
M  V30 4459 O 410.761 1.19277 -2.40887 0
M  V30 4460 C 409.032 -1.08767 -3.40448 0
M  V30 4461 S 410.591 -0.894251 -4.29591 0
M  V30 4462 H 407.409 -0.250622 -0.665364 0
M  V30 4463 H 410.011 -1.28207 -1.47591 0
M  V30 4464 H 408.715 -2.14242 -3.50041 0
M  V30 4465 H 408.246 -0.48357 -3.90417 0
M  V30 4466 H 410.261 0.212149 -4.95746 0
M  V30 4467 N 409.434 1.37368 -0.772513 0
M  V30 4468 C 410.344 2.34053 -0.160081 0
M  V30 4469 C 411.36 1.60216 0.678728 0
M  V30 4470 O 412.536 1.92303 0.59847 0
M  V30 4471 C 409.601 3.3939 0.708182 0
M  V30 4472 C 408.662 4.29048 -0.147172 0
M  V30 4473 C 407.895 5.29354 0.679744 0
M  V30 4474 O 408.118 5.3723 1.91678 0
M  V30 4475 O 407.052 6.01835 0.0885444 0
M  V30 4476 H 410.878 2.88159 -0.959053 0
M  V30 4477 H 408.463 1.39543 -0.533685 0
M  V30 4478 H 410.345 4.03839 1.20384 0
M  V30 4479 H 409.02 2.8761 1.48533 0
M  V30 4480 H 407.927 3.67697 -0.689205 0
M  V30 4481 H 409.26 4.84134 -0.887423 0
M  V30 4482 N 410.912 0.523116 1.48665 0
M  V30 4483 C 411.86 -0.256859 2.31177 0
M  V30 4484 C 412.854 -0.94199 1.40794 0
M  V30 4485 O 414.06 -0.867157 1.57735 0
M  V30 4486 H 410.435 -0.1017 0.745091 0
M  V30 4487 H 412.406 0.458739 2.94853 0
M  V30 4488 C 411.155 -1.29503 3.22683 0
M  V30 4489 H 410.478 -0.777248 3.92172 0
M  V30 4490 H 411.918 -1.81233 3.83315 0
M  V30 4491 C 410.377 -2.32501 2.43813 0
M  V30 4492 O 410.907 -3.3881 2.15803 0
M  V30 4493 N 409.113 -2.05538 2.05432 0
M  V30 4494 H 408.66 -1.19104 2.28412 0
M  V30 4495 H 408.618 -2.74676 1.52973 0
M  V30 4496 N 412.39 -1.55475 0.257931 0
M  V30 4497 C 413.637 -1.99207 -0.363728 0
M  V30 4498 C 413.965 -1.1462 -1.57139 0
M  V30 4499 O 413.22 -0.199653 -1.94679 0
M  V30 4500 C 413.519 -3.48183 -0.806433 0
M  V30 4501 C 413.185 -4.49936 0.294684 0
M  V30 4502 C 411.847 -4.77481 0.597076 0
M  V30 4503 C 414.199 -5.10769 1.03751 0
M  V30 4504 C 411.527 -5.63132 1.64618 0
M  V30 4505 C 413.879 -5.97558 2.07622 0
M  V30 4506 C 412.543 -6.23432 2.38514 0
M  V30 4507 H 411.813 -0.728949 -0.133097 0
M  V30 4508 H 414.46 -1.8793 0.368059 0
M  V30 4509 H 412.765 -3.56848 -1.61761 0
M  V30 4510 H 414.462 -3.79415 -1.29789 0
M  V30 4511 H 411.052 -4.28572 0.0488649 0
M  V30 4512 H 415.236 -4.89527 0.817149 0
M  V30 4513 H 410.492 -5.8143 1.89074 0
M  V30 4514 H 414.666 -6.43735 2.65666 0
M  V30 4515 H 412.293 -6.89594 3.19943 0
M  V30 4516 N 413.868 0.0150385 -1.57593 0
M  V30 4517 C 415.279 0.559832 -1.78109 0
M  V30 4518 C 415.63 1.74814 -0.890756 0
M  V30 4519 O 414.755 2.16216 -0.0892482 0
M  V30 4520 C 415.35 1.02238 -3.23006 0
M  V30 4521 C 413.909 1.51258 -3.44671 0
M  V30 4522 C 413.056 0.456955 -2.73509 0
M  V30 4523 H 416.007 -0.211169 -1.57289 0
M  V30 4524 H 416.028 1.88912 -3.30292 0
M  V30 4525 H 415.54 0.157302 -3.87781 0
M  V30 4526 H 413.641 2.39905 -2.8509 0
M  V30 4527 H 413.754 1.55042 -4.5332 0
M  V30 4528 H 412.118 0.915196 -2.37689 0
M  V30 4529 H 412.901 -0.398896 -3.40975 0
M  V30 4530 N 415.346 1.54954 0.287554 0
M  V30 4531 C 416.256 1.8991 1.37736 0
M  V30 4532 C 417.272 0.794701 1.54792 0
M  V30 4533 O 418.448 1.09243 1.69198 0
M  V30 4534 C 415.513 2.15108 2.71899 0
M  V30 4535 C 414.574 3.38752 2.63715 0
M  V30 4536 C 413.807 3.62739 3.91479 0
M  V30 4537 O 414.03 2.89492 4.91478 0
M  V30 4538 O 412.964 4.56267 3.92561 0
M  V30 4539 H 416.79 2.82652 1.11092 0
M  V30 4540 H 414.375 1.41315 0.484807 0
M  V30 4541 H 416.257 2.32806 3.51254 0
M  V30 4542 H 414.932 1.25551 2.9836 0
M  V30 4543 H 413.839 3.26405 1.82786 0
M  V30 4544 H 415.172 4.28483 2.42205 0
M  V30 4545 N 416.824 -0.551391 1.4764 0
M  V30 4546 C 417.757 -1.6738 1.5511 0
M  V30 4547 C 418.735 -1.5753 0.402856 0
M  V30 4548 O 419.919 -1.78307 0.611475 0
M  V30 4549 C 417.046 -3.05661 1.45908 0
M  V30 4550 C 416.092 -3.33938 2.65307 0
M  V30 4551 S 416.925 -3.22553 4.27457 0
M  V30 4552 C 418.081 -4.63317 4.20818 0
M  V30 4553 H 418.314 -1.6079 2.50068 0
M  V30 4554 H 415.847 -0.732674 1.35909 0
M  V30 4555 H 417.805 -3.8542 1.41286 0
M  V30 4556 H 416.466 -3.09711 0.523248 0
M  V30 4557 H 415.659 -4.34761 2.54948 0
M  V30 4558 H 415.261 -2.61809 2.67081 0
M  V30 4559 H 417.553 -5.54391 3.89431 0
M  V30 4560 H 418.496 -4.78732 5.21748 0
M  V30 4561 H 418.904 -4.41636 3.51593 0
M  V30 4562 N 418.302 -1.35869 -0.798587 0
M  V30 4563 C 419.265 -1.29307 -1.89242 0
M  V30 4564 C 420.265 -0.202747 -1.59517 0
M  V30 4565 O 421.455 -0.456957 -1.681 0
M  V30 4566 C 418.587 -1.00229 -3.25833 0
M  V30 4567 H 419.78 -2.26576 -1.96478 0
M  V30 4568 H 417.333 -1.20509 -0.995358 0
M  V30 4569 H 418.068 -0.033801 -3.24282 0
M  V30 4570 H 417.853 -1.79121 -3.48795 0
M  V30 4571 H 419.343 -0.98219 -4.05885 0
M  V30 4572 N 419.78 1.02168 -1.19998 0
M  V30 4573 C 421.008 1.79296 -1.03249 0
M  V30 4574 C 421.423 1.84103 0.418502 0
M  V30 4575 O 420.78 1.29031 1.29063 0
M  V30 4576 C 420.831 3.24007 -1.60319 0
M  V30 4577 O 420.552 3.19512 -2.99739 0
M  V30 4578 C 422.053 4.17704 -1.48453 0
M  V30 4579 H 419.273 0.564016 -0.363493 0
M  V30 4580 H 421.817 1.28639 -1.58973 0
M  V30 4581 H 419.972 3.7183 -1.08727 0
M  V30 4582 H 420.386 4.10306 -3.26725 0
M  V30 4583 H 421.86 5.17104 -1.93153 0
M  V30 4584 H 422.337 4.37029 -0.436193 0
M  V30 4585 H 422.943 3.7576 -1.99211 0
M  V30 4586 N 421.258 1.00505 1.21394 0
M  V30 4587 C 422.488 0.705584 1.94178 0
M  V30 4588 C 422.896 -0.735846 1.74304 0
M  V30 4589 O 422.239 -1.50954 1.04683 0
M  V30 4590 C 422.301 0.94689 3.46806 0
M  V30 4591 C 421.965 2.37517 3.90429 0
M  V30 4592 C 422.962 3.35539 3.97127 0
M  V30 4593 C 420.647 2.71284 4.22742 0
M  V30 4594 C 422.641 4.65395 4.3553 0
M  V30 4595 C 420.328 4.01356 4.60822 0
M  V30 4596 C 421.326 4.98223 4.67186 0
M  V30 4597 O 421.014 6.25969 5.04399 0
M  V30 4598 H 420.746 0.259216 0.624326 0
M  V30 4599 H 423.3 1.34592 1.55159 0
M  V30 4600 H 421.53 0.249386 3.85895 0
M  V30 4601 H 423.219 0.640804 4.0081 0
M  V30 4602 H 423.985 3.10786 3.7234 0
M  V30 4603 H 419.864 1.96581 4.16985 0
M  V30 4604 H 423.408 5.41002 4.40412 0
M  V30 4605 H 419.305 4.25893 4.85063 0
M  V30 4606 H 420.073 6.30085 5.22431 0
M  V30 4607 N 422.737 -1.36956 0.779787 0
M  V30 4608 C 423.667 -2.32761 0.185651 0
M  V30 4609 C 424.648 -1.56177 -0.673989 0
M  V30 4610 O 425.833 -1.84378 -0.609797 0
M  V30 4611 C 422.963 -3.40418 -0.687964 0
M  V30 4612 C 421.917 -4.27941 0.0710102 0
M  V30 4613 C 421.243 -5.26681 -0.922573 0
M  V30 4614 C 422.543 -5.07006 1.25467 0
M  V30 4615 H 424.237 -2.82698 0.986008 0
M  V30 4616 H 421.783 -1.3592 0.475592 0
M  V30 4617 H 423.736 -4.06423 -1.11348 0
M  V30 4618 H 422.46 -2.89025 -1.52093 0
M  V30 4619 H 421.119 -3.63478 0.47739 0
M  V30 4620 H 420.767 -4.71565 -1.7503 0
M  V30 4621 H 420.467 -5.86103 -0.419237 0
M  V30 4622 H 421.991 -5.9556 -1.34686 0
M  V30 4623 H 423.405 -5.66105 0.905401 0
M  V30 4624 H 421.802 -5.75793 1.69063 0
M  V30 4625 H 422.872 -4.3921 2.05481 0
M  V30 4626 N 424.215 -0.530993 -1.48385 0
M  V30 4627 C 425.631 -0.188919 -1.58478 0
M  V30 4628 C 425.831 1.30786 -1.53288 0
M  V30 4629 O 424.887 2.08619 -1.42248 0
M  V30 4630 C 426.2 -0.792343 -2.90073 0
M  V30 4631 C 427.748 -0.76117 -3.03604 0
M  V30 4632 C 428.223 -1.34319 -4.37861 0
M  V30 4633 N 429.714 -1.3052 -4.44431 0
M  V30 4634 C 430.449 -1.72543 -5.46824 0
M  V30 4635 N 429.945 -2.22299 -6.56167 0
M  V30 4636 N 431.738 -1.63773 -5.37712 0
M  V30 4637 H 423.889 -1.50377 -1.50002 0
M  V30 4638 H 426.152 -0.625559 -0.712306 0
M  V30 4639 H 425.858 -1.84323 -2.99529 0
M  V30 4640 H 425.732 -0.270026 -3.76232 0
M  V30 4641 H 428.119 0.280957 -2.93759 0
M  V30 4642 H 428.2 -1.32097 -2.19053 0
M  V30 4643 H 427.844 -2.38425 -4.4846 0
M  V30 4644 H 427.774 -0.759064 -5.21101 0
M  V30 4645 H 430.265 -0.940973 -3.65997 0
M  V30 4646 H 430.578 -2.52356 -7.30436 0
M  V30 4647 H 428.923 -2.26293 -6.57127 0
M  V30 4648 H 432.114 -1.24698 -4.51185 0
M  V30 4649 H 432.287 -1.96844 -6.17379 0
M  V30 4650 N 425.693 1.55336 -0.266172 0
M  V30 4651 C 426.923 2.03506 0.356239 0
M  V30 4652 C 427.331 1.14426 1.50676 0
M  V30 4653 O 426.674 0.155043 1.83045 0
M  V30 4654 C 426.736 3.47848 0.90785 0
M  V30 4655 C 426.4 4.56861 -0.112888 0
M  V30 4656 C 427.397 5.11528 -0.929264 0
M  V30 4657 C 425.082 5.01704 -0.244546 0
M  V30 4658 C 427.076 6.09549 -1.86357 0
M  V30 4659 C 424.763 5.99553 -1.18234 0
M  V30 4660 C 425.761 6.53356 -1.99036 0
M  V30 4661 O 425.449 7.49293 -2.91231 0
M  V30 4662 H 425.181 0.670444 0.08649 0
M  V30 4663 H 427.735 2.01598 -0.39337 0
M  V30 4664 H 425.965 3.46967 1.70737 0
M  V30 4665 H 427.654 3.79407 1.44239 0
M  V30 4666 H 428.42 4.77701 -0.838237 0
M  V30 4667 H 424.299 4.59477 0.374359 0
M  V30 4668 H 427.843 6.51469 -2.49467 0
M  V30 4669 H 423.74 6.32799 -1.27421 0
M  V30 4670 H 424.508 7.66978 -2.8581 0
M  V30 4671 N 427.171 -0.0066808 1.57599 0
M  V30 4672 C 428.417 -0.693947 1.90558 0
M  V30 4673 C 428.75 -1.73792 0.866594 0
M  V30 4674 O 428.025 -1.94156 -0.115548 0
M  V30 4675 C 428.308 -1.34317 3.34112 0
M  V30 4676 C 428.161 -0.311189 4.48722 0
M  V30 4677 C 429.48 -2.27116 3.7697 0
M  V30 4678 H 426.599 -0.250803 0.693013 0
M  V30 4679 H 429.241 0.043242 1.89951 0
M  V30 4680 H 427.391 -1.9715 3.3476 0
M  V30 4681 H 429.063 0.316944 4.6021 0
M  V30 4682 H 427.306 0.367253 4.32243 0
M  V30 4683 H 427.977 -0.804366 5.46108 0
M  V30 4684 H 430.453 -1.74306 3.77831 0
M  V30 4685 H 429.329 -2.69511 4.78179 0
M  V30 4686 H 429.59 -3.14743 3.10466 0
M  V30 4687 N 428.649 -1.55105 -0.279332 0
M  V30 4688 C 430.065 -1.46803 -0.626187 0
M  V30 4689 C 430.265 -0.676939 -1.89789 0
M  V30 4690 O 429.321 -0.19326 -2.51759 0
M  V30 4691 C 430.634 -2.90962 -0.759034 0
M  V30 4692 C 432.182 -3.01138 -0.853504 0
M  V30 4693 C 432.657 -4.46539 -1.01818 0
M  V30 4694 N 434.148 -4.50341 -1.08386 0
M  V30 4695 C 434.883 -5.60053 -1.22996 0
M  V30 4696 N 434.379 -6.79645 -1.34366 0
M  V30 4697 N 436.172 -5.47783 -1.26056 0
M  V30 4698 H 428.323 -2.04996 0.555921 0
M  V30 4699 H 430.586 -0.929325 0.187239 0
M  V30 4700 H 430.292 -3.51544 0.104852 0
M  V30 4701 H 430.166 -3.39619 -1.64131 0
M  V30 4702 H 432.553 -2.40658 -1.70786 0
M  V30 4703 H 432.634 -2.55745 0.0532466 0
M  V30 4704 H 432.278 -5.0762 -0.168504 0
M  V30 4705 H 432.208 -4.89583 -1.93948 0
M  V30 4706 H 434.699 -3.64191 -1.00864 0
M  V30 4707 H 435.012 -7.59012 -1.4533 0
M  V30 4708 H 433.357 -6.82469 -1.31382 0
M  V30 4709 H 436.548 -4.53294 -1.168 0
M  V30 4710 H 436.721 -6.33331 -1.37098 0
M  V30 4711 N 430.127 0.543554 -1.4793 0
M  V30 4712 C 431.543 0.870806 -1.3375 0
M  V30 4713 C 431.743 1.9864 -0.338261 0
M  V30 4714 O 430.799 2.51305 0.245371 0
M  V30 4715 C 432.112 1.25114 -2.73435 0
M  V30 4716 C 433.66 1.3618 -2.81823 0
M  V30 4717 C 434.135 1.77563 -4.22179 0
M  V30 4718 N 435.626 1.8469 -4.24787 0
M  V30 4719 C 436.361 2.18067 -5.30315 0
M  V30 4720 N 435.857 2.49963 -6.46135 0
M  V30 4721 N 437.65 2.18958 -5.17701 0
M  V30 4722 H 429.801 -0.19275 -2.11524 0
M  V30 4723 H 432.064 -0.0235777 -0.947707 0
M  V30 4724 H 431.77 0.50514 -3.48053 0
M  V30 4725 H 431.644 2.20431 -3.06088 0
M  V30 4726 H 434.031 2.09859 -2.07468 0
M  V30 4727 H 434.112 0.390169 -2.52807 0
M  V30 4728 H 433.756 1.04449 -4.97044 0
M  V30 4729 H 433.686 2.75753 -4.48629 0
M  V30 4730 H 436.177 1.62372 -3.41239 0
M  V30 4731 H 436.49 2.74497 -7.22406 0
M  V30 4732 H 434.835 2.47513 -6.49432 0
M  V30 4733 H 438.026 1.93488 -4.2624 0
M  V30 4734 H 438.199 2.44639 -6.00047 0
M  V30 4735 N 431.605 1.3629 0.791371 0
M  V30 4736 C 432.535 1.33137 1.91825 0
M  V30 4737 C 433.516 0.203168 1.68882 0
M  V30 4738 O 434.701 0.400509 1.90025 0
M  V30 4739 C 431.831 1.11793 3.28816 0
M  V30 4740 C 430.785 2.21417 3.66277 0
M  V30 4741 C 430.111 1.85218 5.01596 0
M  V30 4742 C 431.411 3.63489 3.75064 0
M  V30 4743 H 433.105 2.2743 1.9472 0
M  V30 4744 H 430.651 1.09479 0.935437 0
M  V30 4745 H 432.604 1.08222 4.07266 0
M  V30 4746 H 431.328 0.139501 3.26302 0
M  V30 4747 H 429.987 2.2411 2.90121 0
M  V30 4748 H 429.635 0.859544 4.95602 0
M  V30 4749 H 429.335 2.58611 5.27631 0
M  V30 4750 H 430.859 1.832 5.82469 0
M  V30 4751 H 432.273 3.63034 4.43711 0
M  V30 4752 H 430.67 4.35771 4.12582 0
M  V30 4753 H 431.74 3.98536 2.76219 0
M  V30 4754 N 433.083 -1.0153 1.20538 0
M  V30 4755 C 434.36 -1.72327 0.925343 0
M  V30 4756 C 434.74 -2.03383 -0.565547 0
M  V30 4757 O 434.088 -1.69934 -1.52757 0
M  V30 4758 C 434.298 -2.9902 1.79967 0
M  V30 4759 C 435.646 -3.72258 2.04228 0
M  V30 4760 O 436.67 -3.08979 1.77231 0
M  V30 4761 O 435.529 -4.86053 2.4983 0
M  V30 4762 H 432.623 -0.751099 0.346092 0
M  V30 4763 H 435.169 -1.07366 1.31417 0
M  V30 4764 H 433.941 -2.72402 2.80915 0
M  V30 4765 H 433.564 -3.71721 1.41099 0
M  V30 4766 N 434.561 -1.01147 -1.20859 0
M  V30 4767 C 435.808 -0.697865 -1.90095 0
M  V30 4768 C 436.136 0.772014 -1.78522 0
M  V30 4769 O 435.391 1.57595 -1.16027 0
M  V30 4770 C 435.69 -1.0727 -3.40922 0
M  V30 4771 C 435.356 -2.53792 -3.72693 0
M  V30 4772 C 434.018 -2.93829 -3.81075 0
M  V30 4773 C 436.37 -3.48674 -3.87397 0
M  V30 4774 C 433.698 -4.27696 -4.01613 0
M  V30 4775 C 436.05 -4.82223 -4.09444 0
M  V30 4776 C 434.714 -5.21973 -4.16054 0
M  V30 4777 H 433.984 -0.255367 -0.695607 0
M  V30 4778 H 436.631 -1.27111 -1.43231 0
M  V30 4779 H 434.936 -0.417799 -3.89566 0
M  V30 4780 H 436.633 -0.807818 -3.92779 0
M  V30 4781 H 433.223 -2.21768 -3.66765 0
M  V30 4782 H 437.407 -3.18904 -3.80281 0
M  V30 4783 H 432.663 -4.58055 -4.04964 0
M  V30 4784 H 436.837 -5.55672 -4.19763 0
M  V30 4785 H 434.464 -6.25717 -4.31721 0
M  V30 4786 N 436.039 1.36541 -0.78704 0
M  V30 4787 C 437.286 1.99304 -0.358341 0
M  V30 4788 C 437.614 1.62467 1.06933 0
M  V30 4789 O 436.869 0.870019 1.75297 0
M  V30 4790 C 437.168 3.54343 -0.466485 0
M  V30 4791 C 436.834 4.10993 -1.85461 0
M  V30 4792 C 435.496 4.26177 -2.23443 0
M  V30 4793 C 437.848 4.41895 -2.76366 0
M  V30 4794 C 435.176 4.69573 -3.51736 0
M  V30 4795 C 437.528 4.86722 -4.04084 0
M  V30 4796 C 436.192 5.00112 -4.42091 0
M  V30 4797 H 435.462 0.729306 -0.131126 0
M  V30 4798 H 438.109 1.63068 -1.00404 0
M  V30 4799 H 436.414 3.90918 0.262719 0
M  V30 4800 H 438.111 4.00833 -0.115854 0
M  V30 4801 H 434.701 3.99612 -1.54946 0
M  V30 4802 H 438.885 4.29735 -2.48277 0
M  V30 4803 H 434.141 4.78127 -3.81057 0
M  V30 4804 H 438.315 5.09598 -4.7464 0
M  V30 4805 H 435.942 5.33498 -5.41557 0
M  V30 4806 N 437.518 0.538854 1.48102 0
M  V30 4807 C 438.428 -0.222648 2.33541 0
M  V30 4808 C 439.444 -0.930225 1.47047 0
M  V30 4809 O 440.62 -0.903211 1.80011 0
M  V30 4810 C 437.685 -1.25064 3.23357 0
M  V30 4811 C 436.746 -0.552469 4.2573 0
M  V30 4812 C 435.979 -1.53149 5.11254 0
M  V30 4813 O 436.202 -2.76487 4.9891 0
M  V30 4814 O 435.136 -1.06602 5.92385 0
M  V30 4815 H 438.962 0.477707 2.99919 0
M  V30 4816 H 436.547 0.299669 1.46364 0
M  V30 4817 H 438.429 -1.8445 3.78888 0
M  V30 4818 H 437.104 -1.93325 2.59629 0
M  V30 4819 H 436.011 0.082114 3.7401 0
M  V30 4820 H 437.344 0.0883526 4.92121 0
M  V30 4821 N 438.996 -1.55193 0.274407 0
M  V30 4822 C 439.943 -2.225 -0.613374 0
M  V30 4823 C 440.913 -1.19823 -1.15029 0
M  V30 4824 O 442.098 -1.48362 -1.19973 0
M  V30 4825 C 439.238 -2.94927 -1.79199 0
M  V30 4826 C 438.351 -4.12322 -1.28899 0
M  V30 4827 C 437.486 -4.72394 -2.42934 0
M  V30 4828 C 436.525 -5.81984 -1.89634 0
M  V30 4829 N 435.662 -6.36123 -2.9714 0
M  V30 4830 H 440.502 -2.97982 -0.032756 0
M  V30 4831 H 438.039 -1.47099 -0.00440146 0
M  V30 4832 H 439.997 -3.35134 -2.48478 0
M  V30 4833 H 438.627 -2.2187 -2.34465 0
M  V30 4834 H 437.679 -3.7724 -0.489327 0
M  V30 4835 H 438.991 -4.91355 -0.858587 0
M  V30 4836 H 438.145 -5.15317 -3.20208 0
M  V30 4837 H 436.884 -3.92636 -2.8929 0
M  V30 4838 H 435.889 -5.38511 -1.1084 0
M  V30 4839 H 437.114 -6.6361 -1.44215 0
M  V30 4840 H 435.06 -5.59259 -3.42878 0
M  V30 4841 H 434.977 -7.10427 -2.58515 0
M  V30 4842 H 436.245 -6.83704 -3.74391 0
M  V30 4843 N 440.474 -0.00167713 -1.576 0
M  V30 4844 C 441.885 0.54091 -1.78693 0
M  V30 4845 C 442.236 1.7386 -0.909247 0
M  V30 4846 O 441.361 2.16109 -0.112176 0
M  V30 4847 C 441.956 0.98806 -3.24072 0
M  V30 4848 C 440.515 1.47594 -3.46256 0
M  V30 4849 C 439.662 0.42792 -2.73978 0
M  V30 4850 H 442.613 -0.22784 -1.57056 0
M  V30 4851 H 442.634 1.85398 -3.32277 0
M  V30 4852 H 442.146 0.116164 -3.87926 0
M  V30 4853 H 440.247 2.36868 -2.87618 0
M  V30 4854 H 440.36 1.50225 -4.54939 0
M  V30 4855 H 438.724 0.889934 -2.38647 0
M  V30 4856 H 439.507 -0.435038 -3.40532 0
M  V30 4857 N 441.952 1.55251 0.271103 0
M  V30 4858 C 443.229 1.66664 1.02384 0
M  V30 4859 C 443.609 0.534363 2.04225 0
M  V30 4860 O 442.957 -0.465337 2.23712 0
M  V30 4861 C 443.167 3.05961 1.67895 0
M  V30 4862 C 444.515 3.63772 2.18986 0
M  V30 4863 O 445.539 3.08606 1.77878 0
M  V30 4864 O 444.398 4.60429 2.94393 0
M  V30 4865 H 441.492 0.676957 0.475035 0
M  V30 4866 H 444.038 1.67589 0.26681 0
M  V30 4867 H 442.81 3.79815 0.941071 0
M  V30 4868 H 442.433 3.08943 2.5028 0
M  V30 4869 N 443.43 -0.535701 1.48216 0
M  V30 4870 C 444.66 -1.3148 1.59363 0
M  V30 4871 C 445.068 -1.8753 0.250844 0
M  V30 4872 O 444.411 -1.66821 -0.769174 0
M  V30 4873 C 444.473 -2.50731 2.57632 0
M  V30 4874 C 444.137 -2.15811 4.02833 0
M  V30 4875 C 445.134 -1.71822 4.90686 0
M  V30 4876 C 442.819 -2.26509 4.48329 0
M  V30 4877 C 444.813 -1.3899 6.22062 0
M  V30 4878 C 442.5 -1.93289 5.79726 0
M  V30 4879 C 443.498 -1.49599 6.66415 0
M  V30 4880 O 443.186 -1.16812 7.95368 0
M  V30 4881 H 442.918 -0.406315 0.540263 0
M  V30 4882 H 445.472 -0.653569 1.94725 0
M  V30 4883 H 443.702 -3.19817 2.1738 0
M  V30 4884 H 445.391 -3.12797 2.58675 0
M  V30 4885 H 446.157 -1.63031 4.56778 0
M  V30 4886 H 442.036 -2.59471 3.81045 0
M  V30 4887 H 445.58 -1.04816 6.89681 0
M  V30 4888 H 441.477 -2.01718 6.13172 0
M  V30 4889 H 442.245 -1.30259 8.08069 0
M  V30 4890 N 444.908 -1.36708 -0.784132 0
M  V30 4891 C 446.185 -1.21776 -1.53069 0
M  V30 4892 C 446.565 0.193876 -2.10208 0
M  V30 4893 O 445.913 1.20012 -1.94446 0
M  V30 4894 C 446.123 -2.30395 -2.62143 0
M  V30 4895 C 447.471 -2.67325 -3.29882 0
M  V30 4896 O 448.495 -2.29478 -2.7243 0
M  V30 4897 O 447.354 -3.32485 -4.33724 0
M  V30 4898 H 444.448 -0.474459 -0.677361 0
M  V30 4899 H 446.994 -1.48454 -0.82216 0
M  V30 4900 H 445.766 -3.2498 -2.17953 0
M  V30 4901 H 445.389 -2.05112 -3.40609 0
M  V30 4902 N 446.386 1.0089 -1.21074 0
M  V30 4903 C 447.616 1.77933 -1.04993 0
M  V30 4904 C 448.024 1.84847 0.403495 0
M  V30 4905 O 447.367 1.30606 1.29181 0
M  V30 4906 C 447.429 3.23541 -1.56722 0
M  V30 4907 C 447.093 3.40214 -3.05129 0
M  V30 4908 C 448.09 3.2881 -4.02716 0
M  V30 4909 C 445.775 3.65781 -3.44252 0
M  V30 4910 C 447.769 3.42732 -5.37414 0
M  V30 4911 C 445.456 3.79346 -4.79103 0
M  V30 4912 C 446.454 3.67827 -5.75493 0
M  V30 4913 O 446.142 3.80965 -7.07899 0
M  V30 4914 H 445.874 0.566157 -0.369381 0
M  V30 4915 H 448.428 1.27826 -1.60779 0
M  V30 4916 H 446.658 3.74766 -0.953285 0
M  V30 4917 H 448.347 3.82245 -1.36543 0
M  V30 4918 H 449.113 3.08986 -3.73835 0
M  V30 4919 H 444.992 3.73831 -2.69762 0
M  V30 4920 H 448.536 3.33658 -6.12632 0
M  V30 4921 H 444.433 3.98672 -5.07672 0
M  V30 4922 H 445.201 3.97937 -7.15254 0
M  V30 4923 N 447.864 1.01787 1.20321 0
M  V30 4924 C 448.794 0.609625 2.25401 0
M  V30 4925 C 449.775 -0.375951 1.65893 0
M  V30 4926 O 450.96 -0.261101 1.92437 0
M  V30 4927 C 448.09 -0.0515995 3.47262 0
M  V30 4928 C 447.044 0.855095 4.19371 0
M  V30 4929 C 446.37 0.0595757 5.34667 0
M  V30 4930 C 447.67 2.16374 4.75373 0
M  V30 4931 H 449.364 1.48803 2.59804 0
M  V30 4932 H 446.91 0.716934 1.24884 0
M  V30 4933 H 448.863 -0.348764 4.19954 0
M  V30 4934 H 447.587 -0.964726 3.12027 0
M  V30 4935 H 446.246 1.13628 3.48546 0
M  V30 4936 H 445.894 -0.85524 4.95676 0
M  V30 4937 H 445.594 0.663406 5.83843 0
M  V30 4938 H 447.118 -0.231105 6.10162 0
M  V30 4939 H 448.532 1.92885 5.39878 0
M  V30 4940 H 446.929 2.71853 5.34991 0
M  V30 4941 H 447.999 2.82589 3.94045 0
M  V30 4942 N 449.342 -1.36122 0.79427 0
M  V30 4943 C 450.758 -1.5232 0.476525 0
M  V30 4944 C 450.958 -1.74685 -1.00436 0
M  V30 4945 O 450.014 -1.78115 -1.78973 0
M  V30 4946 C 451.327 -2.70607 1.31119 0
M  V30 4947 C 452.875 -2.8448 1.30537 0
M  V30 4948 C 453.35 -4.05778 2.12387 0
M  V30 4949 N 454.841 -4.12933 2.09859 0
M  V30 4950 C 455.576 -5.05876 2.69957 0
M  V30 4951 N 455.072 -6.04232 3.38934 0
M  V30 4952 N 456.865 -4.98528 2.59665 0
M  V30 4953 H 449.016 -1.1986 1.75349 0
M  V30 4954 H 451.279 -0.585418 0.745647 0
M  V30 4955 H 450.985 -2.60619 2.36158 0
M  V30 4956 H 450.859 -3.64888 0.955843 0
M  V30 4957 H 453.246 -2.93927 0.262876 0
M  V30 4958 H 453.327 -1.91093 1.70051 0
M  V30 4959 H 452.971 -3.97092 3.1667 0
M  V30 4960 H 452.901 -4.98323 1.70242 0
M  V30 4961 H 455.392 -3.42515 1.59662 0
M  V30 4962 H 455.705 -6.71724 3.82109 0
M  V30 4963 H 454.05 -6.04443 3.43036 0
M  V30 4964 H 457.241 -4.20641 2.05375 0
M  V30 4965 H 457.414 -5.70773 3.06793 0
M  V30 4966 N 450.82 -0.546701 -1.47814 0
M  V30 4967 C 451.767 0.206854 -2.29871 0
M  V30 4968 C 452.737 0.918235 -1.38411 0
M  V30 4969 O 453.922 0.915991 -1.67375 0
M  V30 4970 C 451.062 1.23746 -3.22151 0
M  V30 4971 C 450.175 0.533216 -4.28697 0
M  V30 4972 C 449.31 1.5482 -5.08138 0
M  V30 4973 C 448.349 0.828347 -6.06469 0
M  V30 4974 N 447.486 1.78966 -6.78908 0
M  V30 4975 H 452.326 -0.499037 -2.93792 0
M  V30 4976 H 449.863 -0.25793 -1.44821 0
M  V30 4977 H 451.821 1.84746 -3.74065 0
M  V30 4978 H 450.451 1.91151 -2.60117 0
M  V30 4979 H 449.503 -0.191089 -3.7992 0
M  V30 4980 H 450.815 -0.0311987 -4.9879 0
M  V30 4981 H 449.969 2.23202 -5.6415 0
M  V30 4982 H 448.708 2.14652 -4.37922 0
M  V30 4983 H 447.713 0.130539 -5.49645 0
M  V30 4984 H 448.938 0.235907 -6.7869 0
M  V30 4985 H 446.884 2.37675 -6.1143 0
M  V30 4986 H 446.801 1.27712 -7.45135 0
M  V30 4987 H 448.069 2.46496 -7.395 0
M  V30 4988 N 452.299 1.55045 -0.282633 0
M  V30 4989 C 453.229 2.2579 0.595066 0
M  V30 4990 C 454.21 1.25074 1.15284 0
M  V30 4991 O 455.395 1.5381 1.18559 0
M  V30 4992 C 452.525 2.98472 1.77572 0
M  V30 4993 C 451.479 4.0618 1.34914 0
M  V30 4994 C 450.805 4.66477 2.6135 0
M  V30 4995 C 452.105 5.1996 0.493821 0
M  V30 4996 H 453.799 2.994 0.00505653 0
M  V30 4997 H 451.345 1.44 0.000992001 0
M  V30 4998 H 453.298 3.46677 2.39568 0
M  V30 4999 H 452.022 2.2241 2.39168 0
M  V30 5000 H 450.681 3.58797 0.752338 0
M  V30 5001 H 450.329 3.87074 3.2122 0
M  V30 5002 H 450.029 5.39207 2.33516 0
M  V30 5003 H 451.553 5.17435 3.24181 0
M  V30 5004 H 452.967 5.64172 1.01898 0
M  V30 5005 H 451.364 5.99299 0.310047 0
M  V30 5006 H 452.434 4.82462 -0.485593 0
M  V30 5007 N 453.777 0.010035 1.57597 0
M  V30 5008 C 455.024 -0.6727 1.91 0
M  V30 5009 C 455.352 -1.73219 0.884614 0
M  V30 5010 O 454.607 -1.95395 -0.109215 0
M  V30 5011 C 454.906 -1.34434 3.31153 0
M  V30 5012 C 454.572 -0.417083 4.48967 0
M  V30 5013 C 453.234 -0.161809 4.80928 0
M  V30 5014 C 455.586 0.220753 5.20732 0
M  V30 5015 C 452.914 0.739426 5.82022 0
M  V30 5016 C 455.266 1.10993 6.22787 0
M  V30 5017 C 453.93 1.37428 6.532 0
M  V30 5018 H 453.2 -0.246158 0.698918 0
M  V30 5019 H 455.847 0.0677145 1.9138 0
M  V30 5020 H 454.152 -2.15905 3.26944 0
M  V30 5021 H 455.849 -1.87883 3.54261 0
M  V30 5022 H 452.439 -0.626217 4.24001 0
M  V30 5023 H 456.623 0.0365643 4.96287 0
M  V30 5024 H 451.879 0.952139 6.03941 0
M  V30 5025 H 456.053 1.61046 6.77523 0
M  V30 5026 H 453.68 2.0743 7.31353 0
M  V30 5027 N 455.255 -1.55392 -0.262866 0
M  V30 5028 C 456.483 -1.80513 -1.01108 0
M  V30 5029 C 456.898 -0.583533 -1.79556 0
M  V30 5030 O 456.255 0.447585 -1.76926 0
M  V30 5031 C 456.306 -3.03648 -1.96164 0
M  V30 5032 O 456.027 -4.2109 -1.20893 0
M  V30 5033 C 457.528 -3.41448 -2.82715 0
M  V30 5034 H 454.748 -0.601079 -0.298236 0
M  V30 5035 H 457.292 -2.02425 -0.290582 0
M  V30 5036 H 455.447 -2.83832 -2.63663 0
M  V30 5037 H 455.861 -4.90771 -1.85051 0
M  V30 5038 H 457.335 -4.30751 -3.45192 0
M  V30 5039 H 457.812 -2.61308 -3.53008 0
M  V30 5040 H 458.418 -3.63559 -2.20693 0
M  V30 5041 N 456.733 0.527833 -1.48498 0
M  V30 5042 C 458.01 1.28905 -1.47115 0
M  V30 5043 C 458.39 2.10297 -0.184007 0
M  V30 5044 O 457.738 2.12728 0.834218 0
M  V30 5045 C 457.948 2.16866 -2.73441 0
M  V30 5046 C 459.296 2.76936 -3.21857 0
M  V30 5047 O 460.32 2.27152 -2.74373 0
M  V30 5048 O 459.179 3.67496 -4.04486 0
M  V30 5049 H 456.273 0.581918 -0.587623 0
M  V30 5050 H 458.819 0.544311 -1.60734 0
M  V30 5051 H 457.591 1.56521 -3.58632 0
M  V30 5052 H 457.214 2.98583 -2.62553 0
M  V30 5053 N 458.211 1.37122 0.776871 0
M  V30 5054 C 459.141 1.35164 1.90402 0
M  V30 5055 C 460.122 0.221069 1.68657 0
M  V30 5056 O 461.307 0.420642 1.8959 0
M  V30 5057 C 458.437 1.15274 3.27611 0
M  V30 5058 C 457.391 2.25289 3.63908 0
M  V30 5059 C 456.717 1.90527 4.99603 0
M  V30 5060 C 458.017 3.67446 3.71188 0
M  V30 5061 H 459.711 2.29482 1.92297 0
M  V30 5062 H 457.257 1.10465 0.923773 0
M  V30 5063 H 459.21 1.12536 4.06096 0
M  V30 5064 H 457.934 0.174102 3.26136 0
M  V30 5065 H 456.593 2.27174 2.87728 0
M  V30 5066 H 456.241 0.91206 4.94662 0
M  V30 5067 H 455.941 2.64193 5.24858 0
M  V30 5068 H 457.465 1.89367 5.80493 0
M  V30 5069 H 458.879 3.67719 4.39836 0
M  V30 5070 H 457.276 4.40123 4.07936 0
M  V30 5071 H 458.346 4.01443 2.71977 0
M  V30 5072 N 459.689 -1.00246 1.21608 0
M  V30 5073 C 460.936 -1.74061 1.03485 0
M  V30 5074 C 461.264 -1.89658 -0.431308 0
M  V30 5075 O 460.519 -1.42976 -1.33627 0
M  V30 5076 C 460.818 -3.15448 1.68009 0
M  V30 5077 C 460.484 -3.19792 3.17874 0
M  V30 5078 C 459.146 -3.20685 3.58768 0
M  V30 5079 C 461.498 -3.16835 4.13842 0
M  V30 5080 C 458.826 -3.16309 4.94131 0
M  V30 5081 C 461.178 -3.14001 5.49169 0
M  V30 5082 C 459.842 -3.13204 5.89457 0
M  V30 5083 H 459.112 -0.636934 0.378677 0
M  V30 5084 H 461.759 -1.17473 1.51236 0
M  V30 5085 H 460.064 -3.75284 1.12557 0
M  V30 5086 H 461.761 -3.71285 1.51487 0
M  V30 5087 H 458.351 -3.19842 2.85305 0
M  V30 5088 H 462.535 -3.15303 3.83272 0
M  V30 5089 H 457.791 -3.14032 5.24589 0
M  V30 5090 H 461.965 -3.10667 6.23265 0
M  V30 5091 H 459.592 -3.09568 6.94314 0
M  V30 5092 N 461.167 -1.02423 -1.1978 0
M  V30 5093 C 462.444 -0.632802 -1.85081 0
M  V30 5094 C 462.824 0.888745 -1.9148 0
M  V30 5095 O 462.172 1.78357 -1.42832 0
M  V30 5096 C 462.382 -1.28947 -3.24305 0
M  V30 5097 C 463.73 -1.40976 -4.00513 0
M  V30 5098 O 464.754 -1.24628 -3.33686 0
M  V30 5099 O 463.613 -1.67467 -5.20209 0
M  V30 5100 H 460.707 -0.219348 -0.79738 0
M  V30 5101 H 463.253 -1.12209 -1.27307 0
M  V30 5102 H 462.025 -2.3288 -3.14456 0
M  V30 5103 H 461.648 -0.787748 -3.89718 0
M  V30 5104 N 462.645 1.35699 -0.801477 0
M  V30 5105 C 464.061 1.52065 -0.484596 0
M  V30 5106 C 464.261 1.75215 0.995084 0
M  V30 5107 O 463.317 1.79061 1.78026 0
M  V30 5108 C 464.63 2.69908 -1.32552 0
M  V30 5109 C 466.178 2.83784 -1.32044 0
M  V30 5110 C 466.653 4.04646 -2.14536 0
M  V30 5111 N 468.144 4.11814 -2.12046 0
M  V30 5112 C 468.879 5.04437 -2.72636 0
M  V30 5113 N 468.375 6.02426 -3.42133 0
M  V30 5114 N 470.168 4.97144 -2.62305 0
M  V30 5115 H 462.319 1.18928 -1.75983 0
M  V30 5116 H 464.582 0.581455 -0.748741 0
M  V30 5117 H 464.288 2.59363 -2.37537 0
M  V30 5118 H 464.162 3.64376 -0.975181 0
M  V30 5119 H 466.549 2.93783 -0.27846 0
M  V30 5120 H 466.63 1.90188 -1.71062 0
M  V30 5121 H 466.274 3.95407 -3.18772 0
M  V30 5122 H 466.204 4.97413 -1.72882 0
M  V30 5123 H 468.695 3.41664 -1.61476 0
M  V30 5124 H 469.008 6.69688 -3.85666 0
M  V30 5125 H 467.353 6.02615 -3.46237 0
M  V30 5126 H 470.544 4.19546 -2.07603 0
M  V30 5127 H 470.717 5.69138 -3.09815 0
M  V30 5128 N 464.123 0.554532 1.47522 0
M  V30 5129 C 465.07 -0.19466 2.29978 0
M  V30 5130 C 466.04 -0.910882 1.38896 0
M  V30 5131 O 467.225 -0.907102 1.67858 0
M  V30 5132 C 464.365 -1.22035 3.22802 0
M  V30 5133 C 463.478 -0.510474 4.28973 0
M  V30 5134 C 462.613 -1.52123 5.08952 0
M  V30 5135 C 461.652 -0.796173 6.069 0
M  V30 5136 N 460.789 -1.75363 6.79847 0
M  V30 5137 H 465.629 0.51461 2.93523 0
M  V30 5138 H 463.166 0.265607 1.44682 0
M  V30 5139 H 465.124 -1.8276 3.7504 0
M  V30 5140 H 463.754 -1.89769 2.61127 0
M  V30 5141 H 462.806 0.211234 3.79813 0
M  V30 5142 H 464.118 0.0576503 4.98767 0
M  V30 5143 H 463.272 -2.20207 5.65326 0
M  V30 5144 H 462.011 -2.12327 4.39054 0
M  V30 5145 H 461.016 -0.101388 5.49707 0
M  V30 5146 H 462.241 -0.199911 6.78806 0
M  V30 5147 H 460.187 -2.3443 6.12682 0
M  V30 5148 H 460.104 -1.23759 7.45801 0
M  V30 5149 H 461.372 -2.4257 7.40797 0
M  V30 5150 N 465.601 -1.54893 0.290851 0
M  V30 5151 C 466.849 -1.99538 -0.320756 0
M  V30 5152 C 467.17 -1.18075 -1.55188 0
M  V30 5153 O 466.44 -0.274162 -1.93972 0
M  V30 5154 H 465.02 -0.737052 -0.121507 0
M  V30 5155 H 467.682 -1.90755 0.399832 0
M  V30 5156 H 466.778 -3.06282 -0.599802 0
M  V30 5157 N 467.08 -0.0183926 -1.57589 0
M  V30 5158 C 468.31 0.67207 -1.95363 0
M  V30 5159 C 468.718 1.66807 -0.892872 0
M  V30 5160 O 468.061 1.83204 0.134958 0
M  V30 5161 C 468.123 1.44397 -3.29226 0
M  V30 5162 C 467.787 0.607511 -4.52944 0
M  V30 5163 C 468.784 -0.112657 -5.19778 0
M  V30 5164 C 466.469 0.548068 -4.99301 0
M  V30 5165 C 468.463 -0.881057 -6.31281 0
M  V30 5166 C 466.15 -0.224044 -6.10689 0
M  V30 5167 C 467.148 -0.937323 -6.76538 0
M  V30 5168 O 466.836 -1.6968 -7.85789 0
M  V30 5169 H 466.568 0.190925 -0.648478 0
M  V30 5170 H 469.122 -0.0711994 -2.05277 0
M  V30 5171 H 467.352 2.23214 -3.15773 0
M  V30 5172 H 469.041 2.02152 -3.51979 0
M  V30 5173 H 469.807 -0.0759998 -4.8494 0
M  V30 5174 H 465.686 1.09281 -4.4786 0
M  V30 5175 H 469.23 -1.43832 -6.82611 0
M  V30 5176 H 465.127 -0.262457 -6.44966 0
M  V30 5177 H 465.895 -1.61544 -8.024 0
M  V30 5178 N 468.558 1.5553 0.254621 0
M  V30 5179 C 469.491 1.84624 1.34124 0
M  V30 5180 C 470.469 0.700693 1.46728 0
M  V30 5181 O 471.653 0.94564 1.63064 0
M  V30 5182 C 468.78 2.02412 2.71564 0
M  V30 5183 C 467.826 3.25028 2.7615 0
M  V30 5184 S 468.659 4.81893 2.33538 0
M  V30 5185 C 469.815 5.02677 3.72917 0
M  V30 5186 H 470.048 2.76501 1.09245 0
M  V30 5187 H 467.581 1.47537 0.455211 0
M  V30 5188 H 469.539 2.13345 3.50705 0
M  V30 5189 H 468.2 1.11391 2.93685 0
M  V30 5190 H 467.393 3.34418 3.77069 0
M  V30 5191 H 466.995 3.12781 2.05046 0
M  V30 5192 H 469.287 4.89546 4.68349 0
M  V30 5193 H 470.23 6.0468 3.68467 0
M  V30 5194 H 470.638 4.30561 3.65072 0
M  V30 5195 N 470.036 -0.519951 1.48776 0
M  V30 5196 C 471.283 -1.27522 1.57303 0
M  V30 5197 C 471.611 -1.92869 0.251328 0
M  V30 5198 O 470.866 -1.80372 -0.759243 0
M  V30 5199 C 471.165 -2.37864 2.6675 0
M  V30 5200 C 470.831 -1.90103 4.08867 0
M  V30 5201 C 469.493 -1.76795 4.47546 0
M  V30 5202 C 471.845 -1.54133 4.97888 0
M  V30 5203 C 469.173 -1.25868 5.73039 0
M  V30 5204 C 471.525 -1.04665 6.23881 0
M  V30 5205 C 470.189 -0.899823 6.61407 0
M  V30 5206 H 469.459 -0.466636 0.575614 0
M  V30 5207 H 472.106 -0.579109 1.82534 0
M  V30 5208 H 470.411 -3.13186 2.35418 0
M  V30 5209 H 472.108 -2.95969 2.70561 0
M  V30 5210 H 468.698 -2.01414 3.78326 0
M  V30 5211 H 472.882 -1.6327 4.68675 0
M  V30 5212 H 468.138 -1.13196 6.0083 0
M  V30 5213 H 472.312 -0.759074 6.92251 0
M  V30 5214 H 469.939 -0.503011 7.58534 0
M  V30 5215 N 471.514 -1.37532 -0.769588 0
M  V30 5216 C 472.791 -1.23392 -1.51768 0
M  V30 5217 C 473.171 0.17157 -2.10402 0
M  V30 5218 O 472.519 1.17943 -1.95708 0
M  V30 5219 C 472.729 -2.33163 -2.59685 0
M  V30 5220 C 474.077 -2.70809 -3.27028 0
M  V30 5221 O 475.101 -2.32355 -2.69981 0
M  V30 5222 O 473.96 -3.37066 -4.30173 0
M  V30 5223 H 471.054 -0.481617 -0.67229 0
M  V30 5224 H 473.6 -1.49318 -0.806368 0
M  V30 5225 H 472.372 -3.27273 -2.14494 0
M  V30 5226 H 471.995 -2.08713 -3.38415 0
M  V30 5227 N 472.992 0.995999 -1.22138 0
M  V30 5228 C 474.222 1.76809 -1.06874 0
M  V30 5229 C 474.63 1.85265 0.383866 0
M  V30 5230 O 473.973 1.31969 1.27789 0
M  V30 5231 C 474.035 3.2186 -1.60144 0
M  V30 5232 C 473.699 3.36958 -3.0872 0
M  V30 5233 C 474.696 3.2452 -4.0618 0
M  V30 5234 C 472.381 3.62109 -3.48112 0
M  V30 5235 C 474.375 3.37013 -5.41019 0
M  V30 5236 C 472.062 3.74243 -4.831 0
M  V30 5237 C 473.06 3.61702 -5.79362 0
M  V30 5238 O 472.748 3.73436 -7.119 0
M  V30 5239 H 472.48 0.562207 -0.375365 0
M  V30 5240 H 475.034 1.26113 -1.62125 0
M  V30 5241 H 473.264 3.73734 -0.992981 0
M  V30 5242 H 474.953 3.80775 -1.40589 0
M  V30 5243 H 475.719 3.05004 -3.77091 0
M  V30 5244 H 471.598 3.70949 -2.73712 0
M  V30 5245 H 475.142 3.27141 -6.16137 0
M  V30 5246 H 471.039 3.93266 -5.11872 0
M  V30 5247 H 471.807 3.90328 -7.19435 0
M  V30 5248 N 474.47 1.03057 1.19235 0
M  V30 5249 C 475.38 0.622922 2.26179 0
M  V30 5250 C 476.396 -0.346113 1.70523 0
M  V30 5251 O 477.572 -0.203572 2.00369 0
M  V30 5252 C 474.637 -0.0182063 3.46695 0
M  V30 5253 C 473.698 0.998546 4.17526 0
M  V30 5254 C 472.931 0.387917 5.32288 0
M  V30 5255 O 473.154 -0.808668 5.64639 0
M  V30 5256 O 472.088 1.1116 5.91546 0
M  V30 5257 H 475.914 1.51363 2.63292 0
M  V30 5258 H 473.499 0.800856 1.26122 0
M  V30 5259 H 475.381 -0.375606 4.19723 0
M  V30 5260 H 474.056 -0.882895 3.11427 0
M  V30 5261 H 472.963 1.40756 3.4661 0
M  V30 5262 H 474.296 1.83366 4.56769 0
M  V30 5263 N 475.948 -1.35272 0.808662 0
M  V30 5264 C 477.178 -2.02652 0.401953 0
M  V30 5265 C 477.586 -1.6108 -0.992462 0
M  V30 5266 O 476.929 -0.804984 -1.65123 0
M  V30 5267 C 476.991 -3.57174 0.408246 0
M  V30 5268 C 476.655 -4.22019 1.75353 0
M  V30 5269 C 477.652 -4.43552 2.71215 0
M  V30 5270 C 475.337 -4.59093 2.03811 0
M  V30 5271 C 477.331 -5.01264 3.93717 0
M  V30 5272 C 475.018 -5.16519 3.26576 0
M  V30 5273 C 476.016 -5.37546 4.21347 0
M  V30 5274 O 475.704 -5.93761 5.41944 0
M  V30 5275 H 475.436 -0.656495 0.161216 0
M  V30 5276 H 477.99 -1.73829 1.0942 0
M  V30 5277 H 476.22 -3.85197 -0.340608 0
M  V30 5278 H 477.909 -4.05893 0.0235623 0
M  V30 5279 H 478.675 -4.15288 2.50522 0
M  V30 5280 H 474.554 -4.42039 1.30854 0
M  V30 5281 H 478.098 -5.17592 4.67701 0
M  V30 5282 H 473.995 -5.4421 3.47139 0
M  V30 5283 H 474.763 -6.1221 5.43269 0
M  V30 5284 N 477.426 -0.562348 -1.47226 0
M  V30 5285 C 478.703 0.0256985 -1.95583 0
M  V30 5286 C 479.083 1.48032 -1.50498 0
M  V30 5287 O 478.431 2.15973 -0.746181 0
M  V30 5288 C 478.641 -0.125129 -3.48776 0
M  V30 5289 C 479.989 0.0175728 -4.24596 0
M  V30 5290 O 481.013 -0.0529341 -3.56161 0
M  V30 5291 O 479.872 0.170145 -5.46235 0
M  V30 5292 H 476.966 0.0612565 -0.824728 0
M  V30 5293 H 479.512 -0.629233 -1.57603 0
M  V30 5294 H 478.284 -1.13715 -3.74412 0
M  V30 5295 H 477.907 0.567178 -3.93534 0
M  V30 5296 N 478.904 1.54736 -0.299062 0
M  V30 5297 C 480.15 2.01114 0.304123 0
M  V30 5298 C 480.505 1.18376 1.51674 0
M  V30 5299 O 479.798 0.251635 1.8994 0
M  V30 5300 C 479.992 3.50199 0.713835 0
M  V30 5301 C 479.821 4.47366 -0.457531 0
M  V30 5302 C 478.591 4.9631 -0.948933 0
M  V30 5303 C 480.789 4.9755 -1.30186 0
M  V30 5304 N 478.771 5.77327 -2.08726 0
M  V30 5305 C 480.142 5.7625 -2.28771 0
M  V30 5306 C 482.197 4.79739 -1.33246 0
M  V30 5307 C 480.9 6.39036 -3.3019 0
M  V30 5308 C 482.926 5.43343 -2.33521 0
M  V30 5309 C 482.288 6.21874 -3.30836 0
M  V30 5310 H 478.387 0.778318 0.0757992 0
M  V30 5311 H 480.971 1.89925 -0.428536 0
M  V30 5312 H 479.142 3.61681 1.41567 0
M  V30 5313 H 480.874 3.83374 1.29639 0
M  V30 5314 H 477.629 4.7069 -0.52423 0
M  V30 5315 H 478.053 6.22521 -2.66077 0
M  V30 5316 H 482.695 4.18609 -0.59383 0
M  V30 5317 H 480.413 6.99302 -4.04973 0
M  V30 5318 H 483.999 5.31492 -2.3666 0
M  V30 5319 H 482.879 6.70217 -4.07159 0
M  V30 5320 N 480.382 0.0267497 1.57577 0
M  V30 5321 C 481.631 -0.651736 1.9088 0
M  V30 5322 C 481.944 -1.73427 0.904576 0
M  V30 5323 O 483.15 -2.46923 1.12877 0
M  V30 5324 C 481.606 -1.21048 3.38933 0
M  V30 5325 C 481.214 -0.161362 4.47709 0
M  V30 5326 C 482.958 -1.86562 3.81307 0
M  V30 5327 C 480.865 -0.731611 5.86857 0
M  V30 5328 H 479.795 -0.247198 0.712326 0
M  V30 5329 H 482.446 0.0916641 1.83271 0
M  V30 5330 H 480.828 -2.00542 3.41466 0
M  V30 5331 H 482.002 0.61094 4.56732 0
M  V30 5332 H 480.317 0.394877 4.14523 0
M  V30 5333 H 482.914 -2.30178 4.8262 0
M  V30 5334 H 483.257 -2.70735 3.16241 0
M  V30 5335 H 483.79 -1.13762 3.81186 0
M  V30 5336 H 480.529 0.0719329 6.55461 0
M  V30 5337 H 480.049 -1.47245 5.81445 0
M  V30 5338 H 481.728 -1.22208 6.35354 0
M  V30 5339 N 481.861 -1.55662 -0.24637 0
M  V30 5340 C 483.109 -1.77168 -0.972411 0
M  V30 5341 C 483.43 -0.590827 -1.85834 0
M  V30 5342 O 482.7 0.393365 -1.9191 0
M  V30 5343 H 481.28 -0.653405 -0.362038 0
M  V30 5344 H 483.942 -1.93101 -0.264189 0
M  V30 5345 H 483.038 -2.68335 -1.59382 0
M  V30 5346 N 483.339 0.512053 -1.4905 0
M  V30 5347 C 484.286 1.6148 -1.64902 0
M  V30 5348 C 485.256 1.58687 -0.490673 0
M  V30 5349 O 486.441 1.76842 -0.71636 0
M  V30 5350 C 483.581 2.99676 -1.71139 0
M  V30 5351 C 482.694 3.12568 -2.98203 0
M  V30 5352 C 481.829 4.4143 -2.95487 0
M  V30 5353 C 480.868 4.47916 -4.17179 0
M  V30 5354 N 480.005 5.68191 -4.12437 0
M  V30 5355 H 484.845 1.47271 -2.59066 0
M  V30 5356 H 482.382 0.716713 -1.28459 0
M  V30 5357 H 484.34 3.79761 -1.72736 0
M  V30 5358 H 482.97 3.12614 -0.804508 0
M  V30 5359 H 482.022 2.25618 -3.06269 0
M  V30 5360 H 483.334 3.1322 -3.88194 0
M  V30 5361 H 482.488 5.29825 -2.95585 0
M  V30 5362 H 481.227 4.43326 -2.03256 0
M  V30 5363 H 480.232 3.57925 -4.17337 0
M  V30 5364 H 481.457 4.47744 -5.1059 0
M  V30 5365 H 479.403 5.7095 -3.23036 0
M  V30 5366 H 479.32 5.70413 -4.96151 0
M  V30 5367 H 480.588 6.58823 -4.16621 0
M  V30 5368 N 484.817 1.37938 0.762283 0
M  V30 5369 C 485.749 1.30349 1.88525 0
M  V30 5370 C 486.762 0.217402 1.61342 0
M  V30 5371 O 487.951 0.474291 1.72084 0
M  V30 5372 C 485.051 0.994844 3.23969 0
M  V30 5373 C 484.224 2.18829 3.78725 0
M  V30 5374 C 483.283 1.84844 4.92665 0
M  V30 5375 O 482.309 2.57244 5.07754 0
M  V30 5376 N 483.511 0.798201 5.74986 0
M  V30 5377 H 486.276 2.27114 1.95549 0
M  V30 5378 H 483.837 1.31686 0.941825 0
M  V30 5379 H 485.829 0.748168 3.97724 0
M  V30 5380 H 484.399 0.115446 3.12387 0
M  V30 5381 H 483.619 2.59615 2.96637 0
M  V30 5382 H 484.907 2.98497 4.1204 0
M  V30 5383 H 484.305 0.197611 5.65355 0
M  V30 5384 H 482.862 0.611396 6.48926 0
M  V30 5385 N 486.295 -0.989507 1.22664 0
M  V30 5386 C 487.225 -2.09847 1.02404 0
M  V30 5387 C 488.206 -1.70007 -0.0561303 0
M  V30 5388 O 489.391 -1.93906 0.106748 0
M  V30 5389 C 486.521 -3.41996 0.604663 0
M  V30 5390 C 485.475 -3.95699 1.63115 0
M  V30 5391 C 484.801 -5.23936 1.0675 0
M  V30 5392 C 486.101 -4.25999 3.02196 0
M  V30 5393 H 487.795 -2.27054 1.95158 0
M  V30 5394 H 485.341 -1.09111 0.939727 0
M  V30 5395 H 487.294 -4.1899 0.45002 0
M  V30 5396 H 486.018 -3.24626 -0.35855 0
M  V30 5397 H 484.677 -3.2084 1.77362 0
M  V30 5398 H 484.325 -5.02909 0.0955422 0
M  V30 5399 H 484.025 -5.60833 1.75328 0
M  V30 5400 H 485.549 -6.0356 0.924516 0
M  V30 5401 H 486.963 -4.93777 2.91303 0
M  V30 5402 H 485.36 -4.74076 3.67929 0
M  V30 5403 H 486.43 -3.33636 3.51873 0
M  V30 5404 N 487.773 -1.03688 -1.18687 0
M  V30 5405 C 489.184 -0.766488 -1.70241 0
M  V30 5406 C 489.535 0.713052 -1.82784 0
M  V30 5407 O 488.66 1.55529 -1.50465 0
M  V30 5408 C 489.255 -1.38475 -3.09209 0
M  V30 5409 C 487.814 -1.16276 -3.5799 0
M  V30 5410 C 486.961 -1.4778 -2.34641 0
M  V30 5411 H 489.912 -1.20378 -1.03415 0
M  V30 5412 H 489.933 -0.785939 -3.72295 0
M  V30 5413 H 489.445 -2.46157 -3.00048 0
M  V30 5414 H 487.546 -0.104508 -3.72453 0
M  V30 5415 H 487.659 -1.8571 -4.41643 0
M  V30 5416 H 486.023 -0.897366 -2.38368 0
M  V30 5417 H 486.806 -2.56562 -2.28102 0
M  V30 5418 N 489.251 1.34841 -0.815825 0
M  V30 5419 C 490.479 2.0273 -0.413294 0
M  V30 5420 C 490.894 1.61459 0.978599 0
M  V30 5421 O 490.251 0.816584 1.63212 0
M  V30 5422 C 490.302 3.58058 -0.497676 0
M  V30 5423 O 490.023 3.97832 -1.8347 0
M  V30 5424 C 491.524 4.4321 -0.0891339 0
M  V30 5425 H 488.744 0.649956 -0.166728 0
M  V30 5426 H 491.288 1.72267 -1.10201 0
M  V30 5427 H 489.443 3.87136 0.142886 0
M  V30 5428 H 489.857 4.92501 -1.80396 0
M  V30 5429 H 491.331 5.5164 -0.199274 0
M  V30 5430 H 491.808 4.28432 0.966571 0
M  V30 5431 H 492.414 4.19446 -0.703214 0
M  V30 5432 N 490.729 0.570148 1.46925 0
M  V30 5433 C 492.14 0.1402 1.86173 0
M  V30 5434 C 492.491 -1.29347 1.47526 0
M  V30 5435 O 491.616 -1.97508 0.884292 0
M  V30 5436 C 492.211 0.247661 3.37894 0
M  V30 5437 C 490.77 -0.127332 3.76185 0
M  V30 5438 C 489.917 0.589349 2.70965 0
M  V30 5439 H 492.868 0.779117 1.38259 0
M  V30 5440 H 492.889 -0.530341 3.76786 0
M  V30 5441 H 492.401 1.29121 3.65991 0
M  V30 5442 H 490.502 -1.17149 3.53704 0
M  V30 5443 H 490.615 0.240238 4.78497 0
M  V30 5444 H 488.979 0.0309824 2.54681 0
M  V30 5445 H 489.762 1.6343 3.01903 0
M  V30 5446 N 492.207 -1.54576 0.307264 0
M  V30 5447 C 493.453 -2.0056 -0.300612 0
M  V30 5448 C 493.786 -1.1953 -1.53057 0
M  V30 5449 O 493.061 -0.27337 -1.92569 0
M  V30 5450 C 493.344 -3.54167 -0.650987 0
M  V30 5451 C 493.197 -4.45933 0.588539 0
M  V30 5452 C 494.516 -4.14645 -1.47506 0
M  V30 5453 H 491.635 -0.729075 -0.107788 0
M  V30 5454 H 494.277 -1.85286 0.420606 0
M  V30 5455 H 492.427 -3.67313 -1.26544 0
M  V30 5456 H 494.099 -4.44683 1.22697 0
M  V30 5457 H 492.342 -4.16274 1.22058 0
M  V30 5458 H 493.013 -5.51189 0.299153 0
M  V30 5459 H 495.489 -4.04973 -0.955821 0
M  V30 5460 H 494.365 -5.22269 -1.68899 0
M  V30 5461 H 494.626 -3.66921 -2.4662 0
M  V30 5462 N 493.685 -0.035106 -1.57561 0
M  V30 5463 C 494.933 0.64096 -1.91667 0
M  V30 5464 C 495.254 1.72323 -0.912681 0
M  V30 5465 O 494.524 1.95849 0.0449089 0
M  V30 5466 H 493.104 0.239743 -0.707483 0
M  V30 5467 H 495.766 -0.084321 -1.94718 0
M  V30 5468 H 494.862 1.08987 -2.92452 0
M  V30 5469 N 495.163 1.55791 0.238111 0
M  V30 5470 C 496.126 1.90239 1.27835 0
M  V30 5471 C 497.126 0.779552 1.4064 0
M  V30 5472 O 498.316 1.04747 1.3919 0
M  V30 5473 C 495.448 2.13859 2.65475 0
M  V30 5474 H 496.641 2.83262 0.985034 0
M  V30 5475 H 494.194 1.48818 0.477799 0
M  V30 5476 H 494.929 1.23334 2.99932 0
M  V30 5477 H 494.714 2.95643 2.57561 0
M  V30 5478 H 496.204 2.41664 3.40571 0
M  V30 5479 N 496.642 -0.504142 1.49319 0
M  V30 5480 C 497.888 -1.26033 1.58882 0
M  V30 5481 C 498.221 -1.92268 0.273274 0
M  V30 5482 O 497.496 -1.80567 -0.72291 0
M  V30 5483 C 497.779 -2.32976 2.7458 0
M  V30 5484 C 497.632 -1.71263 4.1592 0
M  V30 5485 C 498.951 -3.34561 2.85932 0
M  V30 5486 H 496.07 -0.456863 0.578312 0
M  V30 5487 H 498.712 -0.558965 1.81592 0
M  V30 5488 H 496.862 -2.92796 2.55348 0
M  V30 5489 H 498.534 -1.15294 4.4666 0
M  V30 5490 H 496.777 -1.01686 4.21714 0
M  V30 5491 H 497.448 -2.48816 4.92742 0
M  V30 5492 H 499.924 -2.84727 3.0343 0
M  V30 5493 H 498.8 -4.06754 3.68568 0
M  V30 5494 H 499.061 -3.96695 1.95154 0
M  V30 5495 N 498.12 -1.38341 -0.754957 0
M  V30 5496 C 499.052 -1.31347 -1.87831 0
M  V30 5497 C 500.065 -0.225955 -1.61224 0
M  V30 5498 O 501.254 -0.48341 -1.7183 0
M  V30 5499 C 498.354 -1.01201 -3.23437 0
M  V30 5500 C 497.527 -2.20834 -3.77559 0
M  V30 5501 C 496.586 -1.87454 -4.91678 0
M  V30 5502 O 495.612 -2.59934 -5.06382 0
M  V30 5503 N 496.814 -0.828682 -5.74555 0
M  V30 5504 H 499.579 -2.28147 -1.94342 0
M  V30 5505 H 497.14 -1.32184 -0.934828 0
M  V30 5506 H 499.132 -0.769249 -3.97322 0
M  V30 5507 H 497.702 -0.132011 -3.12321 0
M  V30 5508 H 496.922 -2.61184 -2.95256 0
M  V30 5509 H 498.21 -3.00678 -4.10451 0
M  V30 5510 H 497.608 -0.227591 -5.65242 0
M  V30 5511 H 496.165 -0.645802 -6.48593 0
M  V30 5512 N 499.598 0.982988 -1.23187 0
M  V30 5513 C 500.53 2.07729 -0.968572 0
M  V30 5514 C 501.543 1.62702 0.0564821 0
M  V30 5515 O 502.732 1.77603 -0.178733 0
M  V30 5516 C 499.832 3.36071 -0.436974 0
M  V30 5517 C 499.005 4.10081 -1.52159 0
M  V30 5518 C 498.064 5.16701 -0.99532 0
M  V30 5519 O 497.09 5.43727 -1.68373 0
M  V30 5520 N 498.292 5.80226 0.178192 0
M  V30 5521 H 501.057 2.30894 -1.9107 0
M  V30 5522 H 498.618 1.14949 -1.1401 0
M  V30 5523 H 500.61 4.04639 -0.0700051 0
M  V30 5524 H 499.18 3.09893 0.410509 0
M  V30 5525 H 498.4 3.36004 -2.06144 0
M  V30 5526 H 499.688 4.56295 -2.25105 0
M  V30 5527 H 499.086 5.60651 0.754096 0
M  V30 5528 H 497.643 6.49982 0.486449 0
M  V30 5529 N 501.076 1.04316 1.18135 0
M  V30 5530 C 502.353 0.662166 1.84051 0
M  V30 5531 C 502.733 -0.858169 1.9287 0
M  V30 5532 O 502.081 -1.76062 1.45652 0
M  V30 5533 C 502.291 1.3409 3.22212 0
M  V30 5534 C 503.639 1.4733 3.9822 0
M  V30 5535 O 504.663 1.29921 3.31661 0
M  V30 5536 O 503.522 1.75722 5.17479 0
M  V30 5537 H 500.616 0.232005 0.79379 0
M  V30 5538 H 503.162 1.1422 1.25506 0
M  V30 5539 H 501.934 2.37853 3.10711 0
M  V30 5540 H 501.557 0.849649 3.88416 0
M  V30 5541 N 502.554 -1.34406 0.822964 0
M  V30 5542 C 503.965 -1.8069 0.469879 0
M  V30 5543 C 504.316 -1.68223 -1.00972 0
M  V30 5544 O 503.441 -1.22226 -1.78577 0
M  V30 5545 C 504.036 -3.28064 0.846118 0
M  V30 5546 C 502.595 -3.72428 0.545402 0
M  V30 5547 C 501.742 -2.56116 1.06301 0
M  V30 5548 H 504.693 -1.22153 1.01313 0
M  V30 5549 H 504.714 -3.80205 0.149922 0
M  V30 5550 H 504.226 -3.37107 1.92304 0
M  V30 5551 H 502.327 -3.68924 -0.522109 0
M  V30 5552 H 502.44 -4.66548 1.0895 0
M  V30 5553 H 500.804 -2.50048 0.484554 0
M  V30 5554 H 501.587 -2.67928 2.14638 0
M  V30 5555 N 504.032 -0.577932 -1.46621 0
M  V30 5556 C 504.995 0.147805 -2.28723 0
M  V30 5557 C 505.995 0.823325 -1.38123 0
M  V30 5558 O 507.185 0.676011 -1.60548 0
M  V30 5559 C 504.317 1.21853 -3.18378 0
M  V30 5560 H 505.51 -0.573654 -2.94362 0
M  V30 5561 H 503.063 -0.335703 -1.52652 0
M  V30 5562 H 503.798 1.97173 -2.57475 0
M  V30 5563 H 503.583 0.738714 -3.85078 0
M  V30 5564 H 505.073 1.72768 -3.80186 0
M  V30 5565 N 505.51 1.54411 -0.315457 0
M  V30 5566 C 506.44 2.27002 0.547039 0
M  V30 5567 C 507.421 1.27492 1.12605 0
M  V30 5568 O 508.606 1.5629 1.15269 0
M  V30 5569 C 505.736 3.02171 1.71201 0
M  V30 5570 C 504.69 4.0895 1.26268 0
M  V30 5571 C 504.016 4.71915 2.51396 0
M  V30 5572 C 505.316 5.20891 0.383419 0
M  V30 5573 H 507.01 2.99343 -0.0584517 0
M  V30 5574 H 504.556 1.4397 -0.0295527 0
M  V30 5575 H 506.509 3.51681 2.32161 0
M  V30 5576 H 505.233 2.27433 2.34397 0
M  V30 5577 H 503.892 3.60312 0.676062 0
M  V30 5578 H 503.54 3.93801 3.12937 0
M  V30 5579 H 503.24 5.44039 2.22026 0
M  V30 5580 H 504.764 5.24195 3.13133 0
M  V30 5581 H 506.178 5.66206 0.899082 0
M  V30 5582 H 504.575 5.99821 0.182857 0
M  V30 5583 H 505.645 4.81324 -0.587821 0
M  V30 5584 N 506.988 0.0434614 1.5754 0
M  V30 5585 C 508.213 -0.645358 1.97104 0
M  V30 5586 C 508.638 -1.64037 0.920521 0
M  V30 5587 O 507.996 -1.80922 -0.11708 0
M  V30 5588 C 508.044 -1.31547 3.35749 0
M  V30 5589 O 507.148 -2.43103 3.33129 0
M  V30 5590 H 506.489 -0.168403 0.64229 0
M  V30 5591 H 509.019 0.109573 2.04306 0
M  V30 5592 H 509.029 -1.66895 3.72304 0
M  V30 5593 H 507.704 -0.586205 4.11748 0
M  V30 5594 H 506.281 -2.0976 3.0831 0
M  V30 5595 N 508.466 -1.55915 -0.229846 0
M  V30 5596 C 509.691 -1.8296 -0.976743 0
M  V30 5597 C 510.116 -0.622735 -1.77493 0
M  V30 5598 O 509.474 0.428431 -1.76165 0
M  V30 5599 C 509.522 -3.07916 -1.8767 0
M  V30 5600 O 508.626 -2.86028 -2.97088 0
M  V30 5601 H 507.967 -0.603453 -0.277021 0
M  V30 5602 H 510.497 -2.0312 -0.245669 0
M  V30 5603 H 510.507 -3.37802 -2.2881 0
M  V30 5604 H 509.182 -3.95389 -1.28996 0
M  V30 5605 H 507.759 -2.67355 -2.59954 0
M  V30 5606 N 509.944 0.496216 -1.49584 0
M  V30 5607 C 510.892 1.61805 -1.67098 0
M  V30 5608 C 511.886 1.60667 -0.536877 0
M  V30 5609 O 513.092 1.65118 -0.716654 0
M  V30 5610 H 509.467 0.53646 -0.526986 0
M  V30 5611 H 511.438 1.44187 -2.61252 0
M  V30 5612 C 510.187 2.99912 -1.75921 0
M  V30 5613 H 509.51 3.01496 -2.62565 0
M  V30 5614 H 510.95 3.77931 -1.92209 0
M  V30 5615 C 509.409 3.33092 -0.505088 0
M  V30 5616 O 509.939 4.00019 0.367085 0
M  V30 5617 N 508.145 2.88278 -0.366599 0
M  V30 5618 H 507.692 2.33989 -1.07735 0
M  V30 5619 H 507.65 3.10846 0.47142 0
M  V30 5620 N 511.423 1.38739 0.74761 0
M  V30 5621 C 512.839 1.20067 1.05148 0
M  V30 5622 C 513.039 0.0534835 2.01429 0
M  V30 5623 O 512.095 -0.59886 2.45296 0
M  V30 5624 C 513.408 2.52957 1.62584 0
M  V30 5625 C 514.956 2.59692 1.74726 0
M  V30 5626 C 515.431 3.92772 2.35573 0
M  V30 5627 N 516.922 3.94343 2.42997 0
M  V30 5628 C 517.657 4.9408 2.90985 0
M  V30 5629 N 517.153 6.04214 3.38965 0
M  V30 5630 N 518.946 4.81466 2.9008 0
M  V30 5631 H 511.097 2.12121 0.108808 0
M  V30 5632 H 513.36 0.941491 0.110899 0
M  V30 5633 H 513.066 3.37389 0.993051 0
M  V30 5634 H 512.94 2.71779 2.61565 0
M  V30 5635 H 515.327 1.75651 2.3713 0
M  V30 5636 H 515.408 2.44731 0.744326 0
M  V30 5637 H 515.052 4.77238 1.738 0
M  V30 5638 H 514.982 4.05046 3.36519 0
M  V30 5639 H 517.473 3.14799 2.0907 0
M  V30 5640 H 517.786 6.76241 3.74056 0
M  V30 5641 H 516.131 6.07825 3.37007 0
M  V30 5642 H 519.322 3.94535 2.51912 0
M  V30 5643 H 519.495 5.59344 3.27166 0
M  V30 5644 N 512.901 -0.976442 1.23707 0
M  V30 5645 C 513.811 -2.10359 1.03856 0
M  V30 5646 C 514.827 -1.73991 -0.0180919 0
M  V30 5647 O 516.003 -2.0061 0.178211 0
M  V30 5648 C 513.068 -3.40809 0.636387 0
M  V30 5649 C 512.129 -3.91179 1.76854 0
M  V30 5650 C 511.362 -5.15404 1.38546 0
M  V30 5651 O 511.585 -5.69754 0.27142 0
M  V30 5652 O 510.519 -5.5994 2.20797 0
M  V30 5653 H 514.345 -2.29997 1.98331 0
M  V30 5654 H 511.93 -1.08742 1.02448 0
M  V30 5655 H 513.812 -4.19269 0.423223 0
M  V30 5656 H 512.487 -3.22493 -0.279322 0
M  V30 5657 H 511.394 -3.13819 2.03638 0
M  V30 5658 H 512.727 -4.13958 2.6627 0
M  V30 5659 N 514.379 -1.04941 -1.1758 0
M  V30 5660 C 515.342 -0.652456 -2.19717 0
M  V30 5661 C 516.342 0.294745 -1.58076 0
M  V30 5662 O 517.532 0.0789579 -1.74021 0
M  V30 5663 C 514.664 0.0420712 -3.40874 0
M  V30 5664 H 515.857 -1.55642 -2.5635 0
M  V30 5665 H 513.41 -0.842995 -1.31618 0
M  V30 5666 H 514.145 0.95943 -3.09783 0
M  V30 5667 H 513.93 -0.638844 -3.86861 0
M  V30 5668 H 515.42 0.306 -4.16477 0
M  V30 5669 N 515.857 1.33968 -0.830081 0
M  V30 5670 C 516.807 2.26845 -0.229242 0
M  V30 5671 C 517.791 1.48862 0.610659 0
M  V30 5672 O 518.983 1.70808 0.464067 0
M  V30 5673 C 516.112 3.3798 0.602057 0
M  V30 5674 C 515.198 4.23369 -0.248866 0
M  V30 5675 N 515.589 4.88182 -1.32334 0
M  V30 5676 C 513.887 4.45987 -0.0344077 0
M  V30 5677 C 514.588 5.51671 -1.84482 0
M  V30 5678 N 513.564 5.31348 -1.14762 0
M  V30 5679 H 517.366 2.74464 -1.05104 0
M  V30 5680 H 514.88 1.4777 -0.673623 0
M  V30 5681 H 516.877 4.03494 1.04873 0
M  V30 5682 H 515.537 2.9191 1.42193 0
M  V30 5683 H 516.548 4.88988 -1.70619 0
M  V30 5684 H 513.225 4.10658 0.752727 0
M  V30 5685 H 514.615 6.13308 -2.74413 0
M  V30 5686 N 517.335 0.585699 1.46312 0
M  V30 5687 C 518.267 -0.183687 2.28463 0
M  V30 5688 C 519.28 -0.85264 1.38686 0
M  V30 5689 O 520.469 -0.721701 1.6326 0
M  V30 5690 C 517.569 -1.27977 3.13808 0
M  V30 5691 C 516.742 -0.702164 4.31727 0
M  V30 5692 C 515.801 -1.68633 4.98447 0
M  V30 5693 O 514.827 -1.22121 5.55945 0
M  V30 5694 N 516.029 -3.02047 4.95729 0
M  V30 5695 H 518.794 0.521127 2.95134 0
M  V30 5696 H 516.355 0.423673 1.56258 0
M  V30 5697 H 518.347 -1.9375 3.55307 0
M  V30 5698 H 516.917 -1.8874 2.4919 0
M  V30 5699 H 516.137 0.1331 3.93975 0
M  V30 5700 H 517.425 -0.296101 5.07938 0
M  V30 5701 H 516.823 -3.42457 4.50266 0
M  V30 5702 H 515.38 -3.63301 5.41161 0
M  V30 5703 N 518.813 -1.54241 0.323641 0
M  V30 5704 C 519.763 -2.21071 -0.557833 0
M  V30 5705 C 520.747 -1.19126 -1.08157 0
M  V30 5706 O 521.939 -1.44755 -1.01857 0
M  V30 5707 C 519.068 -2.97208 -1.71821 0
M  V30 5708 C 518.154 -4.06491 -1.20936 0
M  V30 5709 N 518.545 -5.04052 -0.420202 0
M  V30 5710 C 516.843 -4.20443 -1.48808 0
M  V30 5711 C 517.544 -5.81516 -0.146413 0
M  V30 5712 N 516.52 -5.38641 -0.732562 0
M  V30 5713 H 520.322 -2.93853 0.0523921 0
M  V30 5714 H 517.836 -1.61883 0.129502 0
M  V30 5715 H 519.833 -3.4357 -2.36146 0
M  V30 5716 H 518.493 -2.25947 -2.33191 0
M  V30 5717 H 519.504 -5.17862 -0.0630401 0
M  V30 5718 H 516.181 -3.60396 -2.10762 0
M  V30 5719 H 517.571 -6.70119 0.488895 0
M  V30 5720 N 520.291 -0.0518155 -1.57515 0
M  V30 5721 C 521.707 0.304735 -1.56664 0
M  V30 5722 C 521.907 1.71395 -1.05953 0
M  V30 5723 O 520.963 2.42123 -0.716414 0
M  V30 5724 C 522.276 0.132614 -3.00407 0
M  V30 5725 C 523.824 0.20367 -3.12337 0
M  V30 5726 C 524.299 0.0600706 -4.57961 0
M  V30 5727 N 525.79 0.116326 -4.63054 0
M  V30 5728 C 526.525 0.0293363 -5.73392 0
M  V30 5729 N 526.021 -0.110038 -6.92713 0
M  V30 5730 N 527.814 0.0849651 -5.62036 0
M  V30 5731 H 519.965 -0.973056 -1.888 0
M  V30 5732 H 522.228 -0.377781 -0.869474 0
M  V30 5733 H 521.934 -0.839019 -3.41546 0
M  V30 5734 H 521.808 0.893376 -3.66468 0
M  V30 5735 H 524.195 1.16578 -2.71097 0
M  V30 5736 H 524.276 -0.587857 -2.48954 0
M  V30 5737 H 523.92 -0.898715 -4.99886 0
M  V30 5738 H 523.85 0.87075 -5.19351 0
M  V30 5739 H 526.341 0.22327 -3.7724 0
M  V30 5740 H 526.654 -0.169104 -7.72615 0
M  V30 5741 H 524.999 -0.145132 -6.94848 0
M  V30 5742 H 528.19 0.192411 -4.67704 0
M  V30 5743 H 528.363 0.0137131 -6.47999 0
M  V30 5744 N 521.769 1.56035 0.221574 0
M  V30 5745 C 523.046 1.69837 0.970301 0
M  V30 5746 C 523.426 0.599065 2.02421 0
M  V30 5747 O 522.774 -0.393929 2.25079 0
M  V30 5748 C 522.984 3.11148 1.58076 0
M  V30 5749 C 524.332 3.70555 2.07302 0
M  V30 5750 O 525.356 3.14109 1.6797 0
M  V30 5751 O 524.215 4.69562 2.79596 0
M  V30 5752 H 521.309 0.691727 0.453257 0
M  V30 5753 H 523.855 1.68353 0.213358 0
M  V30 5754 H 522.627 3.82617 0.819759 0
M  V30 5755 H 522.25 3.16749 2.40324 0
M  V30 5756 N 523.247 -0.488276 1.49845 0
M  V30 5757 C 524.194 -1.58836 1.67451 0
M  V30 5758 C 525.164 -1.57886 0.515857 0
M  V30 5759 O 526.349 -1.75679 0.744403 0
M  V30 5760 C 523.489 -2.96915 1.75885 0
M  V30 5761 C 522.602 -3.07784 3.03138 0
M  V30 5762 C 521.737 -4.36673 3.02473 0
M  V30 5763 C 520.776 -4.41222 4.24252 0
M  V30 5764 N 519.913 -5.61557 4.21424 0
M  V30 5765 H 524.753 -1.43131 2.61376 0
M  V30 5766 H 522.29 -0.696186 1.29583 0
M  V30 5767 H 524.248 -3.76965 1.78755 0
M  V30 5768 H 522.878 -3.11295 0.85414 0
M  V30 5769 H 521.93 -2.20717 3.09819 0
M  V30 5770 H 523.242 -3.07005 3.93128 0
M  V30 5771 H 522.396 -5.25055 3.03977 0
M  V30 5772 H 521.135 -4.40037 2.10283 0
M  V30 5773 H 520.14 -3.5124 4.22978 0
M  V30 5774 H 521.365 -4.39564 5.17649 0
M  V30 5775 H 519.311 -5.65738 3.32078 0
M  V30 5776 H 519.228 -5.62447 5.05163 0
M  V30 5777 H 520.496 -6.52111 4.2705 0
M  V30 5778 N 524.725 -1.39134 -0.740242 0
M  V30 5779 C 525.658 -1.3182 -1.86276 0
M  V30 5780 C 526.636 -0.192794 -1.61453 0
M  V30 5781 O 527.82 -0.372365 -1.84786 0
M  V30 5782 C 524.947 -1.04564 -3.22155 0
M  V30 5783 C 523.993 -2.19224 -3.65846 0
M  V30 5784 S 524.826 -3.81466 -3.75824 0
M  V30 5785 C 525.982 -3.56425 -5.14502 0
M  V30 5786 H 526.215 -2.26822 -1.92195 0
M  V30 5787 H 523.748 -1.25127 -0.904576 0
M  V30 5788 H 525.706 -0.895228 -4.00619 0
M  V30 5789 H 524.367 -0.112578 -3.13898 0
M  V30 5790 H 523.56 -1.95732 -4.6444 0
M  V30 5791 H 523.162 -2.30441 -2.94572 0
M  V30 5792 H 525.454 -3.13366 -6.00673 0
M  V30 5793 H 526.397 -4.54462 -5.43019 0
M  V30 5794 H 526.805 -2.90641 -4.8393 0
M  V30 5795 N 526.204 0.969867 -1.24223 0
M  V30 5796 C 527.136 2.0669 -0.99055 0
M  V30 5797 C 528.149 1.62753 0.0392222 0
M  V30 5798 O 529.338 1.77403 -0.197561 0
M  V30 5799 C 526.438 3.35589 -0.472594 0
M  V30 5800 C 525.611 4.08444 -1.56499 0
M  V30 5801 C 524.67 5.15616 -1.05007 0
M  V30 5802 O 523.696 5.41911 -1.7413 0
M  V30 5803 N 524.898 5.80383 0.116641 0
M  V30 5804 H 527.663 2.28855 -1.93508 0
M  V30 5805 H 525.224 1.13733 -1.15223 0
M  V30 5806 H 527.216 4.04542 -0.112919 0
M  V30 5807 H 525.786 3.10311 0.377617 0
M  V30 5808 H 525.006 3.33798 -2.09696 0
M  V30 5809 H 526.294 4.53882 -2.29932 0
M  V30 5810 H 525.692 5.6142 0.694589 0
M  V30 5811 H 524.249 6.50462 0.417483 0
M  V30 5812 N 527.682 1.05563 1.17022 0
M  V30 5813 C 528.614 0.617888 2.20714 0
M  V30 5814 C 529.627 -0.320303 1.59618 0
M  V30 5815 O 530.816 -0.112449 1.78145 0
M  V30 5816 C 527.916 -0.115333 3.38704 0
M  V30 5817 C 527.089 0.834493 4.29366 0
M  V30 5818 C 526.148 0.141855 5.26009 0
M  V30 5819 O 525.174 0.777151 5.6387 0
M  V30 5820 N 526.376 -1.11934 5.69606 0
M  V30 5821 H 529.141 1.50981 2.58892 0
M  V30 5822 H 526.702 0.938008 1.31958 0
M  V30 5823 H 528.694 -0.588918 4.00392 0
M  V30 5824 H 527.264 -0.908967 2.99093 0
M  V30 5825 H 526.484 1.48762 3.65053 0
M  V30 5826 H 527.772 1.4791 4.86827 0
M  V30 5827 H 527.17 -1.65574 5.40927 0
M  V30 5828 H 525.727 -1.53692 6.33421 0
M  V30 5829 N 529.16 -1.33526 0.837174 0
M  V30 5830 C 530.385 -2.0258 0.444545 0
M  V30 5831 C 530.81 -1.6258 -0.946006 0
M  V30 5832 O 530.168 -0.817548 -1.6182 0
M  V30 5833 C 530.216 -3.5605 0.571006 0
M  V30 5834 O 529.32 -4.10422 -0.403431 0
M  V30 5835 H 528.661 -0.638866 0.180958 0
M  V30 5836 H 531.191 -1.70462 1.13154 0
M  V30 5837 H 531.201 -4.05488 0.452024 0
M  V30 5838 H 529.876 -3.84509 1.58512 0
M  V30 5839 H 528.453 -3.72113 -0.242147 0
M  V30 5840 N 530.638 -0.59345 -1.46 0
M  V30 5841 C 531.585 0.133618 -2.30413 0
M  V30 5842 C 532.555 0.873736 -1.41262 0
M  V30 5843 O 533.74 0.862279 -1.70204 0
M  V30 5844 C 530.88 1.13434 -3.25924 0
M  V30 5845 C 529.993 0.39656 -4.30176 0
M  V30 5846 C 529.128 1.38575 -5.12806 0
M  V30 5847 C 528.167 0.634984 -6.08797 0
M  V30 5848 N 527.304 1.57276 -6.84258 0
M  V30 5849 H 532.144 -0.592252 -2.92055 0
M  V30 5850 H 529.681 -0.303874 -1.43927 0
M  V30 5851 H 531.639 1.72752 -3.79753 0
M  V30 5852 H 530.269 1.82779 -2.66067 0
M  V30 5853 H 529.321 -0.311861 -3.79119 0
M  V30 5854 H 530.633 -0.189869 -4.98438 0
M  V30 5855 H 529.787 2.05141 -5.70966 0
M  V30 5856 H 528.526 2.00611 -4.44529 0
M  V30 5857 H 527.531 -0.0443925 -5.49782 0
M  V30 5858 H 528.756 0.0198678 -6.79097 0
M  V30 5859 H 526.702 2.18103 -6.18682 0
M  V30 5860 H 526.619 1.03941 -7.48821 0
M  V30 5861 H 527.887 2.22844 -7.46968 0
M  V30 5862 N 532.116 1.54067 -0.331816 0
M  V30 5863 C 533.064 2.26105 0.54582 0
M  V30 5864 C 534.058 1.27816 1.11173 0
M  V30 5865 O 535.264 1.45565 1.05882 0
M  V30 5866 H 531.639 0.726363 0.194683 0
M  V30 5867 H 533.61 2.98282 -0.083931 0
M  V30 5868 C 532.359 3.03814 1.69092 0
M  V30 5869 H 531.682 3.79269 1.26473 0
M  V30 5870 H 533.122 3.57453 2.28043 0
M  V30 5871 C 531.581 2.12606 2.61343 0
M  V30 5872 O 532.111 1.71437 3.6328 0
M  V30 5873 N 530.317 1.77925 2.29763 0
M  V30 5874 H 529.864 2.11602 1.46909 0
M  V30 5875 H 529.822 1.1718 2.91747 0
M  V30 5876 N 533.594 0.0601682 1.57485 0
M  V30 5877 C 534.526 -0.94047 2.09016 0
M  V30 5878 C 535.539 -1.26897 1.01985 0
M  V30 5879 O 536.728 -1.22819 1.29529 0
M  V30 5880 C 533.828 -2.25955 2.52582 0
M  V30 5881 C 533.001 -2.11163 3.83052 0
M  V30 5882 C 532.06 -3.26273 4.12835 0
M  V30 5883 O 531.086 -3.01779 4.82616 0
M  V30 5884 N 532.288 -4.51022 3.65458 0
M  V30 5885 H 535.053 -0.500578 2.9549 0
M  V30 5886 H 532.614 -0.125852 1.6141 0
M  V30 5887 H 534.606 -3.01846 2.69575 0
M  V30 5888 H 533.176 -2.61481 1.71308 0
M  V30 5889 H 532.396 -1.19808 3.75552 0
M  V30 5890 H 533.684 -1.98517 4.68475 0
M  V30 5891 H 533.082 -4.73811 3.09062 0
M  V30 5892 H 531.639 -5.23978 3.87673 0
M  V30 5893 N 535.072 -1.5615 -0.213296 0
M  V30 5894 C 536.297 -1.83986 -0.957282 0
M  V30 5895 C 536.722 -0.641526 -1.76822 0
M  V30 5896 O 536.08 0.409722 -1.7661 0
M  V30 5897 C 536.128 -3.09889 -1.84393 0
M  V30 5898 O 535.232 -2.89163 -2.94038 0
M  V30 5899 H 534.573 -0.606357 -0.270605 0
M  V30 5900 H 537.103 -2.03369 -0.224111 0
M  V30 5901 H 537.113 -3.40209 -2.25215 0
M  V30 5902 H 535.788 -3.96735 -1.24795 0
M  V30 5903 H 534.365 -2.70097 -2.57103 0
M  V30 5904 N 536.55 0.480323 -1.50102 0
M  V30 5905 C 537.513 1.56181 -1.6775 0
M  V30 5906 C 538.513 1.51156 -0.548503 0
M  V30 5907 O 539.703 1.5394 -0.815363 0
M  V30 5908 C 536.835 2.95823 -1.69415 0
M  V30 5909 H 538.028 1.41855 -2.6423 0
M  V30 5910 H 535.581 0.70605 -1.39444 0
M  V30 5911 H 536.316 3.15604 -0.745948 0
M  V30 5912 H 536.101 3.00878 -2.51425 0
M  V30 5913 H 537.591 3.74359 -1.85054 0
M  V30 5914 N 538.028 1.39524 0.732853 0
M  V30 5915 C 539.305 1.27373 1.48444 0
M  V30 5916 C 539.685 -0.115725 2.10783 0
M  V30 5917 O 539.033 -1.12713 1.98766 0
M  V30 5918 C 539.243 2.39966 2.53412 0
M  V30 5919 C 540.591 2.79384 3.19733 0
M  V30 5920 O 541.615 2.39431 2.63725 0
M  V30 5921 O 540.474 3.48353 4.21085 0
M  V30 5922 H 537.568 0.499272 0.659285 0
M  V30 5923 H 540.114 1.51403 0.766496 0
M  V30 5924 H 538.886 3.32845 2.05742 0
M  V30 5925 H 538.509 2.17612 3.32762 0
M  V30 5926 N 539.506 -0.963266 1.24736 0
M  V30 5927 C 540.456 -2.0438 1.01058 0
M  V30 5928 C 541.44 -1.60824 -0.0495354 0
M  V30 5929 O 542.632 -1.76232 0.164741 0
M  V30 5930 C 539.761 -3.37617 0.622067 0
M  V30 5931 C 538.847 -3.87722 1.7185 0
M  V30 5932 N 539.238 -4.10715 2.95207 0
M  V30 5933 C 537.536 -4.16426 1.59703 0
M  V30 5934 C 538.237 -4.51872 3.66315 0
M  V30 5935 N 537.213 -4.57302 2.93897 0
M  V30 5936 H 541.015 -2.20138 1.94721 0
M  V30 5937 H 538.529 -1.14741 1.14927 0
M  V30 5938 H 540.526 -4.14638 0.43366 0
M  V30 5939 H 539.186 -3.23242 -0.307327 0
M  V30 5940 H 540.197 -3.98037 3.31341 0
M  V30 5941 H 536.874 -4.10962 0.73598 0
M  V30 5942 H 538.264 -4.78037 4.72155 0
M  V30 5943 N 540.985 -1.06182 -1.16461 0
M  V30 5944 C 542.401 -0.785065 -1.38956 0
M  V30 5945 C 542.601 0.616103 -1.9185 0
M  V30 5946 O 541.657 1.37686 -2.11657 0
M  V30 5947 C 542.97 -1.84902 -2.37132 0
M  V30 5948 C 544.518 -1.8724 -2.50819 0
M  V30 5949 C 544.993 -2.92686 -3.52277 0
M  V30 5950 N 546.484 -2.91712 -3.59803 0
M  V30 5951 C 547.219 -3.69949 -4.38093 0
M  V30 5952 N 546.715 -4.58 -5.19815 0
M  V30 5953 N 548.508 -3.58346 -4.33064 0
M  V30 5954 H 540.659 -1.96569 -0.804634 0
M  V30 5955 H 542.922 -0.851747 -0.416211 0
M  V30 5956 H 542.628 -2.85518 -2.0536 0
M  V30 5957 H 542.502 -1.69908 -3.36766 0
M  V30 5958 H 544.889 -0.872827 -2.81897 0
M  V30 5959 H 544.97 -2.06311 -1.51226 0
M  V30 5960 H 544.614 -3.92835 -3.21937 0
M  V30 5961 H 544.544 -2.70864 -4.51598 0
M  V30 5962 H 547.035 -2.27876 -3.01464 0
M  V30 5963 H 547.348 -5.14357 -5.76764 0
M  V30 5964 H 545.693 -4.62056 -5.19162 0
M  V30 5965 H 548.884 -2.88943 -3.68279 0
M  V30 5966 H 549.057 -4.19563 -4.93833 0
M  V30 5967 N 542.463 1.3308 -0.844243 0
M  V30 5968 C 543.426 2.27403 -0.286485 0
M  V30 5969 C 544.426 1.51179 0.547872 0
M  V30 5970 O 545.616 1.70421 0.360886 0
M  V30 5971 C 542.748 3.35653 0.595813 0
M  V30 5972 H 543.941 2.78248 -1.11885 0
M  V30 5973 H 541.494 1.43574 -0.617749 0
M  V30 5974 H 542.229 2.90058 1.4504 0
M  V30 5975 H 542.014 3.921 -0.00125994 0
M  V30 5976 H 543.504 4.05958 0.979168 0
M  V30 5977 N 543.941 0.601185 1.45683 0
M  V30 5978 C 544.904 -0.111398 2.28929 0
M  V30 5979 C 545.904 -0.801246 1.39416 0
M  V30 5980 O 547.094 -0.650383 1.61603 0
M  V30 5981 C 544.226 -1.16773 3.20276 0
M  V30 5982 H 545.419 0.620412 2.93413 0
M  V30 5983 H 542.972 0.359946 1.52099 0
M  V30 5984 H 543.707 -1.93051 2.60579 0
M  V30 5985 H 543.492 -0.677358 3.86205 0
M  V30 5986 H 544.982 -1.66698 3.82886 0
M  V30 5987 N 545.419 -1.53889 0.339982 0
M  V30 5988 C 546.665 -2.01849 -0.250694 0
M  V30 5989 C 547.02 -1.22356 -1.48482 0
M  V30 5990 O 546.313 -0.301906 -1.89206 0
M  V30 5991 C 546.507 -3.51968 -0.620735 0
M  V30 5992 C 546.336 -4.45996 0.575981 0
M  V30 5993 C 545.106 -4.93619 1.08019 0
M  V30 5994 C 547.304 -4.93923 1.43332 0
M  V30 5995 N 545.286 -5.7159 2.2396 0
M  V30 5996 C 546.657 -5.69982 2.43969 0
M  V30 5997 C 548.712 -4.76038 1.45918 0
M  V30 5998 C 547.415 -6.30057 3.47016 0
M  V30 5999 C 549.441 -5.36961 2.47845 0
M  V30 6000 C 548.803 -6.12884 3.47208 0
M  V30 6001 H 544.902 -0.780054 -0.0551368 0
M  V30 6002 H 547.486 -1.88722 0.478741 0
M  V30 6003 H 545.657 -3.65308 -1.31928 0
M  V30 6004 H 547.389 -3.86677 -1.19429 0
M  V30 6005 H 544.144 -4.69134 0.64884 0
M  V30 6006 H 544.568 -6.15247 2.82489 0
M  V30 6007 H 549.21 -4.16887 0.704608 0
M  V30 6008 H 546.928 -6.88319 4.23371 0
M  V30 6009 H 550.514 -5.2503 2.50668 0
M  V30 6010 H 549.394 -6.59187 4.24785 0
M  V30 6011 N 546.897 -0.0685191 -1.57451 0
M  V30 6012 C 548.174 0.642167 -1.84758 0
M  V30 6013 C 548.554 1.87991 -0.960344 0
M  V30 6014 O 547.902 2.28485 -0.0257894 0
M  V30 6015 C 548.112 0.982946 -3.34872 0
M  V30 6016 C 549.46 1.35784 -4.02303 0
M  V30 6017 O 550.484 1.07477 -3.39598 0
M  V30 6018 O 549.343 1.88681 -5.12895 0
M  V30 6019 H 546.437 0.318625 -0.763156 0
M  V30 6020 H 548.983 -0.0992015 -1.6941 0
M  V30 6021 H 547.755 0.10372 -3.91163 0
M  V30 6022 H 547.378 1.78119 -3.55471 0
M  V30 6023 N 548.375 1.56261 0.205012 0
M  V30 6024 C 549.6 1.84491 0.947512 0
M  V30 6025 C 550.025 0.650894 1.76479 0
M  V30 6026 O 549.383 -0.40035 1.76824 0
M  V30 6027 C 549.431 3.10863 1.82747 0
M  V30 6028 O 548.535 2.90719 2.925 0
M  V30 6029 H 547.876 0.607783 0.267386 0
M  V30 6030 H 550.406 2.03485 0.213323 0
M  V30 6031 H 550.416 3.41399 2.23407 0
M  V30 6032 H 549.091 3.97392 1.2269 0
M  V30 6033 H 547.668 2.71457 2.55667 0
M  V30 6034 N 549.853 -0.472356 1.50355 0
M  V30 6035 C 550.785 -1.58795 1.65278 0
M  V30 6036 C 551.798 -1.53782 0.534313 0
M  V30 6037 O 552.987 -1.59193 0.807446 0
M  V30 6038 C 550.087 -2.97672 1.62001 0
M  V30 6039 C 549.26 -3.27568 2.89859 0
M  V30 6040 C 548.319 -4.45993 2.79242 0
M  V30 6041 O 547.345 -4.46364 3.53197 0
M  V30 6042 N 548.547 -5.47578 1.92713 0
M  V30 6043 H 551.312 -1.46411 2.61503 0
M  V30 6044 H 548.873 -0.660751 1.47803 0
M  V30 6045 H 550.865 -3.74862 1.52513 0
M  V30 6046 H 549.435 -3.03832 0.735159 0
M  V30 6047 H 548.655 -2.39003 3.13483 0
M  V30 6048 H 549.943 -3.44352 3.74565 0
M  V30 6049 H 549.341 -5.50099 1.31939 0
M  V30 6050 H 547.898 -6.23757 1.8913 0
M  V30 6051 N 551.331 -1.39911 -0.725443 0
M  V30 6052 C 552.263 -1.35301 -1.85003 0
M  V30 6053 C 553.276 -0.260102 -1.60709 0
M  V30 6054 O 554.465 -0.519749 -1.70766 0
M  V30 6055 C 551.565 -1.08039 -3.21218 0
M  V30 6056 C 550.738 -2.28793 -3.7279 0
M  V30 6057 C 549.797 -1.97841 -4.87591 0
M  V30 6058 O 548.823 -2.70616 -5.00755 0
M  V30 6059 N 550.025 -0.950367 -5.72668 0
M  V30 6060 H 552.79 -2.32218 -1.89459 0
M  V30 6061 H 550.351 -1.34137 -0.90658 0
M  V30 6062 H 552.343 -0.853354 -3.95601 0
M  V30 6063 H 550.913 -0.198229 -3.11971 0
M  V30 6064 H 550.133 -2.67388 -2.8965 0
M  V30 6065 H 551.421 -3.09317 -4.03981 0
M  V30 6066 H 550.819 -0.347436 -5.64632 0
M  V30 6067 H 549.376 -0.783232 -6.47077 0
M  V30 6068 N 552.809 0.956637 -1.25245 0
M  V30 6069 C 553.772 2.03457 -1.05537 0
M  V30 6070 C 554.772 1.60798 -0.00886317 0
M  V30 6071 O 555.962 1.72384 -0.250865 0
M  V30 6072 C 553.094 3.35543 -0.601965 0
M  V30 6073 H 554.287 2.22372 -2.01223 0
M  V30 6074 H 551.84 1.13344 -1.07623 0
M  V30 6075 H 552.575 3.22323 0.357584 0
M  V30 6076 H 552.36 3.67854 -1.35743 0
M  V30 6077 H 553.85 4.14769 -0.485454 0
M  V30 6078 N 554.287 1.06798 1.15896 0
M  V30 6079 C 555.235 0.677525 2.22514 0
M  V30 6080 C 556.229 -0.308994 1.66558 0
M  V30 6081 O 557.435 -0.173308 1.79164 0
M  V30 6082 H 553.81 0.200994 0.724642 0
M  V30 6083 H 555.781 1.5865 2.52731 0
M  V30 6084 C 554.53 0.0854153 3.47595 0
M  V30 6085 H 553.853 0.835645 3.90969 0
M  V30 6086 H 555.293 -0.150199 4.23734 0
M  V30 6087 C 553.752 -1.1724 3.15843 0
M  V30 6088 O 554.282 -2.25965 3.32119 0
M  V30 6089 N 552.488 -1.07636 2.69931 0
M  V30 6090 H 552.035 -0.191559 2.56887 0
M  V30 6091 H 551.993 -1.91876 2.4906 0
M  V30 6092 N 555.766 -1.3263 0.851289 0
M  V30 6093 C 557.177 -1.79653 0.5081 0
M  V30 6094 C 557.528 -1.70327 -0.973815 0
M  V30 6095 O 556.653 -1.25986 -1.75944 0
M  V30 6096 C 557.248 -3.26196 0.915515 0
M  V30 6097 C 555.807 -3.71187 0.624277 0
M  V30 6098 C 554.954 -2.53804 1.11709 0
M  V30 6099 H 557.905 -1.19976 1.03882 0
M  V30 6100 H 557.926 -3.79801 0.230535 0
M  V30 6101 H 557.438 -3.32952 1.99411 0
M  V30 6102 H 555.539 -3.69948 -0.443737 0
M  V30 6103 H 555.652 -4.64132 1.18821 0
M  V30 6104 H 554.016 -2.48964 0.537484 0
M  V30 6105 H 554.799 -2.63315 2.20272 0
M  V30 6106 N 557.244 -0.608902 -1.45362 0
M  V30 6107 C 558.194 0.130616 -2.27626 0
M  V30 6108 C 559.178 0.837323 -1.37396 0
M  V30 6109 O 560.37 0.727096 -1.61376 0
M  V30 6110 C 557.499 1.12646 -3.24293 0
M  V30 6111 C 556.585 0.42052 -4.2201 0
M  V30 6112 N 556.976 -0.538569 -5.02925 0
M  V30 6113 C 555.274 0.667901 -4.40971 0
M  V30 6114 C 555.975 -0.953625 -5.7383 0
M  V30 6115 N 554.951 -0.297097 -5.42788 0
M  V30 6116 H 558.753 -0.605996 -2.87585 0
M  V30 6117 H 556.267 -0.432672 -1.5653 0
M  V30 6118 H 558.264 1.67066 -3.81961 0
M  V30 6119 H 556.924 1.86361 -2.65894 0
M  V30 6120 H 557.935 -0.915375 -5.09746 0
M  V30 6121 H 554.612 1.38963 -3.93695 0
M  V30 6122 H 556.002 -1.74473 -6.48852 0
M  V30 6123 N 558.722 1.53707 -0.348139 0
M  V30 6124 C 559.672 2.2193 0.522592 0
M  V30 6125 C 560.656 1.20831 1.06248 0
M  V30 6126 O 561.848 1.46357 0.995415 0
M  V30 6127 C 558.977 2.99904 1.6707 0
M  V30 6128 C 558.063 4.08364 1.14454 0
M  V30 6129 N 558.454 5.04656 0.339958 0
M  V30 6130 C 556.752 4.22757 1.421 0
M  V30 6131 C 557.453 5.81675 0.0538806 0
M  V30 6132 N 556.429 5.39739 0.646776 0
M  V30 6133 H 560.231 2.93733 -0.099135 0
M  V30 6134 H 557.745 1.61656 -0.15524 0
M  V30 6135 H 559.742 3.47284 2.30651 0
M  V30 6136 H 558.402 2.29629 2.29566 0
M  V30 6137 H 559.413 5.17896 -0.0193552 0
M  V30 6138 H 556.09 3.63704 2.05002 0
M  V30 6139 H 557.48 6.69256 -0.595443 0
M  V30 6140 N 560.2 0.0768682 1.57412 0
M  V30 6141 C 561.13 -0.886026 2.16037 0
M  V30 6142 C 562.111 -1.30691 1.08876 0
M  V30 6143 O 563.296 -1.37705 1.36934 0
M  V30 6144 C 560.426 -2.1518 2.72608 0
M  V30 6145 C 559.38 -1.87015 3.8498 0
M  V30 6146 C 558.706 -3.20266 4.28175 0
M  V30 6147 C 560.006 -1.17143 5.08994 0
M  V30 6148 H 561.7 -0.397642 2.96748 0
M  V30 6149 H 559.246 -0.189823 1.42743 0
M  V30 6150 H 561.199 -2.82962 3.12266 0
M  V30 6151 H 559.923 -2.66269 1.89125 0
M  V30 6152 H 558.582 -1.21636 3.45833 0
M  V30 6153 H 558.23 -3.69207 3.41607 0
M  V30 6154 H 557.93 -3.0221 5.03927 0
M  V30 6155 H 559.454 -3.89237 4.70454 0
M  V30 6156 H 560.868 -1.75003 5.45937 0
M  V30 6157 H 559.265 -1.09328 5.90057 0
M  V30 6158 H 560.335 -0.151295 4.84664 0
M  V30 6159 N 561.678 -1.56367 -0.196722 0
M  V30 6160 C 563.094 -1.49916 -0.54749 0
M  V30 6161 C 563.294 -0.77659 -1.85934 0
M  V30 6162 O 562.35 -0.32644 -2.50381 0
M  V30 6163 C 563.663 -2.94577 -0.603734 0
M  V30 6164 C 565.211 -3.05239 -0.692677 0
M  V30 6165 C 565.686 -4.51308 -0.780046 0
M  V30 6166 N 567.177 -4.55453 -0.843616 0
M  V30 6167 C 567.912 -5.65786 -0.931358 0
M  V30 6168 N 567.408 -6.85812 -0.981503 0
M  V30 6169 N 569.201 -5.53695 -0.968421 0
M  V30 6170 H 561.352 -2.01761 0.663803 0
M  V30 6171 H 563.615 -0.918094 0.236238 0
M  V30 6172 H 563.321 -3.50494 0.29105 0
M  V30 6173 H 563.195 -3.47841 -1.45898 0
M  V30 6174 H 565.582 -2.49372 -1.57789 0
M  V30 6175 H 565.663 -2.55103 0.188736 0
M  V30 6176 H 565.307 -5.078 0.100811 0
M  V30 6177 H 565.237 -4.99176 -1.67724 0
M  V30 6178 H 567.728 -3.69025 -0.814176 0
M  V30 6179 H 568.041 -7.65648 -1.04892 0
M  V30 6180 H 566.386 -6.88474 -0.950208 0
M  V30 6181 H 569.577 -4.58848 -0.926072 0
M  V30 6182 H 569.75 -6.39708 -1.03334 0
M  V30 6183 N 563.156 0.464375 -1.50603 0
M  V30 6184 C 564.119 1.54393 -1.69397 0
M  V30 6185 C 565.119 1.50566 -0.564504 0
M  V30 6186 O 566.309 1.53066 -0.831645 0
M  V30 6187 C 563.441 2.9401 -1.72543 0
M  V30 6188 H 564.634 1.39044 -2.65719 0
M  V30 6189 H 562.187 0.69122 -1.40185 0
M  V30 6190 H 562.922 3.14795 -0.77938 0
M  V30 6191 H 562.707 2.98195 -2.54602 0
M  V30 6192 H 564.197 3.72375 -1.89015 0
M  V30 6193 N 564.634 1.40294 0.718013 0
M  V30 6194 C 565.584 1.36847 1.82365 0
M  V30 6195 C 566.568 0.246424 1.59002 0
M  V30 6196 O 567.76 0.485336 1.70216 0
M  V30 6197 C 564.889 1.23105 3.20469 0
M  V30 6198 C 563.975 2.4008 3.49603 0
M  V30 6199 N 564.366 3.65562 3.49568 0
M  V30 6200 C 562.664 2.33407 3.80049 0
M  V30 6201 C 563.365 4.43015 3.76978 0
M  V30 6202 N 562.341 3.72823 3.95606 0
M  V30 6203 H 566.143 2.31811 1.80668 0
M  V30 6204 H 563.657 1.34031 0.91703 0
M  V30 6205 H 565.654 1.18718 3.9964 0
M  V30 6206 H 564.314 0.291056 3.23393 0
M  V30 6207 H 565.325 3.98756 3.30476 0
M  V30 6208 H 562.002 1.47762 3.90478 0
M  V30 6209 H 563.392 5.51859 3.83276 0
M  V30 6210 N 566.112 -0.949982 1.2575 0
M  V30 6211 C 567.042 -2.06483 1.09028 0
M  V30 6212 C 568.023 -1.701 -0.00201532 0
M  V30 6213 O 569.208 -1.93469 0.168383 0
M  V30 6214 C 566.338 -3.39899 0.71316 0
M  V30 6215 C 565.292 -3.90309 1.75621 0
M  V30 6216 C 564.618 -5.20274 1.23365 0
M  V30 6217 C 565.918 -4.16169 3.15596 0
M  V30 6218 H 567.612 -2.20731 2.02283 0
M  V30 6219 H 565.158 -1.06066 0.973964 0
M  V30 6220 H 567.111 -4.17346 0.58309 0
M  V30 6221 H 565.835 -3.25602 -0.255091 0
M  V30 6222 H 564.494 -3.15035 1.8748 0
M  V30 6223 H 564.142 -5.02351 0.255491 0
M  V30 6224 H 563.842 -5.54971 1.93082 0
M  V30 6225 H 565.366 -6.00314 1.11607 0
M  V30 6226 H 566.78 -4.84259 3.06864 0
M  V30 6227 H 565.177 -4.62131 3.82825 0
M  V30 6228 H 566.247 -3.22273 3.6231 0
M  V30 6229 N 567.59 -1.07411 -1.15328 0
M  V30 6230 C 568.553 -0.698914 -2.18284 0
M  V30 6231 C 569.553 0.261149 -1.58665 0
M  V30 6232 O 570.743 0.0420277 -1.74149 0
M  V30 6233 C 567.875 -0.0302427 -3.40887 0
M  V30 6234 H 569.068 -1.61045 -2.52991 0
M  V30 6235 H 566.621 -0.870724 -1.298 0
M  V30 6236 H 567.356 0.893505 -3.11748 0
M  V30 6237 H 567.141 -0.720759 -3.85419 0
M  V30 6238 H 568.631 0.21759 -4.17033 0
M  V30 6239 N 569.068 1.32177 -0.85831 0
M  V30 6240 C 570.031 2.27086 -0.310588 0
M  V30 6241 C 571.031 1.51751 0.531806 0
M  V30 6242 O 572.221 1.70794 0.34279 0
M  V30 6243 C 569.353 3.36266 0.560179 0
M  V30 6244 H 570.546 2.77045 -1.1483 0
M  V30 6245 H 568.099 1.42911 -0.632942 0
M  V30 6246 H 568.834 2.9158 1.41956 0
M  V30 6247 H 568.619 3.92077 -0.0428473 0
M  V30 6248 H 570.109 4.06974 0.936056 0
M  V30 6249 N 570.547 0.616602 1.45037 0
M  V30 6250 C 571.824 0.0469086 1.95544 0
M  V30 6251 C 572.204 -1.42345 1.55888 0
M  V30 6252 O 571.552 -2.13055 0.825824 0
M  V30 6253 C 571.762 0.254489 3.48071 0
M  V30 6254 C 573.11 0.140025 4.24369 0
M  V30 6255 O 574.134 0.185084 3.55719 0
M  V30 6256 O 572.993 0.0327034 5.4649 0
M  V30 6257 H 570.087 -0.0306051 0.826433 0
M  V30 6258 H 572.633 0.687293 1.55159 0
M  V30 6259 H 571.405 1.27532 3.69934 0
M  V30 6260 H 571.028 -0.42073 3.95368 0
M  V30 6261 N 572.025 -1.5352 0.356285 0
M  V30 6262 C 573.441 -1.59599 0.00485267 0
M  V30 6263 C 573.641 -1.37179 -1.47595 0
M  V30 6264 O 572.697 -1.17234 -2.23635 0
M  V30 6265 C 574.01 -2.97277 0.452454 0
M  V30 6266 C 575.558 -3.10357 0.405881 0
M  V30 6267 C 576.033 -4.50432 0.829148 0
M  V30 6268 N 577.524 -4.5652 0.783838 0
M  V30 6269 C 578.259 -5.63077 1.08315 0
M  V30 6270 N 577.755 -6.77429 1.45126 0
M  V30 6271 N 579.548 -5.53014 1.00655 0
M  V30 6272 H 571.699 -1.66346 1.32071 0
M  V30 6273 H 573.962 -0.77971 0.539218 0
M  V30 6274 H 573.668 -3.18792 1.48542 0
M  V30 6275 H 573.542 -3.76836 -0.165762 0
M  V30 6276 H 575.929 -2.88558 -0.617934 0
M  V30 6277 H 576.01 -2.32828 1.05947 0
M  V30 6278 H 575.654 -4.72968 1.85103 0
M  V30 6279 H 575.584 -5.26378 0.152906 0
M  V30 6280 H 578.075 -3.74408 0.512513 0
M  V30 6281 H 578.388 -7.54669 1.66415 0
M  V30 6282 H 576.733 -6.78844 1.48983 0
M  V30 6283 H 579.924 -4.62557 0.718215 0
M  V30 6284 H 580.097 -6.35964 1.24315 0
M  V30 6285 N 573.503 -0.0852151 -1.57369 0
M  V30 6286 C 574.453 0.88767 -2.10011 0
M  V30 6287 C 575.437 1.25021 -1.01285 0
M  V30 6288 O 576.629 1.22694 -1.27574 0
M  V30 6289 C 573.758 2.15037 -2.67608 0
M  V30 6290 C 572.844 1.81371 -3.83361 0
M  V30 6291 N 573.235 1.18216 -4.91791 0
M  V30 6292 C 571.533 2.11041 -3.92909 0
M  V30 6293 C 572.234 1.02941 -5.72519 0
M  V30 6294 N 571.21 1.54351 -5.21226 0
M  V30 6295 H 575.012 0.395279 -2.9123 0
M  V30 6296 H 572.526 0.11829 -1.61969 0
M  V30 6297 H 574.523 2.85667 -3.03644 0
M  V30 6298 H 573.183 2.64851 -1.8784 0
M  V30 6299 H 574.194 0.850168 -5.10874 0
M  V30 6300 H 570.871 2.63138 -3.24136 0
M  V30 6301 H 572.261 0.536298 -6.69756 0
M  V30 6302 N 574.981 1.5647 0.188427 0
M  V30 6303 C 576.229 1.80655 0.905986 0
M  V30 6304 C 576.55 0.659391 1.83513 0
M  V30 6305 O 575.82 -0.321868 1.93238 0
M  V30 6306 H 574.4 0.666391 0.337538 0
M  V30 6307 H 577.062 1.93949 0.192339 0
M  V30 6308 H 576.158 2.74066 1.49313 0
M  V30 6309 N 576.459 -0.456382 1.50847 0
M  V30 6310 C 577.707 -1.20497 1.62249 0
M  V30 6311 C 578.028 -1.92156 0.331839 0
M  V30 6312 O 577.298 -1.84751 -0.651443 0
M  V30 6313 H 575.878 -0.447775 0.597918 0
M  V30 6314 H 578.54 -0.525099 1.87693 0
M  V30 6315 H 577.636 -1.94492 2.44089 0
M  V30 6316 N 577.937 -1.40673 -0.710563 0
M  V30 6317 C 579.162 -1.42741 -1.50465 0
M  V30 6318 C 579.587 -0.0302116 -1.88076 0
M  V30 6319 O 578.945 0.962945 -1.53613 0
M  V30 6320 C 578.993 -2.32873 -2.75322 0
M  V30 6321 O 578.097 -1.77544 -3.72226 0
M  V30 6322 H 577.438 -0.485056 -0.45345 0
M  V30 6323 H 579.968 -1.84961 -0.874681 0
M  V30 6324 H 579.978 -2.48233 -3.23797 0
M  V30 6325 H 578.653 -3.34401 -2.47283 0
M  V30 6326 H 577.23 -1.71556 -3.31093 0
M  V30 6327 N 579.415 0.9433 -1.26252 0
M  V30 6328 C 580.661 1.69175 -1.11837 0
M  V30 6329 C 580.994 1.91238 0.337891 0
M  V30 6330 O 580.269 1.49152 1.24836 0
M  V30 6331 C 580.552 3.06783 -1.88563 0
M  V30 6332 C 580.405 2.9206 -3.42083 0
M  V30 6333 C 581.724 4.06865 -1.67776 0
M  V30 6334 H 578.843 0.61399 -0.407658 0
M  V30 6335 H 581.485 1.09572 -1.55222 0
M  V30 6336 H 579.635 3.57663 -1.51689 0
M  V30 6337 H 581.307 2.48419 -3.88698 0
M  V30 6338 H 579.55 2.27731 -3.69217 0
M  V30 6339 H 580.221 3.89651 -3.90994 0
M  V30 6340 H 582.697 3.64939 -1.99897 0
M  V30 6341 H 581.573 5.01168 -2.23879 0
M  V30 6342 H 581.834 4.37705 -0.621816 0
M  V30 6343 N 580.893 1.08022 1.14757 0
M  V30 6344 C 581.825 0.664566 2.19354 0
M  V30 6345 C 582.838 -0.286374 1.60261 0
M  V30 6346 O 584.027 -0.0746362 1.78344 0
M  V30 6347 C 581.127 -0.0434634 3.38872 0
M  V30 6348 C 580.3 0.925381 4.27499 0
M  V30 6349 C 579.359 0.253398 5.2559 0
M  V30 6350 O 578.385 0.896581 5.62094 0
M  V30 6351 N 579.587 -0.998263 5.71852 0
M  V30 6352 H 582.352 1.56438 2.55631 0
M  V30 6353 H 579.913 0.965788 1.29939 0
M  V30 6354 H 581.905 -0.503857 4.01551 0
M  V30 6355 H 580.475 -0.845321 3.00954 0
M  V30 6356 H 579.695 1.56472 3.61815 0
M  V30 6357 H 580.983 1.58203 4.8358 0
M  V30 6358 H 580.381 -1.54063 5.44317 0
M  V30 6359 H 578.938 -1.40222 6.36538 0
M  V30 6360 N 582.371 -1.3172 0.865308 0
M  V30 6361 C 583.617 -1.97168 0.474633 0
M  V30 6362 C 583.95 -1.68263 -0.969604 0
M  V30 6363 O 583.225 -0.976588 -1.68205 0
M  V30 6364 C 583.508 -3.52689 0.726808 0
M  V30 6365 C 583.361 -3.91185 2.22024 0
M  V30 6366 C 584.68 -4.39689 0.190201 0
M  V30 6367 H 581.799 -0.716185 0.17392 0
M  V30 6368 H 584.441 -1.55925 1.08569 0
M  V30 6369 H 582.591 -3.8795 0.206705 0
M  V30 6370 H 584.263 -3.66049 2.80724 0
M  V30 6371 H 582.506 -3.3996 2.69462 0
M  V30 6372 H 583.177 -4.99604 2.34735 0
M  V30 6373 H 585.653 -4.11225 0.635103 0
M  V30 6374 H 584.529 -5.47469 0.396132 0
M  V30 6375 H 584.79 -4.32683 -0.907625 0
M  V30 6376 N 583.85 -0.624285 -1.44708 0
M  V30 6377 C 585.096 -0.126237 -2.02407 0
M  V30 6378 C 585.428 1.24618 -1.48943 0
M  V30 6379 O 584.704 1.82569 -0.670742 0
M  V30 6380 C 584.986 -0.105449 -3.59946 0
M  V30 6381 C 584.84 -1.50972 -4.23707 0
M  V30 6382 C 586.159 0.573629 -4.36346 0
M  V30 6383 H 583.278 -0.0473472 -0.735478 0
M  V30 6384 H 585.92 -0.799452 -1.72362 0
M  V30 6385 H 584.07 0.46783 -3.85673 0
M  V30 6386 H 585.742 -2.13136 -4.0911 0
M  V30 6387 H 583.985 -2.0656 -3.81465 0
M  V30 6388 H 584.656 -1.44727 -5.32689 0
M  V30 6389 H 587.132 0.0861787 -4.16011 0
M  V30 6390 H 586.008 0.557338 -5.46063 0
M  V30 6391 H 586.269 1.64276 -4.10446 0
M  V30 6392 N 585.328 1.53329 -0.364422 0
M  V30 6393 C 586.553 2.06132 0.229033 0
M  V30 6394 C 586.978 1.23625 1.41769 0
M  V30 6395 O 586.336 0.255038 1.79497 0
M  V30 6396 C 586.384 3.55544 0.60174 0
M  V30 6397 O 585.488 3.75771 1.69912 0
M  V30 6398 H 584.829 0.663148 0.0336213 0
M  V30 6399 H 587.359 1.97758 -0.524689 0
M  V30 6400 H 587.369 3.98549 0.873073 0
M  V30 6401 H 586.044 4.15039 -0.267421 0
M  V30 6402 H 584.621 3.44663 1.42343 0
M  V30 6403 N 586.806 0.0935595 1.57322 0
M  V30 6404 C 588.031 -0.582324 1.99057 0
M  V30 6405 C 588.456 -1.61025 0.972242 0
M  V30 6406 O 587.814 -1.81202 -0.0594622 0
M  V30 6407 C 587.862 -1.20799 3.39765 0
M  V30 6408 O 586.966 -2.32382 3.40694 0
M  V30 6409 H 586.307 -0.147884 0.647323 0
M  V30 6410 H 588.837 0.174516 2.03854 0
M  V30 6411 H 588.847 -1.54966 3.77425 0
M  V30 6412 H 587.522 -0.454914 4.13405 0
M  V30 6413 H 586.099 -1.99845 3.14827 0
M  V30 6414 N 588.284 -1.56567 -0.180126 0
M  V30 6415 C 589.512 -1.85618 -0.913972 0
M  V30 6416 C 589.927 -0.677892 -1.7621 0
M  V30 6417 O 589.284 0.353171 -1.7905 0
M  V30 6418 C 589.335 -3.13619 -1.79793 0
M  V30 6419 O 589.056 -4.26906 -0.98402 0
M  V30 6420 C 590.557 -3.55954 -2.64219 0
M  V30 6421 H 587.777 -0.616043 -0.265954 0
M  V30 6422 H 590.321 -2.03681 -0.182872 0
M  V30 6423 H 588.476 -2.97409 -2.48247 0
M  V30 6424 H 588.89 -4.9989 -1.58776 0
M  V30 6425 H 590.364 -4.48444 -3.21873 0
M  V30 6426 H 590.841 -2.79653 -3.38661 0
M  V30 6427 H 591.447 -3.74746 -2.01111 0
M  V30 6428 N 589.762 0.448376 -1.51087 0
M  V30 6429 C 590.71 1.56407 -1.72161 0
M  V30 6430 C 591.704 1.58878 -0.587721 0
M  V30 6431 O 592.91 1.62755 -0.768822 0
M  V30 6432 H 589.285 0.519423 -0.543786 0
M  V30 6433 H 591.256 1.35803 -2.65707 0
M  V30 6434 C 590.005 2.94163 -1.85373 0
M  V30 6435 H 589.328 2.9299 -2.72024 0
M  V30 6436 H 590.768 3.71625 -2.04135 0
M  V30 6437 C 589.227 3.31317 -0.610803 0
M  V30 6438 O 589.757 4.00985 0.239636 0
M  V30 6439 N 587.963 2.86966 -0.458127 0
M  V30 6440 H 587.51 2.30443 -1.15124 0
M  V30 6441 H 587.468 3.12188 0.372289 0
M  V30 6442 N 591.24 1.41047 0.703093 0
M  V30 6443 C 592.488 1.39723 1.4602 0
M  V30 6444 C 592.809 0.00461257 1.94999 0
M  V30 6445 O 592.079 -0.952292 1.71196 0
M  V30 6446 H 590.659 0.514281 0.541779 0
M  V30 6447 H 593.321 1.76217 0.832678 0
M  V30 6448 H 592.417 2.07982 2.32701 0
M  V30 6449 N 592.718 -0.936591 1.26751 0
M  V30 6450 C 593.628 -2.06949 1.10496 0
M  V30 6451 C 594.644 -1.7396 0.037271 0
M  V30 6452 O 595.82 -1.99941 0.241944 0
M  V30 6453 C 592.885 -3.38612 0.744491 0
M  V30 6454 C 591.946 -3.85355 1.89209 0
M  V30 6455 C 591.179 -5.10735 1.54873 0
M  V30 6456 O 591.402 -5.68602 0.452546 0
M  V30 6457 O 590.336 -5.52632 2.38499 0
M  V30 6458 H 594.162 -2.23571 2.05547 0
M  V30 6459 H 591.747 -1.05428 1.05855 0
M  V30 6460 H 593.629 -4.17711 0.556396 0
M  V30 6461 H 592.304 -3.23218 -0.176582 0
M  V30 6462 H 591.211 -3.07182 2.13518 0
M  V30 6463 H 592.544 -4.05277 2.79305 0
M  V30 6464 N 594.196 -1.08629 -1.14182 0
M  V30 6465 C 595.126 -0.740003 -2.21464 0
M  V30 6466 C 596.107 0.278591 -1.67803 0
M  V30 6467 O 597.292 0.148461 -1.93632 0
M  V30 6468 C 594.422 -0.150952 -3.46972 0
M  V30 6469 C 593.376 -1.09815 -4.13672 0
M  V30 6470 C 592.702 -0.3712 -5.3341 0
M  V30 6471 C 594.002 -2.43722 -4.61949 0
M  V30 6472 H 595.696 -1.63697 -2.50686 0
M  V30 6473 H 593.242 -0.788526 -1.20492 0
M  V30 6474 H 595.195 0.103325 -4.21273 0
M  V30 6475 H 593.919 0.781164 -3.1712 0
M  V30 6476 H 592.578 -1.33756 -3.41328 0
M  V30 6477 H 592.226 0.564792 -4.99819 0
M  V30 6478 H 591.926 -1.00267 -5.78982 0
M  V30 6479 H 593.45 -0.12503 -6.10472 0
M  V30 6480 H 594.864 -2.24034 -5.27714 0
M  V30 6481 H 593.261 -3.02582 -5.18232 0
M  V30 6482 H 594.331 -3.05082 -3.76899 0
M  V30 6483 N 595.674 1.31259 -0.872281 0
M  V30 6484 C 596.622 2.30404 -0.318897 0
M  V30 6485 C 597.616 1.5962 0.567267 0
M  V30 6486 O 598.822 1.74204 0.453111 0
M  V30 6487 H 595.197 0.747243 -0.0844474 0
M  V30 6488 H 597.168 2.74549 -1.16899 0
M  V30 6489 C 595.917 3.44608 0.462683 0
M  V30 6490 H 595.24 3.99248 -0.209936 0
M  V30 6491 H 596.68 4.1609 0.815187 0
M  V30 6492 C 595.139 2.93456 1.65485 0
M  V30 6493 O 595.669 2.92418 2.75417 0
M  V30 6494 N 593.875 2.49628 1.48776 0
M  V30 6495 H 593.422 2.50671 0.593452 0
M  V30 6496 H 593.38 2.15759 2.28682 0
M  V30 6497 N 597.152 0.631951 1.44375 0
M  V30 6498 C 598.38 0.143867 2.06399 0
M  V30 6499 C 598.795 -1.18188 1.47231 0
M  V30 6500 O 598.152 -1.72511 0.595498 0
M  V30 6501 C 598.203 0.0238253 3.61492 0
M  V30 6502 O 597.924 1.29715 4.18456 0
M  V30 6503 C 599.425 -0.492856 4.40552 0
M  V30 6504 H 596.645 0.0800542 0.666207 0
M  V30 6505 H 599.189 0.866586 1.85231 0
M  V30 6506 H 597.344 -0.649338 3.81919 0
M  V30 6507 H 597.758 1.14252 5.11905 0
M  V30 6508 H 599.232 -0.525861 5.49489 0
M  V30 6509 H 599.709 -1.52006 4.12057 0
M  V30 6510 H 600.315 0.147085 4.25046 0
M  V30 6511 N 598.631 -1.53133 0.372548 0
M  V30 6512 C 599.908 -1.93704 -0.271693 0
M  V30 6513 C 600.288 -1.30667 -1.65799 0
M  V30 6514 O 599.636 -0.46838 -2.23648 0
M  V30 6515 C 599.846 -3.47576 -0.314903 0
M  V30 6516 C 601.194 -4.20998 -0.551912 0
M  V30 6517 O 602.218 -3.53994 -0.39582 0
M  V30 6518 O 601.077 -5.39748 -0.85639 0
M  V30 6519 H 598.171 -0.810457 -0.164586 0
M  V30 6520 H 600.717 -1.6427 0.425838 0
M  V30 6521 H 599.489 -3.85749 0.656792 0
M  V30 6522 H 599.112 -3.83264 -1.05804 0
M  V30 6523 N 600.109 -0.101901 -1.5727 0
M  V30 6524 C 601.386 0.602832 -1.86079 0
M  V30 6525 C 601.766 1.85912 -1 0
M  V30 6526 O 601.114 2.28379 -0.0742488 0
M  V30 6527 C 601.324 0.911694 -3.36881 0
M  V30 6528 C 602.672 1.2722 -4.05093 0
M  V30 6529 O 603.696 1.0025 -3.41802 0
M  V30 6530 O 602.555 1.7776 -5.16782 0
M  V30 6531 H 599.649 0.302366 -0.769743 0
M  V30 6532 H 602.195 -0.135113 -1.69161 0
M  V30 6533 H 600.967 0.0207256 -3.91295 0
M  V30 6534 H 600.59 1.70538 -3.59169 0
M  V30 6535 N 601.587 1.56661 0.17182 0
M  V30 6536 C 602.998 1.71652 0.734329 0
M  V30 6537 C 603.349 0.712335 1.82812 0
M  V30 6538 O 602.474 -0.126401 2.16031 0
M  V30 6539 C 603.069 3.11226 1.3388 0
M  V30 6540 C 601.628 3.27904 1.84813 0
M  V30 6541 C 600.775 2.67603 0.726917 0
M  V30 6542 H 603.726 1.5861 -0.0535665 0
M  V30 6543 H 603.747 3.09849 2.20849 0
M  V30 6544 H 603.259 3.8429 0.54249 0
M  V30 6545 H 601.36 2.59796 2.6709 0
M  V30 6546 H 601.473 4.35637 1.99392 0
M  V30 6547 H 599.837 2.274 1.14723 0
M  V30 6548 H 600.62 3.43252 -0.0575334 0
M  V30 6549 N 603.065 -0.440357 1.51323 0
M  V30 6550 C 604.293 -1.21255 1.67645 0
M  V30 6551 C 604.708 -1.85088 0.37252 0
M  V30 6552 O 604.065 -1.70582 -0.648683 0
M  V30 6553 C 604.116 -2.29881 2.78993 0
M  V30 6554 O 603.837 -1.68659 4.04334 0
M  V30 6555 C 605.338 -3.20214 3.06558 0
M  V30 6556 H 602.558 -0.36558 0.562666 0
M  V30 6557 H 605.102 -0.52214 1.97722 0
M  V30 6558 H 603.257 -2.94643 2.51524 0
M  V30 6559 H 603.671 -2.40426 4.6615 0
M  V30 6560 H 605.145 -3.92575 3.88058 0
M  V30 6561 H 605.622 -3.80794 2.18844 0
M  V30 6562 H 606.228 -2.61156 3.35675 0
M  V30 6563 N 604.543 -1.41418 -0.695603 0
M  V30 6564 C 605.506 -1.42988 -1.79129 0
M  V30 6565 C 606.506 -0.320514 -1.57573 0
M  V30 6566 O 607.696 -0.58039 -1.64247 0
M  V30 6567 C 604.828 -1.24122 -3.175 0
M  V30 6568 H 606.021 -2.40526 -1.7913 0
M  V30 6569 H 603.574 -1.2756 -0.903225 0
M  V30 6570 H 604.309 -0.274253 -3.23138 0
M  V30 6571 H 604.094 -2.045 -3.34547 0
M  V30 6572 H 605.584 -1.28056 -3.97481 0
M  V30 6573 N 606.021 0.929856 -1.27246 0
M  V30 6574 C 607.269 1.674 -1.13233 0
M  V30 6575 C 607.59 1.92311 0.322744 0
M  V30 6576 O 606.86 1.52784 1.22612 0
M  V30 6577 H 605.44 0.620411 -0.416052 0
M  V30 6578 H 608.102 1.11663 -1.59741 0
M  V30 6579 H 607.198 2.64308 -1.65975 0
M  V30 6580 N 607.499 1.09233 1.13605 0
M  V30 6581 C 608.915 0.82163 1.36826 0
M  V30 6582 C 609.115 -0.565021 1.93416 0
M  V30 6583 O 608.171 -1.32026 2.15234 0
M  V30 6584 C 609.484 1.91124 2.32147 0
M  V30 6585 C 611.032 1.93824 2.45767 0
M  V30 6586 C 611.507 3.01923 3.44393 0
M  V30 6587 N 612.998 3.01149 3.51942 0
M  V30 6588 C 613.733 3.81434 4.2813 0
M  V30 6589 N 613.229 4.71621 5.07489 0
M  V30 6590 N 615.022 3.69702 4.23411 0
M  V30 6591 H 607.173 1.98633 0.752234 0
M  V30 6592 H 609.436 0.862482 0.393482 0
M  V30 6593 H 609.142 2.90862 1.97717 0
M  V30 6594 H 609.016 1.78777 3.32142 0
M  V30 6595 H 611.403 0.94726 2.79483 0
M  V30 6596 H 611.484 2.10248 1.45703 0
M  V30 6597 H 611.128 4.01232 3.11408 0
M  V30 6598 H 611.058 2.82742 4.44257 0
M  V30 6599 H 613.549 2.35789 2.95317 0
M  V30 6600 H 613.862 5.29468 5.62924 0
M  V30 6601 H 612.207 4.75658 5.06729 0
M  V30 6602 H 615.398 2.98606 3.60489 0
M  V30 6603 H 615.571 4.32509 4.82535 0
M  V30 6604 N 608.977 -1.30795 0.87923 0
M  V30 6605 C 610.202 -2.01063 0.508769 0
M  V30 6606 C 610.627 -1.65508 -0.893803 0
M  V30 6607 O 609.985 -0.868616 -1.59138 0
M  V30 6608 C 610.033 -3.54054 0.683991 0
M  V30 6609 O 609.137 -4.11498 -0.272654 0
M  V30 6610 H 608.478 -0.632786 0.201191 0
M  V30 6611 H 611.008 -1.66776 1.18519 0
M  V30 6612 H 611.018 -4.03845 0.580798 0
M  V30 6613 H 609.693 -3.79271 1.70665 0
M  V30 6614 H 608.27 -3.72695 -0.12364 0
M  V30 6615 N 610.455 -0.639598 -1.44038 0
M  V30 6616 C 611.403 0.0723409 -2.32487 0
M  V30 6617 C 612.397 0.827129 -1.47834 0
M  V30 6618 O 613.603 0.73907 -1.64127 0
M  V30 6619 H 609.978 0.0421696 -0.750817 0
M  V30 6620 H 611.949 -0.691593 -2.90275 0
M  V30 6621 C 610.698 1.03452 -3.31953 0
M  V30 6622 H 610.021 0.46315 -3.97108 0
M  V30 6623 H 611.461 1.502 -3.96505 0
M  V30 6624 C 609.92 2.12392 -2.61518 0
M  V30 6625 O 610.45 3.2059 -2.42044 0
M  V30 6626 N 608.656 1.88563 -2.21116 0
M  V30 6627 H 608.203 1.00577 -2.37154 0
M  V30 6628 H 608.161 2.61651 -1.74316 0
M  V30 6629 N 611.933 1.52934 -0.380664 0
M  V30 6630 C 612.896 2.24809 0.446473 0
M  V30 6631 C 613.896 1.26133 0.997347 0
M  V30 6632 O 615.086 1.50297 0.880714 0
M  V30 6633 C 612.218 2.99649 1.62553 0
M  V30 6634 H 613.411 2.99343 -0.182677 0
M  V30 6635 H 610.964 1.55736 -0.132618 0
M  V30 6636 H 611.699 2.29395 2.29235 0
M  V30 6637 H 611.484 3.72066 1.23732 0
M  V30 6638 H 612.974 3.54246 2.21133 0
M  V30 6639 N 613.412 0.11024 1.57214 0
M  V30 6640 C 614.823 -0.416527 1.81994 0
M  V30 6641 C 615.174 -1.67183 1.02686 0
M  V30 6642 O 614.299 -2.14823 0.260782 0
M  V30 6643 C 614.894 -0.762466 3.30109 0
M  V30 6644 C 613.453 -1.23391 3.556 0
M  V30 6645 C 612.6 -0.238166 2.76275 0
M  V30 6646 H 615.551 0.335491 1.55113 0
M  V30 6647 H 615.572 -1.62068 3.44259 0
M  V30 6648 H 615.084 0.151346 3.87805 0
M  V30 6649 H 613.185 -2.16492 3.03253 0
M  V30 6650 H 613.298 -1.18528 4.64207 0
M  V30 6651 H 611.662 -0.723421 2.4421 0
M  V30 6652 H 612.445 0.668591 3.36727 0
M  V30 6653 N 614.89 -1.56749 -0.16351 0
M  V30 6654 C 616.139 -1.81626 -0.877211 0
M  V30 6655 C 616.452 -0.688791 -1.83071 0
M  V30 6656 O 617.658 -0.822697 -2.58735 0
M  V30 6657 C 616.114 -3.21858 -1.61045 0
M  V30 6658 C 615.722 -4.42494 -0.700195 0
M  V30 6659 C 617.466 -3.56021 -2.31192 0
M  V30 6660 C 615.373 -5.73748 -1.43412 0
M  V30 6661 H 614.303 -0.67731 -0.331312 0
M  V30 6662 H 616.954 -1.83039 -0.13006 0
M  V30 6663 H 615.336 -3.14784 -2.40264 0
M  V30 6664 H 616.51 -4.60766 0.0555849 0
M  V30 6665 H 614.825 -4.1626 -0.10799 0
M  V30 6666 H 617.422 -4.51333 -2.8671 0
M  V30 6667 H 617.765 -2.81277 -3.06902 0
M  V30 6668 H 618.298 -3.64682 -1.58909 0
M  V30 6669 H 615.037 -6.51543 -0.719186 0
M  V30 6670 H 614.557 -5.5944 -2.16302 0
M  V30 6671 H 616.236 -6.15975 -1.9795 0
M  V30 6672 N 616.368 0.432326 -1.51554 0
M  V30 6673 C 617.596 1.20364 -1.68286 0
M  V30 6674 C 618.011 1.84888 -0.38233 0
M  V30 6675 O 617.368 1.70924 0.639627 0
M  V30 6676 C 617.419 2.28398 -2.80208 0
M  V30 6677 O 617.14 1.66512 -4.05223 0
M  V30 6678 C 618.641 3.18584 -3.08251 0
M  V30 6679 H 615.861 0.36259 -0.564596 0
M  V30 6680 H 618.405 0.511647 -1.97996 0
M  V30 6681 H 616.56 2.93305 -2.53083 0
M  V30 6682 H 616.974 2.37951 -4.67418 0
M  V30 6683 H 618.448 3.90511 -3.90135 0
M  V30 6684 H 618.925 3.79628 -2.2086 0
M  V30 6685 H 619.531 2.59372 -3.37055 0
M  V30 6686 N 617.846 1.41785 0.688094 0
M  V30 6687 C 618.809 1.43936 1.78368 0
M  V30 6688 C 619.809 0.328866 1.57401 0
M  V30 6689 O 620.999 0.589093 1.63937 0
M  V30 6690 C 618.131 1.25804 3.16838 0
M  V30 6691 H 619.324 2.41472 1.77852 0
M  V30 6692 H 616.877 1.28037 0.896448 0
M  V30 6693 H 617.612 0.291386 3.22988 0
M  V30 6694 H 617.397 2.06272 3.33458 0
M  V30 6695 H 618.887 1.30162 3.96797 0
M  V30 6696 N 619.324 -0.923095 1.27737 0
M  V30 6697 C 620.735 -1.48626 1.12993 0
M  V30 6698 C 621.086 -1.94142 -0.283439 0
M  V30 6699 O 620.211 -1.81605 -1.17681 0
M  V30 6700 C 620.806 -2.70117 2.04505 0
M  V30 6701 C 619.365 -3.22642 1.93853 0
M  V30 6702 C 618.512 -1.95368 1.96791 0
M  V30 6703 H 621.463 -0.736737 1.40563 0
M  V30 6704 H 621.484 -3.4506 1.60356 0
M  V30 6705 H 620.996 -2.36959 3.07363 0
M  V30 6706 H 619.097 -3.60549 0.939968 0
M  V30 6707 H 619.21 -3.88525 2.80331 0
M  V30 6708 H 617.574 -2.12061 1.41076 0
M  V30 6709 H 618.357 -1.64517 3.01312 0
M  V30 6710 N 620.802 -1.09834 -1.13024 0
M  V30 6711 C 622.03 -0.858902 -1.8823 0
M  V30 6712 C 622.445 0.590164 -1.79339 0
M  V30 6713 O 621.802 1.4065 -1.16292 0
M  V30 6714 C 621.853 -1.29066 -3.37675 0
M  V30 6715 O 621.574 -2.6829 -3.46341 0
M  V30 6716 C 623.075 -1.08421 -4.29837 0
M  V30 6717 H 620.295 -0.308713 -0.595766 0
M  V30 6718 H 622.839 -1.4614 -1.4305 0
M  V30 6719 H 620.994 -0.731961 -3.80422 0
M  V30 6720 H 621.408 -2.86598 -4.39274 0
M  V30 6721 H 622.882 -1.43553 -5.33007 0
M  V30 6722 H 623.359 -0.0223315 -4.39194 0
M  V30 6723 H 623.965 -1.62907 -3.92863 0
M  V30 6724 N 622.28 1.30327 -0.886154 0
M  V30 6725 C 623.19 2.31854 -0.357866 0
M  V30 6726 C 624.206 1.65392 0.540502 0
M  V30 6727 O 625.382 1.96683 0.433339 0
M  V30 6728 C 622.447 3.44171 0.417999 0
M  V30 6729 C 621.508 4.26257 -0.510263 0
M  V30 6730 C 620.741 5.3321 0.228669 0
M  V30 6731 O 620.964 5.51542 1.45458 0
M  V30 6732 O 619.898 6.0042 -0.421832 0
M  V30 6733 H 623.724 2.78995 -1.19982 0
M  V30 6734 H 621.309 1.34518 -0.650028 0
M  V30 6735 H 623.191 4.12588 0.857251 0
M  V30 6736 H 621.866 2.99164 1.23623 0
M  V30 6737 H 620.773 3.60533 -0.99835 0
M  V30 6738 H 622.106 4.74871 -1.29454 0
M  V30 6739 N 623.758 0.647228 1.43697 0
M  V30 6740 C 625.004 0.158422 2.0218 0
M  V30 6741 C 625.337 -1.22233 1.50907 0
M  V30 6742 O 624.612 -1.81478 0.699702 0
M  V30 6743 C 624.895 0.1627 3.59732 0
M  V30 6744 C 624.748 1.57694 4.21251 0
M  V30 6745 C 626.067 -0.504138 4.37203 0
M  V30 6746 H 623.186 0.059042 0.734631 0
M  V30 6747 H 625.828 0.826772 1.71069 0
M  V30 6748 H 623.978 -0.406414 3.86368 0
M  V30 6749 H 625.65 2.19618 4.05667 0
M  V30 6750 H 623.893 2.12603 3.7813 0
M  V30 6751 H 624.564 1.53183 5.3032 0
M  V30 6752 H 627.04 -0.0199841 4.16095 0
M  V30 6753 H 625.916 -0.470394 5.46881 0
M  V30 6754 H 626.177 -1.57726 4.13007 0
M  V30 6755 N 625.236 -1.5273 0.388769 0
M  V30 6756 C 626.146 -2.30165 -0.453993 0
M  V30 6757 C 627.162 -1.37058 -1.07197 0
M  V30 6758 O 628.338 -1.70127 -1.0779 0
M  V30 6759 C 625.403 -3.09303 -1.56628 0
M  V30 6760 C 624.464 -4.18117 -0.973467 0
M  V30 6761 C 623.697 -4.93472 -2.03275 0
M  V30 6762 O 623.92 -4.68913 -3.24772 0
M  V30 6763 O 622.854 -5.78833 -1.65034 0
M  V30 6764 H 626.68 -3.03185 0.176816 0
M  V30 6765 H 624.265 -1.4862 0.152501 0
M  V30 6766 H 626.147 -3.58648 -2.21246 0
M  V30 6767 H 624.822 -2.39098 -2.18206 0
M  V30 6768 H 623.729 -3.7297 -0.290556 0
M  V30 6769 H 625.062 -4.90556 -0.401908 0
M  V30 6770 N 626.714 -0.118576 -1.57153 0
M  V30 6771 C 627.96 0.540326 -1.95469 0
M  V30 6772 C 628.293 1.66356 -1.00196 0
M  V30 6773 O 627.568 1.94461 -0.039104 0
M  V30 6774 C 627.851 1.07342 -3.43729 0
M  V30 6775 C 627.704 -0.0463732 -4.49776 0
M  V30 6776 C 629.023 1.96442 -3.93826 0
M  V30 6777 H 626.142 0.19494 -0.710751 0
M  V30 6778 H 628.784 -0.19405 -1.89006 0
M  V30 6779 H 626.934 1.69925 -3.49368 0
M  V30 6780 H 628.606 -0.681648 -4.56236 0
M  V30 6781 H 626.849 -0.709574 -4.27957 0
M  V30 6782 H 627.52 0.367856 -5.50773 0
M  V30 6783 H 629.996 1.43731 -3.90488 0
M  V30 6784 H 628.872 2.3066 -4.98084 0
M  V30 6785 H 629.133 2.89077 -3.34495 0
M  V30 6786 N 628.193 1.56834 0.155195 0
M  V30 6787 C 629.126 1.9278 1.22111 0
M  V30 6788 C 630.104 0.792588 1.41975 0
M  V30 6789 O 631.288 1.04743 1.5672 0
M  V30 6790 C 628.415 2.19273 2.58142 0
M  V30 6791 C 627.461 3.41932 2.54921 0
M  V30 6792 S 628.294 4.95769 2.02418 0
M  V30 6793 C 629.45 5.25375 3.40194 0
M  V30 6794 H 629.683 2.82889 0.914393 0
M  V30 6795 H 627.216 1.50133 0.360461 0
M  V30 6796 H 629.174 2.35217 3.36427 0
M  V30 6797 H 627.835 1.29843 2.86007 0
M  V30 6798 H 627.028 3.57721 3.55038 0
M  V30 6799 H 626.63 3.25188 1.8474 0
M  V30 6800 H 628.922 5.1834 4.36268 0
M  V30 6801 H 629.865 6.26889 3.29266 0
M  V30 6802 H 630.273 4.52906 3.36951 0
M  V30 6803 N 629.671 -0.424282 1.51781 0
M  V30 6804 C 630.948 -1.18464 1.55646 0
M  V30 6805 C 631.328 -2.08529 0.328438 0
M  V30 6806 O 630.676 -2.17969 -0.685693 0
M  V30 6807 C 630.886 -1.97514 2.87731 0
M  V30 6808 C 632.234 -2.54106 3.40169 0
M  V30 6809 O 633.258 -2.07711 2.89369 0
M  V30 6810 O 632.117 -3.38759 4.28841 0
M  V30 6811 H 629.211 -0.540055 0.626314 0
M  V30 6812 H 631.757 -0.432291 1.64102 0
M  V30 6813 H 630.529 -1.31444 3.68562 0
M  V30 6814 H 630.152 -2.79787 2.82498 0
M  V30 6815 N 631.149 -1.42148 -0.680565 0
M  V30 6816 C 632.059 -1.47565 -1.82378 0
M  V30 6817 C 633.075 -0.36489 -1.70131 0
M  V30 6818 O 634.251 -0.614916 -1.91783 0
M  V30 6819 C 631.316 -1.37013 -3.18478 0
M  V30 6820 C 630.377 -2.58532 -3.42724 0
M  V30 6821 C 629.61 -2.48473 -4.72331 0
M  V30 6822 O 629.833 -1.51745 -5.49845 0
M  V30 6823 O 628.767 -3.38503 -4.97694 0
M  V30 6824 H 632.593 -2.44045 -1.80764 0
M  V30 6825 H 630.178 -1.23849 -0.835569 0
M  V30 6826 H 632.06 -1.33468 -3.99705 0
M  V30 6827 H 630.735 -0.436552 -3.20743 0
M  V30 6828 H 629.642 -2.67652 -2.61368 0
M  V30 6829 H 630.975 -3.50769 -3.45286 0
M  V30 6830 N 632.627 0.916307 -1.28225 0
M  V30 6831 C 633.855 1.69901 -1.18073 0
M  V30 6832 C 634.27 1.86988 0.260968 0
M  V30 6833 O 633.627 1.39505 1.17663 0
M  V30 6834 C 633.678 3.09254 -1.87201 0
M  V30 6835 O 633.399 2.92959 -3.2574 0
M  V30 6836 C 634.9 4.0362 -1.83319 0
M  V30 6837 H 632.12 0.531181 -0.409985 0
M  V30 6838 H 634.664 1.14703 -1.69303 0
M  V30 6839 H 632.819 3.61277 -1.39848 0
M  V30 6840 H 633.233 3.81139 -3.60324 0
M  V30 6841 H 634.707 4.98873 -2.36282 0
M  V30 6842 H 635.184 4.3176 -0.805007 0
M  V30 6843 H 635.79 3.57524 -2.3034 0
M  V30 6844 N 634.105 1.10431 1.1244 0
M  V30 6845 C 635.052 0.753103 2.18167 0
M  V30 6846 C 636.022 -0.270549 1.63882 0
M  V30 6847 O 637.207 -0.149837 1.90211 0
M  V30 6848 C 634.347 0.191046 3.44571 0
M  V30 6849 C 633.46 1.26999 4.12911 0
M  V30 6850 C 632.595 0.669586 5.26963 0
M  V30 6851 C 631.634 1.72912 5.87169 0
M  V30 6852 N 630.771 1.14898 6.92635 0
M  V30 6853 H 635.611 1.65892 2.47556 0
M  V30 6854 H 633.148 0.828631 1.21541 0
M  V30 6855 H 635.106 -0.152712 4.1692 0
M  V30 6856 H 633.736 -0.677997 3.15599 0
M  V30 6857 H 632.788 1.73087 3.3874 0
M  V30 6858 H 634.1 2.07204 4.53727 0
M  V30 6859 H 633.254 0.275274 6.06075 0
M  V30 6860 H 631.993 -0.163895 4.87425 0
M  V30 6861 H 630.998 2.13286 5.06744 0
M  V30 6862 H 632.223 2.56544 6.28778 0
M  V30 6863 H 630.169 0.336956 6.55134 0
M  V30 6864 H 630.086 1.88786 7.32049 0
M  V30 6865 H 631.354 0.78121 7.75576 0
M  V30 6866 N 635.583 -1.29855 0.893053 0
M  V30 6867 C 636.823 -1.97612 0.522399 0
M  V30 6868 C 637.187 -1.68903 -0.913 0
M  V30 6869 O 638.388 -2.30059 -1.39019 0
M  V30 6870 C 636.659 -3.48356 0.79893 0
M  V30 6871 S 638.218 -4.35568 0.531588 0
M  V30 6872 H 635.036 -0.684005 0.194058 0
M  V30 6873 H 637.638 -1.57803 1.15406 0
M  V30 6874 H 636.342 -3.66743 1.84196 0
M  V30 6875 H 635.873 -3.93094 0.155133 0
M  V30 6876 H 637.888 -4.92232 -0.626295 0
M  V30 6877 N 637.061 -0.65484 -1.43351 0
M  V30 6878 C 638.301 -0.172514 -2.03671 0
M  V30 6879 C 638.665 1.19154 -1.50553 0
M  V30 6880 O 639.866 1.76737 -2.02528 0
M  V30 6881 C 638.137 -0.183982 -3.56926 0
M  V30 6882 S 639.696 0.230262 -4.38195 0
M  V30 6883 H 636.514 -0.0727503 -0.707268 0
M  V30 6884 H 639.116 -0.863537 -1.75395 0
M  V30 6885 H 637.82 -1.17945 -3.93087 0
M  V30 6886 H 637.351 0.527527 -3.89847 0
M  V30 6887 H 639.366 1.46874 -4.73965 0
M  V30 6888 N 638.539 1.52521 -0.396863 0
M  V30 6889 C 639.779 2.03583 0.182578 0
M  V30 6890 C 640.143 1.2766 1.43412 0
M  V30 6891 O 641.344 1.68884 2.09121 0
M  V30 6892 C 639.615 3.54724 0.436519 0
M  V30 6893 S 641.174 4.27598 0.985163 0
M  V30 6894 H 637.992 0.709186 0.0507529 0
M  V30 6895 H 640.594 1.87693 -0.546955 0
M  V30 6896 H 639.298 4.07567 -0.481343 0
M  V30 6897 H 638.829 3.74834 1.19427 0
M  V30 6898 H 640.844 4.41393 2.26686 0
M  V30 6899 N 640.017 0.126909 1.57088 0
M  V30 6900 C 641.264 -0.529168 1.95464 0
M  V30 6901 C 641.592 -1.6618 1.01067 0
M  V30 6902 O 640.847 -1.95667 0.0360254 0
M  V30 6903 C 641.146 -1.095 3.40212 0
M  V30 6904 C 640.812 -0.0829015 4.50824 0
M  V30 6905 C 639.474 0.195377 4.80803 0
M  V30 6906 C 641.826 0.606411 5.1766 0
M  V30 6907 C 639.154 1.16912 5.74933 0
M  V30 6908 C 641.506 1.56884 6.12838 0
M  V30 6909 C 640.17 1.85502 6.41206 0
M  V30 6910 H 639.44 -0.193636 0.715252 0
M  V30 6911 H 642.087 0.209489 1.90351 0
M  V30 6912 H 640.392 -1.91058 3.42059 0
M  V30 6913 H 642.089 -1.61087 3.67222 0
M  V30 6914 H 638.679 -0.309979 4.27478 0
M  V30 6915 H 642.863 0.404597 4.94648 0
M  V30 6916 H 638.119 1.3975 5.95214 0
M  V30 6917 H 642.293 2.10859 6.6371 0
M  V30 6918 H 639.92 2.61109 7.13951 0
M  V30 6919 N 641.495 -1.56914 -0.146875 0
M  V30 6920 C 642.742 -1.83356 -0.859467 0
M  V30 6921 C 643.07 -0.707811 -1.81164 0
M  V30 6922 O 642.325 0.303155 -1.93338 0
M  V30 6923 C 642.624 -3.16128 -1.66727 0
M  V30 6924 C 642.29 -4.42586 -0.861881 0
M  V30 6925 C 640.952 -4.76929 -0.639687 0
M  V30 6926 C 643.304 -5.20344 -0.298643 0
M  V30 6927 C 640.632 -5.86491 0.156451 0
M  V30 6928 C 642.984 -6.30742 0.484536 0
M  V30 6929 C 641.648 -6.63635 0.717306 0
M  V30 6930 H 640.918 -0.670947 -0.314501 0
M  V30 6931 H 643.565 -1.91104 -0.123108 0
M  V30 6932 H 641.87 -3.03831 -2.47374 0
M  V30 6933 H 643.567 -3.33802 -2.2221 0
M  V30 6934 H 640.157 -4.15662 -1.04513 0
M  V30 6935 H 644.341 -4.94186 -0.457585 0
M  V30 6936 H 639.597 -6.10419 0.346292 0
M  V30 6937 H 643.771 -6.90188 0.928105 0
M  V30 6938 H 641.398 -7.48367 1.33607 0
M  V30 6939 N 642.974 0.416227 -1.52004 0
M  V30 6940 C 643.921 1.50666 -1.74838 0
M  V30 6941 C 644.891 1.55245 -0.590599 0
M  V30 6942 O 646.076 1.71928 -0.827374 0
M  V30 6943 C 643.216 2.88185 -1.89851 0
M  V30 6944 C 642.329 2.92971 -3.17478 0
M  V30 6945 C 641.464 4.21745 -3.22962 0
M  V30 6946 C 640.503 4.20478 -4.4482 0
M  V30 6947 N 639.64 5.40811 -4.47736 0
M  V30 6948 H 644.48 1.30498 -2.67907 0
M  V30 6949 H 642.017 0.633568 -1.32757 0
M  V30 6950 H 643.975 3.68007 -1.96537 0
M  V30 6951 H 642.605 3.06865 -1.00169 0
M  V30 6952 H 641.657 2.05684 -3.19997 0
M  V30 6953 H 642.969 2.87899 -4.07328 0
M  V30 6954 H 642.123 5.09954 -3.28682 0
M  V30 6955 H 640.862 4.29503 -2.31038 0
M  V30 6956 H 639.867 3.30659 -4.39254 0
M  V30 6957 H 641.092 4.14366 -5.38031 0
M  V30 6958 H 639.038 5.4925 -3.58692 0
M  V30 6959 H 638.955 5.37705 -5.31422 0
M  V30 6960 H 640.223 6.30993 -4.57676 0
M  V30 6961 N 644.452 1.42507 0.673017 0
M  V30 6962 C 645.868 1.25472 0.986355 0
M  V30 6963 C 646.068 0.160181 2.00862 0
M  V30 6964 O 645.124 -0.467993 2.48125 0
M  V30 6965 C 646.437 2.61219 1.48947 0
M  V30 6966 C 647.985 2.68589 1.60715 0
M  V30 6967 C 648.46 4.04707 2.14422 0
M  V30 6968 N 649.951 4.0667 2.21752 0
M  V30 6969 C 650.686 5.0881 2.64386 0
M  V30 6970 N 650.182 6.21332 3.0646 0
M  V30 6971 N 651.975 4.96166 2.64151 0
M  V30 6972 H 644.126 2.124 -0.00378532 0
M  V30 6973 H 646.389 0.946046 0.0608367 0
M  V30 6974 H 646.095 3.42179 0.812812 0
M  V30 6975 H 645.969 2.85261 2.46791 0
M  V30 6976 H 648.356 1.87974 2.27486 0
M  V30 6977 H 648.437 2.48333 0.613552 0
M  V30 6978 H 648.081 4.8578 1.48258 0
M  V30 6979 H 648.011 4.22315 3.14575 0
M  V30 6980 H 650.502 3.25438 1.92089 0
M  V30 6981 H 650.815 6.95118 3.37684 0
M  V30 6982 H 649.16 6.24835 3.04313 0
M  V30 6983 H 652.351 4.07334 2.30644 0
M  V30 6984 H 652.524 5.759 2.97057 0
M  V30 6985 N 645.93 -0.909495 1.28709 0
M  V30 6986 C 647.346 -1.18862 1.06508 0
M  V30 6987 C 647.546 -2.00604 -0.189864 0
M  V30 6988 O 646.602 -2.36281 -0.890355 0
M  V30 6989 C 647.915 -1.91908 2.31499 0
M  V30 6990 C 649.463 -2.04773 2.36721 0
M  V30 6991 C 649.938 -2.81228 3.6149 0
M  V30 6992 N 651.429 -2.88787 3.62155 0
M  V30 6993 C 652.164 -3.48455 4.55375 0
M  V30 6994 N 651.66 -4.09369 5.58918 0
M  V30 6995 N 653.453 -3.46035 4.42963 0
M  V30 6996 H 645.604 -0.363867 2.0926 0
M  V30 6997 H 647.867 -0.223649 0.921241 0
M  V30 6998 H 647.573 -1.39275 3.22948 0
M  V30 6999 H 647.447 -2.92436 2.38245 0
M  V30 7000 H 649.834 -2.56585 1.45767 0
M  V30 7001 H 649.915 -1.03408 2.33967 0
M  V30 7002 H 649.559 -2.30094 4.5279 0
M  V30 7003 H 649.489 -3.82917 3.61499 0
M  V30 7004 H 651.98 -2.45514 2.87283 0
M  V30 7005 H 652.293 -4.52891 6.26187 0
M  V30 7006 H 650.638 -4.0786 5.62739 0
M  V30 7007 H 653.829 -2.9766 3.6127 0
M  V30 7008 H 654.002 -3.92244 5.15799 0
M  V30 7009 N 647.408 -1.11026 -1.11852 0
M  V30 7010 C 648.355 -0.764662 -2.17765 0
M  V30 7011 C 649.325 0.261854 -1.64023 0
M  V30 7012 O 650.51 0.139748 -1.90288 0
M  V30 7013 C 647.65 -0.209317 -3.44465 0
M  V30 7014 C 646.763 -1.29187 -4.12231 0
M  V30 7015 C 645.898 -0.697523 -5.266 0
M  V30 7016 C 644.937 -1.76023 -5.86244 0
M  V30 7017 N 644.074 -1.18569 -6.92016 0
M  V30 7018 H 648.914 -1.67202 -2.46673 0
M  V30 7019 H 646.451 -0.835065 -1.21099 0
M  V30 7020 H 648.409 0.130599 -4.16996 0
M  V30 7021 H 647.039 0.661251 -3.15955 0
M  V30 7022 H 646.091 -1.74881 -3.37818 0
M  V30 7023 H 647.403 -2.09607 -4.52622 0
M  V30 7024 H 646.557 -0.307412 -6.05921 0
M  V30 7025 H 645.296 0.138044 -4.87505 0
M  V30 7026 H 644.301 -2.1597 -5.05606 0
M  V30 7027 H 645.526 -2.59875 -6.27409 0
M  V30 7028 H 643.472 -0.371695 -6.54946 0
M  V30 7029 H 643.389 -1.92666 -7.31038 0
M  V30 7030 H 644.657 -0.82233 -7.7515 0
M  V30 7031 N 648.886 1.2938 -0.899927 0
M  V30 7032 C 650.302 1.48052 -0.596059 0
M  V30 7033 C 650.502 1.82114 0.862372 0
M  V30 7034 O 649.558 1.91774 1.64253 0
M  V30 7035 C 650.871 2.59332 -1.52208 0
M  V30 7036 C 652.419 2.73208 -1.5273 0
M  V30 7037 C 652.894 3.87617 -2.43961 0
M  V30 7038 N 654.385 3.9495 -2.42009 0
M  V30 7039 C 655.12 4.82824 -3.09303 0
M  V30 7040 N 654.616 5.75387 -3.85877 0
M  V30 7041 N 656.409 4.76317 -2.98459 0
M  V30 7042 H 648.56 1.05546 -1.8432 0
M  V30 7043 H 650.823 0.524314 -0.78981 0
M  V30 7044 H 650.529 2.41029 -2.56121 0
M  V30 7045 H 650.403 3.56139 -1.24278 0
M  V30 7046 H 652.79 2.90908 -0.495614 0
M  V30 7047 H 652.871 1.76975 -1.84698 0
M  V30 7048 H 652.515 3.70672 -3.47224 0
M  V30 7049 H 652.445 4.83218 -2.09303 0
M  V30 7050 H 654.936 3.28744 -1.86375 0
M  V30 7051 H 655.249 6.39235 -4.34279 0
M  V30 7052 H 653.594 5.75272 -3.89984 0
M  V30 7053 H 656.785 4.0299 -2.38152 0
M  V30 7054 H 656.958 5.44589 -3.51179 0
M  V30 7055 N 650.364 0.662433 1.43002 0
M  V30 7056 C 651.311 -0.0235324 2.30788 0
M  V30 7057 C 652.281 -0.805342 1.4527 0
M  V30 7058 O 653.466 -0.78009 1.74124 0
M  V30 7059 C 650.606 -0.977545 3.30965 0
M  V30 7060 C 649.719 -0.190865 4.31578 0
M  V30 7061 C 648.854 -1.13951 5.18834 0
M  V30 7062 C 647.893 -0.343796 6.11134 0
M  V30 7063 N 647.03 -1.2445 6.90982 0
M  V30 7064 H 651.87 0.730921 2.88897 0
M  V30 7065 H 649.407 0.372197 1.42313 0
M  V30 7066 H 651.365 -1.54437 3.87563 0
M  V30 7067 H 649.995 -1.69877 2.74484 0
M  V30 7068 H 649.047 0.492388 3.772 0
M  V30 7069 H 650.359 0.427464 4.96965 0
M  V30 7070 H 649.513 -1.77666 5.80103 0
M  V30 7071 H 648.252 -1.79174 4.53595 0
M  V30 7072 H 647.257 0.30665 5.48944 0
M  V30 7073 H 648.482 0.304161 6.78419 0
M  V30 7074 H 646.428 -1.88336 6.28383 0
M  V30 7075 H 646.345 -0.680959 7.52927 0
M  V30 7076 H 647.613 -1.86952 7.56749 0
M  V30 7077 N 651.842 -1.52309 0.404946 0
M  V30 7078 C 653.07 -2.06185 -0.171818 0
M  V30 7079 C 653.485 -1.27536 -1.39212 0
M  V30 7080 O 652.842 -0.326112 -1.79563 0
M  V30 7081 C 652.893 -3.57647 -0.526417 0
M  V30 7082 O 652.614 -4.3332 0.645417 0
M  V30 7083 C 654.115 -4.27925 -1.15736 0
M  V30 7084 H 651.335 -0.670632 -0.0222328 0
M  V30 7085 H 653.879 -1.96259 0.574692 0
M  V30 7086 H 652.034 -3.67595 -1.22282 0
M  V30 7087 H 652.448 -5.23328 0.35042 0
M  V30 7088 H 653.922 -5.35093 -1.35572 0
M  V30 7089 H 654.399 -3.84134 -2.12926 0
M  V30 7090 H 655.005 -4.22335 -0.501281 0
M  V30 7091 N 653.32 -0.135238 -1.57019 0
M  V30 7092 C 654.569 0.518694 -1.94917 0
M  V30 7093 C 654.882 1.66783 -1.0219 0
M  V30 7094 O 656.088 2.38561 -1.29619 0
M  V30 7095 C 654.544 0.974123 -3.46466 0
M  V30 7096 C 654.152 -0.147439 -4.47757 0
M  V30 7097 C 655.896 1.59851 -3.93253 0
M  V30 7098 C 653.803 0.325599 -5.90503 0
M  V30 7099 H 652.733 0.19754 -0.727663 0
M  V30 7100 H 655.384 -0.217698 -1.82204 0
M  V30 7101 H 653.766 1.76542 -3.5447 0
M  V30 7102 H 654.94 -0.924122 -4.51438 0
M  V30 7103 H 653.255 -0.679496 -4.10818 0
M  V30 7104 H 655.852 1.96385 -4.9733 0
M  V30 7105 H 656.195 2.48306 -3.3414 0
M  V30 7106 H 656.728 0.872323 -3.88118 0
M  V30 7107 H 653.467 -0.523295 -6.53408 0
M  V30 7108 H 652.987 1.06841 -5.90208 0
M  V30 7109 H 654.666 0.781498 -6.42263 0
M  V30 7110 N 654.798 1.5699 0.138552 0
M  V30 7111 C 655.73 1.95515 1.1961 0
M  V30 7112 C 656.743 0.852002 1.38726 0
M  V30 7113 O 657.932 1.13038 1.38147 0
M  V30 7114 C 655.032 2.2213 2.55952 0
M  V30 7115 C 654.205 3.53424 2.57702 0
M  V30 7116 C 653.264 3.6848 3.75645 0
M  V30 7117 O 652.29 4.4079 3.60129 0
M  V30 7118 N 653.492 3.05777 4.93438 0
M  V30 7119 H 656.257 2.86838 0.868557 0
M  V30 7120 H 653.818 1.58542 0.328033 0
M  V30 7121 H 655.81 2.29435 3.33379 0
M  V30 7122 H 654.38 1.3703 2.80965 0
M  V30 7123 H 653.6 3.57484 1.6613 0
M  V30 7124 H 654.888 4.39759 2.55909 0
M  V30 7125 H 654.286 2.46961 5.08947 0
M  V30 7126 H 652.843 3.18631 5.6861 0
M  V30 7127 N 656.276 -0.40816 1.52223 0
M  V30 7128 C 657.692 -0.74685 1.41047 0
M  V30 7129 C 657.892 -1.94788 0.51573 0
M  V30 7130 O 656.948 -2.52494 -0.0181156 0
M  V30 7131 C 658.261 -0.999878 2.83589 0
M  V30 7132 C 659.809 -1.10253 2.92939 0
M  V30 7133 C 660.284 -1.38832 4.36451 0
M  V30 7134 N 661.775 -1.45694 4.3969 0
M  V30 7135 C 662.51 -1.69435 5.47795 0
M  V30 7136 N 662.006 -1.90774 6.66016 0
M  V30 7137 N 663.799 -1.71458 5.35312 0
M  V30 7138 H 655.95 0.382409 2.08929 0
M  V30 7139 H 658.213 0.108807 0.941735 0
M  V30 7140 H 657.919 -0.189723 3.51188 0
M  V30 7141 H 657.793 -1.91978 3.24691 0
M  V30 7142 H 660.18 -1.90328 2.2552 0
M  V30 7143 H 660.261 -0.160973 2.55293 0
M  V30 7144 H 659.905 -0.592741 5.04429 0
M  V30 7145 H 659.835 -2.34241 4.71634 0
M  V30 7146 H 662.326 -1.3099 3.54472 0
M  V30 7147 H 662.639 -2.08342 7.44186 0
M  V30 7148 H 660.984 -1.88037 6.69079 0
M  V30 7149 H 664.175 -1.54326 4.41929 0
M  V30 7150 H 664.348 -1.89621 6.19635 0
M  V30 7151 N 657.755 -1.42862 -0.66545 0
M  V30 7152 C 658.705 -1.43521 -1.7716 0
M  V30 7153 C 659.689 -0.305267 -1.57978 0
M  V30 7154 O 660.881 -0.548176 -1.68297 0
M  V30 7155 C 658.01 -1.34914 -3.15679 0
M  V30 7156 C 657.096 -2.5289 -3.40452 0
M  V30 7157 N 657.487 -3.78284 -3.3576 0
M  V30 7158 C 655.785 -2.47351 -3.71124 0
M  V30 7159 C 656.486 -4.56701 -3.60276 0
M  V30 7160 N 655.462 -3.87249 -3.81496 0
M  V30 7161 H 659.264 -2.38357 -1.7194 0
M  V30 7162 H 656.778 -1.37342 -0.866653 0
M  V30 7163 H 658.775 -1.33468 -3.94958 0
M  V30 7164 H 657.435 -0.410881 -3.2209 0
M  V30 7165 H 658.446 -4.10746 -3.15448 0
M  V30 7166 H 655.123 -1.62152 -3.84725 0
M  V30 7167 H 656.513 -5.65704 -3.6253 0
M  V30 7168 N 659.233 0.902656 -1.29189 0
M  V30 7169 C 660.18 2.00643 -1.14066 0
M  V30 7170 C 661.15 1.66064 -0.0347756 0
M  V30 7171 O 662.335 1.8973 -0.201752 0
M  V30 7172 C 659.475 3.35214 -0.820104 0
M  V30 7173 C 658.588 3.82594 -2.00614 0
M  V30 7174 C 657.723 5.05727 -1.62522 0
M  V30 7175 C 656.762 5.45469 -2.77724 0
M  V30 7176 N 655.899 6.59789 -2.40048 0
M  V30 7177 H 660.739 2.1291 -2.08502 0
M  V30 7178 H 658.276 1.04271 -1.03759 0
M  V30 7179 H 660.234 4.12643 -0.614949 0
M  V30 7180 H 658.864 3.22682 0.0873452 0
M  V30 7181 H 657.916 3.01226 -2.32308 0
M  V30 7182 H 659.228 4.07999 -2.86946 0
M  V30 7183 H 658.382 5.90732 -1.38277 0
M  V30 7184 H 657.121 4.82155 -0.733333 0
M  V30 7185 H 656.126 4.59 -3.02653 0
M  V30 7186 H 657.351 5.71024 -3.67572 0
M  V30 7187 H 655.297 6.37826 -1.53343 0
M  V30 7188 H 655.214 6.84975 -3.19914 0
M  V30 7189 H 656.482 7.4807 -2.19116 0
M  V30 7190 O 660.75 1.23723 1.03802 0
M  V30 7191 H 661.441 1.01035 1.65262 0
M  V30 END ATOM
M  V30 BEGIN BOND
M  V30 END BOND
M  V30 END CTAB
M  END
$$$$
