drugbank_target|Q9Y6E0 Serine/threonine-protein kinase 24 (DB12010)
 OpenBabel12092121133D

  0  0  0     0  0            999 V3000
M  V30 BEGIN CTAB
M  V30 COUNTS 6944 7012 0 0 0
M  V30 BEGIN ATOM
M  V30 1 H -0.908 1.98254 -0.117106 0
M  V30 2 N 0 1.576 0 0
M  V30 3 C 0.933 2.03868 1.02534 0
M  V30 4 C 1.911 0.928543 1.3348 0
M  V30 5 O 3.095 1.19667 1.45644 0
M  V30 6 C 0.222 2.43627 2.35294 0
M  V30 7 C -0.732 3.65373 2.2001 0
M  V30 8 S 0.101 5.13292 1.52614 0
M  V30 9 C 1.257 5.56322 2.86805 0
M  V30 10 H 1.49 2.90518 0.631377 0
M  V30 11 H -0.977 1.52953 0.210867 0
M  V30 12 H 0.981 2.67203 3.11629 0
M  V30 13 H -0.358 1.57376 2.7183 0
M  V30 14 H -1.165 3.90944 3.18086 0
M  V30 15 H -1.563 3.418 1.51819 0
M  V30 16 H 0.729 5.58782 3.83104 0
M  V30 17 H 1.672 6.56266 2.65933 0
M  V30 18 H 2.08 4.83886 2.90714 0
M  V30 19 N 1.4781 -0.272755 1.55222 0
M  V30 20 C 2.7551 -1.02562 1.66555 0
M  V30 21 C 3.1351 -2.04282 0.532189 0
M  V30 22 O 2.4831 -2.23662 -0.467717 0
M  V30 23 C 2.6931 -1.6822 3.05782 0
M  V30 24 C 4.0411 -2.19373 3.63539 0
M  V30 25 O 5.0651 -1.78206 3.08417 0
M  V30 26 O 3.9241 -2.94883 4.60115 0
M  V30 27 H 1.0181 -0.475755 0.676451 0
M  V30 28 H 3.5641 -0.268593 1.67561 0
M  V30 29 H 2.3361 -0.945112 3.79715 0
M  V30 30 H 1.9591 -2.50609 3.08676 0
M  V30 31 N 2.9562 -1.48159 -0.537278 0
M  V30 32 C 4.1812 -1.59707 -1.32319 0
M  V30 33 C 4.6062 -0.254859 -1.86365 0
M  V30 34 O 3.9642 0.772378 -1.64024 0
M  V30 35 C 4.0122 -2.6412 -2.45505 0
M  V30 36 O 3.1162 -2.20774 -3.48328 0
M  V30 37 H 2.4572 -0.535791 -0.392204 0
M  V30 38 H 4.9872 -1.94092 -0.647268 0
M  V30 39 H 4.9972 -2.85166 -2.91795 0
M  V30 40 H 3.6722 -3.61567 -2.05528 0
M  V30 41 H 2.2492 -2.09911 -3.08207 0
M  V30 42 N 4.4343 0.785586 -1.36625 0
M  V30 43 C 5.8503 1.08419 -1.17122 0
M  V30 44 C 6.0503 2.015 0.00208491 0
M  V30 45 O 5.1063 2.43551 0.666278 0
M  V30 46 C 6.4193 1.69498 -2.48377 0
M  V30 47 C 7.9673 1.81821 -2.54775 0
M  V30 48 C 8.4423 2.46315 -3.86126 0
M  V30 49 N 9.9333 2.53779 -3.87492 0
M  V30 50 C 10.6683 3.045 -4.85868 0
M  V30 51 N 10.1643 3.55499 -5.94637 0
M  V30 52 N 11.9573 3.03247 -4.73284 0
M  V30 53 H 4.1083 0.167264 -2.1174 0
M  V30 54 H 6.3713 0.13682 -0.938075 0
M  V30 55 H 6.0773 1.08571 -3.34522 0
M  V30 56 H 5.9513 2.6896 -2.64462 0
M  V30 57 H 8.3383 2.41884 -1.69045 0
M  V30 58 H 8.4193 0.811532 -2.42586 0
M  V30 59 H 8.0633 1.86895 -4.72263 0
M  V30 60 H 7.9933 3.47561 -3.95612 0
M  V30 61 H 10.4843 2.17672 -3.08913 0
M  V30 62 H 10.7973 3.92562 -6.65669 0
M  V30 63 H 9.1423 3.5364 -5.98301 0
M  V30 64 H 12.3333 2.62696 -3.87438 0
M  V30 65 H 12.5063 3.42467 -5.50109 0
M  V30 66 N 5.9124 1.20967 1.01018 0
M  V30 67 C 6.8754 0.965918 2.07853 0
M  V30 68 C 7.8754 -0.0610545 1.60684 0
M  V30 69 O 9.0654 0.175681 1.73312 0
M  V30 70 C 6.1974 0.455513 3.37843 0
M  V30 71 H 7.3904 1.91365 2.3091 0
M  V30 72 H 4.9434 1.02594 1.17916 0
M  V30 73 H 5.6784 -0.497381 3.20463 0
M  V30 74 H 5.4634 1.19622 3.73407 0
M  V30 75 H 6.9534 0.304667 4.16487 0
M  V30 76 N 7.3905 -1.2043 1.01659 0
M  V30 77 C 8.3225 -2.22626 0.544988 0
M  V30 78 C 9.3355 -1.58479 -0.372609 0
M  V30 79 O 10.5245 -1.77679 -0.170958 0
M  V30 80 C 7.6245 -3.38141 -0.22663 0
M  V30 81 C 6.7975 -4.31877 0.692876 0
M  V30 82 C 5.8565 -5.26191 -0.0311616 0
M  V30 83 O 4.8825 -5.6612 0.591343 0
M  V30 84 N 6.0845 -5.65618 -1.30601 0
M  V30 85 H 8.8495 -2.63716 1.42388 0
M  V30 86 H 6.4105 -1.34971 0.894116 0
M  V30 87 H 8.4025 -3.98239 -0.72024 0
M  V30 88 H 6.9725 -2.95943 -1.00681 0
M  V30 89 H 6.1925 -3.69746 1.36679 0
M  V30 90 H 7.4805 -4.91426 1.31824 0
M  V30 91 H 6.8785 -5.3519 -1.83269 0
M  V30 92 H 5.4355 -6.28025 -1.74435 0
M  V30 93 N 8.8686 -0.792821 -1.36206 0
M  V30 94 C 9.7986 -0.207853 -2.32573 0
M  V30 95 C 10.7796 0.659055 -1.56813 0
M  V30 96 O 11.9646 0.592176 -1.84951 0
M  V30 97 C 9.0946 0.655449 -3.41059 0
M  V30 98 C 8.0486 -0.111842 -4.27854 0
M  V30 99 C 7.3746 0.872274 -5.27537 0
M  V30 100 C 8.6746 -1.30299 -5.05786 0
M  V30 101 H 10.3686 -1.01294 -2.81744 0
M  V30 102 H 7.9146 -0.48854 -1.3546 0
M  V30 103 H 9.8676 1.07464 -4.07467 0
M  V30 104 H 8.5916 1.49328 -2.90463 0
M  V30 105 H 7.2506 -0.512053 -3.63006 0
M  V30 106 H 6.8986 1.70523 -4.73214 0
M  V30 107 H 6.5986 0.363291 -5.86476 0
M  V30 108 H 8.1226 1.28996 -5.96818 0
M  V30 109 H 9.5366 -0.959379 -5.65216 0
M  V30 110 H 7.9336 -1.7455 -5.74154 0
M  V30 111 H 9.0036 -2.09663 -4.37229 0
M  V30 112 N 10.3467 1.47872 -0.545128 0
M  V30 113 C 11.5927 2.03385 -0.0247951 0
M  V30 114 C 11.9477 1.41325 1.30556 0
M  V30 115 O 11.2407 0.5552 1.8338 0
M  V30 116 C 11.4347 3.57131 0.13867 0
M  V30 117 C 11.2637 4.34097 -1.17429 0
M  V30 118 C 10.0337 4.74458 -1.73831 0
M  V30 119 C 12.2317 4.6998 -2.08861 0
M  V30 120 N 10.2137 5.3602 -2.99258 0
M  V30 121 C 11.5847 5.31719 -3.18866 0
M  V30 122 C 13.6397 4.5191 -2.09003 0
M  V30 123 C 12.3427 5.77295 -4.29096 0
M  V30 124 C 14.3687 4.98477 -3.18237 0
M  V30 125 C 13.7307 5.60253 -4.26961 0
M  V30 126 H 9.8297 0.780339 -0.050943 0
M  V30 127 H 12.4137 1.80507 -0.729753 0
M  V30 128 H 10.5847 3.79802 0.812733 0
M  V30 129 H 12.3167 3.99282 0.659976 0
M  V30 130 H 9.0717 4.56037 -1.2778 0
M  V30 131 H 9.4957 5.71355 -3.63157 0
M  V30 132 H 14.1377 4.03516 -1.26234 0
M  V30 133 H 11.8557 6.24687 -5.12633 0
M  V30 134 H 15.4417 4.86274 -3.1942 0
M  V30 135 H 14.3217 5.95631 -5.10091 0
M  V30 136 N 11.8248 0.280983 1.55075 0
M  V30 137 C 13.0728 -0.333455 1.9933 0
M  V30 138 C 13.3938 -1.55937 1.17085 0
M  V30 139 O 12.6638 -1.94143 0.261805 0
M  V30 140 H 11.2438 -0.126197 0.736263 0
M  V30 141 H 13.9058 0.387678 1.91005 0
M  V30 142 H 13.0018 -0.619292 3.05894 0
M  V30 143 N 13.3029 -1.57598 0.00835791 0
M  V30 144 C 14.2329 -2.1198 -0.979113 0
M  V30 145 C 15.2139 -1.03091 -1.35301 0
M  V30 146 O 16.3989 -1.30818 -1.43528 0
M  V30 147 C 13.5289 -2.62995 -2.26828 0
M  V30 148 C 12.4829 -3.76485 -2.03576 0
M  V30 149 C 11.8089 -4.13846 -3.38579 0
M  V30 150 C 13.1089 -5.0342 -1.39161 0
M  V30 151 H 14.8029 -2.94738 -0.526281 0
M  V30 152 H 12.3489 -1.41783 -0.251704 0
M  V30 153 H 14.3019 -2.99669 -2.96271 0
M  V30 154 H 13.0259 -1.7737 -2.7424 0
M  V30 155 H 11.6849 -3.40217 -1.36557 0
M  V30 156 H 11.3329 -3.25232 -3.83709 0
M  V30 157 H 11.0329 -4.90312 -3.23834 0
M  V30 158 H 12.5569 -4.53086 -4.09323 0
M  V30 159 H 13.9709 -5.37812 -1.98573 0
M  V30 160 H 12.3679 -5.84746 -1.34878 0
M  V30 161 H 13.4379 -4.83548 -0.361868 0
M  V30 162 N 14.781 0.264519 -1.55364 0
M  V30 163 C 15.744 1.31046 -1.88042 0
M  V30 164 C 16.744 1.41943 -0.755569 0
M  V30 165 O 17.934 1.40947 -1.02369 0
M  V30 166 C 15.066 2.69067 -2.09323 0
M  V30 167 H 16.259 1.03297 -2.81549 0
M  V30 168 H 13.812 0.502989 -1.47986 0
M  V30 169 H 14.547 3.01982 -1.18226 0
M  V30 170 H 14.332 2.62542 -2.91229 0
M  V30 171 H 15.822 3.44623 -2.35848 0
M  V30 172 N 16.2591 1.48442 0.529413 0
M  V30 173 C 17.1891 1.65902 1.64313 0
M  V30 174 C 18.1701 0.507897 1.6234 0
M  V30 175 O 19.3551 0.740503 1.79528 0
M  V30 176 C 16.4851 1.69911 3.02898 0
M  V30 177 C 15.4391 2.8453 3.19729 0
M  V30 178 C 14.7651 2.73629 4.59381 0
M  V30 179 C 16.0651 4.25821 3.02447 0
M  V30 180 H 17.7591 2.5914 1.49955 0
M  V30 181 H 15.3051 1.24709 0.719982 0
M  V30 182 H 17.2581 1.80715 3.80684 0
M  V30 183 H 15.9821 0.732524 3.18279 0
M  V30 184 H 14.6411 2.73283 2.44361 0
M  V30 185 H 14.2891 1.74938 4.71599 0
M  V30 186 H 13.9891 3.50541 4.71588 0
M  V30 187 H 15.5131 2.86401 5.39265 0
M  V30 188 H 16.9271 4.37898 3.70024 0
M  V30 189 H 15.3241 5.03735 3.26146 0
M  V30 190 H 16.3941 4.42244 1.98867 0
M  V30 191 N 17.7372 -0.778329 1.37039 0
M  V30 192 C 18.6852 -1.91278 1.32345 0
M  V30 193 C 19.6792 -1.68051 0.213331 0
M  V30 194 O 20.8852 -1.75922 0.38098 0
M  V30 195 H 17.2602 -0.628909 0.412283 0
M  V30 196 H 19.2312 -1.92355 2.28127 0
M  V30 197 C 17.9802 -3.28455 1.14073 0
M  V30 198 H 17.3032 -3.46901 1.98746 0
M  V30 199 H 18.7432 -4.08152 1.14837 0
M  V30 200 C 17.2022 -3.36548 -0.154015 0
M  V30 201 O 17.7322 -3.85186 -1.13993 0
M  V30 202 N 15.9382 -2.89894 -0.202475 0
M  V30 203 H 15.4852 -2.50504 0.600476 0
M  V30 204 H 15.4432 -2.9569 -1.06841 0
M  V30 205 N 19.2153 -1.21501 -1.00376 0
M  V30 206 C 20.1623 -0.975387 -2.09177 0
M  V30 207 C 21.1323 0.0990615 -1.65804 0
M  V30 208 O 22.3173 -0.0483147 -1.90739 0
M  V30 209 C 19.4573 -0.547507 -3.40729 0
M  V30 210 C 18.5703 -1.69153 -3.97506 0
M  V30 211 C 17.7053 -1.2127 -5.17172 0
M  V30 212 C 16.7443 -2.32897 -5.66061 0
M  V30 213 N 15.8813 -1.86138 -6.76976 0
M  V30 214 H 20.7213 -1.9068 -2.29009 0
M  V30 215 H 18.2583 -0.950257 -1.12288 0
M  V30 216 H 20.2163 -0.280667 -4.16255 0
M  V30 217 H 18.8463 0.346904 -3.20931 0
M  V30 218 H 17.8983 -2.07298 -3.18954 0
M  V30 219 H 19.2103 -2.5316 -4.29781 0
M  V30 220 H 18.3643 -0.902591 -5.99948 0
M  V30 221 H 17.1033 -0.342692 -4.86495 0
M  V30 222 H 16.1083 -2.64709 -4.81881 0
M  V30 223 H 17.3333 -3.20396 -5.98768 0
M  V30 224 H 15.2793 -1.01484 -6.48103 0
M  V30 225 H 15.1963 -2.63717 -7.08512 0
M  V30 226 H 16.4643 -1.58165 -7.63285 0
M  V30 227 N 20.6934 1.19889 -1.02296 0
M  V30 228 C 22.1094 1.41462 -0.738954 0
M  V30 229 C 22.3094 1.89721 0.678846 0
M  V30 230 O 21.3654 2.07016 1.4457 0
M  V30 231 C 22.6784 2.43083 -1.77005 0
M  V30 232 C 24.2264 2.5684 -1.78892 0
M  V30 233 C 24.7014 3.61709 -2.80945 0
M  V30 234 N 26.1924 3.69199 -2.79725 0
M  V30 235 C 26.9274 4.50019 -3.55345 0
M  V30 236 N 26.4234 5.34592 -4.40662 0
M  V30 237 N 28.2164 4.44612 -3.43914 0
M  V30 238 H 20.3674 0.868827 -1.93817 0
M  V30 239 H 22.6304 0.44399 -0.837602 0
M  V30 240 H 22.3364 2.14636 -2.78612 0
M  V30 241 H 22.2104 3.4217 -1.58744 0
M  V30 242 H 24.5974 2.84614 -0.779674 0
M  V30 243 H 24.6784 1.57927 -2.01228 0
M  V30 244 H 24.3224 3.34678 -3.82038 0
M  V30 245 H 24.2524 4.60259 -2.5587 0
M  V30 246 H 26.7434 3.08794 -2.17842 0
M  V30 247 H 27.0564 5.93363 -4.95116 0
M  V30 248 H 25.4014 5.34073 -4.44737 0
M  V30 249 H 28.5924 3.7758 -2.76679 0
M  V30 250 H 28.7654 5.0736 -4.031 0
M  V30 251 N 22.1715 0.800033 1.35784 0
M  V30 252 C 23.5875 0.482977 1.52117 0
M  V30 253 C 23.7875 -0.996948 1.75109 0
M  V30 254 O 22.8435 -1.78216 1.78872 0
M  V30 255 C 24.1565 1.32264 2.70049 0
M  V30 256 C 25.7045 1.31742 2.83924 0
M  V30 257 C 26.1795 2.14106 4.04874 0
M  V30 258 N 27.6705 2.11607 4.12039 0
M  V30 259 C 28.4055 2.72099 5.04727 0
M  V30 260 N 27.9015 3.41492 6.02789 0
M  V30 261 N 29.6945 2.61776 4.97423 0
M  V30 262 H 21.8455 1.75856 1.19115 0
M  V30 263 H 24.1085 0.748122 0.582252 0
M  V30 264 H 23.8145 2.37261 2.59616 0
M  V30 265 H 23.6885 0.971303 3.6448 0
M  V30 266 H 26.0755 0.275333 2.93813 0
M  V30 267 H 26.1565 1.70859 1.9037 0
M  V30 268 H 25.8005 3.18351 3.95746 0
M  V30 269 H 25.7305 1.72353 4.97596 0
M  V30 270 H 28.2215 1.61112 3.41835 0
M  V30 271 H 28.5345 3.84953 6.70098 0
M  V30 272 H 26.8795 3.45596 6.02983 0
M  V30 273 H 30.0705 2.07157 4.19766 0
M  V30 274 H 30.2435 3.0921 5.69468 0
M  V30 275 N 23.6496 -1.47581 0.552962 0
M  V30 276 C 24.6126 -2.28439 -0.186605 0
M  V30 277 C 25.6126 -1.36706 -0.84665 0
M  V30 278 O 26.8026 -1.59378 -0.703164 0
M  V30 279 C 23.9346 -3.16264 -1.2724 0
M  V30 280 H 25.1276 -2.95294 0.523609 0
M  V30 281 H 22.6806 -1.532 0.309745 0
M  V30 282 H 23.4156 -2.54091 -2.01514 0
M  V30 283 H 23.2006 -3.83769 -0.803968 0
M  V30 284 H 24.6906 -3.77198 -1.79196 0
M  V30 285 N 25.1277 -0.289203 -1.54924 0
M  V30 286 C 26.3557 0.326463 -2.04308 0
M  V30 287 C 26.7707 1.48413 -1.16701 0
M  V30 288 O 26.1277 1.81507 -0.190087 0
M  V30 289 C 26.1787 0.794014 -3.52672 0
M  V30 290 O 25.8997 -0.317564 -4.36948 0
M  V30 291 C 27.4007 1.47605 -4.18004 0
M  V30 292 H 24.6207 0.0726272 -0.667058 0
M  V30 293 H 27.1647 -0.425401 -2.00026 0
M  V30 294 H 25.3197 1.49593 -3.57352 0
M  V30 295 H 25.7337 0.0443186 -5.24481 0
M  V30 296 H 27.2077 1.75447 -5.23376 0
M  V30 297 H 27.6847 2.41224 -3.67025 0
M  V30 298 H 28.2907 0.81762 -4.17367 0
M  V30 299 N 26.6058 1.57591 -0.0167156 0
M  V30 300 C 27.5358 2.12496 0.967858 0
M  V30 301 C 28.5168 1.03807 1.34752 0
M  V30 302 O 29.7018 1.31577 1.42833 0
M  V30 303 C 26.8318 2.64194 2.25431 0
M  V30 304 C 25.7858 3.77559 2.01576 0
M  V30 305 C 25.1118 4.15636 3.36379 0
M  V30 306 C 26.4118 5.04151 1.36489 0
M  V30 307 H 28.1058 2.95013 0.510643 0
M  V30 308 H 25.6518 1.41915 0.244181 0
M  V30 309 H 27.6048 3.01236 2.94678 0
M  V30 310 H 26.3288 1.78821 2.73296 0
M  V30 311 H 24.9878 3.40937 1.34751 0
M  V30 312 H 24.6358 3.27263 3.81979 0
M  V30 313 H 24.3358 4.92022 3.21229 0
M  V30 314 H 25.8598 4.5525 4.06915 0
M  V30 315 H 27.2738 5.38857 1.95718 0
M  V30 316 H 25.6708 5.85453 1.31776 0
M  V30 317 H 26.7408 4.83733 0.336219 0
M  V30 318 N 28.0839 -0.256276 1.55502 0
M  V30 319 C 29.4949 -0.826068 1.67431 0
M  V30 320 C 29.8459 -1.86396 0.612446 0
M  V30 321 O 28.9709 -2.15031 -0.243025 0
M  V30 322 C 29.5659 -1.50512 3.03532 0
M  V30 323 C 28.1249 -2.02273 3.17431 0
M  V30 324 C 27.2719 -0.870548 2.63281 0
M  V30 325 H 30.2229 -0.0322728 1.58667 0
M  V30 326 H 30.2439 -2.37279 2.97454 0
M  V30 327 H 29.7559 -0.749484 3.80794 0
M  V30 328 H 27.8569 -2.80746 2.44974 0
M  V30 329 H 27.9699 -2.22655 4.24219 0
M  V30 330 H 26.3339 -1.26851 2.20864 0
M  V30 331 H 27.1169 -0.128149 3.43061 0
M  V30 332 N 29.562 -1.4872 -0.521534 0
M  V30 333 C 30.512 -1.60269 -1.62166 0
M  V30 334 C 31.496 -0.45935 -1.54204 0
M  V30 335 O 32.688 -0.711241 -1.62081 0
M  V30 336 C 29.817 -1.65344 -3.00859 0
M  V30 337 C 28.903 -2.85187 -3.13894 0
M  V30 338 N 29.294 -4.09509 -2.96877 0
M  V30 339 C 27.592 -2.82695 -3.44963 0
M  V30 340 C 28.293 -4.89959 -3.13552 0
M  V30 341 N 27.269 -4.22934 -3.41508 0
M  V30 342 H 31.071 -2.5413 -1.47632 0
M  V30 343 H 28.585 -1.45209 -0.727194 0
M  V30 344 H 30.582 -1.71713 -3.79895 0
M  V30 345 H 29.242 -0.726058 -3.16478 0
M  V30 346 H 30.253 -4.39814 -2.73467 0
M  V30 347 H 26.93 -1.99249 -3.66887 0
M  V30 348 H 28.32 -5.98654 -3.05061 0
M  V30 349 N 31.0401 0.771051 -1.3745 0
M  V30 350 C 32.4511 1.34737 -1.29239 0
M  V30 351 C 32.8021 1.96109 0.0596908 0
M  V30 352 O 31.9271 1.93865 0.961534 0
M  V30 353 C 32.5221 2.44973 -2.34037 0
M  V30 354 C 31.0811 2.98372 -2.29458 0
M  V30 355 C 30.2281 1.71595 -2.17831 0
M  V30 356 H 33.1791 0.571256 -1.48062 0
M  V30 357 H 33.2001 3.24471 -1.98744 0
M  V30 358 H 32.7121 2.00276 -3.32432 0
M  V30 359 H 30.8131 3.47443 -1.34589 0
M  V30 360 H 30.9261 3.53939 -3.229 0
M  V30 361 H 29.2901 1.94547 -1.64388 0
M  V30 362 H 30.0731 1.29001 -3.18141 0
M  V30 363 N 32.5182 1.22032 0.997298 0
M  V30 364 C 33.7662 1.04016 1.73278 0
M  V30 365 C 34.0872 -0.426255 1.90284 0
M  V30 366 O 33.3572 -1.30694 1.45931 0
M  V30 367 H 31.9372 0.381897 0.642 0
M  V30 368 H 34.5992 1.5347 1.20137 0
M  V30 369 H 33.6952 1.51441 2.72896 0
M  V30 370 N 33.9963 -1.19345 1.0293 0
M  V30 371 C 35.2443 -1.88665 0.724574 0
M  V30 372 C 35.5653 -1.80036 -0.749144 0
M  V30 373 O 34.8353 -1.2111 -1.53978 0
M  V30 374 H 33.4153 -0.698406 0.265025 0
M  V30 375 H 36.0773 -1.44885 1.30362 0
M  V30 376 H 35.1733 -2.94987 1.01926 0
M  V30 377 N 35.4744 -0.807222 -1.35358 0
M  V30 378 C 36.6994 -0.399309 -2.0352 0
M  V30 379 C 37.1244 0.981986 -1.60433 0
M  V30 380 O 36.4824 1.63601 -0.781299 0
M  V30 381 C 36.5304 -0.491552 -3.57234 0
M  V30 382 O 35.6344 0.494754 -4.09421 0
M  V30 383 H 34.9754 -0.166682 -0.642739 0
M  V30 384 H 37.5054 -1.09328 -1.72941 0
M  V30 385 H 37.5154 -0.361588 -4.06395 0
M  V30 386 H 36.1904 -1.49907 -3.87944 0
M  V30 387 H 34.7674 0.324977 -3.71481 0
M  V30 388 N 36.9525 1.47285 -0.560781 0
M  V30 389 C 38.1805 2.06855 -0.0430262 0
M  V30 390 C 38.5955 1.41291 1.25229 0
M  V30 391 O 37.9525 0.510648 1.7521 0
M  V30 392 C 38.0035 3.61178 0.152518 0
M  V30 393 O 37.7245 4.24285 -1.0915 0
M  V30 394 C 39.2255 4.37624 0.707145 0
M  V30 395 H 36.4455 0.669319 -0.0474652 0
M  V30 396 H 38.9895 1.89237 -0.77521 0
M  V30 397 H 37.1445 3.78298 0.834843 0
M  V30 398 H 37.5585 5.16868 -0.891482 0
M  V30 399 H 39.0325 5.46271 0.793244 0
M  V30 400 H 39.5095 4.04152 1.71923 0
M  V30 401 H 40.1155 4.25257 0.0604027 0
M  V30 402 N 38.4306 0.297415 1.54768 0
M  V30 403 C 39.3786 -0.596051 2.24833 0
M  V30 404 C 40.3726 -1.13992 1.25308 0
M  V30 405 O 41.5786 -1.09098 1.4317 0
M  V30 406 H 37.9536 -0.210814 0.721846 0
M  V30 407 H 39.9246 0.0174667 2.98395 0
M  V30 408 C 38.6736 -1.75818 2.99972 0
M  V30 409 H 37.9966 -1.3489 3.76357 0
M  V30 410 H 39.4366 -2.35949 3.52284 0
M  V30 411 C 37.8956 -2.66014 2.06732 0
M  V30 412 O 38.4256 -3.67009 1.63302 0
M  V30 413 N 36.6316 -2.33669 1.72763 0
M  V30 414 H 36.1786 -1.51586 2.08277 0
M  V30 415 H 36.1366 -2.94285 1.10652 0
M  V30 416 N 39.9087 -1.5758 0.0250728 0
M  V30 417 C 40.8387 -2.13007 -0.956575 0
M  V30 418 C 41.8197 -1.0452 -1.342 0
M  V30 419 O 43.0047 -1.32332 -1.42133 0
M  V30 420 C 40.1347 -2.65386 -2.24026 0
M  V30 421 C 39.0887 -3.78623 -1.99571 0
M  V30 422 C 38.4147 -4.17414 -3.3417 0
M  V30 423 C 39.7147 -5.04867 -1.33814 0
M  V30 424 H 41.4087 -2.9528 -0.494991 0
M  V30 425 H 38.9547 -1.42042 -0.236651 0
M  V30 426 H 40.9077 -3.02794 -2.93076 0
M  V30 427 H 39.6317 -1.80268 -2.72343 0
M  V30 428 H 38.2907 -3.41646 -1.32941 0
M  V30 429 H 37.9387 -3.29284 -3.80238 0
M  V30 430 H 37.6387 -4.93719 -3.18615 0
M  V30 431 H 39.1627 -4.57402 -4.04495 0
M  V30 432 H 40.5767 -5.39888 -1.92857 0
M  V30 433 H 38.9737 -5.86144 -1.28669 0
M  V30 434 H 40.0437 -4.83904 -0.310561 0
M  V30 435 N 41.3868 0.248026 -1.55636 0
M  V30 436 C 42.3338 1.30707 -1.90222 0
M  V30 437 C 43.3038 1.47881 -0.756332 0
M  V30 438 O 44.4888 1.61883 -1.00988 0
M  V30 439 C 41.6288 2.65769 -2.20138 0
M  V30 440 C 40.7418 2.56612 -3.47526 0
M  V30 441 C 39.8768 3.8402 -3.67017 0
M  V30 442 C 38.9158 3.69476 -4.8801 0
M  V30 443 N 38.0528 4.88774 -5.04029 0
M  V30 444 H 42.8928 1.00512 -2.80538 0
M  V30 445 H 40.4298 0.485055 -1.38873 0
M  V30 446 H 42.3878 3.44386 -2.35487 0
M  V30 447 H 41.0178 2.94115 -1.33027 0
M  V30 448 H 40.0698 1.69571 -3.40514 0
M  V30 449 H 41.3818 2.41774 -4.36287 0
M  V30 450 H 40.5358 4.7108 -3.8232 0
M  V30 451 H 39.2748 4.01754 -2.76487 0
M  V30 452 H 38.2798 2.80799 -4.72686 0
M  V30 453 H 39.5048 3.53238 -5.8 0
M  V30 454 H 37.4508 5.0687 -4.16435 0
M  V30 455 H 37.3678 4.76562 -5.86877 0
M  V30 456 H 38.6358 5.77335 -5.23741 0
M  V30 457 N 42.8649 1.48995 0.513639 0
M  V30 458 C 43.8279 1.64229 1.59879 0
M  V30 459 C 44.8279 0.514696 1.5234 0
M  V30 460 O 46.0179 0.78087 1.55718 0
M  V30 461 C 43.1499 1.62783 2.99524 0
M  V30 462 H 44.3429 2.61004 1.47705 0
M  V30 463 H 41.8959 1.37837 0.736936 0
M  V30 464 H 42.6309 0.675461 3.17188 0
M  V30 465 H 42.4159 2.4466 3.06404 0
M  V30 466 H 43.9059 1.76669 3.78388 0
M  V30 467 N 44.343 -0.763751 1.37857 0
M  V30 468 C 45.62 -1.51244 1.24035 0
M  V30 469 C 46 -2.10472 -0.162649 0
M  V30 470 O 45.348 -1.96206 -1.17112 0
M  V30 471 C 45.558 -2.58694 2.34261 0
M  V30 472 C 46.906 -3.25878 2.72193 0
M  V30 473 O 47.93 -2.68993 2.33497 0
M  V30 474 O 46.789 -4.2874 3.38887 0
M  V30 475 H 43.883 -0.670243 0.484462 0
M  V30 476 H 46.429 -0.800031 1.49658 0
M  V30 477 H 45.201 -2.13105 3.2818 0
M  V30 478 H 44.824 -3.37527 2.10146 0
M  V30 479 N 45.8211 -1.22559 -0.990812 0
M  V30 480 C 47.2321 -1.04791 -1.54518 0
M  V30 481 C 47.5831 0.387998 -1.92325 0
M  V30 482 O 46.7081 1.27328 -1.74976 0
M  V30 483 C 47.3031 -1.896 -2.80779 0
M  V30 484 C 45.8621 -1.76124 -3.32652 0
M  V30 485 C 45.0091 -1.8594 -2.05722 0
M  V30 486 H 47.9601 -1.36374 -0.811662 0
M  V30 487 H 47.9811 -1.41464 -3.53225 0
M  V30 488 H 47.4931 -2.94101 -2.53231 0
M  V30 489 H 45.5941 -0.743643 -3.65104 0
M  V30 490 H 45.7071 -2.58913 -4.03114 0
M  V30 491 H 44.0711 -1.29403 -2.19379 0
M  V30 492 H 44.8541 -2.91976 -1.80568 0
M  V30 493 N 47.2992 1.18797 -1.03562 0
M  V30 494 C 48.2092 2.25913 -0.632505 0
M  V30 495 C 49.2252 1.70668 0.338882 0
M  V30 496 O 50.4012 2.00453 0.195076 0
M  V30 497 C 47.4662 3.467 0.00350942 0
M  V30 498 C 46.5272 4.17098 -1.01624 0
M  V30 499 C 45.7602 5.32119 -0.410478 0
M  V30 500 O 45.9832 5.64976 0.784725 0
M  V30 501 O 44.9172 5.9107 -1.13667 0
M  V30 502 H 48.7432 2.62648 -1.52478 0
M  V30 503 H 46.3282 1.25781 -0.806195 0
M  V30 504 H 48.2102 4.19878 0.35781 0
M  V30 505 H 46.8852 3.11798 0.869686 0
M  V30 506 H 45.7922 3.4601 -1.42224 0
M  V30 507 H 47.1252 4.55987 -1.85301 0
M  V30 508 N 48.7773 0.814389 1.34928 0
M  V30 509 C 49.6873 0.231978 2.3345 0
M  V30 510 C 50.7033 -0.629139 1.62228 0
M  V30 511 O 51.8793 -0.539052 1.94052 0
M  V30 512 C 48.9443 -0.603482 3.41407 0
M  V30 513 C 48.0053 0.279037 4.28392 0
M  V30 514 C 47.2383 -0.516643 5.31193 0
M  V30 515 O 47.4613 -1.75068 5.4287 0
M  V30 516 O 46.3953 0.0965652 6.01823 0
M  V30 517 H 50.2213 1.04721 2.85074 0
M  V30 518 H 47.8063 0.576343 1.37836 0
M  V30 519 H 49.6883 -1.07908 4.0735 0
M  V30 520 H 48.3633 -1.39618 2.92042 0
M  V30 521 H 47.2703 0.801948 3.65403 0
M  V30 522 H 48.6033 1.03588 4.81176 0
M  V30 523 N 50.2554 -1.46986 0.568584 0
M  V30 524 C 51.1854 -2.32946 -0.160753 0
M  V30 525 C 52.1664 -1.44487 -0.897631 0
M  V30 526 O 53.3514 -1.73327 -0.875867 0
M  V30 527 C 50.4814 -3.26494 -1.18403 0
M  V30 528 C 49.4354 -4.24282 -0.562895 0
M  V30 529 C 48.7614 -5.07236 -1.69163 0
M  V30 530 C 50.0614 -5.19989 0.490761 0
M  V30 531 H 51.7554 -2.94175 0.556916 0
M  V30 532 H 49.3014 -1.4146 0.26927 0
M  V30 533 H 51.2544 -3.85477 -1.70251 0
M  V30 534 H 49.9784 -2.63343 -1.93179 0
M  V30 535 H 48.6374 -3.66541 -0.0656164 0
M  V30 536 H 48.2854 -4.4048 -2.42871 0
M  V30 537 H 47.9854 -5.7345 -1.28174 0
M  V30 538 H 49.5094 -5.6908 -2.21314 0
M  V30 539 H 50.9234 -5.73271 0.0579047 0
M  V30 540 H 49.3204 -5.94469 0.820165 0
M  V30 541 H 50.3904 -4.64777 1.3824 0
M  V30 542 N 51.7335 -0.305618 -1.54608 0
M  V30 543 C 52.9805 0.302298 -2.00231 0
M  V30 544 C 53.3085 1.5354 -1.19398 0
M  V30 545 O 52.5635 1.93973 -0.259423 0
M  V30 546 C 52.8625 0.698983 -3.50498 0
M  V30 547 C 52.5285 -0.432903 -4.48817 0
M  V30 548 C 51.1905 -0.743622 -4.75419 0
M  V30 549 C 53.5425 -1.19409 -5.07337 0
M  V30 550 C 50.8705 -1.81857 -5.57804 0
M  V30 551 C 53.2225 -2.25899 -5.90891 0
M  V30 552 C 51.8865 -2.57572 -6.15803 0
M  V30 553 H 51.1565 0.110619 -0.732697 0
M  V30 554 H 53.8035 -0.425674 -1.86709 0
M  V30 555 H 52.1085 1.50711 -3.61654 0
M  V30 556 H 53.8055 1.1806 -3.83227 0
M  V30 557 H 50.3955 -0.18063 -4.28219 0
M  V30 558 H 54.5795 -0.967295 -4.86782 0
M  V30 559 H 49.8355 -2.06864 -5.75341 0
M  V30 560 H 54.0095 -2.85335 -6.35261 0
M  V30 561 H 51.6365 -3.40998 -6.7943 0
M  V30 562 N 53.2116 1.57565 -0.0334293 0
M  V30 563 C 54.4396 1.9628 0.654347 0
M  V30 564 C 54.8546 0.910138 1.65414 0
M  V30 565 O 54.2116 -0.107595 1.82183 0
M  V30 566 C 54.2626 3.35067 1.35693 0
M  V30 567 O 53.9836 4.36296 0.397191 0
M  V30 568 C 55.4846 3.88439 2.13613 0
M  V30 569 H 52.7046 0.646369 0.180132 0
M  V30 570 H 55.2486 2.04282 -0.0944721 0
M  V30 571 H 53.4036 3.2827 2.05712 0
M  V30 572 H 53.8176 5.1678 0.896597 0
M  V30 573 H 55.2916 4.8788 2.58219 0
M  V30 574 H 55.7686 3.22914 2.97696 0
M  V30 575 H 56.3746 3.98516 1.48543 0
M  V30 576 N 54.6897 -0.239769 1.55765 0
M  V30 577 C 55.6367 -1.29696 1.90913 0
M  V30 578 C 56.6067 -1.47478 0.764164 0
M  V30 579 O 57.7917 -1.61345 1.01845 0
M  V30 580 C 54.9317 -2.64598 2.21544 0
M  V30 581 C 54.0447 -2.54765 3.48882 0
M  V30 582 C 53.1797 -3.82069 3.69049 0
M  V30 583 C 52.2187 -3.66883 4.89963 0
M  V30 584 N 51.3557 -4.86094 5.06614 0
M  V30 585 H 56.1957 -0.990224 2.81067 0
M  V30 586 H 53.7327 -0.477684 1.39128 0
M  V30 587 H 55.6907 -3.43132 2.3731 0
M  V30 588 H 54.3207 -2.93405 1.34585 0
M  V30 589 H 53.3727 -1.67763 3.41409 0
M  V30 590 H 54.6847 -2.39457 4.37563 0
M  V30 591 H 53.8387 -4.69046 3.84812 0
M  V30 592 H 52.5777 -4.00282 2.78614 0
M  V30 593 H 51.5827 -2.78289 4.74168 0
M  V30 594 H 52.8077 -3.50157 5.81865 0
M  V30 595 H 50.7537 -5.04655 4.19117 0
M  V30 596 H 50.6707 -4.73443 5.89396 0
M  V30 597 H 51.9387 -5.74549 5.26795 0
M  V30 598 N 56.1678 -1.49265 -0.50573 0
M  V30 599 C 57.0978 -1.68495 -1.61653 0
M  V30 600 C 58.0788 -0.53366 -1.61512 0
M  V30 601 O 59.2638 -0.76897 -1.78327 0
M  V30 602 C 56.3938 -1.74709 -3.00157 0
M  V30 603 C 55.3478 -2.89581 -3.15162 0
M  V30 604 C 54.6738 -2.80903 -4.5497 0
M  V30 605 C 55.9738 -4.30578 -2.95634 0
M  V30 606 H 57.6678 -2.61493 -1.45814 0
M  V30 607 H 55.2138 -1.25838 -0.70005 0
M  V30 608 H 57.1668 -1.86748 -3.77761 0
M  V30 609 H 55.8908 -0.783067 -3.17074 0
M  V30 610 H 54.5498 -2.77136 -2.39982 0
M  V30 611 H 54.1978 -1.82419 -4.68756 0
M  V30 612 H 53.8978 -3.57999 -4.65951 0
M  V30 613 H 55.4218 -2.94944 -5.34641 0
M  V30 614 H 56.8358 -4.4373 -3.63011 0
M  V30 615 H 55.2328 -5.0886 -3.18091 0
M  V30 616 H 56.3028 -4.45352 -1.91806 0
M  V30 617 N 57.6459 0.756429 -1.3826 0
M  V30 618 C 58.5559 1.9009 -1.37488 0
M  V30 619 C 59.5719 1.71855 -0.272366 0
M  V30 620 O 60.7479 1.94827 -0.510318 0
M  V30 621 C 57.8129 3.25421 -1.19592 0
M  V30 622 C 56.8739 3.56202 -2.39622 0
M  V30 623 C 56.1069 4.85075 -2.2257 0
M  V30 624 O 56.3299 5.57246 -1.21793 0
M  V30 625 O 55.2639 5.15269 -3.11098 0
M  V30 626 H 59.0899 1.93695 -2.33914 0
M  V30 627 H 56.6749 0.901313 -1.1915 0
M  V30 628 H 58.5569 4.06337 -1.11661 0
M  V30 629 H 57.2319 3.22634 -0.262486 0
M  V30 630 H 56.1389 2.75458 -2.53128 0
M  V30 631 H 57.4719 3.63747 -3.31586 0
M  V30 632 N 59.124 1.23083 0.984299 0
M  V30 633 C 60.071 1.00854 2.07598 0
M  V30 634 C 61.041 -0.0726709 1.65941 0
M  V30 635 O 62.226 0.0786535 1.90638 0
M  V30 636 C 59.366 0.601645 3.39815 0
M  V30 637 C 58.479 1.75456 3.94765 0
M  V30 638 C 57.614 1.29482 5.15177 0
M  V30 639 C 56.653 2.41873 5.62284 0
M  V30 640 N 55.79 1.96885 6.73929 0
M  V30 641 H 60.63 1.943 2.25946 0
M  V30 642 H 58.167 0.968001 1.10762 0
M  V30 643 H 60.125 0.346854 4.15756 0
M  V30 644 H 58.755 -0.295803 3.21442 0
M  V30 645 H 57.807 2.12346 3.15616 0
M  V30 646 H 59.119 2.59965 4.25699 0
M  V30 647 H 58.273 0.997923 5.98437 0
M  V30 648 H 57.012 0.420046 4.85888 0
M  V30 649 H 56.017 2.72342 4.77608 0
M  V30 650 H 57.242 3.29881 5.93595 0
M  V30 651 H 55.188 1.11782 6.46406 0
M  V30 652 H 55.105 2.74956 7.04227 0
M  V30 653 H 56.373 1.70289 7.60672 0
M  V30 654 N 60.6021 -1.18246 1.0419 0
M  V30 655 C 61.8511 -1.87588 0.741194 0
M  V30 656 C 62.1641 -1.81303 -0.734066 0
M  V30 657 O 63.3701 -2.46019 -1.14834 0
M  V30 658 C 61.8261 -3.36538 1.27555 0
M  V30 659 C 61.4341 -3.51349 2.77953 0
M  V30 660 C 63.1781 -4.11273 1.05143 0
M  V30 661 C 61.0851 -4.94265 3.2474 0
M  V30 662 H 60.0151 -0.702622 0.273565 0
M  V30 663 H 62.6661 -1.33601 1.25789 0
M  V30 664 H 61.0481 -3.9 0.686703 0
M  V30 665 H 62.2221 -3.08153 3.42605 0
M  V30 666 H 60.5371 -2.90022 2.98791 0
M  V30 667 H 63.1341 -5.16689 1.37611 0
M  V30 668 H 63.4771 -4.16298 -0.0112774 0
M  V30 669 H 64.0101 -3.63987 1.60495 0
M  V30 670 H 60.7491 -4.94408 4.30396 0
M  V30 671 H 60.2691 -5.38172 2.64823 0
M  V30 672 H 61.9481 -5.62987 3.18834 0
M  V30 673 N 62.0802 -0.821533 -1.34494 0
M  V30 674 C 63.3282 -0.408139 -1.97936 0
M  V30 675 C 63.6492 1.03193 -1.65457 0
M  V30 676 O 62.9192 1.71622 -0.944595 0
M  V30 677 H 61.4992 -0.147928 -0.732206 0
M  V30 678 H 64.1612 -1.05067 -1.64155 0
M  V30 679 H 63.2572 -0.52601 -3.07635 0
M  V30 680 N 63.5583 1.46682 -0.576371 0
M  V30 681 C 64.5053 2.30241 0.160499 0
M  V30 682 C 65.4753 1.40233 0.890162 0
M  V30 683 O 66.6603 1.69186 0.882084 0
M  V30 684 C 63.8003 3.24578 1.1723 0
M  V30 685 C 62.9133 4.29684 0.446736 0
M  V30 686 C 62.0483 5.11154 1.44551 0
M  V30 687 C 61.0873 6.08015 0.70599 0
M  V30 688 N 60.2243 6.82376 1.65251 0
M  V30 689 H 65.0643 2.92727 -0.558127 0
M  V30 690 H 62.6013 1.44272 -0.287056 0
M  V30 691 H 64.5593 3.77711 1.77172 0
M  V30 692 H 63.1893 2.63916 1.85872 0
M  V30 693 H 62.2413 3.79458 -0.267594 0
M  V30 694 H 63.5533 4.98626 -0.131686 0
M  V30 695 H 62.7073 5.68533 2.11791 0
M  V30 696 H 61.4463 4.42158 2.05786 0
M  V30 697 H 60.4513 5.49796 0.0197725 0
M  V30 698 H 61.6763 6.79028 0.09912 0
M  V30 699 H 59.6223 6.16094 2.25308 0
M  V30 700 H 59.5393 7.47556 1.12673 0
M  V30 701 H 60.8073 7.44316 2.31546 0
M  V30 702 N 65.0364 0.313813 1.54444 0
M  V30 703 C 66.2844 -0.291099 1.99993 0
M  V30 704 C 66.6054 -1.53418 1.20366 0
M  V30 705 O 65.8754 -1.93544 0.302927 0
M  V30 706 H 64.4554 -0.110552 0.738774 0
M  V30 707 H 67.1174 0.428106 1.9014 0
M  V30 708 H 66.2134 -0.554268 3.07139 0
M  V30 709 N 66.5145 -1.57545 0.0417849 0
M  V30 710 C 67.7395 -1.97035 -0.647455 0
M  V30 711 C 68.1645 -0.918775 -1.64135 0
M  V30 712 O 67.5225 0.119006 -1.80909 0
M  V30 713 C 67.5705 -3.35609 -1.31905 0
M  V30 714 O 66.6745 -3.3287 -2.43457 0
M  V30 715 H 66.0155 -0.64211 -0.169086 0
M  V30 716 H 68.5455 -2.04318 0.107399 0
M  V30 717 H 68.5555 -3.72126 -1.67291 0
M  V30 718 H 67.2305 -4.11685 -0.590586 0
M  V30 719 H 65.8075 -3.08087 -2.10088 0
M  V30 720 N 67.9926 0.231505 -1.5589 0
M  V30 721 C 69.2396 0.957352 -1.78441 0
M  V30 722 C 69.5676 1.84726 -0.60882 0
M  V30 723 O 68.8226 1.91416 0.40725 0
M  V30 724 C 69.1216 1.83577 -3.0665 0
M  V30 725 C 68.7876 1.09993 -4.37278 0
M  V30 726 C 67.4496 0.896629 -4.72773 0
M  V30 727 C 69.8016 0.579558 -5.17968 0
M  V30 728 C 67.1296 0.160896 -5.86479 0
M  V30 729 C 69.4816 -0.142783 -6.32439 0
M  V30 730 C 68.1456 -0.357427 -6.66542 0
M  V30 731 H 67.4156 0.35032 -0.65296 0
M  V30 732 H 70.0626 0.226259 -1.90159 0
M  V30 733 H 68.3676 2.63441 -2.90011 0
M  V30 734 H 70.0646 2.39934 -3.21298 0
M  V30 735 H 66.6546 1.26835 -4.09403 0
M  V30 736 H 70.8386 0.724125 -4.90989 0
M  V30 737 H 66.0946 -0.0157293 -6.11398 0
M  V30 738 H 70.2686 -0.553559 -6.94196 0
M  V30 739 H 67.8956 -0.929466 -7.54497 0
M  V30 740 N 69.4707 1.49531 0.497807 0
M  V30 741 C 70.7187 1.58865 1.24926 0
M  V30 742 C 71.0397 0.278721 1.92998 0
M  V30 743 O 70.3097 -0.702144 1.82885 0
M  V30 744 H 68.8897 0.585343 0.464094 0
M  V30 745 H 71.5517 1.86174 0.57666 0
M  V30 746 H 70.6477 2.38633 2.01149 0
M  V30 747 N 70.9488 -0.749086 1.3866 0
M  V30 748 C 71.8588 -1.89358 1.38494 0
M  V30 749 C 72.8748 -1.71708 0.281476 0
M  V30 750 O 74.0508 -1.94554 0.520643 0
M  V30 751 C 71.1158 -3.24782 1.21316 0
M  V30 752 C 70.1768 -3.54926 2.41508 0
M  V30 753 C 69.4098 -4.83888 2.2514 0
M  V30 754 O 69.6328 -5.56592 1.24746 0
M  V30 755 O 68.5668 -5.13612 3.13826 0
M  V30 756 H 72.3928 -1.92452 2.34938 0
M  V30 757 H 69.9778 -0.894981 1.19626 0
M  V30 758 H 71.8598 -4.05739 1.13814 0
M  V30 759 H 70.5348 -3.2249 0.279592 0
M  V30 760 H 69.4418 -2.74112 2.54585 0
M  V30 761 H 70.7748 -3.61983 3.3351 0
M  V30 762 N 72.4269 -1.23603 -0.977757 0
M  V30 763 C 73.6729 -1.07129 -1.72195 0
M  V30 764 C 74.0059 0.390501 -1.90233 0
M  V30 765 O 73.2809 1.28902 -1.45653 0
M  V30 766 C 73.5639 -1.80031 -3.11867 0
M  V30 767 C 73.4169 -3.33899 -3.01383 0
M  V30 768 C 74.7359 -1.56492 -4.11337 0
M  V30 769 H 71.8549 -0.390571 -0.624999 0
M  V30 770 H 74.4969 -1.52142 -1.13811 0
M  V30 771 H 72.6469 -1.41768 -3.6171 0
M  V30 772 H 74.3189 -3.81699 -2.59043 0
M  V30 773 H 72.5619 -3.62796 -2.37827 0
M  V30 774 H 73.2329 -3.801 -4.00285 0
M  V30 775 H 75.7089 -1.89757 -3.70313 0
M  V30 776 H 74.5849 -2.09973 -5.07151 0
M  V30 777 H 74.8459 -0.500874 -4.39254 0
M  V30 778 N 73.905 1.17692 -1.04816 0
M  V30 779 C 75.152 1.87859 -0.75599 0
M  V30 780 C 75.48 1.80812 0.716752 0
M  V30 781 O 74.735 1.20819 1.53952 0
M  V30 782 C 75.034 3.37462 -1.17703 0
M  V30 783 C 74.7 3.64713 -2.65133 0
M  V30 784 C 73.362 3.71859 -3.05408 0
M  V30 785 C 75.714 3.76492 -3.60421 0
M  V30 786 C 73.042 3.88271 -4.39843 0
M  V30 787 C 75.394 3.94421 -4.94585 0
M  V30 788 C 74.058 3.99806 -5.3452 0
M  V30 789 H 73.328 0.687425 -0.276636 0
M  V30 790 H 75.975 1.39255 -1.31455 0
M  V30 791 H 74.28 3.88097 -0.537395 0
M  V30 792 H 75.977 3.90109 -0.928218 0
M  V30 793 H 72.567 3.59772 -2.32942 0
M  V30 794 H 76.751 3.70295 -3.30447 0
M  V30 795 H 72.007 3.90687 -4.70291 0
M  V30 796 H 76.181 4.02477 -5.68318 0
M  V30 797 H 73.808 4.12276 -6.38696 0
M  V30 798 N 75.3831 0.828654 1.34056 0
M  V30 799 C 76.3301 0.252567 2.29414 0
M  V30 800 C 77.3001 -0.62588 1.53857 0
M  V30 801 O 78.4851 -0.566312 1.82202 0
M  V30 802 C 75.6251 -0.574831 3.40279 0
M  V30 803 C 74.7381 0.326499 4.30764 0
M  V30 804 C 73.8731 -0.511016 5.28736 0
M  V30 805 C 72.9121 0.389342 6.1086 0
M  V30 806 N 72.0491 -0.409439 7.00905 0
M  V30 807 H 76.8891 1.07108 2.78086 0
M  V30 808 H 74.4261 0.539677 1.36843 0
M  V30 809 H 76.3841 -1.06992 4.03248 0
M  V30 810 H 75.0141 -1.35841 2.92826 0
M  V30 811 H 74.0661 0.939837 3.68607 0
M  V30 812 H 75.3781 1.01857 4.88289 0
M  V30 813 H 74.5321 -1.07035 5.97184 0
M  V30 814 H 73.2711 -1.23657 4.71763 0
M  V30 815 H 72.2761 0.960769 5.4134 0
M  V30 816 H 73.5011 1.1131 6.69916 0
M  V30 817 H 71.4471 -1.11856 6.46393 0
M  V30 818 H 71.3641 0.224126 7.55668 0
M  V30 819 H 72.6321 -0.951336 7.73673 0
M  V30 820 N 76.8612 -1.46375 0.584142 0
M  V30 821 C 78.1092 -2.01978 0.0701287 0
M  V30 822 C 78.4302 -1.4579 -1.295 0
M  V30 823 O 77.7002 -0.64314 -1.85042 0
M  V30 824 H 76.2802 -0.746648 0.0229345 0
M  V30 825 H 78.9422 -1.79461 0.760245 0
M  V30 826 H 78.0382 -3.121 0.0022064 0
M  V30 827 N 78.3393 -0.321999 -1.54275 0
M  V30 828 C 79.5883 0.281931 -1.9972 0
M  V30 829 C 79.9013 1.53369 -1.21397 0
M  V30 830 O 81.1073 2.21352 -1.57211 0
M  V30 831 C 79.5633 0.5529 -3.55628 0
M  V30 832 C 79.1713 -0.681721 -4.42783 0
M  V30 833 C 80.9153 1.11687 -4.09544 0
M  V30 834 C 78.8223 -0.382742 -5.9016 0
M  V30 835 H 77.7523 0.109124 -0.746062 0
M  V30 836 H 80.4033 -0.43398 -1.78294 0
M  V30 837 H 78.7853 1.32896 -3.73035 0
M  V30 838 H 79.9593 -1.45723 -4.37151 0
M  V30 839 H 78.2743 -1.1658 -3.99748 0
M  V30 840 H 80.8713 1.35515 -5.17242 0
M  V30 841 H 81.2143 2.06575 -3.61431 0
M  V30 842 H 81.7473 0.402032 -3.95763 0
M  V30 843 H 78.4863 -1.30076 -6.42464 0
M  V30 844 H 78.0063 0.355094 -5.98748 0
M  V30 845 H 79.6853 0.00800157 -6.47 0
M  V30 846 N 79.8174 1.5752 -0.0501392 0
M  V30 847 C 81.0944 1.83996 0.663685 0
M  V30 848 C 81.4744 0.938339 1.89099 0
M  V30 849 O 80.8224 -0.00087759 2.285 0
M  V30 850 C 81.0324 3.33702 1.02196 0
M  V30 851 C 82.3804 4.00691 1.40469 0
M  V30 852 O 83.4044 3.38321 1.11433 0
M  V30 853 O 82.2634 5.10658 1.94654 0
M  V30 854 H 79.3574 0.759385 0.32751 0
M  V30 855 H 81.9034 1.69514 -0.0794238 0
M  V30 856 H 80.6754 3.91015 0.149364 0
M  V30 857 H 80.2984 3.53368 1.82255 0
M  V30 858 N 81.2955 -0.223234 1.56011 0
M  V30 859 C 82.2435 -1.29627 1.93131 0
M  V30 860 C 83.2375 -1.48608 0.813146 0
M  V30 861 O 84.4435 -1.49802 0.997966 0
M  V30 862 H 80.8185 -0.434563 0.613726 0
M  V30 863 H 82.7895 -0.955995 2.82672 0
M  V30 864 C 81.5385 -2.63983 2.26292 0
M  V30 865 H 80.8615 -2.50185 3.11846 0
M  V30 866 H 82.3015 -3.3788 2.56151 0
M  V30 867 C 80.7605 -3.18866 1.08747 0
M  V30 868 O 81.2905 -4.00192 0.347727 0
M  V30 869 N 79.4965 -2.77217 0.871743 0
M  V30 870 H 79.0435 -2.1119 1.47501 0
M  V30 871 H 79.0015 -3.1428 0.0869905 0
M  V30 872 N 82.7736 -1.49793 -0.48987 0
M  V30 873 C 84.1896 -1.36803 -0.822022 0
M  V30 874 C 84.3896 -0.409652 -1.97292 0
M  V30 875 O 83.4456 0.154614 -2.52026 0
M  V30 876 C 84.7586 -2.77768 -1.15175 0
M  V30 877 C 86.3066 -2.86549 -1.25931 0
M  V30 878 C 86.7816 -4.28306 -1.62228 0
M  V30 879 N 88.2726 -4.31169 -1.69256 0
M  V30 880 C 89.0076 -5.37832 -1.98807 0
M  V30 881 N 88.5036 -6.54726 -2.26507 0
M  V30 882 N 90.2966 -5.25258 -2.00152 0
M  V30 883 H 82.4476 -2.10691 0.268881 0
M  V30 884 H 84.7106 -0.946241 0.057728 0
M  V30 885 H 84.4166 -3.49648 -0.379335 0
M  V30 886 H 84.2906 -3.13836 -2.09253 0
M  V30 887 H 86.6776 -2.14899 -2.02243 0
M  V30 888 H 86.7586 -2.54049 -0.298776 0
M  V30 889 H 86.4026 -5.00486 -0.864622 0
M  V30 890 H 86.3326 -4.58279 -2.594 0
M  V30 891 H 88.8236 -3.4687 -1.49965 0
M  V30 892 H 89.1366 -7.31833 -2.48276 0
M  V30 893 H 87.4816 -6.57933 -2.23939 0
M  V30 894 H 90.6726 -4.32938 -1.77996 0
M  V30 895 H 90.8456 -6.08476 -2.22848 0
M  V30 896 N 84.2517 0.741722 -1.39055 0
M  V30 897 C 85.4797 1.53098 -1.39171 0
M  V30 898 C 85.8947 1.88794 0.0155099 0
M  V30 899 O 85.2517 1.53626 0.985159 0
M  V30 900 C 85.3027 2.82274 -2.2584 0
M  V30 901 O 85.0237 2.48097 -3.61081 0
M  V30 902 C 86.5247 3.76343 -2.34266 0
M  V30 903 H 83.7447 0.473335 -0.4756 0
M  V30 904 H 86.2887 0.917045 -1.82785 0
M  V30 905 H 84.4437 3.40015 -1.85656 0
M  V30 906 H 84.8577 3.31029 -4.06842 0
M  V30 907 H 86.3317 4.63898 -2.9917 0
M  V30 908 H 86.8087 4.17619 -1.35982 0
M  V30 909 H 87.4147 3.24523 -2.74891 0
M  V30 910 N 85.7298 1.2412 0.971189 0
M  V30 911 C 86.6618 0.988349 2.06795 0
M  V30 912 C 87.6748 -0.0409541 1.62748 0
M  V30 913 O 88.8638 0.195673 1.77424 0
M  V30 914 C 85.9638 0.469023 3.35639 0
M  V30 915 C 85.1368 1.56065 4.08611 0
M  V30 916 C 84.1958 1.04458 5.15728 0
M  V30 917 O 83.2218 1.73553 5.42096 0
M  V30 918 N 84.4238 -0.122817 5.8037 0
M  V30 919 H 87.1888 1.93265 2.29061 0
M  V30 920 H 84.7498 1.15102 1.13856 0
M  V30 921 H 86.7418 0.108613 4.04554 0
M  V30 922 H 85.3118 -0.380919 3.1027 0
M  V30 923 H 84.5318 2.09341 3.34021 0
M  V30 924 H 85.8198 2.29449 4.54126 0
M  V30 925 H 85.2178 -0.700563 5.61345 0
M  V30 926 H 83.7748 -0.424404 6.50417 0
M  V30 927 N 87.2079 -1.17134 1.05439 0
M  V30 928 C 88.1549 -2.21235 0.657539 0
M  V30 929 C 89.1249 -1.62551 -0.341543 0
M  V30 930 O 90.3099 -1.89379 -0.232393 0
M  V30 931 C 87.4499 -3.45076 0.0410575 0
M  V30 932 C 86.5629 -4.18042 1.08927 0
M  V30 933 C 85.6979 -5.29376 0.439848 0
M  V30 934 C 84.7369 -5.94132 1.4722 0
M  V30 935 N 83.8739 -6.96975 0.846756 0
M  V30 936 H 88.7139 -2.54534 1.54972 0
M  V30 937 H 86.2509 -1.25028 0.775006 0
M  V30 938 H 88.2089 -4.15862 -0.33383 0
M  V30 939 H 86.8389 -3.12353 -0.814568 0
M  V30 940 H 85.8909 -3.45945 1.58196 0
M  V30 941 H 87.2029 -4.62306 1.87282 0
M  V30 942 H 86.3569 -6.06699 0.0115125 0
M  V30 943 H 85.0959 -4.86251 -0.375656 0
M  V30 944 H 84.1009 -5.15538 1.91052 0
M  V30 945 H 85.3259 -6.39337 2.28965 0
M  V30 946 H 83.2719 -6.5598 0.0518075 0
M  V30 947 H 83.1889 -7.39565 1.5678 0
M  V30 948 H 84.4569 -7.78239 0.443277 0
M  V30 949 N 88.686 -0.835752 -1.33615 0
M  V30 950 C 89.932 -0.430596 -1.98176 0
M  V30 951 C 90.265 1.00684 -1.66061 0
M  V30 952 O 89.54 1.70339 -0.938877 0
M  V30 953 C 89.823 -0.648065 -3.5422 0
M  V30 954 C 89.676 -2.13255 -3.96033 0
M  V30 955 C 90.995 -0.0922113 -4.40003 0
M  V30 956 H 88.114 -0.157924 -0.719881 0
M  V30 957 H 90.756 -1.05069 -1.58305 0
M  V30 958 H 88.906 -0.120237 -3.88314 0
M  V30 959 H 90.578 -2.725 -3.72211 0
M  V30 960 H 88.821 -2.61823 -3.45878 0
M  V30 961 H 89.492 -2.23547 -5.04708 0
M  V30 962 H 91.968 -0.543343 -4.12537 0
M  V30 963 H 90.844 -0.274083 -5.48215 0
M  V30 964 H 91.105 1.00378 -4.30554 0
M  V30 965 N 90.1641 1.46063 -0.591896 0
M  V30 966 C 91.4101 2.02638 -0.0811191 0
M  V30 967 C 91.7431 1.4613 1.27905 0
M  V30 968 O 91.0181 0.629908 1.84017 0
M  V30 969 C 91.3011 3.60091 -0.0252436 0
M  V30 970 C 91.1541 4.26965 -1.41496 0
M  V30 971 C 92.4731 4.3496 0.670685 0
M  V30 972 H 89.5921 0.73635 -0.0309524 0
M  V30 973 H 92.2341 1.741 -0.760859 0
M  V30 974 H 90.3841 3.84535 0.553624 0
M  V30 975 H 92.0561 4.13756 -2.0397 0
M  V30 976 H 90.2991 3.85971 -1.98011 0
M  V30 977 H 90.9701 5.35781 -1.32825 0
M  V30 978 H 93.4461 4.15716 0.178825 0
M  V30 979 H 92.3221 5.44686 0.678837 0
M  V30 980 H 92.5831 4.06685 1.73379 0
M  V30 981 N 91.6422 0.330177 1.54103 0
M  V30 982 C 92.6052 -0.520144 2.2322 0
M  V30 983 C 93.6052 -1.03828 1.22786 0
M  V30 984 O 94.7952 -0.929652 1.4732 0
M  V30 985 C 91.9272 -1.72317 2.94142 0
M  V30 986 H 93.1202 0.0841605 2.99782 0
M  V30 987 H 90.6732 0.0813433 1.56088 0
M  V30 988 H 91.4082 -2.36653 2.21734 0
M  V30 989 H 91.1932 -1.35898 3.67796 0
M  V30 990 H 92.6832 -2.3266 3.46784 0
M  V30 991 N 93.1203 -1.57491 0.0584922 0
M  V30 992 C 94.3693 -1.92155 -0.613146 0
M  V30 993 C 94.6823 -0.939334 -1.71569 0
M  V30 994 O 95.8883 -1.17829 -2.44599 0
M  V30 995 C 94.3443 -3.41303 -1.14195 0
M  V30 996 C 93.9523 -4.47944 -0.0711265 0
M  V30 997 C 95.6963 -3.84988 -1.78841 0
M  V30 998 C 93.6033 -5.88212 -0.613225 0
M  V30 999 H 92.5333 -0.717162 -0.232796 0
M  V30 1000 H 95.1843 -1.83049 0.12857 0
M  V30 1001 H 93.5663 -3.45437 -1.93621 0
M  V30 1002 H 94.7403 -4.55408 0.702836 0
M  V30 1003 H 93.0553 -4.13644 0.478313 0
M  V30 1004 H 95.6523 -4.87159 -2.20408 0
M  V30 1005 H 95.9953 -3.21632 -2.64308 0
M  V30 1006 H 96.5283 -3.83401 -1.06059 0
M  V30 1007 H 93.2673 -6.55183 0.203978 0
M  V30 1008 H 92.7873 -5.84294 -1.35501 0
M  V30 1009 H 94.4663 -6.37687 -1.09383 0
M  V30 1010 N 94.5984 0.214957 -1.56127 0
M  V30 1011 C 95.5454 1.26642 -1.92952 0
M  V30 1012 C 96.5154 1.46244 -0.78753 0
M  V30 1013 O 97.7004 1.59704 -1.04399 0
M  V30 1014 C 94.8404 2.6104 -2.25726 0
M  V30 1015 C 93.9534 2.49183 -3.52891 0
M  V30 1016 C 93.0884 3.76149 -3.7508 0
M  V30 1017 C 92.1274 3.59041 -4.95738 0
M  V30 1018 N 91.2644 4.77972 -5.14283 0
M  V30 1019 H 96.1044 0.945384 -2.82607 0
M  V30 1020 H 93.6414 0.455489 -1.3987 0
M  V30 1021 H 95.5994 3.39313 -2.42739 0
M  V30 1022 H 94.2294 2.91227 -1.39236 0
M  V30 1023 H 93.2814 1.6231 -3.44034 0
M  V30 1024 H 94.5934 2.32466 -4.41318 0
M  V30 1025 H 93.7474 4.62865 -3.92226 0
M  V30 1026 H 92.4864 3.95799 -2.84947 0
M  V30 1027 H 91.4914 2.7071 -4.78535 0
M  V30 1028 H 92.7164 3.40856 -5.87362 0
M  V30 1029 H 90.6624 4.97923 -4.27093 0
M  V30 1030 H 90.5794 4.64006 -5.96853 0
M  V30 1031 H 91.8474 5.66096 -5.35869 0
M  V30 1032 N 96.0765 1.50051 0.48192 0
M  V30 1033 C 97.3255 1.59741 1.23149 0
M  V30 1034 C 97.6385 0.298163 1.93314 0
M  V30 1035 O 98.8445 0.273835 2.70116 0
M  V30 1036 C 97.3005 2.81926 2.23708 0
M  V30 1037 C 96.9085 4.18685 1.59396 0
M  V30 1038 C 98.6525 3.00956 2.99375 0
M  V30 1039 C 96.5595 5.3207 2.58178 0
M  V30 1040 H 95.4895 0.594838 0.46334 0
M  V30 1041 H 98.1405 1.76467 0.503169 0
M  V30 1042 H 96.5225 2.58736 2.99786 0
M  V30 1043 H 97.6965 4.52088 0.891811 0
M  V30 1044 H 96.0115 4.05171 0.960503 0
M  V30 1045 H 98.6085 3.82836 3.73283 0
M  V30 1046 H 98.9515 2.12258 3.58123 0
M  V30 1047 H 99.4845 3.24277 2.30411 0
M  V30 1048 H 96.2235 6.22888 2.04184 0
M  V30 1049 H 95.7435 5.03098 3.26577 0
M  V30 1050 H 97.4225 5.62196 3.20225 0
M  V30 1051 N 97.5546 -0.734337 1.39446 0
M  V30 1052 C 98.8036 -1.48937 1.36017 0
M  V30 1053 C 99.1166 -1.95557 -0.0409005 0
M  V30 1054 O 100.323 -2.70779 -0.19778 0
M  V30 1055 C 98.7786 -2.69125 2.38955 0
M  V30 1056 C 98.3866 -2.29452 3.8478 0
M  V30 1057 C 100.131 -3.46944 2.44603 0
M  V30 1058 C 98.0376 -3.46366 4.79358 0
M  V30 1059 H 96.9676 -0.559296 0.505672 0
M  V30 1060 H 99.6186 -0.800983 1.65095 0
M  V30 1061 H 98.0006 -3.40041 2.02948 0
M  V30 1062 H 99.1746 -1.66077 4.29831 0
M  V30 1063 H 97.4896 -1.64723 3.82433 0
M  V30 1064 H 100.087 -4.33907 3.12456 0
M  V30 1065 H 100.43 -3.89454 1.47076 0
M  V30 1066 H 100.963 -2.83056 2.79507 0
M  V30 1067 H 97.7016 -3.08905 5.78151 0
M  V30 1068 H 97.2216 -4.08719 4.38986 0
M  V30 1069 H 98.9006 -4.12691 4.98292 0
M  V30 1070 N 99.0327 -1.24633 -0.964593 0
M  V30 1071 C 100.31 -0.995809 -1.68354 0
M  V30 1072 C 100.69 0.480964 -2.05548 0
M  V30 1073 O 100.038 1.45599 -1.76105 0
M  V30 1074 C 100.248 -1.92177 -2.91323 0
M  V30 1075 C 101.596 -2.19446 -3.63495 0
M  V30 1076 O 102.62 -1.89855 -3.01386 0
M  V30 1077 O 101.479 -2.69714 -4.75307 0
M  V30 1078 H 98.5727 -0.376854 -0.736146 0
M  V30 1079 H 101.119 -1.35745 -1.0184 0
M  V30 1080 H 99.8907 -2.91938 -2.60553 0
M  V30 1081 H 99.5137 -1.56349 -3.65569 0
M  V30 1082 N 100.511 1.16574 -1.06058 0
M  V30 1083 C 101.441 2.23057 -0.690488 0
M  V30 1084 C 102.422 1.67141 0.315901 0
M  V30 1085 O 103.607 1.93253 0.191556 0
M  V30 1086 C 100.737 3.47222 -0.073625 0
M  V30 1087 C 99.6908 4.16016 -1.00573 0
M  V30 1088 C 99.0168 5.34104 -0.252289 0
M  V30 1089 C 100.317 4.67264 -2.33371 0
M  V30 1090 H 102.011 2.54271 -1.58072 0
M  V30 1091 H 99.5568 1.22218 -0.76149 0
M  V30 1092 H 101.51 4.20939 0.19714 0
M  V30 1093 H 100.234 3.15302 0.85161 0
M  V30 1094 H 98.8928 3.44223 -1.2612 0
M  V30 1095 H 98.5408 4.98437 0.675988 0
M  V30 1096 H 98.2408 5.81072 -0.873455 0
M  V30 1097 H 99.7648 6.10599 0.0109857 0
M  V30 1098 H 101.179 5.32573 -2.12223 0
M  V30 1099 H 99.5758 5.24843 -2.90963 0
M  V30 1100 H 100.646 3.83602 -2.96611 0
M  V30 1101 N 101.989 0.842826 1.3317 0
M  V30 1102 C 102.899 0.281444 2.32906 0
M  V30 1103 C 103.915 -0.594587 1.63526 0
M  V30 1104 O 105.091 -0.49777 1.95152 0
M  V30 1105 C 102.156 -0.530929 3.42611 0
M  V30 1106 C 101.217 0.369843 4.27704 0
M  V30 1107 C 100.45 -0.403853 5.3217 0
M  V30 1108 O 100.673 -1.63513 5.46461 0
M  V30 1109 O 99.6069 0.224199 6.01482 0
M  V30 1110 H 103.433 1.10744 2.82789 0
M  V30 1111 H 101.018 0.60545 1.36582 0
M  V30 1112 H 102.9 -0.992437 4.09547 0
M  V30 1113 H 101.575 -1.33392 2.94938 0
M  V30 1114 H 100.482 0.879275 3.6362 0
M  V30 1115 H 101.815 1.13771 4.78871 0
M  V30 1116 N 103.467 -1.45747 0.599634 0
M  V30 1117 C 104.377 -2.34262 -0.125888 0
M  V30 1118 C 105.393 -1.50768 -0.868625 0
M  V30 1119 O 106.569 -1.83592 -0.828003 0
M  V30 1120 C 103.634 -3.28252 -1.11587 0
M  V30 1121 C 102.695 -4.27651 -0.375956 0
M  V30 1122 C 101.928 -5.1715 -1.31877 0
M  V30 1123 O 102.151 -5.09916 -2.55621 0
M  V30 1124 O 101.085 -5.96286 -0.820157 0
M  V30 1125 H 104.911 -2.97688 0.601315 0
M  V30 1126 H 102.496 -1.44999 0.359934 0
M  V30 1127 H 104.378 -3.86191 -1.68626 0
M  V30 1128 H 103.053 -2.67401 -1.82424 0
M  V30 1129 H 101.96 -3.7335 0.236698 0
M  V30 1130 H 103.293 -4.91334 0.29177 0
M  V30 1131 N 104.945 -0.338344 -1.53925 0
M  V30 1132 C 105.908 0.508299 -2.23493 0
M  V30 1133 C 106.908 1.03175 -1.23335 0
M  V30 1134 O 108.098 0.921826 -1.47811 0
M  V30 1135 C 105.23 1.70754 -2.95052 0
M  V30 1136 H 106.423 -0.100058 -2.99733 0
M  V30 1137 H 103.976 -0.0896198 -1.56043 0
M  V30 1138 H 104.711 2.35474 -2.22986 0
M  V30 1139 H 104.496 1.33946 -3.68512 0
M  V30 1140 H 105.986 2.30818 -3.48013 0
M  V30 1141 N 106.423 1.57458 -0.0668435 0
M  V30 1142 C 107.333 2.15937 0.916975 0
M  V30 1143 C 108.349 1.12123 1.33058 0
M  V30 1144 O 109.525 1.44366 1.40429 0
M  V30 1145 C 106.59 2.70547 2.16807 0
M  V30 1146 C 105.651 3.89215 1.81135 0
M  V30 1147 C 104.884 4.41211 3.0028 0
M  V30 1148 O 105.107 3.92225 4.14144 0
M  V30 1149 O 104.041 5.32605 2.80384 0
M  V30 1150 H 107.867 3.00354 0.449561 0
M  V30 1151 H 105.452 1.48584 0.155949 0
M  V30 1152 H 107.334 3.0557 2.90181 0
M  V30 1153 H 106.009 1.89192 2.62656 0
M  V30 1154 H 104.916 3.59054 1.05028 0
M  V30 1155 H 106.249 4.71848 1.40073 0
M  V30 1156 N 107.901 -0.206675 1.56239 0
M  V30 1157 C 109.178 -0.954051 1.70755 0
M  V30 1158 C 109.558 -2.01841 0.618353 0
M  V30 1159 O 108.906 -2.25444 -0.372434 0
M  V30 1160 C 109.116 -1.551 3.12642 0
M  V30 1161 C 110.464 -2.03757 3.72516 0
M  V30 1162 O 111.488 -1.64965 3.15698 0
M  V30 1163 O 110.347 -2.75103 4.72208 0
M  V30 1164 H 107.441 -0.446636 0.696021 0
M  V30 1165 H 109.987 -0.197283 1.68549 0
M  V30 1166 H 108.759 -0.783212 3.83382 0
M  V30 1167 H 108.382 -2.37291 3.19028 0
M  V30 1168 N 109.379 -1.50304 -0.473955 0
M  V30 1169 C 110.289 -1.7174 -1.5982 0
M  V30 1170 C 111.305 -0.600457 -1.63311 0
M  V30 1171 O 112.481 -0.878441 -1.81233 0
M  V30 1172 C 109.546 -1.80427 -2.96052 0
M  V30 1173 C 108.607 -3.04148 -3.02972 0
M  V30 1174 C 107.84 -3.12411 -4.32706 0
M  V30 1175 O 108.063 -2.27542 -5.23049 0
M  V30 1176 O 106.997 -4.05113 -4.45159 0
M  V30 1177 H 110.823 -2.67035 -1.44657 0
M  V30 1178 H 108.408 -1.34366 -0.653148 0
M  V30 1179 H 110.29 -1.88338 -3.7697 0
M  V30 1180 H 108.965 -0.883156 -3.11419 0
M  V30 1181 H 107.872 -3.0174 -2.21142 0
M  V30 1182 H 109.205 -3.95829 -2.92541 0
M  V30 1183 N 110.857 0.726932 -1.39834 0
M  V30 1184 C 112.106 1.48214 -1.36805 0
M  V30 1185 C 112.419 1.95576 0.0305291 0
M  V30 1186 O 113.625 2.7088 0.183417 0
M  V30 1187 C 112.081 2.67854 -2.40379 0
M  V30 1188 C 111.689 2.27408 -3.85992 0
M  V30 1189 C 113.433 3.45641 -2.46439 0
M  V30 1190 C 111.34 3.43819 -4.81189 0
M  V30 1191 H 110.27 0.556606 -0.508631 0
M  V30 1192 H 112.921 0.792216 -1.65518 0
M  V30 1193 H 111.303 3.3896 -2.04749 0
M  V30 1194 H 112.477 1.63795 -4.30706 0
M  V30 1195 H 110.792 1.62692 -3.83302 0
M  V30 1196 H 113.389 4.32244 -3.14753 0
M  V30 1197 H 113.732 3.88669 -1.49139 0
M  V30 1198 H 114.265 2.8157 -2.81004 0
M  V30 1199 H 111.004 3.05834 -5.79781 0
M  V30 1200 H 110.524 4.06385 -4.41148 0
M  V30 1201 H 112.203 4.10043 -5.00474 0
M  V30 1202 N 112.336 1.25143 0.95797 0
M  V30 1203 C 113.246 1.06968 2.08794 0
M  V30 1204 C 114.262 0.00773911 1.73998 0
M  V30 1205 O 115.438 0.207972 2.00323 0
M  V30 1206 C 112.503 0.68691 3.39827 0
M  V30 1207 C 111.564 1.82641 3.88511 0
M  V30 1208 C 110.797 1.46181 5.1329 0
M  V30 1209 O 111.02 0.355971 5.69288 0
M  V30 1210 O 109.954 2.29085 5.566 0
M  V30 1211 H 113.78 2.01723 2.27027 0
M  V30 1212 H 111.365 1.04051 1.07209 0
M  V30 1213 H 113.247 0.485417 4.18595 0
M  V30 1214 H 111.922 -0.231417 3.22872 0
M  V30 1215 H 110.829 2.08274 3.10762 0
M  V30 1216 H 112.162 2.72386 4.09959 0
M  V30 1217 N 113.814 -1.1601 1.06675 0
M  V30 1218 C 115.091 -1.82679 0.699114 0
M  V30 1219 C 115.471 -1.94559 -0.819137 0
M  V30 1220 O 114.819 -1.49169 -1.73092 0
M  V30 1221 C 115.029 -3.19445 1.40555 0
M  V30 1222 C 116.377 -3.95171 1.55323 0
M  V30 1223 O 117.401 -3.28976 1.36577 0
M  V30 1224 O 116.26 -5.13833 1.86112 0
M  V30 1225 H 113.354 -0.788954 0.247951 0
M  V30 1226 H 115.9 -1.23179 1.16726 0
M  V30 1227 H 114.672 -3.05856 2.44065 0
M  V30 1228 H 114.295 -3.86625 0.927733 0
M  V30 1229 N 115.292 -0.849877 -1.32721 0
M  V30 1230 C 116.541 -0.447175 -1.96681 0
M  V30 1231 C 116.854 1.00135 -1.68025 0
M  V30 1232 O 118.06 1.50926 -2.25685 0
M  V30 1233 C 116.516 -0.7487 -3.52026 0
M  V30 1234 C 116.124 -2.21264 -3.89546 0
M  V30 1235 C 117.868 -0.413487 -4.22481 0
M  V30 1236 C 115.775 -2.45763 -5.37917 0
M  V30 1237 H 114.705 -0.163486 -0.736063 0
M  V30 1238 H 117.356 -1.03999 -1.51183 0
M  V30 1239 H 115.738 -0.0853727 -3.95908 0
M  V30 1240 H 116.912 -2.91736 -3.56689 0
M  V30 1241 H 115.227 -2.5119 -3.32103 0
M  V30 1242 H 117.824 -0.574017 -5.3161 0
M  V30 1243 H 118.167 0.644492 -4.11281 0
M  V30 1244 H 118.7 -1.03251 -3.84167 0
M  V30 1245 H 115.439 -3.50168 -5.54132 0
M  V30 1246 H 114.959 -1.79864 -5.72197 0
M  V30 1247 H 116.638 -2.29471 -6.0494 0
M  V30 1248 N 116.77 1.45427 -0.607355 0
M  V30 1249 C 117.702 2.2871 0.149752 0
M  V30 1250 C 118.715 1.39937 0.831958 0
M  V30 1251 O 119.904 1.64313 0.697385 0
M  V30 1252 C 117.004 3.15673 1.23304 0
M  V30 1253 C 116.177 4.32722 0.637996 0
M  V30 1254 C 115.236 5.00895 1.61215 0
M  V30 1255 O 114.262 5.57697 1.13854 0
M  V30 1256 N 115.464 5.00159 2.94655 0
M  V30 1257 H 118.229 2.94328 -0.564882 0
M  V30 1258 H 115.79 1.55612 -0.446823 0
M  V30 1259 H 117.782 3.58144 1.88454 0
M  V30 1260 H 116.352 2.51965 1.8502 0
M  V30 1261 H 115.572 3.93734 -0.191572 0
M  V30 1262 H 116.86 5.08321 0.220665 0
M  V30 1263 H 116.258 4.553 3.35735 0
M  V30 1264 H 114.815 5.46495 3.55228 0
M  V30 1265 N 118.248 0.346503 1.53744 0
M  V30 1266 C 119.18 -0.543316 2.22667 0
M  V30 1267 C 120.193 -1.06159 1.23427 0
M  V30 1268 O 121.382 -0.971235 1.49764 0
M  V30 1269 C 118.482 -1.76076 2.89569 0
M  V30 1270 C 117.655 -1.37727 4.15151 0
M  V30 1271 C 116.714 -2.45471 4.65436 0
M  V30 1272 O 115.74 -2.08655 5.29577 0
M  V30 1273 N 116.942 -3.7677 4.41616 0
M  V30 1274 H 119.707 0.0469703 2.99663 0
M  V30 1275 H 117.268 0.170766 1.60997 0
M  V30 1276 H 119.26 -2.47593 3.20125 0
M  V30 1277 H 117.83 -2.25835 2.16142 0
M  V30 1278 H 117.05 -0.492746 3.91108 0
M  V30 1279 H 118.338 -1.09708 4.96832 0
M  V30 1280 H 117.736 -4.09467 3.90325 0
M  V30 1281 H 116.293 -4.44448 4.7677 0
M  V30 1282 N 119.726 -1.57421 0.075193 0
M  V30 1283 C 120.636 -2.1642 -0.905511 0
M  V30 1284 C 121.652 -1.12828 -1.32461 0
M  V30 1285 O 122.828 -1.45109 -1.39661 0
M  V30 1286 C 119.893 -2.71693 -2.15369 0
M  V30 1287 C 118.954 -3.90171 -1.79068 0
M  V30 1288 C 118.187 -4.42798 -2.97936 0
M  V30 1289 O 118.41 -3.94416 -4.12058 0
M  V30 1290 O 117.344 -5.34085 -2.77555 0
M  V30 1291 H 121.17 -3.00588 -0.433626 0
M  V30 1292 H 118.755 -1.48664 -0.148067 0
M  V30 1293 H 120.637 -3.07104 -2.88557 0
M  V30 1294 H 119.312 -1.90582 -2.61649 0
M  V30 1295 H 118.219 -3.59606 -1.03122 0
M  V30 1296 H 119.552 -4.72584 -1.37569 0
M  V30 1297 N 121.204 0.198386 -1.56346 0
M  V30 1298 C 122.453 0.917451 -1.79627 0
M  V30 1299 C 122.766 1.8456 -0.64784 0
M  V30 1300 O 123.972 2.60504 -0.764859 0
M  V30 1301 C 122.428 1.68175 -3.18191 0
M  V30 1302 C 122.036 0.798589 -4.40825 0
M  V30 1303 C 123.78 2.39065 -3.50782 0
M  V30 1304 C 121.687 1.56157 -5.70411 0
M  V30 1305 H 120.617 0.346317 -0.669762 0
M  V30 1306 H 123.268 0.170801 -1.82703 0
M  V30 1307 H 121.65 2.47216 -3.09354 0
M  V30 1308 H 122.824 0.0470665 -4.60776 0
M  V30 1309 H 121.139 0.200686 -4.15916 0
M  V30 1310 H 123.736 2.96692 -4.44835 0
M  V30 1311 H 124.079 3.13091 -2.74371 0
M  V30 1312 H 124.612 1.66993 -3.61052 0
M  V30 1313 H 121.351 0.864142 -6.49779 0
M  V30 1314 H 120.871 2.2871 -5.54483 0
M  V30 1315 H 122.55 2.11622 -6.11412 0
M  V30 1316 N 122.682 1.50554 0.465978 0
M  V30 1317 C 123.91 1.65563 1.24083 0
M  V30 1318 C 124.325 0.341051 1.85694 0
M  V30 1319 O 123.682 -0.677543 1.69457 0
M  V30 1320 C 123.733 2.75051 2.34583 0
M  V30 1321 O 123.454 4.01413 1.75497 0
M  V30 1322 C 124.955 3.01078 3.25372 0
M  V30 1323 H 122.175 0.55638 0.375077 0
M  V30 1324 H 124.719 1.96807 0.555624 0
M  V30 1325 H 122.874 2.46486 2.9887 0
M  V30 1326 H 123.288 4.62002 2.48303 0
M  V30 1327 H 124.762 3.81339 3.99105 0
M  V30 1328 H 125.239 2.12349 3.84453 0
M  V30 1329 H 125.845 3.31194 2.66816 0
M  V30 1330 N 124.16 -0.719506 1.40217 0
M  V30 1331 C 125.406 -1.48152 1.38488 0
M  V30 1332 C 125.739 -1.94195 -0.0141867 0
M  V30 1333 O 125.014 -1.67884 -0.982096 0
M  V30 1334 C 125.297 -2.71035 2.37091 0
M  V30 1335 C 125.15 -2.30912 3.86005 0
M  V30 1336 C 126.469 -3.73182 2.33288 0
M  V30 1337 H 123.588 -0.537395 0.504357 0
M  V30 1338 H 126.23 -0.821472 1.71324 0
M  V30 1339 H 124.38 -3.27352 2.0922 0
M  V30 1340 H 126.052 -1.80107 4.24687 0
M  V30 1341 H 124.295 -1.62958 4.02029 0
M  V30 1342 H 124.966 -3.18978 4.50508 0
M  V30 1343 H 127.442 -3.26485 2.57966 0
M  V30 1344 H 126.318 -4.56806 3.04334 0
M  V30 1345 H 126.579 -4.21202 1.34317 0
M  V30 1346 N 125.638 -1.25649 -0.95132 0
M  V30 1347 C 126.568 -1.08808 -2.06599 0
M  V30 1348 C 127.549 0.00382547 -1.701 0
M  V30 1349 O 128.734 -0.166325 -1.93486 0
M  V30 1350 C 125.864 -0.709542 -3.39975 0
M  V30 1351 C 124.818 -1.75206 -3.90496 0
M  V30 1352 C 124.144 -1.22811 -5.20405 0
M  V30 1353 C 125.444 -3.15153 -4.16504 0
M  V30 1354 H 127.138 -2.02048 -2.20946 0
M  V30 1355 H 124.684 -0.972835 -1.06169 0
M  V30 1356 H 126.637 -0.578649 -4.17408 0
M  V30 1357 H 125.361 0.258556 -3.25575 0
M  V30 1358 H 124.02 -1.87145 -3.15234 0
M  V30 1359 H 123.668 -0.250145 -5.02378 0
M  V30 1360 H 123.368 -1.92492 -5.55176 0
M  V30 1361 H 124.892 -1.10968 -6.00432 0
M  V30 1362 H 126.306 -3.06349 -4.84586 0
M  V30 1363 H 124.703 -3.82333 -4.62538 0
M  V30 1364 H 125.773 -3.61966 -3.22658 0
M  V30 1365 N 127.117 1.15442 -1.07289 0
M  V30 1366 C 128.342 1.90638 -0.816828 0
M  V30 1367 C 128.767 1.77445 0.624083 0
M  V30 1368 O 128.125 1.10671 1.43602 0
M  V30 1369 C 128.173 3.39008 -1.22906 0
M  V30 1370 O 127.277 4.10701 -0.373975 0
M  V30 1371 H 126.618 0.593555 -0.297638 0
M  V30 1372 H 129.148 1.46198 -1.43134 0
M  V30 1373 H 129.158 3.89801 -1.20497 0
M  V30 1374 H 127.833 3.47929 -2.27856 0
M  V30 1375 H 126.41 3.70046 -0.460499 0
M  V30 1376 N 128.595 0.856903 1.32268 0
M  V30 1377 C 129.527 0.260412 2.27716 0
M  V30 1378 C 130.54 -0.569137 1.52528 0
M  V30 1379 O 131.729 -0.39326 1.74114 0
M  V30 1380 C 128.829 -0.650477 3.32599 0
M  V30 1381 C 128.002 0.14372 4.37164 0
M  V30 1382 C 127.061 -0.69328 5.21613 0
M  V30 1383 O 126.087 -0.12599 5.69061 0
M  V30 1384 N 127.289 -2.00761 5.44679 0
M  V30 1385 H 130.054 1.08059 2.79541 0
M  V30 1386 H 127.615 0.717103 1.45152 0
M  V30 1387 H 129.607 -1.21581 3.86005 0
M  V30 1388 H 128.177 -1.37133 2.80915 0
M  V30 1389 H 127.397 0.890486 3.8401 0
M  V30 1390 H 128.685 0.68915 5.04111 0
M  V30 1391 H 128.083 -2.49181 5.07863 0
M  V30 1392 H 126.64 -2.52103 6.01072 0
M  V30 1393 N 130.073 -1.45103 0.615059 0
M  V30 1394 C 131.313 -2.04069 0.116282 0
M  V30 1395 C 131.677 -1.4721 -1.2326 0
M  V30 1396 O 132.878 -1.97577 -1.82255 0
M  V30 1397 C 131.149 -3.57298 0.085482 0
M  V30 1398 S 132.708 -4.37394 -0.351015 0
M  V30 1399 H 129.526 -0.709006 0.0532183 0
M  V30 1400 H 132.128 -1.77709 0.81484 0
M  V30 1401 H 130.832 -3.9619 1.0706 0
M  V30 1402 H 130.363 -3.88244 -0.634835 0
M  V30 1403 H 132.378 -4.69734 -1.59889 0
M  V30 1404 N 131.551 -0.354651 -1.53558 0
M  V30 1405 C 132.828 0.294281 -1.93374 0
M  V30 1406 C 133.208 1.67313 -1.28723 0
M  V30 1407 O 132.556 2.24179 -0.442247 0
M  V30 1408 C 132.766 0.355445 -3.47185 0
M  V30 1409 C 134.114 0.601007 -4.20325 0
M  V30 1410 O 135.138 0.437106 -3.53508 0
M  V30 1411 O 133.997 0.919322 -5.38712 0
M  V30 1412 H 131.091 0.174033 -0.808481 0
M  V30 1413 H 133.637 -0.406638 -1.64756 0
M  V30 1414 H 132.409 -0.611729 -3.86489 0
M  V30 1415 H 132.032 1.1027 -3.82003 0
M  V30 1416 N 133.029 1.57378 -0.0835403 0
M  V30 1417 C 134.254 1.98682 0.594987 0
M  V30 1418 C 134.679 0.961969 1.61641 0
M  V30 1419 O 134.037 -0.0709989 1.81161 0
M  V30 1420 C 134.085 3.38988 1.2296 0
M  V30 1421 O 133.189 3.39208 2.34546 0
M  V30 1422 H 132.53 0.646368 0.152002 0
M  V30 1423 H 135.06 2.03961 -0.161533 0
M  V30 1424 H 135.07 3.76431 1.57366 0
M  V30 1425 H 133.745 4.13107 0.481228 0
M  V30 1426 H 132.322 3.13548 2.01846 0
M  V30 1427 N 134.507 -0.190092 1.56449 0
M  V30 1428 C 135.918 -0.754312 1.70784 0
M  V30 1429 C 136.269 -1.83631 0.690951 0
M  V30 1430 O 135.394 -2.15868 -0.151604 0
M  V30 1431 C 135.989 -1.37503 3.09642 0
M  V30 1432 C 134.548 -1.88628 3.25725 0
M  V30 1433 C 133.695 -0.758098 2.66736 0
M  V30 1434 H 136.646 0.0350524 1.58661 0
M  V30 1435 H 136.667 -2.2445 3.0725 0
M  V30 1436 H 136.179 -0.587302 3.83631 0
M  V30 1437 H 134.28 -2.70103 2.56661 0
M  V30 1438 H 134.393 -2.04462 4.3328 0
M  V30 1439 H 132.757 -1.17369 2.26046 0
M  V30 1440 H 133.54 0.0174705 3.43296 0
M  V30 1441 N 135.985 -1.50799 -0.457987 0
M  V30 1442 C 137.215 -1.65977 -1.23025 0
M  V30 1443 C 137.623 -0.347918 -1.85974 0
M  V30 1444 O 136.966 0.68148 -1.70592 0
M  V30 1445 C 137.028 -2.70309 -2.3701 0
M  V30 1446 C 136.692 -4.135 -1.94594 0
M  V30 1447 C 137.689 -4.98949 -1.46101 0
M  V30 1448 C 135.374 -4.5949 -2.02915 0
M  V30 1449 C 137.368 -6.28442 -1.06489 0
M  V30 1450 C 135.055 -5.88984 -1.62914 0
M  V30 1451 C 136.053 -6.73286 -1.1478 0
M  V30 1452 O 135.741 -8.00362 -0.75339 0
M  V30 1453 H 135.473 -0.56064 -0.377702 0
M  V30 1454 H 138.027 -1.97857 -0.551537 0
M  V30 1455 H 136.257 -2.337 -3.08093 0
M  V30 1456 H 137.946 -2.74574 -2.98938 0
M  V30 1457 H 138.712 -4.6463 -1.39084 0
M  V30 1458 H 134.591 -3.94009 -2.39328 0
M  V30 1459 H 138.135 -6.94194 -0.688488 0
M  V30 1460 H 134.032 -6.22822 -1.69595 0
M  V30 1461 H 134.8 -8.13744 -0.88108 0
M  V30 1462 N 137.463 0.71206 -1.40597 0
M  V30 1463 C 138.709 1.47416 -1.39271 0
M  V30 1464 C 139.042 1.942 0.00388791 0
M  V30 1465 O 138.317 1.68403 0.973179 0
M  V30 1466 C 138.6 2.69774 -2.38525 0
M  V30 1467 C 138.453 2.28861 -3.87224 0
M  V30 1468 C 139.772 3.71939 -2.35264 0
M  V30 1469 H 136.891 0.534713 -0.5072 0
M  V30 1470 H 139.533 0.812375 -1.71757 0
M  V30 1471 H 137.683 3.26238 -2.10953 0
M  V30 1472 H 139.355 1.77852 -4.25636 0
M  V30 1473 H 137.598 1.60824 -4.02887 0
M  V30 1474 H 138.269 3.16584 -4.52193 0
M  V30 1475 H 140.745 3.25113 -2.59694 0
M  V30 1476 H 139.621 4.55186 -3.06753 0
M  V30 1477 H 139.882 4.20484 -1.36549 0
M  V30 1478 N 138.941 1.26152 0.944643 0
M  V30 1479 C 140.169 1.14259 1.72489 0
M  V30 1480 C 140.584 -0.302555 1.8636 0
M  V30 1481 O 139.941 -1.20741 1.36849 0
M  V30 1482 C 139.992 1.80266 3.13347 0
M  V30 1483 O 139.713 3.19133 3.00143 0
M  V30 1484 C 141.214 1.74283 4.07603 0
M  V30 1485 H 138.434 0.398051 0.540181 0
M  V30 1486 H 140.978 1.66706 1.18446 0
M  V30 1487 H 139.133 1.31766 3.64303 0
M  V30 1488 H 139.547 3.51744 3.89071 0
M  V30 1489 H 141.021 2.25111 5.04013 0
M  V30 1490 H 141.498 0.708631 4.33446 0
M  V30 1491 H 142.104 2.22319 3.62567 0
M  V30 1492 N 140.419 -1.14872 1.07899 0
M  V30 1493 C 141.366 -2.19791 0.704319 0
M  V30 1494 C 142.336 -1.63238 -0.306987 0
M  V30 1495 O 143.521 -1.8983 -0.192171 0
M  V30 1496 C 140.661 -3.44911 0.114244 0
M  V30 1497 C 139.774 -4.15637 1.1777 0
M  V30 1498 C 138.909 -5.28324 0.552037 0
M  V30 1499 C 137.948 -5.90875 1.59789 0
M  V30 1500 N 137.085 -6.95022 0.994404 0
M  V30 1501 H 141.925 -2.5119 1.60336 0
M  V30 1502 H 139.462 -1.23356 0.801352 0
M  V30 1503 H 141.42 -4.16477 -0.245544 0
M  V30 1504 H 140.05 -3.14011 -0.74813 0
M  V30 1505 H 139.102 -3.42512 1.65499 0
M  V30 1506 H 140.414 -4.5823 1.97046 0
M  V30 1507 H 139.568 -6.06538 0.1402 0
M  V30 1508 H 138.307 -4.86939 -0.272431 0
M  V30 1509 H 137.312 -5.11369 2.01945 0
M  V30 1510 H 138.537 -6.34337 2.42474 0
M  V30 1511 H 136.483 -6.55722 0.190939 0
M  V30 1512 H 136.4 -7.36073 1.72432 0
M  V30 1513 H 137.668 -7.77123 0.608253 0
M  V30 1514 N 141.898 -0.863906 -1.31812 0
M  V30 1515 C 143.128 -0.485406 -2.00817 0
M  V30 1516 C 143.536 0.925007 -1.65046 0
M  V30 1517 O 142.879 1.61653 -0.872574 0
M  V30 1518 C 142.941 -0.555589 -3.55181 0
M  V30 1519 C 142.605 -1.92654 -4.14407 0
M  V30 1520 C 143.602 -2.89324 -4.31958 0
M  V30 1521 C 141.287 -2.2262 -4.50273 0
M  V30 1522 C 143.281 -4.14108 -4.84555 0
M  V30 1523 C 140.968 -3.47654 -5.02573 0
M  V30 1524 C 141.966 -4.43214 -5.19664 0
M  V30 1525 O 141.654 -5.66033 -5.70843 0
M  V30 1526 H 141.386 -0.188224 -0.649267 0
M  V30 1527 H 143.94 -1.16514 -1.69156 0
M  V30 1528 H 142.17 0.181037 -3.86276 0
M  V30 1529 H 143.859 -0.19138 -4.05449 0
M  V30 1530 H 144.625 -2.6748 -4.04573 0
M  V30 1531 H 140.504 -1.4902 -4.3625 0
M  V30 1532 H 144.048 -4.88703 -4.9781 0
M  V30 1533 H 139.945 -3.69345 -5.29391 0
M  V30 1534 H 140.713 -5.6812 -5.89222 0
M  V30 1535 N 143.376 1.44774 -0.622745 0
M  V30 1536 C 144.606 2.06187 -0.130532 0
M  V30 1537 C 145.014 1.46547 1.19669 0
M  V30 1538 O 144.357 0.579636 1.74316 0
M  V30 1539 C 144.419 3.59437 0.0674983 0
M  V30 1540 C 144.083 4.41496 -1.18026 0
M  V30 1541 C 145.08 4.75512 -2.102 0
M  V30 1542 C 142.765 4.82007 -1.41333 0
M  V30 1543 C 144.759 5.48912 -3.23998 0
M  V30 1544 C 142.446 5.55157 -2.55429 0
M  V30 1545 C 143.444 5.88528 -3.46589 0
M  V30 1546 O 143.132 6.60191 -4.58697 0
M  V30 1547 H 142.864 0.672045 -0.0730162 0
M  V30 1548 H 145.418 1.86768 -0.854802 0
M  V30 1549 H 143.648 3.77314 0.846825 0
M  V30 1550 H 145.337 4.02642 0.513209 0
M  V30 1551 H 146.103 4.4476 -1.93425 0
M  V30 1552 H 141.982 4.55457 -0.712709 0
M  V30 1553 H 145.526 5.74877 -3.95174 0
M  V30 1554 H 141.423 5.85324 -2.72151 0
M  V30 1555 H 142.191 6.78654 -4.57571 0
M  V30 1556 N 144.854 0.36279 1.53368 0
M  V30 1557 C 146.102 -0.227326 2.00817 0
M  V30 1558 C 146.423 -1.49511 1.25186 0
M  V30 1559 O 145.693 -1.92482 0.364348 0
M  V30 1560 H 144.273 -0.0869923 0.741917 0
M  V30 1561 H 146.935 0.488381 1.88682 0
M  V30 1562 H 146.031 -0.456273 3.08747 0
M  V30 1563 N 146.332 -1.57332 0.0918853 0
M  V30 1564 C 147.557 -1.98995 -0.584442 0
M  V30 1565 C 147.982 -0.970528 -1.61128 0
M  V30 1566 O 147.34 0.0613904 -1.81196 0
M  V30 1567 C 147.388 -3.39636 -1.21161 0
M  V30 1568 O 146.492 -3.40447 -2.32744 0
M  V30 1569 H 145.833 -0.647165 -0.148572 0
M  V30 1570 H 148.363 -2.03873 0.172347 0
M  V30 1571 H 148.373 -3.7726 -1.55367 0
M  V30 1572 H 147.048 -4.13356 -0.459313 0
M  V30 1573 H 145.625 -3.14614 -2.0018 0
M  V30 1574 N 147.81 0.181792 -1.56548 0
M  V30 1575 C 149.04 0.914618 -1.85252 0
M  V30 1576 C 149.448 1.76791 -0.673914 0
M  V30 1577 O 148.791 1.80009 0.366416 0
M  V30 1578 C 148.853 1.85019 -3.08234 0
M  V30 1579 C 148.517 1.17754 -4.41569 0
M  V30 1580 C 149.514 0.548035 -5.17003 0
M  V30 1581 C 147.199 1.17742 -4.88305 0
M  V30 1582 C 149.193 -0.0726128 -6.37359 0
M  V30 1583 C 146.88 0.552946 -6.08593 0
M  V30 1584 C 147.878 -0.070978 -6.82963 0
M  V30 1585 O 147.566 -0.685635 -8.00971 0
M  V30 1586 H 147.298 0.271695 -0.618998 0
M  V30 1587 H 149.852 0.189944 -2.0452 0
M  V30 1588 H 148.082 2.61491 -2.84885 0
M  V30 1589 H 149.771 2.45195 -3.23472 0
M  V30 1590 H 150.537 0.540174 -4.81982 0
M  V30 1591 H 146.416 1.65246 -4.30366 0
M  V30 1592 H 149.96 -0.560213 -6.95347 0
M  V30 1593 H 145.857 0.558354 -6.43081 0
M  V30 1594 H 146.625 -0.58385 -8.16415 0
M  V30 1595 N 149.288 1.51039 0.449983 0
M  V30 1596 C 150.218 1.74379 1.55288 0
M  V30 1597 C 151.199 0.593236 1.5942 0
M  V30 1598 O 152.384 0.834625 1.7535 0
M  V30 1599 C 149.514 1.85728 2.93466 0
M  V30 1600 C 148.468 3.01078 3.04197 0
M  V30 1601 C 147.794 2.97595 4.44231 0
M  V30 1602 C 149.094 4.41254 2.7945 0
M  V30 1603 H 150.788 2.66725 1.36008 0
M  V30 1604 H 148.334 1.2835 0.652864 0
M  V30 1605 H 150.287 2.0064 3.70569 0
M  V30 1606 H 149.011 0.900207 3.13949 0
M  V30 1607 H 147.67 2.85851 2.29531 0
M  V30 1608 H 147.318 1.99691 4.61663 0
M  V30 1609 H 147.018 3.75046 4.52343 0
M  V30 1610 H 148.542 3.14583 5.23326 0
M  V30 1611 H 149.956 4.56897 3.46292 0
M  V30 1612 H 148.353 5.20315 2.98985 0
M  V30 1613 H 149.423 4.52164 1.75144 0
M  V30 1614 N 150.766 -0.704594 1.40972 0
M  V30 1615 C 151.713 -1.81862 1.42109 0
M  V30 1616 C 152.683 -1.63781 0.276593 0
M  V30 1617 O 153.868 -1.84759 0.4763 0
M  V30 1618 C 151.008 -3.19669 1.30022 0
M  V30 1619 C 150.121 -3.49246 2.54267 0
M  V30 1620 C 149.256 -4.76618 2.3454 0
M  V30 1621 C 148.295 -4.99133 3.54306 0
M  V30 1622 N 147.432 -6.17726 3.33706 0
M  V30 1623 H 152.272 -1.80226 2.37324 0
M  V30 1624 H 149.809 -0.880238 1.17857 0
M  V30 1625 H 151.767 -3.99263 1.21018 0
M  V30 1626 H 150.397 -3.20506 0.384192 0
M  V30 1627 H 149.449 -2.64125 2.73756 0
M  V30 1628 H 150.761 -3.61788 3.43381 0
M  V30 1629 H 149.915 -5.64249 2.22952 0
M  V30 1630 H 148.654 -4.66305 1.42867 0
M  V30 1631 H 147.659 -4.09953 3.66359 0
M  V30 1632 H 148.884 -5.11311 4.4692 0
M  V30 1633 H 146.83 -6.08642 2.44725 0
M  V30 1634 H 146.747 -6.30995 4.16391 0
M  V30 1635 H 148.015 -7.08115 3.25873 0
M  V30 1636 N 152.244 -1.26651 -0.937939 0
M  V30 1637 C 153.521 -1.0313 -1.66204 0
M  V30 1638 C 153.901 0.437256 -2.06522 0
M  V30 1639 O 153.249 1.41831 -1.79154 0
M  V30 1640 C 153.459 -1.98314 -2.87181 0
M  V30 1641 C 154.807 -2.27107 -3.58758 0
M  V30 1642 O 155.831 -1.96205 -2.97291 0
M  V30 1643 O 154.69 -2.79736 -4.69479 0
M  V30 1644 H 151.784 -0.392384 -0.727986 0
M  V30 1645 H 154.33 -1.37874 -0.989382 0
M  V30 1646 H 153.102 -2.97399 -2.54302 0
M  V30 1647 H 152.725 -1.64068 -3.6217 0
M  V30 1648 N 153.722 1.14298 -1.08507 0
M  V30 1649 C 154.95 1.89219 -0.836876 0
M  V30 1650 C 155.365 1.78638 0.611054 0
M  V30 1651 O 154.722 1.14643 1.41998 0
M  V30 1652 C 154.773 3.39158 -1.25116 0
M  V30 1653 O 154.494 3.49449 -2.64229 0
M  V30 1654 C 155.995 4.31073 -1.03398 0
M  V30 1655 H 153.215 0.599328 -0.301739 0
M  V30 1656 H 155.759 1.44746 -1.44461 0
M  V30 1657 H 153.914 3.81251 -0.687514 0
M  V30 1658 H 154.328 4.42589 -2.81452 0
M  V30 1659 H 155.802 5.34646 -1.37323 0
M  V30 1660 H 156.279 4.3919 0.0289259 0
M  V30 1661 H 156.885 3.94738 -1.58311 0
M  V30 1662 N 155.201 0.870884 1.31352 0
M  V30 1663 C 156.148 0.325425 2.28494 0
M  V30 1664 C 157.118 -0.576615 1.5577 0
M  V30 1665 O 158.303 -0.508059 1.83911 0
M  V30 1666 C 155.443 -0.466283 3.41935 0
M  V30 1667 C 154.556 0.463378 4.29508 0
M  V30 1668 C 153.691 -0.342544 5.30094 0
M  V30 1669 C 152.73 0.583486 6.09313 0
M  V30 1670 N 151.867 -0.186244 7.01853 0
M  V30 1671 H 156.707 1.15901 2.74538 0
M  V30 1672 H 154.244 0.58294 1.35056 0
M  V30 1673 H 156.202 -0.941085 4.06447 0
M  V30 1674 H 154.832 -1.26456 2.97 0
M  V30 1675 H 153.884 1.05663 3.65431 0
M  V30 1676 H 155.196 1.1734 4.84802 0
M  V30 1677 H 154.35 -0.879816 6.00287 0
M  V30 1678 H 153.089 -1.08585 4.75458 0
M  V30 1679 H 152.094 1.13251 5.3801 0
M  V30 1680 H 153.319 1.32566 6.66035 0
M  V30 1681 H 151.265 -0.912348 6.49625 0
M  V30 1682 H 151.182 0.464422 7.54572 0
M  V30 1683 H 152.45 -0.704716 7.76308 0
M  V30 1684 N 156.679 -1.44442 0.630414 0
M  V30 1685 C 157.609 -2.33418 -0.0618083 0
M  V30 1686 C 158.59 -1.48165 -0.835541 0
M  V30 1687 O 159.775 -1.76886 -0.801564 0
M  V30 1688 C 156.905 -3.31222 -1.04449 0
M  V30 1689 C 155.859 -4.26288 -0.382436 0
M  V30 1690 C 155.185 -5.13954 -1.47497 0
M  V30 1691 C 156.485 -5.1744 0.710865 0
M  V30 1692 H 158.179 -2.91548 0.681184 0
M  V30 1693 H 155.725 -1.40191 0.329026 0
M  V30 1694 H 157.678 -3.92351 -1.53748 0
M  V30 1695 H 156.402 -2.71299 -1.81836 0
M  V30 1696 H 155.061 -3.6649 0.0899054 0
M  V30 1697 H 154.709 -4.50385 -2.2397 0
M  V30 1698 H 154.409 -5.7837 -1.03737 0
M  V30 1699 H 155.933 -5.77955 -1.96979 0
M  V30 1700 H 157.347 -5.72509 0.300996 0
M  V30 1701 H 155.744 -5.90455 1.07156 0
M  V30 1702 H 156.814 -4.58496 1.57829 0
M  V30 1703 N 158.157 -0.370918 -1.53173 0
M  V30 1704 C 159.403 0.209976 -2.02313 0
M  V30 1705 C 159.758 1.45987 -1.25322 0
M  V30 1706 O 159.051 1.8856 -0.339965 0
M  V30 1707 C 159.245 0.549696 -3.53147 0
M  V30 1708 C 159.074 -0.665721 -4.44745 0
M  V30 1709 C 157.844 -1.17942 -4.91343 0
M  V30 1710 C 160.042 -1.53255 -4.90935 0
M  V30 1711 N 158.024 -2.35431 -5.66962 0
M  V30 1712 C 159.395 -2.55403 -5.64951 0
M  V30 1713 C 161.45 -1.5548 -4.73002 0
M  V30 1714 C 160.153 -3.5964 -6.22938 0
M  V30 1715 C 162.179 -2.58613 -5.31858 0
M  V30 1716 C 161.541 -3.59485 -6.05764 0
M  V30 1717 H 157.64 0.0394095 -0.781006 0
M  V30 1718 H 160.224 -0.516666 -1.8772 0
M  V30 1719 H 158.395 1.24541 -3.67891 0
M  V30 1720 H 160.127 1.11614 -3.89004 0
M  V30 1721 H 156.882 -0.743228 -4.67732 0
M  V30 1722 H 157.306 -2.94827 -6.09431 0
M  V30 1723 H 161.948 -0.788457 -4.15383 0
M  V30 1724 H 159.666 -4.37153 -6.79649 0
M  V30 1725 H 163.252 -2.61195 -5.19873 0
M  V30 1726 H 162.132 -4.3798 -6.50495 0
M  V30 1727 N 159.635 1.57281 -0.100228 0
M  V30 1728 C 160.884 1.93713 0.561984 0
M  V30 1729 C 161.197 0.984492 1.69018 0
M  V30 1730 O 162.403 1.24273 2.41389 0
M  V30 1731 C 160.859 3.4421 1.05106 0
M  V30 1732 C 160.467 4.47975 -0.0476628 0
M  V30 1733 C 162.211 3.89595 1.68571 0
M  V30 1734 C 160.118 5.89631 0.457055 0
M  V30 1735 H 159.048 0.723082 0.2137 0
M  V30 1736 H 161.699 1.82644 -0.177057 0
M  V30 1737 H 160.081 3.50449 1.84395 0
M  V30 1738 H 161.255 4.53385 -0.823333 0
M  V30 1739 H 159.57 4.1223 -0.587816 0
M  V30 1740 H 162.167 4.92832 2.07414 0
M  V30 1741 H 162.51 3.28526 2.55688 0
M  V30 1742 H 163.043 3.86078 0.958562 0
M  V30 1743 H 159.782 6.54411 -0.377616 0
M  V30 1744 H 159.302 5.87681 1.19962 0
M  V30 1745 H 160.981 6.40363 0.92437 0
M  V30 1746 N 161.113 -0.173488 1.56642 0
M  V30 1747 C 162.362 -0.888758 1.81063 0
M  V30 1748 C 162.675 -1.83506 0.67712 0
M  V30 1749 O 163.881 -2.59254 0.806206 0
M  V30 1750 C 162.337 -1.63091 3.20826 0
M  V30 1751 C 161.945 -0.728357 4.4204 0
M  V30 1752 C 163.689 -2.33454 3.54541 0
M  V30 1753 C 161.596 -1.47062 5.72823 0
M  V30 1754 H 160.526 -0.335618 0.675186 0
M  V30 1755 H 163.177 -0.141712 1.82952 0
M  V30 1756 H 161.559 -2.42263 3.13248 0
M  V30 1757 H 162.733 0.0262449 4.60793 0
M  V30 1758 H 161.048 -0.134492 4.16183 0
M  V30 1759 H 163.645 -2.89578 4.49498 0
M  V30 1760 H 163.988 -3.08687 2.79317 0
M  V30 1761 H 164.521 -1.61227 3.63663 0
M  V30 1762 H 161.26 -0.760658 6.51072 0
M  V30 1763 H 160.78 -2.1986 5.58052 0
M  V30 1764 H 162.459 -2.01868 6.14702 0
M  V30 1765 N 162.591 -1.51276 -0.441967 0
M  V30 1766 C 163.524 -1.66933 -1.55591 0
M  V30 1767 C 164.502 -0.516958 -1.54163 0
M  V30 1768 O 165.686 -0.740209 -1.73358 0
M  V30 1769 C 162.813 -1.67866 -2.94174 0
M  V30 1770 C 161.859 -2.89013 -3.13646 0
M  V30 1771 S 162.692 -4.49897 -2.90436 0
M  V30 1772 C 163.848 -4.53568 -4.31308 0
M  V30 1773 H 164.081 -2.61155 -1.42076 0
M  V30 1774 H 161.614 -1.40902 -0.631341 0
M  V30 1775 H 163.572 -1.69089 -3.74058 0
M  V30 1776 H 162.233 -0.748296 -3.05056 0
M  V30 1777 H 161.426 -2.86054 -4.14957 0
M  V30 1778 H 161.028 -2.85509 -2.4158 0
M  V30 1779 H 163.32 -4.28924 -5.24434 0
M  V30 1780 H 164.263 -5.55355 -4.39303 0
M  V30 1781 H 164.671 -3.82943 -4.14747 0
M  V30 1782 N 164.069 0.697108 -1.41344 0
M  V30 1783 C 164.979 1.84088 -1.45427 0
M  V30 1784 C 165.995 1.70545 -0.34501 0
M  V30 1785 O 167.171 1.92488 -0.592492 0
M  V30 1786 C 164.236 3.20056 -1.33286 0
M  V30 1787 C 163.297 3.45718 -2.54514 0
M  V30 1788 C 162.53 4.75199 -2.42944 0
M  V30 1789 O 162.753 5.51579 -1.45318 0
M  V30 1790 O 161.687 5.0161 -3.32672 0
M  V30 1791 H 165.513 1.836 -2.41919 0
M  V30 1792 H 163.098 0.849966 -1.22866 0
M  V30 1793 H 164.98 4.01236 -1.28794 0
M  V30 1794 H 163.655 3.2123 -0.39909 0
M  V30 1795 H 162.562 2.64474 -2.64583 0
M  V30 1796 H 163.895 3.49356 -3.46715 0
M  V30 1797 N 165.547 1.27147 0.931209 0
M  V30 1798 C 166.777 1.15914 1.71019 0
M  V30 1799 C 167.185 -0.287112 1.87009 0
M  V30 1800 O 166.528 -1.20761 1.38429 0
M  V30 1801 C 166.59 1.76647 3.13107 0
M  V30 1802 C 166.254 3.25807 3.20467 0
M  V30 1803 C 167.251 4.22489 3.02983 0
M  V30 1804 C 164.936 3.66452 3.43538 0
M  V30 1805 C 166.93 5.57794 3.08454 0
M  V30 1806 C 164.617 5.01888 3.48643 0
M  V30 1807 C 165.615 5.97369 3.31119 0
M  V30 1808 O 165.303 7.30337 3.35952 0
M  V30 1809 H 165.035 0.404062 0.54195 0
M  V30 1810 H 167.589 1.68457 1.17521 0
M  V30 1811 H 165.819 1.18578 3.68071 0
M  V30 1812 H 167.508 1.60179 3.72958 0
M  V30 1813 H 168.274 3.92425 2.85004 0
M  V30 1814 H 164.153 2.92611 3.5623 0
M  V30 1815 H 167.697 6.32298 2.94694 0
M  V30 1816 H 163.594 5.31609 3.66145 0
M  V30 1817 H 164.362 7.38739 3.5243 0
M  V30 1818 N 167.025 -1.13721 1.09112 0
M  V30 1819 C 167.955 -2.21148 0.749385 0
M  V30 1820 C 168.936 -1.6792 -0.271475 0
M  V30 1821 O 170.121 -1.93693 -0.140251 0
M  V30 1822 C 167.251 -3.46905 0.165659 0
M  V30 1823 C 166.205 -4.13203 1.11567 0
M  V30 1824 C 165.531 -5.33248 0.393809 0
M  V30 1825 C 166.831 -4.60912 2.45678 0
M  V30 1826 H 168.525 -2.4999 1.64758 0
M  V30 1827 H 166.071 -1.20156 0.793626 0
M  V30 1828 H 168.024 -4.21313 -0.085466 0
M  V30 1829 H 166.748 -3.17449 -0.767714 0
M  V30 1830 H 165.407 -3.40758 1.35202 0
M  V30 1831 H 165.055 -5.00054 -0.543599 0
M  V30 1832 H 164.755 -5.78552 1.02721 0
M  V30 1833 H 166.279 -6.10413 0.150908 0
M  V30 1834 H 167.693 -5.26759 2.26269 0
M  V30 1835 H 166.09 -5.16944 3.04776 0
M  V30 1836 H 167.16 -3.75603 3.06677 0
M  V30 1837 N 168.503 -0.877838 -1.30888 0
M  V30 1838 C 169.751 -0.491723 -1.96027 0
M  V30 1839 C 170.072 0.960827 -1.69685 0
M  V30 1840 O 169.342 1.67462 -1.01654 0
M  V30 1841 H 167.922 -0.17885 -0.725273 0
M  V30 1842 H 170.584 -1.11935 -1.59551 0
M  V30 1843 H 169.68 -0.656016 -3.05128 0
M  V30 1844 N 169.982 1.44106 -0.638065 0
M  V30 1845 C 171.23 2.01579 -0.145043 0
M  V30 1846 C 171.551 1.50496 1.24 0
M  V30 1847 O 170.821 0.711374 1.82527 0
M  V30 1848 H 169.401 0.745282 -0.05063 0
M  V30 1849 H 172.063 1.76516 -0.826327 0
M  V30 1850 H 171.159 3.11877 -0.118039 0
M  V30 1851 N 171.46 0.379036 1.52974 0
M  V30 1852 C 172.708 -0.206014 2.01047 0
M  V30 1853 C 173.029 -1.48175 1.26765 0
M  V30 1854 O 172.299 -1.92085 0.384743 0
M  V30 1855 H 170.879 -0.0791184 0.742798 0
M  V30 1856 H 173.541 0.508366 1.88153 0
M  V30 1857 H 172.637 -0.423501 3.09213 0
M  V30 1858 N 172.938 -1.57226 0.108567 0
M  V30 1859 C 174.163 -1.99604 -0.563303 0
M  V30 1860 C 174.588 -0.987563 -1.6009 0
M  V30 1861 O 173.946 0.0421687 -1.81251 0
M  V30 1862 C 173.994 -3.40902 -1.17552 0
M  V30 1863 O 173.098 -3.42896 -2.2912 0
M  V30 1864 H 172.439 -0.648704 -0.1417 0
M  V30 1865 H 174.969 -2.03679 0.193961 0
M  V30 1866 H 174.979 -3.78886 -1.51357 0
M  V30 1867 H 173.654 -4.1382 -0.415445 0
M  V30 1868 H 172.231 -3.1672 -1.96832 0
M  V30 1869 N 174.416 0.165178 -1.56732 0
M  V30 1870 C 175.379 1.18822 -1.95995 0
M  V30 1871 C 176.379 1.3685 -0.84431 0
M  V30 1872 O 177.569 1.34152 -1.11126 0
M  V30 1873 C 174.701 2.5521 -2.26011 0
M  V30 1874 H 175.894 0.851825 -2.87548 0
M  V30 1875 H 173.447 0.407857 -1.50885 0
M  V30 1876 H 174.182 2.93852 -1.37191 0
M  V30 1877 H 173.967 2.43489 -3.07336 0
M  V30 1878 H 175.457 3.28927 -2.57288 0
M  V30 1879 N 175.894 1.51508 0.433938 0
M  V30 1880 C 176.824 1.76016 1.53429 0
M  V30 1881 C 177.805 0.610112 1.58782 0
M  V30 1882 O 178.99 0.853177 1.74455 0
M  V30 1883 C 176.12 1.88831 2.9148 0
M  V30 1884 C 175.074 3.04288 3.00987 0
M  V30 1885 C 174.4 3.0229 4.4105 0
M  V30 1886 C 175.7 4.44193 2.74754 0
M  V30 1887 H 177.394 2.68152 1.33171 0
M  V30 1888 H 174.94 1.29035 0.639214 0
M  V30 1889 H 176.893 2.04559 3.6842 0
M  V30 1890 H 175.617 0.933455 3.12976 0
M  V30 1891 H 174.276 2.8827 2.26486 0
M  V30 1892 H 173.924 2.04576 4.59519 0
M  V30 1893 H 173.624 3.79822 4.4834 0
M  V30 1894 H 175.148 3.20116 5.1996 0
M  V30 1895 H 176.562 4.60544 3.41426 0
M  V30 1896 H 174.959 5.23457 2.9345 0
M  V30 1897 H 176.029 4.53996 1.70339 0
M  V30 1898 N 177.372 -0.689602 1.41712 0
M  V30 1899 C 178.649 -1.44457 1.31877 0
M  V30 1900 C 179.029 -2.11039 -0.0508537 0
M  V30 1901 O 178.377 -2.02138 -1.06547 0
M  V30 1902 C 178.587 -2.45913 2.47645 0
M  V30 1903 C 179.935 -3.10991 2.89084 0
M  V30 1904 O 180.959 -2.56238 2.47428 0
M  V30 1905 O 179.818 -4.10174 3.61137 0
M  V30 1906 H 176.912 -0.64362 0.519309 0
M  V30 1907 H 179.458 -0.719576 1.53689 0
M  V30 1908 H 178.23 -1.95409 3.39015 0
M  V30 1909 H 177.853 -3.25913 2.27742 0
M  V30 1910 N 178.85 -1.27639 -0.924453 0
M  V30 1911 C 179.78 -1.13166 -2.04244 0
M  V30 1912 C 180.761 -0.032256 -1.70069 0
M  V30 1913 O 181.946 -0.207328 -1.9309 0
M  V30 1914 C 179.076 -0.781496 -3.38393 0
M  V30 1915 C 178.03 -1.83449 -3.86692 0
M  V30 1916 C 177.356 -1.33822 -5.17683 0
M  V30 1917 C 178.656 -3.23917 -4.09726 0
M  V30 1918 H 180.35 -2.06689 -2.1661 0
M  V30 1919 H 177.896 -0.995136 -1.04082 0
M  V30 1920 H 179.849 -0.667057 -4.16087 0
M  V30 1921 H 178.573 0.189439 -3.2605 0
M  V30 1922 H 177.232 -1.93789 -3.11193 0
M  V30 1923 H 176.88 -0.35665 -5.01734 0
M  V30 1924 H 176.58 -2.04224 -5.50968 0
M  V30 1925 H 178.104 -1.23679 -5.97943 0
M  V30 1926 H 179.518 -3.16559 -4.77978 0
M  V30 1927 H 177.915 -3.92059 -4.54324 0
M  V30 1928 H 178.985 -3.68729 -3.14908 0
M  V30 1929 N 180.328 1.1314 -1.09713 0
M  V30 1930 C 181.258 2.20748 -0.761102 0
M  V30 1931 C 182.239 1.68061 0.262566 0
M  V30 1932 O 183.424 1.93765 0.129977 0
M  V30 1933 C 180.554 3.46812 -0.184054 0
M  V30 1934 C 179.508 4.12606 -1.13757 0
M  V30 1935 C 178.834 5.33031 -0.422083 0
M  V30 1936 C 180.134 4.59603 -2.48118 0
M  V30 1937 H 181.828 2.49113 -1.66082 0
M  V30 1938 H 179.374 1.19734 -0.799987 0
M  V30 1939 H 181.327 4.21353 0.0631215 0
M  V30 1940 H 180.051 3.17851 0.750868 0
M  V30 1941 H 178.71 3.40036 -1.37007 0
M  V30 1942 H 178.358 5.00335 0.517072 0
M  V30 1943 H 178.058 5.77999 -1.05788 0
M  V30 1944 H 179.582 6.10325 -0.183277 0
M  V30 1945 H 180.996 5.25552 -2.29059 0
M  V30 1946 H 179.393 5.15321 -3.07514 0
M  V30 1947 H 180.463 3.73971 -3.08665 0
M  V30 1948 N 181.806 0.884767 1.30421 0
M  V30 1949 C 182.716 0.355398 2.31892 0
M  V30 1950 C 183.732 -0.542261 1.65335 0
M  V30 1951 O 184.908 -0.435432 1.96637 0
M  V30 1952 C 181.973 -0.421661 3.44126 0
M  V30 1953 C 181.034 0.505727 4.26311 0
M  V30 1954 C 180.267 -0.234343 5.33185 0
M  V30 1955 O 180.49 -1.46045 5.51386 0
M  V30 1956 O 179.424 0.415443 6.00465 0
M  V30 1957 H 183.25 1.19685 2.79122 0
M  V30 1958 H 180.835 0.648596 1.34587 0
M  V30 1959 H 182.717 -0.861641 4.12497 0
M  V30 1960 H 181.392 -1.23942 2.99032 0
M  V30 1961 H 180.299 0.994513 3.60639 0
M  V30 1962 H 181.632 1.28948 4.75009 0
M  V30 1963 N 183.284 -1.43765 0.645699 0
M  V30 1964 C 184.695 -1.85193 0.236719 0
M  V30 1965 C 185.046 -1.54045 -1.21509 0
M  V30 1966 O 184.171 -0.985694 -1.92647 0
M  V30 1967 C 184.766 -3.36151 0.422845 0
M  V30 1968 C 183.325 -3.76338 0.0682492 0
M  V30 1969 C 182.472 -2.67538 0.729306 0
M  V30 1970 H 185.423 -1.34025 0.849883 0
M  V30 1971 H 185.444 -3.79032 -0.333904 0
M  V30 1972 H 184.956 -3.5879 1.47958 0
M  V30 1973 H 183.057 -3.59312 -0.986179 0
M  V30 1974 H 183.17 -4.76603 0.488469 0
M  V30 1975 H 181.534 -2.54176 0.163235 0
M  V30 1976 H 182.317 -2.93006 1.78892 0
M  V30 1977 N 184.763 -0.387143 -1.52771 0
M  V30 1978 C 186.011 0.195349 -2.01154 0
M  V30 1979 C 186.332 1.475 -1.27549 0
M  V30 1980 O 185.602 1.91878 -0.394924 0
M  V30 1981 H 184.182 0.075178 -0.743207 0
M  V30 1982 H 186.844 -0.518337 -1.87881 0
M  V30 1983 H 185.94 0.407096 -3.09434 0
M  V30 1984 N 186.241 1.57166 -0.116904 0
M  V30 1985 C 187.652 1.82169 0.408809 0
M  V30 1986 C 188.003 1.03393 1.66746 0
M  V30 1987 O 187.128 0.269886 2.1471 0
M  V30 1988 C 187.723 3.30429 0.748466 0
M  V30 1989 C 186.282 3.5612 1.21882 0
M  V30 1990 C 185.429 2.76374 0.226452 0
M  V30 1991 H 188.38 1.5497 -0.342063 0
M  V30 1992 H 188.401 3.44943 1.60607 0
M  V30 1993 H 187.913 3.87737 -0.167784 0
M  V30 1994 H 186.014 3.04168 2.15204 0
M  V30 1995 H 186.127 4.64705 1.16559 0
M  V30 1996 H 184.491 2.44515 0.713063 0
M  V30 1997 H 185.274 3.3644 -0.682859 0
M  V30 1998 N 187.719 -0.156864 1.56817 0
M  V30 1999 C 188.649 -1.19589 2.00551 0
M  V30 2000 C 189.63 -1.4536 0.883426 0
M  V30 2001 O 190.815 -1.56449 1.15054 0
M  V30 2002 C 187.945 -2.53143 2.37773 0
M  V30 2003 C 186.899 -2.41913 3.53075 0
M  V30 2004 C 186.225 -3.80088 3.76081 0
M  V30 2005 C 187.525 -1.91157 4.86062 0
M  V30 2006 H 189.219 -0.832293 2.87599 0
M  V30 2007 H 186.765 -0.398918 1.38364 0
M  V30 2008 H 188.718 -3.26047 2.66967 0
M  V30 2009 H 187.442 -2.91319 1.4765 0
M  V30 2010 H 186.101 -1.71462 3.24031 0
M  V30 2011 H 185.749 -4.15683 2.83225 0
M  V30 2012 H 185.449 -3.73439 4.53671 0
M  V30 2013 H 186.973 -4.54556 4.0769 0
M  V30 2014 H 188.387 -2.53846 5.14038 0
M  V30 2015 H 186.784 -1.95422 5.67389 0
M  V30 2016 H 187.854 -0.866673 4.77092 0
M  V30 2017 N 189.197 -1.51736 -0.425897 0
M  V30 2018 C 190.474 -1.55519 -1.1863 0
M  V30 2019 C 190.854 -0.326219 -2.08564 0
M  V30 2020 O 190.202 0.688012 -2.17896 0
M  V30 2021 C 190.412 -2.87521 -1.9782 0
M  V30 2022 C 191.76 -3.39899 -2.54468 0
M  V30 2023 O 192.784 -2.89148 -2.08019 0
M  V30 2024 O 191.643 -4.2848 -3.39215 0
M  V30 2025 H 188.737 -0.625739 -0.540721 0
M  V30 2026 H 191.283 -1.64055 -0.434038 0
M  V30 2027 H 190.055 -3.68422 -1.31836 0
M  V30 2028 H 189.678 -2.822 -2.80088 0
M  V30 2029 N 190.675 0.682077 -1.42076 0
M  V30 2030 C 191.585 1.82535 -1.47371 0
M  V30 2031 C 192.601 1.7017 -0.363079 0
M  V30 2032 O 193.777 1.91848 -0.612875 0
M  V30 2033 C 190.842 3.18624 -1.36674 0
M  V30 2034 C 189.903 3.42999 -2.58167 0
M  V30 2035 C 189.136 4.72595 -2.4797 0
M  V30 2036 O 189.359 5.50006 -1.5116 0
M  V30 2037 O 188.293 4.98054 -3.37974 0
M  V30 2038 H 192.119 1.81023 -2.43853 0
M  V30 2039 H 189.704 0.836887 -1.2376 0
M  V30 2040 H 191.586 3.99847 -1.33043 0
M  V30 2041 H 190.261 3.20789 -0.433138 0
M  V30 2042 H 189.168 2.61653 -2.67373 0
M  V30 2043 H 190.501 3.45659 -3.50401 0
M  V30 2044 N 192.153 1.28127 0.917671 0
M  V30 2045 C 193.381 1.17892 1.70026 0
M  V30 2046 C 193.796 -0.262958 1.8696 0
M  V30 2047 O 193.153 -1.17811 1.3938 0
M  V30 2048 C 193.204 1.86872 3.09453 0
M  V30 2049 O 192.925 3.25428 2.93306 0
M  V30 2050 C 194.426 1.8289 4.03815 0
M  V30 2051 H 191.646 0.40942 0.531617 0
M  V30 2052 H 194.19 1.69181 1.14883 0
M  V30 2053 H 192.345 1.39464 3.61426 0
M  V30 2054 H 192.759 3.59918 3.81523 0
M  V30 2055 H 194.233 2.35751 4.99125 0
M  V30 2056 H 194.71 0.800412 4.31845 0
M  V30 2057 H 195.316 2.29959 3.57769 0
M  V30 2058 N 193.631 -1.12557 1.10312 0
M  V30 2059 C 194.563 -2.17971 0.708625 0
M  V30 2060 C 195.576 -1.60806 -0.254027 0
M  V30 2061 O 196.765 -1.78458 -0.0386891 0
M  V30 2062 C 193.865 -3.38891 0.0248198 0
M  V30 2063 C 193.038 -4.25548 1.01132 0
M  V30 2064 C 192.097 -5.24972 0.35924 0
M  V30 2065 O 191.123 -5.60174 1.00965 0
M  V30 2066 N 192.325 -5.73747 -0.882847 0
M  V30 2067 H 195.09 -2.52427 1.61557 0
M  V30 2068 H 192.651 -1.27967 0.991771 0
M  V30 2069 H 194.643 -4.02485 -0.422852 0
M  V30 2070 H 193.213 -3.02596 -0.784514 0
M  V30 2071 H 192.433 -3.58589 1.6373 0
M  V30 2072 H 193.721 -4.80294 1.67914 0
M  V30 2073 H 193.119 -5.4731 -1.43065 0
M  V30 2074 H 191.676 -6.39234 -1.27369 0
M  V30 2075 N 195.109 -0.891671 -1.2995 0
M  V30 2076 C 196.358 -0.509521 -1.95158 0
M  V30 2077 C 196.671 0.947388 -1.71125 0
M  V30 2078 O 197.877 1.43669 -2.30372 0
M  V30 2079 C 196.333 -0.860315 -3.49466 0
M  V30 2080 C 195.941 -2.33545 -3.8231 0
M  V30 2081 C 197.685 -0.547687 -4.20952 0
M  V30 2082 C 195.592 -2.62752 -5.29826 0
M  V30 2083 H 194.522 -0.18682 -0.730489 0
M  V30 2084 H 197.173 -1.08756 -1.47798 0
M  V30 2085 H 195.555 -0.211285 -3.95436 0
M  V30 2086 H 196.729 -3.02936 -3.47227 0
M  V30 2087 H 195.044 -2.61629 -3.23944 0
M  V30 2088 H 197.641 -0.742854 -5.29515 0
M  V30 2089 H 197.984 0.51332 -4.13123 0
M  V30 2090 H 198.517 -1.1542 -3.80688 0
M  V30 2091 H 195.256 -3.6762 -5.42712 0
M  V30 2092 H 194.776 -1.97977 -5.66185 0
M  V30 2093 H 196.455 -2.48601 -5.97333 0
M  V30 2094 N 196.587 1.43421 -0.653314 0
M  V30 2095 C 197.55 2.29182 0.0287951 0
M  V30 2096 C 198.55 1.42213 0.750465 0
M  V30 2097 O 199.74 1.63843 0.591701 0
M  V30 2098 C 196.872 3.24278 1.05151 0
M  V30 2099 H 198.065 2.90985 -0.725786 0
M  V30 2100 H 195.618 1.50702 -0.414545 0
M  V30 2101 H 196.353 2.6737 1.83532 0
M  V30 2102 H 196.138 3.88396 0.537687 0
M  V30 2103 H 197.628 3.88647 1.52786 0
M  V30 2104 N 198.065 0.39524 1.52563 0
M  V30 2105 C 199.293 -0.184943 2.06072 0
M  V30 2106 C 199.708 -1.40021 1.26647 0
M  V30 2107 O 199.065 -1.79767 0.314672 0
M  V30 2108 C 199.116 -0.549179 3.57304 0
M  V30 2109 O 198.837 0.617813 4.33722 0
M  V30 2110 C 200.338 -1.18459 4.2718 0
M  V30 2111 H 197.558 -0.0265025 0.670476 0
M  V30 2112 H 200.102 0.562184 1.96621 0
M  V30 2113 H 198.257 -1.2462 3.66809 0
M  V30 2114 H 198.671 0.317091 5.23541 0
M  V30 2115 H 200.145 -1.38976 5.34219 0
M  V30 2116 H 200.622 -2.15368 3.82771 0
M  V30 2117 H 201.228 -0.528163 4.22008 0
M  V30 2118 N 199.544 -1.57102 0.125237 0
M  V30 2119 C 200.793 -1.94582 -0.531095 0
M  V30 2120 C 201.106 -1.01126 -1.6743 0
M  V30 2121 O 202.312 -1.28097 -2.39381 0
M  V30 2122 C 200.768 -3.45839 -0.996164 0
M  V30 2123 C 200.376 -4.47842 0.118926 0
M  V30 2124 C 202.12 -3.92227 -1.62352 0
M  V30 2125 C 200.027 -5.90284 -0.363192 0
M  V30 2126 H 198.957 -0.726391 -0.20217 0
M  V30 2127 H 201.608 -1.82339 0.206092 0
M  V30 2128 H 199.99 -3.53338 -1.78796 0
M  V30 2129 H 201.164 -4.52018 0.895358 0
M  V30 2130 H 199.479 -4.11243 0.653324 0
M  V30 2131 H 202.076 -4.96069 -1.99548 0
M  V30 2132 H 202.419 -3.32552 -2.50429 0
M  V30 2133 H 202.952 -3.87554 -0.897019 0
M  V30 2134 H 199.691 -6.53728 0.481679 0
M  V30 2135 H 199.211 -5.89515 -1.10597 0
M  V30 2136 H 200.89 -6.41752 -0.822377 0
M  V30 2137 N 201.022 0.148545 -1.56898 0
M  V30 2138 C 201.952 1.18524 -2.01182 0
M  V30 2139 C 202.933 1.4489 -0.891123 0
M  V30 2140 O 204.118 1.55836 -1.15882 0
M  V30 2141 C 201.248 2.51879 -2.39112 0
M  V30 2142 C 200.202 2.40038 -3.54353 0
M  V30 2143 C 199.528 3.78089 -3.78091 0
M  V30 2144 C 200.828 1.88577 -4.87069 0
M  V30 2145 H 202.522 0.817029 -2.88036 0
M  V30 2146 H 200.068 0.391575 -1.38574 0
M  V30 2147 H 202.021 3.24627 -2.68692 0
M  V30 2148 H 200.745 2.90532 -1.49193 0
M  V30 2149 H 199.404 1.69742 -3.24936 0
M  V30 2150 H 199.052 4.14175 -2.85426 0
M  V30 2151 H 198.752 3.71028 -4.55645 0
M  V30 2152 H 200.276 4.52387 -4.10095 0
M  V30 2153 H 201.69 2.51117 -5.15377 0
M  V30 2154 H 200.087 1.9241 -5.68417 0
M  V30 2155 H 201.157 0.84136 -4.77545 0
M  V30 2156 N 202.5 1.5196 0.417844 0
M  V30 2157 C 203.916 1.40569 0.755816 0
M  V30 2158 C 204.116 0.503316 1.95113 0
M  V30 2159 O 203.172 -0.0341925 2.52477 0
M  V30 2160 C 204.485 2.82947 1.01791 0
M  V30 2161 C 206.033 2.92231 1.12116 0
M  V30 2162 C 206.508 4.35559 1.41608 0
M  V30 2163 N 207.999 4.38753 1.48491 0
M  V30 2164 C 208.734 5.46705 1.7292 0
M  V30 2165 N 208.23 6.64788 1.95011 0
M  V30 2166 N 210.023 5.34209 1.74863 0
M  V30 2167 H 202.174 2.09168 -0.369098 0
M  V30 2168 H 204.437 0.942409 -0.102809 0
M  V30 2169 H 204.143 3.5106 0.212081 0
M  V30 2170 H 204.017 3.23462 1.94042 0
M  V30 2171 H 206.404 2.24304 1.9176 0
M  V30 2172 H 206.485 2.55185 0.177225 0
M  V30 2173 H 206.129 5.04042 0.624848 0
M  V30 2174 H 206.059 4.70133 2.37239 0
M  V30 2175 H 208.55 3.5363 1.33244 0
M  V30 2176 H 208.863 7.42845 2.13076 0
M  V30 2177 H 207.208 6.67869 1.92293 0
M  V30 2178 H 210.399 4.40937 1.57137 0
M  V30 2179 H 210.572 6.18415 1.93563 0
M  V30 2180 N 203.978 -0.674533 1.42435 0
M  V30 2181 C 204.888 -1.81751 1.48337 0
M  V30 2182 C 205.904 -1.69975 0.372099 0
M  V30 2183 O 207.08 -1.91521 0.62304 0
M  V30 2184 C 204.145 -3.17895 1.38361 0
M  V30 2185 C 203.206 -3.41625 2.59982 0
M  V30 2186 C 202.439 -4.71274 2.50473 0
M  V30 2187 O 202.662 -5.49197 1.54075 0
M  V30 2188 O 201.596 -4.96254 3.4061 0
M  V30 2189 H 205.422 -1.79728 2.44809 0
M  V30 2190 H 203.007 -0.830312 1.24202 0
M  V30 2191 H 204.889 -3.99136 1.35161 0
M  V30 2192 H 203.564 -3.20555 0.450144 0
M  V30 2193 H 202.471 -2.60231 2.68757 0
M  V30 2194 H 203.804 -3.43796 3.52229 0
M  V30 2195 N 205.456 -1.28612 -0.910864 0
M  V30 2196 C 206.705 -1.15311 -1.65488 0
M  V30 2197 C 207.018 0.296999 -1.93332 0
M  V30 2198 O 208.224 0.551168 -2.65847 0
M  V30 2199 C 206.68 -2.01599 -2.98137 0
M  V30 2200 C 206.288 -3.51367 -2.7793 0
M  V30 2201 C 208.032 -1.96993 -3.76024 0
M  V30 2202 C 205.939 -4.29797 -4.06237 0
M  V30 2203 H 204.869 -0.42796 -0.620779 0
M  V30 2204 H 207.52 -1.53166 -1.01057 0
M  V30 2205 H 205.902 -1.56603 -3.63719 0
M  V30 2206 H 207.076 -4.0434 -2.21011 0
M  V30 2207 H 205.391 -3.57529 -2.13452 0
M  V30 2208 H 207.988 -2.52856 -4.71135 0
M  V30 2209 H 208.331 -0.94733 -4.05378 0
M  V30 2210 H 208.864 -2.39973 -3.17266 0
M  V30 2211 H 205.603 -5.32648 -3.82055 0
M  V30 2212 H 205.123 -3.81596 -4.62757 0
M  V30 2213 H 206.802 -4.39869 -4.74473 0
M  V30 2214 N 206.934 1.1197 -1.10907 0
M  V30 2215 C 207.864 2.19928 -0.784473 0
M  V30 2216 C 208.845 1.6833 0.244726 0
M  V30 2217 O 210.03 1.93892 0.109418 0
M  V30 2218 C 207.16 3.46597 -0.220827 0
M  V30 2219 C 206.114 4.11376 -1.18127 0
M  V30 2220 C 205.44 5.32554 -0.478594 0
M  V30 2221 C 206.74 4.56945 -2.52979 0
M  V30 2222 H 208.434 2.47337 -1.68715 0
M  V30 2223 H 205.98 1.18879 -0.812642 0
M  V30 2224 H 207.933 4.21396 0.0184278 0
M  V30 2225 H 206.657 3.1863 0.717113 0
M  V30 2226 H 205.316 3.38564 -1.40606 0
M  V30 2227 H 204.964 5.00856 0.463976 0
M  V30 2228 H 204.664 5.76844 -1.11912 0
M  V30 2229 H 206.188 6.10096 -0.248 0
M  V30 2230 H 207.602 5.23093 -2.3462 0
M  V30 2231 H 205.999 5.1203 -3.12962 0
M  V30 2232 H 207.069 3.70676 -3.12614 0
M  V30 2233 N 208.412 0.89855 1.29475 0
M  V30 2234 C 209.359 0.373819 2.27753 0
M  V30 2235 C 210.329 -0.543444 1.56958 0
M  V30 2236 O 211.514 -0.468934 1.84948 0
M  V30 2237 C 208.654 -0.393648 3.42848 0
M  V30 2238 C 207.767 0.554379 4.28428 0
M  V30 2239 C 206.902 -0.230026 5.30702 0
M  V30 2240 C 205.941 0.712599 6.07938 0
M  V30 2241 N 205.078 -0.0373283 7.0209 0
M  V30 2242 H 209.918 1.21699 2.72017 0
M  V30 2243 H 207.455 0.611456 1.33789 0
M  V30 2244 H 209.413 -0.85466 4.08352 0
M  V30 2245 H 208.043 -1.20128 2.99615 0
M  V30 2246 H 207.095 1.13391 3.63107 0
M  V30 2247 H 208.407 1.27597 4.82204 0
M  V30 2248 H 207.561 -0.752288 6.02018 0
M  V30 2249 H 206.3 -0.984758 4.77654 0
M  V30 2250 H 205.305 1.24637 5.35486 0
M  V30 2251 H 206.53 1.46664 6.63074 0
M  V30 2252 H 204.476 -0.774348 6.51414 0
M  V30 2253 H 204.393 0.624374 7.53417 0
M  V30 2254 H 205.661 -0.539891 7.77628 0
M  V30 2255 N 209.89 -1.43072 0.660911 0
M  V30 2256 C 211.138 -2.01323 0.177094 0
M  V30 2257 C 211.459 -1.5245 -1.2159 0
M  V30 2258 O 210.729 -0.740322 -1.81373 0
M  V30 2259 H 209.309 -0.744382 0.0624804 0
M  V30 2260 H 211.971 -1.75179 0.854305 0
M  V30 2261 H 211.067 -3.11649 0.167641 0
M  V30 2262 N 211.368 -0.403325 -1.52352 0
M  V30 2263 C 212.298 0.416205 -2.29761 0
M  V30 2264 C 213.279 1.05123 -1.33728 0
M  V30 2265 O 214.464 1.06134 -1.62632 0
M  V30 2266 C 211.594 1.53624 -3.11475 0
M  V30 2267 C 210.548 1.02653 -4.15507 0
M  V30 2268 C 209.874 2.23971 -4.85532 0
M  V30 2269 C 211.174 0.08463 -5.22231 0
M  V30 2270 H 212.868 -0.229701 -2.98518 0
M  V30 2271 H 210.414 -0.111913 -1.43564 0
M  V30 2272 H 212.367 2.1165 -3.64393 0
M  V30 2273 H 211.091 2.20994 -2.40477 0
M  V30 2274 H 209.75 0.46871 -3.63591 0
M  V30 2275 H 209.398 2.89883 -4.11068 0
M  V30 2276 H 209.098 1.90521 -5.55856 0
M  V30 2277 H 210.622 2.82614 -5.41259 0
M  V30 2278 H 212.036 0.573509 -5.70424 0
M  V30 2279 H 210.433 -0.160783 -5.99885 0
M  V30 2280 H 211.503 -0.86237 -4.7717 0
M  V30 2281 N 212.846 1.57033 -0.133567 0
M  V30 2282 C 214.123 1.87256 0.56522 0
M  V30 2283 C 214.503 1.03726 1.83859 0
M  V30 2284 O 213.851 0.120247 2.28183 0
M  V30 2285 C 214.061 3.3865 0.843636 0
M  V30 2286 C 215.409 4.07574 1.19032 0
M  V30 2287 O 216.433 3.43752 0.933429 0
M  V30 2288 O 215.292 5.20259 1.67312 0
M  V30 2289 H 212.386 0.775678 0.286796 0
M  V30 2290 H 214.932 1.68855 -0.169168 0
M  V30 2291 H 213.704 3.91257 -0.0581149 0
M  V30 2292 H 213.327 3.62532 1.63268 0
M  V30 2293 N 214.325 -0.140222 1.56975 0
M  V30 2294 C 215.555 -0.865181 1.87612 0
M  V30 2295 C 215.963 -1.74942 0.72055 0
M  V30 2296 O 215.306 -1.80917 -0.318561 0
M  V30 2297 C 215.368 -1.76782 3.13031 0
M  V30 2298 C 215.032 -1.06005 4.44536 0
M  V30 2299 C 216.029 -0.410768 5.18275 0
M  V30 2300 C 213.714 -1.04754 4.91255 0
M  V30 2301 C 215.708 0.241572 6.36942 0
M  V30 2302 C 213.395 -0.391394 6.09845 0
M  V30 2303 C 214.393 0.252029 6.82535 0
M  V30 2304 O 214.081 0.897757 7.98871 0
M  V30 2305 H 213.813 -0.255188 0.625983 0
M  V30 2306 H 216.367 -0.135653 2.04952 0
M  V30 2307 H 214.597 -2.53846 2.91718 0
M  V30 2308 H 216.286 -2.36533 3.29859 0
M  V30 2309 H 217.052 -0.412195 4.83245 0
M  V30 2310 H 212.931 -1.53777 4.34596 0
M  V30 2311 H 216.475 0.744375 6.93617 0
M  V30 2312 H 212.372 -0.387656 6.44335 0
M  V30 2313 H 213.14 0.800102 8.1458 0
M  V30 2314 N 215.803 -1.52179 -0.40978 0
M  V30 2315 C 216.733 -1.78435 -1.5061 0
M  V30 2316 C 217.714 -0.635295 -1.57791 0
M  V30 2317 O 218.899 -0.880823 -1.73076 0
M  V30 2318 C 216.029 -1.93444 -2.88439 0
M  V30 2319 C 214.983 -3.09038 -2.96108 0
M  V30 2320 C 214.309 -3.09268 -4.36185 0
M  V30 2321 C 215.609 -4.48508 -2.67652 0
M  V30 2322 H 217.303 -2.70237 -1.28889 0
M  V30 2323 H 214.849 -1.30036 -0.618605 0
M  V30 2324 H 216.802 -2.10394 -3.65119 0
M  V30 2325 H 215.526 -0.983129 -3.11452 0
M  V30 2326 H 214.185 -2.91837 -2.21872 0
M  V30 2327 H 213.833 -2.11861 -4.56206 0
M  V30 2328 H 213.533 -3.86907 -4.42241 0
M  V30 2329 H 215.057 -3.28348 -5.14801 0
M  V30 2330 H 216.471 -4.65918 -3.34056 0
M  V30 2331 H 214.868 -5.28059 -2.85085 0
M  V30 2332 H 215.938 -4.56649 -1.63095 0
M  V30 2333 N 217.281 0.66697 -1.42791 0
M  V30 2334 C 218.231 1.77313 -1.43332 0
M  V30 2335 C 219.215 1.5801 -0.303586 0
M  V30 2336 O 220.407 1.68356 -0.546385 0
M  V30 2337 C 217.536 3.15822 -1.34578 0
M  V30 2338 C 216.622 3.40721 -2.52528 0
M  V30 2339 N 217.013 3.36162 -3.77927 0
M  V30 2340 C 215.311 3.71387 -2.46956 0
M  V30 2341 C 216.012 3.60762 -4.56318 0
M  V30 2342 N 214.988 3.81908 -3.86843 0
M  V30 2343 H 218.79 1.72193 -2.38174 0
M  V30 2344 H 216.304 0.868114 -1.3725 0
M  V30 2345 H 218.301 3.951 -1.33048 0
M  V30 2346 H 216.961 3.22133 -0.407453 0
M  V30 2347 H 217.972 3.15885 -4.10411 0
M  V30 2348 H 214.649 3.84897 -1.61743 0
M  V30 2349 H 216.039 3.63132 -5.65318 0
M  V30 2350 N 218.759 1.29093 0.90403 0
M  V30 2351 C 219.984 1.19809 1.69294 0
M  V30 2352 C 220.409 -0.238481 1.86582 0
M  V30 2353 O 219.767 -1.1723 1.383 0
M  V30 2354 C 219.815 1.91202 3.05736 0
M  V30 2355 O 218.919 1.22611 3.93752 0
M  V30 2356 H 218.26 0.415385 0.518027 0
M  V30 2357 H 220.79 1.70586 1.12967 0
M  V30 2358 H 220.8 1.99487 3.55906 0
M  V30 2359 H 219.475 2.95692 2.92471 0
M  V30 2360 H 218.052 1.22554 3.52186 0
M  V30 2361 N 220.237 -1.11381 1.11499 0
M  V30 2362 C 221.147 -2.21019 0.786628 0
M  V30 2363 C 222.163 -1.72597 -0.220507 0
M  V30 2364 O 223.339 -2.01321 -0.0565251 0
M  V30 2365 C 220.404 -3.459 0.235333 0
M  V30 2366 C 219.465 -4.09107 1.30115 0
M  V30 2367 C 218.698 -5.28027 0.776068 0
M  V30 2368 O 218.921 -5.6904 -0.393661 0
M  V30 2369 O 217.855 -5.81835 1.54114 0
M  V30 2370 H 221.681 -2.51521 1.70209 0
M  V30 2371 H 219.266 -1.19928 0.890928 0
M  V30 2372 H 221.148 -4.21346 -0.067715 0
M  V30 2373 H 219.823 -3.17049 -0.652828 0
M  V30 2374 H 218.73 -3.35391 1.65722 0
M  V30 2375 H 220.063 -4.42139 2.16273 0
M  V30 2376 N 221.715 -0.905404 -1.28997 0
M  V30 2377 C 222.662 -0.385892 -2.27551 0
M  V30 2378 C 223.632 0.535113 -1.57244 0
M  V30 2379 O 224.817 0.459119 -1.85194 0
M  V30 2380 C 221.957 0.375461 -3.43051 0
M  V30 2381 C 221.07 -0.577092 -4.28128 0
M  V30 2382 C 220.205 0.201879 -5.30816 0
M  V30 2383 C 219.244 -0.744829 -6.07551 0
M  V30 2384 N 218.381 9.42587e-05 -7.021 0
M  V30 2385 H 223.221 -1.23139 -2.71368 0
M  V30 2386 H 220.758 -0.618542 -1.33463 0
M  V30 2387 H 222.716 0.832992 -4.088 0
M  V30 2388 H 221.346 1.18537 -3.00248 0
M  V30 2389 H 220.398 -1.15315 -3.62501 0
M  V30 2390 H 221.71 -1.30152 -4.8152 0
M  V30 2391 H 220.864 0.720351 -6.02408 0
M  V30 2392 H 219.603 0.959413 -4.7817 0
M  V30 2393 H 218.608 -1.27475 -5.34818 0
M  V30 2394 H 219.833 -1.50178 -6.62286 0
M  V30 2395 H 217.779 0.739791 -6.51815 0
M  V30 2396 H 217.696 -0.664321 -7.53076 0
M  V30 2397 H 218.964 0.498644 -7.77903 0
M  V30 2398 N 223.193 1.4272 -0.668489 0
M  V30 2399 C 224.14 2.30796 0.0137489 0
M  V30 2400 C 225.11 1.4561 0.799177 0
M  V30 2401 O 226.295 1.74453 0.772702 0
M  V30 2402 C 223.435 3.31377 0.963507 0
M  V30 2403 C 222.548 4.31655 0.172569 0
M  V30 2404 C 221.683 5.19312 1.1175 0
M  V30 2405 C 220.722 6.11274 0.317886 0
M  V30 2406 N 219.859 6.91504 1.2152 0
M  V30 2407 H 224.699 2.88585 -0.743161 0
M  V30 2408 H 222.236 1.42154 -0.378226 0
M  V30 2409 H 224.194 3.88214 1.52792 0
M  V30 2410 H 222.824 2.75202 1.68712 0
M  V30 2411 H 221.876 3.76988 -0.508374 0
M  V30 2412 H 223.188 4.96779 -0.448527 0
M  V30 2413 H 222.342 5.80851 1.75206 0
M  V30 2414 H 221.081 4.5435 1.77249 0
M  V30 2415 H 220.086 5.48809 -0.329918 0
M  V30 2416 H 221.311 6.78283 -0.332917 0
M  V30 2417 H 219.257 6.29176 1.85671 0
M  V30 2418 H 219.174 7.53209 0.649036 0
M  V30 2419 H 220.442 7.57535 1.83742 0
M  V30 2420 N 224.671 0.411399 1.52136 0
M  V30 2421 C 225.92 -0.165009 2.01024 0
M  V30 2422 C 226.233 -1.4603 1.30133 0
M  V30 2423 O 227.439 -2.1181 1.69849 0
M  V30 2424 C 225.895 -0.344618 3.58246 0
M  V30 2425 C 225.503 0.938716 4.38055 0
M  V30 2426 C 227.247 -0.876195 4.15359 0
M  V30 2427 C 225.154 0.726172 5.86925 0
M  V30 2428 H 224.084 -0.0654407 0.751155 0
M  V30 2429 H 226.735 0.537192 1.75461 0
M  V30 2430 H 225.117 -1.10921 3.80148 0
M  V30 2431 H 226.291 1.70963 4.27912 0
M  V30 2432 H 224.606 1.39688 3.92271 0
M  V30 2433 H 227.203 -1.05128 5.24263 0
M  V30 2434 H 227.546 -1.85152 3.7286 0
M  V30 2435 H 228.079 -0.170607 3.97434 0
M  V30 2436 H 224.818 1.67312 6.33788 0
M  V30 2437 H 224.338 -0.00540283 5.998 0
M  V30 2438 H 226.017 0.369231 6.45946 0
M  V30 2439 N 226.149 -1.5696 0.141893 0
M  V30 2440 C 227.099 -2.13074 -0.811383 0
M  V30 2441 C 228.083 -1.05726 -1.21288 0
M  V30 2442 O 229.275 -1.31914 -1.18015 0
M  V30 2443 C 226.404 -2.75186 -2.0525 0
M  V30 2444 C 225.49 -3.8965 -1.67432 0
M  V30 2445 N 225.881 -4.95733 -1.0041 0
M  V30 2446 C 224.179 -4.00262 -1.96739 0
M  V30 2447 C 224.88 -5.75858 -0.822345 0
M  V30 2448 N 223.856 -5.26452 -1.3546 0
M  V30 2449 H 227.658 -2.92465 -0.290031 0
M  V30 2450 H 225.172 -1.6229 -0.0598218 0
M  V30 2451 H 227.169 -3.13745 -2.74535 0
M  V30 2452 H 225.829 -1.97266 -2.57907 0
M  V30 2453 H 226.84 -5.13607 -0.665441 0
M  V30 2454 H 223.517 -3.33412 -2.51282 0
M  V30 2455 H 224.907 -6.71254 -0.294496 0
M  V30 2456 N 227.627 0.131896 -1.57047 0
M  V30 2457 C 229.043 0.485031 -1.52051 0
M  V30 2458 C 229.243 1.82563 -0.85281 0
M  V30 2459 O 228.299 2.48817 -0.429694 0
M  V30 2460 C 229.612 0.481409 -2.96821 0
M  V30 2461 C 231.16 0.565868 -3.07842 0
M  V30 2462 C 231.635 0.592762 -4.54148 0
M  V30 2463 N 233.126 0.654564 -4.58552 0
M  V30 2464 C 233.861 0.696608 -5.69153 0
M  V30 2465 N 233.357 0.697078 -6.89284 0
M  V30 2466 N 235.15 0.738639 -5.57226 0
M  V30 2467 H 227.301 -0.746664 -1.98843 0
M  V30 2468 H 229.564 -0.273999 -0.90754 0
M  V30 2469 H 229.27 -0.435731 -3.4899 0
M  V30 2470 H 229.144 1.3139 -3.53577 0
M  V30 2471 H 231.531 1.47343 -2.55684 0
M  V30 2472 H 231.612 -0.29406 -2.54104 0
M  V30 2473 H 231.256 -0.310701 -5.06949 0
M  V30 2474 H 231.186 1.46939 -5.05684 0
M  V30 2475 H 233.677 0.660887 -3.72076 0
M  V30 2476 H 233.99 0.731426 -7.69331 0
M  V30 2477 H 232.335 0.66471 -6.91814 0
M  V30 2478 H 235.526 0.735545 -4.62285 0
M  V30 2479 H 235.699 0.767938 -6.43434 0
M  V30 2480 N 229.106 1.52395 0.401703 0
M  V30 2481 C 230.383 1.57387 1.16141 0
M  V30 2482 C 230.763 0.359359 2.08019 0
M  V30 2483 O 230.111 -0.65326 2.18963 0
M  V30 2484 C 230.321 2.90631 1.93221 0
M  V30 2485 C 231.669 3.43904 2.49028 0
M  V30 2486 O 232.693 2.92421 2.03393 0
M  V30 2487 O 231.552 4.33823 3.32356 0
M  V30 2488 H 228.646 0.634262 0.530698 0
M  V30 2489 H 231.192 1.64725 0.407883 0
M  V30 2490 H 229.964 3.70473 1.25958 0
M  V30 2491 H 229.587 2.8662 2.75563 0
M  V30 2492 N 230.584 -0.659388 1.43143 0
M  V30 2493 C 231.833 -1.41518 1.43721 0
M  V30 2494 C 232.146 -1.95499 0.0628176 0
M  V30 2495 O 233.352 -2.71446 -0.0539683 0
M  V30 2496 C 231.808 -2.5608 2.52885 0
M  V30 2497 C 231.416 -2.08733 3.96402 0
M  V30 2498 C 233.16 -3.3349 2.62649 0
M  V30 2499 C 231.067 -3.20469 4.97045 0
M  V30 2500 H 229.997 -0.531705 0.534608 0
M  V30 2501 H 232.648 -0.712343 1.69109 0
M  V30 2502 H 231.03 -3.28805 2.20688 0
M  V30 2503 H 232.204 -1.43059 4.3803 0
M  V30 2504 H 230.519 -1.44219 3.90627 0
M  V30 2505 H 233.116 -4.16734 3.35017 0
M  V30 2506 H 233.459 -3.8111 1.67513 0
M  V30 2507 H 233.992 -2.67842 2.94118 0
M  V30 2508 H 230.731 -2.77824 5.93712 0
M  V30 2509 H 230.251 -3.84874 4.60034 0
M  V30 2510 H 231.93 -3.85698 5.19467 0
M  V30 2511 N 232.062 -1.29571 -0.897171 0
M  V30 2512 C 233.009 -1.14916 -2.00158 0
M  V30 2513 C 233.979 -0.0418149 -1.66047 0
M  V30 2514 O 235.164 -0.209793 -1.89643 0
M  V30 2515 C 232.304 -0.834307 -3.34863 0
M  V30 2516 C 231.417 -2.02234 -3.8174 0
M  V30 2517 C 230.552 -1.64664 -5.05034 0
M  V30 2518 C 229.591 -2.80033 -5.44286 0
M  V30 2519 N 228.728 -2.42843 -6.58765 0
M  V30 2520 H 233.568 -2.09403 -2.12025 0
M  V30 2521 H 231.105 -1.042 -1.0383 0
M  V30 2522 H 233.063 -0.632436 -4.12379 0
M  V30 2523 H 231.693 0.0736656 -3.22716 0
M  V30 2524 H 230.745 -2.33583 -3.00238 0
M  V30 2525 H 232.057 -2.88673 -4.06779 0
M  V30 2526 H 231.211 -1.4078 -5.9014 0
M  V30 2527 H 229.95 -0.753766 -4.8184 0
M  V30 2528 H 228.955 -3.04596 -4.57713 0
M  V30 2529 H 230.18 -3.69989 -5.6946 0
M  V30 2530 H 228.126 -1.56046 -6.3717 0
M  V30 2531 H 228.043 -3.22815 -6.83613 0
M  V30 2532 H 229.311 -2.22285 -7.47134 0
M  V30 2533 N 233.54 1.10788 -1.12088 0
M  V30 2534 C 234.503 2.15207 -0.788577 0
M  V30 2535 C 235.503 1.59609 0.195317 0
M  V30 2536 O 236.693 1.74174 -0.0300193 0
M  V30 2537 C 233.825 3.4047 -0.171174 0
M  V30 2538 H 235.018 2.46116 -1.71368 0
M  V30 2539 H 232.571 1.26089 -0.923652 0
M  V30 2540 H 233.306 3.15176 0.763832 0
M  V30 2541 H 233.091 3.82109 -0.879514 0
M  V30 2542 H 234.581 4.17576 0.04496 0
M  V30 2543 N 235.018 0.912232 1.28515 0
M  V30 2544 C 235.981 0.404223 2.25607 0
M  V30 2545 C 236.981 -0.468602 1.53821 0
M  V30 2546 O 238.171 -0.271873 1.72065 0
M  V30 2547 C 235.303 -0.420653 3.38295 0
M  V30 2548 H 236.496 1.26188 2.7206 0
M  V30 2549 H 234.049 0.691495 1.40171 0
M  V30 2550 H 234.784 -1.29777 2.97201 0
M  V30 2551 H 234.569 0.204935 3.91564 0
M  V30 2552 H 236.059 -0.766971 4.10496 0
M  V30 2553 N 236.496 -1.42363 0.676048 0
M  V30 2554 C 237.444 -2.32596 -0.0131507 0
M  V30 2555 C 238.438 -1.49891 -0.789238 0
M  V30 2556 O 239.644 -1.65955 -0.697061 0
M  V30 2557 H 236.019 -0.751647 -0.0230481 0
M  V30 2558 H 237.99 -2.88421 0.765243 0
M  V30 2559 C 236.739 -3.34479 -0.949702 0
M  V30 2560 H 236.062 -3.98158 -0.361938 0
M  V30 2561 H 237.502 -4.00199 -1.4006 0
M  V30 2562 C 235.961 -2.66838 -2.05667 0
M  V30 2563 O 236.491 -2.50124 -3.14326 0
M  V30 2564 N 234.697 -2.25843 -1.82875 0
M  V30 2565 H 234.244 -2.39637 -0.945085 0
M  V30 2566 H 234.202 -1.80918 -2.5713 0
M  V30 2567 N 237.974 -0.419461 -1.51915 0
M  V30 2568 C 239.22 0.153166 -2.02221 0
M  V30 2569 C 239.553 1.43907 -1.30401 0
M  V30 2570 O 238.828 1.90055 -0.413438 0
M  V30 2571 C 239.111 0.390291 -3.57979 0
M  V30 2572 C 238.964 -0.913014 -4.40436 0
M  V30 2573 C 240.283 1.16794 -4.2432 0
M  V30 2574 H 237.402 0.0541924 -0.735005 0
M  V30 2575 H 240.044 -0.554955 -1.81715 0
M  V30 2576 H 238.194 0.993491 -3.75582 0
M  V30 2577 H 239.866 -1.54882 -4.34522 0
M  V30 2578 H 238.109 -1.52168 -4.06236 0
M  V30 2579 H 238.78 -0.701361 -5.47526 0
M  V30 2580 H 241.256 0.657161 -4.10878 0
M  V30 2581 H 240.132 1.3026 -5.3322 0
M  V30 2582 H 240.393 2.19132 -3.83971 0
M  V30 2583 N 239.452 1.56882 -0.150215 0
M  V30 2584 C 240.382 2.19935 0.784284 0
M  V30 2585 C 241.363 1.14854 1.25469 0
M  V30 2586 O 242.548 1.43209 1.31168 0
M  V30 2587 C 239.678 2.82349 2.02229 0
M  V30 2588 C 238.632 3.93285 1.68853 0
M  V30 2589 C 237.958 4.42649 2.99944 0
M  V30 2590 C 239.258 5.13904 0.932714 0
M  V30 2591 H 240.952 2.9828 0.258781 0
M  V30 2592 H 238.498 1.43473 0.123029 0
M  V30 2593 H 240.451 3.25126 2.68088 0
M  V30 2594 H 239.175 2.0134 2.57157 0
M  V30 2595 H 237.834 3.5113 1.05371 0
M  V30 2596 H 237.482 3.58458 3.52869 0
M  V30 2597 H 237.182 5.17476 2.78374 0
M  V30 2598 H 238.706 4.88099 3.66868 0
M  V30 2599 H 240.12 5.53506 1.49345 0
M  V30 2600 H 238.517 5.94515 0.81684 0
M  V30 2601 H 239.587 4.84842 -0.0749568 0
M  V30 2602 N 240.93 -0.123565 1.57115 0
M  V30 2603 C 241.86 -1.15309 2.03042 0
M  V30 2604 C 242.841 -1.43454 0.914061 0
M  V30 2605 O 244.026 -1.53973 1.18347 0
M  V30 2606 C 241.156 -2.48043 2.43089 0
M  V30 2607 C 240.11 -2.3437 3.58127 0
M  V30 2608 C 239.436 -3.72026 3.84059 0
M  V30 2609 C 240.736 -1.80804 4.90007 0
M  V30 2610 H 242.43 -0.771102 2.893 0
M  V30 2611 H 239.976 -0.369479 1.39179 0
M  V30 2612 H 241.929 -3.20311 2.73823 0
M  V30 2613 H 240.653 -2.88122 1.53796 0
M  V30 2614 H 239.312 -1.64551 3.27595 0
M  V30 2615 H 238.96 -4.09582 2.91979 0
M  V30 2616 H 238.66 -3.63732 4.6149 0
M  V30 2617 H 240.184 -4.45806 4.1724 0
M  V30 2618 H 241.598 -2.42886 5.19307 0
M  V30 2619 H 239.995 -1.83343 5.71407 0
M  V30 2620 H 241.065 -0.76528 4.78823 0
M  V30 2621 N 242.408 -1.52605 -0.393616 0
M  V30 2622 C 243.633 -1.71592 -1.16495 0
M  V30 2623 C 244.058 -0.43133 -1.83088 0
M  V30 2624 O 243.416 0.612523 -1.7064 0
M  V30 2625 C 243.464 -2.86318 -2.19213 0
M  V30 2626 O 242.568 -2.52969 -3.257 0
M  V30 2627 H 241.909 -0.570734 -0.33935 0
M  V30 2628 H 244.439 -1.99377 -0.459324 0
M  V30 2629 H 244.449 -3.1168 -2.63286 0
M  V30 2630 H 243.124 -3.79511 -1.7013 0
M  V30 2631 H 241.701 -2.38332 -2.86797 0
M  V30 2632 N 243.887 0.651787 -1.4349 0
M  V30 2633 C 244.797 1.79368 -1.5121 0
M  V30 2634 C 245.813 1.69361 -0.399093 0
M  V30 2635 O 246.989 1.90505 -0.653431 0
M  V30 2636 C 244.054 3.15653 -1.43401 0
M  V30 2637 C 243.115 3.37446 -2.65384 0
M  V30 2638 C 242.348 4.67229 -2.57939 0
M  V30 2639 O 242.571 5.46676 -1.62792 0
M  V30 2640 O 241.505 4.90773 -3.48462 0
M  V30 2641 H 245.331 1.7581 -2.47638 0
M  V30 2642 H 242.916 0.810447 -1.25507 0
M  V30 2643 H 244.798 3.96935 -1.41494 0
M  V30 2644 H 243.473 3.19798 -0.501085 0
M  V30 2645 H 242.38 2.55923 -2.72863 0
M  V30 2646 H 243.713 3.38148 -3.57654 0
M  V30 2647 N 245.365 1.30045 0.890287 0
M  V30 2648 C 246.315 1.12592 1.9826 0
M  V30 2649 C 247.299 0.0426021 1.60844 0
M  V30 2650 O 248.491 0.265346 1.75 0
M  V30 2651 C 245.62 0.814301 3.33503 0
M  V30 2652 C 244.706 1.93761 3.7725 0
M  V30 2653 N 245.097 3.18232 3.93143 0
M  V30 2654 C 243.395 1.83277 4.06602 0
M  V30 2655 C 244.096 3.9158 4.30163 0
M  V30 2656 N 243.072 3.19591 4.3973 0
M  V30 2657 H 246.874 2.07003 2.08631 0
M  V30 2658 H 244.388 1.21307 1.07974 0
M  V30 2659 H 246.385 0.67029 4.11476 0
M  V30 2660 H 245.045 -0.121797 3.24471 0
M  V30 2661 H 246.056 3.53581 3.78419 0
M  V30 2662 H 242.733 0.97001 4.06075 0
M  V30 2663 H 244.123 4.98744 4.50226 0
M  V30 2664 N 246.843 -1.10192 1.12674 0
M  V30 2665 C 248.091 -1.81845 0.881861 0
M  V30 2666 C 248.412 -1.85737 -0.593867 0
M  V30 2667 O 247.682 -1.33724 -1.4316 0
M  V30 2668 H 246.262 -0.673432 0.323261 0
M  V30 2669 H 248.924 -1.33316 1.42172 0
M  V30 2670 H 248.02 -2.85288 1.2656 0
M  V30 2671 N 248.321 -0.919034 -1.28029 0
M  V30 2672 C 249.231 -0.416756 -2.30869 0
M  V30 2673 C 250.247 0.498235 -1.66714 0
M  V30 2674 O 251.423 0.383144 -1.97722 0
M  V30 2675 C 248.488 0.330274 -3.45123 0
M  V30 2676 C 247.549 -0.618578 -4.2482 0
M  V30 2677 C 246.782 0.0928959 -5.33619 0
M  V30 2678 O 247.005 1.31375 -5.55065 0
M  V30 2679 O 245.939 -0.574499 -5.99152 0
M  V30 2680 H 249.765 -1.27043 -2.75851 0
M  V30 2681 H 247.35 -0.684052 -1.3282 0
M  V30 2682 H 249.232 0.751972 -4.14636 0
M  V30 2683 H 247.907 1.1597 -3.02213 0
M  V30 2684 H 246.814 -1.08978 -3.57875 0
M  V30 2685 H 248.147 -1.41497 -4.71423 0
M  V30 2686 N 249.799 1.42003 -0.683588 0
M  V30 2687 C 251.045 2.01712 -0.209825 0
M  V30 2688 C 251.378 1.53968 1.18353 0
M  V30 2689 O 250.653 0.745661 1.79639 0
M  V30 2690 C 250.936 3.59202 -0.254197 0
M  V30 2691 C 250.789 4.17102 -1.68363 0
M  V30 2692 C 252.108 4.38344 0.392709 0
M  V30 2693 H 249.227 0.732891 -0.0777189 0
M  V30 2694 H 251.869 1.68909 -0.87004 0
M  V30 2695 H 250.019 3.87278 0.307954 0
M  V30 2696 H 251.691 3.99946 -2.29871 0
M  V30 2697 H 249.934 3.72597 -2.22157 0
M  V30 2698 H 250.605 5.26249 -1.6663 0
M  V30 2699 H 253.081 4.16011 -0.0859162 0
M  V30 2700 H 251.957 5.47901 0.331063 0
M  V30 2701 H 252.218 4.16887 1.47164 0
M  V30 2702 N 251.277 0.427512 1.51691 0
M  V30 2703 C 252.224 -0.388867 2.275 0
M  V30 2704 C 253.194 -1.02532 1.30677 0
M  V30 2705 O 254.379 -1.0461 1.59566 0
M  V30 2706 C 251.519 -1.48954 3.11298 0
M  V30 2707 C 250.632 -0.872194 4.23104 0
M  V30 2708 C 249.767 -1.94709 4.94228 0
M  V30 2709 C 248.806 -1.30766 5.97969 0
M  V30 2710 N 247.943 -2.32349 6.62539 0
M  V30 2711 H 252.783 0.263997 2.96828 0
M  V30 2712 H 250.32 0.142033 1.46413 0
M  V30 2713 H 252.278 -2.13887 3.58201 0
M  V30 2714 H 250.908 -2.11217 2.44105 0
M  V30 2715 H 249.96 -0.111419 3.80237 0
M  V30 2716 H 251.272 -0.365264 4.97461 0
M  V30 2717 H 250.426 -2.67327 5.44629 0
M  V30 2718 H 249.165 -2.48773 4.1948 0
M  V30 2719 H 248.17 -0.566902 5.4687 0
M  V30 2720 H 249.395 -0.774483 6.74669 0
M  V30 2721 H 247.341 -2.85511 5.90609 0
M  V30 2722 H 247.258 -1.8652 7.3263 0
M  V30 2723 H 248.526 -3.04481 7.17574 0
M  V30 2724 N 252.755 -1.56801 0.158532 0
M  V30 2725 C 253.685 -2.20347 -0.772609 0
M  V30 2726 C 254.666 -1.15518 -1.24859 0
M  V30 2727 O 255.851 -1.43902 -1.30406 0
M  V30 2728 C 252.981 -2.83417 -2.00729 0
M  V30 2729 C 251.935 -3.94174 -1.66765 0
M  V30 2730 C 251.261 -4.44233 -2.97592 0
M  V30 2731 C 252.561 -5.14392 -0.905447 0
M  V30 2732 H 254.255 -2.98413 -0.242959 0
M  V30 2733 H 251.801 -1.43537 -0.115419 0
M  V30 2734 H 253.754 -3.26543 -2.6636 0
M  V30 2735 H 252.478 -2.02701 -2.56086 0
M  V30 2736 H 251.137 -3.51684 -1.03508 0
M  V30 2737 H 250.785 -3.60325 -3.50963 0
M  V30 2738 H 250.485 -5.18945 -2.75626 0
M  V30 2739 H 252.009 -4.90037 -3.64274 0
M  V30 2740 H 253.423 -5.5429 -1.46408 0
M  V30 2741 H 251.82 -5.9494 -0.7853 0
M  V30 2742 H 252.89 -4.84795 0.100668 0
M  V30 2743 N 254.233 0.115231 -1.57178 0
M  V30 2744 C 255.196 1.12526 -1.99676 0
M  V30 2745 C 256.196 1.34095 -0.88742 0
M  V30 2746 O 257.386 1.30548 -1.15337 0
M  V30 2747 C 254.518 2.4789 -2.34015 0
M  V30 2748 H 255.711 0.759912 -2.90113 0
M  V30 2749 H 253.264 0.359648 -1.52106 0
M  V30 2750 H 253.999 2.89339 -1.4647 0
M  V30 2751 H 253.784 2.33588 -3.14927 0
M  V30 2752 H 255.274 3.20575 -2.67622 0
M  V30 2753 N 255.711 1.52812 0.385517 0
M  V30 2754 C 256.988 1.5861 1.14465 0
M  V30 2755 C 257.368 0.381402 2.07626 0
M  V30 2756 O 256.716 -0.629999 2.19643 0
M  V30 2757 C 256.926 2.92664 1.90128 0
M  V30 2758 C 258.274 3.46526 2.45367 0
M  V30 2759 O 259.298 2.94562 2.0028 0
M  V30 2760 O 258.157 4.37323 3.27736 0
M  V30 2761 H 255.251 0.639855 0.523941 0
M  V30 2762 H 257.797 1.65149 0.390389 0
M  V30 2763 H 256.569 3.71788 1.22022 0
M  V30 2764 H 256.192 2.89527 2.72507 0
M  V30 2765 N 257.189 -0.644168 1.43834 0
M  V30 2766 C 258.436 -1.40395 1.4593 0
M  V30 2767 C 258.764 -1.94305 0.0869658 0
M  V30 2768 O 258.019 -1.73288 -0.909378 0
M  V30 2769 C 258.318 -2.59615 2.45631 0
M  V30 2770 C 257.984 -2.2407 3.91284 0
M  V30 2771 C 256.646 -2.14089 4.30952 0
M  V30 2772 C 258.998 -1.95775 4.83034 0
M  V30 2773 C 256.326 -1.73981 5.6031 0
M  V30 2774 C 258.678 -1.57163 6.12766 0
M  V30 2775 C 257.342 -1.45713 6.51402 0
M  V30 2776 H 256.612 -0.513741 0.533995 0
M  V30 2777 H 259.259 -0.731724 1.76969 0
M  V30 2778 H 257.564 -3.32011 2.08028 0
M  V30 2779 H 259.261 -3.17834 2.44504 0
M  V30 2780 H 255.851 -2.32753 3.59895 0
M  V30 2781 H 260.035 -2.02403 4.53152 0
M  V30 2782 H 255.291 -1.63709 5.89075 0
M  V30 2783 H 259.465 -1.34303 6.83327 0
M  V30 2784 H 257.092 -1.14406 7.51542 0
M  V30 2785 N 258.668 -1.30515 -0.883378 0
M  V30 2786 C 259.916 -1.19194 -1.63209 0
M  V30 2787 C 260.237 0.253205 -1.93349 0
M  V30 2788 O 259.507 1.17025 -1.57105 0
M  V30 2789 H 258.087 -0.438148 -0.605009 0
M  V30 2790 H 260.749 -1.63663 -1.05832 0
M  V30 2791 H 259.845 -1.75396 -2.58153 0
M  V30 2792 N 260.146 1.09593 -1.13257 0
M  V30 2793 C 261.392 1.82003 -0.89458 0
M  V30 2794 C 261.725 1.85402 0.577906 0
M  V30 2795 O 261 1.32099 1.42759 0
M  V30 2796 C 261.283 3.28237 -1.48096 0
M  V30 2797 C 261.136 3.3312 -3.02244 0
M  V30 2798 C 262.455 4.24871 -1.14774 0
M  V30 2799 H 259.574 0.66077 -0.326424 0
M  V30 2800 H 262.216 1.28389 -1.40058 0
M  V30 2801 H 260.366 3.74024 -1.05062 0
M  V30 2802 H 262.038 2.95748 -3.54021 0
M  V30 2803 H 260.281 2.72756 -3.37323 0
M  V30 2804 H 260.952 4.3613 -3.38371 0
M  V30 2805 H 263.428 3.87361 -1.51957 0
M  V30 2806 H 262.304 5.25532 -1.58452 0
M  V30 2807 H 262.565 4.42058 -0.0611849 0
M  V30 2808 N 261.624 0.925811 1.2754 0
M  V30 2809 C 262.587 0.428129 2.25166 0
M  V30 2810 C 263.587 -0.452261 1.54309 0
M  V30 2811 O 264.777 -0.253608 1.72344 0
M  V30 2812 C 261.909 -0.384749 3.38722 0
M  V30 2813 H 263.102 1.29066 2.70706 0
M  V30 2814 H 260.655 0.706323 1.3943 0
M  V30 2815 H 261.39 -1.26618 2.98561 0
M  V30 2816 H 261.175 0.246454 3.91325 0
M  V30 2817 H 262.665 -0.723389 4.11287 0
M  V30 2818 N 263.102 -1.41638 0.69111 0
M  V30 2819 C 264.35 -2.00902 0.219758 0
M  V30 2820 C 264.671 -1.54994 -1.18329 0
M  V30 2821 O 263.941 -0.778628 -1.79762 0
M  V30 2822 H 262.521 -0.74289 0.0782558 0
M  V30 2823 H 265.183 -1.73327 0.891271 0
M  V30 2824 H 264.279 -3.11224 0.233708 0
M  V30 2825 N 264.58 -0.43555 -1.51462 0
M  V30 2826 C 265.512 0.41257 -2.25456 0
M  V30 2827 C 266.525 0.987822 -1.29406 0
M  V30 2828 O 267.714 0.882266 -1.55172 0
M  V30 2829 C 264.814 1.58894 -2.99342 0
M  V30 2830 C 263.987 1.13288 -4.22474 0
M  V30 2831 C 263.046 2.17917 -4.78956 0
M  V30 2832 O 262.072 1.77425 -5.40841 0
M  V30 2833 N 263.274 3.50382 -4.62832 0
M  V30 2834 H 266.039 -0.221603 -2.9888 0
M  V30 2835 H 263.6 -0.264342 -1.59727 0
M  V30 2836 H 265.592 2.28508 -3.34015 0
M  V30 2837 H 264.162 2.12849 -2.28941 0
M  V30 2838 H 263.382 0.263881 -3.93316 0
M  V30 2839 H 264.67 0.805542 -5.02383 0
M  V30 2840 H 264.068 3.86013 -4.13534 0
M  V30 2841 H 262.625 4.15895 -5.01871 0
M  V30 2842 N 266.058 1.56714 -0.166846 0
M  V30 2843 C 266.988 2.20754 0.760913 0
M  V30 2844 C 267.969 1.16178 1.24244 0
M  V30 2845 O 269.154 1.44592 1.29641 0
M  V30 2846 C 266.284 2.84478 1.99223 0
M  V30 2847 C 265.238 3.95053 1.64672 0
M  V30 2848 C 264.564 4.45805 2.95232 0
M  V30 2849 C 265.864 5.14865 0.878155 0
M  V30 2850 H 267.558 2.98537 0.22713 0
M  V30 2851 H 265.104 1.43596 0.107805 0
M  V30 2852 H 267.057 3.27951 2.64624 0
M  V30 2853 H 265.781 2.04056 2.55007 0
M  V30 2854 H 264.44 3.52228 1.01641 0
M  V30 2855 H 264.088 3.62181 3.49047 0
M  V30 2856 H 263.788 5.204 2.7287 0
M  V30 2857 H 265.312 4.91962 3.6167 0
M  V30 2858 H 266.726 5.55059 1.43466 0
M  V30 2859 H 265.123 5.95348 0.753738 0
M  V30 2860 H 266.193 4.84735 -0.126377 0
M  V30 2861 N 267.536 -0.106894 1.57237 0
M  V30 2862 C 268.764 -0.826389 1.8968 0
M  V30 2863 C 269.179 -1.72856 0.759353 0
M  V30 2864 O 268.536 -1.80503 -0.269263 0
M  V30 2865 C 268.587 -1.64967 3.21665 0
M  V30 2866 O 268.308 -0.783804 4.31031 0
M  V30 2867 C 269.809 -2.47326 3.67892 0
M  V30 2868 H 267.029 -0.236927 0.627779 0
M  V30 2869 H 269.573 -0.0876593 2.04312 0
M  V30 2870 H 267.728 -2.34103 3.08666 0
M  V30 2871 H 268.142 -1.35284 5.06753 0
M  V30 2872 H 269.616 -3.00604 4.6297 0
M  V30 2873 H 270.093 -3.25247 2.95146 0
M  V30 2874 H 270.699 -1.83411 3.83719 0
M  V30 2875 N 269.014 -1.53014 -0.377408 0
M  V30 2876 C 270.291 -1.59215 -1.13622 0
M  V30 2877 C 270.671 -0.392407 -2.07421 0
M  V30 2878 O 270.019 0.618342 -2.19975 0
M  V30 2879 C 270.229 -2.93669 -1.88573 0
M  V30 2880 C 271.577 -3.47822 -2.43526 0
M  V30 2881 O 272.601 -2.9562 -1.98715 0
M  V30 2882 O 271.46 -4.39055 -3.25412 0
M  V30 2883 H 268.554 -0.642625 -0.52054 0
M  V30 2884 H 271.1 -1.65353 -0.381625 0
M  V30 2885 H 269.872 -3.7243 -1.20048 0
M  V30 2886 H 269.495 -2.90968 -2.70968 0
M  V30 2887 N 270.492 0.636531 -1.44174 0
M  V30 2888 C 271.72 1.42353 -1.50144 0
M  V30 2889 C 272.135 1.88389 -0.124575 0
M  V30 2890 O 271.492 1.6051 0.868489 0
M  V30 2891 C 271.543 2.64744 -2.46156 0
M  V30 2892 O 271.264 2.20629 -3.7849 0
M  V30 2893 C 272.765 3.57929 -2.61537 0
M  V30 2894 H 269.985 0.436752 -0.5094 0
M  V30 2895 H 272.529 0.778933 -1.89084 0
M  V30 2896 H 270.684 3.25307 -2.10366 0
M  V30 2897 H 271.098 2.99938 -4.30276 0
M  V30 2898 H 272.572 4.40428 -3.32757 0
M  V30 2899 H 273.049 4.06382 -1.66585 0
M  V30 2900 H 273.655 3.03238 -2.98206 0
M  V30 2901 N 271.97 1.30982 0.876444 0
M  V30 2902 C 272.902 1.13902 1.98894 0
M  V30 2903 C 273.915 0.0798815 1.62604 0
M  V30 2904 O 275.104 0.326743 1.75484 0
M  V30 2905 C 272.204 0.716699 3.31235 0
M  V30 2906 C 271.377 1.85945 3.95908 0
M  V30 2907 C 270.436 1.42426 5.06558 0
M  V30 2908 O 269.462 2.13287 5.27729 0
M  V30 2909 N 270.664 0.308025 5.79682 0
M  V30 2910 H 273.429 2.09724 2.14094 0
M  V30 2911 H 270.99 1.2323 1.05004 0
M  V30 2912 H 272.982 0.408403 4.02634 0
M  V30 2913 H 271.552 -0.149719 3.12241 0
M  V30 2914 H 270.772 2.33541 3.17573 0
M  V30 2915 H 272.06 2.62503 4.35855 0
M  V30 2916 H 271.458 -0.282241 5.64995 0
M  V30 2917 H 270.015 0.0592282 6.51773 0
M  V30 2918 N 273.449 -1.08991 1.13837 0
M  V30 2919 C 274.698 -1.80631 0.897509 0
M  V30 2920 C 275.011 -1.86872 -0.57777 0
M  V30 2921 O 276.217 -2.54866 -0.935701 0
M  V30 2922 C 274.673 -3.24517 1.55618 0
M  V30 2923 C 274.281 -3.26529 3.0673 0
M  V30 2924 C 276.025 -4.00882 1.3962 0
M  V30 2925 C 273.932 -4.64965 3.65461 0
M  V30 2926 H 272.862 -0.67691 0.332129 0
M  V30 2927 H 275.513 -1.2246 1.3666 0
M  V30 2928 H 273.895 -3.82778 1.01476 0
M  V30 2929 H 275.069 -2.78008 3.67489 0
M  V30 2930 H 273.384 -2.63656 3.22296 0
M  V30 2931 H 275.981 -5.03167 1.80906 0
M  V30 2932 H 276.324 -4.14896 0.341578 0
M  V30 2933 H 276.857 -3.49075 1.90766 0
M  V30 2934 H 273.596 -4.56153 4.70749 0
M  V30 2935 H 273.116 -5.13792 3.09481 0
M  V30 2936 H 274.795 -5.3394 3.654 0
M  V30 2937 N 274.927 -0.932562 -1.27047 0
M  V30 2938 C 275.874 -0.434072 -2.26681 0
M  V30 2939 C 276.844 0.501639 -1.58344 0
M  V30 2940 O 278.029 0.419734 -1.86126 0
M  V30 2941 C 275.169 0.30261 -3.43771 0
M  V30 2942 C 274.282 -0.667774 -4.26808 0
M  V30 2943 C 273.417 0.0892393 -5.31125 0
M  V30 2944 C 272.456 -0.873532 -6.05835 0
M  V30 2945 N 271.593 -0.148832 -7.01942 0
M  V30 2946 H 276.433 -1.28868 -2.68695 0
M  V30 2947 H 273.97 -0.646713 -1.32121 0
M  V30 2948 H 275.928 0.746092 -4.10474 0
M  V30 2949 H 274.558 1.12142 -3.02695 0
M  V30 2950 H 273.61 -1.22978 -3.59973 0
M  V30 2951 H 274.922 -1.40337 -4.78651 0
M  V30 2952 H 274.076 0.592409 -6.03801 0
M  V30 2953 H 272.815 0.85777 -4.80097 0
M  V30 2954 H 271.82 -1.38791 -5.31994 0
M  V30 2955 H 273.045 -1.64193 -6.58952 0
M  V30 2956 H 270.991 0.601365 -6.53238 0
M  V30 2957 H 270.908 -0.82391 -7.51497 0
M  V30 2958 H 272.176 0.333527 -7.78786 0
M  V30 2959 N 276.405 1.4127 -0.698611 0
M  V30 2960 C 277.821 1.55241 -0.370462 0
M  V30 2961 C 278.021 1.67351 1.12231 0
M  V30 2962 O 277.077 1.65363 1.90818 0
M  V30 2963 C 278.39 2.78997 -1.12165 0
M  V30 2964 C 279.938 2.92797 -1.1063 0
M  V30 2965 C 280.413 4.19445 -1.8393 0
M  V30 2966 N 281.904 4.26409 -1.80914 0
M  V30 2967 C 282.639 5.23271 -2.34467 0
M  V30 2968 N 282.135 6.26145 -2.96504 0
M  V30 2969 N 283.928 5.15232 -2.24706 0
M  V30 2970 H 276.079 1.31654 -1.66676 0
M  V30 2971 H 278.342 0.635393 -0.703548 0
M  V30 2972 H 278.048 2.76268 -2.17644 0
M  V30 2973 H 277.922 3.70606 -0.702209 0
M  V30 2974 H 280.309 2.95039 -0.0597713 0
M  V30 2975 H 280.39 2.02353 -1.56483 0
M  V30 2976 H 280.034 4.17964 -2.88563 0
M  V30 2977 H 279.964 5.08866 -1.35509 0
M  V30 2978 H 282.455 3.527 -1.35687 0
M  V30 2979 H 282.768 6.96451 -3.34927 0
M  V30 2980 H 281.113 6.26638 -3.00583 0
M  V30 2981 H 284.304 4.33789 -1.7591 0
M  V30 2982 H 284.477 5.90552 -2.66745 0
M  V30 2983 N 277.883 0.443576 1.51229 0
M  V30 2984 C 278.831 -0.37904 2.29491 0
M  V30 2985 C 279.825 -1.0153 1.35603 0
M  V30 2986 O 281.031 -0.94955 1.52917 0
M  V30 2987 H 277.406 -0.141053 0.738653 0
M  V30 2988 H 279.377 0.301799 2.9687 0
M  V30 2989 C 278.126 -1.46426 3.15364 0
M  V30 2990 H 277.449 -0.984037 3.87501 0
M  V30 2991 H 278.889 -2.01297 3.7317 0
M  V30 2992 C 277.348 -2.45099 2.31146 0
M  V30 2993 O 277.878 -3.49773 1.9754 0
M  V30 2994 N 276.084 -2.16139 1.94249 0
M  V30 2995 H 275.631 -1.31044 2.21777 0
M  V30 2996 H 275.589 -2.82398 1.38198 0
M  V30 2997 N 279.361 -1.56624 0.175154 0
M  V30 2998 C 280.589 -2.01374 -0.474971 0
M  V30 2999 C 281.004 -1.05537 -1.56548 0
M  V30 3000 O 280.361 -0.0568668 -1.82411 0
M  V30 3001 C 280.412 -3.45923 -1.04975 0
M  V30 3002 O 280.133 -4.381 -0.00276605 0
M  V30 3003 C 281.634 -4.06093 -1.77773 0
M  V30 3004 H 278.854 -0.659962 -0.121206 0
M  V30 3005 H 281.398 -2.02601 0.27801 0
M  V30 3006 H 279.553 -3.45458 -1.75321 0
M  V30 3007 H 279.967 -5.22753 -0.427681 0
M  V30 3008 H 281.441 -5.09147 -2.13245 0
M  V30 3009 H 281.918 -3.48405 -2.67414 0
M  V30 3010 H 282.524 -4.10272 -1.12059 0
M  V30 3011 N 280.839 0.0985539 -1.57292 0
M  V30 3012 C 282.086 0.802678 -1.85912 0
M  V30 3013 C 282.414 1.78901 -0.763186 0
M  V30 3014 O 281.669 1.94178 0.243559 0
M  V30 3015 C 281.968 1.56927 -3.21105 0
M  V30 3016 C 281.634 0.725376 -4.45027 0
M  V30 3017 C 280.296 0.492726 -4.78671 0
M  V30 3018 C 282.648 0.138493 -5.21016 0
M  V30 3019 C 279.976 -0.336727 -5.85733 0
M  V30 3020 C 282.328 -0.678264 -6.28953 0
M  V30 3021 C 280.992 -0.921039 -6.61115 0
M  V30 3022 H 280.262 0.293721 -0.680301 0
M  V30 3023 H 282.909 0.0642841 -1.91392 0
M  V30 3024 H 281.214 2.37914 -3.11294 0
M  V30 3025 H 282.911 2.11841 -3.40477 0
M  V30 3026 H 279.501 0.916815 -4.18679 0
M  V30 3027 H 283.685 0.305404 -4.95359 0
M  V30 3028 H 278.941 -0.533836 -6.09065 0
M  V30 3029 H 283.115 -1.1399 -6.87007 0
M  V30 3030 H 280.742 -1.56556 -7.43905 0
M  V30 3031 N 282.317 1.53212 0.369288 0
M  V30 3032 C 283.563 1.69466 1.11397 0
M  V30 3033 C 283.896 0.443257 1.89074 0
M  V30 3034 O 283.171 -0.559386 1.86282 0
M  V30 3035 C 283.454 2.9422 2.07621 0
M  V30 3036 C 283.307 4.29508 1.33577 0
M  V30 3037 C 284.626 3.14565 3.07794 0
M  V30 3038 H 281.745 0.616667 0.403597 0
M  V30 3039 H 284.387 1.85845 0.395179 0
M  V30 3040 H 282.537 2.80387 2.68916 0
M  V30 3041 H 284.209 4.55147 0.750955 0
M  V30 3042 H 282.452 4.29088 0.637618 0
M  V30 3043 H 283.123 5.12926 2.03989 0
M  V30 3044 H 285.599 3.2756 2.56601 0
M  V30 3045 H 284.475 4.03297 3.72348 0
M  V30 3046 H 284.736 2.29675 3.77759 0
M  V30 3047 N 283.795 -0.628877 1.44509 0
M  V30 3048 C 285.043 -1.38565 1.4712 0
M  V30 3049 C 285.364 -1.94712 0.105899 0
M  V30 3050 O 284.634 -1.75912 -0.862079 0
M  V30 3051 H 283.214 -0.514333 0.541729 0
M  V30 3052 H 285.876 -0.740018 1.80305 0
M  V30 3053 H 284.972 -2.21583 2.19789 0
M  V30 3054 N 285.273 -1.31445 -0.869486 0
M  V30 3055 C 286.501 -1.24122 -1.65534 0
M  V30 3056 C 286.916 0.193387 -1.87807 0
M  V30 3057 O 286.273 1.12557 -1.43656 0
M  V30 3058 C 286.324 -1.98229 -3.02304 0
M  V30 3059 O 286.045 -3.3609 -2.81026 0
M  V30 3060 C 287.546 -1.97751 -3.96749 0
M  V30 3061 H 284.766 -0.428868 -0.516055 0
M  V30 3062 H 287.31 -1.73328 -1.08525 0
M  V30 3063 H 285.465 -1.52782 -3.56001 0
M  V30 3064 H 285.879 -3.7383 -3.67902 0
M  V30 3065 H 287.353 -2.54114 -4.90031 0
M  V30 3066 H 287.83 -0.960137 -4.28577 0
M  V30 3067 H 288.436 -2.43079 -3.48988 0
M  V30 3068 N 286.751 1.08385 -1.14413 0
M  V30 3069 C 288.162 1.62258 -0.923535 0
M  V30 3070 C 288.513 1.88691 0.537595 0
M  V30 3071 O 287.638 1.64454 1.40655 0
M  V30 3072 C 288.233 2.94781 -1.67002 0
M  V30 3073 C 286.792 3.45437 -1.495 0
M  V30 3074 C 285.939 2.19668 -1.69238 0
M  V30 3075 H 288.89 0.916086 -1.2959 0
M  V30 3076 H 288.911 3.63229 -1.13334 0
M  V30 3077 H 288.423 2.7551 -2.73342 0
M  V30 3078 H 286.524 3.6981 -0.455097 0
M  V30 3079 H 286.637 4.22173 -2.2651 0
M  V30 3080 H 285.001 2.28849 -1.11804 0
M  V30 3081 H 285.784 2.02905 -2.7692 0
M  V30 3082 N 288.23 0.939286 1.26551 0
M  V30 3083 C 289.477 0.585847 1.9384 0
M  V30 3084 C 289.805 -0.874784 1.73718 0
M  V30 3085 O 289.06 -1.64092 1.06642 0
M  V30 3086 C 289.359 0.872106 3.46596 0
M  V30 3087 C 289.025 2.31632 3.86856 0
M  V30 3088 C 287.687 2.71111 3.97558 0
M  V30 3089 C 290.039 3.25494 4.07066 0
M  V30 3090 C 287.367 4.03553 4.25866 0
M  V30 3091 C 289.719 4.57531 4.36862 0
M  V30 3092 C 288.383 4.96828 4.45778 0
M  V30 3093 H 287.653 0.214377 0.709312 0
M  V30 3094 H 290.3 1.18544 1.50398 0
M  V30 3095 H 288.605 0.18996 3.91339 0
M  V30 3096 H 290.302 0.577442 3.96821 0
M  V30 3097 H 286.892 2.00008 3.79071 0
M  V30 3098 H 291.076 2.9619 3.98227 0
M  V30 3099 H 286.332 4.33665 4.30981 0
M  V30 3100 H 290.506 5.30254 4.51446 0
M  V30 3101 H 288.133 5.99482 4.67468 0
M  V30 3102 N 289.708 -1.40897 0.706093 0
M  V30 3103 C 290.954 -2.01849 0.250681 0
M  V30 3104 C 291.309 -1.5496 -1.14041 0
M  V30 3105 O 290.602 -0.755566 -1.76073 0
M  V30 3106 C 290.796 -3.5646 0.259099 0
M  V30 3107 C 290.625 -4.18357 1.64947 0
M  V30 3108 C 289.395 -4.522 2.25485 0
M  V30 3109 C 291.593 -4.43856 2.598 0
M  V30 3110 N 289.575 -4.9944 3.56977 0
M  V30 3111 C 290.946 -4.92986 3.75985 0
M  V30 3112 C 293.001 -4.25882 2.57933 0
M  V30 3113 C 291.704 -5.2603 4.90597 0
M  V30 3114 C 293.73 -4.6002 3.71665 0
M  V30 3115 C 293.092 -5.09331 4.86581 0
M  V30 3116 H 289.191 -0.769843 0.137353 0
M  V30 3117 H 291.775 -1.71278 0.925845 0
M  V30 3118 H 289.946 -3.86481 -0.385592 0
M  V30 3119 H 291.678 -4.04144 -0.21213 0
M  V30 3120 H 288.433 -4.3901 1.77671 0
M  V30 3121 H 288.857 -5.27454 4.24407 0
M  V30 3122 H 293.499 -3.86986 1.70298 0
M  V30 3123 H 291.217 -5.63843 5.78884 0
M  V30 3124 H 294.803 -4.47762 3.71484 0
M  V30 3125 H 293.683 -5.35251 5.73129 0
M  V30 3126 N 291.186 -0.45159 -1.50991 0
M  V30 3127 C 292.119 0.398179 -2.24699 0
M  V30 3128 C 293.097 1.01276 -1.27208 0
M  V30 3129 O 294.281 1.05247 -1.56382 0
M  V30 3130 C 291.408 1.55618 -3.00833 0
M  V30 3131 C 290.454 1.0609 -4.13095 0
M  V30 3132 S 291.287 -0.00865136 -5.35499 0
M  V30 3133 C 292.443 1.15369 -6.15175 0
M  V30 3134 H 292.676 -0.227555 -2.96428 0
M  V30 3135 H 290.209 -0.236251 -1.52582 0
M  V30 3136 H 292.167 2.21997 -3.45293 0
M  V30 3137 H 290.828 2.15337 -2.28667 0
M  V30 3138 H 290.021 1.92726 -4.65696 0
M  V30 3139 H 289.623 0.47513 -3.7097 0
M  V30 3140 H 291.915 2.06925 -6.45126 0
M  V30 3141 H 292.858 0.667344 -7.04948 0
M  V30 3142 H 293.266 1.3987 -5.46897 0
M  V30 3143 N 292.664 1.56529 -0.183458 0
M  V30 3144 C 293.627 2.17324 0.728223 0
M  V30 3145 C 294.627 1.12453 1.14939 0
M  V30 3146 O 295.817 1.37902 1.06437 0
M  V30 3147 C 292.949 2.76591 1.99274 0
M  V30 3148 H 294.142 2.99241 0.198772 0
M  V30 3149 H 291.695 1.5616 0.0661391 0
M  V30 3150 H 292.43 1.98441 2.56499 0
M  V30 3151 H 292.215 3.5335 1.69959 0
M  V30 3152 H 293.705 3.23311 2.6431 0
M  V30 3153 N 294.142 -0.090211 1.57342 0
M  V30 3154 C 295.553 -0.644173 1.75235 0
M  V30 3155 C 295.904 -1.78865 0.806335 0
M  V30 3156 O 295.029 -2.16395 -0.0140128 0
M  V30 3157 C 295.624 -1.17532 3.1776 0
M  V30 3158 C 294.183 -1.67531 3.37061 0
M  V30 3159 C 293.33 -0.58693 2.71017 0
M  V30 3160 H 296.281 0.135884 1.58117 0
M  V30 3161 H 296.302 -2.04455 3.20902 0
M  V30 3162 H 295.814 -0.342138 3.86589 0
M  V30 3163 H 293.915 -2.53234 2.73319 0
M  V30 3164 H 294.028 -1.76493 4.45406 0
M  V30 3165 H 292.392 -1.02756 2.33052 0
M  V30 3166 H 293.175 0.235758 3.4249 0
M  V30 3167 N 295.62 -1.53406 -0.361157 0
M  V30 3168 C 296.53 -1.83122 -1.4664 0
M  V30 3169 C 297.546 -0.719943 -1.58407 0
M  V30 3170 O 298.722 -1.01046 -1.74218 0
M  V30 3171 C 295.787 -2.01891 -2.81853 0
M  V30 3172 C 294.848 -3.25784 -2.79577 0
M  V30 3173 C 294.081 -3.43648 -4.0834 0
M  V30 3174 O 294.304 -2.65714 -5.0473 0
M  V30 3175 O 293.238 -4.37018 -4.13883 0
M  V30 3176 H 297.064 -2.7703 -1.24451 0
M  V30 3177 H 294.649 -1.38841 -0.551678 0
M  V30 3178 H 296.531 -2.15782 -3.61962 0
M  V30 3179 H 295.206 -1.11173 -3.0401 0
M  V30 3180 H 294.113 -3.17312 -1.98151 0
M  V30 3181 H 295.446 -4.16439 -2.62373 0
M  V30 3182 N 297.098 0.621204 -1.44841 0
M  V30 3183 C 298.344 1.3826 -1.48365 0
M  V30 3184 C 298.677 1.93831 -0.119624 0
M  V30 3185 O 297.952 1.74251 0.864111 0
M  V30 3186 C 298.235 2.54058 -2.55199 0
M  V30 3187 C 298.088 2.03772 -4.00995 0
M  V30 3188 C 299.407 3.56225 -2.58442 0
M  V30 3189 H 296.526 0.501374 -0.540179 0
M  V30 3190 H 299.168 0.7015 -1.76576 0
M  V30 3191 H 297.318 3.12162 -2.31274 0
M  V30 3192 H 298.99 1.50423 -4.36086 0
M  V30 3193 H 297.233 1.34876 -4.12299 0
M  V30 3194 H 297.904 2.87185 -4.71411 0
M  V30 3195 H 300.38 3.07939 -2.79844 0
M  V30 3196 H 299.256 4.34756 -3.3508 0
M  V30 3197 H 299.517 4.10949 -1.63013 0
M  V30 3198 N 298.576 1.31904 0.862503 0
M  V30 3199 C 299.825 1.21373 1.61094 0
M  V30 3200 C 300.138 -0.22504 1.94301 0
M  V30 3201 O 301.344 -0.452121 2.67709 0
M  V30 3202 C 299.8 2.12525 2.9045 0
M  V30 3203 C 299.408 3.61441 2.64697 0
M  V30 3204 C 301.152 2.10813 3.68454 0
M  V30 3205 C 299.059 4.44578 3.90006 0
M  V30 3206 H 297.989 0.450705 0.604468 0
M  V30 3207 H 300.64 1.56811 0.953027 0
M  V30 3208 H 299.022 1.69994 3.57656 0
M  V30 3209 H 300.196 4.12264 2.05851 0
M  V30 3210 H 298.511 3.65205 2.00036 0
M  V30 3211 H 301.108 2.70167 4.61426 0
M  V30 3212 H 301.451 1.09713 4.01583 0
M  V30 3213 H 301.984 2.51583 3.08141 0
M  V30 3214 H 298.723 5.46461 3.62023 0
M  V30 3215 H 298.243 3.98508 4.48276 0
M  V30 3216 H 299.922 4.57176 4.5782 0
M  V30 3217 N 300.054 -1.07777 1.14986 0
M  V30 3218 C 301.001 -2.14867 0.842672 0
M  V30 3219 C 301.971 -1.6486 -0.202552 0
M  V30 3220 O 303.156 -1.90668 -0.0710568 0
M  V30 3221 C 300.296 -3.43486 0.333363 0
M  V30 3222 C 299.409 -4.07306 1.43965 0
M  V30 3223 C 298.544 -5.23744 0.886914 0
M  V30 3224 C 297.583 -5.79517 1.97043 0
M  V30 3225 N 296.72 -6.87291 1.4344 0
M  V30 3226 H 301.56 -2.40485 1.75986 0
M  V30 3227 H 299.097 -1.1801 0.878179 0
M  V30 3228 H 301.055 -4.17195 0.0198163 0
M  V30 3229 H 299.685 -3.18133 -0.546916 0
M  V30 3230 H 298.737 -3.31293 1.86946 0
M  V30 3231 H 300.049 -4.44771 2.25788 0
M  V30 3232 H 299.203 -6.04419 0.525651 0
M  V30 3233 H 297.942 -4.87685 0.0377957 0
M  V30 3234 H 296.947 -4.97491 2.34057 0
M  V30 3235 H 298.172 -6.17632 2.82325 0
M  V30 3236 H 296.118 -6.5318 0.607567 0
M  V30 3237 H 296.035 -7.23617 2.18895 0
M  V30 3238 H 297.303 -7.71682 1.10124 0
M  V30 3239 N 301.532 -0.945985 -1.26051 0
M  V30 3240 C 302.464 -0.416662 -2.25381 0
M  V30 3241 C 303.477 0.462712 -1.56086 0
M  V30 3242 O 304.666 0.272383 -1.7641 0
M  V30 3243 C 301.766 0.419812 -3.3629 0
M  V30 3244 C 300.939 -0.444531 -4.35135 0
M  V30 3245 C 299.998 0.332305 -5.2515 0
M  V30 3246 O 299.024 -0.266324 -5.68577 0
M  V30 3247 N 300.226 1.62763 -5.57215 0
M  V30 3248 H 302.991 -1.27059 -2.71433 0
M  V30 3249 H 300.552 -0.815392 -1.39868 0
M  V30 3250 H 302.544 0.947013 -3.93464 0
M  V30 3251 H 301.114 1.17456 -2.89694 0
M  V30 3252 H 300.334 -1.15291 -3.76964 0
M  V30 3253 H 301.622 -1.03478 -4.98166 0
M  V30 3254 H 301.02 2.13603 -5.23823 0
M  V30 3255 H 299.577 2.10097 -6.17011 0
M  V30 3256 N 303.011 1.40521 -0.713556 0
M  V30 3257 C 304.236 2.05759 -0.26035 0
M  V30 3258 C 304.661 1.53403 1.08854 0
M  V30 3259 O 304.019 0.668535 1.68524 0
M  V30 3260 C 304.067 3.59745 -0.248122 0
M  V30 3261 O 303.171 4.05123 0.77131 0
M  V30 3262 H 302.512 0.652564 -0.122703 0
M  V30 3263 H 305.042 1.79958 -0.973467 0
M  V30 3264 H 305.052 4.07911 -0.0851129 0
M  V30 3265 H 303.727 3.97218 -1.2325 0
M  V30 3266 H 302.304 3.68422 0.57619 0
M  V30 3267 N 304.489 0.459591 1.5075 0
M  V30 3268 C 305.452 -0.329093 2.26825 0
M  V30 3269 C 306.452 -0.930481 1.31144 0
M  V30 3270 O 307.642 -0.801453 1.54669 0
M  V30 3271 C 304.774 -1.46768 3.07688 0
M  V30 3272 H 305.967 0.337924 2.9799 0
M  V30 3273 H 303.52 0.213336 1.54837 0
M  V30 3274 H 304.255 -2.17009 2.40993 0
M  V30 3275 H 304.04 -1.04238 3.77991 0
M  V30 3276 H 305.53 -2.02433 3.65254 0
M  V30 3277 N 305.967 -1.56429 0.191757 0
M  V30 3278 C 307.197 -2.01574 -0.452928 0
M  V30 3279 C 307.605 -1.07107 -1.55964 0
M  V30 3280 O 306.948 -0.067534 -1.83576 0
M  V30 3281 C 307.01 -3.43121 -1.07278 0
M  V30 3282 C 306.674 -4.56879 -0.105214 0
M  V30 3283 C 307.671 -5.15379 0.684149 0
M  V30 3284 C 305.356 -5.023 0.00489824 0
M  V30 3285 C 307.35 -6.17746 1.57062 0
M  V30 3286 C 305.037 -6.04511 0.894935 0
M  V30 3287 C 306.035 -6.62108 1.67637 0
M  V30 3288 O 305.723 -7.62335 2.55149 0
M  V30 3289 H 305.455 -0.665554 -0.118379 0
M  V30 3290 H 308.009 -2.03245 0.296737 0
M  V30 3291 H 306.239 -3.38425 -1.87097 0
M  V30 3292 H 307.928 -3.72093 -1.62177 0
M  V30 3293 H 308.694 -4.81157 0.609365 0
M  V30 3294 H 304.573 -4.57168 -0.593156 0
M  V30 3295 H 308.117 -6.6263 2.181 0
M  V30 3296 H 304.014 -6.38157 0.970847 0
M  V30 3297 H 304.782 -7.79741 2.48892 0
M  V30 3298 N 307.445 0.0818655 -1.57387 0
M  V30 3299 C 308.722 0.815343 -1.77796 0
M  V30 3300 C 309.102 1.96289 -0.77679 0
M  V30 3301 O 308.45 2.27691 0.192106 0
M  V30 3302 C 308.66 1.29765 -3.23978 0
M  V30 3303 C 310.008 1.7351 -3.8753 0
M  V30 3304 O 311.032 1.39356 -3.27808 0
M  V30 3305 O 309.891 2.36708 -4.92576 0
M  V30 3306 H 306.985 0.389914 -0.729312 0
M  V30 3307 H 309.531 0.0627213 -1.69584 0
M  V30 3308 H 308.303 0.47608 -3.88393 0
M  V30 3309 H 307.926 2.11189 -3.36875 0
M  V30 3310 N 308.923 1.53595 0.353017 0
M  V30 3311 C 310.148 1.7462 1.11904 0
M  V30 3312 C 310.573 0.479721 1.8188 0
M  V30 3313 O 309.931 -0.567066 1.72204 0
M  V30 3314 C 309.979 2.92029 2.11545 0
M  V30 3315 O 309.083 2.61516 3.18878 0
M  V30 3316 H 308.424 0.579531 0.324099 0
M  V30 3317 H 310.954 2.00525 0.406301 0
M  V30 3318 H 310.964 3.18551 2.5493 0
M  V30 3319 H 309.639 3.83888 1.60008 0
M  V30 3320 H 308.216 2.45852 2.80377 0
M  V30 3321 N 310.401 -0.613514 1.45168 0
M  V30 3322 C 311.348 -1.72456 1.53387 0
M  V30 3323 C 312.318 -1.6169 0.380191 0
M  V30 3324 O 313.503 -1.81356 0.592836 0
M  V30 3325 C 310.643 -3.10753 1.50088 0
M  V30 3326 C 309.756 -3.32368 2.75963 0
M  V30 3327 C 308.891 -4.60737 2.64376 0
M  V30 3328 C 307.93 -4.7559 3.85332 0
M  V30 3329 N 307.067 -5.95253 3.72315 0
M  V30 3330 H 311.907 -1.64768 2.48305 0
M  V30 3331 H 309.444 -0.803503 1.23216 0
M  V30 3332 H 311.402 -3.90758 1.46164 0
M  V30 3333 H 310.032 -3.17413 0.587243 0
M  V30 3334 H 309.084 -2.4618 2.89999 0
M  V30 3335 H 310.396 -3.39218 3.65695 0
M  V30 3336 H 309.55 -5.48928 2.58385 0
M  V30 3337 H 308.289 -4.56275 1.72233 0
M  V30 3338 H 307.294 -3.85824 3.91688 0
M  V30 3339 H 308.519 -4.81854 4.78533 0
M  V30 3340 H 306.465 -5.91847 2.82937 0
M  V30 3341 H 306.382 -6.03236 4.55677 0
M  V30 3342 H 307.65 -6.85958 3.70246 0
M  V30 3343 N 311.879 -1.3236 -0.855495 0
M  V30 3344 C 312.842 -1.21164 -1.94556 0
M  V30 3345 C 313.842 -0.134908 -1.60233 0
M  V30 3346 O 315.032 -0.385249 -1.69887 0
M  V30 3347 C 312.164 -0.863192 -3.29791 0
M  V30 3348 H 313.357 -2.18038 -2.05911 0
M  V30 3349 H 310.91 -1.16179 -1.04557 0
M  V30 3350 H 311.645 0.103769 -3.24134 0
M  V30 3351 H 311.43 -1.64166 -3.56078 0
M  V30 3352 H 312.92 -0.809156 -4.09686 0
M  V30 3353 N 313.357 1.07166 -1.15556 0
M  V30 3354 C 314.634 1.76546 -0.842069 0
M  V30 3355 C 315.014 2.00453 0.661939 0
M  V30 3356 O 314.362 1.62452 1.60691 0
M  V30 3357 C 314.572 3.07266 -1.65495 0
M  V30 3358 C 315.92 3.81578 -1.86234 0
M  V30 3359 O 316.944 3.17083 -1.62287 0
M  V30 3360 O 315.803 4.97419 -2.26355 0
M  V30 3361 H 312.897 0.766756 -0.309862 0
M  V30 3362 H 315.443 1.13514 -1.26145 0
M  V30 3363 H 314.215 2.85494 -2.67598 0
M  V30 3364 H 313.838 3.7803 -1.23203 0
M  V30 3365 N 314.835 0.952656 1.25548 0
M  V30 3366 C 316.084 0.602053 1.92505 0
M  V30 3367 C 316.397 -0.864663 1.75451 0
M  V30 3368 O 317.603 -1.32514 2.36965 0
M  V30 3369 C 316.059 1.02607 3.44963 0
M  V30 3370 C 315.667 2.51519 3.70732 0
M  V30 3371 C 317.411 0.747905 4.1786 0
M  V30 3372 C 315.318 2.87732 5.16686 0
M  V30 3373 H 314.248 0.22146 0.720744 0
M  V30 3374 H 316.899 1.15684 1.42441 0
M  V30 3375 H 315.281 0.399712 3.93978 0
M  V30 3376 H 316.455 3.19157 3.32378 0
M  V30 3377 H 314.77 2.76786 3.11092 0
M  V30 3378 H 317.367 0.994647 5.25367 0
M  V30 3379 H 317.71 -0.315629 4.15102 0
M  V30 3380 H 318.243 1.33452 3.74747 0
M  V30 3381 H 314.982 3.93095 5.24554 0
M  V30 3382 H 314.502 2.24765 5.56094 0
M  V30 3383 H 316.181 2.76817 5.84792 0
M  V30 3384 N 316.313 -1.40141 0.720998 0
M  V30 3385 C 317.559 -2.01572 0.272075 0
M  V30 3386 C 317.914 -1.5616 -1.12391 0
M  V30 3387 O 317.207 -0.774198 -1.75262 0
M  V30 3388 C 317.401 -3.56165 0.296892 0
M  V30 3389 C 317.23 -4.16584 1.69375 0
M  V30 3390 C 316 -4.49783 2.30269 0
M  V30 3391 C 318.198 -4.41076 2.64493 0
M  V30 3392 N 316.18 -4.95626 3.62254 0
M  V30 3393 C 317.551 -4.88971 3.81192 0
M  V30 3394 C 319.606 -4.23122 2.62435 0
M  V30 3395 C 318.309 -5.20796 4.96149 0
M  V30 3396 C 320.335 -4.56052 3.76524 0
M  V30 3397 C 319.697 -5.04141 4.91956 0
M  V30 3398 H 315.796 -0.768343 0.145511 0
M  V30 3399 H 318.38 -1.70287 0.943959 0
M  V30 3400 H 316.551 -3.86868 -0.344578 0
M  V30 3401 H 318.283 -4.04346 -0.169254 0
M  V30 3402 H 315.038 -4.37101 1.82318 0
M  V30 3403 H 315.462 -5.22923 4.29977 0
M  V30 3404 H 320.104 -3.85158 1.74393 0
M  V30 3405 H 317.822 -5.57672 5.84831 0
M  V30 3406 H 321.408 -4.43796 3.76213 0
M  V30 3407 H 320.288 -5.29142 5.78774 0
M  V30 3408 N 317.792 -0.46758 -1.50504 0
M  V30 3409 C 319.017 0.0886943 -2.0721 0
M  V30 3410 C 319.442 1.33057 -1.32956 0
M  V30 3411 O 318.8 1.77354 -0.376197 0
M  V30 3412 C 318.848 0.359202 -3.58806 0
M  V30 3413 O 317.952 1.44034 -3.8643 0
M  V30 3414 H 317.293 -0.0114349 -0.663902 0
M  V30 3415 H 319.823 -0.657613 -1.93744 0
M  V30 3416 H 319.833 0.600742 -4.03553 0
M  V30 3417 H 318.508 -0.548311 -4.1227 0
M  V30 3418 H 317.085 1.18638 -3.53524 0
M  V30 3419 N 319.27 1.56325 -0.20005 0
M  V30 3420 C 320.2 2.22318 0.713916 0
M  V30 3421 C 321.181 1.18788 1.21752 0
M  V30 3422 O 322.366 1.47309 1.26545 0
M  V30 3423 C 319.496 2.88639 1.93144 0
M  V30 3424 C 318.45 3.98457 1.56255 0
M  V30 3425 C 317.776 4.51967 2.85709 0
M  V30 3426 C 319.076 5.16612 0.768747 0
M  V30 3427 H 320.77 2.98952 0.163755 0
M  V30 3428 H 318.316 1.43792 0.0773219 0
M  V30 3429 H 320.269 3.33491 2.57608 0
M  V30 3430 H 318.993 2.09419 2.50621 0
M  V30 3431 H 317.652 3.54305 0.941471 0
M  V30 3432 H 317.3 3.69503 3.41287 0
M  V30 3433 H 317 5.26071 2.6177 0
M  V30 3434 H 318.524 4.99523 3.51154 0
M  V30 3435 H 319.938 5.57977 1.3166 0
M  V30 3436 H 318.335 5.96812 0.627286 0
M  V30 3437 H 319.405 4.84358 -0.229168 0
M  V30 3438 N 320.748 -0.0735177 1.57428 0
M  V30 3439 C 321.996 -0.771472 1.86796 0
M  V30 3440 C 322.317 -1.78201 0.791804 0
M  V30 3441 O 321.587 -1.95074 -0.179718 0
M  V30 3442 H 320.167 -0.28791 0.689287 0
M  V30 3443 H 322.829 -0.0500161 1.94836 0
M  V30 3444 H 321.925 -1.28874 2.8425 0
M  V30 3445 N 322.226 -1.5378 -0.344866 0
M  V30 3446 C 323.475 -1.7018 -1.08267 0
M  V30 3447 C 323.788 -0.471 -1.89845 0
M  V30 3448 O 324.994 -0.515917 -2.66553 0
M  V30 3449 C 323.45 -3.00923 -1.97417 0
M  V30 3450 C 323.058 -4.31335 -1.21053 0
M  V30 3451 C 324.802 -3.26688 -2.71063 0
M  V30 3452 C 322.709 -5.53153 -2.09225 0
M  V30 3453 H 321.639 -0.634138 -0.407903 0
M  V30 3454 H 324.29 -1.8028 -0.342246 0
M  V30 3455 H 322.672 -2.84676 -2.75274 0
M  V30 3456 H 323.846 -4.58281 -0.481159 0
M  V30 3457 H 322.161 -4.12173 -0.591813 0
M  V30 3458 H 324.758 -4.1489 -3.37299 0
M  V30 3459 H 325.101 -2.43639 -3.37558 0
M  V30 3460 H 325.634 -3.43705 -2.0028 0
M  V30 3461 H 322.373 -6.38741 -1.47274 0
M  V30 3462 H 321.893 -5.30458 -2.79955 0
M  V30 3463 H 323.572 -5.88744 -2.68308 0
M  V30 3464 N 323.704 0.605807 -1.45491 0
M  V30 3465 C 324.932 1.39136 -1.5313 0
M  V30 3466 C 325.347 1.88082 -0.164507 0
M  V30 3467 O 324.704 1.62316 0.834247 0
M  V30 3468 C 324.755 2.59463 -2.51716 0
M  V30 3469 O 324.476 2.12551 -3.83084 0
M  V30 3470 C 325.977 3.52301 -2.6907 0
M  V30 3471 H 323.197 0.425849 -0.51855 0
M  V30 3472 H 325.741 0.73865 -1.90694 0
M  V30 3473 H 323.896 3.20772 -2.17219 0
M  V30 3474 H 324.31 2.90744 -4.36541 0
M  V30 3475 H 325.784 4.33271 -3.42024 0
M  V30 3476 H 326.261 4.02757 -1.75167 0
M  V30 3477 H 326.867 2.96845 -3.04571 0
M  V30 3478 N 325.182 1.32811 0.848464 0
M  V30 3479 C 326.145 1.22194 1.9391 0
M  V30 3480 C 327.145 0.143404 1.60159 0
M  V30 3481 O 328.335 0.394253 1.6968 0
M  V30 3482 C 325.467 0.88067 3.29328 0
M  V30 3483 H 326.66 2.19127 2.04752 0
M  V30 3484 H 324.213 1.16731 1.0394 0
M  V30 3485 H 324.948 -0.0865776 3.24184 0
M  V30 3486 H 324.733 1.66052 3.55203 0
M  V30 3487 H 326.223 0.830871 4.09251 0
M  V30 3488 N 326.66 -1.06551 1.16123 0
M  V30 3489 C 327.909 -1.78687 0.935622 0
M  V30 3490 C 328.222 -1.88056 -0.538001 0
M  V30 3491 O 329.428 -2.56794 -0.88143 0
M  V30 3492 C 327.884 -3.21143 1.62466 0
M  V30 3493 C 327.492 -3.19949 3.13587 0
M  V30 3494 C 329.236 -3.9783 1.48092 0
M  V30 3495 C 327.143 -4.57108 3.75241 0
M  V30 3496 H 326.073 -0.669712 0.346412 0
M  V30 3497 H 328.724 -1.19534 1.39226 0
M  V30 3498 H 327.106 -3.80539 1.09572 0
M  V30 3499 H 328.28 -2.70151 3.73303 0
M  V30 3500 H 326.595 -2.5676 3.27816 0
M  V30 3501 H 329.192 -4.99217 1.91538 0
M  V30 3502 H 329.535 -4.14078 0.429507 0
M  V30 3503 H 330.068 -3.4495 1.98127 0
M  V30 3504 H 326.807 -4.46065 4.80319 0
M  V30 3505 H 326.327 -5.07111 3.20309 0
M  V30 3506 H 328.006 -5.26069 3.76644 0
M  V30 3507 N 328.138 -0.959301 -1.25041 0
M  V30 3508 C 329.048 -0.489994 -2.29426 0
M  V30 3509 C 330.064 0.444944 -1.68215 0
M  V30 3510 O 331.24 0.320046 -1.98841 0
M  V30 3511 C 328.305 0.220309 -3.45999 0
M  V30 3512 C 327.366 -0.753418 -4.22637 0
M  V30 3513 C 326.599 -0.076918 -5.33645 0
M  V30 3514 O 326.822 1.13649 -5.58963 0
M  V30 3515 O 325.756 -0.764824 -5.97021 0
M  V30 3516 H 329.582 -1.35755 -2.71669 0
M  V30 3517 H 327.167 -0.725961 -1.30576 0
M  V30 3518 H 329.049 0.619677 -4.16819 0
M  V30 3519 H 327.724 1.06296 -3.0575 0
M  V30 3520 H 326.631 -1.20308 -3.54227 0
M  V30 3521 H 327.964 -1.56423 -4.66683 0
M  V30 3522 N 329.616 1.39756 -0.72842 0
M  V30 3523 C 330.546 2.33289 -0.0991354 0
M  V30 3524 C 331.527 1.53568 0.731489 0
M  V30 3525 O 332.712 1.81987 0.677807 0
M  V30 3526 C 329.842 3.3763 0.813834 0
M  V30 3527 C 328.796 4.2791 0.0878663 0
M  V30 3528 C 328.122 5.22894 1.11741 0
M  V30 3529 C 329.422 5.11314 -1.06563 0
M  V30 3530 H 331.116 2.86163 -0.880408 0
M  V30 3531 H 328.662 1.37591 -0.424819 0
M  V30 3532 H 330.615 4.0201 1.26355 0
M  V30 3533 H 329.339 2.83181 1.62715 0
M  V30 3534 H 327.998 3.65 -0.342159 0
M  V30 3535 H 327.646 4.64744 1.92412 0
M  V30 3536 H 327.346 5.84143 0.636477 0
M  V30 3537 H 328.87 5.90151 1.56697 0
M  V30 3538 H 330.284 5.69076 -0.694671 0
M  V30 3539 H 328.681 5.81671 -1.47577 0
M  V30 3540 H 329.751 4.46534 -1.89038 0
M  V30 3541 N 331.094 0.475555 1.50254 0
M  V30 3542 C 332.057 -0.305016 2.27161 0
M  V30 3543 C 333.057 -0.916519 1.32123 0
M  V30 3544 O 334.247 -0.785003 1.5551 0
M  V30 3545 C 331.379 -1.43496 3.09227 0
M  V30 3546 H 332.572 0.369511 2.97615 0
M  V30 3547 H 330.125 0.229747 1.54602 0
M  V30 3548 H 330.86 -2.14441 2.43281 0
M  V30 3549 H 330.645 -1.00223 3.79075 0
M  V30 3550 H 332.135 -1.98548 3.67381 0
M  V30 3551 N 332.573 -1.56217 0.208337 0
M  V30 3552 C 333.989 -1.58919 -0.14729 0
M  V30 3553 C 334.189 -1.22486 -1.59998 0
M  V30 3554 O 333.245 -0.953849 -2.3379 0
M  V30 3555 C 334.558 -3.00236 0.167048 0
M  V30 3556 C 336.106 -3.12813 0.108219 0
M  V30 3557 C 336.581 -4.56284 0.396049 0
M  V30 3558 N 338.072 -4.61912 0.345142 0
M  V30 3559 C 338.807 -5.70837 0.541523 0
M  V30 3560 N 338.303 -6.88178 0.798968 0
M  V30 3561 N 340.096 -5.60091 0.474867 0
M  V30 3562 H 332.247 -1.78177 1.15614 0
M  V30 3563 H 334.51 -0.827555 0.462446 0
M  V30 3564 H 334.216 -3.31499 1.1748 0
M  V30 3565 H 334.09 -3.7354 -0.524184 0
M  V30 3566 H 336.477 -2.81354 -0.890157 0
M  V30 3567 H 336.558 -2.41866 0.832729 0
M  V30 3568 H 336.202 -4.88458 1.3918 0
M  V30 3569 H 336.132 -5.25439 -0.349502 0
M  V30 3570 H 338.623 -3.77589 0.153316 0
M  V30 3571 H 338.936 -7.67095 0.93727 0
M  V30 3572 H 337.281 -6.89953 0.836013 0
M  V30 3573 H 340.472 -4.67297 0.274064 0
M  V30 3574 H 340.645 -6.44917 0.631326 0
M  V30 3575 N 334.051 0.0651679 -1.57465 0
M  V30 3576 C 335.299 0.761555 -1.87202 0
M  V30 3577 C 335.62 1.77778 -0.801243 0
M  V30 3578 O 334.89 1.95166 0.16937 0
M  V30 3579 H 333.47 0.284251 -0.690804 0
M  V30 3580 H 336.132 0.0396827 -1.9486 0
M  V30 3581 H 335.228 1.27365 -2.84929 0
M  V30 3582 N 335.529 1.53961 0.336706 0
M  V30 3583 C 336.439 1.85432 1.43708 0
M  V30 3584 C 337.455 0.745053 1.57242 0
M  V30 3585 O 338.631 1.03804 1.72588 0
M  V30 3586 C 335.696 2.06349 2.78605 0
M  V30 3587 C 334.757 3.30191 2.74358 0
M  V30 3588 C 333.99 3.50101 4.02822 0
M  V30 3589 O 334.213 2.7371 5.00439 0
M  V30 3590 O 333.147 4.43547 4.06878 0
M  V30 3591 H 336.973 2.78975 1.20028 0
M  V30 3592 H 334.558 1.39701 0.52952 0
M  V30 3593 H 336.44 2.21513 3.58483 0
M  V30 3594 H 335.115 1.15995 3.02203 0
M  V30 3595 H 334.022 3.20425 1.93078 0
M  V30 3596 H 335.355 4.2056 2.55715 0
M  V30 3597 N 337.007 -0.598083 1.45811 0
M  V30 3598 C 338.418 -1.18011 1.44673 0
M  V30 3599 C 338.769 -1.95378 0.179364 0
M  V30 3600 O 337.894 -2.04124 -0.718509 0
M  V30 3601 C 338.489 -2.14677 2.62105 0
M  V30 3602 C 337.048 -2.68236 2.64057 0
M  V30 3603 C 336.195 -1.43816 2.37091 0
M  V30 3604 H 339.146 -0.38686 1.53913 0
M  V30 3605 H 339.167 -2.97878 2.36746 0
M  V30 3606 H 338.679 -1.5834 3.5433 0
M  V30 3607 H 336.78 -3.28486 1.75864 0
M  V30 3608 H 336.893 -3.12021 3.63566 0
M  V30 3609 H 335.257 -1.731 1.86838 0
M  V30 3610 H 336.04 -0.893333 3.31473 0
M  V30 3611 N 338.485 -1.33259 -0.841409 0
M  V30 3612 C 339.896 -1.22066 -1.41269 0
M  V30 3613 C 340.247 0.161479 -1.95534 0
M  V30 3614 O 339.372 1.06094 -1.88608 0
M  V30 3615 C 339.967 -2.20996 -2.568 0
M  V30 3616 C 338.526 -2.13649 -3.09888 0
M  V30 3617 C 337.673 -2.08623 -1.82679 0
M  V30 3618 H 340.624 -1.44895 -0.647395 0
M  V30 3619 H 340.645 -1.81621 -3.34356 0
M  V30 3620 H 340.157 -3.2158 -2.17274 0
M  V30 3621 H 338.258 -1.16359 -3.53965 0
M  V30 3622 H 338.371 -3.04079 -3.70234 0
M  V30 3623 H 336.735 -1.54061 -2.02824 0
M  V30 3624 H 337.518 -3.1101 -1.45353 0
M  V30 3625 N 339.963 1.05934 -1.16686 0
M  V30 3626 C 340.913 2.11764 -0.844978 0
M  V30 3627 C 341.897 1.59922 0.177178 0
M  V30 3628 O 343.089 1.76983 -0.0241768 0
M  V30 3629 C 340.218 3.41493 -0.351812 0
M  V30 3630 C 339.304 4.00152 -1.40496 0
M  V30 3631 N 339.695 4.32874 -2.61636 0
M  V30 3632 C 337.993 4.278 -1.26106 0
M  V30 3633 C 338.694 4.79552 -3.29249 0
M  V30 3634 N 337.67 4.79211 -2.56628 0
M  V30 3635 H 341.472 2.34916 -1.76612 0
M  V30 3636 H 338.986 1.23511 -1.05446 0
M  V30 3637 H 340.983 4.16773 -0.102796 0
M  V30 3638 H 339.643 3.19778 0.56322 0
M  V30 3639 H 340.654 4.23109 -2.98663 0
M  V30 3640 H 337.331 4.15511 -0.407081 0
M  V30 3641 H 338.721 5.14045 -4.32675 0
M  V30 3642 N 341.441 0.965919 1.2453 0
M  V30 3643 C 342.666 0.643971 1.97149 0
M  V30 3644 C 343.091 -0.779487 1.71189 0
M  V30 3645 O 342.449 -1.5288 0.974553 0
M  V30 3646 C 342.497 0.922557 3.48599 0
M  V30 3647 O 341.601 0.00707672 4.12399 0
M  V30 3648 H 340.942 0.243647 0.617683 0
M  V30 3649 H 343.472 1.29558 1.58353 0
M  V30 3650 H 343.482 0.853373 3.98976 0
M  V30 3651 H 342.157 1.95996 3.66822 0
M  V30 3652 H 340.734 0.12943 3.72675 0
M  V30 3653 N 342.919 -1.39368 0.735821 0
M  V30 3654 C 343.829 -2.34395 0.0979693 0
M  V30 3655 C 344.845 -1.58361 -0.720968 0
M  V30 3656 O 346.021 -1.90648 -0.649245 0
M  V30 3657 C 343.086 -3.37393 -0.797916 0
M  V30 3658 C 342.147 -4.29287 0.0333662 0
M  V30 3659 C 341.38 -5.27365 -0.819854 0
M  V30 3660 O 341.603 -5.31959 -2.05855 0
M  V30 3661 O 340.537 -6.01389 -0.248079 0
M  V30 3662 H 344.363 -2.90601 0.882315 0
M  V30 3663 H 341.948 -1.40909 0.4965 0
M  V30 3664 H 343.83 -4.00505 -1.31048 0
M  V30 3665 H 342.505 -2.83571 -1.56106 0
M  V30 3666 H 341.412 -3.69395 0.591475 0
M  V30 3667 H 342.745 -4.86317 0.758752 0
M  V30 3668 N 344.397 -0.483516 -1.5 0
M  V30 3669 C 345.327 0.293829 -2.31644 0
M  V30 3670 C 346.308 0.978864 -1.39112 0
M  V30 3671 O 347.493 0.973644 -1.68029 0
M  V30 3672 C 344.623 1.36897 -3.19181 0
M  V30 3673 C 343.577 0.804833 -4.20365 0
M  V30 3674 C 342.903 1.9792 -4.96721 0
M  V30 3675 C 344.203 -0.192313 -5.21946 0
M  V30 3676 H 345.897 -0.387616 -2.9688 0
M  V30 3677 H 343.443 -0.187856 -1.42769 0
M  V30 3678 H 345.396 1.92037 -3.751 0
M  V30 3679 H 344.12 2.07936 -2.51853 0
M  V30 3680 H 342.779 0.275319 -3.65565 0
M  V30 3681 H 342.427 2.67686 -4.25856 0
M  V30 3682 H 342.127 1.60789 -5.65173 0
M  V30 3683 H 343.651 2.53526 -5.55479 0
M  V30 3684 H 345.065 0.270333 -5.72662 0
M  V30 3685 H 343.462 -0.478543 -5.98189 0
M  V30 3686 H 344.532 -1.11409 -4.71928 0
M  V30 3687 N 345.875 1.56104 -0.216619 0
M  V30 3688 C 346.825 2.16703 0.708798 0
M  V30 3689 C 347.809 1.11392 1.16106 0
M  V30 3690 O 349.001 1.37395 1.11587 0
M  V30 3691 C 346.13 2.84666 1.91886 0
M  V30 3692 C 345.216 3.97195 1.48651 0
M  V30 3693 N 345.607 4.99959 0.766434 0
M  V30 3694 C 343.905 4.09193 1.77418 0
M  V30 3695 C 344.606 5.79126 0.546659 0
M  V30 3696 N 343.582 5.32315 1.10188 0
M  V30 3697 H 347.384 2.93516 0.150162 0
M  V30 3698 H 344.898 1.6239 -0.0176768 0
M  V30 3699 H 346.895 3.26486 2.59253 0
M  V30 3700 H 345.555 2.09347 2.48202 0
M  V30 3701 H 346.566 5.16197 0.419634 0
M  V30 3702 H 343.243 3.45021 2.35088 0
M  V30 3703 H 344.633 6.71895 -0.026103 0
M  V30 3704 N 347.353 -0.0568162 1.57498 0
M  V30 3705 C 348.764 -0.606858 1.76562 0
M  V30 3706 C 349.115 -1.77114 0.844094 0
M  V30 3707 O 348.24 -2.16376 0.0318911 0
M  V30 3708 C 348.835 -1.10766 3.20182 0
M  V30 3709 C 347.394 -1.60344 3.40539 0
M  V30 3710 C 346.541 -0.529311 2.72201 0
M  V30 3711 H 349.492 0.169393 1.57793 0
M  V30 3712 H 349.513 -1.97602 3.25167 0
M  V30 3713 H 349.025 -0.26006 3.87228 0
M  V30 3714 H 347.126 -2.47379 2.78629 0
M  V30 3715 H 347.239 -1.67006 4.4905 0
M  V30 3716 H 345.603 -0.977893 2.35179 0
M  V30 3717 H 346.386 0.308352 3.41912 0
M  V30 3718 N 348.832 -1.54138 -0.328536 0
M  V30 3719 C 349.765 -1.78014 -1.4278 0
M  V30 3720 C 350.743 -0.629889 -1.49904 0
M  V30 3721 O 351.927 -0.866763 -1.6739 0
M  V30 3722 C 349.054 -1.89225 -2.80912 0
M  V30 3723 C 348.1 -3.11483 -2.91343 0
M  V30 3724 S 348.933 -4.70201 -2.56263 0
M  V30 3725 C 350.089 -4.84312 -3.96476 0
M  V30 3726 H 350.322 -2.70974 -1.22313 0
M  V30 3727 H 347.855 -1.45197 -0.525084 0
M  V30 3728 H 349.813 -1.9637 -3.60485 0
M  V30 3729 H 348.474 -0.972518 -2.98665 0
M  V30 3730 H 347.667 -3.16046 -3.92595 0
M  V30 3731 H 347.269 -3.02642 -2.19736 0
M  V30 3732 H 349.561 -4.66643 -4.91173 0
M  V30 3733 H 350.504 -5.86411 -3.96898 0
M  V30 3734 H 350.912 -4.12652 -3.85199 0
M  V30 3735 N 350.31 0.590341 -1.46126 0
M  V30 3736 C 351.257 1.69994 -1.56111 0
M  V30 3737 C 352.227 1.61065 -0.405867 0
M  V30 3738 O 353.412 1.8039 -0.621613 0
M  V30 3739 C 350.552 3.08326 -1.55013 0
M  V30 3740 C 349.665 3.27936 -2.81215 0
M  V30 3741 C 348.8 4.56473 -2.71673 0
M  V30 3742 C 347.839 4.694 -3.92849 0
M  V30 3743 N 346.976 5.89254 -3.81738 0
M  V30 3744 H 351.816 1.60797 -2.50895 0
M  V30 3745 H 349.353 0.783799 -1.24479 0
M  V30 3746 H 351.311 3.88383 -1.52362 0
M  V30 3747 H 349.941 3.16439 -0.637667 0
M  V30 3748 H 348.993 2.41536 -2.93879 0
M  V30 3749 H 350.305 3.33357 -3.71045 0
M  V30 3750 H 349.459 5.44748 -2.67085 0
M  V30 3751 H 348.198 4.53477 -1.7947 0
M  V30 3752 H 347.203 3.79544 -3.97777 0
M  V30 3753 H 348.428 4.7418 -4.86138 0
M  V30 3754 H 346.374 5.87271 -2.92317 0
M  V30 3755 H 346.291 5.95911 -4.65217 0
M  V30 3756 H 347.559 6.79981 -3.81112 0
M  V30 3757 N 351.788 1.33704 0.83433 0
M  V30 3758 C 353.034 1.25603 1.59222 0
M  V30 3759 C 353.367 -0.176659 1.93395 0
M  V30 3760 O 352.642 -1.11915 1.59076 0
M  V30 3761 C 352.925 2.13576 2.89926 0
M  V30 3762 C 352.778 3.65326 2.62406 0
M  V30 3763 C 354.097 2.01238 3.91397 0
M  V30 3764 H 351.216 0.457613 0.577719 0
M  V30 3765 H 353.858 1.63848 0.961972 0
M  V30 3766 H 352.008 1.8109 3.43713 0
M  V30 3767 H 353.68 4.08124 2.15017 0
M  V30 3768 H 351.923 3.8698 1.96033 0
M  V30 3769 H 352.594 4.22232 3.55562 0
M  V30 3770 H 355.07 2.29738 3.46929 0
M  V30 3771 H 353.946 2.65036 4.80673 0
M  V30 3772 H 354.207 0.985951 4.30966 0
M  V30 3773 N 353.266 -1.05314 1.17247 0
M  V30 3774 C 354.196 -2.1498 0.911362 0
M  V30 3775 C 355.177 -1.69471 -0.146169 0
M  V30 3776 O 356.362 -1.942 0.003812 0
M  V30 3777 C 353.492 -3.4472 0.422528 0
M  V30 3778 C 352.446 -4.03789 1.4191 0
M  V30 3779 C 351.772 -5.28858 0.788274 0
M  V30 3780 C 353.072 -4.41418 2.7919 0
M  V30 3781 H 354.766 -2.3708 1.82848 0
M  V30 3782 H 352.312 -1.13938 0.880569 0
M  V30 3783 H 354.265 -4.20787 0.227289 0
M  V30 3784 H 352.989 -3.22269 -0.530123 0
M  V30 3785 H 351.648 -3.2979 1.60106 0
M  V30 3786 H 351.296 -5.02709 -0.171173 0
M  V30 3787 H 350.996 -5.69338 1.45353 0
M  V30 3788 H 352.52 -6.07612 0.603282 0
M  V30 3789 H 353.934 -5.08524 2.64719 0
M  V30 3790 H 352.331 -4.92913 3.42282 0
M  V30 3791 H 353.401 -3.51819 3.33693 0
M  V30 3792 N 354.744 -0.972509 -1.24016 0
M  V30 3793 C 355.991 -0.637034 -1.92219 0
M  V30 3794 C 356.319 0.828418 -1.75976 0
M  V30 3795 O 355.574 1.61206 -1.10955 0
M  V30 3796 C 355.873 -0.963694 -3.44162 0
M  V30 3797 C 355.539 -2.41807 -3.80579 0
M  V30 3798 C 354.201 -2.81556 -3.9023 0
M  V30 3799 C 356.553 -3.36172 -3.98293 0
M  V30 3800 C 353.881 -4.14702 -4.15017 0
M  V30 3801 C 356.233 -4.68952 -4.24578 0
M  V30 3802 C 354.897 -5.08472 -4.32449 0
M  V30 3803 H 354.167 -0.233107 -0.703379 0
M  V30 3804 H 356.814 -1.2249 -1.47202 0
M  V30 3805 H 355.119 -0.29365 -3.90698 0
M  V30 3806 H 356.816 -0.682449 -3.9515 0
M  V30 3807 H 353.406 -2.09988 -3.73635 0
M  V30 3808 H 357.59 -3.06644 -3.90234 0
M  V30 3809 H 352.846 -4.4494 -4.19331 0
M  V30 3810 H 357.02 -5.42037 -4.37229 0
M  V30 3811 H 354.647 -6.11665 -4.51409 0
M  V30 3812 N 356.222 1.38976 -0.743202 0
M  V30 3813 C 357.152 2.33171 -0.123873 0
M  V30 3814 C 358.133 1.54336 0.71516 0
M  V30 3815 O 359.318 1.82696 0.658467 0
M  V30 3816 C 356.448 3.38474 0.777978 0
M  V30 3817 C 355.402 4.27979 0.0424758 0
M  V30 3818 C 354.728 5.2405 1.06189 0
M  V30 3819 C 356.028 5.10155 -1.1198 0
M  V30 3820 H 357.722 2.85213 -0.910709 0
M  V30 3821 H 355.268 1.37133 -0.439388 0
M  V30 3822 H 357.221 4.03328 1.22084 0
M  V30 3823 H 355.945 2.84891 1.59702 0
M  V30 3824 H 354.604 3.64616 -0.380853 0
M  V30 3825 H 354.252 4.66758 1.87472 0
M  V30 3826 H 353.952 5.84785 0.574485 0
M  V30 3827 H 355.476 5.9178 1.50428 0
M  V30 3828 H 356.89 5.68307 -0.75499 0
M  V30 3829 H 355.287 5.80073 -1.53738 0
M  V30 3830 H 356.357 4.44504 -1.93764 0
M  V30 3831 N 357.7 0.491464 1.49741 0
M  V30 3832 C 358.949 -0.0582189 2.01616 0
M  V30 3833 C 359.262 -1.38927 1.3769 0
M  V30 3834 O 360.468 -2.02509 1.80838 0
M  V30 3835 C 358.924 -0.154235 3.59569 0
M  V30 3836 C 358.532 1.1696 4.32463 0
M  V30 3837 C 360.276 -0.65479 4.1942 0
M  V30 3838 C 358.183 1.03627 5.8225 0
M  V30 3839 H 357.113 -0.0255317 0.753568 0
M  V30 3840 H 359.764 0.629445 1.72367 0
M  V30 3841 H 358.146 -0.906138 3.85493 0
M  V30 3842 H 359.32 1.93405 4.18248 0
M  V30 3843 H 357.635 1.60285 3.84315 0
M  V30 3844 H 360.232 -0.771903 5.29099 0
M  V30 3845 H 360.575 -1.65127 3.8215 0
M  V30 3846 H 361.108 0.040304 3.9778 0
M  V30 3847 H 357.847 2.00672 6.24028 0
M  V30 3848 H 357.367 0.312546 5.98985 0
M  V30 3849 H 359.046 0.711114 6.4308 0
M  V30 3850 N 359.178 -1.55987 0.224894 0
M  V30 3851 C 360.589 -1.84553 -0.282345 0
M  V30 3852 C 360.94 -1.14634 -1.59227 0
M  V30 3853 O 360.065 -0.417155 -2.12341 0
M  V30 3854 C 360.66 -3.348 -0.519062 0
M  V30 3855 C 359.219 -3.63671 -0.970604 0
M  V30 3856 C 358.366 -2.77277 -0.0355261 0
M  V30 3857 H 361.317 -1.52245 0.448006 0
M  V30 3858 H 361.338 -3.55187 -1.36463 0
M  V30 3859 H 360.85 -3.8566 0.43449 0
M  V30 3860 H 358.951 -3.1827 -1.9374 0
M  V30 3861 H 359.064 -4.71631 -0.842698 0
M  V30 3862 H 357.428 -2.48846 -0.542927 0
M  V30 3863 H 358.211 -3.30937 0.913003 0
M  V30 3864 N 360.656 0.0484629 -1.57525 0
M  V30 3865 C 361.603 1.05504 -2.05275 0
M  V30 3866 C 362.573 1.37084 -0.937927 0
M  V30 3867 O 363.758 1.47754 -1.2072 0
M  V30 3868 C 360.898 2.35676 -2.52093 0
M  V30 3869 C 360.011 2.10423 -3.77288 0
M  V30 3870 C 359.146 3.34327 -4.12794 0
M  V30 3871 C 358.185 3.04542 -5.30962 0
M  V30 3872 N 357.322 4.20841 -5.61994 0
M  V30 3873 H 362.162 0.640885 -2.91027 0
M  V30 3874 H 359.699 0.304854 -1.43906 0
M  V30 3875 H 361.657 3.11709 -2.77297 0
M  V30 3876 H 360.287 2.7485 -1.69285 0
M  V30 3877 H 359.339 1.24976 -3.59284 0
M  V30 3878 H 360.651 1.84438 -4.63448 0
M  V30 3879 H 359.805 4.1874 -4.39024 0
M  V30 3880 H 358.544 3.63408 -3.25247 0
M  V30 3881 H 357.549 2.18528 -5.04505 0
M  V30 3882 H 358.774 2.76758 -6.20146 0
M  V30 3883 H 356.72 4.4991 -4.77406 0
M  V30 3884 H 356.637 3.98212 -6.42622 0
M  V30 3885 H 357.905 5.06184 -5.92789 0
M  V30 3886 N 362.134 1.5431 0.320358 0
M  V30 3887 C 363.082 1.84647 1.4145 0
M  V30 3888 C 364.076 0.718624 1.53402 0
M  V30 3889 O 365.282 0.902335 1.5575 0
M  V30 3890 H 361.657 0.585349 0.472091 0
M  V30 3891 H 363.628 2.7614 1.13089 0
M  V30 3892 C 362.377 2.09341 2.77617 0
M  V30 3893 H 361.7 2.9559 2.69196 0
M  V30 3894 H 363.14 2.3452 3.53237 0
M  V30 3895 C 361.599 0.885939 3.25043 0
M  V30 3896 O 362.129 0.0967891 4.01583 0
M  V30 3897 N 360.335 0.696682 2.82125 0
M  V30 3898 H 359.882 1.34006 2.2 0
M  V30 3899 H 359.84 -0.109712 3.14209 0
M  V30 3900 N 363.613 -0.582584 1.46437 0
M  V30 3901 C 364.561 -1.71272 1.5738 0
M  V30 3902 C 365.555 -1.63524 0.44229 0
M  V30 3903 O 366.761 -1.69016 0.619166 0
M  V30 3904 H 363.136 -0.566273 0.494813 0
M  V30 3905 H 365.107 -1.59174 2.52401 0
M  V30 3906 C 363.856 -3.09658 1.58136 0
M  V30 3907 H 363.179 -3.16291 2.44541 0
M  V30 3908 H 364.619 -3.88494 1.69847 0
M  V30 3909 C 363.078 -3.3547 0.310026 0
M  V30 3910 O 363.608 -3.97199 -0.599683 0
M  V30 3911 N 361.814 -2.89925 0.197901 0
M  V30 3912 H 361.361 -2.39873 0.93909 0
M  V30 3913 H 361.319 -3.07568 -0.65185 0
M  V30 3914 N 365.091 -1.34144 -0.827227 0
M  V30 3915 C 366.502 -1.23557 -1.39966 0
M  V30 3916 C 366.853 0.140731 -1.95695 0
M  V30 3917 O 365.978 1.04087 -1.89723 0
M  V30 3918 C 366.573 -2.23708 -2.54441 0
M  V30 3919 C 365.132 -2.16924 -3.07605 0
M  V30 3920 C 364.279 -2.10549 -1.80456 0
M  V30 3921 H 367.23 -1.45573 -0.631991 0
M  V30 3922 H 367.251 -1.85157 -3.32411 0
M  V30 3923 H 366.763 -3.23866 -2.13851 0
M  V30 3924 H 364.864 -1.20107 -3.52711 0
M  V30 3925 H 364.977 -3.07988 -3.66988 0
M  V30 3926 H 363.341 -1.56203 -2.01178 0
M  V30 3927 H 364.124 -3.12535 -1.42046 0
M  V30 3928 N 366.569 1.04691 -1.17803 0
M  V30 3929 C 367.98 1.59238 -0.974689 0
M  V30 3930 C 368.331 1.90306 0.477292 0
M  V30 3931 O 367.456 1.68846 1.35352 0
M  V30 3932 C 368.051 2.89318 -1.76296 0
M  V30 3933 C 366.61 3.40506 -1.60414 0
M  V30 3934 C 365.757 2.14172 -1.76141 0
M  V30 3935 H 368.708 0.874395 -1.32439 0
M  V30 3936 H 368.729 3.5944 -1.24833 0
M  V30 3937 H 368.241 2.66675 -2.81968 0
M  V30 3938 H 366.342 3.68175 -0.572519 0
M  V30 3939 H 366.455 4.14753 -2.39827 0
M  V30 3940 H 364.819 2.25176 -1.19028 0
M  V30 3941 H 365.602 1.93992 -2.83235 0
M  V30 3942 N 368.047 0.979072 1.23499 0
M  V30 3943 C 369.275 0.665202 1.95915 0
M  V30 3944 C 369.69 -0.767571 1.72493 0
M  V30 3945 O 369.047 -1.51635 1.01554 0
M  V30 3946 C 369.098 0.944438 3.48945 0
M  V30 3947 O 368.819 2.3209 3.71572 0
M  V30 3948 C 370.32 0.646336 4.38563 0
M  V30 3949 H 367.54 0.247218 0.623798 0
M  V30 3950 H 370.084 1.31009 1.57025 0
M  V30 3951 H 368.239 0.345575 3.85856 0
M  V30 3952 H 368.653 2.40957 4.65876 0
M  V30 3953 H 370.127 0.892091 5.44744 0
M  V30 3954 H 370.604 -0.419575 4.37191 0
M  V30 3955 H 371.21 1.22562 4.07258 0
M  V30 3956 N 369.525 -1.3858 0.750561 0
M  V30 3957 C 370.455 -2.33102 0.136237 0
M  V30 3958 C 371.436 -1.54713 -0.706965 0
M  V30 3959 O 372.621 -1.83043 -0.648769 0
M  V30 3960 C 369.751 -3.38882 -0.760017 0
M  V30 3961 C 368.705 -4.27995 -0.0197785 0
M  V30 3962 C 368.031 -5.24605 -1.03408 0
M  V30 3963 C 369.331 -5.09554 1.14684 0
M  V30 3964 H 371.025 -2.84726 0.925822 0
M  V30 3965 H 368.571 -1.36898 0.446654 0
M  V30 3966 H 370.524 -4.0397 -1.19943 0
M  V30 3967 H 369.248 -2.85734 -1.58189 0
M  V30 3968 H 367.907 -3.64409 0.400184 0
M  V30 3969 H 367.555 -4.67746 -1.84994 0
M  V30 3970 H 367.255 -5.85081 -0.543464 0
M  V30 3971 H 368.779 -5.9257 -1.47288 0
M  V30 3972 H 370.193 -5.67899 0.785118 0
M  V30 3973 H 368.59 -5.7925 1.56812 0
M  V30 3974 H 369.66 -4.4347 1.96118 0
M  V30 3975 N 371.003 -0.499398 -1.49478 0
M  V30 3976 C 371.913 0.284489 -2.32869 0
M  V30 3977 C 372.929 0.968885 -1.44529 0
M  V30 3978 O 374.105 0.95062 -1.77553 0
M  V30 3979 C 371.17 1.33594 -3.19928 0
M  V30 3980 C 370.231 0.665149 -4.24116 0
M  V30 3981 C 369.464 1.6665 -5.07014 0
M  V30 3982 O 369.687 2.89618 -4.91404 0
M  V30 3983 O 368.621 1.22271 -5.8935 0
M  V30 3984 H 372.447 -0.39802 -3.01081 0
M  V30 3985 H 370.032 -0.260758 -1.47107 0
M  V30 3986 H 371.914 1.94431 -3.73864 0
M  V30 3987 H 370.589 2.0014 -2.54412 0
M  V30 3988 H 369.496 0.0170769 -3.74096 0
M  V30 3989 H 370.829 0.0421555 -4.92182 0
M  V30 3990 N 372.481 1.55866 -0.233164 0
M  V30 3991 C 373.729 1.9821 0.394593 0
M  V30 3992 C 374.05 1.12234 1.59463 0
M  V30 3993 O 373.32 0.201981 1.94856 0
M  V30 3994 H 371.9 0.732034 0.148778 0
M  V30 3995 H 374.562 1.92107 -0.32876 0
M  V30 3996 H 373.658 3.03845 0.713063 0
M  V30 3997 N 373.959 -0.0401083 1.57549 0
M  V30 3998 C 374.907 -1.06264 2.06908 0
M  V30 3999 C 375.901 -1.38132 0.980608 0
M  V30 4000 O 377.107 -1.37167 1.16556 0
M  V30 4001 H 373.482 -0.360166 0.660139 0
M  V30 4002 H 375.453 -0.620445 2.91878 0
M  V30 4003 C 374.202 -2.35846 2.55483 0
M  V30 4004 H 373.525 -2.12183 3.38849 0
M  V30 4005 H 374.965 -3.05765 2.93741 0
M  V30 4006 C 373.424 -3.0404 1.45126 0
M  V30 4007 O 373.954 -3.93424 0.811216 0
M  V30 4008 N 372.16 -2.65184 1.18852 0
M  V30 4009 H 371.707 -1.92584 1.71083 0
M  V30 4010 H 371.665 -3.1113 0.452244 0
M  V30 4011 N 375.437 -1.54477 -0.31217 0
M  V30 4012 C 376.667 -1.76948 -1.06645 0
M  V30 4013 C 377.075 -0.523593 -1.81811 0
M  V30 4014 O 376.418 0.51578 -1.76311 0
M  V30 4015 C 376.48 -2.91668 -2.10166 0
M  V30 4016 C 376.144 -4.30165 -1.54296 0
M  V30 4017 C 377.141 -5.10603 -0.978793 0
M  V30 4018 C 374.826 -4.76738 -1.58196 0
M  V30 4019 C 376.82 -6.3573 -0.461048 0
M  V30 4020 C 374.507 -6.01831 -1.06034 0
M  V30 4021 C 375.505 -6.81161 -0.500844 0
M  V30 4022 O 375.193 -8.03899 0.0128958 0
M  V30 4023 H 374.925 -0.594088 -0.322546 0
M  V30 4024 H 377.479 -2.02213 -0.360441 0
M  V30 4025 H 375.709 -2.62001 -2.84416 0
M  V30 4026 H 377.398 -3.01817 -2.71406 0
M  V30 4027 H 378.164 -4.75771 -0.941651 0
M  V30 4028 H 374.043 -4.15027 -2.00683 0
M  V30 4029 H 377.587 -6.97596 -0.0236894 0
M  V30 4030 H 373.484 -6.36152 -1.09459 0
M  V30 4031 H 374.252 -8.18437 -0.101457 0
M  V30 4032 N 376.915 0.57481 -1.46744 0
M  V30 4033 C 378.14 1.36341 -1.56288 0
M  V30 4034 C 378.565 1.86954 -0.207347 0
M  V30 4035 O 377.923 1.62006 0.813871 0
M  V30 4036 C 377.971 2.52147 -2.57787 0
M  V30 4037 O 377.075 3.53834 -2.11838 0
M  V30 4038 H 376.416 0.405713 -0.525636 0
M  V30 4039 H 378.946 0.696453 -1.92382 0
M  V30 4040 H 378.956 2.98958 -2.77648 0
M  V30 4041 H 377.631 2.14663 -3.5622 0
M  V30 4042 H 376.208 3.1345 -2.01999 0
M  V30 4043 N 378.394 1.34581 0.820102 0
M  V30 4044 C 379.341 1.2639 1.93117 0
M  V30 4045 C 380.311 0.138554 1.65521 0
M  V30 4046 O 381.496 0.320004 1.88097 0
M  V30 4047 C 378.636 1.02812 3.29429 0
M  V30 4048 C 377.749 2.24146 3.693 0
M  V30 4049 C 376.884 1.93829 4.94574 0
M  V30 4050 C 375.923 3.1129 5.27034 0
M  V30 4051 N 375.06 2.80838 6.43486 0
M  V30 4052 H 379.9 2.21408 1.99455 0
M  V30 4053 H 377.437 1.10077 0.975784 0
M  V30 4054 H 379.395 0.871788 4.0799 0
M  V30 4055 H 378.025 0.114612 3.22596 0
M  V30 4056 H 377.077 2.50691 2.86109 0
M  V30 4057 H 378.389 3.11899 3.89257 0
M  V30 4058 H 377.543 1.74948 5.80929 0
M  V30 4059 H 376.282 1.03341 4.76626 0
M  V30 4060 H 375.287 3.30764 4.39175 0
M  V30 4061 H 376.512 4.02561 5.4692 0
M  V30 4062 H 374.458 1.92929 6.26988 0
M  V30 4063 H 374.375 3.62123 6.63629 0
M  V30 4064 H 375.643 2.65467 7.32903 0
M  V30 4065 N 379.872 -1.04064 1.18357 0
M  V30 4066 C 381.283 -1.58719 0.98312 0
M  V30 4067 C 381.634 -1.90556 -0.467193 0
M  V30 4068 O 380.759 -1.69561 -1.34454 0
M  V30 4069 C 381.354 -2.88379 1.77828 0
M  V30 4070 C 379.913 -3.3965 1.62218 0
M  V30 4071 C 379.06 -2.13235 1.77274 0
M  V30 4072 H 382.011 -0.867359 1.32901 0
M  V30 4073 H 382.032 -3.58773 1.26737 0
M  V30 4074 H 381.544 -2.65176 2.83379 0
M  V30 4075 H 379.645 -3.67866 0.592036 0
M  V30 4076 H 379.758 -4.13475 2.42023 0
M  V30 4077 H 378.122 -2.24542 1.20221 0
M  V30 4078 H 378.905 -1.92487 2.8426 0
M  V30 4079 N 381.35 -0.985608 -1.22978 0
M  V30 4080 C 382.28 -0.549649 -2.26939 0
M  V30 4081 C 383.261 0.419803 -1.64838 0
M  V30 4082 O 384.446 0.31203 -1.91677 0
M  V30 4083 C 381.576 0.143652 -3.47003 0
M  V30 4084 C 380.53 -0.743606 -4.21491 0
M  V30 4085 C 379.856 0.0822027 -5.34637 0
M  V30 4086 C 381.156 -2.03694 -4.80943 0
M  V30 4087 H 382.85 -1.41862 -2.63658 0
M  V30 4088 H 380.396 -0.683571 -1.26741 0
M  V30 4089 H 382.349 0.459985 -4.18882 0
M  V30 4090 H 381.073 1.04711 -3.09359 0
M  V30 4091 H 379.732 -1.04347 -3.51436 0
M  V30 4092 H 379.38 0.986359 -4.93234 0
M  V30 4093 H 379.08 -0.508377 -5.85397 0
M  V30 4094 H 380.604 0.392797 -6.09335 0
M  V30 4095 H 382.018 -1.78504 -5.44802 0
M  V30 4096 H 380.415 -2.57573 -5.42011 0
M  V30 4097 H 381.485 -2.72042 -4.01399 0
M  V30 4098 N 382.828 1.3818 -0.7579 0
M  V30 4099 C 383.775 2.30416 -0.133057 0
M  V30 4100 C 384.745 1.50398 0.704957 0
M  V30 4101 O 385.93 1.79014 0.660192 0
M  V30 4102 C 383.07 3.36834 0.750813 0
M  V30 4103 C 382.183 4.31879 -0.102297 0
M  V30 4104 C 381.318 5.25368 0.784979 0
M  V30 4105 C 380.357 6.12058 -0.0715046 0
M  V30 4106 N 379.494 6.97832 0.772972 0
M  V30 4107 H 384.334 2.83274 -0.925186 0
M  V30 4108 H 381.871 1.39461 -0.467866 0
M  V30 4109 H 383.829 3.97145 1.27794 0
M  V30 4110 H 382.459 2.85374 1.50868 0
M  V30 4111 H 381.511 3.72991 -0.747095 0
M  V30 4112 H 382.823 4.92921 -0.763552 0
M  V30 4113 H 381.977 5.90818 1.37911 0
M  V30 4114 H 380.716 4.64703 1.47996 0
M  V30 4115 H 379.721 5.456 -0.678272 0
M  V30 4116 H 380.946 6.74793 -0.763606 0
M  V30 4117 H 378.892 6.3971 1.45282 0
M  V30 4118 H 378.809 7.55812 0.168709 0
M  V30 4119 H 380.077 7.67687 1.35194 0
M  V30 4120 N 384.306 0.507319 1.49211 0
M  V30 4121 C 385.216 -0.272136 2.33016 0
M  V30 4122 C 386.232 -0.961206 1.45041 0
M  V30 4123 O 387.408 -0.941191 1.78055 0
M  V30 4124 C 384.473 -1.31895 3.20631 0
M  V30 4125 C 383.534 -0.642648 4.24463 0
M  V30 4126 C 382.767 -1.63959 5.07891 0
M  V30 4127 O 382.99 -2.87007 4.92933 0
M  V30 4128 O 381.924 -1.19143 5.8999 0
M  V30 4129 H 385.75 0.413982 3.00865 0
M  V30 4130 H 383.335 0.268556 1.46966 0
M  V30 4131 H 385.217 -1.92446 3.7489 0
M  V30 4132 H 383.892 -1.98788 2.5547 0
M  V30 4133 H 382.799 0.00276252 3.741 0
M  V30 4134 H 384.132 -0.0160534 4.92197 0
M  V30 4135 N 385.784 -1.5574 0.241426 0
M  V30 4136 C 387.031 -1.9881 -0.384836 0
M  V30 4137 C 387.359 -1.12947 -1.58346 0
M  V30 4138 O 386.614 -0.178993 -1.9488 0
M  V30 4139 C 386.913 -3.47308 -0.843317 0
M  V30 4140 C 386.579 -4.50223 0.246946 0
M  V30 4141 C 385.241 -4.78088 0.546399 0
M  V30 4142 C 387.593 -5.11841 0.983282 0
M  V30 4143 C 384.921 -5.64846 1.58636 0
M  V30 4144 C 387.273 -5.99727 2.01272 0
M  V30 4145 C 385.937 -6.25927 2.31888 0
M  V30 4146 H 385.207 -0.727496 -0.140821 0
M  V30 4147 H 387.854 -1.8831 0.348106 0
M  V30 4148 H 386.159 -3.55112 -1.65537 0
M  V30 4149 H 387.856 -3.78017 -1.33806 0
M  V30 4150 H 384.446 -4.286 0.00340639 0
M  V30 4151 H 388.63 -4.90366 0.765182 0
M  V30 4152 H 383.886 -5.83403 1.82896 0
M  V30 4153 H 388.06 -6.46517 2.58823 0
M  V30 4154 H 385.687 -6.92949 3.12611 0
M  V30 4155 N 387.262 0.0317525 -1.57568 0
M  V30 4156 C 388.508 0.724175 -1.8943 0
M  V30 4157 C 388.841 1.75149 -0.838836 0
M  V30 4158 O 388.116 1.93948 0.146422 0
M  V30 4159 C 388.399 1.39615 -3.31933 0
M  V30 4160 C 388.252 0.382537 -4.4817 0
M  V30 4161 C 389.571 2.33084 -3.73309 0
M  V30 4162 H 386.69 0.261797 -0.688935 0
M  V30 4163 H 389.332 -0.013017 -1.89996 0
M  V30 4164 H 387.482 2.02451 -3.31581 0
M  V30 4165 H 389.154 -0.243689 -4.60656 0
M  V30 4166 H 387.397 -0.29844 -4.32772 0
M  V30 4167 H 388.068 0.891145 -5.44759 0
M  V30 4168 H 390.544 1.80295 -3.7501 0
M  V30 4169 H 389.42 2.77084 -4.73831 0
M  V30 4170 H 389.681 3.19643 -3.05419 0
M  V30 4171 N 388.74 1.54641 0.303973 0
M  V30 4172 C 389.65 1.88439 1.39743 0
M  V30 4173 C 390.666 0.778239 1.55626 0
M  V30 4174 O 391.842 1.07442 1.70347 0
M  V30 4175 C 388.907 2.12212 2.74166 0
M  V30 4176 C 387.968 3.35936 2.67293 0
M  V30 4177 C 387.201 3.58566 3.95305 0
M  V30 4178 O 387.424 2.84263 4.9452 0
M  V30 4179 O 386.358 4.52078 3.97378 0
M  V30 4180 H 390.184 2.81458 1.14083 0
M  V30 4181 H 387.769 1.40793 0.499768 0
M  V30 4182 H 389.651 2.29067 3.53704 0
M  V30 4183 H 388.326 1.22379 2.99675 0
M  V30 4184 H 387.233 3.24448 1.86237 0
M  V30 4185 H 388.566 4.2589 2.46736 0
M  V30 4186 N 390.218 -0.567019 1.47046 0
M  V30 4187 C 391.181 -1.65696 1.58359 0
M  V30 4188 C 392.181 -1.54097 0.459441 0
M  V30 4189 O 393.371 -1.58432 0.724225 0
M  V30 4190 C 390.503 -3.05197 1.51879 0
M  V30 4191 H 391.696 -1.57019 2.5551 0
M  V30 4192 H 389.249 -0.786148 1.3509 0
M  V30 4193 H 389.984 -3.19417 0.560673 0
M  V30 4194 H 389.769 -3.15025 2.33455 0
M  V30 4195 H 391.259 -3.84511 1.62913 0
M  V30 4196 N 391.696 -1.35014 -0.812953 0
M  V30 4197 C 392.936 -1.29289 -1.58315 0
M  V30 4198 C 393.3 0.132727 -1.91541 0
M  V30 4199 O 394.501 0.314269 -2.66957 0
M  V30 4200 C 392.772 -2.1681 -2.84127 0
M  V30 4201 S 394.331 -2.28538 -3.74588 0
M  V30 4202 H 391.149 -0.459569 -0.542511 0
M  V30 4203 H 393.751 -1.70336 -0.959467 0
M  V30 4204 H 392.455 -3.19379 -2.57731 0
M  V30 4205 H 391.986 -1.76697 -3.51485 0
M  V30 4206 H 394.001 -1.4655 -4.74065 0
M  V30 4207 N 393.175 1.03435 -1.18907 0
M  V30 4208 C 394.105 2.13503 -0.945448 0
M  V30 4209 C 395.086 1.69682 0.119189 0
M  V30 4210 O 396.271 1.94169 -0.034707 0
M  V30 4211 C 393.401 3.44004 -0.477316 0
M  V30 4212 C 392.355 4.0148 -1.48316 0
M  V30 4213 C 391.681 5.27537 -0.872311 0
M  V30 4214 C 392.981 4.36921 -2.86177 0
M  V30 4215 H 394.675 2.34141 -1.86597 0
M  V30 4216 H 392.221 1.12523 -0.898584 0
M  V30 4217 H 394.174 4.20372 -0.294204 0
M  V30 4218 H 392.898 3.23072 0.478786 0
M  V30 4219 H 391.557 3.27201 -1.65332 0
M  V30 4220 H 391.205 5.02917 0.0911752 0
M  V30 4221 H 390.905 5.66954 -1.54393 0
M  V30 4222 H 392.429 6.06576 -0.699871 0
M  V30 4223 H 393.843 5.04248 -2.72776 0
M  V30 4224 H 392.24 4.87405 -3.50081 0
M  V30 4225 H 393.31 3.46466 -3.39248 0
M  V30 4226 N 394.653 0.992116 1.22453 0
M  V30 4227 C 395.601 0.534644 2.26372 0
M  V30 4228 C 396.595 -0.414293 1.64256 0
M  V30 4229 O 397.801 -0.286899 1.77699 0
M  V30 4230 H 394.176 0.154502 0.735957 0
M  V30 4231 H 396.147 1.42256 2.62309 0
M  V30 4232 C 394.896 -0.135815 3.47435 0
M  V30 4233 H 394.219 0.585311 3.95492 0
M  V30 4234 H 395.659 -0.419374 4.21921 0
M  V30 4235 C 394.118 -1.37089 3.07747 0
M  V30 4236 O 394.648 -2.46629 3.17076 0
M  V30 4237 N 392.854 -1.24585 2.62539 0
M  V30 4238 H 392.401 -0.354542 2.55149 0
M  V30 4239 H 392.359 -2.07327 2.36353 0
M  V30 4240 N 396.131 -1.37776 0.765217 0
M  V30 4241 C 397.078 -2.30342 0.145274 0
M  V30 4242 C 398.048 -1.5077 -0.696971 0
M  V30 4243 O 399.233 -1.79362 -0.650689 0
M  V30 4244 C 396.373 -3.37227 -0.732939 0
M  V30 4245 C 395.486 -4.31819 0.125199 0
M  V30 4246 C 394.621 -5.25777 -0.757107 0
M  V30 4247 C 393.66 -6.12012 0.103963 0
M  V30 4248 N 392.797 -6.98232 -0.735953 0
M  V30 4249 H 397.637 -2.8278 0.940195 0
M  V30 4250 H 395.174 -1.39211 0.475255 0
M  V30 4251 H 397.132 -3.97818 -1.25686 0
M  V30 4252 H 395.762 -2.86171 -1.49353 0
M  V30 4253 H 394.814 -3.7259 0.766865 0
M  V30 4254 H 396.126 -4.92509 0.789683 0
M  V30 4255 H 395.28 -5.91541 -1.34776 0
M  V30 4256 H 394.019 -4.65481 -1.45529 0
M  V30 4257 H 393.024 -5.45233 0.707197 0
M  V30 4258 H 394.249 -6.74379 0.799381 0
M  V30 4259 H 392.195 -6.40472 -1.41887 0
M  V30 4260 H 392.112 -7.55891 -0.128624 0
M  V30 4261 H 393.38 -7.68393 -1.31121 0
M  V30 4262 N 397.609 -0.515225 -1.4894 0
M  V30 4263 C 398.519 0.259774 -2.33157 0
M  V30 4264 C 399.535 0.953501 -1.45548 0
M  V30 4265 O 400.711 0.931735 -1.78552 0
M  V30 4266 C 397.776 1.30193 -3.21326 0
M  V30 4267 C 396.837 0.620129 -4.24797 0
M  V30 4268 C 396.07 1.61263 -5.08753 0
M  V30 4269 O 396.293 2.84389 -4.94448 0
M  V30 4270 O 395.227 1.16013 -5.90614 0
M  V30 4271 H 399.053 -0.429932 -3.00641 0
M  V30 4272 H 396.638 -0.276346 -1.46822 0
M  V30 4273 H 398.52 1.90455 -3.75905 0
M  V30 4274 H 397.195 1.97431 -2.56521 0
M  V30 4275 H 396.102 -0.0226019 -3.74093 0
M  V30 4276 H 397.435 -0.0100493 -4.92199 0
M  V30 4277 N 399.087 1.5561 -0.249682 0
M  V30 4278 C 400.498 1.84979 0.252949 0
M  V30 4279 C 400.849 1.17153 1.57384 0
M  V30 4280 O 399.974 0.450884 2.11651 0
M  V30 4281 C 400.569 3.35584 0.465732 0
M  V30 4282 C 399.128 3.65169 0.912624 0
M  V30 4283 C 398.275 2.77299 -0.00859085 0
M  V30 4284 H 401.226 1.51513 -0.47217 0
M  V30 4285 H 401.247 3.57313 1.30795 0
M  V30 4286 H 400.759 3.8492 -0.49579 0
M  V30 4287 H 398.86 3.21312 1.88652 0
M  V30 4288 H 398.973 4.72912 0.767559 0
M  V30 4289 H 397.337 2.49678 0.50327 0
M  V30 4290 H 398.12 3.29442 -0.965537 0
M  V30 4291 N 400.565 -0.0233959 1.57583 0
M  V30 4292 C 401.79 -0.728376 1.94189 0
M  V30 4293 C 402.215 -1.67793 0.850119 0
M  V30 4294 O 401.573 -1.80262 -0.19371 0
M  V30 4295 C 401.621 -1.45669 3.29868 0
M  V30 4296 O 400.725 -2.57013 3.22518 0
M  V30 4297 H 400.066 -0.195493 0.63457 0
M  V30 4298 H 402.596 0.0228214 2.04587 0
M  V30 4299 H 402.606 -1.82535 3.6489 0
M  V30 4300 H 401.281 -0.760314 4.08891 0
M  V30 4301 H 399.858 -2.22648 2.99136 0
M  V30 4302 N 402.043 -1.548 -0.295768 0
M  V30 4303 C 403.29 -1.74329 -1.03032 0
M  V30 4304 C 403.618 -0.531915 -1.87085 0
M  V30 4305 O 402.873 0.486052 -1.89568 0
M  V30 4306 C 403.172 -2.98797 -1.961 0
M  V30 4307 C 402.838 -4.32356 -1.2798 0
M  V30 4308 C 401.5 -4.68661 -1.09135 0
M  V30 4309 C 403.852 -5.15128 -0.793243 0
M  V30 4310 C 401.18 -5.85312 -0.403269 0
M  V30 4311 C 403.532 -6.32488 -0.118854 0
M  V30 4312 C 402.196 -6.6745 0.0815043 0
M  V30 4313 H 401.466 -0.637916 -0.37702 0
M  V30 4314 H 404.113 -1.8906 -0.304696 0
M  V30 4315 H 402.418 -2.78869 -2.75207 0
M  V30 4316 H 404.115 -3.11102 -2.53015 0
M  V30 4317 H 400.705 -4.03808 -1.43655 0
M  V30 4318 H 404.889 -4.87575 -0.92653 0
M  V30 4319 H 400.145 -6.1094 -0.237098 0
M  V30 4320 H 404.319 -6.95892 0.266035 0
M  V30 4321 H 401.946 -7.57695 0.616685 0
M  V30 4322 N 403.521 0.559213 -1.47345 0
M  V30 4323 C 404.937 0.884943 -1.32819 0
M  V30 4324 C 405.137 1.98988 -0.317173 0
M  V30 4325 O 404.193 2.51031 0.272011 0
M  V30 4326 C 405.506 1.28007 -2.72093 0
M  V30 4327 C 407.054 1.39161 -2.80363 0
M  V30 4328 C 407.529 1.82031 -4.20272 0
M  V30 4329 N 409.02 1.89185 -4.22804 0
M  V30 4330 C 409.755 2.2368 -5.27973 0
M  V30 4331 N 409.251 2.56802 -6.43447 0
M  V30 4332 N 411.044 2.24436 -5.15349 0
M  V30 4333 H 403.195 -0.170304 -2.11716 0
M  V30 4334 H 405.458 -0.0135247 -0.947904 0
M  V30 4335 H 405.164 0.542027 -3.47498 0
M  V30 4336 H 405.038 2.23665 -3.03733 0
M  V30 4337 H 407.425 2.12048 -2.05231 0
M  V30 4338 H 407.506 0.41696 -2.52379 0
M  V30 4339 H 407.15 1.09715 -4.95908 0
M  V30 4340 H 407.08 2.80495 -4.45679 0
M  V30 4341 H 409.571 1.65982 -3.39497 0
M  V30 4342 H 409.884 2.82144 -7.19454 0
M  V30 4343 H 408.229 2.54387 -6.46771 0
M  V30 4344 H 411.42 1.97998 -4.24163 0
M  V30 4345 H 411.593 2.50989 -5.97418 0
M  V30 4346 N 404.999 1.35443 0.805782 0
M  V30 4347 C 406.41 1.25768 1.37983 0
M  V30 4348 C 406.761 -0.10958 1.95894 0
M  V30 4349 O 405.886 -1.01056 1.91355 0
M  V30 4350 C 406.481 2.27727 2.5085 0
M  V30 4351 C 405.04 2.2179 3.04115 0
M  V30 4352 C 404.187 2.13393 1.77084 0
M  V30 4353 H 407.138 1.4656 0.608752 0
M  V30 4354 H 407.159 1.90422 3.29424 0
M  V30 4355 H 406.671 3.27227 2.08671 0
M  V30 4356 H 404.772 1.25703 3.50756 0
M  V30 4357 H 404.885 3.13788 3.62042 0
M  V30 4358 H 403.249 1.59384 1.98668 0
M  V30 4359 H 404.032 3.14755 1.37056 0
M  V30 4360 N 406.477 -1.02803 1.19454 0
M  V30 4361 C 407.705 -1.79841 1.02297 0
M  V30 4362 C 408.12 -1.83879 -0.428259 0
M  V30 4363 O 407.477 -1.28345 -1.29745 0
M  V30 4364 C 407.528 -3.24852 1.58598 0
M  V30 4365 O 407.249 -3.21097 2.98041 0
M  V30 4366 C 408.75 -4.18485 1.46236 0
M  V30 4367 H 405.97 -0.565936 0.360496 0
M  V30 4368 H 408.514 -1.2948 1.58288 0
M  V30 4369 H 406.669 -3.72401 1.06753 0
M  V30 4370 H 407.083 -4.12033 3.24545 0
M  V30 4371 H 408.557 -5.18121 1.90407 0
M  V30 4372 H 409.034 -4.37254 0.41301 0
M  V30 4373 H 409.64 -3.76811 1.97215 0
M  V30 4374 N 407.956 -0.998596 -1.21925 0
M  V30 4375 C 408.919 -0.558679 -2.22287 0
M  V30 4376 C 409.919 0.361525 -1.56683 0
M  V30 4377 O 411.109 0.152695 -1.73529 0
M  V30 4378 C 408.241 0.18661 -3.40389 0
M  V30 4379 H 409.434 -1.4463 -2.62721 0
M  V30 4380 H 406.987 -0.786413 -1.35075 0
M  V30 4381 H 407.722 1.08996 -3.05435 0
M  V30 4382 H 407.507 -0.474188 -3.89222 0
M  V30 4383 H 408.997 0.482367 -4.14805 0
M  V30 4384 N 409.434 1.37368 -0.772513 0
M  V30 4385 C 410.381 2.30262 -0.157488 0
M  V30 4386 C 411.351 1.51137 0.688965 0
M  V30 4387 O 412.536 1.79704 0.641168 0
M  V30 4388 C 409.676 3.37611 0.715045 0
M  V30 4389 C 408.789 4.31746 -0.148098 0
M  V30 4390 C 407.924 5.26171 0.729213 0
M  V30 4391 C 406.963 6.11948 -0.136418 0
M  V30 4392 N 406.1 6.98613 0.698914 0
M  V30 4393 H 410.94 2.82277 -0.955179 0
M  V30 4394 H 408.477 1.38957 -0.482631 0
M  V30 4395 H 410.435 3.98479 1.23575 0
M  V30 4396 H 409.065 2.86959 1.47833 0
M  V30 4397 H 408.117 3.72178 -0.786613 0
M  V30 4398 H 409.429 4.92084 -0.81579 0
M  V30 4399 H 408.583 5.92247 1.31637 0
M  V30 4400 H 407.322 4.66246 1.43059 0
M  V30 4401 H 406.327 5.4485 -0.736102 0
M  V30 4402 H 407.552 6.73945 -0.835134 0
M  V30 4403 H 405.498 6.41215 1.38489 0
M  V30 4404 H 405.415 7.55948 0.0885358 0
M  V30 4405 H 406.683 7.69077 1.27044 0
M  V30 4406 N 410.912 0.523116 1.48665 0
M  V30 4407 C 411.822 -0.247406 2.33292 0
M  V30 4408 C 412.838 -0.945769 1.46052 0
M  V30 4409 O 414.014 -0.922253 1.79043 0
M  V30 4410 C 411.079 -1.28487 3.22012 0
M  V30 4411 C 410.14 -0.597592 4.2512 0
M  V30 4412 C 409.373 -1.58563 5.09601 0
M  V30 4413 O 409.596 -2.81763 4.95949 0
M  V30 4414 O 408.53 -1.12879 5.91221 0
M  V30 4415 H 412.356 0.445869 3.00409 0
M  V30 4416 H 409.941 0.284128 1.46673 0
M  V30 4417 H 411.823 -1.88459 3.7691 0
M  V30 4418 H 410.498 -1.96068 2.57564 0
M  V30 4419 H 409.405 0.0424407 3.74076 0
M  V30 4420 H 410.738 0.0361517 4.92187 0
M  V30 4421 N 412.39 -1.55475 0.257931 0
M  V30 4422 C 413.32 -2.24815 -0.630912 0
M  V30 4423 C 414.301 -1.23224 -1.17259 0
M  V30 4424 O 415.486 -1.51904 -1.20991 0
M  V30 4425 C 412.616 -2.95609 -1.82298 0
M  V30 4426 C 411.57 -4.03982 -1.41359 0
M  V30 4427 C 410.896 -4.6226 -2.68738 0
M  V30 4428 C 412.196 -5.19109 -0.57648 0
M  V30 4429 H 413.89 -2.99354 -0.0526878 0
M  V30 4430 H 411.436 -1.4398 -0.023901 0
M  V30 4431 H 413.389 -3.42822 -2.45054 0
M  V30 4432 H 412.113 -2.18577 -2.42676 0
M  V30 4433 H 410.772 -3.57555 -0.809324 0
M  V30 4434 H 410.42 -3.81915 -3.27338 0
M  V30 4435 H 410.12 -5.35424 -2.42065 0
M  V30 4436 H 411.644 -5.12212 -3.32372 0
M  V30 4437 H 413.058 -5.62479 -1.10861 0
M  V30 4438 H 411.455 -5.98729 -0.405351 0
M  V30 4439 H 412.525 -4.83174 0.408776 0
M  V30 4440 N 413.868 0.0150385 -1.57593 0
M  V30 4441 C 414.798 1.01047 -2.10503 0
M  V30 4442 C 415.779 1.36816 -1.01071 0
M  V30 4443 O 416.964 1.45455 -1.28672 0
M  V30 4444 C 414.094 2.30708 -2.59598 0
M  V30 4445 C 413.048 2.09142 -3.73421 0
M  V30 4446 C 412.374 3.44685 -4.08774 0
M  V30 4447 C 413.674 1.46619 -5.01298 0
M  V30 4448 H 415.368 0.569978 -2.93925 0
M  V30 4449 H 412.914 0.272724 -1.41394 0
M  V30 4450 H 414.867 3.00687 -2.95238 0
M  V30 4451 H 413.591 2.76843 -1.73279 0
M  V30 4452 H 412.25 1.41592 -3.38153 0
M  V30 4453 H 411.898 3.88495 -3.195 0
M  V30 4454 H 411.598 3.31077 -4.8545 0
M  V30 4455 H 413.122 4.16004 -4.4696 0
M  V30 4456 H 414.536 2.06535 -5.34805 0
M  V30 4457 H 412.933 1.43544 -5.82679 0
M  V30 4458 H 414.003 0.433611 -4.82957 0
M  V30 4459 N 415.346 1.54954 0.287554 0
M  V30 4460 C 416.293 1.86834 1.35505 0
M  V30 4461 C 417.263 0.718452 1.49758 0
M  V30 4462 O 418.448 0.968358 1.644 0
M  V30 4463 C 415.588 2.13303 2.71286 0
M  V30 4464 C 414.701 3.40883 2.65373 0
M  V30 4465 C 413.836 3.57125 3.93236 0
M  V30 4466 C 412.875 4.78449 3.81776 0
M  V30 4467 N 412.012 4.91426 5.01443 0
M  V30 4468 H 416.852 2.77889 1.07619 0
M  V30 4469 H 414.389 1.37593 0.520241 0
M  V30 4470 H 416.347 2.26646 3.50267 0
M  V30 4471 H 414.977 1.25499 2.97405 0
M  V30 4472 H 414.029 3.36088 1.78182 0
M  V30 4473 H 415.341 4.29993 2.52799 0
M  V30 4474 H 414.495 3.70207 4.80658 0
M  V30 4475 H 413.234 2.66173 4.0866 0
M  V30 4476 H 412.239 4.65386 2.92738 0
M  V30 4477 H 413.464 5.70822 3.67884 0
M  V30 4478 H 411.41 4.03401 5.17304 0
M  V30 4479 H 411.327 5.74559 4.91343 0
M  V30 4480 H 412.595 5.08879 5.90477 0
M  V30 4481 N 416.824 -0.551391 1.4764 0
M  V30 4482 C 417.774 -1.65362 1.56969 0
M  V30 4483 C 418.758 -1.55098 0.428189 0
M  V30 4484 O 419.95 -1.63481 0.678441 0
M  V30 4485 C 417.079 -3.04129 1.59249 0
M  V30 4486 C 416.165 -3.19576 2.78804 0
M  V30 4487 N 416.556 -3.05067 4.03445 0
M  V30 4488 C 414.854 -3.50588 2.75688 0
M  V30 4489 C 415.555 -3.2336 4.83543 0
M  V30 4490 N 414.531 -3.4996 4.15968 0
M  V30 4491 H 418.333 -1.52722 2.51104 0
M  V30 4492 H 415.847 -0.756303 1.43714 0
M  V30 4493 H 417.844 -3.83278 1.64024 0
M  V30 4494 H 416.504 -3.17877 0.662148 0
M  V30 4495 H 417.515 -2.82273 4.34215 0
M  V30 4496 H 414.192 -3.70827 1.91817 0
M  V30 4497 H 415.582 -3.17061 5.92387 0
M  V30 4498 N 418.302 -1.35869 -0.798587 0
M  V30 4499 C 419.249 -1.29446 -1.91082 0
M  V30 4500 C 420.219 -0.16487 -1.6528 0
M  V30 4501 O 421.404 -0.349888 -1.87564 0
M  V30 4502 C 418.544 -1.0804 -3.27752 0
M  V30 4503 C 417.657 -2.29993 -3.65687 0
M  V30 4504 C 416.792 -2.01673 -4.91428 0
M  V30 4505 C 415.831 -3.19636 -5.22015 0
M  V30 4506 N 414.968 -2.91039 -6.38937 0
M  V30 4507 H 419.808 -2.24553 -1.95907 0
M  V30 4508 H 417.345 -1.11615 -0.958148 0
M  V30 4509 H 419.303 -0.936586 -4.06551 0
M  V30 4510 H 417.933 -0.16592 -3.22373 0
M  V30 4511 H 416.985 -2.55211 -2.82085 0
M  V30 4512 H 418.297 -3.18052 -3.84245 0
M  V30 4513 H 417.451 -1.84168 -5.78072 0
M  V30 4514 H 416.19 -1.10911 -4.74921 0
M  V30 4515 H 415.195 -3.37709 -4.33858 0
M  V30 4516 H 416.42 -4.11211 -5.40447 0
M  V30 4517 H 414.366 -2.0288 -6.2384 0
M  V30 4518 H 414.283 -3.72635 -6.57784 0
M  V30 4519 H 415.551 -2.77093 -7.28587 0
M  V30 4520 N 419.78 1.02168 -1.19998 0
M  V30 4521 C 421.027 1.75685 -1.00702 0
M  V30 4522 C 421.355 1.88947 0.461426 0
M  V30 4523 O 420.61 1.40832 1.35885 0
M  V30 4524 C 420.909 3.18081 -1.62969 0
M  V30 4525 C 420.575 3.24809 -3.12746 0
M  V30 4526 C 419.237 3.26352 -3.53621 0
M  V30 4527 C 421.589 3.23379 -4.08749 0
M  V30 4528 C 418.917 3.2413 -4.89036 0
M  V30 4529 C 421.269 3.22698 -5.44104 0
M  V30 4530 C 419.933 3.22542 -5.84399 0
M  V30 4531 H 419.203 0.642877 -0.368496 0
M  V30 4532 H 421.85 1.19865 -1.49348 0
M  V30 4533 H 420.155 3.77027 -1.06573 0
M  V30 4534 H 421.852 3.73648 -1.45561 0
M  V30 4535 H 418.442 3.2434 -2.80181 0
M  V30 4536 H 422.626 3.21361 -3.78207 0
M  V30 4537 H 417.882 3.22338 -5.19527 0
M  V30 4538 H 422.056 3.20543 -6.18244 0
M  V30 4539 H 419.683 3.20575 -6.89301 0
M  V30 4540 N 421.258 1.00505 1.21394 0
M  V30 4541 C 422.507 0.683159 1.89778 0
M  V30 4542 C 422.82 -0.789471 1.7896 0
M  V30 4543 O 424.026 -1.22344 2.42372 0
M  V30 4544 C 422.482 1.17146 3.40301 0
M  V30 4545 C 422.09 2.67017 3.5973 0
M  V30 4546 C 423.834 0.924461 4.14311 0
M  V30 4547 C 421.741 3.09387 5.04017 0
M  V30 4548 H 420.671 0.25183 0.710702 0
M  V30 4549 H 423.322 1.21622 1.37406 0
M  V30 4550 H 421.704 0.566451 3.91928 0
M  V30 4551 H 422.878 3.32968 3.18542 0
M  V30 4552 H 421.193 2.89732 2.99073 0
M  V30 4553 H 423.79 1.21658 5.20676 0
M  V30 4554 H 424.133 -0.139286 4.16067 0
M  V30 4555 H 424.666 1.49226 3.6875 0
M  V30 4556 H 421.405 4.14989 5.07409 0
M  V30 4557 H 420.925 2.48149 5.46061 0
M  V30 4558 H 422.604 3.01371 5.72525 0
M  V30 4559 N 422.737 -1.36956 0.779787 0
M  V30 4560 C 423.667 -2.32761 0.185651 0
M  V30 4561 C 424.648 -1.56177 -0.673989 0
M  V30 4562 O 425.833 -1.84378 -0.609797 0
M  V30 4563 C 422.963 -3.40418 -0.687964 0
M  V30 4564 C 421.917 -4.27941 0.0710102 0
M  V30 4565 C 421.243 -5.26681 -0.922573 0
M  V30 4566 C 422.543 -5.07006 1.25467 0
M  V30 4567 H 424.237 -2.82698 0.986008 0
M  V30 4568 H 421.783 -1.3592 0.475592 0
M  V30 4569 H 423.736 -4.06423 -1.11348 0
M  V30 4570 H 422.46 -2.89025 -1.52093 0
M  V30 4571 H 421.119 -3.63478 0.47739 0
M  V30 4572 H 420.767 -4.71565 -1.7503 0
M  V30 4573 H 420.467 -5.86103 -0.419237 0
M  V30 4574 H 421.991 -5.9556 -1.34686 0
M  V30 4575 H 423.405 -5.66105 0.905401 0
M  V30 4576 H 421.802 -5.75793 1.69063 0
M  V30 4577 H 422.872 -4.3921 2.05481 0
M  V30 4578 N 424.215 -0.530993 -1.48385 0
M  V30 4579 C 425.631 -0.188919 -1.58478 0
M  V30 4580 C 425.831 1.30786 -1.53288 0
M  V30 4581 O 424.887 2.08619 -1.42248 0
M  V30 4582 C 426.2 -0.792343 -2.90073 0
M  V30 4583 C 427.748 -0.76117 -3.03604 0
M  V30 4584 C 428.223 -1.34319 -4.37861 0
M  V30 4585 N 429.714 -1.3052 -4.44431 0
M  V30 4586 C 430.449 -1.72543 -5.46824 0
M  V30 4587 N 429.945 -2.22299 -6.56167 0
M  V30 4588 N 431.738 -1.63773 -5.37712 0
M  V30 4589 H 423.889 -1.50377 -1.50002 0
M  V30 4590 H 426.152 -0.625559 -0.712306 0
M  V30 4591 H 425.858 -1.84323 -2.99529 0
M  V30 4592 H 425.732 -0.270026 -3.76232 0
M  V30 4593 H 428.119 0.280957 -2.93759 0
M  V30 4594 H 428.2 -1.32097 -2.19053 0
M  V30 4595 H 427.844 -2.38425 -4.4846 0
M  V30 4596 H 427.774 -0.759064 -5.21101 0
M  V30 4597 H 430.265 -0.940973 -3.65997 0
M  V30 4598 H 430.578 -2.52356 -7.30436 0
M  V30 4599 H 428.923 -2.26293 -6.57127 0
M  V30 4600 H 432.114 -1.24698 -4.51185 0
M  V30 4601 H 432.287 -1.96844 -6.17379 0
M  V30 4602 N 425.693 1.55336 -0.266172 0
M  V30 4603 C 426.641 2.23587 0.641228 0
M  V30 4604 C 427.635 1.22986 1.16494 0
M  V30 4605 O 428.841 1.40943 1.1196 0
M  V30 4606 H 425.216 0.717452 0.225315 0
M  V30 4607 H 427.187 2.9837 0.0426561 0
M  V30 4608 C 425.936 2.96369 1.81826 0
M  V30 4609 H 425.259 3.73563 1.42445 0
M  V30 4610 H 426.699 3.47459 2.42998 0
M  V30 4611 C 425.158 2.0133 2.70125 0
M  V30 4612 O 425.688 1.55875 3.70224 0
M  V30 4613 N 423.894 1.6802 2.37102 0
M  V30 4614 H 423.441 2.05181 1.55751 0
M  V30 4615 H 423.399 1.047 2.96454 0
M  V30 4616 N 427.171 -0.0066808 1.57599 0
M  V30 4617 C 428.134 -0.985035 2.06953 0
M  V30 4618 C 429.134 -1.27663 0.977687 0
M  V30 4619 O 430.324 -1.22293 1.24057 0
M  V30 4620 C 427.456 -2.3118 2.50536 0
M  V30 4621 H 428.649 -0.558255 2.94658 0
M  V30 4622 H 426.202 -0.254011 1.54222 0
M  V30 4623 H 426.937 -2.78561 1.66054 0
M  V30 4624 H 426.722 -2.11338 3.3027 0
M  V30 4625 H 428.212 -3.01377 2.8907 0
M  V30 4626 N 428.649 -1.55105 -0.279332 0
M  V30 4627 C 429.596 -1.8755 -1.34513 0
M  V30 4628 C 430.566 -0.726384 -1.49375 0
M  V30 4629 O 431.751 -0.977063 -1.63884 0
M  V30 4630 C 428.891 -2.14738 -2.70151 0
M  V30 4631 C 428.004 -3.42285 -2.63562 0
M  V30 4632 C 427.139 -3.59206 -3.91337 0
M  V30 4633 C 426.178 -4.80467 -3.79233 0
M  V30 4634 N 425.315 -4.94079 -4.98829 0
M  V30 4635 H 430.155 -2.78456 -1.06143 0
M  V30 4636 H 427.692 -1.37867 -0.512936 0
M  V30 4637 H 429.65 -2.28501 -3.49061 0
M  V30 4638 H 428.28 -1.27075 -2.96735 0
M  V30 4639 H 427.332 -3.37029 -1.76397 0
M  V30 4640 H 428.644 -4.31328 -2.50515 0
M  V30 4641 H 427.798 -3.72751 -4.78687 0
M  V30 4642 H 426.537 -2.68337 -4.07243 0
M  V30 4643 H 425.542 -4.66932 -2.90266 0
M  V30 4644 H 426.767 -5.72765 -3.64852 0
M  V30 4645 H 424.713 -4.06139 -5.15158 0
M  V30 4646 H 424.63 -5.77156 -4.8829 0
M  V30 4647 H 425.898 -5.12003 -5.8777 0
M  V30 4648 N 430.127 0.543554 -1.4793 0
M  V30 4649 C 431.074 1.64942 -1.6144 0
M  V30 4650 C 432.044 1.59692 -0.456903 0
M  V30 4651 O 433.229 1.78321 -0.678688 0
M  V30 4652 C 430.369 3.03238 -1.64744 0
M  V30 4653 C 429.482 3.18823 -2.91506 0
M  V30 4654 C 428.617 4.47599 -2.86057 0
M  V30 4655 C 427.656 4.56664 -4.07584 0
M  V30 4656 N 426.793 5.76811 -4.00292 0
M  V30 4657 H 431.633 1.52733 -2.55884 0
M  V30 4658 H 429.17 0.7438 -1.2691 0
M  V30 4659 H 431.128 3.83339 -1.64641 0
M  V30 4660 H 429.758 3.1425 -0.738017 0
M  V30 4661 H 428.81 2.32064 -3.01414 0
M  V30 4662 H 430.122 3.21384 -3.81463 0
M  V30 4663 H 429.276 5.35975 -2.84281 0
M  V30 4664 H 428.015 4.47538 -1.93807 0
M  V30 4665 H 427.02 3.66697 -4.09651 0
M  V30 4666 H 428.245 4.58474 -5.00978 0
M  V30 4667 H 426.191 5.77673 -3.10853 0
M  V30 4668 H 426.108 5.80808 -4.8394 0
M  V30 4669 H 427.376 6.67512 -4.02553 0
M  V30 4670 N 431.605 1.3629 0.791371 0
M  V30 4671 C 432.833 1.33562 1.58016 0
M  V30 4672 C 433.248 -0.0835616 1.88615 0
M  V30 4673 O 432.605 -1.0399 1.49974 0
M  V30 4674 C 432.656 2.15517 2.90232 0
M  V30 4675 O 432.377 3.51902 2.60953 0
M  V30 4676 C 433.878 2.20546 3.84544 0
M  V30 4677 H 431.098 0.458226 0.490173 0
M  V30 4678 H 433.642 1.79361 0.982345 0
M  V30 4679 H 431.797 1.73278 3.46487 0
M  V30 4680 H 432.211 3.94644 3.4548 0
M  V30 4681 H 433.685 2.82252 4.74382 0
M  V30 4682 H 434.162 1.20838 4.2225 0
M  V30 4683 H 434.768 2.63013 3.34222 0
M  V30 4684 N 433.083 -1.0153 1.20538 0
M  V30 4685 C 434.308 -1.79283 1.04271 0
M  V30 4686 C 434.733 -1.8372 -0.403544 0
M  V30 4687 O 434.091 -1.27321 -1.2907 0
M  V30 4688 C 434.139 -3.21535 1.63241 0
M  V30 4689 O 433.243 -4.03099 0.870908 0
M  V30 4690 H 432.584 -0.55293 0.367647 0
M  V30 4691 H 435.114 -1.27696 1.59859 0
M  V30 4692 H 435.124 -3.72243 1.6703 0
M  V30 4693 H 433.799 -3.1762 2.68497 0
M  V30 4694 H 432.376 -3.61693 0.907323 0
M  V30 4695 N 434.561 -1.01147 -1.20859 0
M  V30 4696 C 435.791 -0.715872 -1.93801 0
M  V30 4697 C 436.199 0.726592 -1.74692 0
M  V30 4698 O 435.542 1.50397 -1.05482 0
M  V30 4699 C 435.604 -0.965269 -3.46299 0
M  V30 4700 C 435.268 -2.39584 -3.89164 0
M  V30 4701 C 436.265 -3.3764 -3.95342 0
M  V30 4702 C 433.95 -2.73522 -4.21297 0
M  V30 4703 C 435.944 -4.67698 -4.33056 0
M  V30 4704 C 433.631 -4.03794 -4.58687 0
M  V30 4705 C 434.629 -5.00693 -4.64538 0
M  V30 4706 O 434.317 -6.28635 -5.01072 0
M  V30 4707 H 434.049 -0.262524 -0.622942 0
M  V30 4708 H 436.603 -1.35413 -1.54443 0
M  V30 4709 H 434.833 -0.269847 -3.85757 0
M  V30 4710 H 436.522 -0.662051 -4.00464 0
M  V30 4711 H 437.288 -3.12757 -3.70686 0
M  V30 4712 H 433.167 -1.9879 -4.15937 0
M  V30 4713 H 436.711 -5.4333 -4.37537 0
M  V30 4714 H 432.608 -4.28459 -4.82797 0
M  V30 4715 H 433.376 -6.32847 -5.19083 0
M  V30 4716 N 436.039 1.36541 -0.78704 0
M  V30 4717 C 436.969 2.32659 -0.197992 0
M  V30 4718 C 437.95 1.56533 0.665697 0
M  V30 4719 O 439.135 1.84698 0.60001 0
M  V30 4720 C 436.265 3.40778 0.669901 0
M  V30 4721 C 435.219 4.27897 -0.0937039 0
M  V30 4722 C 434.545 5.27163 0.894629 0
M  V30 4723 C 435.845 5.06334 -1.28154 0
M  V30 4724 H 437.539 2.82171 -1.00099 0
M  V30 4725 H 435.085 1.35665 -0.482793 0
M  V30 4726 H 437.038 4.07008 1.09191 0
M  V30 4727 H 435.762 2.89827 1.50558 0
M  V30 4728 H 434.421 3.6322 -0.49666 0
M  V30 4729 H 434.069 4.72486 1.72527 0
M  V30 4730 H 433.769 5.86317 0.388149 0
M  V30 4731 H 435.293 5.96266 1.31525 0
M  V30 4732 H 436.707 5.65617 -0.93541 0
M  V30 4733 H 435.104 5.74888 -1.72115 0
M  V30 4734 H 436.174 4.38114 -2.07807 0
M  V30 4735 N 437.518 0.538854 1.48102 0
M  V30 4736 C 438.746 0.0123136 2.06896 0
M  V30 4737 C 439.161 -1.27312 1.39417 0
M  V30 4738 O 438.518 -1.75949 0.484582 0
M  V30 4739 C 438.569 -0.206118 3.60912 0
M  V30 4740 O 438.29 1.0284 4.25859 0
M  V30 4741 C 439.791 -0.772033 4.36526 0
M  V30 4742 H 437.011 0.0375239 0.66995 0
M  V30 4743 H 439.555 0.747032 1.90367 0
M  V30 4744 H 437.71 -0.89091 3.77017 0
M  V30 4745 H 438.124 0.814654 5.18135 0
M  V30 4746 H 439.598 -0.874251 5.45033 0
M  V30 4747 H 440.075 -1.77904 4.01555 0
M  V30 4748 H 440.681 -0.123526 4.25121 0
M  V30 4749 N 438.996 -1.55193 0.274407 0
M  V30 4750 C 439.906 -2.26164 -0.623473 0
M  V30 4751 C 440.922 -1.28729 -1.17068 0
M  V30 4752 O 442.098 -1.61663 -1.20112 0
M  V30 4753 C 439.163 -2.96833 -1.7914 0
M  V30 4754 C 438.224 -4.09745 -1.28093 0
M  V30 4755 C 437.457 -4.77034 -2.3932 0
M  V30 4756 O 437.68 -4.4353 -3.5866 0
M  V30 4757 O 436.614 -5.64996 -2.07516 0
M  V30 4758 H 440.44 -3.03661 -0.0485661 0
M  V30 4759 H 438.025 -1.49341 0.0418382 0
M  V30 4760 H 439.907 -3.41248 -2.4724 0
M  V30 4761 H 438.582 -2.22253 -2.35341 0
M  V30 4762 H 437.489 -3.69787 -0.566416 0
M  V30 4763 H 438.822 -4.86224 -0.764683 0
M  V30 4764 N 440.474 -0.00167713 -1.576 0
M  V30 4765 C 441.404 0.988091 -2.11563 0
M  V30 4766 C 442.385 1.35736 -1.02517 0
M  V30 4767 O 443.57 1.44082 -1.30208 0
M  V30 4768 C 440.7 2.27941 -2.62031 0
M  V30 4769 C 439.654 2.0517 -3.75619 0
M  V30 4770 C 438.98 3.4033 -4.12407 0
M  V30 4771 C 440.28 1.41294 -5.02825 0
M  V30 4772 H 441.974 0.538771 -2.94513 0
M  V30 4773 H 439.52 0.257712 -1.41675 0
M  V30 4774 H 441.473 2.97539 -2.9841 0
M  V30 4775 H 440.197 2.74989 -1.76205 0
M  V30 4776 H 438.856 1.37998 -3.39635 0
M  V30 4777 H 438.504 3.85085 -3.23603 0
M  V30 4778 H 438.204 3.25909 -4.88935 0
M  V30 4779 H 439.728 4.1124 -4.51347 0
M  V30 4780 H 441.142 2.00851 -5.36965 0
M  V30 4781 H 439.539 1.37356 -5.84169 0
M  V30 4782 H 440.609 0.382362 -4.8339 0
M  V30 4783 N 441.952 1.55251 0.271103 0
M  V30 4784 C 443.201 1.75151 1.00025 0
M  V30 4785 C 443.514 0.561041 1.87381 0
M  V30 4786 O 444.72 0.642506 2.63788 0
M  V30 4787 C 443.176 3.09999 1.82835 0
M  V30 4788 C 442.784 4.3662 1.00336 0
M  V30 4789 C 444.528 3.39249 2.55168 0
M  V30 4790 C 442.435 5.62506 1.82595 0
M  V30 4791 H 441.365 0.652877 0.377183 0
M  V30 4792 H 444.016 1.81708 0.255843 0
M  V30 4793 H 442.398 2.97485 2.61378 0
M  V30 4794 H 443.572 4.60055 0.261959 0
M  V30 4795 H 441.887 4.14527 0.394486 0
M  V30 4796 H 444.484 4.3051 3.1712 0
M  V30 4797 H 444.827 2.59467 3.2555 0
M  V30 4798 H 445.36 3.52869 1.83653 0
M  V30 4799 H 442.099 6.45041 1.16631 0
M  V30 4800 H 441.619 5.43211 2.54327 0
M  V30 4801 H 443.298 6.00875 2.39913 0
M  V30 4802 N 443.43 -0.535701 1.48216 0
M  V30 4803 C 444.707 -1.29683 1.46429 0
M  V30 4804 C 445.087 -2.10391 0.172852 0
M  V30 4805 O 444.435 -2.12282 -0.845488 0
M  V30 4806 C 444.645 -2.18313 2.72287 0
M  V30 4807 C 445.993 -2.78639 3.20383 0
M  V30 4808 O 447.017 -2.28604 2.73164 0
M  V30 4809 O 445.876 -3.69636 4.02531 0
M  V30 4810 H 442.97 -0.585026 0.584529 0
M  V30 4811 H 445.516 -0.552827 1.60443 0
M  V30 4812 H 444.288 -1.58421 3.57797 0
M  V30 4813 H 443.911 -2.99971 2.60966 0
M  V30 4814 N 444.908 -1.36708 -0.784132 0
M  V30 4815 C 446.324 -1.17237 -1.08294 0
M  V30 4816 C 446.524 -5.93947e-05 -2.015 0
M  V30 4817 O 445.58 0.663686 -2.43622 0
M  V30 4818 C 446.893 -2.48557 -1.69233 0
M  V30 4819 C 448.441 -2.54968 -1.8155 0
M  V30 4820 C 448.916 -3.86388 -2.45904 0
M  V30 4821 N 450.407 -3.87762 -2.53367 0
M  V30 4822 C 451.142 -4.86191 -3.03983 0
M  V30 4823 N 450.638 -5.95015 -3.54866 0
M  V30 4824 N 452.431 -4.73606 -3.02743 0
M  V30 4825 H 444.582 -2.11758 -0.16501 0
M  V30 4826 H 446.845 -0.93822 -0.135822 0
M  V30 4827 H 446.551 -3.34638 -1.08215 0
M  V30 4828 H 446.425 -2.64748 -2.68679 0
M  V30 4829 H 448.812 -1.69302 -2.41704 0
M  V30 4830 H 448.893 -2.42672 -0.80895 0
M  V30 4831 H 448.537 -4.72462 -1.86392 0
M  V30 4832 H 448.467 -3.95982 -3.4714 0
M  V30 4833 H 450.958 -3.09145 -2.17343 0
M  V30 4834 H 451.271 -6.66086 -3.91854 0
M  V30 4835 H 449.616 -5.98676 -3.53003 0
M  V30 4836 H 452.807 -3.87717 -2.62284 0
M  V30 4837 H 452.98 -5.50473 -3.41881 0
M  V30 4838 N 446.386 1.0089 -1.21074 0
M  V30 4839 C 447.616 1.77933 -1.04993 0
M  V30 4840 C 448.024 1.84847 0.403495 0
M  V30 4841 O 447.367 1.30606 1.29181 0
M  V30 4842 C 447.429 3.23541 -1.56722 0
M  V30 4843 C 447.093 3.40214 -3.05129 0
M  V30 4844 C 448.09 3.2881 -4.02716 0
M  V30 4845 C 445.775 3.65781 -3.44252 0
M  V30 4846 C 447.769 3.42732 -5.37414 0
M  V30 4847 C 445.456 3.79346 -4.79103 0
M  V30 4848 C 446.454 3.67827 -5.75493 0
M  V30 4849 O 446.142 3.80965 -7.07899 0
M  V30 4850 H 445.874 0.566157 -0.369381 0
M  V30 4851 H 448.428 1.27826 -1.60779 0
M  V30 4852 H 446.658 3.74766 -0.953285 0
M  V30 4853 H 448.347 3.82245 -1.36543 0
M  V30 4854 H 449.113 3.08986 -3.73835 0
M  V30 4855 H 444.992 3.73831 -2.69762 0
M  V30 4856 H 448.536 3.33658 -6.12632 0
M  V30 4857 H 444.433 3.98672 -5.07672 0
M  V30 4858 H 445.201 3.97937 -7.15254 0
M  V30 4859 N 447.864 1.01787 1.20321 0
M  V30 4860 C 448.811 0.589197 2.23153 0
M  V30 4861 C 449.781 -0.391367 1.61423 0
M  V30 4862 O 450.966 -0.290518 1.88575 0
M  V30 4863 C 448.106 -0.0650747 3.45039 0
M  V30 4864 C 447.219 0.960207 4.21194 0
M  V30 4865 C 446.354 0.276854 5.30478 0
M  V30 4866 C 445.393 1.2888 5.98378 0
M  V30 4867 N 444.53 0.632031 6.99249 0
M  V30 4868 H 449.37 1.47071 2.59179 0
M  V30 4869 H 446.907 0.736192 1.27352 0
M  V30 4870 H 448.865 -0.461552 4.14639 0
M  V30 4871 H 447.495 -0.910233 3.09701 0
M  V30 4872 H 446.547 1.47484 3.50646 0
M  V30 4873 H 447.859 1.72977 4.67847 0
M  V30 4874 H 447.013 -0.175056 6.06447 0
M  V30 4875 H 445.752 -0.525004 4.84866 0
M  V30 4876 H 444.757 1.75109 5.21169 0
M  V30 4877 H 445.982 2.09196 6.46076 0
M  V30 4878 H 443.928 -0.149935 6.55829 0
M  V30 4879 H 443.845 1.33964 7.44036 0
M  V30 4880 H 445.113 0.203755 7.79234 0
M  V30 4881 N 449.342 -1.36122 0.79427 0
M  V30 4882 C 450.758 -1.5232 0.476525 0
M  V30 4883 C 450.958 -1.74685 -1.00436 0
M  V30 4884 O 450.014 -1.78115 -1.78973 0
M  V30 4885 C 451.327 -2.70607 1.31119 0
M  V30 4886 C 452.875 -2.8448 1.30537 0
M  V30 4887 C 453.35 -4.05778 2.12387 0
M  V30 4888 N 454.841 -4.12933 2.09859 0
M  V30 4889 C 455.576 -5.05876 2.69957 0
M  V30 4890 N 455.072 -6.04232 3.38934 0
M  V30 4891 N 456.865 -4.98528 2.59665 0
M  V30 4892 H 449.016 -1.1986 1.75349 0
M  V30 4893 H 451.279 -0.585418 0.745647 0
M  V30 4894 H 450.985 -2.60619 2.36158 0
M  V30 4895 H 450.859 -3.64888 0.955843 0
M  V30 4896 H 453.246 -2.93927 0.262876 0
M  V30 4897 H 453.327 -1.91093 1.70051 0
M  V30 4898 H 452.971 -3.97092 3.1667 0
M  V30 4899 H 452.901 -4.98323 1.70242 0
M  V30 4900 H 455.392 -3.42515 1.59662 0
M  V30 4901 H 455.705 -6.71724 3.82109 0
M  V30 4902 H 454.05 -6.04443 3.43036 0
M  V30 4903 H 457.241 -4.20641 2.05375 0
M  V30 4904 H 457.414 -5.70773 3.06793 0
M  V30 4905 N 450.82 -0.546701 -1.47814 0
M  V30 4906 C 452.066 -0.0269594 -2.03382 0
M  V30 4907 C 452.421 1.30406 -1.41464 0
M  V30 4908 O 451.714 1.8332 -0.557151 0
M  V30 4909 C 451.908 0.134869 -3.57145 0
M  V30 4910 C 451.737 -1.17891 -4.33972 0
M  V30 4911 C 450.507 -1.74336 -4.74273 0
M  V30 4912 C 452.705 -2.09361 -4.69758 0
M  V30 4913 N 450.687 -2.99829 -5.35701 0
M  V30 4914 C 452.058 -3.19431 -5.31379 0
M  V30 4915 C 454.113 -2.09484 -4.51687 0
M  V30 4916 C 452.816 -4.2971 -5.76838 0
M  V30 4917 C 454.842 -3.18767 -4.98138 0
M  V30 4918 C 454.204 -4.27557 -5.59799 0
M  V30 4919 H 450.303 -0.0517733 -0.780284 0
M  V30 4920 H 452.887 -0.731673 -1.80429 0
M  V30 4921 H 451.058 0.80869 -3.79888 0
M  V30 4922 H 452.79 0.655726 -3.99352 0
M  V30 4923 H 449.545 -1.28265 -4.559 0
M  V30 4924 H 449.969 -3.63765 -5.70968 0
M  V30 4925 H 454.611 -1.26663 -4.03381 0
M  V30 4926 H 452.329 -5.13297 -6.24141 0
M  V30 4927 H 455.915 -3.19937 -4.85934 0
M  V30 4928 H 454.795 -5.10725 -5.95088 0
M  V30 4929 N 452.299 1.55045 -0.282633 0
M  V30 4930 C 453.246 2.22822 0.601566 0
M  V30 4931 C 454.216 1.20431 1.14392 0
M  V30 4932 O 455.401 1.48996 1.19184 0
M  V30 4933 C 452.541 2.95873 1.77632 0
M  V30 4934 C 451.654 4.12999 1.26711 0
M  V30 4935 C 450.789 4.73676 2.40426 0
M  V30 4936 C 449.828 5.82981 1.86545 0
M  V30 4937 N 448.965 6.3769 2.93762 0
M  V30 4938 H 453.805 2.97995 0.0169528 0
M  V30 4939 H 451.342 1.471 -0.00339964 0
M  V30 4940 H 453.3 3.36447 2.46697 0
M  V30 4941 H 451.93 2.2311 2.33285 0
M  V30 4942 H 450.982 3.77494 0.469314 0
M  V30 4943 H 452.294 4.91803 0.832518 0
M  V30 4944 H 451.448 5.17008 3.17471 0
M  V30 4945 H 450.187 3.94164 2.87203 0
M  V30 4946 H 449.192 5.39092 1.07983 0
M  V30 4947 H 450.417 6.64366 1.40694 0
M  V30 4948 H 448.363 5.61069 3.39908 0
M  V30 4949 H 448.28 7.11788 2.54744 0
M  V30 4950 H 449.548 6.8568 3.7076 0
M  V30 4951 N 453.777 0.010035 1.57597 0
M  V30 4952 C 454.74 -0.963029 2.07986 0
M  V30 4953 C 455.74 -1.26619 0.991173 0
M  V30 4954 O 456.93 -1.2097 1.25347 0
M  V30 4955 C 454.062 -2.2851 2.52974 0
M  V30 4956 H 455.255 -0.526971 2.95234 0
M  V30 4957 H 452.808 -0.237639 1.54483 0
M  V30 4958 H 453.543 -2.76784 1.69 0
M  V30 4959 H 453.328 -2.07824 3.32493 0
M  V30 4960 H 454.818 -2.98294 2.9225 0
M  V30 4961 N 455.255 -1.55392 -0.262866 0
M  V30 4962 C 456.165 -1.92077 -1.34698 0
M  V30 4963 C 457.181 -0.819227 -1.53508 0
M  V30 4964 O 458.357 -1.11921 -1.67439 0
M  V30 4965 C 455.422 -2.19407 -2.68443 0
M  V30 4966 C 454.483 -3.42905 -2.58292 0
M  V30 4967 C 453.716 -3.68921 -3.85659 0
M  V30 4968 O 453.939 -2.97275 -4.8681 0
M  V30 4969 O 452.873 -4.62455 -3.85252 0
M  V30 4970 H 456.699 -2.84384 -1.06581 0
M  V30 4971 H 454.284 -1.42069 -0.462264 0
M  V30 4972 H 456.166 -2.38365 -3.47506 0
M  V30 4973 H 454.841 -1.30282 -2.96325 0
M  V30 4974 H 453.748 -3.29272 -1.7757 0
M  V30 4975 H 455.081 -4.32282 -2.35358 0
M  V30 4976 N 456.733 0.527833 -1.48498 0
M  V30 4977 C 457.665 1.6482 -1.5927 0
M  V30 4978 C 458.678 1.55659 -0.476869 0
M  V30 4979 O 459.867 1.62081 -0.747806 0
M  V30 4980 C 456.967 3.0348 -1.50842 0
M  V30 4981 C 456.14 3.381 -2.77502 0
M  V30 4982 C 455.199 4.5605 -2.62497 0
M  V30 4983 O 454.225 4.59165 -3.36387 0
M  V30 4984 N 455.427 5.54353 -1.72257 0
M  V30 4985 H 458.192 1.56015 -2.55889 0
M  V30 4986 H 455.753 0.715152 -1.45249 0
M  V30 4987 H 457.745 3.80264 -1.38496 0
M  V30 4988 H 456.315 3.06352 -0.621887 0
M  V30 4989 H 455.535 2.50473 -3.04396 0
M  V30 4990 H 456.823 3.58017 -3.61527 0
M  V30 4991 H 456.221 5.54617 -1.11431 0
M  V30 4992 H 454.778 6.30347 -1.65849 0
M  V30 4993 N 458.211 1.37122 0.776871 0
M  V30 4994 C 459.436 1.354 1.57104 0
M  V30 4995 C 459.861 -0.0595562 1.88006 0
M  V30 4996 O 459.219 -1.03514 1.48844 0
M  V30 4997 C 459.267 2.19472 2.8612 0
M  V30 4998 O 458.371 1.59582 3.80273 0
M  V30 4999 H 457.712 0.462869 0.476076 0
M  V30 5000 H 460.242 1.80577 0.961932 0
M  V30 5001 H 460.252 2.32502 3.35271 0
M  V30 5002 H 458.927 3.22222 2.62956 0
M  V30 5003 H 457.504 1.55564 3.38902 0
M  V30 5004 N 459.689 -1.00246 1.21608 0
M  V30 5005 C 460.639 -2.07492 0.945051 0
M  V30 5006 C 461.623 -1.60585 -0.100675 0
M  V30 5007 O 462.815 -1.76667 0.10859 0
M  V30 5008 C 459.944 -3.39425 0.514342 0
M  V30 5009 C 459.03 -3.92993 1.59428 0
M  V30 5010 N 459.421 -4.19898 2.81991 0
M  V30 5011 C 457.719 -4.21297 1.46374 0
M  V30 5012 C 458.42 -4.63297 3.51754 0
M  V30 5013 N 457.396 -4.66421 2.79199 0
M  V30 5014 H 461.198 -2.26222 1.87619 0
M  V30 5015 H 458.712 -1.18339 1.11219 0
M  V30 5016 H 460.709 -4.15808 0.301527 0
M  V30 5017 H 459.369 -3.22101 -0.410008 0
M  V30 5018 H 460.38 -4.08377 3.1851 0
M  V30 5019 H 457.057 -4.13095 0.604863 0
M  V30 5020 H 458.447 -4.92816 4.56708 0
M  V30 5021 N 461.167 -1.02423 -1.1978 0
M  V30 5022 C 462.444 -0.632802 -1.85081 0
M  V30 5023 C 462.824 0.888745 -1.9148 0
M  V30 5024 O 462.172 1.78357 -1.42832 0
M  V30 5025 C 462.382 -1.28947 -3.24305 0
M  V30 5026 C 463.73 -1.40976 -4.00513 0
M  V30 5027 O 464.754 -1.24628 -3.33686 0
M  V30 5028 O 463.613 -1.67467 -5.20209 0
M  V30 5029 H 460.707 -0.219348 -0.79738 0
M  V30 5030 H 463.253 -1.12209 -1.27307 0
M  V30 5031 H 462.025 -2.3288 -3.14456 0
M  V30 5032 H 461.648 -0.787748 -3.89718 0
M  V30 5033 N 462.645 1.35699 -0.801477 0
M  V30 5034 C 463.922 1.9324 -0.302937 0
M  V30 5035 C 464.302 1.73209 1.20672 0
M  V30 5036 O 463.65 1.09809 2.00385 0
M  V30 5037 C 463.86 3.41728 -0.708747 0
M  V30 5038 C 465.208 4.18868 -0.695328 0
M  V30 5039 O 466.232 3.5022 -0.649971 0
M  V30 5040 O 465.091 5.41342 -0.749081 0
M  V30 5041 H 462.185 0.82331 -0.0780367 0
M  V30 5042 H 464.731 1.44806 -0.884832 0
M  V30 5043 H 463.503 3.50015 -1.74944 0
M  V30 5044 H 463.126 3.97471 -0.101384 0
M  V30 5045 N 464.123 0.554532 1.47522 0
M  V30 5046 C 465.348 0.0322661 2.07375 0
M  V30 5047 C 465.773 -1.25079 1.40488 0
M  V30 5048 O 465.131 -1.74859 0.47896 0
M  V30 5049 C 465.179 -0.149397 3.6029 0
M  V30 5050 O 464.283 -1.21259 3.9417 0
M  V30 5051 H 463.624 0.0501228 0.662106 0
M  V30 5052 H 466.154 0.769452 1.8958 0
M  V30 5053 H 466.164 -0.364437 4.06369 0
M  V30 5054 H 464.839 0.787743 4.08372 0
M  V30 5055 H 463.416 -0.97825 3.5984 0
M  V30 5056 N 465.601 -1.54893 0.290851 0
M  V30 5057 C 466.826 -2.04804 -0.32712 0
M  V30 5058 C 467.251 -1.16721 -1.47506 0
M  V30 5059 O 466.609 -0.169107 -1.8051 0
M  V30 5060 C 466.657 -3.52268 -0.770689 0
M  V30 5061 O 465.761 -3.67236 -1.87647 0
M  V30 5062 H 465.102 -0.660789 -0.0652227 0
M  V30 5063 H 467.632 -2.00036 0.429739 0
M  V30 5064 H 467.642 -3.9393 -1.06223 0
M  V30 5065 H 466.317 -4.15843 0.069096 0
M  V30 5066 H 464.894 -3.37479 -1.58626 0
M  V30 5067 N 467.08 -0.0183926 -1.57589 0
M  V30 5068 C 468.305 0.676634 -1.96052 0
M  V30 5069 C 468.73 1.6548 -0.894307 0
M  V30 5070 O 468.088 1.80712 0.145849 0
M  V30 5071 C 468.136 1.36872 -3.33614 0
M  V30 5072 O 467.24 2.48372 -3.29219 0
M  V30 5073 H 466.581 0.1786 -0.63953 0
M  V30 5074 H 469.111 -0.077056 -2.04455 0
M  V30 5075 H 469.121 1.72797 -3.69601 0
M  V30 5076 H 467.796 0.651636 -4.10763 0
M  V30 5077 H 466.373 2.14639 -3.04934 0
M  V30 5078 N 468.558 1.5553 0.254621 0
M  V30 5079 C 469.468 1.92789 1.33677 0
M  V30 5080 C 470.484 0.827356 1.53071 0
M  V30 5081 O 471.66 1.12807 1.66843 0
M  V30 5082 C 468.725 2.20827 2.67275 0
M  V30 5083 C 467.786 3.4427 2.5647 0
M  V30 5084 C 467.019 3.70961 3.83697 0
M  V30 5085 O 467.242 2.99852 4.85227 0
M  V30 5086 O 466.176 4.64491 3.82794 0
M  V30 5087 H 470.002 2.84945 1.05071 0
M  V30 5088 H 467.587 1.42312 0.454723 0
M  V30 5089 H 469.469 2.40204 3.46237 0
M  V30 5090 H 468.144 1.31851 2.9563 0
M  V30 5091 H 467.051 3.30209 1.75821 0
M  V30 5092 H 468.384 4.33524 2.33062 0
M  V30 5093 N 470.036 -0.519951 1.48776 0
M  V30 5094 C 471.313 -1.28123 1.47797 0
M  V30 5095 C 471.693 -2.10196 0.195157 0
M  V30 5096 O 471.041 -2.13167 -0.822925 0
M  V30 5097 C 471.251 -2.15413 2.74587 0
M  V30 5098 C 472.599 -2.75225 3.23321 0
M  V30 5099 O 473.623 -2.25694 2.75574 0
M  V30 5100 O 472.482 -3.65346 4.06429 0
M  V30 5101 H 469.576 -0.578793 0.590701 0
M  V30 5102 H 472.122 -0.535779 1.6102 0
M  V30 5103 H 470.894 -1.54617 3.59457 0
M  V30 5104 H 470.517 -2.97186 2.64132 0
M  V30 5105 N 471.514 -1.37532 -0.769588 0
M  V30 5106 C 472.739 -1.36231 -1.56384 0
M  V30 5107 C 473.164 0.0495849 -1.88035 0
M  V30 5108 O 472.522 1.02723 -1.49391 0
M  V30 5109 C 472.57 -2.20986 -2.84952 0
M  V30 5110 O 471.674 -1.61597 -3.79421 0
M  V30 5111 H 471.015 -0.465387 -0.473615 0
M  V30 5112 H 473.545 -1.81085 -0.952342 0
M  V30 5113 H 473.555 -2.34277 -3.34034 0
M  V30 5114 H 472.23 -3.23612 -2.61243 0
M  V30 5115 H 470.807 -1.57359 -3.38072 0
M  V30 5116 N 472.992 0.995999 -1.22138 0
M  V30 5117 C 474.269 1.70834 -0.952642 0
M  V30 5118 C 474.649 2.04257 0.533119 0
M  V30 5119 O 473.997 1.72343 1.50034 0
M  V30 5120 C 474.207 2.96119 -1.84701 0
M  V30 5121 C 475.555 3.68962 -2.10124 0
M  V30 5122 O 476.579 3.0612 -1.82124 0
M  V30 5123 O 475.438 4.82017 -2.57531 0
M  V30 5124 H 472.532 0.745498 -0.357997 0
M  V30 5125 H 475.078 1.05262 -1.33109 0
M  V30 5126 H 473.85 2.67898 -2.85213 0
M  V30 5127 H 473.473 3.6943 -1.46995 0
M  V30 5128 N 474.47 1.03057 1.19235 0
M  V30 5129 C 475.433 0.617418 2.20727 0
M  V30 5130 C 476.433 -0.319856 1.57587 0
M  V30 5131 O 477.623 -0.106633 1.73873 0
M  V30 5132 C 474.755 -0.096296 3.40764 0
M  V30 5133 H 475.948 1.51544 2.58794 0
M  V30 5134 H 473.501 0.821949 1.32942 0
M  V30 5135 H 474.236 -1.00859 3.08217 0
M  V30 5136 H 474.021 0.577217 3.87828 0
M  V30 5137 H 475.511 -0.372219 4.15938 0
M  V30 5138 N 475.948 -1.35272 0.808662 0
M  V30 5139 C 476.858 -2.33546 0.222079 0
M  V30 5140 C 477.874 -1.6196 -0.636011 0
M  V30 5141 O 479.05 -1.93822 -0.547274 0
M  V30 5142 C 476.115 -3.41148 -0.61795 0
M  V30 5143 C 475.176 -4.28507 0.260875 0
M  V30 5144 C 474.409 -5.3097 -0.539156 0
M  V30 5145 O 474.632 -5.42123 -1.77367 0
M  V30 5146 O 473.566 -6.01858 0.0710526 0
M  V30 5147 H 477.392 -2.85515 1.03512 0
M  V30 5148 H 474.977 -1.38079 0.570495 0
M  V30 5149 H 476.859 -4.06889 -1.09634 0
M  V30 5150 H 475.534 -2.91447 -1.40855 0
M  V30 5151 H 474.441 -3.6574 0.786451 0
M  V30 5152 H 475.774 -4.81611 1.01547 0
M  V30 5153 N 477.426 -0.562348 -1.47226 0
M  V30 5154 C 478.654 -0.0452275 -2.06851 0
M  V30 5155 C 479.069 1.25078 -1.41424 0
M  V30 5156 O 478.426 1.75156 -0.512513 0
M  V30 5157 C 478.477 0.148674 -3.61194 0
M  V30 5158 O 478.198 -1.09602 -4.24169 0
M  V30 5159 C 479.699 0.702488 -4.37699 0
M  V30 5160 H 476.919 -0.0481775 -0.669268 0
M  V30 5161 H 479.463 -0.777223 -1.89155 0
M  V30 5162 H 477.618 0.830817 -3.78386 0
M  V30 5163 H 478.032 -0.896982 -5.16773 0
M  V30 5164 H 479.506 0.78743 -5.46355 0
M  V30 5165 H 479.983 1.71493 -4.04335 0
M  V30 5166 H 480.589 0.0558772 -4.25263 0
M  V30 5167 N 478.904 1.54736 -0.299062 0
M  V30 5168 C 480.181 1.92187 0.363802 0
M  V30 5169 C 480.561 1.22607 1.71845 0
M  V30 5170 O 479.909 0.361141 2.25628 0
M  V30 5171 C 480.119 3.45678 0.480377 0
M  V30 5172 C 481.467 4.17885 0.752147 0
M  V30 5173 O 482.491 3.51702 0.564264 0
M  V30 5174 O 481.35 5.35048 1.11294 0
M  V30 5175 H 478.444 0.801681 0.203066 0
M  V30 5176 H 480.99 1.66115 -0.346978 0
M  V30 5177 H 479.762 3.88443 -0.471999 0
M  V30 5178 H 479.385 3.77779 1.2397 0
M  V30 5179 N 480.382 0.0267497 1.57577 0
M  V30 5180 C 481.63 -0.651116 1.91324 0
M  V30 5181 C 481.951 -1.72804 0.90353 0
M  V30 5182 O 481.221 -1.95822 -0.0552946 0
M  V30 5183 H 479.801 -0.243491 0.706202 0
M  V30 5184 H 482.463 0.0739935 1.94759 0
M  V30 5185 H 481.559 -1.10536 2.9187 0
M  V30 5186 N 481.861 -1.55662 -0.24637 0
M  V30 5187 C 482.793 -1.86811 -1.32794 0
M  V30 5188 C 483.806 -0.754413 -1.44265 0
M  V30 5189 O 484.995 -1.03253 -1.45606 0
M  V30 5190 C 482.095 -2.0397 -2.70646 0
M  V30 5191 C 481.268 -3.34832 -2.81436 0
M  V30 5192 C 480.327 -3.41727 -4.00136 0
M  V30 5193 O 479.353 -4.14934 -3.89639 0
M  V30 5194 N 480.555 -2.71058 -5.1333 0
M  V30 5195 H 483.32 -2.80174 -1.06409 0
M  V30 5196 H 480.881 -1.55906 -0.43647 0
M  V30 5197 H 482.873 -2.05924 -3.48393 0
M  V30 5198 H 481.443 -1.1735 -2.89738 0
M  V30 5199 H 480.663 -3.4519 -1.90361 0
M  V30 5200 H 481.951 -4.21085 -2.85595 0
M  V30 5201 H 481.349 -2.11314 -5.2475 0
M  V30 5202 H 479.906 -2.78704 -5.89209 0
M  V30 5203 N 483.339 0.512053 -1.4905 0
M  V30 5204 C 484.302 1.59704 -1.64399 0
M  V30 5205 C 485.302 1.52285 -0.516317 0
M  V30 5206 O 486.492 1.55635 -0.782527 0
M  V30 5207 C 483.624 2.9935 -1.63102 0
M  V30 5208 H 484.817 1.47428 -2.61161 0
M  V30 5209 H 482.37 0.735469 -1.37915 0
M  V30 5210 H 483.105 3.17116 -0.678836 0
M  V30 5211 H 482.89 3.06144 -2.44986 0
M  V30 5212 H 484.38 3.782 -1.77072 0
M  V30 5213 N 484.817 1.37938 0.762283 0
M  V30 5214 C 486.042 1.37059 1.55659 0
M  V30 5215 C 486.467 -0.0396123 1.88058 0
M  V30 5216 O 485.825 -1.01929 1.49934 0
M  V30 5217 C 485.873 2.22494 2.83776 0
M  V30 5218 O 484.977 1.63607 3.78559 0
M  V30 5219 H 484.318 0.467892 0.47114 0
M  V30 5220 H 486.848 1.81587 0.942725 0
M  V30 5221 H 486.858 2.36045 3.32786 0
M  V30 5222 H 485.533 3.24993 2.59524 0
M  V30 5223 H 484.11 1.5915 3.37233 0
M  V30 5224 N 486.295 -0.989507 1.22664 0
M  V30 5225 C 487.543 -1.72612 1.05117 0
M  V30 5226 C 487.864 -1.90552 -0.414131 0
M  V30 5227 O 487.134 -1.4676 -1.29762 0
M  V30 5228 H 485.714 -0.639555 0.385977 0
M  V30 5229 H 488.376 -1.19158 1.54232 0
M  V30 5230 H 487.472 -2.71926 1.53175 0
M  V30 5231 N 487.773 -1.03688 -1.18687 0
M  V30 5232 C 489.021 -0.736572 -1.88199 0
M  V30 5233 C 489.342 0.737665 -1.80509 0
M  V30 5234 O 488.612 1.53204 -1.22088 0
M  V30 5235 H 487.192 -0.269466 -0.696704 0
M  V30 5236 H 489.854 -1.31282 -1.44052 0
M  V30 5237 H 488.95 -1.03802 -2.94332 0
M  V30 5238 N 489.251 1.34841 -0.815825 0
M  V30 5239 C 490.476 2.03261 -0.41226 0
M  V30 5240 C 490.901 1.61055 0.971751 0
M  V30 5241 O 490.259 0.7917 1.63101 0
M  V30 5242 C 490.307 3.56914 -0.514289 0
M  V30 5243 O 489.411 4.09728 0.468675 0
M  V30 5244 H 488.752 0.641664 -0.170771 0
M  V30 5245 H 491.282 1.72241 -1.10427 0
M  V30 5246 H 491.292 4.06156 -0.387457 0
M  V30 5247 H 489.967 3.86982 -1.52375 0
M  V30 5248 H 488.544 3.71681 0.301316 0
M  V30 5249 N 490.729 0.570148 1.46925 0
M  V30 5250 C 492.006 -0.0153259 1.95594 0
M  V30 5251 C 492.386 -1.47232 1.51281 0
M  V30 5252 O 491.734 -2.15574 0.757624 0
M  V30 5253 C 491.944 0.143624 3.48704 0
M  V30 5254 C 493.292 0.00494484 4.246 0
M  V30 5255 O 494.316 0.0718214 3.56128 0
M  V30 5256 O 493.175 -0.141175 5.46318 0
M  V30 5257 H 490.269 -0.0568819 0.825041 0
M  V30 5258 H 492.815 0.637583 1.57267 0
M  V30 5259 H 491.587 1.15699 3.73804 0
M  V30 5260 H 491.21 -0.5463 3.93829 0
M  V30 5261 N 492.207 -1.54576 0.307264 0
M  V30 5262 C 493.432 -2.05139 -0.305379 0
M  V30 5263 C 493.857 -1.18278 -1.46259 0
M  V30 5264 O 493.215 -0.188243 -1.8032 0
M  V30 5265 C 493.263 -3.53066 -0.733283 0
M  V30 5266 O 492.367 -3.69206 -1.83741 0
M  V30 5267 H 491.708 -0.661444 -0.0582105 0
M  V30 5268 H 494.238 -1.99569 0.450931 0
M  V30 5269 H 494.248 -3.95034 -1.02039 0
M  V30 5270 H 492.923 -4.15746 0.113198 0
M  V30 5271 H 491.5 -3.39143 -1.55037 0
M  V30 5272 N 493.685 -0.035106 -1.57561 0
M  V30 5273 C 494.933 0.64096 -1.91667 0
M  V30 5274 C 495.254 1.72323 -0.912681 0
M  V30 5275 O 494.524 1.95849 0.0449089 0
M  V30 5276 H 493.104 0.239743 -0.707483 0
M  V30 5277 H 495.766 -0.084321 -1.94718 0
M  V30 5278 H 494.862 1.08987 -2.92452 0
M  V30 5279 N 495.163 1.55791 0.238111 0
M  V30 5280 C 496.44 1.68798 0.98826 0
M  V30 5281 C 496.82 0.577562 2.03045 0
M  V30 5282 O 496.168 -0.41778 2.24648 0
M  V30 5283 C 496.378 3.09454 1.61367 0
M  V30 5284 C 497.726 3.68335 2.11221 0
M  V30 5285 O 498.75 3.1231 1.71292 0
M  V30 5286 O 497.609 4.6657 2.84561 0
M  V30 5287 H 494.703 0.686881 0.460568 0
M  V30 5288 H 497.249 1.68118 0.231202 0
M  V30 5289 H 496.021 3.81726 0.860295 0
M  V30 5290 H 495.644 3.14182 2.4367 0
M  V30 5291 N 496.642 -0.504142 1.49319 0
M  V30 5292 C 497.888 -1.25767 1.59857 0
M  V30 5293 C 498.243 -1.90348 0.280262 0
M  V30 5294 O 497.536 -1.77588 -0.719241 0
M  V30 5295 C 497.73 -2.35021 2.69258 0
M  V30 5296 C 497.559 -1.81154 4.11598 0
M  V30 5297 C 496.329 -1.62596 4.78425 0
M  V30 5298 C 498.527 -1.3252 4.96934 0
M  V30 5299 N 496.509 -1.03625 6.05091 0
M  V30 5300 C 497.88 -0.856633 6.14054 0
M  V30 5301 C 499.935 -1.21063 4.82958 0
M  V30 5302 C 498.638 -0.284841 7.18736 0
M  V30 5303 C 500.664 -0.652815 5.87786 0
M  V30 5304 C 500.026 -0.194461 7.04132 0
M  V30 5305 H 496.125 -0.450293 0.639343 0
M  V30 5306 H 498.709 -0.565344 1.86311 0
M  V30 5307 H 496.88 -3.01719 2.44581 0
M  V30 5308 H 498.612 -3.02061 2.69335 0
M  V30 5309 H 495.367 -1.86873 4.35173 0
M  V30 5310 H 495.791 -0.76076 6.72712 0
M  V30 5311 H 500.433 -1.551 3.93324 0
M  V30 5312 H 498.151 0.0677979 8.08072 0
M  V30 5313 H 501.737 -0.566994 5.79031 0
M  V30 5314 H 500.617 0.230442 7.83861 0
M  V30 5315 N 498.12 -1.38341 -0.754957 0
M  V30 5316 C 499.369 -1.33791 -1.5094 0
M  V30 5317 C 499.682 0.0699267 -1.95475 0
M  V30 5318 O 500.888 0.237956 -2.70455 0
M  V30 5319 C 499.344 -2.34934 -2.72643 0
M  V30 5320 C 498.952 -3.81332 -2.35138 0
M  V30 5321 C 500.696 -2.39425 -3.50536 0
M  V30 5322 C 498.603 -4.74164 -3.53444 0
M  V30 5323 H 497.533 -0.497314 -0.566741 0
M  V30 5324 H 500.184 -1.63888 -0.825403 0
M  V30 5325 H 498.566 -1.97878 -3.43017 0
M  V30 5326 H 499.74 -4.27319 -1.7244 0
M  V30 5327 H 498.055 -3.79946 -1.70382 0
M  V30 5328 H 500.652 -3.0598 -4.38498 0
M  V30 5329 H 500.995 -1.41278 -3.91594 0
M  V30 5330 H 501.528 -2.75274 -2.87174 0
M  V30 5331 H 498.267 -5.73501 -3.17453 0
M  V30 5332 H 497.787 -4.3287 -4.15191 0
M  V30 5333 H 499.466 -4.92111 -4.20043 0
M  V30 5334 N 499.598 0.982988 -1.23187 0
M  V30 5335 C 500.845 1.72392 -1.06241 0
M  V30 5336 C 501.173 1.9032 0.40108 0
M  V30 5337 O 500.428 1.45084 1.31336 0
M  V30 5338 C 500.727 3.12736 -1.73006 0
M  V30 5339 C 500.393 3.14695 -3.22921 0
M  V30 5340 C 499.055 3.14937 -3.63824 0
M  V30 5341 C 501.407 3.10211 -4.1883 0
M  V30 5342 C 498.735 3.08408 -4.99101 0
M  V30 5343 C 501.087 3.05224 -5.54095 0
M  V30 5344 C 499.751 3.03787 -5.94365 0
M  V30 5345 H 499.021 0.630829 -0.388762 0
M  V30 5346 H 501.668 1.15053 -1.53085 0
M  V30 5347 H 499.973 3.73446 -1.18514 0
M  V30 5348 H 501.67 3.68828 -1.57374 0
M  V30 5349 H 498.26 3.15262 -2.90358 0
M  V30 5350 H 502.444 3.09166 -3.8824 0
M  V30 5351 H 497.7 3.05646 -5.29519 0
M  V30 5352 H 501.874 3.00712 -6.28128 0
M  V30 5353 H 499.501 2.98483 -6.99151 0
M  V30 5354 N 501.076 1.04316 1.18135 0
M  V30 5355 C 502.304 0.768117 1.92113 0
M  V30 5356 C 502.719 -0.675057 1.76319 0
M  V30 5357 O 502.076 -1.46038 1.09449 0
M  V30 5358 C 502.127 1.12808 3.43448 0
M  V30 5359 O 501.848 2.5146 3.58747 0
M  V30 5360 C 503.349 0.8779 4.3452 0
M  V30 5361 H 500.569 0.279937 0.609817 0
M  V30 5362 H 503.113 1.39149 1.49859 0
M  V30 5363 H 501.268 0.549623 3.83481 0
M  V30 5364 H 501.682 2.65313 4.52448 0
M  V30 5365 H 503.156 1.17959 5.39249 0
M  V30 5366 H 503.633 -0.187239 4.38801 0
M  V30 5367 H 504.239 1.43977 4.00188 0
M  V30 5368 N 502.554 -1.34406 0.822964 0
M  V30 5369 C 503.803 -1.97542 0.407458 0
M  V30 5370 C 504.116 -1.65973 -1.035 0
M  V30 5371 O 505.322 -2.22598 -1.55442 0
M  V30 5372 C 503.778 -3.53463 0.677623 0
M  V30 5373 C 503.386 -3.93925 2.1337 0
M  V30 5374 C 505.13 -4.23229 0.328284 0
M  V30 5375 C 503.037 -5.42759 2.34876 0
M  V30 5376 H 501.967 -0.739207 0.148623 0
M  V30 5377 H 504.618 -1.53248 1.00932 0
M  V30 5378 H 503 -3.96 0.00558965 0
M  V30 5379 H 504.174 -3.62494 2.8449 0
M  V30 5380 H 502.489 -3.37097 2.44448 0
M  V30 5381 H 505.086 -5.32659 0.466794 0
M  V30 5382 H 505.429 -4.09899 -0.727224 0
M  V30 5383 H 505.962 -3.86169 0.954896 0
M  V30 5384 H 502.701 -5.61075 3.38932 0
M  V30 5385 H 502.221 -5.75704 1.68299 0
M  V30 5386 H 503.9 -6.0944 2.17236 0
M  V30 5387 N 504.032 -0.577932 -1.46621 0
M  V30 5388 C 505.448 -0.239242 -1.57797 0
M  V30 5389 C 505.648 1.25843 -1.57371 0
M  V30 5390 O 504.704 2.03988 -1.48813 0
M  V30 5391 C 506.017 -0.884227 -2.87405 0
M  V30 5392 C 507.565 -0.857373 -3.01028 0
M  V30 5393 C 508.04 -1.48181 -4.33366 0
M  V30 5394 N 509.531 -1.44593 -4.40053 0
M  V30 5395 C 510.266 -1.89852 -5.41058 0
M  V30 5396 N 509.762 -2.43062 -6.48762 0
M  V30 5397 N 511.555 -1.80797 -5.3223 0
M  V30 5398 H 503.706 -1.55073 -1.45142 0
M  V30 5399 H 505.969 -0.647903 -0.692044 0
M  V30 5400 H 505.675 -1.93759 -2.93514 0
M  V30 5401 H 505.549 -0.389585 -3.75183 0
M  V30 5402 H 507.936 0.187357 -2.94505 0
M  V30 5403 H 508.017 -1.38999 -2.14739 0
M  V30 5404 H 507.661 -2.52572 -4.40647 0
M  V30 5405 H 507.591 -0.924464 -5.18422 0
M  V30 5406 H 510.082 -1.05694 -3.62819 0
M  V30 5407 H 510.395 -2.75466 -7.22038 0
M  V30 5408 H 508.74 -2.47085 -6.49595 0
M  V30 5409 H 511.931 -1.38989 -4.46989 0
M  V30 5410 H 512.104 -2.16385 -6.10804 0
M  V30 5411 N 505.51 1.54411 -0.315457 0
M  V30 5412 C 506.42 2.27737 0.56329 0
M  V30 5413 C 507.436 1.31787 1.13614 0
M  V30 5414 O 508.612 1.64791 1.15784 0
M  V30 5415 C 505.677 3.01478 1.71207 0
M  V30 5416 C 504.738 4.12997 1.17185 0
M  V30 5417 C 503.971 4.83212 2.26588 0
M  V30 5418 O 504.194 4.52884 3.46775 0
M  V30 5419 O 503.128 5.70299 1.92463 0
M  V30 5420 H 506.954 3.03683 -0.0319614 0
M  V30 5421 H 504.539 1.49178 -0.0814188 0
M  V30 5422 H 506.421 3.47683 2.38106 0
M  V30 5423 H 505.096 2.28414 2.29366 0
M  V30 5424 H 504.003 3.71159 0.468174 0
M  V30 5425 H 505.336 4.8808 0.635501 0
M  V30 5426 N 506.988 0.0434614 1.5754 0
M  V30 5427 C 507.935 -0.93356 2.11077 0
M  V30 5428 C 508.905 -1.31383 1.01626 0
M  V30 5429 O 510.09 -1.40465 1.29129 0
M  V30 5430 C 507.23 -2.20578 2.65404 0
M  V30 5431 C 506.343 -1.88068 3.88914 0
M  V30 5432 C 505.478 -3.09691 4.31584 0
M  V30 5433 C 504.517 -2.73067 5.47815 0
M  V30 5434 N 503.654 -3.87359 5.85574 0
M  V30 5435 H 508.494 -0.470118 2.94268 0
M  V30 5436 H 506.031 -0.220434 1.45439 0
M  V30 5437 H 507.989 -2.95011 2.94999 0
M  V30 5438 H 506.619 -2.64513 1.85021 0
M  V30 5439 H 505.671 -1.03816 3.6596 0
M  V30 5440 H 506.983 -1.57104 4.73413 0
M  V30 5441 H 506.137 -3.92431 4.62691 0
M  V30 5442 H 504.876 -3.43827 3.45882 0
M  V30 5443 H 503.881 -1.88742 5.16388 0
M  V30 5444 H 505.106 -2.40131 6.35227 0
M  V30 5445 H 503.052 -4.21311 5.02825 0
M  V30 5446 H 502.969 -3.60068 6.64746 0
M  V30 5447 H 504.237 -4.70761 6.21292 0
M  V30 5448 N 508.466 -1.55915 -0.229846 0
M  V30 5449 C 509.743 -1.6932 -0.979295 0
M  V30 5450 C 510.123 -0.588321 -2.02736 0
M  V30 5451 O 509.471 0.40586 -2.24867 0
M  V30 5452 C 509.681 -3.10305 -1.59724 0
M  V30 5453 C 511.029 -3.6945 -2.09264 0
M  V30 5454 O 512.053 -3.13214 -1.69633 0
M  V30 5455 O 510.912 -4.68072 -2.82082 0
M  V30 5456 H 508.006 -0.689314 -0.456919 0
M  V30 5457 H 510.552 -1.68238 -0.222283 0
M  V30 5458 H 509.324 -3.82177 -0.840039 0
M  V30 5459 H 508.947 -3.1547 -2.42001 0
M  V30 5460 N 509.944 0.496216 -1.49584 0
M  V30 5461 C 511.355 1.07765 -1.52459 0
M  V30 5462 C 511.706 1.93679 -0.31353 0
M  V30 5463 O 510.831 2.08588 0.576186 0
M  V30 5464 C 511.426 1.96111 -2.76271 0
M  V30 5465 C 509.985 2.49409 -2.81908 0
M  V30 5466 C 509.132 1.27142 -2.46435 0
M  V30 5467 H 512.083 0.279914 -1.56212 0
M  V30 5468 H 512.104 2.80862 -2.56704 0
M  V30 5469 H 511.616 1.33555 -3.64396 0
M  V30 5470 H 509.717 3.1559 -1.98074 0
M  V30 5471 H 509.83 2.86234 -3.84196 0
M  V30 5472 H 508.194 1.59818 -1.98319 0
M  V30 5473 H 508.977 0.662866 -3.3684 0
M  V30 5474 N 511.423 1.38739 0.74761 0
M  V30 5475 C 512.37 1.36449 1.86146 0
M  V30 5476 C 513.34 0.226098 1.64554 0
M  V30 5477 O 514.525 0.41926 1.86137 0
M  V30 5478 C 511.665 1.2013 3.23516 0
M  V30 5479 C 510.778 2.43407 3.56899 0
M  V30 5480 C 509.913 2.19773 4.83605 0
M  V30 5481 C 508.952 3.3879 5.09792 0
M  V30 5482 N 508.089 3.14553 6.27695 0
M  V30 5483 H 512.929 2.3167 1.87438 0
M  V30 5484 H 510.466 1.15094 0.916063 0
M  V30 5485 H 512.424 1.08683 4.02795 0
M  V30 5486 H 511.054 0.285453 3.21535 0
M  V30 5487 H 510.106 2.65504 2.72418 0
M  V30 5488 H 511.418 3.32094 3.72176 0
M  V30 5489 H 510.572 2.05496 5.70838 0
M  V30 5490 H 509.311 1.28461 4.70478 0
M  V30 5491 H 508.316 3.53579 4.21025 0
M  V30 5492 H 509.541 4.30986 5.24812 0
M  V30 5493 H 507.487 2.25893 6.1588 0
M  V30 5494 H 507.404 3.96791 6.435 0
M  V30 5495 H 508.672 3.03943 7.17801 0
M  V30 5496 N 512.901 -0.976442 1.23707 0
M  V30 5497 C 513.849 -2.09078 1.01927 0
M  V30 5498 C 514.843 -1.69345 -0.0430193 0
M  V30 5499 O 516.049 -1.79659 0.110814 0
M  V30 5500 H 512.424 -0.68398 0.312531 0
M  V30 5501 H 514.395 -2.24614 1.96447 0
M  V30 5502 C 513.144 -3.41919 0.631385 0
M  V30 5503 H 512.467 -3.72946 1.44053 0
M  V30 5504 H 513.907 -4.20817 0.518532 0
M  V30 5505 C 512.366 -3.30357 -0.660723 0
M  V30 5506 O 512.896 -3.63542 -1.70881 0
M  V30 5507 N 511.102 -2.83507 -0.638139 0
M  V30 5508 H 510.649 -2.567 0.215108 0
M  V30 5509 H 510.607 -2.76153 -1.50289 0
M  V30 5510 N 514.379 -1.04941 -1.1758 0
M  V30 5511 C 515.309 -0.669172 -2.23706 0
M  V30 5512 C 516.29 0.331835 -1.66832 0
M  V30 5513 O 517.475 0.209988 -1.93061 0
M  V30 5514 C 514.605 -0.0404889 -3.47276 0
M  V30 5515 C 513.559 -0.965983 -4.16957 0
M  V30 5516 C 512.885 -0.201312 -5.34321 0
M  V30 5517 C 514.185 -2.28902 -4.69469 0
M  V30 5518 H 515.879 -1.55639 -2.55767 0
M  V30 5519 H 513.425 -0.749793 -1.22939 0
M  V30 5520 H 515.378 0.237298 -4.20731 0
M  V30 5521 H 514.102 0.881658 -3.14475 0
M  V30 5522 H 512.761 -1.22829 -3.45411 0
M  V30 5523 H 512.409 0.723519 -4.97769 0
M  V30 5524 H 512.109 -0.817968 -5.81879 0
M  V30 5525 H 513.633 0.0692499 -6.10561 0
M  V30 5526 H 515.047 -2.07132 -5.34574 0
M  V30 5527 H 513.444 -2.85942 -5.27596 0
M  V30 5528 H 514.514 -2.92937 -3.86414 0
M  V30 5529 N 515.857 1.33968 -0.830081 0
M  V30 5530 C 516.767 2.33164 -0.259207 0
M  V30 5531 C 517.783 1.62951 0.610164 0
M  V30 5532 O 518.959 1.94668 0.516369 0
M  V30 5533 C 516.024 3.42088 0.563598 0
M  V30 5534 C 515.085 4.28037 -0.329014 0
M  V30 5535 C 514.318 5.3176 0.454616 0
M  V30 5536 O 514.541 5.44876 1.6872 0
M  V30 5537 O 513.475 6.01669 -0.166794 0
M  V30 5538 H 517.301 2.83832 -1.08041 0
M  V30 5539 H 514.886 1.37154 -0.59239 0
M  V30 5540 H 516.768 4.08581 1.03147 0
M  V30 5541 H 515.443 2.93651 1.36201 0
M  V30 5542 H 514.35 3.64443 -0.844538 0
M  V30 5543 H 515.683 4.79934 -1.09196 0
M  V30 5544 N 517.335 0.585699 1.46312 0
M  V30 5545 C 518.283 -0.158577 2.32059 0
M  V30 5546 C 519.277 -0.881427 1.44662 0
M  V30 5547 O 520.483 -0.799476 1.61271 0
M  V30 5548 H 516.858 -0.0700066 0.748734 0
M  V30 5549 H 518.829 0.583383 2.92642 0
M  V30 5550 C 517.578 -1.15701 3.27885 0
M  V30 5551 H 516.901 -0.610215 3.95116 0
M  V30 5552 H 518.341 -1.64812 3.90657 0
M  V30 5553 C 516.8 -2.21951 2.53455 0
M  V30 5554 O 517.33 -3.29352 2.29978 0
M  V30 5555 N 515.536 -1.9664 2.13965 0
M  V30 5556 H 515.083 -1.09309 2.33258 0
M  V30 5557 H 515.041 -2.6794 1.64485 0
M  V30 5558 N 518.813 -1.54241 0.323641 0
M  V30 5559 C 520.061 -2.00174 -0.278359 0
M  V30 5560 C 520.382 -1.2134 -1.52648 0
M  V30 5561 O 519.652 -0.315244 -1.93347 0
M  V30 5562 H 518.232 -0.739463 -0.105845 0
M  V30 5563 H 520.894 -1.89864 0.440204 0
M  V30 5564 H 519.99 -3.07486 -0.5347 0
M  V30 5565 N 520.291 -0.0518155 -1.57515 0
M  V30 5566 C 521.254 0.907547 -2.10467 0
M  V30 5567 C 522.254 1.23947 -1.02439 0
M  V30 5568 O 523.444 1.17604 -1.2851 0
M  V30 5569 C 520.576 2.21723 -2.58944 0
M  V30 5570 H 521.769 0.44851 -2.96527 0
M  V30 5571 H 519.322 0.196598 -1.55059 0
M  V30 5572 H 520.057 2.72206 -1.76279 0
M  V30 5573 H 519.842 1.98935 -3.37886 0
M  V30 5574 H 521.332 2.90441 -3.00056 0
M  V30 5575 N 521.769 1.56035 0.221574 0
M  V30 5576 C 522.699 1.95434 1.2778 0
M  V30 5577 C 523.68 0.822564 1.48889 0
M  V30 5578 O 524.865 1.08486 1.61072 0
M  V30 5579 C 521.995 2.27102 2.62759 0
M  V30 5580 C 520.949 3.4277 2.56306 0
M  V30 5581 C 520.275 3.60043 3.95314 0
M  V30 5582 C 521.575 4.77742 2.11093 0
M  V30 5583 H 523.269 2.83912 0.950504 0
M  V30 5584 H 520.815 1.36596 0.455791 0
M  V30 5585 H 522.768 2.53256 3.36807 0
M  V30 5586 H 521.492 1.35478 2.97176 0
M  V30 5587 H 520.151 3.16664 1.84715 0
M  V30 5588 H 519.799 2.65794 4.27039 0
M  V30 5589 H 519.499 4.37841 3.91879 0
M  V30 5590 H 521.023 3.88545 4.71025 0
M  V30 5591 H 522.437 5.03102 2.74885 0
M  V30 5592 H 520.834 5.58823 2.18716 0
M  V30 5593 H 521.904 4.731 1.06321 0
M  V30 5594 N 523.247 -0.488276 1.49845 0
M  V30 5595 C 524.179 -1.60539 1.63584 0
M  V30 5596 C 525.192 -1.5434 0.517972 0
M  V30 5597 O 526.381 -1.60041 0.790516 0
M  V30 5598 C 523.481 -2.99374 1.58835 0
M  V30 5599 C 522.654 -3.30624 2.86368 0
M  V30 5600 C 521.713 -4.4893 2.74496 0
M  V30 5601 O 520.739 -4.50085 3.48443 0
M  V30 5602 N 521.941 -5.49591 1.86894 0
M  V30 5603 H 524.706 -1.49176 2.59936 0
M  V30 5604 H 522.267 -0.67639 1.47094 0
M  V30 5605 H 524.259 -3.76459 1.48529 0
M  V30 5606 H 522.829 -3.04595 0.702892 0
M  V30 5607 H 522.049 -2.42314 3.1093 0
M  V30 5608 H 523.337 -3.48305 3.70892 0
M  V30 5609 H 522.735 -5.51467 1.26097 0
M  V30 5610 H 521.292 -6.25728 1.82503 0
M  V30 5611 N 524.725 -1.39134 -0.740242 0
M  V30 5612 C 526.136 -1.32208 -1.31825 0
M  V30 5613 C 526.487 0.0159919 -1.96193 0
M  V30 5614 O 525.612 0.918111 -1.95958 0
M  V30 5615 C 526.207 -2.39436 -2.39699 0
M  V30 5616 C 524.766 -2.36048 -2.93187 0
M  V30 5617 C 523.913 -2.21599 -1.66701 0
M  V30 5618 H 526.864 -1.49298 -0.538133 0
M  V30 5619 H 526.885 -2.05922 -3.19963 0
M  V30 5620 H 526.397 -3.36811 -1.92821 0
M  V30 5621 H 524.498 -1.42295 -3.44359 0
M  V30 5622 H 524.611 -3.30704 -3.46658 0
M  V30 5623 H 522.975 -1.68681 -1.90837 0
M  V30 5624 H 523.758 -3.20936 -1.21882 0
M  V30 5625 N 526.204 0.969867 -1.24223 0
M  V30 5626 C 527.429 1.75289 -1.10853 0
M  V30 5627 C 527.854 1.85091 0.335079 0
M  V30 5628 O 527.212 1.32024 1.24255 0
M  V30 5629 C 527.26 3.15255 -1.75062 0
M  V30 5630 O 526.364 3.99589 -1.01992 0
M  V30 5631 H 525.705 0.538904 -0.387915 0
M  V30 5632 H 528.235 1.21675 -1.64488 0
M  V30 5633 H 528.245 3.65787 -1.80731 0
M  V30 5634 H 526.92 3.07436 -2.801 0
M  V30 5635 H 525.497 3.58077 -1.04094 0
M  V30 5636 N 527.682 1.05563 1.17022 0
M  V30 5637 C 528.959 0.68165 1.83338 0
M  V30 5638 C 529.339 -0.837665 1.93769 0
M  V30 5639 O 528.687 -1.74507 1.47511 0
M  V30 5640 C 528.897 1.375 3.20772 0
M  V30 5641 C 530.245 1.51545 3.96635 0
M  V30 5642 O 531.269 1.33431 3.30264 0
M  V30 5643 O 530.128 1.812 5.15586 0
M  V30 5644 H 527.222 0.240412 0.791285 0
M  V30 5645 H 529.768 1.15545 1.24288 0
M  V30 5646 H 528.54 2.41135 3.08171 0
M  V30 5647 H 528.163 0.890798 3.87493 0
M  V30 5648 N 529.16 -1.33526 0.837174 0
M  V30 5649 C 530.09 -2.31764 0.284206 0
M  V30 5650 C 531.071 -1.58896 -0.607142 0
M  V30 5651 O 532.256 -1.86798 -0.531047 0
M  V30 5652 C 529.386 -3.43029 -0.542962 0
M  V30 5653 C 528.34 -4.27255 0.252451 0
M  V30 5654 C 527.666 -5.3012 -0.69836 0
M  V30 5655 C 528.966 -5.01229 1.46858 0
M  V30 5656 H 530.66 -2.78262 1.10502 0
M  V30 5657 H 528.206 -1.3378 0.532812 0
M  V30 5658 H 530.159 -4.1078 -0.940096 0
M  V30 5659 H 528.883 -2.95216 -1.39697 0
M  V30 5660 H 527.542 -3.61127 0.631124 0
M  V30 5661 H 527.19 -4.78564 -1.54872 0
M  V30 5662 H 526.89 -5.87353 -0.170274 0
M  V30 5663 H 528.414 -6.00737 -1.09305 0
M  V30 5664 H 529.828 -5.61756 1.14469 0
M  V30 5665 H 528.225 -5.68104 1.93333 0
M  V30 5666 H 529.295 -4.301 2.23924 0
M  V30 5667 N 530.638 -0.59345 -1.46 0
M  V30 5668 C 531.915 -0.0157933 -1.95594 0
M  V30 5669 C 532.295 1.44807 -1.53604 0
M  V30 5670 O 531.643 2.14342 -0.791824 0
M  V30 5671 C 531.853 -0.199081 -3.48432 0
M  V30 5672 C 533.201 -0.0724943 -4.24538 0
M  V30 5673 O 534.225 -0.128469 -3.55968 0
M  V30 5674 O 533.084 0.0542426 -5.46473 0
M  V30 5675 H 530.178 0.043749 -0.825842 0
M  V30 5676 H 532.724 -0.662522 -1.56233 0
M  V30 5677 H 531.496 -1.21631 -3.71916 0
M  V30 5678 H 531.119 0.483576 -3.94648 0
M  V30 5679 N 532.116 1.54067 -0.331816 0
M  V30 5680 C 533.532 1.59587 0.0205388 0
M  V30 5681 C 533.732 1.34813 1.49759 0
M  V30 5682 O 532.788 1.13661 2.25471 0
M  V30 5683 C 534.101 2.97959 -0.405103 0
M  V30 5684 C 535.649 3.10964 -0.356454 0
M  V30 5685 C 536.124 4.51694 -0.757384 0
M  V30 5686 N 537.615 4.57709 -0.71111 0
M  V30 5687 C 538.35 5.64729 -0.993427 0
M  V30 5688 N 537.846 6.79652 -1.3433 0
M  V30 5689 N 539.639 5.54546 -0.918442 0
M  V30 5690 H 531.79 1.68426 -1.29407 0
M  V30 5691 H 534.053 0.78819 -0.526745 0
M  V30 5692 H 533.759 3.21115 -1.43451 0
M  V30 5693 H 533.633 3.76524 0.225692 0
M  V30 5694 H 536.02 2.87538 0.663763 0
M  V30 5695 H 536.101 2.34484 -1.02229 0
M  V30 5696 H 535.745 4.75853 -1.77555 0
M  V30 5697 H 535.675 5.26555 -0.0691444 0
M  V30 5698 H 538.166 3.75176 -0.452883 0
M  V30 5699 H 538.479 7.57221 -1.54388 0
M  V30 5700 H 536.824 6.81128 -1.38164 0
M  V30 5701 H 540.015 4.63641 -0.644536 0
M  V30 5702 H 540.188 6.37861 -1.14181 0
M  V30 5703 N 533.594 0.0601682 1.57485 0
M  V30 5704 C 534.542 -0.928899 2.13247 0
M  V30 5705 C 535.536 -1.31616 1.06647 0
M  V30 5706 O 536.742 -1.29476 1.25043 0
M  V30 5707 H 533.117 -0.317455 0.681708 0
M  V30 5708 H 535.088 -0.433566 2.95233 0
M  V30 5709 C 533.837 -2.19121 2.69965 0
M  V30 5710 H 533.16 -1.90204 3.51657 0
M  V30 5711 H 534.6 -2.86465 3.12592 0
M  V30 5712 C 533.059 -2.94195 1.64168 0
M  V30 5713 O 533.589 -3.87468 1.05978 0
M  V30 5714 N 531.795 -2.57089 1.35476 0
M  V30 5715 H 531.342 -1.81314 1.82984 0
M  V30 5716 H 531.3 -3.07624 0.649196 0
M  V30 5717 N 535.072 -1.5615 -0.213296 0
M  V30 5718 C 536.019 -1.93086 -1.26437 0
M  V30 5719 C 536.989 -0.789086 -1.4616 0
M  V30 5720 O 538.174 -1.04569 -1.59593 0
M  V30 5721 C 535.314 -2.26003 -2.608 0
M  V30 5722 C 534.427 -3.53156 -2.48807 0
M  V30 5723 C 533.562 -3.7548 -3.7575 0
M  V30 5724 C 532.601 -4.96119 -3.58514 0
M  V30 5725 N 531.738 -5.14791 -4.77425 0
M  V30 5726 H 536.578 -2.82707 -0.942376 0
M  V30 5727 H 534.115 -1.39919 -0.454001 0
M  V30 5728 H 536.073 -2.431 -3.39055 0
M  V30 5729 H 534.703 -1.39546 -2.91079 0
M  V30 5730 H 533.755 -3.44207 -1.61944 0
M  V30 5731 H 535.067 -4.41565 -2.31996 0
M  V30 5732 H 534.221 -3.92718 -4.62447 0
M  V30 5733 H 532.96 -2.85368 -3.95495 0
M  V30 5734 H 531.965 -4.78823 -2.70201 0
M  V30 5735 H 533.19 -5.87724 -3.40231 0
M  V30 5736 H 531.136 -4.27623 -4.97468 0
M  V30 5737 H 531.053 -5.97347 -4.63371 0
M  V30 5738 H 532.321 -5.36471 -5.65525 0
M  V30 5739 N 536.55 0.480323 -1.50102 0
M  V30 5740 C 537.483 1.59789 -1.62919 0
M  V30 5741 C 538.461 1.55429 -0.477557 0
M  V30 5742 O 539.645 1.75186 -0.695851 0
M  V30 5743 C 536.772 2.98351 -1.60325 0
M  V30 5744 C 535.818 3.20899 -2.80938 0
M  V30 5745 S 536.651 3.01791 -4.4236 0
M  V30 5746 C 537.807 4.42712 -4.42444 0
M  V30 5747 H 538.04 1.48676 -2.57454 0
M  V30 5748 H 535.573 0.666996 -1.3925 0
M  V30 5749 H 537.531 3.7824 -1.59514 0
M  V30 5750 H 536.192 3.06862 -0.670419 0
M  V30 5751 H 535.385 4.22102 -2.75401 0
M  V30 5752 H 534.987 2.48768 -2.79268 0
M  V30 5753 H 537.279 5.3518 -4.15438 0
M  V30 5754 H 538.222 4.53294 -5.43995 0
M  V30 5755 H 538.63 4.24359 -3.72263 0
M  V30 5756 N 538.028 1.39524 0.732853 0
M  V30 5757 C 538.975 1.38416 1.84688 0
M  V30 5758 C 539.945 0.243539 1.64305 0
M  V30 5759 O 541.13 0.438979 1.85681 0
M  V30 5760 C 538.27 1.23555 3.22224 0
M  V30 5761 C 537.383 2.47179 3.54298 0
M  V30 5762 C 536.518 2.2489 4.81246 0
M  V30 5763 C 535.557 3.44178 5.0617 0
M  V30 5764 N 534.694 3.21192 6.24323 0
M  V30 5765 H 539.534 2.33645 1.84971 0
M  V30 5766 H 537.071 1.16059 0.903804 0
M  V30 5767 H 539.029 1.12949 4.0162 0
M  V30 5768 H 537.659 0.31954 3.21215 0
M  V30 5769 H 536.711 2.68379 2.69587 0
M  V30 5770 H 538.023 3.36022 3.68633 0
M  V30 5771 H 537.177 2.11538 5.68627 0
M  V30 5772 H 535.916 1.33443 4.69089 0
M  V30 5773 H 534.921 3.58025 4.17251 0
M  V30 5774 H 536.146 4.36528 5.20212 0
M  V30 5775 H 534.092 2.32413 6.1345 0
M  V30 5776 H 534.009 4.03594 6.39256 0
M  V30 5777 H 535.277 3.1154 7.14537 0
M  V30 5778 N 539.506 -0.963266 1.24736 0
M  V30 5779 C 540.783 -1.68248 0.9976 0
M  V30 5780 C 541.163 -2.05599 -0.478776 0
M  V30 5781 O 540.511 -1.7626 -1.45412 0
M  V30 5782 C 540.721 -2.91118 1.92487 0
M  V30 5783 C 542.069 -3.63261 2.19833 0
M  V30 5784 O 543.093 -3.01184 1.90176 0
M  V30 5785 O 541.952 -4.75019 2.7022 0
M  V30 5786 H 539.046 -0.735744 0.377637 0
M  V30 5787 H 541.592 -1.01696 1.35853 0
M  V30 5788 H 540.364 -2.60242 2.92215 0
M  V30 5789 H 539.987 -3.65402 1.56738 0
M  V30 5790 N 540.985 -1.06182 -1.16461 0
M  V30 5791 C 542.234 -0.772927 -1.86303 0
M  V30 5792 C 542.547 0.703187 -1.82523 0
M  V30 5793 O 543.753 1.10641 -2.47933 0
M  V30 5794 C 542.209 -1.33249 -3.34324 0
M  V30 5795 C 541.817 -2.83876 -3.46581 0
M  V30 5796 C 543.561 -1.12108 -4.09429 0
M  V30 5797 C 541.468 -3.33082 -4.88682 0
M  V30 5798 H 540.398 -0.285452 -0.697878 0
M  V30 5799 H 543.049 -1.28039 -1.31447 0
M  V30 5800 H 541.431 -0.7528 -3.88779 0
M  V30 5801 H 542.605 -3.47786 -3.02293 0
M  V30 5802 H 540.92 -3.03671 -2.84909 0
M  V30 5803 H 543.517 -1.46361 -5.14279 0
M  V30 5804 H 543.86 -0.0593832 -4.16258 0
M  V30 5805 H 544.393 -1.6665 -3.6121 0
M  V30 5806 H 541.132 -4.38726 -4.87032 0
M  V30 5807 H 540.652 -2.73919 -5.33599 0
M  V30 5808 H 542.331 -3.28344 -5.57494 0
M  V30 5809 N 542.463 1.3308 -0.844243 0
M  V30 5810 C 543.874 1.7992 -0.498566 0
M  V30 5811 C 544.225 1.69808 0.982834 0
M  V30 5812 O 543.35 1.25051 1.7661 0
M  V30 5813 C 543.945 3.26677 -0.898204 0
M  V30 5814 C 542.504 3.71513 -0.604583 0
M  V30 5815 C 541.651 2.54393 -1.10362 0
M  V30 5816 H 544.602 1.20526 -1.03244 0
M  V30 5817 H 544.623 3.79918 -0.21039 0
M  V30 5818 H 544.135 3.34004 -1.97643 0
M  V30 5819 H 542.236 3.69708 0.46335 0
M  V30 5820 H 542.349 4.64755 -1.16358 0
M  V30 5821 H 540.713 2.49246 -0.524273 0
M  V30 5822 H 541.496 2.6448 -2.18873 0
M  V30 5823 N 543.941 0.601185 1.45683 0
M  V30 5824 C 544.888 -0.121396 2.30481 0
M  V30 5825 C 545.858 -0.866232 1.41724 0
M  V30 5826 O 547.043 -0.85324 1.70659 0
M  V30 5827 C 544.183 -1.11704 3.26521 0
M  V30 5828 C 543.296 -0.373741 4.3038 0
M  V30 5829 C 542.431 -1.35854 5.13534 0
M  V30 5830 C 541.47 -0.602689 6.09126 0
M  V30 5831 N 540.607 -1.53645 6.85082 0
M  V30 5832 H 545.447 0.607732 2.91737 0
M  V30 5833 H 542.984 0.311502 1.43764 0
M  V30 5834 H 544.942 -1.70735 3.80664 0
M  V30 5835 H 543.572 -1.81366 2.67032 0
M  V30 5836 H 542.624 0.331962 3.78949 0
M  V30 5837 H 543.936 0.2163 4.98331 0
M  V30 5838 H 543.09 -2.02111 5.72046 0
M  V30 5839 H 541.829 -1.98251 4.45587 0
M  V30 5840 H 540.834 0.0735482 5.49751 0
M  V30 5841 H 542.059 0.0161467 6.79098 0
M  V30 5842 H 540.005 -2.14819 6.1983 0
M  V30 5843 H 539.922 -0.999688 7.49361 0
M  V30 5844 H 541.19 -2.1888 7.48139 0
M  V30 5845 N 545.419 -1.53889 0.339982 0
M  V30 5846 C 546.835 -1.59595 -0.0120752 0
M  V30 5847 C 547.035 -1.35605 -1.49042 0
M  V30 5848 O 546.091 -1.14856 -2.24865 0
M  V30 5849 C 547.404 -2.9774 0.420898 0
M  V30 5850 C 548.952 -3.1077 0.37294 0
M  V30 5851 C 549.427 -4.51286 0.781327 0
M  V30 5852 N 550.918 -4.57325 0.735374 0
M  V30 5853 C 551.653 -5.64194 1.02336 0
M  V30 5854 N 551.149 -6.7893 1.37933 0
M  V30 5855 N 552.942 -5.54051 0.947838 0
M  V30 5856 H 545.093 -1.67738 1.30299 0
M  V30 5857 H 547.356 -0.785385 0.530918 0
M  V30 5858 H 547.062 -3.20349 1.45152 0
M  V30 5859 H 546.936 -3.76639 -0.205721 0
M  V30 5860 H 549.323 -2.87886 -0.648505 0
M  V30 5861 H 549.404 -2.33939 1.03472 0
M  V30 5862 H 549.048 -4.74905 1.80077 0
M  V30 5863 H 548.978 -5.26511 0.0970679 0
M  V30 5864 H 551.469 -3.74931 0.472773 0
M  V30 5865 H 551.782 -7.56392 1.58402 0
M  V30 5866 H 550.127 -6.80386 1.41774 0
M  V30 5867 H 553.318 -4.63293 0.669115 0
M  V30 5868 H 553.491 -6.37246 1.17563 0
M  V30 5869 N 546.897 -0.0685191 -1.57451 0
M  V30 5870 C 548.308 0.464634 -1.80826 0
M  V30 5871 C 548.659 1.69847 -0.982169 0
M  V30 5872 O 547.784 2.15439 -0.203734 0
M  V30 5873 C 548.379 0.849721 -3.27971 0
M  V30 5874 C 546.938 1.32776 -3.52204 0
M  V30 5875 C 546.085 0.311332 -2.75547 0
M  V30 5876 H 549.036 -0.294248 -1.55948 0
M  V30 5877 H 549.057 1.71138 -3.39841 0
M  V30 5878 H 548.569 -0.0484736 -3.8807 0
M  V30 5879 H 546.67 2.24456 -2.97406 0
M  V30 5880 H 546.783 1.30794 -4.60901 0
M  V30 5881 H 545.147 0.787915 -2.42206 0
M  V30 5882 H 545.93 -0.579078 -3.38381 0
M  V30 5883 N 548.375 1.56261 0.205012 0
M  V30 5884 C 549.622 1.8004 0.926927 0
M  V30 5885 C 549.95 0.640086 1.83666 0
M  V30 5886 O 549.205 -0.374702 1.92079 0
M  V30 5887 C 549.504 3.09722 1.78345 0
M  V30 5888 C 549.17 4.39082 1.02555 0
M  V30 5889 C 547.832 4.74226 0.816256 0
M  V30 5890 C 550.184 5.18877 0.491559 0
M  V30 5891 C 547.512 5.86668 0.0613287 0
M  V30 5892 C 549.864 6.32105 -0.250107 0
M  V30 5893 C 548.528 6.6584 -0.470508 0
M  V30 5894 H 547.798 0.658812 0.339187 0
M  V30 5895 H 550.445 1.90515 0.19395 0
M  V30 5896 H 548.75 2.9444 2.5848 0
M  V30 5897 H 550.447 3.25324 2.34446 0
M  V30 5898 H 547.037 4.11497 1.19868 0
M  V30 5899 H 551.221 4.92147 0.640684 0
M  V30 5900 H 546.477 6.11283 -0.119501 0
M  V30 5901 H 550.651 6.93157 -0.671307 0
M  V30 5902 H 548.278 7.5281 -1.05739 0
M  V30 5903 N 549.853 -0.472356 1.50355 0
M  V30 5904 C 551.078 -1.25251 1.65309 0
M  V30 5905 C 551.503 -1.85081 0.335643 0
M  V30 5906 O 550.861 -1.67227 -0.700335 0
M  V30 5907 C 550.909 -2.3379 2.74544 0
M  V30 5908 O 550.013 -3.38401 2.35709 0
M  V30 5909 H 549.354 -0.368539 0.552336 0
M  V30 5910 H 551.884 -0.562271 1.96722 0
M  V30 5911 H 551.894 -2.79121 2.97583 0
M  V30 5912 H 550.569 -1.89614 3.70161 0
M  V30 5913 H 549.146 -2.9879 2.23112 0
M  V30 5914 N 551.331 -1.39911 -0.725443 0
M  V30 5915 C 552.263 -1.35301 -1.85003 0
M  V30 5916 C 553.276 -0.260102 -1.60709 0
M  V30 5917 O 554.465 -0.519749 -1.70766 0
M  V30 5918 C 551.565 -1.08039 -3.21218 0
M  V30 5919 C 550.738 -2.28793 -3.7279 0
M  V30 5920 C 549.797 -1.97841 -4.87591 0
M  V30 5921 O 548.823 -2.70616 -5.00755 0
M  V30 5922 N 550.025 -0.950367 -5.72668 0
M  V30 5923 H 552.79 -2.32218 -1.89459 0
M  V30 5924 H 550.351 -1.34137 -0.90658 0
M  V30 5925 H 552.343 -0.853354 -3.95601 0
M  V30 5926 H 550.913 -0.198229 -3.11971 0
M  V30 5927 H 550.133 -2.67388 -2.8965 0
M  V30 5928 H 551.421 -3.09317 -4.03981 0
M  V30 5929 H 550.819 -0.347436 -5.64632 0
M  V30 5930 H 549.376 -0.783232 -6.47077 0
M  V30 5931 N 552.809 0.956637 -1.25245 0
M  V30 5932 C 554.049 1.71585 -1.11076 0
M  V30 5933 C 554.413 1.88916 0.34277 0
M  V30 5934 O 555.614 2.61875 0.606227 0
M  V30 5935 C 553.885 3.06267 -1.84215 0
M  V30 5936 S 555.444 3.97469 -1.85914 0
M  V30 5937 H 552.262 0.589803 -0.397055 0
M  V30 5938 H 554.864 1.14114 -1.58739 0
M  V30 5939 H 553.568 2.91322 -2.89067 0
M  V30 5940 H 553.099 3.688 -1.36931 0
M  V30 5941 H 555.114 4.87316 -0.93474 0
M  V30 5942 N 554.287 1.06798 1.15896 0
M  V30 5943 C 555.217 0.704677 2.22613 0
M  V30 5944 C 556.198 -0.305252 1.67339 0
M  V30 5945 O 557.383 -0.179247 1.93371 0
M  V30 5946 C 554.513 0.0957325 3.47168 0
M  V30 5947 C 553.467 1.0322 4.15367 0
M  V30 5948 C 552.793 0.286293 5.33933 0
M  V30 5949 C 554.093 2.36341 4.65768 0
M  V30 5950 H 555.787 1.59688 2.53259 0
M  V30 5951 H 553.333 0.769257 1.21731 0
M  V30 5952 H 555.286 -0.170333 4.21056 0
M  V30 5953 H 554.01 -0.831516 3.15838 0
M  V30 5954 H 552.669 1.28309 3.43413 0
M  V30 5955 H 552.317 -0.644237 4.98857 0
M  V30 5956 H 552.017 0.910436 5.80504 0
M  V30 5957 H 553.541 0.0278938 6.10594 0
M  V30 5958 H 554.955 2.1561 5.31211 0
M  V30 5959 H 553.352 2.94299 5.2298 0
M  V30 5960 H 554.422 2.99047 3.81705 0
M  V30 5961 N 555.766 -1.3263 0.851289 0
M  V30 5962 C 556.991 -2.02097 0.466006 0
M  V30 5963 C 557.416 -1.63574 -0.928709 0
M  V30 5964 O 556.774 -0.834665 -1.60944 0
M  V30 5965 C 556.822 -3.55425 0.608737 0
M  V30 5966 O 555.926 -4.10827 -0.359878 0
M  V30 5967 H 555.267 -0.636911 0.187724 0
M  V30 5968 H 557.797 -1.69253 1.14955 0
M  V30 5969 H 557.807 -4.04986 0.495006 0
M  V30 5970 H 556.482 -3.82806 1.62581 0
M  V30 5971 H 555.059 -3.72349 -0.202666 0
M  V30 5972 N 557.244 -0.608902 -1.45362 0
M  V30 5973 C 558.472 -0.111013 -2.06602 0
M  V30 5974 C 558.887 1.20516 -1.45332 0
M  V30 5975 O 558.244 1.73437 -0.567978 0
M  V30 5976 C 558.295 0.033688 -3.61484 0
M  V30 5977 O 558.016 -1.23041 -4.20467 0
M  V30 5978 C 559.517 0.562882 -4.39712 0
M  V30 5979 H 556.737 -0.0694453 -0.667397 0
M  V30 5980 H 559.281 -0.837008 -1.86586 0
M  V30 5981 H 557.436 0.710016 -3.80838 0
M  V30 5982 H 557.85 -1.06094 -5.13658 0
M  V30 5983 H 559.324 0.613213 -5.48583 0
M  V30 5984 H 559.801 1.58543 -4.09586 0
M  V30 5985 H 560.407 -0.0794454 -4.25226 0
M  V30 5986 N 558.722 1.53707 -0.348139 0
M  V30 5987 C 559.971 2.0017 0.247992 0
M  V30 5988 C 560.284 1.23983 1.51286 0
M  V30 5989 O 561.49 1.60946 2.18652 0
M  V30 5990 C 559.946 3.56515 0.492459 0
M  V30 5991 C 559.554 4.41562 -0.756777 0
M  V30 5992 C 561.298 4.11381 1.0472 0
M  V30 5993 C 559.205 5.89426 -0.482856 0
M  V30 5994 H 558.135 0.747806 0.0964452 0
M  V30 5995 H 560.786 1.77532 -0.464179 0
M  V30 5996 H 559.168 3.75236 1.26545 0
M  V30 5997 H 560.342 4.34615 -1.53122 0
M  V30 5998 H 558.657 3.97711 -1.23348 0
M  V30 5999 H 561.254 5.19468 1.26717 0
M  V30 6000 H 561.597 3.64885 2.00411 0
M  V30 6001 H 562.13 3.96389 0.334801 0
M  V30 6002 H 558.869 6.40164 -1.40962 0
M  V30 6003 H 558.389 5.99264 0.253416 0
M  V30 6004 H 560.068 6.4692 -0.101816 0
M  V30 6005 N 560.2 0.0768682 1.57412 0
M  V30 6006 C 561.449 -0.590679 1.92857 0
M  V30 6007 C 561.762 -1.70461 0.959293 0
M  V30 6008 O 562.968 -2.43207 1.20675 0
M  V30 6009 C 561.424 -1.10204 3.42612 0
M  V30 6010 C 561.032 -0.0188447 4.47996 0
M  V30 6011 C 562.776 -1.74336 3.87049 0
M  V30 6012 C 560.683 -0.544536 5.88888 0
M  V30 6013 H 559.613 -0.224411 0.71983 0
M  V30 6014 H 562.264 0.149924 1.82887 0
M  V30 6015 H 560.646 -1.89577 3.47673 0
M  V30 6016 H 561.82 0.755936 4.54557 0
M  V30 6017 H 560.135 0.526555 4.13057 0
M  V30 6018 H 562.732 -2.14708 4.89699 0
M  V30 6019 H 563.075 -2.60537 3.24694 0
M  V30 6020 H 563.608 -1.01577 3.84613 0
M  V30 6021 H 560.347 0.280426 6.549 0
M  V30 6022 H 559.867 -1.28673 5.85836 0
M  V30 6023 H 561.546 -1.01933 6.3892 0
M  V30 6024 N 561.678 -1.56367 -0.196722 0
M  V30 6025 C 562.903 -1.84991 -0.937714 0
M  V30 6026 C 563.328 -0.660244 -1.76132 0
M  V30 6027 O 562.686 0.390967 -1.77034 0
M  V30 6028 C 562.734 -3.11828 -1.81096 0
M  V30 6029 O 561.838 -2.92266 -2.90955 0
M  V30 6030 H 561.179 -0.609193 -0.264159 0
M  V30 6031 H 563.709 -2.03595 -0.202529 0
M  V30 6032 H 563.719 -3.42579 -2.21594 0
M  V30 6033 H 562.394 -3.98037 -1.2058 0
M  V30 6034 H 560.971 -2.72809 -2.54224 0
M  V30 6035 N 563.156 0.464375 -1.50603 0
M  V30 6036 C 564.567 1.04507 -1.5471 0
M  V30 6037 C 564.918 1.9297 -0.354542 0
M  V30 6038 O 564.043 2.09763 0.531812 0
M  V30 6039 C 564.638 1.90207 -2.80369 0
M  V30 6040 C 563.197 2.43373 -2.87135 0
M  V30 6041 C 562.344 1.21886 -2.49076 0
M  V30 6042 H 565.295 0.246716 -1.56771 0
M  V30 6043 H 565.316 2.75353 -2.62604 0
M  V30 6044 H 564.828 1.25796 -3.67147 0
M  V30 6045 H 562.929 3.11318 -2.04724 0
M  V30 6046 H 563.042 2.7802 -3.90181 0
M  V30 6047 H 561.406 1.55575 -2.01664 0
M  V30 6048 H 562.189 0.591268 -3.3817 0
M  V30 6049 N 564.634 1.40294 0.718013 0
M  V30 6050 C 565.564 1.43118 1.84498 0
M  V30 6051 C 566.545 0.292403 1.67568 0
M  V30 6052 O 567.73 0.500675 1.87635 0
M  V30 6053 C 564.86 1.29065 3.22427 0
M  V30 6054 C 563.814 2.40521 3.54025 0
M  V30 6055 C 563.14 2.11546 4.91073 0
M  V30 6056 C 564.44 3.82859 3.55269 0
M  V30 6057 H 566.134 2.37432 1.82391 0
M  V30 6058 H 563.68 1.14283 0.87609 0
M  V30 6059 H 565.633 1.29658 4.00957 0
M  V30 6060 H 564.357 0.312271 3.25104 0
M  V30 6061 H 563.016 2.39173 2.77834 0
M  V30 6062 H 562.664 1.12104 4.90348 0
M  V30 6063 H 562.364 2.86216 5.1318 0
M  V30 6064 H 563.888 2.13817 5.71939 0
M  V30 6065 H 565.302 3.86044 4.23843 0
M  V30 6066 H 563.699 4.57029 3.88902 0
M  V30 6067 H 564.769 4.12617 2.54706 0
M  V30 6068 N 566.112 -0.949982 1.2575 0
M  V30 6069 C 567.359 -1.69515 1.10774 0
M  V30 6070 C 567.687 -1.91316 -0.350479 0
M  V30 6071 O 566.942 -1.48515 -1.27443 0
M  V30 6072 C 567.241 -3.08039 1.81237 0
M  V30 6073 C 566.907 -3.06023 3.31151 0
M  V30 6074 C 565.569 -3.0518 3.72047 0
M  V30 6075 C 567.921 -2.98998 4.26907 0
M  V30 6076 C 565.249 -2.95067 5.07102 0
M  V30 6077 C 567.601 -2.90426 5.61992 0
M  V30 6078 C 566.265 -2.87922 6.0221 0
M  V30 6079 H 565.535 -0.6203 0.405351 0
M  V30 6080 H 568.182 -1.10953 1.56082 0
M  V30 6081 H 566.487 -3.70172 1.28373 0
M  V30 6082 H 568.184 -3.64526 1.67098 0
M  V30 6083 H 564.774 -3.07453 2.98614 0
M  V30 6084 H 568.958 -2.98764 3.963 0
M  V30 6085 H 564.214 -2.915 5.37436 0
M  V30 6086 H 568.388 -2.83952 6.35881 0
M  V30 6087 H 566.015 -2.79841 7.06819 0
M  V30 6088 N 567.59 -1.07411 -1.15328 0
M  V30 6089 C 568.553 -0.698914 -2.18284 0
M  V30 6090 C 569.553 0.261149 -1.58665 0
M  V30 6091 O 570.743 0.0420277 -1.74149 0
M  V30 6092 C 567.875 -0.0302427 -3.40887 0
M  V30 6093 H 569.068 -1.61045 -2.52991 0
M  V30 6094 H 566.621 -0.870724 -1.298 0
M  V30 6095 H 567.356 0.893505 -3.11748 0
M  V30 6096 H 567.141 -0.720759 -3.85419 0
M  V30 6097 H 568.631 0.21759 -4.17033 0
M  V30 6098 N 569.068 1.32177 -0.85831 0
M  V30 6099 C 569.978 2.32561 -0.308606 0
M  V30 6100 C 570.994 1.64209 0.575462 0
M  V30 6101 O 572.17 1.95719 0.474961 0
M  V30 6102 C 569.235 3.43207 0.490909 0
M  V30 6103 C 568.296 4.27243 -0.419733 0
M  V30 6104 C 567.529 5.32605 0.341719 0
M  V30 6105 O 567.752 5.48332 1.57125 0
M  V30 6106 O 566.686 6.0118 -0.294379 0
M  V30 6107 H 570.512 2.81477 -1.14037 0
M  V30 6108 H 568.097 1.35866 -0.621349 0
M  V30 6109 H 569.979 4.10677 0.944574 0
M  V30 6110 H 568.654 2.96474 1.29941 0
M  V30 6111 H 567.561 3.62569 -0.921652 0
M  V30 6112 H 568.894 4.7751 -1.19352 0
M  V30 6113 N 570.547 0.616602 1.45037 0
M  V30 6114 C 571.477 -0.0840787 2.33349 0
M  V30 6115 C 572.458 -0.849641 1.4736 0
M  V30 6116 O 573.643 -0.818407 1.76113 0
M  V30 6117 C 570.773 -1.07604 3.3021 0
M  V30 6118 C 569.727 -0.423096 4.25904 0
M  V30 6119 C 569.053 -1.52394 5.12523 0
M  V30 6120 C 570.353 0.661457 5.18095 0
M  V30 6121 H 572.047 0.653333 2.92185 0
M  V30 6122 H 569.593 0.315634 1.40498 0
M  V30 6123 H 571.546 -1.57485 3.90866 0
M  V30 6124 H 570.27 -1.84416 2.69552 0
M  V30 6125 H 568.929 0.05493 3.66559 0
M  V30 6126 H 568.577 -2.28257 4.48227 0
M  V30 6127 H 568.277 -1.09251 5.77354 0
M  V30 6128 H 569.801 -2.02485 5.76049 0
M  V30 6129 H 571.215 0.246353 5.7277 0
M  V30 6130 H 569.612 1.01517 5.91451 0
M  V30 6131 H 570.682 1.53446 4.59981 0
M  V30 6132 N 572.025 -1.5352 0.356285 0
M  V30 6133 C 572.972 -2.25439 -0.494569 0
M  V30 6134 C 573.942 -1.25752 -1.08516 0
M  V30 6135 O 575.127 -1.54513 -1.1194 0
M  V30 6136 C 572.267 -3.04011 -1.63313 0
M  V30 6137 C 571.38 -4.18574 -1.06862 0
M  V30 6138 C 570.515 -4.84607 -2.17552 0
M  V30 6139 C 569.554 -5.91218 -1.58518 0
M  V30 6140 N 568.691 -6.50979 -2.63003 0
M  V30 6141 H 573.531 -2.97737 0.125244 0
M  V30 6142 H 571.068 -1.46916 0.0735789 0
M  V30 6143 H 573.026 -3.47834 -2.30363 0
M  V30 6144 H 571.656 -2.33986 -2.22374 0
M  V30 6145 H 570.708 -3.79303 -0.288672 0
M  V30 6146 H 572.02 -4.95215 -0.596924 0
M  V30 6147 H 571.174 -5.31566 -2.92442 0
M  V30 6148 H 569.913 -4.07418 -2.6807 0
M  V30 6149 H 568.918 -5.4363 -0.821391 0
M  V30 6150 H 570.143 -6.70322 -1.08836 0
M  V30 6151 H 568.089 -5.76648 -3.12751 0
M  V30 6152 H 568.006 -7.23131 -2.20493 0
M  V30 6153 H 569.274 -7.02589 -3.37623 0
M  V30 6154 N 573.503 -0.0852151 -1.57369 0
M  V30 6155 C 574.413 0.891712 -2.16992 0
M  V30 6156 C 575.429 1.3174 -1.13669 0
M  V30 6157 O 576.605 1.38735 -1.45995 0
M  V30 6158 C 573.67 2.13635 -2.73059 0
M  V30 6159 C 572.731 1.7658 -3.91303 0
M  V30 6160 C 571.964 2.95111 -4.44686 0
M  V30 6161 O 572.187 4.09539 -3.97032 0
M  V30 6162 O 571.121 2.74149 -5.35841 0
M  V30 6163 H 574.947 0.414477 -3.00858 0
M  V30 6164 H 572.532 0.138598 -1.48756 0
M  V30 6165 H 574.414 2.86595 -3.08935 0
M  V30 6166 H 573.089 2.6043 -1.92244 0
M  V30 6167 H 571.996 1.00831 -3.60255 0
M  V30 6168 H 573.329 1.34557 -4.7345 0
M  V30 6169 N 574.981 1.5647 0.188427 0
M  V30 6170 C 575.928 1.95073 1.23349 0
M  V30 6171 C 576.898 0.812238 1.44886 0
M  V30 6172 O 578.083 1.07095 1.57909 0
M  V30 6173 C 575.223 2.30124 2.57171 0
M  V30 6174 C 574.336 3.57069 2.43157 0
M  V30 6175 C 573.471 3.81411 3.69729 0
M  V30 6176 C 572.51 5.0176 3.50575 0
M  V30 6177 N 571.647 5.22321 4.69175 0
M  V30 6178 H 576.487 2.84171 0.89728 0
M  V30 6179 H 574.024 1.40623 0.431683 0
M  V30 6180 H 575.982 2.48463 3.35145 0
M  V30 6181 H 574.612 1.44159 2.88822 0
M  V30 6182 H 573.664 3.4674 1.56447 0
M  V30 6183 H 574.976 4.452 2.24942 0
M  V30 6184 H 574.13 4.00026 4.56141 0
M  V30 6185 H 572.869 2.91624 3.90905 0
M  V30 6186 H 571.874 4.83061 2.62549 0
M  V30 6187 H 573.099 5.93063 3.30837 0
M  V30 6188 H 571.045 4.35483 4.90602 0
M  V30 6189 H 570.962 6.04643 4.53809 0
M  V30 6190 H 572.23 5.45401 5.56919 0
M  V30 6191 N 576.459 -0.456382 1.50847 0
M  V30 6192 C 577.684 -1.2349 1.66628 0
M  V30 6193 C 578.109 -1.84715 0.355254 0
M  V30 6194 O 577.467 -1.67961 -0.682559 0
M  V30 6195 C 577.515 -2.30865 2.77009 0
M  V30 6196 O 576.619 -3.35882 2.39285 0
M  V30 6197 H 575.96 -0.36266 0.556214 0
M  V30 6198 H 578.49 -0.541374 1.97308 0
M  V30 6199 H 578.5 -2.75949 3.00526 0
M  V30 6200 H 577.175 -1.85677 3.72152 0
M  V30 6201 H 575.752 -2.96406 2.26269 0
M  V30 6202 N 577.937 -1.40673 -0.710563 0
M  V30 6203 C 578.869 -1.37256 -1.83558 0
M  V30 6204 C 579.882 -0.277133 -1.60424 0
M  V30 6205 O 581.071 -0.537831 -1.70205 0
M  V30 6206 C 578.171 -1.1144 -3.20054 0
M  V30 6207 C 577.344 -2.32734 -3.70342 0
M  V30 6208 C 576.403 -2.03002 -4.85465 0
M  V30 6209 O 575.429 -2.75912 -4.97857 0
M  V30 6210 N 576.631 -1.01105 -5.71627 0
M  V30 6211 H 579.396 -2.34215 -1.86985 0
M  V30 6212 H 576.957 -1.35091 -0.892301 0
M  V30 6213 H 578.949 -0.895265 -3.94673 0
M  V30 6214 H 577.519 -0.231307 -3.11743 0
M  V30 6215 H 576.739 -2.70446 -2.86798 0
M  V30 6216 H 578.027 -3.13584 -4.00678 0
M  V30 6217 H 577.425 -0.407303 -5.64232 0
M  V30 6218 H 575.982 -0.85182 -6.4621 0
M  V30 6219 N 579.415 0.9433 -1.26252 0
M  V30 6220 C 580.378 2.02326 -1.07689 0
M  V30 6221 C 581.378 1.60779 -0.0259174 0
M  V30 6222 O 582.568 1.72108 -0.269134 0
M  V30 6223 C 579.7 3.34886 -0.63752 0
M  V30 6224 H 580.893 2.20225 -2.0357 0
M  V30 6225 H 578.446 1.12197 -1.08819 0
M  V30 6226 H 579.181 3.22684 0.323377 0
M  V30 6227 H 578.966 3.66393 -1.39637 0
M  V30 6228 H 580.456 4.14231 -0.529418 0
M  V30 6229 N 580.893 1.08022 1.14757 0
M  V30 6230 C 582.133 0.816959 1.87364 0
M  V30 6231 C 582.497 -0.645407 1.80827 0
M  V30 6232 O 583.698 -1.024 2.48531 0
M  V30 6233 C 581.969 1.31961 3.32146 0
M  V30 6234 S 583.528 1.18806 4.2241 0
M  V30 6235 H 580.346 0.295862 0.646519 0
M  V30 6236 H 582.948 1.3807 1.38408 0
M  V30 6237 H 581.652 2.37847 3.3445 0
M  V30 6238 H 581.183 0.751371 3.86158 0
M  V30 6239 H 583.198 0.129865 4.9603 0
M  V30 6240 N 582.371 -1.3172 0.865308 0
M  V30 6241 C 583.619 -1.96487 0.472995 0
M  V30 6242 C 583.94 -1.68761 -0.976975 0
M  V30 6243 O 583.21 -1.00051 -1.68424 0
M  V30 6244 H 581.79 -0.726947 0.171922 0
M  V30 6245 H 584.452 -1.60612 1.10407 0
M  V30 6246 H 583.548 -3.0574 0.62687 0
M  V30 6247 N 583.85 -0.624285 -1.44708 0
M  V30 6248 C 585.098 -0.125802 -2.01708 0
M  V30 6249 C 585.418 1.2543 -1.49306 0
M  V30 6250 O 584.689 1.83198 -0.693924 0
M  V30 6251 H 583.269 -0.0435161 -0.745731 0
M  V30 6252 H 585.931 -0.809446 -1.77296 0
M  V30 6253 H 585.027 -0.0882734 -3.11975 0
M  V30 6254 N 585.328 1.53329 -0.364422 0
M  V30 6255 C 586.276 2.27212 0.497737 0
M  V30 6256 C 587.27 1.30146 1.08437 0
M  V30 6257 O 588.476 1.47778 1.0277 0
M  V30 6258 H 584.851 0.730329 0.179232 0
M  V30 6259 H 586.822 2.98037 -0.147182 0
M  V30 6260 C 585.571 3.07333 1.6261 0
M  V30 6261 H 584.894 3.81866 1.184 0
M  V30 6262 H 586.334 3.62209 2.20409 0
M  V30 6263 C 584.793 2.18102 2.56775 0
M  V30 6264 O 585.323 1.79104 3.59562 0
M  V30 6265 N 583.529 1.82759 2.25937 0
M  V30 6266 H 583.076 2.14671 1.42387 0
M  V30 6267 H 583.034 1.23342 2.89196 0
M  V30 6268 N 586.806 0.0935595 1.57322 0
M  V30 6269 C 587.736 -0.863062 2.16964 0
M  V30 6270 C 588.717 -1.29528 1.10256 0
M  V30 6271 O 589.902 -1.36245 1.38387 0
M  V30 6272 C 587.032 -2.12276 2.74875 0
M  V30 6273 C 585.986 -1.82921 3.86942 0
M  V30 6274 C 585.312 -3.15707 4.31548 0
M  V30 6275 C 586.612 -1.11737 5.10208 0
M  V30 6276 H 588.306 -0.366145 2.97153 0
M  V30 6277 H 585.852 -0.174673 1.42937 0
M  V30 6278 H 587.805 -2.79634 3.1525 0
M  V30 6279 H 586.529 -2.64248 1.91938 0
M  V30 6280 H 585.188 -1.17961 3.47103 0
M  V30 6281 H 584.836 -3.65563 3.45504 0
M  V30 6282 H 584.536 -2.96849 5.07104 0
M  V30 6283 H 586.06 -3.84226 4.74555 0
M  V30 6284 H 587.474 -1.69203 5.47762 0
M  V30 6285 H 585.871 -1.03064 5.91183 0
M  V30 6286 H 586.941 -0.0998818 4.84797 0
M  V30 6287 N 588.284 -1.56567 -0.180126 0
M  V30 6288 C 589.532 -1.81133 -0.896392 0
M  V30 6289 C 589.853 -0.669114 -1.83161 0
M  V30 6290 O 589.123 0.311616 -1.93406 0
M  V30 6291 H 587.703 -0.668172 -0.333999 0
M  V30 6292 H 590.365 -1.94048 -0.182051 0
M  V30 6293 H 589.461 -2.74854 -1.47857 0
M  V30 6294 N 589.762 0.448376 -1.51087 0
M  V30 6295 C 590.987 1.22605 -1.6728 0
M  V30 6296 C 591.412 1.84524 -0.365045 0
M  V30 6297 O 590.77 1.6832 0.673642 0
M  V30 6298 C 590.818 2.29393 -2.78229 0
M  V30 6299 O 589.922 3.34608 -2.41063 0
M  V30 6300 H 589.263 0.359705 -0.558129 0
M  V30 6301 H 591.793 0.530903 -1.97592 0
M  V30 6302 H 591.803 2.74352 -3.01986 0
M  V30 6303 H 590.478 1.83701 -3.73131 0
M  V30 6304 H 589.055 2.95202 -2.27838 0
M  V30 6305 N 591.24 1.41047 0.703093 0
M  V30 6306 C 592.489 1.39301 1.4587 0
M  V30 6307 C 592.802 0.00267077 1.956 0
M  V30 6308 O 594.008 -0.137414 2.71152 0
M  V30 6309 C 592.464 2.44891 2.63735 0
M  V30 6310 C 592.072 3.89796 2.20824 0
M  V30 6311 C 593.816 2.5227 3.41409 0
M  V30 6312 C 591.723 4.86955 3.35602 0
M  V30 6313 H 590.653 0.518005 0.547893 0
M  V30 6314 H 593.304 1.66839 0.764009 0
M  V30 6315 H 591.686 2.10472 3.35436 0
M  V30 6316 H 592.86 4.33424 1.56461 0
M  V30 6317 H 591.175 3.86008 1.56163 0
M  V30 6318 H 593.772 3.22044 4.26839 0
M  V30 6319 H 594.115 1.55714 3.86081 0
M  V30 6320 H 594.648 2.85742 2.7676 0
M  V30 6321 H 591.387 5.84888 2.9595 0
M  V30 6322 H 590.907 4.47982 3.98839 0
M  V30 6323 H 592.586 5.07361 4.01489 0
M  V30 6324 N 592.718 -0.936591 1.26751 0
M  V30 6325 C 593.628 -2.06949 1.10496 0
M  V30 6326 C 594.644 -1.7396 0.037271 0
M  V30 6327 O 595.82 -1.99941 0.241944 0
M  V30 6328 C 592.885 -3.38612 0.744491 0
M  V30 6329 C 591.946 -3.85355 1.89209 0
M  V30 6330 C 591.179 -5.10735 1.54873 0
M  V30 6331 O 591.402 -5.68602 0.452546 0
M  V30 6332 O 590.336 -5.52632 2.38499 0
M  V30 6333 H 594.162 -2.23571 2.05547 0
M  V30 6334 H 591.747 -1.05428 1.05855 0
M  V30 6335 H 593.629 -4.17711 0.556396 0
M  V30 6336 H 592.304 -3.23218 -0.176582 0
M  V30 6337 H 591.211 -3.07182 2.13518 0
M  V30 6338 H 592.544 -4.05277 2.79305 0
M  V30 6339 N 594.196 -1.08629 -1.14182 0
M  V30 6340 C 595.106 -0.730126 -2.22949 0
M  V30 6341 C 596.122 0.26436 -1.7198 0
M  V30 6342 O 597.298 0.107742 -2.01112 0
M  V30 6343 C 594.363 -0.147227 -3.46387 0
M  V30 6344 C 593.424 -1.19662 -4.12286 0
M  V30 6345 C 592.657 -0.641437 -5.29831 0
M  V30 6346 O 592.88 0.538351 -5.67854 0
M  V30 6347 O 591.814 -1.39257 -5.85569 0
M  V30 6348 H 595.64 -1.63753 -2.55771 0
M  V30 6349 H 593.225 -0.860118 -1.22157 0
M  V30 6350 H 595.107 0.174923 -4.21037 0
M  V30 6351 H 593.782 0.733304 -3.15285 0
M  V30 6352 H 592.689 -1.57133 -3.395 0
M  V30 6353 H 594.022 -2.0495 -4.475 0
M  V30 6354 N 595.674 1.31259 -0.872281 0
M  V30 6355 C 596.604 2.30929 -0.345554 0
M  V30 6356 C 597.585 1.60449 0.5648 0
M  V30 6357 O 598.77 1.8814 0.481335 0
M  V30 6358 C 595.9 3.44348 0.451823 0
M  V30 6359 C 594.854 4.26435 -0.365641 0
M  V30 6360 C 594.18 5.31785 0.557562 0
M  V30 6361 C 595.48 4.97159 -1.60095 0
M  V30 6362 H 597.174 2.75234 -1.17841 0
M  V30 6363 H 594.72 1.3232 -0.568094 0
M  V30 6364 H 596.673 4.13128 0.830854 0
M  V30 6365 H 595.397 2.98816 1.31821 0
M  V30 6366 H 594.056 3.59326 -0.726649 0
M  V30 6367 H 593.704 4.82502 1.4213 0
M  V30 6368 H 593.404 5.87598 0.0144878 0
M  V30 6369 H 594.928 6.03424 0.933387 0
M  V30 6370 H 596.342 5.58523 -1.29323 0
M  V30 6371 H 594.739 5.62779 -2.08327 0
M  V30 6372 H 595.809 4.24012 -2.35249 0
M  V30 6373 N 597.152 0.631951 1.44375 0
M  V30 6374 C 598.568 0.297642 1.568 0
M  V30 6375 C 598.768 -1.19916 1.61934 0
M  V30 6376 O 597.824 -1.98324 1.56281 0
M  V30 6377 C 599.137 0.990286 2.83926 0
M  V30 6378 C 600.685 0.968507 2.97639 0
M  V30 6379 C 601.16 1.64163 4.27568 0
M  V30 6380 N 602.651 1.60826 4.34384 0
M  V30 6381 C 603.386 2.09802 5.33639 0
M  V30 6382 N 602.882 2.66973 6.39294 0
M  V30 6383 N 604.675 2.00426 5.25153 0
M  V30 6384 H 596.826 1.60353 1.39286 0
M  V30 6385 H 599.089 0.673142 0.667521 0
M  V30 6386 H 598.795 2.04519 2.8612 0
M  V30 6387 H 598.669 0.528563 3.73478 0
M  V30 6388 H 601.056 -0.0779247 2.94997 0
M  V30 6389 H 601.137 1.46873 2.09433 0
M  V30 6390 H 600.781 2.68752 4.3097 0
M  V30 6391 H 600.711 1.11624 5.14634 0
M  V30 6392 H 603.202 1.19087 3.58646 0
M  V30 6393 H 603.515 3.02074 7.11316 0
M  V30 6394 H 601.86 2.71024 6.39977 0
M  V30 6395 H 605.051 1.55483 4.41523 0
M  V30 6396 H 605.224 2.38906 6.02352 0
M  V30 6397 N 598.631 -1.53133 0.372548 0
M  V30 6398 C 599.879 -2.00958 -0.214534 0
M  V30 6399 C 600.2 -1.26135 -1.48711 0
M  V30 6400 O 599.47 -0.376597 -1.92246 0
M  V30 6401 H 598.05 -0.742456 -0.0822664 0
M  V30 6402 H 600.712 -1.88367 0.500385 0
M  V30 6403 H 599.808 -3.09031 -0.436605 0
M  V30 6404 N 600.109 -0.101901 -1.5727 0
M  V30 6405 C 601.072 0.840129 -2.13247 0
M  V30 6406 C 602.072 1.20625 -1.06331 0
M  V30 6407 O 603.262 1.13456 -1.32186 0
M  V30 6408 C 600.394 2.13372 -2.65867 0
M  V30 6409 H 601.587 0.353945 -2.97804 0
M  V30 6410 H 599.14 0.147167 -1.55606 0
M  V30 6411 H 599.875 2.66461 -1.84849 0
M  V30 6412 H 599.66 1.88085 -3.44044 0
M  V30 6413 H 601.15 2.80748 -3.09145 0
M  V30 6414 N 601.587 1.56661 0.17182 0
M  V30 6415 C 602.836 1.81158 0.886831 0
M  V30 6416 C 603.149 0.679072 1.83434 0
M  V30 6417 O 604.355 0.808964 2.59168 0
M  V30 6418 C 602.811 3.20999 1.6275 0
M  V30 6419 C 602.419 4.42117 0.723652 0
M  V30 6420 C 604.163 3.5479 2.33076 0
M  V30 6421 C 602.07 5.7298 1.46452 0
M  V30 6422 H 601 0.675543 0.334899 0
M  V30 6423 H 603.651 1.82967 0.139765 0
M  V30 6424 H 602.033 3.13506 2.4193 0
M  V30 6425 H 603.207 4.60789 -0.0311485 0
M  V30 6426 H 601.522 4.16197 0.130063 0
M  V30 6427 H 604.119 4.49806 2.89099 0
M  V30 6428 H 604.462 2.79646 3.08389 0
M  V30 6429 H 604.995 3.63834 1.6084 0
M  V30 6430 H 601.734 6.51152 0.753729 0
M  V30 6431 H 601.254 5.58285 2.19266 0
M  V30 6432 H 602.933 6.14916 2.01214 0
M  V30 6433 N 603.065 -0.440357 1.51323 0
M  V30 6434 C 604.295 -1.21079 1.67402 0
M  V30 6435 C 604.703 -1.85555 0.369599 0
M  V30 6436 O 604.046 -1.71375 -0.661525 0
M  V30 6437 C 604.108 -2.33839 2.73056 0
M  V30 6438 C 603.772 -1.89755 4.15743 0
M  V30 6439 C 604.769 -1.40268 5.0062 0
M  V30 6440 C 602.454 -1.97539 4.61826 0
M  V30 6441 C 604.448 -0.991474 6.29642 0
M  V30 6442 C 602.135 -1.56029 5.90845 0
M  V30 6443 C 603.133 -1.06915 6.7458 0
M  V30 6444 O 602.821 -0.659933 8.01187 0
M  V30 6445 H 602.553 -0.371133 0.56501 0
M  V30 6446 H 605.107 -0.528409 1.98487 0
M  V30 6447 H 603.337 -3.05345 2.37279 0
M  V30 6448 H 605.026 -2.95713 2.78044 0
M  V30 6449 H 605.792 -1.33652 4.66221 0
M  V30 6450 H 601.671 -2.34713 3.96776 0
M  V30 6451 H 605.215 -0.607425 6.9495 0
M  V30 6452 H 601.112 -1.62315 6.24759 0
M  V30 6453 H 601.88 -0.786052 8.14717 0
M  V30 6454 N 604.543 -1.41418 -0.695603 0
M  V30 6455 C 605.473 -1.46035 -1.82197 0
M  V30 6456 C 606.454 -0.319025 -1.67082 0
M  V30 6457 O 607.639 -0.530462 -1.86815 0
M  V30 6458 C 604.769 -1.34179 -3.20333 0
M  V30 6459 C 603.723 -2.46123 -3.50154 0
M  V30 6460 C 603.049 -2.19332 -4.87645 0
M  V30 6461 C 604.349 -3.88463 -3.49133 0
M  V30 6462 H 606.043 -2.40303 -1.78591 0
M  V30 6463 H 603.589 -1.15663 -0.857797 0
M  V30 6464 H 605.542 -1.36021 -3.98844 0
M  V30 6465 H 604.266 -0.363952 -3.24566 0
M  V30 6466 H 602.925 -2.43563 -2.73994 0
M  V30 6467 H 602.573 -1.19891 -4.88503 0
M  V30 6468 H 602.273 -2.94344 -5.08562 0
M  V30 6469 H 603.797 -2.22889 -5.68465 0
M  V30 6470 H 605.211 -3.92738 -4.17648 0
M  V30 6471 H 603.608 -4.63158 -3.81582 0
M  V30 6472 H 604.678 -4.16617 -2.48109 0
M  V30 6473 N 606.021 0.929856 -1.27246 0
M  V30 6474 C 606.984 2.01172 -1.09829 0
M  V30 6475 C 607.984 1.60743 -0.0429687 0
M  V30 6476 O 609.174 1.71813 -0.287373 0
M  V30 6477 C 606.306 3.34191 -0.673003 0
M  V30 6478 H 607.499 2.18054 -2.05895 0
M  V30 6479 H 605.052 1.11036 -1.10003 0
M  V30 6480 H 605.787 3.23009 0.289134 0
M  V30 6481 H 605.572 3.64892 -1.43515 0
M  V30 6482 H 607.062 4.13646 -0.573323 0
M  V30 6483 N 607.499 1.09233 1.13605 0
M  V30 6484 C 608.409 0.741939 2.22559 0
M  V30 6485 C 609.425 -0.255236 1.72118 0
M  V30 6486 O 610.601 -0.0970747 2.01166 0
M  V30 6487 C 607.666 0.165595 3.46304 0
M  V30 6488 C 606.727 1.21846 4.11645 0
M  V30 6489 C 605.96 0.669526 5.29484 0
M  V30 6490 O 606.183 -0.508228 5.68131 0
M  V30 6491 O 605.117 1.42361 5.84822 0
M  V30 6492 H 608.943 1.65107 2.54899 0
M  V30 6493 H 606.528 0.866584 1.21699 0
M  V30 6494 H 608.41 -0.152592 4.21124 0
M  V30 6495 H 607.085 -0.716573 3.15669 0
M  V30 6496 H 605.992 1.58931 3.38662 0
M  V30 6497 H 607.325 2.07321 4.46407 0
M  V30 6498 N 608.977 -1.30795 0.87923 0
M  V30 6499 C 609.887 -2.32041 0.345565 0
M  V30 6500 C 610.903 -1.65103 -0.549265 0
M  V30 6501 O 612.079 -1.9645 -0.443763 0
M  V30 6502 C 609.144 -3.43944 -0.436245 0
M  V30 6503 C 608.205 -4.26521 0.48765 0
M  V30 6504 C 607.438 -5.33081 -0.256943 0
M  V30 6505 O 607.661 -5.50762 -1.48381 0
M  V30 6506 O 606.595 -6.00635 0.389985 0
M  V30 6507 H 610.421 -2.79627 1.18501 0
M  V30 6508 H 608.006 -1.3486 0.642885 0
M  V30 6509 H 609.888 -4.12128 -0.879119 0
M  V30 6510 H 608.563 -2.98504 -1.25208 0
M  V30 6511 H 607.47 -3.61057 0.979216 0
M  V30 6512 H 608.803 -4.75551 1.26933 0
M  V30 6513 N 610.455 -0.639598 -1.44038 0
M  V30 6514 C 611.418 0.0506628 -2.29144 0
M  V30 6515 C 612.418 0.764001 -1.41491 0
M  V30 6516 O 613.608 0.607309 -1.63271 0
M  V30 6517 C 610.74 1.0824 -3.2326 0
M  V30 6518 H 611.933 -0.697987 -2.91664 0
M  V30 6519 H 609.486 -0.400146 -1.51091 0
M  V30 6520 H 610.221 1.86075 -2.65606 0
M  V30 6521 H 610.006 0.574725 -3.87865 0
M  V30 6522 H 611.496 1.56487 -3.87171 0
M  V30 6523 N 611.933 1.52934 -0.380664 0
M  V30 6524 C 613.173 2.03378 0.204161 0
M  V30 6525 C 613.537 1.26132 1.44758 0
M  V30 6526 O 614.738 1.66657 2.109 0
M  V30 6527 C 613.009 3.54241 0.474118 0
M  V30 6528 S 614.568 4.26529 1.03046 0
M  V30 6529 H 611.386 0.708608 0.0582719 0
M  V30 6530 H 613.988 1.88263 -0.527017 0
M  V30 6531 H 612.692 4.08055 -0.438088 0
M  V30 6532 H 612.223 3.73547 1.23396 0
M  V30 6533 H 614.238 4.38964 2.31354 0
M  V30 6534 N 613.412 0.11024 1.57214 0
M  V30 6535 C 614.823 -0.416527 1.81994 0
M  V30 6536 C 615.174 -1.67183 1.02686 0
M  V30 6537 O 614.299 -2.14823 0.260782 0
M  V30 6538 C 614.894 -0.762466 3.30109 0
M  V30 6539 C 613.453 -1.23391 3.556 0
M  V30 6540 C 612.6 -0.238166 2.76275 0
M  V30 6541 H 615.551 0.335491 1.55113 0
M  V30 6542 H 615.572 -1.62068 3.44259 0
M  V30 6543 H 615.084 0.151346 3.87805 0
M  V30 6544 H 613.185 -2.16492 3.03253 0
M  V30 6545 H 613.298 -1.18528 4.64207 0
M  V30 6546 H 611.662 -0.723421 2.4421 0
M  V30 6547 H 612.445 0.668591 3.36727 0
M  V30 6548 N 614.89 -1.56749 -0.16351 0
M  V30 6549 C 616.138 -1.82074 -0.87713 0
M  V30 6550 C 616.459 -0.688503 -1.82441 0
M  V30 6551 O 615.729 0.291085 -1.93725 0
M  V30 6552 H 614.309 -0.671677 -0.326893 0
M  V30 6553 H 616.971 -1.9423 -0.161459 0
M  V30 6554 H 616.067 -2.76407 -1.44934 0
M  V30 6555 N 616.368 0.432326 -1.51554 0
M  V30 6556 C 617.617 1.17831 -1.63703 0
M  V30 6557 C 617.93 1.92229 -0.36156 0
M  V30 6558 O 619.136 2.69069 -0.362495 0
M  V30 6559 C 617.592 2.14318 -2.89129 0
M  V30 6560 C 617.2 1.45544 -4.23699 0
M  V30 6561 C 618.944 2.89319 -3.10636 0
M  V30 6562 C 616.851 2.40545 -5.4027 0
M  V30 6563 H 615.781 0.443533 -0.60975 0
M  V30 6564 H 618.432 0.444878 -1.78026 0
M  V30 6565 H 616.814 2.91117 -2.68452 0
M  V30 6566 H 617.988 0.742693 -4.54775 0
M  V30 6567 H 616.303 0.826772 -4.0811 0
M  V30 6568 H 618.9 3.60495 -3.94902 0
M  V30 6569 H 619.243 3.50951 -2.23918 0
M  V30 6570 H 619.776 2.19625 -3.31677 0
M  V30 6571 H 616.515 1.83594 -6.29264 0
M  V30 6572 H 616.035 3.09859 -5.13563 0
M  V30 6573 H 617.714 3.01569 -5.72421 0
M  V30 6574 N 617.846 1.41785 0.688094 0
M  V30 6575 C 619.071 1.45117 1.48175 0
M  V30 6576 C 619.496 0.060129 1.88004 0
M  V30 6577 O 618.854 -0.938385 1.55126 0
M  V30 6578 C 618.902 2.37224 2.71583 0
M  V30 6579 O 618.006 1.83443 3.69354 0
M  V30 6580 H 617.347 0.492208 0.445676 0
M  V30 6581 H 619.877 1.86329 0.845145 0
M  V30 6582 H 619.887 2.53353 3.19806 0
M  V30 6583 H 618.562 3.38293 2.41931 0
M  V30 6584 H 617.139 1.76802 3.28322 0
M  V30 6585 N 619.324 -0.923095 1.27737 0
M  V30 6586 C 620.601 -1.64989 1.05062 0
M  V30 6587 C 620.981 -2.07018 -0.413124 0
M  V30 6588 O 620.329 -1.80797 -1.39731 0
M  V30 6589 C 620.539 -2.84847 2.01652 0
M  V30 6590 C 621.887 -3.56083 2.31279 0
M  V30 6591 O 622.911 -2.94981 1.99662 0
M  V30 6592 O 621.77 -4.66182 2.85196 0
M  V30 6593 H 618.864 -0.723357 0.400853 0
M  V30 6594 H 621.41 -0.973224 1.3902 0
M  V30 6595 H 620.182 -2.50814 3.00347 0
M  V30 6596 H 619.805 -3.60231 1.68284 0
M  V30 6597 N 620.802 -1.09834 -1.13024 0
M  V30 6598 C 622.03 -0.858902 -1.8823 0
M  V30 6599 C 622.445 0.590164 -1.79339 0
M  V30 6600 O 621.802 1.4065 -1.16292 0
M  V30 6601 C 621.853 -1.29066 -3.37675 0
M  V30 6602 O 621.574 -2.6829 -3.46341 0
M  V30 6603 C 623.075 -1.08421 -4.29837 0
M  V30 6604 H 620.295 -0.308713 -0.595766 0
M  V30 6605 H 622.839 -1.4614 -1.4305 0
M  V30 6606 H 620.994 -0.731961 -3.80422 0
M  V30 6607 H 621.408 -2.86598 -4.39274 0
M  V30 6608 H 622.882 -1.43553 -5.33007 0
M  V30 6609 H 623.359 -0.0223315 -4.39194 0
M  V30 6610 H 623.965 -1.62907 -3.92863 0
M  V30 6611 N 622.28 1.30327 -0.886154 0
M  V30 6612 C 623.213 2.26241 -0.298407 0
M  V30 6613 C 624.191 1.51839 0.581704 0
M  V30 6614 O 625.375 1.80851 0.531536 0
M  V30 6615 C 622.502 3.33768 0.575888 0
M  V30 6616 C 621.548 4.25852 -0.235057 0
M  V30 6617 S 622.381 5.10277 -1.62411 0
M  V30 6618 C 623.537 6.21313 -0.756368 0
M  V30 6619 H 623.77 2.75744 -1.11141 0
M  V30 6620 H 621.303 1.38341 -0.685651 0
M  V30 6621 H 623.261 3.96186 1.07458 0
M  V30 6622 H 621.922 2.82986 1.363 0
M  V30 6623 H 621.115 5.02143 0.432198 0
M  V30 6624 H 620.717 3.68015 -0.666409 0
M  V30 6625 H 623.009 6.77495 0.0261451 0
M  V30 6626 H 623.952 6.92226 -1.49093 0
M  V30 6627 H 624.36 5.63611 -0.316749 0
M  V30 6628 N 623.758 0.647228 1.43697 0
M  V30 6629 C 625.004 0.158422 2.0218 0
M  V30 6630 C 625.337 -1.22233 1.50907 0
M  V30 6631 O 624.612 -1.81478 0.699702 0
M  V30 6632 C 624.895 0.1627 3.59732 0
M  V30 6633 C 624.748 1.57694 4.21251 0
M  V30 6634 C 626.067 -0.504138 4.37203 0
M  V30 6635 H 623.186 0.059042 0.734631 0
M  V30 6636 H 625.828 0.826772 1.71069 0
M  V30 6637 H 623.978 -0.406414 3.86368 0
M  V30 6638 H 625.65 2.19618 4.05667 0
M  V30 6639 H 623.893 2.12603 3.7813 0
M  V30 6640 H 624.564 1.53183 5.3032 0
M  V30 6641 H 627.04 -0.0199841 4.16095 0
M  V30 6642 H 625.916 -0.470394 5.46881 0
M  V30 6643 H 626.177 -1.57726 4.13007 0
M  V30 6644 N 625.236 -1.5273 0.388769 0
M  V30 6645 C 626.199 -2.25043 -0.434544 0
M  V30 6646 C 627.199 -1.26661 -0.990644 0
M  V30 6647 O 628.389 -1.50762 -0.872731 0
M  V30 6648 C 625.521 -3.00507 -1.60961 0
M  V30 6649 H 626.714 -2.99242 0.198549 0
M  V30 6650 H 624.267 -1.55664 0.140875 0
M  V30 6651 H 625.002 -2.30607 -2.28015 0
M  V30 6652 H 624.787 -3.72716 -1.21757 0
M  V30 6653 H 626.277 -3.55413 -2.19251 0
M  V30 6654 N 626.714 -0.118576 -1.57153 0
M  V30 6655 C 627.646 0.862247 -2.12363 0
M  V30 6656 C 628.659 1.23025 -1.06625 0
M  V30 6657 O 629.848 1.17927 -1.33998 0
M  V30 6658 C 626.948 2.16425 -2.60794 0
M  V30 6659 C 626.121 1.96801 -3.90626 0
M  V30 6660 C 625.18 3.10726 -4.2466 0
M  V30 6661 O 624.206 2.83659 -4.93484 0
M  V30 6662 N 625.408 4.37147 -3.81946 0
M  V30 6663 H 628.173 0.390564 -2.97144 0
M  V30 6664 H 625.734 0.0658591 -1.61766 0
M  V30 6665 H 627.726 2.91633 -2.80593 0
M  V30 6666 H 626.296 2.54943 -1.80895 0
M  V30 6667 H 625.516 1.05787 -3.7974 0
M  V30 6668 H 626.804 1.80993 -4.7552 0
M  V30 6669 H 626.202 4.62014 -3.26435 0
M  V30 6670 H 624.759 5.09229 -4.06853 0
M  V30 6671 N 628.193 1.56834 0.155195 0
M  V30 6672 C 629.123 2.00678 1.19376 0
M  V30 6673 C 630.104 0.884973 1.45266 0
M  V30 6674 O 631.289 1.1522 1.56326 0
M  V30 6675 C 628.419 2.38042 2.5289 0
M  V30 6676 C 627.373 3.53332 2.41538 0
M  V30 6677 C 626.699 3.76485 3.79688 0
M  V30 6678 C 627.999 4.86265 1.9064 0
M  V30 6679 H 629.693 2.87688 0.829232 0
M  V30 6680 H 627.239 1.38407 0.397445 0
M  V30 6681 H 629.192 2.67314 3.25763 0
M  V30 6682 H 627.916 1.4796 2.91162 0
M  V30 6683 H 626.575 3.24213 1.71117 0
M  V30 6684 H 626.223 2.83667 4.15382 0
M  V30 6685 H 625.923 4.54068 3.72956 0
M  V30 6686 H 627.447 4.08174 4.54122 0
M  V30 6687 H 628.861 5.14308 2.53299 0
M  V30 6688 H 627.258 5.67597 1.94818 0
M  V30 6689 H 628.328 4.77184 0.861596 0
M  V30 6690 N 629.671 -0.424282 1.51781 0
M  V30 6691 C 630.917 -1.17434 1.6534 0
M  V30 6692 C 631.25 -1.90549 0.374806 0
M  V30 6693 O 630.525 -1.84145 -0.626179 0
M  V30 6694 C 630.808 -2.18093 2.86544 0
M  V30 6695 C 630.661 -1.48975 4.24413 0
M  V30 6696 C 631.98 -3.18934 3.03264 0
M  V30 6697 H 629.099 -0.425566 0.601716 0
M  V30 6698 H 631.741 -0.461921 1.84299 0
M  V30 6699 H 629.891 -2.78849 2.7051 0
M  V30 6700 H 631.563 -0.914551 4.52143 0
M  V30 6701 H 629.806 -0.791893 4.26511 0
M  V30 6702 H 630.477 -2.22347 5.05238 0
M  V30 6703 H 632.953 -2.68243 3.18096 0
M  V30 6704 H 631.829 -3.86645 3.89611 0
M  V30 6705 H 632.09 -3.85793 2.15908 0
M  V30 6706 N 631.149 -1.42148 -0.680565 0
M  V30 6707 C 632.081 -1.41119 -1.80605 0
M  V30 6708 C 633.094 -0.311099 -1.598 0
M  V30 6709 O 634.283 -0.573813 -1.69026 0
M  V30 6710 C 631.383 -1.18204 -3.17618 0
M  V30 6711 C 630.556 -2.40537 -3.65322 0
M  V30 6712 C 629.615 -2.13254 -4.8105 0
M  V30 6713 O 628.641 -2.8641 -4.91892 0
M  V30 6714 N 629.843 -1.13208 -5.69354 0
M  V30 6715 H 632.608 -2.38128 -1.81975 0
M  V30 6716 H 630.169 -1.36953 -0.863446 0
M  V30 6717 H 632.161 -0.97878 -3.92686 0
M  V30 6718 H 630.731 -0.29738 -3.11182 0
M  V30 6719 H 629.951 -2.76468 -2.80996 0
M  V30 6720 H 631.239 -3.22012 -3.93936 0
M  V30 6721 H 630.637 -0.526893 -5.63241 0
M  V30 6722 H 629.194 -0.988699 -6.44258 0
M  V30 6723 N 632.627 0.916307 -1.28225 0
M  V30 6724 C 634.043 1.19425 -1.05876 0
M  V30 6725 C 634.243 2.005 0.2005 0
M  V30 6726 O 633.299 2.35806 0.902873 0
M  V30 6727 C 634.612 1.93133 -2.30478 0
M  V30 6728 C 636.16 2.06026 -2.35632 0
M  V30 6729 C 636.635 2.83141 -3.59994 0
M  V30 6730 N 638.126 2.90704 -3.60618 0
M  V30 6731 C 638.861 3.50865 -4.53521 0
M  V30 6732 N 638.357 4.12327 -5.56739 0
M  V30 6733 N 640.15 3.48379 -4.41122 0
M  V30 6734 H 632.301 0.37496 -2.09064 0
M  V30 6735 H 634.564 0.228531 -0.920042 0
M  V30 6736 H 634.27 1.40985 -3.22205 0
M  V30 6737 H 634.144 2.93696 -2.36691 0
M  V30 6738 H 636.531 2.57355 -1.44404 0
M  V30 6739 H 636.612 1.04647 -2.33415 0
M  V30 6740 H 636.256 2.32492 -4.51564 0
M  V30 6741 H 636.186 3.84829 -3.59464 0
M  V30 6742 H 638.677 2.47034 -2.85977 0
M  V30 6743 H 638.99 4.56205 -6.23776 0
M  V30 6744 H 637.335 4.10839 -5.60568 0
M  V30 6745 H 640.526 2.99572 -3.59686 0
M  V30 6746 H 640.699 3.94974 -5.13712 0
M  V30 6747 N 634.105 1.10431 1.1244 0
M  V30 6748 C 635.035 0.775143 2.20258 0
M  V30 6749 C 636.016 -0.25186 1.68225 0
M  V30 6750 O 637.201 -0.117637 1.93843 0
M  V30 6751 C 634.331 0.206133 3.46688 0
M  V30 6752 C 633.285 1.16382 4.11873 0
M  V30 6753 C 632.611 0.456014 5.32752 0
M  V30 6754 C 633.911 2.5104 4.58013 0
M  V30 6755 H 635.605 1.67665 2.4805 0
M  V30 6756 H 633.151 0.807595 1.19222 0
M  V30 6757 H 635.104 -0.036291 4.21384 0
M  V30 6758 H 633.828 -0.730614 3.18323 0
M  V30 6759 H 632.487 1.39169 3.39157 0
M  V30 6760 H 632.135 -0.485203 5.00654 0
M  V30 6761 H 631.835 1.09466 5.77314 0
M  V30 6762 H 633.359 0.222135 6.10196 0
M  V30 6763 H 634.773 2.32401 5.24083 0
M  V30 6764 H 633.17 3.10789 5.13352 0
M  V30 6765 H 634.24 3.11039 3.71998 0
M  V30 6766 N 635.583 -1.29855 0.893053 0
M  V30 6767 C 636.515 -2.26911 0.32311 0
M  V30 6768 C 637.528 -1.54039 -0.526858 0
M  V30 6769 O 638.717 -1.75132 -0.345095 0
M  V30 6770 C 635.817 -3.34266 -0.558509 0
M  V30 6771 C 634.99 -4.36601 0.264222 0
M  V30 6772 C 634.049 -5.23326 -0.549171 0
M  V30 6773 O 633.075 -5.69192 0.0309883 0
M  V30 6774 N 634.277 -5.50008 -1.85664 0
M  V30 6775 H 637.042 -2.76455 1.15726 0
M  V30 6776 H 634.603 -1.4312 0.756859 0
M  V30 6777 H 636.595 -3.89211 -1.1089 0
M  V30 6778 H 635.165 -2.8459 -1.29334 0
M  V30 6779 H 634.385 -3.81409 0.996046 0
M  V30 6780 H 635.673 -5.02019 0.827906 0
M  V30 6781 H 635.071 -5.14542 -2.35081 0
M  V30 6782 H 633.628 -6.07796 -2.35431 0
M  V30 6783 N 637.061 -0.65484 -1.43351 0
M  V30 6784 C 638.477 -0.32255 -1.56307 0
M  V30 6785 C 638.677 1.17324 -1.63821 0
M  V30 6786 O 637.733 1.95813 -1.59417 0
M  V30 6787 C 639.046 -1.03533 -2.82314 0
M  V30 6788 C 640.594 -1.01574 -2.9606 0
M  V30 6789 C 641.069 -1.70945 -4.24902 0
M  V30 6790 N 642.56 -1.67716 -4.3177 0
M  V30 6791 C 643.295 -2.18265 -5.30234 0
M  V30 6792 N 642.791 -2.7711 -6.34966 0
M  V30 6793 N 644.584 -2.08756 -5.21898 0
M  V30 6794 H 636.735 -1.62549 -1.36717 0
M  V30 6795 H 638.998 -0.683676 -0.656727 0
M  V30 6796 H 638.704 -2.09045 -2.8283 0
M  V30 6797 H 638.578 -0.587913 -3.7259 0
M  V30 6798 H 640.965 0.0309834 -2.95084 0
M  V30 6799 H 641.046 -1.50186 -2.07069 0
M  V30 6800 H 640.69 -2.75574 -4.26639 0
M  V30 6801 H 640.62 -1.19797 -5.12793 0
M  V30 6802 H 643.111 -1.24777 -3.56706 0
M  V30 6803 H 643.424 -3.13353 -7.06421 0
M  V30 6804 H 641.769 -2.81171 -6.35585 0
M  V30 6805 H 644.96 -1.62488 -4.38994 0
M  V30 6806 H 645.133 -2.48459 -5.98475 0
M  V30 6807 N 638.539 1.52521 -0.396863 0
M  V30 6808 C 639.769 2.05792 0.182485 0
M  V30 6809 C 640.177 1.26784 1.40436 0
M  V30 6810 O 639.52 0.309617 1.81072 0
M  V30 6811 C 639.582 3.54291 0.609781 0
M  V30 6812 C 639.246 4.5426 -0.499674 0
M  V30 6813 C 640.243 5.01812 -1.35944 0
M  V30 6814 C 637.928 4.97827 -0.668864 0
M  V30 6815 C 639.922 5.91562 -2.37346 0
M  V30 6816 C 637.609 5.87376 -1.68621 0
M  V30 6817 C 638.607 6.34137 -2.53692 0
M  V30 6818 O 638.295 7.21915 -3.53686 0
M  V30 6819 H 638.027 0.675362 0.0293583 0
M  V30 6820 H 640.581 1.97539 -0.56281 0
M  V30 6821 H 638.811 3.60188 1.40717 0
M  V30 6822 H 640.5 3.90267 1.11565 0
M  V30 6823 H 641.266 4.68879 -1.24008 0
M  V30 6824 H 637.145 4.60997 -0.0163971 0
M  V30 6825 H 640.689 6.27983 -3.03782 0
M  V30 6826 H 636.586 6.19723 -1.80593 0
M  V30 6827 H 637.354 7.39996 -3.49784 0
M  V30 6828 N 640.017 0.126909 1.57088 0
M  V30 6829 C 641.242 -0.53997 2.00248 0
M  V30 6830 C 641.667 -1.58927 1.00618 0
M  V30 6831 O 641.025 -1.81288 -0.0210131 0
M  V30 6832 C 641.073 -1.13565 3.4225 0
M  V30 6833 O 640.177 -2.25103 3.45547 0
M  V30 6834 H 639.518 -0.13412 0.650314 0
M  V30 6835 H 642.048 0.217718 2.03438 0
M  V30 6836 H 642.058 -1.46925 3.80627 0
M  V30 6837 H 640.733 -0.367122 4.14277 0
M  V30 6838 H 639.31 -1.93123 3.18995 0
M  V30 6839 N 641.495 -1.56914 -0.146875 0
M  V30 6840 C 642.425 -2.01308 -1.1831 0
M  V30 6841 C 643.406 -0.892664 -1.44795 0
M  V30 6842 O 644.591 -1.16048 -1.55713 0
M  V30 6843 C 641.721 -2.3938 -2.51624 0
M  V30 6844 C 640.675 -3.54608 -2.3966 0
M  V30 6845 C 640.001 -3.78493 -3.77686 0
M  V30 6846 C 641.301 -4.87269 -1.88058 0
M  V30 6847 H 642.995 -2.88123 -0.813964 0
M  V30 6848 H 640.541 -1.38615 -0.3901 0
M  V30 6849 H 642.494 -2.69037 -3.24341 0
M  V30 6850 H 641.218 -1.49502 -2.90373 0
M  V30 6851 H 639.877 -3.25116 -1.69396 0
M  V30 6852 H 639.525 -2.85866 -4.13871 0
M  V30 6853 H 639.225 -4.56039 -3.70543 0
M  V30 6854 H 640.749 -4.10576 -4.51951 0
M  V30 6855 H 642.163 -5.15644 -2.50568 0
M  V30 6856 H 640.56 -5.68622 -1.91805 0
M  V30 6857 H 641.63 -4.77634 -0.836277 0
M  V30 6858 N 642.974 0.416227 -1.52004 0
M  V30 6859 C 644.199 1.19029 -1.69843 0
M  V30 6860 C 644.624 1.83708 -0.404103 0
M  V30 6861 O 643.982 1.69711 0.637787 0
M  V30 6862 C 644.03 2.23439 -2.83032 0
M  V30 6863 O 643.134 3.29419 -2.48106 0
M  V30 6864 H 642.475 0.347785 -0.565634 0
M  V30 6865 H 645.005 0.488871 -1.98674 0
M  V30 6866 H 645.015 2.67884 -3.07737 0
M  V30 6867 H 643.69 1.75745 -3.76944 0
M  V30 6868 H 642.267 2.90303 -2.34048 0
M  V30 6869 N 644.452 1.42507 0.673017 0
M  V30 6870 C 645.7 1.42789 1.43023 0
M  V30 6871 C 646.021 0.0459738 1.94946 0
M  V30 6872 O 645.291 -0.915765 1.73178 0
M  V30 6873 H 643.871 0.525657 0.530748 0
M  V30 6874 H 646.533 1.77944 0.795113 0
M  V30 6875 H 645.629 2.12872 2.28237 0
M  V30 6876 N 645.93 -0.909495 1.28709 0
M  V30 6877 C 647.178 -1.65577 1.15882 0
M  V30 6878 C 647.499 -1.928 -0.292108 0
M  V30 6879 O 646.769 -1.54716 -1.20166 0
M  V30 6880 H 645.349 -0.613714 0.425869 0
M  V30 6881 H 648.011 -1.09108 1.61498 0
M  V30 6882 H 647.107 -2.61634 1.70159 0
M  V30 6883 N 647.408 -1.11026 -1.11852 0
M  V30 6884 C 648.656 -0.854769 -1.83134 0
M  V30 6885 C 648.977 0.621375 -1.84835 0
M  V30 6886 O 648.247 1.45129 -1.31584 0
M  V30 6887 H 646.827 -0.313229 -0.678157 0
M  V30 6888 H 649.489 -1.40178 -1.35411 0
M  V30 6889 H 648.585 -1.22311 -2.87135 0
M  V30 6890 N 648.886 1.2938 -0.899927 0
M  V30 6891 C 650.114 1.99691 -0.541386 0
M  V30 6892 C 650.529 1.67355 0.873936 0
M  V30 6893 O 649.886 0.918728 1.57688 0
M  V30 6894 C 649.937 3.54168 -0.72438 0
M  V30 6895 O 649.658 3.85359 -2.08399 0
M  V30 6896 C 651.159 4.41746 -0.370819 0
M  V30 6897 H 648.379 0.638037 -0.207726 0
M  V30 6898 H 650.923 1.6491 -1.20934 0
M  V30 6899 H 649.078 3.87261 -0.103607 0
M  V30 6900 H 649.492 4.80032 -2.11352 0
M  V30 6901 H 650.966 5.49256 -0.549693 0
M  V30 6902 H 651.443 4.33712 0.692148 0
M  V30 6903 H 652.049 4.14125 -0.968543 0
M  V30 6904 N 650.364 0.662433 1.43002 0
M  V30 6905 C 651.589 0.186003 2.06564 0
M  V30 6906 C 652.014 -1.14314 1.49379 0
M  V30 6907 O 651.372 -1.70824 0.607346 0
M  V30 6908 C 651.42 0.118269 3.60406 0
M  V30 6909 O 650.524 -0.916859 4.02079 0
M  V30 6910 H 649.865 0.0990981 0.656563 0
M  V30 6911 H 652.395 0.907958 1.8335 0
M  V30 6912 H 652.405 -0.0619981 4.07953 0
M  V30 6913 H 651.08 1.08849 4.01403 0
M  V30 6914 H 649.657 -0.708635 3.66105 0
M  V30 6915 N 651.842 -1.52309 0.404946 0
M  V30 6916 C 653.067 -2.06666 -0.1743 0
M  V30 6917 C 653.492 -1.27341 -1.38441 0
M  V30 6918 O 652.85 -0.302539 -1.78758 0
M  V30 6919 C 652.898 -3.57014 -0.507262 0
M  V30 6920 O 652.002 -3.80144 -1.59889 0
M  V30 6921 H 651.343 -0.663807 -0.0160273 0
M  V30 6922 H 653.873 -1.96297 0.576937 0
M  V30 6923 H 653.883 -4.00724 -0.767098 0
M  V30 6924 H 652.558 -4.14184 0.377368 0
M  V30 6925 H 651.135 -3.48316 -1.33155 0
M  V30 6926 N 653.32 -0.135238 -1.57019 0
M  V30 6927 C 654.27 0.820408 -2.12728 0
M  V30 6928 C 655.254 1.21735 -1.05211 0
M  V30 6929 O 656.446 1.18574 -1.31413 0
M  V30 6930 C 653.575 2.06414 -2.74314 0
M  V30 6931 C 652.661 1.69083 -3.88937 0
M  V30 6932 N 653.052 1.0251 -4.95303 0
M  V30 6933 C 651.35 1.98434 -3.99425 0
M  V30 6934 C 652.051 0.846749 -5.75504 0
M  V30 6935 N 651.027 1.3769 -5.25873 0
M  V30 6936 H 654.829 0.302426 -2.9234 0
M  V30 6937 H 652.343 0.0667009 -1.62263 0
M  V30 6938 H 654.34 2.75863 -3.12579 0
M  V30 6939 H 653 2.58741 -1.96171 0
M  V30 6940 H 654.011 0.687207 -5.1332 0
M  V30 6941 H 650.688 2.52693 -3.32344 0
M  V30 6942 H 652.078 0.322949 -6.71123 0
M  V30 6943 O 654.837 1.615 0.00369385 0
M  V30 6944 H 655.528 1.8348 0.620863 0
M  V30 END ATOM
M  V30 BEGIN BOND
M  V30 END BOND
M  V30 END CTAB
M  END
$$$$
