drugbank_target|Q9Z1N9 Protein unc-13 homolog B (DB11752)
 OpenBabel12092121233D

  0  0  0     0  0            999 V3000
M  V30 BEGIN CTAB
M  V30 COUNTS 25316 25587 0 0 0
M  V30 BEGIN ATOM
M  V30 1 H -0.908 1.98254 -0.117106 0
M  V30 2 N 0 1.576 0 0
M  V30 3 C 0.933 2.03868 1.02534 0
M  V30 4 C 1.911 0.928543 1.3348 0
M  V30 5 O 3.095 1.19667 1.45644 0
M  V30 6 C 0.222 2.43627 2.35294 0
M  V30 7 C -0.732 3.65373 2.2001 0
M  V30 8 S 0.101 5.13292 1.52614 0
M  V30 9 C 1.257 5.56322 2.86805 0
M  V30 10 H 1.49 2.90518 0.631377 0
M  V30 11 H -0.977 1.52953 0.210867 0
M  V30 12 H 0.981 2.67203 3.11629 0
M  V30 13 H -0.358 1.57376 2.7183 0
M  V30 14 H -1.165 3.90944 3.18086 0
M  V30 15 H -1.563 3.418 1.51819 0
M  V30 16 H 0.729 5.58782 3.83104 0
M  V30 17 H 1.672 6.56266 2.65933 0
M  V30 18 H 2.08 4.83886 2.90714 0
M  V30 19 N 1.4781 -0.272755 1.55222 0
M  V30 20 C 2.7031 -1.02683 1.80197 0
M  V30 21 C 3.1281 -1.79142 0.573551 0
M  V30 22 O 2.4861 -1.74917 -0.476849 0
M  V30 23 C 2.5341 -1.9609 3.02624 0
M  V30 24 O 1.6381 -3.04863 2.77727 0
M  V30 25 H 0.9791 -0.293557 0.595584 0
M  V30 26 H 3.5091 -0.30159 2.02365 0
M  V30 27 H 3.5191 -2.38039 3.31363 0
M  V30 28 H 2.1941 -1.39851 3.91682 0
M  V30 29 H 0.7711 -2.67228 2.60084 0
M  V30 30 N 2.9562 -1.48159 -0.537278 0
M  V30 31 C 3.8862 -1.65029 -1.6519 0
M  V30 32 C 4.8672 -0.499281 -1.62607 0
M  V30 33 O 6.0522 -0.730972 -1.79918 0
M  V30 34 C 3.1822 -1.68303 -3.03795 0
M  V30 35 C 2.1362 -2.8283 -3.21234 0
M  V30 36 C 1.4622 -2.71189 -4.60826 0
M  V30 37 C 2.7622 -4.24211 -3.04701 0
M  V30 38 H 4.4562 -2.58341 -1.51328 0
M  V30 39 H 2.0022 -1.24325 -0.726585 0
M  V30 40 H 3.9552 -1.78693 -3.81637 0
M  V30 41 H 2.6792 -0.715635 -3.18663 0
M  V30 42 H 1.3382 -2.71983 -2.45807 0
M  V30 43 H 0.9862 -1.72435 -4.7252 0
M  V30 44 H 0.6862 -3.48035 -4.7344 0
M  V30 45 H 2.2102 -2.83537 -5.40777 0
M  V30 46 H 3.6242 -4.3593 -3.72341 0
M  V30 47 H 2.0212 -5.01998 -3.28813 0
M  V30 48 H 3.0912 -4.41184 -2.01209 0
M  V30 49 N 4.4343 0.785586 -1.36625 0
M  V30 50 C 5.3643 1.91259 -1.33949 0
M  V30 51 C 6.3453 1.68795 -0.210325 0
M  V30 52 O 7.5303 1.89854 -0.408561 0
M  V30 53 C 4.6603 3.28339 -1.13186 0
M  V30 54 C 3.6143 3.65335 -2.22967 0
M  V30 55 C 2.9403 5.00806 -1.87342 0
M  V30 56 C 4.2403 3.7352 -3.65075 0
M  V30 57 H 5.9343 1.93755 -2.28253 0
M  V30 58 H 3.4803 0.930788 -1.09874 0
M  V30 59 H 5.4333 4.06804 -1.09948 0
M  V30 60 H 4.1573 3.2624 -0.153332 0
M  V30 61 H 2.8163 2.89169 -2.25337 0
M  V30 62 H 2.4643 4.95233 -0.880545 0
M  V30 63 H 2.1643 5.26529 -2.60846 0
M  V30 64 H 3.6883 5.81687 -1.85667 0
M  V30 65 H 5.1023 4.42168 -3.64911 0
M  V30 66 H 3.4993 4.10731 -4.37516 0
M  V30 67 H 4.5693 2.74527 -3.99703 0
M  V30 68 N 5.9124 1.20967 1.01018 0
M  V30 69 C 7.1524 1.03511 1.76252 0
M  V30 70 C 7.5164 -0.42458 1.87247 0
M  V30 71 O 8.7174 -0.719508 2.58991 0
M  V30 72 C 6.9884 1.70726 3.13986 0
M  V30 73 S 8.5474 1.68458 4.05176 0
M  V30 74 H 5.3654 0.371037 0.606508 0
M  V30 75 H 7.9674 1.53628 1.20908 0
M  V30 76 H 6.6714 2.76128 3.03614 0
M  V30 77 H 6.2024 1.20767 3.74405 0
M  V30 78 H 8.2174 0.721987 4.90919 0
M  V30 79 N 7.3905 -1.2043 1.01659 0
M  V30 80 C 8.6365 -1.90079 0.706963 0
M  V30 81 C 8.9695 -1.78648 -0.761474 0
M  V30 82 O 8.2445 -1.17069 -1.55323 0
M  V30 83 C 8.5275 -3.41469 1.14327 0
M  V30 84 C 8.3805 -3.61833 2.67201 0
M  V30 85 C 9.6995 -4.34261 0.714529 0
M  V30 86 H 6.8185 -0.690254 0.2583 0
M  V30 87 H 9.4605 -1.41826 1.26433 0
M  V30 88 H 7.6105 -3.82696 0.669056 0
M  V30 89 H 9.2825 -3.2986 3.22475 0
M  V30 90 H 7.5255 -3.05304 3.08175 0
M  V30 91 H 8.1965 -4.67955 2.92783 0
M  V30 92 H 10.6725 -4.00682 1.12221 0
M  V30 93 H 9.5485 -5.38806 1.04784 0
M  V30 94 H 9.8095 -4.40431 -0.383799 0
M  V30 95 N 8.8686 -0.792821 -1.36206 0
M  V30 96 C 10.2846 -0.474903 -1.52371 0
M  V30 97 C 10.4846 1.00622 -1.74578 0
M  V30 98 O 9.5406 1.79162 -1.77924 0
M  V30 99 C 10.8536 -1.3083 -2.70747 0
M  V30 100 C 12.4016 -1.30234 -2.84619 0
M  V30 101 C 12.8766 -2.11956 -4.06004 0
M  V30 102 N 14.3676 -2.09419 -4.13156 0
M  V30 103 C 15.1026 -2.69419 -5.06163 0
M  V30 104 N 14.5986 -3.3829 -6.04592 0
M  V30 105 N 16.3916 -2.59134 -4.98804 0
M  V30 106 H 8.5426 -1.75222 -1.20046 0
M  V30 107 H 10.8056 -0.745024 -0.586211 0
M  V30 108 H 10.5116 -2.35881 -2.6087 0
M  V30 109 H 10.3856 -0.95196 -3.6499 0
M  V30 110 H 12.7726 -0.259748 -2.93955 0
M  V30 111 H 12.8536 -1.69847 -1.91274 0
M  V30 112 H 12.4976 -3.16248 -3.97429 0
M  V30 113 H 12.4276 -1.69711 -4.98503 0
M  V30 114 H 14.9186 -1.59297 -3.42685 0
M  V30 115 H 15.2316 -3.81394 -6.7213 0
M  V30 116 H 13.5766 -3.42393 -6.04807 0
M  V30 117 H 16.7676 -2.04927 -4.20859 0
M  V30 118 H 16.9406 -3.06185 -5.711 0
M  V30 119 N 10.3467 1.47872 -0.545128 0
M  V30 120 C 11.5927 2.02793 -0.0166104 0
M  V30 121 C 11.9257 1.41987 1.32489 0
M  V30 122 O 11.2007 0.571045 1.85928 0
M  V30 123 C 11.4837 3.59989 0.0893294 0
M  V30 124 C 11.3367 4.3125 -1.27841 0
M  V30 125 C 12.6557 4.32606 0.808724 0
M  V30 126 H 9.7747 0.736962 -0.00751035 0
M  V30 127 H 12.4167 1.76433 -0.705085 0
M  V30 128 H 10.5667 3.82579 0.675681 0
M  V30 129 H 12.2387 4.20035 -1.90704 0
M  V30 130 H 10.4817 3.92076 -1.85632 0
M  V30 131 H 11.1527 5.39736 -1.15713 0
M  V30 132 H 13.6287 4.14936 0.310992 0
M  V30 133 H 12.5047 5.42251 0.851782 0
M  V30 134 H 12.7657 4.00963 1.86229 0
M  V30 135 N 11.8248 0.280983 1.55075 0
M  V30 136 C 12.7718 -0.603937 2.22758 0
M  V30 137 C 13.7418 -1.1452 1.20309 0
M  V30 138 O 14.9268 -1.19343 1.48869 0
M  V30 139 C 12.0668 -1.77947 2.95684 0
M  V30 140 C 11.1798 -1.2715 4.12864 0
M  V30 141 C 10.3148 -2.4093 4.7342 0
M  V30 142 C 9.3538 -1.87165 5.82783 0
M  V30 143 N 8.4908 -2.94441 6.37377 0
M  V30 144 H 13.3308 -0.020124 2.97993 0
M  V30 145 H 10.8678 0.00183425 1.471 0
M  V30 146 H 12.8258 -2.47055 3.36184 0
M  V30 147 H 11.4558 -2.33522 2.22861 0
M  V30 148 H 10.5078 -0.473331 3.77444 0
M  V30 149 H 11.8198 -0.837751 4.91715 0
M  V30 150 H 10.9738 -3.18021 5.1667 0
M  V30 151 H 9.7128 -2.87623 3.93859 0
M  V30 152 H 8.7178 -1.08556 5.38976 0
M  V30 153 H 9.9428 -1.41401 6.64216 0
M  V30 154 H 7.8888 -3.40505 5.60707 0
M  V30 155 H 7.8058 -2.55501 7.11516 0
M  V30 156 H 9.0738 -3.71489 6.85285 0
M  V30 157 N 13.3029 -1.57598 0.00835791 0
M  V30 158 C 14.7189 -1.55764 -0.347822 0
M  V30 159 C 14.9189 -1.01186 -1.74252 0
M  V30 160 O 13.9749 -0.649371 -2.44007 0
M  V30 161 C 15.2879 -2.99927 -0.215407 0
M  V30 162 C 16.8359 -3.11656 -0.289725 0
M  V30 163 C 17.3109 -4.57621 -0.18634 0
M  V30 164 N 18.8019 -4.62557 -0.243978 0
M  V30 165 C 19.5369 -5.73094 -0.18745 0
M  V30 166 N 19.0329 -6.92753 -0.0810331 0
M  V30 167 N 20.8259 -5.61588 -0.239925 0
M  V30 168 H 12.9769 -1.91411 0.92062 0
M  V30 169 H 15.2399 -0.879562 0.353659 0
M  V30 170 H 14.9459 -3.43729 0.744512 0
M  V30 171 H 14.8199 -3.63865 -0.994097 0
M  V30 172 H 17.2069 -2.67779 -1.24009 0
M  V30 173 H 17.2879 -2.5048 0.51898 0
M  V30 174 H 16.9319 -5.02174 0.760519 0
M  V30 175 H 16.8619 -5.16752 -1.01364 0
M  V30 176 H 19.3529 -3.76481 -0.327217 0
M  V30 177 H 19.6659 -7.72787 -0.0440241 0
M  V30 178 H 18.0109 -6.94984 -0.0465419 0
M  V30 179 H 21.2019 -4.66996 -0.321317 0
M  V30 180 H 21.3749 -6.47714 -0.192407 0
M  V30 181 N 14.781 0.264519 -1.55364 0
M  V30 182 C 15.744 1.31046 -1.88042 0
M  V30 183 C 16.744 1.41943 -0.755569 0
M  V30 184 O 17.934 1.40947 -1.02369 0
M  V30 185 C 15.066 2.69067 -2.09323 0
M  V30 186 H 16.259 1.03297 -2.81549 0
M  V30 187 H 13.812 0.502989 -1.47986 0
M  V30 188 H 14.547 3.01982 -1.18226 0
M  V30 189 H 14.332 2.62542 -2.91229 0
M  V30 190 H 15.822 3.44623 -2.35848 0
M  V30 191 N 16.2591 1.48442 0.529413 0
M  V30 192 C 17.2061 1.63007 1.63394 0
M  V30 193 C 18.1761 0.47212 1.59249 0
M  V30 194 O 19.3611 0.695673 1.77666 0
M  V30 195 C 16.5011 1.6763 3.01653 0
M  V30 196 C 15.6141 2.94535 3.16027 0
M  V30 197 C 14.7491 2.90316 4.44849 0
M  V30 198 C 13.7881 4.11923 4.52754 0
M  V30 199 N 12.9251 4.05777 5.72965 0
M  V30 200 H 17.7651 2.5733 1.50285 0
M  V30 201 H 15.3021 1.27613 0.731656 0
M  V30 202 H 17.2601 1.68292 3.81751 0
M  V30 203 H 15.8901 0.76797 3.13532 0
M  V30 204 H 14.9421 3.03615 2.29177 0
M  V30 205 H 16.2541 3.84512 3.17729 0
M  V30 206 H 15.4081 2.89382 5.33238 0
M  V30 207 H 14.1471 1.98068 4.45668 0
M  V30 208 H 13.1521 4.13131 3.62771 0
M  V30 209 H 14.3771 5.0533 4.53672 0
M  V30 210 H 12.3231 3.16351 5.74681 0
M  V30 211 H 12.2401 4.8946 5.76164 0
M  V30 212 H 13.5081 4.08904 6.6364 0
M  V30 213 N 17.7372 -0.778329 1.37039 0
M  V30 214 C 18.9842 -1.53665 1.31884 0
M  V30 215 C 19.3122 -1.9425 -0.0986303 0
M  V30 216 O 18.5672 -1.63832 -1.07041 0
M  V30 217 C 18.8662 -2.81845 2.19768 0
M  V30 218 C 18.5322 -2.60345 3.68146 0
M  V30 219 C 17.1942 -2.5419 4.08584 0
M  V30 220 C 19.5462 -2.40923 4.62175 0
M  V30 221 C 16.8742 -2.26594 5.41177 0
M  V30 222 C 19.2262 -2.14852 5.94997 0
M  V30 223 C 17.8902 -2.07137 6.34547 0
M  V30 224 H 17.1602 -0.562299 0.482598 0
M  V30 225 H 19.8072 -0.897069 1.69189 0
M  V30 226 H 18.1122 -3.50328 1.75436 0
M  V30 227 H 19.8092 -3.39692 2.13097 0
M  V30 228 H 16.3992 -2.65996 3.36072 0
M  V30 229 H 20.5832 -2.44673 4.31797 0
M  V30 230 H 15.8392 -2.19111 5.70789 0
M  V30 231 H 20.0132 -1.98822 6.67415 0
M  V30 232 H 17.6402 -1.85518 7.37216 0
M  V30 233 N 19.2153 -1.21501 -1.00376 0
M  V30 234 C 20.1473 -0.933174 -2.09343 0
M  V30 235 C 21.1603 0.0840896 -1.62583 0
M  V30 236 O 22.3493 -0.148563 -1.77881 0
M  V30 237 C 19.4493 -0.379869 -3.36764 0
M  V30 238 C 18.6223 -1.45176 -4.12605 0
M  V30 239 C 17.6813 -0.907476 -5.18316 0
M  V30 240 O 16.7073 -1.5912 -5.46507 0
M  V30 241 N 17.9093 0.276649 -5.7984 0
M  V30 242 H 20.6743 -1.87124 -2.34104 0
M  V30 243 H 18.2353 -1.12043 -1.16867 0
M  V30 244 H 20.2273 -0.00131488 -4.047 0
M  V30 245 H 18.7973 0.463048 -3.09151 0
M  V30 246 H 18.0173 -2.00411 -3.39454 0
M  V30 247 H 19.3053 -2.17328 -4.6005 0
M  V30 248 H 18.7033 0.849147 -5.59291 0
M  V30 249 H 17.2603 0.596702 -6.49063 0
M  V30 250 N 20.6934 1.19889 -1.02296 0
M  V30 251 C 21.9414 1.89046 -0.714558 0
M  V30 252 C 22.2624 1.79636 0.758681 0
M  V30 253 O 21.5324 1.20292 1.54618 0
M  V30 254 H 20.1124 0.699802 -0.261317 0
M  V30 255 H 22.7744 1.45574 -1.29592 0
M  V30 256 H 21.8704 2.95524 -1.0036 0
M  V30 257 N 22.1715 0.800033 1.35784 0
M  V30 258 C 23.3965 0.388511 2.03729 0
M  V30 259 C 23.8215 -0.990481 1.5991 0
M  V30 260 O 23.1795 -1.64013 0.772612 0
M  V30 261 C 23.2275 0.4726 3.5749 0
M  V30 262 O 22.3315 -0.51646 4.09153 0
M  V30 263 H 21.6725 0.163271 0.643614 0
M  V30 264 H 24.2025 1.0841 1.73518 0
M  V30 265 H 24.2125 0.34003 4.06581 0
M  V30 266 H 22.8875 1.47848 3.88734 0
M  V30 267 H 21.4645 -0.344673 3.71304 0
M  V30 268 N 23.6496 -1.47581 0.552962 0
M  V30 269 C 25.0606 -1.86324 0.118463 0
M  V30 270 C 25.4116 -1.46006 -1.3106 0
M  V30 271 O 24.5366 -0.861182 -1.98526 0
M  V30 272 C 25.1316 -3.3816 0.20821 0
M  V30 273 C 23.6906 -3.7601 -0.171226 0
M  V30 274 C 22.8376 -2.71634 0.557686 0
M  V30 275 H 25.7886 -1.39159 0.762928 0
M  V30 276 H 25.8096 -3.76141 -0.574278 0
M  V30 277 H 25.3216 -3.67473 1.24841 0
M  V30 278 H 23.4226 -3.52313 -1.21269 0
M  V30 279 H 23.5356 -4.78745 0.184379 0
M  V30 280 H 21.8996 -2.547 0.00125792 0
M  V30 281 H 22.6826 -3.0379 1.59896 0
M  V30 282 N 25.1277 -0.289203 -1.54924 0
M  V30 283 C 26.4047 0.376032 -1.91951 0
M  V30 284 C 26.7847 1.72622 -1.21511 0
M  V30 285 O 26.1327 2.25853 -0.346767 0
M  V30 286 C 26.3427 0.502378 -3.45365 0
M  V30 287 C 27.6907 0.778741 -4.17398 0
M  V30 288 O 28.7147 0.586647 -3.51336 0
M  V30 289 O 27.5737 1.14698 -5.34328 0
M  V30 290 H 24.6677 0.208167 -0.800372 0
M  V30 291 H 27.2137 -0.336394 -1.66332 0
M  V30 292 H 25.9857 -0.447255 -3.88736 0
M  V30 293 H 25.6087 1.26373 -3.76982 0
M  V30 294 N 26.6058 1.57591 -0.0167156 0
M  V30 295 C 27.5528 2.09462 0.969251 0
M  V30 296 C 28.5228 0.99381 1.33089 0
M  V30 297 O 29.7078 1.26726 1.42636 0
M  V30 298 C 26.8478 2.61622 2.25051 0
M  V30 299 C 25.9608 3.85666 1.94642 0
M  V30 300 C 25.0958 4.26266 3.16972 0
M  V30 301 C 24.1348 5.43101 2.82326 0
M  V30 302 N 23.2718 5.78915 3.97243 0
M  V30 303 H 28.1118 2.93428 0.519997 0
M  V30 304 H 25.6488 1.45044 0.245087 0
M  V30 305 H 27.6068 2.89949 2.99976 0
M  V30 306 H 26.2368 1.80505 2.67615 0
M  V30 307 H 25.2888 3.64145 1.10013 0
M  V30 308 H 26.6008 4.70678 1.65117 0
M  V30 309 H 25.7548 4.55963 4.00228 0
M  V30 310 H 24.4938 3.39996 3.49648 0
M  V30 311 H 23.4988 5.1311 1.97479 0
M  V30 312 H 24.7238 6.3106 2.50879 0
M  V30 313 H 22.6698 4.95602 4.29785 0
M  V30 314 H 22.5868 6.58539 3.71299 0
M  V30 315 H 23.8548 6.13212 4.81239 0
M  V30 316 N 28.0839 -0.256276 1.55502 0
M  V30 317 C 29.3309 -0.985619 1.76895 0
M  V30 318 C 29.6589 -1.85671 0.579355 0
M  V30 319 O 28.9139 -1.90744 -0.437651 0
M  V30 320 C 29.2129 -1.88432 3.03691 0
M  V30 321 C 28.8789 -1.16936 4.35473 0
M  V30 322 C 27.5409 -0.97173 4.71286 0
M  V30 323 C 29.8929 -0.661889 5.1698 0
M  V30 324 C 27.2209 -0.254179 5.86149 0
M  V30 325 C 29.5729 0.042149 6.32586 0
M  V30 326 C 28.2369 0.25134 6.67027 0
M  V30 327 H 27.5069 -0.360663 0.647304 0
M  V30 328 H 30.1539 -0.256483 1.89775 0
M  V30 329 H 28.4589 -2.68021 2.85783 0
M  V30 330 H 30.1559 -2.45015 3.1744 0
M  V30 331 H 26.7459 -1.33332 4.07333 0
M  V30 332 H 30.9299 -0.802145 4.89775 0
M  V30 333 H 26.1859 -0.0815408 6.11346 0
M  V30 334 H 30.3599 0.443049 6.94989 0
M  V30 335 H 27.9869 0.809314 7.5588 0
M  V30 336 N 29.562 -1.4872 -0.521534 0
M  V30 337 C 30.51 -1.64328 -1.64618 0
M  V30 338 C 31.504 -0.50953 -1.61555 0
M  V30 339 O 32.71 -0.688525 -1.66311 0
M  V30 340 H 29.085 -0.517805 -0.545328 0
M  V30 341 H 31.056 -2.58767 -1.48601 0
M  V30 342 C 29.805 -1.70805 -3.02855 0
M  V30 343 H 29.128 -2.5741 -3.05909 0
M  V30 344 H 30.568 -1.85766 -3.81139 0
M  V30 345 C 29.027 -0.448479 -3.33902 0
M  V30 346 O 29.557 0.434928 -3.99339 0
M  V30 347 N 27.763 -0.317616 -2.88859 0
M  V30 348 H 27.31 -1.03748 -2.35784 0
M  V30 349 H 27.268 0.524113 -3.10001 0
M  V30 350 N 31.0401 0.771051 -1.3745 0
M  V30 351 C 32.2681 1.56015 -1.35893 0
M  V30 352 C 32.6831 1.88718 0.0555523 0
M  V30 353 O 32.0401 1.51502 1.01752 0
M  V30 354 C 32.0911 2.87001 -2.19801 0
M  V30 355 O 31.8121 2.557 -3.55738 0
M  V30 356 C 33.3131 3.81228 -2.26231 0
M  V30 357 H 30.5331 0.483317 -0.465453 0
M  V30 358 H 33.0771 0.955611 -1.80799 0
M  V30 359 H 31.2321 3.43877 -1.78402 0
M  V30 360 H 31.6461 3.39584 -3.99729 0
M  V30 361 H 33.1201 4.70139 -2.89263 0
M  V30 362 H 33.5971 4.20409 -1.27093 0
M  V30 363 H 34.2031 3.30281 -2.67945 0
M  V30 364 N 32.5182 1.22032 0.997298 0
M  V30 365 C 33.7482 1.06686 1.76923 0
M  V30 366 C 34.1562 -0.385838 1.85224 0
M  V30 367 O 33.4992 -1.27929 1.31833 0
M  V30 368 C 33.5612 1.59802 3.22031 0
M  V30 369 C 33.2252 3.08362 3.37286 0
M  V30 370 C 34.2222 4.05835 3.24952 0
M  V30 371 C 31.9072 3.47727 3.6248 0
M  V30 372 C 33.9012 5.4066 3.37588 0
M  V30 373 C 31.5882 4.82701 3.74757 0
M  V30 374 C 32.5862 5.78977 3.62319 0
M  V30 375 O 32.2742 7.11502 3.74193 0
M  V30 376 H 32.0062 0.374767 0.562606 0
M  V30 377 H 34.5602 1.61991 1.26286 0
M  V30 378 H 32.7902 0.989003 3.73839 0
M  V30 379 H 34.4792 1.40184 3.80924 0
M  V30 380 H 35.2452 3.76766 3.05405 0
M  V30 381 H 31.1242 2.73317 3.7124 0
M  V30 382 H 34.6682 6.15788 3.27796 0
M  V30 383 H 30.5652 5.11453 3.9381 0
M  V30 384 H 31.3332 7.19019 3.91093 0
M  V30 385 N 33.9963 -1.19345 1.0293 0
M  V30 386 C 35.2423 -1.89318 0.727083 0
M  V30 387 C 35.5753 -1.79446 -0.742483 0
M  V30 388 O 34.8503 -1.1871 -1.54072 0
M  V30 389 C 35.1333 -3.40238 1.17942 0
M  V30 390 C 34.9863 -3.58979 2.71024 0
M  V30 391 C 36.3053 -4.33479 0.760548 0
M  V30 392 H 33.4243 -0.687475 0.265606 0
M  V30 393 H 36.0663 -1.40477 1.2793 0
M  V30 394 H 34.2163 -3.81964 0.709608 0
M  V30 395 H 35.8883 -3.26421 3.25955 0
M  V30 396 H 34.1313 -3.02018 3.11396 0
M  V30 397 H 34.8023 -4.64823 2.9773 0
M  V30 398 H 37.2783 -3.99469 1.16464 0
M  V30 399 H 36.1543 -5.37664 1.10493 0
M  V30 400 H 36.4153 -4.40813 -0.337063 0
M  V30 401 N 35.4744 -0.807222 -1.35358 0
M  V30 402 C 36.7024 -0.400377 -2.02989 0
M  V30 403 C 37.1174 0.988859 -1.60832 0
M  V30 404 O 36.4744 1.63729 -0.806175 0
M  V30 405 C 36.5254 -0.474867 -3.58368 0
M  V30 406 O 36.2464 -1.80933 -3.98992 0
M  V30 407 C 37.7474 -0.0609112 -4.43258 0
M  V30 408 H 34.9674 -0.162587 -0.651004 0
M  V30 409 H 37.5114 -1.09102 -1.72965 0
M  V30 410 H 35.6664 0.167534 -3.87038 0
M  V30 411 H 36.0804 -1.77256 -4.9364 0
M  V30 412 H 37.5544 -0.164145 -5.51756 0
M  V30 413 H 38.0314 0.993831 -4.27808 0
M  V30 414 H 38.6374 -0.676492 -4.19885 0
M  V30 415 N 36.9525 1.47285 -0.560781 0
M  V30 416 C 37.8825 2.32857 0.173105 0
M  V30 417 C 38.8635 1.44009 0.905281 0
M  V30 418 O 40.0485 1.7286 0.885046 0
M  V30 419 C 37.1785 3.25861 1.20133 0
M  V30 420 C 36.1325 4.23978 0.585388 0
M  V30 421 C 35.4585 5.06332 1.7185 0
M  V30 422 C 36.7585 5.20242 -0.463178 0
M  V30 423 H 38.4525 2.94466 -0.541307 0
M  V30 424 H 35.9985 1.41601 -0.261764 0
M  V30 425 H 37.9515 3.84569 1.72293 0
M  V30 426 H 36.6755 2.62315 1.94573 0
M  V30 427 H 35.3345 3.66501 0.085054 0
M  V30 428 H 34.9825 4.39186 2.45203 0
M  V30 429 H 34.6825 5.72762 1.31213 0
M  V30 430 H 36.2065 5.67899 2.24329 0
M  V30 431 H 37.6205 5.73293 -0.027502 0
M  V30 432 H 36.0175 5.94896 -0.788627 0
M  V30 433 H 37.0875 4.65504 -1.35773 0
M  V30 434 N 38.4306 0.297415 1.54768 0
M  V30 435 C 39.3776 -0.580276 2.23386 0
M  V30 436 C 40.3476 -1.13238 1.21517 0
M  V30 437 O 41.5326 -1.17757 1.50126 0
M  V30 438 C 38.6726 -1.74801 2.97555 0
M  V30 439 C 37.7856 -1.22764 4.1419 0
M  V30 440 C 36.9206 -2.35895 4.75949 0
M  V30 441 C 35.9596 -1.80974 5.84735 0
M  V30 442 N 35.0966 -2.87664 6.40464 0
M  V30 443 H 39.9366 0.0114833 2.97998 0
M  V30 444 H 37.4736 0.0174361 1.4709 0
M  V30 445 H 39.4316 -2.43475 3.38786 0
M  V30 446 H 38.0616 -2.31145 2.25326 0
M  V30 447 H 37.1136 -0.433271 3.77924 0
M  V30 448 H 38.4256 -0.785551 4.92575 0
M  V30 449 H 37.5796 -3.12523 5.20014 0
M  V30 450 H 36.3186 -2.83429 3.96887 0
M  V30 451 H 35.3236 -1.02834 5.40097 0
M  V30 452 H 36.5486 -1.34348 6.65678 0
M  V30 453 H 34.4946 -3.34538 5.64287 0
M  V30 454 H 34.4116 -2.4794 7.14186 0
M  V30 455 H 35.6796 -3.642 6.89187 0
M  V30 456 N 39.9087 -1.5758 0.0250728 0
M  V30 457 C 41.1547 -1.91917 -0.655413 0
M  V30 458 C 41.4877 -0.901433 -1.72011 0
M  V30 459 O 40.7627 0.0764069 -1.9435 0
M  V30 460 C 41.0457 -3.36751 -1.27558 0
M  V30 461 C 40.8987 -4.49258 -0.220719 0
M  V30 462 C 42.2177 -3.81469 -2.19475 0
M  V30 463 H 39.3367 -0.697925 -0.23679 0
M  V30 464 H 41.9787 -1.89825 0.0815036 0
M  V30 465 H 40.1287 -3.38664 -1.90365 0
M  V30 466 H 41.8007 -4.59478 0.409601 0
M  V30 467 H 40.0437 -4.31415 0.454264 0
M  V30 468 H 40.7147 -5.47618 -0.694175 0
M  V30 469 H 43.1907 -3.81266 -1.66659 0
M  V30 470 H 42.0667 -4.83512 -2.59822 0
M  V30 471 H 42.3277 -3.16744 -3.08424 0
M  V30 472 N 41.3868 0.248026 -1.55636 0
M  V30 473 C 42.3188 1.32993 -1.8667 0
M  V30 474 C 43.3318 1.44345 -0.752877 0
M  V30 475 O 44.5208 1.45715 -1.03098 0
M  V30 476 C 41.6208 2.70863 -2.03682 0
M  V30 477 C 40.7938 2.81792 -3.34532 0
M  V30 478 C 39.8528 4.005 -3.41301 0
M  V30 479 O 38.8788 3.9008 -4.14519 0
M  V30 480 N 40.0808 5.13618 -2.70512 0
M  V30 481 H 42.8458 1.06707 -2.8006 0
M  V30 482 H 40.4068 0.438129 -1.55859 0
M  V30 483 H 42.3988 3.48612 -2.05553 0
M  V30 484 H 40.9688 2.89862 -1.17041 0
M  V30 485 H 40.1888 1.90729 -3.44987 0
M  V30 486 H 41.4768 2.86043 -4.20781 0
M  V30 487 H 40.8748 5.24975 -2.10755 0
M  V30 488 H 39.4318 5.89505 -2.78077 0
M  V30 489 N 42.8649 1.48995 0.513639 0
M  V30 490 C 43.8129 1.65199 1.63744 0
M  V30 491 C 44.8069 0.51809 1.61283 0
M  V30 492 O 46.0129 0.697335 1.65943 0
M  V30 493 H 42.3879 0.52069 0.542574 0
M  V30 494 H 44.3589 2.59552 1.47226 0
M  V30 495 C 43.1079 1.72409 3.01945 0
M  V30 496 H 42.4309 2.59029 3.04539 0
M  V30 497 H 43.8709 1.87785 3.80148 0
M  V30 498 C 42.3299 0.46618 3.33659 0
M  V30 499 O 42.8599 -0.413744 3.99564 0
M  V30 500 N 41.0659 0.332931 2.88687 0
M  V30 501 H 40.6129 1.04996 2.35231 0
M  V30 502 H 40.5709 -0.507665 3.10274 0
M  V30 503 N 44.343 -0.763751 1.37857 0
M  V30 504 C 45.589 -1.52483 1.33704 0
M  V30 505 C 45.922 -1.94051 -0.0759612 0
M  V30 506 O 45.197 -1.64675 -1.03501 0
M  V30 507 C 45.48 -2.78441 2.28348 0
M  V30 508 C 45.333 -2.43075 3.78463 0
M  V30 509 C 46.652 -3.80415 2.21298 0
M  V30 510 H 43.771 -0.553169 0.487005 0
M  V30 511 H 46.413 -0.875562 1.68624 0
M  V30 512 H 44.563 -3.33842 1.987 0
M  V30 513 H 46.235 -1.93527 4.18742 0
M  V30 514 H 44.478 -1.75666 3.96641 0
M  V30 515 H 45.149 -3.33149 4.40132 0
M  V30 516 H 47.625 -3.34527 2.47449 0
M  V30 517 H 46.501 -4.66257 2.89647 0
M  V30 518 H 46.762 -4.25262 1.20849 0
M  V30 519 N 45.8211 -1.22559 -0.990812 0
M  V30 520 C 46.7681 -0.997519 -2.0813 0
M  V30 521 C 47.7381 0.0814702 -1.659 0
M  V30 522 O 48.9231 -0.0685424 -1.90677 0
M  V30 523 C 46.0631 -0.583615 -3.40129 0
M  V30 524 C 45.1761 -1.7336 -3.9569 0
M  V30 525 C 44.3111 -1.26748 -5.15857 0
M  V30 526 C 43.3501 -2.38888 -5.63559 0
M  V30 527 N 42.4871 -1.93308 -6.74964 0
M  V30 528 H 47.3271 -1.93099 -2.26973 0
M  V30 529 H 44.8641 -0.962114 -1.11273 0
M  V30 530 H 46.8221 -0.324801 -4.15934 0
M  V30 531 H 45.4521 0.312845 -3.2128 0
M  V30 532 H 44.5041 -2.10669 -3.16738 0
M  V30 533 H 45.8161 -2.57704 -4.27071 0
M  V30 534 H 44.9701 -0.966173 -5.98957 0
M  V30 535 H 43.7091 -0.394272 -4.86104 0
M  V30 536 H 42.7141 -2.69805 -4.79046 0
M  V30 537 H 43.9391 -3.26728 -5.95336 0
M  V30 538 H 41.8851 -1.08352 -6.4699 0
M  V30 539 H 41.8021 -2.71217 -7.05675 0
M  V30 540 H 43.0701 -1.66252 -7.61564 0
M  V30 541 N 47.2992 1.18797 -1.03562 0
M  V30 542 C 48.5242 1.9314 -0.755764 0
M  V30 543 C 48.9492 1.7537 0.68022 0
M  V30 544 O 48.3072 1.06046 1.47051 0
M  V30 545 C 48.3552 3.42747 -1.12058 0
M  V30 546 O 47.4592 4.11683 -0.243124 0
M  V30 547 H 46.8002 0.602724 -0.278604 0
M  V30 548 H 49.3302 1.50678 -1.3841 0
M  V30 549 H 49.3402 3.93437 -1.08035 0
M  V30 550 H 48.0152 3.55002 -2.16672 0
M  V30 551 H 46.5922 3.71323 -0.342539 0
M  V30 552 N 48.7773 0.814389 1.34928 0
M  V30 553 C 50.0053 0.411136 2.02774 0
M  V30 554 C 50.4203 -0.980316 1.61354 0
M  V30 555 O 49.7773 -1.63299 0.814847 0
M  V30 556 C 49.8283 0.493865 3.58111 0
M  V30 557 O 49.5493 1.83047 3.98027 0
M  V30 558 C 51.0503 0.0844174 4.4322 0
M  V30 559 H 48.2703 0.166037 0.650133 0
M  V30 560 H 50.8143 1.10018 1.72384 0
M  V30 561 H 48.9693 -0.147006 3.87121 0
M  V30 562 H 49.3833 1.79872 4.92693 0
M  V30 563 H 50.8573 0.193404 5.51661 0
M  V30 564 H 51.3343 -0.97113 4.28329 0
M  V30 565 H 51.9403 0.69875 4.19521 0
M  V30 566 N 50.2554 -1.46986 0.568584 0
M  V30 567 C 51.4834 -2.0683 0.0539956 0
M  V30 568 C 51.8984 -1.41953 -1.24478 0
M  V30 569 O 51.2554 -0.519933 -1.74937 0
M  V30 570 C 51.3064 -3.61254 -0.133362 0
M  V30 571 O 51.0274 -4.237 1.11399 0
M  V30 572 C 52.5284 -4.37992 -0.683927 0
M  V30 573 H 49.7484 -0.669058 0.0510141 0
M  V30 574 H 52.2924 -1.88824 0.785234 0
M  V30 575 H 50.4474 -3.78735 -0.81477 0
M  V30 576 H 50.8614 -5.16388 0.91888 0
M  V30 577 H 52.3354 -5.46684 -0.764263 0
M  V30 578 H 52.8124 -4.05058 -1.69778 0
M  V30 579 H 53.4184 -4.25283 -0.0378494 0
M  V30 580 N 51.7335 -0.305618 -1.54608 0
M  V30 581 C 52.9795 0.302746 -2.00528 0
M  V30 582 C 53.3125 1.53184 -1.19367 0
M  V30 583 O 52.5875 1.92598 -0.271321 0
M  V30 584 C 52.8705 0.654756 -3.54097 0
M  V30 585 C 52.7235 -0.583793 -4.45995 0
M  V30 586 C 54.0425 1.47947 -4.14487 0
M  V30 587 H 51.1615 0.108564 -0.72896 0
M  V30 588 H 53.8035 -0.418634 -1.85331 0
M  V30 589 H 51.9535 1.26935 -3.67178 0
M  V30 590 H 53.6255 -1.22224 -4.44814 0
M  V30 591 H 51.8685 -1.21615 -4.16404 0
M  V30 592 H 52.5395 -0.293287 -5.5122 0
M  V30 593 H 55.0155 0.96013 -4.04871 0
M  V30 594 H 53.8915 1.69454 -5.22088 0
M  V30 595 H 54.1525 2.47011 -3.66658 0
M  V30 596 N 53.2116 1.57565 -0.0334293 0
M  V30 597 C 54.1746 2.09393 0.932048 0
M  V30 598 C 55.1746 1.00986 1.25134 0
M  V30 599 O 56.3646 1.27129 1.19096 0
M  V30 600 C 53.4966 2.56338 2.2473 0
M  V30 601 H 54.6896 2.95984 0.483085 0
M  V30 602 H 52.2426 1.54819 0.21468 0
M  V30 603 H 52.9776 1.7309 2.74245 0
M  V30 604 H 52.7626 3.35542 2.02865 0
M  V30 605 H 54.2526 2.96646 2.93923 0
M  V30 606 N 54.6897 -0.239769 1.55765 0
M  V30 607 C 55.9357 -0.968234 1.78194 0
M  V30 608 C 56.2687 -1.84701 0.599938 0
M  V30 609 O 55.5437 -1.9031 -0.401524 0
M  V30 610 C 55.8267 -1.8227 3.10564 0
M  V30 611 C 55.6797 -0.971633 4.3918 0
M  V30 612 C 56.9987 -2.80388 3.39221 0
M  V30 613 H 54.1177 -0.350572 0.648281 0
M  V30 614 H 56.7597 -0.238259 1.885 0
M  V30 615 H 54.9097 -2.44507 3.01908 0
M  V30 616 H 56.5817 -0.367408 4.59835 0
M  V30 617 H 54.8247 -0.276276 4.32919 0
M  V30 618 H 55.4957 -1.60346 5.28198 0
M  V30 619 H 57.9717 -2.28287 3.47885 0
M  V30 620 H 56.8477 -3.3729 4.33044 0
M  V30 621 H 57.1087 -3.57212 2.60484 0
M  V30 622 N 56.1678 -1.49265 -0.50573 0
M  V30 623 C 57.5838 -1.35923 -0.836486 0
M  V30 624 C 57.7838 -0.388704 -1.97715 0
M  V30 625 O 56.8398 0.181336 -2.51848 0
M  V30 626 C 58.1528 -2.76531 -1.18115 0
M  V30 627 C 59.7008 -2.85197 -1.28964 0
M  V30 628 C 60.1758 -4.26561 -1.66761 0
M  V30 629 N 61.6668 -4.2935 -1.73819 0
M  V30 630 C 62.4018 -5.35693 -2.045 0
M  V30 631 N 61.8978 -6.52287 -2.33438 0
M  V30 632 N 63.6908 -5.23105 -2.05711 0
M  V30 633 H 55.8418 -2.10965 0.246519 0
M  V30 634 H 58.1048 -0.9468 0.0476887 0
M  V30 635 H 57.8108 -3.49226 -0.416398 0
M  V30 636 H 57.6848 -3.11599 -2.1257 0
M  V30 637 H 60.0718 -2.12742 -2.04511 0
M  V30 638 H 60.1528 -2.53718 -0.325704 0
M  V30 639 H 59.7968 -4.99541 -0.917656 0
M  V30 640 H 59.7268 -4.55502 -2.64246 0
M  V30 641 H 62.2178 -3.4526 -1.53635 0
M  V30 642 H 62.5308 -7.29158 -2.56024 0
M  V30 643 H 60.8758 -6.55521 -2.30905 0
M  V30 644 H 64.0668 -4.31026 -1.82577 0
M  V30 645 H 64.2398 -6.06078 -2.29289 0
M  V30 646 N 57.6459 0.756429 -1.3826 0
M  V30 647 C 58.8939 1.51248 -1.34047 0
M  V30 648 C 59.2149 1.94875 0.0698372 0
M  V30 649 O 58.4849 1.67436 1.01696 0
M  V30 650 H 57.0649 0.561018 -0.493222 0
M  V30 651 H 59.7269 0.899347 -1.7291 0
M  V30 652 H 58.8229 2.40472 -1.98947 0
M  V30 653 N 59.124 1.23083 0.984299 0
M  V30 654 C 60.401 0.9689 1.69917 0
M  V30 655 C 60.781 -0.513604 2.04757 0
M  V30 656 O 60.129 -1.48383 1.73767 0
M  V30 657 C 60.339 1.87518 2.94343 0
M  V30 658 C 61.687 2.13636 3.6694 0
M  V30 659 O 62.711 1.85036 3.04368 0
M  V30 660 O 61.57 2.62119 4.79537 0
M  V30 661 H 58.664 0.365095 0.742048 0
M  V30 662 H 61.21 1.34107 1.03987 0
M  V30 663 H 59.982 2.87756 2.65164 0
M  V30 664 H 59.605 1.50514 3.6801 0
M  V30 665 N 60.6021 -1.18246 1.0419 0
M  V30 666 C 61.5341 -2.2142 0.592088 0
M  V30 667 C 62.5471 -1.59233 -0.338909 0
M  V30 668 O 63.7361 -1.78002 -0.133231 0
M  V30 669 C 60.8361 -3.38546 -0.154854 0
M  V30 670 C 60.0091 -4.3031 0.784328 0
M  V30 671 C 59.0681 -5.26138 0.0804583 0
M  V30 672 O 58.0941 -5.64738 0.711292 0
M  V30 673 N 59.2961 -5.68261 -1.18574 0
M  V30 674 H 62.0611 -2.60636 1.47949 0
M  V30 675 H 59.6221 -1.33044 0.922544 0
M  V30 676 H 61.6141 -3.99678 -0.635606 0
M  V30 677 H 60.1841 -2.98012 -0.943811 0
M  V30 678 H 59.4041 -3.66764 1.44491 0
M  V30 679 H 60.6921 -4.8852 1.42218 0
M  V30 680 H 60.0901 -5.38957 -1.71876 0
M  V30 681 H 58.6471 -6.31584 -1.61074 0
M  V30 682 N 62.0802 -0.821533 -1.34494 0
M  V30 683 C 63.4912 -0.467956 -1.8074 0
M  V30 684 C 63.8422 1.01151 -1.68116 0
M  V30 685 O 62.9672 1.78707 -1.22036 0
M  V30 686 C 63.5622 -0.842627 -3.28154 0
M  V30 687 C 62.1212 -0.541439 -3.72485 0
M  V30 688 C 61.2682 -1.06028 -2.56229 0
M  V30 689 H 64.2192 -1.01183 -1.22261 0
M  V30 690 H 64.2402 -0.145876 -3.8022 0
M  V30 691 H 63.7522 -1.91945 -3.37311 0
M  V30 692 H 61.8532 0.526034 -3.68868 0
M  V30 693 H 61.9662 -1.08453 -4.66663 0
M  V30 694 H 60.3302 -0.481892 -2.501 0
M  V30 695 H 61.1132 -2.14352 -2.68157 0
M  V30 696 N 63.5583 1.46682 -0.576371 0
M  V30 697 C 64.7833 2.07304 -0.0630475 0
M  V30 698 C 65.2083 1.42329 1.2298 0
M  V30 699 O 64.5663 0.504865 1.74129 0
M  V30 700 C 64.6143 3.60472 0.095895 0
M  V30 701 O 63.7183 3.95927 1.15394 0
M  V30 702 H 63.0593 0.661288 -0.0599463 0
M  V30 703 H 65.5893 1.88417 -0.797511 0
M  V30 704 H 65.5993 4.06865 0.304071 0
M  V30 705 H 64.2743 4.07157 -0.84828 0
M  V30 706 H 62.8513 3.61252 0.924724 0
M  V30 707 N 65.0364 0.313813 1.54444 0
M  V30 708 C 66.2824 -0.284918 2.01395 0
M  V30 709 C 66.6374 -1.50537 1.19818 0
M  V30 710 O 65.9304 -1.89692 0.269748 0
M  V30 711 C 66.1244 -0.680386 3.50864 0
M  V30 712 C 65.9534 0.500198 4.4691 0
M  V30 713 C 64.7234 0.996248 4.95382 0
M  V30 714 C 66.9214 1.34928 4.96285 0
M  V30 715 N 64.9034 2.14226 5.75309 0
M  V30 716 C 66.2744 2.3426 5.7404 0
M  V30 717 C 68.3294 1.37818 4.78446 0
M  V30 718 C 67.0324 3.36272 6.35856 0
M  V30 719 C 69.0584 2.38695 5.4109 0
M  V30 720 C 68.4204 3.36755 6.18688 0
M  V30 721 H 64.5194 -0.0683689 0.779006 0
M  V30 722 H 67.1034 0.44664 1.89508 0
M  V30 723 H 65.2744 -1.38109 3.63016 0
M  V30 724 H 67.0064 -1.25975 3.84594 0
M  V30 725 H 63.7614 0.56912 4.70168 0
M  V30 726 H 64.1854 2.72005 6.19953 0
M  V30 727 H 68.8274 0.633747 4.18023 0
M  V30 728 H 66.5454 4.11627 6.95405 0
M  V30 729 H 70.1314 2.41721 5.29209 0
M  V30 730 H 69.0114 4.13535 6.66302 0
M  V30 731 N 66.5145 -1.57545 0.0417849 0
M  V30 732 C 67.4245 -2.14451 -0.951213 0
M  V30 733 C 68.4405 -1.09992 -1.34825 0
M  V30 734 O 69.6165 -1.42114 -1.42708 0
M  V30 735 C 66.6815 -2.67063 -2.21084 0
M  V30 736 C 65.7425 -3.86284 -1.87304 0
M  V30 737 C 64.9755 -4.36378 -3.07261 0
M  V30 738 O 65.1985 -3.85587 -4.20332 0
M  V30 739 O 64.1325 -5.28077 -2.88822 0
M  V30 740 H 67.9585 -2.99601 -0.497287 0
M  V30 741 H 65.5435 -1.48317 -0.179567 0
M  V30 742 H 67.4255 -3.00914 -2.95006 0
M  V30 743 H 66.1005 -1.84989 -2.65633 0
M  V30 744 H 65.0075 -3.57338 -1.10727 0
M  V30 745 H 66.3405 -4.6956 -1.47562 0
M  V30 746 N 67.9926 0.231505 -1.5589 0
M  V30 747 C 68.9246 1.31006 -1.8807 0
M  V30 748 C 69.9376 1.43539 -0.768145 0
M  V30 749 O 71.1266 1.44614 -1.04638 0
M  V30 750 C 68.2266 2.68688 -2.06543 0
M  V30 751 C 67.3996 2.78228 -3.37502 0
M  V30 752 C 66.4586 3.96857 -3.4553 0
M  V30 753 O 65.4846 3.85662 -4.18633 0
M  V30 754 N 66.6866 5.1072 -2.75944 0
M  V30 755 H 69.4516 1.03731 -2.81176 0
M  V30 756 H 67.0126 0.421573 -1.56315 0
M  V30 757 H 69.0046 3.46412 -2.09239 0
M  V30 758 H 67.5746 2.88605 -1.20109 0
M  V30 759 H 66.7946 1.87059 -3.46991 0
M  V30 760 H 68.0826 2.81564 -4.23791 0
M  V30 761 H 67.4806 5.2271 -2.16311 0
M  V30 762 H 66.0376 5.86523 -2.84314 0
M  V30 763 N 69.4707 1.49531 0.497807 0
M  V30 764 C 70.7477 1.49682 1.25915 0
M  V30 765 C 71.1277 0.226339 2.09883 0
M  V30 766 O 70.4757 -0.791189 2.14365 0
M  V30 767 C 70.6857 2.77755 2.11313 0
M  V30 768 C 72.0337 3.27371 2.70395 0
M  V30 769 O 73.0577 2.78894 2.21578 0
M  V30 770 O 71.9167 4.11808 3.59272 0
M  V30 771 H 69.0107 0.599228 0.56996 0
M  V30 772 H 71.5567 1.61798 0.511816 0
M  V30 773 H 70.3287 3.61713 1.49264 0
M  V30 774 H 69.9517 2.68515 2.93233 0
M  V30 775 N 70.9488 -0.749086 1.3866 0
M  V30 776 C 72.1958 -1.50833 1.35114 0
M  V30 777 C 72.5238 -1.94415 -0.0574049 0
M  V30 778 O 71.7788 -1.66065 -1.03541 0
M  V30 779 C 72.0778 -2.7712 2.25697 0
M  V30 780 C 71.7438 -2.52477 3.73585 0
M  V30 781 C 70.4058 -2.45466 4.13884 0
M  V30 782 C 72.7578 -2.31066 4.67181 0
M  V30 783 C 70.0858 -2.15064 5.45861 0
M  V30 784 C 72.4378 -2.02183 5.9942 0
M  V30 785 C 71.1018 -1.93631 6.38798 0
M  V30 786 H 70.3718 -0.551936 0.494416 0
M  V30 787 H 73.0188 -0.860979 1.71054 0
M  V30 788 H 71.3238 -3.46528 1.82827 0
M  V30 789 H 73.0208 -3.35096 2.20254 0
M  V30 790 H 69.6108 -2.58807 3.41638 0
M  V30 791 H 73.7948 -2.35459 4.3689 0
M  V30 792 H 69.0508 -2.06954 5.75308 0
M  V30 793 H 73.2248 -1.8462 6.71482 0
M  V30 794 H 70.8518 -1.69839 7.40985 0
M  V30 795 N 72.4269 -1.23603 -0.977757 0
M  V30 796 C 73.3599 -0.962772 -2.06896 0
M  V30 797 C 74.3379 0.0998743 -1.62293 0
M  V30 798 O 75.5219 -0.0349421 -1.88468 0
M  V30 799 C 72.6489 -0.45095 -3.35685 0
M  V30 800 C 71.6949 -1.50061 -3.99229 0
M  V30 801 S 72.5279 -3.07884 -4.38142 0
M  V30 802 C 73.6839 -2.58378 -5.7008 0
M  V30 803 H 73.9169 -1.88677 -2.29757 0
M  V30 804 H 71.4499 -1.06876 -1.11431 0
M  V30 805 H 73.4079 -0.162261 -4.10179 0
M  V30 806 H 72.0689 0.452179 -3.10828 0
M  V30 807 H 71.2619 -1.09269 -4.92013 0
M  V30 808 H 70.8639 -1.73878 -3.31123 0
M  V30 809 H 73.1559 -2.00563 -6.47133 0
M  V30 810 H 74.0989 -3.49711 -6.15717 0
M  V30 811 H 74.5069 -1.99143 -5.28207 0
M  V30 812 N 73.905 1.17692 -1.04816 0
M  V30 813 C 75.152 1.87859 -0.75599 0
M  V30 814 C 75.48 1.80812 0.716752 0
M  V30 815 O 74.735 1.20819 1.53952 0
M  V30 816 C 75.034 3.37462 -1.17703 0
M  V30 817 C 74.7 3.64713 -2.65133 0
M  V30 818 C 73.362 3.71859 -3.05408 0
M  V30 819 C 75.714 3.76492 -3.60421 0
M  V30 820 C 73.042 3.88271 -4.39843 0
M  V30 821 C 75.394 3.94421 -4.94585 0
M  V30 822 C 74.058 3.99806 -5.3452 0
M  V30 823 H 73.328 0.687425 -0.276636 0
M  V30 824 H 75.975 1.39255 -1.31455 0
M  V30 825 H 74.28 3.88097 -0.537395 0
M  V30 826 H 75.977 3.90109 -0.928218 0
M  V30 827 H 72.567 3.59772 -2.32942 0
M  V30 828 H 76.751 3.70295 -3.30447 0
M  V30 829 H 72.007 3.90687 -4.70291 0
M  V30 830 H 76.181 4.02477 -5.68318 0
M  V30 831 H 73.808 4.12276 -6.38696 0
M  V30 832 N 75.3831 0.828654 1.34056 0
M  V30 833 C 76.2931 0.256725 2.33191 0
M  V30 834 C 77.3091 -0.611898 1.62886 0
M  V30 835 O 78.4851 -0.51844 1.94613 0
M  V30 836 C 75.5501 -0.567238 3.42028 0
M  V30 837 C 74.6111 0.324458 4.28072 0
M  V30 838 C 73.8441 -0.460274 5.31712 0
M  V30 839 O 74.0671 -1.693 5.44696 0
M  V30 840 O 73.0011 0.160391 6.01686 0
M  V30 841 H 76.8271 1.07739 2.83947 0
M  V30 842 H 74.4121 0.59093 1.37217 0
M  V30 843 H 76.2941 -1.03582 4.08471 0
M  V30 844 H 74.9691 -1.36513 2.93506 0
M  V30 845 H 73.8761 0.840659 3.64532 0
M  V30 846 H 75.2091 1.08685 4.8005 0
M  V30 847 N 76.8612 -1.46375 0.584142 0
M  V30 848 C 78.1102 -2.01585 0.0679741 0
M  V30 849 C 78.4232 -1.46109 -1.30045 0
M  V30 850 O 79.6292 -1.93148 -1.90804 0
M  V30 851 C 78.0852 -3.5983 0.0709207 0
M  V30 852 C 77.6932 -4.24303 1.43775 0
M  V30 853 C 79.4372 -4.22693 -0.391228 0
M  V30 854 C 77.3442 -5.74631 1.39834 0
M  V30 855 H 76.2742 -0.753689 0.0216421 0
M  V30 856 H 78.9252 -1.68093 0.736001 0
M  V30 857 H 77.3072 -3.90405 -0.663299 0
M  V30 858 H 78.4812 -4.05335 2.19181 0
M  V30 859 H 76.7962 -3.73539 1.84004 0
M  V30 860 H 79.3932 -5.3289 -0.439524 0
M  V30 861 H 79.7362 -3.91728 -1.40906 0
M  V30 862 H 80.2692 -3.96749 0.288974 0
M  V30 863 H 77.0082 -6.10258 2.39303 0
M  V30 864 H 76.5282 -5.95858 0.686505 0
M  V30 865 H 78.2072 -6.37375 1.11187 0
M  V30 866 N 78.3393 -0.321999 -1.54275 0
M  V30 867 C 79.5643 0.285791 -2.05422 0
M  V30 868 C 79.9893 1.45124 -1.19669 0
M  V30 869 O 79.3473 1.80132 -0.205441 0
M  V30 870 C 79.3953 0.69956 -3.53749 0
M  V30 871 O 78.4993 1.8021 -3.70942 0
M  V30 872 H 77.8403 0.0518962 -0.661969 0
M  V30 873 H 80.3703 -0.469954 -1.9913 0
M  V30 874 H 80.3803 0.982649 -3.9599 0
M  V30 875 H 79.0553 -0.152864 -4.15619 0
M  V30 876 H 77.6323 1.51794 -3.40607 0
M  V30 877 N 79.8174 1.5752 -0.0501392 0
M  V30 878 C 81.2334 1.56631 0.306402 0
M  V30 879 C 81.4334 1.0577 1.71508 0
M  V30 880 O 80.4894 0.713837 2.422 0
M  V30 881 C 81.8024 3.00393 0.135811 0
M  V30 882 C 83.3504 3.12315 0.206993 0
M  V30 883 C 83.8254 4.57954 0.064944 0
M  V30 884 N 85.3164 4.63041 0.121254 0
M  V30 885 C 86.0514 5.73389 0.0354381 0
M  V30 886 N 85.5474 6.92724 -0.102666 0
M  V30 887 N 87.3404 5.62026 0.090946 0
M  V30 888 H 79.4914 1.88903 -0.971046 0
M  V30 889 H 81.7544 0.869876 -0.376855 0
M  V30 890 H 81.4604 3.41635 -0.835384 0
M  V30 891 H 81.3344 3.66373 0.897275 0
M  V30 892 H 83.7214 2.70973 1.16866 0
M  V30 893 H 83.8024 2.49016 -0.585208 0
M  V30 894 H 83.4464 4.99981 -0.893394 0
M  V30 895 H 83.3764 5.19258 0.876277 0
M  V30 896 H 85.8674 3.77216 0.227284 0
M  V30 897 H 86.1804 7.72633 -0.160882 0
M  V30 898 H 84.5254 6.94864 -0.137737 0
M  V30 899 H 87.7164 4.67684 0.197388 0
M  V30 900 H 87.8894 6.47997 0.0206089 0
M  V30 901 N 81.2955 -0.223234 1.56011 0
M  V30 902 C 82.2255 -1.27988 1.95298 0
M  V30 903 C 83.2065 -1.48976 0.820979 0
M  V30 904 O 84.3915 -1.61188 1.08315 0
M  V30 905 C 81.5215 -2.63 2.26822 0
M  V30 906 C 80.4755 -2.56671 3.42497 0
M  V30 907 C 79.8015 -3.95697 3.59622 0
M  V30 908 C 81.1015 -2.11601 4.77517 0
M  V30 909 H 82.7955 -0.953525 2.8381 0
M  V30 910 H 80.3415 -0.457244 1.36548 0
M  V30 911 H 82.2945 -3.37077 2.52898 0
M  V30 912 H 81.0185 -2.9732 1.35161 0
M  V30 913 H 79.6775 -1.85051 3.16467 0
M  V30 914 H 79.3255 -4.27322 2.6534 0
M  V30 915 H 79.0255 -3.92345 4.37424 0
M  V30 916 H 80.5495 -4.71438 3.88044 0
M  V30 917 H 81.9635 -2.7542 5.02809 0
M  V30 918 H 80.3605 -2.19311 5.5859 0
M  V30 919 H 81.4305 -1.06824 4.72987 0
M  V30 920 N 82.7736 -1.49793 -0.48987 0
M  V30 921 C 84.0506 -1.50348 -1.25119 0
M  V30 922 C 84.4306 -0.237466 -2.0976 0
M  V30 923 O 83.7786 0.77981 -2.14782 0
M  V30 924 C 83.9886 -2.78872 -2.09837 0
M  V30 925 C 85.3366 -3.288 -2.68655 0
M  V30 926 O 86.3606 -2.80065 -2.20096 0
M  V30 927 O 85.2196 -4.13707 -3.57083 0
M  V30 928 H 82.3136 -0.602242 -0.566775 0
M  V30 929 H 84.8596 -1.62067 -0.503229 0
M  V30 930 H 83.6316 -3.62499 -1.47343 0
M  V30 931 H 83.2546 -2.70066 -2.91805 0
M  V30 932 N 84.2517 0.741722 -1.39055 0
M  V30 933 C 85.1817 1.869 -1.39966 0
M  V30 934 C 86.1627 1.6804 -0.26392 0
M  V30 935 O 87.3477 1.88458 -0.468755 0
M  V30 936 C 84.4777 3.24572 -1.23574 0
M  V30 937 C 83.4317 3.58056 -2.34477 0
M  V30 938 C 82.7577 4.94593 -2.0318 0
M  V30 939 C 84.0577 3.61716 -3.76774 0
M  V30 940 H 85.7517 1.86395 -2.34302 0
M  V30 941 H 83.2977 0.895361 -1.1278 0
M  V30 942 H 85.2507 4.031 -1.22834 0
M  V30 943 H 83.9747 3.25587 -0.257045 0
M  V30 944 H 82.6337 2.81854 -2.34423 0
M  V30 945 H 82.2817 4.92181 -1.03765 0
M  V30 946 H 81.9817 5.17964 -2.77465 0
M  V30 947 H 83.5057 5.75486 -2.04079 0
M  V30 948 H 84.9197 4.30335 -3.78794 0
M  V30 949 H 83.3167 3.96603 -4.50362 0
M  V30 950 H 84.3867 2.61672 -4.08235 0
M  V30 951 N 85.7298 1.2412 0.971189 0
M  V30 952 C 86.9778 1.07668 1.71032 0
M  V30 953 C 87.2988 -0.385797 1.91146 0
M  V30 954 O 86.5688 -1.27569 1.4867 0
M  V30 955 H 85.1488 0.395429 0.633755 0
M  V30 956 H 87.8108 1.55984 1.16855 0
M  V30 957 H 86.9068 1.57195 2.69622 0
M  V30 958 N 87.2079 -1.17134 1.05439 0
M  V30 959 C 88.1379 -2.2342 0.678649 0
M  V30 960 C 89.1189 -1.66971 -0.32476 0
M  V30 961 O 90.3039 -1.93149 -0.201802 0
M  V30 962 C 87.4339 -3.47256 0.0552099 0
M  V30 963 C 86.3879 -4.16543 0.98365 0
M  V30 964 C 85.7139 -5.34231 0.223961 0
M  V30 965 C 87.0139 -4.68495 2.3089 0
M  V30 966 H 88.7079 -2.55105 1.56722 0
M  V30 967 H 86.2539 -1.2262 0.754998 0
M  V30 968 H 88.2069 -4.20828 -0.21946 0
M  V30 969 H 86.9309 -3.14846 -0.868319 0
M  V30 970 H 85.5899 -3.44887 1.24293 0
M  V30 971 H 85.2379 -4.98071 -0.702412 0
M  V30 972 H 84.9379 -5.81527 0.842627 0
M  V30 973 H 86.4619 -6.10585 -0.0433671 0
M  V30 974 H 87.8759 -5.33691 2.09396 0
M  V30 975 H 86.2729 -5.26379 2.88176 0
M  V30 976 H 87.3429 -3.85169 2.94572 0
M  V30 977 N 88.686 -0.835752 -1.33615 0
M  V30 978 C 89.911 -0.442389 -2.02627 0
M  V30 979 C 90.336 0.947735 -1.62479 0
M  V30 980 O 89.694 1.61907 -0.815826 0
M  V30 981 C 89.742 -0.567216 -3.56111 0
M  V30 982 O 88.846 0.407799 -4.10379 0
M  V30 983 H 88.187 -0.180278 -0.639059 0
M  V30 984 H 90.717 -1.12972 -1.70583 0
M  V30 985 H 90.727 -0.447708 -4.05536 0
M  V30 986 H 89.402 -1.58103 -3.84677 0
M  V30 987 H 87.979 0.246107 -3.72087 0
M  V30 988 N 90.1641 1.46063 -0.591896 0
M  V30 989 C 91.4101 2.02638 -0.0811191 0
M  V30 990 C 91.7431 1.4613 1.27905 0
M  V30 991 O 91.0181 0.629908 1.84017 0
M  V30 992 C 91.3011 3.60091 -0.0252436 0
M  V30 993 C 91.1541 4.26965 -1.41496 0
M  V30 994 C 92.4731 4.3496 0.670685 0
M  V30 995 H 89.5921 0.73635 -0.0309524 0
M  V30 996 H 92.2341 1.741 -0.760859 0
M  V30 997 H 90.3841 3.84535 0.553624 0
M  V30 998 H 92.0561 4.13756 -2.0397 0
M  V30 999 H 90.2991 3.85971 -1.98011 0
M  V30 1000 H 90.9701 5.35781 -1.32825 0
M  V30 1001 H 93.4461 4.15716 0.178825 0
M  V30 1002 H 92.3221 5.44686 0.678837 0
M  V30 1003 H 92.5831 4.06685 1.73379 0
M  V30 1004 N 91.6422 0.330177 1.54103 0
M  V30 1005 C 92.5522 -0.541534 2.28264 0
M  V30 1006 C 93.5682 -1.12351 1.32866 0
M  V30 1007 O 94.7442 -1.14206 1.65888 0
M  V30 1008 C 91.8092 -1.68322 3.03098 0
M  V30 1009 C 90.8702 -1.13238 4.14096 0
M  V30 1010 C 90.1032 -2.21966 4.85352 0
M  V30 1011 O 90.3262 -3.42437 4.56172 0
M  V30 1012 O 89.2602 -1.87013 5.7211 0
M  V30 1013 H 93.0862 0.060938 3.03639 0
M  V30 1014 H 90.6712 0.09565 1.49093 0
M  V30 1015 H 92.5532 -2.34777 3.49939 0
M  V30 1016 H 91.2282 -2.27176 2.30593 0
M  V30 1017 H 90.1352 -0.432736 3.71589 0
M  V30 1018 H 91.4682 -0.588898 4.88664 0
M  V30 1019 N 93.1203 -1.57491 0.0584922 0
M  V30 1020 C 94.3663 -1.93264 -0.614558 0
M  V30 1021 C 94.6993 -0.937717 -1.7006 0
M  V30 1022 O 93.9743 0.0351652 -1.94468 0
M  V30 1023 C 94.2573 -3.3938 -1.20386 0
M  V30 1024 C 94.1103 -4.49625 -0.125375 0
M  V30 1025 C 95.4293 -3.86039 -2.11334 0
M  V30 1026 H 92.5483 -0.702791 -0.221933 0
M  V30 1027 H 95.1903 -1.8961 0.12175 0
M  V30 1028 H 93.3403 -3.42626 -1.83139 0
M  V30 1029 H 95.0123 -4.58506 0.506971 0
M  V30 1030 H 93.2553 -4.30354 0.545672 0
M  V30 1031 H 93.9263 -5.48967 -0.577861 0
M  V30 1032 H 96.4023 -3.84716 -1.58534 0
M  V30 1033 H 95.2783 -4.88914 -2.49507 0
M  V30 1034 H 95.5393 -3.23215 -3.01636 0
M  V30 1035 N 94.5984 0.214957 -1.56127 0
M  V30 1036 C 95.8444 0.935325 -1.80619 0
M  V30 1037 C 96.1994 1.81706 -0.632507 0
M  V30 1038 O 95.4924 1.87931 0.373182 0
M  V30 1039 C 95.6864 1.80314 -3.0858 0
M  V30 1040 C 95.5154 1.00691 -4.38282 0
M  V30 1041 C 94.2854 0.699211 -5.00439 0
M  V30 1042 C 96.4834 0.369057 -5.12974 0
M  V30 1043 N 94.4654 -0.117734 -6.13787 0
M  V30 1044 C 95.8364 -0.310981 -6.1922 0
M  V30 1045 C 97.8914 0.282759 -4.97096 0
M  V30 1046 C 96.5944 -1.06907 -7.11311 0
M  V30 1047 C 98.6204 -0.461881 -5.89594 0
M  V30 1048 C 97.9824 -1.13044 -6.9527 0
M  V30 1049 H 94.0814 0.322307 -0.71249 0
M  V30 1050 H 96.6654 0.205649 -1.93611 0
M  V30 1051 H 94.8364 2.50458 -2.96859 0
M  V30 1052 H 96.5684 2.46148 -3.21237 0
M  V30 1053 H 93.3234 1.01884 -4.62511 0
M  V30 1054 H 93.7474 -0.515235 -6.75037 0
M  V30 1055 H 98.3894 0.785292 -4.15443 0
M  V30 1056 H 96.1074 -1.5831 -7.92442 0
M  V30 1057 H 99.6934 -0.529746 -5.79383 0
M  V30 1058 H 98.5734 -1.69742 -7.65609 0
M  V30 1059 N 96.0765 1.50051 0.48192 0
M  V30 1060 C 97.0245 1.68635 1.60203 0
M  V30 1061 C 98.0185 0.552184 1.60148 0
M  V30 1062 O 99.2245 0.732377 1.64427 0
M  V30 1063 H 95.5995 0.532081 0.531407 0
M  V30 1064 H 97.5705 2.62616 1.41688 0
M  V30 1065 C 96.3195 1.78775 2.9822 0
M  V30 1066 H 95.6425 2.6543 2.98976 0
M  V30 1067 H 97.0825 1.95806 3.7608 0
M  V30 1068 C 95.5415 0.536849 3.32595 0
M  V30 1069 O 96.0715 -0.328897 4.00351 0
M  V30 1070 N 94.2775 0.394091 2.87915 0
M  V30 1071 H 93.8245 1.09962 2.32951 0
M  V30 1072 H 93.7825 -0.441737 3.11281 0
M  V30 1073 N 97.5546 -0.734337 1.39446 0
M  V30 1074 C 98.5016 -1.84835 1.38219 0
M  V30 1075 C 99.4716 -1.64331 0.24179 0
M  V30 1076 O 100.657 -1.85728 0.437002 0
M  V30 1077 C 97.7966 -3.22355 1.23212 0
M  V30 1078 C 96.9096 -3.5456 2.46801 0
M  V30 1079 C 96.0446 -4.81485 2.24377 0
M  V30 1080 C 95.0836 -5.06536 3.43639 0
M  V30 1081 N 94.2206 -6.24665 3.20528 0
M  V30 1082 H 99.0606 -1.85219 2.33448 0
M  V30 1083 H 96.5976 -0.905039 1.15963 0
M  V30 1084 H 98.5556 -4.0174 1.12522 0
M  V30 1085 H 97.1856 -3.21248 0.316121 0
M  V30 1086 H 96.2376 -2.69872 2.68092 0
M  V30 1087 H 97.5496 -3.6899 3.3563 0
M  V30 1088 H 96.7036 -5.68852 2.10933 0
M  V30 1089 H 95.4426 -4.6923 1.32944 0
M  V30 1090 H 94.4476 -4.17632 3.5758 0
M  V30 1091 H 95.6726 -5.20676 4.35974 0
M  V30 1092 H 93.6186 -6.13696 2.3176 0
M  V30 1093 H 93.5356 -6.39685 4.02913 0
M  V30 1094 H 94.8036 -7.14868 3.10779 0
M  V30 1095 N 99.0327 -1.24633 -0.964593 0
M  V30 1096 C 100.281 -1.08573 -1.70459 0
M  V30 1097 C 100.602 0.375655 -1.91347 0
M  V30 1098 O 99.8717 1.26779 -1.49345 0
M  V30 1099 H 98.4517 -0.398784 -0.631649 0
M  V30 1100 H 101.114 -1.56601 -1.16026 0
M  V30 1101 H 100.21 -1.58623 -2.68785 0
M  V30 1102 N 100.511 1.16574 -1.06058 0
M  V30 1103 C 101.441 2.23057 -0.690488 0
M  V30 1104 C 102.422 1.67141 0.315901 0
M  V30 1105 O 103.607 1.93253 0.191556 0
M  V30 1106 C 100.737 3.47222 -0.073625 0
M  V30 1107 C 99.6908 4.16016 -1.00573 0
M  V30 1108 C 99.0168 5.34104 -0.252289 0
M  V30 1109 C 100.317 4.67264 -2.33371 0
M  V30 1110 H 102.011 2.54271 -1.58072 0
M  V30 1111 H 99.5568 1.22218 -0.76149 0
M  V30 1112 H 101.51 4.20939 0.19714 0
M  V30 1113 H 100.234 3.15302 0.85161 0
M  V30 1114 H 98.8928 3.44223 -1.2612 0
M  V30 1115 H 98.5408 4.98437 0.675988 0
M  V30 1116 H 98.2408 5.81072 -0.873455 0
M  V30 1117 H 99.7648 6.10599 0.0109857 0
M  V30 1118 H 101.179 5.32573 -2.12223 0
M  V30 1119 H 99.5758 5.24843 -2.90963 0
M  V30 1120 H 100.646 3.83602 -2.96611 0
M  V30 1121 N 101.989 0.842826 1.3317 0
M  V30 1122 C 103.238 0.436738 1.96915 0
M  V30 1123 C 103.551 -1.01025 1.67491 0
M  V30 1124 O 104.757 -1.5212 2.24881 0
M  V30 1125 C 103.213 0.730021 3.52418 0
M  V30 1126 C 102.821 2.19195 3.90714 0
M  V30 1127 C 104.565 0.391076 4.22695 0
M  V30 1128 C 102.472 2.42907 5.39212 0
M  V30 1129 H 101.402 0.15958 0.736919 0
M  V30 1130 H 104.053 1.03196 1.51733 0
M  V30 1131 H 102.435 0.0643755 3.95948 0
M  V30 1132 H 103.609 2.8984 3.58231 0
M  V30 1133 H 101.924 2.49425 3.33431 0
M  V30 1134 H 104.521 0.545817 5.31907 0
M  V30 1135 H 104.864 -0.666294 4.10933 0
M  V30 1136 H 105.397 1.01212 3.84709 0
M  V30 1137 H 102.136 3.47224 5.55982 0
M  V30 1138 H 101.656 1.76827 5.73142 0
M  V30 1139 H 103.335 2.2626 6.06148 0
M  V30 1140 N 103.467 -1.45747 0.599634 0
M  V30 1141 C 104.713 -2.03153 0.100263 0
M  V30 1142 C 105.068 -1.46073 -1.25221 0
M  V30 1143 O 104.361 -0.622878 -1.81193 0
M  V30 1144 C 104.555 -3.57399 -0.00602758 0
M  V30 1145 C 104.384 -4.2944 1.3346 0
M  V30 1146 C 103.154 -4.6768 1.91321 0
M  V30 1147 C 105.352 -4.61905 2.2616 0
M  V30 1148 N 103.334 -5.24544 3.18946 0
M  V30 1149 C 104.705 -5.19518 3.3838 0
M  V30 1150 C 106.76 -4.43841 2.25631 0
M  V30 1151 C 105.463 -5.60972 4.50226 0
M  V30 1152 C 107.489 -4.86322 3.36518 0
M  V30 1153 C 106.851 -5.44021 4.4746 0
M  V30 1154 H 102.95 -0.777911 0.0798696 0
M  V30 1155 H 105.534 -1.77674 0.796244 0
M  V30 1156 H 103.705 -3.82556 -0.671212 0
M  V30 1157 H 105.437 -4.01457 -0.51133 0
M  V30 1158 H 102.192 -4.5098 1.44617 0
M  V30 1159 H 102.616 -5.57483 3.84112 0
M  V30 1160 H 107.258 -3.98552 1.41123 0
M  V30 1161 H 104.976 -6.0523 5.35464 0
M  V30 1162 H 108.562 -4.74084 3.37247 0
M  V30 1163 H 107.442 -5.76289 5.31846 0
M  V30 1164 N 104.945 -0.338344 -1.53925 0
M  V30 1165 C 106.222 0.314774 -1.93051 0
M  V30 1166 C 106.602 1.68669 -1.26941 0
M  V30 1167 O 105.95 2.24636 -0.418445 0
M  V30 1168 C 106.16 0.392249 -3.46789 0
M  V30 1169 C 107.508 0.645554 -4.19664 0
M  V30 1170 O 108.532 0.474575 -3.53024 0
M  V30 1171 O 107.391 0.976408 -5.37707 0
M  V30 1172 H 104.485 0.182598 -0.80659 0
M  V30 1173 H 107.031 -0.389141 -1.65178 0
M  V30 1174 H 105.803 -0.570702 -3.87116 0
M  V30 1175 H 105.426 1.14316 -3.80812 0
M  V30 1176 N 106.423 1.57458 -0.0668435 0
M  V30 1177 C 107.651 1.97624 0.612565 0
M  V30 1178 C 108.066 0.94502 1.63447 0
M  V30 1179 O 107.423 -0.0689276 1.8237 0
M  V30 1180 C 107.474 3.37869 1.28555 0
M  V30 1181 O 107.195 4.3704 0.304557 0
M  V30 1182 C 108.696 3.92882 2.05325 0
M  V30 1183 H 105.916 0.650045 0.166381 0
M  V30 1184 H 108.46 2.04035 -0.137782 0
M  V30 1185 H 106.615 3.3256 1.98702 0
M  V30 1186 H 107.029 5.18565 0.786779 0
M  V30 1187 H 108.503 4.93247 2.47812 0
M  V30 1188 H 108.98 3.29156 2.9078 0
M  V30 1189 H 109.586 4.01577 1.40056 0
M  V30 1190 N 107.901 -0.206675 1.56239 0
M  V30 1191 C 108.834 -1.28383 1.88661 0
M  V30 1192 C 109.812 -1.44504 0.745481 0
M  V30 1193 O 110.996 -1.60079 0.995336 0
M  V30 1194 C 108.123 -2.65211 2.10667 0
M  V30 1195 C 107.169 -2.66025 3.33366 0
M  V30 1196 S 108.002 -2.18609 4.88846 0
M  V30 1197 C 109.158 -3.57283 5.13906 0
M  V30 1198 H 109.391 -1.00691 2.7973 0
M  V30 1199 H 106.924 -0.409627 1.48867 0
M  V30 1200 H 108.882 -3.43979 2.24029 0
M  V30 1201 H 107.543 -2.90121 1.20369 0
M  V30 1202 H 106.736 -3.66607 3.45855 0
M  V30 1203 H 106.338 -1.95331 3.18938 0
M  V30 1204 H 108.63 -4.53074 5.03717 0
M  V30 1205 H 109.573 -3.49699 6.15724 0
M  V30 1206 H 109.981 -3.51659 4.41583 0
M  V30 1207 N 109.379 -1.50304 -0.473955 0
M  V30 1208 C 110.625 -1.61389 -1.22806 0
M  V30 1209 C 110.958 -0.311955 -1.91678 0
M  V30 1210 O 110.233 0.686384 -1.81986 0
M  V30 1211 C 110.516 -2.79219 -2.27396 0
M  V30 1212 C 110.369 -4.19286 -1.62848 0
M  V30 1213 C 111.688 -2.92614 -3.28732 0
M  V30 1214 H 108.807 -0.587399 -0.445119 0
M  V30 1215 H 111.449 -1.82681 -0.522265 0
M  V30 1216 H 109.599 -2.61195 -2.87592 0
M  V30 1217 H 111.271 -4.48892 -1.06271 0
M  V30 1218 H 109.514 -4.23677 -0.931693 0
M  V30 1219 H 110.185 -4.97655 -2.38838 0
M  V30 1220 H 112.661 -3.09105 -2.78556 0
M  V30 1221 H 111.537 -3.76688 -3.99246 0
M  V30 1222 H 111.798 -2.03107 -3.92683 0
M  V30 1223 N 110.857 0.726932 -1.39834 0
M  V30 1224 C 112.105 1.4837 -1.37225 0
M  V30 1225 C 112.426 1.94979 0.0284857 0
M  V30 1226 O 111.696 1.69555 0.981213 0
M  V30 1227 H 110.276 0.55043 -0.505011 0
M  V30 1228 H 112.938 0.862468 -1.74778 0
M  V30 1229 H 112.034 2.36198 -2.04003 0
M  V30 1230 N 112.336 1.25143 0.95797 0
M  V30 1231 C 113.564 1.12424 1.73691 0
M  V30 1232 C 113.979 -0.322304 1.86029 0
M  V30 1233 O 113.336 -1.22186 1.35561 0
M  V30 1234 C 113.387 1.76933 3.15241 0
M  V30 1235 O 113.108 3.15932 3.03511 0
M  V30 1236 C 114.609 1.6995 4.09429 0
M  V30 1237 H 111.829 0.3923 0.544373 0
M  V30 1238 H 114.373 1.6544 1.20207 0
M  V30 1239 H 112.528 1.27895 3.6568 0
M  V30 1240 H 112.942 3.47598 3.9278 0
M  V30 1241 H 114.416 2.19753 5.06372 0
M  V30 1242 H 114.893 0.662619 4.34173 0
M  V30 1243 H 115.499 2.18461 3.64904 0
M  V30 1244 N 113.814 -1.1601 1.06675 0
M  V30 1245 C 115.06 -1.86909 0.786945 0
M  V30 1246 C 115.393 -1.81717 -0.685018 0
M  V30 1247 O 114.668 -1.23551 -1.50218 0
M  V30 1248 C 114.951 -3.36313 1.28707 0
M  V30 1249 C 114.804 -3.50175 2.82308 0
M  V30 1250 C 116.123 -4.3084 0.898071 0
M  V30 1251 H 113.242 -0.678677 0.287343 0
M  V30 1252 H 115.884 -1.36336 1.32334 0
M  V30 1253 H 114.034 -3.79513 0.830768 0
M  V30 1254 H 115.706 -3.15886 3.36175 0
M  V30 1255 H 113.949 -2.91959 3.20847 0
M  V30 1256 H 114.62 -4.55116 3.12368 0
M  V30 1257 H 117.096 -3.95561 1.29114 0
M  V30 1258 H 115.972 -5.33876 1.27543 0
M  V30 1259 H 116.233 -4.41662 -0.196651 0
M  V30 1260 N 115.292 -0.849877 -1.32721 0
M  V30 1261 C 116.538 -0.460855 -1.9811 0
M  V30 1262 C 116.893 0.971716 -1.66059 0
M  V30 1263 O 116.186 1.67184 -0.935944 0
M  V30 1264 C 116.38 -0.631272 -3.51781 0
M  V30 1265 C 116.209 -2.07886 -3.98765 0
M  V30 1266 C 114.979 -2.71637 -4.26077 0
M  V30 1267 C 117.177 -3.04889 -4.14182 0
M  V30 1268 N 115.159 -4.07356 -4.59276 0
M  V30 1269 C 116.53 -4.25583 -4.50865 0
M  V30 1270 C 118.585 -3.01148 -3.96503 0
M  V30 1271 C 117.288 -5.43027 -4.71714 0
M  V30 1272 C 119.314 -4.17832 -4.18533 0
M  V30 1273 C 118.676 -5.37284 -4.55528 0
M  V30 1274 H 114.775 -0.217283 -0.751207 0
M  V30 1275 H 117.359 -1.10026 -1.60631 0
M  V30 1276 H 115.53 -0.0215966 -3.88394 0
M  V30 1277 H 117.262 -0.212614 -4.04141 0
M  V30 1278 H 114.017 -2.22705 -4.17971 0
M  V30 1279 H 114.441 -4.77351 -4.80068 0
M  V30 1280 H 119.083 -2.0992 -3.67006 0
M  V30 1281 H 116.801 -6.34791 -5.00066 0
M  V30 1282 H 120.387 -4.16368 -4.06361 0
M  V30 1283 H 119.267 -6.26071 -4.72234 0
M  V30 1284 N 116.77 1.45427 -0.607355 0
M  V30 1285 C 118.019 2.01452 -0.100036 0
M  V30 1286 C 118.332 1.48159 1.27704 0
M  V30 1287 O 119.538 1.96159 1.87707 0
M  V30 1288 C 117.994 3.59672 -0.128158 0
M  V30 1289 C 117.602 4.21962 -1.50507 0
M  V30 1290 C 119.346 4.23262 0.323932 0
M  V30 1291 C 117.253 5.72333 -1.48959 0
M  V30 1292 H 116.183 0.75325 -0.0336299 0
M  V30 1293 H 118.834 1.66901 -0.76265 0
M  V30 1294 H 117.216 3.91411 0.601105 0
M  V30 1295 H 118.39 4.01796 -2.25602 0
M  V30 1296 H 116.705 3.70565 -1.89923 0
M  V30 1297 H 119.302 5.33522 0.354691 0
M  V30 1298 H 119.645 3.93921 1.34656 0
M  V30 1299 H 120.178 3.96239 -0.352056 0
M  V30 1300 H 116.917 6.06373 -2.48981 0
M  V30 1301 H 116.437 5.94691 -0.781214 0
M  V30 1302 H 118.116 6.35525 -1.21313 0
M  V30 1303 N 118.248 0.346503 1.53744 0
M  V30 1304 C 119.211 -0.496439 2.23759 0
M  V30 1305 C 120.211 -1.0252 1.2388 0
M  V30 1306 O 121.401 -0.913974 1.48297 0
M  V30 1307 C 118.533 -1.69187 2.95954 0
M  V30 1308 H 119.726 0.115952 2.99676 0
M  V30 1309 H 117.279 0.0978939 1.55993 0
M  V30 1310 H 118.014 -2.34288 2.24231 0
M  V30 1311 H 117.799 -1.31989 3.69217 0
M  V30 1312 H 119.289 -2.28969 3.49232 0
M  V30 1313 N 119.726 -1.57421 0.075193 0
M  V30 1314 C 120.656 -2.15942 -0.888324 0
M  V30 1315 C 121.637 -1.08737 -1.30806 0
M  V30 1316 O 122.822 -1.36787 -1.37851 0
M  V30 1317 C 119.952 -2.72379 -2.1547 0
M  V30 1318 C 118.906 -3.8478 -1.87425 0
M  V30 1319 C 118.232 -4.27834 -3.20721 0
M  V30 1320 C 119.532 -5.08869 -1.17684 0
M  V30 1321 H 121.226 -2.96705 -0.400799 0
M  V30 1322 H 118.772 -1.42723 -0.191342 0
M  V30 1323 H 120.725 -3.11965 -2.83295 0
M  V30 1324 H 119.449 -1.88841 -2.6647 0
M  V30 1325 H 118.108 -3.45703 -1.22004 0
M  V30 1326 H 117.756 -3.41214 -3.6957 0
M  V30 1327 H 117.456 -5.03605 -3.02746 0
M  V30 1328 H 118.98 -4.70039 -3.89738 0
M  V30 1329 H 120.394 -5.4575 -1.75584 0
M  V30 1330 H 118.791 -5.8994 -1.09956 0
M  V30 1331 H 119.861 -4.84648 -0.156453 0
M  V30 1332 N 121.204 0.198386 -1.56346 0
M  V30 1333 C 122.151 1.24589 -1.94284 0
M  V30 1334 C 123.121 1.454 -0.802997 0
M  V30 1335 O 124.306 1.58588 -1.06087 0
M  V30 1336 C 121.446 2.58631 -2.28482 0
M  V30 1337 C 120.559 2.45426 -3.55514 0
M  V30 1338 C 119.694 3.7215 -3.79049 0
M  V30 1339 C 118.733 3.53763 -4.99518 0
M  V30 1340 N 117.87 4.72491 -5.19323 0
M  V30 1341 H 122.71 0.915356 -2.83593 0
M  V30 1342 H 120.247 0.440629 -1.40346 0
M  V30 1343 H 122.205 3.3672 -2.46324 0
M  V30 1344 H 120.835 2.89734 -1.42317 0
M  V30 1345 H 119.887 1.58652 -3.45737 0
M  V30 1346 H 121.199 2.27772 -4.43758 0
M  V30 1347 H 120.353 4.58679 -3.97113 0
M  V30 1348 H 119.092 3.92754 -2.89129 0
M  V30 1349 H 118.097 2.65619 -4.8138 0
M  V30 1350 H 119.322 3.34607 -5.90944 0
M  V30 1351 H 117.268 4.93365 -4.3235 0
M  V30 1352 H 117.185 4.5765 -6.01741 0
M  V30 1353 H 118.453 5.6038 -5.41843 0
M  V30 1354 N 122.682 1.50554 0.465978 0
M  V30 1355 C 123.91 1.65563 1.24083 0
M  V30 1356 C 124.325 0.341051 1.85694 0
M  V30 1357 O 123.682 -0.677543 1.69457 0
M  V30 1358 C 123.733 2.75051 2.34583 0
M  V30 1359 O 123.454 4.01413 1.75497 0
M  V30 1360 C 124.955 3.01078 3.25372 0
M  V30 1361 H 122.175 0.55638 0.375077 0
M  V30 1362 H 124.719 1.96807 0.555624 0
M  V30 1363 H 122.874 2.46486 2.9887 0
M  V30 1364 H 123.288 4.62002 2.48303 0
M  V30 1365 H 124.762 3.81339 3.99105 0
M  V30 1366 H 125.239 2.12349 3.84453 0
M  V30 1367 H 125.845 3.31194 2.66816 0
M  V30 1368 N 124.16 -0.719506 1.40217 0
M  V30 1369 C 125.409 -1.47486 1.37589 0
M  V30 1370 C 125.722 -1.9559 -0.0201568 0
M  V30 1371 O 126.928 -2.70973 -0.169049 0
M  V30 1372 C 125.384 -2.66575 2.41796 0
M  V30 1373 C 124.992 -2.25358 3.87192 0
M  V30 1374 C 126.736 -3.4433 2.48269 0
M  V30 1375 C 124.643 -3.41262 4.83005 0
M  V30 1376 H 123.573 -0.553901 0.511576 0
M  V30 1377 H 126.224 -0.783427 1.65936 0
M  V30 1378 H 124.606 -3.3787 2.06543 0
M  V30 1379 H 125.78 -1.61509 4.31569 0
M  V30 1380 H 124.095 -1.60657 3.84159 0
M  V30 1381 H 126.692 -4.30569 3.17041 0
M  V30 1382 H 127.035 -3.87872 1.51198 0
M  V30 1383 H 127.568 -2.80076 2.82493 0
M  V30 1384 H 124.307 -3.02755 5.81394 0
M  V30 1385 H 123.827 -4.0404 4.43297 0
M  V30 1386 H 125.506 -4.07383 5.02641 0
M  V30 1387 N 125.638 -1.25649 -0.95132 0
M  V30 1388 C 127.054 -1.02542 -1.223 0
M  V30 1389 C 127.254 0.255715 -1.99871 0
M  V30 1390 O 126.31 0.967558 -2.33226 0
M  V30 1391 C 127.623 -2.25065 -1.99415 0
M  V30 1392 C 129.171 -2.29861 -2.12446 0
M  V30 1393 C 129.646 -3.52048 -2.92961 0
M  V30 1394 N 131.137 -3.52465 -3.00538 0
M  V30 1395 C 131.872 -4.43672 -3.63239 0
M  V30 1396 N 131.368 -5.45157 -4.27523 0
M  V30 1397 N 133.161 -4.31346 -3.60412 0
M  V30 1398 H 125.312 -2.07951 -0.432471 0
M  V30 1399 H 127.575 -0.91339 -0.253816 0
M  V30 1400 H 127.281 -3.18194 -1.49817 0
M  V30 1401 H 127.155 -2.28502 -3.00111 0
M  V30 1402 H 129.542 -1.37252 -2.61239 0
M  V30 1403 H 129.623 -2.3044 -1.11044 0
M  V30 1404 H 129.267 -4.44981 -2.44856 0
M  V30 1405 H 129.197 -3.48715 -3.94596 0
M  V30 1406 H 131.688 -2.79056 -2.54826 0
M  V30 1407 H 132.001 -6.10958 -4.73234 0
M  V30 1408 H 130.346 -5.49025 -4.26141 0
M  V30 1409 H 133.537 -3.51288 -3.09377 0
M  V30 1410 H 133.71 -5.02624 -4.0899 0
M  V30 1411 N 127.117 1.15442 -1.07289 0
M  V30 1412 C 128.049 2.19773 -0.650585 0
M  V30 1413 C 129.062 1.60076 0.296572 0
M  V30 1414 O 130.251 1.78293 0.0859905 0
M  V30 1415 C 127.351 3.38838 0.0650398 0
M  V30 1416 C 126.524 4.2808 -0.898141 0
M  V30 1417 C 125.583 5.2574 -0.219926 0
M  V30 1418 O 124.609 5.62654 -0.860773 0
M  V30 1419 N 125.811 5.71205 1.03466 0
M  V30 1420 H 128.576 2.56622 -1.54808 0
M  V30 1421 H 126.137 1.30551 -0.957494 0
M  V30 1422 H 128.129 4.01222 0.529415 0
M  V30 1423 H 126.699 3.00409 0.864466 0
M  V30 1424 H 125.919 3.62804 -1.54165 0
M  V30 1425 H 127.207 4.84577 -1.5512 0
M  V30 1426 H 126.605 5.43325 1.57526 0
M  V30 1427 H 125.162 6.35633 1.44272 0
M  V30 1428 N 128.595 0.856903 1.32268 0
M  V30 1429 C 129.82 0.474569 2.01897 0
M  V30 1430 C 130.245 -0.921766 1.63967 0
M  V30 1431 O 129.603 -1.60589 0.84148 0
M  V30 1432 C 129.651 0.623799 3.55164 0
M  V30 1433 O 128.755 -0.342459 4.10976 0
M  V30 1434 H 128.096 0.190422 0.63611 0
M  V30 1435 H 130.626 1.15672 1.68764 0
M  V30 1436 H 130.636 0.512169 4.04773 0
M  V30 1437 H 129.311 1.64202 3.82113 0
M  V30 1438 H 127.888 -0.18688 3.72431 0
M  V30 1439 N 130.073 -1.45103 0.615059 0
M  V30 1440 C 131.35 -1.95549 0.0448276 0
M  V30 1441 C 131.73 -1.55737 -1.4251 0
M  V30 1442 O 131.078 -0.823556 -2.13143 0
M  V30 1443 C 131.288 -3.48098 0.250785 0
M  V30 1444 C 132.636 -4.24384 0.135509 0
M  V30 1445 O 133.66 -3.55738 0.181299 0
M  V30 1446 O 132.519 -5.46493 0.0268878 0
M  V30 1447 H 129.613 -0.8264 -0.0314845 0
M  V30 1448 H 132.159 -1.55232 0.685642 0
M  V30 1449 H 130.931 -3.7007 1.27139 0
M  V30 1450 H 130.554 -3.95323 -0.424937 0
M  V30 1451 N 131.551 -0.354651 -1.53558 0
M  V30 1452 C 132.461 0.50515 -2.29097 0
M  V30 1453 C 133.477 1.10223 -1.34636 0
M  V30 1454 O 134.653 1.11553 -1.67684 0
M  V30 1455 C 131.718 1.63479 -3.05738 0
M  V30 1456 C 130.779 1.06636 -4.15845 0
M  V30 1457 C 130.012 2.14217 -4.88822 0
M  V30 1458 O 130.235 3.35137 -4.61562 0
M  V30 1459 O 129.169 1.77887 -5.75013 0
M  V30 1460 H 132.995 -0.109237 -3.03503 0
M  V30 1461 H 130.58 -0.119357 -1.48922 0
M  V30 1462 H 132.462 2.2918 -3.5363 0
M  V30 1463 H 131.137 2.23478 -2.34178 0
M  V30 1464 H 130.044 0.373565 -3.7223 0
M  V30 1465 H 131.377 0.511081 -4.89539 0
M  V30 1466 N 133.029 1.57378 -0.0835403 0
M  V30 1467 C 133.939 2.16897 0.894021 0
M  V30 1468 C 134.955 1.13528 1.31861 0
M  V30 1469 O 136.131 1.45848 1.3889 0
M  V30 1470 C 133.196 2.72831 2.13925 0
M  V30 1471 C 132.257 3.91115 1.76997 0
M  V30 1472 C 131.49 4.44371 2.95584 0
M  V30 1473 O 131.713 3.96596 4.09961 0
M  V30 1474 O 130.647 5.35549 2.74719 0
M  V30 1475 H 134.473 3.00814 0.417679 0
M  V30 1476 H 132.058 1.48741 0.140181 0
M  V30 1477 H 133.94 3.0863 2.86924 0
M  V30 1478 H 132.615 1.91967 2.60635 0
M  V30 1479 H 131.522 3.60148 1.01214 0
M  V30 1480 H 132.855 4.73307 1.3506 0
M  V30 1481 N 134.507 -0.190092 1.56449 0
M  V30 1482 C 135.755 -0.907908 1.80559 0
M  V30 1483 C 136.076 -1.83583 0.657438 0
M  V30 1484 O 135.346 -1.93203 -0.323924 0
M  V30 1485 H 133.926 -0.338247 0.666032 0
M  V30 1486 H 136.588 -0.194403 1.93928 0
M  V30 1487 H 135.684 -1.49604 2.73907 0
M  V30 1488 N 135.985 -1.50799 -0.457987 0
M  V30 1489 C 137.396 -1.55152 -1.0385 0
M  V30 1490 C 137.747 -0.362719 -1.92818 0
M  V30 1491 O 136.872 0.522915 -2.09987 0
M  V30 1492 C 137.467 -2.81173 -1.89017 0
M  V30 1493 C 136.026 -2.88164 -2.42154 0
M  V30 1494 C 135.173 -2.49591 -1.20829 0
M  V30 1495 H 138.124 -1.56874 -0.240068 0
M  V30 1496 H 138.145 -2.63769 -2.74238 0
M  V30 1497 H 137.657 -3.67677 -1.24238 0
M  V30 1498 H 135.758 -2.06042 -3.10447 0
M  V30 1499 H 135.871 -3.91356 -2.76364 0
M  V30 1500 H 134.235 -2.02322 -1.54719 0
M  V30 1501 H 135.018 -3.38418 -0.576927 0
M  V30 1502 N 137.463 0.71206 -1.40597 0
M  V30 1503 C 138.711 1.46907 -1.38791 0
M  V30 1504 C 139.032 1.94998 0.00780391 0
M  V30 1505 O 138.302 1.70587 0.963174 0
M  V30 1506 H 136.882 0.545043 -0.51082 0
M  V30 1507 H 139.544 0.843882 -1.75683 0
M  V30 1508 H 138.64 2.34021 -2.06496 0
M  V30 1509 N 138.941 1.26152 0.944643 0
M  V30 1510 C 139.851 1.09176 2.07648 0
M  V30 1511 C 140.867 0.0261935 1.7398 0
M  V30 1512 O 142.043 0.229208 2.00091 0
M  V30 1513 C 139.108 0.722915 3.39079 0
M  V30 1514 C 138.169 1.86752 3.86552 0
M  V30 1515 C 137.402 1.51617 5.11711 0
M  V30 1516 O 137.625 0.416331 5.68879 0
M  V30 1517 O 136.559 2.34975 5.54139 0
M  V30 1518 H 140.385 2.0412 2.24875 0
M  V30 1519 H 137.97 1.05182 1.061 0
M  V30 1520 H 139.852 0.529787 4.18056 0
M  V30 1521 H 138.527 -0.197159 3.23099 0
M  V30 1522 H 137.434 2.11558 3.08535 0
M  V30 1523 H 138.767 2.76719 4.07047 0
M  V30 1524 N 140.419 -1.14872 1.07899 0
M  V30 1525 C 141.665 -1.86289 0.81657 0
M  V30 1526 C 142.02 -1.8107 -0.65049 0
M  V30 1527 O 141.313 -1.22684 -1.47171 0
M  V30 1528 C 141.507 -3.34223 1.26609 0
M  V30 1529 C 141.336 -3.53846 2.77531 0
M  V30 1530 C 140.106 -3.68995 3.45212 0
M  V30 1531 C 142.304 -3.51201 3.75716 0
M  V30 1532 N 140.286 -3.76725 4.84718 0
M  V30 1533 C 141.657 -3.65112 5.01092 0
M  V30 1534 C 143.712 -3.34507 3.68794 0
M  V30 1535 C 142.415 -3.64056 6.20368 0
M  V30 1536 C 144.441 -3.34752 4.8754 0
M  V30 1537 C 143.803 -3.49199 6.11751 0
M  V30 1538 H 139.902 -0.698579 0.351443 0
M  V30 1539 H 142.486 -1.37713 1.37634 0
M  V30 1540 H 140.657 -3.81402 0.73395 0
M  V30 1541 H 142.389 -3.93377 0.95062 0
M  V30 1542 H 139.144 -3.70006 2.95622 0
M  V30 1543 H 139.568 -3.8432 5.5734 0
M  V30 1544 H 144.21 -3.22253 2.73702 0
M  V30 1545 H 141.928 -3.75087 7.15776 0
M  V30 1546 H 145.514 -3.23055 4.83866 0
M  V30 1547 H 144.394 -3.49328 7.02097 0
M  V30 1548 N 141.898 -0.863906 -1.31812 0
M  V30 1549 C 143.123 -0.48527 -2.01643 0
M  V30 1550 C 143.548 0.913058 -1.64453 0
M  V30 1551 O 142.906 1.6014 -0.849985 0
M  V30 1552 C 142.954 -0.642625 -3.54828 0
M  V30 1553 O 142.058 0.320659 -4.11151 0
M  V30 1554 H 141.399 -0.193793 -0.635091 0
M  V30 1555 H 143.929 -1.16565 -1.68148 0
M  V30 1556 H 143.939 -0.533628 -4.04495 0
M  V30 1557 H 142.614 -1.66227 -3.81237 0
M  V30 1558 H 141.191 0.167126 -3.72525 0
M  V30 1559 N 143.376 1.44774 -0.622745 0
M  V30 1560 C 144.604 2.06487 -0.130722 0
M  V30 1561 C 145.019 1.46476 1.19123 0
M  V30 1562 O 144.376 0.584502 1.72887 0
M  V30 1563 C 144.427 3.615 -0.000807207 0
M  V30 1564 O 144.148 4.19274 -1.27048 0
M  V30 1565 C 145.649 4.40229 0.520898 0
M  V30 1566 H 142.869 0.666704 -0.0758106 0
M  V30 1567 H 145.413 1.85779 -0.854774 0
M  V30 1568 H 143.568 3.81498 0.673643 0
M  V30 1569 H 143.982 5.12622 -1.1099 0
M  V30 1570 H 145.456 5.49144 0.560838 0
M  V30 1571 H 145.933 4.1108 1.54627 0
M  V30 1572 H 146.539 4.25131 -0.120018 0
M  V30 1573 N 144.854 0.36279 1.53368 0
M  V30 1574 C 145.784 -0.476976 2.28576 0
M  V30 1575 C 146.765 -1.08631 1.30894 0
M  V30 1576 O 147.95 -1.10409 1.59761 0
M  V30 1577 C 145.08 -1.61828 3.07293 0
M  V30 1578 C 144.034 -1.13633 4.1264 0
M  V30 1579 C 143.36 -2.36766 4.79423 0
M  V30 1580 C 144.66 -0.223061 5.21823 0
M  V30 1581 H 146.354 0.150474 2.99022 0
M  V30 1582 H 143.9 0.0738103 1.43811 0
M  V30 1583 H 145.853 -2.21237 3.58653 0
M  V30 1584 H 144.577 -2.27292 2.34533 0
M  V30 1585 H 143.236 -0.564945 3.62221 0
M  V30 1586 H 142.884 -3.0068 4.03238 0
M  V30 1587 H 142.584 -2.05192 5.50609 0
M  V30 1588 H 144.108 -2.96865 5.33576 0
M  V30 1589 H 145.522 -0.724545 5.68703 0
M  V30 1590 H 143.919 0.001678 6.001 0
M  V30 1591 H 144.989 0.735553 4.79289 0
M  V30 1592 N 146.332 -1.57332 0.0918853 0
M  V30 1593 C 147.242 -2.17368 -0.882505 0
M  V30 1594 C 148.258 -1.14226 -1.31257 0
M  V30 1595 O 149.434 -1.46582 -1.38115 0
M  V30 1596 C 146.499 -2.73962 -2.12476 0
M  V30 1597 C 145.56 -3.92048 -1.7492 0
M  V30 1598 C 144.793 -4.45933 -2.93223 0
M  V30 1599 O 145.016 -3.98764 -4.07852 0
M  V30 1600 O 143.95 -5.36999 -2.71875 0
M  V30 1601 H 147.776 -3.01031 -0.40172 0
M  V30 1602 H 145.361 -1.48813 -0.132291 0
M  V30 1603 H 147.243 -3.10147 -2.85283 0
M  V30 1604 H 145.918 -1.93347 -2.59613 0
M  V30 1605 H 144.825 -3.6068 -0.993025 0
M  V30 1606 H 146.158 -4.74017 -1.32548 0
M  V30 1607 N 147.81 0.181792 -1.56548 0
M  V30 1608 C 148.773 1.20894 -1.94724 0
M  V30 1609 C 149.773 1.37738 -0.829747 0
M  V30 1610 O 150.963 1.35323 -1.09697 0
M  V30 1611 C 148.095 2.57593 -2.23291 0
M  V30 1612 H 149.288 0.882275 -2.86629 0
M  V30 1613 H 146.841 0.423838 -1.50444 0
M  V30 1614 H 147.576 2.95291 -1.34067 0
M  V30 1615 H 147.361 2.46735 -3.04736 0
M  V30 1616 H 148.851 3.31637 -2.53785 0
M  V30 1617 N 149.288 1.51039 0.449983 0
M  V30 1618 C 150.198 1.74261 1.57067 0
M  V30 1619 C 151.214 0.626363 1.62335 0
M  V30 1620 O 152.39 0.907162 1.79812 0
M  V30 1621 C 149.455 1.85114 2.93144 0
M  V30 1622 C 148.516 3.0893 2.98095 0
M  V30 1623 C 147.749 3.19256 4.27681 0
M  V30 1624 O 147.972 2.35835 5.19363 0
M  V30 1625 O 146.906 4.12144 4.38658 0
M  V30 1626 H 150.732 2.69303 1.40391 0
M  V30 1627 H 148.317 1.35389 0.631688 0
M  V30 1628 H 150.199 1.94311 3.73926 0
M  V30 1629 H 148.874 0.932588 3.09975 0
M  V30 1630 H 147.781 3.0522 2.16314 0
M  V30 1631 H 149.114 4.00433 2.86206 0
M  V30 1632 N 150.766 -0.704594 1.40972 0
M  V30 1633 C 151.994 -1.49354 1.43182 0
M  V30 1634 C 152.409 -1.88768 0.0345508 0
M  V30 1635 O 151.766 -1.56184 -0.944081 0
M  V30 1636 C 151.817 -2.76187 2.33244 0
M  V30 1637 O 151.538 -2.38436 3.67532 0
M  V30 1638 C 153.039 -3.7 2.44162 0
M  V30 1639 H 150.259 -0.460559 0.487982 0
M  V30 1640 H 152.803 -0.868261 1.85153 0
M  V30 1641 H 150.958 -3.34974 1.94606 0
M  V30 1642 H 151.372 -3.20126 4.15475 0
M  V30 1643 H 152.846 -4.55803 3.11364 0
M  V30 1644 H 153.323 -4.13867 1.47006 0
M  V30 1645 H 153.929 -3.17121 2.83398 0
M  V30 1646 N 152.244 -1.26651 -0.937939 0
M  V30 1647 C 153.174 -1.10993 -2.05433 0
M  V30 1648 C 154.155 -0.0142161 -1.70094 0
M  V30 1649 O 155.34 -0.186837 -1.93299 0
M  V30 1650 C 152.47 -0.745561 -3.39203 0
M  V30 1651 C 151.424 -1.79337 -3.88616 0
M  V30 1652 C 150.75 -1.28324 -5.19073 0
M  V30 1653 C 152.05 -3.19553 -4.13138 0
M  V30 1654 H 153.744 -2.0438 -2.1879 0
M  V30 1655 H 151.29 -0.984041 -1.05131 0
M  V30 1656 H 153.243 -0.622888 -4.16771 0
M  V30 1657 H 151.967 0.22401 -3.25831 0
M  V30 1658 H 150.626 -1.90477 -3.13231 0
M  V30 1659 H 150.274 -0.303414 -5.02084 0
M  V30 1660 H 149.974 -1.98369 -5.53103 0
M  V30 1661 H 151.498 -1.1733 -5.99221 0
M  V30 1662 H 152.912 -3.11471 -4.81309 0
M  V30 1663 H 151.309 -3.87218 -4.58457 0
M  V30 1664 H 152.379 -3.65368 -3.18801 0
M  V30 1665 N 153.722 1.14298 -1.08507 0
M  V30 1666 C 154.655 2.18447 -0.660004 0
M  V30 1667 C 155.633 1.59242 0.328749 0
M  V30 1668 O 156.817 1.87062 0.232367 0
M  V30 1669 C 153.944 3.38688 0.0290807 0
M  V30 1670 C 152.99 4.1646 -0.919982 0
M  V30 1671 S 153.823 4.77334 -2.42718 0
M  V30 1672 C 154.979 6.00931 -1.75024 0
M  V30 1673 H 155.212 2.54166 -1.54231 0
M  V30 1674 H 152.745 1.25446 -0.900149 0
M  V30 1675 H 154.703 4.08342 0.420378 0
M  V30 1676 H 153.364 3.01289 0.887895 0
M  V30 1677 H 152.557 5.02529 -0.384751 0
M  V30 1678 H 152.159 3.52414 -1.25223 0
M  V30 1679 H 154.451 6.69017 -1.06877 0
M  V30 1680 H 155.394 6.59044 -2.58971 0
M  V30 1681 H 155.802 5.51089 -1.22317 0
M  V30 1682 N 155.201 0.870884 1.31352 0
M  V30 1683 C 156.148 0.325425 2.28494 0
M  V30 1684 C 157.118 -0.576615 1.5577 0
M  V30 1685 O 158.303 -0.508059 1.83911 0
M  V30 1686 C 155.443 -0.466283 3.41935 0
M  V30 1687 C 154.556 0.463378 4.29508 0
M  V30 1688 C 153.691 -0.342544 5.30094 0
M  V30 1689 C 152.73 0.583486 6.09313 0
M  V30 1690 N 151.867 -0.186244 7.01853 0
M  V30 1691 H 156.707 1.15901 2.74538 0
M  V30 1692 H 154.244 0.58294 1.35056 0
M  V30 1693 H 156.202 -0.941085 4.06447 0
M  V30 1694 H 154.832 -1.26456 2.97 0
M  V30 1695 H 153.884 1.05663 3.65431 0
M  V30 1696 H 155.196 1.1734 4.84802 0
M  V30 1697 H 154.35 -0.879816 6.00287 0
M  V30 1698 H 153.089 -1.08585 4.75458 0
M  V30 1699 H 152.094 1.13251 5.3801 0
M  V30 1700 H 153.319 1.32566 6.66035 0
M  V30 1701 H 151.265 -0.912348 6.49625 0
M  V30 1702 H 151.182 0.464422 7.54572 0
M  V30 1703 H 152.45 -0.704716 7.76308 0
M  V30 1704 N 156.679 -1.44442 0.630414 0
M  V30 1705 C 157.956 -1.9549 0.0655657 0
M  V30 1706 C 158.336 -1.5724 -1.40851 0
M  V30 1707 O 157.684 -0.846116 -2.12257 0
M  V30 1708 C 157.894 -3.47812 0.287691 0
M  V30 1709 C 159.242 -4.24216 0.180513 0
M  V30 1710 O 160.266 -3.55526 0.219019 0
M  V30 1711 O 159.125 -5.46434 0.0848493 0
M  V30 1712 H 156.219 -0.826688 -0.0227177 0
M  V30 1713 H 158.765 -1.54496 0.702068 0
M  V30 1714 H 157.537 -3.687 1.31056 0
M  V30 1715 H 157.16 -3.95751 -0.382984 0
M  V30 1716 N 158.157 -0.370918 -1.53173 0
M  V30 1717 C 159.434 0.273754 -1.93675 0
M  V30 1718 C 159.814 1.65938 -1.3049 0
M  V30 1719 O 159.162 2.23698 -0.465999 0
M  V30 1720 C 159.372 0.318602 -3.47543 0
M  V30 1721 C 160.72 0.556392 -4.20939 0
M  V30 1722 O 161.744 0.399587 -3.53952 0
M  V30 1723 O 160.603 0.862133 -5.39657 0
M  V30 1724 H 157.697 0.165448 -0.810281 0
M  V30 1725 H 160.243 -0.42409 -1.64315 0
M  V30 1726 H 159.015 -0.652687 -3.85818 0
M  V30 1727 H 158.638 1.06212 -3.83151 0
M  V30 1728 N 159.635 1.57281 -0.100228 0
M  V30 1729 C 160.545 2.17833 0.870965 0
M  V30 1730 C 161.561 1.14921 1.30649 0
M  V30 1731 O 162.737 1.47313 1.37335 0
M  V30 1732 C 159.802 2.75085 2.1102 0
M  V30 1733 C 158.863 3.9297 1.72838 0
M  V30 1734 C 158.096 4.47482 2.90854 0
M  V30 1735 O 158.319 4.00922 4.05731 0
M  V30 1736 O 157.253 5.38433 2.69023 0
M  V30 1737 H 161.079 3.0124 0.38575 0
M  V30 1738 H 158.664 1.48881 0.124397 0
M  V30 1739 H 160.546 3.11656 2.83634 0
M  V30 1740 H 159.221 1.94721 2.58584 0
M  V30 1741 H 158.128 3.61201 0.973883 0
M  V30 1742 H 159.461 4.74713 1.30033 0
M  V30 1743 N 161.113 -0.173488 1.56642 0
M  V30 1744 C 162.362 -0.888758 1.81063 0
M  V30 1745 C 162.675 -1.83506 0.67712 0
M  V30 1746 O 163.881 -2.59254 0.806206 0
M  V30 1747 C 162.337 -1.63091 3.20826 0
M  V30 1748 C 161.945 -0.728357 4.4204 0
M  V30 1749 C 163.689 -2.33454 3.54541 0
M  V30 1750 C 161.596 -1.47062 5.72823 0
M  V30 1751 H 160.526 -0.335618 0.675186 0
M  V30 1752 H 163.177 -0.141712 1.82952 0
M  V30 1753 H 161.559 -2.42263 3.13248 0
M  V30 1754 H 162.733 0.0262449 4.60793 0
M  V30 1755 H 161.048 -0.134492 4.16183 0
M  V30 1756 H 163.645 -2.89578 4.49498 0
M  V30 1757 H 163.988 -3.08687 2.79317 0
M  V30 1758 H 164.521 -1.61227 3.63663 0
M  V30 1759 H 161.26 -0.760658 6.51072 0
M  V30 1760 H 160.78 -2.1986 5.58052 0
M  V30 1761 H 162.459 -2.01868 6.14702 0
M  V30 1762 N 162.591 -1.51276 -0.441967 0
M  V30 1763 C 163.831 -1.65372 -1.20132 0
M  V30 1764 C 164.195 -0.359871 -1.88597 0
M  V30 1765 O 165.396 -0.376551 -2.66149 0
M  V30 1766 C 163.667 -2.8207 -2.1948 0
M  V30 1767 S 165.226 -3.16467 -3.03964 0
M  V30 1768 H 162.044 -0.582669 -0.407453 0
M  V30 1769 H 164.646 -1.89166 -0.493609 0
M  V30 1770 H 163.35 -3.74523 -1.67812 0
M  V30 1771 H 162.881 -2.6045 -2.94838 0
M  V30 1772 H 164.896 -2.62543 -4.21053 0
M  V30 1773 N 164.069 0.697108 -1.41344 0
M  V30 1774 C 165.317 1.45426 -1.40341 0
M  V30 1775 C 165.638 1.94996 -0.0128787 0
M  V30 1776 O 164.908 1.71599 0.945027 0
M  V30 1777 H 163.488 0.539594 -0.516573 0
M  V30 1778 H 166.15 0.825201 -1.76569 0
M  V30 1779 H 165.246 2.31817 -2.08967 0
M  V30 1780 N 165.547 1.27147 0.931209 0
M  V30 1781 C 166.775 1.16082 1.71267 0
M  V30 1782 C 167.19 -0.282772 1.8667 0
M  V30 1783 O 166.547 -1.19283 1.38122 0
M  V30 1784 C 166.598 1.8358 3.11417 0
M  V30 1785 O 166.319 3.22299 2.96741 0
M  V30 1786 C 167.82 1.78597 4.05732 0
M  V30 1787 H 165.04 0.403758 0.535929 0
M  V30 1788 H 167.584 1.67953 1.16671 0
M  V30 1789 H 165.739 1.35623 3.62885 0
M  V30 1790 H 166.153 3.55851 3.85319 0
M  V30 1791 H 167.627 2.30444 5.01597 0
M  V30 1792 H 168.104 0.754564 4.3267 0
M  V30 1793 H 168.71 2.26152 3.60188 0
M  V30 1794 N 167.025 -1.13721 1.09112 0
M  V30 1795 C 167.972 -2.19031 0.727591 0
M  V30 1796 C 168.942 -1.63555 -0.289656 0
M  V30 1797 O 170.127 -1.90023 -0.172026 0
M  V30 1798 C 167.267 -3.4477 0.15082 0
M  V30 1799 C 166.38 -4.14365 1.22172 0
M  V30 1800 C 165.515 -5.27709 0.608042 0
M  V30 1801 C 164.554 -5.89147 1.66047 0
M  V30 1802 N 163.691 -6.93929 1.06806 0
M  V30 1803 H 168.531 -2.49475 1.62991 0
M  V30 1804 H 166.068 -1.22499 0.81439 0
M  V30 1805 H 168.026 -4.16714 -0.201358 0
M  V30 1806 H 166.656 -3.14787 -0.714783 0
M  V30 1807 H 165.708 -3.40737 1.69122 0
M  V30 1808 H 167.02 -4.56114 2.01895 0
M  V30 1809 H 166.174 -6.06355 0.204523 0
M  V30 1810 H 164.913 -4.872 -0.220769 0
M  V30 1811 H 163.918 -5.09198 2.07357 0
M  V30 1812 H 165.143 -6.31729 2.49189 0
M  V30 1813 H 163.089 -6.55483 0.260476 0
M  V30 1814 H 163.006 -7.34202 1.8023 0
M  V30 1815 H 164.274 -7.76434 0.690644 0
M  V30 1816 N 168.503 -0.877838 -1.30888 0
M  V30 1817 C 169.451 -0.328662 -2.30266 0
M  V30 1818 C 170.445 0.560496 -1.59859 0
M  V30 1819 O 171.651 0.445722 -1.74394 0
M  V30 1820 H 168.026 -0.0876142 -0.746879 0
M  V30 1821 H 169.997 -1.18061 -2.74051 0
M  V30 1822 C 168.746 0.448071 -3.44801 0
M  V30 1823 H 168.069 -0.226859 -3.99156 0
M  V30 1824 H 169.509 0.797541 -4.16432 0
M  V30 1825 C 167.968 1.64239 -2.94155 0
M  V30 1826 O 168.498 2.74175 -2.93583 0
M  V30 1827 N 166.704 1.47716 -2.50256 0
M  V30 1828 H 166.251 0.582821 -2.5092 0
M  V30 1829 H 166.209 2.27765 -2.16727 0
M  V30 1830 N 169.982 1.44106 -0.638065 0
M  V30 1831 C 171.393 1.85316 -0.226894 0
M  V30 1832 C 171.744 1.53399 1.22324 0
M  V30 1833 O 170.869 0.975463 1.93167 0
M  V30 1834 C 171.464 3.3637 -0.405013 0
M  V30 1835 C 170.023 3.76369 -0.0482902 0
M  V30 1836 C 169.17 2.67921 -0.715108 0
M  V30 1837 H 172.121 1.34474 -0.842764 0
M  V30 1838 H 172.142 3.7885 0.354 0
M  V30 1839 H 171.654 3.59569 -1.46053 0
M  V30 1840 H 169.755 3.58784 1.00522 0
M  V30 1841 H 169.868 4.76856 -0.463187 0
M  V30 1842 H 168.232 2.54259 -0.149753 0
M  V30 1843 H 169.015 2.93951 -1.77335 0
M  V30 1844 N 171.46 0.379036 1.52974 0
M  V30 1845 C 172.688 -0.20679 2.05864 0
M  V30 1846 C 173.103 -1.41356 1.25155 0
M  V30 1847 O 172.46 -1.8009 0.295588 0
M  V30 1848 C 172.511 -0.587045 3.56702 0
M  V30 1849 O 172.232 0.571776 4.34353 0
M  V30 1850 C 173.733 -1.22983 4.25899 0
M  V30 1851 H 170.953 -0.0336123 0.670158 0
M  V30 1852 H 173.497 0.541298 1.97206 0
M  V30 1853 H 171.652 -1.28504 3.65466 0
M  V30 1854 H 172.066 0.261544 5.23847 0
M  V30 1855 H 173.54 -1.44635 5.32715 0
M  V30 1856 H 174.017 -2.19416 3.80465 0
M  V30 1857 H 174.623 -0.572892 4.21424 0
M  V30 1858 N 172.938 -1.57226 0.108567 0
M  V30 1859 C 174.349 -1.8195 -0.418464 0
M  V30 1860 C 174.7 -1.02508 -1.67292 0
M  V30 1861 O 173.825 -0.258496 -2.14851 0
M  V30 1862 C 174.42 -3.30028 -0.765979 0
M  V30 1863 C 172.979 -3.55469 -1.23769 0
M  V30 1864 C 172.126 -2.7625 -0.241106 0
M  V30 1865 H 175.077 -1.55149 0.33384 0
M  V30 1866 H 175.098 -3.44086 -1.62434 0
M  V30 1867 H 174.61 -3.87821 0.147219 0
M  V30 1868 H 172.711 -3.03022 -2.16814 0
M  V30 1869 H 172.824 -4.6408 -1.19022 0
M  V30 1870 H 171.188 -2.44133 -0.72602 0
M  V30 1871 H 171.971 -3.36797 0.665007 0
M  V30 1872 N 174.416 0.165178 -1.56732 0
M  V30 1873 C 175.366 1.20917 -1.93295 0
M  V30 1874 C 176.35 1.39488 -0.801985 0
M  V30 1875 O 177.542 1.41356 -1.06525 0
M  V30 1876 C 174.671 2.54718 -2.3016 0
M  V30 1877 C 173.757 2.39815 -3.49785 0
M  V30 1878 N 174.148 1.94637 -4.66851 0
M  V30 1879 C 172.446 2.70623 -3.54513 0
M  V30 1880 C 173.147 1.92344 -5.4898 0
M  V30 1881 N 172.123 2.34978 -4.9019 0
M  V30 1882 H 175.925 0.851675 -2.81289 0
M  V30 1883 H 173.439 0.373399 -1.58049 0
M  V30 1884 H 175.436 3.30165 -2.54552 0
M  V30 1885 H 174.096 2.91265 -1.43508 0
M  V30 1886 H 175.107 1.6488 -4.90953 0
M  V30 1887 H 171.784 3.11167 -2.78354 0
M  V30 1888 H 173.174 1.5906 -6.52801 0
M  V30 1889 N 175.894 1.51508 0.433938 0
M  V30 1890 C 176.841 1.73068 1.52696 0
M  V30 1891 C 177.811 0.572441 1.55924 0
M  V30 1892 O 178.996 0.807253 1.72882 0
M  V30 1893 C 176.136 1.86474 2.90381 0
M  V30 1894 C 175.249 3.14037 2.96656 0
M  V30 1895 C 174.384 3.18019 4.25485 0
M  V30 1896 C 173.423 4.39882 4.2564 0
M  V30 1897 N 172.56 4.41394 5.45999 0
M  V30 1898 H 177.4 2.66366 1.33615 0
M  V30 1899 H 174.937 1.32008 0.649018 0
M  V30 1900 H 176.895 1.92229 3.70275 0
M  V30 1901 H 175.525 0.965809 3.08013 0
M  V30 1902 H 174.577 3.17575 2.09404 0
M  V30 1903 H 175.889 4.0394 2.92633 0
M  V30 1904 H 175.043 3.22708 5.13755 0
M  V30 1905 H 173.782 2.2601 4.3217 0
M  V30 1906 H 172.787 4.35366 3.35763 0
M  V30 1907 H 174.012 5.33159 4.20617 0
M  V30 1908 H 171.958 3.52258 5.53399 0
M  V30 1909 H 171.875 5.25111 5.4387 0
M  V30 1910 H 173.143 4.50281 6.36292 0
M  V30 1911 N 177.372 -0.689602 1.41712 0
M  V30 1912 C 178.621 -1.44534 1.40686 0
M  V30 1913 C 178.934 -1.95588 0.0213352 0
M  V30 1914 O 180.14 -2.71271 -0.111534 0
M  V30 1915 C 178.596 -2.61387 2.47396 0
M  V30 1916 C 178.204 -2.17094 3.91885 0
M  V30 1917 C 179.948 -3.38986 2.55517 0
M  V30 1918 C 177.855 -3.3094 4.90135 0
M  V30 1919 H 176.785 -0.542925 0.52321 0
M  V30 1920 H 179.436 -0.748054 1.6756 0
M  V30 1921 H 177.818 -3.33412 2.13664 0
M  V30 1922 H 178.992 -1.52318 4.34897 0
M  V30 1923 H 177.307 -1.52473 3.8748 0
M  V30 1924 H 179.904 -4.23747 3.26102 0
M  V30 1925 H 180.247 -3.84578 1.59391 0
M  V30 1926 H 180.78 -2.74021 2.8837 0
M  V30 1927 H 177.519 -2.90355 5.87685 0
M  V30 1928 H 177.039 -3.94546 4.51767 0
M  V30 1929 H 178.718 -3.9663 5.11169 0
M  V30 1930 N 178.85 -1.27639 -0.924453 0
M  V30 1931 C 179.78 -1.13166 -2.04244 0
M  V30 1932 C 180.761 -0.032256 -1.70069 0
M  V30 1933 O 181.946 -0.207328 -1.9309 0
M  V30 1934 C 179.076 -0.781496 -3.38393 0
M  V30 1935 C 178.03 -1.83449 -3.86692 0
M  V30 1936 C 177.356 -1.33822 -5.17683 0
M  V30 1937 C 178.656 -3.23917 -4.09726 0
M  V30 1938 H 180.35 -2.06689 -2.1661 0
M  V30 1939 H 177.896 -0.995136 -1.04082 0
M  V30 1940 H 179.849 -0.667057 -4.16087 0
M  V30 1941 H 178.573 0.189439 -3.2605 0
M  V30 1942 H 177.232 -1.93789 -3.11193 0
M  V30 1943 H 176.88 -0.35665 -5.01734 0
M  V30 1944 H 176.58 -2.04224 -5.50968 0
M  V30 1945 H 178.104 -1.23679 -5.97943 0
M  V30 1946 H 179.518 -3.16559 -4.77978 0
M  V30 1947 H 177.915 -3.92059 -4.54324 0
M  V30 1948 H 178.985 -3.68729 -3.14908 0
M  V30 1949 N 180.328 1.1314 -1.09713 0
M  V30 1950 C 181.258 2.20748 -0.761102 0
M  V30 1951 C 182.239 1.68061 0.262566 0
M  V30 1952 O 183.424 1.93765 0.129977 0
M  V30 1953 C 180.554 3.46812 -0.184054 0
M  V30 1954 C 179.508 4.12606 -1.13757 0
M  V30 1955 C 178.834 5.33031 -0.422083 0
M  V30 1956 C 180.134 4.59603 -2.48118 0
M  V30 1957 H 181.828 2.49113 -1.66082 0
M  V30 1958 H 179.374 1.19734 -0.799987 0
M  V30 1959 H 181.327 4.21353 0.0631215 0
M  V30 1960 H 180.051 3.17851 0.750868 0
M  V30 1961 H 178.71 3.40036 -1.37007 0
M  V30 1962 H 178.358 5.00335 0.517072 0
M  V30 1963 H 178.058 5.77999 -1.05788 0
M  V30 1964 H 179.582 6.10325 -0.183277 0
M  V30 1965 H 180.996 5.25552 -2.29059 0
M  V30 1966 H 179.393 5.15321 -3.07514 0
M  V30 1967 H 180.463 3.73971 -3.08665 0
M  V30 1968 N 181.806 0.884767 1.30421 0
M  V30 1969 C 183.083 0.423185 1.90967 0
M  V30 1970 C 183.463 -1.09605 1.80416 0
M  V30 1971 O 182.811 -1.93126 1.22125 0
M  V30 1972 C 183.021 0.921056 3.36627 0
M  V30 1973 C 184.369 0.955903 4.137 0
M  V30 1974 O 185.393 0.867706 3.4547 0
M  V30 1975 O 184.252 1.08614 5.35598 0
M  V30 1976 H 181.346 0.129369 0.816819 0
M  V30 1977 H 183.892 0.973653 1.3899 0
M  V30 1978 H 182.664 1.96489 3.3839 0
M  V30 1979 H 182.287 0.349741 3.96059 0
M  V30 1980 N 183.284 -1.43765 0.645699 0
M  V30 1981 C 184.512 -2.06253 0.163556 0
M  V30 1982 C 184.927 -1.48352 -1.16778 0
M  V30 1983 O 184.284 -0.611932 -1.71935 0
M  V30 1984 C 184.335 -3.61453 0.0583186 0
M  V30 1985 O 184.056 -4.172 1.33702 0
M  V30 1986 C 185.557 -4.41002 -0.450795 0
M  V30 1987 H 182.777 -0.665413 0.0864077 0
M  V30 1988 H 185.321 -1.84396 0.884222 0
M  V30 1989 H 183.476 -3.82522 -0.612865 0
M  V30 1990 H 183.89 -5.10791 1.19131 0
M  V30 1991 H 185.364 -5.49966 -0.473403 0
M  V30 1992 H 185.841 -4.13488 -1.48068 0
M  V30 1993 H 186.447 -4.24886 0.187637 0
M  V30 1994 N 184.763 -0.387143 -1.52771 0
M  V30 1995 C 186.179 -0.037007 -1.59557 0
M  V30 1996 C 186.379 1.44801 -1.40124 0
M  V30 1997 O 185.435 2.21227 -1.21716 0
M  V30 1998 C 186.748 -0.512256 -2.96305 0
M  V30 1999 C 188.296 -0.468328 -3.09476 0
M  V30 2000 C 188.771 -0.919731 -4.4867 0
M  V30 2001 N 190.262 -0.875656 -4.54848 0
M  V30 2002 C 190.997 -1.19637 -5.6078 0
M  V30 2003 N 190.493 -1.58745 -6.74368 0
M  V30 2004 N 192.286 -1.11776 -5.50874 0
M  V30 2005 H 184.437 -1.35395 -1.63652 0
M  V30 2006 H 186.7 -0.554818 -0.768688 0
M  V30 2007 H 186.406 -1.54935 -3.15734 0
M  V30 2008 H 186.28 0.089805 -3.77093 0
M  V30 2009 H 188.667 0.559671 -2.89744 0
M  V30 2010 H 188.748 -1.10616 -2.30646 0
M  V30 2011 H 188.392 -1.94595 -4.69143 0
M  V30 2012 H 188.322 -0.258927 -5.25963 0
M  V30 2013 H 190.813 -0.587843 -3.733 0
M  V30 2014 H 191.126 -1.81586 -7.51163 0
M  V30 2015 H 189.471 -1.6263 -6.75705 0
M  V30 2016 H 192.662 -0.811264 -4.61016 0
M  V30 2017 H 192.835 -1.37103 -6.3333 0
M  V30 2018 N 186.241 1.57166 -0.116904 0
M  V30 2019 C 187.488 1.95123 0.541603 0
M  V30 2020 C 187.816 1.00006 1.6682 0
M  V30 2021 O 187.071 0.0235658 1.95686 0
M  V30 2022 C 187.37 3.39508 1.11664 0
M  V30 2023 C 187.036 4.50762 0.111606 0
M  V30 2024 C 185.698 4.80918 -0.164758 0
M  V30 2025 C 188.05 5.18036 -0.573438 0
M  V30 2026 C 185.378 5.75666 -1.13249 0
M  V30 2027 C 187.73 6.13824 -1.52978 0
M  V30 2028 C 186.394 6.42374 -1.81415 0
M  V30 2029 H 185.664 0.714005 0.198187 0
M  V30 2030 H 188.311 1.9048 -0.197365 0
M  V30 2031 H 186.616 3.40835 1.93232 0
M  V30 2032 H 188.313 3.66189 1.63422 0
M  V30 2033 H 184.903 4.27272 0.337192 0
M  V30 2034 H 189.087 4.94896 -0.373092 0
M  V30 2035 H 184.343 5.96092 -1.35958 0
M  V30 2036 H 188.517 6.65039 -2.06629 0
M  V30 2037 H 186.144 7.15599 -2.56557 0
M  V30 2038 N 187.719 -0.156864 1.56817 0
M  V30 2039 C 188.629 -1.2136 2.00771 0
M  V30 2040 C 189.645 -1.47598 0.921459 0
M  V30 2041 O 190.821 -1.59462 1.2302 0
M  V30 2042 C 187.886 -2.52943 2.37109 0
M  V30 2043 C 186.947 -2.34439 3.59634 0
M  V30 2044 C 186.18 -3.59748 3.94229 0
M  V30 2045 O 186.403 -4.65526 3.29609 0
M  V30 2046 O 185.337 -3.52998 4.8752 0
M  V30 2047 H 189.163 -0.870468 2.90958 0
M  V30 2048 H 186.748 -0.36484 1.44877 0
M  V30 2049 H 188.63 -3.30538 2.61386 0
M  V30 2050 H 187.305 -2.86806 1.5008 0
M  V30 2051 H 186.212 -1.54828 3.40557 0
M  V30 2052 H 187.545 -2.05496 4.4725 0
M  V30 2053 N 189.197 -1.51736 -0.425897 0
M  V30 2054 C 190.127 -1.76827 -1.52494 0
M  V30 2055 C 191.108 -0.618524 -1.58456 0
M  V30 2056 O 192.293 -0.862416 -1.74 0
M  V30 2057 C 189.423 -1.90374 -2.90474 0
M  V30 2058 C 188.377 -3.0588 -2.99369 0
M  V30 2059 C 187.703 -3.04625 -4.3944 0
M  V30 2060 C 189.003 -4.45644 -2.72394 0
M  V30 2061 H 190.697 -2.68855 -1.31748 0
M  V30 2062 H 188.243 -1.29372 -0.632362 0
M  V30 2063 H 190.196 -2.0651 -3.6733 0
M  V30 2064 H 188.92 -0.95004 -3.12477 0
M  V30 2065 H 187.579 -2.89467 -2.24954 0
M  V30 2066 H 187.227 -2.0701 -4.58428 0
M  V30 2067 H 186.927 -3.82195 -4.46319 0
M  V30 2068 H 188.451 -3.22869 -5.18255 0
M  V30 2069 H 189.865 -4.62348 -3.38979 0
M  V30 2070 H 188.262 -5.25006 -2.9067 0
M  V30 2071 H 189.332 -4.54893 -1.67929 0
M  V30 2072 N 190.675 0.682077 -1.42076 0
M  V30 2073 C 192.086 1.26246 -1.37546 0
M  V30 2074 C 192.437 1.96092 -0.0651481 0
M  V30 2075 O 191.562 1.99587 0.836297 0
M  V30 2076 C 192.157 2.29594 -2.49143 0
M  V30 2077 C 190.716 2.83175 -2.47969 0
M  V30 2078 C 189.863 1.57395 -2.28303 0
M  V30 2079 H 192.814 0.475937 -1.51395 0
M  V30 2080 H 192.835 3.11175 -2.18976 0
M  V30 2081 H 192.347 1.78729 -3.44496 0
M  V30 2082 H 190.448 3.3818 -1.56413 0
M  V30 2083 H 190.561 3.32687 -3.44755 0
M  V30 2084 H 188.925 1.83699 -1.76428 0
M  V30 2085 H 189.708 1.08507 -3.25701 0
M  V30 2086 N 192.153 1.28127 0.917671 0
M  V30 2087 C 193.4 1.15052 1.66641 0
M  V30 2088 C 193.728 -0.301677 1.92146 0
M  V30 2089 O 192.983 -1.23622 1.51711 0
M  V30 2090 C 193.282 1.89018 3.03327 0
M  V30 2091 C 192.948 3.38832 2.97496 0
M  V30 2092 C 191.61 3.79693 2.95613 0
M  V30 2093 C 193.962 4.34378 2.88036 0
M  V30 2094 C 191.29 5.14447 2.82066 0
M  V30 2095 C 193.642 5.69201 2.7603 0
M  V30 2096 C 192.306 6.09343 2.72502 0
M  V30 2097 H 191.576 0.421006 0.609783 0
M  V30 2098 H 194.223 1.58855 1.06945 0
M  V30 2099 H 192.528 1.37752 3.66785 0
M  V30 2100 H 194.225 1.76321 3.60156 0
M  V30 2101 H 190.815 3.06342 2.99754 0
M  V30 2102 H 194.999 4.03775 2.88581 0
M  V30 2103 H 190.255 5.44681 2.77728 0
M  V30 2104 H 194.429 6.42901 2.67678 0
M  V30 2105 H 192.056 7.13712 2.61762 0
M  V30 2106 N 193.631 -1.12557 1.10312 0
M  V30 2107 C 194.908 -1.80363 0.756878 0
M  V30 2108 C 195.288 -1.97067 -0.756824 0
M  V30 2109 O 194.636 -1.54601 -1.68259 0
M  V30 2110 C 194.846 -3.14812 1.50647 0
M  V30 2111 C 196.194 -3.90029 1.67817 0
M  V30 2112 O 197.218 -3.24464 1.46974 0
M  V30 2113 O 196.077 -5.07652 2.02365 0
M  V30 2114 H 193.171 -0.780667 0.272926 0
M  V30 2115 H 195.717 -1.19404 1.20586 0
M  V30 2116 H 194.489 -2.97936 2.53672 0
M  V30 2117 H 194.112 -3.83478 1.05026 0
M  V30 2118 N 195.109 -0.891671 -1.2995 0
M  V30 2119 C 196.358 -0.509521 -1.95158 0
M  V30 2120 C 196.671 0.947388 -1.71125 0
M  V30 2121 O 197.877 1.43669 -2.30372 0
M  V30 2122 C 196.333 -0.860315 -3.49466 0
M  V30 2123 C 195.941 -2.33545 -3.8231 0
M  V30 2124 C 197.685 -0.547687 -4.20952 0
M  V30 2125 C 195.592 -2.62752 -5.29826 0
M  V30 2126 H 194.522 -0.18682 -0.730489 0
M  V30 2127 H 197.173 -1.08756 -1.47798 0
M  V30 2128 H 195.555 -0.211285 -3.95436 0
M  V30 2129 H 196.729 -3.02936 -3.47227 0
M  V30 2130 H 195.044 -2.61629 -3.23944 0
M  V30 2131 H 197.641 -0.742854 -5.29515 0
M  V30 2132 H 197.984 0.51332 -4.13123 0
M  V30 2133 H 198.517 -1.1542 -3.80688 0
M  V30 2134 H 195.256 -3.6762 -5.42712 0
M  V30 2135 H 194.776 -1.97977 -5.66185 0
M  V30 2136 H 196.455 -2.48601 -5.97333 0
M  V30 2137 N 196.587 1.43421 -0.653314 0
M  V30 2138 C 197.998 1.85065 -0.246537 0
M  V30 2139 C 198.349 1.54688 1.2069 0
M  V30 2140 O 197.474 0.995896 1.92122 0
M  V30 2141 C 198.069 3.35922 -0.440666 0
M  V30 2142 C 196.628 3.76297 -0.0882064 0
M  V30 2143 C 195.775 2.67147 -0.743484 0
M  V30 2144 H 198.726 1.33572 -0.856979 0
M  V30 2145 H 198.747 3.79204 0.313798 0
M  V30 2146 H 198.259 3.58 -1.49858 0
M  V30 2147 H 196.36 3.5983 0.96711 0
M  V30 2148 H 196.473 4.76338 -0.513738 0
M  V30 2149 H 194.837 2.54086 -0.176712 0
M  V30 2150 H 195.62 2.92053 -1.80443 0
M  V30 2151 N 198.065 0.39524 1.52563 0
M  V30 2152 C 198.975 -0.444232 2.30356 0
M  V30 2153 C 199.991 -1.06615 1.37511 0
M  V30 2154 O 201.167 -1.07067 1.70583 0
M  V30 2155 C 198.232 -1.55315 3.09964 0
M  V30 2156 C 197.293 -0.955734 4.18526 0
M  V30 2157 C 196.526 -2.01181 4.9433 0
M  V30 2158 O 196.749 -3.22781 4.70285 0
M  V30 2159 O 195.683 -1.62579 5.79527 0
M  V30 2160 H 199.509 0.189667 3.03107 0
M  V30 2161 H 197.094 0.1588 1.48554 0
M  V30 2162 H 198.976 -2.19724 3.59582 0
M  V30 2163 H 197.651 -2.17191 2.4002 0
M  V30 2164 H 196.558 -0.274743 3.7309 0
M  V30 2165 H 197.891 -0.381109 4.90722 0
M  V30 2166 N 199.544 -1.57102 0.125237 0
M  V30 2167 C 200.454 -2.19191 -0.8362 0
M  V30 2168 C 201.47 -1.16985 -1.28805 0
M  V30 2169 O 202.646 -1.49479 -1.34974 0
M  V30 2170 C 199.711 -2.78407 -2.06617 0
M  V30 2171 C 198.772 -3.9567 -1.66565 0
M  V30 2172 C 198.005 -4.52052 -2.83698 0
M  V30 2173 O 198.228 -4.07326 -3.99302 0
M  V30 2174 O 197.162 -5.42645 -2.60423 0
M  V30 2175 H 200.988 -3.01816 -0.337776 0
M  V30 2176 H 198.573 -1.4906 -0.100695 0
M  V30 2177 H 200.455 -3.16129 -2.7864 0
M  V30 2178 H 199.13 -1.9881 -2.55453 0
M  V30 2179 H 198.037 -3.62705 -0.916296 0
M  V30 2180 H 199.37 -4.76722 -1.22464 0
M  V30 2181 N 201.022 0.148545 -1.56898 0
M  V30 2182 C 201.932 1.20293 -2.01412 0
M  V30 2183 C 202.948 1.47107 -0.929273 0
M  V30 2184 O 204.124 1.58807 -1.23863 0
M  V30 2185 C 201.189 2.51682 -2.38447 0
M  V30 2186 C 200.25 2.32529 -3.60872 0
M  V30 2187 C 199.483 3.57653 -3.96132 0
M  V30 2188 O 199.706 4.63771 -3.32073 0
M  V30 2189 O 198.64 3.50408 -4.89385 0
M  V30 2190 H 202.466 0.855025 -2.91416 0
M  V30 2191 H 200.051 0.357151 -1.45068 0
M  V30 2192 H 201.933 3.29147 -2.63135 0
M  V30 2193 H 200.608 2.86006 -1.51599 0
M  V30 2194 H 199.515 1.53019 -3.41373 0
M  V30 2195 H 200.848 2.03121 -4.48333 0
M  V30 2196 N 202.5 1.5196 0.417844 0
M  V30 2197 C 203.463 1.74065 1.49111 0
M  V30 2198 C 204.463 0.610537 1.48758 0
M  V30 2199 O 205.653 0.87832 1.50437 0
M  V30 2200 C 202.785 1.81502 2.88565 0
M  V30 2201 H 203.978 2.69869 1.30807 0
M  V30 2202 H 201.531 1.42244 0.647785 0
M  V30 2203 H 202.266 0.875813 3.1225 0
M  V30 2204 H 202.051 2.63651 2.90225 0
M  V30 2205 H 203.541 2.00376 3.66387 0
M  V30 2206 N 203.978 -0.674533 1.42435 0
M  V30 2207 C 205.394 -0.98769 1.25367 0
M  V30 2208 C 205.594 -2.00879 0.158044 0
M  V30 2209 O 204.65 -2.48075 -0.470633 0
M  V30 2210 C 205.963 -1.49224 2.6106 0
M  V30 2211 C 207.511 -1.61 2.68417 0
M  V30 2212 C 207.986 -2.14852 4.04478 0
M  V30 2213 N 209.477 -2.22185 4.06434 0
M  V30 2214 C 210.212 -2.64928 5.08528 0
M  V30 2215 N 209.708 -3.07121 6.21006 0
M  V30 2216 N 211.501 -2.64679 4.95885 0
M  V30 2217 H 203.652 0.00152503 2.124 0
M  V30 2218 H 205.915 -0.0618434 0.945981 0
M  V30 2219 H 205.621 -0.816453 3.42092 0
M  V30 2220 H 205.495 -2.47094 2.84999 0
M  V30 2221 H 207.882 -2.27686 1.87732 0
M  V30 2222 H 207.963 -0.616195 2.48267 0
M  V30 2223 H 207.607 -1.48775 4.85622 0
M  V30 2224 H 207.537 -3.15024 4.2198 0
M  V30 2225 H 210.028 -1.92435 3.25234 0
M  V30 2226 H 210.341 -3.38423 6.94759 0
M  V30 2227 H 208.686 -3.04978 6.24511 0
M  V30 2228 H 211.877 -2.31078 4.07088 0
M  V30 2229 H 212.05 -2.9767 5.75584 0
M  V30 2230 N 205.456 -1.28612 -0.910864 0
M  V30 2231 C 206.686 -1.1862 -1.69153 0
M  V30 2232 C 207.094 0.257324 -1.87442 0
M  V30 2233 O 206.437 1.18543 -1.40332 0
M  V30 2234 C 206.499 -1.81606 -3.10257 0
M  V30 2235 C 206.163 -3.30864 -3.15243 0
M  V30 2236 C 207.16 -4.27256 -2.96223 0
M  V30 2237 C 204.845 -3.71871 -3.37664 0
M  V30 2238 C 206.839 -5.62631 -2.99541 0
M  V30 2239 C 204.526 -5.07371 -3.40614 0
M  V30 2240 C 205.524 -6.02561 -3.21573 0
M  V30 2241 O 205.212 -7.35589 -3.2429 0
M  V30 2242 H 204.944 -0.412633 -0.535453 0
M  V30 2243 H 207.498 -1.70306 -1.14827 0
M  V30 2244 H 205.728 -1.24418 -3.66138 0
M  V30 2245 H 207.417 -1.66092 -3.70362 0
M  V30 2246 H 208.183 -3.9691 -2.78725 0
M  V30 2247 H 204.062 -2.98241 -3.5153 0
M  V30 2248 H 207.606 -6.36907 -2.84597 0
M  V30 2249 H 203.503 -5.37366 -3.57642 0
M  V30 2250 H 204.271 -7.44252 -3.40633 0
M  V30 2251 N 206.934 1.1197 -1.10907 0
M  V30 2252 C 208.18 1.84059 -0.865674 0
M  V30 2253 C 208.535 1.82731 0.602254 0
M  V30 2254 O 207.828 1.26543 1.43866 0
M  V30 2255 C 208.022 3.30749 -1.35425 0
M  V30 2256 C 207.851 3.46363 -2.86815 0
M  V30 2257 C 206.621 3.59712 -3.54874 0
M  V30 2258 C 208.819 3.41116 -3.84895 0
M  V30 2259 N 206.801 3.63741 -4.94536 0
M  V30 2260 C 208.172 3.51698 -5.10596 0
M  V30 2261 C 210.227 3.24612 -3.77533 0
M  V30 2262 C 208.93 3.4748 -6.29802 0
M  V30 2263 C 210.956 3.21708 -4.96244 0
M  V30 2264 C 210.318 3.32856 -6.20795 0
M  V30 2265 H 206.417 0.689015 -0.369841 0
M  V30 2266 H 209.001 1.34016 -1.41237 0
M  V30 2267 H 207.172 3.79322 -0.834814 0
M  V30 2268 H 208.904 3.90718 -1.05458 0
M  V30 2269 H 205.659 3.62038 -3.05329 0
M  V30 2270 H 206.083 3.69408 -5.67333 0
M  V30 2271 H 210.725 3.14883 -2.8215 0
M  V30 2272 H 208.443 3.55978 -7.25469 0
M  V30 2273 H 212.029 3.10113 -4.92261 0
M  V30 2274 H 210.909 3.3059 -7.11112 0
M  V30 2275 N 208.412 0.89855 1.29475 0
M  V30 2276 C 209.64 0.539261 1.99749 0
M  V30 2277 C 210.055 -0.875716 1.67262 0
M  V30 2278 O 209.412 -1.57786 0.917049 0
M  V30 2279 C 209.463 0.72061 3.54245 0
M  V30 2280 O 209.184 2.07989 3.8558 0
M  V30 2281 C 210.685 0.366118 4.41786 0
M  V30 2282 H 207.905 0.207047 0.638258 0
M  V30 2283 H 210.449 1.20758 1.65039 0
M  V30 2284 H 208.604 0.0994862 3.87272 0
M  V30 2285 H 209.018 2.10841 4.80257 0
M  V30 2286 H 210.492 0.543848 5.49314 0
M  V30 2287 H 210.969 -0.696763 4.33638 0
M  V30 2288 H 211.575 0.964135 4.14228 0
M  V30 2289 N 209.89 -1.43072 0.660911 0
M  V30 2290 C 211.12 -2.05769 0.185153 0
M  V30 2291 C 211.528 -1.49668 -1.15742 0
M  V30 2292 O 210.871 -0.625649 -1.72717 0
M  V30 2293 C 210.933 -3.59489 0.0278237 0
M  V30 2294 C 210.597 -4.38212 1.2969 0
M  V30 2295 C 211.594 -4.69772 2.22734 0
M  V30 2296 C 209.279 -4.7809 1.54063 0
M  V30 2297 C 211.273 -5.40129 3.38437 0
M  V30 2298 C 208.96 -5.4819 2.70058 0
M  V30 2299 C 209.958 -5.79132 3.62071 0
M  V30 2300 O 209.646 -6.47798 4.76039 0
M  V30 2301 H 209.378 -0.669873 0.0908086 0
M  V30 2302 H 211.932 -1.84436 0.90402 0
M  V30 2303 H 210.162 -3.79426 -0.746489 0
M  V30 2304 H 211.851 -4.03862 -0.406275 0
M  V30 2305 H 212.617 -4.39476 2.05149 0
M  V30 2306 H 208.496 -4.53408 0.833215 0
M  V30 2307 H 212.04 -5.64198 4.10277 0
M  V30 2308 H 207.937 -5.77902 2.87574 0
M  V30 2309 H 208.705 -6.66283 4.75404 0
M  V30 2310 N 211.368 -0.403325 -1.52352 0
M  V30 2311 C 212.315 0.425011 -2.26853 0
M  V30 2312 C 213.285 1.04598 -1.29029 0
M  V30 2313 O 214.47 1.07135 -1.57882 0
M  V30 2314 C 211.61 1.53888 -3.08889 0
M  V30 2315 C 210.723 0.939396 -4.21663 0
M  V30 2316 C 209.858 2.02547 -4.91068 0
M  V30 2317 C 208.897 1.40263 -5.95813 0
M  V30 2318 N 208.034 2.4286 -6.58759 0
M  V30 2319 H 212.874 -0.21674 -2.97211 0
M  V30 2320 H 210.411 -0.118722 -1.4662 0
M  V30 2321 H 212.369 2.19558 -3.54753 0
M  V30 2322 H 210.999 2.15074 -2.40714 0
M  V30 2323 H 210.051 0.171898 -3.80011 0
M  V30 2324 H 211.363 0.44436 -4.96817 0
M  V30 2325 H 210.517 2.75958 -5.40308 0
M  V30 2326 H 209.256 2.55415 -4.15469 0
M  V30 2327 H 208.261 0.653833 -5.45898 0
M  V30 2328 H 209.486 0.881719 -6.73352 0
M  V30 2329 H 207.432 2.94871 -5.85992 0
M  V30 2330 H 207.349 1.98152 -7.2957 0
M  V30 2331 H 208.617 3.15858 -7.12639 0
M  V30 2332 N 212.846 1.57033 -0.133567 0
M  V30 2333 C 213.776 2.1909 0.807567 0
M  V30 2334 C 214.757 1.13517 1.26681 0
M  V30 2335 O 215.942 1.41809 1.32679 0
M  V30 2336 C 213.072 2.80188 2.05212 0
M  V30 2337 C 212.026 3.91471 1.73015 0
M  V30 2338 C 211.352 4.39443 3.04622 0
M  V30 2339 C 212.652 5.12886 0.987168 0
M  V30 2340 H 214.346 2.97988 0.290403 0
M  V30 2341 H 211.892 1.43335 0.138239 0
M  V30 2342 H 213.845 3.22264 2.71521 0
M  V30 2343 H 212.569 1.98601 2.59278 0
M  V30 2344 H 211.228 3.49993 1.0909 0
M  V30 2345 H 210.876 3.54695 3.56651 0
M  V30 2346 H 210.576 5.14495 2.83847 0
M  V30 2347 H 212.1 4.8418 3.72024 0
M  V30 2348 H 213.514 5.51891 1.55208 0
M  V30 2349 H 211.911 5.93615 0.87985 0
M  V30 2350 H 212.981 4.84894 -0.0235286 0
M  V30 2351 N 214.325 -0.140222 1.56975 0
M  V30 2352 C 215.235 -1.19223 2.02047 0
M  V30 2353 C 216.251 -1.46612 0.937062 0
M  V30 2354 O 217.427 -1.58148 1.24704 0
M  V30 2355 C 214.492 -2.50414 2.39778 0
M  V30 2356 C 213.553 -2.30612 3.621 0
M  V30 2357 C 212.786 -3.55547 3.98023 0
M  V30 2358 O 213.009 -4.62004 3.34528 0
M  V30 2359 O 211.943 -3.47808 4.91237 0
M  V30 2360 H 215.769 -0.839559 2.91865 0
M  V30 2361 H 213.354 -0.349453 1.45256 0
M  V30 2362 H 215.236 -3.27747 2.64877 0
M  V30 2363 H 213.911 -2.85198 1.53114 0
M  V30 2364 H 212.818 -1.51207 3.4218 0
M  V30 2365 H 214.151 -2.00741 4.49404 0
M  V30 2366 N 215.803 -1.52179 -0.40978 0
M  V30 2367 C 216.735 -1.71703 -1.51825 0
M  V30 2368 C 217.748 -0.597445 -1.51441 0
M  V30 2369 O 218.937 -0.872582 -1.55719 0
M  V30 2370 C 216.037 -1.74171 -2.90719 0
M  V30 2371 C 215.21 -3.03156 -3.15302 0
M  V30 2372 C 214.269 -2.97445 -4.34065 0
M  V30 2373 O 213.295 -3.71352 -4.31377 0
M  V30 2374 N 214.497 -2.15191 -5.39141 0
M  V30 2375 H 217.262 -2.67334 -1.35472 0
M  V30 2376 H 214.823 -1.50409 -0.599069 0
M  V30 2377 H 216.815 -1.67884 -3.68235 0
M  V30 2378 H 215.385 -0.860166 -3.00533 0
M  V30 2379 H 214.605 -3.23097 -2.25836 0
M  V30 2380 H 215.893 -3.88484 -3.28569 0
M  V30 2381 H 215.291 -1.54573 -5.44173 0
M  V30 2382 H 213.848 -2.1476 -6.15403 0
M  V30 2383 N 217.281 0.66697 -1.42791 0
M  V30 2384 C 218.53 1.42278 -1.42968 0
M  V30 2385 C 218.843 1.9553 -0.0524489 0
M  V30 2386 O 220.049 2.71414 0.068363 0
M  V30 2387 C 218.505 2.57418 -2.51524 0
M  V30 2388 C 218.113 2.10832 -3.9529 0
M  V30 2389 C 219.857 3.34878 -2.60877 0
M  V30 2390 C 217.764 3.23101 -4.95338 0
M  V30 2391 H 216.694 0.534533 -0.531781 0
M  V30 2392 H 219.345 0.721302 -1.68729 0
M  V30 2393 H 217.727 3.29971 -2.18941 0
M  V30 2394 H 218.901 1.4538 -4.37266 0
M  V30 2395 H 217.216 1.46289 -3.89857 0
M  V30 2396 H 219.813 4.18505 -3.32802 0
M  V30 2397 H 220.156 3.81993 -1.6549 0
M  V30 2398 H 220.689 2.69398 -2.92693 0
M  V30 2399 H 217.428 2.80969 -5.9223 0
M  V30 2400 H 216.948 3.87309 -4.57987 0
M  V30 2401 H 218.627 3.88447 -5.17415 0
M  V30 2402 N 218.759 1.29093 0.90403 0
M  V30 2403 C 219.707 1.13727 2.02901 0
M  V30 2404 C 220.701 0.0539853 1.69314 0
M  V30 2405 O 221.907 0.213469 1.7873 0
M  V30 2406 H 218.282 0.35117 0.664969 0
M  V30 2407 H 220.253 2.08982 2.13001 0
M  V30 2408 C 219.002 0.826066 3.37745 0
M  V30 2409 H 218.325 1.65164 3.64089 0
M  V30 2410 H 219.765 0.758559 4.17159 0
M  V30 2411 C 218.224 -0.470541 3.33598 0
M  V30 2412 O 218.754 -1.49792 3.72727 0
M  V30 2413 N 216.96 -0.474812 2.86695 0
M  V30 2414 H 216.507 0.361692 2.55048 0
M  V30 2415 H 216.465 -1.34236 2.84303 0
M  V30 2416 N 220.237 -1.11381 1.11499 0
M  V30 2417 C 221.2 -2.15622 0.777153 0
M  V30 2418 C 222.2 -1.59504 -0.203779 0
M  V30 2419 O 223.39 -1.74188 0.020782 0
M  V30 2420 C 220.522 -3.40556 0.153116 0
M  V30 2421 H 221.715 -2.47021 1.70061 0
M  V30 2422 H 219.268 -1.26577 0.916952 0
M  V30 2423 H 220.003 -3.14767 -0.780536 0
M  V30 2424 H 219.788 -3.8257 0.859238 0
M  V30 2425 H 221.278 -4.17546 -0.0671044 0
M  V30 2426 N 221.715 -0.905404 -1.28997 0
M  V30 2427 C 222.645 -0.404212 -2.29975 0
M  V30 2428 C 223.626 0.523784 -1.61835 0
M  V30 2429 O 224.811 0.433298 -1.89304 0
M  V30 2430 C 221.941 0.364042 -3.45387 0
M  V30 2431 C 220.895 -0.474048 -4.25367 0
M  V30 2432 C 220.221 0.422045 -5.33032 0
M  V30 2433 C 221.521 -1.72696 -4.92923 0
M  V30 2434 H 223.215 -1.24807 -2.72146 0
M  V30 2435 H 220.761 -0.601585 -1.30832 0
M  V30 2436 H 222.714 0.725447 -4.15109 0
M  V30 2437 H 221.438 1.24174 -3.02074 0
M  V30 2438 H 220.097 -0.81786 -3.57361 0
M  V30 2439 H 219.745 1.29804 -4.85963 0
M  V30 2440 H 219.445 -0.135057 -5.87445 0
M  V30 2441 H 220.969 0.779517 -6.05604 0
M  V30 2442 H 222.383 -1.43495 -5.55051 0
M  V30 2443 H 220.78 -2.22582 -5.57295 0
M  V30 2444 H 221.85 -2.45964 -4.17887 0
M  V30 2445 N 223.193 1.4272 -0.668489 0
M  V30 2446 C 224.156 2.292 0.00448567 0
M  V30 2447 C 225.156 1.43001 0.735339 0
M  V30 2448 O 226.346 1.64461 0.57429 0
M  V30 2449 C 223.478 3.25375 1.01705 0
M  V30 2450 H 224.671 2.90199 -0.756608 0
M  V30 2451 H 222.224 1.50254 -0.430506 0
M  V30 2452 H 222.959 2.69301 1.80686 0
M  V30 2453 H 222.744 3.88944 0.496463 0
M  V30 2454 H 224.234 3.90245 1.48655 0
M  V30 2455 N 224.671 0.411399 1.52136 0
M  V30 2456 C 225.948 -0.222308 1.94333 0
M  V30 2457 C 226.328 -1.6242 1.34844 0
M  V30 2458 O 225.676 -2.22384 0.525145 0
M  V30 2459 C 225.886 -0.226345 3.48265 0
M  V30 2460 C 227.234 -0.444592 4.22266 0
M  V30 2461 O 228.258 -0.305602 3.54887 0
M  V30 2462 O 227.117 -0.718749 5.41753 0
M  V30 2463 H 224.211 -0.143907 0.814383 0
M  V30 2464 H 226.757 0.467506 1.63133 0
M  V30 2465 H 225.529 0.75475 3.83952 0
M  V30 2466 H 225.152 -0.960163 3.85832 0
M  V30 2467 N 226.149 -1.5696 0.141893 0
M  V30 2468 C 227.426 -1.87553 -0.555281 0
M  V30 2469 C 227.806 -1.04699 -1.83306 0
M  V30 2470 O 227.154 -0.132346 -2.28116 0
M  V30 2471 C 227.364 -3.39093 -0.825664 0
M  V30 2472 C 228.712 -4.08199 -1.16869 0
M  V30 2473 O 229.736 -3.44242 -0.915185 0
M  V30 2474 O 228.595 -5.21139 -1.6455 0
M  V30 2475 H 225.689 -0.777188 -0.282679 0
M  V30 2476 H 228.235 -1.68763 0.17812 0
M  V30 2477 H 227.007 -3.91221 0.0788633 0
M  V30 2478 H 226.63 -3.63393 -1.61343 0
M  V30 2479 N 227.627 0.131896 -1.57047 0
M  V30 2480 C 228.575 1.18146 -2.0036 0
M  V30 2481 C 229.569 1.43614 -0.898406 0
M  V30 2482 O 230.775 1.43729 -1.08361 0
M  V30 2483 H 227.15 0.398042 -0.638018 0
M  V30 2484 H 229.121 0.789564 -2.87765 0
M  V30 2485 C 227.87 2.50341 -2.41298 0
M  V30 2486 H 227.193 2.31578 -3.25902 0
M  V30 2487 H 228.633 3.22371 -2.75414 0
M  V30 2488 C 227.092 3.11984 -1.27153 0
M  V30 2489 O 227.622 3.97484 -0.580459 0
M  V30 2490 N 225.828 2.71662 -1.03189 0
M  V30 2491 H 225.375 2.02231 -1.59564 0
M  V30 2492 H 225.333 3.13238 -0.270077 0
M  V30 2493 N 229.106 1.52395 0.401703 0
M  V30 2494 C 230.016 1.7917 1.51444 0
M  V30 2495 C 231.032 0.677691 1.6026 0
M  V30 2496 O 232.208 0.963909 1.76835 0
M  V30 2497 C 229.273 1.94347 2.87107 0
M  V30 2498 C 228.334 3.18257 2.88116 0
M  V30 2499 C 227.567 3.32701 4.17308 0
M  V30 2500 O 227.79 2.52238 5.11598 0
M  V30 2501 O 226.724 4.25891 4.25324 0
M  V30 2502 H 230.55 2.73633 1.31752 0
M  V30 2503 H 228.135 1.3733 0.588296 0
M  V30 2504 H 230.017 2.06109 3.67555 0
M  V30 2505 H 228.692 1.03073 3.06851 0
M  V30 2506 H 227.599 3.11947 2.06494 0
M  V30 2507 H 228.932 4.09336 2.73322 0
M  V30 2508 N 230.584 -0.659388 1.43143 0
M  V30 2509 C 231.814 -1.44513 1.47646 0
M  V30 2510 C 232.222 -1.88981 0.0910095 0
M  V30 2511 O 231.565 -1.59702 -0.907789 0
M  V30 2512 C 231.627 -2.71663 2.35456 0
M  V30 2513 C 231.291 -2.49175 3.83094 0
M  V30 2514 C 232.288 -2.1279 4.74359 0
M  V30 2515 C 229.973 -2.63691 4.27519 0
M  V30 2516 C 231.967 -1.9121 6.08044 0
M  V30 2517 C 229.654 -2.41726 5.61259 0
M  V30 2518 C 230.652 -2.0554 6.51339 0
M  V30 2519 O 230.34 -1.838 7.82606 0
M  V30 2520 H 230.072 -0.45064 0.503884 0
M  V30 2521 H 232.626 -0.816248 1.88485 0
M  V30 2522 H 230.856 -3.37089 1.89493 0
M  V30 2523 H 232.545 -3.33595 2.31235 0
M  V30 2524 H 233.311 -2.01157 4.41317 0
M  V30 2525 H 229.19 -2.90832 3.57684 0
M  V30 2526 H 232.734 -1.62889 6.78316 0
M  V30 2527 H 228.631 -2.52959 5.9387 0
M  V30 2528 H 229.399 -1.98275 7.94122 0
M  V30 2529 N 232.062 -1.29571 -0.897171 0
M  V30 2530 C 233.287 -1.20705 -1.68656 0
M  V30 2531 C 233.712 0.228582 -1.86706 0
M  V30 2532 O 233.07 1.16494 -1.3892 0
M  V30 2533 C 233.118 -1.9282 -3.04717 0
M  V30 2534 O 232.222 -1.24697 -3.93096 0
M  V30 2535 H 231.563 -0.418126 -0.515816 0
M  V30 2536 H 234.093 -1.71183 -1.12061 0
M  V30 2537 H 234.103 -2.01372 -3.54843 0
M  V30 2538 H 232.778 -2.97239 -2.90899 0
M  V30 2539 H 231.355 -1.2442 -3.51531 0
M  V30 2540 N 233.54 1.10788 -1.12088 0
M  V30 2541 C 234.765 1.87002 -0.896949 0
M  V30 2542 C 235.19 1.79933 0.548261 0
M  V30 2543 O 234.548 1.16662 1.38779 0
M  V30 2544 C 234.596 3.3349 -1.37174 0
M  V30 2545 O 233.7 4.08745 -0.547831 0
M  V30 2546 H 233.041 0.580397 -0.322545 0
M  V30 2547 H 235.571 1.39996 -1.49206 0
M  V30 2548 H 235.581 3.84339 -1.36922 0
M  V30 2549 H 234.256 3.37951 -2.42408 0
M  V30 2550 H 232.833 3.6776 -0.617034 0
M  V30 2551 N 235.018 0.912232 1.28515 0
M  V30 2552 C 235.95 0.35676 2.26406 0
M  V30 2553 C 236.963 -0.503933 1.54804 0
M  V30 2554 O 238.152 -0.319059 1.75625 0
M  V30 2555 C 235.252 -0.508825 3.35058 0
M  V30 2556 C 234.425 0.329007 4.36161 0
M  V30 2557 C 233.484 -0.471422 5.24084 0
M  V30 2558 O 232.51 0.115482 5.69083 0
M  V30 2559 N 233.712 -1.77479 5.52704 0
M  V30 2560 H 236.477 1.19818 2.74707 0
M  V30 2561 H 234.038 0.778022 1.4198 0
M  V30 2562 H 236.03 -1.051 3.90815 0
M  V30 2563 H 234.6 -1.25095 2.86478 0
M  V30 2564 H 233.82 1.05256 3.79888 0
M  V30 2565 H 235.108 0.90234 5.00735 0
M  V30 2566 H 234.506 -2.27417 5.17975 0
M  V30 2567 H 233.063 -2.26382 6.11224 0
M  V30 2568 N 236.496 -1.42363 0.676048 0
M  V30 2569 C 237.406 -2.346 -0.00153389 0
M  V30 2570 C 238.422 -1.5516 -0.787485 0
M  V30 2571 O 239.598 -1.87723 -0.729521 0
M  V30 2572 C 236.663 -3.33705 -0.940298 0
M  V30 2573 C 235.724 -4.29042 -0.148739 0
M  V30 2574 C 234.957 -5.23413 -1.04279 0
M  V30 2575 O 235.18 -5.22749 -2.28232 0
M  V30 2576 O 234.114 -5.99795 -0.502925 0
M  V30 2577 H 237.94 -2.94082 0.758268 0
M  V30 2578 H 235.525 -1.42888 0.436289 0
M  V30 2579 H 237.407 -3.94586 -1.47917 0
M  V30 2580 H 236.082 -2.76695 -1.67993 0
M  V30 2581 H 234.989 -3.71571 0.43427 0
M  V30 2582 H 236.322 -4.89097 0.551805 0
M  V30 2583 N 237.974 -0.419461 -1.51915 0
M  V30 2584 C 238.884 0.407528 -2.31033 0
M  V30 2585 C 239.9 1.04413 -1.3919 0
M  V30 2586 O 241.076 1.0434 -1.72265 0
M  V30 2587 C 238.141 1.50365 -3.12396 0
M  V30 2588 C 237.202 0.889029 -4.19994 0
M  V30 2589 C 236.435 1.93291 -4.97468 0
M  V30 2590 O 236.658 3.15259 -4.75361 0
M  V30 2591 O 235.592 1.53339 -5.8204 0
M  V30 2592 H 239.418 -0.237865 -3.02767 0
M  V30 2593 H 237.003 -0.182413 -1.48282 0
M  V30 2594 H 238.885 2.13975 -3.63032 0
M  V30 2595 H 237.56 2.13345 -2.43445 0
M  V30 2596 H 236.467 0.215353 -3.7348 0
M  V30 2597 H 237.8 0.302991 -4.91267 0
M  V30 2598 N 239.452 1.56882 -0.150215 0
M  V30 2599 C 240.677 2.01027 0.510184 0
M  V30 2600 C 241.102 1.02966 1.57415 0
M  V30 2601 O 240.46 0.00590158 1.81299 0
M  V30 2602 C 240.508 3.43899 1.08472 0
M  V30 2603 O 239.612 3.4885 2.19948 0
M  V30 2604 H 238.953 0.652233 0.124451 0
M  V30 2605 H 241.483 2.03093 -0.247894 0
M  V30 2606 H 241.493 3.82766 1.41259 0
M  V30 2607 H 240.168 4.14776 0.305582 0
M  V30 2608 H 238.745 3.21827 1.88366 0
M  V30 2609 N 240.93 -0.123565 1.57115 0
M  V30 2610 C 241.862 -1.17739 1.96648 0
M  V30 2611 C 242.875 -1.37906 0.865201 0
M  V30 2612 O 244.064 -1.37062 1.14351 0
M  V30 2613 C 241.164 -2.53821 2.24562 0
M  V30 2614 C 240.337 -2.54317 3.55867 0
M  V30 2615 C 239.396 -3.72112 3.72047 0
M  V30 2616 O 238.422 -3.55907 4.44206 0
M  V30 2617 N 239.624 -4.90498 3.10471 0
M  V30 2618 H 242.389 -0.841147 2.87654 0
M  V30 2619 H 239.95 -0.31289 1.58848 0
M  V30 2620 H 241.942 -3.31175 2.32606 0
M  V30 2621 H 240.512 -2.79645 1.39705 0
M  V30 2622 H 239.732 -1.62711 3.59053 0
M  V30 2623 H 241.02 -2.51701 4.42181 0
M  V30 2624 H 240.418 -5.06567 2.51806 0
M  V30 2625 H 238.975 -5.65544 3.24043 0
M  V30 2626 N 242.408 -1.52605 -0.393616 0
M  V30 2627 C 243.824 -1.41753 -0.733357 0
M  V30 2628 C 244.024 -0.534293 -1.94287 0
M  V30 2629 O 243.08 -0.0059787 -2.52499 0
M  V30 2630 C 244.393 -2.84531 -0.972772 0
M  V30 2631 C 245.941 -2.93978 -1.07453 0
M  V30 2632 C 246.416 -4.37756 -1.3466 0
M  V30 2633 N 247.907 -4.4106 -1.41492 0
M  V30 2634 C 248.642 -5.49387 -1.642 0
M  V30 2635 N 248.138 -6.67806 -1.8441 0
M  V30 2636 N 249.931 -5.36923 -1.66342 0
M  V30 2637 H 242.082 -2.08555 0.402328 0
M  V30 2638 H 244.345 -0.940654 0.117789 0
M  V30 2639 H 244.051 -3.51353 -0.156204 0
M  V30 2640 H 243.925 -3.26508 -1.88871 0
M  V30 2641 H 246.312 -2.27326 -1.88167 0
M  V30 2642 H 246.393 -2.55435 -0.136605 0
M  V30 2643 H 246.037 -5.04972 -0.544581 0
M  V30 2644 H 245.967 -4.73848 -2.2973 0
M  V30 2645 H 248.458 -3.55705 -1.27601 0
M  V30 2646 H 248.771 -7.46141 -2.01231 0
M  V30 2647 H 247.116 -6.70843 -1.81644 0
M  V30 2648 H 250.307 -4.43381 -1.50102 0
M  V30 2649 H 250.48 -6.21416 -1.837 0
M  V30 2650 N 243.887 0.651787 -1.4349 0
M  V30 2651 C 244.834 1.76462 -1.4876 0
M  V30 2652 C 245.804 1.62641 -0.337189 0
M  V30 2653 O 246.989 1.82864 -0.544544 0
M  V30 2654 C 244.129 3.14623 -1.41796 0
M  V30 2655 C 243.242 3.39568 -2.67053 0
M  V30 2656 C 242.377 4.67585 -2.52068 0
M  V30 2657 C 241.416 4.85639 -3.72587 0
M  V30 2658 N 240.553 6.04915 -3.56402 0
M  V30 2659 H 245.393 1.71293 -2.43849 0
M  V30 2660 H 242.93 0.835889 -1.21043 0
M  V30 2661 H 244.888 3.94496 -1.35753 0
M  V30 2662 H 243.518 3.18859 -0.50288 0
M  V30 2663 H 242.57 2.53783 -2.8337 0
M  V30 2664 H 243.882 3.48795 -3.56572 0
M  V30 2665 H 243.036 5.55586 -2.4374 0
M  V30 2666 H 241.775 4.60681 -1.60075 0
M  V30 2667 H 240.78 3.96073 -3.81321 0
M  V30 2668 H 242.005 4.94372 -4.65589 0
M  V30 2669 H 239.951 5.9914 -2.67146 0
M  V30 2670 H 239.868 6.15106 -4.39524 0
M  V30 2671 H 241.136 6.95533 -3.51929 0
M  V30 2672 N 245.365 1.30045 0.890287 0
M  V30 2673 C 246.776 1.16738 1.45702 0
M  V30 2674 C 247.127 -0.233939 1.948 0
M  V30 2675 O 246.252 -1.13021 1.84541 0
M  V30 2676 C 246.847 2.11313 2.64825 0
M  V30 2677 C 245.406 2.02001 3.17604 0
M  V30 2678 C 244.553 2.01699 1.90296 0
M  V30 2679 H 247.504 1.42392 0.700726 0
M  V30 2680 H 247.525 1.69086 3.40867 0
M  V30 2681 H 247.037 3.13294 2.2906 0
M  V30 2682 H 245.138 1.03142 3.5804 0
M  V30 2683 H 245.251 2.90128 3.81264 0
M  V30 2684 H 243.615 1.46427 2.08402 0
M  V30 2685 H 244.398 3.05402 1.56795 0
M  V30 2686 N 246.843 -1.10192 1.12674 0
M  V30 2687 C 247.773 -2.18652 0.819362 0
M  V30 2688 C 248.754 -1.68698 -0.217915 0
M  V30 2689 O 249.939 -1.94041 -0.0785581 0
M  V30 2690 C 247.069 -3.46202 0.27594 0
M  V30 2691 C 246.023 -4.09444 1.24656 0
M  V30 2692 C 245.349 -5.31725 0.563258 0
M  V30 2693 C 246.649 -4.52863 2.60217 0
M  V30 2694 H 248.343 -2.44622 1.72628 0
M  V30 2695 H 245.889 -1.17571 0.831451 0
M  V30 2696 H 247.842 -4.21372 0.0486149 0
M  V30 2697 H 246.566 -3.1973 -0.666331 0
M  V30 2698 H 245.225 -3.36284 1.45974 0
M  V30 2699 H 244.873 -5.0153 -0.384235 0
M  V30 2700 H 244.573 -5.74991 1.21075 0
M  V30 2701 H 246.097 -6.09624 0.34503 0
M  V30 2702 H 247.511 -5.19294 2.42913 0
M  V30 2703 H 245.908 -5.06986 3.21068 0
M  V30 2704 H 246.978 -3.65656 3.18471 0
M  V30 2705 N 248.321 -0.919034 -1.28029 0
M  V30 2706 C 249.732 -0.600735 -1.76771 0
M  V30 2707 C 250.083 0.884024 -1.75156 0
M  V30 2708 O 249.208 1.69163 -1.34956 0
M  V30 2709 C 249.803 -1.08372 -3.21 0
M  V30 2710 C 248.362 -0.816248 -3.67443 0
M  V30 2711 C 247.509 -1.24742 -2.47658 0
M  V30 2712 H 250.46 -1.09974 -1.14418 0
M  V30 2713 H 250.481 -0.427512 -3.78091 0
M  V30 2714 H 249.993 -2.16437 -3.22144 0
M  V30 2715 H 248.094 0.250968 -3.71754 0
M  V30 2716 H 248.207 -1.4277 -4.57333 0
M  V30 2717 H 246.571 -0.666083 -2.45836 0
M  V30 2718 H 247.354 -2.33653 -2.51518 0
M  V30 2719 N 249.799 1.42003 -0.683588 0
M  V30 2720 C 251.027 2.05746 -0.218182 0
M  V30 2721 C 251.442 1.51396 1.12804 0
M  V30 2722 O 250.799 0.657303 1.70252 0
M  V30 2723 C 250.85 3.61171 -0.154131 0
M  V30 2724 O 250.571 4.13508 -1.44716 0
M  V30 2725 C 252.072 4.42042 0.333713 0
M  V30 2726 H 249.292 0.662888 -0.10402 0
M  V30 2727 H 251.836 1.81987 -0.9328 0
M  V30 2728 H 249.991 3.84012 0.511231 0
M  V30 2729 H 250.405 5.07453 -1.32632 0
M  V30 2730 H 251.879 5.51028 0.327423 0
M  V30 2731 H 252.356 4.17269 1.37053 0
M  V30 2732 H 252.962 4.24239 -0.300222 0
M  V30 2733 N 251.277 0.427512 1.51691 0
M  V30 2734 C 252.24 -0.377132 2.26076 0
M  V30 2735 C 253.24 -0.958089 1.29141 0
M  V30 2736 O 254.43 -0.83408 1.52934 0
M  V30 2737 C 251.562 -1.53262 3.04506 0
M  V30 2738 H 252.755 0.27464 2.9864 0
M  V30 2739 H 250.308 0.180445 1.55255 0
M  V30 2740 H 251.043 -2.22072 2.36335 0
M  V30 2741 H 250.828 -1.12232 3.75694 0
M  V30 2742 H 252.318 -2.10135 3.60878 0
M  V30 2743 N 252.755 -1.56801 0.158532 0
M  V30 2744 C 253.718 -2.16138 -0.762705 0
M  V30 2745 C 254.718 -1.1061 -1.16713 0
M  V30 2746 O 255.908 -1.36191 -1.08617 0
M  V30 2747 C 253.04 -2.73386 -2.03649 0
M  V30 2748 H 254.233 -2.98886 -0.246354 0
M  V30 2749 H 251.786 -1.56035 -0.0909744 0
M  V30 2750 H 252.521 -1.94335 -2.59623 0
M  V30 2751 H 252.306 -3.50601 -1.75559 0
M  V30 2752 H 253.796 -3.19065 -2.6942 0
M  V30 2753 N 254.233 0.115231 -1.57178 0
M  V30 2754 C 255.196 1.12526 -1.99676 0
M  V30 2755 C 256.196 1.34095 -0.88742 0
M  V30 2756 O 257.386 1.30548 -1.15337 0
M  V30 2757 C 254.518 2.4789 -2.34015 0
M  V30 2758 H 255.711 0.759912 -2.90113 0
M  V30 2759 H 253.264 0.359648 -1.52106 0
M  V30 2760 H 253.999 2.89339 -1.4647 0
M  V30 2761 H 253.784 2.33588 -3.14927 0
M  V30 2762 H 255.274 3.20575 -2.67622 0
M  V30 2763 N 255.711 1.52812 0.385517 0
M  V30 2764 C 256.643 1.74096 1.49074 0
M  V30 2765 C 257.656 0.621462 1.50472 0
M  V30 2766 O 258.845 0.897245 1.54311 0
M  V30 2767 C 255.945 1.78774 2.87911 0
M  V30 2768 C 255.118 3.08134 3.10439 0
M  V30 2769 C 254.177 3.04313 4.29278 0
M  V30 2770 O 253.203 3.78168 4.25415 0
M  V30 2771 N 254.405 2.23741 5.35649 0
M  V30 2772 H 257.17 2.69455 1.31202 0
M  V30 2773 H 254.731 1.51343 0.575065 0
M  V30 2774 H 256.723 1.73721 3.65518 0
M  V30 2775 H 255.293 0.907869 2.99126 0
M  V30 2776 H 254.513 3.26649 2.20667 0
M  V30 2777 H 255.801 3.93662 3.22347 0
M  V30 2778 H 255.199 1.63211 5.41645 0
M  V30 2779 H 253.756 2.24524 6.11909 0
M  V30 2780 N 257.189 -0.644168 1.43834 0
M  V30 2781 C 258.429 -1.41565 1.47441 0
M  V30 2782 C 258.793 -1.91743 0.0992723 0
M  V30 2783 O 259.994 -2.68798 0.0100192 0
M  V30 2784 C 258.265 -2.55902 2.49498 0
M  V30 2785 S 259.824 -3.44287 2.72051 0
M  V30 2786 H 256.642 -0.483118 0.521649 0
M  V30 2787 H 259.244 -0.747008 1.80666 0
M  V30 2788 H 257.948 -2.17327 3.48134 0
M  V30 2789 H 257.479 -3.27607 2.17801 0
M  V30 2790 H 259.494 -4.52927 2.0266 0
M  V30 2791 N 258.668 -1.30515 -0.883378 0
M  V30 2792 C 259.908 -1.20716 -1.64946 0
M  V30 2793 C 260.272 0.234072 -1.90568 0
M  V30 2794 O 261.473 0.455335 -2.64915 0
M  V30 2795 C 259.744 -2.01444 -2.9522 0
M  V30 2796 S 261.303 -2.0836 -3.86175 0
M  V30 2797 H 258.121 -0.430165 -0.566109 0
M  V30 2798 H 260.723 -1.65011 -1.04841 0
M  V30 2799 H 259.427 -3.05268 -2.74298 0
M  V30 2800 H 258.958 -1.57817 -3.60357 0
M  V30 2801 H 260.973 -1.21215 -4.81167 0
M  V30 2802 N 260.146 1.09593 -1.13257 0
M  V30 2803 C 261.096 2.14345 -0.777179 0
M  V30 2804 C 262.08 1.59277 0.227966 0
M  V30 2805 O 263.272 1.76971 0.0321413 0
M  V30 2806 C 260.401 3.42439 -0.242991 0
M  V30 2807 C 259.487 4.04419 -1.27694 0
M  V30 2808 N 259.878 4.40979 -2.47732 0
M  V30 2809 C 258.176 4.31596 -1.12432 0
M  V30 2810 C 258.877 4.89784 -3.13826 0
M  V30 2811 N 257.853 4.87133 -2.41252 0
M  V30 2812 H 261.655 2.40415 -1.69049 0
M  V30 2813 H 259.169 1.26803 -1.01463 0
M  V30 2814 H 261.166 4.16889 0.0298496 0
M  V30 2815 H 259.826 3.17824 0.66467 0
M  V30 2816 H 260.837 4.32396 -2.85051 0
M  V30 2817 H 257.514 4.16595 -0.274684 0
M  V30 2818 H 258.904 5.2755 -4.16102 0
M  V30 2819 N 261.624 0.925811 1.2754 0
M  V30 2820 C 262.87 0.575575 1.95086 0
M  V30 2821 C 263.225 -0.873246 1.71441 0
M  V30 2822 O 262.518 -1.61443 1.03183 0
M  V30 2823 C 262.712 0.835296 3.47502 0
M  V30 2824 C 262.541 2.30781 3.85967 0
M  V30 2825 C 261.311 2.96017 4.09514 0
M  V30 2826 C 263.509 3.28519 3.95702 0
M  V30 2827 N 261.491 4.3344 4.34744 0
M  V30 2828 C 262.862 4.51146 4.25285 0
M  V30 2829 C 264.917 3.23753 3.7827 0
M  V30 2830 C 263.62 5.69606 4.39251 0
M  V30 2831 C 265.646 4.41523 3.9346 0
M  V30 2832 C 265.008 5.62928 4.23428 0
M  V30 2833 H 261.107 0.260711 0.737261 0
M  V30 2834 H 263.691 1.19204 1.53943 0
M  V30 2835 H 261.862 0.248005 3.87607 0
M  V30 2836 H 263.594 0.447878 4.02214 0
M  V30 2837 H 260.349 2.46695 4.04275 0
M  V30 2838 H 260.773 5.04528 4.5142 0
M  V30 2839 H 265.415 2.3096 3.54143 0
M  V30 2840 H 263.133 6.62866 4.62205 0
M  V30 2841 H 266.719 4.39351 3.81394 0
M  V30 2842 H 265.599 6.52538 4.34929 0
M  V30 2843 N 263.102 -1.41638 0.69111 0
M  V30 2844 C 264.33 -2.05628 0.22909 0
M  V30 2845 C 264.745 -1.51992 -1.11999 0
M  V30 2846 O 264.102 -0.666322 -1.69901 0
M  V30 2847 C 264.153 -3.61084 0.173283 0
M  V30 2848 O 263.874 -4.12735 1.46907 0
M  V30 2849 C 265.375 -4.42213 -0.310266 0
M  V30 2850 H 262.595 -0.662327 0.107534 0
M  V30 2851 H 265.139 -1.81489 0.942438 0
M  V30 2852 H 263.294 -3.84278 -0.490858 0
M  V30 2853 H 263.708 -5.06743 1.35322 0
M  V30 2854 H 265.182 -5.51194 -0.298196 0
M  V30 2855 H 265.659 -4.1799 -1.34838 0
M  V30 2856 H 266.265 -4.24074 0.322716 0
M  V30 2857 N 264.58 -0.43555 -1.51462 0
M  V30 2858 C 265.81 0.130053 -2.0619 0
M  V30 2859 C 266.218 1.37164 -1.30317 0
M  V30 2860 O 265.561 1.80225 -0.355598 0
M  V30 2861 C 265.623 0.519418 -3.55728 0
M  V30 2862 C 265.287 -0.615119 -4.52841 0
M  V30 2863 C 266.284 -1.48671 -4.9819 0
M  V30 2864 C 263.969 -0.795341 -4.95963 0
M  V30 2865 C 265.963 -2.52324 -5.8533 0
M  V30 2866 C 263.65 -1.83514 -5.82894 0
M  V30 2867 C 264.648 -2.69748 -6.27475 0
M  V30 2868 O 264.336 -3.71944 -7.1268 0
M  V30 2869 H 264.068 0.0121612 -0.675891 0
M  V30 2870 H 266.622 -0.6129 -1.96043 0
M  V30 2871 H 264.852 1.31505 -3.63653 0
M  V30 2872 H 266.541 1.01597 -3.92979 0
M  V30 2873 H 267.307 -1.359 -4.65571 0
M  V30 2874 H 263.186 -0.133713 -4.60806 0
M  V30 2875 H 266.73 -3.19665 -6.20048 0
M  V30 2876 H 262.627 -1.96306 -6.14926 0
M  V30 2877 H 263.395 -3.68503 -7.30854 0
M  V30 2878 N 266.058 1.56714 -0.166846 0
M  V30 2879 C 266.988 2.20754 0.760913 0
M  V30 2880 C 267.969 1.16178 1.24244 0
M  V30 2881 O 269.154 1.44592 1.29641 0
M  V30 2882 C 266.284 2.84478 1.99223 0
M  V30 2883 C 265.238 3.95053 1.64672 0
M  V30 2884 C 264.564 4.45805 2.95232 0
M  V30 2885 C 265.864 5.14865 0.878155 0
M  V30 2886 H 267.558 2.98537 0.22713 0
M  V30 2887 H 265.104 1.43596 0.107805 0
M  V30 2888 H 267.057 3.27951 2.64624 0
M  V30 2889 H 265.781 2.04056 2.55007 0
M  V30 2890 H 264.44 3.52228 1.01641 0
M  V30 2891 H 264.088 3.62181 3.49047 0
M  V30 2892 H 263.788 5.204 2.7287 0
M  V30 2893 H 265.312 4.91962 3.6167 0
M  V30 2894 H 266.726 5.55059 1.43466 0
M  V30 2895 H 265.123 5.95348 0.753738 0
M  V30 2896 H 266.193 4.84735 -0.126377 0
M  V30 2897 N 267.536 -0.106894 1.57237 0
M  V30 2898 C 268.784 -0.810921 1.85117 0
M  V30 2899 C 269.105 -1.7984 0.753827 0
M  V30 2900 O 268.375 -1.94649 -0.221056 0
M  V30 2901 H 266.955 -0.302466 0.683025 0
M  V30 2902 H 269.617 -0.0913324 1.94686 0
M  V30 2903 H 268.713 -1.34875 2.81452 0
M  V30 2904 N 269.014 -1.53014 -0.377408 0
M  V30 2905 C 270.26 -1.69821 -1.11948 0
M  V30 2906 C 270.615 -0.438581 -1.87335 0
M  V30 2907 O 269.908 0.568094 -1.82984 0
M  V30 2908 C 270.102 -2.87982 -2.11663 0
M  V30 2909 C 269.931 -4.25315 -1.46072 0
M  V30 2910 C 268.701 -4.90354 -1.21986 0
M  V30 2911 C 270.899 -5.06281 -0.904664 0
M  V30 2912 N 268.881 -6.11641 -0.526215 0
M  V30 2913 C 270.252 -6.19069 -0.339726 0
M  V30 2914 C 272.307 -4.91395 -0.8022 0
M  V30 2915 C 271.01 -7.18598 0.317669 0
M  V30 2916 C 273.036 -5.91187 -0.158606 0
M  V30 2917 C 272.398 -7.03289 0.39551 0
M  V30 2918 H 268.497 -0.674785 -0.395207 0
M  V30 2919 H 271.081 -1.90389 -0.407437 0
M  V30 2920 H 269.252 -2.68974 -2.80192 0
M  V30 2921 H 270.984 -2.93669 -2.78461 0
M  V30 2922 H 267.739 -4.49286 -1.49798 0
M  V30 2923 H 268.163 -6.76719 -0.195098 0
M  V30 2924 H 272.805 -4.04925 -1.21639 0
M  V30 2925 H 270.523 -8.04669 0.743836 0
M  V30 2926 H 274.109 -5.81744 -0.0804138 0
M  V30 2927 H 272.989 -7.79183 0.885648 0
M  V30 2928 N 270.492 0.636531 -1.44174 0
M  V30 2929 C 271.74 1.39343 -1.46383 0
M  V30 2930 C 272.061 1.94766 -0.0955715 0
M  V30 2931 O 271.331 1.75452 0.871395 0
M  V30 2932 H 269.911 0.517199 -0.538994 0
M  V30 2933 H 272.573 0.74957 -1.7991 0
M  V30 2934 H 271.669 2.22746 -2.18611 0
M  V30 2935 N 271.97 1.30982 0.876444 0
M  V30 2936 C 272.88 1.2003 2.01569 0
M  V30 2937 C 273.896 0.11838 1.73597 0
M  V30 2938 O 275.072 0.33495 1.98595 0
M  V30 2939 C 272.137 0.901637 3.34771 0
M  V30 2940 C 271.198 2.06979 3.76109 0
M  V30 2941 C 270.431 1.78529 5.02954 0
M  V30 2942 O 270.654 0.717296 5.65872 0
M  V30 2943 O 269.588 2.64019 5.40905 0
M  V30 2944 H 273.414 2.15753 2.13739 0
M  V30 2945 H 270.999 1.10658 1.00375 0
M  V30 2946 H 272.881 0.750645 4.1466 0
M  V30 2947 H 271.556 -0.0256141 3.2369 0
M  V30 2948 H 270.463 2.27616 2.96887 0
M  V30 2949 H 271.796 2.97907 3.91807 0
M  V30 2950 N 273.449 -1.08991 1.13837 0
M  V30 2951 C 274.399 -2.1393 0.788535 0
M  V30 2952 C 275.383 -1.59396 -0.219516 0
M  V30 2953 O 276.575 -1.76985 -0.0227557 0
M  V30 2954 C 273.704 -3.42305 0.261147 0
M  V30 2955 C 272.79 -4.03736 1.29837 0
M  V30 2956 N 273.181 -4.39659 2.50067 0
M  V30 2957 C 271.479 -4.30993 1.1472 0
M  V30 2958 C 272.18 -4.88113 3.16419 0
M  V30 2959 N 271.156 -4.85846 2.43832 0
M  V30 2960 H 274.958 -2.39516 1.70322 0
M  V30 2961 H 272.472 -1.26263 1.02134 0
M  V30 2962 H 274.469 -4.16899 -0.0077405 0
M  V30 2963 H 273.129 -3.18172 -0.647805 0
M  V30 2964 H 274.14 -4.30878 2.8734 0
M  V30 2965 H 270.817 -4.16444 0.296773 0
M  V30 2966 H 272.207 -5.25336 4.18894 0
M  V30 2967 N 274.927 -0.932562 -1.27047 0
M  V30 2968 C 275.859 -0.392734 -2.2581 0
M  V30 2969 C 276.872 0.479241 -1.55586 0
M  V30 2970 O 278.061 0.291078 -1.76111 0
M  V30 2971 C 275.161 0.455456 -3.35826 0
M  V30 2972 C 274.334 -0.398355 -4.35582 0
M  V30 2973 C 273.393 0.387985 -5.24768 0
M  V30 2974 O 272.419 -0.206003 -5.68827 0
M  V30 2975 N 273.621 1.68664 -5.55457 0
M  V30 2976 H 276.386 -1.24173 -2.72766 0
M  V30 2977 H 273.947 -0.800511 -1.40725 0
M  V30 2978 H 275.939 0.988692 -3.92437 0
M  V30 2979 H 274.509 1.20522 -2.88432 0
M  V30 2980 H 273.729 -1.11286 -3.78165 0
M  V30 2981 H 275.017 -0.981889 -4.99236 0
M  V30 2982 H 274.415 2.19147 -5.21528 0
M  V30 2983 H 272.972 2.1663 -6.14748 0
M  V30 2984 N 276.405 1.4127 -0.698611 0
M  V30 2985 C 277.633 2.05503 -0.239992 0
M  V30 2986 C 278.048 1.52584 1.11191 0
M  V30 2987 O 277.405 0.675323 1.69545 0
M  V30 2988 C 277.456 3.60987 -0.192429 0
M  V30 2989 O 277.177 4.1195 -1.49094 0
M  V30 2990 C 278.678 4.42371 0.28681 0
M  V30 2991 H 275.898 0.661748 -0.111045 0
M  V30 2992 H 278.442 1.80987 -0.95205 0
M  V30 2993 H 276.597 3.84533 0.470472 0
M  V30 2994 H 277.011 5.06018 -1.38007 0
M  V30 2995 H 278.485 5.51344 0.26896 0
M  V30 2996 H 278.962 4.18699 1.32619 0
M  V30 2997 H 279.568 4.23897 -0.345201 0
M  V30 2998 N 277.883 0.443576 1.51229 0
M  V30 2999 C 279.13 -0.120796 2.02139 0
M  V30 3000 C 279.458 -1.42166 1.32736 0
M  V30 3001 O 278.713 -1.90849 0.43301 0
M  V30 3002 C 279.012 -0.380579 3.55368 0
M  V30 3003 C 278.678 0.83523 4.43097 0
M  V30 3004 C 277.34 1.16864 4.66794 0
M  V30 3005 C 279.692 1.64601 4.94526 0
M  V30 3006 C 277.02 2.31339 5.39165 0
M  V30 3007 C 279.372 2.78181 5.68153 0
M  V30 3008 C 278.036 3.11969 5.90112 0
M  V30 3009 H 277.306 -0.0442023 0.73968 0
M  V30 3010 H 279.953 0.592046 1.82118 0
M  V30 3011 H 278.258 -1.17538 3.73754 0
M  V30 3012 H 279.955 -0.830777 3.923 0
M  V30 3013 H 276.545 0.565437 4.24854 0
M  V30 3014 H 280.729 1.40163 4.76097 0
M  V30 3015 H 275.985 2.57823 5.5438 0
M  V30 3016 H 280.159 3.41371 6.06992 0
M  V30 3017 H 277.786 4.00784 6.45969 0
M  V30 3018 N 279.361 -1.56624 0.175154 0
M  V30 3019 C 280.271 -2.21741 -0.766042 0
M  V30 3020 C 281.287 -1.21023 -1.25018 0
M  V30 3021 O 282.463 -1.53697 -1.3015 0
M  V30 3022 C 279.528 -2.84839 -1.97655 0
M  V30 3023 C 278.589 -4.00769 -1.53892 0
M  V30 3024 C 277.822 -4.60849 -2.69173 0
M  V30 3025 O 278.045 -4.19823 -3.86141 0
M  V30 3026 O 276.979 -5.50655 -2.43028 0
M  V30 3027 H 280.805 -3.02738 -0.241585 0
M  V30 3028 H 278.39 -1.49305 -0.053222 0
M  V30 3029 H 280.272 -3.24834 -2.68442 0
M  V30 3030 H 278.947 -2.06836 -2.48999 0
M  V30 3031 H 277.854 -3.65436 -0.80044 0
M  V30 3032 H 279.187 -4.80376 -1.07236 0
M  V30 3033 N 280.839 0.0985539 -1.57292 0
M  V30 3034 C 282.116 0.834155 -1.76921 0
M  V30 3035 C 282.496 1.97101 -0.755928 0
M  V30 3036 O 281.844 2.27474 0.216245 0
M  V30 3037 C 282.054 1.33194 -3.22584 0
M  V30 3038 C 283.402 1.77611 -3.85668 0
M  V30 3039 O 284.426 1.42825 -3.26312 0
M  V30 3040 O 283.285 2.4192 -4.90038 0
M  V30 3041 H 280.379 0.397628 -0.725135 0
M  V30 3042 H 282.925 0.0807044 -1.69508 0
M  V30 3043 H 281.697 0.517248 -3.87866 0
M  V30 3044 H 281.32 2.1475 -3.34616 0
M  V30 3045 N 282.317 1.53212 0.369288 0
M  V30 3046 C 283.728 1.60943 0.946276 0
M  V30 3047 C 284.079 0.47452 1.90375 0
M  V30 3048 O 283.204 -0.399597 2.12679 0
M  V30 3049 C 283.799 2.91715 1.72302 0
M  V30 3050 C 282.358 3.01792 2.24941 0
M  V30 3051 C 281.505 2.56211 1.06072 0
M  V30 3052 H 284.456 1.58007 0.148198 0
M  V30 3053 H 284.477 2.79309 2.58393 0
M  V30 3054 H 283.989 3.74295 1.0259 0
M  V30 3055 H 282.09 2.23791 2.97906 0
M  V30 3056 H 282.203 4.06803 2.53077 0
M  V30 3057 H 280.567 2.10998 1.4266 0
M  V30 3058 H 281.35 3.41206 0.378639 0
M  V30 3059 N 283.795 -0.628877 1.44509 0
M  V30 3060 C 285.072 -1.38733 1.37886 0
M  V30 3061 C 285.452 -2.11065 0.0387008 0
M  V30 3062 O 284.8 -2.06476 -0.97878 0
M  V30 3063 C 285.01 -2.35188 2.57852 0
M  V30 3064 C 286.358 -2.9845 3.02014 0
M  V30 3065 O 287.382 -2.45513 2.58073 0
M  V30 3066 O 286.241 -3.94487 3.78209 0
M  V30 3067 H 283.335 -0.621015 0.54614 0
M  V30 3068 H 285.881 -0.653744 1.56602 0
M  V30 3069 H 284.653 -1.80855 3.46998 0
M  V30 3070 H 284.276 -3.1596 2.4136 0
M  V30 3071 N 285.273 -1.31445 -0.869486 0
M  V30 3072 C 286.498 -1.24256 -1.66058 0
M  V30 3073 C 286.923 0.188928 -1.87149 0
M  V30 3074 O 286.281 1.13522 -1.4136 0
M  V30 3075 C 286.329 -1.9924 -3.00559 0
M  V30 3076 O 285.433 -1.33007 -3.90362 0
M  V30 3077 H 284.774 -0.428973 -0.506831 0
M  V30 3078 H 287.304 -1.73521 -1.08404 0
M  V30 3079 H 287.314 -2.08854 -3.50491 0
M  V30 3080 H 285.989 -3.03342 -2.84528 0
M  V30 3081 H 284.566 -1.31848 -3.48813 0
M  V30 3082 N 286.751 1.08385 -1.14413 0
M  V30 3083 C 287.714 2.13486 -0.834048 0
M  V30 3084 C 288.714 1.59988 0.161418 0
M  V30 3085 O 289.904 1.74071 -0.0669575 0
M  V30 3086 C 287.036 3.4003 -0.243354 0
M  V30 3087 H 288.229 2.42425 -1.7655 0
M  V30 3088 H 285.782 1.24101 -0.950189 0
M  V30 3089 H 286.517 3.16726 0.696807 0
M  V30 3090 H 286.302 3.80157 -0.960367 0
M  V30 3091 H 287.792 4.17577 -0.0436242 0
M  V30 3092 N 288.23 0.939286 1.26551 0
M  V30 3093 C 289.476 0.586715 1.94128 0
M  V30 3094 C 289.809 -0.8717 1.73537 0
M  V30 3095 O 289.084 -1.62339 1.07127 0
M  V30 3096 C 289.367 0.927497 3.4795 0
M  V30 3097 C 289.22 2.44052 3.77834 0
M  V30 3098 C 290.539 0.441569 4.37879 0
M  V30 3099 H 287.658 0.21463 0.705055 0
M  V30 3100 H 290.3 1.17316 1.49455 0
M  V30 3101 H 288.45 0.428431 3.8613 0
M  V30 3102 H 290.122 3.01216 3.4938 0
M  V30 3103 H 288.365 2.8848 3.23978 0
M  V30 3104 H 289.036 2.62947 4.85348 0
M  V30 3105 H 291.512 0.869448 4.06915 0
M  V30 3106 H 290.388 0.708856 5.44304 0
M  V30 3107 H 290.649 -0.658467 4.37169 0
M  V30 3108 N 289.708 -1.40897 0.706093 0
M  V30 3109 C 290.985 -1.94868 0.169099 0
M  V30 3110 C 291.365 -1.64485 -1.32318 0
M  V30 3111 O 290.713 -0.95744 -2.07474 0
M  V30 3112 C 290.923 -3.45798 0.471654 0
M  V30 3113 C 292.271 -4.22663 0.405127 0
M  V30 3114 O 293.295 -3.53865 0.407168 0
M  V30 3115 O 292.154 -5.45216 0.374383 0
M  V30 3116 H 289.248 -0.82673 0.0211352 0
M  V30 3117 H 291.794 -1.50558 0.782976 0
M  V30 3118 H 290.566 -3.61235 1.50416 0
M  V30 3119 H 290.189 -3.97225 -0.172666 0
M  V30 3120 N 291.186 -0.45159 -1.50991 0
M  V30 3121 C 292.463 0.170707 -1.94854 0
M  V30 3122 C 292.843 1.58788 -1.39103 0
M  V30 3123 O 292.191 2.20913 -0.583921 0
M  V30 3124 C 292.401 0.133929 -3.48743 0
M  V30 3125 C 293.749 0.33248 -4.23296 0
M  V30 3126 O 294.773 0.211403 -3.55572 0
M  V30 3127 O 293.632 0.57486 -5.43468 0
M  V30 3128 H 290.726 0.122264 -0.817912 0
M  V30 3129 H 293.272 -0.510594 -1.61836 0
M  V30 3130 H 292.044 -0.856283 -3.81816 0
M  V30 3131 H 291.667 0.857529 -3.88242 0
M  V30 3132 N 292.664 1.56529 -0.183458 0
M  V30 3133 C 294.08 1.58664 0.172554 0
M  V30 3134 C 294.28 1.19925 1.61926 0
M  V30 3135 O 293.336 0.916534 2.35278 0
M  V30 3136 C 294.649 3.00463 -0.119262 0
M  V30 3137 C 296.197 3.12945 -0.0584396 0
M  V30 3138 C 296.672 4.56857 -0.323408 0
M  V30 3139 N 298.163 4.62403 -0.271612 0
M  V30 3140 C 298.898 5.71626 -0.450639 0
M  V30 3141 N 298.394 6.89362 -0.689384 0
M  V30 3142 N 300.187 5.60775 -0.385701 0
M  V30 3143 H 292.338 1.79994 -1.12765 0
M  V30 3144 H 294.601 0.834808 -0.449222 0
M  V30 3145 H 294.307 3.33326 -1.12192 0
M  V30 3146 H 294.181 3.72659 0.583544 0
M  V30 3147 H 296.568 2.79902 0.934805 0
M  V30 3148 H 296.649 2.4316 -0.794144 0
M  V30 3149 H 296.293 4.9061 -1.31392 0
M  V30 3150 H 296.223 5.24816 0.43305 0
M  V30 3151 H 298.714 3.77785 -0.0932256 0
M  V30 3152 H 299.027 7.68489 -0.815113 0
M  V30 3153 H 297.372 6.91196 -0.726142 0
M  V30 3154 H 300.563 4.67674 -0.199687 0
M  V30 3155 H 300.736 6.4584 -0.528646 0
M  V30 3156 N 294.142 -0.090211 1.57342 0
M  V30 3157 C 295.419 -0.824761 1.77361 0
M  V30 3158 C 295.799 -1.96698 0.76637 0
M  V30 3159 O 295.147 -2.27586 -0.204179 0
M  V30 3160 C 295.357 -1.31481 3.23286 0
M  V30 3161 C 296.705 -1.75563 3.86604 0
M  V30 3162 O 297.729 -1.41093 3.27065 0
M  V30 3163 O 296.588 -2.39317 4.91314 0
M  V30 3164 H 293.682 -0.393776 0.727234 0
M  V30 3165 H 296.228 -0.0717138 1.69548 0
M  V30 3166 H 295 -0.496671 3.88135 0
M  V30 3167 H 294.623 -2.12973 3.35751 0
M  V30 3168 N 295.62 -1.53406 -0.361157 0
M  V30 3169 C 296.845 -1.74024 -1.12829 0
M  V30 3170 C 297.27 -0.470069 -1.82132 0
M  V30 3171 O 296.628 0.57619 -1.719 0
M  V30 3172 C 296.676 -2.90903 -2.13091 0
M  V30 3173 O 295.78 -2.59821 -3.20261 0
M  V30 3174 H 295.121 -0.577804 -0.327168 0
M  V30 3175 H 297.651 -2.00307 -0.41693 0
M  V30 3176 H 297.661 -3.17194 -2.56616 0
M  V30 3177 H 296.336 -3.83034 -1.62042 0
M  V30 3178 H 294.913 -2.44362 -2.81677 0
M  V30 3179 N 297.098 0.621204 -1.44841 0
M  V30 3180 C 298.375 1.38 -1.38619 0
M  V30 3181 C 298.755 2.11041 -0.0498935 0
M  V30 3182 O 298.103 2.06992 0.967816 0
M  V30 3183 C 298.313 2.33817 -2.59096 0
M  V30 3184 C 299.661 2.96844 -3.03593 0
M  V30 3185 O 300.685 2.44141 -2.59371 0
M  V30 3186 O 299.544 3.92476 -3.80296 0
M  V30 3187 H 296.638 0.61811 -0.549426 0
M  V30 3188 H 299.184 0.645429 -1.56947 0
M  V30 3189 H 297.956 1.79012 -3.47952 0
M  V30 3190 H 297.579 3.14676 -2.43032 0
M  V30 3191 N 298.576 1.31904 0.862503 0
M  V30 3192 C 299.806 1.24817 1.64634 0
M  V30 3193 C 300.214 -0.187579 1.88268 0
M  V30 3194 O 299.557 -1.13253 1.44635 0
M  V30 3195 C 299.619 1.92996 3.03303 0
M  V30 3196 C 299.283 3.42336 3.02746 0
M  V30 3197 C 300.28 4.37956 2.80162 0
M  V30 3198 C 297.965 3.84147 3.2363 0
M  V30 3199 C 299.959 5.73361 2.78453 0
M  V30 3200 C 297.646 5.19663 3.21549 0
M  V30 3201 C 298.644 6.14081 2.98988 0
M  V30 3202 O 298.332 7.47118 2.96766 0
M  V30 3203 H 298.064 0.432222 0.519769 0
M  V30 3204 H 300.618 1.7445 1.08427 0
M  V30 3205 H 298.848 1.37922 3.61268 0
M  V30 3206 H 300.537 1.79723 3.63943 0
M  V30 3207 H 301.303 4.06981 2.63802 0
M  V30 3208 H 297.182 3.11083 3.40218 0
M  V30 3209 H 300.726 6.4703 2.60763 0
M  V30 3210 H 296.623 5.5027 3.37451 0
M  V30 3211 H 297.391 7.56382 3.12775 0
M  V30 3212 N 300.054 -1.07777 1.14986 0
M  V30 3213 C 301.47 -1.32373 0.891596 0
M  V30 3214 C 301.67 -1.9609 -0.463788 0
M  V30 3215 O 300.726 -2.21801 -1.20667 0
M  V30 3216 C 302.039 -2.21905 2.02925 0
M  V30 3217 C 303.587 -2.35367 2.06329 0
M  V30 3218 C 304.062 -3.28245 3.19405 0
M  V30 3219 N 305.553 -3.35824 3.19024 0
M  V30 3220 C 306.288 -4.07739 4.03158 0
M  V30 3221 N 305.784 -4.82306 4.97346 0
M  V30 3222 N 307.577 -4.03635 3.91197 0
M  V30 3223 H 299.728 -0.648039 2.02273 0
M  V30 3224 H 301.991 -0.348149 0.881757 0
M  V30 3225 H 301.697 -1.82342 3.0074 0
M  V30 3226 H 301.571 -3.22407 1.95789 0
M  V30 3227 H 303.958 -2.74186 1.09116 0
M  V30 3228 H 304.039 -1.34585 2.17533 0
M  V30 3229 H 303.683 -2.90146 4.16867 0
M  V30 3230 H 303.613 -4.28971 3.05437 0
M  V30 3231 H 306.104 -2.8267 2.50811 0
M  V30 3232 H 306.417 -5.34661 5.57994 0
M  V30 3233 H 304.762 -4.81337 5.01338 0
M  V30 3234 H 307.953 -3.44491 3.16928 0
M  V30 3235 H 308.126 -4.59417 4.5699 0
M  V30 3236 N 301.532 -0.945985 -1.26051 0
M  V30 3237 C 302.757 -0.612525 -1.98149 0
M  V30 3238 C 303.182 0.806623 -1.69927 0
M  V30 3239 O 302.54 1.54411 -0.950108 0
M  V30 3240 C 302.588 -0.866981 -3.50023 0
M  V30 3241 O 301.692 0.0585333 -4.12358 0
M  V30 3242 H 301.033 -0.23379 -0.621481 0
M  V30 3243 H 303.563 -1.27023 -1.60395 0
M  V30 3244 H 303.573 -0.789792 -4.00283 0
M  V30 3245 H 302.248 -1.90135 -3.69894 0
M  V30 3246 H 300.825 -0.0701241 -3.72834 0
M  V30 3247 N 303.011 1.40521 -0.713556 0
M  V30 3248 C 303.921 2.34522 -0.0606667 0
M  V30 3249 C 304.937 1.57193 0.74607 0
M  V30 3250 O 306.113 1.89591 0.679493 0
M  V30 3251 C 303.178 3.36081 0.851491 0
M  V30 3252 C 302.239 4.29286 0.0349339 0
M  V30 3253 C 301.472 5.25994 0.903649 0
M  V30 3254 O 301.695 5.28616 2.14292 0
M  V30 3255 O 300.629 6.00918 0.343723 0
M  V30 3256 H 304.455 2.91968 -0.835972 0
M  V30 3257 H 302.04 1.41681 -0.47402 0
M  V30 3258 H 303.922 3.98369 1.37404 0
M  V30 3259 H 302.597 2.81052 1.60598 0
M  V30 3260 H 301.504 3.70289 -0.532633 0
M  V30 3261 H 302.837 4.87462 -0.681287 0
M  V30 3262 N 304.489 0.459591 1.5075 0
M  V30 3263 C 305.717 -0.0973749 2.06671 0
M  V30 3264 C 306.132 -1.34524 1.32472 0
M  V30 3265 O 305.489 -1.7827 0.390634 0
M  V30 3266 C 305.54 -0.39714 3.59312 0
M  V30 3267 O 305.261 0.801214 4.30711 0
M  V30 3268 C 306.762 -1.00234 4.31819 0
M  V30 3269 H 303.982 0.00195854 0.670997 0
M  V30 3270 H 306.526 0.645072 1.94059 0
M  V30 3271 H 304.681 -1.08951 3.71764 0
M  V30 3272 H 305.095 0.538857 5.21725 0
M  V30 3273 H 306.569 -1.16193 5.39632 0
M  V30 3274 H 307.046 -1.98939 3.91561 0
M  V30 3275 H 307.652 -0.348699 4.23868 0
M  V30 3276 N 305.967 -1.56429 0.191757 0
M  V30 3277 C 307.192 -2.02309 -0.456706 0
M  V30 3278 C 307.617 -1.07103 -1.5463 0
M  V30 3279 O 306.975 -0.0539677 -1.8122 0
M  V30 3280 C 307.023 -3.46654 -0.993159 0
M  V30 3281 O 306.127 -3.54559 -2.10622 0
M  V30 3282 H 305.468 -0.655303 -0.107114 0
M  V30 3283 H 307.998 -2.02364 0.301653 0
M  V30 3284 H 308.008 -3.86377 -1.31061 0
M  V30 3285 H 306.683 -4.1544 -0.195504 0
M  V30 3286 H 305.26 -3.26708 -1.79767 0
M  V30 3287 N 307.445 0.0818655 -1.57387 0
M  V30 3288 C 308.393 1.11712 -2.04018 0
M  V30 3289 C 309.387 1.40683 -0.94364 0
M  V30 3290 O 310.593 1.40209 -1.12878 0
M  V30 3291 H 306.968 0.377542 -0.650358 0
M  V30 3292 H 308.939 0.697614 -2.90131 0
M  V30 3293 C 307.688 2.42537 -2.49141 0
M  V30 3294 H 307.011 2.21092 -3.33104 0
M  V30 3295 H 308.451 3.13446 -2.85531 0
M  V30 3296 C 306.91 3.0778 -1.37014 0
M  V30 3297 O 307.44 3.95436 -0.706621 0
M  V30 3298 N 305.646 2.68242 -1.11779 0
M  V30 3299 H 305.193 1.97052 -1.65917 0
M  V30 3300 H 305.151 3.1222 -0.369594 0
M  V30 3301 N 308.923 1.53595 0.353017 0
M  V30 3302 C 310.148 1.7462 1.11904 0
M  V30 3303 C 310.573 0.479721 1.8188 0
M  V30 3304 O 309.931 -0.567066 1.72204 0
M  V30 3305 C 309.979 2.92029 2.11545 0
M  V30 3306 O 309.083 2.61516 3.18878 0
M  V30 3307 H 308.424 0.579531 0.324099 0
M  V30 3308 H 310.954 2.00525 0.406301 0
M  V30 3309 H 310.964 3.18551 2.5493 0
M  V30 3310 H 309.639 3.83888 1.60008 0
M  V30 3311 H 308.216 2.45852 2.80377 0
M  V30 3312 N 310.401 -0.613514 1.45168 0
M  V30 3313 C 311.364 -1.7065 1.53007 0
M  V30 3314 C 312.364 -1.5548 0.410184 0
M  V30 3315 O 313.554 -1.60656 0.673455 0
M  V30 3316 C 310.686 -3.09875 1.42093 0
M  V30 3317 H 311.879 -1.65068 2.50385 0
M  V30 3318 H 309.432 -0.828728 1.32521 0
M  V30 3319 H 310.167 -3.21039 0.458769 0
M  V30 3320 H 309.952 -3.22293 2.23315 0
M  V30 3321 H 311.442 -3.895 1.50598 0
M  V30 3322 N 311.879 -1.3236 -0.855495 0
M  V30 3323 C 313.29 -1.2056 -1.42556 0
M  V30 3324 C 313.641 0.182209 -1.95352 0
M  V30 3325 O 312.766 1.08088 -1.87472 0
M  V30 3326 C 313.361 -2.1826 -2.59129 0
M  V30 3327 C 311.92 -2.10351 -3.12137 0
M  V30 3328 C 311.067 -2.06674 -1.84882 0
M  V30 3329 H 314.018 -1.442 -0.662727 0
M  V30 3330 H 314.039 -1.78064 -3.36264 0
M  V30 3331 H 313.551 -3.19257 -2.20673 0
M  V30 3332 H 311.652 -1.12599 -3.55179 0
M  V30 3333 H 311.765 -3.00135 -3.73438 0
M  V30 3334 H 310.129 -1.51901 -2.04446 0
M  V30 3335 H 310.912 -3.09451 -1.48643 0
M  V30 3336 N 313.357 1.07166 -1.15556 0
M  V30 3337 C 314.768 1.6127 -0.940693 0
M  V30 3338 C 315.119 1.89251 0.517551 0
M  V30 3339 O 314.244 1.65937 1.38903 0
M  V30 3340 C 314.839 2.92993 -1.7012 0
M  V30 3341 C 313.398 3.43832 -1.53156 0
M  V30 3342 C 312.545 2.1786 -1.71558 0
M  V30 3343 H 315.496 0.90229 -1.30554 0
M  V30 3344 H 315.517 3.62007 -1.17181 0
M  V30 3345 H 315.029 2.72596 -2.76248 0
M  V30 3346 H 313.13 3.69307 -0.494294 0
M  V30 3347 H 313.243 4.19747 -2.30975 0
M  V30 3348 H 311.607 2.2765 -1.14225 0
M  V30 3349 H 312.39 1.99956 -2.79056 0
M  V30 3350 N 314.835 0.952656 1.25548 0
M  V30 3351 C 316.246 0.647392 1.75116 0
M  V30 3352 C 316.597 -0.837274 1.77438 0
M  V30 3353 O 315.722 -1.65525 1.39393 0
M  V30 3354 C 316.317 1.16845 3.18014 0
M  V30 3355 C 314.876 0.913382 3.6515 0
M  V30 3356 C 314.023 1.31265 2.44264 0
M  V30 3357 H 316.974 1.12968 1.11462 0
M  V30 3358 H 316.995 0.527606 3.76824 0
M  V30 3359 H 316.507 2.24902 3.16292 0
M  V30 3360 H 314.608 -0.152316 3.72289 0
M  V30 3361 H 314.721 1.54845 4.53387 0
M  V30 3362 H 313.085 0.731028 2.43984 0
M  V30 3363 H 313.868 2.40239 2.45234 0
M  V30 3364 N 316.313 -1.40141 0.720998 0
M  V30 3365 C 317.543 -2.04798 0.27226 0
M  V30 3366 C 317.951 -1.54442 -1.09289 0
M  V30 3367 O 317.294 -0.698342 -1.69908 0
M  V30 3368 C 317.356 -3.59048 0.18027 0
M  V30 3369 C 317.02 -4.32317 1.48159 0
M  V30 3370 C 318.017 -4.59902 2.42458 0
M  V30 3371 C 315.702 -4.71125 1.74202 0
M  V30 3372 C 317.696 -5.25288 3.61042 0
M  V30 3373 C 315.383 -5.36242 2.93066 0
M  V30 3374 C 316.381 -5.63254 3.86308 0
M  V30 3375 O 316.069 -6.27024 5.03086 0
M  V30 3376 H 315.801 -0.665419 0.119139 0
M  V30 3377 H 318.355 -1.80436 0.981432 0
M  V30 3378 H 316.585 -3.82251 -0.58489 0
M  V30 3379 H 318.274 -4.05221 -0.234618 0
M  V30 3380 H 319.04 -4.30379 2.23604 0
M  V30 3381 H 314.919 -4.49466 1.02477 0
M  V30 3382 H 318.463 -5.46289 4.33837 0
M  V30 3383 H 314.36 -5.65185 3.11826 0
M  V30 3384 H 315.128 -6.4552 5.03235 0
M  V30 3385 N 317.792 -0.46758 -1.50504 0
M  V30 3386 C 318.742 0.34698 -2.25344 0
M  V30 3387 C 319.726 0.964469 -1.2879 0
M  V30 3388 O 320.918 0.8776 -1.53711 0
M  V30 3389 C 318.047 1.43042 -3.1208 0
M  V30 3390 C 317.133 0.82084 -4.16081 0
M  V30 3391 N 317.524 -0.0567602 -5.05768 0
M  V30 3392 C 315.822 1.08517 -4.32597 0
M  V30 3393 C 316.523 -0.402343 -5.80307 0
M  V30 3394 N 315.499 0.221607 -5.43148 0
M  V30 3395 H 319.301 -0.329129 -2.92051 0
M  V30 3396 H 316.815 -0.281508 -1.59942 0
M  V30 3397 H 318.812 2.02712 -3.64299 0
M  V30 3398 H 317.472 2.10856 -2.46921 0
M  V30 3399 H 318.483 -0.425349 -5.1615 0
M  V30 3400 H 315.16 1.75855 -3.78657 0
M  V30 3401 H 316.55 -1.11834 -6.62528 0
M  V30 3402 N 319.27 1.56325 -0.20005 0
M  V30 3403 C 320.498 2.02105 0.442874 0
M  V30 3404 C 320.913 1.08014 1.5485 0
M  V30 3405 O 320.27 0.0858797 1.82298 0
M  V30 3406 C 320.321 3.47549 0.994583 0
M  V30 3407 O 320.042 4.38049 -0.0669322 0
M  V30 3408 C 321.543 4.0887 1.7129 0
M  V30 3409 H 318.763 0.661807 0.110691 0
M  V30 3410 H 321.307 2.02134 -0.310207 0
M  V30 3411 H 319.462 3.48204 1.69803 0
M  V30 3412 H 319.876 5.23368 0.344462 0
M  V30 3413 H 321.35 5.12475 2.05118 0
M  V30 3414 H 321.827 3.52615 2.61838 0
M  V30 3415 H 322.433 4.12002 1.05518 0
M  V30 3416 N 320.748 -0.0735177 1.57428 0
M  V30 3417 C 321.976 -0.785969 1.9139 0
M  V30 3418 C 322.391 -1.71207 0.795847 0
M  V30 3419 O 321.748 -1.81033 -0.230915 0
M  V30 3420 C 321.799 -1.58107 3.25091 0
M  V30 3421 O 321.52 -0.6922 4.32597 0
M  V30 3422 C 323.021 -2.39467 3.73055 0
M  V30 3423 H 320.241 -0.223558 0.632663 0
M  V30 3424 H 322.785 -0.044302 2.04452 0
M  V30 3425 H 320.94 -2.27503 3.13562 0
M  V30 3426 H 321.354 -1.24504 5.09508 0
M  V30 3427 H 322.828 -2.90716 4.69242 0
M  V30 3428 H 323.305 -3.18913 3.01979 0
M  V30 3429 H 323.911 -1.7523 3.87523 0
M  V30 3430 N 322.226 -1.5378 -0.344866 0
M  V30 3431 C 323.454 -1.74899 -1.10534 0
M  V30 3432 C 323.869 -0.487534 -1.82397 0
M  V30 3433 O 323.226 0.540741 -1.74305 0
M  V30 3434 C 323.277 -2.92822 -2.11984 0
M  V30 3435 O 322.998 -4.14089 -1.43044 0
M  V30 3436 C 324.499 -3.25982 -3.00417 0
M  V30 3437 H 321.719 -0.584426 -0.329678 0
M  V30 3438 H 324.263 -2.006 -0.397474 0
M  V30 3439 H 322.418 -2.69457 -2.78338 0
M  V30 3440 H 322.832 -4.80272 -2.10805 0
M  V30 3441 H 324.306 -4.11848 -3.67539 0
M  V30 3442 H 324.783 -2.42228 -3.66363 0
M  V30 3443 H 325.389 -3.51349 -2.39654 0
M  V30 3444 N 323.704 0.605807 -1.45491 0
M  V30 3445 C 324.636 1.73031 -1.5031 0
M  V30 3446 C 325.649 1.57968 -0.393687 0
M  V30 3447 O 326.838 1.65817 -0.660839 0
M  V30 3448 C 323.938 3.11049 -1.34543 0
M  V30 3449 C 323.111 3.52334 -2.59189 0
M  V30 3450 C 322.17 4.69323 -2.37954 0
M  V30 3451 O 321.196 4.7635 -3.11575 0
M  V30 3452 N 322.398 5.62705 -1.4263 0
M  V30 3453 H 325.163 1.6936 -2.4726 0
M  V30 3454 H 322.724 0.79114 -1.41254 0
M  V30 3455 H 324.716 3.87071 -1.18144 0
M  V30 3456 H 323.286 3.09217 -0.458623 0
M  V30 3457 H 322.506 2.66256 -2.90691 0
M  V30 3458 H 323.794 3.76677 -3.42041 0
M  V30 3459 H 323.192 5.59744 -0.818758 0
M  V30 3460 H 321.749 6.38252 -1.32202 0
M  V30 3461 N 325.182 1.32811 0.848464 0
M  V30 3462 C 326.593 1.21315 1.41914 0
M  V30 3463 C 326.944 -0.171847 1.95446 0
M  V30 3464 O 326.069 -1.07093 1.88043 0
M  V30 3465 C 326.664 2.19631 2.57968 0
M  V30 3466 C 325.223 2.12003 3.11017 0
M  V30 3467 C 324.37 2.07651 1.83783 0
M  V30 3468 H 327.321 1.44549 0.655071 0
M  V30 3469 H 327.342 1.79845 3.35315 0
M  V30 3470 H 326.854 3.20423 2.18976 0
M  V30 3471 H 324.955 1.14481 3.54577 0
M  V30 3472 H 325.068 3.02111 3.71841 0
M  V30 3473 H 323.432 1.52983 2.03638 0
M  V30 3474 H 324.215 3.10235 1.47 0
M  V30 3475 N 326.66 -1.06551 1.16123 0
M  V30 3476 C 327.608 -2.16063 0.861371 0
M  V30 3477 C 328.602 -1.6856 -0.168517 0
M  V30 3478 O 329.808 -1.79986 -0.0227579 0
M  V30 3479 H 326.183 -0.705278 0.260934 0
M  V30 3480 H 328.154 -2.38567 1.79244 0
M  V30 3481 C 326.903 -3.45661 0.376018 0
M  V30 3482 H 326.226 -3.82604 1.15992 0
M  V30 3483 H 327.666 -4.23504 0.204951 0
M  V30 3484 C 326.125 -3.24546 -0.903954 0
M  V30 3485 O 326.655 -3.49865 -1.97377 0
M  V30 3486 N 324.861 -2.77992 -0.846679 0
M  V30 3487 H 324.408 -2.57589 0.0241017 0
M  V30 3488 H 324.366 -2.64244 -1.70359 0
M  V30 3489 N 328.138 -0.959301 -1.25041 0
M  V30 3490 C 329.101 -0.487677 -2.23952 0
M  V30 3491 C 330.101 0.41119 -1.55454 0
M  V30 3492 O 331.291 0.207825 -1.72956 0
M  V30 3493 C 328.423 0.294807 -3.39623 0
M  V30 3494 H 329.616 -1.36198 -2.67189 0
M  V30 3495 H 327.169 -0.743042 -1.37508 0
M  V30 3496 H 327.904 1.18658 -3.01813 0
M  V30 3497 H 327.689 -0.35012 -3.90534 0
M  V30 3498 H 329.179 0.614089 -4.1306 0
M  V30 3499 N 329.616 1.39756 -0.72842 0
M  V30 3500 C 330.841 2.05472 -0.282159 0
M  V30 3501 C 331.266 1.54549 1.07221 0
M  V30 3502 O 330.624 0.686372 1.67805 0
M  V30 3503 C 330.672 3.59462 -0.286264 0
M  V30 3504 O 329.776 4.05918 0.728298 0
M  V30 3505 H 329.117 0.651226 -0.129618 0
M  V30 3506 H 331.647 1.78915 -0.992499 0
M  V30 3507 H 331.657 4.07798 -0.128373 0
M  V30 3508 H 330.332 3.95889 -1.27456 0
M  V30 3509 H 328.909 3.69012 0.537081 0
M  V30 3510 N 331.094 0.475555 1.50254 0
M  V30 3511 C 332.34 -0.0780073 2.0265 0
M  V30 3512 C 332.673 -1.38968 1.35652 0
M  V30 3513 O 331.948 -1.8839 0.483691 0
M  V30 3514 C 332.231 -0.257161 3.59181 0
M  V30 3515 C 332.084 1.07585 4.36744 0
M  V30 3516 C 333.403 -1.00965 4.28362 0
M  V30 3517 H 330.522 -0.0268758 0.73651 0
M  V30 3518 H 333.164 0.622015 1.7953 0
M  V30 3519 H 331.314 -0.853412 3.79011 0
M  V30 3520 H 332.986 1.70902 4.28474 0
M  V30 3521 H 331.229 1.6714 4.00308 0
M  V30 3522 H 331.9 0.904088 5.44546 0
M  V30 3523 H 334.376 -0.504214 4.13034 0
M  V30 3524 H 333.252 -1.10381 5.37687 0
M  V30 3525 H 333.513 -2.04731 3.91839 0
M  V30 3526 N 332.573 -1.56217 0.208337 0
M  V30 3527 C 333.523 -2.16324 -0.720281 0
M  V30 3528 C 334.507 -1.10775 -1.16695 0
M  V30 3529 O 335.699 -1.36801 -1.12314 0
M  V30 3530 C 332.828 -2.83644 -1.93393 0
M  V30 3531 C 331.914 -3.96401 -1.50755 0
M  V30 3532 N 332.305 -4.99546 -0.792937 0
M  V30 3533 C 330.603 -4.08246 -1.79585 0
M  V30 3534 C 331.304 -5.78828 -0.577364 0
M  V30 3535 N 330.28 -5.31723 -1.1301 0
M  V30 3536 H 334.082 -2.93432 -0.165725 0
M  V30 3537 H 331.596 -1.62397 0.00906463 0
M  V30 3538 H 333.593 -3.25107 -2.60981 0
M  V30 3539 H 332.253 -2.08027 -2.49308 0
M  V30 3540 H 333.264 -5.15967 -0.447004 0
M  V30 3541 H 329.941 -3.4377 -2.36915 0
M  V30 3542 H 331.331 -6.71899 -0.00952956 0
M  V30 3543 N 334.051 0.0651679 -1.57465 0
M  V30 3544 C 334.983 1.10359 -2.00882 0
M  V30 3545 C 335.996 1.346 -0.915788 0
M  V30 3546 O 337.185 1.32723 -1.1936 0
M  V30 3547 C 334.285 2.45312 -2.33828 0
M  V30 3548 C 333.458 2.40934 -3.65061 0
M  V30 3549 C 332.517 3.58047 -3.85602 0
M  V30 3550 O 331.543 3.39175 -4.57109 0
M  V30 3551 N 332.745 4.78637 -3.28462 0
M  V30 3552 H 335.51 0.733807 -2.90578 0
M  V30 3553 H 333.071 0.253719 -1.599 0
M  V30 3554 H 335.063 3.22314 -2.44737 0
M  V30 3555 H 333.633 2.74267 -1.49988 0
M  V30 3556 H 332.853 1.49273 -3.64844 0
M  V30 3557 H 334.141 2.35117 -4.51218 0
M  V30 3558 H 333.539 4.96872 -2.70433 0
M  V30 3559 H 332.096 5.53127 -3.44809 0
M  V30 3560 N 335.529 1.53961 0.336706 0
M  V30 3561 C 336.776 1.71536 1.07618 0
M  V30 3562 C 337.104 0.482125 1.8843 0
M  V30 3563 O 336.359 -0.536142 1.88213 0
M  V30 3564 C 336.658 2.93493 2.03953 0
M  V30 3565 C 336.324 4.28811 1.39399 0
M  V30 3566 C 334.986 4.65602 1.21523 0
M  V30 3567 C 337.338 5.12844 0.929541 0
M  V30 3568 C 334.666 5.84037 0.558312 0
M  V30 3569 C 337.018 6.31951 0.286505 0
M  V30 3570 C 335.682 6.67432 0.0954869 0
M  V30 3571 H 334.952 0.627696 0.393801 0
M  V30 3572 H 337.599 1.88186 0.354715 0
M  V30 3573 H 335.904 2.71475 2.82504 0
M  V30 3574 H 337.601 3.04285 2.61174 0
M  V30 3575 H 334.191 3.99858 1.54311 0
M  V30 3576 H 338.375 4.84947 1.05548 0
M  V30 3577 H 333.631 6.10097 0.398995 0
M  V30 3578 H 337.805 6.96352 -0.0814376 0
M  V30 3579 H 335.432 7.59063 -0.415579 0
M  V30 3580 N 337.007 -0.598083 1.45811 0
M  V30 3581 C 338.418 -1.18011 1.44673 0
M  V30 3582 C 338.769 -1.95378 0.179364 0
M  V30 3583 O 337.894 -2.04124 -0.718509 0
M  V30 3584 C 338.489 -2.14677 2.62105 0
M  V30 3585 C 337.048 -2.68236 2.64057 0
M  V30 3586 C 336.195 -1.43816 2.37091 0
M  V30 3587 H 339.146 -0.38686 1.53913 0
M  V30 3588 H 339.167 -2.97878 2.36746 0
M  V30 3589 H 338.679 -1.5834 3.5433 0
M  V30 3590 H 336.78 -3.28486 1.75864 0
M  V30 3591 H 336.893 -3.12021 3.63566 0
M  V30 3592 H 335.257 -1.731 1.86838 0
M  V30 3593 H 336.04 -0.893333 3.31473 0
M  V30 3594 N 338.485 -1.33259 -0.841409 0
M  V30 3595 C 339.731 -1.24757 -1.59886 0
M  V30 3596 C 340.064 0.186913 -1.93298 0
M  V30 3597 O 339.339 1.12757 -1.5848 0
M  V30 3598 C 339.622 -2.12036 -2.91055 0
M  V30 3599 C 339.475 -3.63929 -2.6434 0
M  V30 3600 C 340.794 -1.9916 -3.92458 0
M  V30 3601 H 337.913 -0.454542 -0.580138 0
M  V30 3602 H 340.555 -1.63335 -0.970647 0
M  V30 3603 H 338.705 -1.79265 -3.44669 0
M  V30 3604 H 340.377 -4.06978 -2.17178 0
M  V30 3605 H 338.62 -3.85935 -1.98082 0
M  V30 3606 H 339.291 -4.20341 -3.57796 0
M  V30 3607 H 341.767 -2.27895 -3.48143 0
M  V30 3608 H 340.643 -2.62484 -4.82072 0
M  V30 3609 H 340.904 -0.963082 -4.31482 0
M  V30 3610 N 339.963 1.05934 -1.16686 0
M  V30 3611 C 341.374 1.60263 -0.957745 0
M  V30 3612 C 341.725 1.89789 0.49745 0
M  V30 3613 O 340.85 1.67401 1.37135 0
M  V30 3614 C 341.445 2.91172 -1.73218 0
M  V30 3615 C 340.004 3.42188 -1.56794 0
M  V30 3616 C 339.151 2.16028 -1.73859 0
M  V30 3617 H 342.102 0.888392 -1.31504 0
M  V30 3618 H 342.123 3.60744 -1.21014 0
M  V30 3619 H 341.635 2.6965 -2.79124 0
M  V30 3620 H 339.736 3.68762 -0.533437 0
M  V30 3621 H 339.849 4.17273 -2.35414 0
M  V30 3622 H 338.213 2.26426 -1.16633 0
M  V30 3623 H 338.996 1.96985 -2.81161 0
M  V30 3624 N 341.441 0.965919 1.2453 0
M  V30 3625 C 342.687 0.62776 1.92839 0
M  V30 3626 C 343.02 -0.834694 1.75347 0
M  V30 3627 O 342.295 -1.60031 1.10546 0
M  V30 3628 C 342.578 1.00109 3.45905 0
M  V30 3629 C 342.431 2.52011 3.72573 0
M  V30 3630 C 343.75 0.53435 4.36844 0
M  V30 3631 H 340.869 0.229537 0.700344 0
M  V30 3632 H 343.511 1.2046 1.46933 0
M  V30 3633 H 341.661 0.510238 3.85135 0
M  V30 3634 H 343.333 3.08559 3.42912 0
M  V30 3635 H 341.576 2.95287 3.17786 0
M  V30 3636 H 342.247 2.73183 4.79661 0
M  V30 3637 H 344.723 0.955565 4.04979 0
M  V30 3638 H 343.599 0.824152 5.42678 0
M  V30 3639 H 343.86 -0.565589 4.38467 0
M  V30 3640 N 342.919 -1.39368 0.735821 0
M  V30 3641 C 344.335 -1.54204 0.411492 0
M  V30 3642 C 344.535 -1.70268 -1.07755 0
M  V30 3643 O 343.591 -1.70364 -1.86366 0
M  V30 3644 C 344.904 -2.75925 1.19523 0
M  V30 3645 C 346.452 -2.89761 1.18354 0
M  V30 3646 C 346.927 -4.14421 1.94986 0
M  V30 3647 N 348.418 -4.21462 1.92156 0
M  V30 3648 C 349.153 -5.16871 2.48258 0
M  V30 3649 N 348.649 -6.18063 3.13001 0
M  V30 3650 N 350.442 -5.09093 2.38287 0
M  V30 3651 H 342.593 -1.27189 1.70108 0
M  V30 3652 H 344.856 -0.616517 0.720147 0
M  V30 3653 H 344.562 -2.70401 2.24892 0
M  V30 3654 H 344.436 -3.68614 0.800222 0
M  V30 3655 H 346.823 -2.94777 0.137975 0
M  V30 3656 H 346.904 -1.98133 1.61793 0
M  V30 3657 H 346.548 -4.10166 2.99543 0
M  V30 3658 H 346.478 -5.05095 1.48953 0
M  V30 3659 H 348.969 -3.48979 1.44991 0
M  V30 3660 H 349.282 -6.87326 3.53275 0
M  V30 3661 H 347.627 -6.18448 3.17091 0
M  V30 3662 H 350.818 -4.28973 1.8735 0
M  V30 3663 H 350.991 -5.83272 2.82308 0
M  V30 3664 N 344.397 -0.483516 -1.5 0
M  V30 3665 C 345.327 0.293829 -2.31644 0
M  V30 3666 C 346.308 0.978864 -1.39112 0
M  V30 3667 O 347.493 0.973644 -1.68029 0
M  V30 3668 C 344.623 1.36897 -3.19181 0
M  V30 3669 C 343.577 0.804833 -4.20365 0
M  V30 3670 C 342.903 1.9792 -4.96721 0
M  V30 3671 C 344.203 -0.192313 -5.21946 0
M  V30 3672 H 345.897 -0.387616 -2.9688 0
M  V30 3673 H 343.443 -0.187856 -1.42769 0
M  V30 3674 H 345.396 1.92037 -3.751 0
M  V30 3675 H 344.12 2.07936 -2.51853 0
M  V30 3676 H 342.779 0.275319 -3.65565 0
M  V30 3677 H 342.427 2.67686 -4.25856 0
M  V30 3678 H 342.127 1.60789 -5.65173 0
M  V30 3679 H 343.651 2.53526 -5.55479 0
M  V30 3680 H 345.065 0.270333 -5.72662 0
M  V30 3681 H 343.462 -0.478543 -5.98189 0
M  V30 3682 H 344.532 -1.11409 -4.71928 0
M  V30 3683 N 345.875 1.56104 -0.216619 0
M  V30 3684 C 347.286 1.844 0.292128 0
M  V30 3685 C 347.637 1.13788 1.59833 0
M  V30 3686 O 346.762 0.405888 2.12559 0
M  V30 3687 C 347.357 3.3452 0.53681 0
M  V30 3688 C 345.916 3.63151 0.989876 0
M  V30 3689 C 345.063 2.77255 0.0502302 0
M  V30 3690 H 348.014 1.52481 -0.439926 0
M  V30 3691 H 348.035 3.54459 1.38345 0
M  V30 3692 H 347.547 3.85885 -0.414031 0
M  V30 3693 H 345.648 3.17238 1.95425 0
M  V30 3694 H 345.761 4.71177 0.867698 0
M  V30 3695 H 344.125 2.48555 0.556117 0
M  V30 3696 H 344.908 3.31416 -0.89544 0
M  V30 3697 N 347.353 -0.0568162 1.57498 0
M  V30 3698 C 348.285 -1.09292 2.01464 0
M  V30 3699 C 349.298 -1.34112 0.922913 0
M  V30 3700 O 350.487 -1.32089 1.20062 0
M  V30 3701 C 347.587 -2.44068 2.35125 0
M  V30 3702 C 346.76 -2.38995 3.66333 0
M  V30 3703 C 345.819 -3.55997 3.87495 0
M  V30 3704 O 344.845 -3.36746 4.58901 0
M  V30 3705 N 346.047 -4.76888 3.30996 0
M  V30 3706 H 348.812 -0.718386 2.90963 0
M  V30 3707 H 346.373 -0.245235 1.60032 0
M  V30 3708 H 348.365 -3.21011 2.46443 0
M  V30 3709 H 346.935 -2.73468 1.5144 0
M  V30 3710 H 346.155 -1.47336 3.65631 0
M  V30 3711 H 347.443 -2.3272 4.52458 0
M  V30 3712 H 346.841 -4.95431 2.73065 0
M  V30 3713 H 345.398 -5.51291 3.47738 0
M  V30 3714 N 348.832 -1.54138 -0.328536 0
M  V30 3715 C 349.764 -1.79509 -1.4251 0
M  V30 3716 C 350.777 -0.67688 -1.48061 0
M  V30 3717 O 351.966 -0.953898 -1.50874 0
M  V30 3718 C 349.066 -1.89337 -2.81078 0
M  V30 3719 C 348.239 -3.19443 -2.98789 0
M  V30 3720 C 347.298 -3.20036 -4.17688 0
M  V30 3721 O 346.324 -3.93697 -4.11086 0
M  V30 3722 N 347.526 -2.43467 -5.26976 0
M  V30 3723 H 350.291 -2.74139 -1.21111 0
M  V30 3724 H 347.852 -1.53373 -0.518499 0
M  V30 3725 H 349.844 -1.87167 -3.58818 0
M  V30 3726 H 348.414 -1.01826 -2.95551 0
M  V30 3727 H 347.634 -3.34614 -2.08391 0
M  V30 3728 H 348.922 -4.05354 -3.07515 0
M  V30 3729 H 348.32 -1.83201 -5.35214 0
M  V30 3730 H 346.877 -2.4708 -6.03154 0
M  V30 3731 N 350.31 0.590341 -1.46126 0
M  V30 3732 C 351.24 1.71032 -1.58966 0
M  V30 3733 C 352.221 1.64302 -0.440335 0
M  V30 3734 O 353.406 1.82436 -0.665634 0
M  V30 3735 C 350.536 3.09665 -1.57241 0
M  V30 3736 C 349.49 3.31221 -2.71066 0
M  V30 3737 C 348.816 4.70303 -2.54399 0
M  V30 3738 C 350.116 3.19796 -4.1295 0
M  V30 3739 H 351.81 1.60543 -2.52718 0
M  V30 3740 H 349.356 0.770933 -1.21625 0
M  V30 3741 H 351.309 3.87831 -1.64819 0
M  V30 3742 H 350.033 3.21036 -0.600289 0
M  V30 3743 H 348.692 2.55452 -2.62944 0
M  V30 3744 H 348.34 4.78429 -1.55288 0
M  V30 3745 H 348.04 4.85679 -3.30741 0
M  V30 3746 H 349.564 5.50647 -2.63857 0
M  V30 3747 H 350.978 3.87815 -4.22223 0
M  V30 3748 H 349.375 3.46696 -4.89818 0
M  V30 3749 H 350.445 2.16983 -4.33643 0
M  V30 3750 N 351.788 1.33704 0.83433 0
M  V30 3751 C 353.035 1.25417 1.58987 0
M  V30 3752 C 353.363 -0.178869 1.93676 0
M  V30 3753 O 352.618 -1.13723 1.59265 0
M  V30 3754 C 352.917 2.07926 2.90692 0
M  V30 3755 C 352.583 3.57066 2.75345 0
M  V30 3756 C 351.245 3.97724 2.70867 0
M  V30 3757 C 353.597 4.51817 2.59828 0
M  V30 3758 C 350.925 5.31344 2.48778 0
M  V30 3759 C 353.277 5.85604 2.39272 0
M  V30 3760 C 351.941 6.25439 2.33199 0
M  V30 3761 H 351.211 0.458934 0.581774 0
M  V30 3762 H 353.858 1.65335 0.966261 0
M  V30 3763 H 352.163 1.608 3.57282 0
M  V30 3764 H 353.86 1.98868 3.48213 0
M  V30 3765 H 350.45 3.24785 2.79665 0
M  V30 3766 H 354.634 4.21311 2.62319 0
M  V30 3767 H 349.89 5.61241 2.42526 0
M  V30 3768 H 354.064 6.58623 2.2625 0
M  V30 3769 H 351.691 7.28914 2.15843 0
M  V30 3770 N 353.266 -1.05314 1.17247 0
M  V30 3771 C 354.196 -2.1498 0.911362 0
M  V30 3772 C 355.177 -1.69471 -0.146169 0
M  V30 3773 O 356.362 -1.942 0.003812 0
M  V30 3774 C 353.492 -3.4472 0.422528 0
M  V30 3775 C 352.446 -4.03789 1.4191 0
M  V30 3776 C 351.772 -5.28858 0.788274 0
M  V30 3777 C 353.072 -4.41418 2.7919 0
M  V30 3778 H 354.766 -2.3708 1.82848 0
M  V30 3779 H 352.312 -1.13938 0.880569 0
M  V30 3780 H 354.265 -4.20787 0.227289 0
M  V30 3781 H 352.989 -3.22269 -0.530123 0
M  V30 3782 H 351.648 -3.2979 1.60106 0
M  V30 3783 H 351.296 -5.02709 -0.171173 0
M  V30 3784 H 350.996 -5.69338 1.45353 0
M  V30 3785 H 352.52 -6.07612 0.603282 0
M  V30 3786 H 353.934 -5.08524 2.64719 0
M  V30 3787 H 352.331 -4.92913 3.42282 0
M  V30 3788 H 353.401 -3.51819 3.33693 0
M  V30 3789 N 354.744 -0.972509 -1.24016 0
M  V30 3790 C 355.676 -0.464375 -2.24446 0
M  V30 3791 C 356.689 0.4295 -1.57032 0
M  V30 3792 O 357.878 0.234902 -1.76948 0
M  V30 3793 C 354.978 0.348385 -3.37105 0
M  V30 3794 C 354.151 -0.53673 -4.34094 0
M  V30 3795 C 353.21 0.220838 -5.25736 0
M  V30 3796 O 352.236 -0.386867 -5.67884 0
M  V30 3797 N 353.438 1.50907 -5.60542 0
M  V30 3798 H 356.203 -1.32788 -2.68677 0
M  V30 3799 H 353.764 -0.844877 -1.38107 0
M  V30 3800 H 355.756 0.863341 -3.95384 0
M  V30 3801 H 354.326 1.11285 -2.92121 0
M  V30 3802 H 353.546 -1.23261 -3.74433 0
M  V30 3803 H 354.834 -1.14022 -4.95859 0
M  V30 3804 H 354.232 2.02444 -5.28236 0
M  V30 3805 H 352.789 1.96962 -6.21329 0
M  V30 3806 N 356.222 1.38976 -0.743202 0
M  V30 3807 C 357.47 1.99948 -0.29417 0
M  V30 3808 C 357.791 1.59279 1.12495 0
M  V30 3809 O 357.061 0.844808 1.76748 0
M  V30 3810 H 355.641 0.739473 -0.105774 0
M  V30 3811 H 358.303 1.699 -0.954986 0
M  V30 3812 H 357.399 3.10142 -0.349056 0
M  V30 3813 N 357.7 0.491464 1.49741 0
M  V30 3814 C 358.925 -0.0557177 2.07325 0
M  V30 3815 C 359.35 -1.30925 1.35056 0
M  V30 3816 O 358.708 -1.76733 0.404365 0
M  V30 3817 C 358.756 -0.302074 3.59333 0
M  V30 3818 O 357.86 -1.37868 3.88672 0
M  V30 3819 H 357.201 0.0219956 0.663636 0
M  V30 3820 H 359.731 0.688352 1.92673 0
M  V30 3821 H 359.741 -0.536464 4.04458 0
M  V30 3822 H 358.416 0.61383 4.11345 0
M  V30 3823 H 356.993 -1.12999 3.55367 0
M  V30 3824 N 359.178 -1.55987 0.224894 0
M  V30 3825 C 360.403 -2.03232 -0.41369 0
M  V30 3826 C 360.828 -1.10359 -1.52323 0
M  V30 3827 O 360.186 -0.092395 -1.81064 0
M  V30 3828 C 360.234 -3.48682 -0.919405 0
M  V30 3829 O 359.338 -3.58947 -2.03054 0
M  V30 3830 H 358.679 -0.657428 -0.0931903 0
M  V30 3831 H 361.209 -2.01679 0.34451 0
M  V30 3832 H 361.219 -3.8907 -1.22835 0
M  V30 3833 H 359.894 -4.15761 -0.107339 0
M  V30 3834 H 358.471 -3.30448 -1.72796 0
M  V30 3835 N 360.656 0.0484629 -1.57525 0
M  V30 3836 C 361.606 1.06246 -2.01732 0
M  V30 3837 C 362.59 1.33155 -0.903245 0
M  V30 3838 O 363.782 1.33065 -1.16717 0
M  V30 3839 C 360.911 2.36943 -2.48421 0
M  V30 3840 C 359.997 2.13208 -3.6661 0
M  V30 3841 N 360.388 1.5947 -4.80003 0
M  V30 3842 C 358.686 2.43581 -3.7361 0
M  V30 3843 C 359.387 1.51092 -5.61735 0
M  V30 3844 N 358.363 1.9797 -5.0627 0
M  V30 3845 H 362.165 0.640675 -2.86832 0
M  V30 3846 H 359.679 0.255134 -1.60383 0
M  V30 3847 H 361.676 3.10374 -2.78341 0
M  V30 3848 H 360.336 2.79818 -1.64718 0
M  V30 3849 H 361.347 1.28008 -5.01831 0
M  V30 3850 H 358.024 2.89662 -3.00669 0
M  V30 3851 H 359.414 1.10199 -6.62801 0
M  V30 3852 N 362.134 1.5431 0.320358 0
M  V30 3853 C 363.411 1.63322 1.07635 0
M  V30 3854 C 363.791 0.46912 2.05821 0
M  V30 3855 O 363.139 -0.536274 2.22118 0
M  V30 3856 C 363.349 3.00465 1.77544 0
M  V30 3857 C 364.697 3.56621 2.30449 0
M  V30 3858 O 365.721 3.02791 1.87606 0
M  V30 3859 O 364.58 4.5083 3.08892 0
M  V30 3860 H 361.674 0.661502 0.496331 0
M  V30 3861 H 364.22 1.66656 0.319992 0
M  V30 3862 H 362.992 3.76629 1.06143 0
M  V30 3863 H 362.615 3.00824 2.59982 0
M  V30 3864 N 363.613 -0.582584 1.46437 0
M  V30 3865 C 364.838 -1.37168 1.55563 0
M  V30 3866 C 365.263 -1.87061 0.19743 0
M  V30 3867 O 364.621 -1.61572 -0.822451 0
M  V30 3868 C 364.669 -2.53511 2.56446 0
M  V30 3869 O 363.773 -3.54953 2.09958 0
M  V30 3870 H 363.114 -0.408494 0.523477 0
M  V30 3871 H 365.644 -0.706646 1.9201 0
M  V30 3872 H 365.654 -3.00426 2.76058 0
M  V30 3873 H 364.329 -2.16549 3.55076 0
M  V30 3874 H 362.906 -3.14516 2.00334 0
M  V30 3875 N 365.091 -1.34144 -0.827227 0
M  V30 3876 C 366.331 -1.27603 -1.59677 0
M  V30 3877 C 366.695 0.153035 -1.91389 0
M  V30 3878 O 367.896 0.342566 -2.66608 0
M  V30 3879 C 366.167 -2.13784 -2.86411 0
M  V30 3880 S 367.726 -2.24552 -3.76991 0
M  V30 3881 H 364.544 -0.453789 -0.547354 0
M  V30 3882 H 367.146 -1.69309 -0.977479 0
M  V30 3883 H 365.85 -3.16627 -2.61104 0
M  V30 3884 H 365.381 -1.72959 -3.5334 0
M  V30 3885 H 367.396 -1.41514 -4.75593 0
M  V30 3886 N 366.569 1.04691 -1.17803 0
M  V30 3887 C 367.517 2.14665 -0.895635 0
M  V30 3888 C 368.511 1.68806 0.141679 0
M  V30 3889 O 369.717 1.79999 -0.00587914 0
M  V30 3890 H 366.092 0.701038 -0.272121 0
M  V30 3891 H 368.063 2.35685 -1.83017 0
M  V30 3892 C 366.812 3.45019 -0.430962 0
M  V30 3893 H 366.135 3.8071 -1.22064 0
M  V30 3894 H 367.575 4.23125 -0.272301 0
M  V30 3895 C 366.034 3.25943 0.852207 0
M  V30 3896 O 366.564 3.5296 1.91786 0
M  V30 3897 N 364.77 2.79304 0.802346 0
M  V30 3898 H 364.317 2.57518 -0.0650788 0
M  V30 3899 H 364.275 2.66921 1.66134 0
M  V30 3900 N 368.047 0.979072 1.23499 0
M  V30 3901 C 369.324 0.563674 1.87302 0
M  V30 3902 C 369.704 -0.959199 1.88049 0
M  V30 3903 O 369.052 -1.83535 1.36114 0
M  V30 3904 C 369.262 1.16822 3.28867 0
M  V30 3905 C 370.61 1.26014 4.0547 0
M  V30 3906 O 371.634 1.12158 3.38082 0
M  V30 3907 O 370.493 1.48044 5.26066 0
M  V30 3908 H 367.587 0.189602 0.804972 0
M  V30 3909 H 370.133 1.07407 1.31384 0
M  V30 3910 H 368.905 2.21049 3.22883 0
M  V30 3911 H 368.528 0.642564 3.92373 0
M  V30 3912 N 369.525 -1.3858 0.750561 0
M  V30 3913 C 370.75 -2.04997 0.314812 0
M  V30 3914 C 371.175 -1.56235 -1.04749 0
M  V30 3915 O 370.533 -0.712981 -1.66692 0
M  V30 3916 C 370.581 -3.58961 0.343415 0
M  V30 3917 O 369.685 -4.07025 -0.663628 0
M  V30 3918 H 369.026 -0.649081 0.139962 0
M  V30 3919 H 371.556 -1.77313 1.02084 0
M  V30 3920 H 371.566 -4.07542 0.193233 0
M  V30 3921 H 370.241 -3.93811 1.33738 0
M  V30 3922 H 368.818 -3.6982 -0.478307 0
M  V30 3923 N 371.003 -0.499398 -1.49478 0
M  V30 3924 C 371.936 0.326491 -2.25852 0
M  V30 3925 C 372.914 0.971776 -1.30366 0
M  V30 3926 O 374.098 1.00219 -1.59651 0
M  V30 3927 C 371.225 1.45969 -3.05632 0
M  V30 3928 C 370.271 0.928938 -4.16261 0
M  V30 3929 S 371.104 -0.179012 -5.35201 0
M  V30 3930 C 372.26 0.957389 -6.18534 0
M  V30 3931 H 372.493 -0.321746 -2.95554 0
M  V30 3932 H 370.026 -0.284674 -1.51753 0
M  V30 3933 H 371.984 2.109 -3.52181 0
M  V30 3934 H 370.645 2.07953 -2.35402 0
M  V30 3935 H 369.838 1.77813 -4.71592 0
M  V30 3936 H 369.44 0.356869 -3.72293 0
M  V30 3937 H 371.732 1.86296 -6.51383 0
M  V30 3938 H 372.675 0.442733 -7.06715 0
M  V30 3939 H 373.083 1.224 -5.5107 0
M  V30 3940 N 372.481 1.55866 -0.233164 0
M  V30 3941 C 373.413 2.18099 0.704668 0
M  V30 3942 C 374.426 1.15334 1.14899 0
M  V30 3943 O 375.615 1.42262 1.07814 0
M  V30 3944 C 372.715 2.7592 1.96777 0
M  V30 3945 C 371.888 4.03969 1.67713 0
M  V30 3946 C 370.947 4.46242 2.78845 0
M  V30 3947 O 369.973 5.12903 2.46818 0
M  V30 3948 N 371.175 4.12886 4.08051 0
M  V30 3949 H 373.94 2.99205 0.172258 0
M  V30 3950 H 371.501 1.61815 -0.0525945 0
M  V30 3951 H 373.493 3.01165 2.70337 0
M  V30 3952 H 372.063 1.99051 2.41034 0
M  V30 3953 H 371.283 3.86459 0.777391 0
M  V30 3954 H 372.571 4.8748 1.4574 0
M  V30 3955 H 371.969 3.59342 4.3691 0
M  V30 3956 H 370.526 4.42997 4.78118 0
M  V30 3957 N 373.959 -0.0401083 1.57549 0
M  V30 3958 C 375.184 -0.748931 1.93406 0
M  V30 3959 C 375.609 -1.68686 0.832274 0
M  V30 3960 O 374.967 -1.80047 -0.212818 0
M  V30 3961 C 375.015 -1.4916 3.28304 0
M  V30 3962 O 374.119 -2.6042 3.19774 0
M  V30 3963 H 373.46 -0.202212 0.63246 0
M  V30 3964 H 375.99 0.00112086 2.046 0
M  V30 3965 H 376 -1.86395 3.62934 0
M  V30 3966 H 374.675 -0.80364 4.08062 0
M  V30 3967 H 373.252 -2.25808 2.96758 0
M  V30 3968 N 375.437 -1.54477 -0.31217 0
M  V30 3969 C 376.667 -1.76948 -1.06645 0
M  V30 3970 C 377.075 -0.523593 -1.81811 0
M  V30 3971 O 376.418 0.51578 -1.76311 0
M  V30 3972 C 376.48 -2.91668 -2.10166 0
M  V30 3973 C 376.144 -4.30165 -1.54296 0
M  V30 3974 C 377.141 -5.10603 -0.978793 0
M  V30 3975 C 374.826 -4.76738 -1.58196 0
M  V30 3976 C 376.82 -6.3573 -0.461048 0
M  V30 3977 C 374.507 -6.01831 -1.06034 0
M  V30 3978 C 375.505 -6.81161 -0.500844 0
M  V30 3979 O 375.193 -8.03899 0.0128958 0
M  V30 3980 H 374.925 -0.594088 -0.322546 0
M  V30 3981 H 377.479 -2.02213 -0.360441 0
M  V30 3982 H 375.709 -2.62001 -2.84416 0
M  V30 3983 H 377.398 -3.01817 -2.71406 0
M  V30 3984 H 378.164 -4.75771 -0.941651 0
M  V30 3985 H 374.043 -4.15027 -2.00683 0
M  V30 3986 H 377.587 -6.97596 -0.0236894 0
M  V30 3987 H 373.484 -6.36152 -1.09459 0
M  V30 3988 H 374.252 -8.18437 -0.101457 0
M  V30 3989 N 376.915 0.57481 -1.46744 0
M  V30 3990 C 378.192 1.3352 -1.4294 0
M  V30 3991 C 378.572 2.10775 -0.117009 0
M  V30 3992 O 377.92 2.09966 0.901474 0
M  V30 3993 C 378.13 2.25456 -2.66403 0
M  V30 3994 C 379.478 2.87035 -3.12883 0
M  V30 3995 O 380.502 2.35766 -2.67007 0
M  V30 3996 O 379.361 3.80179 -3.92589 0
M  V30 3997 H 376.455 0.600318 -0.568812 0
M  V30 3998 H 379.001 0.595171 -1.58921 0
M  V30 3999 H 377.773 1.67851 -3.53471 0
M  V30 4000 H 377.396 3.06785 -2.52921 0
M  V30 4001 N 378.394 1.34581 0.820102 0
M  V30 4002 C 379.324 1.29038 1.94606 0
M  V30 4003 C 380.305 0.1673 1.69275 0
M  V30 4004 O 381.49 0.360112 1.90832 0
M  V30 4005 C 378.62 1.04793 3.31113 0
M  V30 4006 C 377.574 2.13597 3.70891 0
M  V30 4007 C 376.9 1.74537 5.05412 0
M  V30 4008 C 378.2 3.55451 3.8269 0
M  V30 4009 H 379.894 2.23248 1.99501 0
M  V30 4010 H 377.44 1.0747 0.958449 0
M  V30 4011 H 379.393 0.995592 4.0947 0
M  V30 4012 H 378.117 0.0702565 3.26524 0
M  V30 4013 H 376.776 2.17905 2.9481 0
M  V30 4014 H 376.424 0.754226 4.97313 0
M  V30 4015 H 376.124 2.47361 5.32997 0
M  V30 4016 H 377.648 1.70803 5.86224 0
M  V30 4017 H 379.062 3.5354 4.51312 0
M  V30 4018 H 377.459 4.26922 4.21732 0
M  V30 4019 H 378.529 3.92587 2.84611 0
M  V30 4020 N 379.872 -1.04064 1.18357 0
M  V30 4021 C 381.149 -1.74252 0.888581 0
M  V30 4022 C 381.529 -2.02138 -0.60856 0
M  V30 4023 O 380.877 -1.66656 -1.56327 0
M  V30 4024 C 381.087 -3.0277 1.73584 0
M  V30 4025 C 382.435 -3.76506 1.96286 0
M  V30 4026 O 383.459 -3.12668 1.70637 0
M  V30 4027 O 382.318 -4.91243 2.39464 0
M  V30 4028 H 379.412 -0.758271 0.330082 0
M  V30 4029 H 381.958 -1.1013 1.2911 0
M  V30 4030 H 380.73 -2.78299 2.75073 0
M  V30 4031 H 380.353 -3.74631 1.33183 0
M  V30 4032 N 381.35 -0.985608 -1.22978 0
M  V30 4033 C 382.58 -0.674603 -1.95276 0
M  V30 4034 C 382.988 0.763483 -1.73111 0
M  V30 4035 O 382.331 1.52601 -1.02268 0
M  V30 4036 C 382.393 -0.891597 -3.48268 0
M  V30 4037 C 382.057 -2.31275 -3.94158 0
M  V30 4038 C 383.054 -3.29179 -4.02415 0
M  V30 4039 C 380.739 -2.64524 -4.27004 0
M  V30 4040 C 382.733 -4.58407 -4.42879 0
M  V30 4041 C 380.42 -3.93974 -4.67149 0
M  V30 4042 C 381.418 -4.90727 -4.75053 0
M  V30 4043 O 381.106 -6.17865 -5.14294 0
M  V30 4044 H 380.838 -0.249251 -0.628371 0
M  V30 4045 H 383.392 -1.32106 -1.5728 0
M  V30 4046 H 381.622 -0.187962 -3.86243 0
M  V30 4047 H 383.311 -0.576957 -4.01779 0
M  V30 4048 H 384.077 -3.04823 -3.77237 0
M  V30 4049 H 379.956 -1.89923 -4.2006 0
M  V30 4050 H 383.5 -5.33926 -4.48964 0
M  V30 4051 H 379.397 -4.18122 -4.91777 0
M  V30 4052 H 380.165 -6.21694 -5.32389 0
M  V30 4053 N 382.828 1.3818 -0.7579 0
M  V30 4054 C 384.239 1.82726 -0.383134 0
M  V30 4055 C 384.59 1.63214 1.08884 0
M  V30 4056 O 383.715 1.13566 1.84205 0
M  V30 4057 C 384.31 3.31728 -0.688631 0
M  V30 4058 C 382.869 3.74606 -0.367091 0
M  V30 4059 C 382.016 2.60896 -0.939599 0
M  V30 4060 H 384.967 1.26847 -0.953699 0
M  V30 4061 H 384.988 3.80487 0.0316492 0
M  V30 4062 H 384.5 3.45898 -1.76001 0
M  V30 4063 H 382.601 3.66013 0.697532 0
M  V30 4064 H 382.714 4.71215 -0.865658 0
M  V30 4065 H 381.078 2.52075 -0.3647 0
M  V30 4066 H 381.861 2.77864 -2.0161 0
M  V30 4067 N 384.306 0.507319 1.49211 0
M  V30 4068 C 385.216 -0.272136 2.33016 0
M  V30 4069 C 386.232 -0.961206 1.45041 0
M  V30 4070 O 387.408 -0.941191 1.78055 0
M  V30 4071 C 384.473 -1.31895 3.20631 0
M  V30 4072 C 383.534 -0.642648 4.24463 0
M  V30 4073 C 382.767 -1.63959 5.07891 0
M  V30 4074 O 382.99 -2.87007 4.92933 0
M  V30 4075 O 381.924 -1.19143 5.8999 0
M  V30 4076 H 385.75 0.413982 3.00865 0
M  V30 4077 H 383.335 0.268556 1.46966 0
M  V30 4078 H 385.217 -1.92446 3.7489 0
M  V30 4079 H 383.892 -1.98788 2.5547 0
M  V30 4080 H 382.799 0.00276252 3.741 0
M  V30 4081 H 384.132 -0.0160534 4.92197 0
M  V30 4082 N 385.784 -1.5574 0.241426 0
M  V30 4083 C 387.2 -1.59196 -0.113548 0
M  V30 4084 C 387.4 -1.25852 -1.57364 0
M  V30 4085 O 386.456 -1.00322 -2.31715 0
M  V30 4086 C 387.769 -2.99814 0.230695 0
M  V30 4087 C 389.317 -3.12513 0.174547 0
M  V30 4088 C 389.792 -4.55342 0.492744 0
M  V30 4089 N 391.283 -4.61076 0.443043 0
M  V30 4090 C 392.018 -5.6956 0.662484 0
M  V30 4091 N 391.514 -6.86328 0.944761 0
M  V30 4092 N 393.307 -5.58957 0.593564 0
M  V30 4093 H 385.458 -1.75685 1.19368 0
M  V30 4094 H 387.721 -0.81756 0.479896 0
M  V30 4095 H 387.427 -3.28932 1.24485 0
M  V30 4096 H 387.301 -3.74568 -0.444833 0
M  V30 4097 H 389.688 -2.83179 -0.830277 0
M  V30 4098 H 389.769 -2.40045 0.883845 0
M  V30 4099 H 389.413 -4.85396 1.4951 0
M  V30 4100 H 389.343 -5.26062 -0.23797 0
M  V30 4101 H 391.834 -3.77179 0.233374 0
M  V30 4102 H 392.147 -7.64935 1.09977 0
M  V30 4103 H 390.492 -6.88025 0.982175 0
M  V30 4104 H 393.683 -4.66611 0.373123 0
M  V30 4105 H 393.856 -6.43433 0.767981 0
M  V30 4106 N 387.262 0.0317525 -1.57568 0
M  V30 4107 C 388.678 0.38735 -1.54828 0
M  V30 4108 C 388.878 1.7677 -0.967187 0
M  V30 4109 O 387.934 2.45581 -0.587063 0
M  V30 4110 C 389.247 0.291667 -2.99282 0
M  V30 4111 C 390.795 0.368946 -3.10818 0
M  V30 4112 C 391.27 0.302741 -4.56998 0
M  V30 4113 N 392.761 0.361617 -4.61786 0
M  V30 4114 C 393.496 0.333238 -5.72431 0
M  V30 4115 N 392.992 0.257308 -6.92322 0
M  V30 4116 N 394.785 0.382769 -5.60795 0
M  V30 4117 H 386.936 -0.871609 -1.93692 0
M  V30 4118 H 389.199 -0.331161 -0.888277 0
M  V30 4119 H 388.905 -0.656794 -3.45513 0
M  V30 4120 H 388.779 1.08638 -3.61217 0
M  V30 4121 H 391.166 1.30784 -2.64536 0
M  V30 4122 H 391.247 -0.455066 -2.5172 0
M  V30 4123 H 390.891 -0.632473 -5.03947 0
M  V30 4124 H 390.821 1.14482 -5.14005 0
M  V30 4125 H 393.312 0.422923 -3.75526 0
M  V30 4126 H 393.625 0.24068 -7.72425 0
M  V30 4127 H 391.97 0.223396 -6.94641 0
M  V30 4128 H 395.161 0.44006 -4.66027 0
M  V30 4129 H 395.334 0.357184 -6.47015 0
M  V30 4130 N 388.74 1.54641 0.303973 0
M  V30 4131 C 389.703 1.84646 1.35789 0
M  V30 4132 C 390.703 0.7192 1.4382 0
M  V30 4133 O 391.893 0.987491 1.43507 0
M  V30 4134 C 389.025 2.02407 2.74307 0
M  V30 4135 H 390.218 2.78829 1.10429 0
M  V30 4136 H 387.771 1.46658 0.540487 0
M  V30 4137 H 388.506 1.10502 3.04893 0
M  V30 4138 H 388.291 2.84453 2.69868 0
M  V30 4139 H 389.781 2.27002 3.50514 0
M  V30 4140 N 390.218 -0.567019 1.47046 0
M  V30 4141 C 391.148 -1.68482 1.61667 0
M  V30 4142 C 392.129 -1.6358 0.466418 0
M  V30 4143 O 393.314 -1.81354 0.694574 0
M  V30 4144 C 390.444 -3.07124 1.62148 0
M  V30 4145 C 389.398 -3.26867 2.76301 0
M  V30 4146 C 388.724 -4.66196 2.61849 0
M  V30 4147 C 390.024 -3.13186 4.17986 0
M  V30 4148 H 391.718 -1.56502 2.5524 0
M  V30 4149 H 389.264 -0.751486 1.22836 0
M  V30 4150 H 391.217 -3.8516 1.70968 0
M  V30 4151 H 389.941 -3.2004 0.651287 0
M  V30 4152 H 388.6 -2.51237 2.66975 0
M  V30 4153 H 388.248 -4.75898 1.62879 0
M  V30 4154 H 387.948 -4.80356 3.38425 0
M  V30 4155 H 389.472 -5.46379 2.72584 0
M  V30 4156 H 390.886 -3.81049 4.2834 0
M  V30 4157 H 389.283 -3.3886 4.95272 0
M  V30 4158 H 390.353 -2.10057 4.3704 0
M  V30 4159 N 391.696 -1.35014 -0.812953 0
M  V30 4160 C 392.921 -1.31187 -1.60639 0
M  V30 4161 C 393.346 0.109382 -1.87782 0
M  V30 4162 O 392.704 1.07424 -1.46047 0
M  V30 4163 C 392.752 -2.11809 -2.91838 0
M  V30 4164 O 391.856 -1.49444 -3.8437 0
M  V30 4165 H 391.197 -0.450084 -0.488181 0
M  V30 4166 H 393.727 -1.77963 -1.00947 0
M  V30 4167 H 393.737 -2.23531 -3.41318 0
M  V30 4168 H 392.412 -3.15137 -2.71407 0
M  V30 4169 H 390.989 -1.46524 -3.42907 0
M  V30 4170 N 393.175 1.03435 -1.18907 0
M  V30 4171 C 394.586 1.58195 -0.991523 0
M  V30 4172 C 394.937 1.90801 0.457081 0
M  V30 4173 O 394.062 1.70272 1.33553 0
M  V30 4174 C 394.657 2.87432 -1.79355 0
M  V30 4175 C 393.216 3.38785 -1.64017 0
M  V30 4176 C 392.363 2.12292 -1.78402 0
M  V30 4177 H 395.314 0.860299 -1.33359 0
M  V30 4178 H 395.335 3.58096 -1.28638 0
M  V30 4179 H 394.847 2.63669 -2.84781 0
M  V30 4180 H 392.948 3.67547 -0.611536 0
M  V30 4181 H 393.061 4.12186 -2.44212 0
M  V30 4182 H 391.425 2.23901 -1.2141 0
M  V30 4183 H 392.208 1.90977 -2.85277 0
M  V30 4184 N 394.653 0.992116 1.22453 0
M  V30 4185 C 395.881 0.685944 1.95198 0
M  V30 4186 C 396.296 -0.749233 1.73297 0
M  V30 4187 O 395.653 -1.50549 1.03156 0
M  V30 4188 C 395.704 0.981395 3.47924 0
M  V30 4189 O 395.425 2.36018 3.6909 0
M  V30 4190 C 396.926 0.692815 4.37853 0
M  V30 4191 H 394.146 0.253821 0.621141 0
M  V30 4192 H 396.69 1.32668 1.55626 0
M  V30 4193 H 394.845 0.386481 3.85467 0
M  V30 4194 H 395.259 2.45884 4.63294 0
M  V30 4195 H 396.733 0.949818 5.43767 0
M  V30 4196 H 397.21 -0.373181 4.37612 0
M  V30 4197 H 397.816 1.26874 4.05935 0
M  V30 4198 N 396.131 -1.37776 0.765217 0
M  V30 4199 C 397.356 -2.04651 0.336537 0
M  V30 4200 C 397.781 -1.57337 -1.03086 0
M  V30 4201 O 397.139 -0.730621 -1.65927 0
M  V30 4202 C 397.187 -3.58577 0.381468 0
M  V30 4203 O 396.291 -4.07706 -0.62042 0
M  V30 4204 H 395.632 -0.64756 0.146838 0
M  V30 4205 H 398.162 -1.76221 1.03959 0
M  V30 4206 H 398.172 -4.07314 0.236448 0
M  V30 4207 H 396.847 -3.9237 1.37907 0
M  V30 4208 H 395.424 -3.70306 -0.439056 0
M  V30 4209 N 397.609 -0.515225 -1.4894 0
M  V30 4210 C 398.834 0.022727 -2.07388 0
M  V30 4211 C 399.259 1.2876 -1.37122 0
M  V30 4212 O 398.617 1.76067 -0.432431 0
M  V30 4213 C 398.665 0.244869 -3.59768 0
M  V30 4214 O 397.769 1.31667 -3.90817 0
M  V30 4215 H 397.11 -0.0325506 -0.663202 0
M  V30 4216 H 399.64 -0.718918 -1.91553 0
M  V30 4217 H 399.65 0.47205 -4.0526 0
M  V30 4218 H 398.325 -0.679194 -4.10317 0
M  V30 4219 H 396.902 1.07331 -3.5712 0
M  V30 4220 N 399.087 1.5561 -0.249682 0
M  V30 4221 C 400.312 2.03865 0.381305 0
M  V30 4222 C 400.737 1.12769 1.50548 0
M  V30 4223 O 400.095 0.121189 1.80895 0
M  V30 4224 C 400.143 3.50101 0.863816 0
M  V30 4225 O 399.247 3.62132 1.97318 0
M  V30 4226 H 398.588 0.658827 0.0827194 0
M  V30 4227 H 401.118 2.01105 -0.376552 0
M  V30 4228 H 401.128 3.90975 1.1663 0
M  V30 4229 H 399.803 4.1588 0.0411816 0
M  V30 4230 H 398.38 3.33155 1.67517 0
M  V30 4231 N 400.565 -0.0233959 1.57583 0
M  V30 4232 C 401.981 -0.379134 1.55031 0
M  V30 4233 C 402.181 -1.76255 0.976548 0
M  V30 4234 O 401.237 -2.45266 0.600078 0
M  V30 4235 C 402.55 -0.275792 2.99433 0
M  V30 4236 C 404.098 -0.352458 3.11009 0
M  V30 4237 C 404.573 -0.278501 4.57152 0
M  V30 4238 N 406.064 -0.337123 4.61972 0
M  V30 4239 C 406.799 -0.302876 5.726 0
M  V30 4240 N 406.295 -0.220589 6.92449 0
M  V30 4241 N 408.088 -0.353023 5.6099 0
M  V30 4242 H 400.239 0.881869 1.93227 0
M  V30 4243 H 402.502 0.335867 0.886509 0
M  V30 4244 H 402.208 0.675108 3.4516 0
M  V30 4245 H 402.082 -1.06721 3.61788 0
M  V30 4246 H 404.469 -1.29379 2.65226 0
M  V30 4247 H 404.55 0.468409 2.51475 0
M  V30 4248 H 404.194 0.659189 5.03604 0
M  V30 4249 H 404.124 -1.11755 5.14605 0
M  V30 4250 H 406.615 -0.403002 3.75745 0
M  V30 4251 H 406.928 -0.199713 7.72542 0
M  V30 4252 H 405.273 -0.186555 6.9475 0
M  V30 4253 H 408.464 -0.415339 4.66254 0
M  V30 4254 H 408.637 -0.322866 6.47195 0
M  V30 4255 N 402.043 -1.548 -0.295768 0
M  V30 4256 C 403.273 -1.78069 -1.04762 0
M  V30 4257 C 403.681 -0.542847 -1.81245 0
M  V30 4258 O 403.024 0.497051 -1.76848 0
M  V30 4259 C 403.086 -2.93881 -2.07061 0
M  V30 4260 C 402.75 -4.31777 -1.49725 0
M  V30 4261 C 403.747 -5.11613 -0.924581 0
M  V30 4262 C 401.432 -4.78389 -1.5313 0
M  V30 4263 C 403.426 -6.36184 -0.393594 0
M  V30 4264 C 401.113 -6.02921 -0.996447 0
M  V30 4265 C 402.111 -6.81654 -0.428569 0
M  V30 4266 O 401.799 -8.0384 0.0981593 0
M  V30 4267 H 401.531 -0.597475 -0.316226 0
M  V30 4268 H 404.085 -2.02584 -0.338973 0
M  V30 4269 H 402.315 -2.65003 -2.81621 0
M  V30 4270 H 404.004 -3.04679 -2.6819 0
M  V30 4271 H 404.77 -4.76743 -0.891136 0
M  V30 4272 H 400.649 -4.17132 -1.9627 0
M  V30 4273 H 404.193 -6.97582 0.0503014 0
M  V30 4274 H 400.09 -6.37277 -1.02706 0
M  V30 4275 H 400.858 -8.18499 -0.0146455 0
M  V30 4276 N 403.521 0.559213 -1.47345 0
M  V30 4277 C 404.769 1.31388 -1.53563 0
M  V30 4278 C 405.09 1.93985 -0.198678 0
M  V30 4279 O 404.36 1.79825 0.777167 0
M  V30 4280 H 402.94 0.487901 -0.565652 0
M  V30 4281 H 405.602 0.65315 -1.8363 0
M  V30 4282 H 404.698 2.10844 -2.30111 0
M  V30 4283 N 404.999 1.35443 0.805782 0
M  V30 4284 C 406.224 1.32037 1.59941 0
M  V30 4285 C 406.649 -0.0994215 1.87837 0
M  V30 4286 O 406.007 -1.06648 1.46615 0
M  V30 4287 C 406.055 2.13354 2.90711 0
M  V30 4288 O 405.159 1.5148 3.83572 0
M  V30 4289 H 404.5 0.452666 0.485787 0
M  V30 4290 H 407.03 1.78496 1.00002 0
M  V30 4291 H 407.04 2.25338 3.40128 0
M  V30 4292 H 405.715 3.16572 2.69732 0
M  V30 4293 H 404.292 1.4834 3.42125 0
M  V30 4294 N 406.477 -1.02803 1.19454 0
M  V30 4295 C 407.702 -1.80378 1.02364 0
M  V30 4296 C 408.127 -1.83282 -0.423007 0
M  V30 4297 O 407.485 -1.25945 -1.30413 0
M  V30 4298 C 407.533 -3.23248 1.59821 0
M  V30 4299 O 406.637 -4.04 0.828105 0
M  V30 4300 H 405.978 -0.556799 0.361761 0
M  V30 4301 H 408.508 -1.29385 1.58495 0
M  V30 4302 H 408.518 -3.73994 1.63073 0
M  V30 4303 H 407.193 -3.2045 2.65113 0
M  V30 4304 H 405.77 -3.62635 0.86891 0
M  V30 4305 N 407.956 -0.998596 -1.21925 0
M  V30 4306 C 409.196 -0.685948 -1.92546 0
M  V30 4307 C 409.56 0.768441 -1.75952 0
M  V30 4308 O 410.761 1.19277 -2.40887 0
M  V30 4309 C 409.032 -1.08767 -3.40448 0
M  V30 4310 S 410.591 -0.894251 -4.29591 0
M  V30 4311 H 407.409 -0.250622 -0.665364 0
M  V30 4312 H 410.011 -1.28207 -1.47591 0
M  V30 4313 H 408.715 -2.14242 -3.50041 0
M  V30 4314 H 408.246 -0.48357 -3.90417 0
M  V30 4315 H 410.261 0.212149 -4.95746 0
M  V30 4316 N 409.434 1.37368 -0.772513 0
M  V30 4317 C 410.382 2.32134 -0.147111 0
M  V30 4318 C 411.376 1.54972 0.684106 0
M  V30 4319 O 412.582 1.70363 0.581083 0
M  V30 4320 H 408.957 0.751449 -0.028786 0
M  V30 4321 H 410.928 2.82464 -0.962112 0
M  V30 4322 C 409.677 3.40226 0.71703 0
M  V30 4323 H 409 3.99706 0.0867951 0
M  V30 4324 H 410.44 4.08897 1.12159 0
M  V30 4325 C 408.899 2.80372 1.86797 0
M  V30 4326 O 409.429 2.71183 2.96349 0
M  V30 4327 N 407.635 2.37904 1.66883 0
M  V30 4328 H 407.182 2.45578 0.777759 0
M  V30 4329 H 407.14 1.98202 2.44056 0
M  V30 4330 N 410.912 0.523116 1.48665 0
M  V30 4331 C 412.158 -0.0134963 2.02796 0
M  V30 4332 C 412.491 -1.34582 1.40004 0
M  V30 4333 O 411.766 -1.86756 0.543381 0
M  V30 4334 C 412.049 -0.14276 3.59817 0
M  V30 4335 C 411.902 1.21425 4.331 0
M  V30 4336 C 413.221 -0.872856 4.31357 0
M  V30 4337 H 410.34 -0.00343074 0.736992 0
M  V30 4338 H 412.982 0.678816 1.7746 0
M  V30 4339 H 411.132 -0.732401 3.81534 0
M  V30 4340 H 412.804 1.84447 4.2282 0
M  V30 4341 H 411.047 1.79791 3.94788 0
M  V30 4342 H 411.718 1.07687 5.41394 0
M  V30 4343 H 414.194 -0.372555 4.14429 0
M  V30 4344 H 413.07 -0.932185 5.40927 0
M  V30 4345 H 413.331 -1.92161 3.98154 0
M  V30 4346 N 412.39 -1.55475 0.257931 0
M  V30 4347 C 413.615 -2.04064 -0.370488 0
M  V30 4348 C 414.04 -1.13565 -1.49948 0
M  V30 4349 O 413.398 -0.130781 -1.80828 0
M  V30 4350 C 413.446 -3.50554 -0.845237 0
M  V30 4351 O 412.55 -3.63173 -1.95394 0
M  V30 4352 H 411.891 -0.659257 -0.0792243 0
M  V30 4353 H 414.421 -2.00903 0.387212 0
M  V30 4354 H 414.431 -3.91588 -1.14555 0
M  V30 4355 H 413.106 -4.15896 -0.0191259 0
M  V30 4356 H 411.683 -3.34039 -1.65748 0
M  V30 4357 N 413.868 0.0150385 -1.57593 0
M  V30 4358 C 414.8 1.03912 -2.04291 0
M  V30 4359 C 415.813 1.31618 -0.958146 0
M  V30 4360 O 417.002 1.28859 -1.23522 0
M  V30 4361 C 414.102 2.37749 -2.41514 0
M  V30 4362 C 413.275 2.29198 -3.72541 0
M  V30 4363 C 412.334 3.45598 -3.96797 0
M  V30 4364 O 411.36 3.24461 -4.67668 0
M  V30 4365 N 412.562 4.67945 -3.43523 0
M  V30 4366 H 415.327 0.64099 -2.92765 0
M  V30 4367 H 412.888 0.20272 -1.60626 0
M  V30 4368 H 414.88 3.14364 -2.54867 0
M  V30 4369 H 413.45 2.69357 -1.58637 0
M  V30 4370 H 412.67 1.3759 -3.69408 0
M  V30 4371 H 413.958 2.20642 -4.5847 0
M  V30 4372 H 413.356 4.88017 -2.86104 0
M  V30 4373 H 411.913 5.41878 -3.62232 0
M  V30 4374 N 415.346 1.54954 0.287554 0
M  V30 4375 C 416.594 1.74528 1.01904 0
M  V30 4376 C 416.915 0.541349 1.87335 0
M  V30 4377 O 416.185 -0.444108 1.908 0
M  V30 4378 H 414.765 0.643576 0.379235 0
M  V30 4379 H 417.427 1.92333 0.315294 0
M  V30 4380 H 416.523 2.64015 1.6644 0
M  V30 4381 N 416.824 -0.551391 1.4764 0
M  V30 4382 C 418.049 -1.33837 1.58437 0
M  V30 4383 C 418.474 -1.866 0.237063 0
M  V30 4384 O 417.832 -1.6328 -0.787994 0
M  V30 4385 C 417.88 -2.48014 2.61766 0
M  V30 4386 O 416.984 -3.50419 2.1744 0
M  V30 4387 H 416.325 -0.397299 0.532024 0
M  V30 4388 H 418.855 -0.665759 1.93465 0
M  V30 4389 H 418.865 -2.94503 2.82369 0
M  V30 4390 H 417.54 -2.08969 3.5959 0
M  V30 4391 H 416.117 -3.10196 2.06961 0
M  V30 4392 N 418.302 -1.35869 -0.798587 0
M  V30 4393 C 419.527 -1.32883 -1.59238 0
M  V30 4394 C 419.952 0.0894587 -1.87887 0
M  V30 4395 O 419.31 1.05869 -1.47178 0
M  V30 4396 C 419.358 -2.14892 -2.89575 0
M  V30 4397 O 418.462 -1.53512 -3.82763 0
M  V30 4398 H 417.803 -0.455236 -0.48338 0
M  V30 4399 H 420.333 -1.79024 -0.990539 0
M  V30 4400 H 420.343 -2.27139 -3.38928 0
M  V30 4401 H 419.018 -3.17998 -2.68049 0
M  V30 4402 H 417.595 -1.50153 -3.41334 0
M  V30 4403 N 419.78 1.02168 -1.19998 0
M  V30 4404 C 420.71 2.12488 -0.96804 0
M  V30 4405 C 421.691 1.69799 0.101185 0
M  V30 4406 O 422.876 1.94121 -0.0552993 0
M  V30 4407 C 420.006 3.43479 -0.513776 0
M  V30 4408 C 418.96 3.99884 -1.52566 0
M  V30 4409 C 418.286 5.26582 -0.928214 0
M  V30 4410 C 419.586 4.33861 -2.90795 0
M  V30 4411 H 421.28 2.32149 -1.89069 0
M  V30 4412 H 418.826 1.11564 -0.910468 0
M  V30 4413 H 420.779 4.20036 -0.338774 0
M  V30 4414 H 419.503 3.23561 0.444493 0
M  V30 4415 H 418.162 3.25429 -1.68794 0
M  V30 4416 H 417.81 5.02986 0.0378289 0
M  V30 4417 H 417.51 5.65284 -1.60397 0
M  V30 4418 H 419.034 6.05799 -0.764167 0
M  V30 4419 H 420.448 5.01327 -2.78109 0
M  V30 4420 H 418.845 4.83664 -3.55231 0
M  V30 4421 H 419.915 3.42848 -3.42904 0
M  V30 4422 N 421.258 1.00505 1.21394 0
M  V30 4423 C 422.188 0.585684 2.26035 0
M  V30 4424 C 423.169 -0.393525 1.65485 0
M  V30 4425 O 424.354 -0.281497 1.92149 0
M  V30 4426 C 421.484 -0.0884283 3.47187 0
M  V30 4427 C 420.438 0.810567 4.20254 0
M  V30 4428 C 419.764 0.00286382 5.347 0
M  V30 4429 C 421.064 2.1132 4.77641 0
M  V30 4430 H 422.758 1.46039 2.61368 0
M  V30 4431 H 420.304 0.703648 1.25638 0
M  V30 4432 H 422.257 -0.393286 4.19561 0
M  V30 4433 H 420.981 -0.997766 3.10986 0
M  V30 4434 H 419.64 1.09925 3.49731 0
M  V30 4435 H 419.288 -0.907765 4.94741 0
M  V30 4436 H 418.988 0.601444 5.84514 0
M  V30 4437 H 420.512 -0.295808 6.09883 0
M  V30 4438 H 421.926 1.87148 5.41893 0
M  V30 4439 H 420.323 2.66164 5.37845 0
M  V30 4440 H 421.393 2.78393 3.9702 0
M  V30 4441 N 422.737 -1.36956 0.779787 0
M  V30 4442 C 423.962 -2.04283 0.358224 0
M  V30 4443 C 424.387 -1.58422 -1.01411 0
M  V30 4444 O 423.745 -0.748179 -1.65142 0
M  V30 4445 C 423.793 -3.58152 0.419479 0
M  V30 4446 O 422.897 -4.08342 -0.577142 0
M  V30 4447 H 422.238 -0.645967 0.153698 0
M  V30 4448 H 424.768 -1.75108 1.05822 0
M  V30 4449 H 424.778 -4.07041 0.279636 0
M  V30 4450 H 423.453 -3.90886 1.42061 0
M  V30 4451 H 422.03 -3.70751 -0.399755 0
M  V30 4452 N 424.215 -0.530993 -1.48385 0
M  V30 4453 C 425.125 0.23503 -2.3342 0
M  V30 4454 C 426.141 0.93801 -1.46552 0
M  V30 4455 O 427.317 0.912745 -1.7953 0
M  V30 4456 C 424.382 1.26778 -3.22689 0
M  V30 4457 C 423.443 0.575038 -4.25431 0
M  V30 4458 C 422.676 1.55858 -5.10435 0
M  V30 4459 O 422.899 2.79129 -4.97437 0
M  V30 4460 O 421.833 1.09742 -5.91811 0
M  V30 4461 H 425.659 -0.461794 -3.00169 0
M  V30 4462 H 423.244 -0.291903 -1.46521 0
M  V30 4463 H 425.126 1.86457 -3.77904 0
M  V30 4464 H 423.801 1.94699 -2.586 0
M  V30 4465 H 422.708 -0.0622782 -3.74048 0
M  V30 4466 H 424.041 -0.062253 -4.92161 0
M  V30 4467 N 425.693 1.55336 -0.266172 0
M  V30 4468 C 426.623 2.25146 0.618981 0
M  V30 4469 C 427.604 1.23845 1.16604 0
M  V30 4470 O 428.789 1.52544 1.20183 0
M  V30 4471 C 425.919 2.96572 1.80728 0
M  V30 4472 C 424.873 4.04726 1.39215 0
M  V30 4473 C 424.199 4.63678 2.66283 0
M  V30 4474 C 425.499 5.19407 0.548942 0
M  V30 4475 H 427.193 2.99377 0.0368116 0
M  V30 4476 H 424.739 1.43991 0.0162651 0
M  V30 4477 H 426.692 3.44116 2.43232 0
M  V30 4478 H 425.416 2.19861 2.41514 0
M  V30 4479 H 424.075 3.57979 0.790351 0
M  V30 4480 H 423.723 3.83646 3.25308 0
M  V30 4481 H 423.423 5.367 2.39222 0
M  V30 4482 H 424.947 5.13967 3.29651 0
M  V30 4483 H 426.361 5.63059 1.07876 0
M  V30 4484 H 424.758 5.98936 0.373593 0
M  V30 4485 H 425.828 4.8295 -0.434394 0
M  V30 4486 N 427.171 -0.0066808 1.57599 0
M  V30 4487 C 428.448 -0.729586 1.81484 0
M  V30 4488 C 428.828 -1.92359 0.869558 0
M  V30 4489 O 428.176 -2.28348 -0.0832533 0
M  V30 4490 C 428.386 -1.1416 3.29801 0
M  V30 4491 C 429.734 -1.54823 3.95367 0
M  V30 4492 O 430.758 -1.23558 3.34084 0
M  V30 4493 O 429.617 -2.12937 5.03309 0
M  V30 4494 H 426.711 -0.354674 0.747085 0
M  V30 4495 H 429.257 0.0182609 1.6969 0
M  V30 4496 H 428.029 -0.290231 3.90222 0
M  V30 4497 H 427.652 -1.94876 3.46568 0
M  V30 4498 N 428.649 -1.55105 -0.279332 0
M  V30 4499 C 429.581 -1.83952 -1.36727 0
M  V30 4500 C 430.594 -0.723642 -1.45833 0
M  V30 4501 O 431.783 -1.00141 -1.47763 0
M  V30 4502 C 428.883 -1.98183 -2.74912 0
M  V30 4503 C 428.056 -3.28787 -2.88475 0
M  V30 4504 C 427.115 -3.33162 -4.07295 0
M  V30 4505 O 426.141 -4.06576 -3.98353 0
M  V30 4506 N 427.343 -2.60109 -5.18964 0
M  V30 4507 H 430.108 -2.77853 -1.12328 0
M  V30 4508 H 427.669 -1.54945 -0.469442 0
M  V30 4509 H 429.661 -1.98488 -3.52682 0
M  V30 4510 H 428.231 -1.11177 -2.92162 0
M  V30 4511 H 427.451 -3.41075 -1.97641 0
M  V30 4512 H 428.739 -4.14933 -2.94463 0
M  V30 4513 H 428.137 -2.00136 -5.29115 0
M  V30 4514 H 426.694 -2.66143 -5.94988 0
M  V30 4515 N 430.127 0.543554 -1.4793 0
M  V30 4516 C 431.357 1.32324 -1.58663 0
M  V30 4517 C 431.765 1.8766 -0.240896 0
M  V30 4518 O 431.108 1.66411 0.778011 0
M  V30 4519 C 431.17 2.52094 -2.56299 0
M  V30 4520 C 430.834 2.17944 -4.01683 0
M  V30 4521 C 431.831 1.74422 -4.89768 0
M  V30 4522 C 429.516 2.28884 -4.47121 0
M  V30 4523 C 431.51 1.42287 -6.21316 0
M  V30 4524 C 429.197 1.96361 -5.78693 0
M  V30 4525 C 430.195 1.53132 -6.65612 0
M  V30 4526 O 429.883 1.21029 -7.94737 0
M  V30 4527 H 429.615 0.409174 -0.538101 0
M  V30 4528 H 432.169 0.663887 -1.94375 0
M  V30 4529 H 430.399 3.20965 -2.15681 0
M  V30 4530 H 432.088 3.14165 -2.57012 0
M  V30 4531 H 432.854 1.65452 -4.55907 0
M  V30 4532 H 428.733 2.61488 -3.79664 0
M  V30 4533 H 432.277 1.08472 -6.89115 0
M  V30 4534 H 428.174 2.04967 -6.12094 0
M  V30 4535 H 428.942 1.34543 -8.07366 0
M  V30 4536 N 431.605 1.3629 0.791371 0
M  V30 4537 C 432.555 1.26988 1.89362 0
M  V30 4538 C 433.539 0.161795 1.60084 0
M  V30 4539 O 434.731 0.394426 1.72549 0
M  V30 4540 C 431.86 1.05944 3.26544 0
M  V30 4541 C 430.946 2.21211 3.61838 0
M  V30 4542 N 431.337 3.46518 3.68455 0
M  V30 4543 C 429.635 2.12933 3.91887 0
M  V30 4544 C 430.336 4.2241 3.99931 0
M  V30 4545 N 429.312 3.51329 4.14812 0
M  V30 4546 H 433.114 2.21908 1.92702 0
M  V30 4547 H 430.628 1.28982 0.986787 0
M  V30 4548 H 432.625 0.973666 4.05371 0
M  V30 4549 H 431.285 0.119223 3.24481 0
M  V30 4550 H 432.296 3.80677 3.51148 0
M  V30 4551 H 428.973 1.26855 3.97761 0
M  V30 4552 H 430.363 5.30767 4.1199 0
M  V30 4553 N 433.083 -1.0153 1.20538 0
M  V30 4554 C 433.993 -2.13557 0.971113 0
M  V30 4555 C 435.009 -1.73845 -0.0734366 0
M  V30 4556 O 436.185 -2.01075 0.114299 0
M  V30 4557 C 433.25 -3.42661 0.527639 0
M  V30 4558 C 432.311 -3.96608 1.64319 0
M  V30 4559 C 431.544 -5.1955 1.22078 0
M  V30 4560 O 431.767 -5.70329 0.0900198 0
M  V30 4561 O 430.701 -5.66681 2.02871 0
M  V30 4562 H 434.527 -2.3619 1.90913 0
M  V30 4563 H 432.112 -1.11946 0.989362 0
M  V30 4564 H 433.994 -4.20404 0.289621 0
M  V30 4565 H 432.669 -3.21441 -0.381779 0
M  V30 4566 H 431.576 -3.20139 1.93551 0
M  V30 4567 H 432.909 -4.22219 2.52966 0
M  V30 4568 N 434.561 -1.01147 -1.20859 0
M  V30 4569 C 435.493 -0.535546 -2.22855 0
M  V30 4570 C 436.506 0.379323 -1.58319 0
M  V30 4571 O 437.695 0.178489 -1.77605 0
M  V30 4572 C 434.795 0.240962 -3.38042 0
M  V30 4573 C 433.968 -0.674562 -4.32167 0
M  V30 4574 C 433.027 0.053467 -5.26173 0
M  V30 4575 O 432.053 -0.567339 -5.66366 0
M  V30 4576 N 433.255 1.32997 -5.65059 0
M  V30 4577 H 436.02 -1.41268 -2.64317 0
M  V30 4578 H 433.581 -0.888386 -1.35349 0
M  V30 4579 H 435.573 0.737115 -3.97931 0
M  V30 4580 H 434.143 1.01935 -2.95513 0
M  V30 4581 H 433.363 -1.35111 -3.70322 0
M  V30 4582 H 434.651 -1.2974 -4.91981 0
M  V30 4583 H 434.049 1.85536 -5.34409 0
M  V30 4584 H 432.606 1.77095 -6.2728 0
M  V30 4585 N 436.039 1.36541 -0.78704 0
M  V30 4586 C 437.316 1.9355 -0.282424 0
M  V30 4587 C 437.696 1.71919 1.22503 0
M  V30 4588 O 437.044 1.07677 2.01539 0
M  V30 4589 C 437.254 3.4246 -0.672462 0
M  V30 4590 C 438.602 4.19582 -0.650863 0
M  V30 4591 O 439.626 3.50889 -0.612789 0
M  V30 4592 O 438.485 5.42106 -0.691623 0
M  V30 4593 H 435.579 0.824091 -0.0693 0
M  V30 4594 H 438.125 1.45736 -0.869423 0
M  V30 4595 H 436.897 3.51851 -1.71221 0
M  V30 4596 H 436.52 3.97556 -0.0592211 0
M  V30 4597 N 437.518 0.538854 1.48102 0
M  V30 4598 C 438.795 -0.0568108 1.95517 0
M  V30 4599 C 439.175 -1.50408 1.48124 0
M  V30 4600 O 438.523 -2.17133 0.711727 0
M  V30 4601 C 438.733 0.0696262 3.48931 0
M  V30 4602 C 440.081 -0.0851202 4.24515 0
M  V30 4603 O 441.105 -0.0037347 3.562 0
M  V30 4604 O 439.964 -0.257025 5.45895 0
M  V30 4605 H 437.058 -0.0743695 0.823649 0
M  V30 4606 H 439.604 0.604081 1.58584 0
M  V30 4607 H 438.376 1.07744 3.76174 0
M  V30 4608 H 437.999 -0.629714 3.92582 0
M  V30 4609 N 438.996 -1.55193 0.274407 0
M  V30 4610 C 440.273 -1.91584 -0.394331 0
M  V30 4611 C 440.653 -1.19858 -1.73774 0
M  V30 4612 O 440.001 -0.3252 -2.26174 0
M  V30 4613 C 440.211 -3.4487 -0.535311 0
M  V30 4614 C 441.559 -4.16636 -0.818534 0
M  V30 4615 O 442.583 -3.5076 -0.620146 0
M  V30 4616 O 441.442 -5.33209 -1.19792 0
M  V30 4617 H 438.536 -0.798349 -0.215794 0
M  V30 4618 H 441.082 -1.66646 0.320507 0
M  V30 4619 H 439.854 -3.89145 0.410141 0
M  V30 4620 H 439.477 -3.75759 -1.29964 0
M  V30 4621 N 440.474 -0.00167713 -1.576 0
M  V30 4622 C 441.722 0.681471 -1.90264 0
M  V30 4623 C 442.043 1.7422 -0.875924 0
M  V30 4624 O 441.313 1.95709 0.0864412 0
M  V30 4625 H 439.893 0.254696 -0.702239 0
M  V30 4626 H 442.555 -0.0429996 -1.94853 0
M  V30 4627 H 441.651 1.15166 -2.90075 0
M  V30 4628 N 441.952 1.55251 0.271103 0
M  V30 4629 C 443.368 1.47133 0.618393 0
M  V30 4630 C 443.568 0.686994 1.89427 0
M  V30 4631 O 442.624 0.206609 2.51653 0
M  V30 4632 C 443.937 2.91361 0.743593 0
M  V30 4633 C 445.485 3.01587 0.837522 0
M  V30 4634 C 445.96 4.47073 0.994483 0
M  V30 4635 N 447.451 4.50909 1.05996 0
M  V30 4636 C 448.186 5.60698 1.20024 0
M  V30 4637 N 447.682 6.80348 1.30759 0
M  V30 4638 N 449.475 5.48444 1.23149 0
M  V30 4639 H 441.626 2.04698 -0.566784 0
M  V30 4640 H 443.889 0.928319 -0.192165 0
M  V30 4641 H 443.595 3.51483 -0.123493 0
M  V30 4642 H 443.469 3.40484 1.62328 0
M  V30 4643 H 445.856 2.4156 1.69507 0
M  V30 4644 H 445.937 2.55713 -0.0668086 0
M  V30 4645 H 445.581 5.07703 0.141582 0
M  V30 4646 H 445.511 4.90605 1.91349 0
M  V30 4647 H 448.002 3.6472 0.989316 0
M  V30 4648 H 448.315 7.59772 1.41303 0
M  V30 4649 H 446.66 6.83156 1.27761 0
M  V30 4650 H 449.851 4.53907 1.14394 0
M  V30 4651 H 450.024 6.34049 1.33738 0
M  V30 4652 N 443.43 -0.535701 1.48216 0
M  V30 4653 C 444.34 -1.66785 1.64985 0
M  V30 4654 C 445.356 -1.65654 0.532414 0
M  V30 4655 O 446.532 -1.8471 0.80275 0
M  V30 4656 C 443.597 -3.0326 1.68031 0
M  V30 4657 C 442.658 -3.1529 2.9136 0
M  V30 4658 C 441.891 -4.45255 2.94252 0
M  V30 4659 O 442.114 -5.32011 2.05719 0
M  V30 4660 O 441.048 -4.6153 3.86359 0
M  V30 4661 H 444.874 -1.55576 2.60825 0
M  V30 4662 H 442.459 -0.70815 1.31551 0
M  V30 4663 H 444.341 -3.84436 1.72589 0
M  V30 4664 H 443.016 -3.14805 0.753628 0
M  V30 4665 H 441.923 -2.3343 2.92337 0
M  V30 4666 H 443.256 -3.08658 3.83394 0
M  V30 4667 N 444.908 -1.36708 -0.784132 0
M  V30 4668 C 446.324 -1.17237 -1.08294 0
M  V30 4669 C 446.524 -5.93947e-05 -2.015 0
M  V30 4670 O 445.58 0.663686 -2.43622 0
M  V30 4671 C 446.893 -2.48557 -1.69233 0
M  V30 4672 C 448.441 -2.54968 -1.8155 0
M  V30 4673 C 448.916 -3.86388 -2.45904 0
M  V30 4674 N 450.407 -3.87762 -2.53367 0
M  V30 4675 C 451.142 -4.86191 -3.03983 0
M  V30 4676 N 450.638 -5.95015 -3.54866 0
M  V30 4677 N 452.431 -4.73606 -3.02743 0
M  V30 4678 H 444.582 -2.11758 -0.16501 0
M  V30 4679 H 446.845 -0.93822 -0.135822 0
M  V30 4680 H 446.551 -3.34638 -1.08215 0
M  V30 4681 H 446.425 -2.64748 -2.68679 0
M  V30 4682 H 448.812 -1.69302 -2.41704 0
M  V30 4683 H 448.893 -2.42672 -0.80895 0
M  V30 4684 H 448.537 -4.72462 -1.86392 0
M  V30 4685 H 448.467 -3.95982 -3.4714 0
M  V30 4686 H 450.958 -3.09145 -2.17343 0
M  V30 4687 H 451.271 -6.66086 -3.91854 0
M  V30 4688 H 449.616 -5.98676 -3.53003 0
M  V30 4689 H 452.807 -3.87717 -2.62284 0
M  V30 4690 H 452.98 -5.50473 -3.41881 0
M  V30 4691 N 446.386 1.0089 -1.21074 0
M  V30 4692 C 447.663 1.71834 -0.934469 0
M  V30 4693 C 448.043 2.0368 0.554753 0
M  V30 4694 O 447.391 1.70742 1.51854 0
M  V30 4695 C 447.601 2.98061 -1.8155 0
M  V30 4696 C 448.949 3.7117 -2.06199 0
M  V30 4697 O 449.973 3.08034 -1.78867 0
M  V30 4698 O 448.832 4.84721 -2.52404 0
M  V30 4699 H 445.926 0.749253 -0.35007 0
M  V30 4700 H 448.472 1.06668 -1.31985 0
M  V30 4701 H 447.244 2.70908 -2.82355 0
M  V30 4702 H 446.867 3.70968 -1.43068 0
M  V30 4703 N 447.864 1.01787 1.20321 0
M  V30 4704 C 449.089 0.727009 1.9424 0
M  V30 4705 C 449.514 -0.706179 1.74341 0
M  V30 4706 O 448.872 -1.48609 1.03852 0
M  V30 4707 C 448.92 1.06958 3.44372 0
M  V30 4708 O 448.024 0.181983 4.11998 0
M  V30 4709 H 447.365 0.269626 0.606793 0
M  V30 4710 H 449.895 1.36158 1.52716 0
M  V30 4711 H 449.905 1.02182 3.94997 0
M  V30 4712 H 448.58 2.11378 3.58179 0
M  V30 4713 H 447.157 0.287378 3.71791 0
M  V30 4714 N 449.342 -1.36122 0.79427 0
M  V30 4715 C 450.591 -1.98361 0.365464 0
M  V30 4716 C 450.904 -1.6374 -1.06997 0
M  V30 4717 O 452.11 -2.19251 -1.60129 0
M  V30 4718 C 450.566 -3.54821 0.602496 0
M  V30 4719 C 450.174 -3.98362 2.04967 0
M  V30 4720 C 451.918 -4.2383 0.238437 0
M  V30 4721 C 449.825 -5.47619 2.2331 0
M  V30 4722 H 448.755 -0.742193 0.13291 0
M  V30 4723 H 451.406 -1.55354 0.976589 0
M  V30 4724 H 449.788 -3.95922 -0.078409 0
M  V30 4725 H 450.962 -3.68447 2.76737 0
M  V30 4726 H 449.277 -3.42206 2.37243 0
M  V30 4727 H 451.874 -5.33529 0.353705 0
M  V30 4728 H 452.217 -4.08264 -0.814006 0
M  V30 4729 H 452.75 -3.88108 0.872769 0
M  V30 4730 H 449.489 -5.68138 3.26955 0
M  V30 4731 H 449.009 -5.79145 1.5605 0
M  V30 4732 H 450.688 -6.13911 2.0426 0
M  V30 4733 N 450.82 -0.546701 -1.47814 0
M  V30 4734 C 451.77 0.227042 -2.26867 0
M  V30 4735 C 452.754 0.894844 -1.33721 0
M  V30 4736 O 453.946 0.794887 -1.58147 0
M  V30 4737 C 451.075 1.26299 -3.19223 0
M  V30 4738 C 450.161 0.59913 -4.19847 0
M  V30 4739 N 450.552 -0.324777 -5.04756 0
M  V30 4740 C 448.85 0.854331 -4.37741 0
M  V30 4741 C 449.551 -0.709386 -5.77358 0
M  V30 4742 N 448.527 -0.0666153 -5.43559 0
M  V30 4743 H 452.329 -0.483476 -2.89896 0
M  V30 4744 H 449.843 -0.365893 -1.58224 0
M  V30 4745 H 451.84 1.83116 -3.74532 0
M  V30 4746 H 450.5 1.97471 -2.57751 0
M  V30 4747 H 451.511 -0.698351 -5.1317 0
M  V30 4748 H 448.188 1.55536 -3.87447 0
M  V30 4749 H 449.578 -1.46796 -6.55668 0
M  V30 4750 N 452.299 1.55045 -0.282633 0
M  V30 4751 C 453.524 2.04628 0.337977 0
M  V30 4752 C 453.949 1.15937 1.48123 0
M  V30 4753 O 453.307 0.159532 1.80597 0
M  V30 4754 C 453.355 3.51854 0.78936 0
M  V30 4755 O 452.459 3.66236 1.89592 0
M  V30 4756 H 451.8 0.660434 0.0687261 0
M  V30 4757 H 454.33 2.00261 -0.419124 0
M  V30 4758 H 454.34 3.93361 1.08311 0
M  V30 4759 H 453.015 4.15873 -0.0470419 0
M  V30 4760 H 451.592 3.36633 1.60413 0
M  V30 4761 N 453.777 0.010035 1.57597 0
M  V30 4762 C 455.002 -0.687021 1.95691 0
M  V30 4763 C 455.427 -1.65952 0.885519 0
M  V30 4764 O 454.785 -1.80633 -0.15543 0
M  V30 4765 C 454.833 -1.3864 3.32884 0
M  V30 4766 O 453.937 -2.50115 3.27897 0
M  V30 4767 H 453.278 -0.181989 0.638573 0
M  V30 4768 H 455.808 0.0662122 2.04493 0
M  V30 4769 H 455.818 -1.74754 3.6868 0
M  V30 4770 H 454.493 -0.673411 4.10412 0
M  V30 4771 H 453.07 -2.16253 3.03791 0
M  V30 4772 N 455.255 -1.55392 -0.262866 0
M  V30 4773 C 456.205 -1.85355 -1.32768 0
M  V30 4774 C 457.189 -0.713188 -1.44231 0
M  V30 4775 O 458.381 -0.974765 -1.47741 0
M  V30 4776 C 455.51 -2.13781 -2.68612 0
M  V30 4777 C 454.596 -3.34104 -2.61219 0
M  V30 4778 N 454.987 -4.53766 -2.2345 0
M  V30 4779 C 453.285 -3.36895 -2.92263 0
M  V30 4780 C 453.986 -5.35877 -2.26298 0
M  V30 4781 N 452.962 -4.74536 -2.65172 0
M  V30 4782 H 456.764 -2.75413 -1.02591 0
M  V30 4783 H 454.278 -1.55405 -0.471503 0
M  V30 4784 H 456.275 -2.33407 -3.45437 0
M  V30 4785 H 454.935 -1.25013 -2.99669 0
M  V30 4786 H 455.946 -4.79682 -1.95258 0
M  V30 4787 H 452.623 -2.58351 -3.27965 0
M  V30 4788 H 454.013 -6.41577 -1.99572 0
M  V30 4789 N 456.733 0.527833 -1.48498 0
M  V30 4790 C 457.958 1.313 -1.60546 0
M  V30 4791 C 458.383 1.86199 -0.26672 0
M  V30 4792 O 457.741 1.64513 0.761918 0
M  V30 4793 C 457.789 2.43818 -2.65678 0
M  V30 4794 O 456.893 3.46916 -2.22987 0
M  V30 4795 H 456.234 0.388784 -0.538277 0
M  V30 4796 H 458.764 0.634896 -1.945 0
M  V30 4797 H 458.774 2.89973 -2.87018 0
M  V30 4798 H 457.449 2.03222 -3.62869 0
M  V30 4799 H 456.026 3.06864 -2.11869 0
M  V30 4800 N 458.211 1.37122 0.776871 0
M  V30 4801 C 459.441 1.35034 1.56363 0
M  V30 4802 C 459.849 -0.0674681 1.8908 0
M  V30 4803 O 459.192 -1.03826 1.51545 0
M  V30 4804 C 459.254 2.11894 2.90415 0
M  V30 4805 C 458.918 3.60897 2.80362 0
M  V30 4806 C 459.915 4.54887 2.51742 0
M  V30 4807 C 457.6 4.03951 2.98545 0
M  V30 4808 C 459.594 5.89909 2.41426 0
M  V30 4809 C 457.281 5.3906 2.87849 0
M  V30 4810 C 458.279 6.31852 2.5933 0
M  V30 4811 O 457.967 7.64479 2.48651 0
M  V30 4812 H 457.699 0.464402 0.49123 0
M  V30 4813 H 460.253 1.80992 0.971127 0
M  V30 4814 H 458.483 1.60618 3.51765 0
M  V30 4815 H 460.172 2.02505 3.51776 0
M  V30 4816 H 460.938 4.22934 2.37385 0
M  V30 4817 H 456.817 3.3209 3.19746 0
M  V30 4818 H 460.361 6.62304 2.19086 0
M  V30 4819 H 456.258 5.70617 3.01773 0
M  V30 4820 H 457.026 7.74742 2.64039 0
M  V30 4821 N 459.689 -1.00246 1.21608 0
M  V30 4822 C 460.937 -1.73717 1.0328 0
M  V30 4823 C 461.258 -1.90102 -0.434318 0
M  V30 4824 O 460.528 -1.45376 -1.31311 0
M  V30 4825 H 459.108 -0.643613 0.379172 0
M  V30 4826 H 461.77 -1.20787 1.52959 0
M  V30 4827 H 460.866 -2.73535 1.50283 0
M  V30 4828 N 461.167 -1.02423 -1.1978 0
M  V30 4829 C 462.392 -0.7373 -1.93852 0
M  V30 4830 C 462.817 0.696923 -1.74713 0
M  V30 4831 O 462.175 1.48056 -1.04638 0
M  V30 4832 C 462.223 -1.08783 -3.438 0
M  V30 4833 O 461.327 -0.20383 -4.11896 0
M  V30 4834 H 460.668 -0.27284 -0.605355 0
M  V30 4835 H 463.198 -1.36966 -1.51992 0
M  V30 4836 H 463.208 -1.04276 -3.9445 0
M  V30 4837 H 461.883 -2.13274 -3.57053 0
M  V30 4838 H 460.46 -0.307091 -3.71633 0
M  V30 4839 N 462.645 1.35699 -0.801477 0
M  V30 4840 C 463.575 2.32436 -0.222658 0
M  V30 4841 C 464.556 1.5723 0.649057 0
M  V30 4842 O 465.741 1.85324 0.580387 0
M  V30 4843 C 462.871 3.41469 0.633719 0
M  V30 4844 C 461.825 4.27774 -0.139083 0
M  V30 4845 C 461.151 5.28082 0.838666 0
M  V30 4846 C 462.451 5.04946 -1.33517 0
M  V30 4847 H 464.145 2.81094 -1.03086 0
M  V30 4848 H 461.691 1.35146 -0.497155 0
M  V30 4849 H 463.644 4.08143 1.04868 0
M  V30 4850 H 462.368 2.91408 1.47475 0
M  V30 4851 H 461.027 3.62673 -0.535156 0
M  V30 4852 H 460.675 4.7429 1.67506 0
M  V30 4853 H 460.375 5.86695 0.32594 0
M  V30 4854 H 461.899 5.97628 1.25194 0
M  V30 4855 H 463.313 5.64593 -0.995349 0
M  V30 4856 H 461.71 5.7303 -1.78202 0
M  V30 4857 H 462.78 4.35886 -2.12442 0
M  V30 4858 N 464.123 0.554532 1.47522 0
M  V30 4859 C 465.348 0.0322661 2.07375 0
M  V30 4860 C 465.773 -1.25079 1.40488 0
M  V30 4861 O 465.131 -1.74859 0.47896 0
M  V30 4862 C 465.179 -0.149397 3.6029 0
M  V30 4863 O 464.283 -1.21259 3.9417 0
M  V30 4864 H 463.624 0.0501228 0.662106 0
M  V30 4865 H 466.154 0.769452 1.8958 0
M  V30 4866 H 466.164 -0.364437 4.06369 0
M  V30 4867 H 464.839 0.787743 4.08372 0
M  V30 4868 H 463.416 -0.97825 3.5984 0
M  V30 4869 N 465.601 -1.54893 0.290851 0
M  V30 4870 C 466.548 -2.23138 -0.58974 0
M  V30 4871 C 467.518 -1.21036 -1.13752 0
M  V30 4872 O 468.703 -1.49626 -1.18392 0
M  V30 4873 C 465.843 -2.96811 -1.76061 0
M  V30 4874 C 464.956 -4.13665 -1.24519 0
M  V30 4875 C 464.091 -4.74944 -2.3791 0
M  V30 4876 C 463.13 -5.83963 -1.83451 0
M  V30 4877 N 462.267 -6.39239 -2.90376 0
M  V30 4878 H 467.107 -2.98 -0.00114915 0
M  V30 4879 H 464.644 -1.47096 0.0112006 0
M  V30 4880 H 466.602 -3.37751 -2.44909 0
M  V30 4881 H 465.232 -2.24344 -2.32098 0
M  V30 4882 H 464.284 -3.77737 -0.449288 0
M  V30 4883 H 465.596 -4.92238 -0.806424 0
M  V30 4884 H 464.75 -5.18684 -3.14724 0
M  V30 4885 H 463.489 -3.95682 -2.85109 0
M  V30 4886 H 462.494 -5.39657 -1.05122 0
M  V30 4887 H 463.719 -6.65103 -1.37169 0
M  V30 4888 H 461.665 -5.62864 -3.36927 0
M  V30 4889 H 461.582 -7.13129 -2.50965 0
M  V30 4890 H 462.85 -6.87637 -3.67118 0
M  V30 4891 N 467.08 -0.0183926 -1.57589 0
M  V30 4892 C 468.357 0.700621 -1.82622 0
M  V30 4893 C 468.737 1.90951 -0.90005 0
M  V30 4894 O 468.085 2.28452 0.0469145 0
M  V30 4895 C 468.295 1.08899 -3.31575 0
M  V30 4896 C 469.643 1.48514 -3.9778 0
M  V30 4897 O 470.667 1.18227 -3.36007 0
M  V30 4898 O 469.526 2.04903 -5.06633 0
M  V30 4899 H 466.62 0.342743 -0.752633 0
M  V30 4900 H 469.166 -0.0452548 -1.6964 0
M  V30 4901 H 467.938 0.228113 -3.90635 0
M  V30 4902 H 467.561 1.89338 -3.49624 0
M  V30 4903 N 468.558 1.5553 0.254621 0
M  V30 4904 C 469.806 1.7665 0.981793 0
M  V30 4905 C 470.127 0.580963 1.86145 0
M  V30 4906 O 469.397 -0.403537 1.91699 0
M  V30 4907 H 467.977 0.651475 0.365498 0
M  V30 4908 H 470.639 1.92958 0.274426 0
M  V30 4909 H 469.735 2.67486 1.60802 0
M  V30 4910 N 470.036 -0.519951 1.48776 0
M  V30 4911 C 470.968 -1.63973 1.60142 0
M  V30 4912 C 471.981 -1.55404 0.485117 0
M  V30 4913 O 473.17 -1.61682 0.756391 0
M  V30 4914 C 470.27 -3.02676 1.52449 0
M  V30 4915 C 469.443 -3.36624 2.79291 0
M  V30 4916 C 468.502 -4.54652 2.64912 0
M  V30 4917 O 467.528 -4.57374 3.38818 0
M  V30 4918 N 468.73 -5.53432 1.75195 0
M  V30 4919 H 471.495 -1.54656 2.56713 0
M  V30 4920 H 469.056 -0.707439 1.45626 0
M  V30 4921 H 471.048 -3.79525 1.4051 0
M  V30 4922 H 469.618 -3.06018 0.638125 0
M  V30 4923 H 468.838 -2.48855 3.0572 0
M  V30 4924 H 470.126 -3.56094 3.6342 0
M  V30 4925 H 469.524 -5.54018 1.14371 0
M  V30 4926 H 468.081 -6.29459 1.69189 0
M  V30 4927 N 471.514 -1.37532 -0.769588 0
M  V30 4928 C 472.477 -1.33292 -1.86456 0
M  V30 4929 C 473.477 -0.236537 -1.59051 0
M  V30 4930 O 474.667 -0.492511 -1.67093 0
M  V30 4931 C 471.799 -1.07118 -3.23633 0
M  V30 4932 H 472.992 -2.30692 -1.91628 0
M  V30 4933 H 470.545 -1.22593 -0.969572 0
M  V30 4934 H 471.28 -0.102578 -3.24138 0
M  V30 4935 H 471.065 -1.86479 -3.44917 0
M  V30 4936 H 472.555 -1.06806 -4.03711 0
M  V30 4937 N 472.992 0.995999 -1.22138 0
M  V30 4938 C 474.24 1.73167 -1.042 0
M  V30 4939 C 474.561 1.90329 0.42423 0
M  V30 4940 O 473.831 1.4607 1.30539 0
M  V30 4941 H 472.411 0.641593 -0.38258 0
M  V30 4942 H 475.073 1.19974 -1.53598 0
M  V30 4943 H 474.169 2.72734 -1.51731 0
M  V30 4944 N 474.47 1.03057 1.19235 0
M  V30 4945 C 475.4 0.633497 2.24742 0
M  V30 4946 C 476.381 -0.358335 1.66283 0
M  V30 4947 O 477.566 -0.240676 1.92703 0
M  V30 4948 C 474.696 -0.0147648 3.47297 0
M  V30 4949 C 473.65 0.899527 4.18441 0
M  V30 4950 C 472.976 0.116281 5.34574 0
M  V30 4951 C 474.276 2.21404 4.73051 0
M  V30 4952 H 475.97 1.5155 2.58211 0
M  V30 4953 H 473.516 0.73014 1.24117 0
M  V30 4954 H 475.469 -0.304202 4.20301 0
M  V30 4955 H 474.193 -0.931577 3.13032 0
M  V30 4956 H 472.852 1.17319 3.47321 0
M  V30 4957 H 472.5 -0.802619 4.96555 0
M  V30 4958 H 472.2 0.725293 5.83107 0
M  V30 4959 H 473.724 -0.166376 6.10373 0
M  V30 4960 H 475.138 1.98601 5.37802 0
M  V30 4961 H 473.535 2.77512 5.32078 0
M  V30 4962 H 474.605 2.86752 3.91026 0
M  V30 4963 N 475.948 -1.35272 0.808662 0
M  V30 4964 C 477.196 -1.98316 0.389233 0
M  V30 4965 C 477.517 -1.64465 -1.04767 0
M  V30 4966 O 476.787 -0.928175 -1.72516 0
M  V30 4967 H 475.367 -0.733585 0.140935 0
M  V30 4968 H 478.029 -1.6515 1.03496 0
M  V30 4969 H 477.125 -3.08123 0.496631 0
M  V30 4970 N 477.426 -0.562348 -1.47226 0
M  V30 4971 C 478.336 0.185466 -2.33866 0
M  V30 4972 C 479.352 0.906713 -1.48508 0
M  V30 4973 O 480.528 0.874458 -1.81425 0
M  V30 4974 C 477.593 1.19904 -3.25306 0
M  V30 4975 C 476.654 0.484669 -4.26555 0
M  V30 4976 C 475.887 1.44996 -5.13626 0
M  V30 4977 O 476.11 2.68515 -5.03245 0
M  V30 4978 O 475.044 0.971642 -5.94006 0
M  V30 4979 H 478.87 -0.525361 -2.99121 0
M  V30 4980 H 476.455 -0.322916 -1.45868 0
M  V30 4981 H 478.337 1.78399 -3.81774 0
M  V30 4982 H 477.012 1.8917 -2.62672 0
M  V30 4983 H 475.919 -0.141605 -3.73832 0
M  V30 4984 H 477.252 -0.166634 -4.91918 0
M  V30 4985 N 478.904 1.54736 -0.299062 0
M  V30 4986 C 479.836 2.20891 0.61153 0
M  V30 4987 C 480.849 1.20104 1.09904 0
M  V30 4988 O 482.038 1.46707 1.01683 0
M  V30 4989 C 479.138 2.84018 1.84897 0
M  V30 4990 C 478.311 4.10719 1.50428 0
M  V30 4991 C 477.37 4.57667 2.59667 0
M  V30 4992 O 476.396 5.2291 2.24842 0
M  V30 4993 N 477.598 4.29821 3.90172 0
M  V30 4994 H 480.363 2.99666 0.0452001 0
M  V30 4995 H 477.924 1.61446 -0.121178 0
M  V30 4996 H 479.916 3.1236 2.5732 0
M  V30 4997 H 478.486 2.09095 2.32375 0
M  V30 4998 H 477.706 3.89408 0.612781 0
M  V30 4999 H 478.994 4.93223 1.24934 0
M  V30 5000 H 478.392 3.77549 4.21276 0
M  V30 5001 H 476.949 4.62877 4.58899 0
M  V30 5002 N 480.382 0.0267497 1.57577 0
M  V30 5003 C 481.292 -0.971633 2.13533 0
M  V30 5004 C 482.308 -1.35868 1.08701 0
M  V30 5005 O 483.484 -1.44058 1.40746 0
M  V30 5006 C 480.549 -2.23622 2.64941 0
M  V30 5007 C 479.61 -1.90982 3.8448 0
M  V30 5008 C 478.843 -3.11411 4.33427 0
M  V30 5009 O 479.066 -4.23992 3.81558 0
M  V30 5010 O 478 -2.93848 5.25297 0
M  V30 5011 H 481.826 -0.525853 2.99113 0
M  V30 5012 H 479.411 -0.193712 1.48139 0
M  V30 5013 H 481.293 -2.97864 2.98086 0
M  V30 5014 H 479.968 -2.67386 1.82446 0
M  V30 5015 H 478.875 -1.14132 3.56265 0
M  V30 5016 H 480.208 -1.52036 4.6813 0
M  V30 5017 N 481.861 -1.55662 -0.24637 0
M  V30 5018 C 482.808 -1.90361 -1.30504 0
M  V30 5019 C 483.778 -0.757905 -1.47801 0
M  V30 5020 O 484.963 -1.01161 -1.61775 0
M  V30 5021 C 482.103 -2.2042 -2.65535 0
M  V30 5022 C 481.216 -3.47799 -2.56242 0
M  V30 5023 C 480.351 -3.67426 -3.8363 0
M  V30 5024 C 479.39 -4.88403 -3.68956 0
M  V30 5025 N 478.527 -5.04548 -4.88237 0
M  V30 5026 H 483.367 -2.80645 -1.00213 0
M  V30 5027 H 480.904 -1.38924 -0.483577 0
M  V30 5028 H 482.862 -2.35853 -3.44135 0
M  V30 5029 H 481.492 -1.3334 -2.93973 0
M  V30 5030 H 480.544 -3.40694 -1.69208 0
M  V30 5031 H 481.856 -4.36544 -2.4131 0
M  V30 5032 H 481.01 -3.82821 -4.70673 0
M  V30 5033 H 479.749 -2.76914 -4.01459 0
M  V30 5034 H 478.754 -4.72984 -2.80296 0
M  V30 5035 H 479.979 -5.80375 -3.52621 0
M  V30 5036 H 477.925 -4.16974 -5.06427 0
M  V30 5037 H 477.842 -5.87384 -4.75937 0
M  V30 5038 H 479.11 -5.24355 -5.76777 0
M  V30 5039 N 483.339 0.512053 -1.4905 0
M  V30 5040 C 484.302 1.59704 -1.64399 0
M  V30 5041 C 485.302 1.52285 -0.516317 0
M  V30 5042 O 486.492 1.55635 -0.782527 0
M  V30 5043 C 483.624 2.9935 -1.63102 0
M  V30 5044 H 484.817 1.47428 -2.61161 0
M  V30 5045 H 482.37 0.735469 -1.37915 0
M  V30 5046 H 483.105 3.17116 -0.678836 0
M  V30 5047 H 482.89 3.06144 -2.44986 0
M  V30 5048 H 484.38 3.782 -1.77072 0
M  V30 5049 N 484.817 1.37938 0.762283 0
M  V30 5050 C 485.747 1.37176 1.88958 0
M  V30 5051 C 486.728 0.238945 1.68413 0
M  V30 5052 O 487.913 0.440726 1.89133 0
M  V30 5053 C 485.043 1.18742 3.2637 0
M  V30 5054 C 483.997 2.29136 3.61498 0
M  V30 5055 C 483.323 1.95816 4.97554 0
M  V30 5056 C 484.623 3.71363 3.6727 0
M  V30 5057 H 486.317 2.31509 1.89853 0
M  V30 5058 H 483.863 1.11438 0.912005 0
M  V30 5059 H 485.816 1.16837 4.04879 0
M  V30 5060 H 484.54 0.208683 3.25933 0
M  V30 5061 H 483.199 2.30213 2.85303 0
M  V30 5062 H 482.847 0.964475 4.93667 0
M  V30 5063 H 482.547 2.69745 5.22026 0
M  V30 5064 H 484.071 1.95513 5.78452 0
M  V30 5065 H 485.485 3.72364 4.35911 0
M  V30 5066 H 483.882 4.44425 4.03245 0
M  V30 5067 H 484.952 4.04305 2.67704 0
M  V30 5068 N 486.295 -0.989507 1.22664 0
M  V30 5069 C 487.205 -2.11449 1.01619 0
M  V30 5070 C 488.221 -1.73962 -0.036545 0
M  V30 5071 O 489.397 -2.00788 0.156924 0
M  V30 5072 C 486.462 -3.41465 0.600204 0
M  V30 5073 C 485.523 -3.93033 1.72695 0
M  V30 5074 C 484.756 -5.16844 1.33071 0
M  V30 5075 O 484.979 -5.7001 0.210975 0
M  V30 5076 O 483.913 -5.6225 2.14845 0
M  V30 5077 H 487.739 -2.32088 1.9588 0
M  V30 5078 H 485.324 -1.09823 1.01289 0
M  V30 5079 H 487.206 -4.19695 0.37873 0
M  V30 5080 H 485.881 -3.22178 -0.313511 0
M  V30 5081 H 484.788 -3.15961 2.00298 0
M  V30 5082 H 486.121 -4.16758 2.61865 0
M  V30 5083 N 487.773 -1.03688 -1.18687 0
M  V30 5084 C 489.019 -0.739123 -1.88851 0
M  V30 5085 C 489.352 0.731042 -1.79915 0
M  V30 5086 O 488.627 1.53313 -1.19688 0
M  V30 5087 C 488.91 -1.20106 -3.3948 0
M  V30 5088 C 488.763 -2.73304 -3.57246 0
M  V30 5089 C 490.082 -0.788134 -4.32986 0
M  V30 5090 H 487.201 -0.269978 -0.68577 0
M  V30 5091 H 489.843 -1.28822 -1.3966 0
M  V30 5092 H 487.993 -0.733915 -3.81505 0
M  V30 5093 H 489.665 -3.28027 -3.24339 0
M  V30 5094 H 487.908 -3.13313 -3.00029 0
M  V30 5095 H 488.579 -3.00684 -4.62918 0
M  V30 5096 H 491.055 -1.19005 -3.98719 0
M  V30 5097 H 489.931 -1.13915 -5.36949 0
M  V30 5098 H 490.192 0.308988 -4.41019 0
M  V30 5099 N 489.251 1.34841 -0.815825 0
M  V30 5100 C 490.479 2.0273 -0.413294 0
M  V30 5101 C 490.894 1.61459 0.978599 0
M  V30 5102 O 490.251 0.816584 1.63212 0
M  V30 5103 C 490.302 3.58058 -0.497676 0
M  V30 5104 O 490.023 3.97832 -1.8347 0
M  V30 5105 C 491.524 4.4321 -0.0891339 0
M  V30 5106 H 488.744 0.649956 -0.166728 0
M  V30 5107 H 491.288 1.72267 -1.10201 0
M  V30 5108 H 489.443 3.87136 0.142886 0
M  V30 5109 H 489.857 4.92501 -1.80396 0
M  V30 5110 H 491.331 5.5164 -0.199274 0
M  V30 5111 H 491.808 4.28432 0.966571 0
M  V30 5112 H 492.414 4.19446 -0.703214 0
M  V30 5113 N 490.729 0.570148 1.46925 0
M  V30 5114 C 491.969 0.0534743 2.0433 0
M  V30 5115 C 492.333 -1.27729 1.4335 0
M  V30 5116 O 493.534 -1.88244 1.91879 0
M  V30 5117 C 491.805 -0.0244296 3.57392 0
M  V30 5118 S 493.364 -0.485351 4.36108 0
M  V30 5119 H 490.182 0.0313908 0.710307 0
M  V30 5120 H 492.784 0.759808 1.80131 0
M  V30 5121 H 491.488 0.948261 3.99295 0
M  V30 5122 H 491.019 -0.753922 3.86108 0
M  V30 5123 H 493.034 -1.74258 4.64595 0
M  V30 5124 N 492.207 -1.54576 0.307264 0
M  V30 5125 C 493.117 -2.27435 -0.57536 0
M  V30 5126 C 494.133 -1.31183 -1.14311 0
M  V30 5127 O 495.309 -1.64175 -1.16656 0
M  V30 5128 C 492.374 -3.00566 -1.72803 0
M  V30 5129 C 491.435 -4.12369 -1.19373 0
M  V30 5130 C 490.668 -4.82003 -2.29147 0
M  V30 5131 O 490.891 -4.51038 -3.49171 0
M  V30 5132 O 489.825 -5.69271 -1.95485 0
M  V30 5133 H 493.651 -3.03696 0.0158558 0
M  V30 5134 H 491.236 -1.49219 0.0735064 0
M  V30 5135 H 493.118 -3.46416 -2.39946 0
M  V30 5136 H 491.793 -2.27195 -2.30574 0
M  V30 5137 H 490.7 -3.70905 -0.487851 0
M  V30 5138 H 492.033 -4.87736 -0.661376 0
M  V30 5139 N 493.685 -0.035106 -1.57561 0
M  V30 5140 C 494.91 0.655802 -1.96759 0
M  V30 5141 C 495.335 1.64523 -0.911809 0
M  V30 5142 O 494.693 1.80857 0.126673 0
M  V30 5143 C 494.741 1.33326 -3.35047 0
M  V30 5144 O 493.845 2.44866 -3.31835 0
M  V30 5145 H 493.186 0.171807 -0.641388 0
M  V30 5146 H 495.716 -0.0987369 -2.04362 0
M  V30 5147 H 495.726 1.68867 -3.71413 0
M  V30 5148 H 494.401 0.608033 -4.11431 0
M  V30 5149 H 492.978 2.11392 -3.07193 0
M  V30 5150 N 495.163 1.55791 0.238111 0
M  V30 5151 C 496.073 1.94196 1.31625 0
M  V30 5152 C 497.089 0.843545 1.52185 0
M  V30 5153 O 498.265 1.1457 1.65637 0
M  V30 5154 C 495.33 2.2365 2.64918 0
M  V30 5155 C 494.391 3.46971 2.52804 0
M  V30 5156 C 493.624 3.7501 3.79741 0
M  V30 5157 O 493.847 3.04982 4.82019 0
M  V30 5158 O 492.781 4.68525 3.77846 0
M  V30 5159 H 496.607 2.86044 1.02043 0
M  V30 5160 H 494.192 1.42786 0.439603 0
M  V30 5161 H 496.074 2.43863 3.4367 0
M  V30 5162 H 494.749 1.34979 2.94215 0
M  V30 5163 H 493.656 3.32055 1.72309 0
M  V30 5164 H 494.989 4.35971 2.28451 0
M  V30 5165 N 496.642 -0.504142 1.49319 0
M  V30 5166 C 497.589 -1.60603 1.65756 0
M  V30 5167 C 498.559 -1.58425 0.499082 0
M  V30 5168 O 499.744 -1.76459 0.725728 0
M  V30 5169 C 496.884 -2.98764 1.72726 0
M  V30 5170 C 495.997 -3.10982 2.99857 0
M  V30 5171 C 495.132 -4.39857 2.97824 0
M  V30 5172 C 494.171 -4.45697 4.19548 0
M  V30 5173 N 493.308 -5.65995 4.15444 0
M  V30 5174 H 498.148 -1.45895 2.59843 0
M  V30 5175 H 495.685 -0.709891 1.28837 0
M  V30 5176 H 497.643 -3.78839 1.74747 0
M  V30 5177 H 496.273 -3.12183 0.821075 0
M  V30 5178 H 495.325 -2.23991 3.07461 0
M  V30 5179 H 496.637 -3.11157 3.89849 0
M  V30 5180 H 495.791 -5.2825 2.98391 0
M  V30 5181 H 494.53 -4.42242 2.05604 0
M  V30 5182 H 493.535 -3.55707 4.19229 0
M  V30 5183 H 494.76 -4.4503 5.12957 0
M  V30 5184 H 492.706 -5.69229 3.26059 0
M  V30 5185 H 492.623 -5.67773 4.99169 0
M  V30 5186 H 493.891 -6.56604 4.20109 0
M  V30 5187 N 498.12 -1.38341 -0.754957 0
M  V30 5188 C 499.03 -1.3769 -1.89944 0
M  V30 5189 C 500.046 -0.274194 -1.71826 0
M  V30 5190 O 501.222 -0.512391 -1.94773 0
M  V30 5191 C 498.287 -1.19938 -3.25293 0
M  V30 5192 C 497.348 -2.40001 -3.55946 0
M  V30 5193 C 496.581 -2.23087 -4.84838 0
M  V30 5194 O 496.804 -1.22386 -5.57116 0
M  V30 5195 O 495.738 -3.11646 -5.14937 0
M  V30 5196 H 499.564 -2.3412 -1.93446 0
M  V30 5197 H 497.149 -1.19246 -0.900044 0
M  V30 5198 H 499.031 -1.12093 -4.06218 0
M  V30 5199 H 497.706 -0.265919 -3.22606 0
M  V30 5200 H 496.613 -2.53421 -2.75188 0
M  V30 5201 H 497.946 -3.31973 -3.63394 0
M  V30 5202 N 499.598 0.982988 -1.23187 0
M  V30 5203 C 500.545 2.07491 -1.01075 0
M  V30 5204 C 501.515 1.65949 0.070905 0
M  V30 5205 O 502.7 1.90629 -0.0806822 0
M  V30 5206 C 499.84 3.39751 -0.605261 0
M  V30 5207 C 498.953 3.94578 -1.75876 0
M  V30 5208 C 498.088 5.15039 -1.3003 0
M  V30 5209 C 497.127 5.62027 -2.42472 0
M  V30 5210 N 496.264 6.73719 -1.97602 0
M  V30 5211 H 501.104 2.25739 -1.9454 0
M  V30 5212 H 498.641 1.10659 -0.969179 0
M  V30 5213 H 500.599 4.15719 -0.351279 0
M  V30 5214 H 499.229 3.21473 0.292382 0
M  V30 5215 H 498.281 3.1539 -2.12681 0
M  V30 5216 H 499.593 4.25422 -2.60418 0
M  V30 5217 H 498.747 5.9833 -1.00429 0
M  V30 5218 H 497.486 4.85843 -0.425216 0
M  V30 5219 H 496.491 4.77318 -2.7285 0
M  V30 5220 H 497.716 5.93244 -3.30512 0
M  V30 5221 H 495.662 6.46287 -1.1247 0
M  V30 5222 H 495.579 7.03934 -2.75705 0
M  V30 5223 H 496.847 7.6049 -1.71098 0
M  V30 5224 N 501.076 1.04316 1.18135 0
M  V30 5225 C 502.304 0.768117 1.92113 0
M  V30 5226 C 502.719 -0.675057 1.76319 0
M  V30 5227 O 502.076 -1.46038 1.09449 0
M  V30 5228 C 502.127 1.12808 3.43448 0
M  V30 5229 O 501.848 2.5146 3.58747 0
M  V30 5230 C 503.349 0.8779 4.3452 0
M  V30 5231 H 500.569 0.279937 0.609817 0
M  V30 5232 H 503.113 1.39149 1.49859 0
M  V30 5233 H 501.268 0.549623 3.83481 0
M  V30 5234 H 501.682 2.65313 4.52448 0
M  V30 5235 H 503.156 1.17959 5.39249 0
M  V30 5236 H 503.633 -0.187239 4.38801 0
M  V30 5237 H 504.239 1.43977 4.00188 0
M  V30 5238 N 502.554 -1.34406 0.822964 0
M  V30 5239 C 503.802 -1.97892 0.410245 0
M  V30 5240 C 504.123 -1.65567 -1.03017 0
M  V30 5241 O 503.393 -0.94642 -1.71522 0
M  V30 5242 H 501.973 -0.732049 0.148707 0
M  V30 5243 H 504.635 -1.64043 1.05242 0
M  V30 5244 H 503.731 -3.07579 0.529284 0
M  V30 5245 N 504.032 -0.577932 -1.46621 0
M  V30 5246 C 504.942 0.160651 -2.34049 0
M  V30 5247 C 505.958 0.890911 -1.49462 0
M  V30 5248 O 507.134 0.855166 -1.82343 0
M  V30 5249 C 504.199 1.16447 -3.26559 0
M  V30 5250 C 503.26 0.4394 -4.27045 0
M  V30 5251 C 502.493 1.3954 -5.15135 0
M  V30 5252 O 502.716 2.63162 -5.06065 0
M  V30 5253 O 501.65 0.908585 -5.95003 0
M  V30 5254 H 505.476 -0.557057 -2.98547 0
M  V30 5255 H 503.061 -0.338369 -1.45518 0
M  V30 5256 H 504.943 1.7434 -3.83645 0
M  V30 5257 H 503.618 1.86373 -2.64663 0
M  V30 5258 H 502.525 -0.181247 -3.73661 0
M  V30 5259 H 503.858 -0.218799 -4.91713 0
M  V30 5260 N 505.51 1.54411 -0.315457 0
M  V30 5261 C 506.735 2.05299 0.294496 0
M  V30 5262 C 507.16 1.19052 1.4563 0
M  V30 5263 O 506.518 0.197804 1.80218 0
M  V30 5264 C 506.566 3.5345 0.714549 0
M  V30 5265 O 505.67 3.70175 1.81781 0
M  V30 5266 H 505.011 0.661743 0.0547019 0
M  V30 5267 H 507.541 1.99327 -0.461508 0
M  V30 5268 H 507.551 3.9557 0.999426 0
M  V30 5269 H 506.226 4.1568 -0.135244 0
M  V30 5270 H 504.803 3.3996 1.53236 0
M  V30 5271 N 506.988 0.0434614 1.5754 0
M  V30 5272 C 507.935 -0.93356 2.11077 0
M  V30 5273 C 508.905 -1.31383 1.01626 0
M  V30 5274 O 510.09 -1.40465 1.29129 0
M  V30 5275 C 507.23 -2.20578 2.65404 0
M  V30 5276 C 506.343 -1.88068 3.88914 0
M  V30 5277 C 505.478 -3.09691 4.31584 0
M  V30 5278 C 504.517 -2.73067 5.47815 0
M  V30 5279 N 503.654 -3.87359 5.85574 0
M  V30 5280 H 508.494 -0.470118 2.94268 0
M  V30 5281 H 506.031 -0.220434 1.45439 0
M  V30 5282 H 507.989 -2.95011 2.94999 0
M  V30 5283 H 506.619 -2.64513 1.85021 0
M  V30 5284 H 505.671 -1.03816 3.6596 0
M  V30 5285 H 506.983 -1.57104 4.73413 0
M  V30 5286 H 506.137 -3.92431 4.62691 0
M  V30 5287 H 504.876 -3.43827 3.45882 0
M  V30 5288 H 503.881 -1.88742 5.16388 0
M  V30 5289 H 505.106 -2.40131 6.35227 0
M  V30 5290 H 503.052 -4.21311 5.02825 0
M  V30 5291 H 502.969 -3.60068 6.64746 0
M  V30 5292 H 504.237 -4.70761 6.21292 0
M  V30 5293 N 508.466 -1.55915 -0.229846 0
M  V30 5294 C 509.376 -1.94891 -1.30593 0
M  V30 5295 C 510.392 -0.851604 -1.51736 0
M  V30 5296 O 511.568 -1.15447 -1.65027 0
M  V30 5297 C 508.633 -2.25052 -2.63728 0
M  V30 5298 C 507.694 -3.48306 -2.5096 0
M  V30 5299 C 506.927 -3.77019 -3.77747 0
M  V30 5300 O 507.15 -3.07534 -4.80395 0
M  V30 5301 O 506.084 -4.70523 -3.75356 0
M  V30 5302 H 509.91 -2.86581 -1.00525 0
M  V30 5303 H 507.495 -1.43017 -0.432025 0
M  V30 5304 H 509.377 -2.45682 -3.42372 0
M  V30 5305 H 508.052 -1.36538 -2.93495 0
M  V30 5306 H 506.959 -3.32964 -1.70546 0
M  V30 5307 H 508.292 -4.37177 -2.26136 0
M  V30 5308 N 509.944 0.496216 -1.49584 0
M  V30 5309 C 510.877 1.61508 -1.61215 0
M  V30 5310 C 511.855 1.55927 -0.461045 0
M  V30 5311 O 513.039 1.75914 -0.677231 0
M  V30 5312 C 510.166 3.00035 -1.57152 0
M  V30 5313 C 509.212 3.23861 -2.77518 0
M  V30 5314 S 510.045 3.06466 -4.39134 0
M  V30 5315 C 511.201 4.4738 -4.37724 0
M  V30 5316 H 511.434 1.51398 -2.55863 0
M  V30 5317 H 508.967 0.681727 -1.38535 0
M  V30 5318 H 510.925 3.7991 -1.55494 0
M  V30 5319 H 509.586 3.07556 -0.637834 0
M  V30 5320 H 508.779 4.25 -2.70908 0
M  V30 5321 H 508.381 2.51716 -2.76614 0
M  V30 5322 H 510.673 5.39556 -4.09738 0
M  V30 5323 H 511.616 4.59038 -5.39156 0
M  V30 5324 H 512.024 4.28283 -3.67742 0
M  V30 5325 N 511.423 1.38739 0.74761 0
M  V30 5326 C 512.839 1.20067 1.05148 0
M  V30 5327 C 513.039 0.0534835 2.01429 0
M  V30 5328 O 512.095 -0.59886 2.45296 0
M  V30 5329 C 513.408 2.52957 1.62584 0
M  V30 5330 C 514.956 2.59692 1.74726 0
M  V30 5331 C 515.431 3.92772 2.35573 0
M  V30 5332 N 516.922 3.94343 2.42997 0
M  V30 5333 C 517.657 4.9408 2.90985 0
M  V30 5334 N 517.153 6.04214 3.38965 0
M  V30 5335 N 518.946 4.81466 2.9008 0
M  V30 5336 H 511.097 2.12121 0.108808 0
M  V30 5337 H 513.36 0.941491 0.110899 0
M  V30 5338 H 513.066 3.37389 0.993051 0
M  V30 5339 H 512.94 2.71779 2.61565 0
M  V30 5340 H 515.327 1.75651 2.3713 0
M  V30 5341 H 515.408 2.44731 0.744326 0
M  V30 5342 H 515.052 4.77238 1.738 0
M  V30 5343 H 514.982 4.05046 3.36519 0
M  V30 5344 H 517.473 3.14799 2.0907 0
M  V30 5345 H 517.786 6.76241 3.74056 0
M  V30 5346 H 516.131 6.07825 3.37007 0
M  V30 5347 H 519.322 3.94535 2.51912 0
M  V30 5348 H 519.495 5.59344 3.27166 0
M  V30 5349 N 512.901 -0.976442 1.23707 0
M  V30 5350 C 514.178 -1.69296 0.979699 0
M  V30 5351 C 514.558 -2.0508 -0.500555 0
M  V30 5352 O 513.906 -1.74708 -1.47273 0
M  V30 5353 C 514.116 -2.93143 1.89389 0
M  V30 5354 C 515.464 -3.65572 2.15968 0
M  V30 5355 O 516.488 -3.03184 1.86971 0
M  V30 5356 O 515.347 -4.77859 2.65167 0
M  V30 5357 H 512.441 -0.739708 0.369812 0
M  V30 5358 H 514.987 -1.03131 1.34767 0
M  V30 5359 H 513.759 -2.63327 2.89439 0
M  V30 5360 H 513.382 -3.67044 1.52854 0
M  V30 5361 N 514.379 -1.04941 -1.1758 0
M  V30 5362 C 515.656 -0.671918 -1.83697 0
M  V30 5363 C 516.036 0.847929 -1.93322 0
M  V30 5364 O 515.384 1.75287 -1.46583 0
M  V30 5365 C 515.594 -1.35797 -3.21497 0
M  V30 5366 C 516.942 -1.4944 -3.97433 0
M  V30 5367 O 517.966 -1.31678 -3.30967 0
M  V30 5368 O 516.825 -1.78463 -5.1654 0
M  V30 5369 H 513.919 -0.236212 -0.792548 0
M  V30 5370 H 516.465 -1.14884 -1.24899 0
M  V30 5371 H 515.237 -2.39498 -3.09446 0
M  V30 5372 H 514.86 -0.870236 -3.8796 0
M  V30 5373 N 515.857 1.33968 -0.830081 0
M  V30 5374 C 516.82 2.27694 -0.26235 0
M  V30 5375 C 517.82 1.50589 0.563876 0
M  V30 5376 O 519.01 1.70028 0.378941 0
M  V30 5377 C 516.142 3.35002 0.63138 0
M  V30 5378 H 517.335 2.79419 -1.08928 0
M  V30 5379 H 514.888 1.44221 -0.602486 0
M  V30 5380 H 515.623 2.88504 1.48109 0
M  V30 5381 H 515.408 3.92079 0.0403276 0
M  V30 5382 H 516.898 4.04897 1.02217 0
M  V30 5383 N 517.335 0.585699 1.46312 0
M  V30 5384 C 518.563 0.0781299 2.06752 0
M  V30 5385 C 518.978 -1.22812 1.43396 0
M  V30 5386 O 518.335 -1.74318 0.540314 0
M  V30 5387 C 518.386 -0.0911927 3.61385 0
M  V30 5388 O 518.107 1.16336 4.22371 0
M  V30 5389 C 519.608 -0.632765 4.38761 0
M  V30 5390 H 516.828 0.0588188 0.668417 0
M  V30 5391 H 519.372 0.807218 1.87894 0
M  V30 5392 H 517.527 -0.770514 3.7966 0
M  V30 5393 H 517.941 0.979082 5.15281 0
M  V30 5394 H 519.415 -0.70041 5.47538 0
M  V30 5395 H 519.892 -1.65039 4.07012 0
M  V30 5396 H 520.498 0.0117856 4.25298 0
M  V30 5397 N 518.813 -1.54241 0.323641 0
M  V30 5398 C 520.062 -1.9975 -0.279806 0
M  V30 5399 C 520.375 -1.2156 -1.5324 0
M  V30 5400 O 521.581 -1.57447 -2.21185 0
M  V30 5401 C 520.037 -3.55686 -0.549115 0
M  V30 5402 C 519.645 -4.4271 0.686432 0
M  V30 5403 C 521.389 -4.09663 -1.11251 0
M  V30 5404 C 519.296 -5.90119 0.389022 0
M  V30 5405 H 518.226 -0.746177 -0.10833 0
M  V30 5406 H 520.877 -1.78248 0.435877 0
M  V30 5407 H 519.259 -3.73176 -1.32499 0
M  V30 5408 H 520.433 -4.36996 1.46188 0
M  V30 5409 H 518.748 -3.99623 1.17005 0
M  V30 5410 H 521.345 -5.17386 -1.34965 0
M  V30 5411 H 521.688 -3.61651 -2.06191 0
M  V30 5412 H 522.221 -3.95806 -0.39782 0
M  V30 5413 H 518.96 -6.42326 1.30759 0
M  V30 5414 H 518.48 -5.98785 -0.348722 0
M  V30 5415 H 520.159 -6.47 -0.0011164 0
M  V30 5416 N 520.291 -0.0518155 -1.57515 0
M  V30 5417 C 521.241 0.932017 -2.0808 0
M  V30 5418 C 522.225 1.27141 -0.986098 0
M  V30 5419 O 523.417 1.25373 -1.24943 0
M  V30 5420 C 520.546 2.20665 -2.62986 0
M  V30 5421 C 519.632 1.89462 -3.79427 0
M  V30 5422 N 520.023 1.28621 -4.89173 0
M  V30 5423 C 518.321 2.19327 -3.88345 0
M  V30 5424 C 519.022 1.15062 -5.70207 0
M  V30 5425 N 517.998 1.65372 -5.17835 0
M  V30 5426 H 521.8 0.456964 -2.90326 0
M  V30 5427 H 519.314 0.152619 -1.61681 0
M  V30 5428 H 521.311 2.92044 -2.97516 0
M  V30 5429 H 519.971 2.68776 -1.8218 0
M  V30 5430 H 520.982 0.958341 -5.08956 0
M  V30 5431 H 517.659 2.69955 -3.18482 0
M  V30 5432 H 519.049 0.678243 -6.68468 0
M  V30 5433 N 521.769 1.56035 0.221574 0
M  V30 5434 C 523.18 1.69229 0.788567 0
M  V30 5435 C 523.531 0.653814 1.84986 0
M  V30 5436 O 522.656 -0.195065 2.15519 0
M  V30 5437 C 523.251 3.06809 1.43713 0
M  V30 5438 C 521.81 3.21858 1.95152 0
M  V30 5439 C 520.957 2.65155 0.811685 0
M  V30 5440 H 523.908 1.587 -0.00307894 0
M  V30 5441 H 523.929 3.02666 2.30594 0
M  V30 5442 H 523.441 3.82369 0.664475 0
M  V30 5443 H 521.542 2.51167 2.7522 0
M  V30 5444 H 521.655 4.29073 2.1315 0
M  V30 5445 H 520.019 2.23635 1.21899 0
M  V30 5446 H 520.802 3.43261 0.0516987 0
M  V30 5447 N 523.247 -0.488276 1.49845 0
M  V30 5448 C 524.658 -1.06955 1.53028 0
M  V30 5449 C 525.009 -1.9351 0.323797 0
M  V30 5450 O 524.134 -2.08891 -0.565116 0
M  V30 5451 C 524.729 -1.94643 2.77307 0
M  V30 5452 C 523.288 -2.4791 2.83227 0
M  V30 5453 C 522.435 -1.25833 2.47106 0
M  V30 5454 H 525.386 -0.271626 1.56358 0
M  V30 5455 H 525.407 -2.79496 2.5819 0
M  V30 5456 H 524.919 -1.31621 3.65099 0
M  V30 5457 H 523.02 -3.14535 1.99745 0
M  V30 5458 H 523.133 -2.84193 3.85709 0
M  V30 5459 H 521.497 -1.58764 1.99163 0
M  V30 5460 H 522.28 -0.644993 3.37186 0
M  V30 5461 N 524.725 -1.39134 -0.740242 0
M  V30 5462 C 525.95 -1.39518 -1.53459 0
M  V30 5463 C 526.375 0.00968883 -1.88098 0
M  V30 5464 O 525.733 0.995312 -1.51536 0
M  V30 5465 C 525.781 -2.26981 -2.802 0
M  V30 5466 O 524.885 -1.69609 -3.75908 0
M  V30 5467 H 524.226 -0.475328 -0.463637 0
M  V30 5468 H 526.756 -1.83064 -0.913717 0
M  V30 5469 H 526.766 -2.41309 -3.28989 0
M  V30 5470 H 525.441 -3.29081 -2.5432 0
M  V30 5471 H 524.018 -1.64495 -3.34658 0
M  V30 5472 N 526.204 0.969867 -1.24223 0
M  V30 5473 C 527.481 1.68774 -0.988664 0
M  V30 5474 C 527.861 2.05342 0.489673 0
M  V30 5475 O 527.209 1.75486 1.46345 0
M  V30 5476 C 527.419 2.92135 -1.90941 0
M  V30 5477 C 528.767 3.64422 -2.17903 0
M  V30 5478 O 529.791 3.02188 -1.88576 0
M  V30 5479 O 528.65 4.76446 -2.67697 0
M  V30 5480 H 525.744 0.737736 -0.37373 0
M  V30 5481 H 528.29 1.02415 -1.35312 0
M  V30 5482 H 527.062 2.61788 -2.90831 0
M  V30 5483 H 526.685 3.66228 -1.54798 0
M  V30 5484 N 527.682 1.05563 1.17022 0
M  V30 5485 C 528.612 0.681026 2.23348 0
M  V30 5486 C 529.593 -0.322983 1.67005 0
M  V30 5487 O 530.778 -0.199746 1.9317 0
M  V30 5488 C 527.908 0.0589053 3.4725 0
M  V30 5489 C 526.862 0.988082 4.16438 0
M  V30 5490 C 526.188 0.229646 5.34207 0
M  V30 5491 C 527.488 2.31388 4.68249 0
M  V30 5492 H 529.182 1.56993 2.54938 0
M  V30 5493 H 526.728 0.756302 1.2254 0
M  V30 5494 H 528.681 -0.214982 4.20851 0
M  V30 5495 H 527.405 -0.864968 3.14938 0
M  V30 5496 H 526.064 1.24659 3.44754 0
M  V30 5497 H 525.712 -0.697111 4.98146 0
M  V30 5498 H 525.412 0.848815 5.81437 0
M  V30 5499 H 526.936 -0.0368694 6.10589 0
M  V30 5500 H 528.35 2.09964 5.33468 0
M  V30 5501 H 526.747 2.88736 5.26072 0
M  V30 5502 H 527.817 2.94982 3.84855 0
M  V30 5503 N 529.16 -1.33526 0.837174 0
M  V30 5504 C 530.406 -1.9813 0.432704 0
M  V30 5505 C 530.739 -1.66168 -1.00508 0
M  V30 5506 O 530.014 -0.94069 -1.70239 0
M  V30 5507 C 530.297 -3.54151 0.651834 0
M  V30 5508 C 530.15 -3.95806 2.13676 0
M  V30 5509 C 531.469 -4.39993 0.0968937 0
M  V30 5510 H 528.588 -0.719713 0.15869 0
M  V30 5511 H 531.23 -1.58193 1.05237 0
M  V30 5512 H 529.38 -3.88301 0.124369 0
M  V30 5513 H 531.052 -3.71921 2.72896 0
M  V30 5514 H 529.295 -3.45599 2.62191 0
M  V30 5515 H 529.966 -5.0447 2.24084 0
M  V30 5516 H 532.442 -4.12479 0.547733 0
M  V30 5517 H 531.318 -5.48186 0.279917 0
M  V30 5518 H 531.579 -4.3066 -0.9992 0
M  V30 5519 N 530.638 -0.59345 -1.46 0
M  V30 5520 C 531.568 0.121192 -2.33185 0
M  V30 5521 C 532.549 0.872977 -1.4599 0
M  V30 5522 O 533.734 0.846321 -1.74789 0
M  V30 5523 C 530.864 1.12844 -3.28456 0
M  V30 5524 C 529.818 0.4908 -4.25177 0
M  V30 5525 C 529.144 1.60529 -5.10034 0
M  V30 5526 C 530.444 -0.578949 -5.19081 0
M  V30 5527 H 532.138 -0.606767 -2.93187 0
M  V30 5528 H 529.684 -0.293242 -1.40983 0
M  V30 5529 H 531.637 1.63684 -3.88311 0
M  V30 5530 H 530.361 1.88681 -2.66584 0
M  V30 5531 H 529.02 0.00339328 -3.666 0
M  V30 5532 H 528.668 2.35359 -4.44539 0
M  V30 5533 H 528.368 1.18422 -5.75543 0
M  V30 5534 H 529.892 2.11623 -5.72755 0
M  V30 5535 H 531.306 -0.155199 -5.7309 0
M  V30 5536 H 529.703 -0.920947 -5.92991 0
M  V30 5537 H 530.773 -1.46109 -4.62364 0
M  V30 5538 N 532.116 1.54067 -0.331816 0
M  V30 5539 C 533.066 2.21363 0.546101 0
M  V30 5540 C 534.05 1.19698 1.07523 0
M  V30 5541 O 535.242 1.45293 1.01088 0
M  V30 5542 C 532.371 2.98115 1.70242 0
M  V30 5543 C 531.457 4.07127 1.18779 0
M  V30 5544 N 531.848 5.04267 0.393465 0
M  V30 5545 C 530.146 4.21226 1.46576 0
M  V30 5546 C 530.847 5.81585 0.115572 0
M  V30 5547 N 529.823 5.39022 0.703987 0
M  V30 5548 H 533.625 2.93821 -0.0679751 0
M  V30 5549 H 531.139 1.61812 -0.138085 0
M  V30 5550 H 533.136 3.44818 2.34321 0
M  V30 5551 H 531.796 2.27181 2.31989 0
M  V30 5552 H 532.807 5.17888 0.0355757 0
M  V30 5553 H 529.484 3.61509 2.08848 0
M  V30 5554 H 530.874 6.6985 -0.524426 0
M  V30 5555 N 533.594 0.0601682 1.57485 0
M  V30 5556 C 534.541 -0.91112 2.12055 0
M  V30 5557 C 535.511 -1.30298 1.03013 0
M  V30 5558 O 536.696 -1.39087 1.30612 0
M  V30 5559 C 533.836 -2.1775 2.67729 0
M  V30 5560 C 532.949 -1.83933 3.90887 0
M  V30 5561 C 532.084 -3.05096 4.34845 0
M  V30 5562 C 531.123 -2.67241 5.5068 0
M  V30 5563 N 530.26 -3.81127 5.8965 0
M  V30 5564 H 535.1 -0.43888 2.9475 0
M  V30 5565 H 532.637 -0.204995 1.45665 0
M  V30 5566 H 534.595 -2.91866 2.98111 0
M  V30 5567 H 533.225 -2.62535 1.87816 0
M  V30 5568 H 532.277 -0.999287 3.6704 0
M  V30 5569 H 533.589 -1.52074 4.75052 0
M  V30 5570 H 532.743 -3.87502 4.66827 0
M  V30 5571 H 531.482 -3.40139 3.49509 0
M  V30 5572 H 530.487 -1.83254 5.18361 0
M  V30 5573 H 531.712 -2.3338 6.37738 0
M  V30 5574 H 529.658 -4.15954 5.07266 0
M  V30 5575 H 529.575 -3.52997 6.68528 0
M  V30 5576 H 530.843 -4.64145 6.2625 0
M  V30 5577 N 535.072 -1.5615 -0.213296 0
M  V30 5578 C 536.349 -1.70349 -0.961281 0
M  V30 5579 C 536.729 -0.609791 -2.02101 0
M  V30 5580 O 536.077 0.381987 -2.25285 0
M  V30 5581 C 536.287 -3.11982 -1.56424 0
M  V30 5582 C 537.635 -3.71649 -2.05334 0
M  V30 5583 O 538.659 -3.14995 -1.66302 0
M  V30 5584 O 537.518 -4.71038 -2.77102 0
M  V30 5585 H 534.612 -0.694121 -0.449582 0
M  V30 5586 H 537.158 -1.68464 -0.204426 0
M  V30 5587 H 535.93 -3.83046 -0.799457 0
M  V30 5588 H 535.553 -3.18019 -2.38641 0
M  V30 5589 N 536.55 0.480323 -1.50102 0
M  V30 5590 C 537.5 1.57685 -1.6468 0
M  V30 5591 C 538.484 1.52878 -0.5017 0
M  V30 5592 O 539.676 1.60058 -0.755668 0
M  V30 5593 C 536.805 2.96185 -1.73578 0
M  V30 5594 C 535.891 3.0591 -2.93734 0
M  V30 5595 N 536.282 2.85471 -4.1754 0
M  V30 5596 C 534.58 3.37036 -2.92101 0
M  V30 5597 C 535.281 2.99921 -4.9842 0
M  V30 5598 N 534.257 3.29715 -4.32191 0
M  V30 5599 H 538.059 1.40568 -2.58104 0
M  V30 5600 H 535.573 0.686874 -1.47159 0
M  V30 5601 H 537.57 3.75015 -1.82124 0
M  V30 5602 H 536.23 3.14356 -0.813057 0
M  V30 5603 H 537.241 2.61235 -4.47188 0
M  V30 5604 H 533.918 3.61253 -2.09291 0
M  V30 5605 H 535.308 2.88436 -6.06839 0
M  V30 5606 N 538.028 1.39524 0.732853 0
M  V30 5607 C 539.274 1.37068 1.49467 0
M  V30 5608 C 539.607 -0.0327166 1.94172 0
M  V30 5609 O 538.882 -0.998071 1.66939 0
M  V30 5610 C 539.165 2.34494 2.73285 0
M  V30 5611 C 539.018 3.83784 2.34585 0
M  V30 5612 C 540.337 2.29717 3.75391 0
M  V30 5613 H 537.456 0.499206 0.542183 0
M  V30 5614 H 540.098 1.70532 0.837783 0
M  V30 5615 H 538.248 2.06087 3.29333 0
M  V30 5616 H 539.92 4.22949 1.84151 0
M  V30 5617 H 538.163 4.00455 1.66787 0
M  V30 5618 H 538.834 4.47444 3.23262 0
M  V30 5619 H 541.31 2.54839 3.28932 0
M  V30 5620 H 540.186 2.99962 4.59689 0
M  V30 5621 H 540.447 1.30291 4.22465 0
M  V30 5622 N 539.506 -0.963266 1.24736 0
M  V30 5623 C 540.436 -2.07628 1.06832 0
M  V30 5624 C 541.417 -1.70088 -0.0200566 0
M  V30 5625 O 542.602 -1.93636 0.147854 0
M  V30 5626 C 539.732 -3.40636 0.677069 0
M  V30 5627 C 538.686 -3.9215 1.71471 0
M  V30 5628 C 538.012 -5.21553 1.1784 0
M  V30 5629 C 539.312 -4.19493 3.11164 0
M  V30 5630 H 541.006 -2.22864 1.9993 0
M  V30 5631 H 538.552 -1.07093 0.96266 0
M  V30 5632 H 540.505 -4.17941 0.538792 0
M  V30 5633 H 539.229 -3.25313 -0.289612 0
M  V30 5634 H 537.888 -3.17005 1.84128 0
M  V30 5635 H 537.536 -5.02593 0.202195 0
M  V30 5636 H 537.236 -5.56988 1.87185 0
M  V30 5637 H 538.76 -6.01463 1.05233 0
M  V30 5638 H 540.174 -4.87487 3.01711 0
M  V30 5639 H 538.571 -4.66165 3.77902 0
M  V30 5640 H 539.641 -3.26097 3.58871 0
M  V30 5641 N 540.985 -1.06182 -1.16461 0
M  V30 5642 C 542.233 -0.776326 -1.86595 0
M  V30 5643 C 542.554 0.69921 -1.82033 0
M  V30 5644 O 541.824 1.50579 -1.2531 0
M  V30 5645 H 540.404 -0.284184 -0.690832 0
M  V30 5646 H 543.066 -1.34308 -1.41235 0
M  V30 5647 H 542.162 -1.10022 -2.92064 0
M  V30 5648 N 542.463 1.3308 -0.844243 0
M  V30 5649 C 543.874 1.7992 -0.498566 0
M  V30 5650 C 544.225 1.69808 0.982834 0
M  V30 5651 O 543.35 1.25051 1.7661 0
M  V30 5652 C 543.945 3.26677 -0.898204 0
M  V30 5653 C 542.504 3.71513 -0.604583 0
M  V30 5654 C 541.651 2.54393 -1.10362 0
M  V30 5655 H 544.602 1.20526 -1.03244 0
M  V30 5656 H 544.623 3.79918 -0.21039 0
M  V30 5657 H 544.135 3.34004 -1.97643 0
M  V30 5658 H 542.236 3.69708 0.46335 0
M  V30 5659 H 542.349 4.64755 -1.16358 0
M  V30 5660 H 540.713 2.49246 -0.524273 0
M  V30 5661 H 541.496 2.6448 -2.18873 0
M  V30 5662 N 543.941 0.601185 1.45683 0
M  V30 5663 C 544.873 -0.159446 2.28645 0
M  V30 5664 C 545.886 -0.837882 1.39583 0
M  V30 5665 O 547.075 -0.704344 1.64016 0
M  V30 5666 C 544.175 -1.24641 3.15147 0
M  V30 5667 C 543.348 -0.656334 4.32448 0
M  V30 5668 C 542.407 -1.63337 5.00208 0
M  V30 5669 O 541.433 -1.16217 5.57209 0
M  V30 5670 N 542.635 -2.96773 4.98905 0
M  V30 5671 H 545.4 0.5524 2.94565 0
M  V30 5672 H 542.961 0.440223 1.558 0
M  V30 5673 H 544.953 -1.8997 3.57342 0
M  V30 5674 H 543.523 -1.86087 2.51178 0
M  V30 5675 H 542.743 0.174879 3.93812 0
M  V30 5676 H 544.031 -0.242211 5.08223 0
M  V30 5677 H 543.429 -3.37662 4.53873 0
M  V30 5678 H 541.986 -3.57541 5.44984 0
M  V30 5679 N 545.419 -1.53889 0.339982 0
M  V30 5680 C 546.329 -2.28604 -0.526988 0
M  V30 5681 C 547.345 -1.33578 -1.11503 0
M  V30 5682 O 548.521 -1.66612 -1.13148 0
M  V30 5683 C 545.586 -3.04164 -1.66389 0
M  V30 5684 C 544.647 -4.14809 -1.10599 0
M  V30 5685 C 543.88 -4.86756 -2.18871 0
M  V30 5686 O 544.103 -4.58343 -3.39526 0
M  V30 5687 O 543.037 -5.73289 -1.83366 0
M  V30 5688 H 546.863 -3.03594 0.0802707 0
M  V30 5689 H 544.448 -1.4903 0.105141 0
M  V30 5690 H 546.33 -3.51427 -2.32544 0
M  V30 5691 H 545.005 -2.32035 -2.25703 0
M  V30 5692 H 543.912 -3.71857 -0.409067 0
M  V30 5693 H 545.245 -4.89029 -0.557771 0
M  V30 5694 N 546.897 -0.0685191 -1.57451 0
M  V30 5695 C 548.122 0.613919 -1.98106 0
M  V30 5696 C 548.547 1.62551 -0.946501 0
M  V30 5697 O 547.905 1.81085 0.0882824 0
M  V30 5698 C 547.953 1.26189 -3.378 0
M  V30 5699 O 547.057 2.37773 -3.36954 0
M  V30 5700 H 546.398 0.158163 -0.644888 0
M  V30 5701 H 548.928 -0.142063 -2.04106 0
M  V30 5702 H 548.938 1.60951 -3.74912 0
M  V30 5703 H 547.613 0.520625 -4.12629 0
M  V30 5704 H 546.19 2.04829 -3.11608 0
M  V30 5705 N 548.375 1.56261 0.205012 0
M  V30 5706 C 549.305 1.96779 1.257 0
M  V30 5707 C 550.286 0.838309 1.48008 0
M  V30 5708 O 551.471 1.10189 1.59913 0
M  V30 5709 C 548.601 2.29876 2.60335 0
M  V30 5710 C 547.555 3.45469 2.52656 0
M  V30 5711 C 546.881 3.64215 3.91473 0
M  V30 5712 C 548.181 4.79954 2.06014 0
M  V30 5713 H 549.875 2.84904 0.920338 0
M  V30 5714 H 547.421 1.37072 0.441277 0
M  V30 5715 H 549.374 2.56814 3.34102 0
M  V30 5716 H 548.098 1.38622 2.95722 0
M  V30 5717 H 546.757 3.18605 1.81345 0
M  V30 5718 H 546.405 2.70309 4.24196 0
M  V30 5719 H 546.105 4.41973 3.87213 0
M  V30 5720 H 547.629 3.93519 4.66878 0
M  V30 5721 H 549.043 5.05989 2.69533 0
M  V30 5722 H 547.44 5.61111 2.12777 0
M  V30 5723 H 548.51 4.74201 1.01297 0
M  V30 5724 N 549.853 -0.472356 1.50355 0
M  V30 5725 C 551.264 -1.05326 1.54154 0
M  V30 5726 C 551.615 -1.93155 0.344303 0
M  V30 5727 O 550.74 -2.09479 -0.542928 0
M  V30 5728 C 551.335 -1.91691 2.79356 0
M  V30 5729 C 549.894 -2.44892 2.8584 0
M  V30 5730 C 549.041 -1.23205 2.48426 0
M  V30 5731 H 551.992 -0.255027 1.56637 0
M  V30 5732 H 552.013 -2.76742 2.6114 0
M  V30 5733 H 551.525 -1.27741 3.66475 0
M  V30 5734 H 549.626 -3.12399 2.0307 0
M  V30 5735 H 549.739 -2.80086 3.88701 0
M  V30 5736 H 548.103 -1.56643 2.00836 0
M  V30 5737 H 548.886 -0.609194 3.37852 0
M  V30 5738 N 551.331 -1.39911 -0.725443 0
M  V30 5739 C 552.241 -1.41688 -1.8698 0
M  V30 5740 C 553.257 -0.310579 -1.71206 0
M  V30 5741 O 554.433 -0.55359 -1.93642 0
M  V30 5742 C 551.498 -1.26811 -3.22676 0
M  V30 5743 C 550.559 -2.47497 -3.50776 0
M  V30 5744 C 549.792 -2.3332 -4.79997 0
M  V30 5745 O 550.015 -1.34175 -5.54394 0
M  V30 5746 O 548.949 -3.22498 -5.08211 0
M  V30 5747 H 552.775 -2.38171 -1.88436 0
M  V30 5748 H 550.36 -1.21128 -0.874548 0
M  V30 5749 H 552.242 -1.20684 -4.03749 0
M  V30 5750 H 550.917 -0.334289 -3.21969 0
M  V30 5751 H 549.824 -2.59201 -2.69751 0
M  V30 5752 H 551.157 -3.39606 -3.5627 0
M  V30 5753 N 552.809 0.956637 -1.25245 0
M  V30 5754 C 553.719 2.0868 -1.0719 0
M  V30 5755 C 554.735 1.73997 -0.00959074 0
M  V30 5756 O 555.911 2.00301 -0.210104 0
M  V30 5757 C 552.976 3.39754 -0.690526 0
M  V30 5758 C 552.037 3.88316 -1.83055 0
M  V30 5759 C 551.27 5.13134 -1.46728 0
M  V30 5760 O 551.493 5.6925 -0.362029 0
M  V30 5761 O 550.427 5.56356 -2.29677 0
M  V30 5762 H 554.253 2.26813 -2.01965 0
M  V30 5763 H 551.838 1.07098 -1.04165 0
M  V30 5764 H 553.72 4.18543 -0.489871 0
M  V30 5765 H 552.395 3.22896 0.227981 0
M  V30 5766 H 551.302 3.1054 -2.08604 0
M  V30 5767 H 552.635 4.09669 -2.72822 0
M  V30 5768 N 554.287 1.06798 1.15896 0
M  V30 5769 C 555.515 0.808694 1.90441 0
M  V30 5770 C 555.93 -0.637506 1.77711 0
M  V30 5771 O 555.287 -1.43684 1.12522 0
M  V30 5772 C 555.338 1.20068 3.40978 0
M  V30 5773 O 555.059 2.59013 3.53333 0
M  V30 5774 C 556.56 0.96987 4.3256 0
M  V30 5775 H 553.78 0.292809 0.603742 0
M  V30 5776 H 556.324 1.42296 1.46874 0
M  V30 5777 H 554.479 0.630842 3.82229 0
M  V30 5778 H 554.893 2.7485 4.46719 0
M  V30 5779 H 556.367 1.29371 5.36626 0
M  V30 5780 H 556.844 -0.0941209 4.39099 0
M  V30 5781 H 557.45 1.52433 3.97044 0
M  V30 5782 N 555.766 -1.3263 0.851289 0
M  V30 5783 C 556.729 -2.27247 0.298541 0
M  V30 5784 C 557.729 -1.51467 -0.539847 0
M  V30 5785 O 558.919 -1.7061 -0.351843 0
M  V30 5786 C 556.051 -3.35964 -0.578004 0
M  V30 5787 H 557.244 -2.7765 1.13359 0
M  V30 5788 H 554.797 -1.43245 0.625354 0
M  V30 5789 H 555.532 -2.90823 -1.435 0
M  V30 5790 H 555.317 -3.92094 0.0220539 0
M  V30 5791 H 556.807 -4.06472 -0.957626 0
M  V30 5792 N 557.244 -0.608902 -1.45362 0
M  V30 5793 C 558.469 -0.10921 -2.07112 0
M  V30 5794 C 558.894 1.19779 -1.45033 0
M  V30 5795 O 558.252 1.72961 -0.543527 0
M  V30 5796 C 558.3 0.0155745 -3.60597 0
M  V30 5797 O 557.404 1.06546 -3.98399 0
M  V30 5798 H 556.745 -0.0746619 -0.659789 0
M  V30 5799 H 559.275 -0.839283 -1.86594 0
M  V30 5800 H 559.285 0.213364 -4.07442 0
M  V30 5801 H 557.96 -0.938765 -4.05167 0
M  V30 5802 H 556.537 0.844024 -3.63223 0
M  V30 5803 N 558.722 1.53707 -0.348139 0
M  V30 5804 C 559.947 2.05877 0.250883 0
M  V30 5805 C 560.372 1.22115 1.43072 0
M  V30 5806 O 559.73 0.235986 1.79758 0
M  V30 5807 C 559.778 3.54886 0.639416 0
M  V30 5808 O 558.882 3.73948 1.73888 0
M  V30 5809 H 558.223 0.662754 0.040653 0
M  V30 5810 H 560.753 1.98303 -0.503685 0
M  V30 5811 H 560.763 3.97601 0.915295 0
M  V30 5812 H 559.438 4.153 -0.223386 0
M  V30 5813 H 558.015 3.43134 1.45991 0
M  V30 5814 N 560.2 0.0768682 1.57412 0
M  V30 5815 C 561.611 -0.455037 1.8107 0
M  V30 5816 C 561.962 -1.69323 0.991162 0
M  V30 5817 O 561.087 -2.15328 0.215156 0
M  V30 5818 C 561.682 -0.832316 3.28417 0
M  V30 5819 C 560.241 -1.30906 3.52903 0
M  V30 5820 C 559.388 -0.296714 2.75708 0
M  V30 5821 H 562.339 0.302514 1.5579 0
M  V30 5822 H 562.36 -1.69333 3.40744 0
M  V30 5823 H 561.872 0.0690532 3.88039 0
M  V30 5824 H 559.973 -2.22875 2.98592 0
M  V30 5825 H 560.086 -1.28348 4.61588 0
M  V30 5826 H 558.45 -0.775059 2.42621 0
M  V30 5827 H 559.233 0.597015 3.38069 0
M  V30 5828 N 561.678 -1.56367 -0.196722 0
M  V30 5829 C 562.925 -1.80529 -0.917366 0
M  V30 5830 C 563.253 -0.649817 -1.83324 0
M  V30 5831 O 562.508 0.36451 -1.92275 0
M  V30 5832 C 562.807 -3.10663 -1.767 0
M  V30 5833 C 562.473 -4.3962 -1.00225 0
M  V30 5834 C 561.135 -4.74653 -0.791095 0
M  V30 5835 C 563.487 -5.1913 -0.464035 0
M  V30 5836 C 560.815 -5.86692 -0.0302155 0
M  V30 5837 C 563.167 -6.31964 0.283625 0
M  V30 5838 C 561.831 -6.65581 0.505813 0
M  V30 5839 H 561.101 -0.660602 -0.335688 0
M  V30 5840 H 563.748 -1.90615 -0.183844 0
M  V30 5841 H 562.053 -2.95807 -2.56915 0
M  V30 5842 H 563.75 -3.26563 -2.32718 0
M  V30 5843 H 560.34 -4.12127 -1.17684 0
M  V30 5844 H 564.524 -4.9248 -0.614575 0
M  V30 5845 H 559.78 -6.11211 0.151917 0
M  V30 5846 H 563.954 -6.92791 0.708057 0
M  V30 5847 H 561.581 -7.52239 1.0973 0
M  V30 5848 N 563.156 0.464375 -1.50603 0
M  V30 5849 C 564.384 1.23907 -1.65695 0
M  V30 5850 C 564.799 1.85658 -0.343027 0
M  V30 5851 O 564.156 1.69529 0.675739 0
M  V30 5852 C 564.207 2.3429 -2.75301 0
M  V30 5853 O 563.928 1.7507 -4.01599 0
M  V30 5854 C 565.429 3.25051 -3.01424 0
M  V30 5855 H 562.649 0.374485 -0.556778 0
M  V30 5856 H 565.193 0.55353 -1.96866 0
M  V30 5857 H 563.348 2.98607 -2.46804 0
M  V30 5858 H 563.762 2.47812 -4.62266 0
M  V30 5859 H 565.236 3.98699 -3.81763 0
M  V30 5860 H 565.713 3.84227 -2.12758 0
M  V30 5861 H 566.319 2.66463 -3.31477 0
M  V30 5862 N 564.634 1.40294 0.718013 0
M  V30 5863 C 565.566 1.36281 1.84283 0
M  V30 5864 C 566.579 0.268621 1.60569 0
M  V30 5865 O 567.768 0.528798 1.70487 0
M  V30 5866 C 564.868 1.09741 3.2064 0
M  V30 5867 C 564.041 2.30767 3.71571 0
M  V30 5868 C 563.1 2.00424 4.86535 0
M  V30 5869 O 562.126 2.73268 4.99313 0
M  V30 5870 N 563.328 0.980724 5.72156 0
M  V30 5871 H 566.093 2.3322 1.88225 0
M  V30 5872 H 563.654 1.34616 0.899453 0
M  V30 5873 H 565.646 0.874322 3.95143 0
M  V30 5874 H 564.216 0.214771 3.11861 0
M  V30 5875 H 563.436 2.68921 2.88228 0
M  V30 5876 H 564.724 3.11455 4.02335 0
M  V30 5877 H 564.122 0.377375 5.6444 0
M  V30 5878 H 562.679 0.817538 6.46653 0
M  V30 5879 N 566.112 -0.949982 1.2575 0
M  V30 5880 C 567.075 -2.02894 1.06615 0
M  V30 5881 C 568.075 -1.60791 0.0173905 0
M  V30 5882 O 569.265 -1.72249 0.260003 0
M  V30 5883 C 566.397 -3.35219 0.619751 0
M  V30 5884 H 567.59 -2.21302 2.02399 0
M  V30 5885 H 565.143 -1.12772 1.08223 0
M  V30 5886 H 565.878 -3.22508 -0.340486 0
M  V30 5887 H 565.663 -3.67129 1.37692 0
M  V30 5888 H 567.153 -4.14505 0.507443 0
M  V30 5889 N 567.59 -1.07411 -1.15328 0
M  V30 5890 C 569.006 -0.799759 -1.38116 0
M  V30 5891 C 569.206 0.59572 -1.92493 0
M  V30 5892 O 568.262 1.35433 -2.13106 0
M  V30 5893 C 569.575 -1.87407 -2.35158 0
M  V30 5894 C 571.123 -1.89889 -2.48819 0
M  V30 5895 C 571.598 -2.96406 -3.49153 0
M  V30 5896 N 573.089 -2.95512 -3.56689 0
M  V30 5897 C 573.824 -3.74575 -4.34144 0
M  V30 5898 N 573.32 -4.63488 -5.14928 0
M  V30 5899 N 575.113 -3.62919 -4.29239 0
M  V30 5900 H 567.264 -1.97411 -0.78374 0
M  V30 5901 H 569.527 -0.856113 -0.407154 0
M  V30 5902 H 569.233 -2.8768 -2.0232 0
M  V30 5903 H 569.107 -1.73471 -3.34944 0
M  V30 5904 H 571.494 -0.902677 -2.80955 0
M  V30 5905 H 571.575 -2.07904 -1.49029 0
M  V30 5906 H 571.219 -3.96227 -3.17752 0
M  V30 5907 H 571.149 -2.75638 -4.48699 0
M  V30 5908 H 573.64 -2.31061 -2.99031 0
M  V30 5909 H 573.953 -5.20445 -5.71276 0
M  V30 5910 H 572.298 -4.67537 -5.14232 0
M  V30 5911 H 575.489 -2.92833 -3.65194 0
M  V30 5912 H 575.662 -4.24777 -4.89355 0
M  V30 5913 N 569.068 1.32177 -0.85831 0
M  V30 5914 C 570.031 2.27086 -0.310588 0
M  V30 5915 C 571.031 1.51751 0.531806 0
M  V30 5916 O 572.221 1.70794 0.34279 0
M  V30 5917 C 569.353 3.36266 0.560179 0
M  V30 5918 H 570.546 2.77045 -1.1483 0
M  V30 5919 H 568.099 1.42911 -0.632942 0
M  V30 5920 H 568.834 2.9158 1.41956 0
M  V30 5921 H 568.619 3.92077 -0.0428473 0
M  V30 5922 H 570.109 4.06974 0.936056 0
M  V30 5923 N 570.547 0.616602 1.45037 0
M  V30 5924 C 571.497 -0.118543 2.27692 0
M  V30 5925 C 572.481 -0.830025 1.37838 0
M  V30 5926 O 573.673 -0.718528 1.6176 0
M  V30 5927 C 570.802 -1.10924 3.24886 0
M  V30 5928 C 569.888 -0.398134 4.22227 0
M  V30 5929 N 570.279 0.565233 5.02632 0
M  V30 5930 C 568.577 -0.644506 4.41319 0
M  V30 5931 C 569.278 0.984043 5.73316 0
M  V30 5932 N 568.254 0.325879 5.42622 0
M  V30 5933 H 572.056 0.621239 2.87259 0
M  V30 5934 H 569.57 0.440968 1.56299 0
M  V30 5935 H 571.567 -1.65038 3.82842 0
M  V30 5936 H 570.227 -1.84948 2.66879 0
M  V30 5937 H 571.238 0.942395 5.09254 0
M  V30 5938 H 567.915 -1.36873 3.94426 0
M  V30 5939 H 569.305 1.77911 6.47918 0
M  V30 5940 N 572.025 -1.5352 0.356285 0
M  V30 5941 C 573.271 -2.02104 -0.229271 0
M  V30 5942 C 573.626 -1.23923 -1.47176 0
M  V30 5943 O 572.919 -0.321957 -1.88876 0
M  V30 5944 C 573.113 -3.52607 -0.583369 0
M  V30 5945 C 572.942 -4.4536 0.623253 0
M  V30 5946 C 571.712 -4.92446 1.13248 0
M  V30 5947 C 573.91 -4.92375 1.48563 0
M  V30 5948 N 571.892 -5.69183 2.3001 0
M  V30 5949 C 573.263 -5.67362 2.50001 0
M  V30 5950 C 575.318 -4.74464 1.50959 0
M  V30 5951 C 574.021 -6.26341 3.5368 0
M  V30 5952 C 576.047 -5.34302 2.53526 0
M  V30 5953 C 575.409 -6.09166 3.53688 0
M  V30 5954 H 571.508 -0.780595 -0.0468602 0
M  V30 5955 H 574.092 -1.88204 0.49873 0
M  V30 5956 H 572.263 -3.66686 -1.28046 0
M  V30 5957 H 573.995 -3.87922 -1.15321 0
M  V30 5958 H 570.75 -4.6842 0.698562 0
M  V30 5959 H 571.174 -6.12216 2.88998 0
M  V30 5960 H 575.816 -4.16117 0.748785 0
M  V30 5961 H 573.534 -6.8379 4.30648 0
M  V30 5962 H 577.12 -5.22342 2.56223 0
M  V30 5963 H 576 -6.54644 4.31753 0
M  V30 5964 N 573.503 -0.0852151 -1.57369 0
M  V30 5965 C 574.75 0.580806 -1.93992 0
M  V30 5966 C 575.078 1.68801 -0.966252 0
M  V30 5967 O 574.333 1.95694 0.0158649 0
M  V30 5968 C 574.632 1.18482 -3.3719 0
M  V30 5969 C 574.298 0.2024 -4.50446 0
M  V30 5970 C 572.96 -0.0678318 -4.81152 0
M  V30 5971 C 575.312 -0.46895 -5.19086 0
M  V30 5972 C 572.64 -1.01627 -5.77831 0
M  V30 5973 C 574.992 -1.4058 -6.16782 0
M  V30 5974 C 573.656 -1.68436 -6.45899 0
M  V30 5975 H 572.926 0.212532 -0.709867 0
M  V30 5976 H 575.573 -0.158947 -1.90839 0
M  V30 5977 H 573.878 2.0006 -3.36873 0
M  V30 5978 H 575.575 1.70767 -3.62822 0
M  V30 5979 H 572.165 0.423208 -4.26505 0
M  V30 5980 H 576.349 -0.273307 -4.95547 0
M  V30 5981 H 571.605 -1.2392 -5.9871 0
M  V30 5982 H 575.779 -1.93188 -6.69068 0
M  V30 5983 H 573.406 -2.42088 -7.20623 0
M  V30 5984 N 574.981 1.5647 0.188427 0
M  V30 5985 C 576.397 1.50204 0.539532 0
M  V30 5986 C 576.597 0.78644 1.85519 0
M  V30 5987 O 575.653 0.339714 2.50204 0
M  V30 5988 C 576.966 2.94893 0.588103 0
M  V30 5989 C 578.514 3.05602 0.67648 0
M  V30 5990 C 578.989 4.51716 0.756101 0
M  V30 5991 N 580.48 4.55894 0.819451 0
M  V30 5992 C 581.215 5.66272 0.90134 0
M  V30 5993 N 580.711 6.86323 0.945118 0
M  V30 5994 N 582.504 5.54201 0.939043 0
M  V30 5995 H 574.655 2.01406 -0.674493 0
M  V30 5996 H 576.918 0.916828 -0.241103 0
M  V30 5997 H 576.624 3.50334 -0.309633 0
M  V30 5998 H 576.498 3.4861 1.44051 0
M  V30 5999 H 578.885 2.50206 1.56465 0
M  V30 6000 H 578.966 2.54999 -0.202262 0
M  V30 6001 H 578.61 5.07739 -0.12774 0
M  V30 6002 H 578.54 5.00058 1.65074 0
M  V30 6003 H 581.031 3.69452 0.794594 0
M  V30 6004 H 581.344 7.66194 1.0083 0
M  V30 6005 H 579.689 6.88968 0.913683 0
M  V30 6006 H 582.88 4.59333 0.901725 0
M  V30 6007 H 583.053 6.40247 0.999402 0
M  V30 6008 N 576.459 -0.456382 1.50847 0
M  V30 6009 C 577.422 -1.53493 1.70213 0
M  V30 6010 C 578.422 -1.50264 0.572481 0
M  V30 6011 O 579.612 -1.52623 0.839751 0
M  V30 6012 C 576.744 -2.93091 1.741 0
M  V30 6013 H 577.937 -1.37633 2.66453 0
M  V30 6014 H 575.49 -0.683776 1.4055 0
M  V30 6015 H 576.225 -3.14378 0.796063 0
M  V30 6016 H 576.01 -2.9684 2.5618 0
M  V30 6017 H 577.5 -3.71368 1.90987 0
M  V30 6018 N 577.937 -1.40673 -0.710563 0
M  V30 6019 C 579.183 -1.39428 -1.47267 0
M  V30 6020 C 579.516 0.00182129 -1.942 0
M  V30 6021 O 578.791 0.971387 -1.68506 0
M  V30 6022 C 579.074 -2.38812 -2.6952 0
M  V30 6023 C 578.927 -3.87467 -2.28449 0
M  V30 6024 C 580.246 -2.3566 -3.71689 0
M  V30 6025 H 577.365 -0.507768 -0.534173 0
M  V30 6026 H 580.007 -1.71843 -0.810547 0
M  V30 6027 H 578.157 -2.113 -3.26013 0
M  V30 6028 H 579.829 -4.25825 -1.77399 0
M  V30 6029 H 578.072 -4.03058 -1.60395 0
M  V30 6030 H 578.743 -4.5253 -3.16103 0
M  V30 6031 H 581.219 -2.6004 -3.24836 0
M  V30 6032 H 580.095 -3.07237 -4.54859 0
M  V30 6033 H 580.356 -1.36996 -4.20339 0
M  V30 6034 N 579.415 0.9433 -1.26252 0
M  V30 6035 C 580.643 1.72367 -1.14443 0
M  V30 6036 C 581.058 1.86392 0.300572 0
M  V30 6037 O 580.415 1.36978 1.20596 0
M  V30 6038 C 580.466 3.13155 -1.806 0
M  V30 6039 O 580.187 2.99803 -3.19452 0
M  V30 6040 C 581.688 4.07417 -1.74717 0
M  V30 6041 H 578.908 0.539758 -0.398626 0
M  V30 6042 H 581.452 1.18268 -1.66832 0
M  V30 6043 H 579.607 3.64162 -1.32154 0
M  V30 6044 H 580.021 3.88697 -3.52158 0
M  V30 6045 H 581.495 5.03773 -2.25647 0
M  V30 6046 H 581.972 4.3337 -0.713244 0
M  V30 6047 H 582.578 3.6233 -2.22704 0
M  V30 6048 N 580.893 1.08022 1.14757 0
M  V30 6049 C 581.84 0.706657 2.19716 0
M  V30 6050 C 582.81 -0.30525 1.63271 0
M  V30 6051 O 583.995 -0.19015 1.8985 0
M  V30 6052 C 581.135 0.117914 3.44898 0
M  V30 6053 C 580.248 1.18212 4.15512 0
M  V30 6054 C 579.383 0.557659 5.28265 0
M  V30 6055 C 578.422 1.60418 5.90705 0
M  V30 6056 N 577.559 1.0018 6.94916 0
M  V30 6057 H 582.399 1.60603 2.51019 0
M  V30 6058 H 579.936 0.802664 1.23271 0
M  V30 6059 H 581.894 -0.241112 4.16503 0
M  V30 6060 H 580.524 -0.744788 3.1409 0
M  V30 6061 H 579.576 1.65863 3.42335 0
M  V30 6062 H 580.888 1.97533 4.5802 0
M  V30 6063 H 580.042 0.146654 6.06523 0
M  V30 6064 H 578.781 -0.267249 4.86967 0
M  V30 6065 H 577.786 2.02489 5.11154 0
M  V30 6066 H 579.011 2.43149 6.34078 0
M  V30 6067 H 576.957 0.197917 6.55701 0
M  V30 6068 H 576.874 1.73216 7.35889 0
M  V30 6069 H 578.142 0.616523 7.77058 0
M  V30 6070 N 582.371 -1.3172 0.865308 0
M  V30 6071 C 583.617 -1.97168 0.474633 0
M  V30 6072 C 583.95 -1.68263 -0.969604 0
M  V30 6073 O 583.225 -0.976588 -1.68205 0
M  V30 6074 C 583.508 -3.52689 0.726808 0
M  V30 6075 C 583.361 -3.91185 2.22024 0
M  V30 6076 C 584.68 -4.39689 0.190201 0
M  V30 6077 H 581.799 -0.716185 0.17392 0
M  V30 6078 H 584.441 -1.55925 1.08569 0
M  V30 6079 H 582.591 -3.8795 0.206705 0
M  V30 6080 H 584.263 -3.66049 2.80724 0
M  V30 6081 H 582.506 -3.3996 2.69462 0
M  V30 6082 H 583.177 -4.99604 2.34735 0
M  V30 6083 H 585.653 -4.11225 0.635103 0
M  V30 6084 H 584.529 -5.47469 0.396132 0
M  V30 6085 H 584.79 -4.32683 -0.907625 0
M  V30 6086 N 583.85 -0.624285 -1.44708 0
M  V30 6087 C 585.266 -0.289322 -1.56956 0
M  V30 6088 C 585.466 1.20773 -1.61295 0
M  V30 6089 O 584.522 1.9915 -1.55227 0
M  V30 6090 C 585.835 -0.975215 -2.84447 0
M  V30 6091 C 587.383 -0.952709 -2.98148 0
M  V30 6092 C 587.858 -1.61893 -4.28433 0
M  V30 6093 N 589.349 -1.5852 -4.35231 0
M  V30 6094 C 590.084 -2.06969 -5.34744 0
M  V30 6095 N 589.58 -2.63579 -6.40701 0
M  V30 6096 N 591.373 -1.97638 -5.26209 0
M  V30 6097 H 583.524 -1.59612 -1.40135 0
M  V30 6098 H 585.787 -0.669592 -0.671081 0
M  V30 6099 H 585.493 -2.02999 -2.87201 0
M  V30 6100 H 585.367 -0.508749 -3.73753 0
M  V30 6101 H 587.754 0.093568 -2.94952 0
M  V30 6102 H 587.835 -1.4576 -2.10209 0
M  V30 6103 H 587.479 -2.66463 -4.32389 0
M  V30 6104 H 587.409 -1.08893 -5.15218 0
M  V30 6105 H 589.899 -1.17183 -3.59272 0
M  V30 6106 H 590.213 -2.98298 -7.12908 0
M  V30 6107 H 588.558 -2.67626 -6.41406 0
M  V30 6108 H 591.749 -1.5314 -4.42341 0
M  V30 6109 H 591.922 -2.35708 -6.03611 0
M  V30 6110 N 585.328 1.53329 -0.364422 0
M  V30 6111 C 586.258 2.28627 0.474543 0
M  V30 6112 C 587.239 1.31009 1.08492 0
M  V30 6113 O 588.424 1.59878 1.10239 0
M  V30 6114 C 585.554 3.07465 1.61501 0
M  V30 6115 C 584.508 4.1276 1.13194 0
M  V30 6116 C 583.834 4.79674 2.36255 0
M  V30 6117 C 585.134 5.21847 0.217507 0
M  V30 6118 H 586.828 2.99005 -0.153656 0
M  V30 6119 H 584.374 1.43803 -0.0753406 0
M  V30 6120 H 586.327 3.58889 2.20855 0
M  V30 6121 H 585.051 2.34775 2.27042 0
M  V30 6122 H 583.71 3.62281 0.56109 0
M  V30 6123 H 583.358 4.03557 3.00251 0
M  V30 6124 H 583.058 5.50827 2.04606 0
M  V30 6125 H 584.582 5.33892 2.96297 0
M  V30 6126 H 585.996 5.6878 0.718493 0
M  V30 6127 H 584.393 6.00099 -0.00806408 0
M  V30 6128 H 585.463 4.7921 -0.740653 0
M  V30 6129 N 586.806 0.0935595 1.57322 0
M  V30 6130 C 587.738 -0.895923 2.10964 0
M  V30 6131 C 588.751 -1.24705 1.04654 0
M  V30 6132 O 589.94 -1.20044 1.32105 0
M  V30 6133 C 587.04 -2.20546 2.57318 0
M  V30 6134 C 586.213 -2.0299 3.87445 0
M  V30 6135 C 585.272 -3.17443 4.19662 0
M  V30 6136 O 584.298 -2.91474 4.88909 0
M  V30 6137 N 585.5 -4.43168 3.74943 0
M  V30 6138 H 588.265 -0.437788 2.96485 0
M  V30 6139 H 585.826 -0.0915863 1.61641 0
M  V30 6140 H 587.818 -2.9606 2.75917 0
M  V30 6141 H 586.388 -2.57789 1.76816 0
M  V30 6142 H 585.608 -1.11815 3.78009 0
M  V30 6143 H 586.896 -1.88535 4.7258 0
M  V30 6144 H 586.294 -4.67149 3.19043 0
M  V30 6145 H 584.851 -5.15637 3.987 0
M  V30 6146 N 588.284 -1.56567 -0.180126 0
M  V30 6147 C 589.214 -1.98753 -1.22553 0
M  V30 6148 C 590.195 -0.86175 -1.46656 0
M  V30 6149 O 591.38 -1.12719 -1.58139 0
M  V30 6150 C 588.51 -2.33988 -2.56645 0
M  V30 6151 C 587.464 -3.49445 -2.47128 0
M  V30 6152 C 586.79 -3.70397 -3.8563 0
M  V30 6153 C 588.09 -4.83171 -1.98352 0
M  V30 6154 H 589.784 -2.86332 -0.874896 0
M  V30 6155 H 587.33 -1.37757 -0.419414 0
M  V30 6156 H 589.283 -2.62097 -3.29974 0
M  V30 6157 H 588.007 -1.43309 -2.93479 0
M  V30 6158 H 586.666 -3.2145 -1.76254 0
M  V30 6159 H 586.314 -2.77023 -4.19842 0
M  V30 6160 H 586.014 -4.48077 -3.80132 0
M  V30 6161 H 587.538 -4.00897 -4.60558 0
M  V30 6162 H 588.952 -5.10213 -2.61449 0
M  V30 6163 H 587.349 -5.64425 -2.03823 0
M  V30 6164 H 588.419 -4.75753 -0.937402 0
M  V30 6165 N 589.762 0.448376 -1.51087 0
M  V30 6166 C 590.694 1.56146 -1.67783 0
M  V30 6167 C 591.707 1.52913 -0.55871 0
M  V30 6168 O 592.896 1.57889 -0.83267 0
M  V30 6169 C 589.996 2.95057 -1.66716 0
M  V30 6170 C 589.169 3.22915 -2.95033 0
M  V30 6171 C 588.228 4.41495 -2.86302 0
M  V30 6172 O 587.254 4.40688 -3.60254 0
M  V30 6173 N 588.456 5.44443 -2.014 0
M  V30 6174 H 591.221 1.42232 -2.638 0
M  V30 6175 H 588.782 0.637153 -1.48835 0
M  V30 6176 H 590.774 3.72388 -1.58458 0
M  V30 6177 H 589.344 3.02624 -0.783403 0
M  V30 6178 H 588.564 2.33985 -3.17245 0
M  V30 6179 H 589.852 3.38349 -3.79996 0
M  V30 6180 H 589.25 5.4793 -1.40674 0
M  V30 6181 H 587.807 6.2067 -1.99029 0
M  V30 6182 N 591.24 1.41047 0.703093 0
M  V30 6183 C 592.15 1.44645 1.84703 0
M  V30 6184 C 593.166 0.337778 1.7069 0
M  V30 6185 O 594.342 0.584327 1.92737 0
M  V30 6186 C 591.407 1.31928 3.20618 0
M  V30 6187 C 590.468 2.53047 3.46794 0
M  V30 6188 C 589.701 2.40927 4.76224 0
M  V30 6189 O 589.924 1.42978 5.5219 0
M  V30 6190 O 588.858 3.30543 5.03016 0
M  V30 6191 H 592.684 2.41139 1.84624 0
M  V30 6192 H 590.269 1.22504 0.855167 0
M  V30 6193 H 592.151 1.27092 4.01778 0
M  V30 6194 H 590.826 0.385469 3.21397 0
M  V30 6195 H 589.733 2.6346 2.65593 0
M  V30 6196 H 591.066 3.45231 3.50822 0
M  V30 6197 N 592.718 -0.936591 1.26751 0
M  V30 6198 C 593.967 -1.67778 1.11953 0
M  V30 6199 C 594.28 -1.92694 -0.33589 0
M  V30 6200 O 595.486 -2.64682 -0.604618 0
M  V30 6201 C 593.942 -3.02138 1.95551 0
M  V30 6202 C 593.55 -2.84953 3.45696 0
M  V30 6203 C 595.294 -3.79917 1.89377 0
M  V30 6204 C 593.201 -4.14814 4.21525 0
M  V30 6205 H 592.131 -0.629275 0.415366 0
M  V30 6206 H 594.782 -1.04122 1.51099 0
M  V30 6207 H 593.164 -3.668 1.49243 0
M  V30 6208 H 594.338 -2.29112 3.99805 0
M  V30 6209 H 592.653 -2.20612 3.53156 0
M  V30 6210 H 595.25 -4.76134 2.43312 0
M  V30 6211 H 595.593 -4.07204 0.865464 0
M  V30 6212 H 596.126 -3.22037 2.33532 0
M  V30 6213 H 592.865 -3.92709 5.24843 0
M  V30 6214 H 592.385 -4.70352 3.72195 0
M  V30 6215 H 594.064 -4.83239 4.3022 0
M  V30 6216 N 594.196 -1.08629 -1.14182 0
M  V30 6217 C 595.421 -0.83902 -1.89671 0
M  V30 6218 C 595.846 0.603332 -1.78161 0
M  V30 6219 O 595.204 1.42301 -1.12339 0
M  V30 6220 C 595.252 -1.26854 -3.37551 0
M  V30 6221 O 594.356 -0.42188 -4.10236 0
M  V30 6222 H 593.697 -0.304545 -0.590041 0
M  V30 6223 H 596.227 -1.4483 -1.44518 0
M  V30 6224 H 596.237 -1.25038 -3.88368 0
M  V30 6225 H 594.912 -2.31901 -3.45246 0
M  V30 6226 H 593.489 -0.503654 -3.69483 0
M  V30 6227 N 595.674 1.31259 -0.872281 0
M  V30 6228 C 596.951 1.91362 -0.404943 0
M  V30 6229 C 597.331 1.79362 1.11321 0
M  V30 6230 O 596.679 1.20277 1.94283 0
M  V30 6231 C 596.889 3.3749 -0.888893 0
M  V30 6232 C 598.237 4.14593 -0.916384 0
M  V30 6233 O 599.261 3.46282 -0.834701 0
M  V30 6234 O 598.12 5.3661 -1.03498 0
M  V30 6235 H 595.214 0.818016 -0.121569 0
M  V30 6236 H 597.76 1.39912 -0.960346 0
M  V30 6237 H 596.532 3.40249 -1.93251 0
M  V30 6238 H 596.155 3.96375 -0.311932 0
M  V30 6239 N 597.152 0.631951 1.44375 0
M  V30 6240 C 598.429 0.067646 1.95483 0
M  V30 6241 C 598.809 -1.40683 1.57389 0
M  V30 6242 O 598.157 -2.12167 0.848375 0
M  V30 6243 C 598.367 0.291392 3.47781 0
M  V30 6244 C 599.715 0.185028 4.24197 0
M  V30 6245 O 600.739 0.222803 3.55503 0
M  V30 6246 O 599.598 0.0906642 5.46425 0
M  V30 6247 H 596.692 -0.0218379 0.826712 0
M  V30 6248 H 599.238 0.703711 1.54421 0
M  V30 6249 H 598.01 1.31449 3.68561 0
M  V30 6250 H 597.633 -0.378772 3.95792 0
M  V30 6251 N 598.631 -1.53133 0.372548 0
M  V30 6252 C 599.879 -2.00958 -0.214534 0
M  V30 6253 C 600.2 -1.26135 -1.48711 0
M  V30 6254 O 599.47 -0.376597 -1.92246 0
M  V30 6255 H 598.05 -0.742456 -0.0822664 0
M  V30 6256 H 600.712 -1.88367 0.500385 0
M  V30 6257 H 599.808 -3.09031 -0.436605 0
M  V30 6258 N 600.109 -0.101901 -1.5727 0
M  V30 6259 C 601.386 0.602832 -1.86079 0
M  V30 6260 C 601.766 1.85912 -1 0
M  V30 6261 O 601.114 2.28379 -0.0742488 0
M  V30 6262 C 601.324 0.911694 -3.36881 0
M  V30 6263 C 602.672 1.2722 -4.05093 0
M  V30 6264 O 603.696 1.0025 -3.41802 0
M  V30 6265 O 602.555 1.7776 -5.16782 0
M  V30 6266 H 599.649 0.302366 -0.769743 0
M  V30 6267 H 602.195 -0.135113 -1.69161 0
M  V30 6268 H 600.967 0.0207256 -3.91295 0
M  V30 6269 H 600.59 1.70538 -3.59169 0
M  V30 6270 N 601.587 1.56661 0.17182 0
M  V30 6271 C 602.998 1.71652 0.734329 0
M  V30 6272 C 603.349 0.712335 1.82812 0
M  V30 6273 O 602.474 -0.126401 2.16031 0
M  V30 6274 C 603.069 3.11226 1.3388 0
M  V30 6275 C 601.628 3.27904 1.84813 0
M  V30 6276 C 600.775 2.67603 0.726917 0
M  V30 6277 H 603.726 1.5861 -0.0535665 0
M  V30 6278 H 603.747 3.09849 2.20849 0
M  V30 6279 H 603.259 3.8429 0.54249 0
M  V30 6280 H 601.36 2.59796 2.6709 0
M  V30 6281 H 601.473 4.35637 1.99392 0
M  V30 6282 H 599.837 2.274 1.14723 0
M  V30 6283 H 600.62 3.43252 -0.0575334 0
M  V30 6284 N 603.065 -0.440357 1.51323 0
M  V30 6285 C 604.29 -1.21716 1.67928 0
M  V30 6286 C 604.715 -1.84328 0.374826 0
M  V30 6287 O 604.073 -1.68675 -0.664706 0
M  V30 6288 C 604.121 -2.27914 2.79442 0
M  V30 6289 O 603.225 -3.33325 2.42834 0
M  V30 6290 H 602.566 -0.35674 0.560029 0
M  V30 6291 H 605.096 -0.520417 1.97871 0
M  V30 6292 H 605.106 -2.72746 3.03436 0
M  V30 6293 H 603.781 -1.8172 3.741 0
M  V30 6294 H 602.358 -2.9399 2.294 0
M  V30 6295 N 604.543 -1.41418 -0.695603 0
M  V30 6296 C 605.473 -1.46035 -1.82197 0
M  V30 6297 C 606.454 -0.319025 -1.67082 0
M  V30 6298 O 607.639 -0.530462 -1.86815 0
M  V30 6299 C 604.769 -1.34179 -3.20333 0
M  V30 6300 C 603.723 -2.46123 -3.50154 0
M  V30 6301 C 603.049 -2.19332 -4.87645 0
M  V30 6302 C 604.349 -3.88463 -3.49133 0
M  V30 6303 H 606.043 -2.40303 -1.78591 0
M  V30 6304 H 603.589 -1.15663 -0.857797 0
M  V30 6305 H 605.542 -1.36021 -3.98844 0
M  V30 6306 H 604.266 -0.363952 -3.24566 0
M  V30 6307 H 602.925 -2.43563 -2.73994 0
M  V30 6308 H 602.573 -1.19891 -4.88503 0
M  V30 6309 H 602.273 -2.94344 -5.08562 0
M  V30 6310 H 603.797 -2.22889 -5.68465 0
M  V30 6311 H 605.211 -3.92738 -4.17648 0
M  V30 6312 H 603.608 -4.63158 -3.81582 0
M  V30 6313 H 604.678 -4.16617 -2.48109 0
M  V30 6314 N 606.021 0.929856 -1.27246 0
M  V30 6315 C 607.432 1.49223 -1.12203 0
M  V30 6316 C 607.783 1.93989 0.293731 0
M  V30 6317 O 606.908 1.80978 1.18642 0
M  V30 6318 C 607.503 2.71198 -2.0307 0
M  V30 6319 C 606.062 3.23666 -1.92139 0
M  V30 6320 C 605.209 1.96409 -1.95752 0
M  V30 6321 H 608.16 0.744181 -1.4017 0
M  V30 6322 H 608.181 3.45905 -1.58524 0
M  V30 6323 H 607.693 2.38585 -3.06102 0
M  V30 6324 H 605.794 3.61042 -0.920834 0
M  V30 6325 H 605.907 3.90006 -2.78267 0
M  V30 6326 H 604.271 2.12806 -1.39949 0
M  V30 6327 H 605.054 1.66113 -3.00436 0
M  V30 6328 N 607.499 1.09233 1.13605 0
M  V30 6329 C 608.431 0.687794 2.18637 0
M  V30 6330 C 609.444 -0.26936 1.60556 0
M  V30 6331 O 610.633 -0.0557162 1.78413 0
M  V30 6332 C 607.733 -0.00751901 3.38899 0
M  V30 6333 C 606.906 0.97067 4.26494 0
M  V30 6334 C 605.965 0.309129 5.25291 0
M  V30 6335 O 604.991 0.956149 5.61112 0
M  V30 6336 N 606.193 -0.937555 5.72879 0
M  V30 6337 H 608.958 1.59141 2.53957 0
M  V30 6338 H 606.519 0.979515 1.28907 0
M  V30 6339 H 608.511 -0.461238 4.02063 0
M  V30 6340 H 607.081 -0.813353 3.01833 0
M  V30 6341 H 606.301 1.603 3.60135 0
M  V30 6342 H 607.589 1.63323 4.81875 0
M  V30 6343 H 606.987 -1.48281 5.4592 0
M  V30 6344 H 605.544 -1.33463 6.3799 0
M  V30 6345 N 608.977 -1.30795 0.87923 0
M  V30 6346 C 610.223 -1.97035 0.50487 0
M  V30 6347 C 610.578 -1.68182 -0.934484 0
M  V30 6348 O 609.871 -0.972953 -1.65058 0
M  V30 6349 C 610.065 -3.50287 0.709476 0
M  V30 6350 C 609.894 -3.94035 2.16717 0
M  V30 6351 C 608.664 -4.1992 2.81061 0
M  V30 6352 C 610.862 -4.07288 3.1404 0
M  V30 6353 N 608.844 -4.50088 4.17486 0
M  V30 6354 C 610.215 -4.41273 4.35521 0
M  V30 6355 C 612.27 -3.89696 3.09906 0
M  V30 6356 C 610.973 -4.59501 5.534 0
M  V30 6357 C 612.999 -4.09122 4.27052 0
M  V30 6358 C 612.361 -4.43447 5.47297 0
M  V30 6359 H 608.46 -0.746181 0.233962 0
M  V30 6360 H 611.044 -1.5814 1.13577 0
M  V30 6361 H 609.215 -3.8825 0.108108 0
M  V30 6362 H 610.947 -4.03567 0.302585 0
M  V30 6363 H 607.702 -4.12906 2.3196 0
M  V30 6364 H 608.126 -4.69316 4.87926 0
M  V30 6365 H 612.768 -3.62239 2.18043 0
M  V30 6366 H 610.486 -4.85802 6.45773 0
M  V30 6367 H 614.072 -3.96985 4.25316 0
M  V30 6368 H 612.952 -4.58171 6.36435 0
M  V30 6369 N 610.455 -0.639598 -1.44038 0
M  V30 6370 C 611.385 0.0469443 -2.33453 0
M  V30 6371 C 612.366 0.82609 -1.48694 0
M  V30 6372 O 613.551 0.790285 -1.77393 0
M  V30 6373 C 610.681 1.02338 -3.3188 0
M  V30 6374 C 609.635 0.355284 -4.26523 0
M  V30 6375 C 608.961 1.44221 -5.14883 0
M  V30 6376 C 610.261 -0.743798 -5.16977 0
M  V30 6377 H 611.955 -0.699735 -2.91108 0
M  V30 6378 H 609.501 -0.337946 -1.39978 0
M  V30 6379 H 611.454 1.51247 -3.93322 0
M  V30 6380 H 610.178 1.80105 -2.72451 0
M  V30 6381 H 608.837 -0.113239 -3.66425 0
M  V30 6382 H 608.485 2.21097 -4.51802 0
M  V30 6383 H 608.185 1.00052 -5.79019 0
M  V30 6384 H 609.709 1.93295 -5.79197 0
M  V30 6385 H 611.123 -0.337444 -5.72306 0
M  V30 6386 H 609.52 -1.10914 -5.89761 0
M  V30 6387 H 610.59 -1.60745 -4.57481 0
M  V30 6388 N 611.933 1.52934 -0.380664 0
M  V30 6389 C 613.344 1.86457 0.0952684 0
M  V30 6390 C 613.695 1.3007 1.46889 0
M  V30 6391 O 612.82 0.628636 2.07068 0
M  V30 6392 C 613.415 3.38323 0.179648 0
M  V30 6393 C 611.974 3.71589 0.599858 0
M  V30 6394 C 611.121 2.76228 -0.243572 0
M  V30 6395 H 614.072 1.46966 -0.59888 0
M  V30 6396 H 614.093 3.67113 1.00042 0
M  V30 6397 H 613.605 3.79333 -0.820228 0
M  V30 6398 H 611.706 3.36144 1.60742 0
M  V30 6399 H 611.819 4.77715 0.364003 0
M  V30 6400 H 610.183 2.53045 0.289855 0
M  V30 6401 H 610.966 3.20074 -1.24127 0
M  V30 6402 N 613.412 0.11024 1.57214 0
M  V30 6403 C 614.322 -0.857077 2.18383 0
M  V30 6404 C 615.338 -1.29915 1.1575 0
M  V30 6405 O 616.514 -1.36394 1.48184 0
M  V30 6406 C 613.579 -2.09264 2.76423 0
M  V30 6407 C 612.64 -1.70333 3.94063 0
M  V30 6408 C 611.873 -2.87999 4.49324 0
M  V30 6409 O 612.096 -4.0317 4.03497 0
M  V30 6410 O 611.03 -2.6559 5.40135 0
M  V30 6411 H 614.856 -0.366561 3.0148 0
M  V30 6412 H 612.441 -0.114914 1.48957 0
M  V30 6413 H 614.323 -2.81644 3.13456 0
M  V30 6414 H 612.998 -2.57339 1.96363 0
M  V30 6415 H 611.905 -0.950864 3.61814 0
M  V30 6416 H 613.238 -1.27007 4.75531 0
M  V30 6417 N 614.89 -1.56749 -0.16351 0
M  V30 6418 C 616.138 -1.82074 -0.87713 0
M  V30 6419 C 616.459 -0.688503 -1.82441 0
M  V30 6420 O 615.729 0.291085 -1.93725 0
M  V30 6421 H 614.309 -0.671677 -0.326893 0
M  V30 6422 H 616.971 -1.9423 -0.161459 0
M  V30 6423 H 616.067 -2.76407 -1.44934 0
M  V30 6424 N 616.368 0.432326 -1.51554 0
M  V30 6425 C 617.779 1.01202 -1.56892 0
M  V30 6426 C 618.13 1.92175 -0.395394 0
M  V30 6427 O 617.255 2.10844 0.487198 0
M  V30 6428 C 617.85 1.84217 -2.8434 0
M  V30 6429 C 616.409 2.37228 -2.92233 0
M  V30 6430 C 615.556 1.16576 -2.51606 0
M  V30 6431 H 618.507 0.213407 -1.57259 0
M  V30 6432 H 618.528 2.69721 -2.68385 0
M  V30 6433 H 618.04 1.17979 -3.69733 0
M  V30 6434 H 616.141 3.06905 -2.11282 0
M  V30 6435 H 616.254 2.69682 -3.95991 0
M  V30 6436 H 614.618 1.51263 -2.04919 0
M  V30 6437 H 615.401 0.519404 -3.39348 0
M  V30 6438 N 617.846 1.41785 0.688094 0
M  V30 6439 C 618.809 1.43936 1.78368 0
M  V30 6440 C 619.809 0.328866 1.57401 0
M  V30 6441 O 620.999 0.589093 1.63937 0
M  V30 6442 C 618.131 1.25804 3.16838 0
M  V30 6443 H 619.324 2.41472 1.77852 0
M  V30 6444 H 616.877 1.28037 0.896448 0
M  V30 6445 H 617.612 0.291386 3.22988 0
M  V30 6446 H 617.397 2.06272 3.33458 0
M  V30 6447 H 618.887 1.30162 3.96797 0
M  V30 6448 N 619.324 -0.923095 1.27737 0
M  V30 6449 C 620.572 -1.66797 1.14119 0
M  V30 6450 C 620.893 -1.92479 -0.312541 0
M  V30 6451 O 620.163 -1.53432 -1.218 0
M  V30 6452 H 618.743 -0.618196 0.419336 0
M  V30 6453 H 621.405 -1.10815 1.60331 0
M  V30 6454 H 620.501 -2.63424 1.67374 0
M  V30 6455 N 620.802 -1.09834 -1.13024 0
M  V30 6456 C 622.05 -0.835297 -1.8403 0
M  V30 6457 C 622.371 0.640944 -1.84165 0
M  V30 6458 O 621.641 1.46517 -1.30037 0
M  V30 6459 H 620.221 -0.306018 -0.681441 0
M  V30 6460 H 622.883 -1.38734 -1.36891 0
M  V30 6461 H 621.979 -1.19258 -2.88416 0
M  V30 6462 N 622.28 1.30327 -0.886154 0
M  V30 6463 C 623.21 2.30549 -0.370028 0
M  V30 6464 C 624.191 1.61039 0.547751 0
M  V30 6465 O 625.376 1.8864 0.461353 0
M  V30 6466 C 622.506 3.44808 0.415275 0
M  V30 6467 C 621.46 4.26024 -0.41085 0
M  V30 6468 C 620.786 5.32347 0.501128 0
M  V30 6469 C 622.086 4.95433 -1.65359 0
M  V30 6470 H 623.78 2.73969 -1.20754 0
M  V30 6471 H 621.326 1.3171 -0.582097 0
M  V30 6472 H 623.279 4.13986 0.78699 0
M  V30 6473 H 622.003 3.00197 1.28644 0
M  V30 6474 H 620.662 3.58535 -0.764719 0
M  V30 6475 H 620.31 4.83982 1.37004 0
M  V30 6476 H 620.01 5.87581 -0.0478356 0
M  V30 6477 H 621.534 6.0438 0.869333 0
M  V30 6478 H 622.948 5.5712 -1.35239 0
M  V30 6479 H 621.345 5.60537 -2.14284 0
M  V30 6480 H 622.415 4.21493 -2.39733 0
M  V30 6481 N 623.758 0.647228 1.43697 0
M  V30 6482 C 624.988 0.16551 2.05936 0
M  V30 6483 C 625.396 -1.17164 1.48557 0
M  V30 6484 O 624.739 -1.73307 0.60914 0
M  V30 6485 C 624.801 -0.00648082 3.59499 0
M  V30 6486 C 624.465 1.25503 4.39429 0
M  V30 6487 C 625.462 2.18241 4.71876 0
M  V30 6488 C 623.147 1.49494 4.79538 0
M  V30 6489 C 625.141 3.33268 5.43333 0
M  V30 6490 C 622.828 2.64815 5.50742 0
M  V30 6491 C 623.826 3.56528 5.82561 0
M  V30 6492 O 623.514 4.69836 6.52311 0
M  V30 6493 H 623.246 0.0844124 0.670709 0
M  V30 6494 H 625.8 0.88638 1.8529 0
M  V30 6495 H 624.03 -0.782661 3.78697 0
M  V30 6496 H 625.719 -0.444794 4.03456 0
M  V30 6497 H 626.485 2.00946 4.41413 0
M  V30 6498 H 622.364 0.789912 4.54182 0
M  V30 6499 H 625.908 4.04874 5.68087 0
M  V30 6500 H 621.805 2.82047 5.8062 0
M  V30 6501 H 622.573 4.69024 6.70789 0
M  V30 6502 N 625.236 -1.5273 0.388769 0
M  V30 6503 C 626.484 -2.01174 -0.193208 0
M  V30 6504 C 626.805 -1.27705 -1.47365 0
M  V30 6505 O 626.075 -0.396966 -1.91836 0
M  V30 6506 H 624.655 -0.743287 -0.0743871 0
M  V30 6507 H 627.317 -1.87826 0.520336 0
M  V30 6508 H 626.413 -3.09477 -0.403803 0
M  V30 6509 N 626.714 -0.118576 -1.57153 0
M  V30 6510 C 627.963 0.539339 -1.94355 0
M  V30 6511 C 628.276 1.67858 -1.00415 0
M  V30 6512 O 629.482 2.39922 -1.27081 0
M  V30 6513 C 627.938 1.01082 -3.45414 0
M  V30 6514 C 627.546 -0.0999402 -4.47889 0
M  V30 6515 C 629.29 1.64013 -3.91535 0
M  V30 6516 C 627.197 0.388212 -5.90124 0
M  V30 6517 H 626.127 0.205247 -0.725527 0
M  V30 6518 H 628.778 -0.19836 -1.82425 0
M  V30 6519 H 627.16 1.80292 -3.52577 0
M  V30 6520 H 628.334 -0.876189 -4.52393 0
M  V30 6521 H 626.649 -0.635885 -4.11516 0
M  V30 6522 H 629.246 2.01649 -4.95219 0
M  V30 6523 H 629.589 2.51836 -3.31488 0
M  V30 6524 H 630.122 0.913439 -3.87171 0
M  V30 6525 H 626.861 -0.453963 -6.53926 0
M  V30 6526 H 626.381 1.13095 -5.89041 0
M  V30 6527 H 628.06 0.849574 -6.41398 0
M  V30 6528 N 628.193 1.56834 0.155195 0
M  V30 6529 C 629.47 1.73799 0.897395 0
M  V30 6530 C 629.85 0.684379 1.99698 0
M  V30 6531 O 629.198 -0.298111 2.26547 0
M  V30 6532 C 629.408 3.17572 1.44737 0
M  V30 6533 C 630.756 3.79014 1.91399 0
M  V30 6534 O 631.78 3.20951 1.54496 0
M  V30 6535 O 630.639 4.80998 2.59429 0
M  V30 6536 H 627.733 0.710329 0.423511 0
M  V30 6537 H 630.279 1.69107 0.141761 0
M  V30 6538 H 629.051 3.85749 0.656741 0
M  V30 6539 H 628.674 3.26657 2.26674 0
M  V30 6540 N 629.671 -0.424282 1.51781 0
M  V30 6541 C 630.896 -1.19928 1.6921 0
M  V30 6542 C 631.321 -1.8392 0.394355 0
M  V30 6543 O 630.679 -1.69371 -0.646778 0
M  V30 6544 C 630.727 -2.24937 2.81843 0
M  V30 6545 O 629.831 -3.3073 2.46356 0
M  V30 6546 H 629.172 -0.35078 0.563781 0
M  V30 6547 H 631.702 -0.499401 1.98412 0
M  V30 6548 H 631.712 -2.69512 3.06312 0
M  V30 6549 H 630.387 -1.77742 3.76006 0
M  V30 6550 H 628.964 -2.9154 2.32505 0
M  V30 6551 N 631.149 -1.42148 -0.680565 0
M  V30 6552 C 632.082 -1.39602 -1.80517 0
M  V30 6553 C 633.06 -0.261098 -1.6049 0
M  V30 6554 O 634.244 -0.450404 -1.8304 0
M  V30 6555 C 631.371 -1.18134 -3.1743 0
M  V30 6556 C 630.417 -2.34543 -3.56219 0
M  V30 6557 S 631.25 -3.97063 -3.59306 0
M  V30 6558 C 632.406 -3.77926 -4.98921 0
M  V30 6559 H 632.639 -2.3477 -1.82402 0
M  V30 6560 H 630.172 -1.28851 -0.850691 0
M  V30 6561 H 632.13 -1.06434 -3.96462 0
M  V30 6562 H 630.791 -0.245611 -3.13138 0
M  V30 6563 H 629.984 -2.15255 -4.55721 0
M  V30 6564 H 629.586 -2.42728 -2.84533 0
M  V30 6565 H 631.878 -3.3856 -5.86842 0
M  V30 6566 H 632.821 -4.77084 -5.23256 0
M  V30 6567 H 633.229 -3.10904 -4.71167 0
M  V30 6568 N 632.627 0.916307 -1.28225 0
M  V30 6569 C 634.038 1.48024 -1.13779 0
M  V30 6570 C 634.389 1.94289 0.273139 0
M  V30 6571 O 633.514 1.82226 1.16716 0
M  V30 6572 C 634.109 2.69029 -2.05935 0
M  V30 6573 C 632.668 3.2161 -1.95561 0
M  V30 6574 C 631.815 1.94321 -1.97825 0
M  V30 6575 H 634.766 0.729272 -1.40951 0
M  V30 6576 H 634.787 3.44204 -1.62184 0
M  V30 6577 H 634.299 2.35325 -3.08616 0
M  V30 6578 H 632.4 3.60045 -0.959076 0
M  V30 6579 H 632.513 3.87032 -2.82388 0
M  V30 6580 H 630.877 2.1131 -1.42198 0
M  V30 6581 H 631.66 1.62917 -3.0218 0
M  V30 6582 N 634.105 1.10431 1.1244 0
M  V30 6583 C 635.382 0.758797 1.80282 0
M  V30 6584 C 635.762 -0.754727 1.97147 0
M  V30 6585 O 635.11 -1.68094 1.54779 0
M  V30 6586 C 635.32 1.50982 3.14651 0
M  V30 6587 C 636.668 1.68232 3.8985 0
M  V30 6588 O 637.692 1.47319 3.24308 0
M  V30 6589 O 636.551 2.02905 5.07437 0
M  V30 6590 H 633.645 0.273756 0.780376 0
M  V30 6591 H 636.191 1.20713 1.19275 0
M  V30 6592 H 634.963 2.53989 2.97666 0
M  V30 6593 H 634.586 1.05435 3.83366 0
M  V30 6594 N 635.583 -1.29855 0.893053 0
M  V30 6595 C 636.513 -2.3035 0.382249 0
M  V30 6596 C 637.494 -1.61328 -0.539203 0
M  V30 6597 O 638.679 -1.88882 -0.451342 0
M  V30 6598 C 635.809 -3.45024 -0.396983 0
M  V30 6599 C 634.763 -4.258 0.433437 0
M  V30 6600 C 634.089 -5.32605 -0.472889 0
M  V30 6601 C 635.389 -4.94549 1.67984 0
M  V30 6602 H 637.083 -2.73325 1.22205 0
M  V30 6603 H 634.629 -1.314 0.589073 0
M  V30 6604 H 636.582 -4.14398 -0.765024 0
M  V30 6605 H 635.306 -3.00875 -1.2705 0
M  V30 6606 H 633.965 -3.58125 0.783723 0
M  V30 6607 H 633.613 -4.84702 -1.34435 0
M  V30 6608 H 633.313 -5.87547 0.0789958 0
M  V30 6609 H 634.837 -6.04832 -0.837269 0
M  V30 6610 H 636.251 -5.56395 1.38192 0
M  V30 6611 H 634.648 -5.59393 2.17254 0
M  V30 6612 H 635.718 -4.20215 2.41965 0
M  V30 6613 N 637.061 -0.65484 -1.43351 0
M  V30 6614 C 638.477 -0.32255 -1.56307 0
M  V30 6615 C 638.677 1.17324 -1.63821 0
M  V30 6616 O 637.733 1.95813 -1.59417 0
M  V30 6617 C 639.046 -1.03533 -2.82314 0
M  V30 6618 C 640.594 -1.01574 -2.9606 0
M  V30 6619 C 641.069 -1.70945 -4.24902 0
M  V30 6620 N 642.56 -1.67716 -4.3177 0
M  V30 6621 C 643.295 -2.18265 -5.30234 0
M  V30 6622 N 642.791 -2.7711 -6.34966 0
M  V30 6623 N 644.584 -2.08756 -5.21898 0
M  V30 6624 H 636.735 -1.62549 -1.36717 0
M  V30 6625 H 638.998 -0.683676 -0.656727 0
M  V30 6626 H 638.704 -2.09045 -2.8283 0
M  V30 6627 H 638.578 -0.587913 -3.7259 0
M  V30 6628 H 640.965 0.0309834 -2.95084 0
M  V30 6629 H 641.046 -1.50186 -2.07069 0
M  V30 6630 H 640.69 -2.75574 -4.26639 0
M  V30 6631 H 640.62 -1.19797 -5.12793 0
M  V30 6632 H 643.111 -1.24777 -3.56706 0
M  V30 6633 H 643.424 -3.13353 -7.06421 0
M  V30 6634 H 641.769 -2.81171 -6.35585 0
M  V30 6635 H 644.96 -1.62488 -4.38994 0
M  V30 6636 H 645.133 -2.48459 -5.98475 0
M  V30 6637 N 638.539 1.52521 -0.396863 0
M  V30 6638 C 639.955 1.5953 -0.0471659 0
M  V30 6639 C 640.155 1.41044 1.43906 0
M  V30 6640 O 639.211 1.23122 2.20448 0
M  V30 6641 C 640.524 2.95972 -0.531113 0
M  V30 6642 C 642.072 3.09172 -0.488024 0
M  V30 6643 C 642.547 4.48075 -0.948281 0
M  V30 6644 N 644.038 4.54281 -0.9046 0
M  V30 6645 C 644.773 5.60007 -1.23205 0
M  V30 6646 N 644.269 6.73343 -1.63036 0
M  V30 6647 N 646.062 5.50151 -1.15282 0
M  V30 6648 H 638.213 1.62786 -1.36435 0
M  V30 6649 H 640.476 0.76514 -0.559701 0
M  V30 6650 H 640.182 3.14741 -1.56942 0
M  V30 6651 H 640.056 3.77143 0.0657922 0
M  V30 6652 H 642.443 2.90095 0.541211 0
M  V30 6653 H 642.524 2.29937 -1.12083 0
M  V30 6654 H 642.168 4.67894 -1.97578 0
M  V30 6655 H 642.098 5.25788 -0.292412 0
M  V30 6656 H 644.589 3.72918 -0.6116 0
M  V30 6657 H 644.902 7.49992 -1.86365 0
M  V30 6658 H 643.247 6.74655 -1.66929 0
M  V30 6659 H 646.438 4.6049 -0.840602 0
M  V30 6660 H 646.611 6.32444 -1.41133 0
M  V30 6661 N 640.017 0.126909 1.57088 0
M  V30 6662 C 640.964 -0.82036 2.15728 0
M  V30 6663 C 641.934 -1.25811 1.08447 0
M  V30 6664 O 643.119 -1.33422 1.36393 0
M  V30 6665 C 640.259 -2.06199 2.76724 0
M  V30 6666 C 639.372 -1.67188 3.98337 0
M  V30 6667 C 638.507 -2.86378 4.47393 0
M  V30 6668 C 637.546 -2.43644 5.61519 0
M  V30 6669 N 636.683 -3.55775 6.05284 0
M  V30 6670 H 641.523 -0.313472 2.96347 0
M  V30 6671 H 639.06 -0.14303 1.46403 0
M  V30 6672 H 641.018 -2.78959 3.10222 0
M  V30 6673 H 639.648 -2.54333 1.98782 0
M  V30 6674 H 638.7 -0.842714 3.70948 0
M  V30 6675 H 640.012 -1.31789 4.81075 0
M  V30 6676 H 639.166 -3.67353 4.82842 0
M  V30 6677 H 637.905 -3.25009 3.63621 0
M  V30 6678 H 636.91 -1.61104 5.25667 0
M  V30 6679 H 638.135 -2.06122 6.47063 0
M  V30 6680 H 636.081 -3.94065 5.24451 0
M  V30 6681 H 635.998 -3.24325 6.82898 0
M  V30 6682 H 637.266 -4.37166 6.45373 0
M  V30 6683 N 641.495 -1.56914 -0.146875 0
M  V30 6684 C 642.442 -1.98275 -1.18134 0
M  V30 6685 C 643.412 -0.850367 -1.42681 0
M  V30 6686 O 644.597 -1.11244 -1.55014 0
M  V30 6687 C 641.737 -2.36861 -2.5098 0
M  V30 6688 C 640.85 -3.63391 -2.33605 0
M  V30 6689 C 639.985 -3.91079 -3.59486 0
M  V30 6690 C 639.024 -5.10879 -3.37149 0
M  V30 6691 N 638.161 -5.34577 -4.55161 0
M  V30 6692 H 643.001 -2.8645 -0.821622 0
M  V30 6693 H 640.538 -1.41718 -0.394248 0
M  V30 6694 H 642.496 -2.57262 -3.28439 0
M  V30 6695 H 641.126 -1.51766 -2.84898 0
M  V30 6696 H 640.178 -3.50766 -1.47199 0
M  V30 6697 H 641.49 -4.51007 -2.13059 0
M  V30 6698 H 640.644 -4.11979 -4.45374 0
M  V30 6699 H 639.383 -3.01885 -3.83036 0
M  V30 6700 H 638.388 -4.89853 -2.49649 0
M  V30 6701 H 639.613 -6.01626 -3.14997 0
M  V30 6702 H 637.559 -4.48337 -4.78884 0
M  V30 6703 H 637.476 -6.16463 -4.37618 0
M  V30 6704 H 638.744 -5.59975 -5.42263 0
M  V30 6705 N 642.974 0.416227 -1.52004 0
M  V30 6706 C 644.385 0.995319 -1.57957 0
M  V30 6707 C 644.736 1.91744 -0.415754 0
M  V30 6708 O 643.861 2.11349 0.464808 0
M  V30 6709 C 644.456 1.81191 -2.86278 0
M  V30 6710 C 643.015 2.34115 -2.94732 0
M  V30 6711 C 642.162 1.139 -2.52828 0
M  V30 6712 H 645.113 0.196716 -1.57476 0
M  V30 6713 H 645.134 2.66859 -2.71231 0
M  V30 6714 H 644.646 1.14051 -3.70963 0
M  V30 6715 H 642.747 3.04647 -2.14525 0
M  V30 6716 H 642.86 2.65466 -3.98829 0
M  V30 6717 H 641.224 1.49081 -2.06511 0
M  V30 6718 H 642.007 0.483383 -3.3988 0
M  V30 6719 N 644.452 1.42507 0.673017 0
M  V30 6720 C 645.382 1.48916 1.79851 0
M  V30 6721 C 646.363 0.345566 1.66553 0
M  V30 6722 O 647.548 0.560116 1.85947 0
M  V30 6723 C 644.678 1.39258 3.18158 0
M  V30 6724 C 643.632 2.51662 3.46194 0
M  V30 6725 C 642.958 2.27062 4.84094 0
M  V30 6726 C 644.258 3.93968 3.42909 0
M  V30 6727 H 645.952 2.43114 1.74745 0
M  V30 6728 H 643.498 1.17013 0.839288 0
M  V30 6729 H 645.451 1.42349 3.96629 0
M  V30 6730 H 644.175 0.415542 3.23946 0
M  V30 6731 H 642.834 2.47891 2.70084 0
M  V30 6732 H 642.482 1.27648 4.86534 0
M  V30 6733 H 642.182 3.02398 5.03815 0
M  V30 6734 H 643.706 2.31905 5.64847 0
M  V30 6735 H 645.12 3.99332 4.11347 0
M  V30 6736 H 643.517 4.6917 3.74165 0
M  V30 6737 H 644.587 4.20512 2.41449 0
M  V30 6738 N 645.93 -0.909495 1.28709 0
M  V30 6739 C 647.341 -1.47419 1.14563 0
M  V30 6740 C 647.692 -1.94432 -0.262832 0
M  V30 6741 O 646.817 -1.82842 -1.15748 0
M  V30 6742 C 647.412 -2.67933 2.07358 0
M  V30 6743 C 645.971 -3.20568 1.97264 0
M  V30 6744 C 645.118 -1.93269 1.98852 0
M  V30 6745 H 648.069 -0.721787 1.41336 0
M  V30 6746 H 648.09 -3.43339 1.64007 0
M  V30 6747 H 647.602 -2.33685 3.09859 0
M  V30 6748 H 645.703 -3.59531 0.978157 0
M  V30 6749 H 645.816 -3.85529 2.84436 0
M  V30 6750 H 644.18 -2.10553 1.43317 0
M  V30 6751 H 644.963 -1.61312 3.0304 0
M  V30 6752 N 647.408 -1.11026 -1.11852 0
M  V30 6753 C 648.338 -0.786812 -2.19844 0
M  V30 6754 C 649.319 0.242935 -1.68356 0
M  V30 6755 O 650.504 0.107355 -1.93903 0
M  V30 6756 C 647.634 -0.224516 -3.46574 0
M  V30 6757 C 646.588 -1.18564 -4.1125 0
M  V30 6758 C 645.914 -0.484261 -5.32503 0
M  V30 6759 C 647.214 -2.53465 -4.56676 0
M  V30 6760 H 648.908 -1.68978 -2.47158 0
M  V30 6761 H 646.454 -0.813906 -1.18792 0
M  V30 6762 H 648.407 0.0139435 -4.21398 0
M  V30 6763 H 647.131 0.713722 -3.18706 0
M  V30 6764 H 645.79 -1.40966 -3.38414 0
M  V30 6765 H 645.438 0.458646 -5.00905 0
M  V30 6766 H 645.138 -1.12526 -5.76725 0
M  V30 6767 H 646.662 -0.254492 -6.10069 0
M  V30 6768 H 648.076 -2.35177 -5.22843 0
M  V30 6769 H 646.473 -3.13507 -5.11697 0
M  V30 6770 H 647.543 -3.13008 -3.70343 0
M  V30 6771 N 648.886 1.2938 -0.899927 0
M  V30 6772 C 650.132 1.9584 -0.526742 0
M  V30 6773 C 650.465 1.70774 0.924651 0
M  V30 6774 O 649.74 1.02084 1.65557 0
M  V30 6775 C 650.023 3.50638 -0.820062 0
M  V30 6776 C 649.876 3.85161 -2.32317 0
M  V30 6777 C 651.195 4.3903 -0.30671 0
M  V30 6778 H 648.314 0.711322 -0.192848 0
M  V30 6779 H 650.956 1.52992 -1.12665 0
M  V30 6780 H 649.106 3.87265 -0.309491 0
M  V30 6781 H 650.778 3.58477 -2.9033 0
M  V30 6782 H 649.021 3.32696 -2.78381 0
M  V30 6783 H 649.692 4.93204 -2.47898 0
M  V30 6784 H 652.168 4.09396 -0.743908 0
M  V30 6785 H 651.044 5.46226 -0.541144 0
M  V30 6786 H 651.305 4.34937 0.792588 0
M  V30 6787 N 650.364 0.662433 1.43002 0
M  V30 6788 C 651.589 0.186003 2.06564 0
M  V30 6789 C 652.014 -1.14314 1.49379 0
M  V30 6790 O 651.372 -1.70824 0.607346 0
M  V30 6791 C 651.42 0.118269 3.60406 0
M  V30 6792 O 650.524 -0.916859 4.02079 0
M  V30 6793 H 649.865 0.0990981 0.656563 0
M  V30 6794 H 652.395 0.907958 1.8335 0
M  V30 6795 H 652.405 -0.0619981 4.07953 0
M  V30 6796 H 651.08 1.08849 4.01403 0
M  V30 6797 H 649.657 -0.708635 3.66105 0
M  V30 6798 N 651.842 -1.52309 0.404946 0
M  V30 6799 C 653.119 -1.94237 -0.230544 0
M  V30 6800 C 653.499 -1.34154 -1.6299 0
M  V30 6801 O 652.847 -0.515713 -2.22604 0
M  V30 6802 C 653.057 -3.48166 -0.241106 0
M  V30 6803 C 654.405 -4.22074 -0.462488 0
M  V30 6804 O 655.429 -3.54754 -0.320644 0
M  V30 6805 O 654.288 -5.41443 -0.741708 0
M  V30 6806 H 651.382 -0.813766 -0.147358 0
M  V30 6807 H 653.928 -1.6333 0.460587 0
M  V30 6808 H 652.7 -3.84269 0.738467 0
M  V30 6809 H 652.323 -3.85422 -0.97651 0
M  V30 6810 N 653.32 -0.135238 -1.57019 0
M  V30 6811 C 654.25 0.805235 -2.19176 0
M  V30 6812 C 655.231 1.2656 -1.13651 0
M  V30 6813 O 656.416 1.32528 -1.4195 0
M  V30 6814 C 653.546 2.04914 -2.80406 0
M  V30 6815 C 652.5 1.72598 -3.91655 0
M  V30 6816 C 651.826 3.04154 -4.39766 0
M  V30 6817 C 653.126 0.981709 -5.12991 0
M  V30 6818 H 654.82 0.287232 -2.98019 0
M  V30 6819 H 652.366 0.136714 -1.4335 0
M  V30 6820 H 654.319 2.71178 -3.22553 0
M  V30 6821 H 653.043 2.59067 -1.98877 0
M  V30 6822 H 651.702 1.08717 -3.50109 0
M  V30 6823 H 651.35 3.56274 -3.55075 0
M  V30 6824 H 651.05 2.83299 -5.14796 0
M  V30 6825 H 652.574 3.71509 -4.84576 0
M  V30 6826 H 653.988 1.5462 -5.52056 0
M  V30 6827 H 652.385 0.873533 -5.93708 0
M  V30 6828 H 653.455 -0.0286887 -4.84892 0
M  V30 6829 N 654.798 1.5699 0.138552 0
M  V30 6830 C 656.023 1.88344 0.86841 0
M  V30 6831 C 656.448 0.725159 1.7356 0
M  V30 6832 O 655.806 -0.324992 1.78363 0
M  V30 6833 C 655.854 3.18334 1.69398 0
M  V30 6834 O 654.958 3.02863 2.79907 0
M  V30 6835 H 654.299 0.618577 0.241367 0
M  V30 6836 H 656.829 2.04207 0.126826 0
M  V30 6837 H 656.839 3.50567 2.08726 0
M  V30 6838 H 655.514 4.02238 1.05725 0
M  V30 6839 H 654.091 2.82056 2.43924 0
M  V30 6840 N 656.276 -0.40816 1.52223 0
M  V30 6841 C 657.206 -1.5042 1.78595 0
M  V30 6842 C 658.187 -1.57723 0.636974 0
M  V30 6843 O 659.372 -1.72982 0.882664 0
M  V30 6844 C 656.502 -2.88232 1.93751 0
M  V30 6845 C 655.456 -2.95779 3.09352 0
M  V30 6846 C 654.782 -4.35855 3.09732 0
M  V30 6847 C 656.082 -2.67175 4.48793 0
M  V30 6848 H 657.776 -1.28601 2.70374 0
M  V30 6849 H 655.322 -0.617221 1.30101 0
M  V30 6850 H 657.275 -3.64895 2.10783 0
M  V30 6851 H 655.999 -3.11347 0.986443 0
M  V30 6852 H 654.658 -2.21561 2.92072 0
M  V30 6853 H 654.306 -4.55981 2.12346 0
M  V30 6854 H 654.006 -4.41829 3.87377 0
M  V30 6855 H 655.53 -5.14451 3.28895 0
M  V30 6856 H 656.944 -3.3356 4.66273 0
M  V30 6857 H 655.341 -2.84523 5.28362 0
M  V30 6858 H 656.411 -1.62609 4.56822 0
M  V30 6859 N 657.755 -1.42862 -0.66545 0
M  V30 6860 C 659.001 -1.44043 -1.42757 0
M  V30 6861 C 659.334 -0.0599629 -1.94107 0
M  V30 6862 O 658.609 0.917286 -1.71511 0
M  V30 6863 C 658.892 -2.47266 -2.61786 0
M  V30 6864 C 658.745 -3.94539 -2.16007 0
M  V30 6865 C 660.064 -2.47365 -3.64003 0
M  V30 6866 H 657.183 -0.524506 -0.517748 0
M  V30 6867 H 659.825 -1.74335 -0.755466 0
M  V30 6868 H 657.975 -2.21565 -3.19126 0
M  V30 6869 H 659.647 -4.31254 -1.63762 0
M  V30 6870 H 657.89 -4.07957 -1.47491 0
M  V30 6871 H 658.561 -4.62357 -3.01546 0
M  V30 6872 H 661.037 -2.70243 -3.16399 0
M  V30 6873 H 659.913 -3.21552 -4.44854 0
M  V30 6874 H 660.174 -1.50299 -4.15767 0
M  V30 6875 N 659.233 0.902656 -1.29189 0
M  V30 6876 C 660.165 2.01149 -1.09872 0
M  V30 6877 C 661.178 1.62732 -0.0471046 0
M  V30 6878 O 662.367 1.76107 -0.29132 0
M  V30 6879 C 659.467 3.32612 -0.649818 0
M  V30 6880 C 658.64 3.99574 -1.7793 0
M  V30 6881 C 657.699 5.09325 -1.32191 0
M  V30 6882 O 656.725 5.31919 -2.02611 0
M  V30 6883 N 657.927 5.80185 -0.191171 0
M  V30 6884 H 660.692 2.18276 -2.05368 0
M  V30 6885 H 658.253 1.07466 -1.2109 0
M  V30 6886 H 660.245 4.03375 -0.327199 0
M  V30 6887 H 658.815 3.11876 0.212597 0
M  V30 6888 H 658.035 3.22213 -2.27095 0
M  V30 6889 H 659.323 4.41056 -2.53668 0
M  V30 6890 H 658.721 5.64312 0.396016 0
M  V30 6891 H 657.278 6.5176 0.0721001 0
M  V30 6892 N 660.711 1.11618 1.11262 0
M  V30 6893 C 661.936 0.889013 1.8738 0
M  V30 6894 C 662.361 -0.555884 1.79698 0
M  V30 6895 O 661.719 -1.39272 1.16073 0
M  V30 6896 C 661.767 1.35759 3.34069 0
M  V30 6897 O 660.871 0.530499 4.08974 0
M  V30 6898 H 660.212 0.320082 0.581759 0
M  V30 6899 H 662.742 1.48611 1.40627 0
M  V30 6900 H 662.752 1.35291 3.84916 0
M  V30 6901 H 661.427 2.40973 3.38976 0
M  V30 6902 H 660.004 0.601439 3.68018 0
M  V30 6903 N 662.189 -1.289 0.906776 0
M  V30 6904 C 663.605 -1.47733 0.603902 0
M  V30 6905 C 663.805 -1.82568 -0.852702 0
M  V30 6906 O 662.861 -1.92642 -1.63234 0
M  V30 6907 C 664.174 -2.58522 1.53581 0
M  V30 6908 C 665.722 -2.72394 1.54177 0
M  V30 6909 C 666.197 -3.86318 2.46013 0
M  V30 6910 N 667.688 -3.93661 2.441 0
M  V30 6911 C 668.423 -4.81177 3.11859 0
M  V30 6912 N 667.919 -5.73333 3.88923 0
M  V30 6913 N 669.712 -4.74728 3.00981 0
M  V30 6914 H 661.863 -1.04567 1.84877 0
M  V30 6915 H 664.126 -0.520118 0.792579 0
M  V30 6916 H 663.832 -2.39667 2.57396 0
M  V30 6917 H 663.706 -3.55475 1.26165 0
M  V30 6918 H 666.093 -2.90641 0.511034 0
M  V30 6919 H 666.174 -1.75993 1.85634 0
M  V30 6920 H 665.818 -3.68826 3.49185 0
M  V30 6921 H 665.748 -4.82102 2.11862 0
M  V30 6922 H 668.239 -3.27751 1.88115 0
M  V30 6923 H 668.552 -6.36923 4.37663 0
M  V30 6924 H 666.897 -5.73196 3.93029 0
M  V30 6925 H 670.088 -4.01722 2.40286 0
M  V30 6926 H 670.261 -5.42719 3.54062 0
M  V30 6927 N 663.667 -0.670007 -1.42649 0
M  V30 6928 C 664.614 0.0112928 -2.30797 0
M  V30 6929 C 665.584 0.797627 -1.45695 0
M  V30 6930 O 666.769 0.770845 -1.74535 0
M  V30 6931 C 663.909 0.95998 -3.31479 0
M  V30 6932 C 663.022 0.167975 -4.31673 0
M  V30 6933 C 662.157 1.11198 -5.19431 0
M  V30 6934 C 661.196 0.311381 -6.11307 0
M  V30 6935 N 660.333 1.20784 -6.91633 0
M  V30 6936 H 665.173 -0.746231 -2.88505 0
M  V30 6937 H 662.71 -0.379739 -1.42114 0
M  V30 6938 H 664.668 1.52379 -3.88377 0
M  V30 6939 H 663.298 1.68419 -2.75382 0
M  V30 6940 H 662.35 -0.512385 -3.76933 0
M  V30 6941 H 663.662 -0.453814 -4.96731 0
M  V30 6942 H 662.816 1.74587 -5.81037 0
M  V30 6943 H 661.555 1.76766 -4.54538 0
M  V30 6944 H 660.56 -0.335758 -5.48774 0
M  V30 6945 H 661.785 -0.340135 -6.78248 0
M  V30 6946 H 659.731 1.85001 -6.29373 0
M  V30 6947 H 659.648 0.64102 -7.53277 0
M  V30 6948 H 660.916 1.82936 -7.5773 0
M  V30 6949 N 665.145 1.52092 -0.413018 0
M  V30 6950 C 666.108 2.25706 0.398687 0
M  V30 6951 C 667.108 1.28221 0.970368 0
M  V30 6952 O 668.298 1.52131 0.848635 0
M  V30 6953 C 665.43 3.03029 1.5616 0
M  V30 6954 H 666.623 2.98888 -0.246131 0
M  V30 6955 H 664.176 1.5542 -0.165622 0
M  V30 6956 H 664.911 2.34205 2.24317 0
M  V30 6957 H 664.696 3.74606 1.15812 0
M  V30 6958 H 666.186 3.58857 2.13569 0
M  V30 6959 N 666.623 0.143563 1.56945 0
M  V30 6960 C 667.871 -0.507402 1.95627 0
M  V30 6961 C 668.192 -1.65626 1.02922 0
M  V30 6962 O 667.462 -1.95693 0.0901136 0
M  V30 6963 H 666.042 -0.190436 0.722318 0
M  V30 6964 H 668.704 0.218257 1.93674 0
M  V30 6965 H 667.8 -0.885816 2.99265 0
M  V30 6966 N 668.101 -1.57061 -0.130224 0
M  V30 6967 C 669.35 -1.83446 -0.838488 0
M  V30 6968 C 669.663 -0.727468 -1.81569 0
M  V30 6969 O 670.869 -0.877394 -2.56932 0
M  V30 6970 C 669.325 -3.25201 -1.54182 0
M  V30 6971 C 668.933 -4.4388 -0.606178 0
M  V30 6972 C 670.677 -3.60844 -2.23588 0
M  V30 6973 C 668.584 -5.76661 -1.31209 0
M  V30 6974 H 667.514 -0.684185 -0.316871 0
M  V30 6975 H 670.165 -1.83273 -0.0912059 0
M  V30 6976 H 668.547 -3.1981 -2.33533 0
M  V30 6977 H 669.721 -4.60545 0.153308 0
M  V30 6978 H 668.036 -4.16395 -0.0196705 0
M  V30 6979 H 670.633 -4.57313 -2.77072 0
M  V30 6980 H 670.976 -2.87724 -3.00867 0
M  V30 6981 H 671.509 -3.67971 -1.51137 0
M  V30 6982 H 668.248 -6.52922 -0.580823 0
M  V30 6983 H 667.768 -5.63902 -2.04387 0
M  V30 6984 H 669.447 -6.20035 -1.8484 0
M  V30 6985 N 669.579 0.400081 -1.52437 0
M  V30 6986 C 670.807 1.16768 -1.70801 0
M  V30 6987 C 671.222 1.84036 -0.421462 0
M  V30 6988 O 670.579 1.72242 0.603228 0
M  V30 6989 C 670.63 2.22403 -2.8499 0
M  V30 6990 O 670.351 1.57879 -4.08663 0
M  V30 6991 C 671.852 3.11974 -3.1494 0
M  V30 6992 H 669.072 0.350533 -0.57216 0
M  V30 6993 H 671.616 0.469534 -1.99037 0
M  V30 6994 H 669.771 2.87871 -2.59247 0
M  V30 6995 H 670.185 2.27982 -4.7236 0
M  V30 6996 H 671.659 3.82148 -3.9833 0
M  V30 6997 H 672.136 3.74858 -2.28863 0
M  V30 6998 H 672.742 2.52165 -3.42481 0
M  V30 6999 N 671.057 1.43213 0.657864 0
M  V30 7000 C 672.282 1.48227 1.45064 0
M  V30 7001 C 672.707 0.0999939 1.87834 0
M  V30 7002 O 672.065 -0.905269 1.57081 0
M  V30 7003 C 672.113 2.42931 2.6649 0
M  V30 7004 O 671.217 1.91237 3.6538 0
M  V30 7005 H 670.558 0.501551 0.435135 0
M  V30 7006 H 673.088 1.8808 0.805431 0
M  V30 7007 H 673.098 2.6008 3.1436 0
M  V30 7008 H 671.773 3.43348 2.34701 0
M  V30 7009 H 670.35 1.83726 3.24498 0
M  V30 7010 N 672.536 -0.895792 1.29666 0
M  V30 7011 C 673.499 -1.98189 1.15124 0
M  V30 7012 C 674.499 -1.60572 0.0855717 0
M  V30 7013 O 675.689 -1.70991 0.332826 0
M  V30 7014 C 672.821 -3.32289 0.761372 0
M  V30 7015 H 674.014 -2.12518 2.11603 0
M  V30 7016 H 671.567 -1.0808 1.12908 0
M  V30 7017 H 672.302 -3.23662 -0.203393 0
M  V30 7018 H 672.087 -3.60958 1.53139 0
M  V30 7019 H 673.577 -4.1198 0.682792 0
M  V30 7020 N 674.014 -1.12206 -1.10668 0
M  V30 7021 C 674.947 -0.731468 -2.16159 0
M  V30 7022 C 675.925 0.276216 -1.60237 0
M  V30 7023 O 677.109 0.17074 -1.87725 0
M  V30 7024 C 674.236 -0.0822882 -3.386 0
M  V30 7025 C 673.282 -1.05641 -4.1321 0
M  V30 7026 S 674.115 -2.58281 -4.69096 0
M  V30 7027 C 675.271 -1.94686 -5.94851 0
M  V30 7028 H 675.504 -1.62504 -2.48957 0
M  V30 7029 H 673.037 -0.940906 -1.22419 0
M  V30 7030 H 674.995 0.285896 -4.09503 0
M  V30 7031 H 673.656 0.788358 -3.04046 0
M  V30 7032 H 672.849 -0.549764 -5.00993 0
M  V30 7033 H 672.451 -1.36741 -3.48106 0
M  V30 7034 H 674.743 -1.28815 -6.65141 0
M  V30 7035 H 675.686 -2.80499 -6.50174 0
M  V30 7036 H 676.094 -1.40369 -5.46769 0
M  V30 7037 N 675.492 1.28418 -0.913599 0
M  V30 7038 C 676.455 2.25564 -0.406624 0
M  V30 7039 C 677.455 1.5387 0.466965 0
M  V30 7040 O 678.645 1.72094 0.270042 0
M  V30 7041 C 675.777 3.38339 0.417053 0
M  V30 7042 H 676.97 2.71926 -1.26477 0
M  V30 7043 H 674.523 1.40098 -0.692986 0
M  V30 7044 H 675.258 2.97339 1.29461 0
M  V30 7045 H 675.043 3.91542 -0.209102 0
M  V30 7046 H 676.533 4.10578 0.762602 0
M  V30 7047 N 676.97 0.677563 1.42291 0
M  V30 7048 C 678.198 0.209459 2.05837 0
M  V30 7049 C 678.613 -1.13444 1.50917 0
M  V30 7050 O 677.97 -1.70529 0.65008 0
M  V30 7051 C 678.021 0.138819 3.61233 0
M  V30 7052 O 677.742 1.42962 4.14118 0
M  V30 7053 C 679.243 -0.352449 4.41897 0
M  V30 7054 H 676.463 0.101209 0.663323 0
M  V30 7055 H 679.007 0.925077 1.8238 0
M  V30 7056 H 677.162 -0.527505 3.83792 0
M  V30 7057 H 677.576 1.3048 5.08011 0
M  V30 7058 H 679.05 -0.350778 5.50884 0
M  V30 7059 H 679.527 -1.3882 4.16684 0
M  V30 7060 H 680.133 0.282236 4.24362 0
M  V30 7061 N 678.448 -1.51871 0.421078 0
M  V30 7062 C 679.864 -1.59435 0.0725398 0
M  V30 7063 C 680.064 -1.43315 -1.41644 0
M  V30 7064 O 679.12 -1.26614 -2.18461 0
M  V30 7065 C 680.433 -2.9509 0.578132 0
M  V30 7066 C 681.981 -3.08356 0.537149 0
M  V30 7067 C 682.456 -4.4651 1.01945 0
M  V30 7068 N 683.947 -4.52784 0.976758 0
M  V30 7069 C 684.682 -5.57976 1.32099 0
M  V30 7070 N 684.178 -6.70664 1.73727 0
M  V30 7071 N 685.971 -5.48248 1.2402 0
M  V30 7072 H 678.122 -1.60595 1.39007 0
M  V30 7073 H 680.385 -0.756138 0.571803 0
M  V30 7074 H 680.091 -3.12205 1.61929 0
M  V30 7075 H 679.965 -3.772 -0.00578374 0
M  V30 7076 H 682.352 -2.90919 -0.494991 0
M  V30 7077 H 682.433 -2.28125 1.15727 0
M  V30 7078 H 682.077 -4.64692 2.04997 0
M  V30 7079 H 682.007 -5.25256 0.376023 0
M  V30 7080 H 684.498 -3.71898 0.670851 0
M  V30 7081 H 684.811 -7.46932 1.98274 0
M  V30 7082 H 683.156 -6.71914 1.77641 0
M  V30 7083 H 686.347 -4.59095 0.913756 0
M  V30 7084 H 686.52 -6.30119 1.51176 0
M  V30 7085 N 679.926 -0.151884 -1.56866 0
M  V30 7086 C 681.154 0.504813 -2.00647 0
M  V30 7087 C 681.569 1.58098 -1.03201 0
M  V30 7088 O 680.926 1.82476 -0.0297814 0
M  V30 7089 C 680.977 1.10099 -3.44326 0
M  V30 7090 O 680.698 0.0678021 -4.38048 0
M  V30 7091 C 682.199 1.83782 -4.03409 0
M  V30 7092 H 679.419 0.130989 -0.65809 0
M  V30 7093 H 681.963 -0.247903 -2.02992 0
M  V30 7094 H 680.118 1.8043 -3.42817 0
M  V30 7095 H 680.532 0.505237 -5.22061 0
M  V30 7096 H 682.006 2.2078 -5.05925 0
M  V30 7097 H 682.483 2.72557 -3.44397 0
M  V30 7098 H 683.089 1.18138 -4.08563 0
M  V30 7099 N 681.404 1.57128 0.121893 0
M  V30 7100 C 682.629 1.89254 0.848385 0
M  V30 7101 C 683.054 0.743527 1.72781 0
M  V30 7102 O 682.412 -0.306056 1.78698 0
M  V30 7103 C 682.46 3.20113 1.66012 0
M  V30 7104 O 681.564 3.05815 2.76679 0
M  V30 7105 H 680.905 0.621103 0.234793 0
M  V30 7106 H 683.435 2.0433 0.10516 0
M  V30 7107 H 683.445 3.52761 2.04996 0
M  V30 7108 H 682.12 4.03336 1.01452 0
M  V30 7109 H 680.697 2.84627 2.40918 0
M  V30 7110 N 682.882 -0.391992 1.52647 0
M  V30 7111 C 683.812 -1.48517 1.8018 0
M  V30 7112 C 684.793 -1.57039 0.653667 0
M  V30 7113 O 685.978 -1.72036 0.900962 0
M  V30 7114 C 683.108 -2.86161 1.96797 0
M  V30 7115 C 682.062 -2.92481 3.12472 0
M  V30 7116 C 681.388 -4.32546 3.14338 0
M  V30 7117 C 682.688 -2.624 4.51601 0
M  V30 7118 H 684.382 -1.25726 2.71723 0
M  V30 7119 H 681.928 -0.603387 1.30749 0
M  V30 7120 H 683.881 -3.62639 2.14641 0
M  V30 7121 H 682.605 -3.10283 1.01941 0
M  V30 7122 H 681.264 -2.18451 2.94406 0
M  V30 7123 H 680.912 -4.53703 2.1717 0
M  V30 7124 H 680.612 -4.37695 3.92042 0
M  V30 7125 H 682.136 -5.10934 3.34333 0
M  V30 7126 H 683.55 -3.28596 4.69785 0
M  V30 7127 H 681.947 -2.78903 5.3135 0
M  V30 7128 H 683.017 -1.57754 4.58521 0
M  V30 7129 N 684.36 -1.4356 -0.65026 0
M  V30 7130 C 685.307 -1.48948 -1.76304 0
M  V30 7131 C 686.277 -0.338919 -1.62605 0
M  V30 7132 O 687.462 -0.54649 -1.82806 0
M  V30 7133 C 684.602 -1.42131 -3.14472 0
M  V30 7134 C 683.715 -2.67415 -3.39284 0
M  V30 7135 C 682.85 -2.52565 -4.67316 0
M  V30 7136 C 681.889 -3.73103 -4.85243 0
M  V30 7137 N 681.026 -3.57046 -6.04535 0
M  V30 7138 H 685.866 -2.44032 -1.71034 0
M  V30 7139 H 683.403 -1.21131 -0.834601 0
M  V30 7140 H 685.361 -1.36172 -3.94351 0
M  V30 7141 H 683.991 -0.506273 -3.18805 0
M  V30 7142 H 683.043 -2.8364 -2.53481 0
M  V30 7143 H 684.355 -3.56943 -3.48415 0
M  V30 7144 H 683.509 -2.44331 -5.55326 0
M  V30 7145 H 682.248 -1.60566 -4.60511 0
M  V30 7146 H 681.253 -3.81743 -3.95667 0
M  V30 7147 H 682.478 -4.66115 -4.93876 0
M  V30 7148 H 680.424 -2.67783 -5.98856 0
M  V30 7149 H 680.341 -4.40178 -6.14638 0
M  V30 7150 H 681.609 -3.52669 -6.95158 0
M  V30 7151 N 685.838 0.888903 -1.30139 0
M  V30 7152 C 687.115 1.62145 -1.094 0
M  V30 7153 C 687.495 2.08041 0.358091 0
M  V30 7154 O 686.843 1.84438 1.34888 0
M  V30 7155 C 687.053 2.794 -2.09133 0
M  V30 7156 C 688.401 3.49826 -2.40638 0
M  V30 7157 O 689.425 2.89583 -2.07412 0
M  V30 7158 O 688.284 4.58457 -2.97455 0
M  V30 7159 H 685.378 0.712475 -0.41989 0
M  V30 7160 H 687.924 0.936023 -1.41551 0
M  V30 7161 H 686.696 2.42762 -3.06891 0
M  V30 7162 H 686.319 3.55643 -1.77776 0
M  V30 7163 N 687.317 1.12792 1.10072 0
M  V30 7164 C 688.227 0.812369 2.20086 0
M  V30 7165 C 689.243 -0.200349 1.72843 0
M  V30 7166 O 690.419 -0.0330262 2.01373 0
M  V30 7167 C 687.484 0.275685 3.45602 0
M  V30 7168 C 686.545 1.34881 4.07561 0
M  V30 7169 C 685.778 0.837639 5.27086 0
M  V30 7170 O 686.001 -0.327224 5.69461 0
M  V30 7171 O 684.935 1.60894 5.79997 0
M  V30 7172 H 688.761 1.73133 2.49517 0
M  V30 7173 H 686.346 0.904863 1.18881 0
M  V30 7174 H 688.228 -0.0185375 4.21396 0
M  V30 7175 H 686.903 -0.615783 3.17789 0
M  V30 7176 H 685.81 1.69625 3.33434 0
M  V30 7177 H 687.143 2.21418 4.39585 0
M  V30 7178 N 688.795 -1.27931 0.920396 0
M  V30 7179 C 689.705 -2.30824 0.419212 0
M  V30 7180 C 690.721 -1.66767 -0.496461 0
M  V30 7181 O 691.897 -1.97763 -0.38104 0
M  V30 7182 C 688.962 -3.45158 -0.326601 0
M  V30 7183 C 688.023 -4.24754 0.623098 0
M  V30 7184 C 687.256 -5.33629 -0.0872172 0
M  V30 7185 O 687.479 -5.55204 -1.30784 0
M  V30 7186 O 686.413 -5.99091 0.580875 0
M  V30 7187 H 690.239 -2.75716 1.27337 0
M  V30 7188 H 687.824 -1.32747 0.685465 0
M  V30 7189 H 689.706 -4.14716 -0.747559 0
M  V30 7190 H 688.381 -3.02336 -1.15648 0
M  V30 7191 H 687.288 -3.57759 1.09359 0
M  V30 7192 H 688.621 -4.71272 1.41998 0
M  V30 7193 N 690.273 -0.685099 -1.4193 0
M  V30 7194 C 691.203 -0.0273506 -2.33484 0
M  V30 7195 C 692.184 0.778366 -1.51246 0
M  V30 7196 O 693.369 0.733449 -1.79817 0
M  V30 7197 C 690.499 0.917272 -3.34968 0
M  V30 7198 C 689.453 0.21941 -4.27437 0
M  V30 7199 C 688.779 1.27768 -5.1921 0
M  V30 7200 C 690.079 -0.907894 -5.14349 0
M  V30 7201 H 691.773 -0.791994 -2.88735 0
M  V30 7202 H 689.319 -0.382308 -1.38832 0
M  V30 7203 H 691.272 1.38657 -3.97935 0
M  V30 7204 H 689.996 1.71346 -2.78043 0
M  V30 7205 H 688.655 -0.229757 -3.65879 0
M  V30 7206 H 688.303 2.06612 -4.58607 0
M  V30 7207 H 688.003 0.815803 -5.81909 0
M  V30 7208 H 689.527 1.7477 -5.85054 0
M  V30 7209 H 690.941 -0.519348 -5.70943 0
M  V30 7210 H 689.338 -1.2962 -5.85934 0
M  V30 7211 H 690.408 -1.75218 -4.52136 0
M  V30 7212 N 691.751 1.51645 -0.429126 0
M  V30 7213 C 692.698 2.27542 0.386446 0
M  V30 7214 C 693.668 1.30786 1.02393 0
M  V30 7215 O 694.853 1.59678 1.0444 0
M  V30 7216 C 691.993 3.11457 1.48623 0
M  V30 7217 C 691.106 4.23196 0.867691 0
M  V30 7218 C 690.241 4.94435 1.94183 0
M  V30 7219 C 689.28 5.98108 1.30129 0
M  V30 7220 N 688.417 6.62786 2.31644 0
M  V30 7221 H 693.257 2.968 -0.267155 0
M  V30 7222 H 690.794 1.46397 -0.143591 0
M  V30 7223 H 692.752 3.58429 2.13506 0
M  V30 7224 H 691.382 2.44329 2.10957 0
M  V30 7225 H 690.434 3.80248 0.107373 0
M  V30 7226 H 691.746 4.97499 0.35997 0
M  V30 7227 H 690.9 5.44914 2.66747 0
M  V30 7228 H 689.639 4.19744 2.48326 0
M  V30 7229 H 688.644 5.4693 0.561082 0
M  V30 7230 H 689.869 6.74751 0.767303 0
M  V30 7231 H 687.815 5.90913 2.84883 0
M  V30 7232 H 687.732 7.32828 1.85741 0
M  V30 7233 H 689 7.17897 3.03717 0
M  V30 7234 N 693.229 0.160201 1.56784 0
M  V30 7235 C 694.454 -0.497373 2.01348 0
M  V30 7236 C 694.879 -1.56757 1.03966 0
M  V30 7237 O 694.237 -1.81292 0.0174455 0
M  V30 7238 C 694.285 -1.0628 3.44582 0
M  V30 7239 O 693.389 -2.17723 3.50244 0
M  V30 7240 H 692.73 -0.120295 0.653012 0
M  V30 7241 H 695.26 0.260821 2.02931 0
M  V30 7242 H 695.27 -1.38819 3.83658 0
M  V30 7243 H 693.945 -0.279166 4.14962 0
M  V30 7244 H 692.522 -1.86313 3.2302 0
M  V30 7245 N 694.707 -1.5719 -0.113559 0
M  V30 7246 C 695.657 -1.97166 -1.14497 0
M  V30 7247 C 696.641 -0.847413 -1.36776 0
M  V30 7248 O 697.833 -1.11114 -1.37777 0
M  V30 7249 C 694.962 -2.38411 -2.47013 0
M  V30 7250 C 694.048 -3.5748 -2.28185 0
M  V30 7251 N 694.439 -4.72998 -1.79182 0
M  V30 7252 C 692.737 -3.63218 -2.58821 0
M  V30 7253 C 693.438 -5.55007 -1.74191 0
M  V30 7254 N 692.414 -4.9765 -2.18735 0
M  V30 7255 H 696.216 -2.83937 -0.758733 0
M  V30 7256 H 693.73 -1.59191 -0.321234 0
M  V30 7257 H 695.727 -2.65269 -3.21618 0
M  V30 7258 H 694.387 -1.53007 -2.8639 0
M  V30 7259 H 695.398 -4.96109 -1.48649 0
M  V30 7260 H 692.075 -2.88434 -3.01847 0
M  V30 7261 H 693.465 -6.57678 -1.37512 0
M  V30 7262 N 696.185 0.383891 -1.52853 0
M  V30 7263 C 697.431 1.13009 -1.68395 0
M  V30 7264 C 697.764 1.89488 -0.425195 0
M  V30 7265 O 697.039 1.8574 0.577136 0
M  V30 7266 C 697.322 2.10419 -2.92226 0
M  V30 7267 C 697.175 1.3767 -4.28214 0
M  V30 7268 C 698.494 3.10781 -3.11614 0
M  V30 7269 H 695.613 0.409463 -0.612788 0
M  V30 7270 H 698.255 0.412895 -1.85459 0
M  V30 7271 H 696.405 2.71579 -2.77808 0
M  V30 7272 H 698.077 0.794352 -4.54409 0
M  V30 7273 H 696.32 0.678533 -4.2846 0
M  V30 7274 H 696.991 2.08874 -5.10956 0
M  V30 7275 H 699.467 2.59715 -3.25096 0
M  V30 7276 H 698.343 3.76179 -3.99725 0
M  V30 7277 H 698.604 3.79933 -2.2606 0
M  V30 7278 N 697.663 1.43903 0.642637 0
M  V30 7279 C 698.893 1.49323 1.4278 0
M  V30 7280 C 699.301 0.113058 1.88862 0
M  V30 7281 O 698.644 -0.889089 1.60751 0
M  V30 7282 C 698.706 2.3861 2.68897 0
M  V30 7283 C 698.37 3.85976 2.44687 0
M  V30 7284 C 699.367 4.7681 2.07239 0
M  V30 7285 C 697.052 4.30567 2.58683 0
M  V30 7286 C 699.046 6.10234 1.841 0
M  V30 7287 C 696.733 5.64042 2.35159 0
M  V30 7288 C 697.731 6.53693 1.97925 0
M  V30 7289 O 697.419 7.84698 1.74654 0
M  V30 7290 H 697.151 0.509109 0.444729 0
M  V30 7291 H 699.705 1.89425 0.794195 0
M  V30 7292 H 697.935 1.93415 3.34855 0
M  V30 7293 H 699.624 2.35112 3.30873 0
M  V30 7294 H 700.39 4.43635 1.95993 0
M  V30 7295 H 696.269 3.61054 2.86637 0
M  V30 7296 H 699.813 6.80171 1.54962 0
M  V30 7297 H 695.71 5.96782 2.46011 0
M  V30 7298 H 696.478 7.96382 1.88993 0
M  V30 7299 N 699.141 -0.881989 1.30609 0
M  V30 7300 C 700.088 -1.98803 1.17244 0
M  V30 7301 C 701.058 -1.65987 0.0611905 0
M  V30 7302 O 702.243 -1.89385 0.231911 0
M  V30 7303 C 699.383 -3.33867 0.87333 0
M  V30 7304 C 698.496 -3.79354 2.06675 0
M  V30 7305 C 697.631 -5.03078 1.70547 0
M  V30 7306 C 696.67 -5.40981 2.86366 0
M  V30 7307 N 695.807 -6.55886 2.50514 0
M  V30 7308 H 700.647 -2.09566 2.11863 0
M  V30 7309 H 698.184 -1.02607 1.05405 0
M  V30 7310 H 700.142 -4.11612 0.680519 0
M  V30 7311 H 698.772 -3.2278 -0.0359983 0
M  V30 7312 H 697.824 -2.97492 2.37071 0
M  V30 7313 H 699.136 -4.03382 2.93401 0
M  V30 7314 H 698.29 -5.88457 1.47658 0
M  V30 7315 H 697.029 -4.80927 0.809947 0
M  V30 7316 H 696.034 -4.54127 3.09917 0
M  V30 7317 H 697.259 -5.65104 3.76609 0
M  V30 7318 H 695.205 -6.35306 1.63471 0
M  V30 7319 H 695.122 -6.79799 3.30771 0
M  V30 7320 H 696.39 -7.44489 2.30989 0
M  V30 7321 N 700.619 -1.13374 -1.09472 0
M  V30 7322 C 701.566 -0.810682 -2.16094 0
M  V30 7323 C 702.536 0.227003 -1.64541 0
M  V30 7324 O 703.721 0.0993538 -1.90541 0
M  V30 7325 C 700.861 -0.282336 -3.43943 0
M  V30 7326 C 699.974 -1.37902 -4.09398 0
M  V30 7327 C 699.109 -0.809066 -5.25002 0
M  V30 7328 C 698.148 -1.88419 -5.82379 0
M  V30 7329 N 697.285 -1.33221 -6.89345 0
M  V30 7330 H 702.125 -1.72397 -2.43071 0
M  V30 7331 H 699.662 -0.860564 -1.19301 0
M  V30 7332 H 701.62 0.0421189 -4.17179 0
M  V30 7333 H 700.25 0.594083 -3.17286 0
M  V30 7334 H 699.302 -1.82008 -3.34032 0
M  V30 7335 H 700.614 -2.19161 -4.48074 0
M  V30 7336 H 699.768 -0.435867 -6.05132 0
M  V30 7337 H 698.507 0.0346058 -4.87688 0
M  V30 7338 H 697.512 -2.26646 -5.00911 0
M  V30 7339 H 698.737 -2.73125 -6.21755 0
M  V30 7340 H 696.683 -0.510535 -6.5401 0
M  V30 7341 H 696.6 -2.08129 -7.26786 0
M  V30 7342 H 697.868 -0.986565 -7.73232 0
M  V30 7343 N 702.098 1.27442 -0.927168 0
M  V30 7344 C 703.326 1.98498 -0.583622 0
M  V30 7345 C 703.741 1.69171 0.838241 0
M  V30 7346 O 703.098 0.951969 1.55704 0
M  V30 7347 C 703.149 3.52552 -0.799341 0
M  V30 7348 O 702.87 3.80851 -2.16527 0
M  V30 7349 C 704.371 4.4086 -0.464436 0
M  V30 7350 H 701.591 0.633487 -0.221213 0
M  V30 7351 H 704.135 1.62308 -1.24404 0
M  V30 7352 H 702.29 3.86955 -0.185728 0
M  V30 7353 H 702.704 4.75441 -2.21487 0
M  V30 7354 H 704.178 5.47967 -0.666075 0
M  V30 7355 H 704.655 4.35082 0.599995 0
M  V30 7356 H 705.261 4.11977 -1.05617 0
M  V30 7357 N 703.576 0.692616 1.41565 0
M  V30 7358 C 704.506 0.0397325 2.33466 0
M  V30 7359 C 705.487 -0.770334 1.51657 0
M  V30 7360 O 706.672 -0.723903 1.80203 0
M  V30 7361 C 703.802 -0.899495 3.3545 0
M  V30 7362 C 702.756 -0.196738 4.27548 0
M  V30 7363 C 702.082 -1.25012 5.19881 0
M  V30 7364 C 703.382 0.935158 5.1386 0
M  V30 7365 H 705.076 0.807296 2.88311 0
M  V30 7366 H 702.622 0.389665 1.38628 0
M  V30 7367 H 704.575 -1.36545 3.98665 0
M  V30 7368 H 703.299 -1.69869 2.78948 0
M  V30 7369 H 701.958 0.249158 3.65752 0
M  V30 7370 H 701.606 -2.04177 4.59696 0
M  V30 7371 H 701.306 -0.784931 5.82334 0
M  V30 7372 H 702.83 -1.71665 5.85972 0
M  V30 7373 H 704.244 0.549619 5.70659 0
M  V30 7374 H 702.641 1.32726 5.85238 0
M  V30 7375 H 703.711 1.77613 4.512 0
M  V30 7376 N 705.054 -1.51416 0.437162 0
M  V30 7377 C 705.986 -2.255 -0.410171 0
M  V30 7378 C 706.999 -1.29511 -0.986444 0
M  V30 7379 O 708.188 -1.55266 -0.880614 0
M  V30 7380 C 705.288 -2.99511 -1.58575 0
M  V30 7381 C 704.461 -4.22595 -1.12839 0
M  V30 7382 C 703.52 -4.79187 -2.17407 0
M  V30 7383 O 702.546 -5.4103 -1.76849 0
M  V30 7384 N 703.748 -4.63204 -3.49889 0
M  V30 7385 H 706.513 -2.98856 0.224783 0
M  V30 7386 H 704.074 -1.59699 0.266041 0
M  V30 7387 H 706.066 -3.34258 -2.28152 0
M  V30 7388 H 704.636 -2.29167 -2.12606 0
M  V30 7389 H 703.856 -3.93344 -0.259695 0
M  V30 7390 H 705.144 -5.02468 -0.800196 0
M  V30 7391 H 704.542 -4.13945 -3.85573 0
M  V30 7392 H 703.099 -5.02313 -4.15361 0
M  V30 7393 N 706.532 -0.168513 -1.56696 0
M  V30 7394 C 707.495 0.748928 -2.16619 0
M  V30 7395 C 708.495 1.16007 -1.11351 0
M  V30 7396 O 709.685 1.07748 -1.3688 0
M  V30 7397 C 706.817 2.01904 -2.74677 0
M  V30 7398 H 708.01 0.227317 -2.99037 0
M  V30 7399 H 705.563 0.0810372 -1.5609 0
M  V30 7400 H 706.298 2.58381 -1.95985 0
M  V30 7401 H 706.083 1.73323 -3.51712 0
M  V30 7402 H 707.573 2.67383 -3.20774 0
M  V30 7403 N 708.01 1.57248 0.105221 0
M  V30 7404 C 708.94 2.04374 1.12931 0
M  V30 7405 C 709.921 0.93074 1.42377 0
M  V30 7406 O 711.106 1.20136 1.52581 0
M  V30 7407 C 708.236 2.45967 2.45189 0
M  V30 7408 C 707.19 3.60838 2.30174 0
M  V30 7409 C 706.516 3.88374 3.67518 0
M  V30 7410 C 707.816 4.92084 1.75073 0
M  V30 7411 H 709.51 2.9018 0.737287 0
M  V30 7412 H 707.056 1.39601 0.353211 0
M  V30 7413 H 709.009 2.77542 3.17094 0
M  V30 7414 H 707.733 1.57148 2.86308 0
M  V30 7415 H 706.392 3.29493 1.60716 0
M  V30 7416 H 706.04 2.96739 4.06147 0
M  V30 7417 H 705.74 4.65703 3.58321 0
M  V30 7418 H 707.264 4.22415 4.40906 0
M  V30 7419 H 708.678 5.22106 2.36809 0
M  V30 7420 H 707.075 5.73507 1.76662 0
M  V30 7421 H 708.145 4.79684 0.709347 0
M  V30 7422 N 709.488 -0.375779 1.53054 0
M  V30 7423 C 710.737 -1.11674 1.67964 0
M  V30 7424 C 711.05 -1.90755 0.432655 0
M  V30 7425 O 712.256 -2.67538 0.462109 0
M  V30 7426 C 710.712 -2.0344 2.96884 0
M  V30 7427 C 710.32 -1.29719 4.28809 0
M  V30 7428 C 712.064 -2.7759 3.2116 0
M  V30 7429 C 709.971 -2.20327 5.48826 0
M  V30 7430 H 708.901 -0.420597 0.625791 0
M  V30 7431 H 711.552 -0.378499 1.79554 0
M  V30 7432 H 709.934 -2.80953 2.79072 0
M  V30 7433 H 711.108 -0.573394 4.57219 0
M  V30 7434 H 709.423 -0.674735 4.10897 0
M  V30 7435 H 712.02 -3.4559 4.0801 0
M  V30 7436 H 712.363 -3.42399 2.36789 0
M  V30 7437 H 712.896 -2.07164 3.396 0
M  V30 7438 H 709.635 -1.60113 6.35645 0
M  V30 7439 H 709.155 -2.90585 5.2471 0
M  V30 7440 H 710.834 -2.80116 5.83219 0
M  V30 7441 N 710.966 -1.44241 -0.634997 0
M  V30 7442 C 712.196 -1.50078 -1.41987 0
M  V30 7443 C 712.604 -0.123072 -1.88799 0
M  V30 7444 O 711.947 0.880552 -1.6122 0
M  V30 7445 C 712.009 -2.40033 -2.67628 0
M  V30 7446 C 711.673 -3.87268 -2.42637 0
M  V30 7447 C 712.67 -4.77902 -2.04708 0
M  V30 7448 C 710.355 -4.31933 -2.56396 0
M  V30 7449 C 712.349 -6.11202 -1.80862 0
M  V30 7450 C 710.036 -5.65281 -2.32164 0
M  V30 7451 C 711.034 -6.54734 -1.94455 0
M  V30 7452 O 710.722 -7.85613 -1.7049 0
M  V30 7453 H 710.454 -0.51146 -0.442023 0
M  V30 7454 H 713.008 -1.89843 -0.784138 0
M  V30 7455 H 711.238 -1.95188 -3.33824 0
M  V30 7456 H 712.927 -2.36863 -3.29622 0
M  V30 7457 H 713.693 -4.44668 -1.93638 0
M  V30 7458 H 709.572 -3.62569 -2.84719 0
M  V30 7459 H 713.116 -6.80983 -1.51353 0
M  V30 7460 H 709.013 -5.98078 -2.42843 0
M  V30 7461 H 709.781 -7.97373 -1.84767 0
M  V30 7462 N 712.444 0.87505 -1.31075 0
M  V30 7463 C 713.855 1.4433 -1.18431 0
M  V30 7464 C 714.206 1.9506 0.211189 0
M  V30 7465 O 713.331 1.85847 1.10859 0
M  V30 7466 C 713.926 2.62341 -2.14389 0
M  V30 7467 C 712.485 3.15225 -2.05694 0
M  V30 7468 C 711.632 1.87929 -2.03907 0
M  V30 7469 H 714.583 0.684061 -1.432 0
M  V30 7470 H 714.604 3.3887 -1.73053 0
M  V30 7471 H 714.116 2.25388 -3.15946 0
M  V30 7472 H 712.217 3.56812 -1.07314 0
M  V30 7473 H 712.33 3.77853 -2.94558 0
M  V30 7474 H 710.694 2.06679 -1.48849 0
M  V30 7475 H 711.477 1.53221 -3.07211 0
M  V30 7476 N 713.922 1.13953 1.08869 0
M  V30 7477 C 715.171 0.899431 1.80536 0
M  V30 7478 C 715.484 -0.575781 1.86933 0
M  V30 7479 O 716.69 -0.932988 2.54966 0
M  V30 7480 C 715.146 1.55963 3.24351 0
M  V30 7481 C 714.754 3.07077 3.26202 0
M  V30 7482 C 716.498 1.40046 4.00733 0
M  V30 7483 C 714.405 3.65955 4.64576 0
M  V30 7484 H 713.335 0.332849 0.676556 0
M  V30 7485 H 715.986 1.3679 1.22314 0
M  V30 7486 H 714.368 1.01883 3.82669 0
M  V30 7487 H 715.542 3.67785 2.77617 0
M  V30 7488 H 713.857 3.22576 2.63312 0
M  V30 7489 H 716.454 1.81441 5.02974 0
M  V30 7490 H 716.797 0.345993 4.1486 0
M  V30 7491 H 717.33 1.91137 3.48872 0
M  V30 7492 H 714.069 4.71234 4.55652 0
M  V30 7493 H 713.589 3.10027 5.13462 0
M  V30 7494 H 715.268 3.65968 5.33551 0
M  V30 7495 N 715.4 -1.26948 0.933913 0
M  V30 7496 C 716.625 -1.98724 0.593589 0
M  V30 7497 C 717.05 -1.6915 -0.822801 0
M  V30 7498 O 716.408 -0.93533 -1.5531 0
M  V30 7499 C 716.456 -3.50834 0.833542 0
M  V30 7500 O 715.56 -4.12284 -0.0978788 0
M  V30 7501 H 714.901 -0.623683 0.227849 0
M  V30 7502 H 717.431 -1.61599 1.25486 0
M  V30 7503 H 717.441 -4.01018 0.75156 0
M  V30 7504 H 716.116 -3.71691 1.86597 0
M  V30 7505 H 714.693 -3.72884 0.0345443 0
M  V30 7506 N 716.879 -0.700114 -1.41195 0
M  V30 7507 C 718.119 -0.237223 -2.03019 0
M  V30 7508 C 718.483 1.14304 -1.54268 0
M  V30 7509 O 719.684 1.70204 -2.08048 0
M  V30 7510 C 717.955 -0.297442 -3.5616 0
M  V30 7511 S 719.514 0.0907367 -4.38706 0
M  V30 7512 H 716.332 -0.0952147 -0.704596 0
M  V30 7513 H 718.934 -0.918901 -1.72559 0
M  V30 7514 H 717.638 -1.30391 -3.89135 0
M  V30 7515 H 717.169 0.403233 -3.91328 0
M  V30 7516 H 719.184 1.31721 -4.78397 0
M  V30 7517 N 718.357 1.51182 -0.445186 0
M  V30 7518 C 719.585 2.06568 0.117091 0
M  V30 7519 C 720 1.31182 1.35781 0
M  V30 7520 O 719.357 0.373605 1.78635 0
M  V30 7521 C 719.408 3.58917 0.431408 0
M  V30 7522 O 719.129 4.31456 -0.760078 0
M  V30 7523 C 720.63 4.30843 1.0435 0
M  V30 7524 H 717.85 0.670985 0.00444436 0
M  V30 7525 H 720.394 1.94666 -0.626525 0
M  V30 7526 H 718.549 3.70708 1.12493 0
M  V30 7527 H 718.963 5.22215 -0.489048 0
M  V30 7528 H 720.437 5.38499 1.21337 0
M  V30 7529 H 720.914 3.89644 2.02667 0
M  V30 7530 H 721.52 4.23516 0.38913 0
M  V30 7531 N 719.835 0.176821 1.56605 0
M  V30 7532 C 721.063 -0.472828 2.01425 0
M  V30 7533 C 721.478 -1.56436 1.05703 0
M  V30 7534 O 720.835 -1.82405 0.058808 0
M  V30 7535 C 720.886 -1.04607 3.46034 0
M  V30 7536 O 720.607 0.00189608 4.381 0
M  V30 7537 C 722.108 -1.7734 4.06282 0
M  V30 7538 H 719.328 -0.120503 0.660091 0
M  V30 7539 H 721.872 0.280166 2.02572 0
M  V30 7540 H 720.027 -1.74953 3.45645 0
M  V30 7541 H 720.441 -0.422118 5.22799 0
M  V30 7542 H 721.915 -2.12703 5.09374 0
M  V30 7543 H 722.392 -2.67043 3.4869 0
M  V30 7544 H 722.998 -1.11623 4.10391 0
M  V30 7545 N 721.313 -1.57302 -0.09688 0
M  V30 7546 C 722.724 -1.7496 -0.651595 0
M  V30 7547 C 723.075 -0.798746 -1.79205 0
M  V30 7548 O 722.2 0.0231858 -2.16388 0
M  V30 7549 C 722.795 -3.17259 -1.18878 0
M  V30 7550 C 721.354 -3.36348 -1.68958 0
M  V30 7551 C 720.501 -2.70766 -0.598413 0
M  V30 7552 H 723.452 -1.58173 0.12918 0
M  V30 7553 H 723.473 -3.20033 -2.05814 0
M  V30 7554 H 722.985 -3.8644 -0.358523 0
M  V30 7555 H 721.086 -2.72243 -2.5439 0
M  V30 7556 H 721.199 -4.44654 -1.7838 0
M  V30 7557 H 719.563 -2.32615 -1.03743 0
M  V30 7558 H 720.346 -3.42586 0.221238 0
M  V30 7559 N 722.791 0.367657 -1.53252 0
M  V30 7560 C 723.741 1.45035 -1.75923 0
M  V30 7561 C 724.725 1.48736 -0.613719 0
M  V30 7562 O 725.917 1.54012 -0.872313 0
M  V30 7563 C 723.046 2.82493 -1.9507 0
M  V30 7564 C 722.132 2.83279 -3.15617 0
M  V30 7565 N 722.523 2.53712 -4.37566 0
M  V30 7566 C 720.821 3.1444 -3.16297 0
M  V30 7567 C 721.522 2.62123 -5.19294 0
M  V30 7568 N 720.498 2.96747 -4.55458 0
M  V30 7569 H 724.3 1.21035 -2.6782 0
M  V30 7570 H 721.814 0.575822 -1.51849 0
M  V30 7571 H 723.811 3.60473 -2.0944 0
M  V30 7572 H 722.471 3.07459 -1.044 0
M  V30 7573 H 723.482 2.27344 -4.65333 0
M  V30 7574 H 720.159 3.44733 -2.35511 0
M  V30 7575 H 721.549 2.42628 -6.26563 0
M  V30 7576 N 724.269 1.44576 0.627338 0
M  V30 7577 C 725.217 1.52039 1.76031 0
M  V30 7578 C 726.211 0.391796 1.64807 0
M  V30 7579 O 727.417 0.5669 1.7084 0
M  V30 7580 H 723.792 0.477165 0.581221 0
M  V30 7581 H 725.763 2.47387 1.6686 0
M  V30 7582 C 724.512 1.48539 3.14375 0
M  V30 7583 H 723.835 2.34699 3.23661 0
M  V30 7584 H 725.275 1.57821 3.93534 0
M  V30 7585 C 723.734 0.20672 3.36265 0
M  V30 7586 O 724.264 -0.72154 3.95167 0
M  V30 7587 N 722.47 0.108654 2.90397 0
M  V30 7588 H 722.017 0.864884 2.42647 0
M  V30 7589 H 721.975 -0.746121 3.05418 0
M  V30 7590 N 725.747 -0.868086 1.31537 0
M  V30 7591 C 726.994 -1.62127 1.2133 0
M  V30 7592 C 727.322 -1.93158 -0.2281 0
M  V30 7593 O 726.577 -1.5632 -1.1774 0
M  V30 7594 C 726.876 -2.95889 2.0046 0
M  V30 7595 C 726.542 -2.84343 3.49943 0
M  V30 7596 C 725.204 -2.80901 3.90702 0
M  V30 7597 C 727.556 -2.71243 4.45058 0
M  V30 7598 C 724.884 -2.6222 5.24841 0
M  V30 7599 C 727.236 -2.54098 5.79325 0
M  V30 7600 C 725.9 -2.4904 6.19302 0
M  V30 7601 H 725.17 -0.593265 0.443979 0
M  V30 7602 H 727.817 -1.00803 1.62822 0
M  V30 7603 H 726.122 -3.61259 1.51655 0
M  V30 7604 H 727.819 -3.53161 1.89942 0
M  V30 7605 H 724.409 -2.8784 3.17563 0
M  V30 7606 H 728.593 -2.72956 4.14498 0
M  V30 7607 H 723.849 -2.56731 5.54887 0
M  V30 7608 H 728.023 -2.42938 6.52652 0
M  V30 7609 H 725.65 -2.34324 7.23185 0
M  V30 7610 N 727.225 -1.14528 -1.08264 0
M  V30 7611 C 728.135 -0.84728 -2.18765 0
M  V30 7612 C 729.151 0.172826 -1.7314 0
M  V30 7613 O 730.327 0.000985336 -2.014 0
M  V30 7614 C 727.392 -0.330633 -3.4512 0
M  V30 7615 C 726.453 -1.41348 -4.05363 0
M  V30 7616 C 725.686 -0.921387 -5.25686 0
M  V30 7617 O 725.909 0.236587 -5.69909 0
M  V30 7618 O 724.843 -1.70101 -5.77364 0
M  V30 7619 H 728.669 -1.7708 -2.46731 0
M  V30 7620 H 726.254 -0.923661 -1.17426 0
M  V30 7621 H 728.136 -0.0485053 -4.21372 0
M  V30 7622 H 726.811 0.565147 -3.18728 0
M  V30 7623 H 725.718 -1.74908 -3.30693 0
M  V30 7624 H 727.051 -2.28383 -4.36007 0
M  V30 7625 N 728.703 1.26451 -0.940633 0
M  V30 7626 C 729.949 1.94065 -0.58878 0
M  V30 7627 C 730.282 1.7363 0.869853 0
M  V30 7628 O 729.557 1.073 1.62225 0
M  V30 7629 C 729.84 3.47852 -0.931199 0
M  V30 7630 C 729.693 3.77575 -2.44453 0
M  V30 7631 C 731.012 4.37832 -0.446229 0
M  V30 7632 H 728.131 0.704827 -0.21538 0
M  V30 7633 H 730.773 1.4933 -1.17475 0
M  V30 7634 H 728.923 3.86085 -0.432539 0
M  V30 7635 H 730.595 3.49059 -3.01588 0
M  V30 7636 H 728.838 3.23671 -2.88825 0
M  V30 7637 H 729.509 4.85068 -2.63464 0
M  V30 7638 H 731.985 4.06822 -0.873778 0
M  V30 7639 H 730.861 5.44228 -0.714648 0
M  V30 7640 H 731.122 4.37239 0.653815 0
M  V30 7641 N 730.181 0.707592 1.40822 0
M  V30 7642 C 731.427 0.252828 2.01823 0
M  V30 7643 C 731.782 -1.13876 1.55081 0
M  V30 7644 O 731.075 -1.75993 0.757439 0
M  V30 7645 C 731.269 0.262892 3.56432 0
M  V30 7646 C 731.098 1.65392 4.18181 0
M  V30 7647 C 729.868 2.25966 4.5196 0
M  V30 7648 C 732.066 2.60272 4.4358 0
M  V30 7649 N 730.048 3.57508 4.9906 0
M  V30 7650 C 731.419 3.76509 4.92586 0
M  V30 7651 C 733.474 2.58386 4.25607 0
M  V30 7652 C 732.177 4.91157 5.25507 0
M  V30 7653 C 734.203 3.72155 4.59625 0
M  V30 7654 C 733.565 4.87123 5.08813 0
M  V30 7655 H 729.664 0.138172 0.769696 0
M  V30 7656 H 732.248 0.927667 1.7118 0
M  V30 7657 H 730.419 -0.381479 3.86522 0
M  V30 7658 H 732.151 -0.20783 4.04166 0
M  V30 7659 H 728.906 1.78138 4.38821 0
M  V30 7660 H 729.33 4.24968 5.27002 0
M  V30 7661 H 733.972 1.7071 3.86805 0
M  V30 7662 H 731.69 5.79483 5.63227 0
M  V30 7663 H 735.276 3.71961 4.47366 0
M  V30 7664 H 734.156 5.73698 5.3464 0
M  V30 7665 N 731.66 -1.50943 0.453197 0
M  V30 7666 C 732.885 -2.07116 -0.108463 0
M  V30 7667 C 733.31 -1.31681 -1.3432 0
M  V30 7668 O 732.668 -0.359256 -1.77705 0
M  V30 7669 C 732.716 -3.58447 -0.393424 0
M  V30 7670 O 731.82 -3.85038 -1.47714 0
M  V30 7671 H 731.161 -0.66398 0.0050993 0
M  V30 7672 H 733.691 -1.94362 0.639095 0
M  V30 7673 H 733.701 -4.02961 -0.639222 0
M  V30 7674 H 732.376 -4.12774 0.508946 0
M  V30 7675 H 730.953 -3.52376 -1.22006 0
M  V30 7676 N 733.138 -0.185124 -1.56509 0
M  V30 7677 C 734.101 0.72591 -2.17401 0
M  V30 7678 C 735.101 1.14819 -1.12575 0
M  V30 7679 O 736.291 1.0629 -1.38015 0
M  V30 7680 C 733.423 1.98979 -2.76803 0
M  V30 7681 H 734.616 0.195588 -2.99262 0
M  V30 7682 H 732.169 0.0644772 -1.56167 0
M  V30 7683 H 732.904 2.56287 -1.98714 0
M  V30 7684 H 732.689 1.69583 -3.53531 0
M  V30 7685 H 734.179 2.63966 -3.23592 0
M  V30 7686 N 734.616 1.57351 0.0885366 0
M  V30 7687 C 735.844 1.90631 0.804196 0
M  V30 7688 C 736.259 0.779474 1.71958 0
M  V30 7689 O 735.616 -0.248179 1.80805 0
M  V30 7690 C 735.667 3.23568 1.61202 0
M  V30 7691 O 735.388 4.31917 0.733447 0
M  V30 7692 C 736.889 3.70753 2.43016 0
M  V30 7693 H 734.109 0.630501 0.229585 0
M  V30 7694 H 736.653 2.044 0.0638092 0
M  V30 7695 H 734.808 3.11377 2.30485 0
M  V30 7696 H 735.222 5.08297 1.29361 0
M  V30 7697 H 736.696 4.66447 2.9518 0
M  V30 7698 H 737.173 2.98922 3.2178 0
M  V30 7699 H 737.779 3.85834 1.7892 0
M  V30 7700 N 736.094 -0.359525 1.53444 0
M  V30 7701 C 737.322 -1.12198 1.73837 0
M  V30 7702 C 737.737 -1.82854 0.470107 0
M  V30 7703 O 737.094 -1.73781 -0.557349 0
M  V30 7704 C 737.145 -2.14769 2.90786 0
M  V30 7705 O 736.866 -1.46989 4.12706 0
M  V30 7706 C 738.367 -3.03514 3.231 0
M  V30 7707 H 735.587 -0.33524 0.581253 0
M  V30 7708 H 738.131 -0.416598 2.00212 0
M  V30 7709 H 736.286 -2.80896 2.66788 0
M  V30 7710 H 736.7 -2.15378 4.78239 0
M  V30 7711 H 738.174 -3.71453 4.08322 0
M  V30 7712 H 738.651 -3.68658 2.38721 0
M  V30 7713 H 739.257 -2.42996 3.49046 0
M  V30 7714 N 737.572 -1.44907 -0.619662 0
M  V30 7715 C 738.983 -1.42905 -1.20146 0
M  V30 7716 C 739.334 -0.150341 -1.95623 0
M  V30 7717 O 738.459 0.748732 -2.03034 0
M  V30 7718 C 739.054 -2.58889 -2.18545 0
M  V30 7719 C 737.613 -2.60046 -2.72127 0
M  V30 7720 C 736.76 -2.3493 -1.4732 0
M  V30 7721 H 739.711 -1.53321 -0.409666 0
M  V30 7722 H 739.732 -2.32298 -3.0136 0
M  V30 7723 H 739.244 -3.51941 -1.63583 0
M  V30 7724 H 737.345 -1.70968 -3.3106 0
M  V30 7725 H 737.458 -3.58893 -3.17384 0
M  V30 7726 H 735.822 -1.84248 -1.75855 0
M  V30 7727 H 736.605 -3.3011 -0.942442 0
M  V30 7728 N 739.05 0.861098 -1.31996 0
M  V30 7729 C 740.278 1.6474 -1.25173 0
M  V30 7730 C 740.693 1.87926 0.181425 0
M  V30 7731 O 740.05 1.4437 1.1164 0
M  V30 7732 C 740.101 3.01036 -2.0015 0
M  V30 7733 O 739.822 2.7888 -3.37872 0
M  V30 7734 C 741.323 3.95481 -2.00273 0
M  V30 7735 H 738.543 0.513314 -0.432146 0
M  V30 7736 H 741.087 1.07419 -1.74016 0
M  V30 7737 H 739.242 3.55021 -1.55046 0
M  V30 7738 H 739.656 3.65514 -3.76165 0
M  V30 7739 H 741.13 4.88403 -2.57229 0
M  V30 7740 H 741.607 4.27957 -0.987407 0
M  V30 7741 H 742.213 3.47433 -2.45296 0
M  V30 7742 N 740.528 1.15101 1.07655 0
M  V30 7743 C 741.758 0.946357 1.83651 0
M  V30 7744 C 742.166 -0.508641 1.82235 0
M  V30 7745 O 741.509 -1.36445 1.22997 0
M  V30 7746 C 741.571 1.37945 3.31981 0
M  V30 7747 C 741.235 2.85155 3.57122 0
M  V30 7748 C 742.232 3.83234 3.51323 0
M  V30 7749 C 739.917 3.2275 3.84887 0
M  V30 7750 C 741.911 5.16914 3.72932 0
M  V30 7751 C 739.598 4.56604 4.06148 0
M  V30 7752 C 740.596 5.53495 4.00165 0
M  V30 7753 O 740.284 6.84931 4.20861 0
M  V30 7754 H 740.016 0.336368 0.586372 0
M  V30 7755 H 742.57 1.53198 1.36819 0
M  V30 7756 H 740.8 0.737205 3.79608 0
M  V30 7757 H 742.489 1.14439 3.89434 0
M  V30 7758 H 743.255 3.55535 3.29878 0
M  V30 7759 H 739.134 2.47921 3.88659 0
M  V30 7760 H 742.678 5.92529 3.68178 0
M  V30 7761 H 738.575 4.84019 4.27078 0
M  V30 7762 H 739.343 6.91304 4.38226 0
M  V30 7763 N 742.006 -1.2595 0.947325 0
M  V30 7764 C 743.246 -1.95218 0.605743 0
M  V30 7765 C 743.61 -1.72624 -0.84054 0
M  V30 7766 O 744.811 -2.35748 -1.29136 0
M  V30 7767 C 743.082 -3.44654 0.94596 0
M  V30 7768 S 744.641 -4.32922 0.715849 0
M  V30 7769 H 741.459 -0.675159 0.222894 0
M  V30 7770 H 744.061 -1.52766 1.21995 0
M  V30 7771 H 742.765 -3.586 1.99585 0
M  V30 7772 H 742.296 -3.92082 0.321718 0
M  V30 7773 H 744.311 -4.94445 -0.416959 0
M  V30 7774 N 743.484 -0.715051 -1.40445 0
M  V30 7775 C 744.714 -0.263576 -2.04912 0
M  V30 7776 C 745.122 1.09943 -1.53978 0
M  V30 7777 O 744.465 1.70203 -0.691133 0
M  V30 7778 C 744.527 -0.165048 -3.59121 0
M  V30 7779 C 744.191 -1.46325 -4.32941 0
M  V30 7780 C 745.188 -2.40506 -4.60926 0
M  V30 7781 C 742.873 -1.72203 -4.7186 0
M  V30 7782 C 744.867 -3.58812 -5.26814 0
M  V30 7783 C 742.554 -2.9079 -5.3748 0
M  V30 7784 C 743.552 -3.83917 -5.64887 0
M  V30 7785 O 743.24 -5.00424 -6.29151 0
M  V30 7786 H 742.972 -0.116317 -0.665918 0
M  V30 7787 H 745.526 -0.973774 -1.8085 0
M  V30 7788 H 743.756 0.601088 -3.82 0
M  V30 7789 H 745.445 0.251794 -4.05118 0
M  V30 7790 H 746.211 -2.21778 -4.31323 0
M  V30 7791 H 742.09 -1.00571 -4.49896 0
M  V30 7792 H 745.634 -4.31517 -5.48123 0
M  V30 7793 H 741.531 -3.09428 -5.66502 0
M  V30 7794 H 742.299 -5.00494 -6.47648 0
M  V30 7795 N 744.962 1.50701 -0.461195 0
M  V30 7796 C 745.872 2.32069 0.343661 0
M  V30 7797 C 746.888 1.42016 1.00535 0
M  V30 7798 O 748.064 1.75077 0.995498 0
M  V30 7799 C 745.129 3.16424 1.41692 0
M  V30 7800 C 744.19 4.22286 0.772869 0
M  V30 7801 C 743.423 5.02609 1.79499 0
M  V30 7802 O 743.646 4.83874 3.0203 0
M  V30 7803 O 742.58 5.86047 1.3723 0
M  V30 7804 H 746.406 3.01996 -0.321268 0
M  V30 7805 H 743.991 1.47723 -0.223235 0
M  V30 7806 H 745.873 3.68795 2.03883 0
M  V30 7807 H 744.548 2.49236 2.0655 0
M  V30 7808 H 743.455 3.73931 0.112277 0
M  V30 7809 H 744.788 4.91915 0.167399 0
M  V30 7810 N 746.441 0.193421 1.56409 0
M  V30 7811 C 747.681 -0.447977 1.9943 0
M  V30 7812 C 748.045 -1.58915 1.07751 0
M  V30 7813 O 749.246 -2.29462 1.40002 0
M  V30 7814 C 747.517 -0.89793 3.45936 0
M  V30 7815 S 749.076 -1.5374 4.10986 0
M  V30 7816 H 745.894 -0.143316 0.696406 0
M  V30 7817 H 748.496 0.296093 1.93245 0
M  V30 7818 H 747.2 -0.0572927 4.1036 0
M  V30 7819 H 746.731 -1.67551 3.55936 0
M  V30 7820 H 748.746 -2.82612 4.07854 0
M  V30 7821 N 747.919 -1.57396 -0.0801906 0
M  V30 7822 C 748.829 -2.06451 -1.11423 0
M  V30 7823 C 749.845 -0.992352 -1.42928 0
M  V30 7824 O 751.021 -1.30651 -1.53272 0
M  V30 7825 C 748.086 -2.49164 -2.41077 0
M  V30 7826 C 747.147 -3.70641 -2.16619 0
M  V30 7827 C 746.38 -4.11307 -3.40092 0
M  V30 7828 O 746.603 -3.51922 -4.48895 0
M  V30 7829 O 745.537 -5.04157 -3.288 0
M  V30 7830 H 749.363 -2.94857 -0.727519 0
M  V30 7831 H 746.948 -1.46484 -0.293743 0
M  V30 7832 H 748.83 -2.77196 -3.17396 0
M  V30 7833 H 747.505 -1.6389 -2.79145 0
M  V30 7834 H 746.412 -3.47703 -1.38033 0
M  V30 7835 H 747.745 -4.5674 -1.83437 0
M  V30 7836 N 749.397 0.351382 -1.53633 0
M  V30 7837 C 750.645 1.09034 -1.70165 0
M  V30 7838 C 750.966 1.89413 -0.463422 0
M  V30 7839 O 750.236 1.888 0.522624 0
M  V30 7840 H 748.816 0.405522 -0.627344 0
M  V30 7841 H 751.478 0.394554 -1.90865 0
M  V30 7842 H 750.574 1.77215 -2.56907 0
M  V30 7843 N 750.875 1.45233 0.611969 0
M  V30 7844 C 751.805 1.5641 1.73373 0
M  V30 7845 C 752.786 0.415896 1.64937 0
M  V30 7846 O 753.971 0.638478 1.83404 0
M  V30 7847 C 751.101 1.52627 3.11965 0
M  V30 7848 C 750.055 2.66119 3.35208 0
M  V30 7849 C 749.381 2.4739 4.74028 0
M  V30 7850 C 750.681 4.08157 3.25891 0
M  V30 7851 H 752.375 2.50307 1.64277 0
M  V30 7852 H 749.921 1.20467 0.788904 0
M  V30 7853 H 751.874 1.59043 3.90235 0
M  V30 7854 H 750.598 0.552564 3.21892 0
M  V30 7855 H 749.257 2.59123 2.59327 0
M  V30 7856 H 748.905 1.48168 4.80682 0
M  V30 7857 H 748.605 3.23494 4.90536 0
M  V30 7858 H 750.129 2.55653 5.54503 0
M  V30 7859 H 751.543 4.1642 3.9404 0
M  V30 7860 H 749.94 4.84617 3.5393 0
M  V30 7861 H 751.01 4.30374 2.23397 0
M  V30 7862 N 752.353 -0.854086 1.3245 0
M  V30 7863 C 753.283 -1.97827 1.24044 0
M  V30 7864 C 754.264 -1.69646 0.124166 0
M  V30 7865 O 755.449 -1.91687 0.31143 0
M  V30 7866 C 752.579 -3.33673 0.963324 0
M  V30 7867 C 751.533 -3.76207 2.04089 0
M  V30 7868 C 750.859 -5.0969 1.61618 0
M  V30 7869 C 752.159 -3.91612 3.45597 0
M  V30 7870 H 753.853 -2.05118 2.18099 0
M  V30 7871 H 751.399 -0.985489 1.04996 0
M  V30 7872 H 753.352 -4.11871 0.891061 0
M  V30 7873 H 752.076 -3.26597 -0.0128649 0
M  V30 7874 H 750.735 -3.0026 2.10332 0
M  V30 7875 H 750.383 -4.99072 0.627418 0
M  V30 7876 H 750.083 -5.3912 2.33717 0
M  V30 7877 H 751.607 -5.90381 1.55829 0
M  V30 7878 H 753.021 -4.60163 3.4194 0
M  V30 7879 H 751.418 -4.3246 4.16051 0
M  V30 7880 H 752.488 -2.9451 3.85217 0
M  V30 7881 N 753.831 -1.1567 -1.07043 0
M  V30 7882 C 755.077 -0.944878 -1.80121 0
M  V30 7883 C 755.432 0.522239 -1.85177 0
M  V30 7884 O 754.725 1.38228 -1.32678 0
M  V30 7885 C 754.919 -1.49677 -3.24548 0
M  V30 7886 C 754.748 -3.01602 -3.33566 0
M  V30 7887 C 753.518 -3.70177 -3.43943 0
M  V30 7888 C 755.716 -3.99362 -3.24059 0
M  V30 7889 N 753.698 -5.09882 -3.41896 0
M  V30 7890 C 755.069 -5.25404 -3.29167 0
M  V30 7891 C 757.124 -3.91289 -3.07891 0
M  V30 7892 C 755.827 -6.44314 -3.19769 0
M  V30 7893 C 757.853 -5.09761 -2.99829 0
M  V30 7894 C 757.215 -6.34679 -3.05552 0
M  V30 7895 H 753.314 -0.399447 -0.672284 0
M  V30 7896 H 755.898 -1.4693 -1.27749 0
M  V30 7897 H 754.069 -0.998941 -3.75334 0
M  V30 7898 H 755.801 -1.22346 -3.85764 0
M  V30 7899 H 752.556 -3.2078 -3.48421 0
M  V30 7900 H 752.98 -5.82857 -3.44393 0
M  V30 7901 H 757.622 -2.95573 -3.02318 0
M  V30 7902 H 755.34 -7.4026 -3.24101 0
M  V30 7903 H 758.926 -5.05279 -2.88418 0
M  V30 7904 H 757.806 -7.24812 -2.99361 0
M  V30 7905 N 755.309 1.25446 -0.953992 0
M  V30 7906 C 756.557 1.92762 -0.607227 0
M  V30 7907 C 756.878 1.7509 0.858399 0
M  V30 7908 O 756.148 1.11416 1.61132 0
M  V30 7909 H 754.728 0.713377 -0.221591 0
M  V30 7910 H 757.39 1.52625 -1.21209 0
M  V30 7911 H 756.486 3.00695 -0.835998 0
M  V30 7912 N 756.787 0.722489 1.40064 0
M  V30 7913 C 757.717 0.0892452 2.33329 0
M  V30 7914 C 758.698 -0.737992 1.53257 0
M  V30 7915 O 759.883 -0.685516 1.81698 0
M  V30 7916 C 757.013 -0.828139 3.37282 0
M  V30 7917 C 755.967 -0.106005 4.27869 0
M  V30 7918 C 755.293 -1.13957 5.22415 0
M  V30 7919 C 756.593 1.04395 5.11761 0
M  V30 7920 H 758.287 0.868269 2.86534 0
M  V30 7921 H 755.833 0.418982 1.3777 0
M  V30 7922 H 757.786 -1.28058 4.01471 0
M  V30 7923 H 756.51 -1.63914 2.82489 0
M  V30 7924 H 755.169 0.326683 3.65142 0
M  V30 7925 H 754.817 -1.9438 4.63924 0
M  V30 7926 H 754.517 -0.661233 5.83868 0
M  V30 7927 H 756.041 -1.59197 5.89482 0
M  V30 7928 H 757.455 0.670541 5.69365 0
M  V30 7929 H 755.852 1.4511 5.82291 0
M  V30 7930 H 756.922 1.87144 4.47331 0
M  V30 7931 N 758.265 -1.50454 0.469181 0
M  V30 7932 C 759.228 -2.2703 -0.314643 0
M  V30 7933 C 760.228 -1.31734 -0.922111 0
M  V30 7934 O 761.418 -1.55176 -0.791588 0
M  V30 7935 C 758.55 -3.08616 -1.44806 0
M  V30 7936 H 759.743 -2.97769 0.356892 0
M  V30 7937 H 757.296 -1.54698 0.223191 0
M  V30 7938 H 758.031 -2.42369 -2.1547 0
M  V30 7939 H 757.816 -3.78647 -1.01829 0
M  V30 7940 H 759.306 -3.66536 -2.00103 0
M  V30 7941 N 759.743 -0.201713 -1.56304 0
M  V30 7942 C 761.159 0.154025 -1.58855 0
M  V30 7943 C 761.359 1.60516 -1.21807 0
M  V30 7944 O 760.415 2.34193 -0.94393 0
M  V30 7945 C 761.728 -0.154319 -3.00304 0
M  V30 7946 C 763.276 -0.0949578 -3.12856 0
M  V30 7947 C 763.751 -0.376703 -4.56448 0
M  V30 7948 N 765.242 -0.325558 -4.62054 0
M  V30 7949 C 765.977 -0.51732 -5.71062 0
M  V30 7950 N 765.473 -0.769789 -6.8851 0
M  V30 7951 N 767.266 -0.45112 -5.60287 0
M  V30 7952 H 759.417 -1.14858 -1.78666 0
M  V30 7953 H 761.68 -0.458934 -0.829508 0
M  V30 7954 H 761.386 -1.16074 -3.31994 0
M  V30 7955 H 761.26 0.540014 -3.73314 0
M  V30 7956 H 763.647 0.902075 -2.80974 0
M  V30 7957 H 763.728 -0.822468 -2.42217 0
M  V30 7958 H 763.372 -1.37108 -4.89044 0
M  V30 7959 H 763.302 0.371772 -5.25286 0
M  V30 7960 H 765.793 -0.137308 -3.7765 0
M  V30 7961 H 766.106 -0.904744 -7.67486 0
M  V30 7962 H 764.451 -0.806758 -6.90302 0
M  V30 7963 H 767.642 -0.254253 -4.67409 0
M  V30 7964 H 767.815 -0.603982 -6.45179 0
M  V30 7965 N 761.222 1.57436 0.0718424 0
M  V30 7966 C 762.154 2.00412 1.1121 0
M  V30 7967 C 763.167 0.910074 1.34987 0
M  V30 7968 O 764.356 1.18796 1.33228 0
M  V30 7969 C 761.456 2.32786 2.46301 0
M  V30 7970 C 760.629 3.64036 2.4248 0
M  V30 7971 C 759.688 3.8408 3.59679 0
M  V30 7972 O 758.714 4.55667 3.4111 0
M  V30 7973 N 759.916 3.2643 4.80025 0
M  V30 7974 H 762.681 2.90264 0.746118 0
M  V30 7975 H 760.242 1.59791 0.260495 0
M  V30 7976 H 762.234 2.43368 3.23348 0
M  V30 7977 H 760.804 1.48824 2.74901 0
M  V30 7978 H 760.024 3.64208 1.50818 0
M  V30 7979 H 761.312 4.50217 2.37027 0
M  V30 7980 H 760.71 2.68325 4.98014 0
M  V30 7981 H 759.267 3.42461 5.54584 0
M  V30 7982 N 762.7 -0.34323 1.53817 0
M  V30 7983 C 763.948 -1.0813 1.70741 0
M  V30 7984 C 764.269 -1.89165 0.473461 0
M  V30 7985 O 763.539 -1.89075 -0.512605 0
M  V30 7986 H 762.119 -0.40219 0.629486 0
M  V30 7987 H 764.781 -0.384426 1.91071 0
M  V30 7988 H 763.877 -1.7585 2.57843 0
M  V30 7989 N 764.178 -1.45556 -0.604258 0
M  V30 7990 C 765.111 -1.48975 -1.72863 0
M  V30 7991 C 766.089 -0.345803 -1.5888 0
M  V30 7992 O 767.273 -0.546796 -1.80395 0
M  V30 7993 C 764.4 -1.34794 -3.10722 0
M  V30 7994 C 763.446 -2.53096 -3.43285 0
M  V30 7995 S 764.279 -4.15551 -3.37754 0
M  V30 7996 C 765.435 -4.03842 -4.78187 0
M  V30 7997 H 765.668 -2.44108 -1.69701 0
M  V30 7998 H 763.201 -1.33179 -0.781194 0
M  V30 7999 H 765.159 -1.273 -3.90263 0
M  V30 8000 H 763.82 -0.411254 -3.11396 0
M  V30 8001 H 763.013 -2.39109 -4.4367 0
M  V30 8002 H 762.615 -2.57469 -2.71267 0
M  V30 8003 H 764.907 -3.69191 -5.6807 0
M  V30 8004 H 765.85 -5.0415 -4.97231 0
M  V30 8005 H 766.258 -3.35443 -4.54025 0
M  V30 8006 N 765.656 0.84705 -1.32902 0
M  V30 8007 C 767.072 1.13645 -1.12058 0
M  V30 8008 C 767.272 2.01281 0.093937 0
M  V30 8009 O 766.328 2.4026 0.776608 0
M  V30 8010 C 767.641 1.80644 -2.40392 0
M  V30 8011 C 769.189 1.93246 -2.46221 0
M  V30 8012 C 769.664 2.6366 -3.74496 0
M  V30 8013 N 771.155 2.71179 -3.75521 0
M  V30 8014 C 771.89 3.26332 -4.71482 0
M  V30 8015 N 771.386 3.82236 -5.77813 0
M  V30 8016 N 773.179 3.24507 -4.58968 0
M  V30 8017 H 765.33 0.263612 -2.10758 0
M  V30 8018 H 767.593 0.17944 -0.930863 0
M  V30 8019 H 767.299 1.23708 -3.29225 0
M  V30 8020 H 767.173 2.80736 -2.51926 0
M  V30 8021 H 769.56 2.49338 -1.57843 0
M  V30 8022 H 769.641 0.921272 -2.38634 0
M  V30 8023 H 769.285 2.08229 -4.63253 0
M  V30 8024 H 769.215 3.65234 -3.79357 0
M  V30 8025 H 771.706 2.31527 -2.9867 0
M  V30 8026 H 772.019 4.22499 -6.47082 0
M  V30 8027 H 770.364 3.80546 -5.81558 0
M  V30 8028 H 773.555 2.80085 -3.7506 0
M  V30 8029 H 773.728 3.67188 -5.33926 0
M  V30 8030 N 767.134 1.16236 1.06428 0
M  V30 8031 C 768.374 0.95369 1.80787 0
M  V30 8032 C 768.738 -0.509495 1.85117 0
M  V30 8033 O 769.939 -0.836822 2.55442 0
M  V30 8034 C 768.21 1.56235 3.21443 0
M  V30 8035 S 769.769 1.49812 4.12434 0
M  V30 8036 H 766.587 0.343004 0.622792 0
M  V30 8037 H 769.189 1.47957 1.27785 0
M  V30 8038 H 767.893 2.62 3.15886 0
M  V30 8039 H 767.424 1.03574 3.79521 0
M  V30 8040 H 769.439 0.49745 4.937 0
M  V30 8041 N 768.612 -1.24939 0.960631 0
M  V30 8042 C 769.837 -1.9742 0.635608 0
M  V30 8043 C 770.262 -1.70857 -0.786737 0
M  V30 8044 O 769.62 -0.968063 -1.53291 0
M  V30 8045 C 769.668 -3.48987 0.907771 0
M  V30 8046 O 768.772 -4.12399 -0.0104053 0
M  V30 8047 H 768.113 -0.61871 0.241027 0
M  V30 8048 H 770.643 -1.58901 1.28886 0
M  V30 8049 H 770.653 -3.99334 0.836453 0
M  V30 8050 H 769.328 -3.6765 1.94439 0
M  V30 8051 H 767.905 -3.72727 0.113631 0
M  V30 8052 N 770.09 -0.729906 -1.39679 0
M  V30 8053 C 771 -0.0880322 -2.34435 0
M  V30 8054 C 772.016 0.727674 -1.58053 0
M  V30 8055 O 773.192 0.657321 -1.90371 0
M  V30 8056 C 770.257 0.812211 -3.37052 0
M  V30 8057 C 769.318 -0.0151681 -4.29297 0
M  V30 8058 C 768.551 0.842202 -5.27013 0
M  V30 8059 O 768.774 2.08108 -5.31081 0
M  V30 8060 O 767.708 0.27357 -6.01278 0
M  V30 8061 H 771.534 -0.869989 -2.90972 0
M  V30 8062 H 769.119 -0.490522 -1.41118 0
M  V30 8063 H 771.001 1.32745 -3.99946 0
M  V30 8064 H 769.676 1.57307 -2.82907 0
M  V30 8065 H 768.583 -0.575811 -3.69642 0
M  V30 8066 H 769.916 -0.738129 -4.86634 0
M  V30 8067 N 771.568 1.50203 -0.477153 0
M  V30 8068 C 772.808 2.04265 0.0744065 0
M  V30 8069 C 773.172 1.35082 1.36443 0
M  V30 8070 O 774.373 1.79732 1.99875 0
M  V30 8071 C 772.644 3.56539 0.247874 0
M  V30 8072 S 774.203 4.32219 0.757117 0
M  V30 8073 H 771.021 0.71088 0.0130891 0
M  V30 8074 H 773.623 1.8453 -0.645678 0
M  V30 8075 H 772.327 4.04443 -0.696709 0
M  V30 8076 H 771.858 3.80638 0.993896 0
M  V30 8077 H 773.873 4.52789 2.0297 0
M  V30 8078 N 773.046 0.209999 1.56195 0
M  V30 8079 C 774.294 -0.423974 1.97603 0
M  V30 8080 C 774.615 -1.61112 1.09854 0
M  V30 8081 O 773.885 -1.95134 0.173032 0
M  V30 8082 H 772.465 -0.159629 0.729745 0
M  V30 8083 H 775.127 0.300205 1.92574 0
M  V30 8084 H 774.223 -0.75809 3.02753 0
M  V30 8085 N 774.524 -1.57472 -0.0634922 0
M  V30 8086 C 775.77 -1.87932 -0.762194 0
M  V30 8087 C 776.103 -0.803377 -1.76804 0
M  V30 8088 O 775.378 0.185468 -1.93614 0
M  V30 8089 C 775.661 -3.29053 -1.46275 0
M  V30 8090 C 775.514 -4.47309 -0.472755 0
M  V30 8091 C 776.833 -3.68537 -2.40558 0
M  V30 8092 H 773.952 -0.683521 -0.275624 0
M  V30 8093 H 776.594 -1.89983 -0.0252651 0
M  V30 8094 H 774.744 -3.27435 -2.0909 0
M  V30 8095 H 776.416 -4.61053 0.150828 0
M  V30 8096 H 774.659 -4.33286 0.211187 0
M  V30 8097 H 775.33 -5.42853 -1.00072 0
M  V30 8098 H 777.806 -3.71302 -1.87814 0
M  V30 8099 H 776.682 -4.68152 -2.86574 0
M  V30 8100 H 776.943 -2.98917 -3.25731 0
M  V30 8101 N 776.003 0.335068 -1.53997 0
M  V30 8102 C 776.95 1.41187 -1.82579 0
M  V30 8103 C 777.92 1.51897 -0.672061 0
M  V30 8104 O 779.105 1.673 -0.917346 0
M  V30 8105 C 776.245 2.77717 -2.0486 0
M  V30 8106 C 775.358 2.7573 -3.32561 0
M  V30 8107 C 774.493 4.04032 -3.44864 0
M  V30 8108 C 773.532 3.96308 -4.66483 0
M  V30 8109 N 772.669 5.16317 -4.75774 0
M  V30 8110 H 777.509 1.16113 -2.74448 0
M  V30 8111 H 775.046 0.562305 -1.35928 0
M  V30 8112 H 777.004 3.57071 -2.15768 0
M  V30 8113 H 775.634 3.01124 -1.16294 0
M  V30 8114 H 774.686 1.88432 -3.3045 0
M  V30 8115 H 775.998 2.65902 -4.22016 0
M  V30 8116 H 775.152 4.91814 -3.55251 0
M  V30 8117 H 773.891 4.16652 -2.53481 0
M  V30 8118 H 772.896 3.06911 -4.56164 0
M  V30 8119 H 774.121 3.85263 -5.5924 0
M  V30 8120 H 772.067 5.29464 -3.87303 0
M  V30 8121 H 771.984 5.08779 -5.59178 0
M  V30 8122 H 773.252 6.05846 -4.9048 0
M  V30 8123 N 777.481 1.45874 0.596531 0
M  V30 8124 C 778.721 1.52015 1.36641 0
M  V30 8125 C 779.085 0.16226 1.91313 0
M  V30 8126 O 780.286 0.0983889 2.6862 0
M  V30 8127 C 778.557 2.57776 2.4756 0
M  V30 8128 S 780.116 2.83223 3.35157 0
M  V30 8129 H 776.934 0.537251 0.465706 0
M  V30 8130 H 779.536 1.83024 0.687205 0
M  V30 8131 H 778.24 3.55091 2.05764 0
M  V30 8132 H 777.771 2.28455 3.20269 0
M  V30 8133 H 779.786 2.17442 4.4602 0
M  V30 8134 N 778.959 -0.83999 1.33349 0
M  V30 8135 C 779.909 -1.93817 1.20079 0
M  V30 8136 C 780.893 -1.60564 0.103978 0
M  V30 8137 O 782.085 -1.73859 0.331964 0
M  V30 8138 C 779.214 -3.30151 0.941031 0
M  V30 8139 C 778.3 -3.69577 2.08023 0
M  V30 8140 N 778.691 -3.80707 3.3301 0
M  V30 8141 C 776.989 -3.99309 1.98667 0
M  V30 8142 C 777.69 -4.14899 4.07717 0
M  V30 8143 N 776.666 -4.27208 3.36146 0
M  V30 8144 H 780.468 -2.00576 2.14817 0
M  V30 8145 H 777.982 -1.03264 1.2534 0
M  V30 8146 H 779.979 -4.08617 0.826894 0
M  V30 8147 H 778.639 -3.247 0.00216738 0
M  V30 8148 H 779.65 -3.64644 3.67771 0
M  V30 8149 H 776.327 -4.02076 1.12433 0
M  V30 8150 H 777.717 -4.30857 5.15569 0
M  V30 8151 N 780.437 -1.16799 -1.0581 0
M  V30 8152 C 781.347 -0.893492 -2.16919 0
M  V30 8153 C 782.363 0.136061 -1.73467 0
M  V30 8154 O 783.539 -0.0417348 -2.01357 0
M  V30 8155 C 780.604 -0.403763 -3.44341 0
M  V30 8156 C 779.665 -1.49914 -4.02274 0
M  V30 8157 C 778.898 -1.03269 -5.23614 0
M  V30 8158 O 779.121 0.115647 -5.70283 0
M  V30 8159 O 778.055 -1.8231 -5.73626 0
M  V30 8160 H 781.881 -1.82274 -2.42919 0
M  V30 8161 H 779.466 -0.948361 -1.1544 0
M  V30 8162 H 781.348 -0.137874 -4.21174 0
M  V30 8163 H 780.023 0.497413 -3.19855 0
M  V30 8164 H 778.93 -1.81883 -3.26909 0
M  V30 8165 H 780.263 -2.3758 -4.31064 0
M  V30 8166 N 781.915 1.24427 -0.967243 0
M  V30 8167 C 782.862 2.25398 -0.496419 0
M  V30 8168 C 783.832 1.59667 0.457781 0
M  V30 8169 O 785.017 1.87213 0.368246 0
M  V30 8170 C 782.157 3.44474 0.207693 0
M  V30 8171 C 781.27 4.24804 -0.785221 0
M  V30 8172 C 780.405 5.31169 -0.0572631 0
M  V30 8173 C 779.444 6.03195 -1.04027 0
M  V30 8174 N 778.581 7.01265 -0.34235 0
M  V30 8175 H 783.421 2.65039 -1.36229 0
M  V30 8176 H 780.958 1.30288 -0.682902 0
M  V30 8177 H 782.916 4.12376 0.632612 0
M  V30 8178 H 781.546 3.05672 1.03752 0
M  V30 8179 H 780.598 3.56445 -1.32858 0
M  V30 8180 H 781.91 4.74599 -1.53483 0
M  V30 8181 H 781.064 6.05205 0.425674 0
M  V30 8182 H 779.803 4.8228 0.725047 0
M  V30 8183 H 778.808 5.27964 -1.53409 0
M  V30 8184 H 780.033 6.54173 -1.82302 0
M  V30 8185 H 777.979 6.54648 0.420993 0
M  V30 8186 H 777.896 7.48939 -1.03084 0
M  V30 8187 H 779.164 7.7941 0.118634 0
M  V30 8188 N 783.393 0.737304 1.3929 0
M  V30 8189 C 784.633 0.290966 2.02318 0
M  V30 8190 C 784.997 -1.10174 1.57244 0
M  V30 8191 O 786.198 -1.64628 2.12488 0
M  V30 8192 C 784.469 0.391767 3.55246 0
M  V30 8193 S 786.028 0.0256103 4.38793 0
M  V30 8194 H 782.846 0.113862 0.701824 0
M  V30 8195 H 785.448 0.964329 1.70062 0
M  V30 8196 H 784.152 1.40662 3.85542 0
M  V30 8197 H 783.683 -0.299338 3.9226 0
M  V30 8198 H 785.698 -1.18991 4.81722 0
M  V30 8199 N 784.871 -1.49948 0.485112 0
M  V30 8200 C 785.803 -2.26691 -0.338222 0
M  V30 8201 C 786.816 -1.32584 -0.944742 0
M  V30 8202 O 788.005 -1.57989 -0.830772 0
M  V30 8203 C 785.105 -3.04405 -1.48966 0
M  V30 8204 C 784.278 -4.25971 -0.993371 0
M  V30 8205 C 783.337 -4.85861 -2.02052 0
M  V30 8206 O 782.363 -5.46382 -1.59547 0
M  V30 8207 N 783.565 -4.74101 -3.34975 0
M  V30 8208 H 786.33 -2.97989 0.319748 0
M  V30 8209 H 783.891 -1.58772 0.316714 0
M  V30 8210 H 785.883 -3.41348 -2.17403 0
M  V30 8211 H 784.453 -2.35815 -2.05207 0
M  V30 8212 H 783.673 -3.93971 -0.134424 0
M  V30 8213 H 784.961 -5.0476 -0.639934 0
M  V30 8214 H 784.359 -4.26002 -3.72208 0
M  V30 8215 H 782.916 -5.15274 -3.9917 0
M  V30 8216 N 786.349 -0.21828 -1.56081 0
M  V30 8217 C 787.626 0.463143 -1.90038 0
M  V30 8218 C 788.006 1.77982 -1.13515 0
M  V30 8219 O 787.354 2.27199 -0.24345 0
M  V30 8220 C 787.564 0.659292 -3.42716 0
M  V30 8221 C 788.912 0.968203 -4.13414 0
M  V30 8222 O 789.936 0.746195 -3.48296 0
M  V30 8223 O 788.795 1.38936 -5.28544 0
M  V30 8224 H 785.889 0.244435 -0.790051 0
M  V30 8225 H 788.435 -0.260221 -1.67693 0
M  V30 8226 H 787.207 -0.269584 -3.9037 0
M  V30 8227 H 786.83 1.43426 -3.7083 0
M  V30 8228 N 787.827 1.57504 0.0551401 0
M  V30 8229 C 788.757 2.07864 1.06372 0
M  V30 8230 C 789.738 0.975565 1.39344 0
M  V30 8231 O 790.923 1.24929 1.48682 0
M  V30 8232 C 788.053 2.53643 2.3724 0
M  V30 8233 C 787.007 3.67978 2.18578 0
M  V30 8234 C 786.333 3.9987 3.54976 0
M  V30 8235 C 787.633 4.97405 1.59329 0
M  V30 8236 H 789.327 2.92379 0.644595 0
M  V30 8237 H 786.873 1.40654 0.308619 0
M  V30 8238 H 788.826 2.8749 3.08103 0
M  V30 8239 H 787.55 1.66177 2.81163 0
M  V30 8240 H 786.209 3.3444 1.50152 0
M  V30 8241 H 785.857 3.0951 3.965 0
M  V30 8242 H 785.557 4.76867 3.43324 0
M  V30 8243 H 787.081 4.36228 4.27244 0
M  V30 8244 H 788.495 5.29375 2.20078 0
M  V30 8245 H 786.892 5.78837 1.58327 0
M  V30 8246 H 787.962 4.81697 0.55638 0
M  V30 8247 N 789.305 -0.326896 1.54172 0
M  V30 8248 C 790.235 -1.40741 1.86317 0
M  V30 8249 C 791.216 -1.54125 0.719684 0
M  V30 8250 O 792.401 -1.6806 0.973117 0
M  V30 8251 C 789.531 -2.77557 2.08757 0
M  V30 8252 C 788.485 -2.78965 3.24596 0
M  V30 8253 C 787.811 -4.18824 3.32401 0
M  V30 8254 C 789.111 -2.4301 4.62324 0
M  V30 8255 H 790.805 -1.14088 2.76811 0
M  V30 8256 H 788.351 -0.547389 1.3319 0
M  V30 8257 H 790.304 -3.53209 2.29829 0
M  V30 8258 H 789.028 -3.0568 1.15009 0
M  V30 8259 H 787.687 -2.05767 3.03406 0
M  V30 8260 H 787.335 -4.44083 2.36218 0
M  V30 8261 H 787.035 -4.20673 4.10253 0
M  V30 8262 H 788.559 -4.96294 3.55703 0
M  V30 8263 H 789.973 -3.08375 4.83299 0
M  V30 8264 H 788.37 -2.56116 5.42701 0
M  V30 8265 H 789.44 -1.38165 4.64799 0
M  V30 8266 N 790.784 -1.46188 -0.588786 0
M  V30 8267 C 791.732 -1.56653 -1.71938 0
M  V30 8268 C 792.726 -0.435354 -1.6371 0
M  V30 8269 O 793.932 -0.611996 -1.69277 0
M  V30 8270 H 790.307 -0.492408 -0.568365 0
M  V30 8271 H 792.278 -2.51724 -1.60242 0
M  V30 8272 C 791.027 -1.56822 -3.10326 0
M  V30 8273 H 790.35 -2.43198 -3.17325 0
M  V30 8274 H 791.79 -1.68199 -3.89211 0
M  V30 8275 C 790.249 -0.295802 -3.35599 0
M  V30 8276 O 790.779 0.616515 -3.96941 0
M  V30 8277 N 788.985 -0.185609 -2.90007 0
M  V30 8278 H 788.532 -0.928914 -2.40269 0
M  V30 8279 H 788.49 0.664883 -3.07289 0
M  V30 8280 N 792.262 0.832906 -1.33792 0
M  V30 8281 C 793.225 1.92471 -1.24449 0
M  V30 8282 C 794.225 1.59981 -0.162085 0
M  V30 8283 O 795.415 1.69208 -0.414029 0
M  V30 8284 C 792.547 3.28278 -0.919044 0
M  V30 8285 H 793.74 2.0218 -2.21502 0
M  V30 8286 H 791.293 1.0257 -1.17936 0
M  V30 8287 H 792.028 3.24263 0.048738 0
M  V30 8288 H 791.813 3.53241 -1.70187 0
M  V30 8289 H 793.303 4.08253 -0.878576 0
M  V30 8290 N 793.74 1.17359 1.05189 0
M  V30 8291 C 795.017 0.871914 1.75091 0
M  V30 8292 C 795.397 -0.627821 2.01548 0
M  V30 8293 O 794.745 -1.5791 1.65156 0
M  V30 8294 C 794.955 1.70687 3.04413 0
M  V30 8295 C 796.303 1.92684 3.78362 0
M  V30 8296 O 797.327 1.67645 3.14282 0
M  V30 8297 O 796.186 2.34765 4.93505 0
M  V30 8298 H 793.28 0.322831 0.761386 0
M  V30 8299 H 795.826 1.28054 1.11357 0
M  V30 8300 H 794.598 2.72405 2.80911 0
M  V30 8301 H 794.221 1.29602 3.75884 0
M  V30 8302 N 795.218 -1.23913 0.973828 0
M  V30 8303 C 796.458 -1.93889 0.647015 0
M  V30 8304 C 796.822 -1.74368 -0.803735 0
M  V30 8305 O 798.023 -2.38435 -1.24106 0
M  V30 8306 C 796.294 -3.4257 1.01885 0
M  V30 8307 S 797.853 -4.31306 0.807517 0
M  V30 8308 H 794.671 -0.670279 0.237165 0
M  V30 8309 H 797.273 -1.50144 1.25208 0
M  V30 8310 H 795.977 -3.54286 2.07146 0
M  V30 8311 H 795.508 -3.91312 0.404812 0
M  V30 8312 H 797.523 -4.95218 -0.311986 0
M  V30 8313 N 796.696 -0.74468 -1.38897 0
M  V30 8314 C 797.626 -0.126355 -2.33158 0
M  V30 8315 C 798.607 0.713517 -1.54412 0
M  V30 8316 O 799.792 0.656523 -1.82766 0
M  V30 8317 C 796.922 0.774375 -3.38557 0
M  V30 8318 C 795.876 0.0379214 -4.27983 0
M  V30 8319 C 795.202 1.05631 -5.24162 0
M  V30 8320 C 796.502 -1.12523 -5.10035 0
M  V30 8321 H 798.196 -0.913744 -2.85116 0
M  V30 8322 H 795.742 -0.440847 -1.37086 0
M  V30 8323 H 797.695 1.21655 -4.03458 0
M  V30 8324 H 796.419 1.59399 -2.85061 0
M  V30 8325 H 795.078 -0.384733 -3.64576 0
M  V30 8326 H 794.726 1.86975 -4.66958 0
M  V30 8327 H 794.426 0.568261 -5.84846 0
M  V30 8328 H 795.95 1.49799 -5.9194 0
M  V30 8329 H 797.364 -0.761037 -5.68226 0
M  V30 8330 H 795.761 -1.54355 -5.79909 0
M  V30 8331 H 796.831 -1.94237 -4.44297 0
M  V30 8332 N 798.174 1.49689 -0.493057 0
M  V30 8333 C 799.106 2.26867 0.326195 0
M  V30 8334 C 800.119 1.33083 0.937697 0
M  V30 8335 O 801.308 1.58427 0.822382 0
M  V30 8336 C 798.408 3.0519 1.4735 0
M  V30 8337 C 797.581 4.26491 0.970767 0
M  V30 8338 C 796.64 4.86926 1.99473 0
M  V30 8339 O 795.666 5.47221 1.56647 0
M  V30 8340 N 796.868 4.75871 3.32456 0
M  V30 8341 H 799.633 2.97816 -0.335547 0
M  V30 8342 H 797.194 1.58602 -0.325129 0
M  V30 8343 H 799.186 3.42496 2.15589 0
M  V30 8344 H 797.756 2.369 2.03954 0
M  V30 8345 H 796.976 3.94036 0.113529 0
M  V30 8346 H 798.264 5.05092 0.613156 0
M  V30 8347 H 797.662 4.2797 3.69944 0
M  V30 8348 H 796.219 5.17383 3.96431 0
M  V30 8349 N 799.652 0.226554 1.55963 0
M  V30 8350 C 801.068 -0.128733 1.5908 0
M  V30 8351 C 801.268 -1.58558 1.24345 0
M  V30 8352 O 800.324 -2.32661 0.981069 0
M  V30 8353 C 801.637 0.202076 3.0002 0
M  V30 8354 C 803.185 0.144718 3.12665 0
M  V30 8355 C 803.66 0.449272 4.55791 0
M  V30 8356 N 805.151 0.399026 4.61478 0
M  V30 8357 C 805.886 0.608106 5.70166 0
M  V30 8358 N 805.382 0.879227 6.87198 0
M  V30 8359 N 807.175 0.5402 5.59498 0
M  V30 8360 H 799.326 1.17686 1.76816 0
M  V30 8361 H 801.589 0.472072 0.822102 0
M  V30 8362 H 801.295 1.21341 3.30105 0
M  V30 8363 H 801.169 -0.480554 3.74126 0
M  V30 8364 H 803.556 -0.857261 2.82374 0
M  V30 8365 H 803.637 0.860899 2.40878 0
M  V30 8366 H 803.281 1.44871 4.86801 0
M  V30 8367 H 803.211 -0.288157 5.25811 0
M  V30 8368 H 805.702 0.197372 3.77384 0
M  V30 8369 H 806.015 1.02673 7.65949 0
M  V30 8370 H 804.36 0.916477 6.88931 0
M  V30 8371 H 807.551 0.328581 4.66945 0
M  V30 8372 H 807.724 0.706548 6.44137 0
M  V30 8373 N 801.13 -1.57531 -0.0467866 0
M  V30 8374 C 802.093 -2.04379 -1.03738 0
M  V30 8375 C 803.093 -0.944881 -1.3011 0
M  V30 8376 O 804.283 -1.20904 -1.25411 0
M  V30 8377 C 801.415 -2.44572 -2.37482 0
M  V30 8378 H 802.608 -2.93142 -0.633063 0
M  V30 8379 H 800.161 -1.53526 -0.293177 0
M  V30 8380 H 800.896 -1.58911 -2.82697 0
M  V30 8381 H 800.681 -3.24785 -2.19675 0
M  V30 8382 H 802.171 -2.81307 -3.08636 0
M  V30 8383 N 802.608 0.318715 -1.54344 0
M  V30 8384 C 803.571 1.37545 -1.83342 0
M  V30 8385 C 804.571 1.445 -0.705444 0
M  V30 8386 O 805.761 1.44443 -0.973752 0
M  V30 8387 C 802.893 2.76225 -1.99781 0
M  V30 8388 H 804.086 1.13084 -2.77762 0
M  V30 8389 H 801.639 0.554457 -1.46135 0
M  V30 8390 H 802.374 3.05934 -1.07588 0
M  V30 8391 H 802.159 2.7257 -2.81865 0
M  V30 8392 H 803.649 3.52664 -2.23647 0
M  V30 8393 N 804.086 1.46499 0.581025 0
M  V30 8394 C 804.996 1.59778 1.71779 0
M  V30 8395 C 806.012 0.481223 1.67213 0
M  V30 8396 O 807.188 0.74557 1.87091 0
M  V30 8397 C 804.253 1.58626 3.08283 0
M  V30 8398 C 803.314 2.81527 3.241 0
M  V30 8399 C 802.547 2.80421 4.54092 0
M  V30 8400 O 802.77 1.89262 5.38085 0
M  V30 8401 O 801.704 3.71984 4.73193 0
M  V30 8402 H 805.53 2.55918 1.63523 0
M  V30 8403 H 803.115 1.29311 0.748267 0
M  V30 8404 H 804.997 1.60686 3.89561 0
M  V30 8405 H 803.672 0.656467 3.16973 0
M  V30 8406 H 802.579 2.85021 2.42309 0
M  V30 8407 H 803.912 3.73721 3.20302 0
M  V30 8408 N 805.565 -0.825799 1.34232 0
M  V30 8409 C 806.512 -1.93651 1.2557 0
M  V30 8410 C 807.482 -1.65578 0.131536 0
M  V30 8411 O 808.667 -1.88231 0.312027 0
M  V30 8412 C 805.807 -3.29862 1.01415 0
M  V30 8413 C 804.92 -3.70247 2.22579 0
M  V30 8414 C 804.055 -4.95392 1.91731 0
M  V30 8415 C 803.094 -5.28349 3.09053 0
M  V30 8416 N 802.231 -6.44671 2.78107 0
M  V30 8417 H 807.071 -2.00392 2.20561 0
M  V30 8418 H 804.608 -0.980441 1.09662 0
M  V30 8419 H 806.566 -4.08356 0.854485 0
M  V30 8420 H 805.196 -3.22642 0.100936 0
M  V30 8421 H 804.248 -2.87169 2.49476 0
M  V30 8422 H 805.56 -3.90575 3.10246 0
M  V30 8423 H 804.714 -5.81665 1.72484 0
M  V30 8424 H 803.453 -4.77059 1.0132 0
M  V30 8425 H 802.458 -4.40574 3.289 0
M  V30 8426 H 803.683 -5.48622 4.00239 0
M  V30 8427 H 801.629 -6.278 1.9027 0
M  V30 8428 H 801.546 -6.65158 3.59306 0
M  V30 8429 H 802.814 -7.34022 2.62358 0
M  V30 8430 N 807.043 -1.17915 -1.04565 0
M  V30 8431 C 808.268 -0.996749 -1.81878 0
M  V30 8432 C 808.693 0.450169 -1.82634 0
M  V30 8433 O 808.051 1.32268 -1.23995 0
M  V30 8434 C 808.099 -1.55005 -3.25585 0
M  V30 8435 O 807.203 -0.76804 -4.05185 0
M  V30 8436 H 806.544 -0.353456 -0.562108 0
M  V30 8437 H 809.074 -1.56557 -1.31723 0
M  V30 8438 H 809.084 -1.57503 -3.76373 0
M  V30 8439 H 807.759 -2.60327 -3.2435 0
M  V30 8440 H 806.336 -0.81498 -3.63885 0
M  V30 8441 N 808.521 1.23394 -0.980386 0
M  V30 8442 C 809.746 1.96384 -0.666935 0
M  V30 8443 C 810.171 1.72087 0.759456 0
M  V30 8444 O 809.529 0.992328 1.51732 0
M  V30 8445 C 809.577 3.47499 -0.963177 0
M  V30 8446 O 808.681 4.12363 -0.0552051 0
M  V30 8447 H 808.022 0.614797 -0.250839 0
M  V30 8448 H 810.552 1.56831 -1.31398 0
M  V30 8449 H 810.562 3.97953 -0.899877 0
M  V30 8450 H 809.237 3.6451 -2.00264 0
M  V30 8451 H 807.814 3.72499 -0.172914 0
M  V30 8452 N 809.999 0.752036 1.385 0
M  V30 8453 C 810.946 0.123288 2.3047 0
M  V30 8454 C 811.916 -0.711326 1.50098 0
M  V30 8455 O 813.101 -0.667775 1.78733 0
M  V30 8456 C 810.241 -0.765085 3.36512 0
M  V30 8457 C 809.354 0.0839885 4.31918 0
M  V30 8458 C 808.489 -0.807243 5.25031 0
M  V30 8459 C 807.528 0.0455583 6.12083 0
M  V30 8460 N 806.665 -0.802547 6.97498 0
M  V30 8461 H 811.505 0.913169 2.83664 0
M  V30 8462 H 809.042 0.46195 1.39658 0
M  V30 8463 H 811 -1.29476 3.966 0
M  V30 8464 H 809.63 -1.52077 2.84732 0
M  V30 8465 H 808.682 0.731276 3.73305 0
M  V30 8466 H 809.994 0.74265 4.9324 0
M  V30 8467 H 809.148 -1.40414 5.90228 0
M  V30 8468 H 807.887 -1.49964 4.64071 0
M  V30 8469 H 806.892 0.655137 5.45883 0
M  V30 8470 H 808.117 0.734994 6.75111 0
M  V30 8471 H 806.063 -1.47992 6.39089 0
M  V30 8472 H 805.98 -0.200747 7.55733 0
M  V30 8473 H 807.248 -1.38447 7.67107 0
M  V30 8474 N 811.477 -1.49425 0.500989 0
M  V30 8475 C 812.427 -2.26061 -0.296698 0
M  V30 8476 C 813.411 -1.30906 -0.935541 0
M  V30 8477 O 814.603 -1.55628 -0.843142 0
M  V30 8478 C 811.732 -3.15189 -1.36055 0
M  V30 8479 C 810.818 -4.17806 -0.727952 0
M  V30 8480 N 811.209 -5.05516 0.169408 0
M  V30 8481 C 809.507 -4.34907 -0.988535 0
M  V30 8482 C 810.208 -5.79267 0.531509 0
M  V30 8483 N 809.184 -5.43507 -0.100564 0
M  V30 8484 H 812.986 -2.91246 0.394103 0
M  V30 8485 H 810.5 -1.59275 0.317065 0
M  V30 8486 H 812.497 -3.68724 -1.94547 0
M  V30 8487 H 811.157 -2.51556 -2.05303 0
M  V30 8488 H 812.168 -5.15075 0.540218 0
M  V30 8489 H 808.845 -3.82481 -1.67376 0
M  V30 8490 H 810.235 -6.59872 1.26564 0
M  V30 8491 N 812.955 -0.234822 -1.55841 0
M  V30 8492 C 814.203 0.392483 -1.98252 0
M  V30 8493 C 814.524 1.59344 -1.12404 0
M  V30 8494 O 813.794 1.94834 -0.204055 0
M  V30 8495 H 812.374 0.147999 -0.732192 0
M  V30 8496 H 815.036 -0.330804 -1.92072 0
M  V30 8497 H 814.132 0.709829 -3.03921 0
M  V30 8498 N 814.433 1.57553 0.0384317 0
M  V30 8499 C 815.396 2.04927 1.02653 0
M  V30 8500 C 816.396 0.951768 1.29607 0
M  V30 8501 O 817.586 1.21568 1.24768 0
M  V30 8502 C 814.718 2.45828 2.36181 0
M  V30 8503 H 815.911 2.93474 0.617508 0
M  V30 8504 H 813.464 1.53679 0.285031 0
M  V30 8505 H 814.199 1.60408 2.8185 0
M  V30 8506 H 813.984 3.25945 2.1795 0
M  V30 8507 H 815.474 2.82939 3.0714 0
M  V30 8508 N 815.911 -0.310526 1.54511 0
M  V30 8509 C 816.821 -1.4054 1.87844 0
M  V30 8510 C 817.837 -1.55954 0.771635 0
M  V30 8511 O 819.013 -1.70801 1.06719 0
M  V30 8512 C 816.078 -2.75063 2.11048 0
M  V30 8513 C 815.139 -2.68715 3.348 0
M  V30 8514 C 814.372 -3.96821 3.56887 0
M  V30 8515 O 814.595 -4.95721 2.82165 0
M  V30 8516 O 813.529 -3.99291 4.50389 0
M  V30 8517 H 817.355 -1.15275 2.80972 0
M  V30 8518 H 814.94 -0.505732 1.4058 0
M  V30 8519 H 816.822 -3.54671 2.27566 0
M  V30 8520 H 815.497 -3.00191 1.21108 0
M  V30 8521 H 814.404 -1.87611 3.23655 0
M  V30 8522 H 815.737 -2.4854 4.2484 0
M  V30 8523 N 817.389 -1.46805 -0.573248 0
M  V30 8524 C 818.666 -1.43082 -1.33368 0
M  V30 8525 C 819.046 -0.119252 -2.10763 0
M  V30 8526 O 818.394 0.899239 -2.10062 0
M  V30 8527 C 818.604 -2.66643 -2.25172 0
M  V30 8528 C 819.952 -3.13188 -2.86702 0
M  V30 8529 O 820.976 -2.67258 -2.35482 0
M  V30 8530 O 819.835 -3.92994 -3.79761 0
M  V30 8531 H 816.929 -0.569451 -0.599712 0
M  V30 8532 H 819.475 -1.58984 -0.59348 0
M  V30 8533 H 818.247 -3.53649 -1.67475 0
M  V30 8534 H 817.87 -2.53247 -3.06516 0
M  V30 8535 N 818.867 0.818669 -1.34668 0
M  V30 8536 C 820.283 1.11243 -1.14443 0
M  V30 8537 C 820.483 2.01435 0.0512212 0
M  V30 8538 O 819.539 2.41854 0.725471 0
M  V30 8539 C 820.852 1.75504 -2.4417 0
M  V30 8540 C 822.4 1.8798 -2.50265 0
M  V30 8541 C 822.875 2.55657 -3.80004 0
M  V30 8542 N 824.366 2.63153 -3.81189 0
M  V30 8543 C 825.101 3.16258 -4.78298 0
M  V30 8544 N 824.597 3.69893 -5.85791 0
M  V30 8545 N 826.39 3.14698 -4.65748 0
M  V30 8546 H 818.541 0.218848 -2.1127 0
M  V30 8547 H 820.804 0.159655 -0.934459 0
M  V30 8548 H 820.51 1.16697 -3.31775 0
M  V30 8549 H 820.384 2.75329 -2.57825 0
M  V30 8550 H 822.771 2.45934 -1.63096 0
M  V30 8551 H 822.852 0.870447 -2.40535 0
M  V30 8552 H 822.496 1.98356 -4.67565 0
M  V30 8553 H 822.426 3.57105 -3.87019 0
M  V30 8554 H 824.917 2.2514 -3.03513 0
M  V30 8555 H 825.23 4.08678 -6.55898 0
M  V30 8556 H 823.575 3.68125 -5.89499 0
M  V30 8557 H 826.766 2.72066 -3.80917 0
M  V30 8558 H 826.939 3.5578 -5.41594 0
M  V30 8559 N 820.346 1.18468 1.03938 0
M  V30 8560 C 821.574 1.00576 1.80809 0
M  V30 8561 C 821.989 -0.445786 1.83462 0
M  V30 8562 O 821.346 -1.30964 1.27101 0
M  V30 8563 C 821.397 1.55491 3.26351 0
M  V30 8564 O 821.118 2.94963 3.23926 0
M  V30 8565 C 822.619 1.42236 4.19862 0
M  V30 8566 H 819.839 0.35508 0.56935 0
M  V30 8567 H 822.383 1.57046 1.30984 0
M  V30 8568 H 820.538 1.03195 3.73403 0
M  V30 8569 H 820.952 3.20598 4.15111 0
M  V30 8570 H 822.426 1.85455 5.19914 0
M  V30 8571 H 822.903 0.371267 4.37628 0
M  V30 8572 H 823.509 1.9361 3.78675 0
M  V30 8573 N 821.824 -1.22873 0.986916 0
M  V30 8574 C 822.756 -2.23889 0.490537 0
M  V30 8575 C 823.769 -1.57523 -0.411144 0
M  V30 8576 O 824.958 -1.7721 -0.214236 0
M  V30 8577 C 822.058 -3.37488 -0.30902 0
M  V30 8578 C 821.231 -4.33438 0.587354 0
M  V30 8579 C 820.29 -5.25958 -0.159467 0
M  V30 8580 O 819.316 -5.67394 0.453115 0
M  V30 8581 N 820.518 -5.62265 -1.44355 0
M  V30 8582 H 823.283 -2.67109 1.35914 0
M  V30 8583 H 820.844 -1.37111 0.860937 0
M  V30 8584 H 822.836 -3.96365 -0.817139 0
M  V30 8585 H 821.406 -2.934 -1.07868 0
M  V30 8586 H 820.626 -3.72969 1.27622 0
M  V30 8587 H 821.914 -4.94495 1.19801 0
M  V30 8588 H 821.312 -5.30562 -1.96266 0
M  V30 8589 H 819.869 -6.23585 -1.89698 0
M  V30 8590 N 823.302 -0.75937 -1.38099 0
M  V30 8591 C 824.25 -0.124954 -2.32264 0
M  V30 8592 C 825.244 0.698863 -1.54312 0
M  V30 8593 O 826.45 0.597312 -1.698 0
M  V30 8594 H 822.825 -0.0216142 -0.751689 0
M  V30 8595 H 824.796 -0.935115 -2.83369 0
M  V30 8596 C 823.545 0.749463 -3.39527 0
M  V30 8597 H 822.868 0.124932 -3.99605 0
M  V30 8598 H 824.308 1.16055 -4.07808 0
M  V30 8599 C 822.767 1.89464 -2.78577 0
M  V30 8600 O 823.297 2.98923 -2.68343 0
M  V30 8601 N 821.503 1.69145 -2.36301 0
M  V30 8602 H 821.05 0.801157 -2.44825 0
M  V30 8603 H 821.008 2.45936 -1.95864 0
M  V30 8604 N 824.78 1.49157 -0.508906 0
M  V30 8605 C 826.029 2.0167 0.0346854 0
M  V30 8606 C 826.342 1.39302 1.37311 0
M  V30 8607 O 827.548 1.83189 2.00385 0
M  V30 8608 C 826.004 3.59725 0.112261 0
M  V30 8609 C 825.612 4.31069 -1.21999 0
M  V30 8610 C 827.356 4.20155 0.605798 0
M  V30 8611 C 825.263 5.81001 -1.10415 0
M  V30 8612 H 824.193 0.753814 0.0167355 0
M  V30 8613 H 826.844 1.7162 -0.649518 0
M  V30 8614 H 825.226 3.86525 0.861087 0
M  V30 8615 H 826.4 4.15962 -1.98273 0
M  V30 8616 H 824.715 3.82418 -1.64759 0
M  V30 8617 H 827.312 5.29964 0.710102 0
M  V30 8618 H 827.655 3.84051 1.60656 0
M  V30 8619 H 828.188 3.97705 -0.0867239 0
M  V30 8620 H 824.927 6.21643 -2.07941 0
M  V30 8621 H 824.447 5.9858 -0.382428 0
M  V30 8622 H 826.126 6.42207 -0.786116 0
M  V30 8623 N 826.258 0.243083 1.55714 0
M  V30 8624 C 827.507 -0.383188 1.98027 0
M  V30 8625 C 827.82 -1.59347 1.13436 0
M  V30 8626 O 829.026 -2.29065 1.45745 0
M  V30 8627 C 827.482 -0.733135 3.52354 0
M  V30 8628 C 827.09 0.455539 4.45678 0
M  V30 8629 C 828.834 -1.32381 4.03331 0
M  V30 8630 C 826.741 0.0819591 5.91343 0
M  V30 8631 H 825.671 -0.146944 0.739543 0
M  V30 8632 H 828.322 0.342697 1.80272 0
M  V30 8633 H 826.704 -1.51704 3.65789 0
M  V30 8634 H 827.878 1.23291 4.44 0
M  V30 8635 H 826.193 0.960886 4.05162 0
M  V30 8636 H 828.79 -1.61658 5.09677 0
M  V30 8637 H 829.133 -2.24698 3.50452 0
M  V30 8638 H 829.666 -0.602885 3.93205 0
M  V30 8639 H 826.405 0.972171 6.48251 0
M  V30 8640 H 825.925 -0.659291 5.96166 0
M  V30 8641 H 827.604 -0.3372 6.46121 0
M  V30 8642 N 827.736 -1.57571 -0.0300757 0
M  V30 8643 C 828.669 -2.01874 -1.06406 0
M  V30 8644 C 829.647 -0.902901 -1.35227 0
M  V30 8645 O 830.831 -1.16865 -1.47901 0
M  V30 8646 C 827.958 -2.39093 -2.39901 0
M  V30 8647 C 827.004 -3.61108 -2.26943 0
M  V30 8648 S 827.837 -5.10287 -1.62382 0
M  V30 8649 C 828.993 -5.50747 -2.97369 0
M  V30 8650 H 829.226 -2.89261 -0.686703 0
M  V30 8651 H 826.759 -1.52523 -0.240017 0
M  V30 8652 H 828.717 -2.61207 -3.16672 0
M  V30 8653 H 827.378 -1.52159 -2.74784 0
M  V30 8654 H 826.571 -3.84803 -3.25489 0
M  V30 8655 H 826.173 -3.3884 -1.58314 0
M  V30 8656 H 828.465 -5.51369 -3.93698 0
M  V30 8657 H 829.408 -6.51071 -2.78409 0
M  V30 8658 H 829.816 -4.7825 -2.99895 0
M  V30 8659 N 829.214 0.302327 -1.54673 0
M  V30 8660 C 830.177 1.35592 -1.8479 0
M  V30 8661 C 831.177 1.43743 -0.72073 0
M  V30 8662 O 832.367 1.43402 -0.989017 0
M  V30 8663 C 829.499 2.74091 -2.02699 0
M  V30 8664 H 830.692 1.10132 -2.78946 0
M  V30 8665 H 828.245 0.538926 -1.46715 0
M  V30 8666 H 828.98 3.04775 -1.10826 0
M  V30 8667 H 828.765 2.69565 -2.8474 0
M  V30 8668 H 830.255 3.50272 -2.27374 0
M  V30 8669 N 830.692 1.47107 0.565454 0
M  V30 8670 C 831.625 1.53505 1.68853 0
M  V30 8671 C 832.603 0.387806 1.57908 0
M  V30 8672 O 833.787 0.594433 1.78882 0
M  V30 8673 C 830.914 1.42985 3.07039 0
M  V30 8674 C 829.96 2.62109 3.36454 0
M  V30 8675 S 830.793 4.2436 3.26617 0
M  V30 8676 C 831.949 4.16378 4.67312 0
M  V30 8677 H 832.182 2.48522 1.63169 0
M  V30 8678 H 829.715 1.35204 0.745609 0
M  V30 8679 H 831.673 1.37602 3.8675 0
M  V30 8680 H 830.334 0.493671 3.10196 0
M  V30 8681 H 829.527 2.50788 4.37174 0
M  V30 8682 H 829.129 2.64571 2.64345 0
M  V30 8683 H 831.421 3.84123 5.58082 0
M  V30 8684 H 832.364 5.17156 4.83689 0
M  V30 8685 H 832.772 3.47363 4.44971 0
M  V30 8686 N 832.17 -0.811516 1.35101 0
M  V30 8687 C 833.117 -1.92308 1.27617 0
M  V30 8688 C 834.087 -1.6543 0.149091 0
M  V30 8689 O 835.272 -1.8789 0.331974 0
M  V30 8690 C 832.412 -3.28768 1.04908 0
M  V30 8691 C 831.525 -3.67865 2.26493 0
M  V30 8692 C 830.66 -4.9333 1.96974 0
M  V30 8693 C 829.699 -5.25041 3.1464 0
M  V30 8694 N 828.836 -6.41685 2.84929 0
M  V30 8695 H 833.676 -1.98041 2.22674 0
M  V30 8696 H 831.213 -0.968755 1.10696 0
M  V30 8697 H 833.171 -4.07426 0.897749 0
M  V30 8698 H 831.801 -3.22517 0.135151 0
M  V30 8699 H 830.853 -2.84507 2.52507 0
M  V30 8700 H 832.165 -3.87263 3.14371 0
M  V30 8701 H 831.319 -5.79803 1.78643 0
M  V30 8702 H 830.058 -4.75958 1.06374 0
M  V30 8703 H 829.063 -4.3706 3.33554 0
M  V30 8704 H 830.288 -5.44346 4.06035 0
M  V30 8705 H 828.234 -6.25747 1.96918 0
M  V30 8706 H 828.151 -6.6131 3.66341 0
M  V30 8707 H 829.419 -7.31198 2.70128 0
M  V30 8708 N 833.648 -1.19017 -1.03309 0
M  V30 8709 C 834.925 -0.899659 -1.73682 0
M  V30 8710 C 835.305 0.595677 -2.02521 0
M  V30 8711 O 834.653 1.55263 -1.67648 0
M  V30 8712 C 834.863 -1.75508 -3.01659 0
M  V30 8713 C 836.211 -1.98679 -3.75249 0
M  V30 8714 O 837.235 -1.72624 -3.11576 0
M  V30 8715 O 836.094 -2.42587 -4.89708 0
M  V30 8716 H 833.188 -0.334903 -0.756154 0
M  V30 8717 H 835.734 -1.29809 -1.09305 0
M  V30 8718 H 834.506 -2.7684 -2.76542 0
M  V30 8719 H 834.129 -1.35565 -3.73775 0
M  V30 8720 N 835.127 1.22348 -0.993418 0
M  V30 8721 C 836.543 1.43222 -0.704238 0
M  V30 8722 C 836.743 1.88009 0.724909 0
M  V30 8723 O 835.799 2.03429 1.49575 0
M  V30 8724 C 837.112 2.47328 -1.71025 0
M  V30 8725 C 838.66 2.61126 -1.72576 0
M  V30 8726 C 839.135 3.68453 -2.72041 0
M  V30 8727 N 840.626 3.75911 -2.70639 0
M  V30 8728 C 841.361 4.58551 -3.44266 0
M  V30 8729 N 840.857 5.45179 -4.27495 0
M  V30 8730 N 842.65 4.52866 -3.32969 0
M  V30 8731 H 834.801 0.915832 -1.91641 0
M  V30 8732 H 837.064 0.464283 -0.826526 0
M  V30 8733 H 836.77 2.21366 -2.73295 0
M  V30 8734 H 836.644 3.45939 -1.50353 0
M  V30 8735 H 839.031 2.86431 -0.710037 0
M  V30 8736 H 839.112 1.62787 -1.97317 0
M  V30 8737 H 838.756 3.43895 -3.73763 0
M  V30 8738 H 838.686 4.66362 -2.4457 0
M  V30 8739 H 841.177 3.14014 -2.10247 0
M  V30 8740 H 841.49 6.0526 -4.80499 0
M  V30 8741 H 839.835 5.44759 -4.31582 0
M  V30 8742 H 843.026 3.84215 -2.67389 0
M  V30 8743 H 843.199 5.17039 -3.90608 0
M  V30 8744 N 836.605 0.766683 1.37694 0
M  V30 8745 C 837.538 0.0959288 2.27998 0
M  V30 8746 C 838.516 -0.714493 1.46061 0
M  V30 8747 O 839.7 -0.690337 1.75404 0
M  V30 8748 C 836.827 -0.87057 3.27321 0
M  V30 8749 C 835.873 -0.144771 4.26254 0
M  V30 8750 S 836.706 1.16365 5.22704 0
M  V30 8751 C 837.862 0.200564 6.25579 0
M  V30 8752 H 838.095 0.861666 2.84539 0
M  V30 8753 H 835.628 0.559845 1.43893 0
M  V30 8754 H 837.586 -1.42282 3.85053 0
M  V30 8755 H 836.247 -1.60938 2.69737 0
M  V30 8756 H 835.44 -0.877259 4.96307 0
M  V30 8757 H 835.042 0.33633 3.72485 0
M  V30 8758 H 837.334 -0.628833 6.74575 0
M  V30 8759 H 838.277 0.869117 7.02746 0
M  V30 8760 H 838.685 -0.185972 5.64194 0
M  V30 8761 N 838.083 -1.48885 0.516809 0
M  V30 8762 C 839.03 -2.29408 -0.253125 0
M  V30 8763 C 840 -1.36533 -0.945935 0
M  V30 8764 O 841.185 -1.65495 -0.949527 0
M  V30 8765 C 838.325 -3.19592 -1.30211 0
M  V30 8766 C 837.438 -4.27535 -0.61948 0
M  V30 8767 C 836.573 -5.04916 -1.65026 0
M  V30 8768 C 835.612 -6.04677 -0.950368 0
M  V30 8769 N 834.749 -6.75164 -1.92608 0
M  V30 8770 H 839.589 -2.94738 0.439744 0
M  V30 8771 H 837.126 -1.45311 0.2287 0
M  V30 8772 H 839.084 -3.70267 -1.92245 0
M  V30 8773 H 837.714 -2.56213 -1.96353 0
M  V30 8774 H 836.766 -3.80228 0.114505 0
M  V30 8775 H 838.078 -4.98752 -0.0693016 0
M  V30 8776 H 837.232 -5.59539 -2.34523 0
M  V30 8777 H 835.971 -4.33508 -2.23432 0
M  V30 8778 H 834.976 -5.4927 -0.241252 0
M  V30 8779 H 836.201 -6.78077 -0.372599 0
M  V30 8780 H 834.147 -6.06517 -2.49946 0
M  V30 8781 H 834.064 -7.4241 -1.42699 0
M  V30 8782 H 835.332 -7.34384 -2.61345 0
M  V30 8783 N 839.561 -0.251338 -1.55583 0
M  V30 8784 C 840.81 0.372681 -1.98227 0
M  V30 8785 C 841.123 1.58743 -1.1428 0
M  V30 8786 O 842.329 2.28289 -1.46957 0
M  V30 8787 C 840.785 0.714439 -3.52738 0
M  V30 8788 C 840.393 -0.479168 -4.4543 0
M  V30 8789 C 842.137 1.3024 -4.04027 0
M  V30 8790 C 840.044 -0.113318 -5.91291 0
M  V30 8791 H 838.974 0.14302 -0.740312 0
M  V30 8792 H 841.625 -0.352253 -1.80087 0
M  V30 8793 H 840.007 1.49762 -3.66589 0
M  V30 8794 H 841.181 -1.25644 -4.4334 0
M  V30 8795 H 839.496 -0.982359 -4.04646 0
M  V30 8796 H 842.093 1.58953 -5.10527 0
M  V30 8797 H 842.436 2.22837 -3.51638 0
M  V30 8798 H 842.969 0.582024 -3.93519 0
M  V30 8799 H 839.708 -1.00654 -6.47726 0
M  V30 8800 H 839.228 0.627666 -5.96507 0
M  V30 8801 H 840.907 0.30293 -6.4629 0
M  V30 8802 N 841.039 1.57585 0.0217189 0
M  V30 8803 C 842.455 1.55072 0.377484 0
M  V30 8804 C 842.655 0.978423 1.76151 0
M  V30 8805 O 841.711 0.602688 2.45202 0
M  V30 8806 C 843.024 2.99462 0.272605 0
M  V30 8807 C 844.572 3.11047 0.349148 0
M  V30 8808 C 845.047 4.57182 0.273636 0
M  V30 8809 N 846.538 4.62007 0.332206 0
M  V30 8810 C 847.273 5.72631 0.296782 0
M  V30 8811 N 846.769 6.92472 0.21322 0
M  V30 8812 N 848.562 5.61028 0.347053 0
M  V30 8813 H 840.713 1.93133 -0.883925 0
M  V30 8814 H 842.976 0.886151 -0.33681 0
M  V30 8815 H 842.682 3.45088 -0.67878 0
M  V30 8816 H 842.556 3.61901 1.06335 0
M  V30 8817 H 844.943 2.65364 1.29097 0
M  V30 8818 H 845.024 2.51425 -0.471085 0
M  V30 8819 H 844.668 5.03534 -0.664548 0
M  V30 8820 H 844.598 5.14724 1.11207 0
M  V30 8821 H 847.089 3.75788 0.399003 0
M  V30 8822 H 847.402 7.72563 0.191492 0
M  V30 8823 H 845.747 6.94769 0.179161 0
M  V30 8824 H 848.938 4.66298 0.410378 0
M  V30 8825 H 849.111 6.47229 0.315979 0
M  V30 8826 N 842.517 -0.29412 1.54831 0
M  V30 8827 C 843.427 -1.3854 1.89325 0
M  V30 8828 C 844.443 -1.55127 0.788133 0
M  V30 8829 O 845.619 -1.6966 1.08524 0
M  V30 8830 C 842.684 -2.72809 2.13954 0
M  V30 8831 C 841.745 -2.65148 3.37631 0
M  V30 8832 C 840.978 -3.93014 3.61076 0
M  V30 8833 O 841.201 -4.927 2.87406 0
M  V30 8834 O 840.135 -3.94491 4.54599 0
M  V30 8835 H 843.961 -1.12289 2.82179 0
M  V30 8836 H 841.546 -0.490793 1.41108 0
M  V30 8837 H 843.428 -3.52238 2.31315 0
M  V30 8838 H 842.103 -2.9889 1.24285 0
M  V30 8839 H 841.01 -1.84168 3.25627 0
M  V30 8840 H 842.343 -2.4402 4.27452 0
M  V30 8841 N 843.995 -1.47404 -0.557645 0
M  V30 8842 C 845.411 -1.32913 -0.88353 0
M  V30 8843 C 845.611 -0.31929 -1.98954 0
M  V30 8844 O 844.667 0.26934 -2.51059 0
M  V30 8845 C 845.98 -2.72229 -1.27718 0
M  V30 8846 C 847.528 -2.8051 -1.38863 0
M  V30 8847 C 848.003 -4.20466 -1.81583 0
M  V30 8848 N 849.494 -4.23005 -1.88735 0
M  V30 8849 C 850.229 -5.2821 -2.23118 0
M  V30 8850 N 849.725 -6.4372 -2.56117 0
M  V30 8851 N 851.518 -5.15588 -2.23888 0
M  V30 8852 H 843.669 -2.11698 0.172557 0
M  V30 8853 H 845.932 -0.947889 0.0145334 0
M  V30 8854 H 845.638 -3.47556 -0.538329 0
M  V30 8855 H 845.512 -3.03971 -2.23342 0
M  V30 8856 H 847.899 -2.05457 -2.11829 0
M  V30 8857 H 847.98 -2.52423 -0.414274 0
M  V30 8858 H 847.624 -4.96025 -1.09187 0
M  V30 8859 H 847.554 -4.45977 -2.80021 0
M  V30 8860 H 850.045 -3.39674 -1.65621 0
M  V30 8861 H 850.358 -7.19754 -2.81378 0
M  V30 8862 H 848.703 -6.47041 -2.53698 0
M  V30 8863 H 851.894 -4.24374 -1.97546 0
M  V30 8864 H 852.067 -5.97685 -2.50353 0
M  V30 8865 N 845.473 0.80434 -1.35529 0
M  V30 8866 C 846.421 1.93769 -1.28671 0
M  V30 8867 C 847.415 1.68428 -0.181222 0
M  V30 8868 O 848.621 1.76617 -0.347338 0
M  V30 8869 H 844.996 0.636663 -0.400206 0
M  V30 8870 H 846.967 1.96673 -2.24415 0
M  V30 8871 C 845.716 3.30572 -1.07784 0
M  V30 8872 H 845.039 3.5063 -1.9209 0
M  V30 8873 H 846.479 4.1027 -1.07027 0
M  V30 8874 C 844.938 3.36193 0.218213 0
M  V30 8875 O 845.468 3.82941 1.21323 0
M  V30 8876 N 843.674 2.89455 0.257761 0
M  V30 8877 H 843.221 2.51604 -0.552562 0
M  V30 8878 H 843.179 2.93597 1.12465 0
M  V30 8879 N 846.951 1.19563 1.02676 0
M  V30 8880 C 847.898 0.935291 2.11 0
M  V30 8881 C 848.868 -0.130685 1.65585 0
M  V30 8882 O 850.053 0.0119062 1.90796 0
M  V30 8883 C 847.193 0.482384 3.41712 0
M  V30 8884 C 846.306 1.61537 4.00662 0
M  V30 8885 C 845.441 1.11378 5.19392 0
M  V30 8886 C 844.48 2.22052 5.70403 0
M  V30 8887 N 843.617 1.73185 6.80405 0
M  V30 8888 H 848.457 1.86275 2.32606 0
M  V30 8889 H 845.994 0.928656 1.14081 0
M  V30 8890 H 847.952 0.20118 4.16715 0
M  V30 8891 H 846.582 -0.408086 3.2021 0
M  V30 8892 H 845.634 2.01173 3.22852 0
M  V30 8893 H 846.946 2.44912 4.34534 0
M  V30 8894 H 846.1 0.787935 6.01562 0
M  V30 8895 H 844.839 0.249789 4.8706 0
M  V30 8896 H 843.844 2.55465 4.86845 0
M  V30 8897 H 845.069 3.08911 6.04774 0
M  V30 8898 H 843.015 0.890973 6.49921 0
M  V30 8899 H 842.932 2.50148 7.13416 0
M  V30 8900 H 844.2 1.4357 7.66164 0
M  V30 8901 N 848.429 -1.21819 0.999893 0
M  V30 8902 C 849.84 -1.72517 0.713775 0
M  V30 8903 C 850.191 -1.80505 -0.768922 0
M  V30 8904 O 849.316 -1.45611 -1.60083 0
M  V30 8905 C 849.911 -3.13321 1.28901 0
M  V30 8906 C 848.47 -3.61396 1.05212 0
M  V30 8907 C 847.617 -2.39074 1.40494 0
M  V30 8908 H 850.568 -1.07068 1.17141 0
M  V30 8909 H 850.589 -3.74535 0.671084 0
M  V30 8910 H 850.101 -3.07475 2.36814 0
M  V30 8911 H 848.202 -3.72599 -0.0100732 0
M  V30 8912 H 848.315 -4.47145 1.72042 0
M  V30 8913 H 846.679 -2.41015 0.823642 0
M  V30 8914 H 847.462 -2.35884 2.49427 0
M  V30 8915 N 849.908 -0.773975 -1.37286 0
M  V30 8916 C 850.818 -0.162571 -2.34036 0
M  V30 8917 C 851.834 0.677022 -1.60289 0
M  V30 8918 O 853.01 0.596423 -1.92366 0
M  V30 8919 C 850.075 0.70457 -3.39465 0
M  V30 8920 C 849.136 -0.151738 -4.29032 0
M  V30 8921 C 848.369 0.674111 -5.29426 0
M  V30 8922 O 848.592 1.91107 -5.37433 0
M  V30 8923 O 847.526 0.0821398 -6.01844 0
M  V30 8924 H 851.352 -0.962119 -2.88057 0
M  V30 8925 H 848.937 -0.53517 -1.39486 0
M  V30 8926 H 850.819 1.19954 -4.03967 0
M  V30 8927 H 849.494 1.48227 -2.87768 0
M  V30 8928 H 848.401 -0.693118 -3.67623 0
M  V30 8929 H 849.734 -0.892575 -4.84039 0
M  V30 8930 N 851.386 1.48609 -0.524698 0
M  V30 8931 C 852.635 2.01696 0.0132937 0
M  V30 8932 C 852.948 1.40751 1.35825 0
M  V30 8933 O 854.154 1.85304 1.9843 0
M  V30 8934 C 852.61 3.59824 0.0741012 0
M  V30 8935 C 852.218 4.2975 -1.26564 0
M  V30 8936 C 853.962 4.20774 0.5612 0
M  V30 8937 C 851.869 5.79798 -1.16571 0
M  V30 8938 H 850.799 0.753949 0.00873931 0
M  V30 8939 H 853.45 1.70922 -0.667684 0
M  V30 8940 H 851.832 3.87416 0.820043 0
M  V30 8941 H 853.006 4.13836 -2.02674 0
M  V30 8942 H 851.321 3.80649 -1.68806 0
M  V30 8943 H 853.918 5.30687 0.653853 0
M  V30 8944 H 854.261 3.85734 1.56573 0
M  V30 8945 H 854.794 3.97591 -0.128901 0
M  V30 8946 H 851.533 6.19403 -2.14523 0
M  V30 8947 H 851.053 5.9814 -0.445894 0
M  V30 8948 H 852.732 6.41337 -0.854186 0
M  V30 8949 N 852.864 0.259585 1.55447 0
M  V30 8950 C 854.111 -0.361607 1.99245 0
M  V30 8951 C 854.439 -1.57017 1.14787 0
M  V30 8952 O 853.694 -1.94658 0.201724 0
M  V30 8953 C 853.993 -0.802727 3.48269 0
M  V30 8954 C 853.659 0.299472 4.49904 0
M  V30 8955 C 852.321 0.602157 4.77418 0
M  V30 8956 C 854.673 1.04295 5.10658 0
M  V30 8957 C 852.001 1.65217 5.62957 0
M  V30 8958 C 854.353 2.08257 5.97337 0
M  V30 8959 C 853.017 2.39177 6.23178 0
M  V30 8960 H 852.287 -0.132322 0.72909 0
M  V30 8961 H 854.934 0.370059 1.8789 0
M  V30 8962 H 853.239 -1.61381 3.5702 0
M  V30 8963 H 854.936 -1.29385 3.79553 0
M  V30 8964 H 851.526 0.0534256 4.28567 0
M  V30 8965 H 855.71 0.822358 4.89439 0
M  V30 8966 H 850.966 1.89692 5.81229 0
M  V30 8967 H 855.14 2.6635 6.43452 0
M  V30 8968 H 852.767 3.20677 6.89253 0
M  V30 8969 N 854.342 -1.57594 -0.0133615 0
M  V30 8970 C 855.252 -2.10991 -1.02566 0
M  V30 8971 C 856.268 -1.05208 -1.3859 0
M  V30 8972 O 857.444 -1.37034 -1.47593 0
M  V30 8973 C 854.509 -2.59165 -2.30292 0
M  V30 8974 C 853.57 -3.79495 -2.00704 0
M  V30 8975 C 852.803 -4.25361 -3.22341 0
M  V30 8976 O 853.026 -3.70645 -4.33565 0
M  V30 8977 O 851.96 -5.17649 -3.07121 0
M  V30 8978 H 855.786 -2.97678 -0.601806 0
M  V30 8979 H 853.371 -1.47598 -0.23135 0
M  V30 8980 H 855.253 -2.90409 -3.05354 0
M  V30 8981 H 853.928 -1.75582 -2.71942 0
M  V30 8982 H 852.835 -3.53245 -1.23161 0
M  V30 8983 H 854.168 -4.64109 -1.639 0
M  V30 8984 N 855.82 0.285905 -1.54985 0
M  V30 8985 C 857.066 1.02071 -1.75241 0
M  V30 8986 C 857.399 1.864 -0.544842 0
M  V30 8987 O 856.674 1.89034 0.457844 0
M  V30 8988 C 856.957 1.91409 -3.05016 0
M  V30 8989 C 856.81 1.10158 -4.36102 0
M  V30 8990 C 858.129 2.90335 -3.30747 0
M  V30 8991 H 855.248 0.369663 -0.637588 0
M  V30 8992 H 857.89 0.294114 -1.8771 0
M  V30 8993 H 856.04 2.53362 -2.94517 0
M  V30 8994 H 857.712 0.503756 -4.58541 0
M  V30 8995 H 855.955 0.404675 -4.31908 0
M  V30 8996 H 856.626 1.75956 -5.23205 0
M  V30 8997 H 859.102 2.38514 -3.40955 0
M  V30 8998 H 857.978 3.49997 -4.2284 0
M  V30 8999 H 858.239 3.64787 -2.49765 0
M  V30 9000 N 857.298 1.47698 0.54982 0
M  V30 9001 C 858.547 1.53961 1.30303 0
M  V30 9002 C 858.86 0.209731 1.94472 0
M  V30 9003 O 860.066 0.150418 2.71083 0
M  V30 9004 C 858.522 2.71436 2.36328 0
M  V30 9005 C 858.13 4.10983 1.78316 0
M  V30 9006 C 859.874 2.86996 3.12783 0
M  V30 9007 C 857.781 5.19747 2.82164 0
M  V30 9008 H 856.711 0.573098 0.489975 0
M  V30 9009 H 859.362 1.73989 0.583089 0
M  V30 9010 H 857.744 2.44801 3.11269 0
M  V30 9011 H 858.918 4.47552 1.09697 0
M  V30 9012 H 857.233 4.00371 1.1442 0
M  V30 9013 H 859.83 3.65422 3.90347 0
M  V30 9014 H 860.173 1.95712 3.67427 0
M  V30 9015 H 860.706 3.13436 2.44954 0
M  V30 9016 H 857.445 6.12932 2.32366 0
M  V30 9017 H 856.965 4.87688 3.49171 0
M  V30 9018 H 858.644 5.47014 3.4552 0
M  V30 9019 N 858.776 -0.797141 1.35954 0
M  V30 9020 C 860.192 -1.09408 1.16198 0
M  V30 9021 C 860.392 -2.01491 -0.0191682 0
M  V30 9022 O 859.448 -2.42977 -0.686902 0
M  V30 9023 C 860.761 -1.71597 2.46931 0
M  V30 9024 C 862.309 -1.83974 2.53224 0
M  V30 9025 C 862.784 -2.49579 3.84024 0
M  V30 9026 N 864.275 -2.57055 3.85327 0
M  V30 9027 C 865.01 -3.08608 4.83268 0
M  V30 9028 N 864.506 -3.60527 5.91601 0
M  V30 9029 N 866.299 -3.07249 4.70696 0
M  V30 9030 H 858.45 -0.185209 2.11591 0
M  V30 9031 H 860.713 -0.144768 0.936881 0
M  V30 9032 H 860.419 -1.11404 3.3359 0
M  V30 9033 H 860.293 -2.71193 2.62172 0
M  V30 9034 H 862.68 -2.43308 1.66988 0
M  V30 9035 H 862.761 -0.83207 2.41889 0
M  V30 9036 H 862.405 -1.90892 4.70662 0
M  V30 9037 H 862.335 -3.50902 3.92651 0
M  V30 9038 H 864.826 -2.20283 3.07057 0
M  V30 9039 H 865.139 -3.98192 6.62317 0
M  V30 9040 H 863.484 -3.587 5.95281 0
M  V30 9041 H 866.675 -2.65972 3.85197 0
M  V30 9042 H 866.848 -3.47119 5.47186 0
M  V30 9043 N 860.254 -1.20106 -1.0204 0
M  V30 9044 C 861.531 -0.918029 -1.72718 0
M  V30 9045 C 861.911 0.574163 -2.03142 0
M  V30 9046 O 861.259 1.53476 -1.69285 0
M  V30 9047 C 861.469 -1.78698 -2.9978 0
M  V30 9048 C 862.817 -2.02648 -3.7312 0
M  V30 9049 O 863.841 -1.75919 -3.09727 0
M  V30 9050 O 862.7 -2.47767 -4.87107 0
M  V30 9051 H 859.794 -0.342904 -0.752559 0
M  V30 9052 H 862.34 -1.30961 -1.07923 0
M  V30 9053 H 861.112 -2.79757 -2.7359 0
M  V30 9054 H 860.735 -1.39522 -3.72316 0
M  V30 9055 N 861.732 1.21287 -1.00634 0
M  V30 9056 C 862.978 1.90671 -0.690822 0
M  V30 9057 C 863.311 1.77996 0.776592 0
M  V30 9058 O 862.586 1.15748 1.5631 0
M  V30 9059 C 862.869 3.42426 -1.11428 0
M  V30 9060 C 862.722 3.64086 -2.64124 0
M  V30 9061 C 864.041 4.34851 -0.677686 0
M  V30 9062 H 861.16 0.692419 -0.252439 0
M  V30 9063 H 863.802 1.42893 -1.25226 0
M  V30 9064 H 861.952 3.83249 -0.636586 0
M  V30 9065 H 863.624 3.32582 -3.19667 0
M  V30 9066 H 861.867 3.07906 -3.05576 0
M  V30 9067 H 862.538 4.7042 -2.88806 0
M  V30 9068 H 865.014 4.01619 -1.0882 0
M  V30 9069 H 863.89 5.39675 -1.00213 0
M  V30 9070 H 864.151 4.4009 0.421125 0
M  V30 9071 N 863.21 0.781244 1.36873 0
M  V30 9072 C 864.457 0.349889 1.99454 0
M  V30 9073 C 864.785 -1.07621 1.62013 0
M  V30 9074 O 864.04 -1.75665 0.86258 0
M  V30 9075 C 864.339 0.45146 3.54537 0
M  V30 9076 C 864.005 1.83718 4.11775 0
M  V30 9077 C 862.667 2.21634 4.2712 0
M  V30 9078 C 865.019 2.7449 4.43063 0
M  V30 9079 C 862.347 3.49742 4.7106 0
M  V30 9080 C 864.699 4.02017 4.88431 0
M  V30 9081 C 863.363 4.39967 5.01982 0
M  V30 9082 H 862.633 0.128033 0.729855 0
M  V30 9083 H 865.28 0.997117 1.63493 0
M  V30 9084 H 863.585 -0.279288 3.90803 0
M  V30 9085 H 865.282 0.0988609 4.00878 0
M  V30 9086 H 861.872 1.53251 4.00265 0
M  V30 9087 H 866.056 2.46453 4.30783 0
M  V30 9088 H 861.312 3.79026 4.79738 0
M  V30 9089 H 865.486 4.72475 5.11605 0
M  V30 9090 H 863.113 5.39291 5.35788 0
M  V30 9091 N 864.689 -1.48329 0.532571 0
M  V30 9092 C 865.917 -2.069 0.00354299 0
M  V30 9093 C 866.332 -1.38876 -1.27902 0
M  V30 9094 O 865.689 -0.477119 -1.76153 0
M  V30 9095 C 865.74 -3.60821 -0.221416 0
M  V30 9096 O 865.461 -4.26291 1.01034 0
M  V30 9097 C 866.962 -4.36194 -0.790531 0
M  V30 9098 H 864.182 -0.670103 0.0346836 0
M  V30 9099 H 866.726 -1.90682 0.738955 0
M  V30 9100 H 864.881 -3.76636 -0.906884 0
M  V30 9101 H 865.295 -5.18475 0.792683 0
M  V30 9102 H 866.769 -5.44657 -0.897347 0
M  V30 9103 H 867.246 -4.00798 -1.79605 0
M  V30 9104 H 867.852 -4.25064 -0.141546 0
M  V30 9105 N 866.167 -0.267825 -1.55308 0
M  V30 9106 C 867.413 0.351556 -1.9973 0
M  V30 9107 C 867.746 1.56049 -1.15596 0
M  V30 9108 O 867.021 1.93203 -0.224274 0
M  V30 9109 C 867.304 0.74091 -3.52395 0
M  V30 9110 C 867.157 -0.474861 -4.47286 0
M  V30 9111 C 868.476 1.5801 -4.10756 0
M  V30 9112 H 865.595 0.126308 -0.726096 0
M  V30 9113 H 868.237 -0.373316 -1.86296 0
M  V30 9114 H 866.387 1.35851 -3.63973 0
M  V30 9115 H 868.059 -1.1134 -4.47662 0
M  V30 9116 H 866.302 -1.11425 -4.19246 0
M  V30 9117 H 866.973 -0.158782 -5.51772 0
M  V30 9118 H 869.449 1.05857 -4.0241 0
M  V30 9119 H 868.325 1.82135 -5.17801 0
M  V30 9120 H 868.586 2.55878 -3.60526 0
M  V30 9121 N 867.645 1.57599 0.00500368 0
M  V30 9122 C 868.87 1.95026 0.705663 0
M  V30 9123 C 869.295 0.869643 1.6679 0
M  V30 9124 O 868.653 -0.172659 1.80476 0
M  V30 9125 C 868.701 3.31545 1.4181 0
M  V30 9126 O 867.805 3.25495 2.53232 0
M  V30 9127 H 867.146 0.636808 0.188074 0
M  V30 9128 H 869.676 2.04547 -0.046696 0
M  V30 9129 H 869.686 3.66996 1.78265 0
M  V30 9130 H 868.361 4.09751 0.712543 0
M  V30 9131 H 866.938 3.01714 2.19142 0
M  V30 9132 N 869.123 -0.277682 1.55134 0
M  V30 9133 C 870.07 -1.34313 1.87693 0
M  V30 9134 C 871.04 -1.49298 0.727973 0
M  V30 9135 O 872.225 -1.6378 0.978807 0
M  V30 9136 C 869.365 -2.69922 2.15026 0
M  V30 9137 C 868.478 -2.63197 3.42565 0
M  V30 9138 C 867.613 -3.90955 3.59622 0
M  V30 9139 C 866.652 -3.78722 4.8087 0
M  V30 9140 N 865.789 -4.98303 4.94609 0
M  V30 9141 H 870.629 -1.05847 2.78569 0
M  V30 9142 H 868.166 -0.511469 1.37922 0
M  V30 9143 H 870.124 -3.48817 2.28872 0
M  V30 9144 H 868.754 -2.966 1.2739 0
M  V30 9145 H 867.806 -1.76038 3.37216 0
M  V30 9146 H 869.118 -2.50056 4.31594 0
M  V30 9147 H 868.272 -4.78291 3.7326 0
M  V30 9148 H 867.011 -4.06957 2.6877 0
M  V30 9149 H 866.016 -2.89769 4.67241 0
M  V30 9150 H 867.241 -3.64242 5.73153 0
M  V30 9151 H 865.187 -5.14725 4.06687 0
M  V30 9152 H 865.104 -4.87675 5.77676 0
M  V30 9153 H 866.372 -5.87225 5.12628 0
M  V30 9154 N 870.601 -1.47988 -0.541979 0
M  V30 9155 C 871.847 -1.55623 -1.30036 0
M  V30 9156 C 872.18 -0.224254 -1.92901 0
M  V30 9157 O 871.455 0.768629 -1.78668 0
M  V30 9158 C 871.738 -2.68562 -2.39888 0
M  V30 9159 C 871.591 -4.11426 -1.81792 0
M  V30 9160 C 872.91 -2.77325 -3.41729 0
M  V30 9161 H 870.029 -0.566498 -0.471433 0
M  V30 9162 H 872.671 -1.8011 -0.604998 0
M  V30 9163 H 870.821 -2.47814 -2.992 0
M  V30 9164 H 872.493 -4.43581 -1.26624 0
M  V30 9165 H 870.736 -4.18989 -1.12386 0
M  V30 9166 H 871.407 -4.8625 -2.61276 0
M  V30 9167 H 873.883 -2.96085 -2.92357 0
M  V30 9168 H 872.759 -3.58097 -4.16002 0
M  V30 9169 H 873.02 -1.84995 -4.01534 0
M  V30 9170 N 872.079 0.78992 -1.36375 0
M  V30 9171 C 873.042 1.88414 -1.30509 0
M  V30 9172 C 874.042 1.59384 -0.2129 0
M  V30 9173 O 875.232 1.67805 -0.467651 0
M  V30 9174 C 872.364 3.25188 -1.02302 0
M  V30 9175 H 873.557 1.95031 -2.27822 0
M  V30 9176 H 871.11 0.987664 -1.2114 0
M  V30 9177 H 871.845 3.24254 -0.0544486 0
M  V30 9178 H 871.63 3.47647 -1.81338 0
M  V30 9179 H 873.12 4.05252 -1.00801 0
M  V30 9180 N 873.557 1.20646 1.01402 0
M  V30 9181 C 874.507 0.925209 2.08384 0
M  V30 9182 C 875.491 -0.115994 1.60481 0
M  V30 9183 O 876.683 0.0917276 1.76762 0
M  V30 9184 C 873.812 0.48193 3.399 0
M  V30 9185 C 872.898 1.5567 3.94497 0
M  V30 9186 N 873.289 2.77971 4.2257 0
M  V30 9187 C 871.587 1.42347 4.22674 0
M  V30 9188 C 872.288 3.47317 4.66632 0
M  V30 9189 N 871.264 2.74736 4.69064 0
M  V30 9190 H 875.066 1.85452 2.28002 0
M  V30 9191 H 872.58 1.10084 1.19395 0
M  V30 9192 H 874.577 0.261835 4.16077 0
M  V30 9193 H 873.237 -0.440725 3.21695 0
M  V30 9194 H 874.248 3.14598 4.11398 0
M  V30 9195 H 870.925 0.565417 4.13654 0
M  V30 9196 H 872.315 4.51985 4.97151 0
M  V30 9197 N 875.035 -1.20752 1.01276 0
M  V30 9198 C 876.281 -1.90302 0.700924 0
M  V30 9199 C 876.614 -1.78406 -0.767142 0
M  V30 9200 O 875.889 -1.16575 -1.55694 0
M  V30 9201 C 876.172 -3.41831 1.13242 0
M  V30 9202 C 876.025 -3.6268 2.66051 0
M  V30 9203 C 877.344 -4.34486 0.700738 0
M  V30 9204 H 874.463 -0.69107 0.256107 0
M  V30 9205 H 877.105 -1.42227 1.25982 0
M  V30 9206 H 875.255 -3.82906 0.656902 0
M  V30 9207 H 876.927 -3.30882 3.21426 0
M  V30 9208 H 875.17 -3.06281 3.07204 0
M  V30 9209 H 875.841 -4.68882 2.91296 0
M  V30 9210 H 878.317 -4.01036 1.10948 0
M  V30 9211 H 877.193 -5.39136 1.03073 0
M  V30 9212 H 877.454 -4.40307 -0.39778 0
M  V30 9213 N 876.513 -0.788492 -1.36457 0
M  V30 9214 C 877.445 -0.144208 -2.28746 0
M  V30 9215 C 878.458 0.646009 -1.49434 0
M  V30 9216 O 879.647 0.481344 -1.71888 0
M  V30 9217 C 876.747 0.818869 -3.28858 0
M  V30 9218 C 875.92 0.0789055 -4.37329 0
M  V30 9219 C 874.979 0.957791 -5.1741 0
M  V30 9220 O 874.005 0.415378 -5.67682 0
M  V30 9221 N 875.207 2.28216 -5.33758 0
M  V30 9222 H 877.972 -0.936949 -2.84678 0
M  V30 9223 H 875.533 -0.642317 -1.48613 0
M  V30 9224 H 877.525 1.41065 -3.79319 0
M  V30 9225 H 876.095 1.51249 -2.73573 0
M  V30 9226 H 875.315 -0.693939 -3.88044 0
M  V30 9227 H 876.603 -0.431753 -5.06965 0
M  V30 9228 H 876.001 2.747 -4.94527 0
M  V30 9229 H 874.558 2.8236 -5.87466 0
M  V30 9230 N 877.991 1.48044 -0.54043 0
M  V30 9231 C 878.923 2.2779 0.253854 0
M  V30 9232 C 879.936 1.35999 0.894883 0
M  V30 9233 O 881.125 1.60963 0.771563 0
M  V30 9234 C 878.225 3.09724 1.37566 0
M  V30 9235 C 877.398 4.29364 0.83459 0
M  V30 9236 C 876.457 4.93026 1.83881 0
M  V30 9237 O 875.483 5.51927 1.39159 0
M  V30 9238 N 876.685 4.86207 3.17149 0
M  V30 9239 H 879.45 2.96597 -0.430125 0
M  V30 9240 H 877.011 1.57487 -0.375423 0
M  V30 9241 H 879.003 3.49181 2.04584 0
M  V30 9242 H 877.573 2.43269 1.96314 0
M  V30 9243 H 876.793 3.94198 -0.0118878 0
M  V30 9244 H 878.081 5.06787 0.452155 0
M  V30 9245 H 877.479 4.39523 3.56141 0
M  V30 9246 H 876.036 5.29733 3.79771 0
M  V30 9247 N 879.47 0.276058 1.55163 0
M  V30 9248 C 880.403 -0.652386 2.18676 0
M  V30 9249 C 881.381 -1.15151 1.148 0
M  V30 9250 O 882.565 -1.22431 1.43328 0
M  V30 9251 C 879.692 -1.88982 2.81076 0
M  V30 9252 C 878.738 -1.52609 3.98262 0
M  V30 9253 S 879.571 -0.603445 5.32089 0
M  V30 9254 C 880.727 -1.84923 5.97958 0
M  V30 9255 H 880.96 -0.112733 2.97086 0
M  V30 9256 H 878.493 0.0603118 1.54282 0
M  V30 9257 H 880.451 -2.60007 3.17658 0
M  V30 9258 H 879.112 -2.40061 2.02557 0
M  V30 9259 H 878.305 -2.44689 4.40617 0
M  V30 9260 H 877.907 -0.89601 3.63108 0
M  V30 9261 H 880.199 -2.79303 6.17249 0
M  V30 9262 H 881.142 -1.46868 6.92702 0
M  V30 9263 H 881.55 -2.0146 5.27327 0
M  V30 9264 N 880.948 -1.576 0.00335426 0
M  V30 9265 C 881.895 -2.08632 -0.986975 0
M  V30 9266 C 882.865 -0.982491 -1.33927 0
M  V30 9267 O 884.05 -1.25513 -1.43705 0
M  V30 9268 C 881.19 -2.59705 -2.27261 0
M  V30 9269 C 880.303 -3.84002 -1.97905 0
M  V30 9270 C 879.438 -4.23563 -3.20574 0
M  V30 9271 C 878.477 -5.40688 -2.8692 0
M  V30 9272 N 877.614 -5.75526 -4.02136 0
M  V30 9273 H 882.454 -2.92977 -0.544855 0
M  V30 9274 H 879.991 -1.44831 -0.257376 0
M  V30 9275 H 881.949 -2.87395 -3.02423 0
M  V30 9276 H 880.579 -1.7823 -2.69136 0
M  V30 9277 H 879.631 -3.63199 -1.13096 0
M  V30 9278 H 880.943 -4.69261 -1.69102 0
M  V30 9279 H 880.097 -4.52554 -4.04079 0
M  V30 9280 H 878.836 -3.37019 -3.52518 0
M  V30 9281 H 877.841 -5.11417 -2.01822 0
M  V30 9282 H 879.066 -6.2891 -2.5622 0
M  V30 9283 H 877.012 -4.9194 -4.33971 0
M  V30 9284 H 876.929 -6.55367 -3.76869 0
M  V30 9285 H 878.197 -6.0911 -4.8642 0
M  V30 9286 N 882.426 0.269451 -1.5528 0
M  V30 9287 C 883.654 1.01872 -1.80082 0
M  V30 9288 C 884.069 1.79802 -0.575917 0
M  V30 9289 O 883.426 1.76735 0.455081 0
M  V30 9290 C 883.477 1.9745 -3.02813 0
M  V30 9291 O 883.198 1.22677 -4.20573 0
M  V30 9292 C 884.699 2.8416 -3.40247 0
M  V30 9293 H 881.919 0.300781 -0.59981 0
M  V30 9294 H 884.463 0.29916 -2.023 0
M  V30 9295 H 882.618 2.64864 -2.82712 0
M  V30 9296 H 883.032 1.87129 -4.89982 0
M  V30 9297 H 884.506 3.47014 -4.29284 0
M  V30 9298 H 884.983 3.54113 -2.59809 0
M  V30 9299 H 885.589 2.22232 -3.6262 0
M  V30 9300 N 883.904 1.48273 0.534124 0
M  V30 9301 C 885.15 1.56311 1.29208 0
M  V30 9302 C 885.483 0.234481 1.92779 0
M  V30 9303 O 884.758 -0.759143 1.79073 0
M  V30 9304 C 885.041 2.69831 2.3846 0
M  V30 9305 C 884.894 4.12385 1.79608 0
M  V30 9306 C 886.213 2.79133 3.40254 0
M  V30 9307 H 883.332 0.56899 0.468422 0
M  V30 9308 H 885.974 1.80429 0.595438 0
M  V30 9309 H 884.124 2.49397 2.97881 0
M  V30 9310 H 885.796 4.44246 1.24269 0
M  V30 9311 H 884.039 4.19579 1.10162 0
M  V30 9312 H 884.71 4.87629 2.58693 0
M  V30 9313 H 887.186 2.97632 2.90783 0
M  V30 9314 H 886.062 3.60298 4.14097 0
M  V30 9315 H 886.323 1.87122 4.00547 0
M  V30 9316 N 885.382 -0.782676 1.36792 0
M  V30 9317 C 886.329 -1.89558 1.31667 0
M  V30 9318 C 887.299 -1.65076 0.184147 0
M  V30 9319 O 888.484 -1.87143 0.371753 0
M  V30 9320 C 885.624 -3.26469 1.11858 0
M  V30 9321 C 884.737 -3.62978 2.34245 0
M  V30 9322 C 883.872 -4.89041 2.07394 0
M  V30 9323 C 882.911 -5.18249 3.25706 0
M  V30 9324 N 882.048 -6.35497 2.98476 0
M  V30 9325 H 886.888 -1.93274 2.26824 0
M  V30 9326 H 884.425 -0.945057 1.12726 0
M  V30 9327 H 886.383 -4.05431 0.983968 0
M  V30 9328 H 885.013 -3.22158 0.203531 0
M  V30 9329 H 884.065 -2.79087 2.58485 0
M  V30 9330 H 885.377 -3.80507 3.22514 0
M  V30 9331 H 884.531 -5.75883 1.90901 0
M  V30 9332 H 883.27 -4.73594 1.16446 0
M  V30 9333 H 882.275 -4.29887 3.4275 0
M  V30 9334 H 883.5 -5.35611 4.1749 0
M  V30 9335 H 881.446 -6.21429 2.10146 0
M  V30 9336 H 881.363 -6.5339 3.80286 0
M  V30 9337 H 882.631 -7.25304 2.85577 0
M  V30 9338 N 886.86 -1.21182 -1.00761 0
M  V30 9339 C 887.792 -0.926523 -2.09638 0
M  V30 9340 C 888.805 0.0892511 -1.62555 0
M  V30 9341 O 889.994 -0.142915 -1.77927 0
M  V30 9342 C 887.094 -0.369175 -3.36883 0
M  V30 9343 C 886.267 -1.43866 -4.13063 0
M  V30 9344 C 885.326 -0.891015 -5.18601 0
M  V30 9345 O 884.352 -1.57384 -5.47009 0
M  V30 9346 N 885.554 0.295057 -5.7975 0
M  V30 9347 H 888.319 -1.8638 -2.34697 0
M  V30 9348 H 885.88 -1.11671 -1.17223 0
M  V30 9349 H 887.872 0.011534 -4.04698 0
M  V30 9350 H 886.442 0.472861 -3.09003 0
M  V30 9351 H 885.662 -1.99332 -3.40089 0
M  V30 9352 H 886.95 -2.15866 -4.60738 0
M  V30 9353 H 886.348 0.8669 -5.59018 0
M  V30 9354 H 884.905 0.617306 -6.4887 0
M  V30 9355 N 888.338 1.20213 -1.01915 0
M  V30 9356 C 889.563 1.94163 -0.729076 0
M  V30 9357 C 889.988 1.74416 0.704323 0
M  V30 9358 O 889.346 1.0401 1.48498 0
M  V30 9359 C 889.394 3.44258 -1.07324 0
M  V30 9360 O 888.498 4.11979 -0.186367 0
M  V30 9361 H 887.839 0.606506 -0.270272 0
M  V30 9362 H 890.369 1.52571 -1.3632 0
M  V30 9363 H 890.379 3.94888 -1.02603 0
M  V30 9364 H 889.054 3.57954 -2.11759 0
M  V30 9365 H 887.631 3.7176 -0.291334 0
M  V30 9366 N 889.816 0.795718 1.36037 0
M  V30 9367 C 891.062 0.371574 1.99367 0
M  V30 9368 C 891.395 -1.0557 1.62999 0
M  V30 9369 O 890.67 -1.73051 0.887895 0
M  V30 9370 C 890.953 0.542622 3.55988 0
M  V30 9371 C 890.806 2.01404 4.0219 0
M  V30 9372 C 892.125 -0.0384527 4.40083 0
M  V30 9373 H 889.244 0.136483 0.724252 0
M  V30 9374 H 891.886 1.00323 1.61355 0
M  V30 9375 H 890.036 0.0049053 3.885 0
M  V30 9376 H 891.708 2.6133 3.80137 0
M  V30 9377 H 889.951 2.51439 3.53498 0
M  V30 9378 H 890.622 2.08466 5.11122 0
M  V30 9379 H 893.098 0.420634 4.13968 0
M  V30 9380 H 891.974 0.111214 5.48787 0
M  V30 9381 H 892.235 -1.13116 4.27384 0
M  V30 9382 N 891.294 -1.47756 0.548274 0
M  V30 9383 C 892.224 -2.32702 -0.19284 0
M  V30 9384 C 893.205 -1.43237 -0.917457 0
M  V30 9385 O 894.39 -1.72103 -0.89967 0
M  V30 9386 C 891.52 -3.24831 -1.22891 0
M  V30 9387 C 890.474 -4.23466 -0.621312 0
M  V30 9388 C 889.8 -5.04856 -1.76137 0
M  V30 9389 C 891.1 -5.20616 0.419055 0
M  V30 9390 H 892.794 -2.94914 0.516323 0
M  V30 9391 H 890.34 -1.41818 0.24975 0
M  V30 9392 H 892.293 -3.83094 -1.75547 0
M  V30 9393 H 891.017 -2.60656 -1.9679 0
M  V30 9394 H 889.676 -3.66416 -0.116123 0
M  V30 9395 H 889.324 -4.37091 -2.48918 0
M  V30 9396 H 889.024 -5.71629 -1.36065 0
M  V30 9397 H 890.548 -5.65976 -2.29136 0
M  V30 9398 H 891.962 -5.73296 -0.0211034 0
M  V30 9399 H 890.359 -5.95543 0.738163 0
M  V30 9400 H 891.429 -4.66638 1.31822 0
M  V30 9401 N 892.772 -0.284283 -1.55015 0
M  V30 9402 C 894.049 0.382125 -1.91831 0
M  V30 9403 C 894.429 1.73007 -1.20962 0
M  V30 9404 O 893.777 2.25962 -0.339594 0
M  V30 9405 C 893.987 0.513341 -3.45204 0
M  V30 9406 C 895.335 0.791989 -4.17148 0
M  V30 9407 O 896.359 0.597799 -3.51148 0
M  V30 9408 O 895.218 1.16394 -5.33961 0
M  V30 9409 H 892.312 0.210707 -0.799707 0
M  V30 9410 H 894.858 -0.331111 -1.66438 0
M  V30 9411 H 893.63 -0.434911 -3.88876 0
M  V30 9412 H 893.253 1.27569 -3.76579 0
M  V30 9413 N 894.251 1.57596 -0.0117121 0
M  V30 9414 C 895.499 1.90694 0.669342 0
M  V30 9415 C 895.82 0.886999 1.73659 0
M  V30 9416 O 895.09 -0.0739779 1.9576 0
M  V30 9417 H 893.67 0.703846 0.250219 0
M  V30 9418 H 896.332 1.94821 -0.0554057 0
M  V30 9419 H 895.428 2.90802 1.13316 0
M  V30 9420 N 895.729 -0.261212 1.5542 0
M  V30 9421 C 896.957 -1.00916 1.8062 0
M  V30 9422 C 897.372 -1.79494 0.585444 0
M  V30 9423 O 896.729 -1.76974 -0.445702 0
M  V30 9424 C 896.78 -1.95841 3.03856 0
M  V30 9425 O 896.501 -1.20445 4.21218 0
M  V30 9426 C 898.002 -2.82352 3.41749 0
M  V30 9427 H 895.222 -0.297596 0.601397 0
M  V30 9428 H 897.766 -0.288427 2.02456 0
M  V30 9429 H 895.921 -2.63361 2.84112 0
M  V30 9430 H 896.335 -1.84528 4.90968 0
M  V30 9431 H 897.809 -3.44733 4.31118 0
M  V30 9432 H 898.286 -3.5273 2.61683 0
M  V30 9433 H 898.892 -2.20306 3.63793 0
M  V30 9434 N 897.207 -1.48554 -0.526253 0
M  V30 9435 C 898.432 -1.60686 -1.31129 0
M  V30 9436 C 898.857 -0.268701 -1.86171 0
M  V30 9437 O 898.215 0.760167 -1.64594 0
M  V30 9438 C 898.263 -2.65938 -2.43536 0
M  V30 9439 O 897.367 -2.23356 -3.46678 0
M  V30 9440 H 896.708 -0.538691 -0.388211 0
M  V30 9441 H 899.238 -1.94567 -0.632826 0
M  V30 9442 H 899.248 -2.87327 -2.89668 0
M  V30 9443 H 897.923 -3.63085 -2.02835 0
M  V30 9444 H 896.5 -2.12196 -3.06639 0
M  V30 9445 N 898.685 0.775411 -1.37205 0
M  V30 9446 C 899.632 1.88857 -1.32671 0
M  V30 9447 C 900.602 1.64976 -0.192899 0
M  V30 9448 O 901.787 1.86944 -0.381673 0
M  V30 9449 C 898.927 3.25871 -1.13588 0
M  V30 9450 C 898.04 3.61731 -2.36167 0
M  V30 9451 C 897.175 4.87934 -2.09985 0
M  V30 9452 C 896.214 5.16514 -3.2845 0
M  V30 9453 N 895.351 6.33905 -3.01842 0
M  V30 9454 H 900.191 1.92068 -2.27846 0
M  V30 9455 H 897.728 0.939066 -1.13225 0
M  V30 9456 H 899.686 4.04903 -1.00546 0
M  V30 9457 H 898.316 3.22045 -0.220613 0
M  V30 9458 H 897.368 2.77712 -2.59962 0
M  V30 9459 H 898.68 3.78792 -3.24528 0
M  V30 9460 H 897.834 5.74863 -1.93953 0
M  V30 9461 H 896.573 4.7297 -1.18956 0
M  V30 9462 H 895.578 4.28063 -3.45025 0
M  V30 9463 H 896.803 5.33389 -4.20325 0
M  V30 9464 H 894.749 6.20306 -2.13439 0
M  V30 9465 H 894.666 6.51364 -3.83746 0
M  V30 9466 H 895.934 7.23779 -2.8942 0
M  V30 9467 N 900.163 1.21714 1.00117 0
M  V30 9468 C 901.409 1.04829 1.74306 0
M  V30 9469 C 901.764 -0.413387 1.87907 0
M  V30 9470 O 901.057 -1.30258 1.40512 0
M  V30 9471 C 901.251 1.68345 3.15269 0
M  V30 9472 C 901.08 3.20537 3.15414 0
M  V30 9473 C 899.85 3.896 3.21776 0
M  V30 9474 C 902.048 4.17576 3.00224 0
M  V30 9475 N 900.03 5.28949 3.11587 0
M  V30 9476 C 901.401 5.43701 2.97974 0
M  V30 9477 C 903.456 4.08575 2.84554 0
M  V30 9478 C 902.159 6.61861 2.8166 0
M  V30 9479 C 904.185 5.26375 2.69598 0
M  V30 9480 C 903.547 6.51414 2.68028 0
M  V30 9481 H 899.646 0.437964 0.647852 0
M  V30 9482 H 902.23 1.54128 1.18965 0
M  V30 9483 H 900.401 1.21607 3.68872 0
M  V30 9484 H 902.133 1.44629 3.77974 0
M  V30 9485 H 898.888 3.40548 3.29126 0
M  V30 9486 H 899.312 6.01945 3.09825 0
M  V30 9487 H 903.954 3.12696 2.84571 0
M  V30 9488 H 901.672 7.57896 2.8039 0
M  V30 9489 H 905.258 5.21235 2.58468 0
M  V30 9490 H 904.138 7.41033 2.56593 0
M  V30 9491 N 901.641 -1.19671 1.02551 0
M  V30 9492 C 902.866 -1.93774 0.739363 0
M  V30 9493 C 903.291 -1.74787 -0.695064 0
M  V30 9494 O 902.649 -1.04796 -1.47944 0
M  V30 9495 C 902.697 -3.43684 1.09149 0
M  V30 9496 O 901.801 -4.11874 0.208213 0
M  V30 9497 H 901.142 -0.605064 0.273484 0
M  V30 9498 H 903.672 -1.51846 1.37128 0
M  V30 9499 H 903.682 -3.94339 1.04695 0
M  V30 9500 H 902.357 -3.56826 2.13654 0
M  V30 9501 H 900.934 -3.716 0.311045 0
M  V30 9502 N 903.119 -0.802921 -1.35613 0
M  V30 9503 C 904.082 -0.216422 -2.28176 0
M  V30 9504 C 905.082 0.594101 -1.49422 0
M  V30 9505 O 906.272 0.41312 -1.6923 0
M  V30 9506 C 903.404 0.698746 -3.33662 0
M  V30 9507 H 904.597 -1.03276 -2.81557 0
M  V30 9508 H 902.15 -0.573307 -1.45406 0
M  V30 9509 H 902.885 1.53891 -2.85461 0
M  V30 9510 H 902.67 0.119314 -3.91918 0
M  V30 9511 H 904.16 1.10354 -4.02755 0
M  V30 9512 N 904.597 1.47463 -0.556102 0
M  V30 9513 C 905.544 2.29998 0.192213 0
M  V30 9514 C 906.514 1.38993 0.909403 0
M  V30 9515 O 907.699 1.67954 0.905316 0
M  V30 9516 C 904.839 3.22932 1.21692 0
M  V30 9517 C 903.952 4.29027 0.505908 0
M  V30 9518 C 903.087 5.09114 1.51581 0
M  V30 9519 C 902.126 6.06984 0.789714 0
M  V30 9520 N 901.263 6.80033 1.74639 0
M  V30 9521 H 906.103 2.93468 -0.517734 0
M  V30 9522 H 903.64 1.44654 -0.267147 0
M  V30 9523 H 905.598 3.75234 1.8236 0
M  V30 9524 H 904.228 2.61329 1.89491 0
M  V30 9525 H 903.28 3.7979 -0.215276 0
M  V30 9526 H 904.592 4.9876 -0.062958 0
M  V30 9527 H 903.746 5.6556 2.19606 0
M  V30 9528 H 902.485 4.3928 2.11859 0
M  V30 9529 H 901.49 5.49717 0.0955382 0
M  V30 9530 H 902.715 6.78827 0.192688 0
M  V30 9531 H 900.661 6.12931 2.33777 0
M  V30 9532 H 900.578 7.45933 1.22965 0
M  V30 9533 H 901.846 7.41054 2.41782 0
M  V30 9534 N 906.075 0.2925 1.54862 0
M  V30 9535 C 907.324 -0.319994 1.99146 0
M  V30 9536 C 907.637 -1.55658 1.18448 0
M  V30 9537 O 908.843 -2.24312 1.52959 0
M  V30 9538 C 907.299 -0.620665 3.54508 0
M  V30 9539 C 906.907 0.597098 4.44003 0
M  V30 9540 C 908.651 -1.19482 4.07338 0
M  V30 9541 C 906.558 0.270049 5.90783 0
M  V30 9542 H 905.488 -0.123342 0.743843 0
M  V30 9543 H 908.139 0.399876 1.7909 0
M  V30 9544 H 906.521 -1.3999 3.7043 0
M  V30 9545 H 907.695 1.37354 4.39853 0
M  V30 9546 H 906.01 1.0893 4.019 0
M  V30 9547 H 908.607 -1.45362 5.14562 0
M  V30 9548 H 908.95 -2.13435 3.57423 0
M  V30 9549 H 909.483 -0.477485 3.94924 0
M  V30 9550 H 906.222 1.17791 6.4483 0
M  V30 9551 H 905.742 -0.469292 5.97961 0
M  V30 9552 H 907.421 -0.131471 6.46866 0
M  V30 9553 N 907.553 -1.57587 0.0200696 0
M  V30 9554 C 908.781 -1.95718 -0.670964 0
M  V30 9555 C 909.196 -0.896081 -1.6618 0
M  V30 9556 O 908.553 0.123037 -1.82085 0
M  V30 9557 C 908.604 -3.33904 -1.38529 0
M  V30 9558 O 908.325 -4.35943 -0.434167 0
M  V30 9559 C 909.826 -3.86614 -2.16898 0
M  V30 9560 H 907.046 -0.644819 -0.185606 0
M  V30 9561 H 909.59 -2.04354 0.0771495 0
M  V30 9562 H 907.745 -3.26515 -2.08487 0
M  V30 9563 H 908.159 -5.16001 -0.940378 0
M  V30 9564 H 909.633 -4.85673 -2.62346 0
M  V30 9565 H 910.11 -3.20379 -3.00423 0
M  V30 9566 H 910.716 -3.97243 -1.51916 0
M  V30 9567 N 909.032 0.252966 -1.55557 0
M  V30 9568 C 910.281 0.979736 -1.76307 0
M  V30 9569 C 910.594 1.86714 -0.582871 0
M  V30 9570 O 911.8 2.6302 -0.673247 0
M  V30 9571 C 910.256 1.79205 -3.12112 0
M  V30 9572 C 909.864 0.952333 -4.37761 0
M  V30 9573 C 911.608 2.51191 -3.42203 0
M  V30 9574 C 909.515 1.76018 -5.64599 0
M  V30 9575 H 908.445 0.369538 -0.657235 0
M  V30 9576 H 911.096 0.234619 -1.81994 0
M  V30 9577 H 909.478 2.57888 -3.00515 0
M  V30 9578 H 910.652 0.208251 -4.60329 0
M  V30 9579 H 908.967 0.346082 -4.14959 0
M  V30 9580 H 911.564 3.12074 -4.34182 0
M  V30 9581 H 911.907 3.22499 -2.63249 0
M  V30 9582 H 912.44 1.79523 -3.54988 0
M  V30 9583 H 909.179 1.09095 -6.46358 0
M  V30 9584 H 908.699 2.4797 -5.46142 0
M  V30 9585 H 910.378 2.32884 -6.03634 0
M  V30 9586 N 910.51 1.48831 0.518367 0
M  V30 9587 C 911.738 1.6112 1.298 0
M  V30 9588 C 912.153 0.275872 1.86774 0
M  V30 9589 O 911.51 -0.736416 1.66983 0
M  V30 9590 C 911.561 2.66675 2.44063 0
M  V30 9591 O 911.282 3.95027 1.89434 0
M  V30 9592 C 912.783 2.8951 3.35706 0
M  V30 9593 H 910.003 0.542916 0.394314 0
M  V30 9594 H 912.547 1.94743 0.624142 0
M  V30 9595 H 910.702 2.35879 3.07311 0
M  V30 9596 H 911.116 4.53031 2.64316 0
M  V30 9597 H 912.59 3.67142 4.12202 0
M  V30 9598 H 913.067 1.98768 3.91648 0
M  V30 9599 H 913.673 3.21656 2.7824 0
M  V30 9600 N 911.988 -0.768124 1.37614 0
M  V30 9601 C 913.234 -1.52907 1.33219 0
M  V30 9602 C 913.567 -1.94026 -0.0821218 0
M  V30 9603 O 912.842 -1.64345 -1.04023 0
M  V30 9604 C 913.125 -2.79164 2.27463 0
M  V30 9605 C 912.978 -2.44276 3.7769 0
M  V30 9606 C 914.297 -3.81115 2.20089 0
M  V30 9607 H 911.416 -0.554712 0.485246 0
M  V30 9608 H 914.058 -0.880911 1.68345 0
M  V30 9609 H 912.208 -3.34472 1.97639 0
M  V30 9610 H 913.88 -1.94855 4.18126 0
M  V30 9611 H 912.123 -1.76925 3.96081 0
M  V30 9612 H 912.794 -3.34544 4.39072 0
M  V30 9613 H 915.27 -3.35311 2.46386 0
M  V30 9614 H 914.146 -4.67174 2.88166 0
M  V30 9615 H 914.407 -4.25644 1.19498 0
M  V30 9616 N 913.466 -1.22244 -0.994698 0
M  V30 9617 C 914.712 -1.04746 -1.73655 0
M  V30 9618 C 915.045 0.41668 -1.89677 0
M  V30 9619 O 914.32 1.30897 -1.43862 0
M  V30 9620 C 914.603 -1.75716 -3.14318 0
M  V30 9621 C 914.456 -3.29714 -3.05955 0
M  V30 9622 C 915.775 -1.50809 -4.13455 0
M  V30 9623 H 912.894 -0.381921 -0.630322 0
M  V30 9624 H 915.536 -1.50559 -1.15897 0
M  V30 9625 H 913.686 -1.3677 -3.63629 0
M  V30 9626 H 915.358 -3.78093 -2.64279 0
M  V30 9627 H 913.601 -3.59484 -2.42804 0
M  V30 9628 H 914.272 -3.74547 -4.05485 0
M  V30 9629 H 916.748 -1.84636 -3.72892 0
M  V30 9630 H 915.624 -2.02964 -5.09997 0
M  V30 9631 H 915.885 -0.440292 -4.39902 0
M  V30 9632 N 914.944 1.19125 -1.03184 0
M  V30 9633 C 916.184 1.90582 -0.738785 0
M  V30 9634 C 916.548 1.78004 0.719627 0
M  V30 9635 O 917.749 2.44084 1.12589 0
M  V30 9636 C 916.02 3.37319 -1.18114 0
M  V30 9637 S 917.579 4.26962 -1.01238 0
M  V30 9638 H 914.397 0.6582 -0.268875 0
M  V30 9639 H 916.999 1.43999 -1.32229 0
M  V30 9640 H 915.703 3.43999 -2.23814 0
M  V30 9641 H 915.234 3.88935 -0.591051 0
M  V30 9642 H 917.249 4.96143 0.0753558 0
M  V30 9643 N 916.422 0.810101 1.35185 0
M  V30 9644 C 917.385 0.22852 2.28058 0
M  V30 9645 C 918.385 -0.586168 1.49735 0
M  V30 9646 O 919.575 -0.40414 1.69447 0
M  V30 9647 C 916.707 -0.681041 3.34028 0
M  V30 9648 H 917.9 1.04768 2.81005 0
M  V30 9649 H 915.453 0.58101 1.451 0
M  V30 9650 H 916.188 -1.52375 2.86273 0
M  V30 9651 H 915.973 -0.0985276 3.91976 0
M  V30 9652 H 917.463 -1.08217 4.03335 0
M  V30 9653 N 917.9 -1.47166 0.563914 0
M  V30 9654 C 918.832 -2.28165 -0.217583 0
M  V30 9655 C 919.845 -1.37405 -0.873134 0
M  V30 9656 O 921.034 -1.6217 -0.745857 0
M  V30 9657 C 918.134 -3.11873 -1.32621 0
M  V30 9658 C 917.307 -4.30637 -0.766177 0
M  V30 9659 C 916.366 -4.95889 -1.76014 0
M  V30 9660 O 915.392 -5.54071 -1.3036 0
M  V30 9661 N 916.594 -4.91191 -3.09373 0
M  V30 9662 H 919.359 -2.95876 0.477256 0
M  V30 9663 H 916.92 -1.5687 0.40043 0
M  V30 9664 H 918.912 -3.52392 -1.99003 0
M  V30 9665 H 917.482 -2.46361 -1.92419 0
M  V30 9666 H 916.702 -3.94129 0.0745998 0
M  V30 9667 H 917.99 -5.07442 -0.371472 0
M  V30 9668 H 917.388 -4.45133 -3.49104 0
M  V30 9669 H 915.945 -5.35708 -3.71295 0
M  V30 9670 N 919.378 -0.300708 -1.54705 0
M  V30 9671 C 920.626 0.308044 -1.99739 0
M  V30 9672 C 920.947 1.54433 -1.19061 0
M  V30 9673 O 920.217 1.93794 -0.286507 0
M  V30 9674 H 918.797 0.116811 -0.73781 0
M  V30 9675 H 921.459 -0.41197 -1.90496 0
M  V30 9676 H 920.555 0.580287 -3.06658 0
M  V30 9677 N 920.856 1.57574 -0.0284266 0
M  V30 9678 C 921.786 2.1321 0.952039 0
M  V30 9679 C 922.767 1.04806 1.33977 0
M  V30 9680 O 923.952 1.32635 1.41851 0
M  V30 9681 C 921.082 2.65862 2.23461 0
M  V30 9682 C 920.036 3.79047 1.98765 0
M  V30 9683 C 919.362 4.18124 3.33281 0
M  V30 9684 C 920.662 5.05151 1.32739 0
M  V30 9685 H 922.356 2.95385 0.488705 0
M  V30 9686 H 919.902 1.42092 0.233628 0
M  V30 9687 H 921.855 3.03417 2.92431 0
M  V30 9688 H 920.579 1.80848 2.71959 0
M  V30 9689 H 919.238 3.41929 1.32213 0
M  V30 9690 H 918.886 3.30092 3.79537 0
M  V30 9691 H 918.586 4.94396 3.17563 0
M  V30 9692 H 920.11 4.58262 4.0352 0
M  V30 9693 H 921.524 5.40297 1.91708 0
M  V30 9694 H 919.921 5.86416 1.27421 0
M  V30 9695 H 920.991 4.83969 0.300261 0
M  V30 9696 N 922.334 -0.244713 1.55689 0
M  V30 9697 C 923.266 -1.32595 1.86952 0
M  V30 9698 C 924.279 -1.44185 0.755948 0
M  V30 9699 O 925.468 -1.45496 1.03408 0
M  V30 9700 C 922.568 -2.70429 2.04258 0
M  V30 9701 C 921.741 -2.8108 3.35131 0
M  V30 9702 C 920.8 -3.99773 3.42152 0
M  V30 9703 O 919.826 -3.89197 4.15348 0
M  V30 9704 N 921.028 -5.13041 2.71604 0
M  V30 9705 H 923.793 -1.06111 2.80287 0
M  V30 9706 H 921.354 -0.434811 1.55952 0
M  V30 9707 H 923.346 -3.48173 2.06295 0
M  V30 9708 H 921.916 -2.89612 1.17658 0
M  V30 9709 H 921.136 -1.89994 3.45392 0
M  V30 9710 H 922.424 -2.85147 4.21389 0
M  V30 9711 H 921.822 -5.24525 2.11872 0
M  V30 9712 H 920.379 -5.88912 2.79331 0
M  V30 9713 N 923.813 -1.49104 -0.510467 0
M  V30 9714 C 924.776 -1.64569 -1.59529 0
M  V30 9715 C 925.776 -0.517937 -1.5223 0
M  V30 9716 O 926.966 -0.784183 -1.55551 0
M  V30 9717 C 924.098 -1.6342 -2.99177 0
M  V30 9718 H 925.291 -2.61318 -1.4715 0
M  V30 9719 H 922.844 -1.37993 -0.734001 0
M  V30 9720 H 923.579 -0.68221 -3.17043 0
M  V30 9721 H 923.364 -2.45312 -3.05883 0
M  V30 9722 H 924.854 -1.77474 -3.78011 0
M  V30 9723 N 925.291 0.760815 -1.38019 0
M  V30 9724 C 926.238 1.8744 -1.34666 0
M  V30 9725 C 927.208 1.64762 -0.210386 0
M  V30 9726 O 928.393 1.86528 -0.401479 0
M  V30 9727 C 925.533 3.24648 -1.17037 0
M  V30 9728 C 924.646 3.59206 -2.3999 0
M  V30 9729 C 923.781 4.8568 -2.15148 0
M  V30 9730 C 922.82 5.13002 -3.3391 0
M  V30 9731 N 921.957 6.30668 -3.08549 0
M  V30 9732 H 926.797 1.8964 -2.29871 0
M  V30 9733 H 924.334 0.927004 -1.14215 0
M  V30 9734 H 926.292 4.03814 -1.04834 0
M  V30 9735 H 924.922 3.21793 -0.254758 0
M  V30 9736 H 923.974 2.74939 -2.62893 0
M  V30 9737 H 925.286 3.75328 -3.28527 0
M  V30 9738 H 924.44 5.72773 -2.00039 0
M  V30 9739 H 923.179 4.71682 -1.23965 0
M  V30 9740 H 922.184 4.2438 -3.49545 0
M  V30 9741 H 923.409 5.28901 -4.25958 0
M  V30 9742 H 921.355 6.18008 -2.20006 0
M  V30 9743 H 921.272 6.47257 -3.90633 0
M  V30 9744 H 922.54 7.20669 -2.9708 0
M  V30 9745 N 926.769 1.22769 0.988202 0
M  V30 9746 C 928.046 0.9635 1.70223 0
M  V30 9747 C 928.426 -0.520102 2.04593 0
M  V30 9748 O 927.774 -1.48934 1.73295 0
M  V30 9749 C 927.984 1.86583 2.94937 0
M  V30 9750 C 929.332 2.12469 3.67616 0
M  V30 9751 O 930.356 1.84069 3.04954 0
M  V30 9752 O 929.215 2.60595 4.80367 0
M  V30 9753 H 926.309 0.362737 0.743203 0
M  V30 9754 H 928.855 1.33776 1.04412 0
M  V30 9755 H 927.627 2.86913 2.66077 0
M  V30 9756 H 927.25 1.49344 3.68486 0
M  V30 9757 N 928.247 -1.18576 1.03814 0
M  V30 9758 C 929.194 -2.2212 0.626988 0
M  V30 9759 C 930.164 -1.62064 -0.363912 0
M  V30 9760 O 931.349 -1.89041 -0.258469 0
M  V30 9761 C 928.489 -3.45099 -0.00650133 0
M  V30 9762 C 927.602 -4.19503 1.03156 0
M  V30 9763 C 926.737 -5.29932 0.366852 0
M  V30 9764 C 925.776 -5.96104 1.39018 0
M  V30 9765 N 924.913 -6.98076 0.750625 0
M  V30 9766 H 929.753 -2.56646 1.51449 0
M  V30 9767 H 927.29 -1.26084 0.757702 0
M  V30 9768 H 929.248 -4.15363 -0.391108 0
M  V30 9769 H 927.878 -3.11201 -0.857536 0
M  V30 9770 H 926.93 -3.48092 1.53414 0
M  V30 9771 H 928.242 -4.64843 1.80893 0
M  V30 9772 H 927.396 -6.06657 -0.0720979 0
M  V30 9773 H 926.135 -4.85687 -0.442631 0
M  V30 9774 H 925.14 -5.18122 1.8393 0
M  V30 9775 H 926.365 -6.42432 2.20132 0
M  V30 9776 H 924.311 -6.55989 -0.0385981 0
M  V30 9777 H 924.228 -7.41655 1.46574 0
M  V30 9778 H 925.496 -7.78776 0.335986 0
M  V30 9779 N 929.725 -0.817259 -1.34754 0
M  V30 9780 C 930.953 -0.415451 -2.02686 0
M  V30 9781 C 931.368 0.97688 -1.61563 0
M  V30 9782 O 930.725 1.63125 -0.818321 0
M  V30 9783 C 930.776 -0.501486 -3.58005 0
M  V30 9784 O 930.497 -1.83893 -3.97637 0
M  V30 9785 C 931.998 -0.0938504 -4.43201 0
M  V30 9786 H 929.218 -0.16742 -0.649778 0
M  V30 9787 H 931.762 -1.10384 -1.7215 0
M  V30 9788 H 929.917 0.138766 -3.87151 0
M  V30 9789 H 930.331 -1.8092 -4.92309 0
M  V30 9790 H 931.805 -0.205145 -5.51619 0
M  V30 9791 H 932.282 0.962011 -4.28535 0
M  V30 9792 H 932.888 -0.707677 -4.19371 0
M  V30 9793 N 931.203 1.46865 -0.571711 0
M  V30 9794 C 932.451 2.0203 -0.0530022 0
M  V30 9795 C 932.772 1.44687 1.30731 0
M  V30 9796 O 932.042 0.627429 1.85581 0
M  V30 9797 H 930.622 0.746815 -0.0166035 0
M  V30 9798 H 933.284 1.80099 -0.745003 0
M  V30 9799 H 932.38 3.12091 0.0242538 0
M  V30 9800 N 932.681 0.308908 1.54543 0
M  V30 9801 C 933.906 -0.303196 2.05172 0
M  V30 9802 C 934.331 -1.46133 1.18434 0
M  V30 9803 O 933.689 -1.803 0.190162 0
M  V30 9804 C 933.737 -0.729526 3.53143 0
M  V30 9805 O 932.841 -1.83348 3.69401 0
M  V30 9806 H 932.182 -0.0575066 0.661505 0
M  V30 9807 H 934.712 0.453055 1.99521 0
M  V30 9808 H 934.722 -1.01619 3.95143 0
M  V30 9809 H 933.397 0.117622 4.15734 0
M  V30 9810 H 931.974 -1.54676 3.39308 0
M  V30 9811 N 934.159 -1.57557 0.0367827 0
M  V30 9812 C 935.384 -1.96828 -0.653707 0
M  V30 9813 C 935.809 -0.913559 -1.64425 0
M  V30 9814 O 935.167 0.124749 -1.8087 0
M  V30 9815 C 935.215 -3.35189 -1.32969 0
M  V30 9816 O 934.319 -3.32095 -2.44513 0
M  V30 9817 H 933.66 -0.64157 -0.171124 0
M  V30 9818 H 936.19 -2.04351 0.100912 0
M  V30 9819 H 936.2 -3.71593 -1.68472 0
M  V30 9820 H 934.875 -4.11496 -0.603654 0
M  V30 9821 H 933.452 -3.07418 -2.11065 0
M  V30 9822 N 935.637 0.236453 -1.55816 0
M  V30 9823 C 936.914 0.986463 -1.68903 0
M  V30 9824 C 937.294 2.02984 -0.579722 0
M  V30 9825 O 936.642 2.24693 0.415389 0
M  V30 9826 C 936.852 1.61038 -3.09625 0
M  V30 9827 C 938.2 2.10829 -3.6856 0
M  V30 9828 O 939.224 1.7096 -3.12492 0
M  V30 9829 O 938.083 2.84064 -4.66873 0
M  V30 9830 H 935.177 0.459837 -0.687371 0
M  V30 9831 H 937.723 0.229412 -1.68142 0
M  V30 9832 H 936.495 0.856232 -3.81817 0
M  V30 9833 H 936.118 2.43336 -3.14441 0
M  V30 9834 N 937.115 1.49373 0.502552 0
M  V30 9835 C 938.526 1.52 1.0841 0
M  V30 9836 C 938.877 0.305317 1.9381 0
M  V30 9837 O 938.002 -0.585023 2.08342 0
M  V30 9838 C 938.597 2.75437 1.97281 0
M  V30 9839 C 937.156 2.80848 2.50602 0
M  V30 9840 C 936.303 2.45894 1.28186 0
M  V30 9841 H 939.254 1.56092 0.286533 0
M  V30 9842 H 939.275 2.55511 2.81947 0
M  V30 9843 H 938.787 3.63827 1.35098 0
M  V30 9844 H 936.888 1.96735 3.16427 0
M  V30 9845 H 937.001 3.82979 2.8786 0
M  V30 9846 H 935.365 1.97639 1.60657 0
M  V30 9847 H 936.148 3.36556 0.677139 0
M  V30 9848 N 938.594 -0.753485 1.38421 0
M  V30 9849 C 939.824 -1.54049 1.37669 0
M  V30 9850 C 940.232 -1.89167 -0.0353656 0
M  V30 9851 O 939.575 -1.53285 -1.01239 0
M  V30 9852 C 939.637 -2.86777 2.16793 0
M  V30 9853 C 939.301 -2.74196 3.65603 0
M  V30 9854 C 940.298 -2.43985 4.59094 0
M  V30 9855 C 937.983 -2.91645 4.0896 0
M  V30 9856 C 939.977 -2.31379 5.93921 0
M  V30 9857 C 937.664 -2.78658 5.43868 0
M  V30 9858 C 938.662 -2.48568 6.36163 0
M  V30 9859 O 938.35 -2.3564 7.68589 0
M  V30 9860 H 938.082 -0.483276 0.472673 0
M  V30 9861 H 940.636 -0.940267 1.82615 0
M  V30 9862 H 938.866 -3.48988 1.66565 0
M  V30 9863 H 940.555 -3.48289 2.08446 0
M  V30 9864 H 941.321 -2.30172 4.26902 0
M  V30 9865 H 937.2 -3.14063 3.37469 0
M  V30 9866 H 940.744 -2.07813 6.65927 0
M  V30 9867 H 936.641 -2.92044 5.75656 0
M  V30 9868 H 937.409 -2.50851 7.79112 0
M  V30 9869 N 940.072 -1.23292 -0.981677 0
M  V30 9870 C 941.318 -1.06582 -1.72535 0
M  V30 9871 C 941.651 0.396538 -1.90108 0
M  V30 9872 O 940.926 1.29363 -1.45243 0
M  V30 9873 C 941.209 -1.7904 -3.12437 0
M  V30 9874 C 941.062 -3.32941 -3.02441 0
M  V30 9875 C 942.381 -1.55185 -4.11832 0
M  V30 9876 H 939.5 -0.388585 -0.626236 0
M  V30 9877 H 942.142 -1.51779 -1.14293 0
M  V30 9878 H 940.292 -1.40619 -3.62158 0
M  V30 9879 H 941.964 -3.80875 -2.60254 0
M  V30 9880 H 940.207 -3.62039 -2.38977 0
M  V30 9881 H 940.878 -3.78827 -4.0149 0
M  V30 9882 H 943.354 -1.88581 -3.70913 0
M  V30 9883 H 942.23 -2.08362 -5.07815 0
M  V30 9884 H 942.491 -0.486925 -4.3941 0
M  V30 9885 N 941.55 1.18024 -1.04442 0
M  V30 9886 C 942.778 1.92032 -0.770161 0
M  V30 9887 C 943.193 1.76391 0.673181 0
M  V30 9888 O 942.55 1.09604 1.45922 0
M  V30 9889 C 942.601 3.43328 -1.13173 0
M  V30 9890 O 942.322 3.5848 -2.51841 0
M  V30 9891 C 943.823 4.34427 -0.882523 0
M  V30 9892 H 941.043 0.609518 -0.280586 0
M  V30 9893 H 943.587 1.49711 -1.39308 0
M  V30 9894 H 941.742 3.83423 -0.553704 0
M  V30 9895 H 942.156 4.52166 -2.65794 0
M  V30 9896 H 943.63 5.39123 -1.18533 0
M  V30 9897 H 944.107 4.3882 0.18257 0
M  V30 9898 H 944.713 4.00035 -1.44403 0
M  V30 9899 N 943.028 0.824394 1.34319 0
M  V30 9900 C 944.274 0.413779 1.98534 0
M  V30 9901 C 944.607 -1.02089 1.65201 0
M  V30 9902 O 943.882 -1.71129 0.924402 0
M  V30 9903 C 944.165 0.61801 3.54757 0
M  V30 9904 C 944.018 2.0989 3.97827 0
M  V30 9905 C 945.337 0.0549041 4.40066 0
M  V30 9906 H 942.456 0.151815 0.721194 0
M  V30 9907 H 945.098 1.03723 1.5919 0
M  V30 9908 H 943.248 0.0873107 3.88402 0
M  V30 9909 H 944.92 2.69335 3.74508 0
M  V30 9910 H 943.163 2.58881 3.48085 0
M  V30 9911 H 943.834 2.1926 5.06586 0
M  V30 9912 H 946.31 0.508348 4.12983 0
M  V30 9913 H 945.186 0.227595 5.48428 0
M  V30 9914 H 945.447 -1.04025 4.29687 0
M  V30 9915 N 944.506 -1.46559 0.579492 0
M  V30 9916 C 945.438 -2.28383 -0.19337 0
M  V30 9917 C 946.451 -1.38324 -0.858511 0
M  V30 9918 O 947.64 -1.62952 -0.728615 0
M  V30 9919 C 944.74 -3.13262 -1.29306 0
M  V30 9920 C 943.913 -4.31426 -0.720459 0
M  V30 9921 C 942.972 -4.97728 -1.70744 0
M  V30 9922 O 941.998 -5.55423 -1.24476 0
M  V30 9923 N 943.2 -4.94445 -3.04146 0
M  V30 9924 H 945.965 -2.95353 0.508611 0
M  V30 9925 H 943.526 -1.56436 0.417046 0
M  V30 9926 H 945.518 -3.54483 -1.95254 0
M  V30 9927 H 944.088 -2.48388 -1.89795 0
M  V30 9928 H 943.308 -3.94028 0.116398 0
M  V30 9929 H 944.596 -5.07808 -0.31763 0
M  V30 9930 H 943.994 -4.4881 -3.44363 0
M  V30 9931 H 942.551 -5.39616 -3.65592 0
M  V30 9932 N 945.984 -0.3171 -1.54377 0
M  V30 9933 C 947.23 0.287836 -2.00747 0
M  V30 9934 C 947.563 1.52292 -1.20502 0
M  V30 9935 O 946.838 1.92391 -0.285626 0
M  V30 9936 C 947.121 0.628423 -3.54574 0
M  V30 9937 C 946.974 -0.616922 -4.45549 0
M  V30 9938 C 948.293 1.44862 -4.15575 0
M  V30 9939 H 945.412 0.103144 -0.729747 0
M  V30 9940 H 948.054 -0.432396 -1.85014 0
M  V30 9941 H 946.204 1.24203 -3.68111 0
M  V30 9942 H 947.876 -1.25526 -4.43893 0
M  V30 9943 H 946.119 -1.24706 -4.15489 0
M  V30 9944 H 946.79 -0.334243 -5.50987 0
M  V30 9945 H 949.266 0.930015 -4.05574 0
M  V30 9946 H 948.142 1.6557 -5.23333 0
M  V30 9947 H 948.403 2.44279 -3.68484 0
M  V30 9948 N 947.462 1.57535 -0.0451378 0
M  V30 9949 C 948.71 1.92071 0.628743 0
M  V30 9950 C 949.031 0.923635 1.71738 0
M  V30 9951 O 948.301 -0.0324376 1.95873 0
M  V30 9952 H 946.881 0.708995 0.235233 0
M  V30 9953 H 949.543 1.9466 -0.0967177 0
M  V30 9954 H 948.639 2.9314 1.07123 0
M  V30 9955 N 948.94 -0.228186 1.55939 0
M  V30 9956 C 949.887 -1.28274 1.91871 0
M  V30 9957 C 950.857 -1.46906 0.775103 0
M  V30 9958 O 952.042 -1.60583 1.03042 0
M  V30 9959 C 949.182 -2.62945 2.23504 0
M  V30 9960 C 948.295 -2.52166 3.50766 0
M  V30 9961 C 947.43 -3.79316 3.71878 0
M  V30 9962 C 946.469 -3.63231 4.92676 0
M  V30 9963 N 945.606 -4.82315 5.10212 0
M  V30 9964 H 950.446 -0.96931 2.81795 0
M  V30 9965 H 947.983 -0.467331 1.39479 0
M  V30 9966 H 949.941 -3.41359 2.39854 0
M  V30 9967 H 948.571 -2.92397 1.36762 0
M  V30 9968 H 947.623 -1.65221 3.42646 0
M  V30 9969 H 948.935 -2.36199 4.39331 0
M  V30 9970 H 948.089 -4.66173 3.88288 0
M  V30 9971 H 946.828 -3.982 2.81581 0
M  V30 9972 H 945.833 -2.74757 4.76223 0
M  V30 9973 H 947.058 -3.45823 5.84451 0
M  V30 9974 H 945.004 -5.01526 4.22856 0
M  V30 9975 H 944.921 -4.6905 5.92898 0
M  V30 9976 H 946.189 -5.70618 5.31051 0
M  V30 9977 N 950.418 -1.49637 -0.494624 0
M  V30 9978 C 951.646 -1.63164 -1.2722 0
M  V30 9979 C 952.061 -0.305552 -1.86311 0
M  V30 9980 O 951.418 0.709758 -1.68133 0
M  V30 9981 C 951.469 -2.70524 -2.39789 0
M  V30 9982 O 951.19 -3.97991 -1.83126 0
M  V30 9983 C 952.691 -2.94814 -3.31058 0
M  V30 9984 H 949.911 -0.54912 -0.385627 0
M  V30 9985 H 952.455 -1.95711 -0.593081 0
M  V30 9986 H 950.61 -2.40738 -3.03519 0
M  V30 9987 H 951.024 -4.57179 -2.57075 0
M  V30 9988 H 952.498 -3.73653 -4.06309 0
M  V30 9989 H 952.975 -2.04974 -3.88436 0
M  V30 9990 H 953.581 -3.26042 -2.73088 0
M  V30 9991 N 951.896 0.746133 -1.38819 0
M  V30 9992 C 952.843 1.86001 -1.36647 0
M  V30 9993 C 953.813 1.6453 -0.227849 0
M  V30 9994 O 954.998 1.86092 -0.421241 0
M  V30 9995 C 952.138 3.23388 -1.20474 0
M  V30 9996 C 951.251 3.5664 -2.43786 0
M  V30 9997 C 950.386 4.8337 -2.20287 0
M  V30 9998 C 949.425 5.09431 -3.39332 0
M  V30 9999 N 948.562 6.2736 -3.1522 0
M  V30 10000 H 953.402 1.87192 -2.31869 0
M  V30 10001 H 950.939 0.914838 -1.15192 0
M  V30 10002 H 952.897 4.02679 -1.09112 0
M  V30 10003 H 951.527 3.21505 -0.288874 0
M  V30 10004 H 950.579 2.72135 -2.65794 0
M  V30 10005 H 951.891 3.71823 -3.3249 0
M  V30 10006 H 951.045 5.70619 -2.06103 0
M  V30 10007 H 949.784 4.70341 -1.28961 0
M  V30 10008 H 948.789 4.20648 -3.54027 0
M  V30 10009 H 950.014 5.24354 -4.31544 0
M  V30 10010 H 947.96 6.15639 -2.26549 0
M  V30 10011 H 947.877 6.43078 -3.97476 0
M  V30 10012 H 949.145 7.17477 -3.04707 0
M  V30 10013 N 953.375 1.23811 0.975125 0
M  V30 10014 C 954.322 1.02394 2.06843 0
M  V30 10015 C 955.292 -0.060337 1.6599 0
M  V30 10016 O 956.477 0.0928187 1.90574 0
M  V30 10017 C 953.617 0.626882 3.39359 0
M  V30 10018 C 952.73 1.78385 3.9345 0
M  V30 10019 C 951.865 1.33307 5.14201 0
M  V30 10020 C 950.904 2.46045 5.60471 0
M  V30 10021 N 950.041 2.01888 6.72448 0
M  V30 10022 H 954.881 1.95973 2.24496 0
M  V30 10023 H 952.418 0.976206 1.10039 0
M  V30 10024 H 954.376 0.377742 4.15486 0
M  V30 10025 H 953.006 -0.271907 3.21653 0
M  V30 10026 H 952.058 2.14685 3.14029 0
M  V30 10027 H 953.37 2.63122 4.23755 0
M  V30 10028 H 952.524 1.04237 5.97678 0
M  V30 10029 H 951.263 0.456143 4.85562 0
M  V30 10030 H 950.268 2.75884 4.75571 0
M  V30 10031 H 951.493 3.34283 5.91127 0
M  V30 10032 H 949.439 1.16583 6.45558 0
M  V30 10033 H 949.356 2.80182 7.02164 0
M  V30 10034 H 950.624 1.75937 7.59386 0
M  V30 10035 N 954.853 -1.17469 1.05066 0
M  V30 10036 C 956.269 -1.39699 0.771769 0
M  V30 10037 C 956.469 -1.91253 -0.634382 0
M  V30 10038 O 955.525 -2.10334 -1.39699 0
M  V30 10039 C 956.838 -2.38886 1.82631 0
M  V30 10040 C 958.386 -2.52595 1.84838 0
M  V30 10041 C 958.861 -3.55054 2.89311 0
M  V30 10042 N 960.352 -3.6257 2.88266 0
M  V30 10043 C 961.087 -4.41603 3.65752 0
M  V30 10044 N 960.583 -5.24162 4.53019 0
M  V30 10045 N 962.376 -4.36464 3.54197 0
M  V30 10046 H 954.527 -0.823355 1.95792 0
M  V30 10047 H 956.79 -0.42432 0.847736 0
M  V30 10048 H 956.496 -2.08075 2.83545 0
M  V30 10049 H 956.37 -3.38371 1.66687 0
M  V30 10050 H 958.757 -2.82717 0.845888 0
M  V30 10051 H 958.838 -1.53188 2.04859 0
M  V30 10052 H 958.482 -3.2567 3.89745 0
M  V30 10053 H 958.412 -4.54162 2.66542 0
M  V30 10054 H 960.903 -3.03625 2.24989 0
M  V30 10055 H 961.216 -5.81646 5.0883 0
M  V30 10056 H 959.561 -5.23547 4.57081 0
M  V30 10057 H 962.752 -3.7102 2.85416 0
M  V30 10058 H 962.925 -4.97814 4.14832 0
M  V30 10059 N 956.331 -0.831506 -1.3388 0
M  V30 10060 C 957.559 -0.436925 -2.02234 0
M  V30 10061 C 957.974 0.959689 -1.6259 0
M  V30 10062 O 957.331 1.62248 -0.835576 0
M  V30 10063 C 957.382 -0.539429 -3.57453 0
M  V30 10064 O 957.103 -1.88101 -3.95664 0
M  V30 10065 C 958.604 -0.140852 -4.43076 0
M  V30 10066 H 955.824 -0.174302 -0.647966 0
M  V30 10067 H 958.368 -1.12204 -1.70969 0
M  V30 10068 H 956.523 0.0976959 -3.87277 0
M  V30 10069 H 956.937 -1.86131 -4.90363 0
M  V30 10070 H 958.411 -0.26364 -5.5137 0
M  V30 10071 H 958.888 0.916505 -4.29531 0
M  V30 10072 H 959.494 -0.752117 -4.18597 0
M  V30 10073 N 957.809 1.4625 -0.587256 0
M  V30 10074 C 958.756 2.30354 0.143384 0
M  V30 10075 C 959.726 1.40891 0.879716 0
M  V30 10076 O 960.911 1.69837 0.869486 0
M  V30 10077 C 958.051 3.25441 1.14815 0
M  V30 10078 C 957.164 4.30004 0.414792 0
M  V30 10079 C 956.299 5.12214 1.40748 0
M  V30 10080 C 955.338 6.08523 0.660786 0
M  V30 10081 N 954.475 6.83585 1.60176 0
M  V30 10082 H 959.315 2.92304 -0.579866 0
M  V30 10083 H 956.852 1.44055 -0.29777 0
M  V30 10084 H 958.81 3.79018 1.7436 0
M  V30 10085 H 957.44 2.6529 1.83906 0
M  V30 10086 H 956.492 3.79248 -0.295787 0
M  V30 10087 H 957.804 4.98515 -0.168738 0
M  V30 10088 H 956.958 5.70091 2.0756 0
M  V30 10089 H 955.697 4.43675 2.02494 0
M  V30 10090 H 954.702 5.49796 -0.0210864 0
M  V30 10091 H 955.927 6.79083 0.0486551 0
M  V30 10092 H 953.873 6.17752 2.20724 0
M  V30 10093 H 953.79 7.48373 1.07115 0
M  V30 10094 H 955.058 7.46016 2.26009 0
M  V30 10095 N 959.287 0.325282 1.54207 0
M  V30 10096 C 960.515 -0.27869 2.05014 0
M  V30 10097 C 960.93 -1.45649 1.20133 0
M  V30 10098 O 960.287 -1.81014 0.232398 0
M  V30 10099 C 960.338 -0.711486 3.54429 0
M  V30 10100 O 960.059 0.419458 4.36087 0
M  V30 10101 C 961.56 -1.37809 4.21336 0
M  V30 10102 H 958.78 -0.0570388 0.668571 0
M  V30 10103 H 961.324 0.47197 1.98979 0
M  V30 10104 H 959.479 -1.41212 3.60746 0
M  V30 10105 H 959.893 0.0781037 5.24442 0
M  V30 10106 H 961.367 -1.63184 5.27328 0
M  V30 10107 H 961.844 -2.32593 3.72555 0
M  V30 10108 H 962.45 -0.719987 4.19161 0
M  V30 10109 N 960.765 -1.57509 0.0534917 0
M  V30 10110 C 962.014 -1.91959 -0.619244 0
M  V30 10111 C 962.327 -0.933882 -1.71866 0
M  V30 10112 O 963.533 -1.17052 -2.44972 0
M  V30 10113 C 961.989 -3.40938 -1.15278 0
M  V30 10114 C 961.597 -4.47919 -0.085348 0
M  V30 10115 C 963.341 -3.84419 -1.80063 0
M  V30 10116 C 961.248 -5.88014 -0.631897 0
M  V30 10117 H 960.178 -0.71642 -0.235072 0
M  V30 10118 H 962.829 -1.83089 0.122758 0
M  V30 10119 H 961.211 -3.44821 -1.94717 0
M  V30 10120 H 962.385 -4.55629 0.688374 0
M  V30 10121 H 960.7 -4.13793 0.465178 0
M  V30 10122 H 963.297 -4.86457 -2.21954 0
M  V30 10123 H 963.64 -3.20791 -2.65328 0
M  V30 10124 H 964.173 -3.83062 -1.07275 0
M  V30 10125 H 960.912 -6.55244 0.183175 0
M  V30 10126 H 960.432 -5.83861 -1.37355 0
M  V30 10127 H 962.111 -6.37336 -1.11407 0
M  V30 10128 N 962.243 0.219913 -1.56058 0
M  V30 10129 C 963.49 0.944064 -1.79147 0
M  V30 10130 C 963.818 1.84268 -0.622531 0
M  V30 10131 O 963.073 1.91713 0.393013 0
M  V30 10132 C 963.372 1.81293 -3.08006 0
M  V30 10133 C 963.038 1.0674 -4.38084 0
M  V30 10134 C 961.7 0.86147 -4.73426 0
M  V30 10135 C 964.052 0.541049 -5.18384 0
M  V30 10136 C 961.38 0.117307 -5.86583 0
M  V30 10137 C 963.732 -0.189779 -6.32315 0
M  V30 10138 C 962.396 -0.406951 -6.66258 0
M  V30 10139 H 961.666 0.345458 -0.655546 0
M  V30 10140 H 964.313 0.212121 -1.90322 0
M  V30 10141 H 962.618 2.61278 -2.9196 0
M  V30 10142 H 964.315 2.3754 -3.23072 0
M  V30 10143 H 960.905 1.23789 -4.10334 0
M  V30 10144 H 965.089 0.687617 -4.91514 0
M  V30 10145 H 960.345 -0.0611651 -6.11369 0
M  V30 10146 H 964.519 -0.605134 -6.93766 0
M  V30 10147 H 962.146 -0.985511 -7.53785 0
M  V30 10148 N 963.721 1.49897 0.486681 0
M  V30 10149 C 964.969 1.59789 1.23742 0
M  V30 10150 C 965.29 0.293056 1.92785 0
M  V30 10151 O 964.56 -0.688534 1.83401 0
M  V30 10152 H 963.14 0.588775 0.459731 0
M  V30 10153 H 965.802 1.86597 0.562808 0
M  V30 10154 H 964.898 2.40121 1.9937 0
M  V30 10155 N 965.199 -0.738761 1.39212 0
M  V30 10156 C 966.147 -1.8741 1.3777 0
M  V30 10157 C 967.141 -1.67371 0.261375 0
M  V30 10158 O 968.347 -1.74759 0.431209 0
M  V30 10159 H 964.722 -0.616843 0.430126 0
M  V30 10160 H 966.693 -1.85742 2.33543 0
M  V30 10161 C 965.442 -3.25053 1.23433 0
M  V30 10162 H 964.765 -3.41066 2.086 0
M  V30 10163 H 966.205 -4.04696 1.2648 0
M  V30 10164 C 964.664 -3.36851 -0.0575624 0
M  V30 10165 O 965.194 -3.88293 -1.02915 0
M  V30 10166 N 963.4 -2.90355 -0.119364 0
M  V30 10167 H 962.947 -2.48681 0.671976 0
M  V30 10168 H 962.905 -2.98628 -0.983286 0
M  V30 10169 N 966.677 -1.24326 -0.968545 0
M  V30 10170 C 967.607 -1.05951 -2.08079 0
M  V30 10171 C 968.588 0.0272666 -1.70078 0
M  V30 10172 O 969.773 -0.139644 -1.93697 0
M  V30 10173 C 966.903 -0.662623 -3.4092 0
M  V30 10174 C 965.857 -1.69807 -3.92873 0
M  V30 10175 C 965.183 -1.15628 -5.22048 0
M  V30 10176 C 966.483 -3.09383 -4.20808 0
M  V30 10177 H 968.177 -1.98984 -2.23709 0
M  V30 10178 H 965.723 -0.958112 -1.075 0
M  V30 10179 H 967.676 -0.521071 -4.18166 0
M  V30 10180 H 966.4 0.303399 -3.25188 0
M  V30 10181 H 965.059 -1.82783 -3.17783 0
M  V30 10182 H 964.707 -0.180888 -5.02675 0
M  V30 10183 H 964.407 -1.84822 -5.57776 0
M  V30 10184 H 965.931 -1.02683 -6.01904 0
M  V30 10185 H 967.345 -2.99642 -4.88761 0
M  V30 10186 H 965.742 -3.75923 -4.67763 0
M  V30 10187 H 966.812 -3.57486 -3.27616 0
M  V30 10188 N 968.156 1.1691 -1.05688 0
M  V30 10189 C 969.104 2.2315 -0.656262 0
M  V30 10190 C 970.098 1.66256 0.324873 0
M  V30 10191 O 971.304 1.7899 0.190397 0
M  V30 10192 H 967.679 0.726527 -0.19407 0
M  V30 10193 H 969.65 2.54233 -1.56231 0
M  V30 10194 C 968.399 3.47661 -0.0522431 0
M  V30 10195 H 967.722 3.91749 -0.798299 0
M  V30 10196 H 969.162 4.23571 0.190626 0
M  V30 10197 C 967.621 3.14709 1.20248 0
M  V30 10198 O 968.151 3.29947 2.29124 0
M  V30 10199 N 966.357 2.68892 1.10207 0
M  V30 10200 H 965.904 2.56692 0.216063 0
M  V30 10201 H 965.862 2.47218 1.94244 0
M  V30 10202 N 969.634 0.838594 1.33437 0
M  V30 10203 C 971.045 0.490934 1.8013 0
M  V30 10204 C 971.396 -0.990024 1.6939 0
M  V30 10205 O 970.521 -1.77139 1.24302 0
M  V30 10206 C 971.116 0.884347 3.27055 0
M  V30 10207 C 969.675 0.588829 3.71766 0
M  V30 10208 C 968.822 1.09282 2.54858 0
M  V30 10209 H 971.773 1.02732 1.20962 0
M  V30 10210 H 971.794 0.194283 3.80004 0
M  V30 10211 H 971.306 1.96225 3.34839 0
M  V30 10212 H 969.407 -0.479018 3.69508 0
M  V30 10213 H 969.52 1.14387 4.65245 0
M  V30 10214 H 967.884 0.513702 2.49466 0
M  V30 10215 H 968.667 2.1775 2.65405 0
M  V30 10216 N 971.112 -1.45937 0.595003 0
M  V30 10217 C 972.358 -2.0262 0.0854317 0
M  V30 10218 C 972.691 -1.46402 -1.27594 0
M  V30 10219 O 971.966 -0.633823 -1.83883 0
M  V30 10220 C 972.249 -3.60085 0.0329075 0
M  V30 10221 C 972.102 -4.26663 1.42405 0
M  V30 10222 C 973.421 -4.35101 -0.661426 0
M  V30 10223 H 970.54 -0.736282 0.0325196 0
M  V30 10224 H 973.182 -1.73938 0.764563 0
M  V30 10225 H 971.332 -3.84652 -0.545439 0
M  V30 10226 H 973.004 -4.13321 2.04851 0
M  V30 10227 H 971.247 -3.85549 1.98833 0
M  V30 10228 H 971.918 -5.35497 1.33965 0
M  V30 10229 H 974.394 -4.15753 -0.169977 0
M  V30 10230 H 973.27 -5.44829 -0.667243 0
M  V30 10231 H 973.531 -4.07053 -1.72513 0
M  V30 10232 N 972.59 -0.333456 -1.54032 0
M  V30 10233 C 973.836 0.259248 -2.01741 0
M  V30 10234 C 974.191 1.48999 -1.21725 0
M  V30 10235 O 973.484 1.89333 -0.293882 0
M  V30 10236 C 973.678 0.63565 -3.51702 0
M  V30 10237 C 973.507 -0.55707 -4.46236 0
M  V30 10238 C 972.277 -1.05925 -4.94073 0
M  V30 10239 C 974.475 -1.41237 -4.94527 0
M  V30 10240 N 972.457 -2.21535 -5.72534 0
M  V30 10241 C 973.828 -2.41551 -5.71011 0
M  V30 10242 C 975.883 -1.43899 -4.76652 0
M  V30 10243 C 974.586 -3.44342 -6.31523 0
M  V30 10244 C 976.612 -2.45567 -5.38006 0
M  V30 10245 C 975.974 -3.44606 -6.1435 0
M  V30 10246 H 972.073 0.0584431 -0.779813 0
M  V30 10247 H 974.657 -0.470736 -1.88924 0
M  V30 10248 H 972.828 1.33475 -3.64745 0
M  V30 10249 H 974.56 1.21067 -3.86167 0
M  V30 10250 H 971.315 -0.628947 -4.69405 0
M  V30 10251 H 971.739 -2.79878 -6.16439 0
M  V30 10252 H 976.381 -0.686929 -4.17182 0
M  V30 10253 H 974.099 -4.20449 -6.90107 0
M  V30 10254 H 977.685 -2.4844 -5.26088 0
M  V30 10255 H 976.565 -4.21987 -6.60982 0
M  V30 10256 N 974.068 1.57479 -0.061844 0
M  V30 10257 C 974.978 2.15645 0.923826 0
M  V30 10258 C 975.994 1.117 1.33413 0
M  V30 10259 O 977.17 1.4392 1.40887 0
M  V30 10260 C 974.235 2.69857 2.17665 0
M  V30 10261 C 973.296 3.88638 1.8237 0
M  V30 10262 C 972.529 4.40256 3.01679 0
M  V30 10263 O 972.752 3.90908 4.15388 0
M  V30 10264 O 971.686 5.31713 2.82073 0
M  V30 10265 H 975.512 3.0021 0.459094 0
M  V30 10266 H 973.097 1.48534 0.160665 0
M  V30 10267 H 974.979 3.04647 2.9115 0
M  V30 10268 H 973.654 1.88357 2.63255 0
M  V30 10269 H 972.561 3.58719 1.06167 0
M  V30 10270 H 973.894 4.71401 1.4157 0
M  V30 10271 N 975.546 -0.211634 1.56173 0
M  V30 10272 C 976.456 -1.2831 1.96402 0
M  V30 10273 C 977.472 -1.50731 0.869254 0
M  V30 10274 O 978.648 -1.63669 1.17365 0
M  V30 10275 C 975.713 -2.61084 2.28114 0
M  V30 10276 C 974.774 -2.46879 3.51211 0
M  V30 10277 C 974.007 -3.73321 3.81401 0
M  V30 10278 O 974.23 -4.76773 3.13119 0
M  V30 10279 O 973.164 -3.69839 4.74871 0
M  V30 10280 H 976.99 -0.971733 2.87734 0
M  V30 10281 H 974.575 -0.415305 1.43512 0
M  V30 10282 H 976.457 -3.39481 2.49661 0
M  V30 10283 H 975.132 -2.91881 1.39954 0
M  V30 10284 H 974.039 -1.66648 3.34932 0
M  V30 10285 H 975.372 -2.21018 4.39786 0
M  V30 10286 N 977.024 -1.50153 -0.478725 0
M  V30 10287 C 977.971 -1.68458 -1.57767 0
M  V30 10288 C 978.941 -0.5259 -1.57555 0
M  V30 10289 O 980.126 -0.755574 -1.75202 0
M  V30 10290 C 977.266 -1.77772 -2.95789 0
M  V30 10291 C 976.379 -3.05092 -3.05848 0
M  V30 10292 C 975.514 -3.05247 -4.34739 0
M  V30 10293 C 974.553 -4.27053 -4.38512 0
M  V30 10294 N 973.69 -4.24991 -5.58862 0
M  V30 10295 H 978.53 -2.62282 -1.41464 0
M  V30 10296 H 976.067 -1.30023 -0.687921 0
M  V30 10297 H 978.025 -1.81152 -3.75819 0
M  V30 10298 H 976.655 -0.873944 -3.10744 0
M  V30 10299 H 975.707 -3.11219 -2.1874 0
M  V30 10300 H 977.019 -3.95075 -3.04495 0
M  V30 10301 H 976.173 -3.07314 -5.23109 0
M  V30 10302 H 974.912 -2.13081 -4.38689 0
M  V30 10303 H 973.917 -4.25206 -3.4854 0
M  V30 10304 H 975.142 -5.20437 -4.36259 0
M  V30 10305 H 973.088 -3.35674 -5.63612 0
M  V30 10306 H 973.005 -5.08734 -5.59219 0
M  V30 10307 H 974.273 -4.31193 -6.49379 0
M  V30 10308 N 978.502 0.731368 -1.39602 0
M  V30 10309 C 979.749 1.491 -1.37024 0
M  V30 10310 C 980.077 1.94473 0.0326423 0
M  V30 10311 O 979.332 1.6737 1.01418 0
M  V30 10312 C 979.631 2.74224 -2.29208 0
M  V30 10313 C 979.297 2.477 -3.7677 0
M  V30 10314 C 977.959 2.40175 -4.16976 0
M  V30 10315 C 980.311 2.25098 -4.70086 0
M  V30 10316 C 977.639 2.08095 -5.48556 0
M  V30 10317 C 979.991 1.94534 -6.01946 0
M  V30 10318 C 978.655 1.85481 -6.41212 0
M  V30 10319 H 977.925 0.545595 -0.501405 0
M  V30 10320 H 980.572 0.839127 -1.72136 0
M  V30 10321 H 978.877 3.44171 -1.87225 0
M  V30 10322 H 980.574 3.32264 -2.24504 0
M  V30 10323 H 977.164 2.54436 -3.44906 0
M  V30 10324 H 981.348 2.29876 -4.39853 0
M  V30 10325 H 976.604 1.99611 -5.77897 0
M  V30 10326 H 980.778 1.76054 -6.73779 0
M  V30 10327 H 978.405 1.60389 -7.43088 0
M  V30 10328 N 979.98 1.24838 0.961938 0
M  V30 10329 C 980.93 1.01276 2.04272 0
M  V30 10330 C 981.914 -0.0478239 1.60829 0
M  V30 10331 O 983.106 0.166616 1.76214 0
M  V30 10332 C 980.235 0.625659 3.37551 0
M  V30 10333 C 979.321 1.72262 3.87539 0
M  V30 10334 N 979.712 2.95644 4.104 0
M  V30 10335 C 978.01 1.60146 4.16256 0
M  V30 10336 C 978.711 3.66796 4.51482 0
M  V30 10337 N 977.687 2.94383 4.56989 0
M  V30 10338 H 981.489 1.94956 2.19931 0
M  V30 10339 H 979.003 1.15049 1.14619 0
M  V30 10340 H 981 0.438072 4.14592 0
M  V30 10341 H 979.66 -0.303887 3.23275 0
M  V30 10342 H 980.671 3.31764 3.97685 0
M  V30 10343 H 977.348 0.740353 4.10883 0
M  V30 10344 H 978.738 4.72664 4.77534 0
M  V30 10345 N 981.458 -1.16348 1.06306 0
M  V30 10346 C 982.705 -1.86881 0.779852 0
M  V30 10347 C 983.033 -1.8171 -0.693668 0
M  V30 10348 O 982.288 -1.22769 -1.52401 0
M  V30 10349 C 982.587 -3.35936 1.21991 0
M  V30 10350 C 982.253 -3.61307 2.69756 0
M  V30 10351 C 980.915 -3.6794 3.10119 0
M  V30 10352 C 983.267 -3.71871 3.65187 0
M  V30 10353 C 980.595 -3.82639 4.44752 0
M  V30 10354 C 982.947 -3.88091 4.99568 0
M  V30 10355 C 981.611 -3.92967 5.39568 0
M  V30 10356 H 980.881 -0.683847 0.285368 0
M  V30 10357 H 983.528 -1.37569 1.33218 0
M  V30 10358 H 981.833 -3.87381 0.586774 0
M  V30 10359 H 983.53 -3.88895 0.977821 0
M  V30 10360 H 980.12 -3.56777 2.37504 0
M  V30 10361 H 984.304 -3.66057 3.35136 0
M  V30 10362 H 979.56 -3.84666 4.75228 0
M  V30 10363 H 983.734 -3.95207 5.73397 0
M  V30 10364 H 981.361 -4.04109 6.43895 0
M  V30 10365 N 982.937 -0.845659 -1.3299 0
M  V30 10366 C 983.847 -0.2864 -2.32845 0
M  V30 10367 C 984.863 0.591105 -1.63652 0
M  V30 10368 O 986.039 0.493615 -1.95257 0
M  V30 10369 C 983.104 0.523636 -3.42723 0
M  V30 10370 C 982.165 -0.378945 -4.27624 0
M  V30 10371 C 981.398 0.392526 -5.32255 0
M  V30 10372 O 981.621 1.6235 -5.46808 0
M  V30 10373 O 980.555 -0.237 -6.01433 0
M  V30 10374 H 984.381 -1.11346 -2.82552 0
M  V30 10375 H 981.966 -0.608356 -1.36453 0
M  V30 10376 H 983.848 0.983718 -4.09757 0
M  V30 10377 H 982.523 1.32764 -2.95221 0
M  V30 10378 H 981.43 -0.887012 -3.63432 0
M  V30 10379 H 982.763 -1.1479 -4.78627 0
M  V30 10380 N 984.415 1.45619 -0.602734 0
M  V30 10381 C 985.655 2.0416 -0.0989764 0
M  V30 10382 C 986.019 1.4616 1.24504 0
M  V30 10383 O 987.22 1.96025 1.83923 0
M  V30 10384 C 985.491 3.57357 -0.0551869 0
M  V30 10385 S 987.05 4.3708 0.388086 0
M  V30 10386 H 983.868 0.709431 -0.0472054 0
M  V30 10387 H 986.47 1.78394 -0.799745 0
M  V30 10388 H 985.174 3.97083 -1.03697 0
M  V30 10389 H 984.705 3.87692 0.667727 0
M  V30 10390 H 986.72 4.68362 1.63865 0
M  V30 10391 N 985.893 0.34162 1.53853 0
M  V30 10392 C 986.843 -0.531995 2.21707 0
M  V30 10393 C 987.827 -1.06759 1.2038 0
M  V30 10394 O 989.019 -1.00161 1.45934 0
M  V30 10395 C 986.148 -1.6834 2.99193 0
M  V30 10396 C 985.234 -1.16184 4.07875 0
M  V30 10397 N 985.625 -0.361348 5.04508 0
M  V30 10398 C 983.923 -1.43891 4.22151 0
M  V30 10399 C 984.624 -0.0785378 5.81647 0
M  V30 10400 N 983.6 -0.669651 5.3946 0
M  V30 10401 H 987.402 0.0866825 2.93772 0
M  V30 10402 H 984.916 0.148386 1.61721 0
M  V30 10403 H 986.913 -2.32121 3.46303 0
M  V30 10404 H 985.573 -2.30538 2.28653 0
M  V30 10405 H 986.584 -0.00259906 5.179 0
M  V30 10406 H 983.261 -2.06542 3.62832 0
M  V30 10407 H 984.651 0.567068 6.69503 0
M  V30 10408 N 987.371 -1.57444 0.0701946 0
M  V30 10409 C 988.319 -2.13834 -0.915302 0
M  V30 10410 C 989.313 -1.07483 -1.30934 0
M  V30 10411 O 990.519 -1.25865 -1.28678 0
M  V30 10412 H 986.894 -0.683716 -0.313108 0
M  V30 10413 H 988.865 -2.95503 -0.414758 0
M  V30 10414 C 987.614 -2.71355 -2.17398 0
M  V30 10415 H 986.937 -3.52861 -1.87961 0
M  V30 10416 H 988.377 -3.1441 -2.84469 0
M  V30 10417 C 986.836 -1.66038 -2.93143 0
M  V30 10418 O 987.366 -1.08443 -3.86786 0
M  V30 10419 N 985.572 -1.3711 -2.56221 0
M  V30 10420 H 985.119 -1.84135 -1.80145 0
M  V30 10421 H 985.077 -0.66877 -3.07205 0
M  V30 10422 N 988.849 0.203349 -1.56283 0
M  V30 10423 C 990.074 0.945548 -1.84592 0
M  V30 10424 C 990.499 1.7641 -0.652772 0
M  V30 10425 O 989.857 1.76867 0.398468 0
M  V30 10426 C 989.905 1.82416 -3.11057 0
M  V30 10427 O 989.009 2.92191 -2.9103 0
M  V30 10428 H 988.35 0.266739 -0.608068 0
M  V30 10429 H 990.88 0.211158 -2.03507 0
M  V30 10430 H 990.89 2.23044 -3.41636 0
M  V30 10431 H 989.565 1.22267 -3.97522 0
M  V30 10432 H 988.142 2.55378 -2.71728 0
M  V30 10433 N 990.327 1.50405 0.470755 0
M  V30 10434 C 991.552 1.65442 1.25075 0
M  V30 10435 C 991.977 0.337612 1.85045 0
M  V30 10436 O 991.335 -0.698555 1.67302 0
M  V30 10437 C 991.383 2.74793 2.33498 0
M  V30 10438 O 990.487 2.36069 3.3815 0
M  V30 10439 H 989.828 0.552728 0.367951 0
M  V30 10440 H 992.358 1.96782 0.560177 0
M  V30 10441 H 992.368 2.97879 2.78804 0
M  V30 10442 H 991.043 3.70363 1.8922 0
M  V30 10443 H 989.62 2.2343 2.98552 0
M  V30 10444 N 991.805 -0.723954 1.39988 0
M  V30 10445 C 993.082 -1.4763 1.28316 0
M  V30 10446 C 993.462 -2.10852 -0.102302 0
M  V30 10447 O 992.81 -1.9948 -1.11445 0
M  V30 10448 C 993.02 -2.51878 2.41574 0
M  V30 10449 C 994.368 -3.17948 2.81415 0
M  V30 10450 O 995.392 -2.62195 2.41106 0
M  V30 10451 O 994.251 -4.18858 3.51027 0
M  V30 10452 H 991.345 -0.656092 0.50346 0
M  V30 10453 H 993.891 -0.75684 1.51888 0
M  V30 10454 H 992.663 -2.03618 3.34149 0
M  V30 10455 H 992.286 -3.3137 2.19727 0
M  V30 10456 N 993.283 -1.25346 -0.955304 0
M  V30 10457 C 994.699 -1.02154 -1.22625 0
M  V30 10458 C 994.899 0.26206 -1.99789 0
M  V30 10459 O 993.955 0.974958 -2.32918 0
M  V30 10460 C 995.268 -2.2443 -2.00129 0
M  V30 10461 C 996.816 -2.29185 -2.13174 0
M  V30 10462 C 997.291 -3.51117 -2.94077 0
M  V30 10463 N 998.782 -3.51509 -3.01655 0
M  V30 10464 C 999.517 -4.42517 -3.64645 0
M  V30 10465 N 999.013 -5.43796 -4.29252 0
M  V30 10466 N 1000.81 -4.302 -3.61779 0
M  V30 10467 H 992.957 -2.07812 -0.439071 0
M  V30 10468 H 995.22 -0.91258 -0.256715 0
M  V30 10469 H 994.926 -3.17717 -1.50827 0
M  V30 10470 H 994.8 -2.27548 -3.00835 0
M  V30 10471 H 997.187 -1.36422 -2.61674 0
M  V30 10472 H 997.268 -2.30087 -1.11775 0
M  V30 10473 H 996.912 -4.44201 -2.46268 0
M  V30 10474 H 996.842 -3.4746 -3.95701 0
M  V30 10475 H 999.333 -2.78245 -2.55711 0
M  V30 10476 H 999.646 -6.09453 -4.75171 0
M  V30 10477 H 997.991 -5.4767 -4.27882 0
M  V30 10478 H 1001.18 -3.50304 -3.10491 0
M  V30 10479 H 1001.36 -5.01323 -4.10584 0
M  V30 10480 N 994.761 1.15782 -1.06922 0
M  V30 10481 C 996.01 1.85807 -0.784774 0
M  V30 10482 C 996.323 1.82967 0.691551 0
M  V30 10483 O 997.529 2.48632 1.0906 0
M  V30 10484 C 995.985 3.33469 -1.35375 0
M  V30 10485 C 995.593 3.44766 -2.86077 0
M  V30 10486 C 997.337 4.08707 -1.14713 0
M  V30 10487 C 995.244 4.86551 -3.36187 0
M  V30 10488 H 994.174 0.696046 -0.28989 0
M  V30 10489 H 996.825 1.30629 -1.28873 0
M  V30 10490 H 995.207 3.88292 -0.77754 0
M  V30 10491 H 996.381 3.00073 -3.49704 0
M  V30 10492 H 994.696 2.82969 -3.05479 0
M  V30 10493 H 997.293 5.13336 -1.49633 0
M  V30 10494 H 997.636 4.16211 -0.0858868 0
M  V30 10495 H 998.169 3.60142 -1.68946 0
M  V30 10496 H 994.908 4.84229 -4.41818 0
M  V30 10497 H 994.428 5.31844 -2.77312 0
M  V30 10498 H 996.107 5.55392 -3.31887 0
M  V30 10499 N 996.239 0.8527 1.3254 0
M  V30 10500 C 997.186 0.293905 2.28921 0
M  V30 10501 C 998.156 -0.598027 1.54961 0
M  V30 10502 O 999.341 -0.533355 1.83194 0
M  V30 10503 C 996.481 -0.513361 3.4126 0
M  V30 10504 C 995.594 0.404144 4.30105 0
M  V30 10505 C 994.729 -0.415564 5.29572 0
M  V30 10506 C 993.768 0.499461 6.10059 0
M  V30 10507 N 992.905 -0.282949 7.0153 0
M  V30 10508 H 997.745 1.12107 2.76109 0
M  V30 10509 H 995.282 0.564272 1.35847 0
M  V30 10510 H 997.24 -0.997008 4.05112 0
M  V30 10511 H 995.87 -1.30537 2.95229 0
M  V30 10512 H 994.922 1.00617 3.66852 0
M  V30 10513 H 996.234 1.10648 4.86373 0
M  V30 10514 H 995.388 -0.962458 5.99017 0
M  V30 10515 H 994.127 -1.15127 4.73917 0
M  V30 10516 H 993.132 1.05825 5.39519 0
M  V30 10517 H 994.357 1.23375 6.67799 0
M  V30 10518 H 992.303 -1.00179 6.48306 0
M  V30 10519 H 992.22 0.36039 7.55141 0
M  V30 10520 H 993.488 -0.811632 7.75263 0
M  V30 10521 N 997.718 -1.45297 0.610449 0
M  V30 10522 C 998.964 -2.02518 0.106917 0
M  V30 10523 C 999.297 -1.47747 -1.26034 0
M  V30 10524 O 998.572 -0.65329 -1.832 0
M  V30 10525 C 998.855 -3.6003 0.0710975 0
M  V30 10526 C 998.708 -4.25128 1.46922 0
M  V30 10527 C 1000.03 -4.35778 -0.61524 0
M  V30 10528 H 997.146 -0.735896 0.040327 0
M  V30 10529 H 999.788 -1.73117 0.782968 0
M  V30 10530 H 997.938 -3.85209 -0.504611 0
M  V30 10531 H 999.61 -4.11125 2.09223 0
M  V30 10532 H 997.853 -3.83418 2.02911 0
M  V30 10533 H 998.524 -5.34046 1.39637 0
M  V30 10534 H 1001 -4.1591 -0.125871 0
M  V30 10535 H 999.876 -5.45506 -0.609419 0
M  V30 10536 H 1000.14 -4.08859 -1.68186 0
M  V30 10537 N 999.196 -0.349774 -1.5367 0
M  V30 10538 C 1000.61 0.00191293 -1.596 0
M  V30 10539 C 1000.81 1.48175 -1.36552 0
M  V30 10540 O 999.868 2.24129 -1.16285 0
M  V30 10541 C 1001.18 -0.439848 -2.97466 0
M  V30 10542 C 1002.73 -0.392721 -3.10526 0
M  V30 10543 C 1003.2 -0.810047 -4.5078 0
M  V30 10544 N 1004.69 -0.764478 -4.56848 0
M  V30 10545 C 1005.43 -1.05927 -5.63531 0
M  V30 10546 N 1004.93 -1.42253 -6.78038 0
M  V30 10547 N 1006.72 -0.983098 -5.53436 0
M  V30 10548 H 998.87 -1.31364 -1.66905 0
M  V30 10549 H 1001.13 -0.535908 -0.781989 0
M  V30 10550 H 1000.84 -1.47189 -3.19419 0
M  V30 10551 H 1000.71 0.181735 -3.76762 0
M  V30 10552 H 1003.1 0.630161 -2.88293 0
M  V30 10553 H 1003.18 -1.04959 -2.33275 0
M  V30 10554 H 1002.82 -1.83097 -4.73749 0
M  V30 10555 H 1002.75 -0.130591 -5.26438 0
M  V30 10556 H 1005.25 -0.496637 -3.74622 0
M  V30 10557 H 1005.56 -1.63215 -7.55368 0
M  V30 10558 H 1003.9 -1.46104 -6.79469 0
M  V30 10559 H 1007.09 -0.698601 -4.62858 0
M  V30 10560 H 1007.27 -1.21618 -6.36485 0
M  V30 10561 N 1000.67 1.57404 -0.0785433 0
M  V30 10562 C 1001.92 1.94031 0.589896 0
M  V30 10563 C 1002.25 0.959297 1.68852 0
M  V30 10564 O 1001.53 -0.0103978 1.94497 0
M  V30 10565 C 1001.81 3.40886 1.16055 0
M  V30 10566 C 1001.66 4.49748 0.0681072 0
M  V30 10567 C 1002.98 3.88699 2.06401 0
M  V30 10568 H 1000.1 0.70556 0.212965 0
M  V30 10569 H 1002.74 1.89439 -0.145886 0
M  V30 10570 H 1000.89 3.4493 1.78761 0
M  V30 10571 H 1002.57 4.57823 -0.565318 0
M  V30 10572 H 1000.81 4.29625 -0.600431 0
M  V30 10573 H 1001.48 5.49658 0.507906 0
M  V30 10574 H 1003.96 3.86703 1.53622 0
M  V30 10575 H 1002.83 4.92052 2.43261 0
M  V30 10576 H 1003.09 3.2703 2.97496 0
M  V30 10577 N 1002.15 -0.195058 1.56388 0
M  V30 10578 C 1003.4 -0.912248 1.81795 0
M  V30 10579 C 1003.75 -1.80886 0.655596 0
M  V30 10580 O 1003.05 -1.88391 -0.34922 0
M  V30 10581 C 1003.24 -1.7637 3.10851 0
M  V30 10582 C 1003.07 -0.951012 4.39529 0
M  V30 10583 C 1001.84 -0.635425 5.01289 0
M  V30 10584 C 1004.04 -0.303702 5.13403 0
M  V30 10585 N 1002.02 0.195887 6.13587 0
M  V30 10586 C 1003.39 0.38981 6.18773 0
M  V30 10587 C 1005.44 -0.219433 4.97416 0
M  V30 10588 C 1004.15 1.15957 7.09892 0
M  V30 10589 C 1006.17 0.536925 5.88958 0
M  V30 10590 C 1005.54 1.21888 6.93774 0
M  V30 10591 H 1001.63 -0.313208 0.716537 0
M  V30 10592 H 1004.22 -0.180977 1.93857 0
M  V30 10593 H 1002.39 -2.46657 3.00025 0
M  V30 10594 H 1004.12 -2.42037 3.24346 0
M  V30 10595 H 1000.88 -0.959855 4.63771 0
M  V30 10596 H 1001.3 0.601155 6.74326 0
M  V30 10597 H 1005.94 -0.732323 4.16409 0
M  V30 10598 H 1003.66 1.68389 7.90361 0
M  V30 10599 H 1007.25 0.603485 5.78662 0
M  V30 10600 H 1006.13 1.79478 7.63385 0
M  V30 10601 N 1003.63 -1.50653 -0.462772 0
M  V30 10602 C 1004.91 -1.5258 -1.22387 0
M  V30 10603 C 1005.29 -0.275263 -2.09298 0
M  V30 10604 O 1004.63 0.740943 -2.16153 0
M  V30 10605 C 1004.84 -2.82611 -2.04773 0
M  V30 10606 C 1006.19 -3.33592 -2.62681 0
M  V30 10607 O 1007.22 -2.83989 -2.15008 0
M  V30 10608 O 1006.08 -4.20081 -3.49563 0
M  V30 10609 H 1003.17 -0.612367 -0.55582 0
M  V30 10610 H 1005.72 -1.62948 -0.473914 0
M  V30 10611 H 1004.49 -3.65098 -1.40781 0
M  V30 10612 H 1004.11 -2.75286 -2.86886 0
M  V30 10613 N 1005.11 0.71652 -1.4037 0
M  V30 10614 C 1006.02 1.86074 -1.42876 0
M  V30 10615 C 1007.03 1.71005 -0.321475 0
M  V30 10616 O 1008.21 1.93286 -0.565909 0
M  V30 10617 C 1005.28 3.21862 -1.28863 0
M  V30 10618 C 1004.34 3.49193 -2.49726 0
M  V30 10619 C 1003.57 4.78502 -2.36372 0
M  V30 10620 O 1003.79 5.53529 -1.37703 0
M  V30 10621 O 1002.73 5.06147 -3.25728 0
M  V30 10622 H 1006.55 1.86916 -2.39366 0
M  V30 10623 H 1004.14 0.866818 -1.21683 0
M  V30 10624 H 1006.02 4.02972 -1.23253 0
M  V30 10625 H 1004.69 3.2175 -0.354783 0
M  V30 10626 H 1003.6 2.68095 -2.60913 0
M  V30 10627 H 1004.93 3.54101 -3.41868 0
M  V30 10628 N 1006.59 1.25851 0.948643 0
M  V30 10629 C 1007.86 1.01717 1.67072 0
M  V30 10630 C 1008.24 -0.454749 2.06144 0
M  V30 10631 O 1007.59 -1.43345 1.77945 0
M  V30 10632 C 1007.8 1.95872 2.88852 0
M  V30 10633 C 1009.15 2.24057 3.60671 0
M  V30 10634 O 1010.17 1.93678 2.98944 0
M  V30 10635 O 1009.03 2.75745 4.71833 0
M  V30 10636 H 1006.13 0.386198 0.731287 0
M  V30 10637 H 1008.67 1.37031 1.00104 0
M  V30 10638 H 1007.44 2.95233 2.56814 0
M  V30 10639 H 1007.07 1.60992 3.63548 0
M  V30 10640 N 1008.06 -1.15214 1.07534 0
M  V30 10641 C 1009.34 -1.82155 0.71267 0
M  V30 10642 C 1009.72 -1.95163 -0.804655 0
M  V30 10643 O 1009.07 -1.50451 -1.71979 0
M  V30 10644 C 1009.28 -3.18392 1.42925 0
M  V30 10645 C 1010.63 -3.94005 1.58256 0
M  V30 10646 O 1011.65 -3.27952 1.39018 0
M  V30 10647 O 1010.51 -5.12436 1.89925 0
M  V30 10648 H 1007.6 -0.78709 0.253808 0
M  V30 10649 H 1010.15 -1.22309 1.17638 0
M  V30 10650 H 1008.92 -3.04034 2.46331 0
M  V30 10651 H 1008.55 -3.85925 0.956439 0
M  V30 10652 N 1009.54 -0.859717 -1.32086 0
M  V30 10653 C 1010.82 -0.386665 -1.9174 0
M  V30 10654 C 1011.2 1.13028 -1.78292 0
M  V30 10655 O 1010.55 1.95422 -1.18417 0
M  V30 10656 C 1010.76 -0.856648 -3.38323 0
M  V30 10657 C 1012.11 -0.87678 -4.15449 0
M  V30 10658 O 1013.13 -0.80162 -3.47063 0
M  V30 10659 O 1011.99 -0.98373 -5.37573 0
M  V30 10660 H 1009.08 -0.113758 -0.819139 0
M  V30 10661 H 1011.63 -0.946952 -1.40822 0
M  V30 10662 H 1010.4 -1.89996 -3.42078 0
M  V30 10663 H 1010.02 -0.274095 -3.96654 0
M  V30 10664 N 1011.02 1.44971 -0.618145 0
M  V30 10665 C 1012.27 2.01372 -0.115004 0
M  V30 10666 C 1012.58 1.49104 1.26599 0
M  V30 10667 O 1013.79 1.97549 1.86244 0
M  V30 10668 C 1012.24 3.59567 -0.154883 0
M  V30 10669 C 1011.85 4.20832 -1.53639 0
M  V30 10670 C 1013.6 4.23491 0.292468 0
M  V30 10671 C 1011.5 5.7121 -1.53208 0
M  V30 10672 H 1010.43 0.752979 -0.0392267 0
M  V30 10673 H 1013.08 1.66329 -0.775032 0
M  V30 10674 H 1011.47 3.91847 0.572001 0
M  V30 10675 H 1012.64 4.00109 -2.28582 0
M  V30 10676 H 1010.96 3.69143 -1.92672 0
M  V30 10677 H 1013.55 5.33771 0.315032 0
M  V30 10678 H 1013.9 3.9491 1.31725 0
M  V30 10679 H 1014.43 3.95967 -0.381493 0
M  V30 10680 H 1011.17 6.04506 -2.53481 0
M  V30 10681 H 1010.69 5.94094 -0.825387 0
M  V30 10682 H 1012.37 6.34606 -1.26032 0
M  V30 10683 N 1012.5 0.357919 1.53482 0
M  V30 10684 C 1013.45 -0.49217 2.25491 0
M  V30 10685 C 1014.42 -1.08382 1.25867 0
M  V30 10686 O 1015.6 -1.11775 1.54632 0
M  V30 10687 C 1012.74 -1.6299 3.04185 0
M  V30 10688 C 1011.85 -1.06416 4.18688 0
M  V30 10689 C 1010.99 -2.17037 4.84839 0
M  V30 10690 C 1010.03 -1.57889 5.91386 0
M  V30 10691 N 1009.16 -2.6231 6.51259 0
M  V30 10692 H 1014 0.128412 2.97723 0
M  V30 10693 H 1011.54 0.0751423 1.46908 0
M  V30 10694 H 1013.5 -2.29993 3.48079 0
M  V30 10695 H 1012.13 -2.22125 2.34223 0
M  V30 10696 H 1011.18 -0.284635 3.79334 0
M  V30 10697 H 1012.49 -0.591654 4.95279 0
M  V30 10698 H 1011.65 -2.91876 5.31877 0
M  V30 10699 H 1010.39 -2.67636 4.07703 0
M  V30 10700 H 1009.39 -0.815605 5.43717 0
M  V30 10701 H 1010.62 -1.08123 6.70437 0
M  V30 10702 H 1008.56 -3.12137 5.7698 0
M  V30 10703 H 1008.48 -2.19724 7.23365 0
M  V30 10704 H 1009.75 -3.36875 7.02948 0
M  V30 10705 N 1013.98 -1.5736 0.0868897 0
M  V30 10706 C 1015.2 -1.98809 -0.590757 0
M  V30 10707 C 1015.63 -0.965407 -1.61436 0
M  V30 10708 O 1014.98 0.067143 -1.81176 0
M  V30 10709 C 1015.03 -3.39249 -1.22238 0
M  V30 10710 O 1014.14 -3.39706 -2.33824 0
M  V30 10711 H 1013.48 -0.64669 -0.150626 0
M  V30 10712 H 1016.01 -2.03927 0.165873 0
M  V30 10713 H 1016.02 -3.76765 -1.56564 0
M  V30 10714 H 1014.69 -4.13208 -0.472434 0
M  V30 10715 H 1013.27 -3.13977 -2.01178 0
M  V30 10716 N 1015.45 0.186762 -1.56489 0
M  V30 10717 C 1016.87 0.537933 -1.50261 0
M  V30 10718 C 1017.07 1.85435 -0.788414 0
M  V30 10719 O 1016.13 2.50168 -0.342377 0
M  V30 10720 C 1017.44 0.584965 -2.94955 0
M  V30 10721 C 1018.99 0.673228 -3.05674 0
M  V30 10722 C 1019.46 0.751294 -4.51796 0
M  V30 10723 N 1020.95 0.814599 -4.55981 0
M  V30 10724 C 1021.69 0.895313 -5.66367 0
M  V30 10725 N 1021.18 0.937814 -6.86423 0
M  V30 10726 N 1022.98 0.933145 -5.543 0
M  V30 10727 H 1015.13 -0.676636 -2.01334 0
M  V30 10728 H 1017.39 -0.242079 -0.916571 0
M  V30 10729 H 1017.1 -0.313361 -3.50301 0
M  V30 10730 H 1016.97 1.4368 -3.48763 0
M  V30 10731 H 1019.36 1.56198 -2.50372 0
M  V30 10732 H 1019.44 -0.204976 -2.54977 0
M  V30 10733 H 1019.08 -0.133143 -5.07725 0
M  V30 10734 H 1019.01 1.64542 -5.00233 0
M  V30 10735 H 1021.5 0.790662 -3.69536 0
M  V30 10736 H 1021.82 1.00015 -7.66301 0
M  V30 10737 H 1020.16 0.906351 -6.89065 0
M  V30 10738 H 1023.35 0.896836 -4.59428 0
M  V30 10739 H 1023.53 0.992588 -6.40353 0
M  V30 10740 N 1016.93 1.50896 0.454776 0
M  V30 10741 C 1018.18 1.6294 1.20741 0
M  V30 10742 C 1018.51 0.336339 1.91265 0
M  V30 10743 O 1017.79 -0.663153 1.82846 0
M  V30 10744 C 1018.07 2.82092 2.23822 0
M  V30 10745 C 1017.92 4.21326 1.57495 0
M  V30 10746 C 1019.24 2.96777 3.24979 0
M  V30 10747 H 1016.36 0.59302 0.437603 0
M  V30 10748 H 1019 1.83331 0.498959 0
M  V30 10749 H 1017.15 2.64837 2.84243 0
M  V30 10750 H 1018.82 4.50209 1.00546 0
M  V30 10751 H 1017.07 4.24829 0.877664 0
M  V30 10752 H 1017.74 5.00656 2.32482 0
M  V30 10753 H 1020.21 3.12627 2.74597 0
M  V30 10754 H 1019.09 3.81742 3.94416 0
M  V30 10755 H 1019.35 2.08091 3.90065 0
M  V30 10756 N 1018.41 -0.709066 1.40748 0
M  V30 10757 C 1019.36 -1.82312 1.4153 0
M  V30 10758 C 1020.33 -1.63868 0.271392 0
M  V30 10759 O 1021.51 -1.8491 0.470431 0
M  V30 10760 C 1018.65 -3.2008 1.29006 0
M  V30 10761 C 1017.77 -3.50051 2.53156 0
M  V30 10762 C 1016.9 -4.7736 2.33025 0
M  V30 10763 C 1015.94 -5.00255 3.52719 0
M  V30 10764 N 1015.08 -6.18782 3.31743 0
M  V30 10765 H 1019.92 -1.80978 2.36751 0
M  V30 10766 H 1017.45 -0.883975 1.17577 0
M  V30 10767 H 1019.41 -3.99645 1.19749 0
M  V30 10768 H 1018.04 -3.20626 0.374014 0
M  V30 10769 H 1017.09 -2.64993 2.72916 0
M  V30 10770 H 1018.41 -3.62877 3.42231 0
M  V30 10771 H 1017.56 -5.64954 2.21159 0
M  V30 10772 H 1016.3 -4.66756 1.41386 0
M  V30 10773 H 1015.3 -4.11114 3.65055 0
M  V30 10774 H 1016.53 -5.12728 4.45295 0
M  V30 10775 H 1014.47 -6.09416 2.42791 0
M  V30 10776 H 1014.39 -6.32313 4.14386 0
M  V30 10777 H 1015.66 -7.09146 3.23623 0
M  V30 10778 N 1019.89 -1.26353 -0.941956 0
M  V30 10779 C 1020.82 -1.03634 -2.04432 0
M  V30 10780 C 1021.83 0.00295864 -1.628 0
M  V30 10781 O 1023.02 -0.237029 -1.76919 0
M  V30 10782 C 1020.12 -0.547231 -3.34453 0
M  V30 10783 C 1019.3 -1.65559 -4.04857 0
M  V30 10784 C 1018.36 -1.16466 -5.13149 0
M  V30 10785 O 1017.38 -1.86158 -5.37898 0
M  V30 10786 N 1018.58 -0.0126703 -5.80499 0
M  V30 10787 H 1021.35 -1.98558 -2.24488 0
M  V30 10788 H 1018.91 -1.17728 -1.11138 0
M  V30 10789 H 1020.9 -0.203004 -4.04191 0
M  V30 10790 H 1019.47 0.308401 -3.11075 0
M  V30 10791 H 1018.69 -2.17079 -3.29044 0
M  V30 10792 H 1019.98 -2.39985 -4.48647 0
M  V30 10793 H 1019.38 0.569358 -5.62828 0
M  V30 10794 H 1017.93 0.272486 -6.5123 0
M  V30 10795 N 1021.37 1.14642 -1.08144 0
M  V30 10796 C 1022.78 1.37604 -0.808537 0
M  V30 10797 C 1022.98 1.92868 0.583452 0
M  V30 10798 O 1022.04 2.13964 1.34073 0
M  V30 10799 C 1023.35 2.3396 -1.889 0
M  V30 10800 C 1024.9 2.47605 -1.9147 0
M  V30 10801 C 1025.38 3.47258 -2.98623 0
M  V30 10802 N 1026.87 3.548 -2.97777 0
M  V30 10803 C 1027.6 4.31751 -3.77331 0
M  V30 10804 N 1027.1 5.11966 -4.66757 0
M  V30 10805 N 1028.89 4.2692 -3.65645 0
M  V30 10806 H 1021.04 0.771154 -1.97906 0
M  V30 10807 H 1023.3 0.401694 -0.858688 0
M  V30 10808 H 1023.01 2.00484 -2.88962 0
M  V30 10809 H 1022.88 3.33833 -1.756 0
M  V30 10810 H 1025.27 2.80375 -0.920548 0
M  V30 10811 H 1025.35 1.47702 -2.08848 0
M  V30 10812 H 1025 3.15223 -3.98243 0
M  V30 10813 H 1024.93 4.46935 -2.7849 0
M  V30 10814 H 1027.42 2.97553 -2.3296 0
M  V30 10815 H 1027.73 5.67951 -5.24072 0
M  V30 10816 H 1026.08 5.11245 -4.70801 0
M  V30 10817 H 1029.27 3.63322 -2.95152 0
M  V30 10818 H 1029.44 4.8664 -4.27885 0
M  V30 10819 N 1022.85 0.866709 1.31628 0
M  V30 10820 C 1023.78 0.335762 2.31073 0
M  V30 10821 C 1024.76 -0.571597 1.60209 0
M  V30 10822 O 1025.94 -0.489306 1.87935 0
M  V30 10823 C 1023.07 -0.466416 3.44154 0
M  V30 10824 C 1022.03 0.347561 4.26586 0
M  V30 10825 C 1021.35 -0.5801 5.31544 0
M  V30 10826 C 1022.65 1.57986 4.97833 0
M  V30 10827 H 1024.35 1.16673 2.75731 0
M  V30 10828 H 1021.89 0.56248 1.3256 0
M  V30 10829 H 1023.84 -0.84836 4.12772 0
M  V30 10830 H 1022.57 -1.33086 2.98254 0
M  V30 10831 H 1021.23 0.71141 3.59631 0
M  V30 10832 H 1020.88 -1.44174 4.81895 0
M  V30 10833 H 1020.58 -0.0393965 5.87587 0
M  V30 10834 H 1022.1 -0.958958 6.03023 0
M  V30 10835 H 1023.51 1.26954 5.59067 0
M  V30 10836 H 1021.91 2.05939 5.63657 0
M  V30 10837 H 1022.98 2.3345 4.25005 0
M  V30 10838 N 1024.32 -1.44642 0.625825 0
M  V30 10839 C 1025.27 -2.30653 -0.082259 0
M  V30 10840 C 1026.24 -1.43174 -0.842052 0
M  V30 10841 O 1027.43 -1.72082 -0.824151 0
M  V30 10842 C 1024.57 -3.2837 -1.06146 0
M  V30 10843 C 1023.68 -4.30953 -0.300638 0
M  V30 10844 C 1022.81 -5.15766 -1.27118 0
M  V30 10845 C 1021.85 -6.10061 -0.499215 0
M  V30 10846 N 1020.99 -6.87591 -1.41995 0
M  V30 10847 H 1025.83 -2.90664 0.657161 0
M  V30 10848 H 1023.37 -1.43215 0.335859 0
M  V30 10849 H 1025.32 -3.83507 -1.6425 0
M  V30 10850 H 1023.95 -2.70072 -1.76807 0
M  V30 10851 H 1023.01 -3.78331 0.396234 0
M  V30 10852 H 1024.32 -4.97892 0.300851 0
M  V30 10853 H 1023.47 -5.75394 -1.92372 0
M  V30 10854 H 1022.21 -4.48888 -1.9066 0
M  V30 10855 H 1021.22 -5.49547 0.166848 0
M  V30 10856 H 1022.44 -6.78973 0.131409 0
M  V30 10857 H 1020.39 -6.23387 -2.04267 0
M  V30 10858 H 1020.3 -7.5095 -0.872354 0
M  V30 10859 H 1021.57 -7.51746 -2.0615 0
M  V30 10860 N 1025.8 -0.366053 -1.5329 0
M  V30 10861 C 1027.22 -0.0150149 -1.59593 0
M  V30 10862 C 1027.42 1.46719 -1.38116 0
M  V30 10863 O 1026.47 2.22884 -1.18656 0
M  V30 10864 C 1027.79 -0.471374 -2.96982 0
M  V30 10865 C 1029.33 -0.425634 -3.10092 0
M  V30 10866 C 1029.81 -0.857812 -4.49895 0
M  V30 10867 N 1031.3 -0.81289 -4.56011 0
M  V30 10868 C 1032.04 -1.11898 -5.62376 0
M  V30 10869 N 1031.53 -1.49436 -6.76491 0
M  V30 10870 N 1033.32 -1.04174 -5.52362 0
M  V30 10871 H 1025.48 -1.33127 -1.65502 0
M  V30 10872 H 1027.74 -0.544172 -0.776261 0
M  V30 10873 H 1027.44 -1.50569 -3.1784 0
M  V30 10874 H 1027.32 0.141764 -3.76934 0
M  V30 10875 H 1029.71 0.599548 -2.88945 0
M  V30 10876 H 1029.79 -1.07427 -2.32149 0
M  V30 10877 H 1029.43 -1.88111 -4.7178 0
M  V30 10878 H 1029.36 -0.186419 -5.2627 0
M  V30 10879 H 1031.85 -0.536343 -3.74075 0
M  V30 10880 H 1032.16 -1.71217 -7.53594 0
M  V30 10881 H 1030.51 -1.53302 -6.77882 0
M  V30 10882 H 1033.7 -0.747654 -4.62091 0
M  V30 10883 H 1033.87 -1.28362 -6.35159 0
M  V30 10884 N 1027.28 1.57312 -0.0952337 0
M  V30 10885 C 1028.19 2.17556 0.877877 0
M  V30 10886 C 1029.21 1.14505 1.31014 0
M  V30 10887 O 1030.38 1.46876 1.37802 0
M  V30 10888 C 1027.45 2.74413 2.11892 0
M  V30 10889 C 1026.51 3.92419 1.74085 0
M  V30 10890 C 1025.74 4.46556 2.92273 0
M  V30 10891 O 1025.96 3.99631 4.07002 0
M  V30 10892 O 1024.9 5.37576 2.70732 0
M  V30 10893 H 1028.72 3.01116 0.395312 0
M  V30 10894 H 1026.31 1.48841 0.129123 0
M  V30 10895 H 1028.19 3.10754 2.84622 0
M  V30 10896 H 1026.87 1.93899 2.59201 0
M  V30 10897 H 1025.77 3.6089 0.985346 0
M  V30 10898 H 1027.11 4.74298 1.31539 0
M  V30 10899 N 1028.76 -0.17846 1.56586 0
M  V30 10900 C 1029.98 -0.916061 1.86073 0
M  V30 10901 C 1030.41 -1.75349 0.680754 0
M  V30 10902 O 1029.77 -1.77479 -0.37028 0
M  V30 10903 C 1029.81 -1.77445 3.1392 0
M  V30 10904 O 1028.92 -2.87524 2.95641 0
M  V30 10905 H 1028.26 -0.257031 0.612234 0
M  V30 10906 H 1030.79 -0.178755 2.03818 0
M  V30 10907 H 1030.8 -2.1758 3.45142 0
M  V30 10908 H 1029.47 -1.15927 3.99417 0
M  V30 10909 H 1028.05 -2.51023 2.75757 0
M  V30 10910 N 1030.24 -1.51135 -0.446768 0
M  V30 10911 C 1031.51 -1.5387 -1.20762 0
M  V30 10912 C 1031.89 -0.297446 -2.08994 0
M  V30 10913 O 1031.24 0.717975 -2.16927 0
M  V30 10914 C 1031.45 -2.84767 -2.01764 0
M  V30 10915 C 1032.8 -3.3636 -2.59128 0
M  V30 10916 O 1033.82 -2.86254 -2.11984 0
M  V30 10917 O 1032.68 -4.23765 -3.45088 0
M  V30 10918 H 1029.78 -0.618228 -0.549293 0
M  V30 10919 H 1032.32 -1.63442 -0.456605 0
M  V30 10920 H 1031.09 -3.6657 -1.36901 0
M  V30 10921 H 1030.72 -2.78313 -2.8395 0
M  V30 10922 N 1031.71 0.701592 -1.41122 0
M  V30 10923 C 1032.99 1.45569 -1.30648 0
M  V30 10924 C 1033.37 2.10988 0.068744 0
M  V30 10925 O 1032.72 2.01228 1.08257 0
M  V30 10926 C 1032.93 2.48003 -2.45551 0
M  V30 10927 C 1034.28 3.13431 -2.86437 0
M  V30 10928 O 1035.3 2.58327 -2.45247 0
M  V30 10929 O 1034.16 4.13221 -3.57646 0
M  V30 10930 H 1031.25 0.648 -0.513834 0
M  V30 10931 H 1033.8 0.73258 -1.53073 0
M  V30 10932 H 1032.57 1.98276 -3.37346 0
M  V30 10933 H 1032.19 3.27832 -2.24971 0
M  V30 10934 N 1033.19 1.2685 0.935242 0
M  V30 10935 C 1034.44 1.12745 1.68211 0
M  V30 10936 C 1034.77 -0.328128 1.91712 0
M  V30 10937 O 1034.02 -1.25701 1.49993 0
M  V30 10938 C 1034.32 1.8482 3.05903 0
M  V30 10939 C 1033.99 3.347 3.02137 0
M  V30 10940 C 1032.65 3.75583 3.00817 0
M  V30 10941 C 1035 4.30368 2.93995 0
M  V30 10942 C 1032.33 5.10511 2.89129 0
M  V30 10943 C 1034.68 5.65343 2.83848 0
M  V30 10944 C 1033.34 6.0553 2.80874 0
M  V30 10945 H 1032.61 0.412563 0.615527 0
M  V30 10946 H 1035.26 1.57366 1.09124 0
M  V30 10947 H 1033.57 1.32685 3.68649 0
M  V30 10948 H 1035.26 1.71341 3.62551 0
M  V30 10949 H 1031.85 3.02182 3.03947 0
M  V30 10950 H 1036.04 3.9976 2.94118 0
M  V30 10951 H 1031.29 5.40802 2.85208 0
M  V30 10952 H 1035.47 6.39151 2.76512 0
M  V30 10953 H 1033.09 7.10037 2.71573 0
M  V30 10954 N 1034.67 -1.14067 1.0875 0
M  V30 10955 C 1035.6 -2.21385 0.74236 0
M  V30 10956 C 1036.58 -1.67833 -0.276805 0
M  V30 10957 O 1037.77 -1.93647 -0.1464 0
M  V30 10958 C 1034.9 -3.46956 0.154644 0
M  V30 10959 C 1033.85 -4.13555 1.10255 0
M  V30 10960 C 1033.18 -5.3337 0.376877 0
M  V30 10961 C 1034.48 -4.6169 2.44213 0
M  V30 10962 H 1036.17 -2.50512 1.63964 0
M  V30 10963 H 1033.72 -1.20408 0.789807 0
M  V30 10964 H 1035.67 -4.21284 -0.0988419 0
M  V30 10965 H 1034.39 -3.17203 -0.777789 0
M  V30 10966 H 1033.05 -3.41186 1.34119 0
M  V30 10967 H 1032.7 -4.99879 -0.559472 0
M  V30 10968 H 1032.4 -5.78875 1.00884 0
M  V30 10969 H 1033.92 -6.10458 0.131527 0
M  V30 10970 H 1035.34 -5.27475 2.24595 0
M  V30 10971 H 1033.74 -5.17909 3.03134 0
M  V30 10972 H 1034.81 -3.76574 3.05483 0
M  V30 10973 N 1036.15 -0.873678 -1.31166 0
M  V30 10974 C 1037.4 -0.485497 -1.96182 0
M  V30 10975 C 1037.72 0.96621 -1.69379 0
M  V30 10976 O 1036.99 1.67783 -1.01121 0
M  V30 10977 H 1035.57 -0.176547 -0.725838 0
M  V30 10978 H 1038.23 -1.11428 -1.59906 0
M  V30 10979 H 1037.33 -0.646325 -3.05334 0
M  V30 10980 N 1037.63 1.44308 -0.633487 0
M  V30 10981 C 1038.56 2.28943 0.108474 0
M  V30 10982 C 1039.57 1.41415 0.806582 0
M  V30 10983 O 1040.76 1.65544 0.667634 0
M  V30 10984 C 1037.86 3.17845 1.1759 0
M  V30 10985 C 1037.03 4.33802 0.559842 0
M  V30 10986 C 1036.09 5.03722 1.52154 0
M  V30 10987 O 1035.12 5.5966 1.03776 0
M  V30 10988 N 1036.32 5.05392 2.85586 0
M  V30 10989 H 1039.09 2.93262 -0.617879 0
M  V30 10990 H 1036.65 1.54781 -0.474819 0
M  V30 10991 H 1038.64 3.61485 1.81963 0
M  V30 10992 H 1037.21 2.55261 1.80445 0
M  V30 10993 H 1036.43 3.93325 -0.262559 0
M  V30 10994 H 1037.72 5.08637 0.128942 0
M  V30 10995 H 1037.11 4.61282 3.27468 0
M  V30 10996 H 1035.67 5.52813 3.45313 0
M  V30 10997 N 1039.1 0.374177 1.53094 0
M  V30 10998 C 1040.33 -0.213325 2.05797 0
M  V30 10999 C 1040.75 -1.41753 1.24706 0
M  V30 11000 O 1040.1 -1.80183 0.289868 0
M  V30 11001 C 1040.16 -0.598367 3.56513 0
M  V30 11002 O 1039.88 0.557983 4.34532 0
M  V30 11003 C 1041.38 -1.24334 4.25507 0
M  V30 11004 H 1038.6 -0.0357398 0.670048 0
M  V30 11005 H 1041.14 0.535035 1.97377 0
M  V30 11006 H 1039.3 -1.29663 3.65056 0
M  V30 11007 H 1039.71 0.244911 5.23928 0
M  V30 11008 H 1041.18 -1.46325 5.32253 0
M  V30 11009 H 1041.66 -2.20622 3.79766 0
M  V30 11010 H 1042.27 -0.586269 4.2124 0
M  V30 11011 N 1040.58 -1.57259 0.103575 0
M  V30 11012 C 1041.83 -1.93832 -0.55786 0
M  V30 11013 C 1042.14 -0.988087 -1.68808 0
M  V30 11014 O 1043.35 -1.24786 -2.41124 0
M  V30 11015 C 1041.81 -3.44433 -1.04373 0
M  V30 11016 C 1041.41 -4.47963 0.0571971 0
M  V30 11017 C 1043.16 -3.89953 -1.67742 0
M  V30 11018 C 1041.07 -5.89727 -0.444505 0
M  V30 11019 H 1040 -0.723536 -0.212161 0
M  V30 11020 H 1042.65 -1.82606 0.180944 0
M  V30 11021 H 1041.03 -3.50841 -1.83648 0
M  V30 11022 H 1042.2 -4.53209 0.83298 0
M  V30 11023 H 1040.52 -4.12104 0.596588 0
M  V30 11024 H 1043.11 -4.93272 -2.06365 0
M  V30 11025 H 1043.46 -3.2907 -2.54988 0
M  V30 11026 H 1043.99 -3.86281 -0.950342 0
M  V30 11027 H 1040.73 -6.5433 0.391543 0
M  V30 11028 H 1040.25 -5.87935 -1.18711 0
M  V30 11029 H 1041.93 -6.40558 -0.910739 0
M  V30 11030 N 1042.06 0.170153 -1.56679 0
M  V30 11031 C 1043.31 0.884902 -1.81252 0
M  V30 11032 C 1043.62 1.83361 -0.681024 0
M  V30 11033 O 1044.83 2.59082 -0.811722 0
M  V30 11034 C 1043.28 1.62408 -3.21172 0
M  V30 11035 C 1042.89 0.718947 -4.42194 0
M  V30 11036 C 1044.64 2.32699 -3.55037 0
M  V30 11037 C 1042.54 1.45843 -5.73135 0
M  V30 11038 H 1041.47 0.33418 -0.675899 0
M  V30 11039 H 1044.12 0.137818 -1.82982 0
M  V30 11040 H 1042.51 2.41596 -3.13763 0
M  V30 11041 H 1043.68 -0.0360521 -4.60786 0
M  V30 11042 H 1042 0.125634 -4.1621 0
M  V30 11043 H 1044.59 2.88621 -4.50114 0
M  V30 11044 H 1044.94 3.08092 -2.79974 0
M  V30 11045 H 1045.47 1.60453 -3.64005 0
M  V30 11046 H 1042.21 0.746799 -6.51232 0
M  V30 11047 H 1041.73 2.18672 -5.58518 0
M  V30 11048 H 1043.41 2.0056 -6.1513 0
M  V30 11049 N 1043.54 1.5137 0.438746 0
M  V30 11050 C 1044.45 1.75424 1.55768 0
M  V30 11051 C 1045.46 0.638409 1.61865 0
M  V30 11052 O 1046.64 0.9205 1.79133 0
M  V30 11053 C 1043.71 1.87288 2.9176 0
M  V30 11054 C 1042.77 3.11137 2.95791 0
M  V30 11055 C 1042 3.22425 4.25297 0
M  V30 11056 O 1042.22 2.39688 5.17596 0
M  V30 11057 O 1041.16 4.15393 4.35583 0
M  V30 11058 H 1044.98 2.70339 1.38386 0
M  V30 11059 H 1042.57 1.35854 0.621609 0
M  V30 11060 H 1044.45 1.97085 3.72472 0
M  V30 11061 H 1043.12 0.955599 3.09273 0
M  V30 11062 H 1042.03 3.06819 2.1404 0
M  V30 11063 H 1043.36 4.02549 2.83223 0
M  V30 11064 N 1045.02 -0.694098 1.41492 0
M  V30 11065 C 1046.26 -1.4563 1.41137 0
M  V30 11066 C 1046.6 -1.94189 0.0208428 0
M  V30 11067 O 1045.87 -1.69628 -0.951655 0
M  V30 11068 C 1046.15 -2.66714 2.41941 0
M  V30 11069 C 1046.01 -2.23912 3.90107 0
M  V30 11070 C 1047.33 -3.68913 2.39981 0
M  V30 11071 H 1044.44 -0.52821 0.513968 0
M  V30 11072 H 1047.09 -0.790437 1.72778 0
M  V30 11073 H 1045.24 -3.23525 2.1509 0
M  V30 11074 H 1046.91 -1.72417 4.27867 0
M  V30 11075 H 1045.15 -1.5568 4.04903 0
M  V30 11076 H 1045.82 -3.108 4.56188 0
M  V30 11077 H 1048.3 -3.21779 2.63813 0
M  V30 11078 H 1047.17 -4.51242 3.12524 0
M  V30 11079 H 1047.44 -4.18711 1.41892 0
M  V30 11080 N 1046.49 -1.27344 -0.928501 0
M  V30 11081 C 1047.91 -1.04732 -1.2043 0
M  V30 11082 C 1048.11 0.219623 -2.003 0
M  V30 11083 O 1047.17 0.925333 -2.34934 0
M  V30 11084 C 1048.48 -2.28625 -1.95323 0
M  V30 11085 C 1050.03 -2.33655 -2.08265 0
M  V30 11086 C 1050.5 -3.57275 -2.86563 0
M  V30 11087 N 1051.99 -3.57828 -2.94132 0
M  V30 11088 C 1052.73 -4.50152 -3.55177 0
M  V30 11089 N 1052.22 -5.52779 -4.17621 0
M  V30 11090 N 1054.02 -4.37777 -3.52573 0
M  V30 11091 H 1046.17 -2.08697 -0.394892 0
M  V30 11092 H 1048.43 -0.91782 -0.2373 0
M  V30 11093 H 1048.14 -3.20845 -1.44054 0
M  V30 11094 H 1048.01 -2.33878 -2.95941 0
M  V30 11095 H 1050.4 -1.41942 -2.58721 0
M  V30 11096 H 1050.48 -2.32406 -1.0687 0
M  V30 11097 H 1050.12 -4.49325 -2.3679 0
M  V30 11098 H 1050.05 -3.55775 -3.88242 0
M  V30 11099 H 1052.54 -2.83607 -2.49751 0
M  V30 11100 H 1052.86 -6.19394 -4.62137 0
M  V30 11101 H 1051.2 -5.56622 -4.16169 0
M  V30 11102 H 1054.39 -3.56811 -3.02991 0
M  V30 11103 H 1054.57 -5.09919 -3.99858 0
M  V30 11104 N 1047.97 1.13488 -1.09353 0
M  V30 11105 C 1049.2 1.88592 -0.850915 0
M  V30 11106 C 1049.62 1.79087 0.597761 0
M  V30 11107 O 1048.97 1.15695 1.41142 0
M  V30 11108 C 1049.02 3.38219 -1.27633 0
M  V30 11109 O 1048.74 3.47476 -2.66819 0
M  V30 11110 C 1050.25 4.30293 -1.06598 0
M  V30 11111 H 1047.47 0.597069 -0.306185 0
M  V30 11112 H 1050.01 1.43668 -1.45533 0
M  V30 11113 H 1048.16 3.80729 -0.715828 0
M  V30 11114 H 1048.58 4.40485 -2.84733 0
M  V30 11115 H 1050.05 5.33611 -1.41293 0
M  V30 11116 H 1050.53 4.392 -0.0037135 0
M  V30 11117 H 1051.14 3.9355 -1.6124 0
M  V30 11118 N 1049.45 0.880621 1.30701 0
M  V30 11119 C 1050.38 0.360251 2.30704 0
M  V30 11120 C 1051.36 -0.554572 1.60806 0
M  V30 11121 O 1052.55 -0.469345 1.88443 0
M  V30 11122 C 1049.68 -0.429888 3.44629 0
M  V30 11123 C 1048.63 0.392786 4.26194 0
M  V30 11124 C 1047.96 -0.52369 5.32129 0
M  V30 11125 C 1049.26 1.63258 4.96129 0
M  V30 11126 H 1050.95 1.19591 2.74478 0
M  V30 11127 H 1048.5 0.576508 1.31956 0
M  V30 11128 H 1050.45 -0.804532 4.13649 0
M  V30 11129 H 1049.17 -1.29916 2.99649 0
M  V30 11130 H 1047.83 0.749514 3.58856 0
M  V30 11131 H 1047.48 -1.39054 4.83397 0
M  V30 11132 H 1047.18 0.0229272 5.87596 0
M  V30 11133 H 1048.71 -0.894946 6.04006 0
M  V30 11134 H 1050.12 1.32877 5.57689 0
M  V30 11135 H 1048.52 2.11906 5.61441 0
M  V30 11136 H 1049.59 2.37944 4.22505 0
M  V30 11137 N 1050.93 -1.4397 0.641131 0
M  V30 11138 C 1052.15 -2.06818 0.155318 0
M  V30 11139 C 1052.58 -1.47665 -1.16519 0
M  V30 11140 O 1051.94 -0.58192 -1.71707 0
M  V30 11141 C 1051.99 -3.60542 0.0647537 0
M  V30 11142 O 1051.09 -4.00674 -0.976447 0
M  V30 11143 H 1050.43 -0.657962 0.0893404 0
M  V30 11144 H 1052.96 -1.84678 0.88064 0
M  V30 11145 H 1052.97 -4.07816 -0.122552 0
M  V30 11146 H 1051.65 -4.02975 1.02878 0
M  V30 11147 H 1050.22 -3.65013 -0.762905 0
M  V30 11148 N 1052.41 -0.382291 -1.52893 0
M  V30 11149 C 1053.66 0.201734 -2.01091 0
M  V30 11150 C 1053.98 1.47905 -1.2708 0
M  V30 11151 O 1053.25 1.92002 -0.38883 0
M  V30 11152 H 1051.83 0.0775373 -0.742965 0
M  V30 11153 H 1054.49 -0.512369 -1.88045 0
M  V30 11154 H 1053.58 0.416919 -3.09303 0
M  V30 11155 N 1053.89 1.57202 -0.111913 0
M  V30 11156 C 1054.8 2.18475 0.854753 0
M  V30 11157 C 1055.81 1.15888 1.29792 0
M  V30 11158 O 1056.99 1.48329 1.36237 0
M  V30 11159 C 1054.05 2.76645 2.0897 0
M  V30 11160 C 1053.11 3.94244 1.69913 0
M  V30 11161 C 1052.35 4.49631 2.8752 0
M  V30 11162 O 1052.57 4.03926 4.02741 0
M  V30 11163 O 1051.5 5.40417 2.65015 0
M  V30 11164 H 1055.33 3.01519 0.363352 0
M  V30 11165 H 1052.91 1.4897 0.113329 0
M  V30 11166 H 1054.8 3.13755 2.81311 0
M  V30 11167 H 1053.47 1.96637 2.5713 0
M  V30 11168 H 1052.38 3.61915 0.947013 0
M  V30 11169 H 1053.71 4.75666 1.26501 0
M  V30 11170 N 1055.36 -0.161842 1.56767 0
M  V30 11171 C 1056.3 -1.22927 1.9226 0
M  V30 11172 C 1057.27 -1.42309 0.786562 0
M  V30 11173 O 1058.46 -1.57163 1.04078 0
M  V30 11174 C 1055.59 -2.59069 2.18177 0
M  V30 11175 C 1054.63 -2.56368 3.40849 0
M  V30 11176 S 1055.46 -2.04518 4.94907 0
M  V30 11177 C 1056.62 -3.42418 5.23928 0
M  V30 11178 H 1056.85 -0.926377 2.82499 0
M  V30 11179 H 1054.39 -0.366822 1.49979 0
M  V30 11180 H 1056.34 -3.37421 2.33789 0
M  V30 11181 H 1055.01 -2.86554 1.28629 0
M  V30 11182 H 1054.2 -3.56551 3.56213 0
M  V30 11183 H 1053.8 -1.86116 3.24402 0
M  V30 11184 H 1056.09 -4.38461 5.16486 0
M  V30 11185 H 1057.04 -3.3192 6.25487 0
M  V30 11186 H 1057.44 -3.38868 4.51474 0
M  V30 11187 N 1056.84 -1.516 -0.430713 0
M  V30 11188 C 1058.12 -1.55142 -1.19123 0
M  V30 11189 C 1058.5 -0.319596 -2.08667 0
M  V30 11190 O 1057.85 0.694927 -2.17676 0
M  V30 11191 C 1058.06 -2.86891 -1.98732 0
M  V30 11192 C 1059.4 -3.39089 -2.55546 0
M  V30 11193 O 1060.43 -2.88486 -2.08936 0
M  V30 11194 O 1059.29 -4.27401 -3.40574 0
M  V30 11195 H 1056.38 -0.624019 -0.542705 0
M  V30 11196 H 1058.93 -1.63917 -0.439244 0
M  V30 11197 H 1057.7 -3.68002 -1.33005 0
M  V30 11198 H 1057.32 -2.81309 -2.80982 0
M  V30 11199 N 1058.32 0.686584 -1.41858 0
M  V30 11200 C 1059.57 1.44879 -1.41908 0
M  V30 11201 C 1059.9 1.94175 -0.0311408 0
M  V30 11202 O 1059.17 1.70131 0.942646 0
M  V30 11203 C 1059.46 2.65428 -2.43352 0
M  V30 11204 C 1059.31 2.2184 -3.91289 0
M  V30 11205 C 1060.63 3.67635 -2.41934 0
M  V30 11206 H 1057.75 0.525477 -0.516762 0
M  V30 11207 H 1060.39 0.781263 -1.73194 0
M  V30 11208 H 1058.54 3.2238 -2.16803 0
M  V30 11209 H 1060.21 1.70146 -4.28775 0
M  V30 11210 H 1058.45 1.53531 -4.05722 0
M  V30 11211 H 1059.13 3.08376 -4.5783 0
M  V30 11212 H 1061.6 3.20376 -2.65516 0
M  V30 11213 H 1060.48 4.49579 -3.14913 0
M  V30 11214 H 1060.74 4.17953 -1.44111 0
M  V30 11215 N 1059.8 1.27835 0.921735 0
M  V30 11216 C 1061.04 1.15702 1.67286 0
M  V30 11217 C 1061.4 -0.293049 1.90155 0
M  V30 11218 O 1060.69 -1.21058 1.48511 0
M  V30 11219 C 1060.89 1.88054 3.03925 0
M  V30 11220 C 1060.71 3.39947 2.94391 0
M  V30 11221 C 1059.48 4.09275 2.96347 0
M  V30 11222 C 1061.68 4.35824 2.7306 0
M  V30 11223 N 1059.66 5.47694 2.77317 0
M  V30 11224 C 1061.04 5.61551 2.62794 0
M  V30 11225 C 1063.09 4.25844 2.57994 0
M  V30 11226 C 1061.79 6.78434 2.38998 0
M  V30 11227 C 1063.82 5.42455 2.35577 0
M  V30 11228 C 1063.18 6.67141 2.26058 0
M  V30 11229 H 1059.28 0.478278 0.618687 0
M  V30 11230 H 1061.86 1.61382 1.08922 0
M  V30 11231 H 1060.04 1.4482 3.60391 0
M  V30 11232 H 1061.77 1.68374 3.68011 0
M  V30 11233 H 1058.52 3.6079 3.06802 0
M  V30 11234 H 1058.95 6.2043 2.70916 0
M  V30 11235 H 1063.59 3.30161 2.64109 0
M  V30 11236 H 1061.31 7.74194 2.31623 0
M  V30 11237 H 1064.89 5.36617 2.24796 0
M  V30 11238 H 1063.77 7.55851 2.08947 0
M  V30 11239 N 1061.28 -1.12907 1.09954 0
M  V30 11240 C 1062.51 -1.87866 0.859656 0
M  V30 11241 C 1062.91 -1.79664 -0.593096 0
M  V30 11242 O 1062.26 -1.16499 -1.42034 0
M  V30 11243 C 1062.32 -3.38055 1.22308 0
M  V30 11244 C 1061.98 -3.70035 2.68185 0
M  V30 11245 C 1062.98 -3.68817 3.66428 0
M  V30 11246 C 1060.66 -3.99523 3.04444 0
M  V30 11247 C 1062.66 -3.96639 4.98955 0
M  V30 11248 C 1060.35 -4.27006 4.37161 0
M  V30 11249 C 1061.34 -4.25549 5.34225 0
M  V30 11250 O 1061.03 -4.52354 6.64553 0
M  V30 11251 H 1060.76 -0.601425 0.308649 0
M  V30 11252 H 1063.32 -1.43817 1.46649 0
M  V30 11253 H 1061.55 -3.82634 0.559322 0
M  V30 11254 H 1063.24 -3.94348 0.961479 0
M  V30 11255 H 1064 -3.46104 3.3976 0
M  V30 11256 H 1059.88 -3.99801 2.29521 0
M  V30 11257 H 1063.43 -3.95418 5.74709 0
M  V30 11258 H 1059.32 -4.49192 4.6357 0
M  V30 11259 H 1060.09 -4.69997 6.70108 0
M  V30 11260 N 1062.75 -0.88754 -1.30232 0
M  V30 11261 C 1063.7 -0.345765 -2.30016 0
M  V30 11262 C 1064.7 0.5486 -1.60271 0
M  V30 11263 O 1065.9 0.43275 -1.74721 0
M  V30 11264 H 1062.28 -0.0931623 -0.746207 0
M  V30 11265 H 1064.25 -1.20095 -2.73166 0
M  V30 11266 C 1063 0.422435 -3.45124 0
M  V30 11267 H 1062.32 -0.256516 -3.98976 0
M  V30 11268 H 1063.76 0.766572 -4.17013 0
M  V30 11269 C 1062.22 1.62049 -2.95367 0
M  V30 11270 O 1062.75 2.71985 -2.95613 0
M  V30 11271 N 1060.95 1.45852 -2.51347 0
M  V30 11272 H 1060.5 0.564158 -2.51346 0
M  V30 11273 H 1060.46 2.26148 -2.18413 0
M  V30 11274 N 1064.23 1.43628 -0.648757 0
M  V30 11275 C 1065.16 2.33478 0.0320785 0
M  V30 11276 C 1066.14 1.49217 0.816605 0
M  V30 11277 O 1067.33 1.77892 0.778974 0
M  V30 11278 C 1064.46 3.32525 1.00222 0
M  V30 11279 C 1063.41 4.2674 0.328119 0
M  V30 11280 C 1062.74 5.15791 1.4094 0
M  V30 11281 C 1064.04 5.16493 -0.776701 0
M  V30 11282 H 1065.73 2.90657 -0.718257 0
M  V30 11283 H 1063.28 1.3976 -0.346852 0
M  V30 11284 H 1065.23 3.94277 1.4874 0
M  V30 11285 H 1063.96 2.73593 1.78366 0
M  V30 11286 H 1062.61 3.66346 -0.136569 0
M  V30 11287 H 1062.26 4.53201 2.18216 0
M  V30 11288 H 1061.96 5.79645 0.963631 0
M  V30 11289 H 1063.49 5.80416 1.89603 0
M  V30 11290 H 1064.9 5.7208 -0.373878 0
M  V30 11291 H 1063.3 5.89043 -1.14667 0
M  V30 11292 H 1064.37 4.56448 -1.63654 0
M  V30 11293 N 1065.71 0.390394 1.52688 0
M  V30 11294 C 1066.62 -0.451543 2.30213 0
M  V30 11295 C 1067.64 -1.07051 1.37172 0
M  V30 11296 O 1068.81 -1.07609 1.70242 0
M  V30 11297 C 1065.88 -1.56299 3.0947 0
M  V30 11298 C 1064.94 -0.969017 4.18221 0
M  V30 11299 C 1064.17 -2.0275 4.93688 0
M  V30 11300 O 1064.39 -3.24273 4.69258 0
M  V30 11301 O 1063.33 -1.64418 5.79008 0
M  V30 11302 H 1067.15 0.180042 3.03166 0
M  V30 11303 H 1064.74 0.154082 1.48603 0
M  V30 11304 H 1066.62 -2.20864 3.58883 0
M  V30 11305 H 1065.3 -2.17952 2.3933 0
M  V30 11306 H 1064.2 -0.286587 3.73001 0
M  V30 11307 H 1065.54 -0.396687 4.90599 0
M  V30 11308 N 1067.19 -1.57141 0.120249 0
M  V30 11309 C 1068.14 -2.15379 -0.829497 0
M  V30 11310 C 1069.11 -1.07913 -1.2627 0
M  V30 11311 O 1070.29 -1.35827 -1.33999 0
M  V30 11312 C 1067.43 -2.75847 -2.0737 0
M  V30 11313 C 1066.54 -3.97624 -1.68875 0
M  V30 11314 C 1065.68 -4.46175 -2.88272 0
M  V30 11315 C 1064.72 -5.60481 -2.46023 0
M  V30 11316 N 1063.85 -6.0377 -3.58337 0
M  V30 11317 H 1068.69 -2.96211 -0.326031 0
M  V30 11318 H 1066.23 -1.46341 -0.149235 0
M  V30 11319 H 1068.19 -3.09037 -2.80272 0
M  V30 11320 H 1066.82 -1.97703 -2.55174 0
M  V30 11321 H 1065.87 -3.70588 -0.858431 0
M  V30 11322 H 1067.18 -4.80512 -1.33827 0
M  V30 11323 H 1066.34 -4.8128 -3.69397 0
M  V30 11324 H 1065.08 -3.6224 -3.26548 0
M  V30 11325 H 1064.08 -5.24979 -1.63331 0
M  V30 11326 H 1065.31 -6.46184 -2.08863 0
M  V30 11327 H 1063.25 -5.22776 -3.96284 0
M  V30 11328 H 1063.17 -6.81517 -3.27217 0
M  V30 11329 H 1064.44 -6.43514 -4.39898 0
M  V30 11330 N 1068.67 0.153526 -1.5685 0
M  V30 11331 C 1070.08 0.505939 -1.51368 0
M  V30 11332 C 1070.28 1.83721 -0.82757 0
M  V30 11333 O 1069.34 2.49385 -0.395364 0
M  V30 11334 C 1070.65 0.522269 -2.9613 0
M  V30 11335 C 1072.2 0.608238 -3.07033 0
M  V30 11336 C 1072.67 0.655292 -4.53288 0
M  V30 11337 N 1074.17 0.717695 -4.57606 0
M  V30 11338 C 1074.9 0.774977 -5.68139 0
M  V30 11339 N 1074.4 0.792003 -6.88258 0
M  V30 11340 N 1076.19 0.81536 -5.56155 0
M  V30 11341 H 1068.34 -0.71919 -1.99853 0
M  V30 11342 H 1070.6 -0.261466 -0.91123 0
M  V30 11343 H 1070.31 -0.387595 -3.49558 0
M  V30 11344 H 1070.18 1.3625 -3.51733 0
M  V30 11345 H 1072.57 1.50852 -2.53629 0
M  V30 11346 H 1072.65 -0.259014 -2.54485 0
M  V30 11347 H 1072.3 -0.240809 -5.07329 0
M  V30 11348 H 1072.23 1.53894 -5.03611 0
M  V30 11349 H 1074.72 0.7121 -3.7113 0
M  V30 11350 H 1075.03 0.837378 -7.6825 0
M  V30 11351 H 1073.37 0.759986 -6.90832 0
M  V30 11352 H 1076.57 0.799183 -4.61227 0
M  V30 11353 H 1076.74 0.856537 -6.42314 0
M  V30 11354 N 1070.14 1.51827 0.422667 0
M  V30 11355 C 1071.37 1.69049 1.1929 0
M  V30 11356 C 1071.79 0.394095 1.84641 0
M  V30 11357 O 1071.14 -0.628731 1.71328 0
M  V30 11358 C 1071.2 2.81657 2.26609 0
M  V30 11359 O 1070.92 4.06275 1.63929 0
M  V30 11360 C 1072.42 3.10274 3.16615 0
M  V30 11361 H 1069.64 0.566894 0.358988 0
M  V30 11362 H 1072.18 1.98318 0.499029 0
M  V30 11363 H 1070.34 2.54945 2.91688 0
M  V30 11364 H 1070.75 4.68924 2.3497 0
M  V30 11365 H 1072.22 3.92613 3.88019 0
M  V30 11366 H 1072.7 2.23273 3.78214 0
M  V30 11367 H 1073.31 3.387 2.57221 0
M  V30 11368 N 1071.62 -0.679052 1.4222 0
M  V30 11369 C 1072.9 -1.43473 1.32947 0
M  V30 11370 C 1073.28 -2.11071 -0.0351689 0
M  V30 11371 O 1072.63 -2.02925 -1.05042 0
M  V30 11372 C 1072.84 -2.44065 2.49466 0
M  V30 11373 C 1074.19 -3.08834 2.91387 0
M  V30 11374 O 1075.21 -2.54392 2.49325 0
M  V30 11375 O 1074.07 -4.07478 3.64175 0
M  V30 11376 H 1071.16 -0.639743 0.524078 0
M  V30 11377 H 1073.71 -0.708134 1.54219 0
M  V30 11378 H 1072.48 -1.92884 3.40457 0
M  V30 11379 H 1072.1 -3.24212 2.30158 0
M  V30 11380 N 1073.1 -1.28322 -0.914942 0
M  V30 11381 C 1074.05 -1.12146 -2.01722 0
M  V30 11382 C 1075.02 -0.0189279 -1.66089 0
M  V30 11383 O 1076.2 -0.183638 -1.89914 0
M  V30 11384 C 1073.34 -0.78808 -3.35981 0
M  V30 11385 C 1072.46 -1.96954 -3.84491 0
M  V30 11386 C 1071.59 -1.57688 -5.07255 0
M  V30 11387 C 1070.63 -2.72506 -5.48094 0
M  V30 11388 N 1069.77 -2.33741 -6.62049 0
M  V30 11389 H 1074.61 -2.06461 -2.1489 0
M  V30 11390 H 1072.14 -1.0276 -1.05256 0
M  V30 11391 H 1074.1 -0.575546 -4.13211 0
M  V30 11392 H 1072.73 0.118132 -3.22584 0
M  V30 11393 H 1071.78 -2.29423 -3.03429 0
M  V30 11394 H 1073.1 -2.8304 -4.10719 0
M  V30 11395 H 1072.25 -1.32634 -5.92025 0
M  V30 11396 H 1070.99 -0.687291 -4.82833 0
M  V30 11397 H 1069.99 -2.9826 -4.61867 0
M  V30 11398 H 1071.22 -3.62106 -5.74505 0
M  V30 11399 H 1069.16 -1.4725 -6.3926 0
M  V30 11400 H 1069.08 -3.13364 -6.87997 0
M  V30 11401 H 1070.35 -2.11968 -7.50127 0
M  V30 11402 N 1074.58 1.12322 -1.10551 0
M  V30 11403 C 1075.8 1.8822 -0.871093 0
M  V30 11404 C 1076.23 1.7916 0.573005 0
M  V30 11405 O 1075.59 1.14738 1.40374 0
M  V30 11406 C 1075.63 3.35349 -1.32565 0
M  V30 11407 O 1074.74 4.09461 -0.49145 0
M  V30 11408 H 1074.08 0.584787 -0.314516 0
M  V30 11409 H 1076.61 1.42039 -1.47262 0
M  V30 11410 H 1076.62 3.86189 -1.31612 0
M  V30 11411 H 1075.29 3.4126 -2.37728 0
M  V30 11412 H 1073.87 3.68575 -0.566294 0
M  V30 11413 N 1076.06 0.894434 1.2976 0
M  V30 11414 C 1077.02 0.373094 2.26143 0
M  V30 11415 C 1078.02 -0.489756 1.5316 0
M  V30 11416 O 1079.21 -0.29556 1.71674 0
M  V30 11417 C 1076.34 -0.467234 3.37683 0
M  V30 11418 H 1077.53 1.22427 2.73773 0
M  V30 11419 H 1075.09 0.672112 1.41111 0
M  V30 11420 H 1075.82 -1.33861 2.95384 0
M  V30 11421 H 1075.61 0.150954 3.91809 0
M  V30 11422 H 1077.1 -0.823469 4.094 0
M  V30 11423 N 1077.53 -1.43282 0.656365 0
M  V30 11424 C 1078.78 -2.02075 0.171293 0
M  V30 11425 C 1079.11 -1.51682 -1.21269 0
M  V30 11426 O 1078.39 -0.711243 -1.81029 0
M  V30 11427 C 1078.67 -3.59621 0.185602 0
M  V30 11428 C 1078.52 -4.20239 1.60373 0
M  V30 11429 C 1079.84 -4.37515 -0.476289 0
M  V30 11430 H 1076.96 -0.73424 0.0637185 0
M  V30 11431 H 1079.6 -1.70539 0.837648 0
M  V30 11432 H 1077.75 -3.86619 -0.381804 0
M  V30 11433 H 1079.43 -4.0426 2.22197 0
M  V30 11434 H 1077.67 -3.76769 2.15006 0
M  V30 11435 H 1078.34 -5.29333 1.56557 0
M  V30 11436 H 1080.82 -4.16099 0.00651073 0
M  V30 11437 H 1079.69 -5.47169 -0.435562 0
M  V30 11438 H 1079.95 -4.14003 -1.55093 0
M  V30 11439 N 1079.01 -0.398486 -1.52479 0
M  V30 11440 C 1080.24 0.183059 -2.06591 0
M  V30 11441 C 1080.66 1.3898 -1.26753 0
M  V30 11442 O 1080.02 1.78885 -0.294959 0
M  V30 11443 C 1080.07 0.522392 -3.56796 0
M  V30 11444 O 1079.17 1.61499 -3.79462 0
M  V30 11445 H 1078.51 0.0188411 -0.663733 0
M  V30 11446 H 1081.04 -0.56861 -1.9654 0
M  V30 11447 H 1081.05 0.784078 -4.00395 0
M  V30 11448 H 1079.73 -0.359807 -4.14341 0
M  V30 11449 H 1078.31 1.3463 -3.47749 0
M  V30 11450 N 1080.49 1.57075 -0.12858 0
M  V30 11451 C 1081.74 1.95134 0.526046 0
M  V30 11452 C 1082.06 1.01337 1.66601 0
M  V30 11453 O 1081.33 0.0714361 1.9577 0
M  V30 11454 H 1079.91 0.720468 0.19732 0
M  V30 11455 H 1082.57 1.93874 -0.199767 0
M  V30 11456 H 1081.67 2.98406 0.914332 0
M  V30 11457 N 1081.97 -0.145205 1.5693 0
M  V30 11458 C 1082.93 -1.16316 1.97492 0
M  V30 11459 C 1083.93 -1.35764 0.861668 0
M  V30 11460 O 1085.12 -1.32726 1.12825 0
M  V30 11461 C 1082.25 -2.52311 2.29242 0
M  V30 11462 H 1083.45 -0.815138 2.8861 0
M  V30 11463 H 1081 -0.38861 1.51392 0
M  V30 11464 H 1081.74 -2.92081 1.40922 0
M  V30 11465 H 1081.52 -2.39555 3.10412 0
M  V30 11466 H 1083.01 -3.25624 2.61456 0
M  V30 11467 N 1083.45 -1.52049 -0.414609 0
M  V30 11468 C 1084.7 -1.65067 -1.15912 0
M  V30 11469 C 1085.01 -0.383969 -1.91794 0
M  V30 11470 O 1086.22 -0.393872 -2.68628 0
M  V30 11471 C 1084.67 -2.91611 -2.1093 0
M  V30 11472 C 1084.28 -4.25369 -1.4059 0
M  V30 11473 C 1086.02 -3.13992 -2.85674 0
M  V30 11474 C 1083.93 -5.43041 -2.34223 0
M  V30 11475 H 1082.86 -0.614884 -0.436387 0
M  V30 11476 H 1085.51 -1.78533 -0.424072 0
M  V30 11477 H 1083.89 -2.71831 -2.87965 0
M  V30 11478 H 1085.07 -4.55611 -0.689568 0
M  V30 11479 H 1083.38 -4.09047 -0.779088 0
M  V30 11480 H 1085.98 -3.99082 -3.55861 0
M  V30 11481 H 1086.32 -2.27998 -3.48314 0
M  V30 11482 H 1086.86 -3.34217 -2.1574 0
M  V30 11483 H 1083.59 -6.31364 -1.76238 0
M  V30 11484 H 1083.11 -5.17144 -3.03845 0
M  V30 11485 H 1084.79 -5.75901 -2.94868 0
M  V30 11486 N 1084.93 0.6715 -1.42579 0
M  V30 11487 C 1086.34 0.985019 -1.25577 0
M  V30 11488 C 1086.54 2.00845 -0.162319 0
M  V30 11489 O 1085.6 2.48175 0.465352 0
M  V30 11490 C 1086.91 1.48668 -2.61377 0
M  V30 11491 C 1088.46 1.60429 -2.68759 0
M  V30 11492 C 1088.93 2.13991 -4.04935 0
M  V30 11493 N 1090.42 2.21319 -4.06906 0
M  V30 11494 C 1091.16 2.63845 -5.09091 0
M  V30 11495 N 1090.66 3.05799 -6.21658 0
M  V30 11496 N 1092.45 2.63623 -4.96447 0
M  V30 11497 H 1084.6 -0.00604561 -2.12399 0
M  V30 11498 H 1086.86 0.0598299 -0.94611 0
M  V30 11499 H 1086.57 0.80917 -3.42265 0
M  V30 11500 H 1086.44 2.46487 -2.85524 0
M  V30 11501 H 1088.83 2.27286 -1.88216 0
M  V30 11502 H 1088.91 0.610909 -2.48398 0
M  V30 11503 H 1088.55 1.47741 -4.85937 0
M  V30 11504 H 1088.48 3.14126 -4.2265 0
M  V30 11505 H 1090.98 1.91743 -3.25643 0
M  V30 11506 H 1091.29 3.36944 -6.95477 0
M  V30 11507 H 1089.63 3.03648 -6.25158 0
M  V30 11508 H 1092.82 2.30211 -4.07579 0
M  V30 11509 H 1093 2.96444 -5.76216 0
M  V30 11510 N 1086.4 1.28806 0.908124 0
M  V30 11511 C 1087.33 1.15758 2.02787 0
M  V30 11512 C 1088.31 0.053911 1.70015 0
M  V30 11513 O 1089.5 0.231901 1.9281 0
M  V30 11514 C 1086.63 0.824526 3.37371 0
M  V30 11515 C 1085.58 1.88359 3.84324 0
M  V30 11516 C 1084.91 1.40404 5.15937 0
M  V30 11517 C 1086.21 3.29108 4.05568 0
M  V30 11518 H 1087.9 2.09431 2.13961 0
M  V30 11519 H 1085.45 1.00831 1.02806 0
M  V30 11520 H 1087.4 0.71999 4.15204 0
M  V30 11521 H 1086.13 -0.147902 3.26265 0
M  V30 11522 H 1084.79 1.97736 3.087 0
M  V30 11523 H 1084.43 0.420515 5.01239 0
M  V30 11524 H 1084.13 2.11224 5.48323 0
M  V30 11525 H 1085.66 1.31283 5.9632 0
M  V30 11526 H 1087.07 3.2262 4.73909 0
M  V30 11527 H 1085.47 3.97812 4.49294 0
M  V30 11528 H 1086.54 3.72709 3.10187 0
M  V30 11529 N 1087.88 -1.11734 1.11145 0
M  V30 11530 C 1088.81 -2.17438 0.724804 0
M  V30 11531 C 1089.83 -1.6099 -0.242069 0
M  V30 11532 O 1091.02 -1.78482 -0.0254259 0
M  V30 11533 C 1088.12 -3.38863 0.050004 0
M  V30 11534 C 1087.29 -4.24785 1.04292 0
M  V30 11535 C 1086.35 -5.24691 0.398243 0
M  V30 11536 O 1085.37 -5.59408 1.05125 0
M  V30 11537 N 1086.58 -5.74388 -0.840184 0
M  V30 11538 H 1089.34 -2.51219 1.63429 0
M  V30 11539 H 1086.9 -1.27226 1.00125 0
M  V30 11540 H 1088.89 -4.02788 -0.392929 0
M  V30 11541 H 1087.46 -3.0317 -0.762005 0
M  V30 11542 H 1086.68 -3.57363 1.6639 0
M  V30 11543 H 1087.97 -4.79033 1.71478 0
M  V30 11544 H 1087.37 -5.48359 -1.38994 0
M  V30 11545 H 1085.93 -6.40163 -1.22615 0
M  V30 11546 N 1089.36 -0.901303 -1.29284 0
M  V30 11547 C 1090.61 -0.52401 -1.94774 0
M  V30 11548 C 1090.92 0.934645 -1.71825 0
M  V30 11549 O 1092.13 1.41953 -2.31434 0
M  V30 11550 C 1090.58 -0.886262 -3.48817 0
M  V30 11551 C 1090.19 -2.3638 -3.80564 0
M  V30 11552 C 1091.94 -0.578955 -4.20533 0
M  V30 11553 C 1089.84 -2.66682 -5.27858 0
M  V30 11554 H 1088.77 -0.192244 -0.72908 0
M  V30 11555 H 1091.42 -1.09852 -1.46986 0
M  V30 11556 H 1089.81 -0.240666 -3.95268 0
M  V30 11557 H 1090.98 -3.05508 -3.44966 0
M  V30 11558 H 1089.29 -2.64029 -3.2199 0
M  V30 11559 H 1091.89 -0.782185 -5.28948 0
M  V30 11560 H 1092.23 0.482605 -4.13493 0
M  V30 11561 H 1092.77 -1.18246 -3.79819 0
M  V30 11562 H 1089.51 -3.71643 -5.39965 0
M  V30 11563 H 1089.03 -2.02179 -5.64698 0
M  V30 11564 H 1090.71 -2.53033 -5.95469 0
M  V30 11565 N 1090.84 1.42931 -0.663954 0
M  V30 11566 C 1092.06 2.06544 -0.188201 0
M  V30 11567 C 1092.49 1.495 1.14155 0
M  V30 11568 O 1091.85 0.609164 1.7076 0
M  V30 11569 C 1091.89 3.60393 -0.122105 0
M  V30 11570 O 1091 4.02176 0.91258 0
M  V30 11571 H 1090.34 0.656458 -0.0997967 0
M  V30 11572 H 1092.87 1.83253 -0.909909 0
M  V30 11573 H 1092.88 4.07959 0.0576568 0
M  V30 11574 H 1091.55 4.01287 -1.09276 0
M  V30 11575 H 1090.13 3.6618 0.704738 0
M  V30 11576 N 1092.32 0.406567 1.52266 0
M  V30 11577 C 1093.56 -0.170305 2.02084 0
M  V30 11578 C 1093.89 -1.45008 1.29176 0
M  V30 11579 O 1093.17 -1.90399 0.39731 0
M  V30 11580 C 1093.45 -0.420627 3.57635 0
M  V30 11581 C 1093.31 0.87564 4.41194 0
M  V30 11582 C 1094.62 -1.20387 4.23314 0
M  V30 11583 H 1091.74 -0.0604219 0.734519 0
M  V30 11584 H 1094.39 0.539529 1.82179 0
M  V30 11585 H 1092.54 -1.0253 3.74726 0
M  V30 11586 H 1094.21 1.51192 4.35819 0
M  V30 11587 H 1092.45 1.48718 4.07511 0
M  V30 11588 H 1093.12 0.654916 5.48101 0
M  V30 11589 H 1095.6 -0.691972 4.10306 0
M  V30 11590 H 1094.47 -1.34776 5.32096 0
M  V30 11591 H 1094.73 -2.2238 3.82099 0
M  V30 11592 N 1093.79 -1.57004 0.136909 0
M  V30 11593 C 1094.7 -2.19807 -0.819887 0
M  V30 11594 C 1095.72 -1.17939 -1.27932 0
M  V30 11595 O 1096.9 -1.50478 -1.3386 0
M  V30 11596 C 1093.96 -2.79935 -2.04542 0
M  V30 11597 C 1093.02 -3.96897 -1.6362 0
M  V30 11598 C 1092.26 -4.54148 -2.80331 0
M  V30 11599 O 1092.48 -4.10282 -3.96264 0
M  V30 11600 O 1091.41 -5.44565 -2.56384 0
M  V30 11601 H 1095.24 -3.02058 -0.315337 0
M  V30 11602 H 1092.82 -1.49131 -0.0896151 0
M  V30 11603 H 1094.71 -3.18191 -2.76283 0
M  V30 11604 H 1093.38 -2.00703 -2.53969 0
M  V30 11605 H 1092.29 -3.63376 -0.889316 0
M  V30 11606 H 1093.62 -4.77618 -1.18918 0
M  V30 11607 N 1095.27 0.136881 -1.57004 0
M  V30 11608 C 1096.52 0.846257 -1.83088 0
M  V30 11609 C 1096.83 1.81876 -0.719765 0
M  V30 11610 O 1098.04 2.57302 -0.866494 0
M  V30 11611 C 1096.5 1.55559 -3.24545 0
M  V30 11612 C 1096.1 0.624989 -4.43619 0
M  V30 11613 C 1097.85 2.25115 -3.59893 0
M  V30 11614 C 1095.76 1.33653 -5.761 0
M  V30 11615 H 1094.69 0.319768 -0.682836 0
M  V30 11616 H 1097.34 0.0989741 -1.83233 0
M  V30 11617 H 1095.72 2.34887 -3.18817 0
M  V30 11618 H 1096.89 -0.133783 -4.60606 0
M  V30 11619 H 1095.21 0.0373216 -4.16383 0
M  V30 11620 H 1097.8 2.79008 -4.56134 0
M  V30 11621 H 1098.15 3.02084 -2.86446 0
M  V30 11622 H 1098.68 1.52696 -3.67327 0
M  V30 11623 H 1095.42 0.608495 -6.5267 0
M  V30 11624 H 1094.94 2.06776 -5.63031 0
M  V30 11625 H 1096.62 1.87467 -6.19246 0
M  V30 11626 N 1096.75 1.52266 0.40654 0
M  V30 11627 C 1097.7 1.75794 1.4955 0
M  V30 11628 C 1098.67 0.600472 1.54866 0
M  V30 11629 O 1099.85 0.838305 1.71397 0
M  V30 11630 C 1096.99 1.91682 2.86971 0
M  V30 11631 C 1096.11 3.19337 2.90943 0
M  V30 11632 C 1095.24 3.25641 4.1968 0
M  V30 11633 C 1094.28 4.47488 4.17637 0
M  V30 11634 N 1093.42 4.51171 5.37949 0
M  V30 11635 H 1098.26 2.68733 1.28789 0
M  V30 11636 H 1095.79 1.33157 0.625102 0
M  V30 11637 H 1097.75 1.98877 3.66748 0
M  V30 11638 H 1096.38 1.02121 3.06221 0
M  V30 11639 H 1095.43 3.21301 2.03642 0
M  V30 11640 H 1096.75 4.09153 2.85299 0
M  V30 11641 H 1095.9 3.31922 5.07851 0
M  V30 11642 H 1094.64 2.33769 4.28023 0
M  V30 11643 H 1093.64 4.41351 3.27856 0
M  V30 11644 H 1094.87 5.40659 4.10932 0
M  V30 11645 H 1092.81 3.62182 5.46955 0
M  V30 11646 H 1092.73 5.34835 5.3431 0
M  V30 11647 H 1094 4.61685 6.28066 0
M  V30 11648 N 1098.23 -0.663929 1.42933 0
M  V30 11649 C 1099.48 -1.42111 1.43697 0
M  V30 11650 C 1099.8 -1.94913 0.0583858 0
M  V30 11651 O 1099.07 -1.73757 -0.904719 0
M  V30 11652 H 1097.65 -0.527391 0.529026 0
M  V30 11653 H 1100.31 -0.783766 1.78446 0
M  V30 11654 H 1099.41 -2.26877 2.1432 0
M  V30 11655 N 1099.71 -1.29285 -0.901281 0
M  V30 11656 C 1100.62 -1.16161 -2.03823 0
M  V30 11657 C 1101.63 -0.0852298 -1.73791 0
M  V30 11658 O 1102.81 -0.29699 -1.99198 0
M  V30 11659 C 1099.87 -0.837586 -3.3643 0
M  V30 11660 C 1098.93 -1.99764 -3.7999 0
M  V30 11661 C 1098.17 -1.68898 -5.0627 0
M  V30 11662 O 1098.39 -0.609177 -5.67138 0
M  V30 11663 O 1097.32 -2.53648 -5.45845 0
M  V30 11664 H 1101.15 -2.11635 -2.17817 0
M  V30 11665 H 1098.74 -1.08722 -1.02468 0
M  V30 11666 H 1100.62 -0.671376 -4.16017 0
M  V30 11667 H 1099.29 0.0873811 -3.23582 0
M  V30 11668 H 1098.2 -2.21908 -3.01177 0
M  V30 11669 H 1099.53 -2.90376 -3.9742 0
M  V30 11670 N 1101.18 1.11143 -1.11736 0
M  V30 11671 C 1102.09 2.20851 -0.791331 0
M  V30 11672 C 1103.11 1.72644 0.216833 0
M  V30 11673 O 1104.29 2.01332 0.0522401 0
M  V30 11674 C 1101.35 3.4585 -0.242694 0
M  V30 11675 C 1100.41 4.08829 -1.30986 0
M  V30 11676 C 1099.65 5.27861 -0.787305 0
M  V30 11677 O 1099.87 5.69122 0.381549 0
M  V30 11678 O 1098.8 5.81506 -1.55352 0
M  V30 11679 H 1102.63 2.51158 -1.70744 0
M  V30 11680 H 1100.21 1.19739 -0.893478 0
M  V30 11681 H 1102.1 4.21359 0.0587472 0
M  V30 11682 H 1100.77 3.17187 0.646079 0
M  V30 11683 H 1099.68 3.35037 -1.66436 0
M  V30 11684 H 1101.01 4.41678 -2.17213 0
M  V30 11685 N 1102.66 0.908147 1.28804 0
M  V30 11686 C 1103.61 0.390734 2.27468 0
M  V30 11687 C 1104.58 -0.531765 1.57358 0
M  V30 11688 O 1105.76 -0.455177 1.85291 0
M  V30 11689 C 1102.9 -0.368159 3.43131 0
M  V30 11690 C 1102.02 0.586202 4.28004 0
M  V30 11691 C 1101.15 -0.190581 5.30858 0
M  V30 11692 C 1100.19 0.757758 6.07391 0
M  V30 11693 N 1099.33 0.0148488 7.02098 0
M  V30 11694 H 1104.17 1.23717 2.71105 0
M  V30 11695 H 1101.71 0.621382 1.33331 0
M  V30 11696 H 1103.66 -0.824289 4.08976 0
M  V30 11697 H 1102.29 -1.17898 3.00499 0
M  V30 11698 H 1101.35 1.16086 3.62254 0
M  V30 11699 H 1102.66 1.31177 4.81242 0
M  V30 11700 H 1101.81 -0.707528 6.0256 0
M  V30 11701 H 1100.55 -0.949234 4.78373 0
M  V30 11702 H 1099.56 1.28613 5.34545 0
M  V30 11703 H 1100.78 1.51588 6.61965 0
M  V30 11704 H 1098.73 -0.725916 6.51971 0
M  V30 11705 H 1098.64 0.680347 7.52932 0
M  V30 11706 H 1099.91 -0.482086 7.78008 0
M  V30 11707 N 1104.14 -1.42577 0.671525 0
M  V30 11708 C 1105.39 -2.01882 0.192716 0
M  V30 11709 C 1105.72 -1.52959 -1.19654 0
M  V30 11710 O 1104.99 -0.730404 -1.80265 0
M  V30 11711 C 1105.28 -3.59404 0.223734 0
M  V30 11712 C 1105.13 -4.18514 1.64821 0
M  V30 11713 C 1106.45 -4.37996 -0.429858 0
M  V30 11714 H 1103.57 -0.733523 0.0715026 0
M  V30 11715 H 1106.21 -1.69641 0.855689 0
M  V30 11716 H 1104.36 -3.87003 -0.340776 0
M  V30 11717 H 1106.03 -4.01881 2.26472 0
M  V30 11718 H 1104.28 -3.74467 2.1899 0
M  V30 11719 H 1104.95 -5.27643 1.62162 0
M  V30 11720 H 1107.42 -4.16069 0.0506433 0
M  V30 11721 H 1106.3 -5.476 -0.377503 0
M  V30 11722 H 1106.56 -4.15625 -1.50693 0
M  V30 11723 N 1105.62 -0.414636 -1.52048 0
M  V30 11724 C 1106.58 0.396285 -2.25748 0
M  V30 11725 C 1107.58 0.969003 -1.28324 0
M  V30 11726 O 1108.77 0.847016 -1.52221 0
M  V30 11727 C 1105.9 1.55838 -3.03195 0
M  V30 11728 H 1107.1 -0.249311 -2.98862 0
M  V30 11729 H 1104.65 -0.167276 -1.55402 0
M  V30 11730 H 1105.38 2.24068 -2.34444 0
M  V30 11731 H 1105.17 1.15414 -3.74729 0
M  V30 11732 H 1106.66 2.13187 -3.59084 0
M  V30 11733 N 1107.1 1.56929 -0.145233 0
M  V30 11734 C 1108.51 1.82877 0.375884 0
M  V30 11735 C 1108.86 1.06384 1.64854 0
M  V30 11736 O 1107.98 0.30857 2.14189 0
M  V30 11737 C 1108.58 3.31725 0.688744 0
M  V30 11738 C 1107.14 3.58261 1.15439 0
M  V30 11739 C 1106.28 2.76737 0.176565 0
M  V30 11740 H 1109.24 1.54328 -0.36996 0
M  V30 11741 H 1109.26 3.47784 1.54359 0
M  V30 11742 H 1108.77 3.87371 -0.237694 0
M  V30 11743 H 1106.87 3.08 2.09683 0
M  V30 11744 H 1106.98 4.66732 1.08158 0
M  V30 11745 H 1105.35 2.45761 0.668843 0
M  V30 11746 H 1106.13 3.35154 -0.743432 0
M  V30 11747 N 1108.58 -0.128553 1.57075 0
M  V30 11748 C 1109.81 -0.851214 1.8825 0
M  V30 11749 C 1110.21 -1.74402 0.733531 0
M  V30 11750 O 1109.56 -1.81149 -0.305108 0
M  V30 11751 C 1109.62 -1.74451 3.14336 0
M  V30 11752 C 1109.28 -1.02699 4.45311 0
M  V30 11753 C 1110.28 -0.37224 5.18566 0
M  V30 11754 C 1107.96 -1.01101 4.9202 0
M  V30 11755 C 1109.96 0.2889 6.36745 0
M  V30 11756 C 1107.65 -0.346063 6.10119 0
M  V30 11757 C 1108.64 0.302744 6.82329 0
M  V30 11758 O 1108.33 0.9571 7.98182 0
M  V30 11759 H 1108.06 -0.250529 0.627863 0
M  V30 11760 H 1110.62 -0.120418 2.05047 0
M  V30 11761 H 1108.85 -2.51671 2.93596 0
M  V30 11762 H 1110.54 -2.34075 3.31608 0
M  V30 11763 H 1111.3 -0.376271 4.83538 0
M  V30 11764 H 1107.18 -1.50543 4.35727 0
M  V30 11765 H 1110.73 0.795901 6.93045 0
M  V30 11766 H 1106.62 -0.339762 6.44605 0
M  V30 11767 H 1107.39 0.860616 8.13963 0
M  V30 11768 N 1110.05 -1.5248 -0.398459 0
M  V30 11769 C 1111 -1.72965 -1.4855 0
M  V30 11770 C 1111.99 -0.583628 -1.49942 0
M  V30 11771 O 1113.18 -0.841106 -1.55738 0
M  V30 11772 C 1110.31 -1.89339 -2.86366 0
M  V30 11773 C 1109.39 -3.09845 -2.8958 0
M  V30 11774 N 1109.79 -4.32365 -2.62477 0
M  V30 11775 C 1108.08 -3.09897 -3.20749 0
M  V30 11776 C 1108.78 -5.13908 -2.72532 0
M  V30 11777 N 1107.76 -4.49387 -3.05864 0
M  V30 11778 H 1111.56 -2.65327 -1.26406 0
M  V30 11779 H 1109.08 -1.50658 -0.606299 0
M  V30 11780 H 1111.07 -2.02134 -3.64619 0
M  V30 11781 H 1109.73 -0.981841 -3.095 0
M  V30 11782 H 1110.74 -4.60659 -2.36673 0
M  V30 11783 H 1107.42 -2.28518 -3.49408 0
M  V30 11784 H 1108.81 -6.21548 -2.55202 0
M  V30 11785 N 1111.53 0.65634 -1.43283 0
M  V30 11786 C 1112.78 1.41837 -1.44949 0
M  V30 11787 C 1113.11 1.94065 -0.0723212 0
M  V30 11788 O 1112.39 1.72092 0.906346 0
M  V30 11789 C 1112.67 2.60206 -2.48927 0
M  V30 11790 C 1112.52 2.1349 -3.95907 0
M  V30 11791 C 1113.84 3.62421 -2.49678 0
M  V30 11792 H 1110.96 0.514398 -0.527792 0
M  V30 11793 H 1113.6 0.74435 -1.74813 0
M  V30 11794 H 1111.75 3.17708 -2.23592 0
M  V30 11795 H 1113.42 1.61012 -4.32288 0
M  V30 11796 H 1111.67 1.4489 -4.08888 0
M  V30 11797 H 1112.34 2.98596 -4.64268 0
M  V30 11798 H 1114.81 3.14671 -2.72252 0
M  V30 11799 H 1113.69 4.42798 -3.24378 0
M  V30 11800 H 1113.95 4.14802 -1.52944 0
M  V30 11801 N 1113.01 1.29761 0.894412 0
M  V30 11802 C 1113.94 1.1115 2.00445 0
M  V30 11803 C 1114.95 0.0574655 1.62699 0
M  V30 11804 O 1116.14 0.302528 1.75918 0
M  V30 11805 C 1113.24 0.670984 3.32191 0
M  V30 11806 C 1112.42 1.80471 3.98433 0
M  V30 11807 C 1111.48 1.35431 5.08473 0
M  V30 11808 O 1110.5 2.05994 5.30618 0
M  V30 11809 N 1111.7 0.22811 5.80052 0
M  V30 11810 H 1114.47 2.06753 2.16964 0
M  V30 11811 H 1112.03 1.21772 1.06692 0
M  V30 11812 H 1114.02 0.352877 4.03159 0
M  V30 11813 H 1112.59 -0.192735 3.12005 0
M  V30 11814 H 1111.81 2.29142 3.20761 0
M  V30 11815 H 1113.1 2.56471 4.39431 0
M  V30 11816 H 1112.5 -0.360076 5.64553 0
M  V30 11817 H 1111.05 -0.0305985 6.51793 0
M  V30 11818 N 1114.49 -1.10549 1.12324 0
M  V30 11819 C 1115.72 -1.86 0.899312 0
M  V30 11820 C 1116.13 -1.80881 -0.554854 0
M  V30 11821 O 1115.47 -1.19485 -1.39531 0
M  V30 11822 C 1115.53 -3.35384 1.29452 0
M  V30 11823 C 1115.19 -3.64263 2.75974 0
M  V30 11824 C 1116.19 -3.60962 3.74169 0
M  V30 11825 C 1113.88 -3.92976 3.1285 0
M  V30 11826 C 1115.87 -3.85966 5.07256 0
M  V30 11827 C 1113.56 -4.17637 4.4612 0
M  V30 11828 C 1114.56 -4.14122 5.43132 0
M  V30 11829 O 1114.24 -4.38156 6.73999 0
M  V30 11830 H 1113.98 -0.594743 0.321337 0
M  V30 11831 H 1116.53 -1.40674 1.49667 0
M  V30 11832 H 1114.76 -3.81361 0.640358 0
M  V30 11833 H 1116.45 -3.9222 1.04491 0
M  V30 11834 H 1117.21 -3.38819 3.47025 0
M  V30 11835 H 1113.09 -3.94843 2.3795 0
M  V30 11836 H 1116.64 -3.83138 5.82967 0
M  V30 11837 H 1112.53 -4.39258 4.72993 0
M  V30 11838 H 1113.3 -4.55677 6.79927 0
M  V30 11839 N 1115.97 -0.914965 -1.28321 0
M  V30 11840 C 1117.19 -0.564654 -1.99046 0
M  V30 11841 C 1117.61 0.854345 -1.68364 0
M  V30 11842 O 1116.97 1.56605 -0.937068 0
M  V30 11843 C 1117.02 -0.765663 -3.53299 0
M  V30 11844 O 1116.74 -2.12883 -3.829 0
M  V30 11845 C 1118.24 -0.422347 -4.41283 0
M  V30 11846 H 1115.46 -0.215158 -0.635569 0
M  V30 11847 H 1118 -1.2285 -1.63487 0
M  V30 11848 H 1116.16 -0.148795 -3.87114 0
M  V30 11849 H 1116.57 -2.1694 -4.77533 0
M  V30 11850 H 1118.05 -0.613757 -5.48577 0
M  V30 11851 H 1118.52 0.641484 -4.3449 0
M  V30 11852 H 1119.13 -1.01681 -4.12966 0
M  V30 11853 N 1117.44 1.42219 -0.679077 0
M  V30 11854 C 1118.68 2.03349 -0.207058 0
M  V30 11855 C 1119.05 1.52554 1.16581 0
M  V30 11856 O 1120.25 2.05499 1.73274 0
M  V30 11857 C 1118.52 3.56562 -0.244537 0
M  V30 11858 S 1120.08 4.38523 0.155853 0
M  V30 11859 H 1116.9 0.705932 -0.0847444 0
M  V30 11860 H 1119.5 1.73904 -0.893183 0
M  V30 11861 H 1118.2 3.91028 -1.246 0
M  V30 11862 H 1117.73 3.90686 0.461282 0
M  V30 11863 H 1119.75 4.76389 1.38808 0
M  V30 11864 N 1118.92 0.422693 1.51826 0
M  V30 11865 C 1119.85 -0.386913 2.30272 0
M  V30 11866 C 1120.83 -1.03411 1.35056 0
M  V30 11867 O 1122.02 -1.04055 1.6397 0
M  V30 11868 C 1119.15 -1.49645 3.13407 0
M  V30 11869 C 1118.1 -0.973532 4.16781 0
M  V30 11870 C 1117.43 -2.1777 4.88344 0
M  V30 11871 C 1118.73 -0.0181194 5.22297 0
M  V30 11872 H 1120.42 0.267697 2.98201 0
M  V30 11873 H 1117.97 0.130186 1.4341 0
M  V30 11874 H 1119.92 -2.06993 3.67059 0
M  V30 11875 H 1118.64 -2.17914 2.43272 0
M  V30 11876 H 1117.3 -0.42237 3.64159 0
M  V30 11877 H 1116.95 -2.84625 4.14726 0
M  V30 11878 H 1116.65 -1.83427 5.58237 0
M  V30 11879 H 1118.18 -2.75699 5.44814 0
M  V30 11880 H 1119.59 -0.500822 5.71108 0
M  V30 11881 H 1117.99 0.237163 5.99631 0
M  V30 11882 H 1119.06 0.923065 4.76033 0
M  V30 11883 N 1120.4 -1.5685 0.153553 0
M  V30 11884 C 1121.35 -2.13671 -0.795526 0
M  V30 11885 C 1122.33 -1.06624 -1.20499 0
M  V30 11886 O 1123.53 -1.32788 -1.17032 0
M  V30 11887 C 1120.65 -2.76704 -2.03199 0
M  V30 11888 C 1119.74 -3.90884 -1.64532 0
M  V30 11889 N 1120.13 -4.96466 -0.96723 0
M  V30 11890 C 1118.43 -4.01713 -1.93759 0
M  V30 11891 C 1119.13 -5.76453 -0.779527 0
M  V30 11892 N 1118.11 -5.27444 -1.31544 0
M  V30 11893 H 1121.91 -2.92673 -0.268288 0
M  V30 11894 H 1119.42 -1.6233 -0.0477596 0
M  V30 11895 H 1121.42 -3.15777 -2.72196 0
M  V30 11896 H 1120.08 -1.99177 -2.56434 0
M  V30 11897 H 1121.09 -5.14087 -0.627253 0
M  V30 11898 H 1117.77 -3.3527 -2.48797 0
M  V30 11899 H 1119.16 -6.71455 -0.244604 0
M  V30 11900 N 1121.88 0.120221 -1.57141 0
M  V30 11901 C 1122.79 1.16641 -2.03549 0
M  V30 11902 C 1123.8 1.45407 -0.955656 0
M  V30 11903 O 1124.98 1.56547 -1.26708 0
M  V30 11904 C 1122.04 2.4734 -2.42948 0
M  V30 11905 C 1121.11 2.25982 -3.65008 0
M  V30 11906 C 1120.34 3.50449 -4.02518 0
M  V30 11907 O 1120.56 4.57706 -3.40384 0
M  V30 11908 O 1119.5 3.41524 -4.95626 0
M  V30 11909 H 1123.32 0.802323 -2.9291 0
M  V30 11910 H 1120.91 0.330927 -1.45689 0
M  V30 11911 H 1122.79 3.24348 -2.69029 0
M  V30 11912 H 1121.46 2.83225 -1.56733 0
M  V30 11913 H 1120.37 1.46837 -3.44078 0
M  V30 11914 H 1121.7 1.95002 -4.51924 0
M  V30 11915 N 1123.36 1.52689 0.390367 0
M  V30 11916 C 1124.3 1.78007 1.4972 0
M  V30 11917 C 1125.3 0.647948 1.56518 0
M  V30 11918 O 1126.5 0.830398 1.59701 0
M  V30 11919 H 1122.88 0.56322 0.498284 0
M  V30 11920 H 1124.85 2.70698 1.25559 0
M  V30 11921 C 1123.6 1.96469 2.86872 0
M  V30 11922 H 1122.92 2.83012 2.82391 0
M  V30 11923 H 1124.36 2.18174 3.6356 0
M  V30 11924 C 1122.82 0.736847 3.28743 0
M  V30 11925 O 1123.35 -0.0863743 4.01607 0
M  V30 11926 N 1121.56 0.56735 2.85008 0
M  V30 11927 H 1121.1 1.23838 2.2588 0
M  V30 11928 H 1121.06 -0.252831 3.13382 0
M  V30 11929 N 1124.83 -0.648732 1.43629 0
M  V30 11930 C 1125.76 -1.77298 1.51947 0
M  V30 11931 C 1126.75 -1.65942 0.373785 0
M  V30 11932 O 1127.93 -1.8497 0.591596 0
M  V30 11933 C 1125.06 -3.15749 1.44638 0
M  V30 11934 C 1124.01 -3.41872 2.57502 0
M  V30 11935 C 1123.34 -4.8017 2.35246 0
M  V30 11936 C 1124.64 -3.36173 3.99731 0
M  V30 11937 H 1126.33 -1.70594 2.46045 0
M  V30 11938 H 1123.88 -0.819306 1.1842 0
M  V30 11939 H 1125.83 -3.94156 1.4906 0
M  V30 11940 H 1124.56 -3.23194 0.470466 0
M  V30 11941 H 1123.22 -2.65838 2.5244 0
M  V30 11942 H 1122.86 -4.84297 1.35887 0
M  V30 11943 H 1122.56 -4.9861 3.10906 0
M  V30 11944 H 1124.09 -5.6083 2.41459 0
M  V30 11945 H 1125.5 -4.0451 4.06257 0
M  V30 11946 H 1123.9 -3.66148 4.75453 0
M  V30 11947 H 1124.97 -2.34277 4.24549 0
M  V30 11948 N 1126.31 -1.30234 -0.887518 0
M  V30 11949 C 1127.56 -1.1891 -1.6391 0
M  V30 11950 C 1127.89 0.256749 -1.92798 0
M  V30 11951 O 1127.14 1.20047 -1.54555 0
M  V30 11952 C 1127.44 -1.96046 -2.98832 0
M  V30 11953 C 1127.11 -3.45683 -2.89507 0
M  V30 11954 C 1125.77 -3.86489 -2.8667 0
M  V30 11955 C 1128.12 -4.40983 -2.7782 0
M  V30 11956 C 1125.45 -5.2089 -2.69982 0
M  V30 11957 C 1127.8 -5.75489 -2.6267 0
M  V30 11958 C 1126.47 -6.15537 -2.58207 0
M  V30 11959 H 1125.74 -0.435123 -0.599791 0
M  V30 11960 H 1128.38 -1.61308 -1.03209 0
M  V30 11961 H 1126.69 -1.46275 -3.6347 0
M  V30 11962 H 1128.38 -1.84678 -3.55942 0
M  V30 11963 H 1124.97 -3.13255 -2.92523 0
M  V30 11964 H 1129.16 -4.10401 -2.79079 0
M  V30 11965 H 1124.41 -5.51014 -2.6494 0
M  V30 11966 H 1128.59 -6.48973 -2.526 0
M  V30 11967 H 1126.22 -7.19627 -2.45034 0
M  V30 11968 N 1127.79 1.09952 -1.12909 0
M  V30 11969 C 1128.74 2.14591 -0.77037 0
M  V30 11970 C 1129.72 1.59204 0.233021 0
M  V30 11971 O 1130.92 1.7696 0.0377599 0
M  V30 11972 C 1128.05 3.42514 -0.232117 0
M  V30 11973 C 1127.13 4.04823 -1.26409 0
M  V30 11974 N 1127.52 4.41763 -2.46331 0
M  V30 11975 C 1125.82 4.31951 -1.11062 0
M  V30 11976 C 1126.52 4.90778 -3.12269 0
M  V30 11977 N 1125.5 4.87896 -2.39704 0
M  V30 11978 H 1129.3 2.40951 -1.68285 0
M  V30 11979 H 1126.81 1.27125 -1.0106 0
M  V30 11980 H 1128.81 4.16878 0.0430853 0
M  V30 11981 H 1127.47 3.17612 0.674757 0
M  V30 11982 H 1128.48 4.33299 -2.83677 0
M  V30 11983 H 1125.16 4.16681 -0.261456 0
M  V30 11984 H 1126.55 5.28868 -4.14425 0
M  V30 11985 N 1129.27 0.921757 1.27833 0
M  V30 11986 C 1130.5 0.574368 1.98455 0
M  V30 11987 C 1130.91 -0.850577 1.69002 0
M  V30 11988 O 1130.25 -1.57607 0.943708 0
M  V30 11989 C 1130.31 0.713235 3.52354 0
M  V30 11990 C 1129.98 2.1092 4.05415 0
M  V30 11991 C 1130.97 3.08276 4.18643 0
M  V30 11992 C 1128.66 2.42454 4.3991 0
M  V30 11993 C 1130.65 4.35279 4.6563 0
M  V30 11994 C 1128.34 3.69694 4.8659 0
M  V30 11995 C 1129.34 4.6592 4.99407 0
M  V30 11996 O 1129.02 5.90896 5.45066 0
M  V30 11997 H 1128.76 0.216955 0.640239 0
M  V30 11998 H 1131.31 1.23932 1.63798 0
M  V30 11999 H 1129.54 -0.00881115 3.86699 0
M  V30 12000 H 1131.23 0.371776 4.04194 0
M  V30 12001 H 1132 2.85234 3.92258 0
M  V30 12002 H 1127.87 1.68303 4.2918 0
M  V30 12003 H 1131.42 5.10391 4.75549 0
M  V30 12004 H 1127.32 3.92557 5.12415 0
M  V30 12005 H 1128.08 5.938 5.63333 0
M  V30 12006 N 1130.75 -1.41857 0.686609 0
M  V30 12007 C 1131.68 -2.33481 0.0298353 0
M  V30 12008 C 1132.66 -1.51329 -0.776756 0
M  V30 12009 O 1133.84 -1.79895 -0.731535 0
M  V30 12010 C 1130.97 -3.35065 -0.913707 0
M  V30 12011 C 1129.93 -4.2746 -0.214861 0
M  V30 12012 C 1129.25 -5.19346 -1.27215 0
M  V30 12013 C 1130.55 -5.14252 0.913367 0
M  V30 12014 H 1132.25 -2.8865 0.795067 0
M  V30 12015 H 1129.79 -1.38792 0.383785 0
M  V30 12016 H 1131.75 -3.98082 -1.38234 0
M  V30 12017 H 1130.47 -2.78226 -1.7105 0
M  V30 12018 H 1129.13 -3.65855 0.233651 0
M  V30 12019 H 1128.78 -4.58827 -2.06124 0
M  V30 12020 H 1128.48 -5.81996 -0.80961 0
M  V30 12021 H 1130 -5.85239 -1.74147 0
M  V30 12022 H 1131.41 -5.70887 0.525424 0
M  V30 12023 H 1129.81 -5.85796 1.30244 0
M  V30 12024 H 1130.88 -4.51949 1.75699 0
M  V30 12025 N 1132.22 -0.430739 -1.51599 0
M  V30 12026 C 1133.45 0.136797 -2.06447 0
M  V30 12027 C 1133.87 1.37027 -1.29881 0
M  V30 12028 O 1133.22 1.78983 -0.356543 0
M  V30 12029 C 1133.28 0.465637 -3.58489 0
M  V30 12030 O 1133 -0.718873 -4.32162 0
M  V30 12031 C 1134.5 1.08456 -4.29828 0
M  V30 12032 H 1131.72 0.0108468 -0.670912 0
M  V30 12033 H 1134.26 -0.607921 -1.95255 0
M  V30 12034 H 1132.42 1.16025 -3.69617 0
M  V30 12035 H 1132.83 -0.439195 -5.22658 0
M  V30 12036 H 1134.3 1.2647 -5.37317 0
M  V30 12037 H 1134.78 2.06376 -3.87693 0
M  V30 12038 H 1135.39 0.429525 -4.23125 0
M  V30 12039 N 1133.7 1.56767 -0.161869 0
M  V30 12040 C 1134.98 1.88245 0.531352 0
M  V30 12041 C 1135.36 1.07025 1.81958 0
M  V30 12042 O 1134.71 0.161385 2.27929 0
M  V30 12043 C 1134.92 3.40117 0.782416 0
M  V30 12044 C 1136.27 4.09655 1.11661 0
M  V30 12045 O 1137.29 3.4538 0.871274 0
M  V30 12046 O 1136.15 5.23192 1.57901 0
M  V30 12047 H 1133.24 0.780725 0.272759 0
M  V30 12048 H 1135.79 1.68522 -0.199597 0
M  V30 12049 H 1134.56 3.91088 -0.128677 0
M  V30 12050 H 1134.18 3.65418 1.56702 0
M  V30 12051 N 1135.18 -0.111886 1.57202 0
M  V30 12052 C 1136.43 -0.817022 1.84412 0
M  V30 12053 C 1136.74 -1.80708 0.748608 0
M  V30 12054 O 1137.95 -2.55891 0.907319 0
M  V30 12055 C 1136.4 -1.50376 3.26979 0
M  V30 12056 C 1136.01 -0.554334 4.44557 0
M  V30 12057 C 1137.76 -2.19361 3.63429 0
M  V30 12058 C 1135.66 -1.24471 5.78153 0
M  V30 12059 H 1134.59 -0.308864 0.687836 0
M  V30 12060 H 1137.24 -0.0698109 1.83367 0
M  V30 12061 H 1135.63 -2.29785 3.22514 0
M  V30 12062 H 1136.8 0.207045 4.60335 0
M  V30 12063 H 1135.12 0.0289261 4.1639 0
M  V30 12064 H 1137.71 -2.71716 4.60515 0
M  V30 12065 H 1138.06 -2.97488 2.91215 0
M  V30 12066 H 1138.59 -1.46833 3.69709 0
M  V30 12067 H 1135.33 -0.504584 6.53555 0
M  V30 12068 H 1134.85 -1.97792 5.66249 0
M  V30 12069 H 1136.53 -1.77591 6.2215 0
M  V30 12070 N 1136.66 -1.52894 -0.382264 0
M  V30 12071 C 1137.59 -1.74413 -1.48703 0
M  V30 12072 C 1138.6 -0.624663 -1.50339 0
M  V30 12073 O 1139.79 -0.900527 -1.54119 0
M  V30 12074 C 1136.89 -1.79387 -2.8753 0
M  V30 12075 C 1136.07 -3.08794 -3.09783 0
M  V30 12076 C 1135.12 -3.05226 -4.2863 0
M  V30 12077 O 1134.15 -3.79073 -4.24609 0
M  V30 12078 N 1135.35 -2.2488 -5.35172 0
M  V30 12079 H 1138.12 -2.69734 -1.30628 0
M  V30 12080 H 1135.68 -1.51465 -0.571842 0
M  V30 12081 H 1137.67 -1.74498 -3.65147 0
M  V30 12082 H 1136.24 -0.914233 -2.98932 0
M  V30 12083 H 1135.46 -3.27118 -2.19971 0
M  V30 12084 H 1136.75 -3.94347 -3.21509 0
M  V30 12085 H 1136.15 -1.64363 -5.41296 0
M  V30 12086 H 1134.7 -2.25825 -6.1143 0
M  V30 12087 N 1138.14 0.641106 -1.43971 0
M  V30 12088 C 1139.39 1.39807 -1.4594 0
M  V30 12089 C 1139.71 1.94795 -0.0893874 0
M  V30 12090 O 1138.98 1.75175 0.876962 0
M  V30 12091 H 1137.56 0.518908 -0.537349 0
M  V30 12092 H 1140.22 0.755278 -1.79671 0
M  V30 12093 H 1139.31 2.23439 -2.17903 0
M  V30 12094 N 1139.62 1.30703 0.880598 0
M  V30 12095 C 1140.84 1.22843 1.67106 0
M  V30 12096 C 1141.27 -0.204788 1.86982 0
M  V30 12097 O 1140.62 -1.14716 1.40392 0
M  V30 12098 C 1140.67 1.96685 3.02237 0
M  V30 12099 O 1139.78 1.29693 3.91476 0
M  V30 12100 H 1139.12 0.424661 0.51045 0
M  V30 12101 H 1141.65 1.72596 1.09871 0
M  V30 12102 H 1141.66 2.05874 3.52249 0
M  V30 12103 H 1140.33 3.00919 2.8709 0
M  V30 12104 H 1138.91 1.28886 3.49918 0
M  V30 12105 N 1141.09 -1.09351 1.1349 0
M  V30 12106 C 1142.34 -1.81185 0.89535 0
M  V30 12107 C 1142.66 -1.86173 -0.580048 0
M  V30 12108 O 1141.93 -1.34784 -1.42162 0
M  V30 12109 H 1140.51 -0.671011 0.328257 0
M  V30 12110 H 1143.17 -1.32255 1.43159 0
M  V30 12111 H 1142.27 -2.84339 1.28676 0
M  V30 12112 N 1142.57 -0.928524 -1.27343 0
M  V30 12113 C 1143.82 -0.568267 -1.93946 0
M  V30 12114 C 1144.14 0.893501 -1.73325 0
M  V30 12115 O 1143.41 1.63344 -1.08147 0
M  V30 12116 H 1141.99 -0.207173 -0.717696 0
M  V30 12117 H 1144.65 -1.1811 -1.55036 0
M  V30 12118 H 1143.75 -0.775246 -3.02318 0
M  V30 12119 N 1144.05 1.41491 -0.694123 0
M  V30 12120 C 1145.3 2.0155 -0.224809 0
M  V30 12121 C 1145.63 1.54844 1.17205 0
M  V30 12122 O 1144.9 0.75899 1.7908 0
M  V30 12123 C 1145.19 3.59003 -0.280884 0
M  V30 12124 C 1145.04 4.15839 -1.71458 0
M  V30 12125 C 1146.36 4.38624 0.360122 0
M  V30 12126 H 1143.48 0.732293 -0.0831632 0
M  V30 12127 H 1146.12 1.68258 -0.882569 0
M  V30 12128 H 1144.27 3.87496 0.279164 0
M  V30 12129 H 1145.94 3.98227 -2.32837 0
M  V30 12130 H 1144.18 3.70936 -2.2492 0
M  V30 12131 H 1144.86 5.24997 -1.70536 0
M  V30 12132 H 1147.33 4.15936 -0.11683 0
M  V30 12133 H 1146.21 5.48132 0.290337 0
M  V30 12134 H 1146.47 4.1797 1.44062 0
M  V30 12135 N 1145.53 0.438773 1.51369 0
M  V30 12136 C 1146.77 -0.119657 2.03048 0
M  V30 12137 C 1147.13 -1.4026 1.317 0
M  V30 12138 O 1146.42 -1.86858 0.423612 0
M  V30 12139 C 1146.62 -0.39186 3.55245 0
M  V30 12140 C 1146.44 0.863149 4.41339 0
M  V30 12141 C 1145.21 1.39709 4.85602 0
M  V30 12142 C 1147.41 1.74969 4.83622 0
M  V30 12143 N 1145.39 2.60449 5.55913 0
M  V30 12144 C 1146.77 2.80313 5.53014 0
M  V30 12145 C 1148.82 1.76393 4.65607 0
M  V30 12146 C 1147.52 3.87029 6.06301 0
M  V30 12147 C 1149.55 2.82045 5.19812 0
M  V30 12148 C 1148.91 3.86109 5.89151 0
M  V30 12149 H 1145.01 -0.00458455 0.781987 0
M  V30 12150 H 1147.59 0.599764 1.85232 0
M  V30 12151 H 1145.77 -1.08032 3.73073 0
M  V30 12152 H 1147.5 -0.941775 3.93589 0
M  V30 12153 H 1144.25 0.950817 4.63957 0
M  V30 12154 H 1144.68 3.21678 5.95695 0
M  V30 12155 H 1149.32 0.972686 4.11459 0
M  V30 12156 H 1147.04 4.66991 6.59504 0
M  V30 12157 H 1150.62 2.84091 5.07724 0
M  V30 12158 H 1149.5 4.66518 6.30342 0
M  V30 12159 N 1147.01 -1.56678 0.170181 0
M  V30 12160 C 1148.25 -1.96024 -0.475147 0
M  V30 12161 C 1148.57 -1.0588 -1.64465 0
M  V30 12162 O 1149.77 -1.34901 -2.35614 0
M  V30 12163 C 1148.23 -3.4855 -0.896704 0
M  V30 12164 C 1147.84 -4.47318 0.247142 0
M  V30 12165 C 1149.58 -3.96716 -1.51052 0
M  V30 12166 C 1147.49 -5.91082 -0.193982 0
M  V30 12167 H 1146.42 -0.731883 -0.181282 0
M  V30 12168 H 1149.07 -1.81674 0.25823 0
M  V30 12169 H 1147.45 -3.58314 -1.68603 0
M  V30 12170 H 1148.63 -4.49268 1.02445 0
M  V30 12171 H 1146.94 -4.09203 0.770839 0
M  V30 12172 H 1149.54 -5.01581 -1.85258 0
M  V30 12173 H 1149.88 -3.39588 -2.40802 0
M  V30 12174 H 1150.41 -3.89965 -0.785652 0
M  V30 12175 H 1147.15 -6.5208 0.668714 0
M  V30 12176 H 1146.67 -5.92441 -0.936675 0
M  V30 12177 H 1148.35 -6.43844 -0.638237 0
M  V30 12178 N 1148.48 0.103547 -1.57259 0
M  V30 12179 C 1149.89 0.659006 -1.74683 0
M  V30 12180 C 1150.25 1.79542 -0.791142 0
M  V30 12181 O 1149.37 2.16376 0.0323585 0
M  V30 12182 C 1149.97 1.20222 -3.16752 0
M  V30 12183 C 1148.52 1.70382 -3.35629 0
M  V30 12184 C 1147.67 0.609886 -2.7051 0
M  V30 12185 H 1150.62 -0.122474 -1.58227 0
M  V30 12186 H 1150.64 2.07169 -3.19157 0
M  V30 12187 H 1150.16 0.374901 -3.86285 0
M  V30 12188 H 1148.26 2.55542 -2.71162 0
M  V30 12189 H 1148.37 1.80263 -4.43894 0
M  V30 12190 H 1146.73 1.04728 -2.32173 0
M  V30 12191 H 1147.52 -0.206713 -3.42677 0
M  V30 12192 N 1149.96 1.53094 0.37415 0
M  V30 12193 C 1150.87 1.81872 1.48188 0
M  V30 12194 C 1151.89 0.706487 1.59012 0
M  V30 12195 O 1153.06 0.995648 1.75068 0
M  V30 12196 C 1150.13 1.99494 2.83554 0
M  V30 12197 C 1149.19 3.23402 2.82329 0
M  V30 12198 C 1148.42 3.40174 4.11239 0
M  V30 12199 O 1148.65 2.61425 5.06965 0
M  V30 12200 O 1147.58 4.33493 4.17573 0
M  V30 12201 H 1151.41 2.75965 1.26795 0
M  V30 12202 H 1148.99 1.38368 0.56343 0
M  V30 12203 H 1150.87 2.12705 3.63778 0
M  V30 12204 H 1149.55 1.08591 3.04942 0
M  V30 12205 H 1148.45 3.15621 2.00834 0
M  V30 12206 H 1149.79 4.14199 2.65894 0
M  V30 12207 N 1151.44 -0.633461 1.44309 0
M  V30 12208 C 1152.4 -1.72743 1.50641 0
M  V30 12209 C 1153.4 -1.56031 0.388718 0
M  V30 12210 O 1154.59 -1.61568 0.651251 0
M  V30 12211 C 1151.72 -3.11804 1.37809 0
M  V30 12212 H 1152.92 -1.68503 2.48086 0
M  V30 12213 H 1150.47 -0.846912 1.31366 0
M  V30 12214 H 1151.21 -3.2164 0.414483 0
M  V30 12215 H 1150.99 -3.2534 2.18852 0
M  V30 12216 H 1152.48 -3.91538 1.45216 0
M  V30 12217 N 1152.92 -1.31168 -0.873655 0
M  V30 12218 C 1154.33 -1.09745 -1.1588 0
M  V30 12219 C 1154.53 0.134471 -2.01051 0
M  V30 12220 O 1153.59 0.824857 -2.38647 0
M  V30 12221 C 1154.9 -2.36704 -1.85451 0
M  V30 12222 C 1156.45 -2.42278 -1.98167 0
M  V30 12223 C 1156.93 -3.69108 -2.71152 0
M  V30 12224 N 1158.42 -3.69981 -2.7869 0
M  V30 12225 C 1159.15 -4.64811 -3.35765 0
M  V30 12226 N 1158.65 -5.69995 -3.938 0
M  V30 12227 N 1160.44 -4.52337 -3.33688 0
M  V30 12228 H 1152.59 -2.10184 -0.306021 0
M  V30 12229 H 1154.86 -0.927058 -0.198159 0
M  V30 12230 H 1154.56 -3.26666 -1.30316 0
M  V30 12231 H 1154.44 -2.46219 -2.85755 0
M  V30 12232 H 1156.82 -1.52787 -2.52468 0
M  V30 12233 H 1156.9 -2.3673 -0.969164 0
M  V30 12234 H 1156.55 -4.58963 -2.1752 0
M  V30 12235 H 1156.48 -3.71922 -3.72803 0
M  V30 12236 H 1158.97 -2.93944 -2.37498 0
M  V30 12237 H 1159.28 -6.38438 -4.3545 0
M  V30 12238 H 1157.63 -5.73773 -3.92186 0
M  V30 12239 H 1160.82 -3.69341 -2.87584 0
M  V30 12240 H 1160.99 -5.2642 -3.77871 0
M  V30 12241 N 1154.4 1.08748 -1.14068 0
M  V30 12242 C 1155.64 1.80707 -0.904947 0
M  V30 12243 C 1155.97 1.86478 0.570167 0
M  V30 12244 O 1155.24 1.35536 1.41445 0
M  V30 12245 H 1153.82 0.669261 -0.331811 0
M  V30 12246 H 1156.48 1.31494 -1.43859 0
M  V30 12247 H 1155.57 2.83653 -1.30182 0
M  V30 12248 N 1155.87 0.935264 1.26849 0
M  V30 12249 C 1157.15 0.497797 1.8916 0
M  V30 12250 C 1157.53 -1.02441 1.84578 0
M  V30 12251 O 1156.88 -1.88185 1.29609 0
M  V30 12252 C 1157.09 1.05244 3.32753 0
M  V30 12253 C 1158.44 1.11751 4.0963 0
M  V30 12254 O 1159.46 1.0026 3.41799 0
M  V30 12255 O 1158.32 1.29548 5.30923 0
M  V30 12256 H 1155.41 0.161322 0.811113 0
M  V30 12257 H 1157.96 1.02744 1.35062 0
M  V30 12258 H 1156.73 2.09617 3.30419 0
M  V30 12259 H 1156.36 0.504889 3.94381 0
M  V30 12260 N 1157.35 -1.41121 0.701616 0
M  V30 12261 C 1158.63 -1.9492 0.162911 0
M  V30 12262 C 1159.01 -1.64064 -1.32839 0
M  V30 12263 O 1158.36 -0.950848 -2.07777 0
M  V30 12264 C 1158.57 -3.45946 0.460673 0
M  V30 12265 C 1159.92 -4.22789 0.391706 0
M  V30 12266 O 1160.94 -3.53993 0.395931 0
M  V30 12267 O 1159.8 -5.45332 0.357071 0
M  V30 12268 H 1156.89 -0.826793 0.0185103 0
M  V30 12269 H 1159.44 -1.50805 0.778192 0
M  V30 12270 H 1158.21 -3.61711 1.49269 0
M  V30 12271 H 1157.83 -3.97168 -0.185277 0
M  V30 12272 N 1158.83 -0.446794 -1.51134 0
M  V30 12273 C 1159.79 0.348311 -2.26538 0
M  V30 12274 C 1160.79 0.941566 -1.3035 0
M  V30 12275 O 1161.98 0.814537 -1.53984 0
M  V30 12276 C 1159.12 1.49371 -3.06433 0
M  V30 12277 H 1160.31 -0.312648 -2.98266 0
M  V30 12278 H 1157.86 -0.200201 -1.55013 0
M  V30 12279 H 1158.6 2.19045 -2.39144 0
M  V30 12280 H 1158.38 1.07439 -3.77093 0
M  V30 12281 H 1159.87 2.05522 -3.63525 0
M  V30 12282 N 1160.31 1.56586 -0.178487 0
M  V30 12283 C 1161.55 1.98159 0.45876 0
M  V30 12284 C 1161.91 1.0629 1.60375 0
M  V30 12285 O 1161.2 0.103975 1.91318 0
M  V30 12286 C 1161.4 3.43629 0.982552 0
M  V30 12287 C 1161.23 4.49565 -0.110152 0
M  V30 12288 C 1160 5.02162 -0.562228 0
M  V30 12289 C 1162.19 5.06129 -0.913143 0
M  V30 12290 N 1160.18 5.91741 -1.63449 0
M  V30 12291 C 1161.55 5.92217 -1.83517 0
M  V30 12292 C 1163.6 4.88608 -0.957421 0
M  V30 12293 C 1162.3 6.6266 -2.79775 0
M  V30 12294 C 1164.33 5.59777 -1.90798 0
M  V30 12295 C 1163.69 6.45599 -2.81747 0
M  V30 12296 H 1159.79 0.770124 0.13577 0
M  V30 12297 H 1162.38 1.92671 -0.280358 0
M  V30 12298 H 1160.55 3.49649 1.69117 0
M  V30 12299 H 1162.28 3.72199 1.58902 0
M  V30 12300 H 1159.03 4.73334 -0.158612 0
M  V30 12301 H 1159.46 6.41235 -2.17132 0
M  V30 12302 H 1164.1 4.21948 -0.268285 0
M  V30 12303 H 1161.82 7.28529 -3.49673 0
M  V30 12304 H 1165.4 5.48204 -1.94844 0
M  V30 12305 H 1164.28 6.99701 -3.54102 0
M  V30 12306 N 1161.79 -0.095206 1.57312 0
M  V30 12307 C 1162.73 -1.11551 2.02052 0
M  V30 12308 C 1163.7 -1.39808 0.896818 0
M  V30 12309 O 1164.89 -1.51273 1.1628 0
M  V30 12310 C 1162.03 -2.43056 2.44985 0
M  V30 12311 C 1161.14 -2.21531 3.70875 0
M  V30 12312 C 1160.28 -3.46434 4.02687 0
M  V30 12313 C 1159.32 -3.2017 5.21687 0
M  V30 12314 N 1158.45 -4.37339 5.49253 0
M  V30 12315 H 1163.29 -0.727 2.88996 0
M  V30 12316 H 1160.83 -0.347441 1.42938 0
M  V30 12317 H 1162.79 -3.19803 2.67921 0
M  V30 12318 H 1161.42 -2.79754 1.61051 0
M  V30 12319 H 1160.47 -1.35587 3.55416 0
M  V30 12320 H 1161.78 -1.98116 4.57768 0
M  V30 12321 H 1160.94 -4.31589 4.26399 0
M  V30 12322 H 1159.67 -3.72904 3.14315 0
M  V30 12323 H 1158.68 -2.33409 4.97796 0
M  V30 12324 H 1159.9 -2.95047 6.11657 0
M  V30 12325 H 1157.85 -4.63885 4.6384 0
M  V30 12326 H 1157.77 -4.17114 6.30517 0
M  V30 12327 H 1159.04 -5.23559 5.775 0
M  V30 12328 N 1163.26 -1.53291 -0.366026 0
M  V30 12329 C 1164.51 -1.69702 -1.11036 0
M  V30 12330 C 1164.84 -0.44728 -1.88979 0
M  V30 12331 O 1164.12 0.55542 -1.86401 0
M  V30 12332 C 1164.4 -2.94661 -2.06995 0
M  V30 12333 C 1164.25 -4.29791 -1.32663 0
M  V30 12334 C 1165.57 -3.15219 -3.07123 0
M  V30 12335 H 1162.69 -0.617525 -0.402284 0
M  V30 12336 H 1165.33 -1.85929 -0.391223 0
M  V30 12337 H 1163.48 -2.80958 -2.68318 0
M  V30 12338 H 1165.16 -4.55305 -0.741266 0
M  V30 12339 H 1163.4 -4.29223 -0.628484 0
M  V30 12340 H 1164.07 -5.13359 -2.02896 0
M  V30 12341 H 1166.55 -3.28105 -2.55903 0
M  V30 12342 H 1165.42 -4.04088 -3.71489 0
M  V30 12343 H 1165.68 -2.30479 -3.77269 0
M  V30 12344 N 1164.74 0.6258 -1.44643 0
M  V30 12345 C 1165.97 1.41028 -1.50979 0
M  V30 12346 C 1166.38 1.88717 -0.135092 0
M  V30 12347 O 1165.72 1.61778 0.870268 0
M  V30 12348 C 1165.79 2.66094 -2.41732 0
M  V30 12349 C 1165.45 2.40166 -3.88805 0
M  V30 12350 C 1166.45 2.01661 -4.79196 0
M  V30 12351 C 1164.13 2.53641 -4.33557 0
M  V30 12352 C 1166.13 1.76966 -6.12341 0
M  V30 12353 C 1163.81 2.2856 -5.66748 0
M  V30 12354 C 1164.81 1.90282 -6.55959 0
M  V30 12355 O 1164.5 1.65484 -7.86683 0
M  V30 12356 H 1164.23 0.438757 -0.514265 0
M  V30 12357 H 1166.78 0.772034 -1.90339 0
M  V30 12358 H 1165.01 3.32575 -1.97309 0
M  V30 12359 H 1166.7 3.28107 -2.38957 0
M  V30 12360 H 1167.47 1.90802 -4.45892 0
M  V30 12361 H 1163.35 2.82404 -3.64375 0
M  V30 12362 H 1166.89 1.47014 -6.81933 0
M  V30 12363 H 1162.79 2.3903 -5.99612 0
M  V30 12364 H 1163.56 1.79686 -7.98533 0
M  V30 12365 N 1166.22 1.31629 0.866686 0
M  V30 12366 C 1167.47 1.21503 1.61998 0
M  V30 12367 C 1167.8 -0.226044 1.93182 0
M  V30 12368 O 1167.05 -1.17573 1.56445 0
M  V30 12369 C 1167.35 2.00775 2.95676 0
M  V30 12370 C 1167.02 3.50245 2.83971 0
M  V30 12371 C 1165.68 3.91 2.80485 0
M  V30 12372 C 1168.03 4.45347 2.70769 0
M  V30 12373 C 1165.36 5.25119 2.61661 0
M  V30 12374 C 1167.71 5.79595 2.53481 0
M  V30 12375 C 1166.37 6.19567 2.48381 0
M  V30 12376 H 1165.64 0.44461 0.592792 0
M  V30 12377 H 1168.29 1.62929 1.00629 0
M  V30 12378 H 1166.6 1.52039 3.61097 0
M  V30 12379 H 1168.29 1.90318 3.52959 0
M  V30 12380 H 1164.88 3.17869 2.87502 0
M  V30 12381 H 1169.07 4.14789 2.72514 0
M  V30 12382 H 1164.32 5.5516 2.5614 0
M  V30 12383 H 1168.5 6.5291 2.42243 0
M  V30 12384 H 1166.12 7.23434 2.33554 0
M  V30 12385 N 1167.7 -1.08142 1.14644 0
M  V30 12386 C 1168.98 -1.77254 0.827071 0
M  V30 12387 C 1169.36 -1.99885 -0.67891 0
M  V30 12388 O 1168.7 -1.61084 -1.62062 0
M  V30 12389 C 1168.91 -3.08658 1.62884 0
M  V30 12390 C 1170.26 -3.83143 1.82993 0
M  V30 12391 O 1171.29 -3.18447 1.59593 0
M  V30 12392 O 1170.15 -4.9932 2.2213 0
M  V30 12393 H 1167.24 -0.769356 0.30335 0
M  V30 12394 H 1169.79 -1.1458 1.25178 0
M  V30 12395 H 1168.56 -2.87753 2.65168 0
M  V30 12396 H 1168.18 -3.79061 1.19994 0
M  V30 12397 N 1169.18 -0.941978 -1.26351 0
M  V30 12398 C 1170.09 -0.45833 -2.30079 0
M  V30 12399 C 1171.1 0.468084 -1.67586 0
M  V30 12400 O 1172.28 0.347418 -1.98381 0
M  V30 12401 C 1169.34 0.26797 -3.45663 0
M  V30 12402 C 1168.41 -0.695102 -4.23635 0
M  V30 12403 C 1167.64 -0.003369 -5.337 0
M  V30 12404 O 1167.86 1.21342 -5.57344 0
M  V30 12405 O 1166.8 -0.682476 -5.98018 0
M  V30 12406 H 1170.62 -1.31998 -2.73514 0
M  V30 12407 H 1168.21 -0.707897 -1.31564 0
M  V30 12408 H 1170.09 0.677061 -4.15925 0
M  V30 12409 H 1168.76 1.105 -3.04256 0
M  V30 12410 H 1167.67 -1.15415 -3.55851 0
M  V30 12411 H 1169 -1.49977 -4.68794 0
M  V30 12412 N 1170.66 1.40747 -0.709091 0
M  V30 12413 C 1171.88 2.05319 -0.255258 0
M  V30 12414 C 1172.3 1.53406 1.10054 0
M  V30 12415 O 1171.66 0.687905 1.69039 0
M  V30 12416 C 1171.71 3.60835 -0.219251 0
M  V30 12417 O 1171.43 4.1083 -1.52151 0
M  V30 12418 C 1172.93 4.42572 0.253927 0
M  V30 12419 H 1170.15 0.660904 -0.115959 0
M  V30 12420 H 1172.69 1.80274 -0.965474 0
M  V30 12421 H 1170.85 3.84872 0.441882 0
M  V30 12422 H 1171.26 5.04979 -1.41764 0
M  V30 12423 H 1172.74 5.51529 0.22798 0
M  V30 12424 H 1173.21 4.19673 1.29504 0
M  V30 12425 H 1173.82 4.23629 -0.376694 0
M  V30 12426 N 1172.13 0.454803 1.50895 0
M  V30 12427 C 1173.1 -0.336293 2.26719 0
M  V30 12428 C 1174.1 -0.93464 1.30848 0
M  V30 12429 O 1175.29 -0.80636 1.54413 0
M  V30 12430 C 1172.42 -1.47744 3.07221 0
M  V30 12431 H 1173.61 0.328462 2.98096 0
M  V30 12432 H 1171.16 0.208419 1.54904 0
M  V30 12433 H 1171.9 -2.17773 2.40302 0
M  V30 12434 H 1171.68 -1.05438 3.77658 0
M  V30 12435 H 1173.17 -2.03592 3.6461 0
M  V30 12436 N 1173.61 -1.56489 0.186789 0
M  V30 12437 C 1174.54 -2.15911 -0.769104 0
M  V30 12438 C 1175.56 -1.11872 -1.18273 0
M  V30 12439 O 1176.75 -1.38999 -1.1199 0
M  V30 12440 C 1173.85 -2.69957 -2.04882 0
M  V30 12441 C 1173.02 -3.98812 -1.79631 0
M  V30 12442 C 1172.08 -4.37767 -2.9197 0
M  V30 12443 O 1171.1 -5.0535 -2.61935 0
M  V30 12444 N 1172.31 -4.0059 -4.20128 0
M  V30 12445 H 1175.07 -2.98561 -0.261007 0
M  V30 12446 H 1172.63 -1.61899 0.00453357 0
M  V30 12447 H 1174.62 -2.93006 -2.79158 0
M  V30 12448 H 1173.19 -1.91808 -2.46837 0
M  V30 12449 H 1172.41 -3.8398 -0.891776 0
M  V30 12450 H 1173.7 -4.82939 -1.60148 0
M  V30 12451 H 1173.1 -3.46213 -4.47385 0
M  V30 12452 H 1171.66 -4.28608 -4.91059 0
M  V30 12453 N 1175.09 0.086862 -1.5736 0
M  V30 12454 C 1176 1.12297 -2.05977 0
M  V30 12455 C 1177.02 1.43347 -0.986284 0
M  V30 12456 O 1178.19 1.53825 -1.3 0
M  V30 12457 C 1175.26 2.42131 -2.4814 0
M  V30 12458 C 1174.32 2.18189 -3.69719 0
M  V30 12459 C 1173.55 3.41833 -4.09861 0
M  V30 12460 O 1173.77 4.50383 -3.50016 0
M  V30 12461 O 1172.71 3.30934 -5.02759 0
M  V30 12462 H 1176.53 0.740012 -2.94546 0
M  V30 12463 H 1174.12 0.29995 -1.46358 0
M  V30 12464 H 1176 3.18568 -2.75848 0
M  V30 12465 H 1174.68 2.79837 -1.62705 0
M  V30 12466 H 1173.58 1.39506 -3.47115 0
M  V30 12467 H 1174.92 1.85372 -4.55959 0
M  V30 12468 N 1176.57 1.53483 0.357892 0
M  V30 12469 C 1177.82 1.69256 1.09706 0
M  V30 12470 C 1178.13 0.454888 1.90237 0
M  V30 12471 O 1179.34 0.4933 2.66981 0
M  V30 12472 C 1177.79 2.99238 1.99961 0
M  V30 12473 C 1177.4 4.30293 1.24706 0
M  V30 12474 C 1179.14 3.24378 2.73823 0
M  V30 12475 C 1177.05 5.5136 2.13907 0
M  V30 12476 H 1175.98 0.630657 0.413265 0
M  V30 12477 H 1178.63 1.79983 0.357518 0
M  V30 12478 H 1177.01 2.82332 2.77677 0
M  V30 12479 H 1178.19 4.57857 0.519995 0
M  V30 12480 H 1176.5 4.11656 0.626736 0
M  V30 12481 H 1179.1 4.12015 3.40805 0
M  V30 12482 H 1179.44 2.40769 3.39612 0
M  V30 12483 H 1179.98 3.41994 2.03187 0
M  V30 12484 H 1176.71 6.3747 1.52684 0
M  V30 12485 H 1176.23 5.28065 2.84442 0
M  V30 12486 H 1177.91 5.86448 2.7329 0
M  V30 12487 N 1178.05 -0.61812 1.44973 0
M  V30 12488 C 1179.29 -1.37944 1.48658 0
M  V30 12489 C 1179.62 -1.93805 0.123749 0
M  V30 12490 O 1178.9 -1.74434 -0.860401 0
M  V30 12491 C 1179.18 -2.53515 2.55739 0
M  V30 12492 C 1179.04 -2.02918 4.01428 0
M  V30 12493 C 1180.35 -3.55674 2.59199 0
M  V30 12494 H 1177.47 -0.500223 0.541244 0
M  V30 12495 H 1180.12 -0.69774 1.76725 0
M  V30 12496 H 1178.27 -3.11669 2.31937 0
M  V30 12497 H 1179.94 -1.49494 4.36405 0
M  V30 12498 H 1178.18 -1.33999 4.12586 0
M  V30 12499 H 1178.85 -2.86181 4.72021 0
M  V30 12500 H 1181.33 -3.07343 2.80499 0
M  V30 12501 H 1180.2 -4.34042 3.36004 0
M  V30 12502 H 1180.46 -4.10601 1.63888 0
M  V30 12503 N 1179.52 -1.32087 -0.859693 0
M  V30 12504 C 1180.8 -1.12984 -1.59668 0
M  V30 12505 C 1181.18 0.311661 -2.08787 0
M  V30 12506 O 1180.53 1.30746 -1.87397 0
M  V30 12507 C 1180.74 -2.15305 -2.74672 0
M  V30 12508 C 1182.09 -2.48371 -3.44379 0
M  V30 12509 O 1183.11 -2.13811 -2.84891 0
M  V30 12510 O 1181.97 -3.07594 -4.51717 0
M  V30 12511 H 1179.06 -0.435657 -0.702945 0
M  V30 12512 H 1181.61 -1.43601 -0.90426 0
M  V30 12513 H 1180.38 -3.12223 -2.35866 0
M  V30 12514 H 1180 -1.85653 -3.51594 0
M  V30 12515 N 1181 1.07532 -1.15215 0
M  V30 12516 C 1181.91 2.18222 -0.861192 0
M  V30 12517 C 1182.93 1.73246 0.161798 0
M  V30 12518 O 1184.1 2.01397 -0.0118386 0
M  V30 12519 C 1181.17 3.44902 -0.352601 0
M  V30 12520 C 1180.23 4.04455 -1.43926 0
M  V30 12521 C 1179.46 5.25089 -0.954841 0
M  V30 12522 O 1179.69 5.70048 0.200294 0
M  V30 12523 O 1178.62 5.76269 -1.73774 0
M  V30 12524 H 1182.45 2.45599 -1.78648 0
M  V30 12525 H 1180.03 1.16835 -0.93112 0
M  V30 12526 H 1181.91 4.21333 -0.0753347 0
M  V30 12527 H 1180.59 3.19082 0.544841 0
M  V30 12528 H 1179.49 3.29573 -1.7701 0
M  V30 12529 H 1180.83 4.34544 -2.31155 0
M  V30 12530 N 1182.48 0.948665 1.2585 0
M  V30 12531 C 1183.73 0.600236 1.934 0
M  V30 12532 C 1184.06 -0.86185 1.74363 0
M  V30 12533 O 1183.31 -1.63294 1.07858 0
M  V30 12534 C 1183.61 0.89784 3.45939 0
M  V30 12535 C 1183.28 2.345 3.85124 0
M  V30 12536 C 1181.94 2.74058 3.95532 0
M  V30 12537 C 1184.29 3.2851 4.04636 0
M  V30 12538 C 1181.62 4.06707 4.22855 0
M  V30 12539 C 1183.97 4.60764 4.3345 0
M  V30 12540 C 1182.63 5.00127 4.42074 0
M  V30 12541 H 1181.9 0.219642 0.707699 0
M  V30 12542 H 1184.55 1.19658 1.49513 0
M  V30 12543 H 1182.86 0.219037 3.91187 0
M  V30 12544 H 1184.55 0.606916 3.96381 0
M  V30 12545 H 1181.14 2.02819 3.77574 0
M  V30 12546 H 1185.33 2.99141 3.96015 0
M  V30 12547 H 1180.58 4.36856 4.27746 0
M  V30 12548 H 1184.76 5.33594 4.47493 0
M  V30 12549 H 1182.38 6.02939 4.63 0
M  V30 12550 N 1183.96 -1.40369 0.716545 0
M  V30 12551 C 1184.92 -2.29083 0.0733105 0
M  V30 12552 C 1185.92 -1.45415 -0.686378 0
M  V30 12553 O 1187.11 -1.66316 -0.518139 0
M  V30 12554 C 1184.24 -3.28639 -0.906032 0
M  V30 12555 H 1185.44 -2.87464 0.85467 0
M  V30 12556 H 1182.99 -1.48706 0.481256 0
M  V30 12557 H 1183.72 -2.75279 -1.71441 0
M  V30 12558 H 1183.51 -3.90405 -0.364163 0
M  V30 12559 H 1185 -3.95066 -1.35324 0
M  V30 12560 N 1185.44 -0.462799 -1.50652 0
M  V30 12561 C 1186.37 0.381469 -2.24989 0
M  V30 12562 C 1187.35 1.00328 -1.27957 0
M  V30 12563 O 1188.53 1.04082 -1.5716 0
M  V30 12564 C 1185.66 1.53378 -3.01981 0
M  V30 12565 C 1184.7 1.03017 -4.13872 0
M  V30 12566 S 1185.54 -0.048447 -5.35478 0
M  V30 12567 C 1186.69 1.10794 -6.16016 0
M  V30 12568 H 1186.93 -0.249578 -2.96251 0
M  V30 12569 H 1184.46 -0.247583 -1.52402 0
M  V30 12570 H 1186.42 2.19425 -3.46934 0
M  V30 12571 H 1185.08 2.13632 -2.30261 0
M  V30 12572 H 1184.27 1.8926 -4.67115 0
M  V30 12573 H 1183.87 0.447548 -3.71313 0
M  V30 12574 H 1186.17 2.02125 -6.46646 0
M  V30 12575 H 1187.11 0.614937 -7.05425 0
M  V30 12576 H 1187.52 1.35802 -5.47922 0
M  V30 12577 N 1186.91 1.56388 -0.195085 0
M  V30 12578 C 1188.33 1.58788 0.160758 0
M  V30 12579 C 1188.53 1.21125 1.61031 0
M  V30 12580 O 1187.59 0.933994 2.34591 0
M  V30 12581 C 1188.9 3.00366 -0.141588 0
M  V30 12582 C 1190.45 3.12893 -0.0816947 0
M  V30 12583 C 1190.92 4.56604 -0.35735 0
M  V30 12584 N 1192.41 4.62188 -0.305968 0
M  V30 12585 C 1193.15 5.71276 -0.493108 0
M  V30 12586 N 1192.64 6.8883 -0.740595 0
M  V30 12587 N 1194.44 5.60473 -0.427365 0
M  V30 12588 H 1186.59 1.79151 -1.14099 0
M  V30 12589 H 1188.85 0.831446 -0.455413 0
M  V30 12590 H 1188.56 3.32483 -1.14666 0
M  V30 12591 H 1188.43 3.73082 0.555834 0
M  V30 12592 H 1190.82 2.80589 0.913978 0
M  V30 12593 H 1190.9 2.42564 -0.812193 0
M  V30 12594 H 1190.54 4.8962 -1.35034 0
M  V30 12595 H 1190.47 5.25124 0.394036 0
M  V30 12596 H 1192.96 3.77705 -0.121298 0
M  V30 12597 H 1193.28 7.67862 -0.872201 0
M  V30 12598 H 1191.62 6.90637 -0.777488 0
M  V30 12599 H 1194.81 4.67513 -0.234436 0
M  V30 12600 H 1194.99 6.45429 -0.576627 0
M  V30 12601 N 1188.39 -0.0785156 1.57404 0
M  V30 12602 C 1189.62 -0.790893 1.90862 0
M  V30 12603 C 1190.03 -1.7198 0.788644 0
M  V30 12604 O 1189.37 -1.82027 -0.247322 0
M  V30 12605 C 1189.44 -1.64362 3.19727 0
M  V30 12606 C 1189.1 -0.884796 4.48353 0
M  V30 12607 C 1190.1 -0.207074 5.19487 0
M  V30 12608 C 1187.78 -0.853962 4.94988 0
M  V30 12609 C 1189.78 0.491329 6.35504 0
M  V30 12610 C 1187.46 -0.151783 6.10911 0
M  V30 12611 C 1188.46 0.519669 6.8102 0
M  V30 12612 O 1188.15 1.21055 7.94733 0
M  V30 12613 H 1187.88 -0.230427 0.635515 0
M  V30 12614 H 1190.43 -0.0551231 2.05326 0
M  V30 12615 H 1188.66 -2.42203 3.01454 0
M  V30 12616 H 1190.35 -2.23406 3.38887 0
M  V30 12617 H 1191.12 -0.222247 4.84491 0
M  V30 12618 H 1187 -1.36605 4.40296 0
M  V30 12619 H 1190.54 1.01598 6.90162 0
M  V30 12620 H 1186.44 -0.134514 6.4536 0
M  V30 12621 H 1187.21 1.11914 8.10813 0
M  V30 12622 N 1189.87 -1.5367 -0.349747 0
M  V30 12623 C 1191.12 -1.70281 -1.08853 0
M  V30 12624 C 1191.44 -0.465438 -1.89364 0
M  V30 12625 O 1190.71 0.520615 -1.88856 0
M  V30 12626 H 1189.29 -0.627775 -0.404854 0
M  V30 12627 H 1191.95 -1.90906 -0.392523 0
M  V30 12628 H 1191.05 -2.57096 -1.76941 0
M  V30 12629 N 1191.35 0.610423 -1.45298 0
M  V30 12630 C 1192.6 1.36558 -1.48441 0
M  V30 12631 C 1192.91 1.95173 -0.129137 0
M  V30 12632 O 1194.12 2.71473 -0.0381956 0
M  V30 12633 C 1192.57 2.47349 -2.61431 0
M  V30 12634 C 1192.18 1.95158 -4.03258 0
M  V30 12635 C 1193.92 3.24383 -2.73817 0
M  V30 12636 C 1191.83 3.03414 -5.07635 0
M  V30 12637 H 1190.76 0.513253 -0.552347 0
M  V30 12638 H 1193.41 0.654535 -1.7143 0
M  V30 12639 H 1191.79 3.21125 -2.31721 0
M  V30 12640 H 1192.97 1.2811 -4.42634 0
M  V30 12641 H 1191.28 1.30878 -3.95297 0
M  V30 12642 H 1193.88 4.05123 -3.48969 0
M  V30 12643 H 1194.22 3.75205 -1.80352 0
M  V30 12644 H 1194.76 2.57705 -3.03039 0
M  V30 12645 H 1191.5 2.57512 -6.028 0
M  V30 12646 H 1191.02 3.69039 -4.72833 0
M  V30 12647 H 1192.69 3.67844 -5.32259 0
M  V30 12648 N 1192.83 1.32541 0.852676 0
M  V30 12649 C 1193.74 1.23646 1.99371 0
M  V30 12650 C 1194.75 0.149673 1.73355 0
M  V30 12651 O 1195.93 0.370716 1.97959 0
M  V30 12652 C 1192.99 0.961873 3.3309 0
M  V30 12653 C 1192.05 2.1373 3.72315 0
M  V30 12654 C 1191.29 1.87572 4.99652 0
M  V30 12655 O 1191.51 0.819247 5.64486 0
M  V30 12656 O 1190.44 2.73732 5.36054 0
M  V30 12657 H 1194.27 2.19573 2.09813 0
M  V30 12658 H 1191.86 1.12451 0.983627 0
M  V30 12659 H 1193.74 0.825316 4.13239 0
M  V30 12660 H 1192.41 0.0327745 3.23683 0
M  V30 12661 H 1191.32 2.32933 2.92733 0
M  V30 12662 H 1192.65 3.04925 3.86369 0
M  V30 12663 N 1194.3 -1.0692 1.15784 0
M  V30 12664 C 1195.53 -1.83849 0.959903 0
M  V30 12665 C 1195.95 -1.8169 -0.486873 0
M  V30 12666 O 1195.31 -1.21305 -1.34739 0
M  V30 12667 C 1195.36 -3.28642 1.48414 0
M  V30 12668 O 1194.46 -4.0665 0.686249 0
M  V30 12669 H 1193.81 -0.569115 0.342059 0
M  V30 12670 H 1196.34 -1.34851 1.53871 0
M  V30 12671 H 1196.35 -3.7947 1.49888 0
M  V30 12672 H 1195.02 -3.29529 2.53739 0
M  V30 12673 H 1193.6 -3.65453 0.741501 0
M  V30 12674 N 1195.78 -0.955326 -1.25345 0
M  V30 12675 C 1197.03 -0.606149 -1.92377 0
M  V30 12676 C 1197.34 0.860927 -1.75634 0
M  V30 12677 O 1198.55 1.3201 -2.37246 0
M  V30 12678 C 1197.01 -1.03341 -3.44744 0
M  V30 12679 C 1196.61 -2.52308 -3.70196 0
M  V30 12680 C 1198.36 -0.756797 -4.17699 0
M  V30 12681 C 1196.27 -2.88831 -5.16072 0
M  V30 12682 H 1195.2 -0.222994 -0.720271 0
M  V30 12683 H 1197.85 -1.15987 -1.42194 0
M  V30 12684 H 1196.23 -0.408096 -3.93892 0
M  V30 12685 H 1197.4 -3.19864 -3.31698 0
M  V30 12686 H 1195.72 -2.77448 -3.10502 0
M  V30 12687 H 1198.31 -1.00583 -5.25154 0
M  V30 12688 H 1198.66 0.306794 -4.15168 0
M  V30 12689 H 1199.19 -1.34249 -3.74462 0
M  V30 12690 H 1195.93 -3.9421 -5.23716 0
M  V30 12691 H 1195.45 -2.25948 -5.55614 0
M  V30 12692 H 1197.13 -2.78061 -5.84201 0
M  V30 12693 N 1197.26 1.39987 -0.723979 0
M  V30 12694 C 1198.49 2.0474 -0.276618 0
M  V30 12695 C 1198.9 1.54675 1.0896 0
M  V30 12696 O 1198.24 0.701956 1.69759 0
M  V30 12697 C 1198.3 3.59009 -0.187912 0
M  V30 12698 C 1197.97 4.32 -1.49079 0
M  V30 12699 C 1198.97 4.59385 -2.43436 0
M  V30 12700 C 1196.65 4.70753 -1.75204 0
M  V30 12701 C 1198.64 5.24519 -3.62159 0
M  V30 12702 C 1196.33 5.35617 -2.94206 0
M  V30 12703 C 1197.33 5.62431 -3.87506 0
M  V30 12704 O 1197.02 6.25952 -5.0442 0
M  V30 12705 H 1196.75 0.665164 -0.120554 0
M  V30 12706 H 1199.3 1.80226 -0.98527 0
M  V30 12707 H 1197.53 3.82375 0.576753 0
M  V30 12708 H 1199.22 4.0527 0.225993 0
M  V30 12709 H 1199.99 4.29902 -2.24519 0
M  V30 12710 H 1195.87 4.49247 -1.03433 0
M  V30 12711 H 1199.41 5.45364 -4.34999 0
M  V30 12712 H 1195.31 5.64521 -3.13029 0
M  V30 12713 H 1196.08 6.44448 -5.04608 0
M  V30 12714 N 1198.74 0.470782 1.50404 0
M  V30 12715 C 1199.67 -0.359838 2.26358 0
M  V30 12716 C 1200.68 -0.95735 1.31676 0
M  V30 12717 O 1201.87 -0.84581 1.57189 0
M  V30 12718 C 1198.97 -1.51864 3.02969 0
M  V30 12719 C 1198.15 -1.03397 4.25003 0
M  V30 12720 C 1197.21 -2.06679 4.83911 0
M  V30 12721 O 1196.23 -1.64754 5.44835 0
M  V30 12722 N 1197.43 -3.39484 4.70883 0
M  V30 12723 H 1200.2 0.291299 2.98281 0
M  V30 12724 H 1197.76 0.301549 1.59067 0
M  V30 12725 H 1199.75 -2.2065 3.39258 0
M  V30 12726 H 1198.32 -2.07448 2.33846 0
M  V30 12727 H 1197.54 -0.172012 3.93825 0
M  V30 12728 H 1198.83 -0.68807 5.04126 0
M  V30 12729 H 1198.23 -3.76256 4.22431 0
M  V30 12730 H 1196.78 -4.04068 5.11441 0
M  V30 12731 N 1200.22 -1.56282 0.203376 0
M  V30 12732 C 1201.18 -2.18233 -0.700489 0
M  V30 12733 C 1202.18 -1.13908 -1.13497 0
M  V30 12734 O 1203.37 -1.39246 -1.04672 0
M  V30 12735 C 1200.5 -2.79107 -1.95735 0
M  V30 12736 H 1201.7 -2.99469 -0.160649 0
M  V30 12737 H 1199.25 -1.56232 -0.0462475 0
M  V30 12738 H 1199.98 -2.01691 -2.53951 0
M  V30 12739 H 1199.77 -3.55486 -1.65446 0
M  V30 12740 H 1201.26 -3.2665 -2.60172 0
M  V30 12741 N 1201.7 0.070167 -1.57444 0
M  V30 12742 C 1202.63 1.11509 -1.991 0
M  V30 12743 C 1203.61 1.37481 -0.868194 0
M  V30 12744 O 1204.79 1.50827 -1.13064 0
M  V30 12745 C 1201.92 2.45908 -2.3291 0
M  V30 12746 C 1200.96 2.36059 -3.55216 0
M  V30 12747 S 1201.8 1.75316 -5.05989 0
M  V30 12748 C 1202.95 3.11289 -5.43001 0
M  V30 12749 H 1203.19 0.760096 -2.87419 0
M  V30 12750 H 1200.72 0.278756 -1.51863 0
M  V30 12751 H 1202.68 3.23217 -2.53063 0
M  V30 12752 H 1201.34 2.78567 -1.45117 0
M  V30 12753 H 1200.53 3.35176 -3.76395 0
M  V30 12754 H 1200.13 1.66886 -3.34701 0
M  V30 12755 H 1202.42 4.07603 -5.41171 0
M  V30 12756 H 1203.37 2.94888 -6.43775 0
M  V30 12757 H 1203.78 3.11969 -4.70463 0
M  V30 12758 N 1203.17 1.53854 0.341593 0
M  V30 12759 C 1204.4 1.75134 1.10162 0
M  V30 12760 C 1204.82 0.491415 1.82292 0
M  V30 12761 O 1204.17 -0.53703 1.7442 0
M  V30 12762 C 1204.22 2.93273 2.1136 0
M  V30 12763 O 1203.95 4.14393 1.42162 0
M  V30 12764 C 1205.45 3.26621 2.99723 0
M  V30 12765 H 1202.67 0.585126 0.328434 0
M  V30 12766 H 1205.21 2.00684 0.393204 0
M  V30 12767 H 1203.37 2.70048 2.77764 0
M  V30 12768 H 1203.78 4.8072 2.09783 0
M  V30 12769 H 1205.25 4.12629 3.66662 0
M  V30 12770 H 1205.73 2.43008 3.65847 0
M  V30 12771 H 1206.34 3.51858 2.38906 0
M  V30 12772 N 1204.65 -0.602709 1.4562 0
M  V30 12773 C 1205.6 -1.70753 1.51088 0
M  V30 12774 C 1206.59 -1.56501 0.373662 0
M  V30 12775 O 1207.78 -1.65755 0.620828 0
M  V30 12776 C 1204.91 -3.09515 1.48511 0
M  V30 12777 C 1203.99 -3.29135 2.67453 0
M  V30 12778 N 1204.38 -3.18996 3.92524 0
M  V30 12779 C 1202.68 -3.60019 2.63253 0
M  V30 12780 C 1203.38 -3.40079 4.71933 0
M  V30 12781 N 1202.36 -3.64299 4.03469 0
M  V30 12782 H 1206.16 -1.61414 2.45607 0
M  V30 12783 H 1203.67 -0.806122 1.4098 0
M  V30 12784 H 1205.67 -3.88782 1.50513 0
M  V30 12785 H 1204.33 -3.19999 0.550526 0
M  V30 12786 H 1205.34 -2.97292 4.24073 0
M  V30 12787 H 1202.02 -3.77311 1.78725 0
M  V30 12788 H 1203.41 -3.37593 5.80931 0
M  V30 12789 N 1206.13 -1.32992 -0.845635 0
M  V30 12790 C 1207.38 -1.24065 -1.60044 0
M  V30 12791 C 1207.7 0.195282 -1.93517 0
M  V30 12792 O 1206.96 1.1507 -1.58296 0
M  V30 12793 C 1207.26 -2.05454 -2.92444 0
M  V30 12794 C 1206.92 -3.54718 -2.78362 0
M  V30 12795 C 1205.59 -3.95413 -2.74229 0
M  V30 12796 C 1207.94 -4.49598 -2.63649 0
M  V30 12797 C 1205.27 -5.29216 -2.53274 0
M  V30 12798 C 1207.62 -5.83554 -2.44228 0
M  V30 12799 C 1206.28 -6.2344 -2.38493 0
M  V30 12800 H 1205.55 -0.453985 -0.585644 0
M  V30 12801 H 1208.2 -1.6451 -0.980244 0
M  V30 12802 H 1206.5 -1.57765 -3.58633 0
M  V30 12803 H 1208.2 -1.95909 -3.49887 0
M  V30 12804 H 1204.79 -3.22403 -2.82409 0
M  V30 12805 H 1208.98 -4.19072 -2.65881 0
M  V30 12806 H 1204.23 -5.59164 -2.47275 0
M  V30 12807 H 1208.41 -6.56681 -2.31825 0
M  V30 12808 H 1206.03 -7.27058 -2.22015 0
M  V30 12809 N 1207.61 1.06304 -1.1635 0
M  V30 12810 C 1208.57 2.11947 -0.872419 0
M  V30 12811 C 1209.57 1.60253 0.132534 0
M  V30 12812 O 1210.76 1.73922 -0.0983441 0
M  V30 12813 C 1207.89 3.39536 -0.304646 0
M  V30 12814 H 1209.09 2.39201 -1.80894 0
M  V30 12815 H 1206.64 1.22367 -0.972419 0
M  V30 12816 H 1207.37 3.17931 0.639565 0
M  V30 12817 H 1207.16 3.78363 -1.02878 0
M  V30 12818 H 1208.65 4.17431 -0.118936 0
M  V30 12819 N 1209.09 0.96196 1.24836 0
M  V30 12820 C 1210.33 0.628484 1.94498 0
M  V30 12821 C 1210.69 -0.820337 1.73593 0
M  V30 12822 O 1211.89 -1.26376 2.37239 0
M  V30 12823 C 1210.16 0.986119 3.43527 0
M  V30 12824 S 1211.72 0.766324 4.32057 0
M  V30 12825 H 1208.54 0.230758 0.672511 0
M  V30 12826 H 1211.14 1.23769 1.51332 0
M  V30 12827 H 1209.84 2.03756 3.56247 0
M  V30 12828 H 1209.38 0.367454 3.9168 0
M  V30 12829 H 1211.39 -0.359227 4.94898 0
M  V30 12830 N 1210.56 -1.39601 0.731392 0
M  V30 12831 C 1211.49 -2.33268 0.1041 0
M  V30 12832 C 1212.47 -1.53724 -0.728219 0
M  V30 12833 O 1213.66 -1.82131 -0.673933 0
M  V30 12834 C 1210.79 -3.37802 -0.806646 0
M  V30 12835 C 1209.74 -4.27928 -0.0787588 0
M  V30 12836 C 1209.07 -5.23131 -1.10628 0
M  V30 12837 C 1210.37 -5.11086 1.07651 0
M  V30 12838 H 1212.06 -2.85975 0.886496 0
M  V30 12839 H 1209.61 -1.375 0.427746 0
M  V30 12840 H 1211.56 -4.02278 -1.25499 0
M  V30 12841 H 1210.29 -2.83527 -1.62112 0
M  V30 12842 H 1208.95 -3.64926 0.349926 0
M  V30 12843 H 1208.59 -4.65152 -1.91422 0
M  V30 12844 H 1208.29 -5.84277 -0.624043 0
M  V30 12845 H 1209.82 -5.90483 -1.5544 0
M  V30 12846 H 1211.23 -5.68927 0.706781 0
M  V30 12847 H 1209.63 -5.81356 1.48814 0
M  V30 12848 H 1210.7 -4.46131 1.89988 0
M  V30 12849 N 1212.04 -0.478751 -1.50152 0
M  V30 12850 C 1213.27 0.0732929 -2.0727 0
M  V30 12851 C 1213.69 1.32066 -1.33941 0
M  V30 12852 O 1213.05 1.7707 -0.389367 0
M  V30 12853 C 1213.1 0.332528 -3.59064 0
M  V30 12854 O 1212.2 1.41158 -3.8749 0
M  V30 12855 H 1211.54 -0.0163684 -0.663798 0
M  V30 12856 H 1214.07 -0.671993 -1.9325 0
M  V30 12857 H 1214.08 0.570735 -4.03988 0
M  V30 12858 H 1212.76 -0.578934 -4.11851 0
M  V30 12859 H 1211.34 1.16008 -3.54396 0
M  V30 12860 N 1213.52 1.56172 -0.211661 0
M  V30 12861 C 1214.75 2.02874 0.430905 0
M  V30 12862 C 1215.17 1.09064 1.53254 0
M  V30 12863 O 1214.53 0.0770408 1.81136 0
M  V30 12864 C 1214.58 3.4789 0.948933 0
M  V30 12865 O 1213.68 3.57213 2.0609 0
M  V30 12866 H 1213.02 0.656614 0.0987607 0
M  V30 12867 H 1215.55 2.01964 -0.327399 0
M  V30 12868 H 1215.56 3.88015 1.2613 0
M  V30 12869 H 1214.24 4.15656 0.142584 0
M  V30 12870 H 1212.81 3.28971 1.75592 0
M  V30 12871 N 1215 -0.0618163 1.57479 0
M  V30 12872 C 1215.95 -1.0724 2.04373 0
M  V30 12873 C 1216.92 -1.37875 0.926271 0
M  V30 12874 O 1218.1 -1.48772 1.19463 0
M  V30 12875 C 1215.24 -2.37805 2.50085 0
M  V30 12876 C 1214.35 -2.13614 3.7549 0
M  V30 12877 C 1213.49 -3.37814 4.09945 0
M  V30 12878 C 1212.53 -3.09032 5.28361 0
M  V30 12879 N 1211.66 -4.25591 5.58406 0
M  V30 12880 H 1216.5 -0.665536 2.90473 0
M  V30 12881 H 1214.04 -0.317043 1.43643 0
M  V30 12882 H 1216 -3.14048 2.74644 0
M  V30 12883 H 1214.63 -2.76275 1.66948 0
M  V30 12884 H 1213.68 -1.28017 3.58212 0
M  V30 12885 H 1214.99 -1.88361 4.61867 0
M  V30 12886 H 1214.15 -4.22447 4.35458 0
M  V30 12887 H 1212.89 -3.66153 3.22154 0
M  V30 12888 H 1211.89 -2.22797 5.02635 0
M  V30 12889 H 1213.12 -2.82006 6.17778 0
M  V30 12890 H 1211.06 -4.53941 4.73575 0
M  V30 12891 H 1210.98 -4.03646 6.39223 0
M  V30 12892 H 1212.25 -5.11191 5.88476 0
M  V30 12893 N 1216.48 -1.54033 -0.333429 0
M  V30 12894 C 1217.71 -1.75461 -1.09073 0
M  V30 12895 C 1218.11 -0.498488 -1.82515 0
M  V30 12896 O 1217.46 0.540029 -1.75583 0
M  V30 12897 C 1217.52 -2.88744 -2.14166 0
M  V30 12898 C 1217.18 -4.27998 -1.60209 0
M  V30 12899 C 1218.18 -5.09206 -1.04907 0
M  V30 12900 C 1215.87 -4.74513 -1.6475 0
M  V30 12901 C 1217.86 -6.35035 -0.548615 0
M  V30 12902 C 1215.55 -6.00312 -1.14318 0
M  V30 12903 C 1216.54 -6.80406 -0.594667 0
M  V30 12904 O 1216.23 -8.0384 -0.097891 0
M  V30 12905 H 1215.96 -0.589586 -0.330702 0
M  V30 12906 H 1218.52 -2.01697 -0.388274 0
M  V30 12907 H 1216.75 -2.58057 -2.87999 0
M  V30 12908 H 1218.44 -2.98048 -2.7554 0
M  V30 12909 H 1219.2 -4.74428 -1.00713 0
M  V30 12910 H 1215.08 -4.12222 -2.06384 0
M  V30 12911 H 1218.63 -6.97497 -0.119823 0
M  V30 12912 H 1214.52 -6.34583 -1.18215 0
M  V30 12913 H 1215.29 -8.1822 -0.214237 0
M  V30 12914 N 1217.95 0.594978 -1.45938 0
M  V30 12915 C 1218.89 1.71911 -1.50072 0
M  V30 12916 C 1219.87 1.58657 -0.355913 0
M  V30 12917 O 1221.05 1.80043 -0.558272 0
M  V30 12918 C 1218.18 3.09858 -1.3677 0
M  V30 12919 C 1217.22 3.41667 -2.55277 0
M  V30 12920 S 1218.06 3.35101 -4.17693 0
M  V30 12921 C 1219.21 4.75606 -4.06878 0
M  V30 12922 H 1219.44 1.68143 -2.45184 0
M  V30 12923 H 1216.98 0.772698 -1.33674 0
M  V30 12924 H 1218.94 3.89444 -1.29782 0
M  V30 12925 H 1217.6 3.11128 -0.431073 0
M  V30 12926 H 1216.79 4.42138 -2.41929 0
M  V30 12927 H 1216.39 2.69622 -2.59191 0
M  V30 12928 H 1218.68 5.65708 -3.72801 0
M  V30 12929 H 1219.63 4.9401 -5.07306 0
M  V30 12930 H 1220.03 4.5188 -3.38327 0
M  V30 12931 N 1219.43 1.33438 0.838571 0
M  V30 12932 C 1220.67 1.26245 1.60753 0
M  V30 12933 C 1221.04 -0.169255 1.91253 0
M  V30 12934 O 1222.24 -0.365157 2.66308 0
M  V30 12935 C 1220.51 2.11348 2.88213 0
M  V30 12936 S 1222.07 2.21348 3.78881 0
M  V30 12937 H 1218.89 0.449132 0.551182 0
M  V30 12938 H 1221.49 1.68474 0.991798 0
M  V30 12939 H 1220.19 3.14402 2.63779 0
M  V30 12940 H 1219.72 1.69957 3.54793 0
M  V30 12941 H 1221.74 1.37477 4.76775 0
M  V30 12942 N 1220.91 -1.05686 1.16912 0
M  V30 12943 C 1222.32 -1.60059 0.961153 0
M  V30 12944 C 1222.67 -1.89894 -0.493409 0
M  V30 12945 O 1221.8 -1.67692 -1.36778 0
M  V30 12946 C 1222.39 -2.90803 1.73837 0
M  V30 12947 C 1220.95 -3.41854 1.57522 0
M  V30 12948 C 1220.1 -2.15658 1.74319 0
M  V30 12949 H 1223.05 -0.885592 1.31693 0
M  V30 12950 H 1223.07 -3.60485 1.21781 0
M  V30 12951 H 1222.58 -2.69056 2.79697 0
M  V30 12952 H 1220.68 -3.68647 0.541284 0
M  V30 12953 H 1220.8 -4.16771 2.36302 0
M  V30 12954 H 1219.16 -2.26177 1.17115 0
M  V30 12955 H 1219.94 -1.96386 2.8158 0
M  V30 12956 N 1222.39 -0.968567 -1.24324 0
M  V30 12957 C 1223.64 -0.629682 -1.9204 0
M  V30 12958 C 1223.96 0.837906 -1.7608 0
M  V30 12959 O 1223.23 1.5982 -1.13289 0
M  V30 12960 H 1221.81 -0.229901 -0.710742 0
M  V30 12961 H 1224.47 -1.22982 -1.512 0
M  V30 12962 H 1223.57 -0.871034 -2.99699 0
M  V30 12963 N 1223.87 1.39211 -0.738786 0
M  V30 12964 C 1225.11 2.00733 -0.288817 0
M  V30 12965 C 1225.45 1.58494 1.1222 0
M  V30 12966 O 1224.72 0.815579 1.76575 0
M  V30 12967 C 1225 3.57928 -0.394956 0
M  V30 12968 C 1224.86 4.10174 -1.84601 0
M  V30 12969 C 1226.18 4.39548 0.220395 0
M  V30 12970 H 1223.29 0.729276 -0.106418 0
M  V30 12971 H 1225.94 1.65365 -0.935652 0
M  V30 12972 H 1224.09 3.88188 0.155744 0
M  V30 12973 H 1225.76 3.90618 -2.45388 0
M  V30 12974 H 1224 3.63593 -2.36607 0
M  V30 12975 H 1224.67 5.19305 -1.87152 0
M  V30 12976 H 1227.15 4.15354 -0.249098 0
M  V30 12977 H 1226.02 5.48778 0.115806 0
M  V30 12978 H 1226.29 4.22341 1.30691 0
M  V30 12979 N 1225.34 0.486708 1.49896 0
M  V30 12980 C 1226.76 0.0353906 1.86666 0
M  V30 12981 C 1227.11 -1.3743 1.40026 0
M  V30 12982 O 1226.23 -2.02163 0.77194 0
M  V30 12983 C 1226.83 0.0574475 3.38751 0
M  V30 12984 C 1225.39 -0.338464 3.74875 0
M  V30 12985 C 1224.53 0.436196 2.73848 0
M  V30 12986 H 1227.48 0.700215 1.42417 0
M  V30 12987 H 1227.5 -0.741175 3.73212 0
M  V30 12988 H 1227.02 1.08356 3.72667 0
M  V30 12989 H 1225.12 -1.36835 3.46565 0
M  V30 12990 H 1225.23 -0.0289519 4.79091 0
M  V30 12991 H 1223.59 -0.112141 2.54453 0
M  V30 12992 H 1224.38 1.46212 3.10608 0
M  V30 12993 N 1226.82 -1.56058 0.219941 0
M  V30 12994 C 1227.79 -2.18964 -0.677303 0
M  V30 12995 C 1228.79 -1.15105 -1.12283 0
M  V30 12996 O 1229.98 -1.40348 -1.03189 0
M  V30 12997 C 1227.11 -2.81167 -1.92764 0
M  V30 12998 H 1228.3 -2.99623 -0.128877 0
M  V30 12999 H 1225.85 -1.56272 -0.0296744 0
M  V30 13000 H 1226.59 -2.04374 -2.51797 0
M  V30 13001 H 1226.37 -3.5722 -1.61666 0
M  V30 13002 H 1227.86 -3.29391 -2.56693 0
M  V30 13003 N 1228.3 0.053464 -1.57509 0
M  V30 13004 C 1229.55 0.750212 -1.88414 0
M  V30 13005 C 1229.88 1.76288 -0.814619 0
M  V30 13006 O 1229.16 1.93728 0.173136 0
M  V30 13007 C 1229.44 1.44176 -3.29978 0
M  V30 13008 C 1229.29 0.444263 -4.47601 0
M  V30 13009 C 1230.61 2.38207 -3.70061 0
M  V30 13010 H 1227.73 0.271266 -0.685262 0
M  V30 13011 H 1230.37 0.0131676 -1.89995 0
M  V30 13012 H 1228.52 2.07001 -3.2876 0
M  V30 13013 H 1230.19 -0.180182 -4.60948 0
M  V30 13014 H 1228.44 -0.238771 -4.33142 0
M  V30 13015 H 1229.11 0.966134 -5.43479 0
M  V30 13016 H 1231.58 1.85446 -3.7249 0
M  V30 13017 H 1230.46 2.83588 -4.69967 0
M  V30 13018 H 1230.72 3.23821 -3.00985 0
M  V30 13019 N 1229.78 1.54207 0.325255 0
M  V30 13020 C 1230.71 1.78318 1.42401 0
M  V30 13021 C 1231.69 0.633078 1.49769 0
M  V30 13022 O 1232.87 0.870324 1.67205 0
M  V30 13023 C 1230 1.89823 2.80509 0
M  V30 13024 C 1229.05 3.12102 2.9068 0
M  V30 13025 S 1229.88 4.70746 2.55262 0
M  V30 13026 C 1231.04 4.85154 3.95444 0
M  V30 13027 H 1231.27 2.71234 1.21736 0
M  V30 13028 H 1228.8 1.45309 0.521993 0
M  V30 13029 H 1230.76 1.97136 3.60066 0
M  V30 13030 H 1229.42 0.978873 2.98458 0
M  V30 13031 H 1228.61 3.16881 3.91921 0
M  V30 13032 H 1228.22 3.03109 2.19091 0
M  V30 13033 H 1230.51 4.67687 4.90178 0
M  V30 13034 H 1231.45 5.87254 3.95649 0
M  V30 13035 H 1231.86 4.13471 3.8432 0
M  V30 13036 N 1231.26 -0.58723 1.46251 0
M  V30 13037 C 1232.48 -1.37661 1.55126 0
M  V30 13038 C 1232.91 -1.87123 0.191489 0
M  V30 13039 O 1232.27 -1.6131 -0.827576 0
M  V30 13040 C 1232.31 -2.54324 2.5564 0
M  V30 13041 O 1231.42 -3.55617 2.0883 0
M  V30 13042 H 1230.76 -0.410154 0.522178 0
M  V30 13043 H 1233.29 -0.712738 1.91784 0
M  V30 13044 H 1233.3 -3.01301 2.75103 0
M  V30 13045 H 1231.97 -2.17675 3.54387 0
M  V30 13046 H 1230.55 -3.15151 1.99335 0
M  V30 13047 N 1232.74 -1.33881 -0.831482 0
M  V30 13048 C 1233.96 -1.28812 -1.61911 0
M  V30 13049 C 1234.38 0.139519 -1.88284 0
M  V30 13050 O 1233.74 1.08397 -1.46821 0
M  V30 13051 C 1233.79 -2.06806 -2.96502 0
M  V30 13052 O 1233.51 -3.44 -2.71285 0
M  V30 13053 C 1235.01 -2.09033 -3.90922 0
M  V30 13054 H 1232.23 -0.443473 -0.50356 0
M  V30 13055 H 1234.77 -1.76365 -1.03516 0
M  V30 13056 H 1232.93 -1.62915 -3.51479 0
M  V30 13057 H 1233.34 -3.84213 -3.57044 0
M  V30 13058 H 1234.82 -2.68044 -4.82552 0
M  V30 13059 H 1235.29 -1.08249 -4.25651 0
M  V30 13060 H 1235.9 -2.52975 -3.41883 0
M  V30 13061 N 1234.21 1.05064 -1.1747 0
M  V30 13062 C 1235.14 2.14786 -0.915936 0
M  V30 13063 C 1236.12 1.69502 0.142561 0
M  V30 13064 O 1237.31 1.94198 -0.00794522 0
M  V30 13065 C 1234.44 3.44629 -0.429864 0
M  V30 13066 C 1233.39 4.03486 -1.42769 0
M  V30 13067 C 1232.72 5.28689 -0.799528 0
M  V30 13068 C 1234.02 4.40823 -2.80129 0
M  V30 13069 H 1235.71 2.3669 -1.83352 0
M  V30 13070 H 1233.26 1.13751 -0.882992 0
M  V30 13071 H 1235.21 4.20737 -0.236245 0
M  V30 13072 H 1233.94 3.22381 0.523263 0
M  V30 13073 H 1232.6 3.29449 -1.60808 0
M  V30 13074 H 1232.24 5.02744 0.160474 0
M  V30 13075 H 1231.94 5.69028 -1.46565 0
M  V30 13076 H 1233.47 6.07483 -0.616212 0
M  V30 13077 H 1234.88 5.07959 -2.65801 0
M  V30 13078 H 1233.28 4.92183 -3.43331 0
M  V30 13079 H 1234.35 3.51108 -3.34441 0
M  V30 13080 N 1235.69 0.975146 1.23809 0
M  V30 13081 C 1236.62 0.530389 2.27396 0
M  V30 13082 C 1237.6 -0.433763 1.64476 0
M  V30 13083 O 1238.79 -0.32827 1.91405 0
M  V30 13084 C 1235.92 -0.173066 3.46869 0
M  V30 13085 C 1234.87 0.707844 4.22106 0
M  V30 13086 C 1234.2 -0.127527 5.34548 0
M  V30 13087 C 1235.5 1.99609 4.82652 0
M  V30 13088 H 1237.19 1.39622 2.64851 0
M  V30 13089 H 1234.74 0.672802 1.27316 0
M  V30 13090 H 1236.69 -0.495481 4.18477 0
M  V30 13091 H 1235.41 -1.0733 3.0846 0
M  V30 13092 H 1234.07 1.01364 3.52308 0
M  V30 13093 H 1233.72 -1.02814 4.9238 0
M  V30 13094 H 1233.42 0.458728 5.85807 0
M  V30 13095 H 1234.95 -0.444443 6.0898 0
M  V30 13096 H 1236.36 1.73878 5.46296 0
M  V30 13097 H 1234.76 2.52969 5.44175 0
M  V30 13098 H 1235.83 2.68629 4.03691 0
M  V30 13099 N 1237.17 -1.38817 0.746158 0
M  V30 13100 C 1238.13 -2.28876 0.121886 0
M  V30 13101 C 1239.13 -1.46838 -0.655379 0
M  V30 13102 O 1240.32 -1.67377 -0.482744 0
M  V30 13103 C 1237.45 -3.30487 -0.836118 0
M  V30 13104 H 1238.65 -2.85586 0.915453 0
M  V30 13105 H 1236.2 -1.47652 0.512691 0
M  V30 13106 H 1236.94 -2.78853 -1.65563 0
M  V30 13107 H 1236.72 -3.9109 -0.281271 0
M  V30 13108 H 1238.21 -3.97848 -1.26914 0
M  V30 13109 N 1238.65 -0.49465 -1.49636 0
M  V30 13110 C 1239.6 0.300929 -2.30645 0
M  V30 13111 C 1240.59 0.968687 -1.38971 0
M  V30 13112 O 1241.8 0.897101 -1.56052 0
M  V30 13113 H 1238.17 0.1159 -0.743015 0
M  V30 13114 H 1240.14 -0.402387 -2.95674 0
M  V30 13115 C 1238.89 1.35638 -3.20153 0
M  V30 13116 H 1238.21 0.851946 -3.90617 0
M  V30 13117 H 1239.65 1.88515 -3.79787 0
M  V30 13118 C 1238.11 2.37112 -2.39331 0
M  V30 13119 O 1238.64 3.42867 -2.09298 0
M  V30 13120 N 1236.85 2.09421 -2.01473 0
M  V30 13121 H 1236.4 1.23441 -2.26097 0
M  V30 13122 H 1236.35 2.77545 -1.47703 0
M  V30 13123 N 1240.13 1.55939 -0.228214 0
M  V30 13124 C 1241.37 1.97652 0.402067 0
M  V30 13125 C 1241.69 1.11911 1.60422 0
M  V30 13126 O 1242.89 1.43552 2.30445 0
M  V30 13127 C 1241.35 3.51638 0.766724 0
M  V30 13128 C 1240.96 4.46092 -0.412991 0
M  V30 13129 C 1242.7 4.02049 1.36224 0
M  V30 13130 C 1240.61 5.91394 -0.0255281 0
M  V30 13131 H 1239.54 0.738107 0.153994 0
M  V30 13132 H 1242.19 1.8059 -0.32548 0
M  V30 13133 H 1240.57 3.64325 1.55188 0
M  V30 13134 H 1241.75 4.45156 -1.19049 0
M  V30 13135 H 1240.06 4.0606 -0.92218 0
M  V30 13136 H 1242.66 5.08111 1.66514 0
M  V30 13137 H 1243 3.48292 2.28032 0
M  V30 13138 H 1243.53 3.92612 0.640378 0
M  V30 13139 H 1240.27 6.49149 -0.910269 0
M  V30 13140 H 1239.79 5.95509 0.716149 0
M  V30 13141 H 1241.47 6.4577 0.398839 0
M  V30 13142 N 1241.6 -0.0451101 1.57535 0
M  V30 13143 C 1242.55 -1.0692 2.06569 0
M  V30 13144 C 1243.55 -1.38443 0.976218 0
M  V30 13145 O 1244.75 -1.37536 1.1612 0
M  V30 13146 H 1241.13 -0.36226 0.658993 0
M  V30 13147 H 1243.1 -0.629709 2.9168 0
M  V30 13148 C 1241.85 -2.36656 2.54733 0
M  V30 13149 H 1241.17 -2.13257 3.38174 0
M  V30 13150 H 1242.61 -3.06696 2.92769 0
M  V30 13151 C 1241.07 -3.04499 1.4416 0
M  V30 13152 O 1241.6 -3.93679 0.798721 0
M  V30 13153 N 1239.81 -2.6556 1.18009 0
M  V30 13154 H 1239.35 -1.93126 1.7047 0
M  V30 13155 H 1239.31 -3.11272 0.442363 0
M  V30 13156 N 1243.08 -1.54377 -0.317073 0
M  V30 13157 C 1244.05 -1.83488 -1.37349 0
M  V30 13158 C 1245.05 -0.706981 -1.44424 0
M  V30 13159 O 1246.24 -0.975289 -1.44339 0
M  V30 13160 C 1243.37 -2.00074 -2.76013 0
M  V30 13161 H 1244.56 -2.77883 -1.12789 0
M  V30 13162 H 1242.11 -1.46194 -0.552902 0
M  V30 13163 H 1242.85 -1.07913 -3.05819 0
M  V30 13164 H 1242.63 -2.82155 -2.7227 0
M  V30 13165 H 1244.12 -2.24022 -3.52426 0
M  V30 13166 N 1244.56 0.579466 -1.4656 0
M  V30 13167 C 1245.79 1.36153 -1.55389 0
M  V30 13168 C 1246.2 1.88192 -0.195062 0
M  V30 13169 O 1245.54 1.64464 0.81836 0
M  V30 13170 C 1245.6 2.58269 -2.50075 0
M  V30 13171 C 1245.27 2.27675 -3.96249 0
M  V30 13172 C 1246.26 1.86313 -4.85369 0
M  V30 13173 C 1243.95 2.39719 -4.41407 0
M  V30 13174 C 1245.94 1.57395 -6.17661 0
M  V30 13175 C 1243.63 2.10414 -5.73733 0
M  V30 13176 C 1244.63 1.69317 -6.6168 0
M  V30 13177 O 1244.32 1.40373 -7.9155 0
M  V30 13178 H 1244.05 0.422174 -0.527963 0
M  V30 13179 H 1246.6 0.711089 -1.92698 0
M  V30 13180 H 1244.83 3.26129 -2.0779 0
M  V30 13181 H 1246.52 3.20339 -2.49275 0
M  V30 13182 H 1247.29 1.7652 -4.51736 0
M  V30 13183 H 1243.17 2.70669 -3.73175 0
M  V30 13184 H 1246.71 1.25244 -6.86265 0
M  V30 13185 H 1242.61 2.19833 -6.06913 0
M  V30 13186 H 1243.38 1.54191 -8.03845 0
M  V30 13187 N 1246.04 1.3432 0.824371 0
M  V30 13188 C 1247.27 1.29481 1.60992 0
M  V30 13189 C 1247.68 -0.133581 1.88728 0
M  V30 13190 O 1247.02 -1.09065 1.4782 0
M  V30 13191 C 1247.08 2.01604 2.97651 0
M  V30 13192 C 1246.75 3.50866 2.92817 0
M  V30 13193 C 1247.74 4.458 2.67504 0
M  V30 13194 C 1245.43 3.93258 3.12495 0
M  V30 13195 C 1247.42 5.81101 2.61918 0
M  V30 13196 C 1245.11 5.28659 3.06533 0
M  V30 13197 C 1246.11 6.22392 2.81278 0
M  V30 13198 O 1245.79 7.55311 2.75246 0
M  V30 13199 H 1245.53 0.446931 0.507177 0
M  V30 13200 H 1248.08 1.77484 1.03386 0
M  V30 13201 H 1246.31 1.48212 3.5717 0
M  V30 13202 H 1248 1.90073 3.58646 0
M  V30 13203 H 1248.77 4.1437 2.52037 0
M  V30 13204 H 1244.64 3.20699 3.31169 0
M  V30 13205 H 1248.19 6.54233 2.42125 0
M  V30 13206 H 1244.09 5.59709 3.21553 0
M  V30 13207 H 1244.85 7.6503 2.90984 0
M  V30 13208 N 1247.52 -1.0444 1.18026 0
M  V30 13209 C 1248.48 -2.10532 0.906028 0
M  V30 13210 C 1249.48 -1.60443 -0.107022 0
M  V30 13211 O 1250.67 -1.73744 0.126001 0
M  V30 13212 C 1247.8 -3.39008 0.358625 0
M  V30 13213 H 1248.99 -2.36293 1.84677 0
M  V30 13214 H 1246.55 -1.20805 0.991763 0
M  V30 13215 H 1247.28 -3.18908 -0.588904 0
M  V30 13216 H 1247.07 -3.76678 1.08884 0
M  V30 13217 H 1248.56 -4.17189 0.185331 0
M  V30 13218 N 1248.99 -0.981699 -1.2329 0
M  V30 13219 C 1249.94 -0.494116 -2.22581 0
M  V30 13220 C 1250.93 0.431573 -1.55004 0
M  V30 13221 O 1252.12 0.260215 -1.75077 0
M  V30 13222 C 1249.25 0.200884 -3.42712 0
M  V30 13223 C 1248.34 -0.744451 -4.17515 0
M  V30 13224 N 1248.73 -1.88762 -4.69257 0
M  V30 13225 C 1247.02 -0.558044 -4.42495 0
M  V30 13226 C 1247.73 -2.48006 -5.26182 0
M  V30 13227 N 1246.7 -1.76382 -5.14189 0
M  V30 13228 H 1250.5 -1.36616 -2.60218 0
M  V30 13229 H 1248.02 -0.842537 -1.38835 0
M  V30 13230 H 1250.01 0.567506 -4.13019 0
M  V30 13231 H 1248.67 1.0692 -3.06591 0
M  V30 13232 H 1249.69 -2.26877 -4.65561 0
M  V30 13233 H 1246.36 0.265139 -4.16657 0
M  V30 13234 H 1247.75 -3.44555 -5.76829 0
M  V30 13235 N 1250.47 1.3842 -0.753509 0
M  V30 13236 C 1251.7 2.04403 -0.320449 0
M  V30 13237 C 1252.12 1.5683 1.05118 0
M  V30 13238 O 1251.47 0.741335 1.66765 0
M  V30 13239 C 1251.52 3.59954 -0.333937 0
M  V30 13240 O 1251.24 4.05782 -1.65144 0
M  V30 13241 C 1252.75 4.43156 0.112997 0
M  V30 13242 H 1249.97 0.656881 -0.136927 0
M  V30 13243 H 1252.51 1.77112 -1.02234 0
M  V30 13244 H 1250.66 3.86083 0.319215 0
M  V30 13245 H 1251.08 5.00213 -1.57757 0
M  V30 13246 H 1252.55 5.51975 0.0523995 0
M  V30 13247 H 1253.03 4.23581 1.16087 0
M  V30 13248 H 1253.64 4.22216 -0.511278 0
M  V30 13249 N 1251.95 0.502579 1.49372 0
M  V30 13250 C 1253.18 -0.0381429 2.06865 0
M  V30 13251 C 1253.59 -1.30674 1.36271 0
M  V30 13252 O 1252.95 -1.77078 0.441532 0
M  V30 13253 C 1253 -0.294068 3.60302 0
M  V30 13254 O 1252.72 0.924244 4.2824 0
M  V30 13255 C 1254.22 -0.878253 4.34513 0
M  V30 13256 H 1251.44 0.0211756 0.670666 0
M  V30 13257 H 1253.99 0.700387 1.92132 0
M  V30 13258 H 1252.14 -0.982583 3.74732 0
M  V30 13259 H 1252.56 0.688062 5.19967 0
M  V30 13260 H 1254.03 -1.0069 5.42739 0
M  V30 13261 H 1254.51 -1.87643 3.97098 0
M  V30 13262 H 1255.11 -0.227157 4.24693 0
M  V30 13263 N 1253.43 -1.55816 0.23648 0
M  V30 13264 C 1254.39 -2.1967 -0.654041 0
M  V30 13265 C 1255.39 -1.1629 -1.11056 0
M  V30 13266 O 1256.58 -1.41435 -1.01695 0
M  V30 13267 C 1253.71 -2.83196 -1.89771 0
M  V30 13268 H 1254.91 -2.99743 -0.0970911 0
M  V30 13269 H 1252.46 -1.56295 -0.013098 0
M  V30 13270 H 1253.19 -2.07033 -2.49616 0
M  V30 13271 H 1252.98 -3.58915 -1.57868 0
M  V30 13272 H 1254.47 -3.32095 -2.53184 0
M  V30 13273 N 1254.91 0.036755 -1.57557 0
M  V30 13274 C 1256.13 0.744813 -1.93565 0
M  V30 13275 C 1256.56 1.68508 -0.835863 0
M  V30 13276 O 1255.91 1.80091 0.208986 0
M  V30 13277 C 1255.96 1.48461 -3.28621 0
M  V30 13278 O 1255.07 2.59739 -3.20327 0
M  V30 13279 H 1254.41 0.200866 -0.632889 0
M  V30 13280 H 1256.94 -0.00547543 -2.04599 0
M  V30 13281 H 1256.95 1.85622 -3.63329 0
M  V30 13282 H 1255.62 0.794953 -4.08232 0
M  V30 13283 H 1254.2 2.25176 -2.97237 0
M  V30 13284 N 1256.39 1.54543 0.308881 0
M  V30 13285 C 1257.61 1.77431 1.06422 0
M  V30 13286 C 1258.03 0.529972 1.81209 0
M  V30 13287 O 1257.39 -0.499912 1.7552 0
M  V30 13288 C 1257.44 2.9769 2.05092 0
M  V30 13289 O 1257.16 4.17315 1.33341 0
M  V30 13290 C 1258.66 3.32905 2.92727 0
M  V30 13291 H 1255.88 0.591961 0.315948 0
M  V30 13292 H 1258.42 2.01473 0.350547 0
M  V30 13293 H 1256.58 2.7588 2.71973 0
M  V30 13294 H 1256.99 4.85061 1.99539 0
M  V30 13295 H 1258.47 4.20314 3.57827 0
M  V30 13296 H 1258.94 2.50713 3.6061 0
M  V30 13297 H 1259.55 3.56847 2.31388 0
M  V30 13298 N 1257.86 -0.571685 1.46866 0
M  V30 13299 C 1258.81 -1.70098 1.58649 0
M  V30 13300 C 1259.81 -1.63191 0.45443 0
M  V30 13301 O 1261.01 -1.68551 0.63171 0
M  V30 13302 H 1257.39 -0.56258 0.499007 0
M  V30 13303 H 1259.36 -1.57293 2.53577 0
M  V30 13304 C 1258.11 -3.08475 1.60433 0
M  V30 13305 H 1257.43 -3.14465 2.46884 0
M  V30 13306 H 1258.87 -3.87221 1.7273 0
M  V30 13307 C 1257.33 -3.35231 0.334948 0
M  V30 13308 O 1257.86 -3.97633 -0.570149 0
M  V30 13309 N 1256.06 -2.8977 0.219441 0
M  V30 13310 H 1255.61 -2.39168 0.956891 0
M  V30 13311 H 1255.57 -3.08044 -0.628975 0
M  V30 13312 N 1259.34 -1.34755 -0.817236 0
M  V30 13313 C 1260.59 -1.2762 -1.5761 0
M  V30 13314 C 1260.92 0.152017 -1.93604 0
M  V30 13315 O 1260.2 1.09881 -1.60488 0
M  V30 13316 C 1260.48 -2.17251 -2.87183 0
M  V30 13317 C 1260.33 -3.68638 -2.57733 0
M  V30 13318 C 1261.65 -2.06206 -3.88802 0
M  V30 13319 H 1258.77 -0.464933 -0.571845 0
M  V30 13320 H 1261.41 -1.6506 -0.941028 0
M  V30 13321 H 1259.56 -1.85452 -3.41379 0
M  V30 13322 H 1261.23 -4.10829 -2.09802 0
M  V30 13323 H 1259.48 -3.89445 -1.91089 0
M  V30 13324 H 1260.15 -4.26726 -3.50156 0
M  V30 13325 H 1262.62 -2.34137 -3.43975 0
M  V30 13326 H 1261.5 -2.71136 -4.77259 0
M  V30 13327 H 1261.76 -1.04075 -4.29675 0
M  V30 13328 N 1260.82 1.03812 -1.18578 0
M  V30 13329 C 1262.04 1.8124 -1.00831 0
M  V30 13330 C 1262.47 1.82917 0.43853 0
M  V30 13331 O 1261.83 1.24835 1.31476 0
M  V30 13332 C 1261.88 3.24592 -1.57075 0
M  V30 13333 O 1260.98 4.04688 -0.793824 0
M  V30 13334 H 1260.32 0.559846 -0.357028 0
M  V30 13335 H 1262.85 1.30724 -1.57393 0
M  V30 13336 H 1262.86 3.75363 -1.59896 0
M  V30 13337 H 1261.54 3.22686 -2.62387 0
M  V30 13338 H 1260.11 3.63359 -0.838134 0
M  V30 13339 N 1262.3 0.988223 1.22768 0
M  V30 13340 C 1263.26 0.539813 2.22752 0
M  V30 13341 C 1264.26 -0.374796 1.56371 0
M  V30 13342 O 1265.45 -0.167402 1.73394 0
M  V30 13343 C 1262.58 -0.215461 3.40218 0
M  V30 13344 H 1263.78 1.42397 2.63938 0
M  V30 13345 H 1261.33 0.774933 1.35737 0
M  V30 13346 H 1262.06 -1.11581 3.045 0
M  V30 13347 H 1261.85 0.441173 3.8961 0
M  V30 13348 H 1263.34 -0.517517 4.14381 0
M  V30 13349 N 1263.78 -1.38018 0.760839 0
M  V30 13350 C 1265 -2.04757 0.330038 0
M  V30 13351 C 1265.43 -1.57009 -1.03585 0
M  V30 13352 O 1264.78 -0.725349 -1.66158 0
M  V30 13353 C 1264.83 -3.58696 0.370082 0
M  V30 13354 O 1263.94 -4.07507 -0.633361 0
M  V30 13355 H 1263.28 -0.648023 0.144782 0
M  V30 13356 H 1265.81 -1.7655 1.03399 0
M  V30 13357 H 1265.82 -4.07387 0.223515 0
M  V30 13358 H 1264.49 -3.92806 1.36661 0
M  V30 13359 H 1263.07 -3.70165 -0.45081 0
M  V30 13360 N 1265.25 -0.510493 -1.49103 0
M  V30 13361 C 1266.53 0.0941122 -1.95373 0
M  V30 13362 C 1266.91 1.53207 -1.45227 0
M  V30 13363 O 1266.26 2.18452 -0.670161 0
M  V30 13364 C 1266.47 -0.00302507 -3.49 0
M  V30 13365 C 1267.82 0.166117 -4.24275 0
M  V30 13366 O 1268.84 0.0717097 -3.56128 0
M  V30 13367 O 1267.7 0.361155 -5.45305 0
M  V30 13368 H 1264.79 0.0900741 -0.82208 0
M  V30 13369 H 1267.34 -0.573707 -1.59708 0
M  V30 13370 H 1266.11 -1.00545 -3.78162 0
M  V30 13371 H 1265.73 0.704518 -3.91308 0
M  V30 13372 N 1266.73 1.55688 -0.24474 0
M  V30 13373 C 1268.15 1.59219 0.110159 0
M  V30 13374 C 1268.35 1.26187 1.57096 0
M  V30 13375 O 1267.4 1.00815 2.31501 0
M  V30 13376 C 1268.72 2.99764 -0.237075 0
M  V30 13377 C 1270.26 3.12475 -0.181198 0
M  V30 13378 C 1270.74 4.55236 -0.502435 0
M  V30 13379 N 1272.23 4.60981 -0.452855 0
M  V30 13380 C 1272.97 5.69418 -0.674605 0
M  V30 13381 N 1272.46 6.86125 -0.959366 0
M  V30 13382 N 1274.25 5.5883 -0.605459 0
M  V30 13383 H 1266.41 1.7543 -1.19741 0
M  V30 13384 H 1268.67 0.816537 -0.481634 0
M  V30 13385 H 1268.37 3.28666 -1.25185 0
M  V30 13386 H 1268.25 3.74662 0.436859 0
M  V30 13387 H 1270.64 2.83355 0.824248 0
M  V30 13388 H 1270.72 2.39857 -0.888952 0
M  V30 13389 H 1270.36 4.85077 -1.50543 0
M  V30 13390 H 1270.29 5.26111 0.226773 0
M  V30 13391 H 1272.78 3.77128 -0.241401 0
M  V30 13392 H 1273.09 7.64699 -1.11605 0
M  V30 13393 H 1271.44 6.87814 -0.996816 0
M  V30 13394 H 1274.63 4.6653 -0.383053 0
M  V30 13395 H 1274.8 6.43268 -0.781673 0
M  V30 13396 N 1268.21 -0.0283989 1.57574 0
M  V30 13397 C 1269.46 -0.719077 1.89303 0
M  V30 13398 C 1269.78 -1.75325 0.84211 0
M  V30 13399 O 1269.04 -1.95071 -0.15683 0
M  V30 13400 C 1269.34 -1.4247 3.27776 0
M  V30 13401 C 1269 -0.526442 4.47816 0
M  V30 13402 C 1267.67 -0.279038 4.8039 0
M  V30 13403 C 1270.02 0.0937038 5.21116 0
M  V30 13404 C 1267.35 0.597277 5.83652 0
M  V30 13405 C 1269.7 0.957725 6.25308 0
M  V30 13406 C 1268.36 1.21458 6.56357 0
M  V30 13407 H 1267.63 -0.263129 0.692708 0
M  V30 13408 H 1270.28 0.0210252 1.91488 0
M  V30 13409 H 1268.58 -2.23813 3.21582 0
M  V30 13410 H 1270.28 -1.96466 3.49574 0
M  V30 13411 H 1266.87 -0.729426 4.22347 0
M  V30 13412 H 1271.06 -0.084469 4.96228 0
M  V30 13413 H 1266.31 0.804582 6.06083 0
M  V30 13414 H 1270.49 1.44476 6.81249 0
M  V30 13415 H 1268.11 1.89534 7.36193 0
M  V30 13416 N 1269.69 -1.54705 -0.300681 0
M  V30 13417 C 1270.65 -1.84934 -1.35395 0
M  V30 13418 C 1271.65 -0.72226 -1.43666 0
M  V30 13419 O 1272.84 -0.990543 -1.43296 0
M  V30 13420 C 1269.97 -2.02991 -2.73875 0
M  V30 13421 H 1271.17 -2.79063 -1.09835 0
M  V30 13422 H 1268.72 -1.46772 -0.537365 0
M  V30 13423 H 1269.45 -1.11151 -3.04657 0
M  V30 13424 H 1269.24 -2.85027 -2.69262 0
M  V30 13425 H 1270.73 -2.27747 -3.5003 0
M  V30 13426 N 1271.17 0.563888 -1.47167 0
M  V30 13427 C 1272.13 1.65359 -1.58711 0
M  V30 13428 C 1273.13 1.53999 -0.46272 0
M  V30 13429 O 1274.32 1.58277 -0.727595 0
M  V30 13430 C 1271.45 3.04874 -1.52529 0
M  V30 13431 H 1272.64 1.56475 -2.55843 0
M  V30 13432 H 1270.2 0.783271 -1.35257 0
M  V30 13433 H 1270.93 3.19297 -0.56747 0
M  V30 13434 H 1270.72 3.14528 -2.34125 0
M  V30 13435 H 1272.21 3.84164 -1.63731 0
M  V30 13436 N 1272.64 1.35187 0.810078 0
M  V30 13437 C 1273.87 1.31528 1.60359 0
M  V30 13438 C 1274.29 -0.105385 1.87805 0
M  V30 13439 O 1273.65 -1.07113 1.46276 0
M  V30 13440 C 1273.7 2.12429 2.91386 0
M  V30 13441 O 1272.8 1.50262 3.84051 0
M  V30 13442 H 1272.15 0.451122 0.487222 0
M  V30 13443 H 1274.68 1.78178 1.00568 0
M  V30 13444 H 1274.69 2.24257 3.40841 0
M  V30 13445 H 1273.36 3.15714 2.70735 0
M  V30 13446 H 1271.94 1.47253 3.42594 0
M  V30 13447 N 1274.12 -1.03182 1.19127 0
M  V30 13448 C 1275.07 -2.13507 0.922899 0
M  V30 13449 C 1276.06 -1.68973 -0.120171 0
M  V30 13450 O 1277.27 -1.79977 0.0288007 0
M  V30 13451 H 1273.65 -0.697516 0.281027 0
M  V30 13452 H 1275.62 -2.33335 1.86003 0
M  V30 13453 C 1274.37 -3.44442 0.474864 0
M  V30 13454 H 1273.69 -3.79125 1.26902 0
M  V30 13455 H 1275.13 -4.22744 0.326162 0
M  V30 13456 C 1273.59 -3.27002 -0.81063 0
M  V30 13457 O 1274.12 -3.55374 -1.87276 0
M  V30 13458 N 1272.32 -2.80303 -0.766713 0
M  V30 13459 H 1271.87 -2.57414 0.0978672 0
M  V30 13460 H 1271.83 -2.69015 -1.62721 0
M  V30 13461 N 1275.6 -0.99472 -1.22242 0
M  V30 13462 C 1276.85 -0.671602 -1.91039 0
M  V30 13463 C 1277.18 0.796543 -1.77441 0
M  V30 13464 O 1276.43 1.59179 -1.13845 0
M  V30 13465 C 1276.73 -1.02561 -3.42368 0
M  V30 13466 C 1276.4 -2.48632 -3.76155 0
M  V30 13467 C 1275.06 -2.88549 -3.85088 0
M  V30 13468 C 1277.41 -3.43302 -3.92165 0
M  V30 13469 C 1274.74 -4.22121 -4.07469 0
M  V30 13470 C 1277.09 -4.76534 -4.1605 0
M  V30 13471 C 1275.75 -5.1619 -4.23207 0
M  V30 13472 H 1275.02 -0.245756 -0.69906 0
M  V30 13473 H 1277.67 -1.25125 -1.44969 0
M  V30 13474 H 1275.98 -0.364073 -3.90105 0
M  V30 13475 H 1277.67 -0.753612 -3.93855 0
M  V30 13476 H 1274.26 -2.16693 -3.69787 0
M  V30 13477 H 1278.45 -3.13633 -3.8464 0
M  V30 13478 H 1273.7 -4.52431 -4.11238 0
M  V30 13479 H 1277.88 -5.49835 -4.27381 0
M  V30 13480 H 1275.5 -6.19708 -4.40303 0
M  V30 13481 N 1277.08 1.37613 -0.768148 0
M  V30 13482 C 1278.33 1.99384 -0.330187 0
M  V30 13483 C 1278.65 1.61283 1.09604 0
M  V30 13484 O 1277.92 0.876551 1.75195 0
M  V30 13485 H 1276.5 0.737445 -0.119095 0
M  V30 13486 H 1279.16 1.6815 -0.985476 0
M  V30 13487 H 1278.26 3.09462 -0.40494 0
M  V30 13488 N 1278.56 0.518393 1.4883 0
M  V30 13489 C 1279.5 -0.250684 2.29435 0
M  V30 13490 C 1280.47 -0.944481 1.36634 0
M  V30 13491 O 1281.66 -0.947766 1.65596 0
M  V30 13492 C 1278.8 -1.29871 3.1973 0
M  V30 13493 C 1277.91 -0.61493 4.27601 0
M  V30 13494 C 1277.05 -1.64489 5.05091 0
M  V30 13495 C 1276.09 -0.943932 6.04778 0
M  V30 13496 N 1275.22 -1.91889 6.75369 0
M  V30 13497 H 1280.06 0.44288 2.94691 0
M  V30 13498 H 1277.6 0.230246 1.45287 0
M  V30 13499 H 1279.56 -1.91851 3.70471 0
M  V30 13500 H 1278.19 -1.96081 2.56422 0
M  V30 13501 H 1277.24 0.118552 3.80215 0
M  V30 13502 H 1278.55 -0.063994 4.98759 0
M  V30 13503 H 1277.71 -2.33928 5.59788 0
M  V30 13504 H 1276.44 -2.2297 4.33746 0
M  V30 13505 H 1275.45 -0.235407 5.49296 0
M  V30 13506 H 1276.67 -0.365383 6.78116 0
M  V30 13507 H 1274.62 -2.493 6.06783 0
M  V30 13508 H 1274.54 -1.41909 7.42562 0
M  V30 13509 H 1275.81 -2.60563 7.34661 0
M  V30 13510 N 1280.03 -1.55556 0.252993 0
M  V30 13511 C 1280.94 -2.25283 -0.654581 0
M  V30 13512 C 1281.96 -1.27103 -1.18831 0
M  V30 13513 O 1283.14 -1.59993 -1.22329 0
M  V30 13514 C 1280.2 -2.94336 -1.83214 0
M  V30 13515 C 1279.26 -4.0794 -1.33728 0
M  V30 13516 C 1278.5 -4.73691 -2.45871 0
M  V30 13517 O 1278.72 -4.38545 -3.64738 0
M  V30 13518 O 1277.65 -5.62083 -2.15283 0
M  V30 13519 H 1281.48 -3.03565 -0.0904091 0
M  V30 13520 H 1279.06 -1.49385 0.0212535 0
M  V30 13521 H 1280.95 -3.37808 -2.5192 0
M  V30 13522 H 1279.62 -2.18989 -2.38381 0
M  V30 13523 H 1278.53 -3.68971 -0.617323 0
M  V30 13524 H 1279.86 -4.85124 -0.831617 0
M  V30 13525 N 1281.51 0.0200419 -1.57587 0
M  V30 13526 C 1282.93 0.375834 -1.55112 0
M  V30 13527 C 1283.13 1.76047 -0.980297 0
M  V30 13528 O 1282.18 2.45138 -0.605297 0
M  V30 13529 C 1283.5 0.269418 -2.99491 0
M  V30 13530 C 1285.05 0.345838 -3.11084 0
M  V30 13531 C 1285.52 0.268771 -4.57211 0
M  V30 13532 N 1287.01 0.32729 -4.62042 0
M  V30 13533 C 1287.75 0.290688 -5.72663 0
M  V30 13534 N 1287.24 0.205851 -6.92494 0
M  V30 13535 N 1289.04 0.341082 -5.61064 0
M  V30 13536 H 1281.19 -0.885979 -1.93039 0
M  V30 13537 H 1283.45 -0.337753 -0.885792 0
M  V30 13538 H 1283.16 -0.682452 -3.45015 0
M  V30 13539 H 1283.03 1.0595 -3.62014 0
M  V30 13540 H 1285.42 1.28814 -2.65501 0
M  V30 13541 H 1285.5 -0.47376 -2.51375 0
M  V30 13542 H 1285.14 -0.669906 -5.03463 0
M  V30 13543 H 1285.07 1.10659 -5.14842 0
M  V30 13544 H 1287.56 0.395004 -3.7583 0
M  V30 13545 H 1287.88 0.18327 -7.72583 0
M  V30 13546 H 1286.22 0.171768 -6.94788 0
M  V30 13547 H 1289.41 0.405415 -4.66341 0
M  V30 13548 H 1289.58 0.309091 -6.47262 0
M  V30 13549 N 1282.99 1.54862 0.292472 0
M  V30 13550 C 1284.24 1.74548 1.02661 0
M  V30 13551 C 1284.57 0.535895 1.86972 0
M  V30 13552 O 1283.82 -0.482016 1.89671 0
M  V30 13553 C 1284.12 2.99214 1.95463 0
M  V30 13554 C 1283.79 4.32628 1.2706 0
M  V30 13555 C 1282.45 4.68892 1.08138 0
M  V30 13556 C 1284.8 5.15296 0.782278 0
M  V30 13557 C 1282.13 5.85397 0.39081 0
M  V30 13558 C 1284.48 6.32512 0.105392 0
M  V30 13559 C 1283.14 6.67431 -0.0957097 0
M  V30 13560 H 1282.41 0.638717 0.375662 0
M  V30 13561 H 1285.06 1.89125 0.300672 0
M  V30 13562 H 1283.37 2.79454 2.74613 0
M  V30 13563 H 1285.06 3.1164 2.52352 0
M  V30 13564 H 1281.65 4.04113 1.42796 0
M  V30 13565 H 1285.84 4.87771 0.916151 0
M  V30 13566 H 1281.09 6.10989 0.224095 0
M  V30 13567 H 1285.27 6.95833 -0.280845 0
M  V30 13568 H 1282.89 7.57562 -0.63281 0
M  V30 13569 N 1284.47 -0.556076 1.47464 0
M  V30 13570 C 1285.71 -1.31515 1.54375 0
M  V30 13571 C 1286.05 -1.93106 0.205837 0
M  V30 13572 O 1285.32 -1.77927 -0.785643 0
M  V30 13573 C 1285.61 -2.4244 2.66261 0
M  V30 13574 C 1285.46 -1.8571 4.09673 0
M  V30 13575 C 1286.78 -3.4436 2.74051 0
M  V30 13576 H 1283.9 -0.476817 0.561974 0
M  V30 13577 H 1286.54 -0.622157 1.79525 0
M  V30 13578 H 1284.69 -3.01551 2.44948 0
M  V30 13579 H 1286.36 -1.30851 4.42353 0
M  V30 13580 H 1284.6 -1.16379 4.17898 0
M  V30 13581 H 1285.27 -2.65904 4.83735 0
M  V30 13582 H 1287.75 -2.95169 2.93282 0
M  V30 13583 H 1286.63 -4.194 3.54111 0
M  V30 13584 H 1286.89 -4.03281 1.81155 0
M  V30 13585 N 1285.95 -1.35615 -0.802897 0
M  V30 13586 C 1286.89 -1.28839 -1.91492 0
M  V30 13587 C 1287.86 -0.159621 -1.65331 0
M  V30 13588 O 1289.05 -0.343931 -1.87675 0
M  V30 13589 C 1286.19 -1.06999 -3.28093 0
M  V30 13590 C 1285.3 -2.28831 -3.66416 0
M  V30 13591 C 1284.44 -2.00111 -4.92066 0
M  V30 13592 C 1283.48 -3.17977 -5.23027 0
M  V30 13593 N 1282.61 -2.89009 -6.39858 0
M  V30 13594 H 1287.45 -2.2393 -1.96619 0
M  V30 13595 H 1284.99 -1.1131 -0.961687 0
M  V30 13596 H 1286.95 -0.923673 -4.06847 0
M  V30 13597 H 1285.58 -0.155684 -3.22424 0
M  V30 13598 H 1284.63 -2.54314 -2.82893 0
M  V30 13599 H 1285.94 -3.1683 -3.85253 0
M  V30 13600 H 1285.1 -1.82331 -5.78654 0
M  V30 13601 H 1283.84 -1.09402 -4.75271 0
M  V30 13602 H 1282.84 -3.3633 -4.34928 0
M  V30 13603 H 1284.07 -4.09493 -5.41749 0
M  V30 13604 H 1282.01 -2.00898 -6.24481 0
M  V30 13605 H 1281.93 -3.70544 -6.58964 0
M  V30 13606 H 1283.2 -2.74779 -7.29463 0
M  V30 13607 N 1287.43 1.02549 -1.19673 0
M  V30 13608 C 1288.36 2.12794 -0.961289 0
M  V30 13609 C 1289.34 1.69766 0.106575 0
M  V30 13610 O 1290.52 1.94138 -0.0491358 0
M  V30 13611 C 1287.65 3.4364 -0.502868 0
M  V30 13612 C 1286.61 4.00367 -1.51296 0
M  V30 13613 C 1285.93 5.26874 -0.911491 0
M  V30 13614 C 1287.23 4.34782 -2.89416 0
M  V30 13615 H 1288.93 2.32748 -1.88331 0
M  V30 13616 H 1286.47 1.11852 -0.906922 0
M  V30 13617 H 1288.42 4.20141 -0.325436 0
M  V30 13618 H 1287.15 3.23418 0.454764 0
M  V30 13619 H 1285.81 3.25964 -1.67759 0
M  V30 13620 H 1285.46 5.02971 0.0537982 0
M  V30 13621 H 1285.16 5.65791 -1.58602 0
M  V30 13622 H 1286.68 6.06039 -0.74493 0
M  V30 13623 H 1288.09 5.02207 -2.76516 0
M  V30 13624 H 1286.49 4.8479 -3.53693 0
M  V30 13625 H 1287.56 3.43935 -3.41814 0
M  V30 13626 N 1288.9 1.00119 1.21713 0
M  V30 13627 C 1289.83 0.578504 2.2622 0
M  V30 13628 C 1290.81 -0.398777 1.6536 0
M  V30 13629 O 1292 -0.287596 1.92059 0
M  V30 13630 C 1289.13 -0.0994508 3.47158 0
M  V30 13631 C 1288.08 0.79722 4.2051 0
M  V30 13632 C 1287.41 -0.0141125 5.34698 0
M  V30 13633 C 1288.71 2.09802 4.7831 0
M  V30 13634 H 1290.4 1.45208 2.6183 0
M  V30 13635 H 1287.95 0.699656 1.2586 0
M  V30 13636 H 1289.9 -0.406605 4.19434 0
M  V30 13637 H 1288.63 -1.00763 3.10667 0
M  V30 13638 H 1287.29 1.08814 3.50079 0
M  V30 13639 H 1286.93 -0.923468 4.9445 0
M  V30 13640 H 1286.63 0.582883 5.84702 0
M  V30 13641 H 1288.16 -0.31517 6.09786 0
M  V30 13642 H 1289.57 1.85427 5.42485 0
M  V30 13643 H 1287.97 2.64455 5.38687 0
M  V30 13644 H 1289.04 2.77132 3.97902 0
M  V30 13645 N 1290.38 -1.37203 0.775435 0
M  V30 13646 C 1291.66 -1.93783 0.266005 0
M  V30 13647 C 1292.04 -1.70875 -1.23956 0
M  V30 13648 O 1291.39 -1.05965 -2.02444 0
M  V30 13649 C 1291.6 -3.43018 0.643404 0
M  V30 13650 C 1292.94 -4.20119 0.615267 0
M  V30 13651 O 1293.97 -3.51396 0.583018 0
M  V30 13652 O 1292.83 -5.42673 0.645637 0
M  V30 13653 H 1289.92 -0.824649 0.0623107 0
M  V30 13654 H 1292.47 -1.46468 0.857036 0
M  V30 13655 H 1291.24 -3.5329 1.68232 0
M  V30 13656 H 1290.86 -3.97592 0.0255138 0
M  V30 13657 N 1291.86 -0.526279 -1.48553 0
M  V30 13658 C 1292.79 0.275579 -2.27537 0
M  V30 13659 C 1293.8 0.90782 -1.35139 0
M  V30 13660 O 1294.99 0.786887 -1.6022 0
M  V30 13661 C 1292.09 1.40515 -3.08397 0
M  V30 13662 C 1291.27 0.875523 -4.28548 0
M  V30 13663 C 1290.33 1.88577 -4.91249 0
M  V30 13664 O 1289.35 1.44419 -5.50574 0
M  V30 13665 N 1290.55 3.21774 -4.83158 0
M  V30 13666 H 1293.32 -0.401803 -2.96994 0
M  V30 13667 H 1290.88 -0.360378 -1.57838 0
M  V30 13668 H 1292.87 2.07907 -3.47213 0
M  V30 13669 H 1291.44 1.98626 -2.41384 0
M  V30 13670 H 1290.66 0.025728 -3.94192 0
M  V30 13671 H 1291.95 0.500493 -5.06332 0
M  V30 13672 H 1291.35 3.60319 -4.36104 0
M  V30 13673 H 1289.9 3.84808 -5.26085 0
M  V30 13674 N 1293.34 1.5542 -0.261239 0
M  V30 13675 C 1294.27 2.24949 0.626126 0
M  V30 13676 C 1295.25 1.23474 1.16997 0
M  V30 13677 O 1296.43 1.52161 1.20667 0
M  V30 13678 C 1293.56 2.95996 1.81669 0
M  V30 13679 C 1292.52 4.04282 1.40499 0
M  V30 13680 C 1291.84 4.62831 2.67753 0
M  V30 13681 C 1293.14 5.1923 0.56543 0
M  V30 13682 H 1294.84 2.99364 0.0463164 0
M  V30 13683 H 1292.38 1.43985 0.0208366 0
M  V30 13684 H 1294.34 3.43343 2.44323 0
M  V30 13685 H 1293.06 2.19093 2.42211 0
M  V30 13686 H 1291.72 3.57726 0.801712 0
M  V30 13687 H 1291.37 3.82611 3.26524 0
M  V30 13688 H 1291.07 5.35938 2.40925 0
M  V30 13689 H 1292.59 5.12918 3.31281 0
M  V30 13690 H 1294.01 5.62714 1.09663 0
M  V30 13691 H 1292.4 5.98814 0.392607 0
M  V30 13692 H 1293.47 4.83086 -0.419059 0
M  V30 13693 N 1294.82 -0.0116844 1.57596 0
M  V30 13694 C 1295.77 -1.01509 2.04157 0
M  V30 13695 C 1296.75 -1.31011 0.934076 0
M  V30 13696 O 1297.94 -1.30305 1.1979 0
M  V30 13697 C 1295.07 -2.31081 2.53883 0
M  V30 13698 C 1294.16 -2.04594 3.71486 0
M  V30 13699 N 1294.55 -1.48224 4.83594 0
M  V30 13700 C 1292.85 -2.34795 3.79193 0
M  V30 13701 C 1293.55 -1.37941 5.65108 0
M  V30 13702 N 1292.52 -1.861 5.10752 0
M  V30 13703 H 1296.32 -0.573556 2.88249 0
M  V30 13704 H 1293.84 -0.217632 1.60935 0
M  V30 13705 H 1295.84 -3.03793 2.85509 0
M  V30 13706 H 1294.5 -2.75897 1.71204 0
M  V30 13707 H 1295.51 -1.16261 5.04682 0
M  V30 13708 H 1292.18 -2.82566 3.07348 0
M  V30 13709 H 1293.57 -0.946997 6.65193 0
M  V30 13710 N 1296.29 -1.55015 -0.284256 0
M  V30 13711 C 1297.24 -1.87898 -1.37102 0
M  V30 13712 C 1298.24 -0.754231 -1.51683 0
M  V30 13713 O 1299.44 -0.93844 -1.53601 0
M  V30 13714 H 1295.82 -0.596208 -0.458301 0
M  V30 13715 H 1297.79 -2.78704 -1.06613 0
M  V30 13716 C 1296.54 -2.15764 -2.72656 0
M  V30 13717 H 1295.86 -3.01792 -2.62224 0
M  V30 13718 H 1297.3 -2.42701 -3.47667 0
M  V30 13719 C 1295.76 -0.961561 -3.22886 0
M  V30 13720 O 1296.29 -0.190489 -4.01248 0
M  V30 13721 N 1294.49 -0.762338 -2.80422 0
M  V30 13722 H 1294.04 -1.39104 -2.16813 0
M  V30 13723 H 1294 0.0363482 -3.14379 0
M  V30 13724 N 1297.77 0.548248 -1.47757 0
M  V30 13725 C 1299 1.335 -1.58722 0
M  V30 13726 C 1299.42 1.86549 -0.241034 0
M  V30 13727 O 1298.78 1.63447 0.784517 0
M  V30 13728 C 1298.83 2.47457 -2.62293 0
M  V30 13729 O 1297.93 3.49956 -2.18185 0
M  V30 13730 H 1297.27 0.396166 -0.532868 0
M  V30 13731 H 1299.8 0.66164 -1.93607 0
M  V30 13732 H 1299.81 2.93901 -2.82995 0
M  V30 13733 H 1298.49 2.08203 -3.60034 0
M  V30 13734 H 1297.06 3.09755 -2.0762 0
M  V30 13735 N 1299.25 1.36039 0.795694 0
M  V30 13736 C 1300.18 1.32528 1.92246 0
M  V30 13737 C 1301.16 0.197805 1.68946 0
M  V30 13738 O 1302.35 0.394474 1.90151 0
M  V30 13739 C 1299.48 1.10748 3.29169 0
M  V30 13740 C 1298.43 2.20253 3.66978 0
M  V30 13741 C 1297.76 1.83624 5.02181 0
M  V30 13742 C 1299.06 3.62296 3.76216 0
M  V30 13743 H 1300.75 2.2681 1.95442 0
M  V30 13744 H 1298.3 1.09181 0.938908 0
M  V30 13745 H 1300.25 1.06929 4.07608 0
M  V30 13746 H 1298.97 0.129141 3.26345 0
M  V30 13747 H 1297.63 2.23187 2.90832 0
M  V30 13748 H 1297.28 0.843804 4.95872 0
M  V30 13749 H 1296.98 2.56935 5.28449 0
M  V30 13750 H 1298.5 1.81349 5.83048 0
M  V30 13751 H 1299.92 3.61623 4.44861 0
M  V30 13752 H 1298.31 4.34459 4.13963 0
M  V30 13753 H 1299.38 3.97657 2.77483 0
M  V30 13754 N 1300.73 -1.01913 1.20215 0
M  V30 13755 C 1302.14 -1.27766 0.956459 0
M  V30 13756 C 1302.34 -1.98158 -0.365486 0
M  V30 13757 O 1301.4 -2.27539 -1.09463 0
M  V30 13758 C 1302.71 -2.11516 2.13732 0
M  V30 13759 C 1304.26 -2.24792 2.17802 0
M  V30 13760 C 1304.74 -3.11919 3.35367 0
M  V30 13761 N 1306.23 -3.19507 3.35364 0
M  V30 13762 C 1306.96 -3.8714 4.22978 0
M  V30 13763 N 1306.46 -4.5692 5.20765 0
M  V30 13764 N 1308.25 -3.83638 4.10827 0
M  V30 13765 H 1300.4 -0.546426 2.05251 0
M  V30 13766 H 1302.67 -0.303772 0.898012 0
M  V30 13767 H 1302.37 -1.67127 3.09453 0
M  V30 13768 H 1302.25 -3.12249 2.11614 0
M  V30 13769 H 1304.63 -2.68407 1.22645 0
M  V30 13770 H 1304.71 -1.23576 2.2397 0
M  V30 13771 H 1304.36 -2.6901 4.30809 0
M  V30 13772 H 1304.29 -4.13215 3.26436 0
M  V30 13773 H 1306.78 -2.69819 2.64587 0
M  V30 13774 H 1307.09 -5.06188 5.83947 0
M  V30 13775 H 1305.44 -4.55753 5.24704 0
M  V30 13776 H 1308.63 -3.28268 3.33703 0
M  V30 13777 H 1308.8 -4.36071 4.79318 0
M  V30 13778 N 1302.21 -1.00763 -1.2118 0
M  V30 13779 C 1303.46 -0.687197 -1.89633 0
M  V30 13780 C 1303.77 0.78566 -1.79128 0
M  V30 13781 O 1304.97 1.21828 -2.42632 0
M  V30 13782 C 1303.43 -1.1787 -3.40051 0
M  V30 13783 C 1303.04 -2.67782 -3.59161 0
M  V30 13784 C 1304.78 -0.933277 -4.14114 0
M  V30 13785 C 1302.69 -3.10459 -5.03358 0
M  V30 13786 H 1301.62 -0.253342 -0.710165 0
M  V30 13787 H 1304.27 -1.21914 -1.37147 0
M  V30 13788 H 1302.65 -0.574791 -3.91806 0
M  V30 13789 H 1303.83 -3.33645 -3.17833 0
M  V30 13790 H 1302.14 -2.90368 -2.98455 0
M  V30 13791 H 1304.74 -1.22766 -5.20416 0
M  V30 13792 H 1305.08 0.130431 -4.16096 0
M  V30 13793 H 1305.61 -1.50011 -3.68431 0
M  V30 13794 H 1302.35 -4.16068 -5.06525 0
M  V30 13795 H 1301.87 -2.4931 -5.45531 0
M  V30 13796 H 1303.55 -3.02589 -5.71882 0
M  V30 13797 N 1303.68 1.3679 -0.7827 0
M  V30 13798 C 1304.96 1.93639 -0.276278 0
M  V30 13799 C 1305.34 1.7153 1.23048 0
M  V30 13800 O 1304.69 1.07037 2.01879 0
M  V30 13801 C 1304.9 3.42672 -0.661586 0
M  V30 13802 C 1306.25 4.19786 -0.637538 0
M  V30 13803 O 1307.27 3.51082 -0.601645 0
M  V30 13804 O 1306.13 5.42323 -0.674408 0
M  V30 13805 H 1303.22 0.824307 -0.0666832 0
M  V30 13806 H 1305.77 1.46012 -0.864792 0
M  V30 13807 H 1304.54 3.52393 -1.70103 0
M  V30 13808 H 1304.17 3.97573 -0.0465987 0
M  V30 13809 N 1305.16 0.53415 1.48272 0
M  V30 13810 C 1306.09 -0.215037 2.32508 0
M  V30 13811 C 1307.07 -0.931083 1.42355 0
M  V30 13812 O 1308.26 -0.916051 1.71237 0
M  V30 13813 C 1305.39 -1.25985 3.23643 0
M  V30 13814 C 1304.34 -0.661692 4.22854 0
M  V30 13815 C 1303.67 -1.80946 5.03153 0
M  V30 13816 C 1304.97 0.369358 5.20992 0
M  V30 13817 H 1306.66 0.488158 2.95394 0
M  V30 13818 H 1304.21 0.236206 1.4205 0
M  V30 13819 H 1306.16 -1.79195 3.81402 0
M  V30 13820 H 1304.89 -1.99268 2.58766 0
M  V30 13821 H 1303.54 -0.151082 3.66289 0
M  V30 13822 H 1303.19 -2.53077 4.34696 0
M  V30 13823 H 1302.89 -1.41513 5.70305 0
M  V30 13824 H 1304.42 -2.34526 5.63764 0
M  V30 13825 H 1305.83 -0.0758076 5.7325 0
M  V30 13826 H 1304.23 0.681301 5.9622 0
M  V30 13827 H 1305.3 1.27363 4.67875 0
M  V30 13828 N 1306.64 -1.55279 0.269478 0
M  V30 13829 C 1307.87 -2.04334 -0.355313 0
M  V30 13830 C 1308.29 -1.14677 -1.491 0
M  V30 13831 O 1307.65 -0.144215 -1.80726 0
M  V30 13832 C 1307.7 -3.51172 -0.819162 0
M  V30 13833 O 1306.8 -3.64615 -1.9269 0
M  V30 13834 H 1306.14 -0.659827 -0.0743229 0
M  V30 13835 H 1308.67 -2.00609 0.402131 0
M  V30 13836 H 1308.68 -3.92428 -1.11642 0
M  V30 13837 H 1307.36 -4.15898 0.0117821 0
M  V30 13838 H 1305.93 -3.35261 -1.63261 0
M  V30 13839 N 1308.12 0.00332656 -1.576 0
M  V30 13840 C 1309.35 0.699945 -1.94701 0
M  V30 13841 C 1309.76 1.67492 -0.871312 0
M  V30 13842 O 1309.12 1.81882 0.150054 0
M  V30 13843 C 1309.17 1.43471 -3.31811 0
M  V30 13844 O 1308.89 0.498835 -4.35251 0
M  V30 13845 C 1310.39 2.22614 -3.83351 0
M  V30 13846 H 1307.61 0.195158 -0.641993 0
M  V30 13847 H 1310.16 -0.0468044 -2.04446 0
M  V30 13848 H 1308.31 2.13311 -3.23384 0
M  V30 13849 H 1308.72 1.01688 -5.14548 0
M  V30 13850 H 1310.2 2.69527 -4.81725 0
M  V30 13851 H 1310.68 3.05146 -3.15883 0
M  V30 13852 H 1311.28 1.57796 -3.94944 0
M  V30 13853 N 1309.6 1.55164 0.276031 0
M  V30 13854 C 1310.83 1.79388 1.02486 0
M  V30 13855 C 1311.23 0.565884 1.80539 0
M  V30 13856 O 1310.58 -0.47449 1.77466 0
M  V30 13857 C 1310.64 2.96494 2.03302 0
M  V30 13858 C 1310.3 4.33649 1.44214 0
M  V30 13859 C 1311.3 5.12749 0.859355 0
M  V30 13860 C 1308.99 4.80301 1.47026 0
M  V30 13861 C 1310.98 6.36633 0.312548 0
M  V30 13862 C 1308.67 6.04141 0.919587 0
M  V30 13863 C 1309.66 6.82145 0.341729 0
M  V30 13864 O 1309.35 8.0365 -0.200517 0
M  V30 13865 H 1309.08 0.601454 0.308592 0
M  V30 13866 H 1311.64 2.02999 0.313148 0
M  V30 13867 H 1309.87 2.68568 2.78223 0
M  V30 13868 H 1311.56 3.08069 2.64288 0
M  V30 13869 H 1312.32 4.77839 0.830353 0
M  V30 13870 H 1308.2 4.19597 1.90942 0
M  V30 13871 H 1311.75 6.97461 -0.139131 0
M  V30 13872 H 1307.64 6.38533 0.945819 0
M  V30 13873 H 1308.41 8.18451 -0.0895877 0
M  V30 13874 N 1311.07 -0.540404 1.48045 0
M  V30 13875 C 1312.49 -0.867958 1.33935 0
M  V30 13876 C 1312.69 -1.98568 0.342488 0
M  V30 13877 O 1311.75 -2.51357 -0.240022 0
M  V30 13878 C 1313.06 -1.24532 2.73701 0
M  V30 13879 C 1314.61 -1.3558 2.82112 0
M  V30 13880 C 1315.08 -1.76664 4.22556 0
M  V30 13881 N 1316.57 -1.83785 4.25179 0
M  V30 13882 C 1317.31 -2.16938 5.30778 0
M  V30 13883 N 1316.8 -2.48587 6.46666 0
M  V30 13884 N 1318.6 -2.17855 5.18166 0
M  V30 13885 H 1310.75 0.197251 2.11482 0
M  V30 13886 H 1313.01 0.0255947 0.947654 0
M  V30 13887 H 1312.72 -0.497731 3.4816 0
M  V30 13888 H 1312.59 -2.19779 3.06556 0
M  V30 13889 H 1314.98 -2.09417 2.07915 0
M  V30 13890 H 1315.06 -0.384787 2.52889 0
M  V30 13891 H 1314.7 -1.03391 4.97265 0
M  V30 13892 H 1314.63 -2.74797 4.49215 0
M  V30 13893 H 1317.12 -1.61645 3.41583 0
M  V30 13894 H 1317.44 -2.72959 7.22989 0
M  V30 13895 H 1315.78 -2.4613 6.49958 0
M  V30 13896 H 1318.97 -1.9258 4.2665 0
M  V30 13897 H 1319.15 -2.43361 6.00566 0
M  V30 13898 N 1312.55 -1.36459 -0.788468 0
M  V30 13899 C 1313.5 -1.30924 -1.92254 0
M  V30 13900 C 1314.49 -0.200866 -1.68205 0
M  V30 13901 O 1315.7 -0.367927 -1.762 0
M  V30 13902 H 1312.08 -0.407609 -0.631949 0
M  V30 13903 H 1314.05 -2.26695 -1.94041 0
M  V30 13904 C 1312.8 -1.11635 -3.29292 0
M  V30 13905 H 1312.12 -1.96168 -3.48365 0
M  V30 13906 H 1313.56 -1.11808 -4.08993 0
M  V30 13907 C 1312.02 0.178963 -3.36424 0
M  V30 13908 O 1312.55 1.16846 -3.8433 0
M  V30 13909 N 1310.75 0.223962 -2.89736 0
M  V30 13910 H 1310.3 -0.581888 -2.50942 0
M  V30 13911 H 1310.26 1.0903 -2.94889 0
M  V30 13912 N 1314.03 1.01274 -1.20754 0
M  V30 13913 C 1314.98 2.12012 -0.95675 0
M  V30 13914 C 1315.97 1.69143 0.0932738 0
M  V30 13915 O 1317.18 1.79908 -0.0574298 0
M  V30 13916 H 1313.55 0.692956 -0.292088 0
M  V30 13917 H 1315.52 2.30347 -1.89692 0
M  V30 13918 C 1314.27 3.43643 -0.529602 0
M  V30 13919 H 1313.6 3.77058 -1.32918 0
M  V30 13920 H 1315.04 4.22171 -0.393376 0
M  V30 13921 C 1313.5 3.2825 0.758505 0
M  V30 13922 O 1314.03 3.58309 1.81598 0
M  V30 13923 N 1312.23 2.81487 0.722022 0
M  V30 13924 H 1311.78 2.57226 -0.138807 0
M  V30 13925 H 1311.74 2.7157 1.58421 0
M  V30 13926 N 1315.51 1.01404 1.20644 0
M  V30 13927 C 1316.76 0.701909 1.89946 0
M  V30 13928 C 1317.08 -0.768212 1.78686 0
M  V30 13929 O 1316.34 -1.57348 1.16363 0
M  V30 13930 C 1316.64 1.07995 3.40693 0
M  V30 13931 C 1316.3 2.54585 3.72152 0
M  V30 13932 C 1314.97 2.94639 3.80449 0
M  V30 13933 C 1317.32 3.49497 3.86654 0
M  V30 13934 C 1314.65 4.2855 4.00702 0
M  V30 13935 C 1317 4.83093 4.08416 0
M  V30 13936 C 1315.66 5.22857 4.14942 0
M  V30 13937 H 1314.93 0.256847 0.695062 0
M  V30 13938 H 1317.58 1.27415 1.4296 0
M  V30 13939 H 1315.88 0.426089 3.89476 0
M  V30 13940 H 1317.58 0.816176 3.92606 0
M  V30 13941 H 1314.17 2.22548 3.66292 0
M  V30 13942 H 1318.36 3.19713 3.79602 0
M  V30 13943 H 1313.61 4.58916 4.03988 0
M  V30 13944 H 1317.79 5.56565 4.18579 0
M  V30 13945 H 1315.41 6.26634 4.30388 0
M  V30 13946 N 1316.99 -1.36373 0.789944 0
M  V30 13947 C 1318.4 -1.81783 0.425677 0
M  V30 13948 C 1318.75 -1.65711 -1.05045 0
M  V30 13949 O 1317.87 -1.17835 -1.81505 0
M  V30 13950 C 1318.47 -3.3003 0.765866 0
M  V30 13951 C 1317.03 -3.73647 0.454421 0
M  V30 13952 C 1316.18 -2.58632 1.00023 0
M  V30 13953 H 1319.13 -1.24587 0.983044 0
M  V30 13954 H 1319.15 -3.80457 0.0571624 0
M  V30 13955 H 1318.66 -3.41696 1.84026 0
M  V30 13956 H 1316.76 -3.67541 -0.611918 0
M  V30 13957 H 1316.87 -4.69066 0.975401 0
M  V30 13958 H 1315.24 -2.51156 0.423434 0
M  V30 13959 H 1316.02 -2.73083 2.0804 0
M  V30 13960 N 1318.47 -0.542005 -1.47987 0
M  V30 13961 C 1319.43 0.203537 -2.28294 0
M  V30 13962 C 1320.43 0.856762 -1.36074 0
M  V30 13963 O 1321.62 0.71496 -1.58852 0
M  V30 13964 C 1318.75 1.29581 -3.15312 0
M  V30 13965 H 1319.94 -0.501701 -2.95674 0
M  V30 13966 H 1317.5 -0.298378 -1.53426 0
M  V30 13967 H 1318.23 2.03393 -2.5259 0
M  V30 13968 H 1318.02 0.832398 -3.83163 0
M  V30 13969 H 1319.51 1.81988 -3.75859 0
M  V30 13970 N 1319.94 1.55134 -0.277709 0
M  V30 13971 C 1321.19 1.99259 0.337662 0
M  V30 13972 C 1321.51 1.16755 1.56183 0
M  V30 13973 O 1320.78 0.257707 1.94198 0
M  V30 13974 H 1319.36 0.735995 0.127751 0
M  V30 13975 H 1322.02 1.91087 -0.383646 0
M  V30 13976 H 1321.12 3.05763 0.625747 0
M  V30 13977 N 1321.42 0.00503138 1.57599 0
M  V30 13978 C 1322.65 -0.693231 1.95471 0
M  V30 13979 C 1323.07 -1.66233 0.880246 0
M  V30 13980 O 1322.43 -1.80582 -0.161164 0
M  V30 13981 C 1322.48 -1.39696 3.32442 0
M  V30 13982 O 1321.58 -2.51154 3.27101 0
M  V30 13983 H 1320.92 -0.184015 0.637992 0
M  V30 13984 H 1323.45 0.0597194 2.04513 0
M  V30 13985 H 1323.46 -1.75924 3.68123 0
M  V30 13986 H 1322.14 -0.686438 4.10196 0
M  V30 13987 H 1320.71 -2.17216 3.03103 0
M  V30 13988 N 1322.9 -1.55308 -0.267798 0
M  V30 13989 C 1324.31 -1.66814 -0.838459 0
M  V30 13990 C 1324.66 -0.598609 -1.86845 0
M  V30 13991 O 1323.79 0.25896 -2.14845 0
M  V30 13992 C 1324.38 -3.02408 -1.52758 0
M  V30 13993 C 1322.94 -3.15923 -2.04621 0
M  V30 13994 C 1322.09 -2.62628 -0.890044 0
M  V30 13995 H 1325.04 -1.58639 -0.0440354 0
M  V30 13996 H 1325.06 -2.95687 -2.39478 0
M  V30 13997 H 1324.57 -3.80228 -0.777695 0
M  V30 13998 H 1322.67 -2.42886 -2.82555 0
M  V30 13999 H 1322.79 -4.22556 -2.25794 0
M  V30 14000 H 1321.15 -2.19918 -1.28485 0
M  V30 14001 H 1321.93 -3.42956 -0.153579 0
M  V30 14002 N 1324.38 0.532545 -1.4833 0
M  V30 14003 C 1325.29 1.66433 -1.65339 0
M  V30 14004 C 1326.3 1.65541 -0.535939 0
M  V30 14005 O 1327.48 1.84539 -0.806679 0
M  V30 14006 C 1324.54 3.02901 -1.68676 0
M  V30 14007 C 1323.61 3.14669 -2.92031 0
M  V30 14008 C 1322.84 4.44627 -2.95199 0
M  V30 14009 O 1323.06 5.31572 -2.06851 0
M  V30 14010 O 1322 4.60707 -3.87341 0
M  V30 14011 H 1325.82 1.5502 -2.61156 0
M  V30 14012 H 1323.41 0.705348 -1.31701 0
M  V30 14013 H 1325.29 3.84068 -1.73407 0
M  V30 14014 H 1323.96 3.14644 -0.760327 0
M  V30 14015 H 1322.87 2.32807 -2.92834 0
M  V30 14016 H 1324.2 3.07841 -3.8405 0
M  V30 14017 N 1325.86 1.36875 0.78122 0
M  V30 14018 C 1327.27 1.17467 1.08044 0
M  V30 14019 C 1327.47 0.00434799 2.015 0
M  V30 14020 O 1326.53 -0.658499 2.43762 0
M  V30 14021 C 1327.84 2.48917 1.68704 0
M  V30 14022 C 1329.39 2.55354 1.81007 0
M  V30 14023 C 1329.86 3.8691 2.45081 0
M  V30 14024 N 1331.35 3.88301 2.52541 0
M  V30 14025 C 1332.09 4.86837 3.02947 0
M  V30 14026 N 1331.59 5.95768 3.53598 0
M  V30 14027 N 1333.38 4.74249 3.01735 0
M  V30 14028 H 1325.53 2.11793 0.160503 0
M  V30 14029 H 1327.79 0.938507 0.133825 0
M  V30 14030 H 1327.5 3.34867 1.07503 0
M  V30 14031 H 1327.37 2.65319 2.68115 0
M  V30 14032 H 1329.76 1.69816 2.41343 0
M  V30 14033 H 1329.84 2.42843 0.803783 0
M  V30 14034 H 1329.48 4.72858 1.85386 0
M  V30 14035 H 1329.41 3.9672 3.46296 0
M  V30 14036 H 1331.91 3.09607 2.16684 0
M  V30 14037 H 1332.22 6.66918 3.90435 0
M  V30 14038 H 1330.56 5.99426 3.51728 0
M  V30 14039 H 1333.75 3.88275 2.61458 0
M  V30 14040 H 1333.93 5.512 3.40709 0
M  V30 14041 N 1327.33 -1.00632 1.21289 0
M  V30 14042 C 1328.26 -2.11238 0.995021 0
M  V30 14043 C 1329.24 -1.69914 -0.0795537 0
M  V30 14044 O 1330.43 -1.94035 0.0800152 0
M  V30 14045 C 1327.56 -3.42797 0.557475 0
M  V30 14046 C 1326.51 -3.97909 1.57646 0
M  V30 14047 C 1325.84 -5.25357 0.995197 0
M  V30 14048 C 1327.14 -4.30123 2.96297 0
M  V30 14049 H 1328.83 -2.29722 1.9201 0
M  V30 14050 H 1326.38 -1.10395 0.924602 0
M  V30 14051 H 1328.33 -4.19571 0.392236 0
M  V30 14052 H 1327.06 -3.24101 -0.403253 0
M  V30 14053 H 1325.72 -3.23254 1.72924 0
M  V30 14054 H 1325.36 -5.02993 0.026227 0
M  V30 14055 H 1325.06 -5.63196 1.67583 0
M  V30 14056 H 1326.59 -6.04777 0.841251 0
M  V30 14057 H 1328 -4.97744 2.8447 0
M  V30 14058 H 1326.4 -4.79101 3.61361 0
M  V30 14059 H 1327.47 -3.38454 3.47242 0
M  V30 14060 N 1328.81 -1.02043 -1.20104 0
M  V30 14061 C 1329.74 -0.552093 -2.22451 0
M  V30 14062 C 1330.76 0.367547 -1.58597 0
M  V30 14063 O 1331.95 0.165285 -1.77733 0
M  V30 14064 C 1329.05 0.215833 -3.38212 0
M  V30 14065 C 1328.22 -0.70666 -4.31654 0
M  V30 14066 C 1327.28 0.0143628 -5.26198 0
M  V30 14067 O 1326.3 -0.609413 -5.65928 0
M  V30 14068 N 1327.51 1.28794 -5.66032 0
M  V30 14069 H 1330.27 -1.43229 -2.6326 0
M  V30 14070 H 1327.83 -0.89842 -1.34685 0
M  V30 14071 H 1329.82 0.707523 -3.98467 0
M  V30 14072 H 1328.39 0.997358 -2.96263 0
M  V30 14073 H 1327.61 -1.37859 -3.69308 0
M  V30 14074 H 1328.9 -1.33392 -4.91003 0
M  V30 14075 H 1328.3 1.8156 -5.35773 0
M  V30 14076 H 1326.86 1.72429 -6.28579 0
M  V30 14077 N 1330.29 1.35952 -0.797165 0
M  V30 14078 C 1331.57 1.93335 -0.2968 0
M  V30 14079 C 1331.95 1.72825 1.21222 0
M  V30 14080 O 1331.3 1.09172 2.00733 0
M  V30 14081 C 1331.51 3.41951 -0.697894 0
M  V30 14082 C 1332.85 4.19087 -0.682026 0
M  V30 14083 O 1333.88 3.50424 -0.638849 0
M  V30 14084 O 1332.74 5.41577 -0.73189 0
M  V30 14085 H 1329.83 0.823554 -0.0754223 0
M  V30 14086 H 1332.38 1.45086 -0.88023 0
M  V30 14087 H 1331.15 3.50569 -1.73831 0
M  V30 14088 H 1330.77 3.97501 -0.088764 0
M  V30 14089 N 1331.77 0.549846 1.47697 0
M  V30 14090 C 1332.7 -0.190364 2.32723 0
M  V30 14091 C 1333.68 -0.915933 1.43334 0
M  V30 14092 O 1334.86 -0.897838 1.72199 0
M  V30 14093 C 1331.99 -1.22545 3.24961 0
M  V30 14094 C 1330.95 -0.616805 4.23532 0
M  V30 14095 C 1330.27 -1.75599 5.05044 0
M  V30 14096 C 1331.57 0.424595 5.20571 0
M  V30 14097 H 1333.27 0.519461 2.94859 0
M  V30 14098 H 1330.81 0.251259 1.41791 0
M  V30 14099 H 1332.77 -1.75139 3.83281 0
M  V30 14100 H 1331.49 -1.96512 2.60865 0
M  V30 14101 H 1330.15 -0.112224 3.66428 0
M  V30 14102 H 1329.8 -2.48453 4.37356 0
M  V30 14103 H 1329.5 -1.35456 5.71774 0
M  V30 14104 H 1331.02 -2.28533 5.6622 0
M  V30 14105 H 1332.44 -0.0150025 5.73298 0
M  V30 14106 H 1330.83 0.7445 5.95464 0
M  V30 14107 H 1331.9 1.32318 4.66497 0
M  V30 14108 N 1333.25 -1.54984 0.285932 0
M  V30 14109 C 1334.19 -2.2295 -0.596822 0
M  V30 14110 C 1335.16 -1.20674 -1.14136 0
M  V30 14111 O 1336.35 -1.49249 -1.18867 0
M  V30 14112 C 1333.49 -2.9625 -1.77002 0
M  V30 14113 C 1332.6 -4.13268 -1.25831 0
M  V30 14114 C 1331.74 -4.74187 -2.39417 0
M  V30 14115 C 1330.78 -5.83377 -1.85304 0
M  V30 14116 N 1329.91 -6.38313 -2.92405 0
M  V30 14117 H 1334.75 -2.97998 -0.0106104 0
M  V30 14118 H 1332.29 -1.47099 0.00653041 0
M  V30 14119 H 1334.25 -3.36971 -2.4598 0
M  V30 14120 H 1332.88 -2.23606 -2.3281 0
M  V30 14121 H 1331.93 -3.77593 -0.461278 0
M  V30 14122 H 1333.24 -4.91979 -0.822049 0
M  V30 14123 H 1332.4 -5.17683 -3.16369 0
M  V30 14124 H 1331.13 -3.94775 -2.86364 0
M  V30 14125 H 1330.14 -5.3932 -1.06835 0
M  V30 14126 H 1331.36 -6.64664 -1.3928 0
M  V30 14127 H 1329.31 -5.61791 -3.38713 0
M  V30 14128 H 1329.23 -7.12328 -2.53228 0
M  V30 14129 H 1330.5 -6.86468 -3.69299 0
M  V30 14130 N 1334.72 -0.0133892 -1.57594 0
M  V30 14131 C 1335.95 0.682855 -1.95836 0
M  V30 14132 C 1336.37 1.65763 -0.889049 0
M  V30 14133 O 1335.73 1.80665 0.151585 0
M  V30 14134 C 1335.78 1.37931 -3.33178 0
M  V30 14135 O 1334.88 2.49416 -3.28429 0
M  V30 14136 H 1334.23 0.180629 -0.638959 0
M  V30 14137 H 1336.76 -0.0705644 -2.04478 0
M  V30 14138 H 1336.77 1.73969 -3.69051 0
M  V30 14139 H 1335.44 0.664675 -4.10554 0
M  V30 14140 H 1334.02 2.15606 -3.04251 0
M  V30 14141 N 1336.2 1.55448 0.259558 0
M  V30 14142 C 1337.43 1.80727 1.00723 0
M  V30 14143 C 1337.85 0.587354 1.79431 0
M  V30 14144 O 1337.2 -0.443819 1.77021 0
M  V30 14145 C 1337.25 3.04064 1.95517 0
M  V30 14146 O 1336.97 4.21346 1.19996 0
M  V30 14147 C 1338.48 3.42049 2.81988 0
M  V30 14148 H 1335.7 0.601713 0.296956 0
M  V30 14149 H 1338.24 2.02486 0.286273 0
M  V30 14150 H 1336.39 2.84392 2.63058 0
M  V30 14151 H 1336.81 4.91164 1.84006 0
M  V30 14152 H 1338.28 4.31485 3.44274 0
M  V30 14153 H 1338.76 2.62059 3.52451 0
M  V30 14154 H 1339.37 3.64027 2.19918 0
M  V30 14155 N 1337.68 -0.524672 1.4861 0
M  V30 14156 C 1338.93 -1.28211 1.5713 0
M  V30 14157 C 1339.26 -1.92626 0.246751 0
M  V30 14158 O 1338.53 -1.79553 -0.747725 0
M  V30 14159 C 1338.82 -2.36737 2.71344 0
M  V30 14160 C 1338.67 -1.76978 4.1352 0
M  V30 14161 C 1339.99 -3.3847 2.81294 0
M  V30 14162 H 1337.11 -0.46479 0.571961 0
M  V30 14163 H 1339.75 -0.583937 1.80804 0
M  V30 14164 H 1337.9 -2.96287 2.51289 0
M  V30 14165 H 1339.57 -1.21438 4.45029 0
M  V30 14166 H 1337.82 -1.07488 4.20272 0
M  V30 14167 H 1338.49 -2.55583 4.89266 0
M  V30 14168 H 1340.96 -2.88882 2.99477 0
M  V30 14169 H 1339.84 -4.11795 3.62928 0
M  V30 14170 H 1340.1 -3.99347 1.89669 0
M  V30 14171 N 1339.16 -1.37287 -0.77395 0
M  V30 14172 C 1340.44 -1.2291 -1.52159 0
M  V30 14173 C 1340.82 0.178249 -2.10346 0
M  V30 14174 O 1340.16 1.18564 -1.95333 0
M  V30 14175 C 1340.37 -2.32337 -2.60424 0
M  V30 14176 C 1341.72 -2.69769 -3.27887 0
M  V30 14177 O 1342.75 -2.31497 -2.70717 0
M  V30 14178 O 1341.6 -3.35699 -4.31241 0
M  V30 14179 H 1338.7 -0.47948 -0.673816 0
M  V30 14180 H 1341.24 -1.49061 -0.811105 0
M  V30 14181 H 1340.02 -3.26591 -2.15532 0
M  V30 14182 H 1339.64 -2.07638 -3.39076 0
M  V30 14183 N 1340.64 0.999871 -1.21821 0
M  V30 14184 C 1341.57 2.10708 -1.00621 0
M  V30 14185 C 1342.55 1.69954 0.0705417 0
M  V30 14186 O 1343.73 1.9399 -0.0903042 0
M  V30 14187 C 1340.86 3.42496 -0.575646 0
M  V30 14188 C 1339.82 3.97068 -1.59754 0
M  V30 14189 C 1339.14 5.24822 -1.02304 0
M  V30 14190 C 1340.44 4.28545 -2.98574 0
M  V30 14191 H 1342.14 2.28701 -1.93226 0
M  V30 14192 H 1339.68 1.09903 -0.930443 0
M  V30 14193 H 1341.64 4.19357 -0.414481 0
M  V30 14194 H 1340.36 3.2431 0.386059 0
M  V30 14195 H 1339.02 3.22332 -1.74636 0
M  V30 14196 H 1338.67 5.02972 -0.0529016 0
M  V30 14197 H 1338.37 5.62299 -1.70567 0
M  V30 14198 H 1339.89 6.04322 -0.873312 0
M  V30 14199 H 1341.3 4.96229 -2.87106 0
M  V30 14200 H 1339.7 4.77178 -3.63897 0
M  V30 14201 H 1340.77 3.36607 -3.49032 0
M  V30 14202 N 1342.11 1.02678 1.19562 0
M  V30 14203 C 1343.04 0.626359 2.24942 0
M  V30 14204 C 1344.03 -0.363612 1.66168 0
M  V30 14205 O 1345.21 -0.246793 1.92625 0
M  V30 14206 C 1342.34 -0.0257912 3.4729 0
M  V30 14207 C 1341.29 0.886237 4.18724 0
M  V30 14208 C 1340.62 0.0993081 5.34608 0
M  V30 14209 C 1341.92 2.19901 4.73752 0
M  V30 14210 H 1343.61 1.50729 2.58691 0
M  V30 14211 H 1341.16 0.726195 1.24348 0
M  V30 14212 H 1343.11 -0.317545 4.20202 0
M  V30 14213 H 1341.84 -0.941511 3.12735 0
M  V30 14214 H 1340.5 1.16215 3.47692 0
M  V30 14215 H 1340.14 -0.81838 4.96298 0
M  V30 14216 H 1339.84 0.706776 5.83334 0
M  V30 14217 H 1341.37 -0.185754 6.10317 0
M  V30 14218 H 1342.78 1.96892 5.3843 0
M  V30 14219 H 1341.18 2.75821 5.32956 0
M  V30 14220 H 1342.25 2.85509 3.91934 0
M  V30 14221 N 1343.59 -1.35528 0.804364 0
M  V30 14222 C 1344.82 -2.03073 0.396091 0
M  V30 14223 C 1345.24 -1.60623 -0.992252 0
M  V30 14224 O 1344.59 -0.802718 -1.63898 0
M  V30 14225 C 1344.64 -3.58467 0.467301 0
M  V30 14226 O 1344.36 -3.99373 1.80091 0
M  V30 14227 C 1345.87 -4.4327 0.0515549 0
M  V30 14228 H 1343.09 -0.651346 0.161212 0
M  V30 14229 H 1345.63 -1.73195 1.08737 0
M  V30 14230 H 1343.78 -3.87001 -0.175703 0
M  V30 14231 H 1344.2 -4.94013 1.76214 0
M  V30 14232 H 1345.67 -5.51789 0.152499 0
M  V30 14233 H 1346.15 -4.27597 -1.00286 0
M  V30 14234 H 1346.76 -4.20027 0.667628 0
M  V30 14235 N 1345.07 -0.557671 -1.47404 0
M  V30 14236 C 1346.3 -0.0366797 -2.07368 0
M  V30 14237 C 1346.72 1.2478 -1.40754 0
M  V30 14238 O 1346.08 1.74757 -0.48268 0
M  V30 14239 C 1346.13 0.141728 -3.60321 0
M  V30 14240 O 1345.23 1.20419 -3.94427 0
M  V30 14241 H 1344.57 -0.0515319 -0.661997 0
M  V30 14242 H 1347.1 -0.773485 -1.89416 0
M  V30 14243 H 1347.11 0.355787 -4.06446 0
M  V30 14244 H 1345.79 -0.796433 -4.08203 0
M  V30 14245 H 1344.36 0.970589 -3.60047 0
M  V30 14246 N 1346.55 1.54831 -0.294147 0
M  V30 14247 C 1347.8 1.99179 0.317874 0
M  V30 14248 C 1348.11 1.18614 1.55532 0
M  V30 14249 O 1349.32 1.53197 2.24149 0
M  V30 14250 C 1347.77 3.54574 0.616893 0
M  V30 14251 C 1347.38 4.43939 -0.601822 0
M  V30 14252 C 1349.13 4.07465 1.19049 0
M  V30 14253 C 1347.03 5.90754 -0.276336 0
M  V30 14254 H 1345.96 0.743974 0.12255 0
M  V30 14255 H 1348.61 1.79047 -0.401781 0
M  V30 14256 H 1347 3.70579 1.39596 0
M  V30 14257 H 1348.17 4.39706 -1.37822 0
M  V30 14258 H 1346.48 4.01783 -1.09357 0
M  V30 14259 H 1349.08 5.14716 1.44814 0
M  V30 14260 H 1349.42 3.5765 2.13055 0
M  V30 14261 H 1349.96 3.94975 0.473282 0
M  V30 14262 H 1346.7 6.44704 -1.18478 0
M  V30 14263 H 1346.22 5.98011 0.462928 0
M  V30 14264 H 1347.9 6.4688 0.124587 0
M  V30 14265 N 1348.03 0.0217466 1.57585 0
M  V30 14266 C 1349.26 -0.668881 1.9579 0
M  V30 14267 C 1349.67 -1.66085 0.897849 0
M  V30 14268 O 1349.03 -1.82098 -0.121099 0
M  V30 14269 C 1349.08 -1.38174 3.34051 0
M  V30 14270 O 1348.8 -0.429527 4.35989 0
M  V30 14271 C 1350.3 -2.16487 3.86844 0
M  V30 14272 H 1347.52 -0.184919 0.645016 0
M  V30 14273 H 1350.06 0.0793241 2.04346 0
M  V30 14274 H 1348.22 -2.0814 3.26736 0
M  V30 14275 H 1348.63 -0.934887 5.16101 0
M  V30 14276 H 1350.11 -2.61829 4.85952 0
M  V30 14277 H 1350.58 -3.00082 3.20698 0
M  V30 14278 H 1351.19 -1.51493 3.97404 0
M  V30 14279 N 1349.51 -1.55583 -0.251311 0
M  V30 14280 C 1350.75 -1.77209 -0.979966 0
M  V30 14281 C 1351.08 -0.585279 -1.85485 0
M  V30 14282 O 1350.34 0.431559 -1.90882 0
M  V30 14283 C 1350.63 -3.04291 -1.87461 0
M  V30 14284 C 1350.3 -4.35844 -1.15545 0
M  V30 14285 C 1348.96 -4.71594 -0.956679 0
M  V30 14286 C 1351.31 -5.17189 -0.645381 0
M  V30 14287 C 1348.64 -5.86227 -0.235465 0
M  V30 14288 C 1350.99 -6.32569 0.0623441 0
M  V30 14289 C 1349.66 -6.66943 0.272634 0
M  V30 14290 H 1348.93 -0.648452 -0.358595 0
M  V30 14291 H 1351.58 -1.89856 -0.250423 0
M  V30 14292 H 1349.88 -2.86637 -2.67108 0
M  V30 14293 H 1351.58 -3.18221 -2.44001 0
M  V30 14294 H 1348.17 -4.07757 -1.32031 0
M  V30 14295 H 1352.35 -4.90028 -0.786505 0
M  V30 14296 H 1347.61 -6.11369 -0.0620232 0
M  V30 14297 H 1351.78 -6.94844 0.465234 0
M  V30 14298 H 1349.41 -7.55617 0.833442 0
M  V30 14299 N 1350.98 0.516783 -1.48886 0
M  V30 14300 C 1352.23 1.27187 -1.57574 0
M  V30 14301 C 1352.56 1.92815 -0.255432 0
M  V30 14302 O 1351.81 1.80533 0.755403 0
M  V30 14303 C 1352.11 2.37296 -2.67256 0
M  V30 14304 C 1351.78 1.89232 -4.0927 0
M  V30 14305 C 1350.44 1.75842 -4.47921 0
M  V30 14306 C 1352.79 1.53073 -4.98215 0
M  V30 14307 C 1350.12 1.24648 -5.73306 0
M  V30 14308 C 1352.47 1.03337 -6.24103 0
M  V30 14309 C 1351.14 0.885744 -6.61597 0
M  V30 14310 H 1350.41 0.46541 -0.576606 0
M  V30 14311 H 1353.05 0.575223 -1.82657 0
M  V30 14312 H 1351.36 3.12685 -2.36084 0
M  V30 14313 H 1353.06 2.95393 -2.7119 0
M  V30 14314 H 1349.65 2.00608 -3.78754 0
M  V30 14315 H 1353.83 1.62272 -4.69022 0
M  V30 14316 H 1349.09 1.11917 -6.0107 0
M  V30 14317 H 1353.26 0.744338 -6.92411 0
M  V30 14318 H 1350.89 0.486866 -7.58639 0
M  V30 14319 N 1352.46 1.37696 0.766659 0
M  V30 14320 C 1353.88 1.18607 1.06792 0
M  V30 14321 C 1354.08 0.0257195 2.01484 0
M  V30 14322 O 1353.13 -0.632608 2.44447 0
M  V30 14323 C 1354.45 2.50692 1.66054 0
M  V30 14324 C 1355.99 2.57259 1.78288 0
M  V30 14325 C 1356.47 3.89488 2.40963 0
M  V30 14326 N 1357.96 3.90957 2.48408 0
M  V30 14327 C 1358.7 4.90023 2.97767 0
M  V30 14328 N 1358.19 5.99485 3.4726 0
M  V30 14329 N 1359.98 4.77423 2.96688 0
M  V30 14330 H 1352.14 2.11951 0.138031 0
M  V30 14331 H 1354.4 0.939873 0.123863 0
M  V30 14332 H 1354.1 3.35989 1.03945 0
M  V30 14333 H 1353.98 2.68148 2.65286 0
M  V30 14334 H 1356.37 1.72366 2.39528 0
M  V30 14335 H 1356.45 2.43682 0.777981 0
M  V30 14336 H 1356.09 4.74797 1.8036 0
M  V30 14337 H 1356.02 4.0037 3.42069 0
M  V30 14338 H 1358.51 3.11888 2.13388 0
M  V30 14339 H 1358.82 6.71022 3.8334 0
M  V30 14340 H 1357.17 6.03123 3.45351 0
M  V30 14341 H 1360.36 3.91026 2.57325 0
M  V30 14342 H 1360.53 5.54783 3.34844 0
M  V30 14343 N 1353.94 -0.993397 1.22349 0
M  V30 14344 C 1354.87 -2.08104 0.936383 0
M  V30 14345 C 1355.85 -1.62153 -0.120505 0
M  V30 14346 O 1357.03 -1.88497 0.0109719 0
M  V30 14347 C 1354.16 -3.36231 0.408225 0
M  V30 14348 C 1353.21 -4.01105 1.44971 0
M  V30 14349 S 1354.04 -4.42021 3.02287 0
M  V30 14350 C 1355.2 -5.7332 2.51108 0
M  V30 14351 H 1355.43 -2.32137 1.8574 0
M  V30 14352 H 1352.96 -1.12781 1.05451 0
M  V30 14353 H 1354.92 -4.10352 0.110086 0
M  V30 14354 H 1353.58 -3.10228 -0.49167 0
M  V30 14355 H 1352.77 -4.93362 1.03003 0
M  V30 14356 H 1352.38 -3.33307 1.69653 0
M  V30 14357 H 1354.67 -6.49631 1.92317 0
M  V30 14358 H 1355.61 -6.20115 3.41853 0
M  V30 14359 H 1356.02 -5.30696 1.9241 0
M  V30 14360 N 1355.42 -1.03311 -1.19015 0
M  V30 14361 C 1356.36 -0.617567 -2.22384 0
M  V30 14362 C 1357.33 0.370779 -1.61909 0
M  V30 14363 O 1358.52 0.266481 -1.8893 0
M  V30 14364 C 1355.66 0.0211303 -3.45094 0
M  V30 14365 C 1354.77 -1.01377 -4.19937 0
M  V30 14366 C 1353.91 -0.344385 -5.30082 0
M  V30 14367 C 1352.95 -1.3649 -5.96688 0
M  V30 14368 N 1352.08 -0.721026 -6.98388 0
M  V30 14369 H 1356.92 -1.5036 -2.57286 0
M  V30 14370 H 1354.46 -0.75235 -1.26405 0
M  V30 14371 H 1356.42 0.408713 -4.15193 0
M  V30 14372 H 1355.05 0.870721 -3.10835 0
M  V30 14373 H 1354.1 -1.51937 -3.4874 0
M  V30 14374 H 1355.41 -1.78921 -4.65606 0
M  V30 14375 H 1354.57 0.097814 -6.06621 0
M  V30 14376 H 1353.31 0.463216 -4.85495 0
M  V30 14377 H 1352.31 -1.81732 -5.18897 0
M  V30 14378 H 1353.54 -2.17407 -6.43359 0
M  V30 14379 H 1351.48 0.0664057 -6.55966 0
M  V30 14380 H 1351.4 -1.43428 -7.4227 0
M  V30 14381 H 1352.67 -0.30297 -7.78911 0
M  V30 14382 N 1356.9 1.35099 -0.81154 0
M  V30 14383 C 1358.14 1.9892 -0.394815 0
M  V30 14384 C 1358.47 1.6422 1.0366 0
M  V30 14385 O 1357.75 0.908031 1.72003 0
M  V30 14386 C 1358.03 3.55331 -0.58413 0
M  V30 14387 C 1357.89 3.99812 -2.06084 0
M  V30 14388 C 1359.2 4.40098 -0.0129096 0
M  V30 14389 H 1356.32 0.72261 -0.144926 0
M  V30 14390 H 1358.97 1.60173 -1.02199 0
M  V30 14391 H 1357.12 3.88468 -0.0502446 0
M  V30 14392 H 1358.79 3.77061 -2.65749 0
M  V30 14393 H 1357.03 3.50539 -2.55548 0
M  V30 14394 H 1357.7 5.08655 -2.14416 0
M  V30 14395 H 1360.18 4.13449 -0.468917 0
M  V30 14396 H 1359.05 5.4862 -0.175252 0
M  V30 14397 H 1359.31 4.28675 1.0812 0
M  V30 14398 N 1358.37 0.56548 1.47106 0
M  V30 14399 C 1359.31 -0.215154 2.28188 0
M  V30 14400 C 1360.32 -0.871671 1.37498 0
M  V30 14401 O 1361.51 -0.744131 1.6225 0
M  V30 14402 C 1358.61 -1.32289 3.12014 0
M  V30 14403 C 1357.78 -0.761594 4.30719 0
M  V30 14404 C 1356.84 -1.75486 4.96076 0
M  V30 14405 O 1355.87 -1.29771 5.5421 0
M  V30 14406 N 1357.07 -3.0885 4.9152 0
M  V30 14407 H 1359.83 0.480405 2.95825 0
M  V30 14408 H 1357.39 0.402099 1.56827 0
M  V30 14409 H 1359.39 -1.98628 3.52603 0
M  V30 14410 H 1357.96 -1.92156 2.46566 0
M  V30 14411 H 1357.18 0.078794 3.94121 0
M  V30 14412 H 1358.46 -0.366072 5.07481 0
M  V30 14413 H 1357.86 -3.4863 4.45504 0
M  V30 14414 H 1356.42 -3.70725 5.36103 0
M  V30 14415 N 1359.85 -1.54672 0.302354 0
M  V30 14416 C 1360.76 -2.27251 -0.582578 0
M  V30 14417 C 1361.78 -1.30819 -1.14727 0
M  V30 14418 O 1362.95 -1.63803 -1.17177 0
M  V30 14419 C 1360.02 -3.00016 -1.73757 0
M  V30 14420 C 1359.08 -4.11988 -1.20682 0
M  V30 14421 C 1358.31 -4.81273 -2.30676 0
M  V30 14422 O 1358.54 -4.49927 -3.50602 0
M  V30 14423 O 1357.47 -5.68647 -1.97291 0
M  V30 14424 H 1361.3 -3.03699 0.00621365 0
M  V30 14425 H 1358.88 -1.49242 0.0687684 0
M  V30 14426 H 1360.76 -3.45652 -2.41045 0
M  V30 14427 H 1359.44 -2.26462 -2.31294 0
M  V30 14428 H 1358.35 -3.70749 -0.499625 0
M  V30 14429 H 1359.68 -4.87524 -0.676858 0
M  V30 14430 N 1361.33 -0.0301034 -1.57571 0
M  V30 14431 C 1362.26 0.94977 -2.13311 0
M  V30 14432 C 1363.24 1.33865 -1.04948 0
M  V30 14433 O 1364.43 1.4171 -1.32786 0
M  V30 14434 C 1361.56 2.23178 -2.66099 0
M  V30 14435 C 1360.51 1.98362 -3.79258 0
M  V30 14436 C 1359.84 3.32836 -4.18479 0
M  V30 14437 C 1361.14 1.32201 -5.05292 0
M  V30 14438 H 1362.83 0.485562 -2.95436 0
M  V30 14439 H 1360.38 0.232116 -1.42117 0
M  V30 14440 H 1362.33 2.92108 -3.03728 0
M  V30 14441 H 1361.05 2.71766 -1.81137 0
M  V30 14442 H 1359.71 1.31849 -3.42069 0
M  V30 14443 H 1359.36 3.79185 -3.30496 0
M  V30 14444 H 1359.06 3.17037 -4.94733 0
M  V30 14445 H 1360.58 4.03032 -4.58691 0
M  V30 14446 H 1362 1.91133 -5.40501 0
M  V30 14447 H 1360.4 1.26797 -5.86551 0
M  V30 14448 H 1361.47 0.29511 -4.84001 0
M  V30 14449 N 1362.81 1.55714 0.243056 0
M  V30 14450 C 1363.74 1.87093 1.32396 0
M  V30 14451 C 1364.75 0.757482 1.44104 0
M  V30 14452 O 1365.94 1.03563 1.45386 0
M  V30 14453 C 1363.04 2.04546 2.70212 0
M  V30 14454 C 1362.22 3.3543 2.80723 0
M  V30 14455 C 1361.27 3.42578 3.99408 0
M  V30 14456 O 1360.3 4.15762 3.88755 0
M  V30 14457 N 1361.5 2.7215 5.12752 0
M  V30 14458 H 1364.27 2.80399 1.05813 0
M  V30 14459 H 1361.83 1.55998 0.433151 0
M  V30 14460 H 1363.82 2.06665 3.47954 0
M  V30 14461 H 1362.39 1.17966 2.89487 0
M  V30 14462 H 1361.61 3.45594 1.89626 0
M  V30 14463 H 1362.9 4.21692 2.84698 0
M  V30 14464 H 1362.3 2.1243 5.24299 0
M  V30 14465 H 1360.85 2.79957 5.88615 0
M  V30 14466 N 1364.29 -0.50888 1.49158 0
M  V30 14467 C 1365.51 -1.29245 1.62205 0
M  V30 14468 C 1365.94 -1.85845 0.29041 0
M  V30 14469 O 1365.29 -1.6547 -0.740906 0
M  V30 14470 C 1365.34 -2.40415 2.68762 0
M  V30 14471 O 1364.45 -3.44048 2.27387 0
M  V30 14472 H 1363.79 -0.381898 0.543185 0
M  V30 14473 H 1366.32 -0.610076 1.95293 0
M  V30 14474 H 1366.33 -2.86295 2.90688 0
M  V30 14475 H 1365 -1.98584 3.65427 0
M  V30 14476 H 1363.58 -3.04141 2.1576 0
M  V30 14477 N 1365.76 -1.381 -0.759346 0
M  V30 14478 C 1367.18 -1.30379 -1.33635 0
M  V30 14479 C 1367.53 0.0430279 -1.96153 0
M  V30 14480 O 1366.65 0.945029 -1.94675 0
M  V30 14481 C 1367.25 -2.3611 -2.42976 0
M  V30 14482 C 1365.81 -2.31985 -2.96412 0
M  V30 14483 C 1364.95 -2.19281 -1.69739 0
M  V30 14484 H 1367.9 -1.48542 -0.558656 0
M  V30 14485 H 1367.92 -2.01493 -3.22771 0
M  V30 14486 H 1367.44 -3.34122 -1.97445 0
M  V30 14487 H 1365.54 -1.37536 -3.46287 0
M  V30 14488 H 1365.65 -3.25895 -3.51183 0
M  V30 14489 H 1364.01 -1.66035 -1.93144 0
M  V30 14490 H 1364.8 -3.19225 -1.26293 0
M  V30 14491 N 1367.24 0.986894 -1.22875 0
M  V30 14492 C 1368.65 1.54182 -1.05284 0
M  V30 14493 C 1369 1.92448 0.381856 0
M  V30 14494 O 1368.13 1.75381 1.26769 0
M  V30 14495 C 1368.72 2.80173 -1.90496 0
M  V30 14496 C 1367.28 3.32088 -1.77185 0
M  V30 14497 C 1366.43 2.05128 -1.86596 0
M  V30 14498 H 1369.38 0.807304 -1.36632 0
M  V30 14499 H 1369.4 3.52772 -1.42591 0
M  V30 14500 H 1368.91 2.52291 -2.94908 0
M  V30 14501 H 1367.02 3.64864 -0.755295 0
M  V30 14502 H 1367.13 4.02285 -2.60199 0
M  V30 14503 H 1365.49 2.18964 -1.30103 0
M  V30 14504 H 1366.28 1.79635 -2.92551 0
M  V30 14505 N 1368.72 1.0394 1.18466 0
M  V30 14506 C 1370.14 0.758404 1.40429 0
M  V30 14507 C 1370.34 -0.652603 1.90639 0
M  V30 14508 O 1369.39 -1.417 2.08991 0
M  V30 14509 C 1370.71 1.80343 2.40618 0
M  V30 14510 C 1372.25 1.82419 2.54347 0
M  V30 14511 C 1372.73 2.8591 3.57798 0
M  V30 14512 N 1374.22 2.84793 3.65304 0
M  V30 14513 C 1374.95 3.61521 4.45073 0
M  V30 14514 N 1374.45 4.47997 5.28461 0
M  V30 14515 N 1376.24 3.50016 4.39824 0
M  V30 14516 H 1368.39 1.94998 0.842 0
M  V30 14517 H 1370.66 0.843649 0.43239 0
M  V30 14518 H 1370.36 2.81547 2.10771 0
M  V30 14519 H 1370.24 1.63451 3.39947 0
M  V30 14520 H 1372.62 0.818872 2.83511 0
M  V30 14521 H 1372.71 2.03388 1.55136 0
M  V30 14522 H 1372.35 3.8662 3.29375 0
M  V30 14523 H 1372.28 2.62196 4.56684 0
M  V30 14524 H 1374.77 2.22082 3.05758 0
M  V30 14525 H 1375.08 5.03257 5.86475 0
M  V30 14526 H 1373.43 4.52065 5.27885 0
M  V30 14527 H 1376.62 2.81862 3.73726 0
M  V30 14528 H 1376.79 4.10063 5.0175 0
M  V30 14529 N 1370.2 -1.34667 0.818693 0
M  V30 14530 C 1371.16 -2.27908 0.243037 0
M  V30 14531 C 1372.16 -1.50106 -0.576622 0
M  V30 14532 O 1373.35 -1.69701 -0.393342 0
M  V30 14533 C 1370.48 -3.34455 -0.659759 0
M  V30 14534 H 1371.68 -2.80332 1.06555 0
M  V30 14535 H 1369.23 -1.44727 0.590237 0
M  V30 14536 H 1369.96 -2.87238 -1.50549 0
M  V30 14537 H 1369.75 -3.92031 -0.073567 0
M  V30 14538 H 1371.24 -4.04016 -1.05646 0
M  V30 14539 N 1371.68 -0.573274 -1.46804 0
M  V30 14540 C 1372.9 -0.0586717 -2.07317 0
M  V30 14541 C 1373.33 1.2328 -1.42069 0
M  V30 14542 O 1372.68 1.74235 -0.501188 0
M  V30 14543 C 1372.73 0.103503 -3.60451 0
M  V30 14544 O 1371.84 1.16229 -3.95682 0
M  V30 14545 H 1371.18 -0.0585504 -0.661414 0
M  V30 14546 H 1373.71 -0.793532 -1.88585 0
M  V30 14547 H 1373.72 0.312658 -4.068 0
M  V30 14548 H 1372.39 -0.839684 -4.07335 0
M  V30 14549 H 1370.97 0.932347 -3.61056 0
M  V30 14550 N 1373.15 1.5451 -0.310553 0
M  V30 14551 C 1374.09 2.2134 0.595098 0
M  V30 14552 C 1375.1 1.20917 1.09009 0
M  V30 14553 O 1376.29 1.47458 1.0059 0
M  V30 14554 C 1373.39 2.85384 1.82782 0
M  V30 14555 C 1372.56 4.11826 1.47372 0
M  V30 14556 C 1371.62 4.59584 2.56259 0
M  V30 14557 O 1370.65 5.24567 2.20949 0
M  V30 14558 N 1371.85 4.32709 3.86967 0
M  V30 14559 H 1374.61 2.99691 0.0229291 0
M  V30 14560 H 1372.17 1.61351 -0.133173 0
M  V30 14561 H 1374.17 3.14263 2.54992 0
M  V30 14562 H 1372.74 2.10816 2.30815 0
M  V30 14563 H 1371.96 3.89853 0.583826 0
M  V30 14564 H 1373.24 4.94138 1.21265 0
M  V30 14565 H 1372.64 3.80669 4.18458 0
M  V30 14566 H 1371.2 4.66275 4.55446 0
M  V30 14567 N 1374.63 0.0384594 1.57553 0
M  V30 14568 C 1375.88 -0.639085 1.92467 0
M  V30 14569 C 1376.21 -1.71239 0.916014 0
M  V30 14570 O 1375.49 -1.94408 -0.0598928 0
M  V30 14571 C 1375.77 -1.24693 3.37822 0
M  V30 14572 C 1375.62 -0.182544 4.49429 0
M  V30 14573 C 1376.94 -2.16226 3.8332 0
M  V30 14574 H 1374.06 -0.230852 0.699912 0
M  V30 14575 H 1376.7 0.0976276 1.89749 0
M  V30 14576 H 1374.85 -1.87481 3.40269 0
M  V30 14577 H 1376.53 0.448622 4.59113 0
M  V30 14578 H 1374.77 0.4909 4.31013 0
M  V30 14579 H 1375.44 -0.647626 5.48188 0
M  V30 14580 H 1377.92 -1.63413 3.82669 0
M  V30 14581 H 1376.79 -2.55705 4.85702 0
M  V30 14582 H 1377.05 -3.05722 3.19353 0
M  V30 14583 N 1376.11 -1.55841 -0.234795 0
M  V30 14584 C 1377.36 -1.78502 -0.96254 0
M  V30 14585 C 1377.69 -0.605832 -1.84508 0
M  V30 14586 O 1376.97 0.395446 -1.90438 0
M  V30 14587 C 1377.25 -3.11144 -1.81277 0
M  V30 14588 C 1377.1 -4.39488 -0.957607 0
M  V30 14589 C 1378.42 -3.40114 -2.79304 0
M  V30 14590 H 1375.54 -0.649397 -0.348501 0
M  V30 14591 H 1378.18 -1.88575 -0.23224 0
M  V30 14592 H 1376.33 -3.02687 -2.43542 0
M  V30 14593 H 1378 -4.59949 -0.352726 0
M  V30 14594 H 1376.25 -4.33005 -0.262454 0
M  V30 14595 H 1376.92 -5.28707 -1.58659 0
M  V30 14596 H 1379.39 -3.48612 -2.27175 0
M  V30 14597 H 1378.27 -4.34118 -3.35906 0
M  V30 14598 H 1378.53 -2.61623 -3.56378 0
M  V30 14599 N 1377.59 0.500963 -1.49426 0
M  V30 14600 C 1378.54 1.6025 -1.66098 0
M  V30 14601 C 1379.51 1.58318 -0.502453 0
M  V30 14602 O 1380.69 1.76304 -0.729482 0
M  V30 14603 C 1377.83 2.98396 -1.73361 0
M  V30 14604 C 1376.94 3.10343 -3.00518 0
M  V30 14605 C 1376.08 4.39222 -2.9876 0
M  V30 14606 C 1375.12 4.44803 -4.20496 0
M  V30 14607 N 1374.26 5.6511 -4.16648 0
M  V30 14608 H 1379.1 1.45342 -2.60153 0
M  V30 14609 H 1376.63 0.707147 -1.28988 0
M  V30 14610 H 1378.59 3.78467 -1.75553 0
M  V30 14611 H 1377.22 3.12007 -0.827718 0
M  V30 14612 H 1376.27 2.23336 -3.07937 0
M  V30 14613 H 1377.58 3.10327 -3.90511 0
M  V30 14614 H 1376.74 5.27613 -2.99515 0
M  V30 14615 H 1375.48 4.41804 -2.06545 0
M  V30 14616 H 1374.48 3.54814 -4.19985 0
M  V30 14617 H 1375.71 4.43937 -5.13903 0
M  V30 14618 H 1373.65 5.68533 -3.2727 0
M  V30 14619 H 1373.57 5.6671 -5.00376 0
M  V30 14620 H 1374.84 6.55708 -4.21506 0
M  V30 14621 N 1379.07 1.38501 0.752011 0
M  V30 14622 C 1380.34 1.25315 1.50185 0
M  V30 14623 C 1380.72 -0.144762 2.10603 0
M  V30 14624 O 1380.07 -1.15441 1.97194 0
M  V30 14625 C 1380.28 2.36451 2.56694 0
M  V30 14626 C 1381.63 2.74952 3.23553 0
M  V30 14627 O 1382.65 2.35774 2.67 0
M  V30 14628 O 1381.51 3.42517 4.25845 0
M  V30 14629 H 1378.61 0.490139 0.666103 0
M  V30 14630 H 1381.15 1.50333 0.787288 0
M  V30 14631 H 1379.93 3.29978 2.10309 0
M  V30 14632 H 1379.55 2.13006 3.35729 0
M  V30 14633 N 1380.55 -0.980364 1.23396 0
M  V30 14634 C 1381.79 -1.73674 1.07781 0
M  V30 14635 C 1382.15 -1.88227 -0.378759 0
M  V30 14636 O 1383.35 -2.6067 -0.656092 0
M  V30 14637 C 1381.62 -3.09727 1.78337 0
M  V30 14638 S 1383.18 -4.00944 1.78295 0
M  V30 14639 H 1380 -0.597273 0.385728 0
M  V30 14640 H 1382.6 -1.17123 1.56533 0
M  V30 14641 H 1381.3 -2.96786 2.83455 0
M  V30 14642 H 1380.84 -3.71346 1.29868 0
M  V30 14643 H 1382.85 -4.89011 0.841572 0
M  V30 14644 N 1382.02 -1.04567 -1.17913 0
M  V30 14645 C 1383.27 -0.753137 -1.88297 0
M  V30 14646 C 1383.6 0.717651 -1.80453 0
M  V30 14647 O 1382.88 1.5242 -1.20824 0
M  V30 14648 C 1383.16 -1.22626 -3.38578 0
M  V30 14649 C 1383.01 -2.75952 -3.55205 0
M  V30 14650 C 1384.33 -0.82029 -4.32388 0
M  V30 14651 H 1381.45 -0.275067 -0.683745 0
M  V30 14652 H 1384.09 -1.29856 -1.38699 0
M  V30 14653 H 1382.24 -0.762246 -3.80949 0
M  V30 14654 H 1383.92 -3.30429 -3.21892 0
M  V30 14655 H 1382.16 -3.15534 -2.97693 0
M  V30 14656 H 1382.83 -3.04116 -4.60671 0
M  V30 14657 H 1385.31 -1.21965 -3.97824 0
M  V30 14658 H 1384.18 -1.17902 -5.36088 0
M  V30 14659 H 1384.44 0.276205 -4.41236 0
M  V30 14660 N 1383.5 1.34231 -0.825823 0
M  V30 14661 C 1384.45 2.29467 -0.247724 0
M  V30 14662 C 1385.42 1.53724 0.629127 0
M  V30 14663 O 1386.6 1.82082 0.570156 0
M  V30 14664 C 1383.74 3.40157 0.582012 0
M  V30 14665 C 1382.86 4.30832 -0.317406 0
M  V30 14666 C 1381.99 5.28627 0.522176 0
M  V30 14667 C 1381.03 6.10941 -0.376448 0
M  V30 14668 N 1380.17 7.00817 0.424232 0
M  V30 14669 H 1385.01 2.78311 -1.06521 0
M  V30 14670 H 1382.54 1.36956 -0.536788 0
M  V30 14671 H 1384.5 4.03021 1.07843 0
M  V30 14672 H 1383.13 2.92539 1.36459 0
M  V30 14673 H 1382.18 3.68805 -0.932054 0
M  V30 14674 H 1383.5 4.88503 -1.00826 0
M  V30 14675 H 1382.65 5.96957 1.08295 0
M  V30 14676 H 1381.39 4.71501 1.24652 0
M  V30 14677 H 1380.39 5.41542 -0.94934 0
M  V30 14678 H 1381.62 6.70149 -1.09895 0
M  V30 14679 H 1379.57 6.46156 1.1322 0
M  V30 14680 H 1379.48 7.55713 -0.208175 0
M  V30 14681 H 1380.75 7.7347 0.967664 0
M  V30 14682 N 1384.98 0.581051 1.46498 0
M  V30 14683 C 1385.94 -0.142937 2.28754 0
M  V30 14684 C 1386.94 -0.820383 1.38298 0
M  V30 14685 O 1388.13 -0.672592 1.60692 0
M  V30 14686 C 1385.26 -1.21176 3.18637 0
M  V30 14687 H 1386.46 0.579918 2.9424 0
M  V30 14688 H 1384.01 0.338951 1.52581 0
M  V30 14689 H 1384.75 -1.96624 2.57894 0
M  V30 14690 H 1384.53 -0.730517 3.85235 0
M  V30 14691 H 1386.02 -1.71958 3.80552 0
M  V30 14692 N 1386.46 -1.54343 0.318742 0
M  V30 14693 C 1387.7 -2.0239 -0.285929 0
M  V30 14694 C 1388.06 -1.20197 -1.49722 0
M  V30 14695 O 1389.26 -1.58025 -2.17443 0
M  V30 14696 C 1387.53 -3.52044 -0.616446 0
M  V30 14697 S 1389.09 -4.22031 -1.20146 0
M  V30 14698 H 1385.91 -0.705685 -0.0867722 0
M  V30 14699 H 1388.51 -1.90233 0.450744 0
M  V30 14700 H 1387.22 -4.09489 0.273339 0
M  V30 14701 H 1386.75 -3.68272 -1.38344 0
M  V30 14702 H 1388.76 -4.29287 -2.48851 0
M  V30 14703 N 1387.94 -0.0468143 -1.5753 0
M  V30 14704 C 1388.87 0.927092 -2.14306 0
M  V30 14705 C 1389.85 1.32745 -1.06362 0
M  V30 14706 O 1391.03 1.40293 -1.34281 0
M  V30 14707 C 1388.16 2.20343 -2.68452 0
M  V30 14708 C 1387.12 1.94328 -3.81341 0
M  V30 14709 C 1386.44 3.28379 -4.21985 0
M  V30 14710 C 1387.74 1.26835 -5.06666 0
M  V30 14711 H 1389.44 0.454199 -2.95935 0
M  V30 14712 H 1386.98 0.217029 -1.42355 0
M  V30 14713 H 1388.93 2.8887 -3.0681 0
M  V30 14714 H 1387.66 2.6983 -1.84009 0
M  V30 14715 H 1386.32 1.28214 -3.43448 0
M  V30 14716 H 1385.97 3.75658 -3.34499 0
M  V30 14717 H 1385.67 3.11772 -4.98068 0
M  V30 14718 H 1387.19 3.98145 -4.6294 0
M  V30 14719 H 1388.6 1.85389 -5.42498 0
M  V30 14720 H 1387 1.20569 -5.87863 0
M  V30 14721 H 1388.07 0.243759 -4.84287 0
M  V30 14722 N 1389.41 1.55964 0.226527 0
M  V30 14723 C 1390.36 1.92857 1.30034 0
M  V30 14724 C 1391.36 0.810008 1.48779 0
M  V30 14725 O 1392.56 0.994801 1.50012 0
M  V30 14726 H 1388.94 0.612807 0.435857 0
M  V30 14727 H 1390.91 2.82469 0.96196 0
M  V30 14728 C 1389.66 2.25735 2.6446 0
M  V30 14729 H 1388.98 3.11317 2.50842 0
M  V30 14730 H 1390.42 2.55437 3.3842 0
M  V30 14731 C 1388.88 1.08074 3.19095 0
M  V30 14732 O 1389.41 0.339279 4.00265 0
M  V30 14733 N 1387.62 0.86589 2.774 0
M  V30 14734 H 1387.16 1.47055 2.11501 0
M  V30 14735 H 1387.12 0.0803566 3.14297 0
M  V30 14736 N 1390.89 -0.493031 1.4969 0
M  V30 14737 C 1392.12 -1.27517 1.63567 0
M  V30 14738 C 1392.54 -1.85526 0.310105 0
M  V30 14739 O 1391.9 -1.66246 -0.723314 0
M  V30 14740 C 1391.95 -2.37551 2.71296 0
M  V30 14741 O 1391.05 -3.41617 2.31023 0
M  V30 14742 H 1390.39 -0.376116 0.547205 0
M  V30 14743 H 1392.92 -0.589328 1.95929 0
M  V30 14744 H 1392.93 -2.83196 2.93708 0
M  V30 14745 H 1391.61 -1.94697 3.67513 0
M  V30 14746 H 1390.19 -3.01836 2.18974 0
M  V30 14747 N 1392.37 -1.38898 -0.744656 0
M  V30 14748 C 1393.6 -1.38848 -1.53391 0
M  V30 14749 C 1394.01 0.0194949 -1.8879 0
M  V30 14750 O 1393.37 0.988399 -1.53417 0
M  V30 14751 C 1393.42 -2.25243 -2.8275 0
M  V30 14752 O 1393.14 -3.60557 -2.48858 0
M  V30 14753 C 1394.64 -2.33471 -3.76837 0
M  V30 14754 H 1391.86 -0.4746 -0.474338 0
M  V30 14755 H 1394.41 -1.82591 -0.920902 0
M  V30 14756 H 1392.56 -1.84938 -3.40407 0
M  V30 14757 H 1392.98 -4.06142 -3.31887 0
M  V30 14758 H 1394.45 -2.9819 -4.64528 0
M  V30 14759 H 1394.93 -1.351 -4.17905 0
M  V30 14760 H 1395.53 -2.74205 -3.25103 0
M  V30 14761 N 1393.85 0.973806 -1.23914 0
M  V30 14762 C 1395.08 1.74853 -1.10046 0
M  V30 14763 C 1395.49 1.85927 0.350388 0
M  V30 14764 O 1394.83 1.34252 1.25388 0
M  V30 14765 C 1394.89 3.18919 -1.65924 0
M  V30 14766 C 1394.56 3.31335 -3.14748 0
M  V30 14767 C 1395.55 3.17141 -4.11968 0
M  V30 14768 C 1393.24 3.55772 -3.54587 0
M  V30 14769 C 1395.23 3.27199 -5.47009 0
M  V30 14770 C 1392.92 3.65468 -4.89771 0
M  V30 14771 C 1393.92 3.51193 -5.85792 0
M  V30 14772 O 1393.6 3.60534 -7.18519 0
M  V30 14773 H 1393.34 0.555345 -0.385445 0
M  V30 14774 H 1395.89 1.23168 -1.64374 0
M  V30 14775 H 1394.12 3.71882 -1.06023 0
M  V30 14776 H 1395.81 3.78177 -1.47434 0
M  V30 14777 H 1396.58 2.98153 -3.82531 0
M  V30 14778 H 1392.45 3.65951 -2.80358 0
M  V30 14779 H 1396 3.15974 -6.21937 0
M  V30 14780 H 1391.9 3.83969 -5.18882 0
M  V30 14781 H 1392.66 3.77288 -7.26358 0
M  V30 14782 N 1395.33 1.05191 1.17357 0
M  V30 14783 C 1396.24 0.663617 2.25018 0
M  V30 14784 C 1397.25 -0.315299 1.71119 0
M  V30 14785 O 1398.43 -0.167398 2.00703 0
M  V30 14786 C 1395.49 0.0443307 3.46672 0
M  V30 14787 C 1394.55 1.07369 4.15656 0
M  V30 14788 C 1393.79 0.483864 5.31502 0
M  V30 14789 O 1394.01 -0.706692 5.66005 0
M  V30 14790 O 1392.94 1.21812 5.89445 0
M  V30 14791 H 1396.77 1.56088 2.60519 0
M  V30 14792 H 1394.36 0.823474 1.24657 0
M  V30 14793 H 1396.24 -0.299839 4.20332 0
M  V30 14794 H 1394.91 -0.826579 3.12969 0
M  V30 14795 H 1393.82 1.46985 3.44015 0
M  V30 14796 H 1395.15 1.91575 4.53387 0
M  V30 14797 N 1396.8 -1.33791 0.83293 0
M  V30 14798 C 1398.03 -2.01894 0.43844 0
M  V30 14799 C 1398.44 -1.62844 -0.963247 0
M  V30 14800 O 1397.79 -0.834636 -1.63644 0
M  V30 14801 C 1397.85 -3.5638 0.472604 0
M  V30 14802 C 1397.51 -4.18788 1.82937 0
M  V30 14803 C 1398.51 -4.38588 2.79172 0
M  V30 14804 C 1396.19 -4.55342 2.12058 0
M  V30 14805 C 1398.19 -4.94081 4.02694 0
M  V30 14806 C 1395.87 -5.10544 3.35839 0
M  V30 14807 C 1396.87 -5.29859 4.30974 0
M  V30 14808 O 1396.56 -5.83889 5.52566 0
M  V30 14809 H 1396.29 -0.65348 0.173031 0
M  V30 14810 H 1398.85 -1.71827 1.12537 0
M  V30 14811 H 1397.08 -3.85749 -0.271074 0
M  V30 14812 H 1398.77 -4.05785 0.0967701 0
M  V30 14813 H 1399.53 -4.10701 2.57972 0
M  V30 14814 H 1395.41 -4.39607 1.38806 0
M  V30 14815 H 1398.95 -5.09072 4.7696 0
M  V30 14816 H 1394.85 -5.3786 3.56898 0
M  V30 14817 H 1395.62 -6.02311 5.54224 0
M  V30 14818 N 1398.28 -0.588812 -1.46187 0
M  V30 14819 C 1399.53 -0.0744093 -2.01563 0
M  V30 14820 C 1399.84 1.29578 -1.46523 0
M  V30 14821 O 1401.05 1.90186 -1.93756 0
M  V30 14822 C 1399.51 -0.082408 -3.59806 0
M  V30 14823 C 1399.11 -1.45129 -4.23842 0
M  V30 14824 C 1400.86 0.377732 -4.22816 0
M  V30 14825 C 1398.77 -1.41668 -5.74181 0
M  V30 14826 H 1397.7 -0.0240481 -0.753616 0
M  V30 14827 H 1400.35 -0.741364 -1.67857 0
M  V30 14828 H 1398.73 0.650832 -3.90615 0
M  V30 14829 H 1399.9 -2.20474 -4.04633 0
M  V30 14830 H 1398.22 -1.85196 -3.7295 0
M  V30 14831 H 1400.81 0.42251 -5.33028 0
M  V30 14832 H 1401.16 1.39655 -3.92176 0
M  V30 14833 H 1401.69 -0.301638 -3.96655 0
M  V30 14834 H 1398.43 -2.4125 -6.09491 0
M  V30 14835 H 1397.95 -0.705524 -5.95636 0
M  V30 14836 H 1399.63 -1.13221 -6.37016 0
M  V30 14837 N 1399.76 1.54172 -0.326923 0
M  V30 14838 C 1401.01 2.00629 0.274641 0
M  V30 14839 C 1401.34 1.21505 1.51878 0
M  V30 14840 O 1400.59 0.286164 1.93596 0
M  V30 14841 C 1400.89 3.51429 0.650553 0
M  V30 14842 C 1400.56 4.48177 -0.494792 0
M  V30 14843 C 1399.22 4.74348 -0.809153 0
M  V30 14844 C 1401.57 5.05641 -1.26398 0
M  V30 14845 C 1398.9 5.55241 -1.89536 0
M  V30 14846 C 1401.25 5.87718 -2.34031 0
M  V30 14847 C 1399.91 6.1219 -2.66045 0
M  V30 14848 H 1399.18 0.734153 0.100498 0
M  V30 14849 H 1401.83 1.86104 -0.451397 0
M  V30 14850 H 1400.14 3.63699 1.45706 0
M  V30 14851 H 1401.83 3.84819 1.12761 0
M  V30 14852 H 1398.42 4.27929 -0.239701 0
M  V30 14853 H 1402.61 4.85401 -1.03437 0
M  V30 14854 H 1397.86 5.72432 -2.14783 0
M  V30 14855 H 1402.04 6.31264 -2.94074 0
M  V30 14856 H 1399.66 6.7466 -3.5034 0
M  V30 14857 N 1401.24 0.0551678 1.57503 0
M  V30 14858 C 1402.19 -0.935665 2.12951 0
M  V30 14859 C 1403.18 -1.31954 1.06229 0
M  V30 14860 O 1404.39 -1.29873 1.24632 0
M  V30 14861 H 1400.76 -0.319618 0.680697 0
M  V30 14862 H 1402.73 -0.442937 2.95094 0
M  V30 14863 C 1401.48 -2.19977 2.69268 0
M  V30 14864 H 1400.8 -1.91319 3.51051 0
M  V30 14865 H 1402.24 -2.87456 3.11681 0
M  V30 14866 C 1400.7 -2.94714 1.63233 0
M  V30 14867 O 1401.23 -3.87803 1.04747 0
M  V30 14868 N 1399.44 -2.57518 1.34659 0
M  V30 14869 H 1398.99 -1.81894 1.82407 0
M  V30 14870 H 1398.94 -3.07829 0.639425 0
M  V30 14871 N 1402.72 -1.56081 -0.218252 0
M  V30 14872 C 1403.66 -1.93544 -1.2901 0
M  V30 14873 C 1404.66 -0.817886 -1.48348 0
M  V30 14874 O 1405.86 -1.00274 -1.49483 0
M  V30 14875 H 1402.24 -0.61511 -0.432601 0
M  V30 14876 H 1404.21 -2.82975 -0.946966 0
M  V30 14877 C 1402.96 -2.27134 -2.63259 0
M  V30 14878 H 1402.28 -3.12643 -2.49188 0
M  V30 14879 H 1403.72 -2.57228 -3.3706 0
M  V30 14880 C 1402.18 -1.09764 -3.18518 0
M  V30 14881 O 1402.71 -0.360501 -4.00079 0
M  V30 14882 N 1400.92 -0.880589 -2.76937 0
M  V30 14883 H 1400.46 -1.48175 -2.10718 0
M  V30 14884 H 1400.42 -0.0970234 -3.1425 0
M  V30 14885 N 1404.2 0.485086 -1.49949 0
M  V30 14886 C 1405.44 1.24816 -1.61865 0
M  V30 14887 C 1405.8 1.8955 -0.305741 0
M  V30 14888 O 1407 2.67118 -0.300216 0
M  V30 14889 C 1405.27 2.27464 -2.75672 0
M  V30 14890 S 1406.83 3.12898 -3.07637 0
M  V30 14891 H 1403.65 0.423964 -0.570767 0
M  V30 14892 H 1406.25 0.547552 -1.87676 0
M  V30 14893 H 1404.95 1.78464 -3.69566 0
M  V30 14894 H 1404.49 3.02172 -2.51904 0
M  V30 14895 H 1406.5 4.28395 -2.50384 0
M  V30 14896 N 1405.67 1.39291 0.737279 0
M  V30 14897 C 1406.62 1.34321 1.84233 0
M  V30 14898 C 1407.61 0.224489 1.59326 0
M  V30 14899 O 1408.8 0.461832 1.70869 0
M  V30 14900 C 1405.93 1.18676 3.22135 0
M  V30 14901 C 1405.01 2.35239 3.52878 0
M  V30 14902 N 1405.41 3.6071 3.54573 0
M  V30 14903 C 1403.7 2.28147 3.83229 0
M  V30 14904 C 1404.4 4.37778 3.83047 0
M  V30 14905 N 1403.38 3.67336 4.00706 0
M  V30 14906 H 1407.18 2.29299 1.83845 0
M  V30 14907 H 1404.7 1.32755 0.935413 0
M  V30 14908 H 1406.69 1.13199 4.01238 0
M  V30 14909 H 1405.35 0.246461 3.23763 0
M  V30 14910 H 1406.36 3.94164 3.3594 0
M  V30 14911 H 1403.04 1.42366 3.92477 0
M  V30 14912 H 1404.43 5.46525 3.90845 0
M  V30 14913 N 1407.15 -0.967221 1.24429 0
M  V30 14914 C 1408.43 -1.68564 0.992253 0
M  V30 14915 C 1408.81 -2.05446 -0.485301 0
M  V30 14916 O 1408.16 -1.75798 -1.45971 0
M  V30 14917 C 1408.37 -2.91728 1.91562 0
M  V30 14918 C 1409.71 -3.63957 2.18678 0
M  V30 14919 O 1410.74 -3.01786 1.89219 0
M  V30 14920 O 1409.6 -4.75875 2.68711 0
M  V30 14921 H 1406.69 -0.736939 0.375299 0
M  V30 14922 H 1409.24 -1.02127 1.35529 0
M  V30 14923 H 1408.01 -2.61168 2.91388 0
M  V30 14924 H 1407.63 -3.65898 1.55577 0
M  V30 14925 N 1408.63 -1.05812 -1.16797 0
M  V30 14926 C 1409.56 -0.685778 -2.23202 0
M  V30 14927 C 1410.54 0.319428 -1.67074 0
M  V30 14928 O 1411.73 0.195635 -1.93212 0
M  V30 14929 C 1408.86 -0.0662958 -3.47237 0
M  V30 14930 C 1407.81 -0.996943 -4.16227 0
M  V30 14931 C 1407.14 -0.241015 -5.34157 0
M  V30 14932 C 1408.44 -2.32384 -4.67755 0
M  V30 14933 H 1410.13 -1.57535 -2.54604 0
M  V30 14934 H 1407.68 -0.758909 -1.22379 0
M  V30 14935 H 1409.63 0.206024 -4.20896 0
M  V30 14936 H 1408.35 0.858263 -3.15121 0
M  V30 14937 H 1407.01 -1.25393 -3.44488 0
M  V30 14938 H 1406.66 0.686508 -4.98293 0
M  V30 14939 H 1406.36 -0.861188 -5.81255 0
M  V30 14940 H 1407.88 0.0238739 -6.10595 0
M  V30 14941 H 1409.3 -2.11099 -5.3302 0
M  V30 14942 H 1407.69 -2.89855 -5.25456 0
M  V30 14943 H 1408.76 -2.958 -3.84227 0
M  V30 14944 N 1410.11 1.33347 -0.840014 0
M  V30 14945 C 1411.34 2.01659 -0.449141 0
M  V30 14946 C 1411.75 1.63353 0.954597 0
M  V30 14947 O 1411.09 0.843303 1.632 0
M  V30 14948 C 1411.15 3.56124 -0.491497 0
M  V30 14949 C 1410.81 4.17812 -1.85155 0
M  V30 14950 C 1411.81 4.37101 -2.81494 0
M  V30 14951 C 1409.5 4.54211 -2.1447 0
M  V30 14952 C 1411.49 4.91938 -4.05309 0
M  V30 14953 C 1409.18 5.08756 -3.38542 0
M  V30 14954 C 1410.18 5.27566 -4.33778 0
M  V30 14955 O 1409.86 5.8095 -5.55655 0
M  V30 14956 H 1409.6 0.652553 -0.176494 0
M  V30 14957 H 1412.15 1.71228 -1.13447 0
M  V30 14958 H 1410.38 3.85887 0.250613 0
M  V30 14959 H 1412.07 4.05728 -0.118288 0
M  V30 14960 H 1412.83 4.09328 -2.60146 0
M  V30 14961 H 1408.71 4.38864 -1.41135 0
M  V30 14962 H 1412.26 5.06536 -4.79654 0
M  V30 14963 H 1408.15 5.3596 -3.59746 0
M  V30 14964 H 1408.92 5.99363 -5.5741 0
M  V30 14965 N 1411.59 0.596556 1.45873 0
M  V30 14966 C 1412.81 0.0916466 2.07197 0
M  V30 14967 C 1413.24 -1.21004 1.44012 0
M  V30 14968 O 1412.59 -1.73415 0.528844 0
M  V30 14969 C 1412.64 -0.0461457 3.6057 0
M  V30 14970 O 1411.75 -1.09919 3.97481 0
M  V30 14971 H 1411.09 0.0690655 0.660398 0
M  V30 14972 H 1413.62 0.823434 1.87299 0
M  V30 14973 H 1413.63 -0.2479 4.07246 0
M  V30 14974 H 1412.3 0.904381 4.05948 0
M  V30 14975 H 1410.88 -0.874788 3.62494 0
M  V30 14976 N 1413.06 -1.53996 0.335095 0
M  V30 14977 C 1414.01 -2.21479 -0.541388 0
M  V30 14978 C 1415 -1.19926 -1.07268 0
M  V30 14979 O 1416.19 -1.45508 -1.00779 0
M  V30 14980 C 1413.32 -2.98477 -1.69607 0
M  V30 14981 C 1412.4 -4.07379 -1.17912 0
M  V30 14982 N 1412.8 -5.0435 -0.382732 0
M  V30 14983 C 1411.09 -4.21537 -1.45679 0
M  V30 14984 C 1411.79 -5.81608 -0.103194 0
M  V30 14985 N 1410.77 -5.39171 -0.692513 0
M  V30 14986 H 1414.57 -2.93806 0.0742285 0
M  V30 14987 H 1412.09 -1.61782 0.141529 0
M  V30 14988 H 1414.08 -3.45316 -2.33587 0
M  V30 14989 H 1412.74 -2.27674 -2.31505 0
M  V30 14990 H 1413.75 -5.17894 -0.0245533 0
M  V30 14991 H 1410.43 -3.61953 -2.08078 0
M  V30 14992 H 1411.82 -6.69737 0.538682 0
M  V30 14993 N 1414.54 -0.0635198 -1.57472 0
M  V30 14994 C 1415.47 0.93602 -2.09216 0
M  V30 14995 C 1416.49 1.2668 -1.02255 0
M  V30 14996 O 1417.68 1.22543 -1.2979 0
M  V30 14997 C 1414.78 2.25417 -2.53062 0
M  V30 14998 C 1413.95 2.10347 -3.83501 0
M  V30 14999 C 1413.01 3.25394 -4.13528 0
M  V30 15000 O 1412.03 3.00751 -4.83257 0
M  V30 15001 N 1413.24 4.50243 -3.66417 0
M  V30 15002 H 1416 0.494288 -2.95596 0
M  V30 15003 H 1413.56 0.122416 -1.61437 0
M  V30 15004 H 1415.55 3.01272 -2.70217 0
M  V30 15005 H 1414.12 2.61116 -1.71864 0
M  V30 15006 H 1413.34 1.19009 -3.75807 0
M  V30 15007 H 1414.63 1.97519 -4.68896 0
M  V30 15008 H 1414.03 4.73152 -3.1007 0
M  V30 15009 H 1412.59 5.23152 -3.88787 0
M  V30 15010 N 1416.02 1.56195 0.209972 0
M  V30 15011 C 1417.25 1.83574 0.947852 0
M  V30 15012 C 1417.66 0.641947 1.77977 0
M  V30 15013 O 1417 -0.398794 1.79319 0
M  V30 15014 C 1417.06 3.0485 1.90543 0
M  V30 15015 C 1416.73 4.39375 1.25692 0
M  V30 15016 C 1417.72 5.15932 0.641107 0
M  V30 15017 C 1415.41 4.86104 1.26522 0
M  V30 15018 C 1417.4 6.37386 0.0422484 0
M  V30 15019 C 1415.09 6.07498 0.662523 0
M  V30 15020 C 1416.09 6.8298 0.0521007 0
M  V30 15021 O 1415.78 8.02076 -0.541192 0
M  V30 15022 H 1415.51 0.614001 0.282805 0
M  V30 15023 H 1418.06 2.04144 0.226767 0
M  V30 15024 H 1416.29 2.80127 2.66582 0
M  V30 15025 H 1417.98 3.19001 2.50984 0
M  V30 15026 H 1418.75 4.80931 0.626938 0
M  V30 15027 H 1414.63 4.27318 1.72974 0
M  V30 15028 H 1418.17 6.96244 -0.434823 0
M  V30 15029 H 1414.07 6.4197 0.674144 0
M  V30 15030 H 1414.83 8.17335 -0.43664 0
M  V30 15031 N 1417.5 -0.477127 1.50204 0
M  V30 15032 C 1418.43 -1.59319 1.64773 0
M  V30 15033 C 1419.44 -1.53951 0.529427 0
M  V30 15034 O 1420.63 -1.59449 0.802388 0
M  V30 15035 C 1417.73 -2.98185 1.61055 0
M  V30 15036 C 1416.9 -3.28486 2.88817 0
M  V30 15037 C 1415.96 -4.46878 2.77825 0
M  V30 15038 O 1414.99 -4.47483 3.51778 0
M  V30 15039 N 1416.19 -5.48187 1.90974 0
M  V30 15040 H 1418.96 -1.4724 2.61037 0
M  V30 15041 H 1416.52 -0.66544 1.47592 0
M  V30 15042 H 1418.51 -3.75345 1.51323 0
M  V30 15043 H 1417.08 -3.04064 0.725509 0
M  V30 15044 H 1416.3 -2.39997 3.12722 0
M  V30 15045 H 1417.59 -3.4554 3.7347 0
M  V30 15046 H 1416.99 -5.50515 1.30192 0
M  V30 15047 H 1415.54 -6.24355 1.87148 0
M  V30 15048 N 1418.98 -1.3968 -0.729882 0
M  V30 15049 C 1419.91 -1.41549 -1.85704 0
M  V30 15050 C 1420.89 -0.278186 -1.6781 0
M  V30 15051 O 1422.07 -0.484749 -1.88053 0
M  V30 15052 C 1419.2 -1.26327 -3.2351 0
M  V30 15053 C 1418.16 -2.37511 -3.56051 0
M  V30 15054 C 1417.48 -2.07375 -4.92849 0
M  V30 15055 C 1418.78 -3.79833 -3.58502 0
M  V30 15056 H 1420.48 -2.35877 -1.84398 0
M  V30 15057 H 1418.02 -1.13536 -0.885747 0
M  V30 15058 H 1419.98 -1.26254 -4.02042 0
M  V30 15059 H 1418.7 -0.284697 -3.25357 0
M  V30 15060 H 1417.36 -2.36809 -2.79852 0
M  V30 15061 H 1417.01 -1.07943 -4.91281 0
M  V30 15062 H 1416.71 -2.81855 -5.15588 0
M  V30 15063 H 1418.23 -2.08961 -5.73731 0
M  V30 15064 H 1419.64 -3.82436 -4.27101 0
M  V30 15065 H 1418.04 -4.53715 -3.92763 0
M  V30 15066 H 1419.11 -4.10443 -2.58195 0
M  V30 15067 N 1420.45 0.960609 -1.2494 0
M  V30 15068 C 1421.39 2.05948 -1.00588 0
M  V30 15069 C 1422.4 1.62777 0.0271261 0
M  V30 15070 O 1423.59 1.77252 -0.210739 0
M  V30 15071 C 1420.69 3.35228 -0.497521 0
M  V30 15072 C 1419.86 4.0727 -1.59531 0
M  V30 15073 C 1418.92 5.14822 -1.08836 0
M  V30 15074 O 1417.95 5.40602 -1.78153 0
M  V30 15075 N 1419.15 5.80453 0.0735067 0
M  V30 15076 H 1421.91 2.27411 -1.95204 0
M  V30 15077 H 1419.47 1.12874 -1.16065 0
M  V30 15078 H 1421.47 4.04447 -0.142979 0
M  V30 15079 H 1420.04 3.10583 0.354546 0
M  V30 15080 H 1419.26 3.32231 -2.12171 0
M  V30 15081 H 1420.54 4.52161 -2.33299 0
M  V30 15082 H 1419.94 5.6192 0.652848 0
M  V30 15083 H 1418.5 6.50754 0.369132 0
M  V30 15084 N 1421.93 1.0643 1.16234 0
M  V30 15085 C 1422.84 0.687446 2.24302 0
M  V30 15086 C 1423.86 -0.297132 1.71444 0
M  V30 15087 O 1425.03 -0.146101 2.00869 0
M  V30 15088 C 1422.1 0.0810973 3.46605 0
M  V30 15089 C 1421.16 1.11772 4.14494 0
M  V30 15090 C 1420.39 0.54021 5.30959 0
M  V30 15091 O 1420.62 -0.646619 5.66723 0
M  V30 15092 O 1419.55 1.28057 5.8812 0
M  V30 15093 H 1423.38 1.58842 2.58849 0
M  V30 15094 H 1420.96 0.836649 1.23776 0
M  V30 15095 H 1422.84 -0.25524 4.20626 0
M  V30 15096 H 1421.52 -0.793338 3.13828 0
M  V30 15097 H 1420.43 1.50626 3.42436 0
M  V30 15098 H 1421.76 1.96373 4.5133 0
M  V30 15099 N 1423.41 -1.329 0.847073 0
M  V30 15100 C 1424.34 -2.27903 0.243522 0
M  V30 15101 C 1425.36 -1.52101 -0.58043 0
M  V30 15102 O 1426.54 -1.73818 -0.406158 0
M  V30 15103 C 1423.64 -3.32107 -0.675118 0
M  V30 15104 C 1422.82 -4.37258 0.111305 0
M  V30 15105 C 1421.88 -5.21085 -0.731933 0
M  V30 15106 O 1420.9 -5.68951 -0.168176 0
M  V30 15107 N 1422.1 -5.43175 -2.04794 0
M  V30 15108 H 1424.87 -2.80335 1.05983 0
M  V30 15109 H 1422.43 -1.4568 0.706322 0
M  V30 15110 H 1424.42 -3.85093 -1.2444 0
M  V30 15111 H 1422.99 -2.79891 -1.39212 0
M  V30 15112 H 1422.21 -3.8466 0.861991 0
M  V30 15113 H 1423.5 -5.04608 0.651756 0
M  V30 15114 H 1422.9 -5.06002 -2.5294 0
M  V30 15115 H 1421.46 -5.99186 -2.56552 0
M  V30 15116 N 1424.89 -0.604284 -1.45555 0
M  V30 15117 C 1426.3 -0.183613 -1.85795 0
M  V30 15118 C 1426.65 1.25869 -1.50504 0
M  V30 15119 O 1425.78 1.9539 -0.930148 0
M  V30 15120 C 1426.37 -0.326455 -3.37224 0
M  V30 15121 C 1424.93 0.0394987 -3.76379 0
M  V30 15122 C 1424.08 -0.65243 -2.69516 0
M  V30 15123 H 1427.03 -0.811173 -1.36403 0
M  V30 15124 H 1427.05 0.442258 -3.77921 0
M  V30 15125 H 1426.56 -1.37627 -3.62878 0
M  V30 15126 H 1424.66 1.08862 -3.56342 0
M  V30 15127 H 1424.77 -0.35185 -4.77806 0
M  V30 15128 H 1423.14 -0.0904148 -2.54539 0
M  V30 15129 H 1423.92 -1.70432 -2.98007 0
M  V30 15130 N 1426.37 1.53816 -0.343257 0
M  V30 15131 C 1427.3 2.27951 0.506005 0
M  V30 15132 C 1428.28 1.29502 1.10287 0
M  V30 15133 O 1429.46 1.58344 1.12432 0
M  V30 15134 C 1426.59 3.0521 1.65723 0
M  V30 15135 C 1425.55 4.11161 1.18871 0
M  V30 15136 C 1424.87 4.76373 2.42843 0
M  V30 15137 C 1426.17 5.21498 0.289403 0
M  V30 15138 H 1427.87 2.99189 -0.112435 0
M  V30 15139 H 1425.41 1.43893 -0.055516 0
M  V30 15140 H 1427.37 3.55811 2.2578 0
M  V30 15141 H 1426.09 2.31624 2.30256 0
M  V30 15142 H 1424.75 3.61473 0.610962 0
M  V30 15143 H 1424.4 3.99381 3.05784 0
M  V30 15144 H 1424.1 5.47955 2.12177 0
M  V30 15145 H 1425.62 5.29758 3.03627 0
M  V30 15146 H 1427.03 5.67736 0.796808 0
M  V30 15147 H 1425.43 6.00054 0.0746366 0
M  V30 15148 H 1426.5 4.80185 -0.674543 0
M  V30 15149 N 1427.84 0.0718701 1.57436 0
M  V30 15150 C 1428.75 -0.910077 2.16229 0
M  V30 15151 C 1429.77 -1.32699 1.12548 0
M  V30 15152 O 1430.95 -1.39967 1.44814 0
M  V30 15153 C 1428.01 -2.15942 2.71238 0
M  V30 15154 C 1427.07 -1.79891 3.89792 0
M  V30 15155 C 1426.31 -2.9887 4.42168 0
M  V30 15156 O 1426.53 -4.1289 3.93545 0
M  V30 15157 O 1425.46 -2.78682 5.33498 0
M  V30 15158 H 1429.29 -0.439969 3.00496 0
M  V30 15159 H 1426.87 -0.151204 1.48633 0
M  V30 15160 H 1428.76 -2.89204 3.06494 0
M  V30 15161 H 1427.43 -2.62051 1.90029 0
M  V30 15162 H 1426.34 -1.03881 3.59388 0
M  V30 15163 H 1427.67 -1.38566 4.72293 0
M  V30 15164 N 1429.32 -1.56304 -0.201686 0
M  V30 15165 C 1430.23 -1.97215 -1.27057 0
M  V30 15166 C 1431.25 -0.878834 -1.50175 0
M  V30 15167 O 1432.42 -1.18405 -1.62918 0
M  V30 15168 C 1429.49 -2.29772 -2.59626 0
M  V30 15169 C 1428.55 -3.52776 -2.44637 0
M  V30 15170 C 1427.78 -3.83771 -3.70885 0
M  V30 15171 O 1428.01 -3.16149 -4.7477 0
M  V30 15172 O 1426.94 -4.77216 -3.66808 0
M  V30 15173 H 1430.77 -2.88347 -0.953393 0
M  V30 15174 H 1428.35 -1.43773 -0.406158 0
M  V30 15175 H 1430.23 -2.51817 -3.37885 0
M  V30 15176 H 1428.91 -1.41809 -2.90984 0
M  V30 15177 H 1427.82 -3.35986 -1.64512 0
M  V30 15178 H 1429.15 -4.41184 -2.18214 0
M  V30 15179 N 1430.8 0.469154 -1.50455 0
M  V30 15180 C 1432.21 1.04997 -1.54378 0
M  V30 15181 C 1432.56 1.93082 -0.348414 0
M  V30 15182 O 1431.69 2.09594 0.538469 0
M  V30 15183 C 1432.28 1.91096 -2.79764 0
M  V30 15184 C 1430.84 2.44283 -2.86361 0
M  V30 15185 C 1429.99 1.22676 -2.48688 0
M  V30 15186 H 1432.94 0.251692 -1.56691 0
M  V30 15187 H 1432.96 2.76186 -2.61728 0
M  V30 15188 H 1432.47 1.26961 -3.66746 0
M  V30 15189 H 1430.57 3.11966 -2.03735 0
M  V30 15190 H 1430.69 2.79258 -3.89297 0
M  V30 15191 H 1429.05 1.56215 -2.01169 0
M  V30 15192 H 1429.83 0.602002 -3.37981 0
M  V30 15193 N 1432.28 1.40065 0.722464 0
M  V30 15194 C 1433.53 1.37698 1.47932 0
M  V30 15195 C 1433.85 -0.0222608 1.94987 0
M  V30 15196 O 1433.12 -0.975795 1.69868 0
M  V30 15197 H 1431.7 0.506766 0.548815 0
M  V30 15198 H 1434.36 1.75053 0.856884 0
M  V30 15199 H 1433.46 2.04756 2.35545 0
M  V30 15200 N 1433.76 -0.95397 1.25448 0
M  V30 15201 C 1435.17 -1.51337 1.09335 0
M  V30 15202 C 1435.52 -1.93393 -0.330698 0
M  V30 15203 O 1434.64 -1.78681 -1.22074 0
M  V30 15204 C 1435.24 -2.75024 1.97857 0
M  V30 15205 C 1433.8 -3.27274 1.85927 0
M  V30 15206 C 1432.95 -2.00108 1.91969 0
M  V30 15207 H 1435.9 -0.770795 1.38724 0
M  V30 15208 H 1435.92 -3.48867 1.51894 0
M  V30 15209 H 1435.43 -2.44383 3.01494 0
M  V30 15210 H 1433.53 -3.62734 0.851767 0
M  V30 15211 H 1433.64 -3.95245 2.70773 0
M  V30 15212 H 1432.01 -2.15438 1.35862 0
M  V30 15213 H 1432.79 -1.71816 2.97211 0
M  V30 15214 N 1435.24 -1.07045 -1.15668 0
M  V30 15215 C 1436.46 -0.812802 -1.9081 0
M  V30 15216 C 1436.89 0.627827 -1.77313 0
M  V30 15217 O 1436.24 1.43836 -1.10368 0
M  V30 15218 C 1436.29 -1.2219 -3.39267 0
M  V30 15219 O 1435.4 -0.365305 -4.10779 0
M  V30 15220 H 1434.74 -0.296385 -0.594182 0
M  V30 15221 H 1437.27 -1.42825 -1.465 0
M  V30 15222 H 1437.28 -1.19674 -3.90054 0
M  V30 15223 H 1435.95 -2.27121 -3.48409 0
M  V30 15224 H 1434.53 -0.452687 -3.70142 0
M  V30 15225 N 1436.71 1.32449 -0.85411 0
M  V30 15226 C 1437.96 1.96537 -0.453451 0
M  V30 15227 C 1438.28 1.68344 0.995982 0
M  V30 15228 O 1439.48 2.26166 1.50204 0
M  V30 15229 C 1437.94 3.51785 -0.759934 0
M  V30 15230 C 1437.55 3.88838 -2.22506 0
M  V30 15231 C 1439.29 4.22347 -0.426973 0
M  V30 15232 C 1437.2 5.37129 -2.47479 0
M  V30 15233 H 1436.13 0.735537 -0.165835 0
M  V30 15234 H 1438.78 1.50851 -1.04481 0
M  V30 15235 H 1437.16 3.95879 -0.0980116 0
M  V30 15236 H 1438.33 3.55756 -2.92873 0
M  V30 15237 H 1436.65 3.31299 -2.52249 0
M  V30 15238 H 1439.25 5.31424 -0.590986 0
M  V30 15239 H 1439.59 4.11485 0.631359 0
M  V30 15240 H 1440.12 3.83835 -1.04477 0
M  V30 15241 H 1436.86 5.53012 -3.51935 0
M  V30 15242 H 1436.38 5.71619 -1.8169 0
M  V30 15243 H 1438.06 6.04204 -2.31401 0
M  V30 15244 N 1438.19 0.611994 1.45232 0
M  V30 15245 C 1439.61 0.276005 1.57195 0
M  V30 15246 C 1439.81 -1.22136 1.60266 0
M  V30 15247 O 1438.86 -2.00459 1.53533 0
M  V30 15248 C 1440.18 0.951064 2.85263 0
M  V30 15249 C 1441.72 0.927398 2.98945 0
M  V30 15250 C 1442.2 1.58255 4.2979 0
M  V30 15251 N 1443.69 1.54825 4.36559 0
M  V30 15252 C 1444.43 2.02428 5.3648 0
M  V30 15253 N 1443.92 2.58137 6.42913 0
M  V30 15254 N 1445.71 1.9317 5.27865 0
M  V30 15255 H 1437.87 1.58418 1.41483 0
M  V30 15256 H 1440.13 0.663879 0.676734 0
M  V30 15257 H 1439.83 2.00557 2.88912 0
M  V30 15258 H 1439.71 0.477044 3.74171 0
M  V30 15259 H 1442.1 -0.118571 2.94862 0
M  V30 15260 H 1442.18 1.43973 2.11437 0
M  V30 15261 H 1441.82 2.62787 4.34632 0
M  V30 15262 H 1441.75 1.04521 5.16123 0
M  V30 15263 H 1444.24 1.14133 3.60253 0
M  V30 15264 H 1444.55 2.92243 7.15412 0
M  V30 15265 H 1442.9 2.62179 6.43652 0
M  V30 15266 H 1446.09 1.49384 4.43624 0
M  V30 15267 H 1446.26 2.30582 6.05587 0
M  V30 15268 N 1439.67 -1.53632 0.351409 0
M  V30 15269 C 1440.62 -2.26782 -0.516983 0
M  V30 15270 C 1441.61 -1.29222 -1.09536 0
M  V30 15271 O 1442.82 -1.46901 -1.04019 0
M  V30 15272 H 1439.19 -0.728783 -0.185417 0
M  V30 15273 H 1441.16 -2.98151 0.121909 0
M  V30 15274 C 1439.91 -3.05943 -1.6521 0
M  V30 15275 H 1439.24 -3.80848 -1.21633 0
M  V30 15276 H 1440.68 -3.60328 -2.23472 0
M  V30 15277 C 1439.13 -2.15917 -2.58614 0
M  V30 15278 O 1439.66 -1.76049 -3.61067 0
M  V30 15279 N 1437.87 -1.80837 -2.27478 0
M  V30 15280 H 1437.42 -2.13456 -1.44202 0
M  V30 15281 H 1437.38 -1.20886 -2.90231 0
M  V30 15282 N 1441.15 -0.0802183 -1.57396 0
M  V30 15283 C 1442.08 0.881426 -2.16225 0
M  V30 15284 C 1443.06 1.30459 -1.09154 0
M  V30 15285 O 1444.24 1.37413 -1.37227 0
M  V30 15286 C 1441.37 2.14599 -2.73065 0
M  V30 15287 C 1440.33 1.86195 -3.85377 0
M  V30 15288 C 1439.65 3.19354 -4.28856 0
M  V30 15289 C 1440.95 1.16059 -5.09242 0
M  V30 15290 H 1442.65 0.391325 -2.96832 0
M  V30 15291 H 1440.19 0.186785 -1.42783 0
M  V30 15292 H 1442.15 2.82297 -3.12868 0
M  V30 15293 H 1440.87 2.65866 -1.89691 0
M  V30 15294 H 1439.53 1.209 -3.46091 0
M  V30 15295 H 1439.18 3.68479 -3.42392 0
M  V30 15296 H 1438.88 3.01137 -5.04569 0
M  V30 15297 H 1440.4 3.88235 -4.71281 0
M  V30 15298 H 1441.82 1.7384 -5.46308 0
M  V30 15299 H 1440.21 1.08072 -5.90288 0
M  V30 15300 H 1441.28 0.14098 -4.84695 0
M  V30 15301 N 1442.63 1.56409 0.193394 0
M  V30 15302 C 1443.9 1.71559 0.93951 0
M  V30 15303 C 1444.28 0.635478 2.01308 0
M  V30 15304 O 1443.63 -0.353267 2.25753 0
M  V30 15305 C 1443.84 3.13948 1.52438 0
M  V30 15306 C 1445.19 3.74234 2.00585 0
M  V30 15307 O 1446.21 3.17088 1.62277 0
M  V30 15308 O 1445.07 4.74529 2.71081 0
M  V30 15309 H 1442.17 0.69979 0.440707 0
M  V30 15310 H 1444.71 1.68711 0.182957 0
M  V30 15311 H 1443.48 3.84033 0.750613 0
M  V30 15312 H 1443.11 3.21032 2.34572 0
M  V30 15313 N 1444.1 -0.461169 1.50702 0
M  V30 15314 C 1445.35 -1.21251 1.62186 0
M  V30 15315 C 1445.68 -1.91735 0.326818 0
M  V30 15316 O 1444.93 -1.83212 -0.687879 0
M  V30 15317 C 1445.23 -2.27213 2.75879 0
M  V30 15318 C 1444.9 -1.73912 4.16011 0
M  V30 15319 C 1443.56 -1.59097 4.54138 0
M  V30 15320 C 1445.91 -1.34477 5.03553 0
M  V30 15321 C 1443.24 -1.03285 5.77537 0
M  V30 15322 C 1445.59 -0.801027 6.27508 0
M  V30 15323 C 1444.26 -0.639586 6.64429 0
M  V30 15324 H 1443.53 -0.443689 0.593482 0
M  V30 15325 H 1446.17 -0.507035 1.84666 0
M  V30 15326 H 1444.48 -3.03707 2.47526 0
M  V30 15327 H 1446.18 -2.85124 2.81967 0
M  V30 15328 H 1442.77 -1.86413 3.85938 0
M  V30 15329 H 1446.95 -1.44753 4.74721 0
M  V30 15330 H 1442.21 -0.895316 6.04809 0
M  V30 15331 H 1446.38 -0.486842 6.94696 0
M  V30 15332 H 1444.01 -0.204966 7.59924 0
M  V30 15333 N 1445.58 -1.40446 -0.715026 0
M  V30 15334 C 1446.83 -1.39962 -1.47587 0
M  V30 15335 C 1447.18 -0.00170702 -1.924 0
M  V30 15336 O 1446.48 0.968788 -1.65303 0
M  V30 15337 C 1446.67 -2.32392 -2.7153 0
M  V30 15338 C 1446.5 -3.81032 -2.3884 0
M  V30 15339 C 1445.27 -4.49842 -2.30153 0
M  V30 15340 C 1447.47 -4.7251 -2.03073 0
M  V30 15341 N 1445.45 -5.83711 -1.90143 0
M  V30 15342 C 1446.82 -5.9518 -1.73668 0
M  V30 15343 C 1448.87 -4.6034 -1.89714 0
M  V30 15344 C 1447.58 -7.07038 -1.32248 0
M  V30 15345 C 1449.6 -5.7214 -1.49698 0
M  V30 15346 C 1448.97 -6.93896 -1.21191 0
M  V30 15347 H 1445.06 -0.567409 -0.538118 0
M  V30 15348 H 1447.65 -1.76163 -0.829144 0
M  V30 15349 H 1445.82 -1.98319 -3.33953 0
M  V30 15350 H 1447.55 -2.22762 -3.37875 0
M  V30 15351 H 1444.31 -4.0353 -2.47912 0
M  V30 15352 H 1444.73 -6.54608 -1.72675 0
M  V30 15353 H 1449.37 -3.66723 -2.10414 0
M  V30 15354 H 1447.09 -8.00538 -1.10291 0
M  V30 15355 H 1450.68 -5.6472 -1.39939 0
M  V30 15356 H 1449.56 -7.78938 -0.906925 0
M  V30 15357 N 1447.06 0.947303 -1.25952 0
M  V30 15358 C 1448.47 1.50755 -1.10136 0
M  V30 15359 C 1448.82 1.93566 0.320437 0
M  V30 15360 O 1447.95 1.79326 1.21125 0
M  V30 15361 C 1448.54 2.7397 -1.99313 0
M  V30 15362 C 1447.1 3.26283 -1.8766 0
M  V30 15363 C 1446.25 1.99088 -1.93027 0
M  V30 15364 H 1449.2 0.763427 -1.39131 0
M  V30 15365 H 1449.22 3.48057 -1.53742 0
M  V30 15366 H 1448.73 2.42781 -3.02785 0
M  V30 15367 H 1446.83 3.62277 -0.870992 0
M  V30 15368 H 1446.95 3.93803 -2.72866 0
M  V30 15369 H 1445.31 2.14714 -1.37003 0
M  V30 15370 H 1446.09 1.70237 -2.98118 0
M  V30 15371 N 1448.54 1.07657 1.15099 0
M  V30 15372 C 1449.49 0.699678 2.19939 0
M  V30 15373 C 1450.46 -0.310432 1.63173 0
M  V30 15374 O 1451.64 -0.196177 1.89789 0
M  V30 15375 C 1448.78 0.106963 3.44934 0
M  V30 15376 C 1447.89 1.16892 4.15885 0
M  V30 15377 C 1447.03 0.540884 5.28439 0
M  V30 15378 C 1446.07 1.58542 5.91211 0
M  V30 15379 N 1445.2 0.979731 6.95231 0
M  V30 15380 H 1450.04 1.59805 2.51528 0
M  V30 15381 H 1447.58 0.798746 1.23525 0
M  V30 15382 H 1449.54 -0.254335 4.16424 0
M  V30 15383 H 1448.17 -0.754756 3.13852 0
M  V30 15384 H 1447.22 1.64775 3.4286 0
M  V30 15385 H 1448.53 1.96078 4.58645 0
M  V30 15386 H 1447.69 0.127397 6.06566 0
M  V30 15387 H 1446.43 -0.282708 4.8688 0
M  V30 15388 H 1445.43 2.00865 5.11794 0
M  V30 15389 H 1446.66 2.41135 6.34847 0
M  V30 15390 H 1444.6 0.177098 6.55761 0
M  V30 15391 H 1444.52 1.70878 7.36435 0
M  V30 15392 H 1445.79 0.591849 7.7725 0
M  V30 15393 N 1450.02 -1.31994 0.861122 0
M  V30 15394 C 1450.95 -2.31214 0.325963 0
M  V30 15395 C 1451.93 -1.59965 -0.578383 0
M  V30 15396 O 1453.11 -1.87726 -0.497268 0
M  V30 15397 C 1450.24 -3.43953 -0.481001 0
M  V30 15398 C 1449.2 -4.2673 0.329474 0
M  V30 15399 C 1448.52 -5.31293 -0.602627 0
M  V30 15400 C 1449.82 -4.98498 1.55874 0
M  V30 15401 H 1451.52 -2.76223 1.15503 0
M  V30 15402 H 1449.06 -1.32797 0.556856 0
M  V30 15403 H 1451.02 -4.12409 -0.86585 0
M  V30 15404 H 1449.74 -2.97687 -1.3435 0
M  V30 15405 H 1448.4 -3.59929 0.696159 0
M  V30 15406 H 1448.05 -4.8128 -1.46215 0
M  V30 15407 H 1447.75 -5.87565 -0.0643044 0
M  V30 15408 H 1449.27 -6.02611 -0.984512 0
M  V30 15409 H 1450.68 -5.596 1.24583 0
M  V30 15410 H 1449.08 -5.64525 2.03548 0
M  V30 15411 H 1450.15 -4.25991 2.31646 0
M  V30 15412 N 1451.49 -0.619688 -1.44906 0
M  V30 15413 C 1452.74 -0.117147 -2.0136 0
M  V30 15414 C 1453.06 1.2644 -1.49239 0
M  V30 15415 O 1454.26 1.86034 -1.97747 0
M  V30 15416 C 1452.72 -0.15871 -3.5955 0
M  V30 15417 C 1452.33 -1.54086 -4.20668 0
M  V30 15418 C 1454.07 0.287961 -4.23522 0
M  V30 15419 C 1451.98 -1.53816 -5.71047 0
M  V30 15420 H 1450.91 -0.040028 -0.752937 0
M  V30 15421 H 1453.56 -0.776802 -1.66247 0
M  V30 15422 H 1451.94 0.56783 -3.91908 0
M  V30 15423 H 1453.11 -2.29007 -3.99865 0
M  V30 15424 H 1451.43 -1.93065 -3.68938 0
M  V30 15425 H 1454.03 0.309351 -5.33804 0
M  V30 15426 H 1454.37 1.31305 -3.9505 0
M  V30 15427 H 1454.9 -0.385707 -3.95926 0
M  V30 15428 H 1451.64 -2.54124 -6.04236 0
M  V30 15429 H 1451.16 -0.831708 -5.94006 0
M  V30 15430 H 1452.84 -1.26708 -6.34472 0
M  V30 15431 N 1452.97 1.53444 -0.359552 0
M  V30 15432 C 1454.2 2.05584 0.232953 0
M  V30 15433 C 1454.62 1.23347 1.42937 0
M  V30 15434 O 1453.97 0.272662 1.80452 0
M  V30 15435 C 1454.02 3.55926 0.632359 0
M  V30 15436 O 1453.74 4.35045 -0.516494 0
M  V30 15437 C 1455.25 4.24301 1.28389 0
M  V30 15438 H 1452.47 0.669676 0.042132 0
M  V30 15439 H 1455.01 1.97878 -0.516176 0
M  V30 15440 H 1453.16 3.63802 1.33141 0
M  V30 15441 H 1453.58 5.24138 -0.194906 0
M  V30 15442 H 1455.05 5.30832 1.51397 0
M  V30 15443 H 1455.53 3.77644 2.24236 0
M  V30 15444 H 1456.14 4.20661 0.626438 0
M  V30 15445 N 1454.45 0.0885642 1.57351 0
M  V30 15446 C 1455.38 -0.869946 2.16689 0
M  V30 15447 C 1456.36 -1.29878 1.09844 0
M  V30 15448 O 1457.55 -1.36684 1.37954 0
M  V30 15449 C 1454.68 -2.13148 2.74199 0
M  V30 15450 C 1453.63 -1.84149 3.86359 0
M  V30 15451 C 1452.96 -3.17075 4.30543 0
M  V30 15452 C 1454.26 -1.13357 5.09851 0
M  V30 15453 H 1455.95 -0.375578 2.97035 0
M  V30 15454 H 1453.5 -0.17921 1.42881 0
M  V30 15455 H 1455.45 -2.80634 3.14361 0
M  V30 15456 H 1454.17 -2.64856 1.91098 0
M  V30 15457 H 1452.83 -1.19063 3.46727 0
M  V30 15458 H 1452.48 -3.66658 3.44342 0
M  V30 15459 H 1452.18 -2.98457 5.06159 0
M  V30 15460 H 1453.7 -3.85731 4.73333 0
M  V30 15461 H 1455.12 -1.70941 5.47222 0
M  V30 15462 H 1453.52 -1.0494 5.90853 0
M  V30 15463 H 1454.59 -0.115273 4.84763 0
M  V30 15464 N 1455.93 -1.56509 -0.185096 0
M  V30 15465 C 1457.18 -1.804 -0.902158 0
M  V30 15466 C 1457.49 -0.663496 -1.84003 0
M  V30 15467 O 1458.7 -0.786963 -2.59844 0
M  V30 15468 C 1457.15 -3.19608 -1.65466 0
M  V30 15469 C 1456.76 -4.41487 -0.761109 0
M  V30 15470 C 1458.5 -3.52801 -2.36076 0
M  V30 15471 C 1456.41 -5.71717 -1.51305 0
M  V30 15472 H 1455.34 -0.67268 -0.340614 0
M  V30 15473 H 1457.99 -1.82842 -0.155273 0
M  V30 15474 H 1456.37 -3.11443 -2.44579 0
M  V30 15475 H 1457.55 -4.60799 -0.00791878 0
M  V30 15476 H 1455.86 -4.16072 -0.165344 0
M  V30 15477 H 1458.46 -4.47339 -2.92902 0
M  V30 15478 H 1458.8 -2.77021 -3.10749 0
M  V30 15479 H 1459.34 -3.62457 -1.63919 0
M  V30 15480 H 1456.08 -6.5049 -0.808907 0
M  V30 15481 H 1455.6 -5.56406 -2.23992 0
M  V30 15482 H 1457.27 -6.13188 -2.0642 0
M  V30 15483 N 1457.41 0.45317 -1.50944 0
M  V30 15484 C 1458.65 1.20568 -1.63068 0
M  V30 15485 C 1458.99 1.91229 -0.338375 0
M  V30 15486 O 1458.26 1.82916 0.661207 0
M  V30 15487 C 1458.54 2.23522 -2.8233 0
M  V30 15488 C 1458.4 1.57047 -4.21493 0
M  V30 15489 C 1459.72 3.24663 -2.97123 0
M  V30 15490 H 1456.83 0.436971 -0.593486 0
M  V30 15491 H 1459.48 0.497008 -1.83384 0
M  V30 15492 H 1457.63 2.83961 -2.65139 0
M  V30 15493 H 1459.3 1.00067 -4.50316 0
M  V30 15494 H 1457.54 0.873143 -4.24922 0
M  V30 15495 H 1458.21 2.31949 -5.00903 0
M  V30 15496 H 1460.69 2.74264 -3.12919 0
M  V30 15497 H 1459.56 3.9401 -3.82161 0
M  V30 15498 H 1459.83 3.89843 -2.08506 0
M  V30 15499 N 1458.88 1.40823 0.707568 0
M  V30 15500 C 1460.11 1.43061 1.50161 0
M  V30 15501 C 1460.53 0.0342144 1.88069 0
M  V30 15502 O 1459.89 -0.959674 1.53818 0
M  V30 15503 C 1459.94 2.33459 2.74826 0
M  V30 15504 O 1459.04 1.78336 3.71847 0
M  V30 15505 H 1458.39 0.48602 0.452417 0
M  V30 15506 H 1460.92 1.85147 0.870742 0
M  V30 15507 H 1460.93 2.48922 3.23267 0
M  V30 15508 H 1459.6 3.34927 2.46571 0
M  V30 15509 H 1458.18 1.7226 3.30728 0
M  V30 15510 N 1460.36 -0.94061 1.26453 0
M  V30 15511 C 1461.61 -1.68132 1.1142 0
M  V30 15512 C 1461.92 -1.92587 -0.342006 0
M  V30 15513 O 1463.13 -2.64489 -0.613018 0
M  V30 15514 C 1461.59 -3.02758 1.94591 0
M  V30 15515 C 1461.19 -2.86049 3.4479 0
M  V30 15516 C 1462.94 -3.80516 1.88169 0
M  V30 15517 C 1460.85 -4.1615 4.20206 0
M  V30 15518 H 1459.78 -0.630591 0.413366 0
M  V30 15519 H 1462.43 -1.04602 1.50767 0
M  V30 15520 H 1460.81 -3.67272 1.48078 0
M  V30 15521 H 1461.98 -2.3038 3.99076 0
M  V30 15522 H 1460.3 -2.21732 3.52454 0
M  V30 15523 H 1462.89 -4.76904 2.41799 0
M  V30 15524 H 1463.24 -4.07477 0.852531 0
M  V30 15525 H 1463.77 -3.22776 2.32509 0
M  V30 15526 H 1460.51 -3.94373 5.23593 0
M  V30 15527 H 1460.03 -4.71531 3.707 0
M  V30 15528 H 1461.71 -4.84602 4.28684 0
M  V30 15529 N 1461.84 -1.08266 -1.14527 0
M  V30 15530 C 1463.09 -0.806405 -1.84878 0
M  V30 15531 C 1463.4 0.670151 -1.83762 0
M  V30 15532 O 1464.61 1.06151 -2.49888 0
M  V30 15533 C 1463.06 -1.39257 -3.31867 0
M  V30 15534 C 1462.67 -2.90081 -3.41404 0
M  V30 15535 C 1464.42 -1.19475 -4.0734 0
M  V30 15536 C 1462.32 -3.41842 -4.82595 0
M  V30 15537 H 1461.25 -0.297993 -0.692615 0
M  V30 15538 H 1463.9 -1.30389 -1.29116 0
M  V30 15539 H 1462.29 -0.822802 -3.87358 0
M  V30 15540 H 1463.46 -3.53182 -2.95971 0
M  V30 15541 H 1461.78 -3.08761 -2.79385 0
M  V30 15542 H 1464.37 -1.55614 -5.11555 0
M  V30 15543 H 1464.72 -0.134455 -4.16083 0
M  V30 15544 H 1465.25 -1.73138 -3.58145 0
M  V30 15545 H 1461.99 -4.47439 -4.79039 0
M  V30 15546 H 1461.51 -2.835 -5.28572 0
M  V30 15547 H 1463.19 -3.38346 -5.51481 0
M  V30 15548 N 1463.32 1.31536 -0.86811 0
M  V30 15549 C 1464.23 2.32326 -0.32588 0
M  V30 15550 C 1465.25 1.64632 0.563243 0
M  V30 15551 O 1466.42 1.96067 0.460403 0
M  V30 15552 C 1463.49 3.43562 0.46539 0
M  V30 15553 C 1462.55 4.26919 -0.451472 0
M  V30 15554 C 1461.78 5.32844 0.302129 0
M  V30 15555 O 1462 5.49485 1.53045 0
M  V30 15556 O 1460.94 6.00944 -0.339048 0
M  V30 15557 H 1464.76 2.80622 -1.16126 0
M  V30 15558 H 1462.35 1.35401 -0.631428 0
M  V30 15559 H 1464.23 4.11368 0.914028 0
M  V30 15560 H 1462.91 2.97432 1.27734 0
M  V30 15561 H 1461.81 3.61874 -0.948571 0
M  V30 15562 H 1463.15 4.7661 -1.22897 0
M  V30 15563 N 1464.8 0.627364 1.44575 0
M  V30 15564 C 1465.71 -0.0811184 2.3446 0
M  V30 15565 C 1466.72 -0.839668 1.52399 0
M  V30 15566 O 1467.9 -0.792784 1.8514 0
M  V30 15567 C 1464.96 -1.05296 3.30323 0
M  V30 15568 C 1464.03 -0.294201 4.28291 0
M  V30 15569 C 1463.26 -1.21975 5.19575 0
M  V30 15570 O 1463.48 -2.45834 5.14706 0
M  V30 15571 O 1462.42 -0.70611 5.97744 0
M  V30 15572 H 1466.24 0.658067 2.96485 0
M  V30 15573 H 1463.83 0.387565 1.44285 0
M  V30 15574 H 1465.71 -1.61218 3.89341 0
M  V30 15575 H 1464.38 -1.77283 2.70837 0
M  V30 15576 H 1463.29 0.307969 3.7283 0
M  V30 15577 H 1464.62 0.385567 4.90687 0
M  V30 15578 N 1466.28 -1.53251 0.367684 0
M  V30 15579 C 1467.55 -1.93617 -0.277842 0
M  V30 15580 C 1467.93 -1.3014 -1.66213 0
M  V30 15581 O 1467.28 -0.461277 -2.23796 0
M  V30 15582 C 1467.49 -3.47475 -0.325937 0
M  V30 15583 C 1468.84 -4.2082 -0.565276 0
M  V30 15584 O 1469.86 -3.53866 -0.407057 0
M  V30 15585 O 1468.72 -5.39474 -0.873522 0
M  V30 15586 H 1465.82 -0.80993 -0.167158 0
M  V30 15587 H 1468.36 -1.64405 0.420621 0
M  V30 15588 H 1467.13 -3.85955 0.644542 0
M  V30 15589 H 1466.76 -3.82926 -1.07021 0
M  V30 15590 N 1467.75 -0.0969077 -1.57302 0
M  V30 15591 C 1468.7 0.861379 -2.14124 0
M  V30 15592 C 1469.67 1.27858 -1.06026 0
M  V30 15593 O 1470.86 1.36001 -1.33822 0
M  V30 15594 C 1468 2.11443 -2.72738 0
M  V30 15595 C 1467.11 1.7476 -3.95074 0
M  V30 15596 C 1466.24 2.94864 -4.41847 0
M  V30 15597 C 1465.28 2.54316 -5.56767 0
M  V30 15598 N 1464.42 3.67261 -5.98384 0
M  V30 15599 H 1469.26 0.369968 -2.95694 0
M  V30 15600 H 1466.8 0.170943 -1.46103 0
M  V30 15601 H 1468.75 2.84829 -3.04842 0
M  V30 15602 H 1467.38 2.5808 -1.93893 0
M  V30 15603 H 1466.44 0.91335 -3.69272 0
M  V30 15604 H 1467.75 1.40946 -4.78472 0
M  V30 15605 H 1466.9 3.76501 -4.75744 0
M  V30 15606 H 1465.64 3.31889 -3.57352 0
M  V30 15607 H 1464.65 1.71106 -5.22497 0
M  V30 15608 H 1465.87 2.18432 -6.43012 0
M  V30 15609 H 1463.82 4.04001 -5.16836 0
M  V30 15610 H 1463.73 3.37298 -6.76584 0
M  V30 15611 H 1465 4.49403 -6.36912 0
M  V30 15612 N 1469.23 1.56605 0.176793 0
M  V30 15613 C 1470.18 1.96896 1.23833 0
M  V30 15614 C 1471.17 0.85693 1.46127 0
M  V30 15615 O 1472.38 1.04202 1.46772 0
M  V30 15616 H 1468.75 0.626363 0.416141 0
M  V30 15617 H 1470.73 2.85387 0.871607 0
M  V30 15618 C 1469.47 2.34034 2.57145 0
M  V30 15619 H 1468.8 3.1914 2.40811 0
M  V30 15620 H 1470.24 2.66074 3.30122 0
M  V30 15621 C 1468.7 1.18171 3.15495 0
M  V30 15622 O 1469.23 0.466448 3.98983 0
M  V30 15623 N 1467.43 0.953705 2.74505 0
M  V30 15624 H 1466.98 1.5371 2.06715 0
M  V30 15625 H 1466.94 0.180307 3.13883 0
M  V30 15626 N 1470.71 -0.445159 1.51182 0
M  V30 15627 C 1471.93 -1.22249 1.67541 0
M  V30 15628 C 1472.36 -1.84446 0.368972 0
M  V30 15629 O 1471.72 -1.68463 -0.670058 0
M  V30 15630 C 1471.77 -2.288 2.78717 0
M  V30 15631 O 1470.87 -3.34094 2.41775 0
M  V30 15632 H 1470.21 -0.358516 0.558894 0
M  V30 15633 H 1472.74 -0.526696 1.97704 0
M  V30 15634 H 1472.75 -2.73708 3.02569 0
M  V30 15635 H 1471.43 -1.82906 3.73521 0
M  V30 15636 H 1470 -2.94717 2.28466 0
M  V30 15637 N 1472.19 -1.41197 -0.700089 0
M  V30 15638 C 1473.42 -1.43449 -1.4868 0
M  V30 15639 C 1473.83 -0.0368799 -1.89164 0
M  V30 15640 O 1473.17 0.953129 -1.57039 0
M  V30 15641 C 1473.23 -2.27583 -2.78291 0
M  V30 15642 C 1472.89 -3.75805 -2.60038 0
M  V30 15643 C 1473.89 -4.68074 -2.2628 0
M  V30 15644 C 1471.58 -4.19796 -2.75819 0
M  V30 15645 C 1473.57 -6.02322 -2.08535 0
M  V30 15646 C 1471.26 -5.5411 -2.57692 0
M  V30 15647 C 1472.26 -6.45189 -2.24099 0
M  V30 15648 O 1471.94 -7.77025 -2.06125 0
M  V30 15649 H 1471.68 -0.490779 -0.464879 0
M  V30 15650 H 1474.23 -1.86071 -0.869864 0
M  V30 15651 H 1472.46 -1.79767 -3.42375 0
M  V30 15652 H 1474.15 -2.21591 -3.40077 0
M  V30 15653 H 1474.91 -4.35379 -2.13707 0
M  V30 15654 H 1470.79 -3.49213 -3.0095 0
M  V30 15655 H 1474.34 -6.73376 -1.82238 0
M  V30 15656 H 1470.23 -5.86386 -2.69854 0
M  V30 15657 H 1471 -7.88121 -2.20924 0
M  V30 15658 N 1473.67 0.933891 -1.2695 0
M  V30 15659 C 1474.89 1.71512 -1.15721 0
M  V30 15660 C 1475.31 1.8661 0.286712 0
M  V30 15661 O 1474.67 1.3787 1.19574 0
M  V30 15662 C 1474.72 3.11804 -1.82922 0
M  V30 15663 O 1474.44 2.97421 -3.21672 0
M  V30 15664 C 1475.94 4.06108 -1.7774 0
M  V30 15665 H 1473.16 0.53678 -0.402626 0
M  V30 15666 H 1475.7 1.17025 -1.67706 0
M  V30 15667 H 1473.86 3.6317 -1.34856 0
M  V30 15668 H 1474.27 3.86069 -3.55037 0
M  V30 15669 H 1475.75 5.02082 -2.29385 0
M  V30 15670 H 1476.22 4.32828 -0.74543 0
M  V30 15671 H 1476.83 3.60665 -2.25391 0
M  V30 15672 N 1475.14 1.08871 1.13951 0
M  V30 15673 C 1476.55 0.841552 1.66658 0
M  V30 15674 C 1476.91 -0.630932 1.85779 0
M  V30 15675 O 1476.03 -1.48673 1.57243 0
M  V30 15676 C 1476.63 1.52109 3.02735 0
M  V30 15677 C 1475.18 1.32105 3.52456 0
M  V30 15678 C 1474.33 1.58084 2.27826 0
M  V30 15679 H 1477.28 1.24865 0.97951 0
M  V30 15680 H 1477.3 0.950978 3.68425 0
M  V30 15681 H 1476.82 2.59276 2.88786 0
M  V30 15682 H 1474.92 0.270294 3.71618 0
M  V30 15683 H 1475.03 2.05197 4.32933 0
M  V30 15684 H 1473.39 1.00264 2.34135 0
M  V30 15685 H 1474.18 2.66467 2.16449 0
M  V30 15686 N 1476.62 -1.31073 0.875073 0
M  V30 15687 C 1477.87 -1.96809 0.489273 0
M  V30 15688 C 1478.2 -1.68979 -0.957073 0
M  V30 15689 O 1477.48 -0.989061 -1.67475 0
M  V30 15690 C 1477.76 -3.52139 0.752998 0
M  V30 15691 C 1477.61 -3.89524 2.24925 0
M  V30 15692 C 1478.93 -4.39535 0.222871 0
M  V30 15693 H 1476.05 -0.714873 0.179238 0
M  V30 15694 H 1478.69 -1.55114 1.09725 0
M  V30 15695 H 1476.84 -3.87785 0.23553 0
M  V30 15696 H 1478.51 -3.63953 2.83436 0
M  V30 15697 H 1476.76 -3.37948 2.71981 0
M  V30 15698 H 1477.43 -4.97845 2.38441 0
M  V30 15699 H 1479.9 -4.10741 0.665645 0
M  V30 15700 H 1478.78 -5.47159 0.436806 0
M  V30 15701 H 1479.04 -4.33346 -0.875445 0
M  V30 15702 N 1478.1 -0.635022 -1.4424 0
M  V30 15703 C 1479.03 0.0543561 -2.33437 0
M  V30 15704 C 1480.01 0.830807 -1.48431 0
M  V30 15705 O 1481.2 0.795913 -1.77141 0
M  V30 15706 C 1478.33 1.03391 -3.31553 0
M  V30 15707 C 1477.28 0.368824 -4.26408 0
M  V30 15708 C 1476.61 1.45855 -5.14422 0
M  V30 15709 C 1477.91 -0.727381 -5.1721 0
M  V30 15710 H 1479.6 -0.690489 -2.91329 0
M  V30 15711 H 1477.15 -0.3335 -1.40085 0
M  V30 15712 H 1479.1 1.52495 -3.9284 0
M  V30 15713 H 1477.82 1.80969 -2.71878 0
M  V30 15714 H 1476.48 -0.101605 -3.66459 0
M  V30 15715 H 1476.13 2.22531 -4.51098 0
M  V30 15716 H 1475.83 1.0189 -5.78699 0
M  V30 15717 H 1477.35 1.95132 -5.78581 0
M  V30 15718 H 1478.77 -0.319272 -5.7241 0
M  V30 15719 H 1477.17 -1.09041 -5.9011 0
M  V30 15720 H 1478.24 -1.59292 -4.57989 0
M  V30 15721 N 1479.58 1.53054 -0.375806 0
M  V30 15722 C 1480.8 2.06296 0.213708 0
M  V30 15723 C 1481.23 1.24675 1.40846 0
M  V30 15724 O 1480.59 0.268371 1.79303 0
M  V30 15725 C 1480.63 3.55981 0.575301 0
M  V30 15726 O 1479.74 3.77023 1.67115 0
M  V30 15727 H 1479.08 0.66338 0.0286922 0
M  V30 15728 H 1481.61 1.97362 -0.539371 0
M  V30 15729 H 1481.62 3.99187 0.843431 0
M  V30 15730 H 1480.29 4.14829 -0.298258 0
M  V30 15731 H 1478.87 3.45712 1.39778 0
M  V30 15732 N 1481.06 0.105248 1.57248 0
M  V30 15733 C 1481.99 -0.880221 2.11624 0
M  V30 15734 C 1483 -1.23924 1.05578 0
M  V30 15735 O 1484.19 -1.19059 1.32994 0
M  V30 15736 C 1481.29 -2.18628 2.5895 0
M  V30 15737 C 1480.46 -2.00105 3.88943 0
M  V30 15738 C 1479.52 -3.14315 4.2201 0
M  V30 15739 O 1478.55 -2.87832 4.91061 0
M  V30 15740 N 1479.75 -4.4037 3.78226 0
M  V30 15741 H 1482.52 -0.415742 2.96802 0
M  V30 15742 H 1480.08 -0.0795714 1.61704 0
M  V30 15743 H 1482.07 -2.94002 2.7811 0
M  V30 15744 H 1480.64 -2.56467 1.78727 0
M  V30 15745 H 1479.86 -1.09003 3.7883 0
M  V30 15746 H 1481.15 -1.85018 4.73968 0
M  V30 15747 H 1480.54 -4.64765 3.22506 0
M  V30 15748 H 1479.1 -5.1266 4.02521 0
M  V30 15749 N 1482.53 -1.56697 -0.168486 0
M  V30 15750 C 1483.78 -1.82154 -0.884654 0
M  V30 15751 C 1484.11 -0.682778 -1.82122 0
M  V30 15752 O 1483.36 0.32977 -1.92902 0
M  V30 15753 C 1483.66 -3.138 -1.71068 0
M  V30 15754 C 1483.33 -4.41356 -0.922793 0
M  V30 15755 C 1481.99 -4.76002 -0.705352 0
M  V30 15756 C 1484.34 -5.19883 -0.370323 0
M  V30 15757 C 1481.67 -5.86651 0.0756121 0
M  V30 15758 C 1484.02 -6.31349 0.397568 0
M  V30 15759 C 1482.69 -6.6456 0.625782 0
M  V30 15760 H 1481.96 -0.666549 -0.323718 0
M  V30 15761 H 1484.6 -1.90916 -0.149432 0
M  V30 15762 H 1482.91 -3.00393 -2.51538 0
M  V30 15763 H 1484.61 -3.30708 -2.2679 0
M  V30 15764 H 1481.2 -4.14182 -1.10231 0
M  V30 15765 H 1485.38 -4.93509 -0.525646 0
M  V30 15766 H 1480.64 -6.10838 0.262137 0
M  V30 15767 H 1484.81 -6.91401 0.832902 0
M  V30 15768 H 1482.44 -7.50137 1.23281 0
M  V30 15769 N 1484.01 0.437135 -1.51416 0
M  V30 15770 C 1485.42 1.01699 -1.5657 0
M  V30 15771 C 1485.77 1.92299 -0.389291 0
M  V30 15772 O 1484.9 2.10689 0.49389 0
M  V30 15773 C 1485.49 1.85119 -2.83754 0
M  V30 15774 C 1484.05 2.38154 -2.91478 0
M  V30 15775 C 1483.2 1.17374 -2.51234 0
M  V30 15776 H 1486.15 0.218399 -1.5719 0
M  V30 15777 H 1486.17 2.70572 -2.67528 0
M  V30 15778 H 1485.68 1.19153 -3.69357 0
M  V30 15779 H 1483.79 3.07575 -2.10306 0
M  V30 15780 H 1483.9 2.70937 -3.95133 0
M  V30 15781 H 1482.26 1.51913 -2.04437 0
M  V30 15782 H 1483.05 0.530176 -3.39181 0
M  V30 15783 N 1485.49 1.41566 0.692592 0
M  V30 15784 C 1486.42 1.39582 1.81795 0
M  V30 15785 C 1487.44 0.29754 1.60058 0
M  V30 15786 O 1488.62 0.559463 1.69506 0
M  V30 15787 C 1485.72 1.15506 3.18609 0
M  V30 15788 C 1484.9 2.37432 3.67349 0
M  V30 15789 C 1483.96 2.09168 4.82841 0
M  V30 15790 O 1482.98 2.8223 4.94303 0
M  V30 15791 N 1484.18 1.08377 5.70294 0
M  V30 15792 H 1486.95 2.36577 1.83988 0
M  V30 15793 H 1484.51 1.36216 0.875026 0
M  V30 15794 H 1486.5 0.945452 3.93501 0
M  V30 15795 H 1485.07 0.270987 3.11423 0
M  V30 15796 H 1484.29 2.74076 2.8333 0
M  V30 15797 H 1485.58 3.18661 3.96652 0
M  V30 15798 H 1484.98 0.479122 5.63667 0
M  V30 15799 H 1483.54 0.934042 6.45073 0
M  V30 15800 N 1486.97 -0.927146 1.27443 0
M  V30 15801 C 1487.88 -2.06122 1.12031 0
M  V30 15802 C 1488.89 -1.73928 0.0501979 0
M  V30 15803 O 1490.07 -1.99756 0.256796 0
M  V30 15804 C 1487.14 -3.3805 0.769634 0
M  V30 15805 C 1486.2 -3.83938 1.92068 0
M  V30 15806 C 1485.43 -5.0957 1.58664 0
M  V30 15807 O 1485.65 -5.6825 0.494789 0
M  V30 15808 O 1484.59 -5.50844 2.42599 0
M  V30 15809 H 1488.41 -2.22037 2.07203 0
M  V30 15810 H 1486 -1.04638 1.06636 0
M  V30 15811 H 1487.88 -4.17286 0.587423 0
M  V30 15812 H 1486.55 -3.2334 -0.152557 0
M  V30 15813 H 1485.46 -3.05587 2.15795 0
M  V30 15814 H 1486.79 -4.0319 2.8231 0
M  V30 15815 N 1488.45 -1.09474 -1.13372 0
M  V30 15816 C 1489.38 -0.756441 -2.20908 0
M  V30 15817 C 1490.36 0.266113 -1.68006 0
M  V30 15818 O 1491.54 0.134067 -1.93737 0
M  V30 15819 C 1488.67 -0.176733 -3.4685 0
M  V30 15820 C 1487.63 -1.12886 -4.12845 0
M  V30 15821 C 1486.95 -0.410831 -5.33119 0
M  V30 15822 C 1488.25 -2.47148 -4.60125 0
M  V30 15823 H 1489.95 -1.65555 -2.49463 0
M  V30 15824 H 1487.49 -0.797458 -1.19902 0
M  V30 15825 H 1489.45 0.0720151 -4.21338 0
M  V30 15826 H 1488.17 0.757576 -3.17692 0
M  V30 15827 H 1486.83 -1.36289 -3.40325 0
M  V30 15828 H 1486.48 0.527632 -5.00225 0
M  V30 15829 H 1486.18 -1.04567 -5.78221 0
M  V30 15830 H 1487.7 -0.170394 -6.10362 0
M  V30 15831 H 1489.11 -2.27949 -5.26034 0
M  V30 15832 H 1487.51 -3.06425 -5.15969 0
M  V30 15833 H 1488.58 -3.07874 -3.74622 0
M  V30 15834 N 1489.92 1.30607 -0.882012 0
M  V30 15835 C 1490.87 2.3016 -0.336011 0
M  V30 15836 C 1491.87 1.60037 0.555389 0
M  V30 15837 O 1493.07 1.74536 0.440152 0
M  V30 15838 H 1489.45 0.746595 -0.0899982 0
M  V30 15839 H 1491.42 2.73673 -1.18936 0
M  V30 15840 C 1490.17 3.44942 0.437061 0
M  V30 15841 H 1489.49 3.99081 -0.2396 0
M  V30 15842 H 1490.93 4.16684 0.784242 0
M  V30 15843 C 1489.39 2.94678 1.633 0
M  V30 15844 O 1489.92 2.94457 2.73236 0
M  V30 15845 N 1488.13 2.50727 1.46917 0
M  V30 15846 H 1487.67 2.51105 0.574807 0
M  V30 15847 H 1487.63 2.17453 2.27072 0
M  V30 15848 N 1491.4 0.642663 1.43901 0
M  V30 15849 C 1492.65 0.152003 2.0223 0
M  V30 15850 C 1492.98 -1.22711 1.50518 0
M  V30 15851 O 1492.26 -1.817 0.693937 0
M  V30 15852 C 1492.54 0.151278 3.59782 0
M  V30 15853 C 1492.39 1.56356 4.2175 0
M  V30 15854 C 1493.71 -0.518016 4.37041 0
M  V30 15855 H 1490.83 0.0567094 0.734815 0
M  V30 15856 H 1493.47 0.821337 1.7133 0
M  V30 15857 H 1491.62 -0.418679 3.86237 0
M  V30 15858 H 1493.29 2.18329 4.06362 0
M  V30 15859 H 1491.54 2.11401 3.78803 0
M  V30 15860 H 1492.21 1.51499 5.30803 0
M  V30 15861 H 1494.68 -0.0331947 4.16087 0
M  V30 15862 H 1493.56 -0.487754 5.46729 0
M  V30 15863 H 1493.82 -1.59036 4.12504 0
M  V30 15864 N 1492.88 -1.52852 0.383918 0
M  V30 15865 C 1494.13 -2.01112 -0.199594 0
M  V30 15866 C 1494.45 -1.27237 -1.47769 0
M  V30 15867 O 1493.72 -0.390873 -1.91961 0
M  V30 15868 H 1492.3 -0.743047 -0.0767466 0
M  V30 15869 H 1494.96 -1.8799 0.51437 0
M  V30 15870 H 1494.06 -3.09347 -0.413627 0
M  V30 15871 N 1494.36 -0.113586 -1.5719 0
M  V30 15872 C 1495.31 0.83862 -2.15025 0
M  V30 15873 C 1496.28 1.26726 -1.07376 0
M  V30 15874 O 1497.46 1.34574 -1.35257 0
M  V30 15875 C 1494.6 2.08538 -2.74965 0
M  V30 15876 C 1493.71 1.70559 -3.96905 0
M  V30 15877 C 1492.85 2.90161 -4.44949 0
M  V30 15878 C 1491.89 2.48396 -5.59433 0
M  V30 15879 N 1491.03 3.60894 -6.02246 0
M  V30 15880 H 1495.87 0.338585 -2.9607 0
M  V30 15881 H 1493.4 0.155437 -1.46276 0
M  V30 15882 H 1495.36 2.81579 -3.07846 0
M  V30 15883 H 1493.99 2.56009 -1.96619 0
M  V30 15884 H 1493.04 0.874133 -3.7022 0
M  V30 15885 H 1494.35 1.35863 -4.7994 0
M  V30 15886 H 1493.51 3.71434 -4.7971 0
M  V30 15887 H 1492.25 3.28081 -3.60852 0
M  V30 15888 H 1491.25 1.65555 -5.24282 0
M  V30 15889 H 1492.48 2.116 -6.45292 0
M  V30 15890 H 1490.42 3.98497 -5.21091 0
M  V30 15891 H 1490.34 3.30103 -6.80124 0
M  V30 15892 H 1491.61 4.42622 -6.41643 0
M  V30 15893 N 1495.84 1.56784 0.160173 0
M  V30 15894 C 1497.08 1.82891 0.876278 0
M  V30 15895 C 1497.42 0.693173 1.81408 0
M  V30 15896 O 1496.69 -0.304136 1.92107 0
M  V30 15897 C 1496.97 3.19439 1.66226 0
M  V30 15898 C 1496.83 4.43557 0.746831 0
M  V30 15899 C 1498.15 3.53053 2.62758 0
M  V30 15900 H 1495.27 0.665285 0.31712 0
M  V30 15901 H 1497.91 1.89469 0.142004 0
M  V30 15902 H 1496.06 3.13962 2.28823 0
M  V30 15903 H 1497.73 4.61109 0.132876 0
M  V30 15904 H 1495.97 4.33764 0.0555625 0
M  V30 15905 H 1496.64 5.35675 1.33253 0
M  V30 15906 H 1499.12 3.59054 2.10284 0
M  V30 15907 H 1498 4.4965 3.14811 0
M  V30 15908 H 1498.26 2.78329 3.4349 0
M  V30 15909 N 1497.32 -0.429099 1.51646 0
M  V30 15910 C 1498.54 -1.20465 1.68828 0
M  V30 15911 C 1498.97 -1.84044 0.388514 0
M  V30 15912 O 1498.32 -1.69165 -0.652152 0
M  V30 15913 C 1498.37 -2.25831 2.81128 0
M  V30 15914 O 1497.48 -3.31511 2.45305 0
M  V30 15915 H 1496.82 -0.352568 0.562665 0
M  V30 15916 H 1499.35 -0.505698 1.98252 0
M  V30 15917 H 1499.36 -2.70484 3.05455 0
M  V30 15918 H 1498.03 -1.78934 3.7544 0
M  V30 15919 H 1496.61 -2.92277 2.31579 0
M  V30 15920 N 1498.79 -1.41931 -0.685074 0
M  V30 15921 C 1499.76 -1.44315 -1.78061 0
M  V30 15922 C 1500.76 -0.332215 -1.57331 0
M  V30 15923 O 1501.95 -0.59258 -1.63811 0
M  V30 15924 C 1499.08 -1.26479 -3.16569 0
M  V30 15925 H 1500.27 -2.4185 -1.77337 0
M  V30 15926 H 1497.82 -1.28228 -0.893721 0
M  V30 15927 H 1498.56 -0.298259 -3.22926 0
M  V30 15928 H 1498.34 -2.06981 -3.33018 0
M  V30 15929 H 1499.83 -1.31006 -3.96519 0
M  V30 15930 N 1500.27 0.920374 -1.27933 0
M  V30 15931 C 1501.18 2.05525 -1.13123 0
M  V30 15932 C 1502.2 1.73899 -0.059421 0
M  V30 15933 O 1503.37 1.99617 -0.267386 0
M  V30 15934 C 1500.44 3.37637 -0.787551 0
M  V30 15935 C 1499.5 3.82914 -1.94101 0
M  V30 15936 C 1498.73 5.08721 -1.61364 0
M  V30 15937 O 1498.96 5.6798 -0.524918 0
M  V30 15938 O 1497.89 5.4955 -2.45517 0
M  V30 15939 H 1501.72 2.20935 -2.08378 0
M  V30 15940 H 1499.3 1.04071 -1.07189 0
M  V30 15941 H 1501.18 4.16968 -0.609544 0
M  V30 15942 H 1499.86 3.23417 0.135407 0
M  V30 15943 H 1498.76 3.04438 -2.17413 0
M  V30 15944 H 1500.1 4.01687 -2.84444 0
M  V30 15945 N 1501.75 1.10074 1.1279 0
M  V30 15946 C 1503 0.842118 1.84489 0
M  V30 15947 C 1503.33 -0.630737 1.83672 0
M  V30 15948 O 1502.6 -1.46481 1.27959 0
M  V30 15949 C 1502.89 1.3864 3.32342 0
M  V30 15950 C 1502.74 2.92585 3.41635 0
M  V30 15951 C 1504.06 1.02565 4.27982 0
M  V30 15952 H 1501.18 0.307376 0.669842 0
M  V30 15953 H 1503.82 1.36326 1.32345 0
M  V30 15954 H 1501.97 0.943134 3.76878 0
M  V30 15955 H 1503.64 3.4541 3.0576 0
M  V30 15956 H 1501.88 3.29378 2.82299 0
M  V30 15957 H 1502.56 3.25749 4.45636 0
M  V30 15958 H 1505.03 1.40807 3.91552 0
M  V30 15959 H 1503.91 1.43345 5.29852 0
M  V30 15960 H 1504.17 -0.0653712 4.42052 0
M  V30 15961 N 1503.23 -1.30138 0.888926 0
M  V30 15962 C 1504.16 -2.26177 0.303221 0
M  V30 15963 C 1505.14 -1.51962 -0.578471 0
M  V30 15964 O 1506.32 -1.80963 -0.527685 0
M  V30 15965 C 1503.45 -3.3389 -0.568783 0
M  V30 15966 C 1502.5 -4.25801 0.24412 0
M  V30 15967 S 1503.33 -5.09931 1.63496 0
M  V30 15968 C 1504.48 -6.21151 0.76959 0
M  V30 15969 H 1504.72 -2.75507 1.11728 0
M  V30 15970 H 1502.25 -1.38195 0.688594 0
M  V30 15971 H 1504.21 -3.96413 -1.06614 0
M  V30 15972 H 1502.87 -2.83276 -1.35697 0
M  V30 15973 H 1502.06 -5.02234 -0.42151 0
M  V30 15974 H 1501.66 -3.67872 0.67424 0
M  V30 15975 H 1503.96 -6.77499 -0.0117256 0
M  V30 15976 H 1504.9 -6.91907 1.50566 0
M  V30 15977 H 1505.31 -5.63542 0.328744 0
M  V30 15978 N 1504.71 -0.650285 -1.43559 0
M  V30 15979 C 1505.95 -0.171315 -2.02677 0
M  V30 15980 C 1506.31 1.20031 -1.50367 0
M  V30 15981 O 1505.6 1.78901 -0.685922 0
M  V30 15982 C 1505.79 -0.119084 -3.57202 0
M  V30 15983 C 1505.62 -1.4841 -4.24505 0
M  V30 15984 C 1504.39 -2.07575 -4.60696 0
M  V30 15985 C 1506.59 -2.42191 -4.53705 0
M  V30 15986 N 1504.57 -3.37112 -5.13058 0
M  V30 15987 C 1505.94 -3.56359 -5.07354 0
M  V30 15988 C 1508 -2.4103 -4.35671 0
M  V30 15989 C 1506.7 -4.69587 -5.44868 0
M  V30 15990 C 1508.73 -3.53336 -4.74244 0
M  V30 15991 C 1508.09 -4.66229 -5.28024 0
M  V30 15992 H 1504.19 -0.107051 -0.774638 0
M  V30 15993 H 1506.77 -0.857951 -1.74778 0
M  V30 15994 H 1504.94 0.536887 -3.84671 0
M  V30 15995 H 1506.68 0.370487 -4.03001 0
M  V30 15996 H 1503.43 -1.60315 -4.45641 0
M  V30 15997 H 1503.85 -4.03392 -5.43695 0
M  V30 15998 H 1508.5 -1.54988 -3.93368 0
M  V30 15999 H 1506.21 -5.56322 -5.86115 0
M  V30 16000 H 1509.8 -3.53636 -4.61988 0
M  V30 16001 H 1508.68 -5.51693 -5.57319 0
M  V30 16002 N 1506.18 1.52647 -0.392018 0
M  V30 16003 C 1507.13 2.23336 0.458815 0
M  V30 16004 C 1508.12 1.23825 1.02743 0
M  V30 16005 O 1509.31 1.49148 0.953089 0
M  V30 16006 C 1506.44 3.04566 1.58412 0
M  V30 16007 C 1505.52 4.11474 1.02711 0
M  V30 16008 N 1505.92 5.05423 0.195282 0
M  V30 16009 C 1504.21 4.26654 1.29934 0
M  V30 16010 C 1504.91 5.81591 -0.112738 0
M  V30 16011 N 1503.89 5.4137 0.491926 0
M  V30 16012 H 1507.69 2.93328 -0.183222 0
M  V30 16013 H 1505.21 1.61145 -0.201476 0
M  V30 16014 H 1507.2 3.53747 2.2061 0
M  V30 16015 H 1505.86 2.36109 2.22896 0
M  V30 16016 H 1506.87 5.17628 -0.167677 0
M  V30 16017 H 1503.55 3.69426 1.94501 0
M  V30 16018 H 1504.94 6.67276 -0.786879 0
M  V30 16019 N 1507.66 0.121921 1.57128 0
M  V30 16020 C 1508.59 -0.823788 2.18486 0
M  V30 16021 C 1509.57 -1.27519 1.12574 0
M  V30 16022 O 1510.76 -1.33727 1.40822 0
M  V30 16023 C 1507.89 -2.07284 2.78659 0
M  V30 16024 C 1506.84 -1.75912 3.90178 0
M  V30 16025 C 1506.17 -3.07871 4.37172 0
M  V30 16026 C 1507.47 -1.02517 5.1214 0
M  V30 16027 H 1509.16 -0.312488 2.97765 0
M  V30 16028 H 1506.71 -0.148862 1.43228 0
M  V30 16029 H 1508.66 -2.73903 3.20242 0
M  V30 16030 H 1507.39 -2.60743 1.96673 0
M  V30 16031 H 1506.04 -1.11681 3.49174 0
M  V30 16032 H 1505.69 -3.59271 3.52041 0
M  V30 16033 H 1505.39 -2.87653 5.12376 0
M  V30 16034 H 1506.92 -3.75604 4.81409 0
M  V30 16035 H 1508.33 -1.59295 5.50725 0
M  V30 16036 H 1506.73 -0.923836 5.92946 0
M  V30 16037 H 1507.8 -0.0124219 4.84898 0
M  V30 16038 N 1509.14 -1.56867 -0.151857 0
M  V30 16039 C 1510.39 -1.83082 -0.865285 0
M  V30 16040 C 1510.72 -0.702056 -1.81387 0
M  V30 16041 O 1509.97 0.309291 -1.9324 0
M  V30 16042 C 1510.27 -3.15597 -1.6773 0
M  V30 16043 C 1509.94 -4.4231 -0.875929 0
M  V30 16044 C 1508.6 -4.76724 -0.654826 0
M  V30 16045 C 1510.95 -5.20246 -0.315162 0
M  V30 16046 C 1508.28 -5.86538 0.13783 0
M  V30 16047 C 1510.63 -6.30892 0.464508 0
M  V30 16048 C 1509.29 -6.63859 0.696233 0
M  V30 16049 H 1508.56 -0.669945 -0.31663 0
M  V30 16050 H 1511.21 -1.91064 -0.129175 0
M  V30 16051 H 1509.52 -3.03044 -2.48338 0
M  V30 16052 H 1511.21 -3.33094 -2.23269 0
M  V30 16053 H 1507.8 -4.15328 -1.05832 0
M  V30 16054 H 1511.99 -4.94038 -0.473273 0
M  V30 16055 H 1507.24 -6.10525 0.32691 0
M  V30 16056 H 1511.42 -6.90479 0.906187 0
M  V30 16057 H 1509.04 -7.48788 1.3123 0
M  V30 16058 N 1510.62 0.421051 -1.51871 0
M  V30 16059 C 1511.58 1.49478 -1.73749 0
M  V30 16060 C 1512.58 1.48887 -0.607395 0
M  V30 16061 O 1513.77 1.50622 -0.875143 0
M  V30 16062 C 1510.9 2.88947 -1.80893 0
M  V30 16063 H 1512.1 1.31377 -2.69593 0
M  V30 16064 H 1509.65 0.650786 -1.42107 0
M  V30 16065 H 1510.38 3.12434 -0.86922 0
M  V30 16066 H 1510.17 2.90781 -2.63038 0
M  V30 16067 H 1511.66 3.66809 -1.99602 0
M  V30 16068 N 1512.1 1.42293 0.677538 0
M  V30 16069 C 1513.03 1.41503 1.80304 0
M  V30 16070 C 1514.04 0.314499 1.59733 0
M  V30 16071 O 1515.23 0.57741 1.68903 0
M  V30 16072 C 1512.33 1.18879 3.17366 0
M  V30 16073 C 1511.5 2.41314 3.6481 0
M  V30 16074 C 1510.56 2.14277 4.80595 0
M  V30 16075 O 1509.59 2.87457 4.91281 0
M  V30 16076 N 1510.79 1.14419 5.69112 0
M  V30 16077 H 1513.56 2.38515 1.81468 0
M  V30 16078 H 1511.12 1.37137 0.860529 0
M  V30 16079 H 1513.11 0.987135 3.92476 0
M  V30 16080 H 1511.68 0.304002 3.11118 0
M  V30 16081 H 1510.9 2.77066 2.80407 0
M  V30 16082 H 1512.19 3.2285 3.9325 0
M  V30 16083 H 1511.58 0.53888 5.63127 0
M  V30 16084 H 1510.14 1.00241 6.44046 0
M  V30 16085 N 1513.57 -0.913576 1.28419 0
M  V30 16086 C 1514.85 -1.64203 1.06285 0
M  V30 16087 C 1515.23 -2.07319 -0.397728 0
M  V30 16088 O 1514.58 -1.8183 -1.38383 0
M  V30 16089 C 1514.79 -2.8334 2.03763 0
M  V30 16090 C 1516.14 -3.54355 2.33918 0
M  V30 16091 O 1517.16 -2.93489 2.01848 0
M  V30 16092 O 1516.02 -4.6405 2.88652 0
M  V30 16093 H 1513.11 -0.720359 0.406217 0
M  V30 16094 H 1515.66 -0.962866 1.39739 0
M  V30 16095 H 1514.43 -2.48575 3.02203 0
M  V30 16096 H 1514.06 -3.5897 1.70956 0
M  V30 16097 N 1515.05 -1.1067 -1.12204 0
M  V30 16098 C 1515.99 -0.70161 -2.17147 0
M  V30 16099 C 1516.96 0.298272 -1.59841 0
M  V30 16100 O 1518.15 0.196594 -1.87472 0
M  V30 16101 C 1515.27 -0.0356178 -3.38681 0
M  V30 16102 C 1514.32 -0.999363 -4.14626 0
M  V30 16103 S 1515.15 -2.51792 -4.72611 0
M  V30 16104 C 1516.31 -1.8647 -5.97478 0
M  V30 16105 H 1516.54 -1.59058 -2.51173 0
M  V30 16106 H 1514.08 -0.923946 -1.23704 0
M  V30 16107 H 1516.03 0.342303 -4.0907 0
M  V30 16108 H 1514.69 0.830184 -3.0293 0
M  V30 16109 H 1513.89 -0.48067 -5.01703 0
M  V30 16110 H 1513.49 -1.31931 -3.49957 0
M  V30 16111 H 1515.78 -1.19637 -6.66853 0
M  V30 16112 H 1516.72 -2.71513 -6.53977 0
M  V30 16113 H 1517.13 -1.32821 -5.48652 0
M  V30 16114 N 1516.53 1.29665 -0.895815 0
M  V30 16115 C 1517.48 2.27831 -0.369011 0
M  V30 16116 C 1518.45 1.56843 0.546756 0
M  V30 16117 O 1519.63 1.84848 0.472837 0
M  V30 16118 C 1516.77 3.42764 0.400884 0
M  V30 16119 C 1515.89 4.28544 -0.545335 0
M  V30 16120 C 1515.02 5.30652 0.241228 0
M  V30 16121 C 1514.06 6.08087 -0.699765 0
M  V30 16122 N 1513.2 7.02081 0.0521477 0
M  V30 16123 H 1518.04 2.72274 -1.21124 0
M  V30 16124 H 1515.57 1.33918 -0.608631 0
M  V30 16125 H 1517.53 4.08171 0.863277 0
M  V30 16126 H 1516.16 2.99361 1.2076 0
M  V30 16127 H 1515.21 3.63346 -1.12624 0
M  V30 16128 H 1516.53 4.82472 -1.26579 0
M  V30 16129 H 1515.68 6.01858 0.764994 0
M  V30 16130 H 1514.42 4.77446 0.994838 0
M  V30 16131 H 1513.42 5.35748 -1.23507 0
M  V30 16132 H 1514.65 6.63382 -1.45264 0
M  V30 16133 H 1512.59 6.51249 0.788096 0
M  V30 16134 H 1512.51 7.53547 -0.60847 0
M  V30 16135 H 1513.78 7.77512 0.556304 0
M  V30 16136 N 1518.01 0.657889 1.43212 0
M  V30 16137 C 1519.24 0.18081 2.05807 0
M  V30 16138 C 1519.65 -1.16057 1.49423 0
M  V30 16139 O 1518.99 -1.72849 0.622002 0
M  V30 16140 C 1519.05 0.0202357 3.59494 0
M  V30 16141 C 1518.72 1.28765 4.38484 0
M  V30 16142 C 1519.71 2.21742 4.70241 0
M  V30 16143 C 1517.4 1.53053 4.78414 0
M  V30 16144 C 1519.39 3.37297 5.40842 0
M  V30 16145 C 1517.08 2.68901 5.48758 0
M  V30 16146 C 1518.08 3.60847 5.79895 0
M  V30 16147 O 1517.76 4.74671 6.48801 0
M  V30 16148 H 1517.5 0.0893945 0.670063 0
M  V30 16149 H 1520.05 0.900125 1.84626 0
M  V30 16150 H 1518.28 -0.754496 3.79268 0
M  V30 16151 H 1519.97 -0.414799 4.03775 0
M  V30 16152 H 1520.74 2.04221 4.39908 0
M  V30 16153 H 1516.61 0.823643 4.53583 0
M  V30 16154 H 1520.16 4.09085 5.65062 0
M  V30 16155 H 1516.06 2.86354 5.78508 0
M  V30 16156 H 1516.82 4.73996 6.67285 0
M  V30 16157 N 1519.49 -1.52437 0.400108 0
M  V30 16158 C 1520.45 -2.2536 -0.417808 0
M  V30 16159 C 1521.45 -1.27393 -0.981204 0
M  V30 16160 O 1522.64 -1.51406 -0.861503 0
M  V30 16161 C 1519.77 -3.01695 -1.58724 0
M  V30 16162 H 1520.96 -2.99086 0.220782 0
M  V30 16163 H 1518.52 -1.55555 0.152439 0
M  V30 16164 H 1519.25 -2.32295 -2.26295 0
M  V30 16165 H 1519.04 -3.73611 -1.18984 0
M  V30 16166 H 1520.53 -3.57033 -2.16604 0
M  V30 16167 N 1520.96 -0.130252 -1.57061 0
M  V30 16168 C 1521.89 0.812189 -2.18919 0
M  V30 16169 C 1522.88 1.2692 -1.13249 0
M  V30 16170 O 1524.06 1.32978 -1.41529 0
M  V30 16171 C 1521.19 2.05803 -2.79754 0
M  V30 16172 C 1520.14 1.73841 -3.91105 0
M  V30 16173 C 1519.47 3.05549 -4.38799 0
M  V30 16174 C 1520.77 0.997991 -5.12677 0
M  V30 16175 H 1522.46 0.296692 -2.97926 0
M  V30 16176 H 1520.01 0.141265 -1.43305 0
M  V30 16177 H 1521.96 2.72201 -3.21691 0
M  V30 16178 H 1520.69 2.59697 -1.98053 0
M  V30 16179 H 1519.35 1.09828 -3.49762 0
M  V30 16180 H 1518.99 3.57399 -3.53942 0
M  V30 16181 H 1518.69 2.84932 -5.13894 0
M  V30 16182 H 1520.22 3.73045 -4.83394 0
M  V30 16183 H 1521.63 1.56372 -5.51562 0
M  V30 16184 H 1520.03 0.892378 -5.93428 0
M  V30 16185 H 1521.1 -0.0132936 -4.84898 0
M  V30 16186 N 1522.44 1.56945 0.143535 0
M  V30 16187 C 1523.35 2.01795 1.1965 0
M  V30 16188 C 1524.37 0.933965 1.4681 0
M  V30 16189 O 1525.55 1.2437 1.58411 0
M  V30 16190 C 1522.61 2.39249 2.5092 0
M  V30 16191 C 1521.67 3.61613 2.31376 0
M  V30 16192 C 1520.9 3.97271 3.56386 0
M  V30 16193 O 1521.13 3.33552 4.62709 0
M  V30 16194 O 1520.06 4.90501 3.48844 0
M  V30 16195 H 1523.89 2.91687 0.845718 0
M  V30 16196 H 1521.47 1.45182 0.352518 0
M  V30 16197 H 1523.35 2.64184 3.28306 0
M  V30 16198 H 1522.03 1.52511 2.85521 0
M  V30 16199 H 1520.94 3.4186 1.51929 0
M  V30 16200 H 1522.27 4.48979 2.01689 0
M  V30 16201 N 1523.92 -0.412991 1.52093 0
M  V30 16202 C 1524.83 -1.52768 1.78042 0
M  V30 16203 C 1525.85 -1.60758 0.665791 0
M  V30 16204 O 1527.02 -1.77545 0.950772 0
M  V30 16205 C 1524.09 -2.8854 1.92213 0
M  V30 16206 C 1523.15 -2.90468 3.16112 0
M  V30 16207 C 1522.38 -4.19763 3.29598 0
M  V30 16208 O 1522.61 -5.13454 2.48438 0
M  V30 16209 O 1521.54 -4.2847 4.22726 0
M  V30 16210 H 1525.37 -1.33777 2.72649 0
M  V30 16211 H 1522.95 -0.598461 1.3689 0
M  V30 16212 H 1524.83 -3.69073 2.03379 0
M  V30 16213 H 1523.51 -3.07607 1.00795 0
M  V30 16214 H 1522.41 -2.08801 3.10408 0
M  V30 16215 H 1523.75 -2.76349 4.07298 0
M  V30 16216 N 1525.4 -1.4265 -0.669982 0
M  V30 16217 C 1526.35 -1.42958 -1.77615 0
M  V30 16218 C 1527.33 -0.30025 -1.58074 0
M  V30 16219 O 1528.53 -0.54283 -1.68471 0
M  V30 16220 C 1525.65 -1.33911 -3.16106 0
M  V30 16221 C 1524.74 -2.51808 -3.41253 0
M  V30 16222 N 1525.13 -3.77216 -3.36959 0
M  V30 16223 C 1523.43 -2.46172 -3.71908 0
M  V30 16224 C 1524.13 -4.55555 -3.61724 0
M  V30 16225 N 1523.11 -3.86036 -3.82724 0
M  V30 16226 H 1526.91 -2.3781 -1.72696 0
M  V30 16227 H 1524.42 -1.37066 -0.871009 0
M  V30 16228 H 1526.42 -1.32214 -3.9538 0
M  V30 16229 H 1525.08 -0.400652 -3.22219 0
M  V30 16230 H 1526.09 -4.09743 -3.16751 0
M  V30 16231 H 1522.77 -1.6093 -3.85237 0
M  V30 16232 H 1524.16 -5.6455 -3.64325 0
M  V30 16233 N 1526.88 0.906753 -1.28902 0
M  V30 16234 C 1527.79 2.04313 -1.15296 0
M  V30 16235 C 1528.8 1.73826 -0.0778619 0
M  V30 16236 O 1529.98 1.99322 -0.288543 0
M  V30 16237 C 1527.04 3.36782 -0.823317 0
M  V30 16238 C 1526.11 3.80834 -1.98152 0
M  V30 16239 C 1525.34 5.06981 -1.66751 0
M  V30 16240 O 1525.56 5.67391 -0.58513 0
M  V30 16241 O 1524.5 5.46915 -2.51332 0
M  V30 16242 H 1528.32 2.18713 -2.10709 0
M  V30 16243 H 1525.91 1.02928 -1.08287 0
M  V30 16244 H 1527.79 4.16298 -0.653735 0
M  V30 16245 H 1526.46 3.23542 0.101097 0
M  V30 16246 H 1525.37 3.02115 -2.2063 0
M  V30 16247 H 1526.7 3.98648 -2.88688 0
M  V30 16248 N 1528.36 1.11264 1.11616 0
M  V30 16249 C 1529.3 0.769295 2.17602 0
M  V30 16250 C 1530.27 -0.258362 1.64078 0
M  V30 16251 O 1531.46 -0.135698 1.90317 0
M  V30 16252 C 1528.6 0.216647 3.44419 0
M  V30 16253 C 1527.71 1.30064 4.11955 0
M  V30 16254 C 1526.85 0.708729 5.26451 0
M  V30 16255 C 1525.88 1.7727 5.85868 0
M  V30 16256 N 1525.02 1.20042 6.91762 0
M  V30 16257 H 1529.86 1.67727 2.46316 0
M  V30 16258 H 1527.4 0.83764 1.20921 0
M  V30 16259 H 1529.36 -0.121724 4.17022 0
M  V30 16260 H 1527.99 -0.654525 3.16095 0
M  V30 16261 H 1527.04 1.756 3.37445 0
M  V30 16262 H 1528.35 2.1057 4.52174 0
M  V30 16263 H 1527.5 0.320307 6.05854 0
M  V30 16264 H 1526.24 -0.127668 4.87533 0
M  V30 16265 H 1525.25 2.17046 5.05145 0
M  V30 16266 H 1526.47 2.6121 6.26854 0
M  V30 16267 H 1524.42 0.385633 6.54866 0
M  V30 16268 H 1524.34 1.94221 7.30626 0
M  V30 16269 H 1525.6 0.838825 7.74974 0
M  V30 16270 N 1529.83 -1.29188 0.902679 0
M  V30 16271 C 1531.11 -1.90365 0.449496 0
M  V30 16272 C 1531.49 -1.81911 -1.07105 0
M  V30 16273 O 1530.84 -1.24778 -1.91423 0
M  V30 16274 C 1531.05 -3.35324 0.967418 0
M  V30 16275 C 1532.4 -4.12342 1.0129 0
M  V30 16276 O 1533.42 -3.44239 0.915293 0
M  V30 16277 O 1532.28 -5.34048 1.15994 0
M  V30 16278 H 1529.37 -0.814956 0.140628 0
M  V30 16279 H 1531.92 -1.37633 0.992739 0
M  V30 16280 H 1530.69 -3.35646 2.0114 0
M  V30 16281 H 1530.31 -3.95539 0.404358 0
M  V30 16282 N 1531.31 -0.665475 -1.42861 0
M  V30 16283 C 1532.73 -0.334157 -1.56063 0
M  V30 16284 C 1532.93 1.16104 -1.64688 0
M  V30 16285 O 1531.98 1.94622 -1.60867 0
M  V30 16286 C 1533.3 -1.05628 -2.81537 0
M  V30 16287 C 1534.84 -1.03771 -2.95297 0
M  V30 16288 C 1535.32 -1.74098 -4.2362 0
M  V30 16289 N 1536.81 -1.7092 -4.30512 0
M  V30 16290 C 1537.55 -2.222 -5.28597 0
M  V30 16291 N 1537.04 -2.81821 -6.32889 0
M  V30 16292 N 1538.83 -2.12628 -5.20332 0
M  V30 16293 H 1530.99 -1.6356 -1.35506 0
M  V30 16294 H 1533.25 -0.688538 -0.651628 0
M  V30 16295 H 1532.95 -2.11141 -2.81269 0
M  V30 16296 H 1532.83 -0.615586 -3.72143 0
M  V30 16297 H 1535.22 0.00905324 -2.95099 0
M  V30 16298 H 1535.3 -1.51721 -2.05948 0
M  V30 16299 H 1534.94 -2.78737 -4.2458 0
M  V30 16300 H 1534.87 -1.23604 -5.11888 0
M  V30 16301 H 1537.36 -1.27425 -3.55769 0
M  V30 16302 H 1537.67 -3.18594 -7.04072 0
M  V30 16303 H 1536.02 -2.85887 -6.33478 0
M  V30 16304 H 1539.21 -1.65746 -4.37774 0
M  V30 16305 H 1539.38 -2.52899 -5.96612 0
M  V30 16306 N 1532.79 1.52222 -0.408187 0
M  V30 16307 C 1533.72 2.29892 0.408868 0
M  V30 16308 C 1534.7 1.34063 1.04695 0
M  V30 16309 O 1535.89 1.6297 1.05615 0
M  V30 16310 C 1533.02 3.11964 1.52629 0
M  V30 16311 C 1531.97 4.15833 1.01326 0
M  V30 16312 C 1531.3 4.86244 2.2242 0
M  V30 16313 C 1532.6 5.22256 0.0679573 0
M  V30 16314 H 1534.29 2.98443 -0.23923 0
M  V30 16315 H 1531.84 1.43528 -0.116496 0
M  V30 16316 H 1533.79 3.65067 2.10486 0
M  V30 16317 H 1532.51 2.41181 2.20225 0
M  V30 16318 H 1531.17 3.63739 0.4571 0
M  V30 16319 H 1530.82 4.11991 2.88569 0
M  V30 16320 H 1530.52 5.56461 1.88746 0
M  V30 16321 H 1532.04 5.42159 2.80885 0
M  V30 16322 H 1533.46 5.70604 0.555295 0
M  V30 16323 H 1531.85 5.9983 -0.179934 0
M  V30 16324 H 1532.92 4.76892 -0.877599 0
M  V30 16325 N 1534.27 0.138579 1.5699 0
M  V30 16326 C 1535.51 -0.517479 1.97741 0
M  V30 16327 C 1535.87 -1.62587 1.02125 0
M  V30 16328 O 1537.07 -2.3422 1.31888 0
M  V30 16329 C 1535.34 -1.01841 3.42583 0
M  V30 16330 S 1536.9 -1.68025 4.05355 0
M  V30 16331 H 1533.72 -0.167594 0.690965 0
M  V30 16332 H 1536.32 0.2283 1.94162 0
M  V30 16333 H 1535.03 -0.200832 4.09908 0
M  V30 16334 H 1534.56 -1.79901 3.49856 0
M  V30 16335 H 1536.57 -2.96708 3.97717 0
M  V30 16336 N 1535.75 -1.57019 -0.13521 0
M  V30 16337 C 1536.69 -1.99148 -1.16657 0
M  V30 16338 C 1537.66 -0.860947 -1.42045 0
M  V30 16339 O 1538.85 -1.12393 -1.54183 0
M  V30 16340 C 1535.99 -2.3872 -2.49212 0
M  V30 16341 C 1535.1 -3.65117 -2.30898 0
M  V30 16342 C 1534.24 -3.9374 -3.5657 0
M  V30 16343 C 1533.27 -5.1337 -3.33343 0
M  V30 16344 N 1532.41 -5.37945 -4.51176 0
M  V30 16345 H 1537.25 -2.87052 -0.800312 0
M  V30 16346 H 1534.79 -1.42007 -0.383705 0
M  V30 16347 H 1536.75 -2.59695 -3.26518 0
M  V30 16348 H 1535.38 -1.53879 -2.83762 0
M  V30 16349 H 1534.43 -3.5185 -1.44588 0
M  V30 16350 H 1535.74 -4.52578 -2.09701 0
M  V30 16351 H 1534.89 -4.15277 -4.423 0
M  V30 16352 H 1533.63 -3.04723 -3.80782 0
M  V30 16353 H 1532.64 -4.91694 -2.46002 0
M  V30 16354 H 1533.86 -6.0395 -3.10517 0
M  V30 16355 H 1531.81 -4.51884 -4.75539 0
M  V30 16356 H 1531.73 -6.19698 -4.33025 0
M  V30 16357 H 1532.99 -5.63989 -5.38086 0
M  V30 16358 N 1537.22 0.404919 -1.52309 0
M  V30 16359 C 1538.45 1.17764 -1.70723 0
M  V30 16360 C 1538.87 1.83403 -0.417744 0
M  V30 16361 O 1538.23 1.70181 0.625157 0
M  V30 16362 C 1538.28 2.2133 -2.84685 0
M  V30 16363 O 1537.38 3.27566 -2.50548 0
M  V30 16364 H 1536.73 0.343572 -0.568203 0
M  V30 16365 H 1539.26 0.474093 -1.99031 0
M  V30 16366 H 1539.27 2.6559 -3.09719 0
M  V30 16367 H 1537.94 1.72939 -3.78239 0
M  V30 16368 H 1536.52 2.88556 -2.36199 0
M  V30 16369 N 1538.7 1.43003 0.662408 0
M  V30 16370 C 1539.67 1.4713 1.75743 0
M  V30 16371 C 1540.67 0.357203 1.56782 0
M  V30 16372 O 1541.86 0.618566 1.62848 0
M  V30 16373 C 1538.99 1.31499 3.14517 0
M  V30 16374 H 1540.18 2.44641 1.73467 0
M  V30 16375 H 1537.73 1.29633 0.873208 0
M  V30 16376 H 1538.47 0.349596 3.2241 0
M  V30 16377 H 1538.25 2.12253 3.29683 0
M  V30 16378 H 1539.74 1.37298 3.94384 0
M  V30 16379 N 1540.18 -0.899904 1.29381 0
M  V30 16380 C 1541.46 -1.63067 1.08021 0
M  V30 16381 C 1541.84 -2.0773 -0.375716 0
M  V30 16382 O 1541.19 -1.83288 -1.36447 0
M  V30 16383 C 1541.4 -2.81163 2.06757 0
M  V30 16384 C 1542.74 -3.51854 2.37664 0
M  V30 16385 O 1543.77 -2.91332 2.0495 0
M  V30 16386 O 1542.63 -4.60962 2.93558 0
M  V30 16387 H 1539.72 -0.71601 0.413835 0
M  V30 16388 H 1542.27 -0.947991 1.40752 0
M  V30 16389 H 1541.04 -2.45355 3.04822 0
M  V30 16390 H 1540.66 -3.57137 1.74754 0
M  V30 16391 N 1541.66 -1.11854 -1.11024 0
M  V30 16392 C 1542.89 -0.891419 -1.86379 0
M  V30 16393 C 1543.3 0.562516 -1.80644 0
M  V30 16394 O 1542.64 1.40037 -1.18893 0
M  V30 16395 C 1542.7 -1.28029 -3.3593 0
M  V30 16396 C 1542.37 -2.74427 -3.65429 0
M  V30 16397 C 1543.36 -3.72636 -3.62545 0
M  V30 16398 C 1541.05 -3.11182 -3.94298 0
M  V30 16399 C 1543.04 -5.05615 -3.88113 0
M  V30 16400 C 1540.73 -4.44345 -4.19524 0
M  V30 16401 C 1541.73 -5.41371 -4.16421 0
M  V30 16402 O 1541.41 -6.72135 -4.41009 0
M  V30 16403 H 1541.15 -0.318813 -0.596099 0
M  V30 16404 H 1543.7 -1.49069 -1.41307 0
M  V30 16405 H 1541.93 -0.624186 -3.81629 0
M  V30 16406 H 1543.62 -1.02827 -3.92659 0
M  V30 16407 H 1544.39 -3.45586 -3.40287 0
M  V30 16408 H 1540.26 -2.36274 -3.95848 0
M  V30 16409 H 1543.81 -5.81338 -3.85606 0
M  V30 16410 H 1539.71 -4.71127 -4.41259 0
M  V30 16411 H 1540.47 -6.77989 -4.58555 0
M  V30 16412 N 1543.14 1.28707 -0.909517 0
M  V30 16413 C 1544.07 2.25665 -0.339165 0
M  V30 16414 C 1545.05 1.52863 0.554222 0
M  V30 16415 O 1546.23 1.8178 0.498829 0
M  V30 16416 C 1543.36 3.34753 0.515592 0
M  V30 16417 C 1542.4 4.25359 -0.31183 0
M  V30 16418 S 1543.24 5.07265 -1.71588 0
M  V30 16419 C 1544.39 6.19848 -0.868312 0
M  V30 16420 H 1544.63 2.73695 -1.16097 0
M  V30 16421 H 1542.16 1.37082 -0.710492 0
M  V30 16422 H 1544.12 3.98059 1.00294 0
M  V30 16423 H 1542.78 2.85399 1.31173 0
M  V30 16424 H 1541.97 5.02841 0.341555 0
M  V30 16425 H 1541.57 3.66753 -0.73268 0
M  V30 16426 H 1543.87 6.77432 -0.0960601 0
M  V30 16427 H 1544.81 6.89424 -1.61554 0
M  V30 16428 H 1545.22 5.62948 -0.418357 0
M  V30 16429 N 1544.61 0.673042 1.42506 0
M  V30 16430 C 1545.56 -0.0180603 2.32593 0
M  V30 16431 C 1546.56 -0.7924 1.49724 0
M  V30 16432 O 1547.76 -0.700563 1.65807 0
M  V30 16433 H 1544.14 -0.0246346 0.751596 0
M  V30 16434 H 1546.11 0.759153 2.88582 0
M  V30 16435 C 1544.86 -0.95676 3.34277 0
M  V30 16436 H 1544.18 -0.370341 3.98081 0
M  V30 16437 H 1545.62 -1.40905 3.99902 0
M  V30 16438 C 1544.08 -2.0623 2.66403 0
M  V30 16439 O 1544.61 -3.14853 2.4946 0
M  V30 16440 N 1542.82 -1.83351 2.25457 0
M  V30 16441 H 1542.36 -0.950141 2.39437 0
M  V30 16442 H 1542.32 -2.57511 1.80375 0
M  V30 16443 N 1546.09 -1.52004 0.416254 0
M  V30 16444 C 1547.02 -2.30106 -0.396671 0
M  V30 16445 C 1548 -1.34616 -1.03983 0
M  V30 16446 O 1549.19 -1.63528 -1.04749 0
M  V30 16447 C 1546.32 -3.12769 -1.50972 0
M  V30 16448 C 1545.27 -4.16365 -0.99119 0
M  V30 16449 C 1544.6 -4.87417 -2.19838 0
M  V30 16450 C 1545.9 -5.22284 -0.0402599 0
M  V30 16451 H 1547.59 -2.98312 0.255054 0
M  V30 16452 H 1545.14 -1.43464 0.124106 0
M  V30 16453 H 1547.09 -3.66178 -2.08547 0
M  V30 16454 H 1545.82 -2.42346 -2.18943 0
M  V30 16455 H 1544.47 -3.63976 -0.437803 0
M  V30 16456 H 1544.12 -4.13516 -2.8638 0
M  V30 16457 H 1543.82 -5.57454 -1.85792 0
M  V30 16458 H 1545.35 -5.43641 -2.78006 0
M  V30 16459 H 1546.76 -5.70891 -0.525027 0
M  V30 16460 H 1545.16 -5.99726 0.211742 0
M  V30 16461 H 1546.23 -4.7642 0.902877 0
M  V30 16462 N 1547.57 -0.146903 -1.56914 0
M  V30 16463 C 1548.52 0.804576 -2.13332 0
M  V30 16464 C 1549.5 1.2095 -1.06112 0
M  V30 16465 O 1550.7 1.17594 -1.3229 0
M  V30 16466 C 1547.83 2.0437 -2.7584 0
M  V30 16467 C 1546.91 1.66188 -3.90183 0
M  V30 16468 N 1547.3 0.988267 -4.96051 0
M  V30 16469 C 1545.6 1.9546 -4.00888 0
M  V30 16470 C 1546.3 0.803957 -5.76118 0
M  V30 16471 N 1545.28 1.33779 -5.26882 0
M  V30 16472 H 1549.08 0.280693 -2.92557 0
M  V30 16473 H 1546.59 0.0546404 -1.62308 0
M  V30 16474 H 1548.59 2.73532 -3.1462 0
M  V30 16475 H 1547.25 2.57276 -1.98089 0
M  V30 16476 H 1548.26 0.64904 -5.13817 0
M  V30 16477 H 1544.94 2.50216 -3.34213 0
M  V30 16478 H 1546.33 0.273065 -6.71345 0
M  V30 16479 N 1549.05 1.57088 0.126881 0
M  V30 16480 C 1550.3 1.84436 0.836048 0
M  V30 16481 C 1550.62 0.730824 1.80248 0
M  V30 16482 O 1549.88 -0.278509 1.93708 0
M  V30 16483 C 1550.18 3.18225 1.62688 0
M  V30 16484 C 1549.84 4.43648 0.80545 0
M  V30 16485 C 1548.51 4.77705 0.578901 0
M  V30 16486 C 1550.86 5.20682 0.232355 0
M  V30 16487 C 1548.19 5.86245 -0.231126 0
M  V30 16488 C 1550.54 6.30073 -0.564819 0
M  V30 16489 C 1549.2 6.62667 -0.801759 0
M  V30 16490 H 1548.47 0.674898 0.305932 0
M  V30 16491 H 1551.12 1.91245 0.0987618 0
M  V30 16492 H 1549.42 3.06956 2.43485 0
M  V30 16493 H 1551.12 3.36604 2.17942 0
M  V30 16494 H 1547.71 4.16959 0.99211 0
M  V30 16495 H 1551.89 4.94729 0.394616 0
M  V30 16496 H 1547.15 6.09928 -0.423998 0
M  V30 16497 H 1551.32 6.8895 -1.01592 0
M  V30 16498 H 1548.95 7.46605 -1.43126 0
M  V30 16499 N 1550.53 -0.396836 1.52522 0
M  V30 16500 C 1551.47 -1.48427 1.76743 0
M  V30 16501 C 1552.44 -1.54481 0.610321 0
M  V30 16502 O 1553.63 -1.7086 0.849201 0
M  V30 16503 C 1550.77 -2.85744 1.93505 0
M  V30 16504 C 1549.88 -2.88904 3.21183 0
M  V30 16505 C 1549.02 -4.17598 3.28307 0
M  V30 16506 C 1548.06 -4.14779 4.50138 0
M  V30 16507 N 1547.19 -5.35065 4.54587 0
M  V30 16508 H 1552.03 -1.27075 2.69548 0
M  V30 16509 H 1549.57 -0.61661 1.33553 0
M  V30 16510 H 1551.53 -3.65474 2.01208 0
M  V30 16511 H 1550.16 -3.05564 1.04069 0
M  V30 16512 H 1549.21 -2.01592 3.22591 0
M  V30 16513 H 1550.52 -2.82688 4.10961 0
M  V30 16514 H 1549.68 -5.05727 3.35149 0
M  V30 16515 H 1548.41 -4.26526 2.36489 0
M  V30 16516 H 1547.42 -3.25039 4.4343 0
M  V30 16517 H 1548.64 -4.07481 5.43264 0
M  V30 16518 H 1546.59 -5.44638 3.65658 0
M  V30 16519 H 1546.51 -5.30894 5.38227 0
M  V30 16520 H 1547.78 -6.25114 4.65675 0
M  V30 16521 N 1552.01 -1.43353 -0.654814 0
M  V30 16522 C 1553.25 -1.451 -1.41682 0
M  V30 16523 C 1553.58 -0.0743864 -1.94057 0
M  V30 16524 O 1552.86 0.904515 -1.72188 0
M  V30 16525 C 1553.14 -2.49204 -2.59941 0
M  V30 16526 C 1553 -3.96134 -2.13069 0
M  V30 16527 C 1554.31 -2.50064 -3.62155 0
M  V30 16528 H 1551.43 -0.528339 -0.513836 0
M  V30 16529 H 1554.08 -1.74892 -0.742489 0
M  V30 16530 H 1552.23 -2.2393 -3.1747 0
M  V30 16531 H 1553.9 -4.32459 -1.60552 0
M  V30 16532 H 1552.14 -4.09042 -1.44455 0
M  V30 16533 H 1552.81 -4.64585 -2.98101 0
M  V30 16534 H 1555.29 -2.72587 -3.14382 0
M  V30 16535 H 1554.16 -3.24849 -4.42452 0
M  V30 16536 H 1554.42 -1.53385 -4.14639 0
M  V30 16537 N 1553.48 0.89303 -1.29857 0
M  V30 16538 C 1554.43 1.9979 -1.15554 0
M  V30 16539 C 1555.4 1.66033 -0.0471157 0
M  V30 16540 O 1556.59 1.89575 -0.215846 0
M  V30 16541 C 1553.73 3.34595 -0.844993 0
M  V30 16542 C 1552.84 3.81093 -2.03451 0
M  V30 16543 C 1551.97 5.04506 -1.66275 0
M  V30 16544 C 1551.01 5.4339 -2.8177 0
M  V30 16545 N 1550.15 6.57987 -2.44945 0
M  V30 16546 H 1554.99 2.11355 -2.10079 0
M  V30 16547 H 1552.53 1.03497 -1.04531 0
M  V30 16548 H 1554.48 4.12175 -0.645598 0
M  V30 16549 H 1553.11 3.22738 0.0633626 0
M  V30 16550 H 1552.17 2.99491 -2.34541 0
M  V30 16551 H 1553.48 4.05855 -2.8997 0
M  V30 16552 H 1552.63 5.89688 -1.42664 0
M  V30 16553 H 1551.37 4.81597 -0.769144 0
M  V30 16554 H 1550.38 4.56738 -3.06056 0
M  V30 16555 H 1551.6 5.68276 -3.71805 0
M  V30 16556 H 1549.55 6.36669 -1.58079 0
M  V30 16557 H 1549.46 6.82579 -3.24996 0
M  V30 16558 H 1550.73 7.46421 -2.24669 0
M  V30 16559 N 1554.96 1.12442 1.10429 0
M  V30 16560 C 1556.21 0.890989 1.82847 0
M  V30 16561 C 1556.56 -0.576982 1.83545 0
M  V30 16562 O 1555.86 -1.42106 1.28516 0
M  V30 16563 C 1556.05 1.39976 3.28849 0
M  V30 16564 C 1555.88 2.91567 3.42373 0
M  V30 16565 C 1554.65 3.59803 3.54781 0
M  V30 16566 C 1556.85 3.89566 3.35772 0
M  V30 16567 N 1554.83 4.99508 3.56882 0
M  V30 16568 C 1556.2 5.154 3.44619 0
M  V30 16569 C 1558.25 3.81977 3.19372 0
M  V30 16570 C 1556.96 6.34537 3.38756 0
M  V30 16571 C 1558.98 5.00636 3.1483 0
M  V30 16572 C 1558.35 6.25328 3.24259 0
M  V30 16573 H 1554.44 0.379313 0.683846 0
M  V30 16574 H 1557.03 1.43073 1.32054 0
M  V30 16575 H 1555.2 0.887076 3.78134 0
M  V30 16576 H 1556.93 1.1084 3.89226 0
M  V30 16577 H 1553.69 3.10295 3.5779 0
M  V30 16578 H 1554.11 5.72376 3.61544 0
M  V30 16579 H 1558.75 2.86468 3.1096 0
M  V30 16580 H 1556.47 7.30312 3.45934 0
M  V30 16581 H 1560.06 4.96494 3.03291 0
M  V30 16582 H 1558.94 7.15605 3.20747 0
M  V30 16583 N 1556.44 -1.28223 0.91633 0
M  V30 16584 C 1557.37 -2.29623 0.423735 0
M  V30 16585 C 1558.35 -1.62274 -0.510016 0
M  V30 16586 O 1559.54 -1.89666 -0.4172 0
M  V30 16587 C 1556.67 -3.45684 -0.334686 0
M  V30 16588 C 1555.62 -4.24949 0.510169 0
M  V30 16589 C 1554.95 -5.33371 -0.376745 0
M  V30 16590 C 1556.25 -4.91438 1.76877 0
M  V30 16591 H 1557.94 -2.71076 1.27115 0
M  V30 16592 H 1555.49 -1.30316 0.612678 0
M  V30 16593 H 1557.44 -4.1571 -0.690154 0
M  V30 16594 H 1556.16 -3.03118 -1.21603 0
M  V30 16595 H 1554.82 -3.56653 0.848191 0
M  V30 16596 H 1554.47 -4.87048 -1.25671 0
M  V30 16597 H 1554.17 -5.87309 0.18496 0
M  V30 16598 H 1555.69 -6.06244 -0.728039 0
M  V30 16599 H 1557.11 -5.53812 1.48205 0
M  V30 16600 H 1555.5 -5.55384 2.27308 0
M  V30 16601 H 1556.57 -4.15783 2.49505 0
M  V30 16602 N 1557.92 -0.68059 -1.42147 0
M  V30 16603 C 1558.87 0.0170117 -2.27994 0
M  V30 16604 C 1559.85 0.767809 -1.41398 0
M  V30 16605 O 1561.04 0.645767 -1.64799 0
M  V30 16606 C 1558.17 0.963439 -3.29504 0
M  V30 16607 C 1557.26 0.20968 -4.23581 0
M  V30 16608 N 1557.65 -0.788543 -4.99615 0
M  V30 16609 C 1555.95 0.447304 -4.43751 0
M  V30 16610 C 1556.65 -1.23842 -5.68364 0
M  V30 16611 N 1555.62 -0.567238 -5.40632 0
M  V30 16612 H 1559.43 -0.748567 -2.84207 0
M  V30 16613 H 1556.94 -0.510145 -1.54179 0
M  V30 16614 H 1558.94 1.47823 -3.89813 0
M  V30 16615 H 1557.6 1.72878 -2.74851 0
M  V30 16616 H 1558.61 -1.16828 -5.04551 0
M  V30 16617 H 1555.29 1.1917 -4.00131 0
M  V30 16618 H 1556.68 -2.06593 -6.39351 0
M  V30 16619 N 1559.4 1.51781 -0.424309 0
M  V30 16620 C 1560.34 2.2899 0.408193 0
M  V30 16621 C 1561.34 1.34301 1.03246 0
M  V30 16622 O 1562.54 1.51697 0.968919 0
M  V30 16623 H 1558.92 0.736799 0.150435 0
M  V30 16624 H 1560.89 2.9723 -0.264022 0
M  V30 16625 C 1559.64 3.13477 1.50425 0
M  V30 16626 H 1558.96 3.86218 1.03324 0
M  V30 16627 H 1560.4 3.7058 2.06026 0
M  V30 16628 C 1558.86 2.2801 2.48018 0
M  V30 16629 O 1559.39 1.93076 3.52257 0
M  V30 16630 N 1557.6 1.91484 2.18591 0
M  V30 16631 H 1557.14 2.20093 1.33854 0
M  V30 16632 H 1557.1 1.34595 2.84133 0
M  V30 16633 N 1560.87 0.155222 1.56834 0
M  V30 16634 C 1561.78 -0.794179 2.20749 0
M  V30 16635 C 1562.8 -1.26546 1.19424 0
M  V30 16636 O 1563.98 -1.32094 1.5203 0
M  V30 16637 C 1561.04 -2.01261 2.82303 0
M  V30 16638 C 1560.1 -1.58976 3.98779 0
M  V30 16639 C 1559.33 -2.75011 4.57389 0
M  V30 16640 O 1559.56 -3.91449 4.14879 0
M  V30 16641 O 1558.49 -2.50011 5.4752 0
M  V30 16642 H 1562.32 -0.280064 3.02406 0
M  V30 16643 H 1559.9 -0.0722048 1.49225 0
M  V30 16644 H 1561.78 -2.72551 3.21394 0
M  V30 16645 H 1560.46 -2.51609 2.03653 0
M  V30 16646 H 1559.37 -0.846848 3.64389 0
M  V30 16647 H 1560.7 -1.13336 4.78974 0
M  V30 16648 N 1562.35 -1.57153 -0.118549 0
M  V30 16649 C 1563.58 -1.88788 -0.83921 0
M  V30 16650 C 1563.99 -0.744621 -1.73931 0
M  V30 16651 O 1563.33 0.293567 -1.81339 0
M  V30 16652 C 1563.39 -3.15441 -1.72446 0
M  V30 16653 C 1563.06 -4.45956 -0.998613 0
M  V30 16654 C 1564.06 -5.18792 -0.339214 0
M  V30 16655 C 1561.74 -4.92654 -0.979657 0
M  V30 16656 C 1563.73 -6.36548 0.329438 0
M  V30 16657 C 1561.42 -6.10327 -0.307207 0
M  V30 16658 C 1562.42 -6.82122 0.346185 0
M  V30 16659 O 1562.11 -7.97557 1.0079 0
M  V30 16660 H 1561.84 -0.629445 -0.246526 0
M  V30 16661 H 1564.39 -2.05119 -0.10736 0
M  V30 16662 H 1562.62 -2.95193 -2.49796 0
M  V30 16663 H 1564.31 -3.33092 -2.31958 0
M  V30 16664 H 1565.08 -4.83768 -0.345475 0
M  V30 16665 H 1560.96 -4.36676 -1.47766 0
M  V30 16666 H 1564.5 -6.92524 0.840013 0
M  V30 16667 H 1560.4 -6.44808 -0.29871 0
M  V30 16668 H 1561.17 -8.13398 0.912427 0
M  V30 16669 N 1563.83 0.388742 -1.5273 0
M  V30 16670 C 1565.08 1.13543 -1.68035 0
M  V30 16671 C 1565.41 1.89622 -0.419177 0
M  V30 16672 O 1564.68 1.85556 0.583031 0
M  V30 16673 C 1564.97 2.11346 -2.91556 0
M  V30 16674 C 1564.82 1.39029 -4.27775 0
M  V30 16675 C 1566.14 3.11769 -3.10625 0
M  V30 16676 H 1563.26 0.411406 -0.611485 0
M  V30 16677 H 1565.9 0.418781 -1.85327 0
M  V30 16678 H 1564.05 2.7246 -2.76944 0
M  V30 16679 H 1565.72 0.808775 -4.54155 0
M  V30 16680 H 1563.96 0.692133 -4.28243 0
M  V30 16681 H 1564.64 2.10495 -5.1029 0
M  V30 16682 H 1567.11 2.60745 -3.2427 0
M  V30 16683 H 1565.99 3.77447 -3.98529 0
M  V30 16684 H 1566.25 3.80649 -2.24853 0
M  V30 16685 N 1565.31 1.43698 0.647203 0
M  V30 16686 C 1566.72 1.27231 0.963563 0
M  V30 16687 C 1566.92 0.196385 2.00541 0
M  V30 16688 O 1565.98 -0.423162 2.48929 0
M  V30 16689 C 1567.29 2.63863 1.44211 0
M  V30 16690 C 1568.84 2.71444 1.55844 0
M  V30 16691 C 1569.32 4.08508 2.07087 0
M  V30 16692 N 1570.81 4.10603 2.14381 0
M  V30 16693 C 1571.54 5.13496 2.55166 0
M  V30 16694 N 1571.04 6.26759 2.95203 0
M  V30 16695 N 1572.83 5.0085 2.55158 0
M  V30 16696 H 1564.98 2.12358 -0.0420956 0
M  V30 16697 H 1567.24 0.946989 0.0437628 0
M  V30 16698 H 1566.95 3.43589 0.75096 0
M  V30 16699 H 1566.82 2.89666 2.41605 0
M  V30 16700 H 1569.21 1.92046 2.24058 0
M  V30 16701 H 1569.29 2.49399 0.56866 0
M  V30 16702 H 1568.94 4.88375 1.39472 0
M  V30 16703 H 1568.87 4.2792 3.06907 0
M  V30 16704 H 1571.36 3.2885 1.86188 0
M  V30 16705 H 1571.67 7.01096 3.25091 0
M  V30 16706 H 1570.02 6.30222 2.92993 0
M  V30 16707 H 1573.21 4.11428 2.2326 0
M  V30 16708 H 1573.38 5.81165 2.86621 0
M  V30 16709 N 1566.79 -0.886131 1.30328 0
M  V30 16710 C 1568.06 -1.61912 1.09744 0
M  V30 16711 C 1568.44 -2.08116 -0.353663 0
M  V30 16712 O 1567.79 -1.84725 -1.34495 0
M  V30 16713 C 1568 -2.78954 2.09727 0
M  V30 16714 C 1569.35 -3.49313 2.41382 0
M  V30 16715 O 1570.37 -2.89141 2.08028 0
M  V30 16716 O 1569.23 -4.57823 2.98431 0
M  V30 16717 H 1566.33 -0.71158 0.421406 0
M  V30 16718 H 1568.87 -0.933009 1.4175 0
M  V30 16719 H 1567.64 -2.42109 3.07407 0
M  V30 16720 H 1567.27 -3.55263 1.78532 0
M  V30 16721 N 1568.26 -1.13026 -1.09832 0
M  V30 16722 C 1569.19 -0.826338 -2.18389 0
M  V30 16723 C 1570.18 0.212529 -1.68767 0
M  V30 16724 O 1571.36 0.072363 -1.94065 0
M  V30 16725 C 1568.49 -0.286991 -3.46112 0
M  V30 16726 C 1567.44 -1.25963 -4.09044 0
M  V30 16727 C 1566.77 -0.580231 -5.31542 0
M  V30 16728 C 1568.07 -2.61661 -4.5203 0
M  V30 16729 H 1569.76 -1.73408 -2.4407 0
M  V30 16730 H 1567.31 -0.835201 -1.17305 0
M  V30 16731 H 1569.26 -0.062067 -4.21354 0
M  V30 16732 H 1567.99 0.656121 -3.19942 0
M  V30 16733 H 1566.65 -1.47047 -3.35816 0
M  V30 16734 H 1566.29 0.368222 -5.0165 0
M  V30 16735 H 1565.99 -1.2291 -5.74601 0
M  V30 16736 H 1567.52 -0.36449 -6.09511 0
M  V30 16737 H 1568.93 -2.44569 -5.18516 0
M  V30 16738 H 1567.33 -3.22685 -5.05959 0
M  V30 16739 H 1568.4 -3.19637 -3.64637 0
M  V30 16740 N 1569.74 1.27735 -0.923117 0
M  V30 16741 C 1571.15 1.76579 -0.606376 0
M  V30 16742 C 1571.5 1.75437 0.878428 0
M  V30 16743 O 1570.63 1.35495 1.68731 0
M  V30 16744 C 1571.22 3.20652 -1.09396 0
M  V30 16745 C 1569.78 3.67181 -0.827974 0
M  V30 16746 C 1568.93 2.47259 -1.25532 0
M  V30 16747 H 1571.88 1.14067 -1.10338 0
M  V30 16748 H 1571.9 3.77952 -0.439581 0
M  V30 16749 H 1571.41 3.21451 -2.17465 0
M  V30 16750 H 1569.52 3.71832 0.239098 0
M  V30 16751 H 1569.63 4.56875 -1.44229 0
M  V30 16752 H 1567.99 2.45622 -0.673928 0
M  V30 16753 H 1568.78 2.50771 -2.34455 0
M  V30 16754 N 1571.22 0.688118 1.41784 0
M  V30 16755 C 1572.18 0.0271411 2.29184 0
M  V30 16756 C 1573.18 -0.715537 1.44002 0
M  V30 16757 O 1574.37 -0.551542 1.65238 0
M  V30 16758 C 1571.51 -0.97206 3.26747 0
M  V30 16759 H 1572.7 0.79658 2.89127 0
M  V30 16760 H 1570.25 0.451198 1.49646 0
M  V30 16761 H 1570.99 -1.76953 2.71769 0
M  V30 16762 H 1570.77 -0.442746 3.89592 0
M  V30 16763 H 1572.26 -1.43256 3.92259 0
M  V30 16764 N 1572.7 -1.51554 0.432352 0
M  V30 16765 C 1573.63 -2.30514 -0.372243 0
M  V30 16766 C 1574.61 -1.35712 -1.02549 0
M  V30 16767 O 1575.79 -1.6463 -1.03009 0
M  V30 16768 C 1572.92 -3.14353 -1.47646 0
M  V30 16769 C 1571.88 -4.17392 -0.946974 0
M  V30 16770 C 1571.2 -4.89721 -2.14656 0
M  V30 16771 C 1572.5 -5.22298 0.0151377 0
M  V30 16772 H 1574.2 -2.98024 0.28668 0
M  V30 16773 H 1571.74 -1.43325 0.139315 0
M  V30 16774 H 1573.7 -3.68369 -2.04651 0
M  V30 16775 H 1572.42 -2.44654 -2.1636 0
M  V30 16776 H 1571.08 -3.6442 -0.399174 0
M  V30 16777 H 1570.73 -4.1653 -2.81978 0
M  V30 16778 H 1570.43 -5.59393 -1.79869 0
M  V30 16779 H 1571.95 -5.46559 -2.72224 0
M  V30 16780 H 1573.37 -5.71416 -0.464447 0
M  V30 16781 H 1571.76 -5.99468 0.275339 0
M  V30 16782 H 1572.83 -4.75436 0.953357 0
M  V30 16783 N 1574.18 -0.163538 -1.56749 0
M  V30 16784 C 1575.11 0.801071 -2.14745 0
M  V30 16785 C 1576.12 1.1992 -1.10104 0
M  V30 16786 O 1577.31 1.14041 -1.37321 0
M  V30 16787 C 1574.41 2.08867 -2.66886 0
M  V30 16788 C 1573.58 1.85532 -3.96102 0
M  V30 16789 C 1572.64 2.98436 -4.33385 0
M  V30 16790 O 1571.67 2.69408 -5.01406 0
M  V30 16791 N 1572.87 4.26029 -3.94309 0
M  V30 16792 H 1575.64 0.3053 -2.98141 0
M  V30 16793 H 1573.2 0.019501 -1.61888 0
M  V30 16794 H 1575.19 2.83477 -2.8883 0
M  V30 16795 H 1573.76 2.49657 -1.88122 0
M  V30 16796 H 1572.98 0.94868 -3.82614 0
M  V30 16797 H 1574.27 1.673 -4.80508 0
M  V30 16798 H 1573.66 4.52475 -3.39533 0
M  V30 16799 H 1572.22 4.97367 -4.21271 0
M  V30 16800 N 1575.65 1.57214 0.110213 0
M  V30 16801 C 1576.9 1.84946 0.814827 0
M  V30 16802 C 1577.22 0.750029 1.79999 0
M  V30 16803 O 1576.49 -0.225164 1.94602 0
M  V30 16804 H 1575.07 0.682385 0.303907 0
M  V30 16805 H 1577.74 1.94666 0.0954415 0
M  V30 16806 H 1576.83 2.81167 1.35469 0
M  V30 16807 N 1577.13 -0.380637 1.52934 0
M  V30 16808 C 1578.06 -1.48518 1.74571 0
M  V30 16809 C 1579.08 -1.50272 0.626263 0
M  V30 16810 O 1580.27 -1.54023 0.902167 0
M  V30 16811 C 1577.37 -2.87339 1.79693 0
M  V30 16812 C 1576.54 -3.09454 3.09123 0
M  V30 16813 C 1575.6 -4.28305 3.05682 0
M  V30 16814 O 1574.62 -4.24205 3.79524 0
M  V30 16815 N 1575.83 -5.34932 2.2545 0
M  V30 16816 H 1578.59 -1.30341 2.69873 0
M  V30 16817 H 1576.15 -0.57023 1.51526 0
M  V30 16818 H 1578.14 -3.64961 1.74887 0
M  V30 16819 H 1576.71 -2.98835 0.917414 0
M  V30 16820 H 1575.93 -2.19623 3.27352 0
M  V30 16821 H 1577.22 -3.21089 3.94689 0
M  V30 16822 H 1576.62 -5.41121 1.64939 0
M  V30 16823 H 1575.18 -6.11189 2.26476 0
M  V30 16824 N 1578.61 -1.44039 -0.639573 0
M  V30 16825 C 1579.86 -1.46594 -1.40136 0
M  V30 16826 C 1580.19 -0.0949646 -1.93968 0
M  V30 16827 O 1579.46 0.886201 -1.73138 0
M  V30 16828 C 1579.75 -2.51947 -2.57283 0
M  V30 16829 C 1579.6 -3.98371 -2.08855 0
M  V30 16830 C 1580.92 -2.53891 -3.59482 0
M  V30 16831 H 1578.04 -0.533759 -0.508203 0
M  V30 16832 H 1580.68 -1.75669 -0.723898 0
M  V30 16833 H 1578.83 -2.27285 -3.15077 0
M  V30 16834 H 1580.5 -4.34137 -1.55956 0
M  V30 16835 H 1578.75 -4.10551 -1.40109 0
M  V30 16836 H 1579.42 -4.67721 -2.93157 0
M  V30 16837 H 1581.89 -2.75906 -3.11473 0
M  V30 16838 H 1580.77 -3.29524 -4.38982 0
M  V30 16839 H 1581.03 -1.57774 -4.12989 0
M  V30 16840 N 1580.09 0.879207 -1.30796 0
M  V30 16841 C 1581.5 1.44705 -1.17972 0
M  V30 16842 C 1581.85 1.94992 0.217381 0
M  V30 16843 O 1580.98 1.85494 1.11449 0
M  V30 16844 C 1581.57 2.6302 -2.13555 0
M  V30 16845 C 1580.13 3.15877 -2.04692 0
M  V30 16846 C 1579.28 1.88576 -2.03309 0
M  V30 16847 H 1582.23 0.688604 -1.42982 0
M  V30 16848 H 1582.25 3.39418 -1.71976 0
M  V30 16849 H 1581.76 2.2639 -3.15229 0
M  V30 16850 H 1579.86 3.57151 -1.0618 0
M  V30 16851 H 1579.97 3.78786 -2.93357 0
M  V30 16852 H 1578.34 2.0715 -1.48192 0
M  V30 16853 H 1579.12 1.54195 -3.06723 0
M  V30 16854 N 1581.57 1.13606 1.09231 0
M  V30 16855 C 1582.48 0.828702 2.19476 0
M  V30 16856 C 1583.49 -0.187499 1.72987 0
M  V30 16857 O 1584.67 -0.0180602 2.01392 0
M  V30 16858 C 1581.73 0.301361 3.45388 0
M  V30 16859 C 1580.8 1.37906 4.06547 0
M  V30 16860 C 1580.03 0.876786 5.26449 0
M  V30 16861 O 1580.25 -0.284896 5.69688 0
M  V30 16862 O 1579.19 1.652 5.78785 0
M  V30 16863 H 1583.01 1.74982 2.48223 0
M  V30 16864 H 1580.6 0.913673 1.18205 0
M  V30 16865 H 1582.48 0.0127792 4.21398 0
M  V30 16866 H 1581.15 -0.592149 3.18238 0
M  V30 16867 H 1580.06 1.72098 3.32164 0
M  V30 16868 H 1581.39 2.24678 4.37927 0
M  V30 16869 N 1583.05 -1.27244 0.929878 0
M  V30 16870 C 1584.28 -1.98086 0.586993 0
M  V30 16871 C 1584.68 -1.69541 -0.839799 0
M  V30 16872 O 1584.03 -0.953724 -1.57003 0
M  V30 16873 C 1584.09 -3.51893 0.735656 0
M  V30 16874 C 1583.75 -4.04064 2.13497 0
M  V30 16875 C 1584.75 -4.16671 3.10936 0
M  V30 16876 C 1582.43 -4.38358 2.4525 0
M  V30 16877 C 1584.43 -4.62849 4.38235 0
M  V30 16878 C 1582.12 -4.84226 3.72785 0
M  V30 16879 C 1583.11 -4.96431 4.6909 0
M  V30 16880 O 1582.8 -5.41292 5.94355 0
M  V30 16881 H 1582.53 -0.638845 0.221027 0
M  V30 16882 H 1585.09 -1.63006 1.24973 0
M  V30 16883 H 1583.32 -3.86697 0.0158117 0
M  V30 16884 H 1585.01 -4.03949 0.397505 0
M  V30 16885 H 1585.77 -3.90434 2.87726 0
M  V30 16886 H 1581.65 -4.28099 1.71032 0
M  V30 16887 H 1585.2 -4.7229 5.13408 0
M  V30 16888 H 1581.09 -5.09905 3.95812 0
M  V30 16889 H 1581.86 -5.59541 5.97375 0
M  V30 16890 N 1584.52 -0.695628 -1.41417 0
M  V30 16891 C 1585.93 -0.3014 -1.84251 0
M  V30 16892 C 1586.29 1.16042 -1.58204 0
M  V30 16893 O 1585.41 1.89079 -1.05253 0
M  V30 16894 C 1586.01 -0.540256 -3.34465 0
M  V30 16895 C 1584.56 -0.199944 -3.75869 0
M  V30 16896 C 1583.71 -0.822511 -2.64821 0
M  V30 16897 H 1586.66 -0.896278 -1.30968 0
M  V30 16898 H 1586.68 0.201019 -3.79969 0
M  V30 16899 H 1586.2 -1.60427 -3.53391 0
M  V30 16900 H 1584.3 0.859798 -3.62544 0
M  V30 16901 H 1584.41 -0.655005 -4.74601 0
M  V30 16902 H 1582.77 -0.252109 -2.53449 0
M  V30 16903 H 1583.56 -1.89039 -2.86564 0
M  V30 16904 N 1586 1.51322 -0.440383 0
M  V30 16905 C 1586.96 2.26388 0.357911 0
M  V30 16906 C 1587.96 1.2995 0.947083 0
M  V30 16907 O 1589.15 1.53637 0.821057 0
M  V30 16908 C 1586.29 3.05797 1.50669 0
M  V30 16909 H 1587.48 2.98396 -0.300002 0
M  V30 16910 H 1585.03 1.55096 -0.193628 0
M  V30 16911 H 1585.77 2.38213 2.20057 0
M  V30 16912 H 1585.55 3.76634 1.09037 0
M  V30 16913 H 1587.04 3.6265 2.07062 0
M  V30 16914 N 1587.48 0.171848 1.5666 0
M  V30 16915 C 1588.73 -0.467156 1.97963 0
M  V30 16916 C 1589.08 -1.60824 1.05609 0
M  V30 16917 O 1588.37 -1.9136 0.0958638 0
M  V30 16918 C 1588.57 -0.99711 3.43209 0
M  V30 16919 C 1588.4 0.0910934 4.49608 0
M  V30 16920 C 1587.17 0.540935 5.02396 0
M  V30 16921 C 1589.36 0.891679 5.06511 0
M  V30 16922 N 1587.35 1.60939 5.92429 0
M  V30 16923 C 1588.72 1.81005 5.9299 0
M  V30 16924 C 1590.77 0.9367 4.8901 0
M  V30 16925 C 1589.48 2.76964 6.6384 0
M  V30 16926 C 1591.5 1.88423 5.60581 0
M  V30 16927 C 1590.86 2.79008 6.46787 0
M  V30 16928 H 1586.96 -0.139033 0.769541 0
M  V30 16929 H 1589.55 0.272188 1.92788 0
M  V30 16930 H 1587.72 -1.70597 3.48929 0
M  V30 16931 H 1589.45 -1.60479 3.71522 0
M  V30 16932 H 1586.2 0.138545 4.73397 0
M  V30 16933 H 1586.63 2.14412 6.4215 0
M  V30 16934 H 1591.27 0.250396 4.22058 0
M  V30 16935 H 1588.99 3.46582 7.30005 0
M  V30 16936 H 1592.57 1.92518 5.49025 0
M  V30 16937 H 1591.45 3.51133 7.01196 0
M  V30 16938 N 1588.96 -1.5727 -0.101874 0
M  V30 16939 C 1590.2 -1.85742 -0.8066 0
M  V30 16940 C 1590.53 -0.759408 -1.79062 0
M  V30 16941 O 1589.79 0.247657 -1.94127 0
M  V30 16942 C 1590.09 -3.20773 -1.57605 0
M  V30 16943 C 1589.75 -4.44873 -0.734768 0
M  V30 16944 C 1588.41 -4.78566 -0.502829 0
M  V30 16945 C 1590.77 -5.20986 -0.14949 0
M  V30 16946 C 1588.09 -5.85803 0.324363 0
M  V30 16947 C 1590.45 -6.29095 0.664987 0
M  V30 16948 C 1589.11 -6.61308 0.907082 0
M  V30 16949 H 1588.38 -0.679679 -0.295156 0
M  V30 16950 H 1591.03 -1.91378 -0.0683238 0
M  V30 16951 H 1589.33 -3.10791 -2.38571 0
M  V30 16952 H 1591.03 -3.40029 -2.12559 0
M  V30 16953 H 1587.62 -4.18485 -0.92565 0
M  V30 16954 H 1591.8 -4.95294 -0.315859 0
M  V30 16955 H 1587.06 -6.09176 0.520978 0
M  V30 16956 H 1591.23 -6.87246 1.1254 0
M  V30 16957 H 1588.86 -7.44234 1.54986 0
M  V30 16958 N 1590.44 0.372521 -1.53134 0
M  V30 16959 C 1591.35 1.47994 -1.8203 0
M  V30 16960 C 1592.36 1.58937 -0.708179 0
M  V30 16961 O 1593.54 1.74962 -0.997511 0
M  V30 16962 C 1590.6 2.83342 -1.99796 0
M  V30 16963 C 1589.66 2.81984 -3.23702 0
M  V30 16964 C 1588.9 4.10877 -3.40611 0
M  V30 16965 O 1589.12 5.06686 -2.61964 0
M  V30 16966 O 1588.05 4.17111 -4.33938 0
M  V30 16967 H 1591.88 1.26501 -2.761 0
M  V30 16968 H 1589.46 0.561957 -1.38428 0
M  V30 16969 H 1591.35 3.63551 -2.13092 0
M  V30 16970 H 1590.02 3.04826 -1.08916 0
M  V30 16971 H 1588.93 2.00498 -3.15834 0
M  V30 16972 H 1590.26 2.65453 -4.14482 0
M  V30 16973 N 1591.91 1.44376 0.631925 0
M  V30 16974 C 1592.85 1.47167 1.75711 0
M  V30 16975 C 1593.86 0.365158 1.58652 0
M  V30 16976 O 1595.05 0.630852 1.66981 0
M  V30 16977 C 1592.15 1.28916 3.13423 0
M  V30 16978 C 1591.32 2.52798 3.56948 0
M  V30 16979 C 1590.38 2.29458 4.73535 0
M  V30 16980 O 1589.41 3.02941 4.81887 0
M  V30 16981 N 1590.61 1.32467 5.65184 0
M  V30 16982 H 1593.37 2.44168 1.73788 0
M  V30 16983 H 1590.93 1.39805 0.816465 0
M  V30 16984 H 1592.93 1.1115 3.89137 0
M  V30 16985 H 1591.5 0.402828 3.09994 0
M  V30 16986 H 1590.72 2.85846 2.71451 0
M  V30 16987 H 1592 3.35198 3.82779 0
M  V30 16988 H 1591.4 0.717762 5.61128 0
M  V30 16989 H 1589.96 1.2068 6.40531 0
M  V30 16990 N 1593.39 -0.872258 1.31261 0
M  V30 16991 C 1594.64 -1.62511 1.20815 0
M  V30 16992 C 1594.97 -1.93084 -0.234231 0
M  V30 16993 O 1594.22 -1.55945 -1.18236 0
M  V30 16994 C 1594.52 -2.96524 1.9952 0
M  V30 16995 C 1594.19 -2.85453 3.49038 0
M  V30 16996 C 1592.85 -2.8214 3.89808 0
M  V30 16997 C 1595.2 -2.72654 4.44195 0
M  V30 16998 C 1592.53 -2.63885 5.24005 0
M  V30 16999 C 1594.88 -2.55936 5.78515 0
M  V30 17000 C 1593.54 -2.51005 6.18508 0
M  V30 17001 H 1592.81 -0.594672 0.442093 0
M  V30 17002 H 1595.46 -1.01319 1.62501 0
M  V30 17003 H 1593.77 -3.61739 1.50507 0
M  V30 17004 H 1595.46 -3.53763 1.8882 0
M  V30 17005 H 1592.05 -2.88847 3.16647 0
M  V30 17006 H 1596.24 -2.7427 4.1363 0
M  V30 17007 H 1591.49 -2.58491 5.54069 0
M  V30 17008 H 1595.67 -2.45009 6.51877 0
M  V30 17009 H 1593.29 -2.36619 7.22437 0
M  V30 17010 N 1594.87 -1.14184 -1.08627 0
M  V30 17011 C 1596.12 -0.91001 -1.81236 0
M  V30 17012 C 1596.45 0.562134 -1.85886 0
M  V30 17013 O 1595.72 1.41631 -1.33307 0
M  V30 17014 C 1596.01 -1.50879 -3.26967 0
M  V30 17015 C 1595.86 -3.05063 -3.3054 0
M  V30 17016 C 1597.18 -1.18379 -4.2388 0
M  V30 17017 H 1594.3 -0.332025 -0.657973 0
M  V30 17018 H 1596.94 -1.41144 -1.27194 0
M  V30 17019 H 1595.09 -1.08236 -3.73118 0
M  V30 17020 H 1596.76 -3.5652 -2.9273 0
M  V30 17021 H 1595 -3.39628 -2.6988 0
M  V30 17022 H 1595.68 -3.42064 -4.33239 0
M  V30 17023 H 1598.15 -1.55242 -3.86056 0
M  V30 17024 H 1597.03 -1.62911 -5.24167 0
M  V30 17025 H 1597.29 -0.0987385 -4.4199 0
M  V30 17026 N 1596.35 1.26749 -0.936613 0
M  V30 17027 C 1597.28 2.2892 -0.460213 0
M  V30 17028 C 1598.26 1.63065 0.484135 0
M  V30 17029 O 1599.44 1.90305 0.386973 0
M  V30 17030 C 1596.57 3.46172 0.279648 0
M  V30 17031 C 1595.53 4.24083 -0.57771 0
M  V30 17032 C 1594.85 5.33903 0.291843 0
M  V30 17033 C 1596.15 4.88562 -1.84673 0
M  V30 17034 H 1597.85 2.69019 -1.31412 0
M  V30 17035 H 1595.39 1.29325 -0.633333 0
M  V30 17036 H 1597.35 4.16755 0.623931 0
M  V30 17037 H 1596.07 3.05014 1.16765 0
M  V30 17038 H 1594.73 3.55258 -0.904824 0
M  V30 17039 H 1594.38 4.88986 1.17906 0
M  V30 17040 H 1594.08 5.8694 -0.278372 0
M  V30 17041 H 1595.6 6.07326 0.631498 0
M  V30 17042 H 1597.02 5.51384 -1.56997 0
M  V30 17043 H 1595.41 5.51697 -2.36115 0
M  V30 17044 H 1596.48 4.11761 -2.56088 0
M  V30 17045 N 1597.83 0.703118 1.41046 0
M  V30 17046 C 1598.76 0.00331992 2.292 0
M  V30 17047 C 1599.77 -0.736648 1.4518 0
M  V30 17048 O 1600.96 -0.586097 1.68604 0
M  V30 17049 C 1598.06 -1.01948 3.23203 0
M  V30 17050 C 1597.23 -0.347591 4.36017 0
M  V30 17051 C 1596.29 -1.27404 5.10543 0
M  V30 17052 O 1595.32 -0.763558 5.64055 0
M  V30 17053 N 1596.52 -2.60596 5.1872 0
M  V30 17054 H 1599.29 0.760179 2.89899 0
M  V30 17055 H 1596.85 0.549747 1.52281 0
M  V30 17056 H 1598.84 -1.64115 3.6993 0
M  V30 17057 H 1597.41 -1.6778 2.63758 0
M  V30 17058 H 1596.63 0.454088 3.91576 0
M  V30 17059 H 1597.92 0.119295 5.0866 0
M  V30 17060 H 1597.31 -3.0458 4.76705 0
M  V30 17061 H 1595.87 -3.17939 5.68998 0
M  V30 17062 N 1599.3 -1.51086 0.448402 0
M  V30 17063 C 1600.55 -2.0312 -0.106726 0
M  V30 17064 C 1600.91 -1.3259 -1.39419 0
M  V30 17065 O 1600.2 -0.435501 -1.86585 0
M  V30 17066 C 1600.39 -3.55488 -0.369232 0
M  V30 17067 C 1600.22 -4.4078 0.891233 0
M  V30 17068 C 1598.99 -4.84703 1.42798 0
M  V30 17069 C 1601.19 -4.82498 1.78044 0
M  V30 17070 N 1599.17 -5.54243 2.63984 0
M  V30 17071 C 1600.54 -5.51218 2.83828 0
M  V30 17072 C 1602.6 -4.64474 1.79354 0
M  V30 17073 C 1601.3 -6.03825 3.90881 0
M  V30 17074 C 1603.33 -5.18005 2.8535 0
M  V30 17075 C 1602.69 -5.86681 3.89853 0
M  V30 17076 H 1598.79 -0.782 0.000394759 0
M  V30 17077 H 1601.37 -1.84846 0.611546 0
M  V30 17078 H 1599.54 -3.73754 -1.05654 0
M  V30 17079 H 1601.27 -3.94181 -0.916694 0
M  V30 17080 H 1598.03 -4.63343 0.980339 0
M  V30 17081 H 1598.45 -5.93634 3.25465 0
M  V30 17082 H 1603.1 -4.10832 0.998865 0
M  V30 17083 H 1600.81 -6.56517 4.7118 0
M  V30 17084 H 1604.4 -5.05905 2.87318 0
M  V30 17085 H 1603.28 -6.27358 4.70522 0
M  V30 17086 N 1600.78 -0.180154 -1.56567 0
M  V30 17087 C 1601.71 0.742131 -2.21393 0
M  V30 17088 C 1602.69 1.23253 -1.1723 0
M  V30 17089 O 1603.88 1.28408 -1.45688 0
M  V30 17090 C 1601.01 1.96799 -2.8616 0
M  V30 17091 C 1599.96 1.6131 -3.96438 0
M  V30 17092 C 1599.29 2.91434 -4.48297 0
M  V30 17093 C 1600.59 0.834382 -5.15592 0
M  V30 17094 H 1602.28 0.201759 -2.98719 0
M  V30 17095 H 1599.83 0.0956016 -1.43682 0
M  V30 17096 H 1601.78 2.61828 -3.30188 0
M  V30 17097 H 1600.51 2.53264 -2.06215 0
M  V30 17098 H 1599.16 0.986451 -3.53079 0
M  V30 17099 H 1598.81 3.45958 -3.65133 0
M  V30 17100 H 1598.51 2.68439 -5.22699 0
M  V30 17101 H 1600.04 3.57478 -4.95017 0
M  V30 17102 H 1601.45 1.38745 -5.56258 0
M  V30 17103 H 1599.85 0.703132 -5.95966 0
M  V30 17104 H 1600.92 -0.167554 -4.8461 0
M  V30 17105 N 1602.26 1.57322 0.0935319 0
M  V30 17106 C 1603.54 1.77187 0.828503 0
M  V30 17107 C 1603.92 0.762216 1.96859 0
M  V30 17108 O 1603.27 -0.208982 2.27542 0
M  V30 17109 C 1603.48 3.23007 1.32163 0
M  V30 17110 C 1604.82 3.86233 1.76379 0
M  V30 17111 O 1605.85 3.26766 1.41783 0
M  V30 17112 O 1604.71 4.90808 2.40354 0
M  V30 17113 H 1601.8 0.726401 0.395311 0
M  V30 17114 H 1604.35 1.69533 0.0752924 0
M  V30 17115 H 1603.12 3.88029 0.504863 0
M  V30 17116 H 1602.74 3.353 2.13681 0
M  V30 17117 N 1603.74 -0.364395 1.53329 0
M  V30 17118 C 1604.65 -1.47027 1.82812 0
M  V30 17119 C 1605.66 -1.58559 0.716598 0
M  V30 17120 O 1606.84 -1.7443 1.00678 0
M  V30 17121 C 1603.91 -2.82278 2.01295 0
M  V30 17122 C 1602.97 -2.80264 3.25193 0
M  V30 17123 C 1602.2 -4.09065 3.42785 0
M  V30 17124 O 1602.42 -5.0529 2.64648 0
M  V30 17125 O 1601.36 -4.14804 4.36144 0
M  V30 17126 H 1605.18 -1.25035 2.76767 0
M  V30 17127 H 1602.77 -0.554608 1.38724 0
M  V30 17128 H 1604.65 -3.62416 2.15017 0
M  V30 17129 H 1603.32 -3.04244 1.10531 0
M  V30 17130 H 1602.23 -1.9882 3.16893 0
M  V30 17131 H 1603.56 -2.63252 4.15884 0
M  V30 17132 N 1605.22 -1.44709 -0.62426 0
M  V30 17133 C 1606.16 -1.52413 -1.75707 0
M  V30 17134 C 1607.16 -0.395303 -1.64723 0
M  V30 17135 O 1608.36 -0.570535 -1.70719 0
M  V30 17136 H 1604.74 -0.478401 -0.580204 0
M  V30 17137 H 1606.71 -2.47742 -1.66333 0
M  V30 17138 C 1605.46 -1.49208 -3.14058 0
M  V30 17139 H 1604.78 -2.35387 -3.23161 0
M  V30 17140 H 1606.22 -1.58658 -3.93197 0
M  V30 17141 C 1604.68 -0.213877 -3.3622 0
M  V30 17142 O 1605.21 0.713128 -3.95319 0
M  V30 17143 N 1603.42 -0.114834 -2.90373 0
M  V30 17144 H 1602.96 -0.870047 -2.42462 0
M  V30 17145 H 1602.92 0.739619 -3.05576 0
M  V30 17146 N 1606.69 0.865285 -1.31722 0
M  V30 17147 C 1607.6 2.00542 -1.21738 0
M  V30 17148 C 1608.62 1.7349 -0.133124 0
M  V30 17149 O 1609.8 1.98303 -0.351809 0
M  V30 17150 C 1606.86 3.33993 -0.930045 0
M  V30 17151 C 1605.92 3.74337 -2.10167 0
M  V30 17152 C 1605.16 5.0142 -1.82795 0
M  V30 17153 O 1605.38 5.65242 -0.765345 0
M  V30 17154 O 1604.31 5.38642 -2.68604 0
M  V30 17155 H 1608.14 2.11898 -2.17561 0
M  V30 17156 H 1605.72 0.994313 -1.11507 0
M  V30 17157 H 1607.61 4.14008 -0.785846 0
M  V30 17158 H 1606.28 3.237 -0.00188642 0
M  V30 17159 H 1605.19 2.94943 -2.3013 0
M  V30 17160 H 1606.52 3.89261 -3.01225 0
M  V30 17161 N 1608.17 1.14759 1.0802 0
M  V30 17162 C 1609.45 0.828957 1.77166 0
M  V30 17163 C 1609.83 -0.676783 1.99957 0
M  V30 17164 O 1609.18 -1.61891 1.61256 0
M  V30 17165 C 1609.39 1.63213 3.08484 0
M  V30 17166 C 1610.74 1.834 3.82948 0
M  V30 17167 O 1611.76 1.59932 3.18277 0
M  V30 17168 O 1610.62 2.22661 4.99083 0
M  V30 17169 H 1607.71 0.304168 0.769032 0
M  V30 17170 H 1610.26 1.253 1.14446 0
M  V30 17171 H 1609.03 2.65474 2.8747 0
M  V30 17172 H 1608.65 1.20397 3.78933 0
M  V30 17173 N 1609.65 -1.26251 0.943322 0
M  V30 17174 C 1610.9 -1.93939 0.592909 0
M  V30 17175 C 1611.23 -1.73814 -0.866155 0
M  V30 17176 O 1610.5 -1.07645 -1.61997 0
M  V30 17177 C 1610.79 -3.47653 0.938601 0
M  V30 17178 C 1610.64 -3.77053 2.45257 0
M  V30 17179 C 1611.96 -4.37736 0.455546 0
M  V30 17180 H 1609.08 -0.704367 0.21688 0
M  V30 17181 H 1611.72 -1.4908 1.17793 0
M  V30 17182 H 1609.87 -3.85992 0.440756 0
M  V30 17183 H 1611.54 -3.48417 3.0233 0
M  V30 17184 H 1609.79 -3.23055 2.89513 0
M  V30 17185 H 1610.46 -4.84506 2.64495 0
M  V30 17186 H 1612.93 -4.06635 0.882435 0
M  V30 17187 H 1611.81 -5.44075 0.72623 0
M  V30 17188 H 1612.07 -4.37377 -0.644508 0
M  V30 17189 N 1611.13 -0.710588 -1.40671 0
M  V30 17190 C 1612.35 -0.256007 -2.05814 0
M  V30 17191 C 1612.78 1.09178 -1.53173 0
M  V30 17192 O 1612.14 1.68665 -0.664977 0
M  V30 17193 C 1612.19 -0.240528 -3.59797 0
M  V30 17194 O 1611.29 0.779859 -4.04959 0
M  V30 17195 H 1610.63 -0.121326 -0.652822 0
M  V30 17196 H 1613.16 -0.969667 -1.80163 0
M  V30 17197 H 1613.17 -0.0765027 -4.07928 0
M  V30 17198 H 1611.85 -1.22411 -3.97478 0
M  V30 17199 H 1610.42 0.583965 -3.68299 0
M  V30 17200 N 1612.61 1.50847 -0.456408 0
M  V30 17201 C 1613.54 2.31077 0.335523 0
M  V30 17202 C 1614.52 1.37326 1.00377 0
M  V30 17203 O 1615.7 1.66247 1.00376 0
M  V30 17204 C 1612.83 3.16662 1.42627 0
M  V30 17205 C 1611.79 4.18846 0.88045 0
M  V30 17206 C 1611.11 4.93074 2.06838 0
M  V30 17207 C 1612.41 5.22208 -0.0982288 0
M  V30 17208 H 1614.11 2.97531 -0.334056 0
M  V30 17209 H 1611.65 1.43085 -0.162099 0
M  V30 17210 H 1613.61 3.71578 1.98765 0
M  V30 17211 H 1612.33 2.48066 2.12441 0
M  V30 17212 H 1610.99 3.65009 0.341147 0
M  V30 17213 H 1610.64 4.20963 2.75316 0
M  V30 17214 H 1610.34 5.62184 1.70947 0
M  V30 17215 H 1611.86 5.5082 2.63494 0
M  V30 17216 H 1613.28 5.72082 0.373481 0
M  V30 17217 H 1611.67 5.98954 -0.370674 0
M  V30 17218 H 1612.74 4.73859 -1.02887 0
M  V30 17219 N 1614.09 0.188454 1.56469 0
M  V30 17220 C 1615 -0.747176 2.22384 0
M  V30 17221 C 1616.01 -1.23985 1.22081 0
M  V30 17222 O 1617.19 -1.2884 1.54797 0
M  V30 17223 C 1614.25 -1.95228 2.86508 0
M  V30 17224 C 1613.31 -1.50482 4.02062 0
M  V30 17225 C 1612.55 -2.65248 4.63119 0
M  V30 17226 O 1612.77 -3.8256 4.23088 0
M  V30 17227 O 1611.7 -2.38341 5.527 0
M  V30 17228 H 1615.53 -0.215857 3.02932 0
M  V30 17229 H 1613.11 -0.0405356 1.49345 0
M  V30 17230 H 1615 -2.65673 3.27103 0
M  V30 17231 H 1613.67 -2.47233 2.08944 0
M  V30 17232 H 1612.58 -0.769365 3.66103 0
M  V30 17233 H 1613.91 -1.03151 4.8127 0
M  V30 17234 N 1615.56 -1.5737 -0.0851874 0
M  V30 17235 C 1616.81 -1.86587 -0.786855 0
M  V30 17236 C 1617.14 -0.778357 -1.78247 0
M  V30 17237 O 1616.39 0.227053 -1.94378 0
M  V30 17238 C 1616.69 -3.22427 -1.54194 0
M  V30 17239 C 1616.36 -4.45627 -0.687542 0
M  V30 17240 C 1615.02 -4.79072 -0.452042 0
M  V30 17241 C 1617.37 -5.21115 -0.094224 0
M  V30 17242 C 1614.7 -5.85426 0.386477 0
M  V30 17243 C 1617.05 -6.28354 0.731673 0
M  V30 17244 C 1615.72 -6.60309 0.977172 0
M  V30 17245 H 1614.99 -0.682772 -0.28793 0
M  V30 17246 H 1617.63 -1.9144 -0.0480218 0
M  V30 17247 H 1615.94 -3.13304 -2.35261 0
M  V30 17248 H 1617.64 -3.42264 -2.08941 0
M  V30 17249 H 1614.23 -4.19443 -0.881212 0
M  V30 17250 H 1618.41 -4.95601 -0.263309 0
M  V30 17251 H 1613.67 -6.08589 0.58556 0
M  V30 17252 H 1617.84 -6.86014 1.19823 0
M  V30 17253 H 1615.47 -7.42548 1.6287 0
M  V30 17254 N 1617.04 0.356258 -1.53521 0
M  V30 17255 C 1617.97 1.44271 -1.83598 0
M  V30 17256 C 1618.95 1.5547 -0.690141 0
M  V30 17257 O 1620.14 1.69886 -0.940868 0
M  V30 17258 C 1617.27 2.8149 -2.03422 0
M  V30 17259 C 1616.22 2.85108 -3.19213 0
M  V30 17260 C 1615.55 4.25091 -3.24348 0
M  V30 17261 C 1616.85 2.51788 -4.57602 0
M  V30 17262 H 1618.54 1.1935 -2.74583 0
M  V30 17263 H 1616.09 0.572707 -1.32121 0
M  V30 17264 H 1618.04 3.57531 -2.23046 0
M  V30 17265 H 1616.76 3.07819 -1.09155 0
M  V30 17266 H 1615.42 2.1152 -2.99424 0
M  V30 17267 H 1615.07 4.4851 -2.277 0
M  V30 17268 H 1614.77 4.28426 -4.0215 0
M  V30 17269 H 1616.3 5.02992 -3.46167 0
M  V30 17270 H 1617.71 3.17542 -4.77326 0
M  V30 17271 H 1616.11 2.66426 -5.37715 0
M  V30 17272 H 1617.18 1.4701 -4.62078 0
M  V30 17273 N 1618.52 1.45038 0.616577 0
M  V30 17274 C 1619.94 1.29246 0.936359 0
M  V30 17275 C 1620.14 0.238879 2.00079 0
M  V30 17276 O 1619.19 -0.370265 2.4977 0
M  V30 17277 C 1620.5 2.66863 1.38581 0
M  V30 17278 C 1622.05 2.74688 1.50051 0
M  V30 17279 C 1622.53 4.12809 1.98375 0
M  V30 17280 N 1624.02 4.15058 2.05623 0
M  V30 17281 C 1624.75 5.18793 2.44216 0
M  V30 17282 N 1624.25 6.3288 2.81843 0
M  V30 17283 N 1626.04 5.06149 2.44477 0
M  V30 17284 H 1618.19 2.12221 -0.0871304 0
M  V30 17285 H 1620.46 0.947705 0.0236659 0
M  V30 17286 H 1620.16 3.45105 0.677911 0
M  V30 17287 H 1620.04 2.94726 2.35407 0
M  V30 17288 H 1622.42 1.96756 2.19934 0
M  V30 17289 H 1622.5 2.50549 0.515631 0
M  V30 17290 H 1622.15 4.91223 1.29082 0
M  V30 17291 H 1622.08 4.34334 2.97761 0
M  V30 17292 H 1624.57 3.32726 1.79171 0
M  V30 17293 H 1624.88 7.07834 3.10147 0
M  V30 17294 H 1623.23 6.36295 2.7956 0
M  V30 17295 H 1626.42 4.16071 2.14482 0
M  V30 17296 H 1626.59 5.87114 2.74229 0
M  V30 17297 N 1620 -0.858287 1.32179 0
M  V30 17298 C 1621.25 -1.60902 1.2229 0
M  V30 17299 C 1621.57 -1.93797 -0.216227 0
M  V30 17300 O 1620.84 -1.59312 -1.14002 0
M  V30 17301 H 1619.42 -0.596529 0.449624 0
M  V30 17302 H 1622.08 -1.02686 1.65655 0
M  V30 17303 H 1621.17 -2.54755 1.80295 0
M  V30 17304 N 1621.48 -1.1533 -1.07409 0
M  V30 17305 C 1622.44 -0.852155 -2.1277 0
M  V30 17306 C 1623.44 0.14782 -1.60119 0
M  V30 17307 O 1624.63 -0.0817436 -1.74008 0
M  V30 17308 C 1621.76 -0.272233 -3.39811 0
M  V30 17309 H 1622.95 -1.78604 -2.40917 0
M  V30 17310 H 1620.51 -0.960698 -1.23289 0
M  V30 17311 H 1621.24 0.669873 -3.17306 0
M  V30 17312 H 1621.03 -0.992629 -3.79327 0
M  V30 17313 H 1622.52 -0.0790986 -4.17525 0
M  V30 17314 N 1622.95 1.25748 -0.950004 0
M  V30 17315 C 1623.88 2.28419 -0.484467 0
M  V30 17316 C 1624.86 1.63569 0.466813 0
M  V30 17317 O 1626.05 1.90705 0.366766 0
M  V30 17318 C 1623.18 3.46449 0.242916 0
M  V30 17319 C 1622.13 4.23447 -0.622657 0
M  V30 17320 C 1621.46 5.34182 0.235199 0
M  V30 17321 C 1622.76 4.86576 -1.89845 0
M  V30 17322 H 1624.45 2.6761 -1.34257 0
M  V30 17323 H 1622 1.28646 -0.647014 0
M  V30 17324 H 1623.95 4.17394 0.579693 0
M  V30 17325 H 1622.68 3.06235 1.13523 0
M  V30 17326 H 1621.34 3.54279 -0.942453 0
M  V30 17327 H 1620.98 4.90209 1.12713 0
M  V30 17328 H 1620.68 5.86612 -0.340609 0
M  V30 17329 H 1622.21 6.07961 0.567048 0
M  V30 17330 H 1623.62 5.49688 -1.62837 0
M  V30 17331 H 1622.02 5.49162 -2.41954 0
M  V30 17332 H 1623.09 4.09021 -2.60441 0
M  V30 17333 N 1624.43 0.718038 1.40292 0
M  V30 17334 C 1625.34 0.0681535 2.34501 0
M  V30 17335 C 1626.36 -0.741048 1.57431 0
M  V30 17336 O 1627.53 -0.673437 1.89807 0
M  V30 17337 C 1624.6 -0.840758 3.36351 0
M  V30 17338 C 1623.66 -0.0212287 4.29295 0
M  V30 17339 C 1622.89 -0.886852 5.2628 0
M  V30 17340 O 1623.12 -2.12603 5.29298 0
M  V30 17341 O 1622.05 -0.324537 6.01024 0
M  V30 17342 H 1625.88 0.845288 2.91699 0
M  V30 17343 H 1623.46 0.478541 1.41529 0
M  V30 17344 H 1625.34 -1.36131 3.98806 0
M  V30 17345 H 1624.02 -1.597 2.81563 0
M  V30 17346 H 1622.92 0.544451 3.70117 0
M  V30 17347 H 1624.26 0.696846 4.87242 0
M  V30 17348 N 1625.91 -1.50602 0.464402 0
M  V30 17349 C 1627.33 -1.59162 0.118173 0
M  V30 17350 C 1627.53 -1.47313 -1.37481 0
M  V30 17351 O 1626.58 -1.32819 -2.14745 0
M  V30 17352 C 1627.9 -2.93313 0.662411 0
M  V30 17353 C 1629.44 -3.06692 0.625244 0
M  V30 17354 C 1629.92 -4.43407 1.14691 0
M  V30 17355 N 1631.41 -4.49801 1.10604 0
M  V30 17356 C 1632.14 -5.53964 1.48026 0
M  V30 17357 N 1631.64 -6.65413 1.92865 0
M  V30 17358 N 1633.43 -5.44471 1.39671 0
M  V30 17359 H 1625.58 -1.56548 1.4355 0
M  V30 17360 H 1627.85 -0.739451 0.593225 0
M  V30 17361 H 1627.55 -3.07439 1.70805 0
M  V30 17362 H 1627.43 -3.77061 0.102251 0
M  V30 17363 H 1629.81 -2.92217 -0.411466 0
M  V30 17364 H 1629.9 -2.24717 1.22213 0
M  V30 17365 H 1629.54 -4.5863 2.18222 0
M  V30 17366 H 1629.47 -5.23963 0.526306 0
M  V30 17367 H 1631.96 -3.69824 0.77709 0
M  V30 17368 H 1632.27 -7.40947 2.19585 0
M  V30 17369 H 1630.62 -6.66551 1.96812 0
M  V30 17370 H 1633.81 -4.56289 1.04487 0
M  V30 17371 H 1633.98 -6.25531 1.69161 0
M  V30 17372 N 1627.39 -0.19675 -1.56367 0
M  V30 17373 C 1628.67 0.489288 -1.89381 0
M  V30 17374 C 1629.05 1.79529 -1.11052 0
M  V30 17375 O 1628.39 2.27513 -0.212117 0
M  V30 17376 C 1628.6 0.706459 -3.41775 0
M  V30 17377 C 1629.95 1.02508 -4.1204 0
M  V30 17378 O 1630.98 0.794123 -3.47235 0
M  V30 17379 O 1629.83 1.46207 -5.26579 0
M  V30 17380 H 1626.93 0.2553 -0.786607 0
M  V30 17381 H 1629.47 -0.237086 -1.68036 0
M  V30 17382 H 1628.25 -0.215762 -3.90705 0
M  V30 17383 H 1627.87 1.48523 -3.68818 0
M  V30 17384 N 1628.87 1.57413 0.0768405 0
M  V30 17385 C 1629.81 2.0334 1.09185 0
M  V30 17386 C 1630.78 0.913073 1.38752 0
M  V30 17387 O 1631.97 1.18038 1.49906 0
M  V30 17388 C 1629.11 2.47805 2.40181 0
M  V30 17389 C 1628.22 3.73435 2.17188 0
M  V30 17390 C 1627.36 4.06703 3.41711 0
M  V30 17391 C 1626.4 5.25388 3.1406 0
M  V30 17392 N 1625.53 5.54319 4.309 0
M  V30 17393 H 1630.37 2.89825 0.693223 0
M  V30 17394 H 1627.91 1.43334 0.330736 0
M  V30 17395 H 1629.87 2.71635 3.16655 0
M  V30 17396 H 1628.5 1.64305 2.77856 0
M  V30 17397 H 1627.55 3.56974 1.3143 0
M  V30 17398 H 1628.86 4.60049 1.9276 0
M  V30 17399 H 1628.02 4.31407 4.26583 0
M  V30 17400 H 1626.75 3.18646 3.6921 0
M  V30 17401 H 1625.76 5.00486 2.27583 0
M  V30 17402 H 1626.98 6.15059 2.87888 0
M  V30 17403 H 1624.93 4.69222 4.5844 0
M  V30 17404 H 1624.85 6.35342 4.09727 0
M  V30 17405 H 1626.12 5.83571 5.16783 0
M  V30 17406 N 1630.34 -0.348112 1.53707 0
M  V30 17407 C 1631.29 -1.42729 1.81375 0
M  V30 17408 C 1632.26 -1.52461 0.659159 0
M  V30 17409 O 1633.45 -1.68072 0.903129 0
M  V30 17410 C 1630.59 -2.79443 2.02498 0
M  V30 17411 C 1629.7 -2.7854 3.30211 0
M  V30 17412 C 1628.83 -4.06942 3.41426 0
M  V30 17413 C 1627.87 -4.00248 4.63106 0
M  V30 17414 N 1627.01 -5.20332 4.7138 0
M  V30 17415 H 1631.85 -1.18436 2.73454 0
M  V30 17416 H 1629.39 -0.573809 1.35447 0
M  V30 17417 H 1631.35 -3.58888 2.12733 0
M  V30 17418 H 1629.98 -3.02099 1.13737 0
M  V30 17419 H 1629.03 -1.91227 3.28841 0
M  V30 17420 H 1630.34 -2.69471 4.19746 0
M  V30 17421 H 1629.49 -4.94808 3.51069 0
M  V30 17422 H 1628.23 -4.18786 2.49939 0
M  V30 17423 H 1627.24 -3.10767 4.53546 0
M  V30 17424 H 1628.46 -3.89991 5.55953 0
M  V30 17425 H 1626.41 -5.32729 3.828 0
M  V30 17426 H 1626.33 -5.13502 5.54844 0
M  V30 17427 H 1627.59 -6.09982 4.85326 0
M  V30 17428 N 1631.82 -1.45363 -0.608876 0
M  V30 17429 C 1633.1 -1.39787 -1.36817 0
M  V30 17430 C 1633.48 -0.067821 -2.10991 0
M  V30 17431 O 1632.83 0.950196 -2.07806 0
M  V30 17432 C 1633.04 -2.61073 -2.31608 0
M  V30 17433 C 1634.39 -3.06104 -2.94254 0
M  V30 17434 O 1635.41 -2.61436 -2.41929 0
M  V30 17435 O 1634.27 -3.83616 -3.89231 0
M  V30 17436 H 1631.36 -0.554657 -0.61342 0
M  V30 17437 H 1633.91 -1.57489 -0.632073 0
M  V30 17438 H 1632.68 -3.4946 -1.76049 0
M  V30 17439 H 1632.3 -2.45697 -3.126 0
M  V30 17440 N 1633.3 0.851265 -1.32632 0
M  V30 17441 C 1634.55 1.60252 -1.23141 0
M  V30 17442 C 1634.87 1.93909 0.205946 0
M  V30 17443 O 1634.14 1.59914 1.13156 0
M  V30 17444 H 1632.72 0.594137 -0.452781 0
M  V30 17445 H 1635.38 1.01806 -1.66197 0
M  V30 17446 H 1634.48 2.53796 -1.81643 0
M  V30 17447 N 1634.78 1.15898 1.06796 0
M  V30 17448 C 1636.03 0.937339 1.795 0
M  V30 17449 C 1636.35 -0.535183 1.86992 0
M  V30 17450 O 1635.61 -1.41304 1.35394 0
M  V30 17451 C 1635.91 1.50368 3.24229 0
M  V30 17452 C 1635.57 2.99765 3.36826 0
M  V30 17453 C 1634.24 3.40548 3.39971 0
M  V30 17454 C 1636.59 3.9575 3.39163 0
M  V30 17455 C 1633.92 4.75946 3.43063 0
M  V30 17456 C 1636.27 5.31028 3.43791 0
M  V30 17457 C 1634.93 5.71298 3.45216 0
M  V30 17458 H 1634.2 0.342997 0.656837 0
M  V30 17459 H 1636.85 1.44531 1.2563 0
M  V30 17460 H 1635.15 0.917024 3.80917 0
M  V30 17461 H 1636.85 1.30793 3.7907 0
M  V30 17462 H 1633.44 2.67244 3.3508 0
M  V30 17463 H 1637.62 3.65311 3.35948 0
M  V30 17464 H 1632.88 5.06484 3.42468 0
M  V30 17465 H 1637.05 6.05195 3.44546 0
M  V30 17466 H 1634.68 6.76196 3.47365 0
M  V30 17467 N 1636.26 -1.25243 0.956659 0
M  V30 17468 C 1637.19 -2.25019 0.435795 0
M  V30 17469 C 1638.2 -1.56473 -0.449435 0
M  V30 17470 O 1639.39 -1.76635 -0.257386 0
M  V30 17471 C 1636.49 -3.36634 -0.391226 0
M  V30 17472 C 1635.66 -4.34742 0.481483 0
M  V30 17473 C 1634.72 -5.25413 -0.287678 0
M  V30 17474 O 1633.75 -5.6833 0.314618 0
M  V30 17475 N 1634.95 -5.58578 -1.58023 0
M  V30 17476 H 1637.72 -2.70344 1.2936 0
M  V30 17477 H 1635.28 -1.3917 0.827245 0
M  V30 17478 H 1637.27 -3.94254 -0.913552 0
M  V30 17479 H 1635.84 -2.90682 -1.14991 0
M  V30 17480 H 1635.06 -3.75971 1.18489 0
M  V30 17481 H 1636.35 -4.97269 1.07707 0
M  V30 17482 H 1635.74 -5.25618 -2.09146 0
M  V30 17483 H 1634.3 -6.18774 -2.04848 0
M  V30 17484 N 1637.73 -0.725468 -1.3991 0
M  V30 17485 C 1638.67 -0.0397832 -2.29165 0
M  V30 17486 C 1639.68 0.713458 -1.46334 0
M  V30 17487 O 1640.87 0.559199 -1.69515 0
M  V30 17488 C 1637.97 0.967929 -3.24784 0
M  V30 17489 C 1637.14 0.278181 -4.36515 0
M  V30 17490 C 1636.2 1.19266 -5.12506 0
M  V30 17491 O 1635.23 0.673726 -5.65199 0
M  V30 17492 N 1636.43 2.5231 -5.228 0
M  V30 17493 H 1639.19 -0.806204 -2.88653 0
M  V30 17494 H 1636.75 -0.573904 -1.51387 0
M  V30 17495 H 1638.75 1.58209 -3.72494 0
M  V30 17496 H 1637.32 1.63563 -2.66394 0
M  V30 17497 H 1636.54 -0.516326 -3.90804 0
M  V30 17498 H 1637.82 -0.200203 -5.08406 0
M  V30 17499 H 1637.22 2.96957 -4.8149 0
M  V30 17500 H 1635.78 3.08846 -5.73984 0
M  V30 17501 N 1639.21 1.50354 -0.472382 0
M  V30 17502 C 1640.44 2.06746 0.0798134 0
M  V30 17503 C 1640.86 1.3361 1.33393 0
M  V30 17504 O 1640.21 0.405765 1.77932 0
M  V30 17505 C 1640.26 3.59636 0.3666 0
M  V30 17506 O 1639.98 4.30015 -0.837776 0
M  V30 17507 C 1641.49 4.32655 0.965618 0
M  V30 17508 H 1638.71 0.670956 -0.00765904 0
M  V30 17509 H 1641.25 1.93504 -0.661535 0
M  V30 17510 H 1639.4 3.72676 1.05788 0
M  V30 17511 H 1639.82 5.21248 -0.583161 0
M  V30 17512 H 1641.29 5.406 1.11604 0
M  V30 17513 H 1641.77 3.93237 1.95606 0
M  V30 17514 H 1642.38 4.24149 0.312676 0
M  V30 17515 N 1640.69 0.205039 1.56261 0
M  V30 17516 C 1641.92 -0.439502 2.0269 0
M  V30 17517 C 1642.34 -1.53715 1.08413 0
M  V30 17518 O 1641.7 -1.81167 0.0693616 0
M  V30 17519 C 1641.75 -0.963672 3.47485 0
M  V30 17520 O 1640.85 -2.07602 3.56336 0
M  V30 17521 H 1640.19 -0.101543 0.65619 0
M  V30 17522 H 1642.72 0.318835 2.021 0
M  V30 17523 H 1642.73 -1.27773 3.87476 0
M  V30 17524 H 1641.41 -0.160203 4.15591 0
M  V30 17525 H 1639.98 -1.76985 3.28224 0
M  V30 17526 N 1642.17 -1.57451 -0.0684915 0
M  V30 17527 C 1643.08 -2.07274 -1.09885 0
M  V30 17528 C 1644.1 -1.00295 -1.42186 0
M  V30 17529 O 1645.27 -1.31786 -1.52297 0
M  V30 17530 C 1642.34 -2.50949 -2.39219 0
M  V30 17531 C 1641.4 -3.7224 -2.13859 0
M  V30 17532 C 1640.63 -4.13823 -3.37026 0
M  V30 17533 O 1640.85 -3.55248 -4.46268 0
M  V30 17534 O 1639.79 -5.06587 -3.25044 0
M  V30 17535 H 1643.61 -2.9539 -0.705587 0
M  V30 17536 H 1641.2 -1.46698 -0.282849 0
M  V30 17537 H 1643.08 -2.79547 -3.15327 0
M  V30 17538 H 1641.76 -1.6596 -2.77919 0
M  V30 17539 H 1640.66 -3.4872 -1.35445 0
M  V30 17540 H 1642 -4.58091 -1.80038 0
M  V30 17541 N 1643.65 0.339955 -1.5389 0
M  V30 17542 C 1644.6 1.41838 -1.78511 0
M  V30 17543 C 1645.58 1.47604 -0.640447 0
M  V30 17544 O 1646.77 1.52414 -0.899951 0
M  V30 17545 C 1643.9 2.78929 -2.00134 0
M  V30 17546 C 1642.99 2.7754 -3.20675 0
M  V30 17547 N 1643.38 2.45779 -4.42071 0
M  V30 17548 C 1641.68 3.08684 -3.21917 0
M  V30 17549 C 1642.38 2.52714 -5.23938 0
M  V30 17550 N 1641.35 2.88484 -4.60736 0
M  V30 17551 H 1645.16 1.16185 -2.6996 0
M  V30 17552 H 1642.67 0.548339 -1.52863 0
M  V30 17553 H 1644.67 3.56637 -2.15907 0
M  V30 17554 H 1643.33 3.05525 -1.09929 0
M  V30 17555 H 1644.34 2.18913 -4.69358 0
M  V30 17556 H 1641.02 3.40429 -2.41691 0
M  V30 17557 H 1642.41 2.31287 -6.30838 0
M  V30 17558 N 1645.13 1.45684 0.601159 0
M  V30 17559 C 1646.09 1.54451 1.69344 0
M  V30 17560 C 1647.09 0.423379 1.55126 0
M  V30 17561 O 1648.28 0.687079 1.60078 0
M  V30 17562 C 1645.41 1.4472 3.08657 0
M  V30 17563 H 1646.6 2.51778 1.62935 0
M  V30 17564 H 1644.16 1.3322 0.81744 0
M  V30 17565 H 1644.89 0.486027 3.20637 0
M  V30 17566 H 1644.68 2.26045 3.20384 0
M  V30 17567 H 1646.17 1.53902 3.88206 0
M  V30 17568 N 1646.6 -0.84422 1.33082 0
M  V30 17569 C 1647.53 -1.96899 1.25511 0
M  V30 17570 C 1648.51 -1.69549 0.13677 0
M  V30 17571 O 1649.7 -1.9145 0.325667 0
M  V30 17572 C 1646.83 -3.32947 0.988094 0
M  V30 17573 C 1645.78 -3.7468 2.06879 0
M  V30 17574 C 1645.11 -5.08475 1.65401 0
M  V30 17575 C 1646.41 -3.89033 3.48498 0
M  V30 17576 H 1648.1 -2.03491 2.19617 0
M  V30 17577 H 1645.65 -0.977659 1.05725 0
M  V30 17578 H 1647.6 -4.11198 0.921645 0
M  V30 17579 H 1646.33 -3.26598 0.0114067 0
M  V30 17580 H 1644.99 -2.98689 2.12557 0
M  V30 17581 H 1644.63 -4.98592 0.66449 0
M  V30 17582 H 1644.33 -5.37368 2.37717 0
M  V30 17583 H 1645.86 -5.89207 1.60212 0
M  V30 17584 H 1647.27 -4.57609 3.4535 0
M  V30 17585 H 1645.67 -4.29357 4.19253 0
M  V30 17586 H 1646.74 -2.91639 3.87395 0
M  V30 17587 N 1648.08 -1.16463 -1.0618 0
M  V30 17588 C 1649.33 -0.946846 -1.79 0
M  V30 17589 C 1649.66 0.525259 -1.87273 0
M  V30 17590 O 1648.91 1.40584 -1.36142 0
M  V30 17591 C 1649.21 -1.52085 -3.23427 0
M  V30 17592 C 1648.88 -3.01547 -3.35232 0
M  V30 17593 C 1647.54 -3.42346 -3.38161 0
M  V30 17594 C 1649.89 -3.97543 -3.37059 0
M  V30 17595 C 1647.22 -4.77759 -3.40534 0
M  V30 17596 C 1649.57 -5.32843 -3.4097 0
M  V30 17597 C 1648.23 -5.73121 -3.42182 0
M  V30 17598 H 1647.5 -0.346475 -0.655008 0
M  V30 17599 H 1650.15 -1.45195 -1.24862 0
M  V30 17600 H 1648.46 -0.937212 -3.80426 0
M  V30 17601 H 1650.15 -1.32801 -3.78371 0
M  V30 17602 H 1646.74 -2.69017 -3.33658 0
M  V30 17603 H 1650.93 -3.67088 -3.34006 0
M  V30 17604 H 1646.18 -5.08293 -3.39777 0
M  V30 17605 H 1650.36 -6.07014 -3.41332 0
M  V30 17606 H 1647.98 -6.78029 -3.43774 0
M  V30 17607 N 1649.56 1.24734 -0.963288 0
M  V30 17608 C 1650.78 1.97285 -0.639808 0
M  V30 17609 C 1651.21 1.71024 0.783099 0
M  V30 17610 O 1650.57 0.971324 1.53085 0
M  V30 17611 C 1650.62 3.48793 -0.915197 0
M  V30 17612 O 1649.72 4.124 0.00162805 0
M  V30 17613 H 1649.06 0.618196 -0.242343 0
M  V30 17614 H 1651.59 1.58627 -1.29224 0
M  V30 17615 H 1651.6 3.99155 -0.84495 0
M  V30 17616 H 1650.28 3.67235 -1.95221 0
M  V30 17617 H 1648.85 3.72702 -0.121563 0
M  V30 17618 N 1651.04 0.732878 1.39523 0
M  V30 17619 C 1652.28 0.284541 2.0241 0
M  V30 17620 C 1652.64 -1.10672 1.56894 0
M  V30 17621 O 1653.84 -1.65302 2.11964 0
M  V30 17622 C 1652.11 0.380486 3.55369 0
M  V30 17623 S 1653.67 0.0116789 4.38798 0
M  V30 17624 H 1650.49 0.111634 0.702182 0
M  V30 17625 H 1653.09 0.958924 1.70367 0
M  V30 17626 H 1651.8 1.39437 3.85986 0
M  V30 17627 H 1651.33 -0.31179 3.92163 0
M  V30 17628 H 1653.34 -1.20519 4.81341 0
M  V30 17629 N 1652.52 -1.50101 0.480349 0
M  V30 17630 C 1653.74 -2.07278 -0.0710872 0
M  V30 17631 C 1654.17 -1.34082 -1.31923 0
M  V30 17632 O 1653.52 -0.391251 -1.77028 0
M  V30 17633 C 1653.57 -3.59099 -0.328706 0
M  V30 17634 O 1652.68 -3.8764 -1.40745 0
M  V30 17635 H 1652.02 -0.66378 0.0170748 0
M  V30 17636 H 1654.55 -1.93178 0.674049 0
M  V30 17637 H 1654.56 -4.04049 -0.566435 0
M  V30 17638 H 1653.23 -4.11789 0.583316 0
M  V30 17639 H 1651.81 -3.54519 -1.15631 0
M  V30 17640 N 1653.99 -0.213323 -1.5615 0
M  V30 17641 C 1655.24 0.421221 -1.98377 0
M  V30 17642 C 1655.57 1.59998 -1.10065 0
M  V30 17643 O 1654.85 1.93869 -0.15654 0
M  V30 17644 C 1655.13 0.86375 -3.49587 0
M  V30 17645 C 1654.98 -0.318077 -4.48674 0
M  V30 17646 C 1656.3 1.72285 -4.04976 0
M  V30 17647 H 1653.42 0.151635 -0.721232 0
M  V30 17648 H 1656.06 -0.307907 -1.87488 0
M  V30 17649 H 1654.21 1.48503 -3.58998 0
M  V30 17650 H 1655.89 -0.956094 -4.51283 0
M  V30 17651 H 1654.13 -0.966881 -4.22888 0
M  V30 17652 H 1654.8 0.0343662 -5.51989 0
M  V30 17653 H 1657.28 1.19872 -3.98459 0
M  V30 17654 H 1656.15 2.0014 -5.11112 0
M  V30 17655 H 1656.41 2.68336 -3.51352 0
M  V30 17656 N 1655.47 1.57485 0.0601405 0
M  V30 17657 C 1656.72 1.88094 0.758192 0
M  V30 17658 C 1657.05 0.807138 1.76632 0
M  V30 17659 O 1656.33 -0.181347 1.93653 0
M  V30 17660 C 1656.61 3.29363 1.45574 0
M  V30 17661 C 1656.46 4.47408 0.463233 0
M  V30 17662 C 1657.78 3.69048 2.39773 0
M  V30 17663 H 1654.9 0.684106 0.274169 0
M  V30 17664 H 1657.54 1.89988 0.0212215 0
M  V30 17665 H 1655.69 3.27879 2.08393 0
M  V30 17666 H 1657.36 4.6102 -0.160641 0
M  V30 17667 H 1655.61 4.3324 -0.220408 0
M  V30 17668 H 1656.28 5.43065 0.989164 0
M  V30 17669 H 1658.75 3.71701 1.87024 0
M  V30 17670 H 1657.63 4.68761 2.85577 0
M  V30 17671 H 1657.89 2.9961 3.25094 0
M  V30 17672 N 1656.95 -0.331789 1.54068 0
M  V30 17673 C 1658.23 -1.08843 1.6252 0
M  V30 17674 C 1658.61 -2.06164 0.453847 0
M  V30 17675 O 1657.96 -2.21714 -0.552727 0
M  V30 17676 C 1658.17 -1.79767 2.9914 0
M  V30 17677 C 1659.51 -2.33086 3.54903 0
M  V30 17678 O 1660.54 -1.89846 3.01392 0
M  V30 17679 O 1659.4 -3.12226 4.48528 0
M  V30 17680 H 1656.49 -0.501222 0.657804 0
M  V30 17681 H 1659.04 -0.332339 1.66414 0
M  V30 17682 H 1657.81 -1.08932 3.75832 0
M  V30 17683 H 1657.43 -2.62205 2.98888 0
M  V30 17684 N 1658.43 -1.46001 -0.593424 0
M  V30 17685 C 1659.67 -1.50978 -1.35401 0
M  V30 17686 C 1660.01 -0.156626 -1.93567 0
M  V30 17687 O 1659.28 0.83067 -1.7587 0
M  V30 17688 C 1659.57 -2.60005 -2.49137 0
M  V30 17689 C 1659.42 -4.04814 -1.96075 0
M  V30 17690 C 1660.74 -2.65199 -3.51223 0
M  V30 17691 H 1657.86 -0.549657 -0.490965 0
M  V30 17692 H 1660.5 -1.77883 -0.667644 0
M  V30 17693 H 1658.65 -2.37194 -3.07687 0
M  V30 17694 H 1660.32 -4.38879 -1.42066 0
M  V30 17695 H 1658.56 -4.148 -1.26976 0
M  V30 17696 H 1659.23 -4.76811 -2.78128 0
M  V30 17697 H 1661.71 -2.85675 -3.02537 0
M  V30 17698 H 1660.59 -3.43323 -4.28276 0
M  V30 17699 H 1660.85 -1.70833 -4.0776 0
M  V30 17700 N 1659.91 0.83715 -1.33527 0
M  V30 17701 C 1661.15 1.59251 -1.25081 0
M  V30 17702 C 1661.48 1.93638 0.182956 0
M  V30 17703 O 1660.74 1.59025 1.14059 0
M  V30 17704 C 1661.04 2.9113 -2.07312 0
M  V30 17705 C 1660.7 2.76098 -3.56484 0
M  V30 17706 C 1659.36 2.71706 -3.97151 0
M  V30 17707 C 1661.72 2.60781 -4.51268 0
M  V30 17708 C 1659.04 2.49899 -5.30818 0
M  V30 17709 C 1661.4 2.40507 -5.85097 0
M  V30 17710 C 1660.06 2.34519 -6.24946 0
M  V30 17711 H 1659.33 0.582741 -0.457705 0
M  V30 17712 H 1661.98 0.969749 -1.65131 0
M  V30 17713 H 1660.28 3.57621 -1.60045 0
M  V30 17714 H 1661.98 3.48632 -1.98133 0
M  V30 17715 H 1658.57 2.8035 -3.24194 0
M  V30 17716 H 1662.75 2.63207 -4.20756 0
M  V30 17717 H 1658.01 2.4371 -5.60728 0
M  V30 17718 H 1662.18 2.27639 -6.58144 0
M  V30 17719 H 1659.81 2.17381 -7.28457 0
M  V30 17720 N 1661.38 1.17024 1.05561 0
M  V30 17721 C 1662.61 0.98075 1.82178 0
M  V30 17722 C 1663.03 -0.471027 1.8283 0
M  V30 17723 O 1662.38 -1.32703 1.25284 0
M  V30 17724 C 1662.44 1.50979 3.28463 0
M  V30 17725 O 1662.16 2.90471 3.27961 0
M  V30 17726 C 1663.66 1.36436 4.21782 0
M  V30 17727 H 1660.88 0.3472 0.574189 0
M  V30 17728 H 1663.42 1.55226 1.33136 0
M  V30 17729 H 1661.58 0.980393 3.74789 0
M  V30 17730 H 1661.99 3.14847 4.19489 0
M  V30 17731 H 1663.46 1.78272 5.2242 0
M  V30 17732 H 1663.94 0.310922 4.38098 0
M  V30 17733 H 1664.55 1.88374 3.81308 0
M  V30 17734 N 1662.86 -1.24221 0.969889 0
M  V30 17735 C 1663.79 -2.24544 0.459636 0
M  V30 17736 C 1664.81 -1.56941 -0.432813 0
M  V30 17737 O 1666 -1.76898 -0.238637 0
M  V30 17738 C 1663.1 -3.3703 -0.3555 0
M  V30 17739 C 1662.27 -4.34207 0.527566 0
M  V30 17740 C 1661.33 -5.25689 -0.231934 0
M  V30 17741 O 1660.35 -5.67964 0.37488 0
M  V30 17742 N 1661.56 -5.60222 -1.5209 0
M  V30 17743 H 1664.32 -2.68957 1.3222 0
M  V30 17744 H 1661.88 -1.38285 0.84196 0
M  V30 17745 H 1663.87 -3.95201 -0.871685 0
M  V30 17746 H 1662.44 -2.91885 -1.11901 0
M  V30 17747 H 1661.66 -3.74693 1.2247 0
M  V30 17748 H 1662.95 -4.96099 1.12975 0
M  V30 17749 H 1662.35 -5.27807 -2.03559 0
M  V30 17750 H 1660.91 -6.20911 -1.98273 0
M  V30 17751 N 1664.34 -0.740267 -1.39132 0
M  V30 17752 C 1665.27 -0.118951 -2.33197 0
M  V30 17753 C 1666.25 0.718416 -1.54184 0
M  V30 17754 O 1667.44 0.662322 -1.82557 0
M  V30 17755 C 1664.57 0.78512 -3.38309 0
M  V30 17756 C 1663.52 0.0515093 -4.27969 0
M  V30 17757 C 1662.85 1.07295 -5.23824 0
M  V30 17758 C 1664.15 -1.10903 -5.1039 0
M  V30 17759 H 1665.84 -0.904687 -2.85405 0
M  V30 17760 H 1663.39 -0.436493 -1.37225 0
M  V30 17761 H 1665.34 1.22935 -4.03069 0
M  V30 17762 H 1664.06 1.60303 -2.84553 0
M  V30 17763 H 1662.72 -0.373156 -3.64696 0
M  V30 17764 H 1662.37 1.88456 -4.66362 0
M  V30 17765 H 1662.07 0.586827 -5.84662 0
M  V30 17766 H 1663.59 1.51677 -5.91461 0
M  V30 17767 H 1665.01 -0.742993 -5.68465 0
M  V30 17768 H 1663.41 -1.52513 -5.80396 0
M  V30 17769 H 1664.48 -1.92825 -4.44912 0
M  V30 17770 N 1665.82 1.49844 -0.488302 0
M  V30 17771 C 1666.77 2.30515 0.310703 0
M  V30 17772 C 1667.76 1.38559 0.974569 0
M  V30 17773 O 1668.97 1.5567 0.903708 0
M  V30 17774 H 1665.34 0.742517 0.119049 0
M  V30 17775 H 1667.31 2.95842 -0.389849 0
M  V30 17776 C 1666.06 3.19575 1.36994 0
M  V30 17777 H 1665.38 3.90253 0.868497 0
M  V30 17778 H 1666.82 3.78984 1.90123 0
M  V30 17779 C 1665.28 2.38324 2.38124 0
M  V30 17780 O 1665.81 2.07842 3.43751 0
M  V30 17781 N 1664.02 2.00583 2.10273 0
M  V30 17782 H 1663.57 2.25572 1.24399 0
M  V30 17783 H 1663.52 1.46525 2.78169 0
M  V30 17784 N 1667.3 0.221601 1.56034 0
M  V30 17785 C 1668.23 -0.720818 2.1757 0
M  V30 17786 C 1669.24 -1.15751 1.14479 0
M  V30 17787 O 1670.43 -1.08865 1.41459 0
M  V30 17788 C 1667.53 -1.98817 2.74454 0
M  V30 17789 C 1666.7 -1.70703 4.02715 0
M  V30 17790 C 1665.76 -2.82146 4.44162 0
M  V30 17791 O 1664.79 -2.50614 5.11059 0
M  V30 17792 N 1665.99 -4.11101 4.09849 0
M  V30 17793 H 1668.76 -0.194436 2.99069 0
M  V30 17794 H 1666.32 0.0405962 1.61849 0
M  V30 17795 H 1668.31 -2.72562 2.99152 0
M  V30 17796 H 1666.88 -2.42503 1.97258 0
M  V30 17797 H 1666.1 -0.806022 3.85872 0
M  V30 17798 H 1667.39 -1.49351 4.86387 0
M  V30 17799 H 1666.78 -4.39562 3.56092 0
M  V30 17800 H 1665.34 -4.81389 4.3944 0
M  V30 17801 N 1668.77 -1.57515 -0.0517878 0
M  V30 17802 C 1670 -1.92845 -0.763249 0
M  V30 17803 C 1670.42 -0.819745 -1.69298 0
M  V30 17804 O 1669.78 0.226161 -1.79884 0
M  V30 17805 C 1669.83 -3.27189 -1.5159 0
M  V30 17806 O 1668.93 -3.17834 -2.62783 0
M  V30 17807 H 1668.28 -0.630944 -0.206896 0
M  V30 17808 H 1670.81 -2.04595 -0.0140481 0
M  V30 17809 H 1670.82 -3.61542 -1.89081 0
M  V30 17810 H 1669.49 -4.07455 -0.833871 0
M  V30 17811 H 1668.07 -2.95075 -2.28002 0
M  V30 17812 N 1670.25 0.323614 -1.54242 0
M  V30 17813 C 1671.5 1.06156 -1.72444 0
M  V30 17814 C 1671.83 1.88013 -0.498116 0
M  V30 17815 O 1671.08 1.88661 0.520133 0
M  V30 17816 C 1671.38 2.01452 -2.95215 0
M  V30 17817 C 1671.05 1.3575 -4.2998 0
M  V30 17818 C 1669.71 1.17563 -4.66618 0
M  V30 17819 C 1672.06 0.885938 -5.13615 0
M  V30 17820 C 1669.39 0.508674 -5.84491 0
M  V30 17821 C 1671.74 0.232807 -6.32171 0
M  V30 17822 C 1670.41 0.0387807 -6.67489 0
M  V30 17823 H 1669.68 0.388454 -0.631019 0
M  V30 17824 H 1672.32 0.338714 -1.88481 0
M  V30 17825 H 1670.63 2.80188 -2.73865 0
M  V30 17826 H 1672.33 2.5858 -3.06492 0
M  V30 17827 H 1668.92 1.50908 -4.01154 0
M  V30 17828 H 1673.1 1.01424 -4.85826 0
M  V30 17829 H 1668.36 0.347149 -6.10414 0
M  V30 17830 H 1672.53 -0.140594 -6.96258 0
M  V30 17831 H 1670.16 -0.480052 -7.58683 0
M  V30 17832 N 1671.73 1.46313 0.585673 0
M  V30 17833 C 1672.64 1.59232 1.72286 0
M  V30 17834 C 1673.66 0.475912 1.67365 0
M  V30 17835 O 1674.83 0.739627 1.87327 0
M  V30 17836 C 1671.9 1.57647 3.08785 0
M  V30 17837 C 1670.96 2.80497 3.24992 0
M  V30 17838 C 1670.19 2.78978 4.5498 0
M  V30 17839 O 1670.42 1.87553 5.38684 0
M  V30 17840 O 1669.35 3.7048 4.74371 0
M  V30 17841 H 1673.18 2.55398 1.64334 0
M  V30 17842 H 1670.76 1.29073 0.752369 0
M  V30 17843 H 1672.64 1.59448 3.90069 0
M  V30 17844 H 1671.32 0.6464 3.1718 0
M  V30 17845 H 1670.22 2.8425 2.43213 0
M  V30 17846 H 1671.56 3.72703 3.21487 0
M  V30 17847 N 1673.21 -0.830057 1.33969 0
M  V30 17848 C 1674.46 -1.58084 1.25269 0
M  V30 17849 C 1674.77 -1.94792 -0.177557 0
M  V30 17850 O 1675.98 -2.68733 -0.386657 0
M  V30 17851 C 1674.43 -2.85177 2.1955 0
M  V30 17852 C 1674.04 -2.55798 3.67792 0
M  V30 17853 C 1675.79 -3.632 2.19741 0
M  V30 17854 C 1673.69 -3.79041 4.53963 0
M  V30 17855 H 1672.62 -0.593289 0.465321 0
M  V30 17856 H 1675.27 -0.914476 1.5909 0
M  V30 17857 H 1673.66 -3.53401 1.78672 0
M  V30 17858 H 1674.83 -1.9573 4.17165 0
M  V30 17859 H 1673.14 -1.91064 3.69978 0
M  V30 17860 H 1675.74 -4.54695 2.81347 0
M  V30 17861 H 1676.08 -3.98786 1.1948 0
M  V30 17862 H 1676.62 -3.0191 2.59028 0
M  V30 17863 H 1673.36 -3.4858 5.55133 0
M  V30 17864 H 1672.88 -4.38417 4.09329 0
M  V30 17865 H 1674.56 -4.46527 4.68212 0
M  V30 17866 N 1674.69 -1.17582 -1.04939 0
M  V30 17867 C 1675.94 -0.960189 -1.77379 0
M  V30 17868 C 1676.25 0.512001 -1.8878 0
M  V30 17869 O 1677.46 0.845912 -2.57986 0
M  V30 17870 C 1675.91 -1.66882 -3.18871 0
M  V30 17871 C 1675.52 -3.17972 -3.15591 0
M  V30 17872 C 1677.26 -1.53567 -3.95749 0
M  V30 17873 C 1675.17 -3.81513 -4.51887 0
M  V30 17874 H 1674.1 -0.35562 -0.664869 0
M  V30 17875 H 1676.75 -1.40863 -1.17601 0
M  V30 17876 H 1675.13 -1.14813 -3.78991 0
M  V30 17877 H 1676.31 -3.76995 -2.64974 0
M  V30 17878 H 1674.62 -3.31328 -2.52212 0
M  V30 17879 H 1677.22 -1.98408 -4.96526 0
M  V30 17880 H 1677.56 -0.486603 -4.13446 0
M  V30 17881 H 1678.1 -2.02868 -3.42183 0
M  V30 17882 H 1674.83 -4.86428 -4.39395 0
M  V30 17883 H 1674.35 -3.27276 -5.02643 0
M  V30 17884 H 1676.03 -3.83867 -5.20822 0
M  V30 17885 N 1676.17 1.23705 -0.976463 0
M  V30 17886 C 1677.58 1.44179 -0.684434 0
M  V30 17887 C 1677.78 1.86992 0.75075 0
M  V30 17888 O 1676.84 2.01349 1.52365 0
M  V30 17889 C 1678.15 2.49661 -1.676 0
M  V30 17890 C 1679.7 2.63479 -1.68961 0
M  V30 17891 C 1680.17 3.72167 -2.66938 0
M  V30 17892 N 1681.66 3.79605 -2.65433 0
M  V30 17893 C 1682.4 4.63251 -3.37914 0
M  V30 17894 N 1681.9 5.51018 -4.19941 0
M  V30 17895 N 1683.69 4.57412 -3.26697 0
M  V30 17896 H 1675.84 0.942155 -1.90361 0
M  V30 17897 H 1678.1 0.475629 -0.820049 0
M  V30 17898 H 1677.81 2.25111 -2.70218 0
M  V30 17899 H 1677.68 3.47978 -1.45571 0
M  V30 17900 H 1680.07 2.87382 -0.670497 0
M  V30 17901 H 1680.15 1.65491 -1.95055 0
M  V30 17902 H 1679.79 3.49013 -3.68988 0
M  V30 17903 H 1679.72 4.69688 -2.3812 0
M  V30 17904 H 1682.22 3.16882 -2.05899 0
M  V30 17905 H 1682.53 6.11825 -4.72113 0
M  V30 17906 H 1680.87 5.50655 -4.24033 0
M  V30 17907 H 1684.06 3.87863 -2.62069 0
M  V30 17908 H 1684.24 5.22373 -3.83446 0
M  V30 17909 N 1677.64 0.747635 1.38738 0
M  V30 17910 C 1678.59 0.11597 2.30508 0
M  V30 17911 C 1679.56 -0.716088 1.49871 0
M  V30 17912 O 1680.75 -0.673446 1.7852 0
M  V30 17913 C 1677.89 -0.775765 3.36268 0
M  V30 17914 C 1677 0.070275 4.31943 0
M  V30 17915 C 1676.13 -0.823908 5.24772 0
M  V30 17916 C 1675.17 0.0261249 6.12094 0
M  V30 17917 N 1674.31 -0.824688 6.9724 0
M  V30 17918 H 1679.15 0.904158 2.83952 0
M  V30 17919 H 1676.69 0.457513 1.39804 0
M  V30 17920 H 1678.64 -1.30735 3.96187 0
M  V30 17921 H 1677.27 -1.5298 2.84248 0
M  V30 17922 H 1676.33 0.719421 3.73535 0
M  V30 17923 H 1677.64 0.726987 4.93474 0
M  V30 17924 H 1676.79 -1.42287 5.89779 0
M  V30 17925 H 1675.53 -1.51437 4.63593 0
M  V30 17926 H 1674.54 0.637803 5.46088 0
M  V30 17927 H 1675.76 0.713556 6.75341 0
M  V30 17928 H 1673.71 -1.50021 6.38616 0
M  V30 17929 H 1673.62 -0.22474 7.55666 0
M  V30 17930 H 1674.89 -1.40882 7.66663 0
M  V30 17931 N 1679.12 -1.49583 0.496242 0
M  V30 17932 C 1680.05 -2.31885 -0.274139 0
M  V30 17933 C 1681.03 -1.39939 -0.96701 0
M  V30 17934 O 1682.22 -1.6885 -0.959333 0
M  V30 17935 C 1679.35 -3.20332 -1.34181 0
M  V30 17936 C 1678.3 -4.21033 -0.769091 0
M  V30 17937 C 1677.63 -4.98385 -1.93693 0
M  V30 17938 C 1678.93 -5.21764 0.236648 0
M  V30 17939 H 1680.62 -2.9654 0.412824 0
M  V30 17940 H 1678.17 -1.42605 0.199979 0
M  V30 17941 H 1680.12 -3.76718 -1.88843 0
M  V30 17942 H 1678.84 -2.53611 -2.05789 0
M  V30 17943 H 1677.5 -3.65785 -0.244252 0
M  V30 17944 H 1677.15 -4.28115 -2.64058 0
M  V30 17945 H 1676.85 -5.66519 -1.55981 0
M  V30 17946 H 1678.38 -5.57613 -2.48798 0
M  V30 17947 H 1679.79 -5.72871 -0.221672 0
M  V30 17948 H 1678.19 -5.97761 0.529346 0
M  V30 17949 H 1679.26 -4.70964 1.15415 0
M  V30 17950 N 1680.6 -0.229873 -1.55915 0
M  V30 17951 C 1681.51 0.687953 -2.24286 0
M  V30 17952 C 1682.53 1.20705 -1.25325 0
M  V30 17953 O 1683.7 1.2469 -1.58159 0
M  V30 17954 C 1680.77 1.87563 -2.91584 0
M  V30 17955 C 1679.83 1.39769 -4.0591 0
M  V30 17956 C 1679.06 2.52876 -4.69989 0
M  V30 17957 O 1679.28 3.71208 -4.33083 0
M  V30 17958 O 1678.22 2.23603 -5.58825 0
M  V30 17959 H 1682.04 0.135464 -3.03398 0
M  V30 17960 H 1679.63 0.000925172 -1.494 0
M  V30 17961 H 1681.51 2.56907 -3.34031 0
M  V30 17962 H 1680.19 2.41606 -2.15426 0
M  V30 17963 H 1679.09 0.672029 -3.68014 0
M  V30 17964 H 1680.43 0.903543 -4.83836 0
M  V30 17965 N 1682.08 1.5754 0.0434337 0
M  V30 17966 C 1683.32 1.90452 0.742119 0
M  V30 17967 C 1683.68 0.826884 1.73282 0
M  V30 17968 O 1684.88 1.0399 2.4787 0
M  V30 17969 C 1683.15 3.28549 1.40679 0
M  V30 17970 S 1684.71 3.83268 2.13662 0
M  V30 17971 H 1681.53 0.667021 0.246178 0
M  V30 17972 H 1684.13 1.955 -0.00280947 0
M  V30 17973 H 1682.84 4.04856 0.672322 0
M  V30 17974 H 1682.37 3.26769 2.19056 0
M  V30 17975 H 1684.38 3.60836 3.40605 0
M  V30 17976 N 1683.56 -0.31543 1.54411 0
M  V30 17977 C 1684.97 -0.889358 1.64156 0
M  V30 17978 C 1685.32 -1.88598 0.54087 0
M  V30 17979 O 1684.44 -2.13947 -0.324904 0
M  V30 17980 C 1685.04 -1.61985 2.97567 0
M  V30 17981 C 1683.6 -2.14239 3.09481 0
M  V30 17982 C 1682.74 -0.970382 2.59767 0
M  V30 17983 H 1685.69 -0.092797 1.58428 0
M  V30 17984 H 1685.72 -2.48457 2.88183 0
M  V30 17985 H 1685.23 -0.89425 3.77657 0
M  V30 17986 H 1683.33 -2.8989 2.34082 0
M  V30 17987 H 1683.44 -2.38681 4.15413 0
M  V30 17988 H 1681.81 -1.35187 2.15863 0
M  V30 17989 H 1682.59 -0.258968 3.42322 0
M  V30 17990 N 1685.03 -1.46622 -0.577906 0
M  V30 17991 C 1686.31 -1.42657 -1.33822 0
M  V30 17992 C 1686.69 -0.11256 -2.108 0
M  V30 17993 O 1686.04 0.905903 -2.09775 0
M  V30 17994 C 1686.25 -2.65927 -2.26018 0
M  V30 17995 C 1687.6 -3.12277 -2.87695 0
M  V30 17996 O 1688.62 -2.66509 -2.36329 0
M  V30 17997 O 1687.48 -3.91786 -3.81007 0
M  V30 17998 H 1684.57 -0.567544 -0.601517 0
M  V30 17999 H 1687.12 -1.58795 -0.598524 0
M  V30 18000 H 1685.89 -3.53116 -1.68597 0
M  V30 18001 H 1685.52 -2.52272 -3.07318 0
M  V30 18002 N 1686.51 0.822941 -1.34408 0
M  V30 18003 C 1687.92 1.39571 -1.24003 0
M  V30 18004 C 1688.27 1.95739 0.134483 0
M  V30 18005 O 1687.4 1.90054 1.03481 0
M  V30 18006 C 1687.99 2.53726 -2.24519 0
M  V30 18007 C 1686.55 3.06911 -2.17905 0
M  V30 18008 C 1685.7 1.79783 -2.11124 0
M  V30 18009 H 1688.65 0.62734 -1.45774 0
M  V30 18010 H 1688.67 3.31818 -1.86217 0
M  V30 18011 H 1688.18 2.12816 -3.24547 0
M  V30 18012 H 1686.29 3.52326 -1.21233 0
M  V30 18013 H 1686.4 3.66003 -3.09158 0
M  V30 18014 H 1684.76 2.00679 -1.56845 0
M  V30 18015 H 1685.55 1.41047 -3.12987 0
M  V30 18016 N 1687.99 1.18137 1.04314 0
M  V30 18017 C 1688.94 0.902484 2.14378 0
M  V30 18018 C 1689.93 -0.136289 1.68851 0
M  V30 18019 O 1691.14 0.0116256 1.79996 0
M  V30 18020 H 1687.51 0.274358 0.700165 0
M  V30 18021 H 1689.48 1.83768 2.35099 0
M  V30 18022 C 1688.23 0.441975 3.4488 0
M  V30 18023 H 1687.56 1.23279 3.80319 0
M  V30 18024 H 1689 0.285808 4.23036 0
M  V30 18025 C 1687.46 -0.841797 3.26214 0
M  V30 18026 O 1687.99 -1.90658 3.53571 0
M  V30 18027 N 1686.19 -0.793425 2.79559 0
M  V30 18028 H 1685.74 0.0732997 2.57496 0
M  V30 18029 H 1685.7 -1.65281 2.6745 0
M  V30 18030 N 1689.47 -1.23186 0.98301 0
M  V30 18031 C 1690.72 -1.90979 0.648851 0
M  V30 18032 C 1691.03 -1.77508 -0.82159 0
M  V30 18033 O 1692.24 -2.40128 -1.26692 0
M  V30 18034 C 1690.69 -3.42357 1.10995 0
M  V30 18035 C 1690.3 -3.64483 2.60492 0
M  V30 18036 C 1692.04 -4.1591 0.849653 0
M  V30 18037 C 1689.95 -5.09511 3.00255 0
M  V30 18038 H 1688.88 -0.715125 0.238983 0
M  V30 18039 H 1691.53 -1.39575 1.19126 0
M  V30 18040 H 1689.91 -3.92885 0.495735 0
M  V30 18041 H 1691.09 -3.24491 3.27173 0
M  V30 18042 H 1689.4 -3.04245 2.84296 0
M  V30 18043 H 1692 -5.22784 1.12256 0
M  V30 18044 H 1692.34 -4.15748 -0.214237 0
M  V30 18045 H 1692.88 -3.71379 1.42557 0
M  V30 18046 H 1689.62 -5.14805 4.05778 0
M  V30 18047 H 1689.14 -5.50443 2.38269 0
M  V30 18048 H 1690.81 -5.77862 2.91005 0
M  V30 18049 N 1690.95 -0.754982 -1.38339 0
M  V30 18050 C 1691.88 -0.143678 -2.33058 0
M  V30 18051 C 1692.86 0.702022 -1.54938 0
M  V30 18052 O 1694.04 0.642922 -1.83249 0
M  V30 18053 C 1691.17 0.749194 -3.39123 0
M  V30 18054 C 1690.13 0.00611459 -4.28 0
M  V30 18055 C 1689.45 1.01733 -5.24933 0
M  V30 18056 C 1690.75 -1.1631 -5.09185 0
M  V30 18057 H 1692.45 -0.934907 -2.84429 0
M  V30 18058 H 1689.99 -0.451023 -1.36754 0
M  V30 18059 H 1691.95 1.18653 -4.04351 0
M  V30 18060 H 1690.67 1.57276 -2.86237 0
M  V30 18061 H 1689.33 -0.411816 -3.6428 0
M  V30 18062 H 1688.98 1.83499 -4.68334 0
M  V30 18063 H 1688.68 0.524783 -5.85252 0
M  V30 18064 H 1690.2 1.45395 -5.93037 0
M  V30 18065 H 1691.61 -0.803244 -5.67645 0
M  V30 18066 H 1690.01 -1.5866 -5.78746 0
M  V30 18067 H 1691.08 -1.97533 -4.42842 0
M  V30 18068 N 1692.42 1.49318 -0.504168 0
M  V30 18069 C 1693.39 2.27703 0.26157 0
M  V30 18070 C 1694.39 1.3385 0.891114 0
M  V30 18071 O 1695.58 1.56981 0.755156 0
M  V30 18072 C 1692.71 3.11912 1.37564 0
M  V30 18073 H 1693.9 2.96855 -0.426292 0
M  V30 18074 H 1691.46 1.54135 -0.259236 0
M  V30 18075 H 1692.19 2.47332 2.09755 0
M  V30 18076 H 1691.98 3.8092 0.929641 0
M  V30 18077 H 1693.47 3.71106 1.91494 0
M  V30 18078 N 1693.9 0.238138 1.5579 0
M  V30 18079 C 1694.85 -0.678829 2.1766 0
M  V30 18080 C 1695.84 -1.14558 1.12984 0
M  V30 18081 O 1697.03 -1.09681 1.38921 0
M  V30 18082 C 1694.16 -1.8794 2.87286 0
M  V30 18083 C 1693.24 -1.43156 3.99208 0
M  V30 18084 N 1693.63 -0.697374 5.00969 0
M  V30 18085 C 1691.93 -1.71755 4.11602 0
M  V30 18086 C 1692.63 -0.466696 5.79825 0
M  V30 18087 N 1691.61 -1.02832 5.33785 0
M  V30 18088 H 1695.41 -0.109646 2.93695 0
M  V30 18089 H 1692.93 0.0400828 1.62351 0
M  V30 18090 H 1694.92 -2.54724 3.30033 0
M  V30 18091 H 1693.58 -2.45289 2.12752 0
M  V30 18092 H 1694.59 -0.348366 5.16727 0
M  V30 18093 H 1691.27 -2.30305 3.48232 0
M  V30 18094 H 1692.66 0.118813 6.71795 0
M  V30 18095 N 1695.38 -1.57561 -0.0350783 0
M  V30 18096 C 1696.61 -1.92971 -0.737958 0
M  V30 18097 C 1697.02 -0.835771 -1.6974 0
M  V30 18098 O 1696.36 0.19703 -1.8264 0
M  V30 18099 C 1696.42 -3.24138 -1.55482 0
M  V30 18100 C 1696.09 -4.50622 -0.760818 0
M  V30 18101 C 1697.08 -5.19861 -0.0637364 0
M  V30 18102 C 1694.77 -4.97154 -0.717134 0
M  V30 18103 C 1696.76 -6.33907 0.666395 0
M  V30 18104 C 1694.45 -6.11098 0.0167462 0
M  V30 18105 C 1695.45 -6.79328 0.707276 0
M  V30 18106 O 1695.14 -7.91093 1.42925 0
M  V30 18107 H 1694.87 -0.641628 -0.212814 0
M  V30 18108 H 1697.42 -2.054 0.00152065 0
M  V30 18109 H 1695.65 -3.08019 -2.33798 0
M  V30 18110 H 1697.34 -3.44919 -2.13976 0
M  V30 18111 H 1698.11 -4.84919 -0.0885544 0
M  V30 18112 H 1693.99 -4.43895 -1.24411 0
M  V30 18113 H 1697.53 -6.87098 1.20592 0
M  V30 18114 H 1693.43 -6.45485 0.0435085 0
M  V30 18115 H 1694.2 -8.07418 1.34231 0
M  V30 18116 N 1696.86 0.307236 -1.54576 0
M  V30 18117 C 1697.79 1.4031 -1.79968 0
M  V30 18118 C 1698.77 1.4902 -0.650513 0
M  V30 18119 O 1699.95 1.66178 -0.889778 0
M  V30 18120 C 1697.08 2.78274 -1.93083 0
M  V30 18121 C 1696.13 2.87017 -3.15473 0
M  V30 18122 S 1696.96 2.49751 -4.73693 0
M  V30 18123 C 1698.12 3.89755 -4.89736 0
M  V30 18124 H 1698.35 1.18562 -2.72636 0
M  V30 18125 H 1695.88 0.504999 -1.45908 0
M  V30 18126 H 1697.84 3.57741 -2.01325 0
M  V30 18127 H 1696.5 2.97295 -1.01364 0
M  V30 18128 H 1695.69 3.88196 -3.21434 0
M  V30 18129 H 1695.3 2.15539 -3.05645 0
M  V30 18130 H 1697.59 4.84687 -4.73376 0
M  V30 18131 H 1698.53 3.88768 -5.91832 0
M  V30 18132 H 1698.94 3.79468 -4.17928 0
M  V30 18133 N 1698.34 1.46926 0.570122 0
M  V30 18134 C 1699.75 1.32159 0.894766 0
M  V30 18135 C 1699.95 0.302411 1.99218 0
M  V30 18136 O 1699.01 -0.290615 2.50822 0
M  V30 18137 C 1700.32 2.71136 1.30021 0
M  V30 18138 C 1701.87 2.79323 1.41236 0
M  V30 18139 C 1702.34 4.18911 1.85142 0
M  V30 18140 N 1703.84 4.2139 1.92314 0
M  V30 18141 C 1704.57 5.263 2.27588 0
M  V30 18142 N 1704.07 6.41526 2.61565 0
M  V30 18143 N 1705.86 5.13671 2.28251 0
M  V30 18144 H 1698.01 2.11837 -0.154603 0
M  V30 18145 H 1700.27 0.947978 -0.00649658 0
M  V30 18146 H 1699.98 3.47087 0.567775 0
M  V30 18147 H 1699.85 3.02066 2.25911 0
M  V30 18148 H 1702.24 2.03653 2.13564 0
M  V30 18149 H 1702.32 2.52063 0.43566 0
M  V30 18150 H 1701.97 4.95081 1.13389 0
M  V30 18151 H 1701.9 4.43587 2.83792 0
M  V30 18152 H 1704.39 3.38257 1.68495 0
M  V30 18153 H 1704.7 7.17343 2.8747 0
M  V30 18154 H 1703.04 6.44867 2.59175 0
M  V30 18155 H 1706.24 4.22684 2.01137 0
M  V30 18156 H 1706.41 5.95541 2.55412 0
M  V30 18157 N 1699.82 -0.815801 1.34842 0
M  V30 18158 C 1701.23 -1.10999 1.1468 0
M  V30 18159 C 1701.43 -2.01445 -0.0469339 0
M  V30 18160 O 1700.49 -2.42007 -0.720322 0
M  V30 18161 C 1701.8 -1.74984 2.44543 0
M  V30 18162 C 1703.35 -1.87447 2.50665 0
M  V30 18163 C 1703.82 -2.54848 3.80548 0
M  V30 18164 N 1705.31 -2.62341 3.81748 0
M  V30 18165 C 1706.05 -3.15239 4.7897 0
M  V30 18166 N 1705.55 -3.68646 5.86577 0
M  V30 18167 N 1707.34 -3.13706 4.66417 0
M  V30 18168 H 1699.49 -0.214351 2.11316 0
M  V30 18169 H 1701.75 -0.157666 0.934797 0
M  V30 18170 H 1701.46 -1.1599 3.32023 0
M  V30 18171 H 1701.33 -2.7478 2.5841 0
M  V30 18172 H 1703.72 -2.45587 1.63619 0
M  V30 18173 H 1703.8 -0.865325 2.40719 0
M  V30 18174 H 1703.44 -1.9736 4.67987 0
M  V30 18175 H 1703.37 -3.5628 3.87778 0
M  V30 18176 H 1705.87 -2.24493 3.03992 0
M  V30 18177 H 1706.18 -4.07281 6.56766 0
M  V30 18178 H 1704.52 -3.6687 5.90281 0
M  V30 18179 H 1707.71 -2.71255 3.81495 0
M  V30 18180 H 1707.89 -3.54626 5.4235 0
M  V30 18181 N 1701.29 -1.18689 -1.03686 0
M  V30 18182 C 1702.54 -0.984601 -1.76952 0
M  V30 18183 C 1702.87 0.485417 -1.88345 0
M  V30 18184 O 1702.12 1.37665 -1.39093 0
M  V30 18185 C 1702.42 -1.58911 -3.20128 0
M  V30 18186 C 1702.09 -3.0859 -3.2876 0
M  V30 18187 C 1700.75 -3.49442 -3.30823 0
M  V30 18188 C 1703.1 -4.04603 -3.28551 0
M  V30 18189 C 1700.43 -4.84875 -3.30323 0
M  V30 18190 C 1702.78 -5.39956 -3.29591 0
M  V30 18191 C 1701.45 -5.8025 -3.29948 0
M  V30 18192 H 1700.72 -0.360291 -0.647512 0
M  V30 18193 H 1703.36 -1.47811 -1.21754 0
M  V30 18194 H 1701.67 -1.0177 -3.78352 0
M  V30 18195 H 1703.37 -1.40797 -3.75469 0
M  V30 18196 H 1699.96 -2.76034 -3.27877 0
M  V30 18197 H 1704.14 -3.7409 -3.26145 0
M  V30 18198 H 1699.4 -5.15386 -3.28919 0
M  V30 18199 H 1703.57 -6.14117 -3.28379 0
M  V30 18200 H 1701.2 -6.85169 -3.29315 0
M  V30 18201 N 1702.77 1.22662 -0.989529 0
M  V30 18202 C 1703.73 2.22695 -0.542183 0
M  V30 18203 C 1704.73 1.56411 0.373132 0
M  V30 18204 O 1705.92 1.73412 0.165556 0
M  V30 18205 C 1703.06 3.40241 0.211841 0
M  V30 18206 H 1704.25 2.63786 -1.42678 0
M  V30 18207 H 1701.8 1.35654 -0.776377 0
M  V30 18208 H 1702.54 3.04618 1.11257 0
M  V30 18209 H 1702.32 3.89563 -0.445319 0
M  V30 18210 H 1703.81 4.14436 0.513107 0
M  V30 18211 N 1704.25 0.762308 1.37937 0
M  V30 18212 C 1705.2 0.140412 2.30372 0
M  V30 18213 C 1706.17 -0.700152 1.50622 0
M  V30 18214 O 1707.35 -0.654474 1.79224 0
M  V30 18215 C 1704.49 -0.740056 3.37071 0
M  V30 18216 C 1703.6 0.116084 4.31844 0
M  V30 18217 C 1702.74 -0.768203 5.25616 0
M  V30 18218 C 1701.78 0.0910442 6.12032 0
M  V30 18219 N 1700.92 -0.75069 6.98075 0
M  V30 18220 H 1705.76 0.934224 2.82977 0
M  V30 18221 H 1703.29 0.472316 1.39311 0
M  V30 18222 H 1705.25 -1.26525 3.97551 0
M  V30 18223 H 1703.88 -1.49956 2.85855 0
M  V30 18224 H 1702.93 0.758999 3.72751 0
M  V30 18225 H 1704.24 0.779285 4.92675 0
M  V30 18226 H 1703.4 -1.36024 5.91255 0
M  V30 18227 H 1702.14 -1.46511 4.65173 0
M  V30 18228 H 1701.14 0.695687 5.45381 0
M  V30 18229 H 1702.37 0.785145 6.74546 0
M  V30 18230 H 1700.31 -1.43239 6.40171 0
M  V30 18231 H 1700.23 -0.144579 7.55862 0
M  V30 18232 H 1701.5 -1.32742 7.68114 0
M  V30 18233 N 1705.73 -1.49049 0.51208 0
M  V30 18234 C 1706.96 -2.06885 -0.0249703 0
M  V30 18235 C 1707.37 -1.371 -1.29804 0
M  V30 18236 O 1706.73 -0.452798 -1.76794 0
M  V30 18237 C 1706.78 -3.60482 -0.27112 0
M  V30 18238 O 1706.5 -4.27643 0.951493 0
M  V30 18239 C 1708 -4.35063 -0.850568 0
M  V30 18240 H 1705.22 -0.670517 0.0254456 0
M  V30 18241 H 1707.76 -1.91682 0.712607 0
M  V30 18242 H 1705.92 -3.7535 -0.958702 0
M  V30 18243 H 1706.33 -5.19519 0.721156 0
M  V30 18244 H 1707.81 -5.43369 -0.972322 0
M  V30 18245 H 1708.28 -3.98285 -1.85111 0
M  V30 18246 H 1708.89 -4.24829 -0.200111 0
M  V30 18247 N 1707.21 -0.246397 -1.55662 0
M  V30 18248 C 1708.45 0.378973 -1.98108 0
M  V30 18249 C 1708.77 1.59106 -1.13775 0
M  V30 18250 O 1709.97 2.28754 -1.46232 0
M  V30 18251 C 1708.43 0.725634 -3.52509 0
M  V30 18252 C 1708.04 -0.465024 -4.4558 0
M  V30 18253 C 1709.78 1.31522 -4.03611 0
M  V30 18254 C 1707.69 -0.0945447 -5.91324 0
M  V30 18255 H 1706.62 0.14537 -0.739854 0
M  V30 18256 H 1709.27 -0.346533 -1.80198 0
M  V30 18257 H 1707.65 1.50925 -3.66111 0
M  V30 18258 H 1708.83 -1.24236 -4.43736 0
M  V30 18259 H 1707.14 -0.969507 -4.04956 0
M  V30 18260 H 1709.74 1.60573 -5.1002 0
M  V30 18261 H 1710.08 2.23952 -3.50929 0
M  V30 18262 H 1710.61 0.594515 -3.93332 0
M  V30 18263 H 1707.35 -0.985965 -6.48042 0
M  V30 18264 H 1706.87 0.646601 -5.96305 0
M  V30 18265 H 1708.55 0.323447 -6.46191 0
M  V30 18266 N 1708.68 1.57577 0.026722 0
M  V30 18267 C 1709.93 1.89005 0.715645 0
M  V30 18268 C 1710.25 0.844388 1.7577 0
M  V30 18269 O 1709.52 -0.121693 1.95522 0
M  V30 18270 H 1708.1 0.697535 0.267308 0
M  V30 18271 H 1710.76 1.94898 -0.00788096 0
M  V30 18272 H 1709.86 2.87952 1.20374 0
M  V30 18273 N 1710.16 -0.299034 1.54737 0
M  V30 18274 C 1711.11 -1.36887 1.85824 0
M  V30 18275 C 1712.08 -1.50287 0.70733 0
M  V30 18276 O 1713.26 -1.65114 0.956143 0
M  V30 18277 C 1710.4 -2.7286 2.11286 0
M  V30 18278 C 1709.52 -2.67893 3.38906 0
M  V30 18279 C 1708.65 -3.95873 3.542 0
M  V30 18280 C 1707.69 -3.85312 4.75606 0
M  V30 18281 N 1706.83 -5.05072 4.87695 0
M  V30 18282 H 1711.67 -1.09676 2.77083 0
M  V30 18283 H 1709.2 -0.530427 1.37204 0
M  V30 18284 H 1711.16 -3.51938 2.24043 0
M  V30 18285 H 1709.79 -2.98327 1.23291 0
M  V30 18286 H 1708.84 -1.80669 3.34758 0
M  V30 18287 H 1710.16 -2.5598 4.28107 0
M  V30 18288 H 1709.31 -4.83389 3.66633 0
M  V30 18289 H 1708.05 -4.10622 2.63136 0
M  V30 18290 H 1707.05 -2.9618 4.63203 0
M  V30 18291 H 1708.28 -3.72106 5.68079 0
M  V30 18292 H 1706.23 -5.20281 3.99554 0
M  V30 18293 H 1706.14 -4.9559 5.709 0
M  V30 18294 H 1707.41 -5.94233 5.04487 0
M  V30 18295 N 1711.64 -1.47227 -0.562322 0
M  V30 18296 C 1712.89 -1.53816 -1.32168 0
M  V30 18297 C 1713.22 -0.197649 -1.93192 0
M  V30 18298 O 1712.49 0.793178 -1.77592 0
M  V30 18299 C 1712.78 -2.65231 -2.43566 0
M  V30 18300 C 1712.63 -4.08882 -1.87445 0
M  V30 18301 C 1713.95 -2.72589 -3.45519 0
M  V30 18302 H 1711.07 -0.559947 -0.479195 0
M  V30 18303 H 1713.71 -1.7926 -0.629762 0
M  V30 18304 H 1711.86 -2.43667 -3.02587 0
M  V30 18305 H 1713.53 -4.41794 -1.32725 0
M  V30 18306 H 1711.77 -4.17401 -1.18149 0
M  V30 18307 H 1712.45 -4.82603 -2.67952 0
M  V30 18308 H 1714.92 -2.92028 -2.9641 0
M  V30 18309 H 1713.8 -3.5233 -4.20898 0
M  V30 18310 H 1714.06 -1.79444 -4.04045 0
M  V30 18311 N 1713.12 0.808639 -1.35273 0
M  V30 18312 C 1714.05 1.93502 -1.30687 0
M  V30 18313 C 1715.03 1.69127 -0.181675 0
M  V30 18314 O 1716.21 1.90519 -0.376312 0
M  V30 18315 C 1713.34 3.30211 -1.07602 0
M  V30 18316 C 1712.3 3.69063 -2.16741 0
M  V30 18317 C 1711.62 5.03911 -1.78824 0
M  V30 18318 C 1712.92 3.79656 -3.5869 0
M  V30 18319 H 1714.62 1.97597 -2.24935 0
M  V30 18320 H 1712.16 0.949284 -1.0828 0
M  V30 18321 H 1714.12 4.0861 -1.03034 0
M  V30 18322 H 1712.84 3.26453 -0.0979944 0
M  V30 18323 H 1711.5 2.92948 -2.20402 0
M  V30 18324 H 1711.15 4.96655 -0.796449 0
M  V30 18325 H 1710.85 5.30877 -2.51881 0
M  V30 18326 H 1712.37 5.84752 -1.75777 0
M  V30 18327 H 1713.79 4.48292 -3.57362 0
M  V30 18328 H 1712.18 4.1809 -4.30489 0
M  V30 18329 H 1713.25 2.81265 -3.94991 0
M  V30 18330 N 1714.6 1.19237 1.03055 0
M  V30 18331 C 1715.53 0.871947 2.10885 0
M  V30 18332 C 1716.51 -0.170311 1.61706 0
M  V30 18333 O 1717.69 -0.0469972 1.88441 0
M  V30 18334 C 1714.82 0.304639 3.37327 0
M  V30 18335 C 1713.86 1.32569 4.05374 0
M  V30 18336 S 1714.7 2.88551 4.51108 0
M  V30 18337 C 1715.85 2.33359 5.8077 0
M  V30 18338 H 1716.09 1.78514 2.37739 0
M  V30 18339 H 1713.62 1.01933 1.1597 0
M  V30 18340 H 1715.58 -0.0161522 4.10497 0
M  V30 18341 H 1714.24 -0.586834 3.08569 0
M  V30 18342 H 1713.43 0.877829 4.96296 0
M  V30 18343 H 1713.03 1.59323 3.38367 0
M  V30 18344 H 1715.33 1.7225 6.55238 0
M  V30 18345 H 1716.27 3.22622 6.30334 0
M  V30 18346 H 1716.68 1.75999 5.36362 0
M  V30 18347 N 1716.07 -1.22136 0.99602 0
M  V30 18348 C 1717.01 -2.23518 0.507162 0
M  V30 18349 C 1718.02 -1.57824 -0.399426 0
M  V30 18350 O 1719.21 -1.77364 -0.20106 0
M  V30 18351 C 1716.31 -3.37709 -0.283931 0
M  V30 18352 C 1715.48 -4.3299 0.619549 0
M  V30 18353 C 1714.54 -5.26062 -0.120376 0
M  V30 18354 O 1713.57 -5.67041 0.495269 0
M  V30 18355 N 1714.77 -5.63322 -1.40172 0
M  V30 18356 H 1717.53 -2.66092 1.37896 0
M  V30 18357 H 1715.09 -1.36468 0.871102 0
M  V30 18358 H 1717.09 -3.96961 -0.787661 0
M  V30 18359 H 1715.66 -2.94193 -1.05685 0
M  V30 18360 H 1714.88 -3.72011 1.3039 0
M  V30 18361 H 1716.16 -4.93591 1.23473 0
M  V30 18362 H 1715.56 -5.32006 -1.92318 0
M  V30 18363 H 1714.12 -6.24977 -1.85058 0
M  V30 18364 N 1717.55 -0.769612 -1.37531 0
M  V30 18365 C 1718.78 -0.343783 -2.0372 0
M  V30 18366 C 1719.19 1.03816 -1.58173 0
M  V30 18367 O 1718.53 1.6736 -0.75739 0
M  V30 18368 C 1718.6 -0.305844 -3.58197 0
M  V30 18369 C 1718.26 -1.63202 -4.26866 0
M  V30 18370 C 1719.26 -2.58408 -4.51133 0
M  V30 18371 C 1716.94 -1.90587 -4.64739 0
M  V30 18372 C 1718.94 -3.79208 -5.12328 0
M  V30 18373 C 1716.62 -3.11657 -5.25655 0
M  V30 18374 C 1717.62 -4.05788 -5.49386 0
M  V30 18375 O 1717.31 -5.24727 -6.09029 0
M  V30 18376 H 1717.04 -0.142358 -0.66084 0
M  V30 18377 H 1719.59 -1.04399 -1.7689 0
M  V30 18378 H 1717.82 0.450724 -3.84064 0
M  V30 18379 H 1719.51 0.0926269 -4.05794 0
M  V30 18380 H 1720.28 -2.38532 -4.22288 0
M  V30 18381 H 1716.16 -1.18148 -4.45603 0
M  V30 18382 H 1719.7 -4.52694 -5.30767 0
M  V30 18383 H 1715.6 -3.3142 -5.53924 0
M  V30 18384 H 1716.37 -5.25523 -6.27509 0
M  V30 18385 N 1719.03 1.48775 -0.519977 0
M  V30 18386 C 1719.99 2.27967 0.237405 0
M  V30 18387 C 1720.99 1.34787 0.876868 0
M  V30 18388 O 1722.18 1.57773 0.738463 0
M  V30 18389 C 1719.32 3.13353 1.34248 0
M  V30 18390 H 1720.51 2.96386 -0.457753 0
M  V30 18391 H 1718.06 1.53852 -0.275569 0
M  V30 18392 H 1718.8 2.49543 2.0712 0
M  V30 18393 H 1718.58 3.81885 0.889187 0
M  V30 18394 H 1720.07 3.73116 1.87547 0
M  V30 18395 N 1720.51 0.254649 1.55529 0
M  V30 18396 C 1721.79 -0.418663 1.91067 0
M  V30 18397 C 1722.17 -1.75284 1.17638 0
M  V30 18398 O 1721.51 -2.26569 0.296411 0
M  V30 18399 C 1721.72 -0.579125 3.44162 0
M  V30 18400 C 1723.07 -0.871451 4.15561 0
M  V30 18401 O 1724.1 -0.664702 3.49943 0
M  V30 18402 O 1722.95 -1.26563 5.31643 0
M  V30 18403 H 1720.05 -0.22593 0.795541 0
M  V30 18404 H 1722.59 0.299288 1.6704 0
M  V30 18405 H 1721.37 0.36062 3.89635 0
M  V30 18406 H 1720.99 -1.34732 3.74076 0
M  V30 18407 N 1721.99 -1.57589 -0.0183649 0
M  V30 18408 C 1723.24 -1.88937 -0.706105 0
M  V30 18409 C 1723.55 -0.854565 -1.75945 0
M  V30 18410 O 1724.75 -1.05763 -2.50053 0
M  V30 18411 C 1723.21 -3.35329 -1.307 0
M  V30 18412 C 1722.82 -4.47064 -0.289444 0
M  V30 18413 C 1724.56 -3.75811 -1.97399 0
M  V30 18414 C 1722.47 -5.84523 -0.899288 0
M  V30 18415 H 1721.4 -0.704959 -0.267486 0
M  V30 18416 H 1724.05 -1.83458 0.0391685 0
M  V30 18417 H 1722.43 -3.35586 -2.10233 0
M  V30 18418 H 1723.61 -4.58294 0.479958 0
M  V30 18419 H 1721.92 -4.15484 0.276066 0
M  V30 18420 H 1724.52 -4.75834 -2.43898 0
M  V30 18421 H 1724.86 -3.08362 -2.79676 0
M  V30 18422 H 1725.39 -3.77774 -1.24626 0
M  V30 18423 H 1722.13 -6.55398 -0.11571 0
M  V30 18424 H 1721.65 -5.76993 -1.63828 0
M  V30 18425 H 1723.33 -6.31595 -1.40344 0
M  V30 18426 N 1723.46 0.290824 -1.54893 0
M  V30 18427 C 1724.39 1.36354 -1.89551 0
M  V30 18428 C 1725.38 1.52403 -0.75546 0
M  V30 18429 O 1726.56 1.65743 -1.01208 0
M  V30 18430 C 1723.69 2.72609 -2.15178 0
M  V30 18431 C 1722.64 2.71313 -3.31019 0
M  V30 18432 C 1721.97 4.10952 -3.42085 0
M  V30 18433 C 1723.27 2.32153 -4.6787 0
M  V30 18434 H 1724.96 1.07597 -2.79398 0
M  V30 18435 H 1722.51 0.516154 -1.34432 0
M  V30 18436 H 1724.46 3.47749 -2.3801 0
M  V30 18437 H 1723.19 3.02913 -1.22112 0
M  V30 18438 H 1721.85 1.9863 -3.08126 0
M  V30 18439 H 1721.49 4.38449 -2.46518 0
M  V30 18440 H 1721.19 4.10984 -4.1996 0
M  V30 18441 H 1722.72 4.87857 -3.67189 0
M  V30 18442 H 1724.13 2.97011 -4.90364 0
M  V30 18443 H 1722.53 2.4338 -5.48531 0
M  V30 18444 H 1723.6 1.27279 -4.67897 0
M  V30 18445 N 1724.94 1.47523 0.554506 0
M  V30 18446 C 1726.17 1.58154 1.34172 0
M  V30 18447 C 1726.59 0.233124 1.8665 0
M  V30 18448 O 1725.95 -0.791439 1.63113 0
M  V30 18449 C 1726 2.61242 2.48566 0
M  V30 18450 O 1725.1 2.167 3.50877 0
M  V30 18451 H 1724.44 0.531184 0.398421 0
M  V30 18452 H 1726.97 1.93324 0.669841 0
M  V30 18453 H 1726.98 2.81746 2.95098 0
M  V30 18454 H 1725.66 3.59148 2.09727 0
M  V30 18455 H 1724.24 2.06305 3.10632 0
M  V30 18456 N 1726.42 -0.801453 1.357 0
M  V30 18457 C 1727.37 -1.91355 1.29043 0
M  V30 18458 C 1728.34 -1.65314 0.161381 0
M  V30 18459 O 1729.52 -1.87638 0.345928 0
M  V30 18460 C 1726.66 -3.27979 1.07348 0
M  V30 18461 C 1725.78 -3.66172 2.29221 0
M  V30 18462 C 1724.91 -4.91853 2.00635 0
M  V30 18463 C 1723.95 -5.22688 3.18533 0
M  V30 18464 N 1723.09 -6.3955 2.8969 0
M  V30 18465 H 1727.93 -1.96381 2.24139 0
M  V30 18466 H 1725.46 -0.960502 1.11413 0
M  V30 18467 H 1727.42 -4.06748 0.928002 0
M  V30 18468 H 1726.05 -3.22408 0.159115 0
M  V30 18469 H 1725.1 -2.82623 2.54615 0
M  V30 18470 H 1726.42 -3.84916 3.1724 0
M  V30 18471 H 1725.57 -5.78459 1.82947 0
M  V30 18472 H 1724.31 -4.75154 1.09908 0
M  V30 18473 H 1723.31 -4.34569 3.36793 0
M  V30 18474 H 1724.54 -5.41313 4.10069 0
M  V30 18475 H 1722.48 -6.24266 2.01562 0
M  V30 18476 H 1722.4 -6.58569 3.71245 0
M  V30 18477 H 1723.67 -7.29171 2.75555 0
M  V30 18478 N 1727.9 -1.19782 -1.02421 0
M  V30 18479 C 1728.85 -0.936475 -2.12915 0
M  V30 18480 C 1729.84 0.10941 -1.69046 0
M  V30 18481 O 1731.05 -0.04026 -1.79955 0
M  V30 18482 H 1727.42 -0.285462 -0.695712 0
M  V30 18483 H 1729.39 -1.87485 -2.32146 0
M  V30 18484 C 1728.14 -0.496786 -3.44133 0
M  V30 18485 H 1727.46 -1.29314 -3.78309 0
M  V30 18486 H 1728.9 -0.353073 -4.22527 0
M  V30 18487 C 1727.36 0.789792 -3.27512 0
M  V30 18488 O 1727.89 1.85009 -3.56559 0
M  V30 18489 N 1726.1 0.748849 -2.80786 0
M  V30 18490 H 1725.65 -0.114256 -2.57346 0
M  V30 18491 H 1725.6 1.61005 -2.70046 0
M  V30 18492 N 1729.38 1.21606 -1.00248 0
M  V30 18493 C 1730.62 1.90607 -0.683752 0
M  V30 18494 C 1730.95 1.77945 0.785228 0
M  V30 18495 O 1730.21 1.14856 1.58451 0
M  V30 18496 C 1730.51 3.41708 -1.04739 0
M  V30 18497 C 1730.17 3.74565 -2.51022 0
M  V30 18498 C 1728.83 3.83243 -2.90995 0
M  V30 18499 C 1731.19 3.89971 -3.45792 0
M  V30 18500 C 1728.51 4.04773 -4.24707 0
M  V30 18501 C 1730.87 4.13008 -4.79174 0
M  V30 18502 C 1729.53 4.19912 -5.18874 0
M  V30 18503 H 1728.8 0.697481 -0.250203 0
M  V30 18504 H 1731.45 1.4417 -1.26045 0
M  V30 18505 H 1729.75 3.89865 -0.388905 0
M  V30 18506 H 1731.45 3.93367 -0.778675 0
M  V30 18507 H 1728.04 3.68399 -2.19043 0
M  V30 18508 H 1732.22 3.82635 -3.16076 0
M  V30 18509 H 1727.48 4.08349 -4.5504 0
M  V30 18510 H 1731.65 4.23871 -5.52545 0
M  V30 18511 H 1729.28 4.36348 -6.22499 0
M  V30 18512 N 1730.86 0.776895 1.37121 0
M  V30 18513 C 1732.27 0.408311 1.8218 0
M  V30 18514 C 1732.62 -1.06621 1.64701 0
M  V30 18515 O 1731.74 -1.82621 1.16097 0
M  V30 18516 C 1732.34 0.734339 3.30746 0
M  V30 18517 C 1730.9 0.418746 3.74063 0
M  V30 18518 C 1730.04 0.97551 2.59575 0
M  V30 18519 H 1732.99 0.971111 1.25519 0
M  V30 18520 H 1733.02 0.0208557 3.80494 0
M  V30 18521 H 1732.53 1.80757 3.43436 0
M  V30 18522 H 1730.63 -0.646961 3.6694 0
M  V30 18523 H 1730.74 0.930597 4.69975 0
M  V30 18524 H 1729.11 0.399449 2.51548 0
M  V30 18525 H 1729.89 2.05425 2.75056 0
M  V30 18526 N 1732.33 -1.48497 0.527859 0
M  V30 18527 C 1733.3 -2.2809 -0.225312 0
M  V30 18528 C 1734.3 -1.35251 -0.869707 0
M  V30 18529 O 1735.49 -1.58163 -0.730086 0
M  V30 18530 C 1732.62 -3.14061 -1.32584 0
M  V30 18531 H 1733.81 -2.96139 0.473465 0
M  V30 18532 H 1731.36 -1.53703 0.283724 0
M  V30 18533 H 1732.1 -2.50638 -2.05794 0
M  V30 18534 H 1731.88 -3.82351 -0.868922 0
M  V30 18535 H 1733.37 -3.74106 -1.85566 0
M  V30 18536 N 1733.81 -0.262893 -1.55392 0
M  V30 18537 C 1735.04 0.360534 -2.0343 0
M  V30 18538 C 1735.45 1.50917 -1.14108 0
M  V30 18539 O 1734.79 1.83077 -0.15118 0
M  V30 18540 C 1734.85 0.91519 -3.47656 0
M  V30 18541 C 1734.52 -0.103245 -4.56883 0
M  V30 18542 C 1735.52 -0.918464 -5.11723 0
M  V30 18543 C 1733.2 -0.233956 -5.01755 0
M  V30 18544 C 1735.19 -1.8507 -6.09941 0
M  V30 18545 C 1732.88 -1.16968 -5.99801 0
M  V30 18546 C 1733.88 -1.97656 -6.53774 0
M  V30 18547 O 1733.57 -2.89648 -7.49906 0
M  V30 18548 H 1733.3 0.0879049 -0.67026 0
M  V30 18549 H 1735.85 -0.389114 -2.01681 0
M  V30 18550 H 1734.08 1.71469 -3.46605 0
M  V30 18551 H 1735.77 1.4504 -3.79102 0
M  V30 18552 H 1736.54 -0.828152 -4.77877 0
M  V30 18553 H 1732.42 0.384057 -4.59397 0
M  V30 18554 H 1735.96 -2.48091 -6.51994 0
M  V30 18555 H 1731.86 -1.26085 -6.33066 0
M  V30 18556 H 1732.63 -2.84191 -7.67579 0
M  V30 18557 N 1735.29 1.57597 0.0100073 0
M  V30 18558 C 1736.53 1.91983 0.701555 0
M  V30 18559 C 1736.89 0.863453 1.71489 0
M  V30 18560 O 1738.09 1.09225 2.45608 0
M  V30 18561 C 1736.37 3.31459 1.33678 0
M  V30 18562 S 1737.92 3.87714 2.05484 0
M  V30 18563 H 1734.74 0.672093 0.231975 0
M  V30 18564 H 1737.34 1.9545 -0.0442772 0
M  V30 18565 H 1736.05 4.06191 0.586295 0
M  V30 18566 H 1735.58 3.31342 2.12076 0
M  V30 18567 H 1737.59 3.6798 3.32874 0
M  V30 18568 N 1736.77 -0.282606 1.55045 0
M  V30 18569 C 1738 -1.03395 1.79212 0
M  V30 18570 C 1738.41 -1.80283 0.560652 0
M  V30 18571 O 1737.77 -1.76343 -0.470049 0
M  V30 18572 C 1737.82 -2.0001 3.01128 0
M  V30 18573 O 1737.54 -1.26238 4.19518 0
M  V30 18574 C 1739.04 -2.87035 3.37825 0
M  V30 18575 H 1736.26 -0.305855 0.597238 0
M  V30 18576 H 1738.8 -0.3163 2.02039 0
M  V30 18577 H 1736.96 -2.67251 2.80456 0
M  V30 18578 H 1737.37 -1.91277 4.88378 0
M  V30 18579 H 1738.85 -3.50642 4.26327 0
M  V30 18580 H 1739.32 -3.56303 2.56798 0
M  V30 18581 H 1739.93 -2.25298 3.60723 0
M  V30 18582 N 1738.25 -1.47815 -0.546675 0
M  V30 18583 C 1739.19 -1.61092 -1.65282 0
M  V30 18584 C 1740.16 -0.453531 -1.59788 0
M  V30 18585 O 1741.35 -0.674923 -1.78464 0
M  V30 18586 C 1738.49 -1.64103 -3.03585 0
M  V30 18587 C 1737.6 -2.90832 -3.19438 0
M  V30 18588 C 1736.74 -2.85112 -4.48201 0
M  V30 18589 C 1735.77 -4.06619 -4.57523 0
M  V30 18590 N 1734.91 -3.99073 -5.77655 0
M  V30 18591 H 1739.75 -2.55561 -1.53273 0
M  V30 18592 H 1737.29 -1.26752 -0.746477 0
M  V30 18593 H 1739.25 -1.63832 -3.83686 0
M  V30 18594 H 1737.88 -0.731382 -3.14405 0
M  V30 18595 H 1736.93 -3.00924 -2.327 0
M  V30 18596 H 1738.24 -3.80783 -3.22188 0
M  V30 18597 H 1737.39 -2.83149 -5.36574 0
M  V30 18598 H 1736.13 -1.92862 -4.47946 0
M  V30 18599 H 1735.14 -4.08876 -3.67561 0
M  V30 18600 H 1736.36 -5.00009 -4.5953 0
M  V30 18601 H 1734.31 -3.09633 -5.78328 0
M  V30 18602 H 1734.23 -4.82713 -5.81829 0
M  V30 18603 H 1735.49 -4.01143 -6.6836 0
M  V30 18604 N 1739.72 0.794246 -1.36123 0
M  V30 18605 C 1740.63 1.93807 -1.32197 0
M  V30 18606 C 1741.65 1.7254 -0.2249 0
M  V30 18607 O 1742.83 1.9616 -0.456431 0
M  V30 18608 C 1739.89 3.28593 -1.10578 0
M  V30 18609 C 1738.95 3.6267 -2.29715 0
M  V30 18610 C 1738.18 4.91025 -2.09118 0
M  V30 18611 O 1738.41 5.6039 -1.06389 0
M  V30 18612 O 1737.34 5.23647 -2.96779 0
M  V30 18613 H 1741.17 2.00068 -2.28487 0
M  V30 18614 H 1738.75 0.933808 -1.16621 0
M  V30 18615 H 1740.63 4.0926 -1.0042 0
M  V30 18616 H 1739.31 3.23235 -0.17347 0
M  V30 18617 H 1738.22 2.82329 -2.4544 0
M  V30 18618 H 1739.55 3.72747 -3.21435 0
M  V30 18619 N 1741.2 1.20323 1.01785 0
M  V30 18620 C 1742.62 0.957818 1.27664 0
M  V30 18621 C 1742.82 -0.363377 1.98196 0
M  V30 18622 O 1741.87 -1.09221 2.27656 0
M  V30 18623 C 1743.19 2.13957 2.11289 0
M  V30 18624 C 1744.73 2.18041 2.2456 0
M  V30 18625 C 1745.21 3.35698 3.11562 0
M  V30 18626 N 1746.7 3.35704 3.1915 0
M  V30 18627 C 1747.44 4.2339 3.86689 0
M  V30 18628 N 1746.93 5.21251 4.56366 0
M  V30 18629 N 1748.72 4.11235 3.832 0
M  V30 18630 H 1740.88 2.05309 0.544242 0
M  V30 18631 H 1743.14 0.898335 0.302817 0
M  V30 18632 H 1742.84 3.09631 1.66798 0
M  V30 18633 H 1742.72 2.11946 3.12024 0
M  V30 18634 H 1745.11 1.22931 2.68276 0
M  V30 18635 H 1745.19 2.24101 1.23338 0
M  V30 18636 H 1744.83 4.31095 2.68551 0
M  V30 18637 H 1744.76 3.26876 4.12868 0
M  V30 18638 H 1747.25 2.64874 2.69537 0
M  V30 18639 H 1747.56 5.84485 5.05566 0
M  V30 18640 H 1745.91 5.25189 4.55195 0
M  V30 18641 H 1749.1 3.34052 3.27913 0
M  V30 18642 H 1749.27 4.79782 4.35561 0
M  V30 18643 N 1742.68 -1.21073 1.00892 0
M  V30 18644 C 1743.61 -2.25847 0.592897 0
M  V30 18645 C 1744.59 -1.6561 -0.38824 0
M  V30 18646 O 1745.78 -1.92238 -0.275361 0
M  V30 18647 C 1742.91 -3.47214 -0.0773439 0
M  V30 18648 C 1741.86 -4.19994 0.82398 0
M  V30 18649 C 1741.19 -5.34696 0.0199341 0
M  V30 18650 C 1742.49 -4.76964 2.12844 0
M  V30 18651 H 1744.18 -2.609 1.46873 0
M  V30 18652 H 1741.73 -1.25412 0.707656 0
M  V30 18653 H 1743.68 -4.19684 -0.379889 0
M  V30 18654 H 1742.4 -3.11303 -0.987833 0
M  V30 18655 H 1741.06 -3.49379 1.11041 0
M  V30 18656 H 1740.71 -4.95028 -0.891966 0
M  V30 18657 H 1740.41 -5.84319 0.620102 0
M  V30 18658 H 1741.93 -6.09974 -0.276336 0
M  V30 18659 H 1743.35 -5.41293 1.88878 0
M  V30 18660 H 1741.74 -5.36992 2.67879 0
M  V30 18661 H 1742.81 -3.96129 2.79659 0
M  V30 18662 N 1744.16 -0.784156 -1.36707 0
M  V30 18663 C 1745.57 -0.417967 -1.81961 0
M  V30 18664 C 1745.92 1.05746 -1.65264 0
M  V30 18665 O 1745.05 1.82003 -1.17064 0
M  V30 18666 C 1745.64 -0.751869 -3.30352 0
M  V30 18667 C 1744.2 -0.438578 -3.73836 0
M  V30 18668 C 1743.35 -0.989262 -2.59054 0
M  V30 18669 H 1746.3 -0.977754 -1.25003 0
M  V30 18670 H 1746.32 -0.041034 -3.80478 0
M  V30 18671 H 1745.83 -1.82576 -3.42473 0
M  V30 18672 H 1743.93 0.627493 -3.67278 0
M  V30 18673 H 1744.04 -0.955508 -4.69475 0
M  V30 18674 H 1742.41 -0.412783 -2.51333 0
M  V30 18675 H 1743.19 -2.06881 -2.73962 0
M  V30 18676 N 1745.64 1.48215 -0.535727 0
M  V30 18677 C 1746.88 2.04399 -0.0058065 0
M  V30 18678 C 1747.24 1.40332 1.31037 0
M  V30 18679 O 1748.44 1.87437 1.92668 0
M  V30 18680 C 1746.71 3.57237 0.107773 0
M  V30 18681 S 1748.27 4.34857 0.586926 0
M  V30 18682 H 1745.09 0.710846 -0.0148167 0
M  V30 18683 H 1747.69 1.81854 -0.717592 0
M  V30 18684 H 1746.4 4.01398 -0.85488 0
M  V30 18685 H 1745.93 3.84245 0.843764 0
M  V30 18686 H 1747.94 4.60405 1.85045 0
M  V30 18687 N 1747.11 0.27113 1.5525 0
M  V30 18688 C 1748.36 -0.347408 1.98686 0
M  V30 18689 C 1748.68 -1.57275 1.16292 0
M  V30 18690 O 1749.88 -2.26399 1.49853 0
M  V30 18691 C 1748.34 -0.669461 3.53619 0
M  V30 18692 C 1747.95 0.535853 4.44784 0
M  V30 18693 C 1749.69 -1.25084 4.05653 0
M  V30 18694 C 1747.6 0.188607 5.91099 0
M  V30 18695 H 1746.53 -0.133581 0.742073 0
M  V30 18696 H 1749.18 0.375157 1.79624 0
M  V30 18697 H 1747.56 -1.45082 3.68466 0
M  V30 18698 H 1748.73 1.3128 4.41704 0
M  V30 18699 H 1747.05 1.03381 4.03363 0
M  V30 18700 H 1749.65 -1.52439 5.1251 0
M  V30 18701 H 1749.99 -2.18341 3.54448 0
M  V30 18702 H 1750.52 -0.531864 3.94228 0
M  V30 18703 H 1747.26 1.08894 6.46392 0
M  V30 18704 H 1746.78 -0.551653 5.97258 0
M  V30 18705 H 1748.46 -0.220603 6.46624 0
M  V30 18706 N 1748.59 -1.576 -0.00164943 0
M  V30 18707 C 1749.52 -2.11354 -0.992554 0
M  V30 18708 C 1750.5 -1.0223 -1.35952 0
M  V30 18709 O 1751.69 -1.29904 -1.44356 0
M  V30 18710 C 1748.82 -2.61549 -2.28494 0
M  V30 18711 C 1747.77 -3.75185 -2.05962 0
M  V30 18712 C 1747.1 -4.11688 -3.412 0
M  V30 18713 C 1748.4 -5.02526 -1.42355 0
M  V30 18714 H 1750.09 -2.94398 -0.544986 0
M  V30 18715 H 1747.64 -1.4162 -0.260702 0
M  V30 18716 H 1749.59 -2.97782 -2.98168 0
M  V30 18717 H 1748.32 -1.75625 -2.75361 0
M  V30 18718 H 1746.97 -3.39343 -1.38714 0
M  V30 18719 H 1746.62 -3.22789 -3.85767 0
M  V30 18720 H 1746.32 -4.88246 -3.2694 0
M  V30 18721 H 1747.85 -4.50478 -4.12192 0
M  V30 18722 H 1749.26 -5.3654 -2.01984 0
M  V30 18723 H 1747.66 -5.83878 -1.38589 0
M  V30 18724 H 1748.73 -4.83308 -0.392565 0
M  V30 18725 N 1750.07 0.274379 -1.55193 0
M  V30 18726 C 1751 1.36461 -1.82903 0
M  V30 18727 C 1751.98 1.47607 -0.681977 0
M  V30 18728 O 1753.17 1.64253 -0.924827 0
M  V30 18729 C 1750.29 2.74116 -1.98942 0
M  V30 18730 C 1749.34 2.80261 -3.2149 0
M  V30 18731 S 1750.17 2.39647 -4.78884 0
M  V30 18732 C 1751.33 3.79279 -4.97894 0
M  V30 18733 H 1751.56 1.12752 -2.75089 0
M  V30 18734 H 1749.09 0.473936 -1.46946 0
M  V30 18735 H 1751.05 3.5339 -2.08868 0
M  V30 18736 H 1749.71 2.95078 -1.07647 0
M  V30 18737 H 1748.91 3.81291 -3.29595 0
M  V30 18738 H 1748.51 2.09007 -3.10148 0
M  V30 18739 H 1750.8 4.74537 -4.83551 0
M  V30 18740 H 1751.74 3.76127 -5.99945 0
M  V30 18741 H 1752.15 3.70518 -4.25883 0
M  V30 18742 N 1751.55 1.48103 0.538828 0
M  V30 18743 C 1752.5 1.62398 1.66522 0
M  V30 18744 C 1753.49 0.490669 1.62138 0
M  V30 18745 O 1754.7 0.669098 1.67102 0
M  V30 18746 H 1751.07 0.511415 0.551324 0
M  V30 18747 H 1753.04 2.57018 1.51606 0
M  V30 18748 C 1751.79 1.67264 3.04824 0
M  V30 18749 H 1751.11 2.53828 3.08887 0
M  V30 18750 H 1752.55 1.81312 3.83278 0
M  V30 18751 C 1751.01 0.409539 3.34402 0
M  V30 18752 O 1751.54 -0.481433 3.98805 0
M  V30 18753 N 1749.75 0.283934 2.8921 0
M  V30 18754 H 1749.3 1.00993 2.36977 0
M  V30 18755 H 1749.25 -0.560201 3.09369 0
M  V30 18756 N 1753.03 -0.787016 1.36542 0
M  V30 18757 C 1753.97 -1.92115 1.31128 0
M  V30 18758 C 1754.97 -1.68183 0.202656 0
M  V30 18759 O 1756.17 -1.7616 0.369802 0
M  V30 18760 H 1752.55 -0.631514 0.408281 0
M  V30 18761 H 1754.52 -1.938 2.26901 0
M  V30 18762 C 1753.27 -3.29173 1.11985 0
M  V30 18763 H 1752.59 -3.48156 1.96539 0
M  V30 18764 H 1754.03 -4.08873 1.12243 0
M  V30 18765 C 1752.49 -3.36443 -0.175383 0
M  V30 18766 O 1753.02 -3.84455 -1.16437 0
M  V30 18767 N 1751.23 -2.89759 -0.220879 0
M  V30 18768 H 1750.77 -2.5088 0.584558 0
M  V30 18769 H 1750.73 -2.95005 -1.08717 0
M  V30 18770 N 1754.5 -1.20861 -1.01145 0
M  V30 18771 C 1755.44 -0.905387 -2.09471 0
M  V30 18772 C 1756.42 0.144563 -1.61956 0
M  V30 18773 O 1757.6 0.0170118 -1.88492 0
M  V30 18774 C 1754.73 -0.358266 -3.368 0
M  V30 18775 C 1753.77 -1.39001 -4.03213 0
M  V30 18776 S 1754.61 -2.95692 -4.4646 0
M  V30 18777 C 1755.76 -2.42569 -5.76984 0
M  V30 18778 H 1755.99 -1.82274 -2.34869 0
M  V30 18779 H 1753.53 -1.03765 -1.14334 0
M  V30 18780 H 1755.49 -0.0491564 -4.10471 0
M  V30 18781 H 1754.15 0.537669 -3.09464 0
M  V30 18782 H 1753.34 -0.956674 -4.94837 0
M  V30 18783 H 1752.94 -1.64686 -3.35789 0
M  V30 18784 H 1755.23 -1.82652 -6.52414 0
M  V30 18785 H 1756.18 -3.3261 -6.25121 0
M  V30 18786 H 1756.58 -1.8451 -5.33494 0
M  V30 18787 N 1755.98 1.20536 -1.01532 0
M  V30 18788 C 1756.91 2.22683 -0.542658 0
M  V30 18789 C 1757.93 1.5844 0.374267 0
M  V30 18790 O 1759.12 1.77661 0.172818 0
M  V30 18791 C 1756.22 3.38117 0.230168 0
M  V30 18792 C 1755.39 4.3195 -0.688356 0
M  V30 18793 C 1754.45 5.26187 0.0366686 0
M  V30 18794 O 1753.47 5.66182 -0.585418 0
M  V30 18795 N 1754.68 5.65481 1.31193 0
M  V30 18796 H 1757.44 2.63864 -1.42111 0
M  V30 18797 H 1755 1.35065 -0.892703 0
M  V30 18798 H 1756.99 3.98164 0.724408 0
M  V30 18799 H 1755.56 2.95837 1.00991 0
M  V30 18800 H 1754.78 3.69889 -1.36292 0
M  V30 18801 H 1756.07 4.91564 -1.3131 0
M  V30 18802 H 1755.47 5.34998 1.83829 0
M  V30 18803 H 1754.03 6.27842 1.75092 0
M  V30 18804 N 1757.46 0.791395 1.36289 0
M  V30 18805 C 1758.39 0.149076 2.28715 0
M  V30 18806 C 1759.41 -0.642827 1.49571 0
M  V30 18807 O 1760.59 -0.477685 1.7199 0
M  V30 18808 C 1757.69 -0.811868 3.29032 0
M  V30 18809 C 1756.87 -0.0695975 4.37345 0
M  V30 18810 C 1755.93 -0.946776 5.17612 0
M  V30 18811 O 1754.95 -0.403295 5.67769 0
M  V30 18812 N 1756.15 -2.27079 5.34243 0
M  V30 18813 H 1758.92 0.943005 2.84478 0
M  V30 18814 H 1756.48 0.645479 1.48476 0
M  V30 18815 H 1758.47 -1.40257 3.79618 0
M  V30 18816 H 1757.04 -1.50667 2.73895 0
M  V30 18817 H 1756.26 0.702196 3.87895 0
M  V30 18818 H 1757.55 0.442542 5.06872 0
M  V30 18819 H 1756.95 -2.73646 4.9511 0
M  V30 18820 H 1755.51 -2.81109 5.88065 0
M  V30 18821 N 1758.94 -1.47929 0.54358 0
M  V30 18822 C 1759.87 -2.3264 -0.200228 0
M  V30 18823 C 1760.85 -1.42945 -0.922 0
M  V30 18824 O 1762.04 -1.71817 -0.905129 0
M  V30 18825 C 1759.17 -3.24439 -1.23922 0
M  V30 18826 C 1758.12 -4.23267 -0.634753 0
M  V30 18827 C 1757.45 -5.04295 -1.77739 0
M  V30 18828 C 1758.75 -5.20747 0.402524 0
M  V30 18829 H 1760.44 -2.95077 0.506957 0
M  V30 18830 H 1757.99 -1.41896 0.245246 0
M  V30 18831 H 1759.94 -3.82535 -1.76763 0
M  V30 18832 H 1758.66 -2.60029 -1.97616 0
M  V30 18833 H 1757.32 -3.66377 -0.127756 0
M  V30 18834 H 1756.97 -4.36299 -2.50304 0
M  V30 18835 H 1756.67 -5.71195 -1.37879 0
M  V30 18836 H 1758.19 -5.65246 -2.30932 0
M  V30 18837 H 1759.61 -5.73287 -0.039305 0
M  V30 18838 H 1758 -5.95774 0.719251 0
M  V30 18839 H 1759.07 -4.67054 1.3034 0
M  V30 18840 N 1760.42 -0.27936 -1.55104 0
M  V30 18841 C 1761.83 0.074665 -1.59425 0
M  V30 18842 C 1762.03 1.54246 -1.29655 0
M  V30 18843 O 1761.09 2.29197 -1.05947 0
M  V30 18844 C 1762.4 -0.30379 -2.99162 0
M  V30 18845 C 1763.95 -0.250758 -3.11994 0
M  V30 18846 C 1764.43 -0.603715 -4.54004 0
M  V30 18847 N 1765.92 -0.555428 -4.59858 0
M  V30 18848 C 1766.65 -0.801278 -5.67774 0
M  V30 18849 N 1766.15 -1.11197 -6.83818 0
M  V30 18850 N 1767.94 -0.72979 -5.57342 0
M  V30 18851 H 1760.09 -1.23619 -1.7272 0
M  V30 18852 H 1762.35 -0.499704 -0.805606 0
M  V30 18853 H 1762.06 -1.32475 -3.25796 0
M  V30 18854 H 1761.93 0.353294 -3.75542 0
M  V30 18855 H 1764.32 0.760925 -2.85121 0
M  V30 18856 H 1764.4 -0.94216 -2.37817 0
M  V30 18857 H 1764.05 -1.6131 -4.81603 0
M  V30 18858 H 1763.98 0.109523 -5.26486 0
M  V30 18859 H 1766.47 -0.325348 -3.76497 0
M  V30 18860 H 1766.78 -1.28611 -7.62023 0
M  V30 18861 H 1765.13 -1.14978 -6.85423 0
M  V30 18862 H 1768.32 -0.48688 -4.65561 0
M  V30 18863 H 1768.49 -0.92477 -6.41367 0
M  V30 18864 N 1761.9 1.57599 -0.0067085 0
M  V30 18865 C 1763.14 1.9114 0.677733 0
M  V30 18866 C 1763.47 0.881328 1.7305 0
M  V30 18867 O 1762.75 -0.099049 1.94248 0
M  V30 18868 C 1763.03 3.35241 1.31474 0
M  V30 18869 C 1762.89 4.4897 0.273055 0
M  V30 18870 C 1764.2 3.78886 2.23905 0
M  V30 18871 H 1761.32 0.695119 0.244907 0
M  V30 18872 H 1763.97 1.89907 -0.059378 0
M  V30 18873 H 1762.12 3.36423 1.94299 0
M  V30 18874 H 1763.79 4.59924 -0.356031 0
M  V30 18875 H 1762.03 4.31915 -0.403961 0
M  V30 18876 H 1762.7 5.46772 0.757941 0
M  V30 18877 H 1765.18 3.79299 1.7109 0
M  V30 18878 H 1764.05 4.80451 2.65439 0
M  V30 18879 H 1764.31 3.13129 3.12094 0
M  V30 18880 N 1763.37 -0.266145 1.55336 0
M  V30 18881 C 1764.31 -1.35159 1.85107 0
M  V30 18882 C 1765.32 -1.45213 0.736006 0
M  V30 18883 O 1766.51 -1.46907 1.01393 0
M  V30 18884 C 1763.61 -2.73218 2.00512 0
M  V30 18885 C 1762.78 -2.85671 3.31226 0
M  V30 18886 C 1761.84 -4.0445 3.36611 0
M  V30 18887 O 1760.87 -3.94884 4.09945 0
M  V30 18888 N 1762.07 -5.16735 2.64508 0
M  V30 18889 H 1764.83 -1.09963 2.78798 0
M  V30 18890 H 1762.39 -0.456261 1.55338 0
M  V30 18891 H 1764.39 -3.50983 2.01477 0
M  V30 18892 H 1762.96 -2.91206 1.13655 0
M  V30 18893 H 1762.18 -1.94736 3.42741 0
M  V30 18894 H 1763.46 -2.90927 4.17419 0
M  V30 18895 H 1762.86 -5.27395 2.04624 0
M  V30 18896 H 1761.42 -5.92706 2.71189 0
M  V30 18897 N 1764.85 -1.48386 -0.530967 0
M  V30 18898 C 1765.78 -1.6573 -1.64486 0
M  V30 18899 C 1766.76 -0.506198 -1.62393 0
M  V30 18900 O 1767.95 -0.738623 -1.79605 0
M  V30 18901 C 1765.08 -1.69594 -3.03076 0
M  V30 18902 C 1764.03 -2.84195 -3.20027 0
M  V30 18903 C 1763.36 -2.73148 -4.59668 0
M  V30 18904 C 1764.66 -4.25504 -3.02892 0
M  V30 18905 H 1766.35 -2.58983 -1.50227 0
M  V30 18906 H 1763.9 -1.24633 -0.721286 0
M  V30 18907 H 1765.85 -1.80316 -3.80873 0
M  V30 18908 H 1764.57 -0.729193 -3.18356 0
M  V30 18909 H 1763.23 -2.73027 -2.44647 0
M  V30 18910 H 1762.88 -1.74444 -4.71782 0
M  V30 18911 H 1762.58 -3.50047 -4.71954 0
M  V30 18912 H 1764.11 -2.85836 -5.39565 0
M  V30 18913 H 1765.52 -4.37511 -3.70482 0
M  V30 18914 H 1763.92 -5.03393 -3.26673 0
M  V30 18915 H 1764.99 -4.42036 -1.99329 0
M  V30 18916 N 1766.33 0.779763 -1.36958 0
M  V30 18917 C 1767.24 1.92394 -1.34245 0
M  V30 18918 C 1768.26 1.72292 -0.243187 0
M  V30 18919 O 1769.43 1.95665 -0.477211 0
M  V30 18920 C 1766.5 3.27402 -1.14057 0
M  V30 18921 C 1765.56 3.60213 -2.33548 0
M  V30 18922 C 1764.79 4.88779 -2.14314 0
M  V30 18923 O 1765.01 5.59231 -1.12327 0
M  V30 18924 O 1763.95 5.20469 -3.02316 0
M  V30 18925 H 1767.77 1.97633 -2.30596 0
M  V30 18926 H 1765.36 0.921386 -1.17605 0
M  V30 18927 H 1767.24 4.08172 -1.04755 0
M  V30 18928 H 1765.92 3.23033 -0.207744 0
M  V30 18929 H 1764.82 2.7971 -2.48421 0
M  V30 18930 H 1766.16 3.69317 -3.25371 0
M  V30 18931 N 1767.81 1.21396 1.00503 0
M  V30 18932 C 1768.75 0.973198 2.09279 0
M  V30 18933 C 1769.72 -0.100797 1.65794 0
M  V30 18934 O 1770.91 0.0463185 1.90744 0
M  V30 18935 C 1768.05 0.543941 3.40786 0
M  V30 18936 C 1767.16 1.68737 3.97683 0
M  V30 18937 C 1766.3 1.20728 5.17299 0
M  V30 18938 C 1765.34 2.32305 5.66305 0
M  V30 18939 N 1764.47 1.8543 6.77171 0
M  V30 18940 H 1769.31 1.90441 2.29208 0
M  V30 18941 H 1766.85 0.949082 1.12387 0
M  V30 18942 H 1768.81 0.276311 4.16284 0
M  V30 18943 H 1767.44 -0.350263 3.20894 0
M  V30 18944 H 1766.49 2.06964 3.19171 0
M  V30 18945 H 1767.8 2.5271 4.30045 0
M  V30 18946 H 1766.96 0.896312 6.00043 0
M  V30 18947 H 1765.7 0.3376 4.8653 0
M  V30 18948 H 1764.7 2.64205 4.82158 0
M  V30 18949 H 1765.93 3.19769 5.99103 0
M  V30 18950 H 1763.87 1.00806 6.48208 0
M  V30 18951 H 1763.79 2.62976 7.08788 0
M  V30 18952 H 1765.06 1.57366 7.6345 0
M  V30 18953 N 1769.29 -1.19996 1.0217 0
M  V30 18954 C 1770.22 -2.21695 0.540962 0
M  V30 18955 C 1771.2 -1.57232 -0.414343 0
M  V30 18956 O 1772.38 -1.85533 -0.33314 0
M  V30 18957 C 1769.51 -3.38035 -0.212109 0
M  V30 18958 C 1768.55 -4.20824 0.693529 0
M  V30 18959 S 1769.39 -4.89756 2.16562 0
M  V30 18960 C 1770.54 -6.09513 1.42286 0
M  V30 18961 H 1770.78 -2.62131 1.40267 0
M  V30 18962 H 1768.31 -1.30128 0.831026 0
M  V30 18963 H 1770.27 -4.05473 -0.640484 0
M  V30 18964 H 1768.93 -2.96049 -1.04945 0
M  V30 18965 H 1768.12 -5.03874 0.112557 0
M  V30 18966 H 1767.72 -3.58667 1.05991 0
M  V30 18967 H 1770.01 -6.73816 0.705585 0
M  V30 18968 H 1770.96 -6.72079 2.22969 0
M  V30 18969 H 1771.37 -5.56895 0.923499 0
M  V30 18970 N 1770.76 -0.798611 -1.35867 0
M  V30 18971 C 1772.01 -0.37526 -1.98993 0
M  V30 18972 C 1772.34 1.05549 -1.6337 0
M  V30 18973 O 1771.59 1.74552 -0.88488 0
M  V30 18974 C 1771.89 -0.496572 -3.53934 0
M  V30 18975 C 1771.56 -1.88946 -4.09402 0
M  V30 18976 C 1770.22 -2.27056 -4.24263 0
M  V30 18977 C 1772.57 -2.8011 -4.39531 0
M  V30 18978 C 1769.9 -3.55712 -4.66568 0
M  V30 18979 C 1772.25 -4.08205 -4.83272 0
M  V30 18980 C 1770.92 -4.46323 -4.96338 0
M  V30 18981 H 1770.19 -0.137317 -0.728165 0
M  V30 18982 H 1772.83 -1.01786 -1.6221 0
M  V30 18983 H 1771.14 0.229499 -3.91127 0
M  V30 18984 H 1772.84 -0.149903 -4.0072 0
M  V30 18985 H 1769.43 -1.58336 -3.98281 0
M  V30 18986 H 1773.61 -2.51919 -4.2761 0
M  V30 18987 H 1768.87 -3.85105 -4.74873 0
M  V30 18988 H 1773.04 -4.78952 -5.05547 0
M  V30 18989 H 1770.67 -5.4607 -5.28877 0
M  V30 18990 N 1772.24 1.47639 -0.551417 0
M  V30 18991 C 1773.15 2.33722 0.202799 0
M  V30 18992 C 1774.17 1.47832 0.917699 0
M  V30 18993 O 1775.34 1.80772 0.887885 0
M  V30 18994 C 1772.41 3.24408 1.22313 0
M  V30 18995 C 1771.47 4.26184 0.51628 0
M  V30 18996 C 1770.7 5.12537 1.488 0
M  V30 18997 O 1770.93 5.01241 2.72238 0
M  V30 18998 O 1769.86 5.93269 1.01566 0
M  V30 18999 H 1773.69 2.99503 -0.50317 0
M  V30 19000 H 1771.27 1.46104 -0.312093 0
M  V30 19001 H 1773.15 3.80441 1.81225 0
M  V30 19002 H 1771.83 2.61262 1.91112 0
M  V30 19003 H 1770.73 3.73927 -0.113886 0
M  V30 19004 H 1772.07 4.92028 -0.130158 0
M  V30 19005 N 1773.72 0.287581 1.54954 0
M  V30 19006 C 1774.68 -0.581465 2.21702 0
M  V30 19007 C 1775.68 -1.07172 1.19878 0
M  V30 19008 O 1776.87 -0.969899 1.44702 0
M  V30 19009 C 1774.01 -1.80358 2.89282 0
M  V30 19010 H 1775.2 0.00151035 2.999 0
M  V30 19011 H 1772.75 0.0382953 1.56253 0
M  V30 19012 H 1773.49 -2.42674 2.15128 0
M  V30 19013 H 1773.27 -1.45983 3.63911 0
M  V30 19014 H 1774.76 -2.42129 3.4024 0
M  V30 19015 N 1775.2 -1.57593 0.0150662 0
M  V30 19016 C 1776.13 -2.04839 -1.0058 0
M  V30 19017 C 1777.11 -0.941261 -1.32586 0
M  V30 19018 O 1778.29 -1.21053 -1.44493 0
M  V30 19019 C 1775.42 -2.45866 -2.32954 0
M  V30 19020 C 1774.47 -3.6746 -2.16507 0
M  V30 19021 S 1775.3 -5.14728 -1.477 0
M  V30 19022 C 1776.46 -5.59038 -2.81473 0
M  V30 19023 H 1776.69 -2.91109 -0.603575 0
M  V30 19024 H 1774.22 -1.53148 -0.196235 0
M  V30 19025 H 1776.18 -2.7017 -3.09061 0
M  V30 19026 H 1774.84 -1.59967 -2.70313 0
M  V30 19027 H 1774.03 -3.93967 -3.14334 0
M  V30 19028 H 1773.64 -3.43235 -1.48545 0
M  V30 19029 H 1775.93 -5.62419 -3.77745 0
M  V30 19030 H 1776.87 -6.58778 -2.59648 0
M  V30 19031 H 1777.28 -4.86643 -2.86075 0
M  V30 19032 N 1776.68 0.257904 -1.55475 0
M  V30 19033 C 1777.92 0.985519 -1.76442 0
M  V30 19034 C 1778.25 1.86267 -0.577033 0
M  V30 19035 O 1777.52 1.91613 0.407582 0
M  V30 19036 H 1776.1 0.366872 -0.650702 0
M  V30 19037 H 1778.76 0.278498 -1.929 0
M  V30 19038 H 1777.85 1.61367 -2.67146 0
M  V30 19039 N 1778.15 1.48666 0.52309 0
M  V30 19040 C 1779.4 1.56724 1.27601 0
M  V30 19041 C 1779.72 0.245958 1.93443 0
M  V30 19042 O 1778.99 -0.733053 1.81668 0
M  V30 19043 H 1777.57 0.57739 0.473952 0
M  V30 19044 H 1780.24 1.85169 0.608144 0
M  V30 19045 H 1779.33 2.35188 2.05166 0
M  V30 19046 N 1779.63 -0.772489 1.37369 0
M  V30 19047 C 1780.58 -1.88575 1.33073 0
M  V30 19048 C 1781.55 -1.64935 0.19641 0
M  V30 19049 O 1782.73 -1.86862 0.385651 0
M  V30 19050 C 1779.87 -3.25628 1.14281 0
M  V30 19051 C 1778.99 -3.61227 2.36936 0
M  V30 19052 C 1778.12 -4.87486 2.11023 0
M  V30 19053 C 1777.16 -5.15814 3.29548 0
M  V30 19054 N 1776.3 -6.33261 3.03191 0
M  V30 19055 H 1781.14 -1.91583 2.28255 0
M  V30 19056 H 1778.68 -0.936654 1.13425 0
M  V30 19057 H 1780.63 -4.04688 1.01407 0
M  V30 19058 H 1779.26 -3.21998 0.227467 0
M  V30 19059 H 1778.32 -2.77158 2.60552 0
M  V30 19060 H 1779.63 -3.781 3.25333 0
M  V30 19061 H 1778.78 -5.74449 1.95176 0
M  V30 19062 H 1777.52 -4.72716 1.19962 0
M  V30 19063 H 1776.53 -4.27328 3.45935 0
M  V30 19064 H 1777.75 -5.32493 4.21459 0
M  V30 19065 H 1775.7 -6.19851 2.14759 0
M  V30 19066 H 1775.61 -6.50546 3.85131 0
M  V30 19067 H 1776.88 -7.23162 2.9096 0
M  V30 19068 N 1781.11 -1.21927 -0.998575 0
M  V30 19069 C 1782.02 -1.00049 -2.12197 0
M  V30 19070 C 1783.04 0.0494414 -1.7393 0
M  V30 19071 O 1784.21 -0.142033 -2.00899 0
M  V30 19072 C 1781.28 -0.574871 -3.41901 0
M  V30 19073 C 1780.34 -1.69776 -3.94303 0
M  V30 19074 C 1779.57 -1.29236 -5.17816 0
M  V30 19075 O 1779.79 -0.168709 -5.7015 0
M  V30 19076 O 1778.73 -2.10671 -5.63827 0
M  V30 19077 H 1782.55 -1.94154 -2.33534 0
M  V30 19078 H 1780.14 -1.00472 -1.10571 0
M  V30 19079 H 1782.02 -0.347603 -4.19964 0
M  V30 19080 H 1780.7 0.337389 -3.21937 0
M  V30 19081 H 1779.6 -1.9795 -3.17438 0
M  V30 19082 H 1780.94 -2.58768 -4.18688 0
M  V30 19083 N 1782.59 1.19452 -1.02805 0
M  V30 19084 C 1783.52 2.24875 -0.628752 0
M  V30 19085 C 1784.5 1.66207 0.361844 0
M  V30 19086 O 1785.68 1.92652 0.244743 0
M  V30 19087 C 1782.81 3.47293 0.0220954 0
M  V30 19088 C 1781.77 4.1863 -0.890693 0
M  V30 19089 C 1781.09 5.34597 -0.104997 0
M  V30 19090 C 1782.39 4.73518 -2.20405 0
M  V30 19091 H 1784.09 2.5853 -1.51005 0
M  V30 19092 H 1781.63 1.24271 -0.727518 0
M  V30 19093 H 1783.59 4.20235 0.313073 0
M  V30 19094 H 1782.31 3.12835 0.938182 0
M  V30 19095 H 1780.97 3.47568 -1.16585 0
M  V30 19096 H 1780.62 4.96385 0.813098 0
M  V30 19097 H 1780.32 5.83258 -0.712983 0
M  V30 19098 H 1781.84 6.10337 0.179259 0
M  V30 19099 H 1783.26 5.3822 -1.97465 0
M  V30 19100 H 1781.65 5.32663 -2.76388 0
M  V30 19101 H 1782.72 3.9163 -2.85926 0
M  V30 19102 N 1784.07 0.805805 1.35442 0
M  V30 19103 C 1785.34 0.309105 1.93142 0
M  V30 19104 C 1785.72 -1.20119 1.73593 0
M  V30 19105 O 1785.07 -2.00034 1.10448 0
M  V30 19106 C 1785.28 0.719653 3.415 0
M  V30 19107 C 1786.63 0.708697 4.18644 0
M  V30 19108 O 1787.65 0.661148 3.5001 0
M  V30 19109 O 1786.51 0.76636 5.411 0
M  V30 19110 H 1783.61 0.0806647 0.823057 0
M  V30 19111 H 1786.15 0.88945 1.44523 0
M  V30 19112 H 1784.92 1.7606 3.49455 0
M  V30 19113 H 1784.55 0.114073 3.97436 0
M  V30 19114 N 1785.54 -1.47344 0.559239 0
M  V30 19115 C 1786.77 -2.07364 0.0388864 0
M  V30 19116 C 1787.19 -1.40886 -1.2463 0
M  V30 19117 O 1786.55 -0.48454 -1.74705 0
M  V30 19118 C 1786.6 -3.60336 -0.137894 0
M  V30 19119 O 1785.7 -3.94555 -1.2 0
M  V30 19120 H 1785.05 -0.661942 0.0522363 0
M  V30 19121 H 1787.58 -1.89333 0.7755 0
M  V30 19122 H 1787.59 -4.06483 -0.351462 0
M  V30 19123 H 1786.26 -4.08118 0.800776 0
M  V30 19124 H 1784.84 -3.6015 -0.966757 0
M  V30 19125 N 1787.02 -0.295795 -1.54799 0
M  V30 19126 C 1787.93 0.592206 -2.27002 0
M  V30 19127 C 1788.95 1.1528 -1.30332 0
M  V30 19128 O 1790.12 1.1787 -1.63305 0
M  V30 19129 C 1787.19 1.75027 -2.99277 0
M  V30 19130 C 1786.25 1.22427 -4.11473 0
M  V30 19131 C 1785.48 2.32714 -4.80291 0
M  V30 19132 O 1785.71 3.52506 -4.48437 0
M  V30 19133 O 1784.64 1.997 -5.67806 0
M  V30 19134 H 1788.47 0.00666048 -3.03699 0
M  V30 19135 H 1786.05 -0.0624413 -1.49269 0
M  V30 19136 H 1787.93 2.42508 -3.44627 0
M  V30 19137 H 1786.61 2.32252 -2.25479 0
M  V30 19138 H 1785.52 0.515337 -3.70534 0
M  V30 19139 H 1786.85 0.697518 -4.87233 0
M  V30 19140 N 1788.5 1.57583 -0.0234236 0
M  V30 19141 C 1789.46 2.08797 0.945325 0
M  V30 19142 C 1790.46 1.00189 1.25773 0
M  V30 19143 O 1791.65 1.2637 1.19901 0
M  V30 19144 C 1788.79 2.54906 2.26353 0
M  V30 19145 H 1789.98 2.95671 0.50187 0
M  V30 19146 H 1787.53 1.54679 0.224507 0
M  V30 19147 H 1788.27 1.71345 2.75339 0
M  V30 19148 H 1788.05 3.34247 2.04991 0
M  V30 19149 H 1789.54 2.94774 2.95801 0
M  V30 19150 N 1789.98 -0.249655 1.5561 0
M  V30 19151 C 1790.94 -1.29242 1.89286 0
M  V30 19152 C 1791.94 -1.41214 0.769104 0
M  V30 19153 O 1793.13 -1.39962 1.03712 0
M  V30 19154 C 1790.26 -2.67053 2.11885 0
M  V30 19155 H 1791.46 -1.00601 2.82523 0
M  V30 19156 H 1789.01 -0.488819 1.4846 0
M  V30 19157 H 1789.75 -3.00838 1.21107 0
M  V30 19158 H 1789.53 -2.59745 2.93726 0
M  V30 19159 H 1791.02 -3.42353 2.39132 0
M  V30 19160 N 1791.46 -1.48941 -0.515198 0
M  V30 19161 C 1792.73 -1.48205 -1.27651 0
M  V30 19162 C 1793.11 -0.201866 -2.10133 0
M  V30 19163 O 1792.46 0.816115 -2.13429 0
M  V30 19164 C 1792.67 -2.75274 -2.14535 0
M  V30 19165 C 1794.02 -3.24198 -2.74192 0
M  V30 19166 O 1795.04 -2.76293 -2.24813 0
M  V30 19167 O 1793.9 -4.07593 -3.64047 0
M  V30 19168 H 1791 -0.592546 -0.576904 0
M  V30 19169 H 1793.54 -1.6119 -0.530636 0
M  V30 19170 H 1792.32 -3.59949 -1.53469 0
M  V30 19171 H 1791.94 -2.6508 -2.96342 0
M  V30 19172 N 1792.94 0.765193 -1.37777 0
M  V30 19173 C 1794.16 1.55948 -1.3673 0
M  V30 19174 C 1794.59 1.8805 0.0435817 0
M  V30 19175 O 1793.94 1.49718 1.02246 0
M  V30 19176 C 1793.99 2.84245 -2.21895 0
M  V30 19177 O 1793.1 3.78903 -1.62807 0
M  V30 19178 H 1792.44 0.472127 -0.466897 0
M  V30 19179 H 1794.97 0.946556 -1.81388 0
M  V30 19180 H 1794.98 3.33284 -2.35342 0
M  V30 19181 H 1793.65 2.60209 -3.24444 0
M  V30 19182 H 1792.23 3.37568 -1.58437 0
M  V30 19183 N 1794.41 1.22455 0.992094 0
M  V30 19184 C 1795.34 1.01961 2.10063 0
M  V30 19185 C 1796.32 -0.0597186 1.69995 0
M  V30 19186 O 1797.51 0.102655 1.93928 0
M  V30 19187 C 1794.64 0.597442 3.42123 0
M  V30 19188 C 1793.59 1.62279 3.96042 0
M  V30 19189 C 1792.92 1.05644 5.2416 0
M  V30 19190 C 1794.22 3.01296 4.26635 0
M  V30 19191 H 1795.91 1.94678 2.27466 0
M  V30 19192 H 1793.46 0.937422 1.09309 0
M  V30 19193 H 1795.41 0.441175 4.19084 0
M  V30 19194 H 1794.14 -0.365401 3.24549 0
M  V30 19195 H 1792.8 1.76685 3.21213 0
M  V30 19196 H 1792.44 0.0849267 5.02928 0
M  V30 19197 H 1792.14 1.74144 5.61202 0
M  V30 19198 H 1793.67 0.911774 6.03754 0
M  V30 19199 H 1795.08 2.9026 4.94391 0
M  V30 19200 H 1793.48 3.66928 4.74852 0
M  V30 19201 H 1794.55 3.51168 3.34378 0
M  V30 19202 N 1795.89 -1.18905 1.03437 0
M  V30 19203 C 1796.84 -2.22318 0.619933 0
M  V30 19204 C 1797.81 -1.61948 -0.369056 0
M  V30 19205 O 1798.99 -1.88958 -0.26447 0
M  V30 19206 C 1796.13 -3.45096 -0.0174579 0
M  V30 19207 C 1795.25 -4.19829 1.01823 0
M  V30 19208 C 1794.38 -5.30046 0.350026 0
M  V30 19209 C 1793.42 -5.96543 1.37125 0
M  V30 19210 N 1792.56 -6.98311 0.728458 0
M  V30 19211 H 1797.4 -2.57125 1.50634 0
M  V30 19212 H 1794.93 -1.26324 0.753695 0
M  V30 19213 H 1796.89 -4.15236 -0.404294 0
M  V30 19214 H 1795.52 -3.10927 -0.867412 0
M  V30 19215 H 1794.57 -3.48578 1.52308 0
M  V30 19216 H 1795.89 -4.65415 1.79416 0
M  V30 19217 H 1795.04 -6.06631 -0.0913585 0
M  V30 19218 H 1793.78 -4.85544 -0.458049 0
M  V30 19219 H 1792.78 -5.18703 1.82284 0
M  V30 19220 H 1794.01 -6.43127 2.18091 0
M  V30 19221 H 1791.96 -6.55973 -0.0594251 0
M  V30 19222 H 1791.87 -7.42117 1.44218 0
M  V30 19223 H 1793.14 -7.78878 0.311259 0
M  V30 19224 N 1797.37 -0.812977 -1.35013 0
M  V30 19225 C 1798.28 -0.229534 -2.33474 0
M  V30 19226 C 1799.3 0.630837 -1.62162 0
M  V30 19227 O 1800.47 0.541083 -1.93995 0
M  V30 19228 C 1797.54 0.607055 -3.41344 0
M  V30 19229 C 1796.6 -0.274554 -4.28421 0
M  V30 19230 C 1795.83 0.522202 -5.31139 0
M  V30 19231 O 1796.05 1.75636 -5.42686 0
M  V30 19232 O 1794.99 -0.0902666 -6.01832 0
M  V30 19233 H 1798.81 -1.04423 -2.85183 0
M  V30 19234 H 1796.4 -0.5749 -1.37896 0
M  V30 19235 H 1798.28 1.08335 -4.07236 0
M  V30 19236 H 1796.96 1.39924 -2.91895 0
M  V30 19237 H 1795.86 -0.798124 -3.65487 0
M  V30 19238 H 1797.2 -1.03084 -4.81284 0
M  V30 19239 N 1798.85 1.47045 -0.567045 0
M  V30 19240 C 1799.78 2.32929 0.163191 0
M  V30 19241 C 1800.76 1.44393 0.899142 0
M  V30 19242 O 1801.94 1.73235 0.87768 0
M  V30 19243 C 1799.07 3.26369 1.18745 0
M  V30 19244 C 1798.03 4.24223 0.567335 0
M  V30 19245 C 1797.35 5.07058 1.69693 0
M  V30 19246 C 1798.65 5.2004 -0.485319 0
M  V30 19247 H 1800.35 2.94233 -0.553837 0
M  V30 19248 H 1797.89 1.41488 -0.267789 0
M  V30 19249 H 1799.85 3.85299 1.70654 0
M  V30 19250 H 1798.57 2.6314 1.93455 0
M  V30 19251 H 1797.23 3.66534 0.0694525 0
M  V30 19252 H 1796.88 4.40226 2.43331 0
M  V30 19253 H 1796.58 5.73316 1.28774 0
M  V30 19254 H 1798.1 5.68848 2.2191 0
M  V30 19255 H 1799.52 5.73277 -0.0519049 0
M  V30 19256 H 1797.91 5.94554 -0.813942 0
M  V30 19257 H 1798.98 4.64921 -1.37754 0
M  V30 19258 N 1800.33 0.304 1.5464 0
M  V30 19259 C 1801.26 -0.604475 2.21085 0
M  V30 19260 C 1802.27 -1.0952 1.20454 0
M  V30 19261 O 1803.46 -1.01214 1.47031 0
M  V30 19262 C 1800.56 -1.8399 2.84607 0
M  V30 19263 C 1799.73 -1.49116 4.11197 0
M  V30 19264 C 1798.79 -2.58205 4.58494 0
M  V30 19265 O 1797.82 -2.23171 5.23625 0
M  V30 19266 N 1799.02 -3.88798 4.31065 0
M  V30 19267 H 1801.78 -0.035633 2.99679 0
M  V30 19268 H 1799.35 0.126332 1.61406 0
M  V30 19269 H 1801.34 -2.56322 3.13179 0
M  V30 19270 H 1799.91 -2.31706 2.09836 0
M  V30 19271 H 1799.13 -0.600347 3.89602 0
M  V30 19272 H 1800.42 -1.23358 4.93619 0
M  V30 19273 H 1799.81 -4.20068 3.78892 0
M  V30 19274 H 1798.37 -4.57419 4.6434 0
M  V30 19275 N 1801.8 -1.57568 0.0317802 0
M  V30 19276 C 1803.05 -1.92194 -0.647238 0
M  V30 19277 C 1803.38 -0.908747 -1.71626 0
M  V30 19278 O 1802.66 0.0681334 -1.94381 0
M  V30 19279 C 1802.94 -3.3729 -1.26124 0
M  V30 19280 C 1802.79 -4.49348 -0.201594 0
M  V30 19281 C 1804.11 -3.824 -2.17849 0
M  V30 19282 H 1801.23 -0.698927 -0.233817 0
M  V30 19283 H 1803.87 -1.89789 0.0895831 0
M  V30 19284 H 1802.02 -3.39471 -1.88922 0
M  V30 19285 H 1803.7 -4.59299 0.429155 0
M  V30 19286 H 1801.94 -4.31218 0.472624 0
M  V30 19287 H 1802.61 -5.47908 -0.670859 0
M  V30 19288 H 1805.09 -3.81972 -1.65034 0
M  V30 19289 H 1803.96 -4.84614 -2.57761 0
M  V30 19290 H 1804.22 -3.18054 -3.07073 0
M  V30 19291 N 1803.28 0.241399 -1.5574 0
M  V30 19292 C 1804.23 1.29896 -1.90777 0
M  V30 19293 C 1805.2 1.47558 -0.76262 0
M  V30 19294 O 1806.38 1.61451 -1.01677 0
M  V30 19295 C 1803.52 2.6483 -2.21267 0
M  V30 19296 C 1802.64 2.5513 -3.48615 0
M  V30 19297 C 1801.77 3.82455 -3.68649 0
M  V30 19298 C 1800.81 3.67395 -4.89579 0
M  V30 19299 N 1799.95 4.86624 -5.06105 0
M  V30 19300 H 1804.79 0.993166 -2.80963 0
M  V30 19301 H 1802.33 0.47914 -1.39078 0
M  V30 19302 H 1804.28 3.4338 -2.36951 0
M  V30 19303 H 1802.91 2.93546 -1.34278 0
M  V30 19304 H 1801.97 1.6812 -3.41233 0
M  V30 19305 H 1803.28 2.39915 -4.37312 0
M  V30 19306 H 1802.43 4.69449 -3.84321 0
M  V30 19307 H 1801.17 4.00573 -2.78195 0
M  V30 19308 H 1800.18 2.78785 -4.73877 0
M  V30 19309 H 1801.4 3.50766 -5.81498 0
M  V30 19310 H 1799.35 5.05093 -4.18589 0
M  V30 19311 H 1799.26 4.7406 -5.889 0
M  V30 19312 H 1800.53 5.751 -5.26194 0
M  V30 19313 N 1804.76 1.49212 0.507292 0
M  V30 19314 C 1805.69 1.68326 1.61829 0
M  V30 19315 C 1806.67 0.531969 1.61568 0
M  V30 19316 O 1807.86 0.767104 1.78407 0
M  V30 19317 C 1804.99 1.74394 3.0034 0
M  V30 19318 C 1803.94 2.89251 3.15465 0
M  V30 19319 C 1803.27 2.80426 4.55264 0
M  V30 19320 C 1804.57 4.30269 2.96085 0
M  V30 19321 H 1806.26 2.6134 1.46087 0
M  V30 19322 H 1803.81 1.25765 0.701367 0
M  V30 19323 H 1805.76 1.86353 3.77956 0
M  V30 19324 H 1804.48 0.779748 3.17155 0
M  V30 19325 H 1803.14 2.76884 2.40272 0
M  V30 19326 H 1802.79 1.81928 4.68947 0
M  V30 19327 H 1802.49 3.57511 4.66326 0
M  V30 19328 H 1804.01 2.94384 5.34949 0
M  V30 19329 H 1805.43 4.4335 3.63475 0
M  V30 19330 H 1803.83 5.08527 3.18623 0
M  V30 19331 H 1804.9 4.45151 1.92272 0
M  V30 19332 N 1806.24 -0.757876 1.38181 0
M  V30 19333 C 1807.19 -1.8929 1.35174 0
M  V30 19334 C 1808.18 -1.67716 0.238284 0
M  V30 19335 O 1809.39 -1.75336 0.407085 0
M  V30 19336 H 1805.76 -0.622712 0.421585 0
M  V30 19337 H 1807.73 -1.88943 2.30961 0
M  V30 19338 C 1806.48 -3.26723 1.18942 0
M  V30 19339 H 1805.8 -3.43909 2.0388 0
M  V30 19340 H 1807.24 -4.06401 1.20891 0
M  V30 19341 C 1805.7 -3.3674 -0.103978 0
M  V30 19342 O 1806.23 -3.86838 -1.08256 0
M  V30 19343 N 1804.44 -2.90163 -0.159367 0
M  V30 19344 H 1803.99 -2.49583 0.637642 0
M  V30 19345 H 1803.94 -2.97245 -1.02435 0
M  V30 19346 N 1807.72 -1.22979 -0.985586 0
M  V30 19347 C 1808.94 -1.0853 -1.7615 0
M  V30 19348 C 1809.36 0.36363 -1.85265 0
M  V30 19349 O 1808.72 1.25173 -1.32808 0
M  V30 19350 C 1808.77 -1.69872 -3.19101 0
M  V30 19351 O 1808.49 -3.09098 -3.10467 0
M  V30 19352 C 1809.99 -1.60795 -4.1311 0
M  V30 19353 H 1807.21 -0.380086 -0.55297 0
M  V30 19354 H 1809.75 -1.62724 -1.2386 0
M  V30 19355 H 1807.91 -1.19724 -3.68436 0
M  V30 19356 H 1808.32 -3.38769 -4.00419 0
M  V30 19357 H 1809.8 -2.08428 -5.11138 0
M  V30 19358 H 1810.27 -0.565817 -4.3554 0
M  V30 19359 H 1810.88 -2.10284 -3.69676 0
M  V30 19360 N 1809.19 1.18355 -1.04066 0
M  V30 19361 C 1810.44 1.88614 -0.745148 0
M  V30 19362 C 1810.77 1.80147 0.725294 0
M  V30 19363 O 1810.05 1.20177 1.5293 0
M  V30 19364 C 1810.33 3.39095 -1.2119 0
M  V30 19365 C 1810.18 3.56372 -2.74444 0
M  V30 19366 C 1811.5 4.32732 -0.801953 0
M  V30 19367 H 1808.62 0.684905 -0.272166 0
M  V30 19368 H 1811.26 1.39248 -1.29267 0
M  V30 19369 H 1809.41 3.81269 -0.746091 0
M  V30 19370 H 1811.09 3.2329 -3.29061 0
M  V30 19371 H 1809.33 2.99028 -3.14269 0
M  V30 19372 H 1810 4.61956 -3.0216 0
M  V30 19373 H 1812.48 3.98337 -1.20278 0
M  V30 19374 H 1811.35 5.36583 -1.15628 0
M  V30 19375 H 1811.61 4.41115 0.294907 0
M  V30 19376 N 1810.67 0.820125 1.3458 0
M  V30 19377 C 1811.6 0.254709 2.32107 0
M  V30 19378 C 1812.58 -0.6273 1.58111 0
M  V30 19379 O 1813.77 -0.554759 1.86108 0
M  V30 19380 C 1810.9 -0.586541 3.42311 0
M  V30 19381 C 1809.85 0.198096 4.27541 0
M  V30 19382 C 1809.18 -0.765718 5.29189 0
M  V30 19383 C 1810.48 1.40472 5.03056 0
M  V30 19384 H 1812.17 1.06955 2.79644 0
M  V30 19385 H 1809.72 0.515756 1.34447 0
M  V30 19386 H 1811.67 -0.992259 4.09551 0
M  V30 19387 H 1810.4 -1.4344 2.93415 0
M  V30 19388 H 1809.05 0.585149 3.619 0
M  V30 19389 H 1808.7 -1.60946 4.76556 0
M  V30 19390 H 1808.4 -0.244954 5.87089 0
M  V30 19391 H 1809.93 -1.16935 5.99298 0
M  V30 19392 H 1811.34 1.07316 5.63166 0
M  V30 19393 H 1809.74 1.86092 5.70517 0
M  V30 19394 H 1810.81 2.18437 4.32913 0
M  V30 19395 N 1812.15 -1.46743 0.574835 0
M  V30 19396 C 1813.43 -1.95598 -0.00908149 0
M  V30 19397 C 1813.81 -1.5175 -1.46748 0
M  V30 19398 O 1813.16 -0.764502 -2.15331 0
M  V30 19399 C 1813.37 -3.48657 0.154756 0
M  V30 19400 C 1814.71 -4.24596 0.0185002 0
M  V30 19401 O 1815.74 -3.56103 0.0831904 0
M  V30 19402 O 1814.6 -5.4636 -0.123733 0
M  V30 19403 H 1811.69 -0.825219 -0.0542477 0
M  V30 19404 H 1814.24 -1.57063 0.6426 0
M  V30 19405 H 1813.01 -3.73433 1.16891 0
M  V30 19406 H 1812.63 -3.94001 -0.533724 0
M  V30 19407 N 1813.63 -0.312197 -1.54477 0
M  V30 19408 C 1814.54 0.568096 -2.27618 0
M  V30 19409 C 1815.55 1.13892 -1.31547 0
M  V30 19410 O 1816.73 1.16131 -1.64546 0
M  V30 19411 C 1813.8 1.71843 -3.01116 0
M  V30 19412 C 1812.86 1.18056 -4.12748 0
M  V30 19413 C 1812.09 2.27607 -4.82733 0
M  V30 19414 O 1812.31 3.4773 -4.52151 0
M  V30 19415 O 1811.25 1.93667 -5.69892 0
M  V30 19416 H 1815.07 -0.0255513 -3.03689 0
M  V30 19417 H 1812.66 -0.0782698 -1.49195 0
M  V30 19418 H 1814.54 2.38839 -3.4718 0
M  V30 19419 H 1813.21 2.29847 -2.2793 0
M  V30 19420 H 1812.12 0.476007 -3.71059 0
M  V30 19421 H 1813.45 0.645802 -4.87945 0
M  V30 19422 N 1815.11 1.57549 -0.040136 0
M  V30 19423 C 1816.04 2.13912 0.936168 0
M  V30 19424 C 1817.02 1.05798 1.33194 0
M  V30 19425 O 1818.2 1.33685 1.40861 0
M  V30 19426 C 1815.33 2.67515 2.21479 0
M  V30 19427 C 1814.29 3.80513 1.95943 0
M  V30 19428 C 1813.61 4.20589 3.30165 0
M  V30 19429 C 1814.91 5.06124 1.28981 0
M  V30 19430 H 1816.61 2.9574 0.46674 0
M  V30 19431 H 1814.15 1.42262 0.223062 0
M  V30 19432 H 1816.11 3.05582 2.90168 0
M  V30 19433 H 1814.83 1.82864 2.70608 0
M  V30 19434 H 1813.49 3.42902 1.29669 0
M  V30 19435 H 1813.14 3.32904 3.77073 0
M  V30 19436 H 1812.84 4.96742 3.13881 0
M  V30 19437 H 1814.36 4.61248 4.00103 0
M  V30 19438 H 1815.77 5.41707 1.87687 0
M  V30 19439 H 1814.17 5.87347 1.2306 0
M  V30 19440 H 1815.24 4.84179 0.264286 0
M  V30 19441 N 1816.58 -0.233136 1.55866 0
M  V30 19442 C 1817.81 -0.980602 1.82754 0
M  V30 19443 C 1818.23 -1.77624 0.618988 0
M  V30 19444 O 1817.59 -1.76074 -0.432148 0
M  V30 19445 C 1817.64 -1.88319 3.07519 0
M  V30 19446 O 1816.74 -2.97692 2.85401 0
M  V30 19447 H 1816.09 -0.278295 0.602867 0
M  V30 19448 H 1818.62 -0.249956 2.03067 0
M  V30 19449 H 1818.63 -2.29523 3.37318 0
M  V30 19450 H 1817.3 -1.29831 3.95116 0
M  V30 19451 H 1815.88 -2.60517 2.66805 0
M  V30 19452 N 1818.06 -1.49479 -0.499372 0
M  V30 19453 C 1819 -1.60874 -1.61848 0
M  V30 19454 C 1819.97 -0.457753 -1.56024 0
M  V30 19455 O 1821.16 -0.673516 -1.76057 0
M  V30 19456 C 1818.29 -1.56518 -3.00366 0
M  V30 19457 C 1817.33 -2.76834 -3.24446 0
M  V30 19458 S 1818.16 -4.38486 -3.07392 0
M  V30 19459 C 1819.32 -4.36779 -4.48303 0
M  V30 19460 H 1819.55 -2.55543 -1.51938 0
M  V30 19461 H 1817.09 -1.3839 -0.68465 0
M  V30 19462 H 1819.04 -1.54691 -3.80238 0
M  V30 19463 H 1817.71 -0.631341 -3.0769 0
M  V30 19464 H 1816.9 -2.70011 -4.2557 0
M  V30 19465 H 1816.5 -2.76082 -2.52299 0
M  V30 19466 H 1818.79 -4.08599 -5.4042 0
M  V30 19467 H 1819.74 -5.38186 -4.60175 0
M  V30 19468 H 1820.14 -3.66837 -4.29058 0
M  V30 19469 N 1819.54 0.750537 -1.38581 0
M  V30 19470 C 1820.79 1.51198 -1.35156 0
M  V30 19471 C 1821.12 1.94115 0.0574068 0
M  V30 19472 O 1820.4 1.65657 1.01922 0
M  V30 19473 C 1820.68 2.76245 -2.30999 0
M  V30 19474 C 1820.53 2.39446 -3.8077 0
M  V30 19475 C 1821.85 3.78282 -2.24924 0
M  V30 19476 H 1818.97 0.548488 -0.492271 0
M  V30 19477 H 1821.61 0.859402 -1.69453 0
M  V30 19478 H 1819.76 3.31928 -2.01882 0
M  V30 19479 H 1821.43 1.89515 -4.20573 0
M  V30 19480 H 1819.68 1.71866 -3.98302 0
M  V30 19481 H 1820.35 3.28926 -4.43296 0
M  V30 19482 H 1822.82 3.32146 -2.50636 0
M  V30 19483 H 1821.7 4.63467 -2.94091 0
M  V30 19484 H 1821.96 4.24088 -1.24908 0
M  V30 19485 N 1821.02 1.235 0.979051 0
M  V30 19486 C 1822.27 1.06791 1.72052 0
M  V30 19487 C 1822.59 -0.395002 1.90447 0
M  V30 19488 O 1821.85 -1.30872 1.45503 0
M  V30 19489 C 1822.15 1.74004 3.12182 0
M  V30 19490 C 1821.81 3.23924 3.13662 0
M  V30 19491 C 1820.48 3.64828 3.13774 0
M  V30 19492 C 1822.83 4.19818 3.08872 0
M  V30 19493 C 1820.16 5.00083 3.06813 0
M  V30 19494 C 1822.51 5.55066 3.03454 0
M  V30 19495 C 1821.17 5.95332 3.01888 0
M  V30 19496 H 1820.44 0.390774 0.629584 0
M  V30 19497 H 1823.09 1.53452 1.14563 0
M  V30 19498 H 1821.39 1.19705 3.73066 0
M  V30 19499 H 1823.09 1.58551 3.68324 0
M  V30 19500 H 1819.68 2.91363 3.14334 0
M  V30 19501 H 1823.87 3.89225 3.07925 0
M  V30 19502 H 1819.12 5.30492 3.03954 0
M  V30 19503 H 1823.3 6.29085 2.98705 0
M  V30 19504 H 1820.92 7.001 2.96249 0
M  V30 19505 N 1822.5 -1.17802 1.04693 0
M  V30 19506 C 1823.75 -1.87567 0.752534 0
M  V30 19507 C 1824.07 -1.81129 -0.722303 0
M  V30 19508 O 1823.34 -1.23385 -1.52161 0
M  V30 19509 H 1821.92 -0.69439 0.275376 0
M  V30 19510 H 1824.58 -1.42932 1.32501 0
M  V30 19511 H 1823.67 -2.9344 1.06299 0
M  V30 19512 N 1823.98 -0.827251 -1.34143 0
M  V30 19513 C 1824.92 -0.240552 -2.31353 0
M  V30 19514 C 1825.92 0.62109 -1.57603 0
M  V30 19515 O 1827.12 0.511947 -1.72566 0
M  V30 19516 H 1823.5 -0.0590494 -0.749678 0
M  V30 19517 H 1825.47 -1.07518 -2.78357 0
M  V30 19518 C 1824.22 0.579321 -3.4284 0
M  V30 19519 H 1823.54 -0.0743746 -3.99731 0
M  V30 19520 H 1824.98 0.955871 -4.13085 0
M  V30 19521 C 1823.44 1.75345 -2.87673 0
M  V30 19522 O 1823.97 2.85178 -2.82907 0
M  V30 19523 N 1822.18 1.57158 -2.44437 0
M  V30 19524 H 1821.72 0.678148 -2.48513 0
M  V30 19525 H 1821.68 2.35869 -2.07877 0
M  V30 19526 N 1825.45 1.46436 -0.582609 0
M  V30 19527 C 1826.68 2.07275 -0.0718712 0
M  V30 19528 C 1827.1 1.42851 1.22373 0
M  V30 19529 O 1826.46 0.512272 1.73912 0
M  V30 19530 C 1826.51 3.6051 0.08055 0
M  V30 19531 O 1825.61 3.96414 1.13707 0
M  V30 19532 H 1824.95 0.661027 -0.0627607 0
M  V30 19533 H 1827.48 1.88076 -0.805524 0
M  V30 19534 H 1827.49 4.06991 0.286749 0
M  V30 19535 H 1826.17 4.06792 -0.865603 0
M  V30 19536 H 1824.75 3.61643 0.909338 0
M  V30 19537 N 1826.93 0.320385 1.54309 0
M  V30 19538 C 1828.18 -0.283143 2.00511 0
M  V30 19539 C 1828.51 -1.52391 1.2086 0
M  V30 19540 O 1827.76 -1.93716 0.277955 0
M  V30 19541 C 1828.06 -0.665444 3.5115 0
M  V30 19542 C 1827.73 0.475789 4.48383 0
M  V30 19543 C 1826.39 0.789037 4.74687 0
M  V30 19544 C 1828.74 1.24253 5.06172 0
M  V30 19545 C 1826.07 1.87181 5.5604 0
M  V30 19546 C 1828.42 2.31537 5.88705 0
M  V30 19547 C 1827.08 2.63447 6.13312 0
M  V30 19548 H 1826.35 -0.103609 0.733721 0
M  V30 19549 H 1829 0.443504 1.86294 0
M  V30 19550 H 1827.31 -1.47247 3.63078 0
M  V30 19551 H 1829 -1.14391 3.84338 0
M  V30 19552 H 1825.59 0.221559 4.28027 0
M  V30 19553 H 1829.78 1.01379 4.85835 0
M  V30 19554 H 1825.03 2.12354 5.73337 0
M  V30 19555 H 1829.21 2.91395 6.32504 0
M  V30 19556 H 1826.83 3.47477 6.76139 0
M  V30 19557 N 1828.41 -1.57525 0.0484906 0
M  V30 19558 C 1829.34 -2.08313 -0.955941 0
M  V30 19559 C 1830.35 -1.01042 -1.2765 0
M  V30 19560 O 1831.54 -1.28615 -1.23776 0
M  V30 19561 C 1828.64 -2.509 -2.27821 0
M  V30 19562 C 1827.82 -3.81476 -2.13997 0
M  V30 19563 C 1826.88 -4.10404 -3.29325 0
M  V30 19564 O 1825.9 -4.80366 -3.05348 0
M  V30 19565 N 1827.1 -3.62104 -4.53719 0
M  V30 19566 H 1829.87 -2.95111 -0.522472 0
M  V30 19567 H 1827.43 -1.61312 -0.137816 0
M  V30 19568 H 1829.42 -2.6733 -3.03837 0
M  V30 19569 H 1827.99 -1.69365 -2.62744 0
M  V30 19570 H 1827.21 -3.74654 -1.22589 0
M  V30 19571 H 1828.5 -4.6699 -2.01985 0
M  V30 19572 H 1827.9 -3.05541 -4.7609 0
M  V30 19573 H 1826.45 -3.83778 -5.26838 0
M  V30 19574 N 1829.89 0.224867 -1.55988 0
M  V30 19575 C 1831.13 0.951154 -1.79111 0
M  V30 19576 C 1831.47 1.84119 -0.617568 0
M  V30 19577 O 1830.74 1.90686 0.383312 0
M  V30 19578 C 1831.02 1.79292 -3.12292 0
M  V30 19579 C 1830.88 0.929603 -4.40089 0
M  V30 19580 C 1832.2 2.77132 -3.41886 0
M  V30 19581 H 1829.32 0.344359 -0.651603 0
M  V30 19582 H 1831.96 0.220228 -1.88719 0
M  V30 19583 H 1830.11 2.41609 -3.04232 0
M  V30 19584 H 1831.78 0.323432 -4.60165 0
M  V30 19585 H 1830.02 0.234877 -4.33164 0
M  V30 19586 H 1830.69 1.55289 -5.29707 0
M  V30 19587 H 1833.17 2.24951 -3.50052 0
M  V30 19588 H 1832.05 3.33135 -4.36248 0
M  V30 19589 H 1832.31 3.54705 -2.63887 0
M  V30 19590 N 1831.37 1.49742 0.491438 0
M  V30 19591 C 1832.78 1.36717 0.823454 0
M  V30 19592 C 1832.98 0.407587 1.97335 0
M  V30 19593 O 1832.04 -0.157251 2.5201 0
M  V30 19594 C 1833.35 2.77647 1.15466 0
M  V30 19595 C 1834.9 2.86417 1.26231 0
M  V30 19596 C 1835.37 4.28136 1.62676 0
M  V30 19597 N 1836.86 4.30992 1.69707 0
M  V30 19598 C 1837.6 5.37624 1.9937 0
M  V30 19599 N 1837.1 6.54489 2.27192 0
M  V30 19600 N 1838.89 5.25048 2.00701 0
M  V30 19601 H 1831.04 2.10719 -0.266676 0
M  V30 19602 H 1833.3 0.946301 -0.0567377 0
M  V30 19603 H 1833.01 3.49608 0.382994 0
M  V30 19604 H 1832.88 3.13617 2.09582 0
M  V30 19605 H 1835.27 2.14687 2.02468 0
M  V30 19606 H 1835.35 2.54018 0.301434 0
M  V30 19607 H 1834.99 5.00396 0.869859 0
M  V30 19608 H 1834.92 4.58007 2.59879 0
M  V30 19609 H 1837.42 3.46713 1.50327 0
M  V30 19610 H 1837.73 7.31572 2.49041 0
M  V30 19611 H 1836.07 6.57699 2.24627 0
M  V30 19612 H 1839.26 4.32751 1.78449 0
M  V30 19613 H 1839.44 6.08242 2.23484 0
M  V30 19614 N 1832.84 -0.743177 1.38977 0
M  V30 19615 C 1834.09 -1.49798 1.35069 0
M  V30 19616 C 1834.41 -1.95527 -0.0533172 0
M  V30 19617 O 1835.61 -2.70648 -0.21497 0
M  V30 19618 C 1834.07 -2.70637 2.37242 0
M  V30 19619 C 1833.68 -2.3189 3.83316 0
M  V30 19620 C 1835.42 -3.4849 2.42395 0
M  V30 19621 C 1833.33 -3.49403 4.77149 0
M  V30 19622 H 1832.26 -0.562495 0.50211 0
M  V30 19623 H 1834.91 -0.81145 1.64584 0
M  V30 19624 H 1833.29 -3.41323 2.00785 0
M  V30 19625 H 1834.46 -1.68803 4.28768 0
M  V30 19626 H 1832.78 -1.67148 3.8138 0
M  V30 19627 H 1835.38 -4.35882 3.09694 0
M  V30 19628 H 1835.72 -3.9038 1.446 0
M  V30 19629 H 1836.25 -2.84825 2.77704 0
M  V30 19630 H 1832.99 -3.1257 5.76177 0
M  V30 19631 H 1832.51 -4.11498 4.36382 0
M  V30 19632 H 1834.19 -4.15847 4.95661 0
M  V30 19633 N 1834.32 -1.24018 -0.972487 0
M  V30 19634 C 1835.6 -0.985099 -1.68983 0
M  V30 19635 C 1835.98 0.494006 -2.05238 0
M  V30 19636 O 1835.33 1.46715 -1.75177 0
M  V30 19637 C 1835.54 -1.90324 -2.92537 0
M  V30 19638 C 1836.89 -2.17134 -3.64881 0
M  V30 19639 O 1837.91 -1.87938 -3.02585 0
M  V30 19640 O 1836.77 -2.66691 -4.7701 0
M  V30 19641 H 1833.86 -0.372172 -0.738524 0
M  V30 19642 H 1836.41 -1.35095 -1.027 0
M  V30 19643 H 1835.18 -2.90278 -2.62401 0
M  V30 19644 H 1834.8 -1.54025 -3.66554 0
M  V30 19645 N 1835.8 1.17245 -1.05316 0
M  V30 19646 C 1836.71 2.24948 -0.666011 0
M  V30 19647 C 1837.73 1.71153 0.313478 0
M  V30 19648 O 1838.9 2.00721 0.165262 0
M  V30 19649 C 1835.97 3.46667 -0.0480198 0
M  V30 19650 C 1835.03 4.15542 -1.07812 0
M  V30 19651 C 1834.26 5.3145 -0.48952 0
M  V30 19652 O 1834.48 5.6608 0.700668 0
M  V30 19653 O 1833.42 5.89315 -1.22439 0
M  V30 19654 H 1837.24 2.60353 -1.56365 0
M  V30 19655 H 1834.83 1.24569 -0.8248 0
M  V30 19656 H 1836.71 4.20364 0.295366 0
M  V30 19657 H 1835.39 3.13056 0.823248 0
M  V30 19658 H 1834.29 3.43858 -1.47351 0
M  V30 19659 H 1835.63 4.53183 -1.92057 0
M  V30 19660 N 1837.28 0.834353 1.33702 0
M  V30 19661 C 1838.52 0.4339 1.99742 0
M  V30 19662 C 1838.88 -0.987294 1.64671 0
M  V30 19663 O 1840.08 -1.49124 2.23642 0
M  V30 19664 C 1838.35 0.643042 3.51568 0
M  V30 19665 S 1839.91 0.337137 4.37503 0
M  V30 19666 H 1836.73 0.163412 0.691966 0
M  V30 19667 H 1839.33 1.08266 1.62785 0
M  V30 19668 H 1838.04 1.67685 3.7458 0
M  V30 19669 H 1837.57 -0.0200346 3.93395 0
M  V30 19670 H 1839.58 -0.844826 4.88955 0
M  V30 19671 N 1838.76 -1.46125 0.590367 0
M  V30 19672 C 1840 -2.02646 0.0789983 0
M  V30 19673 C 1840.34 -1.45996 -1.28058 0
M  V30 19674 O 1839.61 -0.627981 -1.84083 0
M  V30 19675 C 1839.89 -3.60094 0.0214749 0
M  V30 19676 C 1839.75 -4.27112 1.41049 0
M  V30 19677 C 1841.07 -4.34889 -0.675236 0
M  V30 19678 H 1838.18 -0.736382 0.0301818 0
M  V30 19679 H 1840.83 -1.7418 0.759037 0
M  V30 19680 H 1838.98 -3.84477 -0.557648 0
M  V30 19681 H 1840.65 -4.13969 2.03537 0
M  V30 19682 H 1838.89 -3.86178 1.97607 0
M  V30 19683 H 1839.56 -5.3592 1.32264 0
M  V30 19684 H 1842.04 -4.15697 -0.183176 0
M  V30 19685 H 1840.91 -5.44615 -0.684538 0
M  V30 19686 H 1841.18 -4.06503 -1.73804 0
M  V30 19687 N 1840.23 -0.328564 -1.54137 0
M  V30 19688 C 1841.65 0.0239073 -1.59582 0
M  V30 19689 C 1841.85 1.50043 -1.34497 0
M  V30 19690 O 1840.91 2.25711 -1.13185 0
M  V30 19691 C 1842.22 -0.398812 -2.98044 0
M  V30 19692 C 1843.77 -0.34989 -3.11038 0
M  V30 19693 C 1844.24 -0.747848 -4.51853 0
M  V30 19694 N 1845.73 -0.701447 -4.57858 0
M  V30 19695 C 1846.47 -0.981505 -5.64937 0
M  V30 19696 N 1845.96 -1.32895 -6.79934 0
M  V30 19697 N 1847.76 -0.906735 -5.54738 0
M  V30 19698 H 1839.91 -1.29052 -1.68699 0
M  V30 19699 H 1842.17 -0.52508 -0.7893 0
M  V30 19700 H 1841.88 -1.42773 -3.21417 0
M  V30 19701 H 1841.75 0.233639 -3.76476 0
M  V30 19702 H 1844.14 0.669831 -2.87397 0
M  V30 19703 H 1844.22 -1.01734 -2.34699 0
M  V30 19704 H 1843.86 -1.76551 -4.76227 0
M  V30 19705 H 1843.79 -0.0580299 -5.26568 0
M  V30 19706 H 1846.28 -0.444963 -3.75271 0
M  V30 19707 H 1846.6 -1.52789 -7.57546 0
M  V30 19708 H 1844.94 -1.36726 -6.81418 0
M  V30 19709 H 1848.13 -0.634748 -4.63776 0
M  V30 19710 H 1848.31 -1.12835 -6.38101 0
M  V30 19711 N 1841.71 1.57497 -0.0568439 0
M  V30 19712 C 1842.64 2.08817 0.94488 0
M  V30 19713 C 1843.66 1.01717 1.27112 0
M  V30 19714 O 1844.85 1.2927 1.23092 0
M  V30 19715 C 1841.95 2.52104 2.26488 0
M  V30 19716 C 1841.12 3.82606 2.11971 0
M  V30 19717 C 1840.18 4.12145 3.27144 0
M  V30 19718 O 1839.2 4.81978 3.02797 0
M  V30 19719 N 1840.41 3.64505 4.51792 0
M  V30 19720 H 1843.17 2.95384 0.506814 0
M  V30 19721 H 1840.73 1.61383 0.129259 0
M  V30 19722 H 1842.72 2.68938 3.02415 0
M  V30 19723 H 1841.29 1.70756 2.61842 0
M  V30 19724 H 1840.51 3.75299 1.20601 0
M  V30 19725 H 1841.8 4.68055 1.99505 0
M  V30 19726 H 1841.2 3.08061 4.74462 0
M  V30 19727 H 1839.76 3.86566 5.24795 0
M  V30 19728 N 1843.19 -0.216591 1.56105 0
M  V30 19729 C 1844.12 -1.29579 1.87842 0
M  V30 19730 C 1845.1 -1.44974 0.73629 0
M  V30 19731 O 1846.29 -1.60708 0.985151 0
M  V30 19732 C 1843.41 -2.66544 2.08979 0
M  V30 19733 C 1842.46 -2.68136 3.3167 0
M  V30 19734 S 1843.29 -2.21708 4.87448 0
M  V30 19735 C 1844.45 -3.60539 5.11627 0
M  V30 19736 H 1844.68 -1.02465 2.79085 0
M  V30 19737 H 1842.21 -0.419071 1.48604 0
M  V30 19738 H 1844.17 -3.45394 2.2184 0
M  V30 19739 H 1842.83 -2.90879 1.18524 0
M  V30 19740 H 1842.03 -3.68796 3.4352 0
M  V30 19741 H 1841.63 -1.97352 3.17692 0
M  V30 19742 H 1843.92 -4.56263 5.0083 0
M  V30 19743 H 1844.86 -3.53601 6.13491 0
M  V30 19744 H 1845.27 -3.54456 4.39342 0
M  V30 19745 N 1844.67 -1.5 -0.48349 0
M  V30 19746 C 1845.63 -1.6742 -1.56535 0
M  V30 19747 C 1846.63 -0.545311 -1.51271 0
M  V30 19748 O 1847.82 -0.812112 -1.54112 0
M  V30 19749 C 1844.95 -1.6879 -2.9618 0
M  V30 19750 H 1846.15 -2.6393 -1.42412 0
M  V30 19751 H 1843.7 -1.39295 -0.708991 0
M  V30 19752 H 1844.43 -0.739285 -3.15761 0
M  V30 19753 H 1844.22 -2.50789 -3.01408 0
M  V30 19754 H 1845.71 -1.84264 -3.74749 0
M  V30 19755 N 1846.15 0.735796 -1.39369 0
M  V30 19756 C 1847.42 1.48712 -1.27059 0
M  V30 19757 C 1847.8 2.10758 0.120174 0
M  V30 19758 O 1847.15 1.98528 1.13132 0
M  V30 19759 C 1847.36 2.53918 -2.3943 0
M  V30 19760 C 1848.71 3.20322 -2.78709 0
M  V30 19761 O 1849.73 2.6423 -2.38874 0
M  V30 19762 O 1848.59 4.21819 -3.47463 0
M  V30 19763 H 1845.69 0.660337 -0.497879 0
M  V30 19764 H 1848.23 0.76969 -1.51241 0
M  V30 19765 H 1847 2.06444 -3.3241 0
M  V30 19766 H 1846.63 3.33221 -2.16909 0
M  V30 19767 N 1847.63 1.24532 0.965897 0
M  V30 19768 C 1848.87 1.0801 1.70343 0
M  V30 19769 C 1849.19 -0.380738 1.91859 0
M  V30 19770 O 1850.39 -0.666181 2.632 0
M  V30 19771 C 1848.85 1.88452 3.06617 0
M  V30 19772 C 1848.46 3.38957 2.92937 0
M  V30 19773 C 1850.2 1.80465 3.8423 0
M  V30 19774 C 1848.11 4.11736 4.24532 0
M  V30 19775 H 1847.04 0.400577 0.638791 0
M  V30 19776 H 1849.69 1.48629 1.07618 0
M  V30 19777 H 1848.07 1.40648 3.70181 0
M  V30 19778 H 1849.25 3.94353 2.38374 0
M  V30 19779 H 1847.56 3.47915 2.28788 0
M  V30 19780 H 1850.16 2.32142 4.81679 0
M  V30 19781 H 1850.5 0.770262 4.09112 0
M  V30 19782 H 1851.03 2.25958 3.27395 0
M  V30 19783 H 1847.77 5.15541 4.04842 0
M  V30 19784 H 1847.29 3.61125 4.78904 0
M  V30 19785 H 1848.97 4.18833 4.93141 0
M  V30 19786 N 1849.1 -1.16685 1.05936 0
M  V30 19787 C 1850.03 -2.23129 0.688153 0
M  V30 19788 C 1851.01 -1.67108 -0.31765 0
M  V30 19789 O 1852.2 -1.93233 -0.193578 0
M  V30 19790 C 1849.33 -3.47229 0.069991 0
M  V30 19791 C 1848.28 -4.16121 1.00137 0
M  V30 19792 C 1847.61 -5.34131 0.246699 0
M  V30 19793 C 1848.91 -4.67508 2.32882 0
M  V30 19794 H 1850.6 -2.54436 1.57806 0
M  V30 19795 H 1848.15 -1.22298 0.76021 0
M  V30 19796 H 1850.1 -4.20918 -0.201545 0
M  V30 19797 H 1848.83 -3.15212 -0.854909 0
M  V30 19798 H 1847.49 -3.44355 1.25759 0
M  V30 19799 H 1847.13 -4.98366 -0.681204 0
M  V30 19800 H 1846.83 -5.81163 0.867373 0
M  V30 19801 H 1848.36 -6.10598 -0.0173762 0
M  V30 19802 H 1849.77 -5.32795 2.11666 0
M  V30 19803 H 1848.17 -5.25147 2.90414 0
M  V30 19804 H 1849.24 -3.83912 2.96209 0
M  V30 19805 N 1850.58 -0.841432 -1.33258 0
M  V30 19806 C 1851.83 -0.437512 -1.97307 0
M  V30 19807 C 1852.15 1.00723 -1.66973 0
M  V30 19808 O 1851.42 1.70199 -0.969998 0
M  V30 19809 H 1850 -0.158794 -0.729927 0
M  V30 19810 H 1852.66 -1.07495 -1.62575 0
M  V30 19811 H 1851.76 -0.571675 -3.0682 0
M  V30 19812 N 1852.06 1.4581 -0.598108 0
M  V30 19813 C 1852.99 2.28611 0.164271 0
M  V30 19814 C 1854 1.39406 0.840827 0
M  V30 19815 O 1855.19 1.63867 0.707805 0
M  V30 19816 C 1852.29 3.14883 1.25306 0
M  V30 19817 C 1851.47 4.32308 0.66546 0
M  V30 19818 C 1850.53 4.99862 1.64392 0
M  V30 19819 O 1849.55 5.56963 1.17393 0
M  V30 19820 N 1850.75 4.98278 2.97825 0
M  V30 19821 H 1853.52 2.94681 -0.546181 0
M  V30 19822 H 1851.08 1.55893 -0.436933 0
M  V30 19823 H 1853.07 3.5694 1.90724 0
M  V30 19824 H 1851.64 2.50785 1.86616 0
M  V30 19825 H 1850.86 3.93848 -0.166567 0
M  V30 19826 H 1852.15 5.08171 0.252938 0
M  V30 19827 H 1851.55 4.53159 3.38619 0
M  V30 19828 H 1850.1 5.44228 3.58691 0
M  V30 19829 N 1853.54 0.336733 1.53961 0
M  V30 19830 C 1854.78 -0.262248 2.01097 0
M  V30 19831 C 1855.12 -1.50745 1.22431 0
M  V30 19832 O 1854.39 -1.92012 0.310103 0
M  V30 19833 C 1854.67 -0.583219 3.55346 0
M  V30 19834 C 1854.53 0.67361 4.44727 0
M  V30 19835 C 1855.85 -1.39558 4.17386 0
M  V30 19836 H 1852.97 -0.0938423 0.731001 0
M  V30 19837 H 1855.61 0.455921 1.84449 0
M  V30 19838 H 1853.76 -1.19505 3.69663 0
M  V30 19839 H 1855.43 1.31168 4.42258 0
M  V30 19840 H 1853.67 1.29987 4.13867 0
M  V30 19841 H 1854.34 0.404382 5.50517 0
M  V30 19842 H 1856.82 -0.878292 4.06725 0
M  V30 19843 H 1855.7 -1.58892 5.25399 0
M  V30 19844 H 1855.96 -2.39567 3.71564 0
M  V30 19845 N 1855.02 -1.57465 0.0651956 0
M  V30 19846 C 1856.43 -1.56917 -0.291414 0
M  V30 19847 C 1856.63 -1.07405 -1.70489 0
M  V30 19848 O 1855.69 -0.736958 -2.41506 0
M  V30 19849 C 1857 -3.00509 -0.107088 0
M  V30 19850 C 1858.55 -3.12498 -0.177127 0
M  V30 19851 C 1859.02 -4.57995 -0.0211616 0
M  V30 19852 N 1860.51 -4.63136 -0.0769824 0
M  V30 19853 C 1861.25 -5.73397 0.0193783 0
M  V30 19854 N 1860.75 -6.92594 0.168885 0
M  V30 19855 N 1862.54 -5.62088 -0.0372133 0
M  V30 19856 H 1854.69 -1.87966 0.989061 0
M  V30 19857 H 1856.95 -0.866234 0.385154 0
M  V30 19858 H 1856.66 -3.4082 0.868005 0
M  V30 19859 H 1856.53 -3.67214 -0.86221 0
M  V30 19860 H 1858.92 -2.72078 -1.1427 0
M  V30 19861 H 1859 -2.48445 0.608986 0
M  V30 19862 H 1858.64 -4.99104 0.941151 0
M  V30 19863 H 1858.57 -5.20072 -0.826597 0
M  V30 19864 H 1861.07 -3.77416 -0.191213 0
M  V30 19865 H 1861.38 -7.72443 0.234737 0
M  V30 19866 H 1859.72 -6.947 0.204159 0
M  V30 19867 H 1862.91 -4.67851 -0.152669 0
M  V30 19868 H 1863.09 -6.47987 0.0413392 0
M  V30 19869 N 1856.49 0.20831 -1.56217 0
M  V30 19870 C 1857.74 0.928886 -1.79488 0
M  V30 19871 C 1858.06 1.84337 -0.636 0
M  V30 19872 O 1857.33 1.92813 0.346416 0
M  V30 19873 H 1855.91 0.345985 -0.662045 0
M  V30 19874 H 1858.57 0.216988 -1.93688 0
M  V30 19875 H 1857.67 1.52786 -2.72145 0
M  V30 19876 N 1857.97 1.50255 0.475528 0
M  V30 19877 C 1859.2 1.64771 1.25132 0
M  V30 19878 C 1859.61 0.329253 1.85907 0
M  V30 19879 O 1858.97 -0.688289 1.69023 0
M  V30 19880 C 1859.02 2.73556 2.36325 0
M  V30 19881 O 1858.74 4.0029 1.78043 0
M  V30 19882 C 1860.24 2.99006 3.27277 0
M  V30 19883 H 1857.46 0.553987 0.378602 0
M  V30 19884 H 1860.01 1.9645 0.56811 0
M  V30 19885 H 1858.16 2.44584 3.00429 0
M  V30 19886 H 1858.58 4.60416 2.51232 0
M  V30 19887 H 1860.05 3.78797 4.01518 0
M  V30 19888 H 1860.53 2.09904 3.85794 0
M  V30 19889 H 1861.13 3.29493 2.68914 0
M  V30 19890 N 1859.45 -0.728395 1.39758 0
M  V30 19891 C 1860.7 -1.48514 1.37069 0
M  V30 19892 C 1861.02 -1.94976 -0.0305263 0
M  V30 19893 O 1860.29 -1.69453 -0.982987 0
M  V30 19894 H 1858.87 -0.550958 0.504434 0
M  V30 19895 H 1861.53 -0.864297 1.74688 0
M  V30 19896 H 1860.63 -2.36411 2.03755 0
M  V30 19897 N 1860.93 -1.25042 -0.959279 0
M  V30 19898 C 1861.88 -1.04802 -2.07652 0
M  V30 19899 C 1862.87 0.019648 -1.69389 0
M  V30 19900 O 1864.08 -0.135594 -1.79489 0
M  V30 19901 H 1860.45 -0.321939 -0.679602 0
M  V30 19902 H 1862.42 -1.99527 -2.21882 0
M  V30 19903 C 1861.17 -0.678505 -3.41016 0
M  V30 19904 H 1860.49 -1.49185 -3.70923 0
M  V30 19905 H 1861.93 -0.576549 -4.20062 0
M  V30 19906 C 1860.39 0.615075 -3.31238 0
M  V30 19907 O 1860.92 1.65848 -3.65865 0
M  V30 19908 N 1859.13 0.598958 -2.8436 0
M  V30 19909 H 1858.68 -0.250509 -2.56379 0
M  V30 19910 H 1858.63 1.46464 -2.78201 0
M  V30 19911 N 1862.41 1.16121 -1.06553 0
M  V30 19912 C 1863.37 2.18796 -0.682711 0
M  V30 19913 C 1864.37 1.58467 0.272905 0
M  V30 19914 O 1865.56 1.74113 0.0549379 0
M  V30 19915 C 1862.69 3.409 -0.00496866 0
M  V30 19916 H 1863.88 2.54178 -1.59165 0
M  V30 19917 H 1861.44 1.30442 -0.861077 0
M  V30 19918 H 1862.17 3.11077 0.916593 0
M  V30 19919 H 1861.96 3.85942 -0.692165 0
M  V30 19920 H 1863.45 4.1686 0.248503 0
M  V30 19921 N 1863.88 0.848487 1.3281 0
M  V30 19922 C 1865.11 0.46174 2.02195 0
M  V30 19923 C 1865.53 -0.932159 1.63378 0
M  V30 19924 O 1864.89 -1.6112 0.831266 0
M  V30 19925 C 1864.94 0.601234 3.55552 0
M  V30 19926 O 1864.04 -0.368549 4.1075 0
M  V30 19927 H 1863.39 0.186379 0.637306 0
M  V30 19928 H 1865.92 1.14598 1.69495 0
M  V30 19929 H 1865.93 0.486456 4.0509 0
M  V30 19930 H 1864.6 1.61773 3.83148 0
M  V30 19931 H 1863.18 -0.210525 3.72305 0
M  V30 19932 N 1865.36 -1.4549 0.605832 0
M  V30 19933 C 1866.77 -1.85775 0.18559 0
M  V30 19934 C 1867.12 -1.50638 -1.25708 0
M  V30 19935 O 1866.25 -0.932227 -1.95291 0
M  V30 19936 C 1866.84 -3.37189 0.330043 0
M  V30 19937 C 1865.4 -3.76383 -0.0354934 0
M  V30 19938 C 1864.55 -2.69446 0.655297 0
M  V30 19939 H 1867.5 -1.36316 0.812624 0
M  V30 19940 H 1867.52 -3.77968 -0.438236 0
M  V30 19941 H 1867.03 -3.62731 1.38014 0
M  V30 19942 H 1865.14 -3.56458 -1.08483 0
M  V30 19943 H 1865.25 -4.77769 0.356935 0
M  V30 19944 H 1863.61 -2.5453 0.0931235 0
M  V30 19945 H 1864.4 -2.97825 1.70749 0
M  V30 19946 N 1866.84 -0.344893 -1.5378 0
M  V30 19947 C 1867.79 0.526591 -2.26561 0
M  V30 19948 C 1868.78 1.10083 -1.28756 0
M  V30 19949 O 1869.99 1.04641 -1.46459 0
M  V30 19950 H 1866.36 0.188505 -0.72799 0
M  V30 19951 H 1868.33 -0.109269 -2.982 0
M  V30 19952 C 1867.08 1.66505 -3.0524 0
M  V30 19953 H 1866.41 1.23246 -3.80329 0
M  V30 19954 H 1867.85 2.24998 -3.59377 0
M  V30 19955 C 1866.31 2.59527 -2.14819 0
M  V30 19956 O 1866.84 3.6181 -1.74517 0
M  V30 19957 N 1865.04 2.28243 -1.79871 0
M  V30 19958 H 1864.59 1.45106 -2.12843 0
M  V30 19959 H 1864.55 2.90741 -1.19654 0
M  V30 19960 N 1868.32 1.57428 -0.0735454 0
M  V30 19961 C 1869.28 2.11699 0.878419 0
M  V30 19962 C 1870.28 1.0414 1.22521 0
M  V30 19963 O 1871.47 1.30121 1.1582 0
M  V30 19964 C 1868.6 2.61979 2.18129 0
M  V30 19965 H 1869.8 2.97118 0.40755 0
M  V30 19966 H 1867.35 1.55315 0.175183 0
M  V30 19967 H 1868.08 1.80018 2.69748 0
M  V30 19968 H 1867.87 3.40599 1.94254 0
M  V30 19969 H 1869.36 3.04035 2.86273 0
M  V30 19970 N 1869.8 -0.200022 1.56326 0
M  V30 19971 C 1871.21 -0.550653 1.498 0
M  V30 19972 C 1871.41 -1.86097 0.772664 0
M  V30 19973 O 1870.47 -2.50449 0.321155 0
M  V30 19974 C 1871.78 -0.60995 2.94449 0
M  V30 19975 C 1873.33 -0.699119 3.05092 0
M  V30 19976 C 1873.8 -0.78957 4.51143 0
M  V30 19977 N 1875.3 -0.853228 4.55274 0
M  V30 19978 C 1876.03 -0.943298 5.65588 0
M  V30 19979 N 1875.53 -0.995976 6.85603 0
M  V30 19980 N 1877.32 -0.980106 5.53489 0
M  V30 19981 H 1869.47 0.659543 2.019 0
M  V30 19982 H 1871.73 0.234299 0.91859 0
M  V30 19983 H 1871.44 0.283651 3.50554 0
M  V30 19984 H 1871.31 -1.46632 3.47533 0
M  V30 19985 H 1873.7 -1.58315 2.49039 0
M  V30 19986 H 1873.78 0.183351 2.55142 0
M  V30 19987 H 1873.43 0.0900924 5.0782 0
M  V30 19988 H 1873.36 -1.68777 4.9882 0
M  V30 19989 H 1875.85 -0.821964 3.68853 0
M  V30 19990 H 1876.16 -1.06508 7.65425 0
M  V30 19991 H 1874.5 -0.964738 6.88272 0
M  V30 19992 H 1877.7 -0.935755 4.58652 0
M  V30 19993 H 1877.87 -1.04684 6.39488 0
M  V30 19994 N 1871.27 -1.50505 -0.467553 0
M  V30 19995 C 1872.24 -1.69071 -1.54751 0
M  V30 19996 C 1873.24 -0.561325 -1.50684 0
M  V30 19997 O 1874.43 -0.828412 -1.53242 0
M  V30 19998 C 1871.56 -1.71922 -2.94373 0
M  V30 19999 H 1872.75 -2.65425 -1.39605 0
M  V30 20000 H 1870.31 -1.40039 -0.694177 0
M  V30 20001 H 1871.04 -0.772734 -3.14959 0
M  V30 20002 H 1870.83 -2.53972 -2.98732 0
M  V30 20003 H 1872.32 -1.88228 -3.72773 0
M  V30 20004 N 1872.75 0.720973 -1.40142 0
M  V30 20005 C 1873.98 1.51519 -1.41622 0
M  V30 20006 C 1874.4 1.88093 -0.0162669 0
M  V30 20007 O 1873.76 1.52895 0.974307 0
M  V30 20008 C 1873.81 2.77041 -2.30826 0
M  V30 20009 O 1872.91 3.73532 -1.74779 0
M  V30 20010 H 1872.25 0.457034 -0.481681 0
M  V30 20011 H 1874.78 0.88837 -1.84307 0
M  V30 20012 H 1874.79 3.25628 -2.45826 0
M  V30 20013 H 1873.47 2.49755 -3.32558 0
M  V30 20014 H 1872.05 3.32356 -1.69097 0
M  V30 20015 N 1874.23 1.25549 0.952634 0
M  V30 20016 C 1875.48 1.1058 1.7 0
M  V30 20017 C 1875.81 -0.35206 1.90982 0
M  V30 20018 O 1875.08 -1.25938 1.48222 0
M  V30 20019 C 1875.37 1.86283 3.08173 0
M  V30 20020 C 1875.22 3.39909 2.94588 0
M  V30 20021 C 1876.54 1.64755 4.08098 0
M  V30 20022 H 1873.66 0.403095 0.616996 0
M  V30 20023 H 1876.3 1.54406 1.1072 0
M  V30 20024 H 1874.45 1.49033 3.58778 0
M  V30 20025 H 1876.12 3.86845 2.51294 0
M  V30 20026 H 1874.37 3.67518 2.30462 0
M  V30 20027 H 1875.04 3.88094 3.92539 0
M  V30 20028 H 1877.51 1.97186 3.66411 0
M  V30 20029 H 1876.39 2.20157 5.02814 0
M  V30 20030 H 1876.65 0.589348 4.38154 0
M  V30 20031 N 1875.71 -1.15554 1.07168 0
M  V30 20032 C 1876.67 -2.18431 0.694305 0
M  V30 20033 C 1877.67 -1.5861 -0.264497 0
M  V30 20034 O 1878.86 -1.7414 -0.0457035 0
M  V30 20035 C 1875.99 -3.40892 0.0230473 0
M  V30 20036 H 1877.19 -2.53331 1.60511 0
M  V30 20037 H 1874.74 -1.29984 0.867982 0
M  V30 20038 H 1875.47 -3.11559 -0.900083 0
M  V30 20039 H 1875.26 -3.8557 0.712622 0
M  V30 20040 H 1876.75 -4.16986 -0.226392 0
M  V30 20041 N 1877.19 -0.855519 -1.32358 0
M  V30 20042 C 1878.12 -0.258029 -2.27743 0
M  V30 20043 C 1879.13 0.570733 -1.52468 0
M  V30 20044 O 1880.32 0.395082 -1.74073 0
M  V30 20045 C 1877.42 0.653958 -3.32531 0
M  V30 20046 C 1876.59 -0.139145 -4.37179 0
M  V30 20047 C 1875.65 0.698738 -5.2154 0
M  V30 20048 O 1874.68 0.131945 -5.69047 0
M  V30 20049 N 1875.88 2.01331 -5.44468 0
M  V30 20050 H 1878.65 -1.07766 -2.79654 0
M  V30 20051 H 1876.21 -0.715584 -1.45227 0
M  V30 20052 H 1878.2 1.21985 -3.85878 0
M  V30 20053 H 1876.77 1.37427 -2.80771 0
M  V30 20054 H 1875.99 -0.886466 -3.84103 0
M  V30 20055 H 1877.28 -0.683873 -5.04183 0
M  V30 20056 H 1876.68 2.49712 -5.07602 0
M  V30 20057 H 1875.23 2.52732 -6.00808 0
M  V30 20058 N 1878.67 1.45167 -0.61354 0
M  V30 20059 C 1879.94 1.95553 -0.042781 0
M  V30 20060 C 1880.32 1.55588 1.42673 0
M  V30 20061 O 1879.67 0.821325 2.13229 0
M  V30 20062 C 1879.88 3.48124 -0.247141 0
M  V30 20063 C 1881.23 4.24398 -0.131068 0
M  V30 20064 O 1882.25 3.55757 -0.177576 0
M  V30 20065 O 1881.11 5.46496 -0.0211683 0
M  V30 20066 H 1878.21 0.826367 0.0323494 0
M  V30 20067 H 1880.75 1.55304 -0.684017 0
M  V30 20068 H 1879.52 3.70202 -1.26751 0
M  V30 20069 H 1879.15 3.95278 0.429074 0
M  V30 20070 N 1880.14 0.353044 1.53595 0
M  V30 20071 C 1881.11 -0.48691 2.23968 0
M  V30 20072 C 1882.11 -1.01991 1.24316 0
M  V30 20073 O 1883.3 -0.907654 1.48685 0
M  V30 20074 C 1880.43 -1.67926 2.96671 0
M  V30 20075 H 1881.62 0.128707 2.99624 0
M  V30 20076 H 1879.17 0.104533 1.5595 0
M  V30 20077 H 1879.91 -2.33331 2.25227 0
M  V30 20078 H 1879.69 -1.30417 3.69776 0
M  V30 20079 H 1881.18 -2.2748 3.50203 0
M  V30 20080 N 1881.62 -1.57387 0.0818932 0
M  V30 20081 C 1882.9 -1.85297 -0.626447 0
M  V30 20082 C 1883.28 -0.976281 -1.87168 0
M  V30 20083 O 1882.63 -0.0451999 -2.28455 0
M  V30 20084 C 1882.84 -3.35695 -0.954461 0
M  V30 20085 C 1884.18 -4.03442 -1.32361 0
M  V30 20086 O 1885.21 -3.40499 -1.04588 0
M  V30 20087 O 1884.07 -5.1448 -1.84317 0
M  V30 20088 H 1881.16 -0.765835 -0.31213 0
M  V30 20089 H 1883.71 -1.69319 0.11359 0
M  V30 20090 H 1882.48 -3.91237 -0.0704846 0
M  V30 20091 H 1882.1 -3.56971 -1.75092 0
M  V30 20092 N 1883.1 0.191729 -1.56429 0
M  V30 20093 C 1884.32 0.931804 -1.85289 0
M  V30 20094 C 1884.75 1.7592 -0.665864 0
M  V30 20095 O 1884.11 1.77158 0.385313 0
M  V30 20096 C 1884.16 1.801 -3.12404 0
M  V30 20097 O 1883.26 2.9002 -2.93193 0
M  V30 20098 H 1882.6 0.262213 -0.610033 0
M  V30 20099 H 1885.13 0.196028 -2.03659 0
M  V30 20100 H 1885.14 2.20499 -3.43285 0
M  V30 20101 H 1883.82 1.19309 -3.9842 0
M  V30 20102 H 1882.39 2.53352 -2.73619 0
M  V30 20103 N 1884.58 1.50751 0.459565 0
M  V30 20104 C 1885.82 1.62556 1.21258 0
M  V30 20105 C 1886.16 0.330265 1.91371 0
M  V30 20106 O 1885.43 -0.668955 1.82634 0
M  V30 20107 C 1885.71 2.8138 2.24716 0
M  V30 20108 C 1885.57 4.20823 1.58832 0
M  V30 20109 C 1886.89 2.95744 3.2592 0
M  V30 20110 H 1884.01 0.591628 0.439483 0
M  V30 20111 H 1886.65 1.83172 0.504777 0
M  V30 20112 H 1884.8 2.63933 2.85082 0
M  V30 20113 H 1886.47 4.49888 1.01975 0
M  V30 20114 H 1884.71 4.24548 0.891148 0
M  V30 20115 H 1885.38 4.99915 2.3407 0
M  V30 20116 H 1887.86 3.11754 2.75588 0
M  V30 20117 H 1886.74 3.80488 3.95626 0
M  V30 20118 H 1887 2.06852 3.90723 0
M  V30 20119 N 1886.06 -0.713531 1.40522 0
M  V30 20120 C 1886.99 -1.8404 1.43707 0
M  V30 20121 C 1887.97 -1.67474 0.297751 0
M  V30 20122 O 1889.15 -1.87474 0.506662 0
M  V30 20123 C 1886.28 -3.22014 1.30094 0
M  V30 20124 C 1885.24 -3.53255 2.4165 0
M  V30 20125 C 1884.56 -4.90395 2.13113 0
M  V30 20126 C 1885.86 -3.54045 3.83991 0
M  V30 20127 H 1887.56 -1.81632 2.38013 0
M  V30 20128 H 1885.1 -0.872437 1.14562 0
M  V30 20129 H 1887.05 -4.00541 1.30938 0
M  V30 20130 H 1885.78 -3.25002 0.322648 0
M  V30 20131 H 1884.44 -2.77069 2.40059 0
M  V30 20132 H 1884.09 -4.89988 1.13669 0
M  V30 20133 H 1883.79 -5.12264 2.87853 0
M  V30 20134 H 1885.31 -5.71254 2.15642 0
M  V30 20135 H 1886.72 -4.22609 3.87395 0
M  V30 20136 H 1885.12 -3.87441 4.58268 0
M  V30 20137 H 1886.19 -2.53387 4.13428 0
M  V30 20138 N 1887.53 -1.26053 -0.945962 0
M  V30 20139 C 1888.95 -1.03062 -1.21862 0
M  V30 20140 C 1889.15 0.247205 -1.99978 0
M  V30 20141 O 1888.21 0.957622 -2.33636 0
M  V30 20142 C 1889.52 -2.25912 -1.98455 0
M  V30 20143 C 1891.07 -2.30763 -2.11465 0
M  V30 20144 C 1891.54 -3.53292 -2.91459 0
M  V30 20145 N 1893.03 -3.53741 -2.99035 0
M  V30 20146 C 1893.77 -4.45215 -3.61347 0
M  V30 20147 N 1893.26 -5.46971 -4.25199 0
M  V30 20148 N 1895.06 -4.32877 -3.58572 0
M  V30 20149 H 1887.21 -2.08133 -0.423615 0
M  V30 20150 H 1889.47 -0.914462 -0.249926 0
M  V30 20151 H 1889.18 -3.18829 -1.48462 0
M  V30 20152 H 1889.05 -2.29777 -2.99136 0
M  V30 20153 H 1891.44 -1.38363 -2.60653 0
M  V30 20154 H 1891.52 -2.30911 -1.10062 0
M  V30 20155 H 1891.16 -4.46019 -2.4296 0
M  V30 20156 H 1891.09 -3.50391 -3.93108 0
M  V30 20157 H 1893.58 -2.80138 -2.53636 0
M  V30 20158 H 1893.9 -6.12967 -4.70629 0
M  V30 20159 H 1892.24 -5.50834 -4.238 0
M  V30 20160 H 1895.43 -3.52602 -3.07879 0
M  V30 20161 H 1895.61 -5.0436 -4.06847 0
M  V30 20162 N 1889.01 1.14984 -1.07779 0
M  V30 20163 C 1890.42 1.67453 -0.825611 0
M  V30 20164 C 1890.77 1.85168 0.648631 0
M  V30 20165 O 1889.9 1.55817 1.50167 0
M  V30 20166 C 1890.49 3.04172 -1.49214 0
M  V30 20167 C 1889.05 3.53701 -1.28736 0
M  V30 20168 C 1888.2 2.29324 -1.55903 0
M  V30 20169 H 1891.15 0.99138 -1.23925 0
M  V30 20170 H 1891.17 3.69315 -0.915779 0
M  V30 20171 H 1890.68 2.91247 -2.56509 0
M  V30 20172 H 1888.78 3.71859 -0.234821 0
M  V30 20173 H 1888.9 4.34871 -2.01056 0
M  V30 20174 H 1887.26 2.35081 -0.980257 0
M  V30 20175 H 1888.04 2.18982 -2.6439 0
M  V30 20176 N 1890.49 0.862526 1.31902 0
M  V30 20177 C 1891.42 0.328423 2.31179 0
M  V30 20178 C 1892.4 -0.57668 1.60026 0
M  V30 20179 O 1893.59 -0.49527 1.87778 0
M  V30 20180 C 1890.72 -0.47734 3.44004 0
M  V30 20181 C 1889.67 0.334015 4.26695 0
M  V30 20182 C 1889 -0.596973 5.31357 0
M  V30 20183 C 1890.3 1.56405 4.98332 0
M  V30 20184 H 1891.99 1.15797 2.761 0
M  V30 20185 H 1889.54 0.558268 1.32738 0
M  V30 20186 H 1891.49 -0.861461 4.12501 0
M  V30 20187 H 1890.21 -1.34033 2.9783 0
M  V30 20188 H 1888.87 0.699989 3.59855 0
M  V30 20189 H 1888.52 -1.45703 4.81435 0
M  V30 20190 H 1888.22 -0.0580517 5.87571 0
M  V30 20191 H 1889.74 -0.978099 6.02715 0
M  V30 20192 H 1891.16 1.25178 5.59467 0
M  V30 20193 H 1889.55 2.04149 5.64308 0
M  V30 20194 H 1890.62 2.32099 4.25744 0
M  V30 20195 N 1891.97 -1.4484 0.62123 0
M  V30 20196 C 1892.9 -2.27778 -0.138713 0
M  V30 20197 C 1893.88 -1.37951 -0.860708 0
M  V30 20198 O 1895.06 -1.67388 -0.866812 0
M  V30 20199 C 1892.19 -3.1665 -1.2021 0
M  V30 20200 C 1891.24 -4.22514 -0.581732 0
M  V30 20201 S 1892.07 -5.3189 0.620728 0
M  V30 20202 C 1893.23 -6.24331 -0.442913 0
M  V30 20203 H 1893.46 -2.91884 0.564912 0
M  V30 20204 H 1890.99 -1.48881 0.409119 0
M  V30 20205 H 1892.95 -3.68407 -1.81071 0
M  V30 20206 H 1891.61 -2.51784 -1.87786 0
M  V30 20207 H 1890.8 -4.84674 -1.38229 0
M  V30 20208 H 1890.41 -3.73969 -0.0479578 0
M  V30 20209 H 1892.7 -6.64551 -1.31824 0
M  V30 20210 H 1893.64 -7.07956 0.142862 0
M  V30 20211 H 1894.05 -5.59301 -0.764367 0
M  V30 20212 N 1893.45 -0.361184 -1.53405 0
M  V30 20213 C 1894.72 0.286047 -1.93497 0
M  V30 20214 C 1895.1 1.66764 -1.29434 0
M  V30 20215 O 1894.45 2.23989 -0.451785 0
M  V30 20216 C 1894.66 0.340663 -3.47333 0
M  V30 20217 C 1896.01 0.58311 -4.20577 0
M  V30 20218 O 1897.03 0.422054 -3.53691 0
M  V30 20219 O 1895.89 0.896383 -5.39099 0
M  V30 20220 H 1892.99 0.17059 -0.809215 0
M  V30 20221 H 1895.53 -0.413648 -1.64581 0
M  V30 20222 H 1894.3 -0.628175 -3.86225 0
M  V30 20223 H 1893.93 1.08643 -3.82469 0
M  V30 20224 N 1894.92 1.57341 -0.0902386 0
M  V30 20225 C 1896.17 1.94176 0.574609 0
M  V30 20226 C 1896.5 0.971636 1.68492 0
M  V30 20227 O 1895.75 -0.00961728 1.95698 0
M  V30 20228 C 1896.05 3.37566 1.17404 0
M  V30 20229 C 1895.72 4.50508 0.188019 0
M  V30 20230 C 1894.38 4.81128 -0.0831922 0
M  V30 20231 C 1896.73 5.18934 -0.485519 0
M  V30 20232 C 1894.06 5.77504 -1.03472 0
M  V30 20233 C 1896.41 6.1633 -1.42548 0
M  V30 20234 C 1895.08 6.45358 -1.70498 0
M  V30 20235 H 1894.35 0.710542 0.210264 0
M  V30 20236 H 1896.99 1.90788 -0.165039 0
M  V30 20237 H 1895.3 3.3751 1.98984 0
M  V30 20238 H 1897 3.63365 1.69607 0
M  V30 20239 H 1893.59 4.26638 0.40959 0
M  V30 20240 H 1897.77 4.95457 -0.289126 0
M  V30 20241 H 1893.03 5.98311 -1.25831 0
M  V30 20242 H 1897.2 6.68447 -1.95323 0
M  V30 20243 H 1894.83 7.19846 -2.44387 0
M  V30 20244 N 1896.4 -0.183431 1.56529 0
M  V30 20245 C 1897.33 -1.22973 1.98494 0
M  V30 20246 C 1898.31 -1.46837 0.858653 0
M  V30 20247 O 1899.5 -1.58377 1.12385 0
M  V30 20248 C 1896.63 -2.57138 2.33446 0
M  V30 20249 C 1895.58 -2.47865 3.48922 0
M  V30 20250 C 1894.91 -3.8641 3.69582 0
M  V30 20251 C 1896.21 -1.99371 4.82751 0
M  V30 20252 H 1897.9 -0.880938 2.86147 0
M  V30 20253 H 1895.45 -0.422321 1.37668 0
M  V30 20254 H 1897.4 -3.30527 2.614 0
M  V30 20255 H 1896.13 -2.93781 1.42689 0
M  V30 20256 H 1894.78 -1.76932 3.21077 0
M  V30 20257 H 1894.43 -4.20426 2.76136 0
M  V30 20258 H 1894.13 -3.81077 4.47274 0
M  V30 20259 H 1895.66 -4.61403 3.99924 0
M  V30 20260 H 1897.07 -2.62526 5.0966 0
M  V30 20261 H 1895.47 -2.05014 5.63994 0
M  V30 20262 H 1896.54 -0.947442 4.75554 0
M  V30 20263 N 1897.88 -1.50992 -0.451564 0
M  V30 20264 C 1899.16 -1.53486 -1.2125 0
M  V30 20265 C 1899.54 -0.290809 -2.09087 0
M  V30 20266 O 1898.89 0.724859 -2.16698 0
M  V30 20267 C 1899.1 -2.84125 -2.02667 0
M  V30 20268 C 1900.44 -3.35535 -2.60195 0
M  V30 20269 O 1901.47 -2.85579 -2.12892 0
M  V30 20270 O 1900.33 -4.22667 -3.46432 0
M  V30 20271 H 1897.42 -0.616481 -0.551253 0
M  V30 20272 H 1899.97 -1.63296 -0.461792 0
M  V30 20273 H 1898.74 -3.66134 -1.38064 0
M  V30 20274 H 1898.36 -2.7741 -2.84832 0
M  V30 20275 N 1899.36 0.706069 -1.40899 0
M  V30 20276 C 1900.61 1.46315 -1.39415 0
M  V30 20277 C 1900.93 1.95 -0.000496593 0
M  V30 20278 O 1900.2 1.70995 0.955904 0
M  V30 20279 H 1898.78 0.542863 -0.513136 0
M  V30 20280 H 1901.44 0.836396 -1.76041 0
M  V30 20281 H 1900.54 2.33139 -2.07491 0
M  V30 20282 N 1900.84 1.26553 0.939264 0
M  V30 20283 C 1901.78 1.08092 2.05958 0
M  V30 20284 C 1902.78 0.00730279 1.69398 0
M  V30 20285 O 1903.98 0.164131 1.7925 0
M  V30 20286 H 1900.36 0.33271 0.674394 0
M  V30 20287 H 1902.33 2.03032 2.18679 0
M  V30 20288 C 1901.08 0.732672 3.39893 0
M  V30 20289 H 1900.4 1.55067 3.68503 0
M  V30 20290 H 1901.84 0.643305 4.19091 0
M  V30 20291 C 1900.3 -0.5623 3.32174 0
M  V30 20292 O 1900.83 -1.60007 3.68457 0
M  V30 20293 N 1899.04 -0.553643 2.85277 0
M  V30 20294 H 1898.58 0.291265 2.55948 0
M  V30 20295 H 1898.54 -1.4202 2.80495 0
M  V30 20296 N 1902.31 -1.14411 1.08387 0
M  V30 20297 C 1903.24 -2.21619 0.735327 0
M  V30 20298 C 1904.23 -1.67744 -0.282132 0
M  V30 20299 O 1905.41 -1.936 -0.152547 0
M  V30 20300 C 1902.54 -3.47003 0.143628 0
M  V30 20301 C 1901.49 -4.13903 1.08941 0
M  V30 20302 C 1900.82 -5.33487 0.359941 0
M  V30 20303 C 1902.12 -4.62463 2.42746 0
M  V30 20304 H 1903.81 -2.51031 1.63168 0
M  V30 20305 H 1901.36 -1.20658 0.785981 0
M  V30 20306 H 1903.31 -4.21251 -0.112217 0
M  V30 20307 H 1902.04 -3.16955 -0.787856 0
M  V30 20308 H 1900.7 -3.4161 1.33035 0
M  V30 20309 H 1900.34 -4.99699 -0.57534 0
M  V30 20310 H 1900.04 -5.79192 0.990451 0
M  V30 20311 H 1901.57 -6.10497 0.112145 0
M  V30 20312 H 1902.98 -5.28185 2.22919 0
M  V30 20313 H 1901.38 -5.18869 3.01488 0
M  V30 20314 H 1902.45 -3.77542 3.04286 0
M  V30 20315 N 1903.79 -0.869509 -1.31443 0
M  V30 20316 C 1905.02 -0.494667 -2.009 0
M  V30 20317 C 1905.44 0.912728 -1.65272 0
M  V30 20318 O 1904.79 1.59788 -0.881702 0
M  V30 20319 C 1904.84 -0.641585 -3.55761 0
M  V30 20320 O 1904.56 -1.99356 -3.90114 0
M  V30 20321 C 1906.07 -0.267695 -4.42491 0
M  V30 20322 H 1903.29 -0.192789 -0.642708 0
M  V30 20323 H 1905.83 -1.17055 -1.67686 0
M  V30 20324 H 1903.98 -0.0132632 -3.87398 0
M  V30 20325 H 1904.4 -2.00099 -4.8483 0
M  V30 20326 H 1905.87 -0.421448 -5.50389 0
M  V30 20327 H 1906.35 0.793108 -4.3198 0
M  V30 20328 H 1906.96 -0.871698 -4.16271 0
M  V30 20329 N 1905.27 1.44508 -0.628902 0
M  V30 20330 C 1906.2 2.33412 0.0642512 0
M  V30 20331 C 1907.18 1.48077 0.837091 0
M  V30 20332 O 1908.37 1.76802 0.803415 0
M  V30 20333 C 1905.5 3.31112 1.04795 0
M  V30 20334 C 1904.45 4.26248 0.386897 0
M  V30 20335 C 1903.78 5.13799 1.48035 0
M  V30 20336 C 1905.08 5.17514 -0.705449 0
M  V30 20337 H 1906.77 2.91619 -0.678133 0
M  V30 20338 H 1904.32 1.40225 -0.327558 0
M  V30 20339 H 1906.27 3.9219 1.54159 0
M  V30 20340 H 1904.99 2.71109 1.8212 0
M  V30 20341 H 1903.65 3.66499 -0.0860697 0
M  V30 20342 H 1903.3 4.5015 2.24441 0
M  V30 20343 H 1903 5.78262 1.04342 0
M  V30 20344 H 1904.52 5.77748 1.97583 0
M  V30 20345 H 1905.94 5.7254 -0.295004 0
M  V30 20346 H 1904.34 5.90567 -1.06538 0
M  V30 20347 H 1905.41 4.5866 -1.57349 0
M  V30 20348 N 1906.75 0.369315 1.53212 0
M  V30 20349 C 1908 -0.219209 2.0131 0
M  V30 20350 C 1908.32 -1.48469 1.25647 0
M  V30 20351 O 1907.58 -1.92734 0.339443 0
M  V30 20352 C 1907.88 -0.553392 3.5309 0
M  V30 20353 C 1907.54 0.618198 4.46642 0
M  V30 20354 C 1906.21 0.939656 4.71936 0
M  V30 20355 C 1908.56 1.40294 5.01963 0
M  V30 20356 C 1905.89 2.04776 5.49803 0
M  V30 20357 C 1908.24 2.50149 5.81041 0
M  V30 20358 C 1906.9 2.82826 6.0462 0
M  V30 20359 H 1906.17 -0.0802141 0.736646 0
M  V30 20360 H 1908.82 0.502547 1.84788 0
M  V30 20361 H 1907.12 -1.35621 3.67579 0
M  V30 20362 H 1908.82 -1.02106 3.87783 0
M  V30 20363 H 1905.41 0.35762 4.27105 0
M  V30 20364 H 1909.6 1.16784 4.82364 0
M  V30 20365 H 1904.85 2.30487 5.66291 0
M  V30 20366 H 1909.03 3.1137 6.22914 0
M  V30 20367 H 1906.65 3.68812 6.64742 0
M  V30 20368 N 1908.23 -1.57291 0.0985816 0
M  V30 20369 C 1909.19 -2.1307 -0.844628 0
M  V30 20370 C 1910.19 -1.06076 -1.20849 0
M  V30 20371 O 1911.38 -1.31947 -1.13735 0
M  V30 20372 C 1908.51 -2.65416 -2.13933 0
M  V30 20373 H 1909.71 -2.97729 -0.36023 0
M  V30 20374 H 1907.26 -1.55574 -0.150451 0
M  V30 20375 H 1907.99 -1.84287 -2.6685 0
M  V30 20376 H 1907.78 -3.43647 -1.88811 0
M  V30 20377 H 1909.27 -3.08551 -2.814 0
M  V30 20378 N 1909.71 0.175127 -1.56624 0
M  V30 20379 C 1910.93 0.908041 -1.85909 0
M  V30 20380 C 1911.35 1.75993 -0.683514 0
M  V30 20381 O 1910.71 1.79162 0.347453 0
M  V30 20382 C 1910.76 1.78791 -3.14191 0
M  V30 20383 O 1910.48 0.970386 -4.27218 0
M  V30 20384 C 1911.98 2.63081 -3.56796 0
M  V30 20385 H 1909.2 0.263986 -0.616889 0
M  V30 20386 H 1911.74 0.176369 -2.03738 0
M  V30 20387 H 1909.9 2.47296 -2.982 0
M  V30 20388 H 1910.31 1.57179 -5.00395 0
M  V30 20389 H 1911.79 3.2044 -4.49469 0
M  V30 20390 H 1912.26 3.37766 -2.80732 0
M  V30 20391 H 1912.87 1.99914 -3.75386 0
M  V30 20392 N 1911.18 1.5123 0.44355 0
M  V30 20393 C 1912.43 1.63833 1.19527 0
M  V30 20394 C 1912.76 0.350544 1.9101 0
M  V30 20395 O 1912.04 -0.649546 1.83333 0
M  V30 20396 C 1912.32 2.83747 2.21719 0
M  V30 20397 C 1912.17 4.22484 1.5436 0
M  V30 20398 C 1913.49 2.99184 3.22765 0
M  V30 20399 H 1910.61 0.596256 0.433184 0
M  V30 20400 H 1913.25 1.83697 0.485321 0
M  V30 20401 H 1911.4 2.66942 2.82267 0
M  V30 20402 H 1913.08 4.50944 0.971976 0
M  V30 20403 H 1911.32 4.25469 0.846069 0
M  V30 20404 H 1911.99 5.0237 2.28754 0
M  V30 20405 H 1914.47 3.14659 2.72266 0
M  V30 20406 H 1913.34 3.84663 3.91569 0
M  V30 20407 H 1913.6 2.10984 3.88508 0
M  V30 20408 N 1912.66 -0.698586 1.41271 0
M  V30 20409 C 1913.9 -1.47088 1.41931 0
M  V30 20410 C 1914.27 -1.91982 0.0260304 0
M  V30 20411 O 1915.47 -2.68641 -0.092562 0
M  V30 20412 C 1913.74 -2.65236 2.39551 0
M  V30 20413 S 1915.3 -3.54418 2.58715 0
M  V30 20414 H 1912.11 -0.502673 0.502833 0
M  V30 20415 H 1914.72 -0.815406 1.77683 0
M  V30 20416 H 1913.42 -2.30454 3.39587 0
M  V30 20417 H 1912.95 -3.35679 2.05141 0
M  V30 20418 H 1914.97 -4.60331 1.85229 0
M  V30 20419 N 1914.14 -1.27049 -0.93254 0
M  V30 20420 C 1915.05 -1.11156 -2.06595 0
M  V30 20421 C 1916.07 -0.0428245 -1.73947 0
M  V30 20422 O 1917.24 -0.248326 -1.99863 0
M  V30 20423 C 1914.31 -0.755297 -3.38373 0
M  V30 20424 C 1913.37 -1.90439 -3.84749 0
M  V30 20425 C 1912.6 -1.56502 -5.10238 0
M  V30 20426 O 1912.82 -0.470696 -5.68455 0
M  V30 20427 O 1911.76 -2.40262 -5.51868 0
M  V30 20428 H 1915.58 -2.0626 -2.22914 0
M  V30 20429 H 1913.17 -1.06191 -1.05089 0
M  V30 20430 H 1915.05 -0.569728 -4.17531 0
M  V30 20431 H 1913.73 0.166262 -3.23273 0
M  V30 20432 H 1912.63 -2.14498 -3.06499 0
M  V30 20433 H 1913.97 -2.80598 -4.04383 0
M  V30 20434 N 1915.62 1.13835 -1.08993 0
M  V30 20435 C 1916.56 2.19107 -0.725298 0
M  V30 20436 C 1917.53 1.63524 0.291368 0
M  V30 20437 O 1918.72 1.90005 0.174014 0
M  V30 20438 C 1915.86 3.44786 -0.147212 0
M  V30 20439 C 1914.97 4.14492 -1.21738 0
M  V30 20440 C 1914.11 5.27772 -0.602519 0
M  V30 20441 C 1913.15 5.89321 -1.65431 0
M  V30 20442 N 1912.28 6.9404 -1.0608 0
M  V30 20443 H 1917.12 2.49646 -1.6273 0
M  V30 20444 H 1914.66 1.22585 -0.813108 0
M  V30 20445 H 1916.62 4.16692 0.205719 0
M  V30 20446 H 1915.25 3.14712 0.718077 0
M  V30 20447 H 1914.3 3.40914 -1.68766 0
M  V30 20448 H 1915.61 4.56325 -2.01417 0
M  V30 20449 H 1914.77 6.06376 -0.198177 0
M  V30 20450 H 1913.51 4.87177 0.225868 0
M  V30 20451 H 1912.51 5.09415 -2.06824 0
M  V30 20452 H 1913.74 6.3199 -2.48528 0
M  V30 20453 H 1911.68 6.5551 -0.253616 0
M  V30 20454 H 1911.6 7.34391 -1.79461 0
M  V30 20455 H 1912.87 7.76506 -0.682517 0
M  V30 20456 N 1917.1 0.876467 1.3098 0
M  V30 20457 C 1918.32 0.505315 2.00634 0
M  V30 20458 C 1918.74 -0.903951 1.65753 0
M  V30 20459 O 1918.1 -1.59318 0.890164 0
M  V30 20460 C 1918.15 0.660442 3.55416 0
M  V30 20461 O 1917.87 2.01422 3.89051 0
M  V30 20462 C 1919.37 0.291158 4.42343 0
M  V30 20463 H 1916.59 0.196195 0.641676 0
M  V30 20464 H 1919.13 1.17942 1.67062 0
M  V30 20465 H 1917.29 0.0338076 3.87385 0
M  V30 20466 H 1917.7 2.02668 4.83762 0
M  V30 20467 H 1919.18 0.450631 5.50158 0
M  V30 20468 H 1919.65 -0.770188 4.32394 0
M  V30 20469 H 1920.26 0.893762 4.15803 0
M  V30 20470 N 1918.57 -1.44173 0.636557 0
M  V30 20471 C 1919.82 -2.02292 0.143429 0
M  V30 20472 C 1920.15 -1.49996 -1.23348 0
M  V30 20473 O 1919.43 -0.686228 -1.81992 0
M  V30 20474 C 1919.71 -3.59843 0.136025 0
M  V30 20475 C 1919.56 -4.22409 1.54566 0
M  V30 20476 C 1920.88 -4.36817 -0.536538 0
M  V30 20477 H 1918 -0.735049 0.0535939 0
M  V30 20478 H 1920.64 -1.71677 0.814066 0
M  V30 20479 H 1918.79 -3.86056 -0.435048 0
M  V30 20480 H 1920.47 -4.07284 2.16604 0
M  V30 20481 H 1918.71 -3.79696 2.09793 0
M  V30 20482 H 1919.38 -5.31441 1.49247 0
M  V30 20483 H 1921.86 -4.16069 -0.0508327 0
M  V30 20484 H 1920.73 -5.46517 -0.510926 0
M  V30 20485 H 1920.99 -4.11827 -1.60783 0
M  V30 20486 N 1920.05 -0.377435 -1.53014 0
M  V30 20487 C 1920.98 0.455103 -2.29022 0
M  V30 20488 C 1921.96 1.07375 -1.31926 0
M  V30 20489 O 1923.15 1.08877 -1.60809 0
M  V30 20490 C 1920.28 1.58883 -3.08826 0
M  V30 20491 C 1919.23 1.09683 -4.13707 0
M  V30 20492 C 1918.56 2.32172 -4.81664 0
M  V30 20493 C 1919.86 0.173165 -5.22013 0
M  V30 20494 H 1921.55 -0.179053 -2.98864 0
M  V30 20495 H 1919.1 -0.0875549 -1.43734 0
M  V30 20496 H 1921.05 2.17798 -3.60752 0
M  V30 20497 H 1919.77 2.2504 -2.36695 0
M  V30 20498 H 1918.43 0.530291 -3.62744 0
M  V30 20499 H 1918.08 2.96811 -4.06094 0
M  V30 20500 H 1917.78 1.99919 -5.52545 0
M  V30 20501 H 1919.31 2.91751 -5.3639 0
M  V30 20502 H 1920.72 0.670145 -5.6937 0
M  V30 20503 H 1919.12 -0.0590463 -6.00071 0
M  V30 20504 H 1920.19 -0.781339 -4.78564 0
M  V30 20505 N 1921.53 1.57237 -0.106922 0
M  V30 20506 C 1922.48 2.14668 0.847728 0
M  V30 20507 C 1923.45 1.06838 1.2718 0
M  V30 20508 O 1924.63 1.34686 1.35146 0
M  V30 20509 C 1921.77 2.74079 2.09702 0
M  V30 20510 C 1920.89 3.96178 1.7224 0
M  V30 20511 C 1920.02 4.43715 2.92045 0
M  V30 20512 C 1919.06 5.58375 2.50766 0
M  V30 20513 N 1918.2 6.00711 3.63443 0
M  V30 20514 H 1923.04 2.95924 0.351133 0
M  V30 20515 H 1920.57 1.46209 0.161636 0
M  V30 20516 H 1922.53 3.06649 2.82882 0
M  V30 20517 H 1921.16 1.95532 2.56841 0
M  V30 20518 H 1920.21 3.69846 0.889819 0
M  V30 20519 H 1921.53 4.7936 1.37896 0
M  V30 20520 H 1920.68 4.78131 3.73464 0
M  V30 20521 H 1919.42 3.59458 3.29607 0
M  V30 20522 H 1918.42 5.23576 1.67776 0
M  V30 20523 H 1919.65 6.4439 2.14334 0
M  V30 20524 H 1917.59 5.19397 4.00702 0
M  V30 20525 H 1917.51 6.78718 3.32983 0
M  V30 20526 H 1918.78 6.39761 4.45338 0
M  V30 20527 N 1923.01 -0.166818 1.56715 0
M  V30 20528 C 1924.42 -0.518754 1.50934 0
M  V30 20529 C 1924.62 -1.84416 0.811964 0
M  V30 20530 O 1923.68 -2.49712 0.374207 0
M  V30 20531 C 1924.99 -0.547356 2.95676 0
M  V30 20532 C 1926.54 -0.634247 3.06507 0
M  V30 20533 C 1927.02 -0.693699 4.52716 0
M  V30 20534 N 1928.51 -0.756466 4.56981 0
M  V30 20535 C 1929.24 -0.823116 5.67461 0
M  V30 20536 N 1928.74 -0.850325 6.87562 0
M  V30 20537 N 1930.53 -0.862482 5.55444 0
M  V30 20538 H 1922.68 0.70222 2.00456 0
M  V30 20539 H 1924.95 0.253731 0.913414 0
M  V30 20540 H 1924.65 0.357945 3.49874 0
M  V30 20541 H 1924.53 -1.39227 3.50565 0
M  V30 20542 H 1926.91 -1.52997 2.52341 0
M  V30 20543 H 1926.99 0.23743 2.54696 0
M  V30 20544 H 1926.64 0.197788 5.07515 0
M  V30 20545 H 1926.57 -1.58158 5.02288 0
M  V30 20546 H 1929.06 -0.74354 3.70513 0
M  V30 20547 H 1929.37 -0.902481 7.67512 0
M  V30 20548 H 1927.72 -0.818528 6.90163 0
M  V30 20549 H 1930.91 -0.838257 4.60533 0
M  V30 20550 H 1931.08 -0.910962 6.41565 0
M  V30 20551 N 1924.49 -1.51463 -0.435524 0
M  V30 20552 C 1925.73 -1.64464 -1.18656 0
M  V30 20553 C 1926.07 -0.360669 -1.90821 0
M  V30 20554 O 1925.34 0.639814 -1.83675 0
M  V30 20555 C 1925.62 -2.84919 -2.20212 0
M  V30 20556 C 1925.48 -4.23297 -1.52117 0
M  V30 20557 C 1926.8 -3.00891 -3.21174 0
M  V30 20558 H 1923.91 -0.598545 -0.430015 0
M  V30 20559 H 1926.56 -1.83952 -0.475572 0
M  V30 20560 H 1924.71 -2.68435 -2.80847 0
M  V30 20561 H 1926.38 -4.51453 -0.948048 0
M  V30 20562 H 1924.62 -4.25912 -0.823493 0
M  V30 20563 H 1925.29 -5.03576 -2.26087 0
M  V30 20564 H 1927.77 -3.16099 -2.70594 0
M  V30 20565 H 1926.64 -3.86734 -3.89523 0
M  V30 20566 H 1926.91 -2.13041 -3.87383 0
M  V30 20567 N 1925.96 0.691085 -1.4164 0
M  V30 20568 C 1926.89 1.8173 -1.46616 0
M  V30 20569 C 1927.88 1.66979 -0.324357 0
M  V30 20570 O 1929.06 1.86644 -0.536424 0
M  V30 20571 C 1926.19 3.19903 -1.35201 0
M  V30 20572 C 1925.14 3.49366 -2.47239 0
M  V30 20573 C 1924.47 4.86942 -2.20887 0
M  V30 20574 C 1925.77 3.47891 -3.89575 0
M  V30 20575 H 1927.46 1.77823 -2.40872 0
M  V30 20576 H 1925.01 0.8541 -1.15936 0
M  V30 20577 H 1926.96 3.98407 -1.37293 0
M  V30 20578 H 1925.69 3.24448 -0.374312 0
M  V30 20579 H 1924.35 2.73215 -2.44436 0
M  V30 20580 H 1923.99 4.88118 -1.2145 0
M  V30 20581 H 1923.69 5.0762 -2.95966 0
M  V30 20582 H 1925.22 5.67751 -2.24703 0
M  V30 20583 H 1926.63 4.16392 -3.94069 0
M  V30 20584 H 1925.03 3.80101 -4.64374 0
M  V30 20585 H 1926.1 2.46778 -4.17407 0
M  V30 20586 N 1927.44 1.27542 0.925789 0
M  V30 20587 C 1928.39 1.10432 2.02666 0
M  V30 20588 C 1929.36 0.004846 1.66099 0
M  V30 20589 O 1930.54 0.167531 1.90063 0
M  V30 20590 C 1927.68 0.759567 3.36637 0
M  V30 20591 C 1926.8 1.93687 3.86147 0
M  V30 20592 C 1925.93 1.53382 5.08574 0
M  V30 20593 C 1924.97 2.67849 5.50385 0
M  V30 20594 N 1924.11 2.2812 6.64007 0
M  V30 20595 H 1928.95 2.04632 2.16633 0
M  V30 20596 H 1926.49 1.01863 1.06124 0
M  V30 20597 H 1928.44 0.540492 4.13684 0
M  V30 20598 H 1927.07 -0.145477 3.22472 0
M  V30 20599 H 1926.13 2.26843 3.05363 0
M  V30 20600 H 1927.44 2.79548 4.13104 0
M  V30 20601 H 1926.59 1.2761 5.93128 0
M  V30 20602 H 1925.33 0.646332 4.83398 0
M  V30 20603 H 1924.34 2.94333 4.64379 0
M  V30 20604 H 1925.56 3.57222 5.77554 0
M  V30 20605 H 1923.51 1.41825 6.40485 0
M  V30 20606 H 1923.42 3.07519 6.90629 0
M  V30 20607 H 1924.69 2.056 7.51897 0
M  V30 20608 N 1928.92 -1.13255 1.09595 0
M  V30 20609 C 1929.83 -2.22321 0.74904 0
M  V30 20610 C 1930.85 -1.72198 -0.24974 0
M  V30 20611 O 1932.02 -2.01196 -0.090652 0
M  V30 20612 C 1929.09 -3.4625 0.17665 0
M  V30 20613 C 1928.15 -4.11254 1.2316 0
M  V30 20614 C 1927.38 -5.29267 0.686427 0
M  V30 20615 O 1927.6 -5.68291 -0.490088 0
M  V30 20616 O 1926.54 -5.84365 1.44227 0
M  V30 20617 H 1930.36 -2.5437 1.6592 0
M  V30 20618 H 1927.95 -1.21422 0.870465 0
M  V30 20619 H 1929.83 -4.2117 -0.139147 0
M  V30 20620 H 1928.51 -3.15896 -0.706492 0
M  V30 20621 H 1927.41 -3.38152 1.60012 0
M  V30 20622 H 1928.75 -4.45743 2.08745 0
M  V30 20623 N 1930.4 -0.883401 -1.30514 0
M  V30 20624 C 1931.33 -0.36516 -2.30627 0
M  V30 20625 C 1932.31 0.551149 -1.60923 0
M  V30 20626 O 1933.49 0.465333 -1.88543 0
M  V30 20627 C 1930.62 0.422552 -3.4472 0
M  V30 20628 C 1929.58 -0.401856 -4.26109 0
M  V30 20629 C 1928.9 0.512363 -5.3224 0
M  V30 20630 C 1930.2 -1.64313 -4.95781 0
M  V30 20631 H 1931.9 -1.20175 -2.74223 0
M  V30 20632 H 1929.44 -0.579315 -1.31833 0
M  V30 20633 H 1931.4 0.795726 -4.13819 0
M  V30 20634 H 1930.12 1.29278 -2.99925 0
M  V30 20635 H 1928.78 -0.75715 -3.58696 0
M  V30 20636 H 1928.43 1.38025 -4.83692 0
M  V30 20637 H 1928.13 -0.0354331 -5.87589 0
M  V30 20638 H 1929.65 0.882088 -6.04195 0
M  V30 20639 H 1931.07 -1.34063 -5.57405 0
M  V30 20640 H 1929.46 -2.13101 -5.60989 0
M  V30 20641 H 1930.53 -2.38843 -4.21998 0
M  V30 20642 N 1931.88 1.43833 -0.644194 0
M  V30 20643 C 1933.12 2.02748 -0.162722 0
M  V30 20644 C 1933.48 1.49857 1.20667 0
M  V30 20645 O 1932.77 0.678332 1.7919 0
M  V30 20646 C 1932.96 3.57249 -0.103941 0
M  V30 20647 C 1932.79 4.2513 -1.4661 0
M  V30 20648 C 1931.56 4.61572 -2.0562 0
M  V30 20649 C 1933.76 4.54728 -2.40265 0
M  V30 20650 N 1931.74 5.14482 -3.34934 0
M  V30 20651 C 1933.11 5.0886 -3.54205 0
M  V30 20652 C 1935.17 4.36689 -2.39181 0
M  V30 20653 C 1933.87 5.46853 -4.67273 0
M  V30 20654 C 1935.9 4.75738 -3.51322 0
M  V30 20655 C 1935.26 5.29996 -4.63987 0
M  V30 20656 H 1931.36 0.775085 -0.103767 0
M  V30 20657 H 1933.94 1.7514 -0.850534 0
M  V30 20658 H 1932.11 3.8444 0.553188 0
M  V30 20659 H 1933.85 4.0284 0.387567 0
M  V30 20660 H 1930.6 4.46317 -1.58425 0
M  V30 20661 H 1931.03 5.454 -4.01083 0
M  V30 20662 H 1935.67 3.94022 -1.53319 0
M  V30 20663 H 1933.39 5.88468 -5.53833 0
M  V30 20664 H 1936.97 4.63483 -3.51674 0
M  V30 20665 H 1935.85 5.59652 -5.49326 0
M  V30 20666 N 1933.35 0.385544 1.52811 0
M  V30 20667 C 1934.77 0.0353371 1.59561 0
M  V30 20668 C 1934.97 -1.44948 1.39973 0
M  V30 20669 O 1934.03 -2.21354 1.21484 0
M  V30 20670 C 1935.34 0.509155 2.96358 0
M  V30 20671 C 1936.89 0.465088 3.09525 0
M  V30 20672 C 1937.36 0.915035 4.48766 0
M  V30 20673 N 1938.85 0.870895 4.54939 0
M  V30 20674 C 1939.59 1.1905 5.60905 0
M  V30 20675 N 1939.08 1.58039 6.74534 0
M  V30 20676 N 1940.88 1.112 5.50991 0
M  V30 20677 H 1933.03 1.35224 1.63793 0
M  V30 20678 H 1935.29 0.554013 0.769268 0
M  V30 20679 H 1935 1.54604 3.15896 0
M  V30 20680 H 1934.87 -0.0937516 3.77083 0
M  V30 20681 H 1937.26 -0.562704 2.89685 0
M  V30 20682 H 1937.34 1.10375 2.30762 0
M  V30 20683 H 1936.98 1.94104 4.69346 0
M  V30 20684 H 1936.91 0.253422 5.2599 0
M  V30 20685 H 1939.4 0.583936 3.73361 0
M  V30 20686 H 1939.72 1.808 7.51353 0
M  V30 20687 H 1938.06 1.61922 6.75874 0
M  V30 20688 H 1941.25 0.806438 4.61101 0
M  V30 20689 H 1941.43 1.3644 6.33473 0
M  V30 20690 N 1934.83 -1.57178 0.115259 0
M  V30 20691 C 1936.08 -1.95355 -0.54445 0
M  V30 20692 C 1936.41 -0.998445 -1.66567 0
M  V30 20693 O 1935.69 -0.0349993 -1.94469 0
M  V30 20694 C 1935.97 -3.43502 -1.08067 0
M  V30 20695 C 1935.82 -4.49785 0.0368794 0
M  V30 20696 C 1937.14 -3.9341 -1.97273 0
M  V30 20697 H 1934.26 -0.710338 -0.19644 0
M  V30 20698 H 1936.9 -1.89047 0.19006 0
M  V30 20699 H 1935.05 -3.49008 -1.70662 0
M  V30 20700 H 1936.72 -4.56379 0.672017 0
M  V30 20701 H 1934.97 -4.28106 0.700539 0
M  V30 20702 H 1935.64 -5.50694 -0.379481 0
M  V30 20703 H 1938.11 -3.90184 -1.44555 0
M  V30 20704 H 1936.99 -4.97596 -2.31711 0
M  V30 20705 H 1937.25 -3.33884 -2.89782 0
M  V30 20706 N 1936.31 0.158505 -1.56801 0
M  V30 20707 C 1937.56 0.874331 -1.82984 0
M  V30 20708 C 1937.89 1.81334 -0.695103 0
M  V30 20709 O 1937.17 1.9214 0.302091 0
M  V30 20710 C 1937.45 1.65886 -3.19615 0
M  V30 20711 C 1937.3 0.74211 -4.43636 0
M  V30 20712 C 1938.62 2.62382 -3.53332 0
M  V30 20713 H 1935.74 0.316412 -0.665622 0
M  V30 20714 H 1938.38 0.139988 -1.89484 0
M  V30 20715 H 1936.53 2.28488 -3.14206 0
M  V30 20716 H 1938.2 0.127969 -4.61122 0
M  V30 20717 H 1936.45 0.0509465 -4.3377 0
M  V30 20718 H 1937.12 1.32683 -5.35816 0
M  V30 20719 H 1939.59 2.09902 -3.59278 0
M  V30 20720 H 1938.47 3.14332 -4.49985 0
M  V30 20721 H 1938.73 3.43194 -2.78694 0
M  V30 20722 N 1937.79 1.51692 0.427485 0
M  V30 20723 C 1938.72 1.68413 1.53988 0
M  V30 20724 C 1939.7 0.531673 1.53662 0
M  V30 20725 O 1940.88 0.756748 1.72643 0
M  V30 20726 C 1938.01 1.70671 2.92556 0
M  V30 20727 C 1937.06 2.91998 3.10868 0
M  V30 20728 S 1937.89 4.52653 2.86122 0
M  V30 20729 C 1939.05 4.5767 4.26953 0
M  V30 20730 H 1939.28 2.62501 1.39573 0
M  V30 20731 H 1936.81 1.41499 0.617842 0
M  V30 20732 H 1938.77 1.72657 3.72424 0
M  V30 20733 H 1937.43 0.777425 3.04327 0
M  V30 20734 H 1936.62 2.90008 4.12203 0
M  V30 20735 H 1936.23 2.87805 2.38839 0
M  V30 20736 H 1938.52 4.33917 5.20309 0
M  V30 20737 H 1939.46 5.59529 4.33974 0
M  V30 20738 H 1939.87 3.8689 4.11067 0
M  V30 20739 N 1939.27 -0.683564 1.42004 0
M  V30 20740 C 1940.22 -1.81859 1.45018 0
M  V30 20741 C 1941.21 -1.66217 0.326852 0
M  V30 20742 O 1942.42 -1.72932 0.499454 0
M  V30 20743 H 1938.79 -0.599489 0.454001 0
M  V30 20744 H 1940.76 -1.76435 2.40652 0
M  V30 20745 C 1939.51 -3.19959 1.36094 0
M  V30 20746 H 1938.83 -3.32618 2.21823 0
M  V30 20747 H 1940.27 -3.99421 1.42263 0
M  V30 20748 C 1938.73 -3.36817 0.074666 0
M  V30 20749 O 1939.26 -3.92032 -0.875984 0
M  V30 20750 N 1937.47 -2.906 -0.00533406 0
M  V30 20751 H 1937.02 -2.45853 0.769044 0
M  V30 20752 H 1936.97 -3.02257 -0.865343 0
M  V30 20753 N 1940.75 -1.28031 -0.919012 0
M  V30 20754 C 1941.97 -1.17714 -1.7015 0
M  V30 20755 C 1942.39 0.264914 -1.86932 0
M  V30 20756 O 1941.75 1.17957 -1.39256 0
M  V30 20757 C 1941.8 -1.86548 -3.09648 0
M  V30 20758 O 1941.52 -3.25121 -2.93646 0
M  V30 20759 C 1943.02 -1.82467 -4.04006 0
M  V30 20760 H 1940.24 -0.408863 -0.532045 0
M  V30 20761 H 1942.78 -1.69061 -1.1506 0
M  V30 20762 H 1940.94 -1.39085 -3.61572 0
M  V30 20763 H 1941.35 -3.59518 -3.81899 0
M  V30 20764 H 1942.83 -2.35229 -4.99371 0
M  V30 20765 H 1943.3 -0.795892 -4.31928 0
M  V30 20766 H 1943.91 -2.29585 -3.5801 0
M  V30 20767 N 1942.22 1.12672 -1.10194 0
M  V30 20768 C 1943.16 2.17442 -0.692399 0
M  V30 20769 C 1944.13 1.59713 0.305045 0
M  V30 20770 O 1945.32 1.87387 0.204539 0
M  V30 20771 C 1942.45 3.38693 -0.0212605 0
M  V30 20772 C 1941.49 4.15046 -0.981778 0
M  V30 20773 S 1942.32 4.73674 -2.49786 0
M  V30 20774 C 1943.48 5.98263 -1.83936 0
M  V30 20775 H 1943.71 2.51845 -1.57991 0
M  V30 20776 H 1941.25 1.24094 -0.918694 0
M  V30 20777 H 1943.2 4.08922 0.359641 0
M  V30 20778 H 1941.87 3.02576 0.843018 0
M  V30 20779 H 1941.06 5.01902 -0.459398 0
M  V30 20780 H 1940.66 3.50513 -1.30447 0
M  V30 20781 H 1942.95 6.67354 -1.16809 0
M  V30 20782 H 1943.9 6.55123 -2.68738 0
M  V30 20783 H 1944.3 5.4921 -1.30494 0
M  V30 20784 N 1943.7 0.89031 1.30043 0
M  V30 20785 C 1944.61 0.365266 2.31739 0
M  V30 20786 C 1945.63 -0.535219 1.65564 0
M  V30 20787 O 1946.8 -0.427058 1.9682 0
M  V30 20788 C 1943.87 -0.407009 3.44303 0
M  V30 20789 C 1942.93 0.523869 4.26092 0
M  V30 20790 C 1942.16 -0.211645 5.3328 0
M  V30 20791 O 1942.39 -1.43697 5.52003 0
M  V30 20792 O 1941.32 0.440999 6.00282 0
M  V30 20793 H 1945.15 1.20872 2.7861 0
M  V30 20794 H 1942.73 0.654319 1.34309 0
M  V30 20795 H 1944.61 -0.844074 4.1286 0
M  V30 20796 H 1943.29 -1.22668 2.99557 0
M  V30 20797 H 1942.19 1.00986 3.60212 0
M  V30 20798 H 1943.53 1.30969 4.74455 0
M  V30 20799 N 1945.18 -1.43489 0.651812 0
M  V30 20800 C 1946.6 -1.56374 0.31925 0
M  V30 20801 C 1946.8 -1.63573 -1.1767 0
M  V30 20802 O 1945.85 -1.59003 -1.96149 0
M  V30 20803 C 1947.16 -2.82532 1.02937 0
M  V30 20804 C 1948.71 -2.96274 1.00949 0
M  V30 20805 C 1949.19 -4.25262 1.70047 0
M  V30 20806 N 1950.68 -4.32123 1.66805 0
M  V30 20807 C 1951.41 -5.30693 2.17146 0
M  V30 20808 N 1950.91 -6.3555 2.75769 0
M  V30 20809 N 1952.7 -5.22337 2.07654 0
M  V30 20810 H 1944.85 -1.3706 1.6226 0
M  V30 20811 H 1947.12 -0.658169 0.682289 0
M  V30 20812 H 1946.82 -2.83271 2.08448 0
M  V30 20813 H 1946.7 -3.72713 0.580047 0
M  V30 20814 H 1949.08 -2.95077 -0.0372118 0
M  V30 20815 H 1949.16 -2.07386 1.49749 0
M  V30 20816 H 1948.81 -4.2722 2.74673 0
M  V30 20817 H 1948.74 -5.13044 1.18714 0
M  V30 20818 H 1951.23 -3.56968 1.24024 0
M  V30 20819 H 1951.54 -7.0708 3.11861 0
M  V30 20820 H 1949.89 -6.36177 2.79829 0
M  V30 20821 H 1953.08 -4.39336 1.61561 0
M  V30 20822 H 1953.25 -5.98998 2.47195 0
M  V30 20823 N 1946.66 -0.393643 -1.52605 0
M  V30 20824 C 1947.9 0.187431 -2.01932 0
M  V30 20825 C 1948.24 1.46098 -1.27942 0
M  V30 20826 O 1947.51 1.90729 -0.381154 0
M  V30 20827 C 1947.79 0.450933 -3.57265 0
M  V30 20828 C 1947.65 -0.838204 -4.41921 0
M  V30 20829 C 1948.97 1.23971 -4.22278 0
M  V30 20830 H 1946.09 0.0666471 -0.73398 0
M  V30 20831 H 1948.73 -0.524064 -1.8263 0
M  V30 20832 H 1946.88 1.05703 -3.73844 0
M  V30 20833 H 1948.55 -1.47492 -4.37086 0
M  V30 20834 H 1946.79 -1.45258 -4.08757 0
M  V30 20835 H 1947.46 -0.608424 -5.48637 0
M  V30 20836 H 1949.94 0.726733 -4.09705 0
M  V30 20837 H 1948.82 1.39283 -5.30935 0
M  V30 20838 H 1949.08 2.25611 -3.802 0
M  V30 20839 N 1948.14 1.57115 -0.123593 0
M  V30 20840 C 1949.38 1.94527 0.533131 0
M  V30 20841 C 1949.7 1.0095 1.67536 0
M  V30 20842 O 1950.9 1.27846 2.39515 0
M  V30 20843 C 1949.36 3.45735 0.999783 0
M  V30 20844 C 1948.97 4.47854 -0.114238 0
M  V30 20845 C 1950.71 3.92057 1.62762 0
M  V30 20846 C 1948.62 5.90245 0.36937 0
M  V30 20847 H 1947.55 0.726179 0.20293 0
M  V30 20848 H 1950.2 1.8236 -0.204183 0
M  V30 20849 H 1948.58 3.53151 1.79166 0
M  V30 20850 H 1949.76 4.52111 -0.890627 0
M  V30 20851 H 1948.07 4.11311 -0.649019 0
M  V30 20852 H 1950.67 4.9586 2.00067 0
M  V30 20853 H 1951.01 3.3229 2.50777 0
M  V30 20854 H 1951.54 3.8746 0.901074 0
M  V30 20855 H 1948.28 6.53778 -0.474837 0
M  V30 20856 H 1947.8 5.89399 1.11214 0
M  V30 20857 H 1949.48 6.41666 0.829093 0
M  V30 20858 N 1949.61 -0.150187 1.56883 0
M  V30 20859 C 1950.86 -0.864615 1.83446 0
M  V30 20860 C 1951.19 -1.80963 0.70471 0
M  V30 20861 O 1950.47 -1.92297 -0.291897 0
M  V30 20862 C 1950.75 -1.64188 3.20491 0
M  V30 20863 C 1950.6 -0.718573 4.44023 0
M  V30 20864 C 1951.92 -2.60505 3.54719 0
M  V30 20865 H 1949.04 -0.312878 0.66729 0
M  V30 20866 H 1951.68 -0.129937 1.89555 0
M  V30 20867 H 1949.83 -2.26819 3.15413 0
M  V30 20868 H 1951.51 -0.103513 4.61184 0
M  V30 20869 H 1949.75 -0.0279419 4.33791 0
M  V30 20870 H 1950.42 -1.29839 5.36513 0
M  V30 20871 H 1952.9 -2.07993 3.60386 0
M  V30 20872 H 1951.77 -3.11941 4.51646 0
M  V30 20873 H 1952.03 -3.41711 2.8051 0
M  V30 20874 N 1951.09 -1.51916 -0.419434 0
M  V30 20875 C 1952.02 -1.77475 -1.5174 0
M  V30 20876 C 1953 -0.625263 -1.58191 0
M  V30 20877 O 1954.19 -0.869815 -1.73631 0
M  V30 20878 C 1951.32 -1.91608 -2.89661 0
M  V30 20879 C 1950.27 -3.07151 -2.98064 0
M  V30 20880 C 1949.6 -3.06493 -4.3814 0
M  V30 20881 C 1950.9 -4.46799 -2.70495 0
M  V30 20882 H 1952.59 -2.69413 -1.30602 0
M  V30 20883 H 1950.14 -1.2964 -0.626849 0
M  V30 20884 H 1952.09 -2.08072 -3.66448 0
M  V30 20885 H 1950.82 -0.963332 -3.1207 0
M  V30 20886 H 1949.47 -2.90422 -2.2372 0
M  V30 20887 H 1949.12 -2.08959 -4.57542 0
M  V30 20888 H 1948.82 -3.84091 -4.44689 0
M  V30 20889 H 1950.35 -3.25072 -5.16876 0
M  V30 20890 H 1951.76 -4.63787 -3.37008 0
M  V30 20891 H 1950.16 -5.26238 -2.88432 0
M  V30 20892 H 1951.23 -4.55604 -1.65991 0
M  V30 20893 N 1952.57 0.676023 -1.42365 0
M  V30 20894 C 1953.98 1.25659 -1.38082 0
M  V30 20895 C 1954.33 1.96062 -0.0734945 0
M  V30 20896 O 1953.46 1.99941 0.827793 0
M  V30 20897 C 1954.05 2.28531 -2.50118 0
M  V30 20898 C 1952.61 2.82117 -2.49172 0
M  V30 20899 C 1951.76 1.56422 -2.28971 0
M  V30 20900 H 1954.71 0.469489 -1.51596 0
M  V30 20901 H 1954.73 3.1024 -2.20299 0
M  V30 20902 H 1954.24 1.77261 -3.45254 0
M  V30 20903 H 1952.34 3.37511 -1.57851 0
M  V30 20904 H 1952.46 3.31216 -3.46168 0
M  V30 20905 H 1950.82 1.82946 -1.77208 0
M  V30 20906 H 1951.6 1.0712 -3.2616 0
M  V30 20907 N 1954.05 1.28517 0.912209 0
M  V30 20908 C 1955.46 1.14251 1.4766 0
M  V30 20909 C 1955.81 -0.266935 1.94376 0
M  V30 20910 O 1954.94 -1.16134 1.82598 0
M  V30 20911 C 1955.53 2.06792 2.6837 0
M  V30 20912 C 1954.09 1.96587 3.20984 0
M  V30 20913 C 1953.24 1.98444 1.93689 0
M  V30 20914 H 1956.19 1.41184 0.724769 0
M  V30 20915 H 1956.21 1.63282 3.43685 0
M  V30 20916 H 1955.72 3.09365 2.34339 0
M  V30 20917 H 1953.82 0.970565 3.59737 0
M  V30 20918 H 1953.93 2.83622 3.86129 0
M  V30 20919 H 1952.3 1.42872 2.10855 0
M  V30 20920 H 1953.08 3.02699 1.61951 0
M  V30 20921 N 1955.53 -1.12086 1.1079 0
M  V30 20922 C 1956.46 -2.2001 0.78217 0
M  V30 20923 C 1957.44 -1.68305 -0.246488 0
M  V30 20924 O 1958.62 -1.9388 -0.111448 0
M  V30 20925 C 1955.75 -3.4662 0.2172 0
M  V30 20926 C 1954.71 -4.11499 1.17696 0
M  V30 20927 C 1954.03 -5.32604 0.47302 0
M  V30 20928 C 1955.33 -4.5721 2.52501 0
M  V30 20929 H 1957.03 -2.47514 1.68456 0
M  V30 20930 H 1954.57 -1.18964 0.811397 0
M  V30 20931 H 1956.53 -4.21394 -0.0228381 0
M  V30 20932 H 1955.25 -3.18555 -0.720448 0
M  V30 20933 H 1953.91 -3.38711 1.40252 0
M  V30 20934 H 1953.56 -5.00807 -0.469217 0
M  V30 20935 H 1953.26 -5.76961 1.11308 0
M  V30 20936 H 1954.78 -6.10122 0.241615 0
M  V30 20937 H 1956.19 -5.23338 2.34073 0
M  V30 20938 H 1954.59 -5.12357 3.12426 0
M  V30 20939 H 1955.66 -3.71003 3.12226 0
M  V30 20940 N 1957 -0.897194 -1.29569 0
M  V30 20941 C 1958.23 -0.53717 -1.99805 0
M  V30 20942 C 1958.65 0.877466 -1.6717 0
M  V30 20943 O 1958 1.57882 -0.915398 0
M  V30 20944 C 1958.06 -0.716902 -3.5432 0
M  V30 20945 O 1957.78 -2.07586 -3.85798 0
M  V30 20946 C 1959.28 -0.361494 -4.41824 0
M  V30 20947 H 1956.5 -0.206379 -0.638474 0
M  V30 20948 H 1959.04 -1.20585 -1.65165 0
M  V30 20949 H 1957.2 -0.095433 -3.87282 0
M  V30 20950 H 1957.61 -2.10338 -4.80477 0
M  V30 20951 H 1959.08 -0.538099 -5.49371 0
M  V30 20952 H 1959.56 0.701301 -4.33565 0
M  V30 20953 H 1960.17 -0.959799 -4.14328 0
M  V30 20954 N 1958.48 1.43142 -0.659413 0
M  V30 20955 C 1959.76 1.95318 -0.104973 0
M  V30 20956 C 1960.14 1.60048 1.37651 0
M  V30 20957 O 1959.49 0.888746 2.10508 0
M  V30 20958 C 1959.7 3.47161 -0.357769 0
M  V30 20959 C 1961.05 4.23766 -0.26602 0
M  V30 20960 O 1962.07 3.55012 -0.290667 0
M  V30 20961 O 1960.93 5.46152 -0.195021 0
M  V30 20962 H 1958.02 0.826978 0.0060428 0
M  V30 20963 H 1960.57 1.53049 -0.733079 0
M  V30 20964 H 1959.34 3.65983 -1.38465 0
M  V30 20965 H 1958.96 3.96443 0.303102 0
M  V30 20966 N 1959.96 0.40173 1.52394 0
M  V30 20967 C 1960.89 -0.46265 2.24482 0
M  V30 20968 C 1961.91 -1.01638 1.27175 0
M  V30 20969 O 1963.09 -0.916585 1.5317 0
M  V30 20970 C 1960.19 -1.65517 2.95732 0
M  V30 20971 C 1959.37 -1.22664 4.19848 0
M  V30 20972 C 1958.43 -2.28524 4.73987 0
M  V30 20973 O 1957.45 -1.89419 5.36758 0
M  V30 20974 N 1958.65 -3.60596 4.54918 0
M  V30 20975 H 1961.42 0.155024 2.99299 0
M  V30 20976 H 1958.98 0.228724 1.60276 0
M  V30 20977 H 1960.97 -2.35886 3.28847 0
M  V30 20978 H 1959.54 -2.17892 2.24147 0
M  V30 20979 H 1958.76 -0.351359 3.92631 0
M  V30 20980 H 1960.05 -0.917162 5.00465 0
M  V30 20981 H 1959.45 -3.95122 4.0484 0
M  V30 20982 H 1958.01 -4.26962 4.9249 0
M  V30 20983 N 1961.44 -1.57047 0.131923 0
M  V30 20984 C 1962.67 -1.99989 -0.530289 0
M  V30 20985 C 1963.08 -1.01182 -1.59397 0
M  V30 20986 O 1962.44 -0.00657368 -1.82499 0
M  V30 20987 C 1962.49 -3.42898 -1.14469 0
M  V30 20988 O 1962.21 -4.37926 -0.123503 0
M  V30 20989 C 1963.71 -4.0104 -1.88897 0
M  V30 20990 H 1960.93 -0.656371 -0.139348 0
M  V30 20991 H 1963.48 -2.03291 0.222069 0
M  V30 20992 H 1961.63 -3.40495 -1.84775 0
M  V30 20993 H 1962.04 -5.21376 -0.571587 0
M  V30 20994 H 1963.52 -5.03077 -2.27196 0
M  V30 20995 H 1964 -3.40903 -2.76915 0
M  V30 20996 H 1964.6 -4.07027 -1.23324 0
M  V30 20997 N 1962.92 0.141865 -1.5696 0
M  V30 20998 C 1964.16 0.851923 -1.83267 0
M  V30 20999 C 1964.49 1.81473 -0.713611 0
M  V30 21000 O 1963.76 1.94109 0.264326 0
M  V30 21001 H 1962.34 0.317594 -0.676124 0
M  V30 21002 H 1965 0.134643 -1.94434 0
M  V30 21003 H 1964.09 1.41106 -2.7838 0
M  V30 21004 N 1964.39 1.52136 0.411372 0
M  V30 21005 C 1965.62 1.6993 1.18031 0
M  V30 21006 C 1966.04 0.407806 1.84343 0
M  V30 21007 O 1965.39 -0.615981 1.7179 0
M  V30 21008 C 1965.45 2.83333 2.2451 0
M  V30 21009 O 1965.17 4.07482 1.60905 0
M  V30 21010 C 1966.67 3.12618 3.143 0
M  V30 21011 H 1963.89 0.569546 0.354765 0
M  V30 21012 H 1966.43 1.98683 0.484277 0
M  V30 21013 H 1964.59 2.57106 2.89785 0
M  V30 21014 H 1965 4.70657 2.31478 0
M  V30 21015 H 1966.47 3.95486 3.85091 0
M  V30 21016 H 1966.95 2.26078 3.76544 0
M  V30 21017 H 1967.56 3.40602 2.54697 0
M  V30 21018 N 1965.87 -0.668464 1.42721 0
M  V30 21019 C 1966.81 -1.794 1.42648 0
M  V30 21020 C 1967.82 -1.5953 0.324664 0
M  V30 21021 O 1969.01 -1.68532 0.588153 0
M  V30 21022 C 1966.11 -3.16602 1.20898 0
M  V30 21023 C 1965.28 -3.63266 2.43632 0
M  V30 21024 C 1964.34 -4.79221 2.17333 0
M  V30 21025 O 1963.37 -4.89441 2.90579 0
M  V30 21026 N 1964.57 -5.68372 1.18041 0
M  V30 21027 H 1967.33 -1.79946 2.39666 0
M  V30 21028 H 1964.89 -0.85178 1.37682 0
M  V30 21029 H 1966.89 -3.9184 1.01211 0
M  V30 21030 H 1965.46 -3.10918 0.323806 0
M  V30 21031 H 1964.68 -2.78638 2.78845 0
M  V30 21032 H 1965.96 -3.91186 3.25348 0
M  V30 21033 H 1965.36 -5.62773 0.574725 0
M  V30 21034 H 1963.92 -6.43394 1.0434 0
M  V30 21035 N 1967.35 -1.28999 -0.905381 0
M  V30 21036 C 1968.28 -1.16189 -2.0254 0
M  V30 21037 C 1969.26 -0.0575293 -1.70003 0
M  V30 21038 O 1970.45 -0.236004 -1.92761 0
M  V30 21039 C 1967.58 -0.831704 -3.37194 0
M  V30 21040 C 1966.53 -1.89176 -3.83922 0
M  V30 21041 C 1965.86 -1.41501 -5.15637 0
M  V30 21042 C 1967.16 -3.29971 -4.04866 0
M  V30 21043 H 1968.85 -2.09886 -2.13514 0
M  V30 21044 H 1966.4 -1.0105 -1.02591 0
M  V30 21045 H 1968.35 -0.728825 -4.1505 0
M  V30 21046 H 1967.07 0.140958 -3.26296 0
M  V30 21047 H 1965.73 -1.98393 -3.08279 0
M  V30 21048 H 1965.38 -0.431182 -5.01149 0
M  V30 21049 H 1965.08 -2.12391 -5.47872 0
M  V30 21050 H 1966.61 -1.32552 -5.96039 0
M  V30 21051 H 1968.02 -3.23628 -4.73221 0
M  V30 21052 H 1966.42 -3.98768 -4.48447 0
M  V30 21053 H 1967.49 -3.73369 -3.09393 0
M  V30 21054 N 1968.83 1.11497 -1.11383 0
M  V30 21055 C 1970.08 1.82584 -0.857082 0
M  V30 21056 C 1970.39 1.8554 0.61922 0
M  V30 21057 O 1971.6 2.52721 0.992197 0
M  V30 21058 C 1970.05 3.279 -1.48356 0
M  V30 21059 C 1969.66 3.33275 -2.99386 0
M  V30 21060 C 1971.41 4.0389 -1.30663 0
M  V30 21061 C 1969.31 4.72984 -3.55021 0
M  V30 21062 H 1968.24 0.684134 -0.31698 0
M  V30 21063 H 1970.89 1.25471 -1.339 0
M  V30 21064 H 1969.28 3.84941 -0.929311 0
M  V30 21065 H 1970.45 2.86119 -3.6121 0
M  V30 21066 H 1968.76 2.70764 -3.16348 0
M  V30 21067 H 1971.36 5.07069 -1.69662 0
M  V30 21068 H 1971.7 4.15554 -0.249147 0
M  V30 21069 H 1972.24 3.53235 -1.82949 0
M  V30 21070 H 1968.98 4.66518 -4.60479 0
M  V30 21071 H 1968.5 5.20553 -2.97968 0
M  V30 21072 H 1970.18 5.41941 -3.53425 0
M  V30 21073 N 1970.31 0.904053 1.29092 0
M  V30 21074 C 1971.24 0.401805 2.30017 0
M  V30 21075 C 1972.22 -0.525477 1.6178 0
M  V30 21076 O 1973.4 -0.435279 1.89259 0
M  V30 21077 C 1970.53 -0.367656 3.45348 0
M  V30 21078 C 1969.49 0.469596 4.25416 0
M  V30 21079 C 1968.81 -0.427624 5.32987 0
M  V30 21080 C 1970.11 1.7218 4.93104 0
M  V30 21081 H 1971.81 1.24523 2.72276 0
M  V30 21082 H 1969.35 0.600215 1.30895 0
M  V30 21083 H 1971.31 -0.729791 4.15033 0
M  V30 21084 H 1970.03 -1.2449 3.01944 0
M  V30 21085 H 1968.69 0.814119 3.57446 0
M  V30 21086 H 1968.34 -1.30313 4.85827 0
M  V30 21087 H 1968.04 0.128909 5.87459 0
M  V30 21088 H 1969.56 -0.785855 6.05522 0
M  V30 21089 H 1970.98 1.42914 5.55201 0
M  V30 21090 H 1969.37 2.21999 5.57527 0
M  V30 21091 H 1970.44 2.45526 4.18145 0
M  V30 21092 N 1971.79 -1.4279 0.666995 0
M  V30 21093 C 1973.01 -2.05987 0.194192 0
M  V30 21094 C 1973.43 -1.50071 -1.1456 0
M  V30 21095 O 1972.79 -0.637419 -1.71006 0
M  V30 21096 C 1972.84 -3.61326 0.112034 0
M  V30 21097 O 1972.56 -4.15166 1.39888 0
M  V30 21098 C 1974.06 -4.41623 -0.385201 0
M  V30 21099 H 1971.28 -0.664055 0.096288 0
M  V30 21100 H 1973.82 -1.83061 0.91153 0
M  V30 21101 H 1971.98 -3.8339 -0.555944 0
M  V30 21102 H 1972.39 -5.08964 1.2671 0
M  V30 21103 H 1973.87 -5.50609 -0.391611 0
M  V30 21104 H 1974.34 -4.15643 -1.41906 0
M  V30 21105 H 1974.95 -4.2456 0.250766 0
M  V30 21106 N 1973.26 -0.409806 -1.52179 0
M  V30 21107 C 1974.23 0.40345 -2.25621 0
M  V30 21108 C 1975.23 0.973072 -1.28015 0
M  V30 21109 O 1976.42 0.851845 -1.51951 0
M  V30 21110 C 1973.55 1.568 -3.02699 0
M  V30 21111 H 1974.74 -0.239822 -2.9894 0
M  V30 21112 H 1972.29 -0.162341 -1.55455 0
M  V30 21113 H 1973.03 2.24811 -2.33731 0
M  V30 21114 H 1972.81 1.16603 -3.74361 0
M  V30 21115 H 1974.3 2.14326 -3.58405 0
M  V30 21116 N 1974.74 1.56975 -0.14025 0
M  V30 21117 C 1975.7 2.15234 0.78784 0
M  V30 21118 C 1976.7 1.09243 1.17994 0
M  V30 21119 O 1977.89 1.34916 1.10197 0
M  V30 21120 C 1975.03 2.70994 2.06821 0
M  V30 21121 H 1976.22 2.98579 0.281166 0
M  V30 21122 H 1973.77 1.55918 0.109151 0
M  V30 21123 H 1974.51 1.91297 2.6187 0
M  V30 21124 H 1974.29 3.48532 1.79633 0
M  V30 21125 H 1975.78 3.15904 2.7312 0
M  V30 21126 N 1976.22 -0.133539 1.57033 0
M  V30 21127 C 1977.17 -1.16445 1.99272 0
M  V30 21128 C 1978.14 -1.41954 0.862458 0
M  V30 21129 O 1979.32 -1.54063 1.12557 0
M  V30 21130 C 1976.46 -2.48958 2.38985 0
M  V30 21131 C 1975.57 -2.30509 3.65362 0
M  V30 21132 C 1974.71 -3.56151 3.94119 0
M  V30 21133 C 1973.75 -3.32796 5.13725 0
M  V30 21134 N 1972.89 -4.50603 5.38425 0
M  V30 21135 H 1977.73 -0.797257 2.87137 0
M  V30 21136 H 1975.26 -0.382194 1.42048 0
M  V30 21137 H 1977.22 -3.26242 2.60043 0
M  V30 21138 H 1975.85 -2.83599 1.54181 0
M  V30 21139 H 1974.9 -1.44214 3.52004 0
M  V30 21140 H 1976.21 -2.0922 4.52801 0
M  V30 21141 H 1975.37 -4.41858 4.15748 0
M  V30 21142 H 1974.11 -3.80458 3.05128 0
M  V30 21143 H 1973.11 -2.45478 4.91956 0
M  V30 21144 H 1974.34 -3.09875 6.0428 0
M  V30 21145 H 1972.28 -4.75058 4.5239 0
M  V30 21146 H 1972.2 -4.32365 6.20158 0
M  V30 21147 H 1973.47 -5.37486 5.64561 0
M  V30 21148 N 1977.7 -1.52352 -0.403298 0
M  V30 21149 C 1978.61 -1.79011 -1.51631 0
M  V30 21150 C 1979.62 -0.676014 -1.60331 0
M  V30 21151 O 1980.8 -0.962058 -1.76936 0
M  V30 21152 C 1977.86 -1.94046 -2.8731 0
M  V30 21153 C 1976.93 -3.17955 -2.88449 0
M  V30 21154 C 1976.16 -3.32264 -4.17656 0
M  V30 21155 O 1976.38 -2.51703 -5.11861 0
M  V30 21156 O 1975.32 -4.25446 -4.25769 0
M  V30 21157 H 1979.14 -2.73495 -1.32038 0
M  V30 21158 H 1976.73 -1.37268 -0.589733 0
M  V30 21159 H 1978.61 -2.05724 -3.67771 0
M  V30 21160 H 1977.28 -1.02752 -3.06959 0
M  V30 21161 H 1976.19 -3.11731 -2.0682 0
M  V30 21162 H 1977.52 -4.0905 -2.7375 0
M  V30 21163 N 1979.18 0.660885 -1.43074 0
M  V30 21164 C 1980.11 1.78579 -1.50438 0
M  V30 21165 C 1981.09 1.66253 -0.359703 0
M  V30 21166 O 1982.27 1.85465 -0.575893 0
M  V30 21167 C 1979.4 3.16963 -1.41956 0
M  V30 21168 C 1978.36 3.44043 -2.54594 0
M  V30 21169 C 1977.68 4.82147 -2.31166 0
M  V30 21170 C 1978.98 3.3955 -3.96867 0
M  V30 21171 H 1980.68 1.72673 -2.4459 0
M  V30 21172 H 1978.22 0.829317 -1.17721 0
M  V30 21173 H 1980.17 3.95406 -1.45713 0
M  V30 21174 H 1978.9 3.23581 -0.443048 0
M  V30 21175 H 1977.56 2.67969 -2.50177 0
M  V30 21176 H 1977.21 4.85432 -1.31776 0
M  V30 21177 H 1976.91 5.01228 -3.06667 0
M  V30 21178 H 1978.43 5.62857 -2.36695 0
M  V30 21179 H 1979.84 4.0794 -4.02813 0
M  V30 21180 H 1978.24 3.70166 -4.72332 0
M  V30 21181 H 1979.31 2.37868 -4.22548 0
M  V30 21182 N 1980.65 1.29477 0.898527 0
M  V30 21183 C 1981.88 1.20529 1.68783 0
M  V30 21184 C 1982.3 -0.230536 1.86682 0
M  V30 21185 O 1981.66 -1.1664 1.38798 0
M  V30 21186 C 1981.71 1.92501 3.04919 0
M  V30 21187 O 1980.81 1.24286 3.93226 0
M  V30 21188 H 1980.16 0.417586 0.516254 0
M  V30 21189 H 1982.69 1.71066 1.1224 0
M  V30 21190 H 1982.7 2.01001 3.55053 0
M  V30 21191 H 1981.37 2.96934 2.9121 0
M  V30 21192 H 1979.95 1.24052 3.51661 0
M  V30 21193 N 1982.13 -1.10905 1.11972 0
M  V30 21194 C 1983.06 -2.16893 0.740943 0
M  V30 21195 C 1984.08 -1.61166 -0.230099 0
M  V30 21196 O 1985.27 -1.78496 -0.0121612 0
M  V30 21197 C 1982.37 -3.38817 0.0751853 0
M  V30 21198 C 1981.54 -4.23998 1.07446 0
M  V30 21199 C 1980.6 -5.2438 0.437225 0
M  V30 21200 O 1979.62 -5.58611 1.09279 0
M  V30 21201 N 1980.83 -5.74996 -0.797475 0
M  V30 21202 H 1983.59 -2.49998 1.65291 0
M  V30 21203 H 1981.15 -1.26479 1.01068 0
M  V30 21204 H 1983.14 -4.03069 -0.362985 0
M  V30 21205 H 1981.71 -3.03728 -0.739454 0
M  V30 21206 H 1980.93 -3.56116 1.69041 0
M  V30 21207 H 1982.22 -4.77745 1.75034 0
M  V30 21208 H 1981.62 -5.49376 -1.34915 0
M  V30 21209 H 1980.18 -6.41057 -1.17854 0
M  V30 21210 N 1983.61 -0.910886 -1.2861 0
M  V30 21211 C 1984.54 -0.413998 -2.29801 0
M  V30 21212 C 1985.52 0.51689 -1.62056 0
M  V30 21213 O 1986.71 0.425236 -1.89487 0
M  V30 21214 C 1983.84 0.349336 -3.45539 0
M  V30 21215 C 1982.79 -0.49215 -4.25161 0
M  V30 21216 C 1982.12 0.399352 -5.33207 0
M  V30 21217 C 1983.42 -1.74792 -4.92184 0
M  V30 21218 H 1985.11 -1.25965 -2.71612 0
M  V30 21219 H 1982.66 -0.607149 -1.30575 0
M  V30 21220 H 1984.61 0.70777 -4.15414 0
M  V30 21221 H 1983.33 1.22887 -3.02599 0
M  V30 21222 H 1981.99 -0.833064 -3.57009 0
M  V30 21223 H 1981.64 1.27734 -4.86511 0
M  V30 21224 H 1981.34 -0.160062 -5.87382 0
M  V30 21225 H 1982.86 0.753731 -6.0593 0
M  V30 21226 H 1984.28 -1.45856 -5.54436 0
M  V30 21227 H 1982.68 -2.24952 -5.56342 0
M  V30 21228 H 1983.75 -2.4774 -4.16837 0
M  V30 21229 N 1985.09 1.42434 -0.674558 0
M  V30 21230 C 1986.31 2.06399 -0.203545 0
M  V30 21231 C 1986.74 1.50345 1.1304 0
M  V30 21232 O 1986.1 0.621837 1.70302 0
M  V30 21233 C 1986.14 3.60293 -0.148884 0
M  V30 21234 O 1985.25 4.02843 0.882667 0
M  V30 21235 H 1984.59 0.655698 -0.104672 0
M  V30 21236 H 1987.12 1.82572 -0.923502 0
M  V30 21237 H 1987.13 4.07991 0.0273375 0
M  V30 21238 H 1985.8 4.00464 -1.12256 0
M  V30 21239 H 1984.38 3.66694 0.677506 0
M  V30 21240 N 1986.57 0.417871 1.51959 0
M  V30 21241 C 1987.51 -0.403305 2.27249 0
M  V30 21242 C 1988.48 -1.0336 1.30023 0
M  V30 21243 O 1989.67 -1.05621 1.58899 0
M  V30 21244 C 1986.81 -1.50928 3.10346 0
M  V30 21245 C 1985.92 -0.899043 4.22541 0
M  V30 21246 C 1985.06 -1.97844 4.92982 0
M  V30 21247 C 1984.1 -1.3456 5.97126 0
M  V30 21248 N 1983.23 -2.36552 6.6105 0
M  V30 21249 H 1988.07 0.245143 2.9699 0
M  V30 21250 H 1985.61 0.132733 1.465 0
M  V30 21251 H 1987.57 -2.16157 3.56836 0
M  V30 21252 H 1986.2 -2.12763 2.42759 0
M  V30 21253 H 1985.25 -0.135561 3.80158 0
M  V30 21254 H 1986.56 -0.396845 4.97219 0
M  V30 21255 H 1985.72 -2.7078 5.42921 0
M  V30 21256 H 1984.45 -2.51432 4.17892 0
M  V30 21257 H 1983.46 -0.601616 5.46499 0
M  V30 21258 H 1984.68 -0.817308 6.74164 0
M  V30 21259 H 1982.63 -2.89256 5.88784 0
M  V30 21260 H 1982.55 -1.91169 7.3143 0
M  V30 21261 H 1983.82 -3.09031 7.15626 0
M  V30 21262 N 1988.04 -1.56898 0.148573 0
M  V30 21263 C 1988.97 -2.19852 -0.786585 0
M  V30 21264 C 1989.96 -1.14723 -1.2559 0
M  V30 21265 O 1991.14 -1.43071 -1.31317 0
M  V30 21266 C 1988.27 -2.82137 -2.02524 0
M  V30 21267 C 1987.22 -3.93108 -1.69264 0
M  V30 21268 C 1986.55 -4.42335 -3.00407 0
M  V30 21269 C 1987.85 -5.13807 -0.938092 0
M  V30 21270 H 1989.54 -2.98252 -0.261903 0
M  V30 21271 H 1987.09 -1.43461 -0.124531 0
M  V30 21272 H 1989.04 -3.24845 -2.68428 0
M  V30 21273 H 1987.77 -2.01071 -2.57368 0
M  V30 21274 H 1986.43 -3.5102 -1.05739 0
M  V30 21275 H 1986.07 -3.58089 -3.53244 0
M  V30 21276 H 1985.77 -5.17185 -2.78915 0
M  V30 21277 H 1987.3 -4.87714 -3.67378 0
M  V30 21278 H 1988.71 -5.53349 -1.49924 0
M  V30 21279 H 1987.11 -5.94429 -0.823062 0
M  V30 21280 H 1988.18 -4.8485 0.0698825 0
M  V30 21281 N 1989.52 0.125209 -1.57102 0
M  V30 21282 C 1990.47 1.15387 -1.99886 0
M  V30 21283 C 1991.44 1.41494 -0.869974 0
M  V30 21284 O 1992.62 1.53464 -1.13372 0
M  V30 21285 C 1989.76 2.47687 -2.40302 0
M  V30 21286 C 1988.88 2.28568 -3.6658 0
M  V30 21287 C 1988.01 3.54056 -3.96003 0
M  V30 21288 C 1987.05 3.30067 -5.15482 0
M  V30 21289 N 1986.19 4.47741 -5.40807 0
M  V30 21290 H 1991.03 0.782018 -2.87556 0
M  V30 21291 H 1988.57 0.374655 -1.42249 0
M  V30 21292 H 1990.52 3.24858 -2.61769 0
M  V30 21293 H 1989.15 2.82777 -1.55683 0
M  V30 21294 H 1988.21 1.42345 -3.52764 0
M  V30 21295 H 1989.52 2.06815 -4.53904 0
M  V30 21296 H 1988.67 4.39647 -4.18085 0
M  V30 21297 H 1987.41 3.78834 -3.07142 0
M  V30 21298 H 1986.42 2.42866 -4.93251 0
M  V30 21299 H 1987.64 3.06666 -6.05915 0
M  V30 21300 H 1985.59 4.72652 -4.54902 0
M  V30 21301 H 1985.5 4.2907 -6.22442 0
M  V30 21302 H 1986.77 5.34484 -5.67404 0
M  V30 21303 N 1991 1.52564 0.395213 0
M  V30 21304 C 1992.28 1.5788 1.1547 0
M  V30 21305 C 1992.66 0.36821 2.07864 0
M  V30 21306 O 1992.01 -0.643933 2.19239 0
M  V30 21307 C 1992.22 2.91451 1.91982 0
M  V30 21308 C 1993.56 3.44961 2.47562 0
M  V30 21309 O 1994.59 2.93284 2.02146 0
M  V30 21310 O 1993.45 4.35233 3.30506 0
M  V30 21311 H 1990.54 0.636516 0.527993 0
M  V30 21312 H 1993.09 1.64897 0.400867 0
M  V30 21313 H 1991.86 3.71006 1.2438 0
M  V30 21314 H 1991.48 2.8779 2.7434 0
M  V30 21315 N 1992.48 -0.653289 1.43422 0
M  V30 21316 C 1993.43 -1.75934 1.45021 0
M  V30 21317 C 1994.41 -1.57713 0.318677 0
M  V30 21318 O 1995.6 -1.67826 0.562454 0
M  V30 21319 C 1992.73 -3.14521 1.37591 0
M  V30 21320 C 1991.82 -3.38291 2.55773 0
M  V30 21321 N 1992.21 -3.32534 3.81123 0
M  V30 21322 C 1990.51 -3.6901 2.50495 0
M  V30 21323 C 1991.21 -3.56383 4.59746 0
M  V30 21324 N 1990.19 -3.78192 3.90476 0
M  V30 21325 H 1993.99 -1.69909 2.39809 0
M  V30 21326 H 1991.5 -0.854954 1.38074 0
M  V30 21327 H 1993.5 -3.9381 1.36819 0
M  V30 21328 H 1992.16 -3.21729 0.438229 0
M  V30 21329 H 1993.17 -3.11948 4.13412 0
M  V30 21330 H 1989.85 -3.83333 1.65415 0
M  V30 21331 H 1991.24 -3.57711 5.68764 0
M  V30 21332 N 1993.96 -1.29952 -0.891648 0
M  V30 21333 C 1994.89 -1.10092 -1.99887 0
M  V30 21334 C 1995.87 -0.0104614 -1.62597 0
M  V30 21335 O 1997.05 -0.162725 -1.87796 0
M  V30 21336 C 1994.18 -0.677652 -3.31852 0
M  V30 21337 C 1993.22 -1.768 -3.88129 0
M  V30 21338 S 1994.06 -3.36899 -4.16244 0
M  V30 21339 C 1995.21 -2.96459 -5.51237 0
M  V30 21340 H 1995.45 -2.0383 -2.16427 0
M  V30 21341 H 1992.98 -1.1419 -1.03923 0
M  V30 21342 H 1994.94 -0.440168 -4.08133 0
M  V30 21343 H 1993.6 0.240259 -3.1318 0
M  V30 21344 H 1992.79 -1.42397 -4.83466 0
M  V30 21345 H 1992.39 -1.95942 -3.18564 0
M  V30 21346 H 1994.69 -2.44005 -6.32035 0
M  V30 21347 H 1995.63 -3.90678 -5.90573 0
M  V30 21348 H 1996.04 -2.3452 -5.13479 0
M  V30 21349 N 1995.44 1.1031 -1.12559 0
M  V30 21350 C 1996.68 1.82567 -0.883005 0
M  V30 21351 C 1997.01 1.85031 0.589667 0
M  V30 21352 O 1996.29 1.3119 1.43595 0
M  V30 21353 C 1996.57 3.29171 -1.46009 0
M  V30 21354 C 1996.43 3.35032 -3.00122 0
M  V30 21355 C 1997.74 4.25591 -1.12073 0
M  V30 21356 H 1994.86 0.662829 -0.322221 0
M  V30 21357 H 1997.51 1.29276 -1.3924 0
M  V30 21358 H 1995.66 3.74684 -1.02685 0
M  V30 21359 H 1997.33 2.9799 -3.52135 0
M  V30 21360 H 1995.57 2.74892 -3.35584 0
M  V30 21361 H 1996.24 4.3827 -3.35595 0
M  V30 21362 H 1998.72 3.88318 -1.49494 0
M  V30 21363 H 1997.59 5.26528 -1.55112 0
M  V30 21364 H 1997.85 4.42088 -0.0331138 0
M  V30 21365 N 1996.91 0.917694 1.28125 0
M  V30 21366 C 1998.33 0.616431 1.47215 0
M  V30 21367 C 1998.53 -0.837161 1.83286 0
M  V30 21368 O 1997.59 -1.61591 1.94022 0
M  V30 21369 C 1998.9 1.55772 2.57207 0
M  V30 21370 C 2000.45 1.56486 2.71074 0
M  V30 21371 C 2000.92 2.49286 3.84214 0
M  V30 21372 N 2002.41 2.47436 3.91573 0
M  V30 21373 C 2003.15 3.15936 4.7851 0
M  V30 21374 N 2002.64 3.9378 5.70008 0
M  V30 21375 N 2004.44 3.05004 4.72154 0
M  V30 21376 H 1996.59 1.85758 1.02993 0
M  V30 21377 H 1998.85 0.796969 0.513366 0
M  V30 21378 H 1998.56 2.59423 2.37471 0
M  V30 21379 H 1998.43 1.2918 3.5439 0
M  V30 21380 H 2000.82 0.535708 2.90197 0
M  V30 21381 H 2000.9 1.87122 1.7441 0
M  V30 21382 H 2000.54 3.52306 3.65846 0
M  V30 21383 H 2000.47 2.1595 4.80284 0
M  V30 21384 H 2002.96 1.90893 3.26141 0
M  V30 21385 H 2003.28 4.43058 6.33182 0
M  V30 21386 H 2001.62 3.97885 5.69836 0
M  V30 21387 H 2004.81 2.4369 3.99666 0
M  V30 21388 H 2004.99 3.5866 5.39691 0
M  V30 21389 N 1998.39 -1.42074 0.682102 0
M  V30 21390 C 1999.3 -2.34598 0.00845226 0
M  V30 21391 C 2000.32 -1.55494 -0.780873 0
M  V30 21392 O 2001.49 -1.88032 -0.721524 0
M  V30 21393 C 1998.56 -3.34103 -0.926085 0
M  V30 21394 C 1997.62 -4.29102 -0.130475 0
M  V30 21395 C 1996.85 -5.23853 -1.0205 0
M  V30 21396 O 1997.08 -5.23716 -2.26004 0
M  V30 21397 O 1996.01 -6.00004 -0.47739 0
M  V30 21398 H 1999.84 -2.93756 0.770779 0
M  V30 21399 H 1997.42 -1.42701 0.442368 0
M  V30 21400 H 1999.3 -3.95212 -1.46236 0
M  V30 21401 H 1997.98 -2.77408 -1.66814 0
M  V30 21402 H 1996.88 -3.71383 0.450082 0
M  V30 21403 H 1998.22 -4.88858 0.57262 0
M  V30 21404 N 1999.87 -0.425924 -1.51735 0
M  V30 21405 C 2000.78 0.39769 -2.31205 0
M  V30 21406 C 2001.8 1.0382 -1.39633 0
M  V30 21407 O 2002.97 1.03606 -1.72707 0
M  V30 21408 C 2000.04 1.49033 -3.13033 0
M  V30 21409 C 1999.1 0.871143 -4.20368 0
M  V30 21410 C 1998.33 1.91172 -4.98286 0
M  V30 21411 O 1998.55 3.13232 -4.76699 0
M  V30 21412 O 1997.49 1.5086 -5.82688 0
M  V30 21413 H 2001.31 -0.25075 -3.02663 0
M  V30 21414 H 1998.9 -0.188723 -1.48203 0
M  V30 21415 H 2000.78 2.12428 -3.6394 0
M  V30 21416 H 1999.46 2.12307 -2.44351 0
M  V30 21417 H 1998.36 0.199453 -3.73568 0
M  V30 21418 H 1999.7 0.282077 -4.91391 0
M  V30 21419 N 2001.35 1.56817 -0.156891 0
M  V30 21420 C 2002.58 2.00807 0.498405 0
M  V30 21421 C 2002.99 1.03706 1.57768 0
M  V30 21422 O 2002.35 0.0356068 1.82465 0
M  V30 21423 C 2002.4 3.44676 1.08999 0
M  V30 21424 O 2002.12 4.38067 0.053817 0
M  V30 21425 C 2003.62 4.03994 1.82493 0
M  V30 21426 H 2000.84 0.658505 0.128888 0
M  V30 21427 H 2003.38 2.02912 -0.254383 0
M  V30 21428 H 2001.54 3.43392 1.79334 0
M  V30 21429 H 2001.95 5.2222 0.488568 0
M  V30 21430 H 2003.43 5.06627 2.19164 0
M  V30 21431 H 2003.9 3.45265 2.71456 0
M  V30 21432 H 2004.51 4.08938 1.16833 0
M  V30 21433 N 2002.83 -0.116876 1.57166 0
M  V30 21434 C 2004.24 -0.470473 1.52508 0
M  V30 21435 C 2004.44 -1.8174 0.870224 0
M  V30 21436 O 2003.5 -2.48395 0.453461 0
M  V30 21437 C 2004.81 -0.453012 2.97268 0
M  V30 21438 C 2006.36 -0.536413 3.08369 0
M  V30 21439 C 2006.83 -0.549319 4.54694 0
M  V30 21440 N 2008.32 -0.610698 4.59157 0
M  V30 21441 C 2009.06 -0.642166 5.69793 0
M  V30 21442 N 2008.56 -0.631152 6.89919 0
M  V30 21443 N 2010.35 -0.685335 5.57906 0
M  V30 21444 H 2002.5 0.765638 1.98121 0
M  V30 21445 H 2004.76 0.282662 0.904879 0
M  V30 21446 H 2004.47 0.469074 3.48558 0
M  V30 21447 H 2004.34 -1.28004 3.54817 0
M  V30 21448 H 2006.73 -1.44892 2.57081 0
M  V30 21449 H 2006.81 0.318339 2.53811 0
M  V30 21450 H 2006.45 0.35915 5.06629 0
M  V30 21451 H 2006.38 -1.42098 5.07066 0
M  V30 21452 H 2008.88 -0.625287 3.72691 0
M  V30 21453 H 2009.19 -0.657846 7.69995 0
M  V30 21454 H 2007.53 -0.598543 6.92418 0
M  V30 21455 H 2010.72 -0.691318 4.62967 0
M  V30 21456 H 2010.9 -0.706392 6.44138 0
M  V30 21457 N 2004.3 -1.52772 -0.387116 0
M  V30 21458 C 2005.25 -1.78325 -1.49341 0
M  V30 21459 C 2006.25 -0.651278 -1.5638 0
M  V30 21460 O 2007.45 -0.833795 -1.59524 0
M  V30 21461 H 2003.83 -0.56428 -0.497084 0
M  V30 21462 H 2005.8 -2.70965 -1.24983 0
M  V30 21463 C 2004.55 -1.97079 -2.86453 0
M  V30 21464 H 2003.87 -2.83612 -2.81788 0
M  V30 21465 H 2005.31 -2.18947 -3.63095 0
M  V30 21466 C 2003.77 -0.743842 -3.28586 0
M  V30 21467 O 2004.3 0.0778266 -4.01625 0
M  V30 21468 N 2002.5 -0.573415 -2.84886 0
M  V30 21469 H 2002.05 -1.24319 -2.25616 0
M  V30 21470 H 2002.01 0.24616 -3.13435 0
M  V30 21471 N 2005.78 0.645673 -1.43767 0
M  V30 21472 C 2006.71 1.76974 -1.52324 0
M  V30 21473 C 2007.69 1.65862 -0.377316 0
M  V30 21474 O 2008.88 1.84843 -0.595532 0
M  V30 21475 C 2006.01 3.1544 -1.4531 0
M  V30 21476 C 2004.96 3.41324 -2.58229 0
M  V30 21477 C 2004.29 4.79669 -2.36267 0
M  V30 21478 C 2005.59 3.35321 -4.00446 0
M  V30 21479 H 2007.28 1.70069 -2.46408 0
M  V30 21480 H 2004.83 0.816784 -1.18594 0
M  V30 21481 H 2006.78 3.93838 -1.49899 0
M  V30 21482 H 2005.5 3.23093 -0.477344 0
M  V30 21483 H 2004.16 2.653 -2.53005 0
M  V30 21484 H 2003.81 4.84007 -1.36918 0
M  V30 21485 H 2003.51 4.97947 -3.11966 0
M  V30 21486 H 2005.04 5.60315 -2.42652 0
M  V30 21487 H 2006.45 4.03644 -4.07117 0
M  V30 21488 H 2004.85 3.65135 -4.76231 0
M  V30 21489 H 2005.92 2.33373 -4.25047 0
M  V30 21490 N 2007.26 1.30423 0.884744 0
M  V30 21491 C 2008.49 1.22184 1.66969 0
M  V30 21492 C 2008.9 -0.215259 1.87569 0
M  V30 21493 O 2008.26 -1.14224 1.42335 0
M  V30 21494 C 2008.31 1.94692 3.04593 0
M  V30 21495 O 2008.03 3.32792 2.84923 0
M  V30 21496 C 2009.53 1.93114 3.99026 0
M  V30 21497 H 2006.75 0.422826 0.521018 0
M  V30 21498 H 2009.3 1.72052 1.10537 0
M  V30 21499 H 2007.45 1.48623 3.57757 0
M  V30 21500 H 2007.87 3.69517 3.72233 0
M  V30 21501 H 2009.34 2.48386 4.92959 0
M  V30 21502 H 2009.82 0.91013 4.29666 0
M  V30 21503 H 2010.42 2.38996 3.51797 0
M  V30 21504 N 2008.74 -1.09711 1.13142 0
M  V30 21505 C 2010.15 -1.63323 0.904565 0
M  V30 21506 C 2010.5 -1.88052 -0.559546 0
M  V30 21507 O 2009.62 -1.62804 -1.42562 0
M  V30 21508 C 2010.22 -2.96707 1.63556 0
M  V30 21509 C 2008.78 -3.47156 1.45465 0
M  V30 21510 C 2007.93 -2.21625 1.66667 0
M  V30 21511 H 2010.88 -0.931125 1.28514 0
M  V30 21512 H 2010.9 -3.64525 1.09094 0
M  V30 21513 H 2010.41 -2.78677 2.70113 0
M  V30 21514 H 2008.51 -3.70315 0.411972 0
M  V30 21515 H 2008.62 -4.24784 2.21576 0
M  V30 21516 H 2006.99 -2.30136 1.0913 0
M  V30 21517 H 2007.77 -2.06118 2.74537 0
M  V30 21518 N 2010.22 -0.924476 -1.27637 0
M  V30 21519 C 2011.16 -0.41967 -2.26952 0
M  V30 21520 C 2012.13 0.511683 -1.58022 0
M  V30 21521 O 2013.32 0.431544 -1.85856 0
M  V30 21522 C 2010.46 0.324433 -3.43572 0
M  V30 21523 C 2009.57 -0.640659 -4.27223 0
M  V30 21524 C 2008.71 0.122963 -5.31058 0
M  V30 21525 C 2007.75 -0.835045 -6.06377 0
M  V30 21526 N 2006.88 -0.104257 -7.02023 0
M  V30 21527 H 2011.72 -1.27159 -2.69508 0
M  V30 21528 H 2009.26 -0.63831 -1.32529 0
M  V30 21529 H 2011.22 0.772141 -4.09992 0
M  V30 21530 H 2009.85 1.14062 -3.01976 0
M  V30 21531 H 2008.9 -1.2069 -3.60747 0
M  V30 21532 H 2010.21 -1.37295 -4.79533 0
M  V30 21533 H 2009.37 0.630738 -6.03412 0
M  V30 21534 H 2008.1 0.888238 -4.79543 0
M  V30 21535 H 2007.11 -1.3541 -5.32864 0
M  V30 21536 H 2008.33 -1.60005 -6.59981 0
M  V30 21537 H 2006.28 0.642832 -6.52843 0
M  V30 21538 H 2006.2 -0.776174 -7.52005 0
M  V30 21539 H 2007.47 0.382972 -7.78559 0
M  V30 21540 N 2011.69 1.41711 -0.689627 0
M  V30 21541 C 2012.63 2.29192 0.018551 0
M  V30 21542 C 2013.64 1.44471 0.750468 0
M  V30 21543 O 2014.83 1.68037 0.602159 0
M  V30 21544 C 2011.93 3.22215 1.05027 0
M  V30 21545 C 2011.1 4.35665 0.389181 0
M  V30 21546 C 2010.16 5.09304 1.3227 0
M  V30 21547 O 2009.19 5.63301 0.817347 0
M  V30 21548 N 2010.39 5.16209 2.65533 0
M  V30 21549 H 2013.15 2.90611 -0.732482 0
M  V30 21550 H 2010.71 1.52798 -0.535191 0
M  V30 21551 H 2012.71 3.68347 1.67638 0
M  V30 21552 H 2011.28 2.62145 1.7029 0
M  V30 21553 H 2010.5 3.91991 -0.416702 0
M  V30 21554 H 2011.78 5.08751 -0.070752 0
M  V30 21555 H 2011.18 4.73777 3.09115 0
M  V30 21556 H 2009.74 5.65938 3.23354 0
M  V30 21557 N 2013.17 0.433965 1.51507 0
M  V30 21558 C 2014.41 -0.132843 2.03968 0
M  V30 21559 C 2014.78 -1.40254 1.31122 0
M  V30 21560 O 2015.98 -2.04937 1.73937 0
M  V30 21561 C 2014.25 -0.349825 3.55684 0
M  V30 21562 S 2015.81 -0.880522 4.29875 0
M  V30 21563 H 2012.63 -0.0334314 0.710214 0
M  V30 21564 H 2015.23 0.592595 1.86302 0
M  V30 21565 H 2013.93 0.580659 4.06271 0
M  V30 21566 H 2013.46 -1.10244 3.77637 0
M  V30 21567 H 2015.48 -2.15847 4.46794 0
M  V30 21568 N 2014.65 -1.56732 0.165206 0
M  V30 21569 C 2015.61 -2.1646 -0.753498 0
M  V30 21570 C 2016.61 -1.11106 -1.16241 0
M  V30 21571 O 2017.8 -1.36652 -1.08037 0
M  V30 21572 C 2014.94 -2.7425 -2.02483 0
M  V30 21573 H 2016.13 -2.98989 -0.233629 0
M  V30 21574 H 2013.68 -1.56072 -0.0843317 0
M  V30 21575 H 2014.42 -1.95439 -2.58794 0
M  V30 21576 H 2014.2 -3.51345 -1.74065 0
M  V30 21577 H 2015.69 -3.20209 -2.6806 0
M  V30 21578 N 2016.13 0.10854 -1.57226 0
M  V30 21579 C 2017.37 0.815673 -1.85673 0
M  V30 21580 C 2017.71 1.79031 -0.752441 0
M  V30 21581 O 2016.98 1.93004 0.240811 0
M  V30 21582 C 2017.27 1.55633 -3.24731 0
M  V30 21583 C 2017.12 0.600595 -4.45772 0
M  V30 21584 C 2018.44 2.51009 -3.61501 0
M  V30 21585 H 2015.56 0.295076 -0.675351 0
M  V30 21586 H 2018.2 0.079634 -1.89833 0
M  V30 21587 H 2016.35 2.18377 -3.21316 0
M  V30 21588 H 2018.02 -0.0187984 -4.61296 0
M  V30 21589 H 2016.26 -0.0870799 -4.33713 0
M  V30 21590 H 2016.93 1.15569 -5.39766 0
M  V30 21591 H 2019.41 1.98365 -3.65774 0
M  V30 21592 H 2018.29 2.99857 -4.59758 0
M  V30 21593 H 2018.55 3.34154 -2.89472 0
M  V30 21594 N 2017.61 1.52975 0.379009 0
M  V30 21595 C 2018.54 1.81436 1.46981 0
M  V30 21596 C 2019.52 0.666985 1.56478 0
M  V30 21597 O 2020.7 0.915545 1.71264 0
M  V30 21598 C 2017.83 1.99221 2.84479 0
M  V30 21599 C 2016.79 3.14946 2.89816 0
M  V30 21600 C 2016.11 3.18001 4.2986 0
M  V30 21601 C 2017.41 4.53814 2.58554 0
M  V30 21602 H 2019.11 2.72781 1.23413 0
M  V30 21603 H 2016.65 1.31257 0.592257 0
M  V30 21604 H 2018.61 2.17714 3.60803 0
M  V30 21605 H 2017.33 1.04573 3.09406 0
M  V30 21606 H 2015.99 2.96251 2.15942 0
M  V30 21607 H 2015.64 2.21017 4.51841 0
M  V30 21608 H 2015.34 3.95746 4.34349 0
M  V30 21609 H 2016.86 3.38662 5.08075 0
M  V30 21610 H 2018.27 4.72559 3.24593 0
M  V30 21611 H 2016.67 5.33701 2.74379 0
M  V30 21612 H 2017.74 4.59845 1.53853 0
M  V30 21613 N 2019.08 -0.63804 1.44107 0
M  V30 21614 C 2020.36 -1.39606 1.37002 0
M  V30 21615 C 2020.74 -2.11085 0.0252978 0
M  V30 21616 O 2020.09 -2.0585 -0.991871 0
M  V30 21617 C 2020.3 -2.3682 2.56353 0
M  V30 21618 C 2021.65 -3.00362 3.00113 0
M  V30 21619 O 2022.67 -2.47147 2.56509 0
M  V30 21620 O 2021.53 -3.96881 3.75696 0
M  V30 21621 H 2018.62 -0.624471 0.542186 0
M  V30 21622 H 2021.17 -0.663674 1.56184 0
M  V30 21623 H 2019.94 -1.83054 3.45842 0
M  V30 21624 H 2019.57 -3.17487 2.39349 0
M  V30 21625 N 2020.56 -1.3089 -0.877815 0
M  V30 21626 C 2021.49 -1.20459 -2.0003 0
M  V30 21627 C 2022.47 -0.0935765 -1.69842 0
M  V30 21628 O 2023.66 -0.276838 -1.92217 0
M  V30 21629 C 2020.79 -0.903041 -3.35354 0
M  V30 21630 C 2019.74 -1.97277 -3.79823 0
M  V30 21631 C 2019.07 -1.52407 -5.12519 0
M  V30 21632 C 2020.37 -3.38484 -3.97776 0
M  V30 21633 H 2022.06 -2.14367 -2.09014 0
M  V30 21634 H 2019.61 -1.03203 -1.00425 0
M  V30 21635 H 2021.56 -0.816699 -4.1341 0
M  V30 21636 H 2020.29 0.0717143 -3.26521 0
M  V30 21637 H 2018.94 -2.04887 -3.04001 0
M  V30 21638 H 2018.59 -0.537386 -5.00121 0
M  V30 21639 H 2018.29 -2.23964 -5.43244 0
M  V30 21640 H 2019.82 -1.45165 -5.93093 0
M  V30 21641 H 2021.23 -3.33593 -4.6625 0
M  V30 21642 H 2019.63 -4.0819 -4.39887 0
M  V30 21643 H 2020.7 -3.79847 -3.01403 0
M  V30 21644 N 2022.04 1.0911 -1.13723 0
M  V30 21645 C 2023 2.14011 -0.820475 0
M  V30 21646 C 2024 1.59882 0.171573 0
M  V30 21647 O 2025.19 1.7411 -0.0559029 0
M  V30 21648 C 2022.33 3.40178 -0.221758 0
M  V30 21649 H 2023.52 2.43541 -1.75007 0
M  V30 21650 H 2021.07 1.24702 -0.94229 0
M  V30 21651 H 2021.81 3.16277 0.716904 0
M  V30 21652 H 2021.59 3.80759 -0.936208 0
M  V30 21653 H 2023.08 4.17596 -0.0171079 0
M  V30 21654 N 2023.52 0.931232 1.27145 0
M  V30 21655 C 2024.45 0.450505 2.29113 0
M  V30 21656 C 2025.43 -0.491043 1.62858 0
M  V30 21657 O 2026.61 -0.395036 1.9014 0
M  V30 21658 C 2023.74 -0.29432 3.46051 0
M  V30 21659 C 2022.7 0.559727 4.24324 0
M  V30 21660 C 2022.02 -0.314473 5.33774 0
M  V30 21661 C 2023.32 1.826 4.89341 0
M  V30 21662 H 2025.02 1.3027 2.69574 0
M  V30 21663 H 2022.56 0.627845 1.29592 0
M  V30 21664 H 2024.52 -0.641592 4.16487 0
M  V30 21665 H 2023.24 -1.18057 3.04516 0
M  V30 21666 H 2021.9 0.889756 3.55639 0
M  V30 21667 H 2021.55 -1.19978 4.88482 0
M  V30 21668 H 2021.25 0.253489 5.87053 0
M  V30 21669 H 2022.77 -0.657238 6.07053 0
M  V30 21670 H 2024.19 1.54659 5.52045 0
M  V30 21671 H 2022.58 2.33775 5.52693 0
M  V30 21672 H 2023.65 2.5434 4.12842 0
M  V30 21673 N 2025 -1.41343 0.697132 0
M  V30 21674 C 2026.27 -1.94971 0.156721 0
M  V30 21675 C 2026.65 -1.63641 -1.33359 0
M  V30 21676 O 2026 -0.944246 -2.08077 0
M  V30 21677 C 2026.21 -3.46091 0.449687 0
M  V30 21678 C 2027.56 -4.22912 0.378281 0
M  V30 21679 O 2028.58 -3.54117 0.38469 0
M  V30 21680 O 2027.44 -5.45443 0.339755 0
M  V30 21681 H 2024.54 -0.826847 0.0158852 0
M  V30 21682 H 2027.08 -1.51052 0.7734 0
M  V30 21683 H 2025.86 -3.62183 1.48119 0
M  V30 21684 H 2025.48 -3.97107 -0.197886 0
M  V30 21685 N 2026.48 -0.441993 -1.51275 0
M  V30 21686 C 2027.7 0.121451 -2.06543 0
M  V30 21687 C 2028.12 1.36058 -1.30896 0
M  V30 21688 O 2027.48 1.78713 -0.369834 0
M  V30 21689 C 2027.53 0.438983 -3.58825 0
M  V30 21690 O 2027.25 -0.750969 -4.31616 0
M  V30 21691 C 2028.75 1.05259 -4.30622 0
M  V30 21692 H 2025.97 0.00586064 -0.670974 0
M  V30 21693 H 2028.51 -0.622415 -1.94798 0
M  V30 21694 H 2026.67 1.13275 -3.70469 0
M  V30 21695 H 2027.08 -0.478024 -5.22317 0
M  V30 21696 H 2028.56 1.22474 -5.38242 0
M  V30 21697 H 2029.03 2.03489 -3.89216 0
M  V30 21698 H 2029.64 0.398068 -4.23433 0
M  V30 21699 N 2027.95 1.56642 -0.173515 0
M  V30 21700 C 2029.2 1.96124 0.470974 0
M  V30 21701 C 2029.52 1.06229 1.6424 0
M  V30 21702 O 2030.72 1.35402 2.35327 0
M  V30 21703 C 2029.18 3.4874 0.889284 0
M  V30 21704 C 2028.79 4.47264 -0.256662 0
M  V30 21705 C 2030.53 3.97037 1.50207 0
M  V30 21706 C 2028.44 5.91122 0.181401 0
M  V30 21707 H 2027.37 0.732267 0.179724 0
M  V30 21708 H 2030.02 1.81619 -0.262096 0
M  V30 21709 H 2028.4 3.58672 1.6784 0
M  V30 21710 H 2029.57 4.49049 -1.03401 0
M  V30 21711 H 2027.89 4.09038 -0.779546 0
M  V30 21712 H 2030.49 5.01974 1.8419 0
M  V30 21713 H 2030.83 3.401 2.40078 0
M  V30 21714 H 2031.36 3.90131 0.777351 0
M  V30 21715 H 2028.1 6.51936 -0.682591 0
M  V30 21716 H 2027.62 5.92639 0.924063 0
M  V30 21717 H 2029.3 6.43979 0.624532 0
M  V30 21718 N 2029.43 -0.1002 1.57281 0
M  V30 21719 C 2030.38 -1.12192 2.01697 0
M  V30 21720 C 2031.35 -1.40092 0.892374 0
M  V30 21721 O 2032.53 -1.51641 1.158 0
M  V30 21722 C 2029.67 -2.43833 2.44212 0
M  V30 21723 C 2028.79 -2.22707 3.70169 0
M  V30 21724 C 2027.92 -3.47711 4.01585 0
M  V30 21725 C 2026.96 -3.21825 5.20668 0
M  V30 21726 N 2026.1 -4.39081 5.47862 0
M  V30 21727 H 2030.94 -0.736171 2.88764 0
M  V30 21728 H 2028.47 -0.351977 1.42827 0
M  V30 21729 H 2030.43 -3.20652 2.66904 0
M  V30 21730 H 2029.06 -2.80264 1.60162 0
M  V30 21731 H 2028.11 -1.36715 3.54983 0
M  V30 21732 H 2029.43 -1.99568 4.57137 0
M  V30 21733 H 2028.58 -4.3294 4.25027 0
M  V30 21734 H 2027.32 -3.739 3.1313 0
M  V30 21735 H 2026.32 -2.34988 4.97052 0
M  V30 21736 H 2027.55 -2.96987 6.10717 0
M  V30 21737 H 2025.5 -4.65355 4.62364 0
M  V30 21738 H 2025.41 -4.19114 6.2919 0
M  V30 21739 H 2026.68 -5.2539 5.75835 0
M  V30 21740 N 2030.91 -1.53174 -0.370891 0
M  V30 21741 C 2031.84 -1.75513 -1.47403 0
M  V30 21742 C 2032.85 -0.635818 -1.49871 0
M  V30 21743 O 2034.04 -0.911956 -1.53446 0
M  V30 21744 C 2031.14 -1.81519 -2.86189 0
M  V30 21745 C 2030.32 -3.11087 -3.07479 0
M  V30 21746 C 2029.38 -3.08403 -4.26349 0
M  V30 21747 O 2028.4 -3.82218 -4.2178 0
M  V30 21748 N 2029.6 -2.28851 -5.33486 0
M  V30 21749 H 2032.37 -2.70697 -1.2862 0
M  V30 21750 H 2029.93 -1.51886 -0.56057 0
M  V30 21751 H 2031.92 -1.77207 -3.6384 0
M  V30 21752 H 2030.49 -0.936423 -2.98245 0
M  V30 21753 H 2029.71 -3.28744 -2.17534 0
M  V30 21754 H 2031 -3.96726 -3.18569 0
M  V30 21755 H 2030.4 -1.68381 -5.4006 0
M  V30 21756 H 2028.95 -2.30363 -6.09734 0
M  V30 21757 N 2032.39 0.630389 -1.44443 0
M  V30 21758 C 2033.62 1.41507 -1.5053 0
M  V30 21759 C 2034.03 1.88759 -0.129099 0
M  V30 21760 O 2033.37 1.61501 0.8754 0
M  V30 21761 C 2033.43 2.6686 -2.40886 0
M  V30 21762 C 2033.09 2.41399 -3.88041 0
M  V30 21763 C 2034.09 2.03181 -4.78554 0
M  V30 21764 C 2031.78 2.55016 -4.3275 0
M  V30 21765 C 2033.77 1.78909 -6.11776 0
M  V30 21766 C 2031.46 2.30359 -5.6602 0
M  V30 21767 C 2032.46 1.92364 -6.55351 0
M  V30 21768 O 2032.14 1.67981 -7.86154 0
M  V30 21769 H 2031.88 0.440388 -0.512869 0
M  V30 21770 H 2034.43 0.778074 -1.90093 0
M  V30 21771 H 2032.66 3.33199 -1.96252 0
M  V30 21772 H 2034.35 3.28864 -2.37915 0
M  V30 21773 H 2035.11 1.92217 -4.45284 0
M  V30 21774 H 2030.99 2.8356 -3.63476 0
M  V30 21775 H 2034.54 1.49178 -6.81463 0
M  V30 21776 H 2030.43 2.40932 -5.9885 0
M  V30 21777 H 2031.2 1.82221 -7.97959 0
M  V30 21778 N 2033.87 1.31354 0.870861 0
M  V30 21779 C 2035.11 1.20988 1.62383 0
M  V30 21780 C 2035.44 -0.232177 1.93109 0
M  V30 21781 O 2034.7 -1.1807 1.56071 0
M  V30 21782 C 2034.99 1.99835 2.96312 0
M  V30 21783 C 2034.66 3.49342 2.85081 0
M  V30 21784 C 2033.32 3.90108 2.81725 0
M  V30 21785 C 2035.67 4.44485 2.72181 0
M  V30 21786 C 2033 5.24286 2.63327 0
M  V30 21787 C 2035.35 5.78787 2.5532 0
M  V30 21788 C 2034.02 6.18775 2.50347 0
M  V30 21789 H 2033.29 0.442726 0.594201 0
M  V30 21790 H 2035.94 1.62609 1.01146 0
M  V30 21791 H 2034.24 1.50892 3.61578 0
M  V30 21792 H 2035.94 1.89196 3.53562 0
M  V30 21793 H 2032.53 3.16954 2.8851 0
M  V30 21794 H 2036.71 4.13921 2.7383 0
M  V30 21795 H 2031.97 5.54344 2.57901 0
M  V30 21796 H 2036.14 6.52137 2.44315 0
M  V30 21797 H 2033.77 7.22689 2.3585 0
M  V30 21798 N 2035.34 -1.08505 1.143 0
M  V30 21799 C 2036.29 -2.13593 0.797635 0
M  V30 21800 C 2037.28 -1.59488 -0.212729 0
M  V30 21801 O 2038.47 -1.76993 -0.0152218 0
M  V30 21802 C 2035.6 -3.42191 0.275716 0
M  V30 21803 C 2034.68 -4.0318 1.31554 0
M  V30 21804 N 2035.08 -4.38591 2.51936 0
M  V30 21805 C 2033.37 -4.30501 1.16553 0
M  V30 21806 C 2034.07 -4.86762 3.18494 0
M  V30 21807 N 2033.05 -4.84804 2.45898 0
M  V30 21808 H 2036.85 -2.38788 1.7134 0
M  V30 21809 H 2034.37 -1.25827 1.02671 0
M  V30 21810 H 2036.36 -4.16899 0.0100056 0
M  V30 21811 H 2035.02 -3.18445 -0.634256 0
M  V30 21812 H 2036.03 -4.29651 2.89171 0
M  V30 21813 H 2032.71 -4.16314 0.314497 0
M  V30 21814 H 2034.1 -5.23548 4.21126 0
M  V30 21815 N 2036.82 -0.937962 -1.26649 0
M  V30 21816 C 2037.78 -0.449635 -2.24746 0
M  V30 21817 C 2038.78 0.437489 -1.54734 0
M  V30 21818 O 2039.97 0.237121 -1.72579 0
M  V30 21819 C 2037.11 0.35235 -3.39074 0
M  V30 21820 H 2038.3 -1.31648 -2.6946 0
M  V30 21821 H 2035.85 -0.71962 -1.38749 0
M  V30 21822 H 2036.59 1.23758 -2.99757 0
M  V30 21823 H 2036.37 -0.283853 -3.91071 0
M  V30 21824 H 2037.86 0.684038 -4.1196 0
M  V30 21825 N 2038.3 1.40971 -0.704618 0
M  V30 21826 C 2039.55 2.00682 -0.238954 0
M  V30 21827 C 2039.87 1.56119 1.16842 0
M  V30 21828 O 2039.14 0.795777 1.79009 0
M  V30 21829 H 2037.72 0.742108 -0.0853541 0
M  V30 21830 H 2040.38 1.72467 -0.9078 0
M  V30 21831 H 2039.48 3.10986 -0.26345 0
M  V30 21832 N 2039.78 0.45001 1.51039 0
M  V30 21833 C 2041.03 -0.111969 2.0179 0
M  V30 21834 C 2041.35 -1.42098 1.33541 0
M  V30 21835 O 2040.62 -1.9008 0.473962 0
M  V30 21836 H 2039.2 -0.0443688 0.745681 0
M  V30 21837 H 2041.86 0.595615 1.85576 0
M  V30 21838 H 2040.96 -0.278742 3.10853 0
M  V30 21839 N 2041.26 -1.56548 0.18182 0
M  V30 21840 C 2042.2 -2.19794 -0.761146 0
M  V30 21841 C 2043.2 -1.16509 -1.22971 0
M  V30 21842 O 2044.4 -1.34685 -1.19415 0
M  V30 21843 H 2040.78 -0.704224 -0.263766 0
M  V30 21844 H 2042.75 -2.97703 -0.203871 0
M  V30 21845 C 2041.5 -2.86108 -1.9758 0
M  V30 21846 H 2040.82 -3.65317 -1.62429 0
M  V30 21847 H 2042.26 -3.33816 -2.61424 0
M  V30 21848 C 2040.72 -1.86435 -2.80613 0
M  V30 21849 O 2041.25 -1.35635 -3.78109 0
M  V30 21850 N 2039.46 -1.54958 -2.45838 0
M  V30 21851 H 2039 -1.96462 -1.66614 0
M  V30 21852 H 2038.96 -0.885231 -3.0168 0
M  V30 21853 N 2042.73 0.0918577 -1.57332 0
M  V30 21854 C 2043.98 0.793187 -1.85884 0
M  V30 21855 C 2044.3 1.79111 -0.770985 0
M  V30 21856 O 2043.57 1.94851 0.202438 0
M  V30 21857 H 2042.15 0.295923 -0.685885 0
M  V30 21858 H 2044.82 0.0727166 -1.94764 0
M  V30 21859 H 2043.91 1.32178 -2.82728 0
M  V30 21860 N 2044.21 1.53368 0.362763 0
M  V30 21861 C 2045.14 1.82984 1.45048 0
M  V30 21862 C 2046.12 0.683544 1.55762 0
M  V30 21863 O 2047.31 0.933658 1.70283 0
M  V30 21864 C 2044.44 2.02227 2.8235 0
M  V30 21865 C 2043.39 3.18002 2.86459 0
M  V30 21866 C 2042.72 3.22543 4.26463 0
M  V30 21867 C 2044.02 4.56531 2.53726 0
M  V30 21868 H 2045.71 2.74075 1.20513 0
M  V30 21869 H 2043.26 1.31877 0.578302 0
M  V30 21870 H 2045.21 2.21529 3.58473 0
M  V30 21871 H 2043.94 1.07849 3.08279 0
M  V30 21872 H 2042.59 2.98525 2.12787 0
M  V30 21873 H 2042.24 2.25797 4.49472 0
M  V30 21874 H 2041.94 4.00331 4.30127 0
M  V30 21875 H 2043.47 3.44032 5.04455 0
M  V30 21876 H 2044.88 4.75975 3.19563 0
M  V30 21877 H 2043.28 5.36581 2.68703 0
M  V30 21878 H 2044.35 4.61451 1.48967 0
M  V30 21879 N 2045.69 -0.62272 1.44776 0
M  V30 21880 C 2046.64 -1.73427 1.52288 0
M  V30 21881 C 2047.61 -1.61928 0.369917 0
M  V30 21882 O 2048.79 -1.81729 0.581308 0
M  V30 21883 C 2045.93 -3.117 1.48112 0
M  V30 21884 C 2045.05 -3.34114 2.73847 0
M  V30 21885 C 2044.18 -4.62407 2.61445 0
M  V30 21886 C 2043.22 -4.78027 3.82304 0
M  V30 21887 N 2042.36 -5.97605 3.68528 0
M  V30 21888 H 2047.2 -1.66341 2.47254 0
M  V30 21889 H 2044.73 -0.811311 1.22704 0
M  V30 21890 H 2046.69 -3.91678 1.4368 0
M  V30 21891 H 2045.32 -3.1778 0.567076 0
M  V30 21892 H 2044.37 -2.48017 2.8843 0
M  V30 21893 H 2045.69 -3.41533 3.63533 0
M  V30 21894 H 2044.84 -5.50558 2.54894 0
M  V30 21895 H 2043.58 -4.5736 1.69333 0
M  V30 21896 H 2042.58 -3.88303 3.89231 0
M  V30 21897 H 2043.81 -4.84883 4.75464 0
M  V30 21898 H 2041.75 -5.93631 2.79173 0
M  V30 21899 H 2041.67 -6.06118 4.51838 0
M  V30 21900 H 2042.94 -6.88295 3.65883 0
M  V30 21901 N 2047.17 -1.31814 -0.863883 0
M  V30 21902 C 2048.12 -1.19976 -1.97166 0
M  V30 21903 C 2049.09 -0.0840886 -1.65887 0
M  V30 21904 O 2050.27 -0.258021 -1.89047 0
M  V30 21905 C 2047.41 -0.919316 -3.3263 0
M  V30 21906 C 2046.52 -2.1189 -3.76466 0
M  V30 21907 C 2045.66 -1.77472 -5.00677 0
M  V30 21908 C 2044.7 -2.93804 -5.36978 0
M  V30 21909 N 2043.83 -2.59541 -6.52367 0
M  V30 21910 H 2048.67 -2.14735 -2.06623 0
M  V30 21911 H 2046.21 -1.06811 -1.01143 0
M  V30 21912 H 2048.17 -0.737251 -4.10634 0
M  V30 21913 H 2046.8 -0.0085443 -3.22799 0
M  V30 21914 H 2045.85 -2.41154 -2.94192 0
M  V30 21915 H 2047.16 -2.98939 -3.99295 0
M  V30 21916 H 2046.32 -1.55764 -5.86364 0
M  V30 21917 H 2045.06 -0.876231 -4.79764 0
M  V30 21918 H 2044.06 -3.16154 -4.49807 0
M  V30 21919 H 2045.29 -3.84371 -5.59853 0
M  V30 21920 H 2043.23 -1.72222 -6.32989 0
M  V30 21921 H 2043.15 -3.4012 -6.7517 0
M  V30 21922 H 2044.42 -2.4124 -7.41231 0
M  V30 21923 N 2048.65 1.07897 -1.14873 0
M  V30 21924 C 2049.87 1.84117 -0.943847 0
M  V30 21925 C 2050.29 1.81844 0.507767 0
M  V30 21926 O 2049.65 1.22585 1.352 0
M  V30 21927 C 2049.7 3.31438 -1.4433 0
M  V30 21928 O 2049.42 3.33746 -2.83805 0
M  V30 21929 C 2050.92 4.24445 -1.2791 0
M  V30 21930 H 2048.14 0.581068 -0.335561 0
M  V30 21931 H 2050.68 1.36237 -1.52512 0
M  V30 21932 H 2048.84 3.76689 -0.904683 0
M  V30 21933 H 2049.25 4.25748 -3.06332 0
M  V30 21934 H 2050.73 5.25906 -1.67711 0
M  V30 21935 H 2051.2 4.38636 -0.222593 0
M  V30 21936 H 2051.81 3.85025 -1.80653 0
M  V30 21937 N 2050.12 0.944665 1.2615 0
M  V30 21938 C 2051.37 0.594093 1.93589 0
M  V30 21939 C 2051.7 -0.867382 1.74088 0
M  V30 21940 O 2050.95 -1.63636 1.07339 0
M  V30 21941 C 2051.25 0.886852 3.46222 0
M  V30 21942 C 2050.92 2.33276 3.85867 0
M  V30 21943 C 2049.58 2.72801 3.964 0
M  V30 21944 C 2051.93 3.27224 4.05677 0
M  V30 21945 C 2049.26 4.05362 4.24144 0
M  V30 21946 C 2051.61 4.59386 4.34911 0
M  V30 21947 C 2050.28 4.98721 4.4366 0
M  V30 21948 H 2049.55 0.217394 0.708393 0
M  V30 21949 H 2052.19 1.19183 1.49892 0
M  V30 21950 H 2050.5 0.206616 3.91255 0
M  V30 21951 H 2052.2 0.594328 3.96571 0
M  V30 21952 H 2048.79 2.01619 3.78216 0
M  V30 21953 H 2052.97 2.97883 3.96963 0
M  V30 21954 H 2048.23 4.35496 4.29131 0
M  V30 21955 H 2052.4 5.32171 4.49185 0
M  V30 21956 H 2050.03 6.01466 4.64911 0
M  V30 21957 N 2051.6 -1.40596 0.712085 0
M  V30 21958 C 2052.53 -2.33389 0.0719438 0
M  V30 21959 C 2053.51 -1.52706 -0.749334 0
M  V30 21960 O 2054.7 -1.81185 -0.698968 0
M  V30 21961 C 2051.83 -3.36659 -0.853122 0
M  V30 21962 C 2050.78 -4.27778 -0.137724 0
M  V30 21963 C 2050.11 -5.21556 -1.17827 0
M  V30 21964 C 2051.41 -5.12521 1.00597 0
M  V30 21965 H 2053.1 -2.87169 0.847002 0
M  V30 21966 H 2050.65 -1.38077 0.408756 0
M  V30 21967 H 2052.6 -4.00511 -1.31031 0
M  V30 21968 H 2051.33 -2.81266 -1.66004 0
M  V30 21969 H 2049.98 -3.65374 0.299603 0
M  V30 21970 H 2049.63 -4.6247 -1.97814 0
M  V30 21971 H 2049.33 -5.83361 -0.704503 0
M  V30 21972 H 2050.86 -5.88285 -1.63563 0
M  V30 21973 H 2052.27 -5.69847 0.62831 0
M  V30 21974 H 2050.67 -5.83351 1.40789 0
M  V30 21975 H 2051.74 -4.48706 1.83822 0
M  V30 21976 N 2053.08 -0.458013 -1.50798 0
M  V30 21977 C 2053.99 0.348558 -2.31996 0
M  V30 21978 C 2055.01 1.00835 -1.41804 0
M  V30 21979 O 2056.18 0.999192 -1.74866 0
M  V30 21980 C 2053.25 1.4236 -3.16124 0
M  V30 21981 C 2052.31 0.781781 -4.22122 0
M  V30 21982 C 2051.54 1.8056 -5.02229 0
M  V30 21983 O 2051.76 3.0305 -4.83236 0
M  V30 21984 O 2050.7 1.38466 -5.85757 0
M  V30 21985 H 2054.52 -0.314893 -3.02063 0
M  V30 21986 H 2052.11 -0.220117 -1.4777 0
M  V30 21987 H 2053.99 2.04661 -3.68364 0
M  V30 21988 H 2052.67 2.07076 -2.488 0
M  V30 21989 H 2051.57 0.120169 -3.73907 0
M  V30 21990 H 2052.91 0.177782 -4.91879 0
M  V30 21991 N 2054.56 1.56449 -0.190119 0
M  V30 21992 C 2055.51 2.1886 0.732745 0
M  V30 21993 C 2056.48 1.1343 1.21338 0
M  V30 21994 O 2057.66 1.4166 1.27817 0
M  V30 21995 C 2054.8 2.84809 1.94878 0
M  V30 21996 C 2053.91 4.04751 1.50998 0
M  V30 21997 C 2053.05 4.58572 2.68114 0
M  V30 21998 C 2052.09 5.70883 2.20815 0
M  V30 21999 N 2051.23 6.19132 3.3109 0
M  V30 22000 H 2056.07 2.97369 0.193776 0
M  V30 22001 H 2053.6 1.46861 0.0839065 0
M  V30 22002 H 2055.56 3.21213 2.66229 0
M  V30 22003 H 2054.19 2.08872 2.46115 0
M  V30 22004 H 2053.24 3.74043 0.69252 0
M  V30 22005 H 2054.55 4.85996 1.12292 0
M  V30 22006 H 2053.71 4.97256 3.47594 0
M  V30 22007 H 2052.45 3.76425 3.1009 0
M  V30 22008 H 2051.45 5.31733 1.39786 0
M  V30 22009 H 2052.68 6.54845 1.79875 0
M  V30 22010 H 2050.62 5.39908 3.72607 0
M  V30 22011 H 2050.54 6.95415 2.96538 0
M  V30 22012 H 2051.81 6.62468 4.108 0
M  V30 22013 N 2056.04 -0.0835127 1.57379 0
M  V30 22014 C 2057.26 -0.801948 1.91268 0
M  V30 22015 C 2057.69 -1.70915 0.785469 0
M  V30 22016 O 2057.05 -1.79392 -0.262357 0
M  V30 22017 C 2057.09 -1.58151 3.24069 0
M  V30 22018 O 2056.2 -2.69134 3.12475 0
M  V30 22019 H 2055.54 -0.219566 0.626647 0
M  V30 22020 H 2058.07 -0.0552662 2.04525 0
M  V30 22021 H 2058.08 -1.96327 3.57659 0
M  V30 22022 H 2056.75 -0.915794 4.05692 0
M  V30 22023 H 2055.33 -2.33901 2.90422 0
M  V30 22024 N 2057.52 -1.53558 -0.354624 0
M  V30 22025 C 2058.93 -1.6184 -0.930847 0
M  V30 22026 C 2059.28 -0.492698 -1.89913 0
M  V30 22027 O 2058.4 0.379247 -2.13051 0
M  V30 22028 C 2059 -2.93348 -1.69506 0
M  V30 22029 C 2057.56 -3.03929 -2.22046 0
M  V30 22030 C 2056.7 -2.57213 -1.03618 0
M  V30 22031 H 2059.65 -1.58141 -0.133086 0
M  V30 22032 H 2059.68 -2.81766 -2.55711 0
M  V30 22033 H 2059.19 -3.75259 -0.990072 0
M  V30 22034 H 2057.29 -2.26629 -2.95753 0
M  V30 22035 H 2057.4 -4.09204 -2.49176 0
M  V30 22036 H 2055.77 -2.12352 -1.40636 0
M  V30 22037 H 2056.55 -3.41552 -0.346003 0
M  V30 22038 N 2058.99 0.615033 -1.45104 0
M  V30 22039 C 2060.27 1.37409 -1.39206 0
M  V30 22040 C 2060.65 2.11018 -0.0588763 0
M  V30 22041 O 2060 2.07402 0.958997 0
M  V30 22042 C 2060.21 2.32712 -2.60089 0
M  V30 22043 C 2061.56 2.95549 -3.04854 0
M  V30 22044 O 2062.58 2.43035 -2.60408 0
M  V30 22045 O 2061.44 3.90854 -3.81963 0
M  V30 22046 H 2058.53 0.615766 -0.552052 0
M  V30 22047 H 2061.08 0.638743 -1.5722 0
M  V30 22048 H 2059.85 1.77529 -3.48711 0
M  V30 22049 H 2059.47 3.13639 -2.4437 0
M  V30 22050 N 2060.47 1.3227 0.85688 0
M  V30 22051 C 2061.4 1.23626 1.98088 0
M  V30 22052 C 2062.38 0.120585 1.69672 0
M  V30 22053 O 2063.57 0.307383 1.91752 0
M  V30 22054 C 2060.7 0.956279 3.33875 0
M  V30 22055 C 2059.65 2.03295 3.76637 0
M  V30 22056 C 2058.98 1.60541 5.1003 0
M  V30 22057 C 2060.28 3.4477 3.92341 0
M  V30 22058 H 2061.97 2.17665 2.05578 0
M  V30 22059 H 2059.52 1.04788 0.987703 0
M  V30 22060 H 2061.47 0.882366 4.12059 0
M  V30 22061 H 2060.19 -0.0197585 3.26594 0
M  V30 22062 H 2058.85 2.09698 3.00703 0
M  V30 22063 H 2058.5 0.616883 4.99203 0
M  V30 22064 H 2058.2 2.32578 5.39612 0
M  V30 22065 H 2059.73 1.54582 5.90709 0
M  V30 22066 H 2061.14 3.40968 4.60884 0
M  V30 22067 H 2059.54 4.15137 4.33338 0
M  V30 22068 H 2060.61 3.84594 2.95322 0
M  V30 22069 N 2061.95 -1.07287 1.15444 0
M  V30 22070 C 2062.88 -2.14426 0.809571 0
M  V30 22071 C 2063.89 -1.61816 -0.178709 0
M  V30 22072 O 2065.08 -1.78444 0.044632 0
M  V30 22073 C 2062.18 -3.38406 0.182939 0
M  V30 22074 C 2061.36 -4.20365 1.20881 0
M  V30 22075 C 2060.42 -5.22724 0.603831 0
M  V30 22076 O 2059.44 -5.54852 1.26996 0
M  V30 22077 N 2060.64 -5.77242 -0.614141 0
M  V30 22078 H 2063.41 -2.44613 1.73161 0
M  V30 22079 H 2060.97 -1.23199 1.05041 0
M  V30 22080 H 2062.96 -4.0402 -0.234568 0
M  V30 22081 H 2061.53 -3.05927 -0.642451 0
M  V30 22082 H 2060.75 -3.50558 1.80285 0
M  V30 22083 H 2062.04 -4.71935 1.90144 0
M  V30 22084 H 2061.44 -5.53391 -1.17369 0
M  V30 22085 H 2059.99 -6.44482 -0.973996 0
M  V30 22086 N 2063.43 -0.951342 -1.25647 0
M  V30 22087 C 2064.65 -0.620954 -1.97886 0
M  V30 22088 C 2065.08 0.799383 -1.70269 0
M  V30 22089 O 2064.44 1.54005 -0.956672 0
M  V30 22090 C 2064.48 -0.881873 -3.4965 0
M  V30 22091 O 2063.59 0.0409801 -4.1238 0
M  V30 22092 H 2062.93 -0.236433 -0.62048 0
M  V30 22093 H 2065.46 -1.27704 -1.59852 0
M  V30 22094 H 2065.47 -0.806823 -3.99943 0
M  V30 22095 H 2064.14 -1.91708 -3.69081 0
M  V30 22096 H 2062.72 -0.0859938 -3.72801 0
M  V30 22097 N 2064.91 1.40216 -0.719531 0
M  V30 22098 C 2065.84 2.33348 -0.08432 0
M  V30 22099 C 2066.82 1.53101 0.741225 0
M  V30 22100 O 2068 1.81553 0.68935 0
M  V30 22101 C 2065.13 3.37106 0.835256 0
M  V30 22102 C 2064.09 4.27845 0.115036 0
M  V30 22103 C 2063.41 5.22174 1.15059 0
M  V30 22104 C 2064.71 5.1198 -1.03314 0
M  V30 22105 H 2066.41 2.86716 -0.862219 0
M  V30 22106 H 2063.95 1.37858 -0.416073 0
M  V30 22107 H 2065.9 4.012 1.28905 0
M  V30 22108 H 2064.63 2.82142 1.6451 0
M  V30 22109 H 2063.29 3.6521 -0.318975 0
M  V30 22110 H 2062.94 4.63513 1.95359 0
M  V30 22111 H 2062.64 5.83727 0.673556 0
M  V30 22112 H 2064.16 5.89144 1.60441 0
M  V30 22113 H 2065.57 5.69505 -0.658522 0
M  V30 22114 H 2063.97 5.82596 -1.4388 0
M  V30 22115 H 2065.04 4.47725 -1.86199 0
M  V30 22116 N 2066.38 0.466004 1.50553 0
M  V30 22117 C 2067.8 0.119867 1.59149 0
M  V30 22118 C 2068 -1.37324 1.47459 0
M  V30 22119 O 2067.06 -2.14604 1.33047 0
M  V30 22120 C 2068.37 0.665532 2.93243 0
M  V30 22121 C 2069.92 0.628507 3.06625 0
M  V30 22122 C 2070.39 1.15163 4.43285 0
M  V30 22123 N 2071.88 1.11082 4.49683 0
M  V30 22124 C 2072.62 1.48615 5.53806 0
M  V30 22125 N 2072.11 1.93573 6.65208 0
M  V30 22126 N 2073.91 1.4025 5.44322 0
M  V30 22127 H 2066.06 1.43716 1.56395 0
M  V30 22128 H 2068.32 0.594011 0.73882 0
M  V30 22129 H 2068.03 1.71132 3.07257 0
M  V30 22130 H 2067.9 0.106264 3.7705 0
M  V30 22131 H 2070.29 -0.408356 2.92261 0
M  V30 22132 H 2070.37 1.22452 2.24587 0
M  V30 22133 H 2070.01 2.1871 4.58398 0
M  V30 22134 H 2069.94 0.531882 5.23907 0
M  V30 22135 H 2072.43 0.781025 3.69741 0
M  V30 22136 H 2072.75 2.20373 7.40713 0
M  V30 22137 H 2071.09 1.97521 6.66341 0
M  V30 22138 H 2074.28 1.04972 4.56178 0
M  V30 22139 H 2074.46 1.69827 6.2535 0
M  V30 22140 N 2067.86 -1.56346 0.198413 0
M  V30 22141 C 2069.09 -2.01765 -0.444344 0
M  V30 22142 C 2069.5 -1.0777 -1.55507 0
M  V30 22143 O 2068.84 -0.0753476 -1.83545 0
M  V30 22144 C 2068.9 -3.43574 -1.05816 0
M  V30 22145 C 2068.57 -4.5692 -0.0857655 0
M  V30 22146 C 2069.57 -5.15083 0.706081 0
M  V30 22147 C 2067.25 -5.02293 0.0262794 0
M  V30 22148 C 2069.24 -6.17072 1.5969 0
M  V30 22149 C 2066.93 -6.04125 0.920659 0
M  V30 22150 C 2067.93 -6.61388 1.70453 0
M  V30 22151 O 2067.62 -7.61242 2.58392 0
M  V30 22152 H 2067.35 -0.666052 -0.115545 0
M  V30 22153 H 2069.9 -2.03117 0.305386 0
M  V30 22154 H 2068.13 -3.39219 -1.85654 0
M  V30 22155 H 2069.82 -3.7278 -1.60592 0
M  V30 22156 H 2070.59 -4.80893 0.629841 0
M  V30 22157 H 2066.47 -4.57416 -0.57369 0
M  V30 22158 H 2070.01 -6.61695 2.20919 0
M  V30 22159 H 2065.91 -6.37738 0.998002 0
M  V30 22160 H 2066.68 -7.78674 2.52208 0
M  V30 22161 N 2069.34 0.0751653 -1.57421 0
M  V30 22162 C 2070.3 1.07404 -2.02477 0
M  V30 22163 C 2071.3 1.31792 -0.921282 0
M  V30 22164 O 2072.49 1.27569 -1.18625 0
M  V30 22165 C 2069.63 2.4185 -2.40253 0
M  V30 22166 H 2070.82 0.685783 -2.91954 0
M  V30 22167 H 2068.37 0.320795 -1.52973 0
M  V30 22168 H 2069.11 2.85515 -1.53791 0
M  V30 22169 H 2068.89 2.25492 -3.20774 0
M  V30 22170 H 2070.38 3.13655 -2.75699 0
M  V30 22171 N 2070.82 1.53744 0.346476 0
M  V30 22172 C 2071.75 1.84512 1.43099 0
M  V30 22173 C 2072.73 0.700026 1.55028 0
M  V30 22174 O 2073.91 0.951666 1.69284 0
M  V30 22175 C 2071.04 2.0521 2.80189 0
M  V30 22176 C 2070 3.21022 2.8307 0
M  V30 22177 C 2069.32 3.27048 4.23018 0
M  V30 22178 C 2070.62 4.59196 2.4887 0
M  V30 22179 H 2072.32 2.75338 1.17599 0
M  V30 22180 H 2069.86 1.32483 0.564283 0
M  V30 22181 H 2071.82 2.25318 3.56103 0
M  V30 22182 H 2070.54 1.11113 3.07118 0
M  V30 22183 H 2069.2 3.00765 2.09609 0
M  V30 22184 H 2068.85 2.30551 4.47052 0
M  V30 22185 H 2068.55 4.0487 4.25857 0
M  V30 22186 H 2070.07 3.49363 5.00777 0
M  V30 22187 H 2071.49 4.79338 3.14496 0
M  V30 22188 H 2069.88 5.39401 2.62996 0
M  V30 22189 H 2070.95 4.63005 1.44064 0
M  V30 22190 N 2072.3 -0.607329 1.45428 0
M  V30 22191 C 2073.52 -1.39786 1.53214 0
M  V30 22192 C 2073.95 -1.87369 0.165684 0
M  V30 22193 O 2073.3 -1.60154 -0.849728 0
M  V30 22194 C 2073.35 -2.57823 2.52111 0
M  V30 22195 O 2072.46 -3.58462 2.03909 0
M  V30 22196 H 2071.8 -0.417312 0.516476 0
M  V30 22197 H 2074.33 -0.739101 1.90784 0
M  V30 22198 H 2074.34 -3.05064 2.70925 0
M  V30 22199 H 2073.01 -2.22539 3.51354 0
M  V30 22200 H 2071.59 -3.17868 1.94973 0
M  V30 22201 N 2073.77 -1.32722 -0.849853 0
M  V30 22202 C 2074.7 -1.24675 -1.97429 0
M  V30 22203 C 2075.69 -0.129581 -1.69606 0
M  V30 22204 O 2076.87 -0.317548 -1.91586 0
M  V30 22205 C 2074 -0.973971 -3.33363 0
M  V30 22206 C 2072.95 -2.05289 -3.75553 0
M  V30 22207 C 2072.28 -1.63244 -5.09171 0
M  V30 22208 C 2073.58 -3.46845 -3.90507 0
M  V30 22209 H 2075.27 -2.18753 -2.0442 0
M  V30 22210 H 2072.82 -1.0531 -0.982132 0
M  V30 22211 H 2074.77 -0.904206 -4.11585 0
M  V30 22212 H 2073.5 0.00243816 -3.266 0
M  V30 22213 H 2072.16 -2.11289 -2.99587 0
M  V30 22214 H 2071.8 -0.643348 -4.98869 0
M  V30 22215 H 2071.5 -2.35437 -5.38371 0
M  V30 22216 H 2073.03 -1.57713 -5.8988 0
M  V30 22217 H 2074.44 -3.43408 -4.59069 0
M  V30 22218 H 2072.84 -4.17429 -4.3113 0
M  V30 22219 H 2073.91 -3.86155 -2.93278 0
M  V30 22220 N 2075.25 1.06673 -1.16011 0
M  V30 22221 C 2076.48 1.8284 -0.961925 0
M  V30 22222 C 2076.89 1.8266 0.49314 0
M  V30 22223 O 2076.23 1.24152 1.35395 0
M  V30 22224 C 2076.3 3.30797 -1.4076 0
M  V30 22225 C 2075.96 3.54686 -2.88178 0
M  V30 22226 C 2076.96 3.48054 -3.86205 0
M  V30 22227 C 2074.64 3.82131 -3.26008 0
M  V30 22228 C 2076.64 3.68527 -5.20064 0
M  V30 22229 C 2074.32 4.02254 -4.60038 0
M  V30 22230 C 2075.32 3.95449 -5.56875 0
M  V30 22231 O 2075.01 4.15027 -6.88482 0
M  V30 22232 H 2074.74 0.583493 -0.341338 0
M  V30 22233 H 2077.29 1.35513 -1.54355 0
M  V30 22234 H 2075.52 3.78968 -0.769428 0
M  V30 22235 H 2077.21 3.88447 -1.17743 0
M  V30 22236 H 2077.98 3.26846 -3.58325 0
M  V30 22237 H 2073.86 3.86539 -2.51214 0
M  V30 22238 H 2077.4 3.63131 -5.95636 0
M  V30 22239 H 2073.3 4.22951 -4.8763 0
M  V30 22240 H 2074.07 4.32337 -6.95002 0
M  V30 22241 N 2076.73 0.957992 1.25141 0
M  V30 22242 C 2077.96 0.631888 1.97015 0
M  V30 22243 C 2078.37 -0.796708 1.71167 0
M  V30 22244 O 2077.73 -1.53335 0.989683 0
M  V30 22245 C 2077.78 0.885137 3.50496 0
M  V30 22246 O 2077.5 2.25756 3.75454 0
M  V30 22247 C 2079 0.571882 4.39596 0
M  V30 22248 H 2076.22 0.236606 0.6279 0
M  V30 22249 H 2078.77 1.28328 1.59224 0
M  V30 22250 H 2076.92 0.280102 3.86386 0
M  V30 22251 H 2077.34 2.33023 4.69894 0
M  V30 22252 H 2078.81 0.799598 5.46178 0
M  V30 22253 H 2079.29 -0.493643 4.36417 0
M  V30 22254 H 2079.89 1.15639 4.09277 0
M  V30 22255 N 2078.21 -1.39832 0.726957 0
M  V30 22256 C 2079.14 -2.29161 0.0422219 0
M  V30 22257 C 2080.15 -1.4641 -0.7119 0
M  V30 22258 O 2081.34 -1.69574 -0.557395 0
M  V30 22259 C 2078.44 -3.24886 -0.964472 0
M  V30 22260 C 2077.62 -4.36544 -0.273536 0
M  V30 22261 C 2076.67 -5.12632 -1.1872 0
M  V30 22262 O 2075.7 -5.6527 -0.66771 0
M  V30 22263 N 2076.9 -5.23068 -2.51754 0
M  V30 22264 H 2079.67 -2.88567 0.809275 0
M  V30 22265 H 2077.23 -1.51326 0.575514 0
M  V30 22266 H 2079.22 -3.72662 -1.57813 0
M  V30 22267 H 2077.79 -2.66568 -1.63279 0
M  V30 22268 H 2077.01 -3.90749 0.520485 0
M  V30 22269 H 2078.3 -5.08384 0.205613 0
M  V30 22270 H 2077.7 -4.81806 -2.96445 0
M  V30 22271 H 2076.25 -5.74312 -3.08235 0
M  V30 22272 N 2079.69 -0.473982 -1.50304 0
M  V30 22273 C 2080.91 0.0776132 -2.06754 0
M  V30 22274 C 2081.33 1.33251 -1.33752 0
M  V30 22275 O 2080.69 1.77889 -0.407659 0
M  V30 22276 C 2080.74 0.362773 -3.59675 0
M  V30 22277 O 2080.46 -0.842352 -4.29926 0
M  V30 22278 C 2081.96 0.961013 -4.32758 0
M  V30 22279 H 2079.18 -0.00837304 -0.670948 0
M  V30 22280 H 2081.72 -0.663594 -1.93434 0
M  V30 22281 H 2079.88 1.05392 -3.72789 0
M  V30 22282 H 2080.29 -0.588708 -5.21186 0
M  V30 22283 H 2081.77 1.11029 -5.40719 0
M  V30 22284 H 2082.24 1.95187 -3.93445 0
M  V30 22285 H 2082.85 0.308162 -4.24182 0
M  V30 22286 N 2081.16 1.56239 -0.206702 0
M  V30 22287 C 2082.39 2.02291 0.434267 0
M  V30 22288 C 2082.81 1.08672 1.54388 0
M  V30 22289 O 2082.16 0.0936387 1.8226 0
M  V30 22290 C 2082.22 3.47969 0.97978 0
M  V30 22291 O 2081.94 4.38016 -0.0855779 0
M  V30 22292 C 2083.44 4.09596 1.69548 0
M  V30 22293 H 2080.66 0.662272 0.107873 0
M  V30 22294 H 2083.2 2.02 -0.318809 0
M  V30 22295 H 2081.36 3.48923 1.68319 0
M  V30 22296 H 2081.77 5.2351 0.32218 0
M  V30 22297 H 2083.24 5.13343 2.02935 0
M  V30 22298 H 2083.72 3.53727 2.60334 0
M  V30 22299 H 2084.33 4.12448 1.03764 0
M  V30 22300 N 2082.64 -0.0668159 1.57458 0
M  V30 22301 C 2083.92 -0.798309 1.78568 0
M  V30 22302 C 2084.3 -1.95537 0.79552 0
M  V30 22303 O 2083.65 -2.27864 -0.170331 0
M  V30 22304 C 2083.86 -1.26662 3.25204 0
M  V30 22305 C 2085.21 -1.69798 3.89171 0
M  V30 22306 O 2086.23 -1.36216 3.29125 0
M  V30 22307 O 2085.09 -2.31989 4.94817 0
M  V30 22308 H 2082.18 -0.382924 0.733006 0
M  V30 22309 H 2084.73 -0.0465065 1.69636 0
M  V30 22310 H 2083.5 -0.438929 3.8883 0
M  V30 22311 H 2083.12 -2.07959 3.38879 0
M  V30 22312 N 2084.12 -1.53926 -0.338317 0
M  V30 22313 C 2085.35 -1.75368 -1.09789 0
M  V30 22314 C 2085.76 -0.495294 -1.82187 0
M  V30 22315 O 2085.12 0.533316 -1.74534 0
M  V30 22316 C 2085.17 -2.93722 -2.10736 0
M  V30 22317 O 2084.89 -4.14695 -1.4128 0
M  V30 22318 C 2086.39 -3.27258 -2.99027 0
M  V30 22319 H 2083.61 -0.585824 -0.327188 0
M  V30 22320 H 2086.16 -2.00767 -0.388932 0
M  V30 22321 H 2084.31 -2.70639 -2.77188 0
M  V30 22322 H 2084.73 -4.81165 -2.08759 0
M  V30 22323 H 2086.2 -4.13409 -3.65783 0
M  V30 22324 H 2086.68 -2.43786 -3.65329 0
M  V30 22325 H 2087.28 -3.52366 -2.38156 0
M  V30 22326 N 2085.6 0.599608 -1.45748 0
M  V30 22327 C 2086.53 1.72038 -1.57877 0
M  V30 22328 C 2087.51 1.64578 -0.429893 0
M  V30 22329 O 2088.7 1.82855 -0.654037 0
M  V30 22330 C 2085.83 3.10657 -1.55272 0
M  V30 22331 C 2084.78 3.32936 -2.68957 0
M  V30 22332 C 2084.11 4.71909 -2.51408 0
M  V30 22333 C 2085.41 3.22412 -4.10911 0
M  V30 22334 H 2087.1 1.62144 -2.51694 0
M  V30 22335 H 2084.65 0.778641 -1.21133 0
M  V30 22336 H 2086.6 3.8887 -1.62353 0
M  V30 22337 H 2085.32 3.21411 -0.579891 0
M  V30 22338 H 2083.98 2.57117 -2.61317 0
M  V30 22339 H 2083.63 4.79406 -1.52247 0
M  V30 22340 H 2083.33 4.8777 -3.2765 0
M  V30 22341 H 2084.85 5.52311 -2.60355 0
M  V30 22342 H 2086.27 3.90488 -4.19752 0
M  V30 22343 H 2084.66 3.498 -4.87607 0
M  V30 22344 H 2085.73 2.19732 -4.32256 0
M  V30 22345 N 2087.08 1.33171 0.842803 0
M  V30 22346 C 2088.33 1.23754 1.59273 0
M  V30 22347 C 2088.64 -0.196137 1.94614 0
M  V30 22348 O 2089.85 -0.412282 2.68351 0
M  V30 22349 C 2088.3 2.16819 2.87259 0
M  V30 22350 C 2087.91 3.65335 2.59296 0
M  V30 22351 C 2089.65 2.16266 3.6528 0
M  V30 22352 C 2087.56 4.50325 3.83355 0
M  V30 22353 H 2086.49 0.459639 0.597702 0
M  V30 22354 H 2089.14 1.5821 0.929616 0
M  V30 22355 H 2087.52 1.75291 3.5509 0
M  V30 22356 H 2088.7 4.15278 1.99701 0
M  V30 22357 H 2087.01 3.68138 1.94586 0
M  V30 22358 H 2089.61 2.76995 4.57359 0
M  V30 22359 H 2089.95 1.1567 3.99908 0
M  V30 22360 H 2090.49 2.56135 3.04368 0
M  V30 22361 H 2087.22 5.51781 3.53861 0
M  V30 22362 H 2086.74 4.05127 4.42303 0
M  V30 22363 H 2088.42 4.6393 4.50975 0
M  V30 22364 N 2088.56 -1.06056 1.16576 0
M  V30 22365 C 2089.5 -2.13591 0.874513 0
M  V30 22366 C 2090.47 -1.65143 -0.178027 0
M  V30 22367 O 2091.66 -1.90752 -0.0427107 0
M  V30 22368 C 2088.8 -3.42953 0.384377 0
M  V30 22369 C 2087.91 -4.05121 1.50002 0
M  V30 22370 C 2087.05 -5.22367 0.964658 0
M  V30 22371 C 2086.08 -5.76525 2.05635 0
M  V30 22372 N 2085.22 -6.85084 1.53639 0
M  V30 22373 H 2090.06 -2.37842 1.79541 0
M  V30 22374 H 2087.6 -1.16692 0.895622 0
M  V30 22375 H 2089.56 -4.1712 0.0818205 0
M  V30 22376 H 2088.19 -3.18911 -0.499573 0
M  V30 22377 H 2087.24 -3.28478 1.91849 0
M  V30 22378 H 2088.55 -4.41366 2.32374 0
M  V30 22379 H 2087.7 -6.03571 0.615426 0
M  V30 22380 H 2086.44 -4.87575 0.110275 0
M  V30 22381 H 2085.45 -4.93957 2.41425 0
M  V30 22382 H 2086.67 -6.13368 2.91474 0
M  V30 22383 H 2084.62 -6.52205 0.70458 0
M  V30 22384 H 2084.54 -7.20283 2.29626 0
M  V30 22385 H 2085.8 -7.6996 1.21581 0
M  V30 22386 N 2090.03 -0.964615 -1.24631 0
M  V30 22387 C 2091.26 -0.642327 -1.96677 0
M  V30 22388 C 2091.68 0.787619 -1.71587 0
M  V30 22389 O 2091.03 1.52808 -0.9978 0
M  V30 22390 C 2091.08 -0.903712 -3.50022 0
M  V30 22391 O 2090.81 -2.27744 -3.74252 0
M  V30 22392 C 2092.31 -0.595187 -4.39286 0
M  V30 22393 H 2089.53 -0.239932 -0.626637 0
M  V30 22394 H 2092.07 -1.29171 -1.58541 0
M  V30 22395 H 2090.23 -0.300589 -3.86232 0
M  V30 22396 H 2090.64 -2.35512 -4.68652 0
M  V30 22397 H 2092.11 -0.828552 -5.45746 0
M  V30 22398 H 2092.59 0.470491 -4.36673 0
M  V30 22399 H 2093.2 -1.17808 -4.08658 0
M  V30 22400 N 2091.51 1.39445 -0.734362 0
M  V30 22401 C 2092.76 2.00526 -0.282025 0
M  V30 22402 C 2093.09 1.58268 1.13055 0
M  V30 22403 O 2092.34 0.802491 1.7849 0
M  V30 22404 C 2092.64 3.55865 -0.330927 0
M  V30 22405 C 2092.31 4.1777 -1.69643 0
M  V30 22406 C 2090.97 4.34393 -2.07017 0
M  V30 22407 C 2093.32 4.52119 -2.59302 0
M  V30 22408 C 2090.65 4.82653 -3.3356 0
M  V30 22409 C 2093 5.01788 -3.85217 0
M  V30 22410 C 2091.66 5.16618 -4.22684 0
M  V30 22411 H 2090.93 0.733778 -0.1032 0
M  V30 22412 H 2093.58 1.66781 -0.94108 0
M  V30 22413 H 2091.89 3.89631 0.411703 0
M  V30 22414 H 2093.58 4.00983 0.0371893 0
M  V30 22415 H 2090.17 4.05233 -1.39584 0
M  V30 22416 H 2094.36 4.38896 -2.31698 0
M  V30 22417 H 2089.61 4.9232 -3.62534 0
M  V30 22418 H 2093.79 5.27339 -4.54848 0
M  V30 22419 H 2091.41 5.53775 -5.20805 0
M  V30 22420 N 2092.99 0.481946 1.5005 0
M  V30 22421 C 2094.24 -0.0693805 2.02681 0
M  V30 22422 C 2094.57 -1.3839 1.36242 0
M  V30 22423 O 2093.84 -1.88182 0.491706 0
M  V30 22424 C 2094.13 -0.24187 3.59287 0
M  V30 22425 C 2093.98 1.09443 4.36282 0
M  V30 22426 C 2095.3 -0.991404 4.28788 0
M  V30 22427 H 2092.42 -0.0237405 0.736618 0
M  V30 22428 H 2095.06 0.629651 1.79263 0
M  V30 22429 H 2093.21 -0.837271 3.79371 0
M  V30 22430 H 2094.88 1.72725 4.27743 0
M  V30 22431 H 2093.12 1.68843 3.99593 0
M  V30 22432 H 2093.8 0.92726 5.44156 0
M  V30 22433 H 2096.27 -0.486628 4.13245 0
M  V30 22434 H 2095.15 -1.08091 5.38152 0
M  V30 22435 H 2095.41 -2.03061 3.92707 0
M  V30 22436 N 2094.47 -1.56127 0.214985 0
M  V30 22437 C 2095.88 -1.5898 -0.140524 0
M  V30 22438 C 2096.08 -1.23166 -1.59475 0
M  V30 22439 O 2095.14 -0.963792 -2.33382 0
M  V30 22440 C 2096.45 -3.00162 0.179827 0
M  V30 22441 C 2098 -3.12764 0.121534 0
M  V30 22442 C 2098.48 -4.56112 0.415468 0
M  V30 22443 N 2099.97 -4.61761 0.364801 0
M  V30 22444 C 2100.7 -5.70602 0.565817 0
M  V30 22445 N 2100.2 -6.87831 0.828254 0
M  V30 22446 N 2101.99 -5.59883 0.498704 0
M  V30 22447 H 2094.14 -1.77683 1.16372 0
M  V30 22448 H 2096.4 -0.825579 0.465964 0
M  V30 22449 H 2096.11 -3.30995 1.1889 0
M  V30 22450 H 2095.98 -3.7376 -0.508279 0
M  V30 22451 H 2098.37 -2.81731 -0.878172 0
M  V30 22452 H 2098.45 -2.4151 0.843017 0
M  V30 22453 H 2098.1 -4.87861 1.41258 0
M  V30 22454 H 2098.03 -5.25583 -0.327132 0
M  V30 22455 H 2100.52 -3.7752 0.169387 0
M  V30 22456 H 2100.83 -7.66689 0.969914 0
M  V30 22457 H 2099.18 -6.89591 0.865375 0
M  V30 22458 H 2102.37 -4.67176 0.293953 0
M  V30 22459 H 2102.54 -6.44643 0.658773 0
M  V30 22460 N 2095.95 0.0584645 -1.57492 0
M  V30 22461 C 2097.17 0.771417 -1.9252 0
M  V30 22462 C 2097.6 1.69644 -0.812561 0
M  V30 22463 O 2096.95 1.79786 0.233784 0
M  V30 22464 C 2097 1.52975 -3.26544 0
M  V30 22465 O 2096.11 2.64128 -3.16718 0
M  V30 22466 H 2095.45 0.209569 -0.630061 0
M  V30 22467 H 2097.98 0.022721 -2.04587 0
M  V30 22468 H 2097.99 1.90612 -3.60737 0
M  V30 22469 H 2096.66 0.851136 -4.07098 0
M  V30 22470 H 2095.24 2.29251 -2.94106 0
M  V30 22471 N 2097.42 1.54103 0.330149 0
M  V30 22472 C 2098.36 1.7936 1.42698 0
M  V30 22473 C 2099.37 0.67533 1.48132 0
M  V30 22474 O 2100.56 0.952319 1.50974 0
M  V30 22475 C 2097.66 1.89043 2.81276 0
M  V30 22476 C 2096.83 3.1913 2.99123 0
M  V30 22477 C 2095.89 3.19599 4.18023 0
M  V30 22478 O 2094.92 3.93266 4.11498 0
M  V30 22479 N 2096.12 2.42915 5.27231 0
M  V30 22480 H 2098.88 2.74012 1.21398 0
M  V30 22481 H 2096.44 1.53318 0.520103 0
M  V30 22482 H 2098.44 1.86791 3.59014 0
M  V30 22483 H 2097.01 1.01517 2.95657 0
M  V30 22484 H 2096.23 3.34396 2.08742 0
M  V30 22485 H 2097.51 4.05032 3.07939 0
M  V30 22486 H 2096.91 1.82641 5.35405 0
M  V30 22487 H 2095.47 2.46448 6.03412 0
M  V30 22488 N 2098.9 -0.59187 1.46064 0
M  V30 22489 C 2100.13 -1.37666 1.54453 0
M  V30 22490 C 2100.55 -1.87916 0.18248 0
M  V30 22491 O 2099.9 -1.63106 -0.818692 0
M  V30 22492 C 2099.95 -2.57045 2.54185 0
M  V30 22493 O 2099.67 -2.08879 3.85099 0
M  V30 22494 C 2101.18 -3.49713 2.72426 0
M  V30 22495 H 2098.4 -0.420872 0.522597 0
M  V30 22496 H 2100.94 -0.720387 1.91391 0
M  V30 22497 H 2099.09 -3.18681 2.20276 0
M  V30 22498 H 2099.51 -2.86557 4.39301 0
M  V30 22499 H 2100.98 -4.29981 3.4615 0
M  V30 22500 H 2101.46 -4.01064 1.7901 0
M  V30 22501 H 2102.07 -2.9392 3.07395 0
M  V30 22502 N 2100.38 -1.33616 -0.835729 0
M  V30 22503 C 2101.34 -1.24042 -1.92733 0
M  V30 22504 C 2102.34 -0.158708 -1.60015 0
M  V30 22505 O 2103.53 -0.410456 -1.69295 0
M  V30 22506 C 2100.67 -0.912113 -3.28471 0
M  V30 22507 H 2101.86 -2.21075 -2.02647 0
M  V30 22508 H 2099.41 -1.1772 -1.02819 0
M  V30 22509 H 2100.15 0.0555823 -3.24252 0
M  V30 22510 H 2099.93 -1.69441 -3.53599 0
M  V30 22511 H 2101.42 -0.869957 -4.08438 0
M  V30 22512 N 2101.86 1.05436 -1.17136 0
M  V30 22513 C 2102.79 2.13111 -0.843582 0
M  V30 22514 C 2103.8 1.6208 0.152942 0
M  V30 22515 O 2104.99 1.78351 -0.0730153 0
M  V30 22516 C 2102.09 3.38072 -0.236753 0
M  V30 22517 C 2101.27 4.18389 -1.27553 0
M  V30 22518 C 2100.32 5.21697 -0.686916 0
M  V30 22519 O 2099.35 5.52761 -1.35807 0
M  V30 22520 N 2100.55 5.78146 0.522229 0
M  V30 22521 H 2103.32 2.41827 -1.7703 0
M  V30 22522 H 2100.88 1.21513 -1.06987 0
M  V30 22523 H 2102.87 4.04342 0.170262 0
M  V30 22524 H 2101.44 3.0691 0.593699 0
M  V30 22525 H 2100.66 3.47645 -1.85839 0
M  V30 22526 H 2101.95 4.6885 -1.97628 0
M  V30 22527 H 2101.35 5.55188 1.0855 0
M  V30 22528 H 2099.9 6.4595 0.871341 0
M  V30 22529 N 2103.34 0.971211 1.24118 0
M  V30 22530 C 2104.58 0.633768 1.91906 0
M  V30 22531 C 2104.91 -0.834157 1.76258 0
M  V30 22532 O 2104.18 -1.59579 1.13628 0
M  V30 22533 H 2102.76 0.231413 0.710251 0
M  V30 22534 H 2105.42 1.23304 1.50938 0
M  V30 22535 H 2104.51 0.877411 2.99513 0
M  V30 22536 N 2104.81 -1.39054 0.741747 0
M  V30 22537 C 2105.78 -2.28913 0.114619 0
M  V30 22538 C 2106.78 -1.46629 -0.660038 0
M  V30 22539 O 2107.97 -1.67223 -0.488056 0
M  V30 22540 C 2105.1 -3.3022 -0.846607 0
M  V30 22541 H 2106.29 -2.85875 0.906381 0
M  V30 22542 H 2103.85 -1.47814 0.508001 0
M  V30 22543 H 2104.58 -2.78326 -1.66448 0
M  V30 22544 H 2104.37 -3.90999 -0.293686 0
M  V30 22545 H 2105.86 -3.97443 -1.28176 0
M  V30 22546 N 2106.29 -0.489897 -1.49792 0
M  V30 22547 C 2107.54 0.0584284 -2.02016 0
M  V30 22548 C 2107.86 1.38507 -1.37262 0
M  V30 22549 O 2107.13 1.88757 -0.524191 0
M  V30 22550 H 2105.71 0.0245828 -0.746595 0
M  V30 22551 H 2108.37 -0.644608 -1.83932 0
M  V30 22552 H 2107.47 0.196227 -3.11483 0
M  V30 22553 N 2107.77 1.56011 -0.223262 0
M  V30 22554 C 2109.02 1.98642 0.408581 0
M  V30 22555 C 2109.35 1.11082 1.59294 0
M  V30 22556 O 2108.62 0.168881 1.93765 0
M  V30 22557 C 2108.91 3.5013 0.841473 0
M  V30 22558 C 2108.76 4.48462 -0.346639 0
M  V30 22559 C 2110.08 4.06065 1.69703 0
M  V30 22560 H 2107.2 0.722183 0.147039 0
M  V30 22561 H 2109.84 1.87289 -0.319839 0
M  V30 22562 H 2107.99 3.59936 1.46214 0
M  V30 22563 H 2109.66 4.50665 -0.98481 0
M  V30 22564 H 2107.91 4.22263 -0.993788 0
M  V30 22565 H 2108.58 5.52 -0.00078187 0
M  V30 22566 H 2111.05 3.99215 1.17332 0
M  V30 22567 H 2109.93 5.12376 1.96882 0
M  V30 22568 H 2110.19 3.53054 2.66093 0
M  V30 22569 N 2109.25 -0.0501116 1.5752 0
M  V30 22570 C 2110.53 -0.779325 1.79404 0
M  V30 22571 C 2110.91 -1.94682 0.816214 0
M  V30 22572 O 2110.25 -2.28032 -0.146153 0
M  V30 22573 C 2110.46 -1.23206 3.26529 0
M  V30 22574 C 2111.81 -1.65661 3.9095 0
M  V30 22575 O 2112.84 -1.32718 3.30552 0
M  V30 22576 O 2111.69 -2.26728 4.97249 0
M  V30 22577 H 2108.79 -0.375128 0.737026 0
M  V30 22578 H 2111.33 -0.0285117 1.69676 0
M  V30 22579 H 2110.11 -0.397664 3.89274 0
M  V30 22580 H 2109.73 -2.04353 3.41065 0
M  V30 22581 N 2110.73 -1.54276 -0.321972 0
M  V30 22582 C 2112 -1.63209 -1.07806 0
M  V30 22583 C 2112.38 -0.466965 -2.0587 0
M  V30 22584 O 2111.73 0.538598 -2.22062 0
M  V30 22585 C 2111.94 -3.00279 -1.77858 0
M  V30 22586 C 2113.29 -3.5638 -2.30822 0
M  V30 22587 O 2114.31 -3.02594 -1.87923 0
M  V30 22588 O 2113.17 -4.50507 -3.09364 0
M  V30 22589 H 2110.27 -0.660982 -0.497023 0
M  V30 22590 H 2112.81 -1.66622 -0.321736 0
M  V30 22591 H 2111.58 -3.76518 -1.06537 0
M  V30 22592 H 2111.21 -3.00552 -2.60297 0
M  V30 22593 N 2112.2 0.584116 -1.46376 0
M  V30 22594 C 2113.62 1.16623 -1.45794 0
M  V30 22595 C 2113.97 1.95198 -0.198034 0
M  V30 22596 O 2113.09 2.04801 0.698962 0
M  V30 22597 C 2113.69 2.12162 -2.64145 0
M  V30 22598 C 2112.25 2.657 -2.66609 0
M  V30 22599 C 2111.39 1.41543 -2.38455 0
M  V30 22600 H 2114.34 0.372129 -1.54275 0
M  V30 22601 H 2114.36 2.95601 -2.39583 0
M  V30 22602 H 2113.88 1.54946 -3.55828 0
M  V30 22603 H 2111.98 3.26789 -1.78996 0
M  V30 22604 H 2112.09 3.08531 -3.66532 0
M  V30 22605 H 2110.45 1.71306 -1.88484 0
M  V30 22606 H 2111.24 0.861604 -3.32312 0
M  V30 22607 N 2113.68 1.34058 0.828631 0
M  V30 22608 C 2114.93 1.2628 1.58686 0
M  V30 22609 C 2115.26 -0.168425 1.93468 0
M  V30 22610 O 2114.54 -1.11237 1.59551 0
M  V30 22611 C 2114.82 2.14808 2.89015 0
M  V30 22612 C 2114.67 3.66439 2.60849 0
M  V30 22613 C 2115.99 2.02902 3.90536 0
M  V30 22614 H 2113.11 0.460068 0.575766 0
M  V30 22615 H 2115.75 1.64256 0.954988 0
M  V30 22616 H 2113.9 1.82551 3.42939 0
M  V30 22617 H 2115.58 4.09036 2.13278 0
M  V30 22618 H 2113.82 3.87811 1.94384 0
M  V30 22619 H 2114.49 4.23742 3.53761 0
M  V30 22620 H 2116.97 2.31212 3.45948 0
M  V30 22621 H 2115.84 2.6708 4.79541 0
M  V30 22622 H 2116.1 1.00429 4.30542 0
M  V30 22623 N 2115.16 -1.04814 1.17694 0
M  V30 22624 C 2116.41 -1.77532 0.96576 0
M  V30 22625 C 2116.73 -1.88306 -0.506545 0
M  V30 22626 O 2116 -1.40259 -1.36763 0
M  V30 22627 H 2114.58 -0.657613 0.354336 0
M  V30 22628 H 2117.24 -1.26536 1.48239 0
M  V30 22629 H 2116.34 -2.79071 1.39735 0
M  V30 22630 N 2116.64 -0.977779 -1.23601 0
M  V30 22631 C 2117.55 -0.524039 -2.28672 0
M  V30 22632 C 2118.57 0.419894 -1.68858 0
M  V30 22633 O 2119.74 0.290458 -1.99295 0
M  V30 22634 C 2116.81 0.16886 -3.46289 0
M  V30 22635 C 2115.87 -0.81615 -4.21471 0
M  V30 22636 C 2115.1 -0.156223 -5.33471 0
M  V30 22637 O 2115.32 1.05329 -5.60591 0
M  V30 22638 O 2114.26 -0.853473 -5.95818 0
M  V30 22639 H 2118.08 -1.39778 -2.69622 0
M  V30 22640 H 2115.67 -0.745288 -1.29483 0
M  V30 22641 H 2117.55 0.557659 -4.17694 0
M  V30 22642 H 2116.23 1.0174 -3.07296 0
M  V30 22643 H 2115.13 -1.2556 -3.524 0
M  V30 22644 H 2116.47 -1.63342 -4.64306 0
M  V30 22645 N 2118.12 1.38658 -0.749111 0
M  V30 22646 C 2119.36 2.00513 -0.303727 0
M  V30 22647 C 2119.7 1.59324 1.11039 0
M  V30 22648 O 2118.97 0.828679 1.75964 0
M  V30 22649 C 2119.25 3.57624 -0.421545 0
M  V30 22650 C 2119.11 4.0879 -1.87644 0
M  V30 22651 C 2120.43 4.39699 0.187724 0
M  V30 22652 H 2117.55 0.728465 -0.111835 0
M  V30 22653 H 2120.19 1.64665 -0.947915 0
M  V30 22654 H 2118.34 3.88293 0.126892 0
M  V30 22655 H 2120.01 3.88784 -2.48284 0
M  V30 22656 H 2118.25 3.61824 -2.39303 0
M  V30 22657 H 2118.92 5.179 -1.91006 0
M  V30 22658 H 2121.4 4.15157 -0.279958 0
M  V30 22659 H 2120.28 5.48849 0.0750199 0
M  V30 22660 H 2120.54 4.23301 1.27549 0
M  V30 22661 N 2119.6 0.497834 1.49531 0
M  V30 22662 C 2120.82 -0.0468921 2.07347 0
M  V30 22663 C 2121.25 -1.30349 1.35612 0
M  V30 22664 O 2120.6 -1.76559 0.411884 0
M  V30 22665 C 2120.65 -0.286776 3.59458 0
M  V30 22666 O 2119.76 -1.36212 3.89256 0
M  V30 22667 H 2119.1 0.0248202 0.663536 0
M  V30 22668 H 2121.63 0.696547 1.92378 0
M  V30 22669 H 2121.64 -0.519243 4.04682 0
M  V30 22670 H 2120.31 0.631334 4.1108 0
M  V30 22671 H 2118.89 -1.11485 3.55845 0
M  V30 22672 N 2121.07 -1.5589 0.231532 0
M  V30 22673 C 2122.32 -1.97737 -0.397859 0
M  V30 22674 C 2122.64 -1.12252 -1.60184 0
M  V30 22675 O 2123.84 -1.44042 -2.30139 0
M  V30 22676 C 2122.3 -3.518 -0.759238 0
M  V30 22677 C 2121.91 -4.46003 0.422484 0
M  V30 22678 C 2123.65 -4.02338 -1.35368 0
M  V30 22679 C 2121.56 -5.91388 0.0381149 0
M  V30 22680 H 2120.49 -0.738433 -0.152423 0
M  V30 22681 H 2123.14 -1.80521 0.329322 0
M  V30 22682 H 2121.52 -3.64654 -1.54412 0
M  V30 22683 H 2122.69 -4.44902 1.19996 0
M  V30 22684 H 2121.01 -4.05863 0.930821 0
M  V30 22685 H 2123.61 -5.08464 -1.65433 0
M  V30 22686 H 2123.95 -3.48776 -2.2729 0
M  V30 22687 H 2124.48 -3.92747 -0.632021 0
M  V30 22688 H 2121.22 -6.48954 0.924083 0
M  V30 22689 H 2120.74 -5.9566 -0.703473 0
M  V30 22690 H 2122.42 -6.45853 -0.385094 0
M  V30 22691 N 2122.55 0.0417572 -1.57545 0
M  V30 22692 C 2123.48 1.07361 -2.025 0
M  V30 22693 C 2124.5 1.33224 -0.935692 0
M  V30 22694 O 2125.69 1.30935 -1.21319 0
M  V30 22695 C 2122.79 2.41809 -2.37448 0
M  V30 22696 C 2121.96 2.35482 -3.68601 0
M  V30 22697 C 2121.02 3.52277 -3.90881 0
M  V30 22698 O 2120.04 3.32344 -4.621 0
M  V30 22699 N 2121.25 4.73702 -3.35539 0
M  V30 22700 H 2124.01 0.690538 -2.91636 0
M  V30 22701 H 2121.57 0.229926 -1.60259 0
M  V30 22702 H 2123.56 3.18641 -2.495 0
M  V30 22703 H 2122.13 2.72008 -1.54047 0
M  V30 22704 H 2121.35 1.43834 -3.67022 0
M  V30 22705 H 2122.64 2.28384 -4.54663 0
M  V30 22706 H 2122.04 4.92798 -2.77788 0
M  V30 22707 H 2120.6 5.47941 -3.52992 0
M  V30 22708 N 2124.03 1.54445 0.313786 0
M  V30 22709 C 2125.28 1.73373 1.05212 0
M  V30 22710 C 2125.61 0.511165 1.87352 0
M  V30 22711 O 2124.88 -0.491833 1.88179 0
M  V30 22712 C 2125.17 3.01517 1.96874 0
M  V30 22713 C 2125.02 4.34046 1.17999 0
M  V30 22714 C 2126.34 3.25462 2.96248 0
M  V30 22715 H 2123.46 0.630823 0.381092 0
M  V30 22716 H 2126.1 1.87149 0.327891 0
M  V30 22717 H 2124.25 2.89903 2.58628 0
M  V30 22718 H 2125.92 4.57559 0.586302 0
M  V30 22719 H 2124.16 4.31109 0.482437 0
M  V30 22720 H 2124.84 5.19949 1.85355 0
M  V30 22721 H 2127.31 3.36602 2.44619 0
M  V30 22722 H 2126.19 4.16464 3.57559 0
M  V30 22723 H 2126.45 2.43151 3.69229 0
M  V30 22724 N 2125.51 -0.576345 1.46683 0
M  V30 22725 C 2126.78 -1.3367 1.428 0
M  V30 22726 C 2127.16 -2.10788 0.114803 0
M  V30 22727 O 2126.51 -2.09871 -0.903671 0
M  V30 22728 C 2126.72 -2.25735 2.66167 0
M  V30 22729 C 2128.07 -2.87363 3.12583 0
M  V30 22730 O 2129.09 -2.36045 2.6676 0
M  V30 22731 O 2127.95 -3.80589 3.92191 0
M  V30 22732 H 2125.05 -0.600913 0.568184 0
M  V30 22733 H 2127.59 -0.596834 1.58858 0
M  V30 22734 H 2126.37 -1.68221 3.53295 0
M  V30 22735 H 2125.99 -3.07049 2.52599 0
M  V30 22736 N 2126.99 -1.34495 -0.82151 0
M  V30 22737 C 2127.92 -1.28835 -1.94741 0
M  V30 22738 C 2128.9 -0.165528 -1.69293 0
M  V30 22739 O 2130.08 -0.358115 -1.9087 0
M  V30 22740 C 2127.21 -1.04446 -3.31222 0
M  V30 22741 C 2126.17 -2.13209 -3.71114 0
M  V30 22742 C 2125.49 -1.74007 -5.05594 0
M  V30 22743 C 2126.79 -3.55051 -3.83062 0
M  V30 22744 H 2128.49 -2.23039 -1.99734 0
M  V30 22745 H 2126.03 -1.07369 -0.959573 0
M  V30 22746 H 2127.98 -0.991306 -4.09574 0
M  V30 22747 H 2126.71 -0.0668391 -3.26532 0
M  V30 22748 H 2125.37 -2.17597 -2.95038 0
M  V30 22749 H 2125.02 -0.749021 -4.97392 0
M  V30 22750 H 2124.72 -2.46803 -5.33256 0
M  V30 22751 H 2126.24 -1.7019 -5.86402 0
M  V30 22752 H 2127.65 -3.53068 -4.51681 0
M  V30 22753 H 2126.05 -4.2648 -4.22179 0
M  V30 22754 H 2127.12 -3.92289 -2.85021 0
M  V30 22755 N 2128.46 1.04188 -1.18248 0
M  V30 22756 C 2129.71 1.77367 -0.977091 0
M  V30 22757 C 2130.04 1.88138 0.493397 0
M  V30 22758 O 2129.29 1.38508 1.38253 0
M  V30 22759 C 2129.59 3.20799 -1.57553 0
M  V30 22760 C 2129.26 3.30065 -3.07193 0
M  V30 22761 C 2127.92 3.32301 -3.48037 0
M  V30 22762 C 2130.27 3.30263 -4.03207 0
M  V30 22763 C 2127.6 3.32376 -4.8347 0
M  V30 22764 C 2129.95 3.31877 -5.38554 0
M  V30 22765 C 2128.62 3.32405 -5.78846 0
M  V30 22766 H 2127.89 0.649033 -0.357543 0
M  V30 22767 H 2130.53 1.2238 -1.47294 0
M  V30 22768 H 2128.84 3.7878 -1.00165 0
M  V30 22769 H 2130.54 3.76063 -1.39204 0
M  V30 22770 H 2127.13 3.29044 -2.74641 0
M  V30 22771 H 2131.31 3.27728 -3.72704 0
M  V30 22772 H 2126.57 3.311 -5.13987 0
M  V30 22773 H 2130.74 3.3098 -6.1272 0
M  V30 22774 H 2128.37 3.32216 -6.83766 0
M  V30 22775 N 2129.94 0.98432 1.23081 0
M  V30 22776 C 2131.17 0.673535 1.9563 0
M  V30 22777 C 2131.59 -0.760222 1.72818 0
M  V30 22778 O 2130.94 -1.51201 1.02198 0
M  V30 22779 C 2130.99 0.959283 3.4854 0
M  V30 22780 O 2130.71 2.33669 3.70581 0
M  V30 22781 C 2132.22 0.664998 4.38284 0
M  V30 22782 H 2129.44 0.249871 0.62274 0
M  V30 22783 H 2131.98 1.31677 1.56466 0
M  V30 22784 H 2130.13 0.361997 3.85705 0
M  V30 22785 H 2130.55 2.42938 4.64846 0
M  V30 22786 H 2132.02 0.915271 5.44359 0
M  V30 22787 H 2132.5 -0.400961 4.37366 0
M  V30 22788 H 2133.11 1.24294 4.06732 0
M  V30 22789 N 2131.42 -1.38259 0.756453 0
M  V30 22790 C 2132.37 -2.27752 0.10629 0
M  V30 22791 C 2133.35 -1.45343 -0.690231 0
M  V30 22792 O 2134.55 -1.6805 -0.555715 0
M  V30 22793 C 2131.68 -3.34231 -0.783865 0
M  V30 22794 C 2130.76 -4.24095 0.0196592 0
M  V30 22795 N 2131.15 -4.94621 1.05753 0
M  V30 22796 C 2129.45 -4.45521 -0.206711 0
M  V30 22797 C 2130.15 -5.60837 1.54393 0
M  V30 22798 N 2129.13 -5.36774 0.85873 0
M  V30 22799 H 2132.93 -2.79744 0.901144 0
M  V30 22800 H 2130.44 -1.51195 0.592764 0
M  V30 22801 H 2132.44 -3.97235 -1.26529 0
M  V30 22802 H 2131.1 -2.83797 -1.57764 0
M  V30 22803 H 2132.11 -4.97496 1.43938 0
M  V30 22804 H 2128.79 -4.05989 -0.973599 0
M  V30 22805 H 2130.18 -6.27245 2.4086 0
M  V30 22806 N 2132.9 -0.505757 -1.49264 0
M  V30 22807 C 2134.31 -0.0591588 -1.86606 0
M  V30 22808 C 2134.66 1.35636 -1.41765 0
M  V30 22809 O 2133.79 2.01164 -0.797622 0
M  V30 22810 C 2134.38 -0.100581 -3.38651 0
M  V30 22811 C 2132.94 0.290698 -3.75276 0
M  V30 22812 C 2132.09 -0.471033 -2.7327 0
M  V30 22813 H 2135.04 -0.718294 -1.41514 0
M  V30 22814 H 2135.06 0.693588 -3.74125 0
M  V30 22815 H 2134.57 -1.13093 -3.71257 0
M  V30 22816 H 2132.67 1.3241 -3.48279 0
M  V30 22817 H 2132.78 -0.0320604 -4.79089 0
M  V30 22818 H 2131.15 0.0797288 -2.54575 0
M  V30 22819 H 2131.93 -1.50155 -3.0872 0
M  V30 22820 N 2134.38 1.55765 -0.239796 0
M  V30 22821 C 2135.62 1.98377 0.386152 0
M  V30 22822 C 2135.95 1.12912 1.58984 0
M  V30 22823 O 2135.22 0.210274 1.94768 0
M  V30 22824 H 2133.8 0.732661 0.145661 0
M  V30 22825 H 2136.46 1.91966 -0.336934 0
M  V30 22826 H 2135.55 3.04146 0.700123 0
M  V30 22827 N 2135.85 -0.0334016 1.57565 0
M  V30 22828 C 2137.08 -0.736973 1.9333 0
M  V30 22829 C 2137.5 -1.69124 0.83919 0
M  V30 22830 O 2136.85 -1.81563 -0.184737 0
M  V30 22831 C 2136.91 -1.49777 3.29012 0
M  V30 22832 O 2136.63 -0.581806 4.3422 0
M  V30 22833 C 2138.13 -2.29889 3.79033 0
M  V30 22834 H 2135.35 -0.207374 0.638151 0
M  V30 22835 H 2137.89 0.0077802 2.04499 0
M  V30 22836 H 2136.05 -2.19444 3.19254 0
M  V30 22837 H 2136.46 -1.11488 5.12514 0
M  V30 22838 H 2137.93 -2.78671 4.76494 0
M  V30 22839 H 2138.41 -3.11119 3.10003 0
M  V30 22840 H 2139.02 -1.65304 3.9186 0
M  V30 22841 N 2137.33 -1.54609 -0.305591 0
M  V30 22842 C 2138.58 -1.73328 -1.03931 0
M  V30 22843 C 2138.9 -0.519482 -1.87953 0
M  V30 22844 O 2138.17 0.466312 -1.90269 0
M  V30 22845 H 2136.75 -0.639113 -0.386708 0
M  V30 22846 H 2139.41 -1.91952 -0.337684 0
M  V30 22847 H 2138.51 -2.62058 -1.69505 0
M  V30 22848 N 2138.81 0.568558 -1.46987 0
M  V30 22849 C 2139.72 1.70416 -1.61232 0
M  V30 22850 C 2140.74 1.66798 -0.495411 0
M  V30 22851 O 2141.91 1.86451 -0.761438 0
M  V30 22852 C 2138.98 3.06924 -1.6124 0
M  V30 22853 C 2138.04 3.21697 -2.8427 0
M  V30 22854 C 2137.27 4.51694 -2.84268 0
M  V30 22855 O 2137.49 5.36458 -1.93827 0
M  V30 22856 O 2136.43 4.70015 -3.75991 0
M  V30 22857 H 2140.25 1.61343 -2.57298 0
M  V30 22858 H 2137.84 0.737255 -1.29942 0
M  V30 22859 H 2139.72 3.88182 -1.6399 0
M  V30 22860 H 2138.4 3.16404 -0.683373 0
M  V30 22861 H 2137.3 2.39879 -2.87069 0
M  V30 22862 H 2138.64 3.17115 -3.76429 0
M  V30 22863 N 2140.29 1.34929 0.814366 0
M  V30 22864 C 2141.24 1.23759 1.91488 0
M  V30 22865 C 2142.22 0.134628 1.60336 0
M  V30 22866 O 2143.41 0.365112 1.73193 0
M  V30 22867 C 2140.54 1.00392 3.28293 0
M  V30 22868 C 2139.63 2.15044 3.65536 0
M  V30 22869 N 2140.02 3.40221 3.74277 0
M  V30 22870 C 2138.32 2.06258 3.95441 0
M  V30 22871 C 2139.02 4.15568 4.07036 0
M  V30 22872 N 2138 3.44245 4.20709 0
M  V30 22873 H 2141.8 2.18609 1.96436 0
M  V30 22874 H 2139.31 1.2729 1.00851 0
M  V30 22875 H 2141.31 0.904794 4.06963 0
M  V30 22876 H 2139.97 0.0641884 3.24637 0
M  V30 22877 H 2140.98 3.74669 3.57552 0
M  V30 22878 H 2137.66 1.20093 3.99855 0
M  V30 22879 H 2139.05 5.23705 4.20931 0
M  V30 22880 N 2141.77 -1.0356 1.18799 0
M  V30 22881 C 2142.71 -2.11687 0.919622 0
M  V30 22882 C 2143.68 -1.65484 -0.142958 0
M  V30 22883 O 2144.87 -1.908 -0.00223972 0
M  V30 22884 C 2142.01 -3.4206 0.457036 0
M  V30 22885 C 2141.12 -4.01848 1.58562 0
M  V30 22886 C 2140.26 -5.20204 1.07524 0
M  V30 22887 C 2139.3 -5.72033 2.17817 0
M  V30 22888 N 2138.43 -6.8167 1.68136 0
M  V30 22889 H 2143.27 -2.33981 1.84546 0
M  V30 22890 H 2140.81 -1.14766 0.920172 0
M  V30 22891 H 2142.77 -4.16852 0.170279 0
M  V30 22892 H 2141.4 -3.19899 -0.431815 0
M  V30 22893 H 2140.45 -3.24335 1.98774 0
M  V30 22894 H 2141.76 -4.36338 2.41684 0
M  V30 22895 H 2140.92 -6.02129 0.743314 0
M  V30 22896 H 2139.65 -4.87232 0.213672 0
M  V30 22897 H 2138.66 -4.88725 2.51849 0
M  V30 22898 H 2139.88 -6.07047 3.04418 0
M  V30 22899 H 2137.83 -6.50564 0.842764 0
M  V30 22900 H 2137.75 -7.15251 2.44852 0
M  V30 22901 H 2139.02 -7.67208 1.37886 0
M  V30 22902 N 2143.25 -0.990834 -1.22557 0
M  V30 22903 C 2144.49 -0.666519 -1.91534 0
M  V30 22904 C 2144.82 0.799165 -1.76994 0
M  V30 22905 O 2144.1 1.57769 -1.13751 0
M  V30 22906 C 2144.38 -1.07064 -3.43816 0
M  V30 22907 C 2144.24 -2.59473 -3.67415 0
M  V30 22908 C 2145.55 -0.622332 -4.35678 0
M  V30 22909 H 2142.67 -0.243613 -0.695573 0
M  V30 22910 H 2145.32 -1.23399 -1.44474 0
M  V30 22911 H 2143.47 -0.587797 -3.84028 0
M  V30 22912 H 2145.14 -3.15412 -3.3662 0
M  V30 22913 H 2143.38 -3.01635 -3.11767 0
M  V30 22914 H 2144.05 -2.828 -4.74055 0
M  V30 22915 H 2146.53 -1.03704 -4.0297 0
M  V30 22916 H 2145.4 -0.933416 -5.40905 0
M  V30 22917 H 2145.66 0.477057 -4.39519 0
M  V30 22918 N 2144.72 1.37856 -0.763775 0
M  V30 22919 C 2145.95 2.0416 -0.335631 0
M  V30 22920 C 2146.37 1.57607 1.0395 0
M  V30 22921 O 2145.72 0.753707 1.66209 0
M  V30 22922 C 2145.77 3.59696 -0.360678 0
M  V30 22923 O 2145.5 4.04543 -1.68155 0
M  V30 22924 C 2147 4.43228 0.080061 0
M  V30 22925 H 2144.22 0.655845 -0.141805 0
M  V30 22926 H 2146.76 1.76347 -1.03547 0
M  V30 22927 H 2144.92 3.86309 0.290514 0
M  V30 22928 H 2145.33 4.99027 -1.6147 0
M  V30 22929 H 2146.8 5.51999 0.0113779 0
M  V30 22930 H 2147.28 4.24432 1.12936 0
M  V30 22931 H 2147.89 4.21824 -0.542641 0
M  V30 22932 N 2146.2 0.513665 1.48994 0
M  V30 22933 C 2147.45 -0.0263732 2.02783 0
M  V30 22934 C 2147.78 -1.35469 1.39147 0
M  V30 22935 O 2147.06 -1.87097 0.531511 0
M  V30 22936 C 2147.34 -0.165605 3.59719 0
M  V30 22937 C 2147.19 1.18673 4.33863 0
M  V30 22938 C 2148.51 -0.900228 4.30794 0
M  V30 22939 H 2145.63 -0.00811043 0.736955 0
M  V30 22940 H 2148.27 0.667534 1.77888 0
M  V30 22941 H 2146.42 -0.756613 3.81061 0
M  V30 22942 H 2148.09 1.81759 4.23983 0
M  V30 22943 H 2146.34 1.77281 3.95922 0
M  V30 22944 H 2147.01 1.04247 5.42067 0
M  V30 22945 H 2149.48 -0.398863 4.14184 0
M  V30 22946 H 2148.36 -0.966514 5.40324 0
M  V30 22947 H 2148.62 -1.94685 3.96926 0
M  V30 22948 N 2147.68 -1.55636 0.248053 0
M  V30 22949 C 2148.63 -2.21428 -0.651012 0
M  V30 22950 C 2149.6 -1.17855 -1.17045 0
M  V30 22951 O 2150.78 -1.46306 -1.22471 0
M  V30 22952 C 2147.92 -2.91846 -1.84174 0
M  V30 22953 C 2147.03 -4.10077 -1.35872 0
M  V30 22954 C 2146.17 -4.68207 -2.50909 0
M  V30 22955 C 2145.21 -5.78685 -1.99475 0
M  V30 22956 N 2144.35 -6.30993 -3.07883 0
M  V30 22957 H 2149.19 -2.97884 -0.0832758 0
M  V30 22958 H 2146.72 -1.47071 -0.0293424 0
M  V30 22959 H 2148.68 -3.30873 -2.54124 0
M  V30 22960 H 2147.31 -2.17862 -2.38193 0
M  V30 22961 H 2146.36 -3.76356 -0.553219 0
M  V30 22962 H 2147.67 -4.89829 -0.941776 0
M  V30 22963 H 2146.83 -5.09814 -3.28899 0
M  V30 22964 H 2145.57 -3.87674 -2.95905 0
M  V30 22965 H 2144.57 -5.36555 -1.19955 0
M  V30 22966 H 2145.8 -6.6107 -1.55447 0
M  V30 22967 H 2143.74 -5.53365 -3.52312 0
M  V30 22968 H 2143.66 -7.05941 -2.70523 0
M  V30 22969 H 2144.93 -6.77258 -3.8593 0
M  V30 22970 N 2149.16 0.0250451 -1.5758 0
M  V30 22971 C 2150.4 0.716105 -1.89736 0
M  V30 22972 C 2150.74 1.7479 -0.846284 0
M  V30 22973 O 2150.01 1.94009 0.138165 0
M  V30 22974 C 2150.29 1.38201 -3.32524 0
M  V30 22975 C 2150.15 0.363457 -4.48329 0
M  V30 22976 C 2151.47 2.31493 -3.74298 0
M  V30 22977 H 2148.59 0.258862 -0.690043 0
M  V30 22978 H 2151.23 -0.0211043 -1.89988 0
M  V30 22979 H 2149.38 2.01037 -3.3244 0
M  V30 22980 H 2151.05 -0.263295 -4.60548 0
M  V30 22981 H 2149.29 -0.316859 -4.32641 0
M  V30 22982 H 2149.96 0.867948 -5.45134 0
M  V30 22983 H 2152.44 1.78697 -3.75774 0
M  V30 22984 H 2151.32 2.75065 -4.75006 0
M  V30 22985 H 2151.58 3.1834 -3.06777 0
M  V30 22986 N 2150.64 1.54769 0.297388 0
M  V30 22987 C 2151.88 1.74479 1.03367 0
M  V30 22988 C 2152.21 0.531007 1.86799 0
M  V30 22989 O 2151.49 -0.471847 1.8869 0
M  V30 22990 C 2151.77 3.03588 1.93665 0
M  V30 22991 C 2151.63 4.35274 1.13389 0
M  V30 22992 C 2152.94 3.28586 2.92779 0
M  V30 22993 H 2150.06 0.63483 0.37438 0
M  V30 22994 H 2152.71 1.87487 0.308023 0
M  V30 22995 H 2150.86 2.9263 2.55538 0
M  V30 22996 H 2152.53 4.58155 0.537739 0
M  V30 22997 H 2150.77 4.31596 0.436685 0
M  V30 22998 H 2151.44 5.21886 1.7983 0
M  V30 22999 H 2153.92 3.39177 2.41035 0
M  V30 23000 H 2152.79 4.20233 3.53122 0
M  V30 23001 H 2153.05 2.47054 3.66629 0
M  V30 23002 N 2152.11 -0.560755 1.47286 0
M  V30 23003 C 2153.08 -1.6502 1.59063 0
M  V30 23004 C 2154.08 -1.539 0.465997 0
M  V30 23005 O 2155.27 -1.58122 0.730962 0
M  V30 23006 C 2152.4 -3.04548 1.53177 0
M  V30 23007 H 2153.59 -1.5593 2.56176 0
M  V30 23008 H 2151.14 -0.780391 1.35424 0
M  V30 23009 H 2151.88 -3.19175 0.574264 0
M  V30 23010 H 2151.66 -3.14029 2.34794 0
M  V30 23011 H 2153.15 -3.83814 1.64549 0
M  V30 23012 N 2153.59 -1.35359 -0.807199 0
M  V30 23013 C 2154.55 -1.28103 -1.90059 0
M  V30 23014 C 2155.55 -0.192614 -1.59642 0
M  V30 23015 O 2156.74 -0.446274 -1.68387 0
M  V30 23016 C 2153.88 -0.981581 -3.26463 0
M  V30 23017 H 2155.07 -2.25323 -1.97912 0
M  V30 23018 H 2152.62 -1.19874 -1.00299 0
M  V30 23019 H 2153.36 -0.013209 -3.24297 0
M  V30 23020 H 2153.14 -1.76903 -3.49925 0
M  V30 23021 H 2154.63 -0.956397 -4.06501 0
M  V30 23022 N 2155.07 1.02928 -1.19346 0
M  V30 23023 C 2156.02 2.1331 -0.927441 0
M  V30 23024 C 2157.01 1.68998 0.116575 0
M  V30 23025 O 2158.22 1.7997 -0.0326311 0
M  V30 23026 H 2154.59 0.696916 -0.282511 0
M  V30 23027 H 2156.56 2.32939 -1.865 0
M  V30 23028 C 2155.31 3.4434 -0.482194 0
M  V30 23029 H 2154.64 3.78854 -1.27709 0
M  V30 23030 H 2156.08 4.22673 -0.335159 0
M  V30 23031 C 2154.53 3.27174 0.803669 0
M  V30 23032 O 2155.06 3.55772 1.86519 0
M  V30 23033 N 2153.27 2.80466 0.760745 0
M  V30 23034 H 2152.82 2.57393 -0.103346 0
M  V30 23035 H 2152.78 2.69361 1.62149 0
M  V30 23036 N 2156.55 0.997319 1.2203 0
M  V30 23037 C 2157.82 0.59145 1.86444 0
M  V30 23038 C 2158.2 -0.931144 1.89454 0
M  V30 23039 O 2157.55 -1.81492 1.38827 0
M  V30 23040 C 2157.76 1.21697 3.27095 0
M  V30 23041 C 2159.11 1.32027 4.03552 0
M  V30 23042 O 2160.13 1.1717 3.36377 0
M  V30 23043 O 2158.99 1.55846 5.23807 0
M  V30 23044 H 2156.09 0.201545 0.802065 0
M  V30 23045 H 2158.63 1.09348 1.29773 0
M  V30 23046 H 2157.41 2.25823 3.19562 0
M  V30 23047 H 2157.03 0.70081 3.91375 0
M  V30 23048 N 2158.03 -1.37449 0.771075 0
M  V30 23049 C 2158.96 -2.32874 0.170867 0
M  V30 23050 C 2159.94 -1.55746 -0.683892 0
M  V30 23051 O 2161.12 -1.83987 -0.621492 0
M  V30 23052 C 2158.25 -3.39974 -0.709566 0
M  V30 23053 C 2157.21 -4.27978 0.0438353 0
M  V30 23054 C 2156.53 -5.26084 -0.955998 0
M  V30 23055 C 2157.83 -5.07793 1.22245 0
M  V30 23056 H 2159.53 -2.83319 0.968038 0
M  V30 23057 H 2157.07 -1.36219 0.466952 0
M  V30 23058 H 2159.03 -4.05708 -1.13926 0
M  V30 23059 H 2157.75 -2.88053 -1.53925 0
M  V30 23060 H 2156.41 -3.63774 0.454301 0
M  V30 23061 H 2156.06 -4.70444 -1.78021 0
M  V30 23062 H 2155.76 -5.85824 -0.456445 0
M  V30 23063 H 2157.28 -5.94693 -1.38465 0
M  V30 23064 H 2158.69 -5.66669 0.869436 0
M  V30 23065 H 2157.09 -5.76855 1.65404 0
M  V30 23066 H 2158.16 -4.40506 2.02688 0
M  V30 23067 N 2159.5 -0.52156 -1.4872 0
M  V30 23068 C 2160.45 0.2458 -2.29487 0
M  V30 23069 C 2161.42 0.941571 -1.36834 0
M  V30 23070 O 2162.61 0.944239 -1.65797 0
M  V30 23071 C 2159.75 1.2919 -3.20006 0
M  V30 23072 C 2158.86 0.605827 -4.27731 0
M  V30 23073 C 2157.99 1.63413 -5.0544 0
M  V30 23074 C 2157.03 0.931058 -6.04977 0
M  V30 23075 N 2156.17 1.90451 -6.75776 0
M  V30 23076 H 2161.01 -0.449151 -2.94596 0
M  V30 23077 H 2158.55 -0.233338 -1.45238 0
M  V30 23078 H 2160.51 1.91062 -3.70879 0
M  V30 23079 H 2159.14 1.95534 -2.56839 0
M  V30 23080 H 2158.19 -0.126644 -3.80189 0
M  V30 23081 H 2159.5 0.0533786 -4.98771 0
M  V30 23082 H 2158.65 2.32736 -5.60285 0
M  V30 23083 H 2157.39 2.22047 -4.3422 0
M  V30 23084 H 2156.4 0.223716 -5.49345 0
M  V30 23085 H 2157.62 0.350949 -6.78193 0
M  V30 23086 H 2155.57 2.48008 -6.07312 0
M  V30 23087 H 2155.49 1.40328 -7.42862 0
M  V30 23088 H 2156.75 2.58999 -7.35214 0
M  V30 23089 N 2160.98 1.55502 -0.256304 0
M  V30 23090 C 2162.23 2.00199 0.359433 0
M  V30 23091 C 2162.58 1.14151 1.54879 0
M  V30 23092 O 2161.88 0.199193 1.90562 0
M  V30 23093 C 2162.07 3.48098 0.810077 0
M  V30 23094 C 2161.9 4.48457 -0.334065 0
M  V30 23095 C 2160.67 4.98736 -0.811792 0
M  V30 23096 C 2162.87 5.00949 -1.16425 0
M  V30 23097 N 2160.85 5.8286 -1.92736 0
M  V30 23098 C 2162.22 5.82336 -2.12803 0
M  V30 23099 C 2164.28 4.83229 -1.19974 0
M  V30 23100 C 2162.98 6.47893 -3.12453 0
M  V30 23101 C 2165 5.49572 -2.18458 0
M  V30 23102 C 2164.37 6.30755 -3.13572 0
M  V30 23103 H 2160.47 0.775933 0.0972204 0
M  V30 23104 H 2163.05 1.91034 -0.376031 0
M  V30 23105 H 2161.22 3.57642 1.51481 0
M  V30 23106 H 2162.95 3.79656 1.40156 0
M  V30 23107 H 2159.71 4.71956 -0.394311 0
M  V30 23108 H 2160.13 6.29617 -2.4882 0
M  V30 23109 H 2164.77 4.20087 -0.478238 0
M  V30 23110 H 2162.49 7.10197 -3.85546 0
M  V30 23111 H 2166.08 5.37812 -2.21922 0
M  V30 23112 H 2164.96 6.81184 -3.88533 0
M  V30 23113 N 2162.46 -0.0166879 1.57591 0
M  V30 23114 C 2163.39 -1.04126 2.04182 0
M  V30 23115 C 2164.41 -1.31719 0.956768 0
M  V30 23116 O 2165.59 -1.28988 1.23387 0
M  V30 23117 C 2162.69 -2.38001 2.41265 0
M  V30 23118 C 2161.87 -2.29588 3.72301 0
M  V30 23119 C 2160.93 -3.46013 3.96436 0
M  V30 23120 O 2159.95 -3.2495 4.67328 0
M  V30 23121 N 2161.15 -4.68304 3.43033 0
M  V30 23122 H 2163.92 -0.644054 2.92698 0
M  V30 23123 H 2161.48 -0.204401 1.60605 0
M  V30 23124 H 2163.47 -3.14631 2.54538 0
M  V30 23125 H 2162.04 -2.69522 1.58355 0
M  V30 23126 H 2161.26 -1.37977 3.69264 0
M  V30 23127 H 2162.55 -2.21122 4.58238 0
M  V30 23128 H 2161.95 -4.88316 2.85593 0
M  V30 23129 H 2160.51 -5.42256 3.61665 0
M  V30 23130 N 2163.94 -1.54924 -0.289176 0
M  V30 23131 C 2165.17 -1.78772 -1.04154 0
M  V30 23132 C 2165.58 -0.553005 -1.8052 0
M  V30 23133 O 2164.94 0.47752 -1.76142 0
M  V30 23134 C 2164.99 -3.00278 -2.01284 0
M  V30 23135 O 2164.71 -4.18979 -1.28015 0
M  V30 23136 C 2166.21 -3.36605 -2.88464 0
M  V30 23137 H 2163.43 -0.595936 -0.308384 0
M  V30 23138 H 2165.98 -2.01903 -0.324862 0
M  V30 23139 H 2164.13 -2.79321 -2.68438 0
M  V30 23140 H 2164.54 -4.87563 -1.93345 0
M  V30 23141 H 2166.02 -4.24837 -3.52446 0
M  V30 23142 H 2166.5 -2.55285 -3.57388 0
M  V30 23143 H 2167.1 -3.59764 -2.26825 0
M  V30 23144 N 2165.42 0.552936 -1.47582 0
M  V30 23145 C 2166.38 1.64175 -1.59936 0
M  V30 23146 C 2167.38 1.5365 -0.474152 0
M  V30 23147 O 2168.57 1.57732 -0.739338 0
M  V30 23148 C 2165.7 3.03732 -1.5479 0
M  V30 23149 H 2166.89 1.54569 -2.56999 0
M  V30 23150 H 2164.45 0.773198 -1.35836 0
M  V30 23151 H 2165.18 3.18866 -0.591183 0
M  V30 23152 H 2164.97 3.12779 -2.36456 0
M  V30 23153 H 2166.46 3.82936 -1.66582 0
M  V30 23154 N 2166.89 1.35785 0.800009 0
M  V30 23155 C 2168.14 1.2917 1.55434 0
M  V30 23156 C 2168.46 -0.131766 1.94554 0
M  V30 23157 O 2167.73 -1.06968 1.64118 0
M  V30 23158 H 2166.31 0.475134 0.576417 0
M  V30 23159 H 2168.98 1.69963 0.953872 0
M  V30 23160 H 2168.07 1.912 2.46676 0
M  V30 23161 N 2168.37 -1.02294 1.19891 0
M  V30 23162 C 2169.31 -2.10325 0.885357 0
M  V30 23163 C 2170.28 -1.61811 -0.160011 0
M  V30 23164 O 2171.47 -1.88468 -0.0349974 0
M  V30 23165 C 2168.59 -3.37126 0.326111 0
M  V30 23166 C 2167.64 -4.04521 1.35147 0
M  V30 23167 S 2168.47 -4.49261 2.91418 0
M  V30 23168 C 2169.63 -5.79273 2.37052 0
M  V30 23169 H 2169.86 -2.36598 1.80024 0
M  V30 23170 H 2167.4 -1.15319 1.02669 0
M  V30 23171 H 2169.35 -4.10499 0.00998612 0
M  V30 23172 H 2168.01 -3.08937 -0.567175 0
M  V30 23173 H 2167.21 -4.95727 0.909412 0
M  V30 23174 H 2166.81 -3.37345 1.61475 0
M  V30 23175 H 2169.1 -6.54127 1.76419 0
M  V30 23176 H 2170.04 -6.28267 3.26629 0
M  V30 23177 H 2170.45 -5.35231 1.79411 0
M  V30 23178 N 2169.85 -1.00378 -1.21499 0
M  V30 23179 C 2171.1 -0.68578 -1.90534 0
M  V30 23180 C 2171.43 0.783334 -1.78028 0
M  V30 23181 O 2170.68 1.58328 -1.15024 0
M  V30 23182 C 2170.98 -1.05103 -3.41596 0
M  V30 23183 C 2170.65 -2.51421 -3.74297 0
M  V30 23184 C 2169.31 -2.91403 -3.82933 0
M  V30 23185 C 2171.66 -3.46207 -3.89603 0
M  V30 23186 C 2168.99 -4.25137 -4.04321 0
M  V30 23187 C 2171.34 -4.79613 -4.12497 0
M  V30 23188 C 2170 -5.1932 -4.1936 0
M  V30 23189 H 2169.27 -0.250945 -0.697214 0
M  V30 23190 H 2171.92 -1.26199 -1.44035 0
M  V30 23191 H 2170.23 -0.393054 -3.89823 0
M  V30 23192 H 2171.92 -0.782861 -3.93284 0
M  V30 23193 H 2168.51 -2.19435 -3.68166 0
M  V30 23194 H 2172.7 -3.16483 -3.82299 0
M  V30 23195 H 2167.95 -4.55474 -4.07864 0
M  V30 23196 H 2172.13 -5.52996 -4.23283 0
M  V30 23197 H 2169.75 -6.22963 -4.35685 0
M  V30 23198 N 2171.33 1.37038 -0.778354 0
M  V30 23199 C 2172.74 1.52865 -0.458743 0
M  V30 23200 C 2172.94 1.73503 1.02465 0
M  V30 23201 O 2172 1.76017 1.81036 0
M  V30 23202 C 2173.31 2.72117 -1.27956 0
M  V30 23203 C 2174.86 2.85982 -1.27213 0
M  V30 23204 C 2175.34 4.08225 -2.07645 0
M  V30 23205 N 2176.83 4.1535 -2.05033 0
M  V30 23206 C 2177.56 5.08988 -2.64044 0
M  V30 23207 N 2177.06 6.0814 -3.3187 0
M  V30 23208 N 2178.85 5.0152 -2.53838 0
M  V30 23209 H 2171 1.21895 -1.73941 0
M  V30 23210 H 2173.27 0.594067 -0.738775 0
M  V30 23211 H 2172.97 2.63353 -2.33105 0
M  V30 23212 H 2172.85 3.65977 -0.913259 0
M  V30 23213 H 2175.23 2.94213 -0.228607 0
M  V30 23214 H 2175.31 1.93061 -1.67812 0
M  V30 23215 H 2174.96 4.00755 -3.12022 0
M  V30 23216 H 2174.89 5.00272 -1.64423 0
M  V30 23217 H 2177.38 3.44352 -1.55659 0
M  V30 23218 H 2177.69 6.76131 -3.74255 0
M  V30 23219 H 2176.04 6.08399 -3.3597 0
M  V30 23220 H 2179.23 4.23005 -2.0046 0
M  V30 23221 H 2179.4 5.7431 -3.00121 0
M  V30 23222 N 2172.81 0.529439 1.48441 0
M  V30 23223 C 2174.22 0.0888387 1.86489 0
M  V30 23224 C 2174.57 -1.33364 1.43905 0
M  V30 23225 O 2173.69 -1.9987 0.829524 0
M  V30 23226 C 2174.29 0.154445 3.38448 0
M  V30 23227 C 2172.85 -0.230958 3.75691 0
M  V30 23228 C 2172 0.514449 2.72486 0
M  V30 23229 H 2174.95 0.740717 1.40353 0
M  V30 23230 H 2174.97 -0.63398 3.75181 0
M  V30 23231 H 2174.48 1.18985 3.69411 0
M  V30 23232 H 2172.58 -1.26853 3.50341 0
M  V30 23233 H 2172.69 0.108275 4.78978 0
M  V30 23234 H 2171.06 -0.039218 2.5467 0
M  V30 23235 H 2171.84 1.55048 3.06293 0
M  V30 23236 N 2174.29 -1.55364 0.264547 0
M  V30 23237 C 2175.53 -1.9936 -0.355245 0
M  V30 23238 C 2175.86 -1.15288 -1.56649 0
M  V30 23239 O 2175.12 -0.207938 -1.94592 0
M  V30 23240 C 2175.41 -3.48523 -0.791605 0
M  V30 23241 C 2175.08 -4.49807 0.313834 0
M  V30 23242 C 2173.74 -4.77223 0.617396 0
M  V30 23243 C 2176.09 -5.10323 1.05925 0
M  V30 23244 C 2173.42 -5.62426 1.67014 0
M  V30 23245 C 2175.77 -5.96669 2.10163 0
M  V30 23246 C 2174.44 -6.22411 2.41165 0
M  V30 23247 H 2173.71 -0.729509 -0.129993 0
M  V30 23248 H 2176.36 -1.87771 0.376055 0
M  V30 23249 H 2174.66 -3.57534 -1.60241 0
M  V30 23250 H 2176.36 -3.79964 -1.28173 0
M  V30 23251 H 2172.95 -4.28547 0.0671074 0
M  V30 23252 H 2177.13 -4.89174 0.837979 0
M  V30 23253 H 2172.39 -5.8062 1.91547 0
M  V30 23254 H 2176.56 -6.42598 2.68403 0
M  V30 23255 H 2174.19 -6.88226 3.22876 0
M  V30 23256 N 2175.76 0.00833021 -1.57598 0
M  V30 23257 C 2177.01 0.695941 -1.90485 0
M  V30 23258 C 2177.34 1.73883 -0.864775 0
M  V30 23259 O 2176.62 1.94144 0.11758 0
M  V30 23260 C 2176.9 1.34667 -3.33971 0
M  V30 23261 C 2176.75 0.315885 -4.48689 0
M  V30 23262 C 2178.07 2.2751 -3.76732 0
M  V30 23263 H 2175.19 0.251528 -0.69275 0
M  V30 23264 H 2177.83 -0.0412539 -1.89955 0
M  V30 23265 H 2175.98 1.975 -3.34553 0
M  V30 23266 H 2177.66 -0.312127 -4.60243 0
M  V30 23267 H 2175.9 -0.362729 -4.32281 0
M  V30 23268 H 2176.57 0.810081 -5.46024 0
M  V30 23269 H 2179.05 1.74702 -3.77649 0
M  V30 23270 H 2177.92 2.70011 -4.77897 0
M  V30 23271 H 2178.18 3.15068 -3.10136 0
M  V30 23272 N 2177.24 1.55075 0.280956 0
M  V30 23273 C 2178.15 1.90495 1.36927 0
M  V30 23274 C 2179.17 0.801283 1.54452 0
M  V30 23275 O 2180.34 1.09962 1.68732 0
M  V30 23276 C 2177.41 2.16264 2.70981 0
M  V30 23277 C 2176.47 3.39872 2.6227 0
M  V30 23278 C 2175.7 3.64402 3.89932 0
M  V30 23279 O 2175.93 2.91582 4.90241 0
M  V30 23280 O 2174.86 4.57934 3.90615 0
M  V30 23281 H 2178.69 2.83123 1.09888 0
M  V30 23282 H 2176.27 1.4152 0.478787 0
M  V30 23283 H 2178.15 2.34299 3.5026 0
M  V30 23284 H 2176.83 1.2682 2.97823 0
M  V30 23285 H 2175.73 3.2718 1.81395 0
M  V30 23286 H 2177.07 4.2951 2.40379 0
M  V30 23287 N 2178.72 -0.545102 1.47873 0
M  V30 23288 C 2179.97 -1.30364 1.55348 0
M  V30 23289 C 2180.3 -1.92948 0.220182 0
M  V30 23290 O 2179.57 -1.78506 -0.772398 0
M  V30 23291 C 2179.86 -2.40454 2.68055 0
M  V30 23292 C 2179.71 -1.8266 4.11042 0
M  V30 23293 C 2181.03 -3.42314 2.76603 0
M  V30 23294 H 2178.15 -0.472628 0.565502 0
M  V30 23295 H 2180.79 -0.608798 1.79982 0
M  V30 23296 H 2178.94 -2.99722 2.47182 0
M  V30 23297 H 2180.61 -1.2756 4.43313 0
M  V30 23298 H 2178.85 -1.1327 4.18751 0
M  V30 23299 H 2179.53 -2.62302 4.85697 0
M  V30 23300 H 2182 -2.92981 2.95468 0
M  V30 23301 H 2180.88 -4.16757 3.57218 0
M  V30 23302 H 2181.14 -4.01923 1.84147 0
M  V30 23303 N 2180.2 -1.36208 -0.792797 0
M  V30 23304 C 2181.43 -1.33396 -1.58155 0
M  V30 23305 C 2181.84 0.0855356 -1.88606 0
M  V30 23306 O 2181.2 1.04147 -1.49865 0
M  V30 23307 C 2181.25 -2.15213 -2.90458 0
M  V30 23308 O 2180.97 -3.51629 -2.61321 0
M  V30 23309 C 2182.47 -2.20144 -3.84775 0
M  V30 23310 H 2179.69 -0.457713 -0.490652 0
M  V30 23311 H 2182.23 -1.79258 -0.984222 0
M  V30 23312 H 2180.39 -1.72915 -3.46669 0
M  V30 23313 H 2180.8 -3.94282 -3.45893 0
M  V30 23314 H 2182.28 -2.81755 -4.74677 0
M  V30 23315 H 2182.75 -1.20396 -4.22376 0
M  V30 23316 H 2183.36 -2.62663 -3.34497 0
M  V30 23317 N 2181.68 1.01656 -1.20431 0
M  V30 23318 C 2182.61 2.09853 -0.896499 0
M  V30 23319 C 2183.59 1.61893 0.151428 0
M  V30 23320 O 2184.77 1.88483 0.025002 0
M  V30 23321 C 2181.9 3.36949 -0.343986 0
M  V30 23322 C 2180.94 4.03799 -1.3729 0
M  V30 23323 S 2181.78 4.4771 -2.93796 0
M  V30 23324 C 2182.93 5.78008 -2.40121 0
M  V30 23325 H 2183.17 2.3564 -1.81277 0
M  V30 23326 H 2180.7 1.14773 -1.03279 0
M  V30 23327 H 2182.66 4.10488 -0.0317557 0
M  V30 23328 H 2181.32 3.09233 0.550783 0
M  V30 23329 H 2180.51 4.95238 -0.935689 0
M  V30 23330 H 2180.11 3.36484 -1.63261 0
M  V30 23331 H 2182.4 6.53183 -1.79885 0
M  V30 23332 H 2183.35 6.26525 -3.29957 0
M  V30 23333 H 2183.76 5.34272 -1.82247 0
M  V30 23334 N 2183.15 1.01021 1.20965 0
M  V30 23335 C 2184.4 0.696906 1.9045 0
M  V30 23336 C 2184.73 -0.770906 1.78243 0
M  V30 23337 O 2184.01 -1.55939 1.16246 0
M  V30 23338 C 2184.29 1.1252 3.42069 0
M  V30 23339 C 2184.14 2.65285 3.63241 0
M  V30 23340 C 2185.46 0.691566 4.34632 0
M  V30 23341 H 2182.58 0.254648 0.691609 0
M  V30 23342 H 2185.22 1.25681 1.42493 0
M  V30 23343 H 2183.37 0.648818 3.83044 0
M  V30 23344 H 2185.05 3.20727 3.3156 0
M  V30 23345 H 2183.29 3.06557 3.06929 0
M  V30 23346 H 2183.96 2.90306 4.69496 0
M  V30 23347 H 2186.44 1.10101 4.01269 0
M  V30 23348 H 2185.31 1.01935 5.39352 0
M  V30 23349 H 2185.57 -0.407073 4.40222 0
M  V30 23350 N 2184.63 -1.36623 0.78561 0
M  V30 23351 C 2185.88 -1.98948 0.355551 0
M  V30 23352 C 2186.2 -1.62665 -1.07541 0
M  V30 23353 O 2185.47 -0.89879 -1.74065 0
M  V30 23354 H 2184.05 -0.735869 0.128476 0
M  V30 23355 H 2186.71 -1.66881 1.00681 0
M  V30 23356 H 2185.81 -3.08921 0.444316 0
M  V30 23357 N 2186.11 -0.537304 -1.48158 0
M  V30 23358 C 2187.52 -0.0987274 -1.86439 0
M  V30 23359 C 2187.87 1.32599 -1.4461 0
M  V30 23360 O 2187 1.99427 -0.840112 0
M  V30 23361 C 2187.59 -0.172391 -3.38361 0
M  V30 23362 C 2186.15 0.211031 -3.75808 0
M  V30 23363 C 2185.3 -0.528892 -2.7221 0
M  V30 23364 H 2188.25 -0.74815 -1.39959 0
M  V30 23365 H 2188.27 0.614074 -3.75512 0
M  V30 23366 H 2187.78 -1.20942 -3.68774 0
M  V30 23367 H 2185.88 1.24993 -3.51009 0
M  V30 23368 H 2186 -0.133675 -4.78913 0
M  V30 23369 H 2184.36 0.0257117 -2.54687 0
M  V30 23370 H 2185.14 -1.5667 -3.05466 0
M  V30 23371 N 2187.59 1.55221 -0.272782 0
M  V30 23372 C 2188.54 2.19118 0.630176 0
M  V30 23373 C 2189.52 1.15507 1.12013 0
M  V30 23374 O 2190.71 1.4133 1.06559 0
M  V30 23375 C 2187.84 2.91401 1.81494 0
M  V30 23376 C 2186.93 4.02298 1.34228 0
M  V30 23377 N 2187.32 5.02399 0.585608 0
M  V30 23378 C 2185.62 4.15326 1.62543 0
M  V30 23379 C 2186.32 5.80721 0.337422 0
M  V30 23380 N 2185.3 5.35943 0.909166 0
M  V30 23381 H 2189.1 2.93867 0.0441972 0
M  V30 23382 H 2186.61 1.62221 -0.076237 0
M  V30 23383 H 2188.61 3.35625 2.47309 0
M  V30 23384 H 2187.27 2.18163 2.40489 0
M  V30 23385 H 2188.28 5.17375 0.233177 0
M  V30 23386 H 2184.96 3.53276 2.22491 0
M  V30 23387 H 2186.35 6.71364 -0.268428 0
M  V30 23388 N 2189.07 2.77022e-05 1.576 0
M  V30 23389 C 2190 -1.01955 2.05275 0
M  V30 23390 C 2191.01 -1.30696 0.970685 0
M  V30 23391 O 2192.2 -1.27672 1.24748 0
M  V30 23392 C 2189.3 -2.35429 2.43775 0
M  V30 23393 C 2188.47 -2.25626 3.74715 0
M  V30 23394 C 2187.53 -3.41789 4.00083 0
M  V30 23395 O 2186.56 -3.19975 4.70749 0
M  V30 23396 N 2187.76 -4.64639 3.47981 0
M  V30 23397 H 2190.53 -0.612973 2.93364 0
M  V30 23398 H 2188.09 -0.187355 1.60812 0
M  V30 23399 H 2190.08 -3.11913 2.57861 0
M  V30 23400 H 2188.65 -2.67828 1.61205 0
M  V30 23401 H 2187.87 -1.34052 3.70707 0
M  V30 23402 H 2189.16 -2.16249 4.60558 0
M  V30 23403 H 2188.55 -4.8526 2.90756 0
M  V30 23404 H 2187.11 -5.3839 3.67396 0
M  V30 23405 N 2190.54 -1.55222 -0.272728 0
M  V30 23406 C 2191.77 -1.80199 -1.02679 0
M  V30 23407 C 2192.19 -0.573583 -1.79141 0
M  V30 23408 O 2191.55 0.476818 -1.74918 0
M  V30 23409 C 2191.6 -3.02627 -1.96084 0
M  V30 23410 O 2190.7 -2.77732 -3.04858 0
M  V30 23411 H 2190.05 -0.595589 -0.293547 0
M  V30 23412 H 2192.58 -2.02366 -0.301554 0
M  V30 23413 H 2192.59 -3.31367 -2.38033 0
M  V30 23414 H 2191.26 -3.91684 -1.39844 0
M  V30 23415 H 2189.84 -2.60089 -2.67223 0
M  V30 23416 N 2192.02 0.537252 -1.4816 0
M  V30 23417 C 2193.3 1.29837 -1.46294 0
M  V30 23418 C 2193.68 2.10409 -0.17065 0
M  V30 23419 O 2193.03 2.12194 0.847709 0
M  V30 23420 C 2193.24 2.18598 -2.72058 0
M  V30 23421 C 2194.59 2.78974 -3.20092 0
M  V30 23422 O 2195.61 2.28889 -2.72925 0
M  V30 23423 O 2194.47 3.70057 -4.02144 0
M  V30 23424 H 2191.56 0.585637 -0.583916 0
M  V30 23425 H 2194.11 0.554506 -1.60385 0
M  V30 23426 H 2192.88 1.58795 -3.57631 0
M  V30 23427 H 2192.5 3.00244 -2.60651 0
M  V30 23428 N 2193.5 1.36626 0.785562 0
M  V30 23429 C 2194.45 1.31267 1.89836 0
M  V30 23430 C 2195.42 0.180662 1.65115 0
M  V30 23431 O 2196.6 0.367802 1.87221 0
M  V30 23432 C 2193.74 1.11168 3.26704 0
M  V30 23433 C 2192.86 2.33478 3.63472 0
M  V30 23434 C 2191.99 2.06361 4.89478 0
M  V30 23435 C 2191.03 3.24611 5.18935 0
M  V30 23436 N 2190.17 2.97134 6.36126 0
M  V30 23437 H 2195.01 2.26416 1.93752 0
M  V30 23438 H 2192.54 1.12526 0.947434 0
M  V30 23439 H 2194.5 0.975408 4.05637 0
M  V30 23440 H 2193.13 0.196731 3.222 0
M  V30 23441 H 2192.18 2.57896 2.79632 0
M  V30 23442 H 2193.5 3.21711 3.81187 0
M  V30 23443 H 2192.65 1.89685 5.76285 0
M  V30 23444 H 2191.39 1.15446 4.73839 0
M  V30 23445 H 2190.39 3.41842 4.30609 0
M  V30 23446 H 2191.62 4.16358 5.36491 0
M  V30 23447 H 2189.56 2.08834 6.21872 0
M  V30 23448 H 2189.48 3.78906 6.54191 0
M  V30 23449 H 2190.75 2.84046 7.25905 0
M  V30 23450 N 2194.98 -1.01016 1.20969 0
M  V30 23451 C 2195.93 -2.09689 0.964317 0
M  V30 23452 C 2196.9 -1.6575 -0.107824 0
M  V30 23453 O 2198.08 -1.90762 0.0382323 0
M  V30 23454 C 2195.22 -3.41014 0.52949 0
M  V30 23455 C 2194.33 -3.98395 1.6705 0
M  V30 23456 C 2193.47 -5.17806 1.18534 0
M  V30 23457 C 2192.51 -5.67284 2.29902 0
M  V30 23458 N 2191.64 -6.77951 1.82558 0
M  V30 23459 H 2196.48 -2.30013 1.89467 0
M  V30 23460 H 2194.02 -1.12788 0.944309 0
M  V30 23461 H 2195.98 -4.16397 0.258662 0
M  V30 23462 H 2194.61 -3.20743 -0.363862 0
M  V30 23463 H 2193.66 -3.20046 2.05609 0
M  V30 23464 H 2194.97 -4.31113 2.50885 0
M  V30 23465 H 2194.13 -6.00417 0.870867 0
M  V30 23466 H 2192.87 -4.86669 0.316973 0
M  V30 23467 H 2191.87 -4.83273 2.62158 0
M  V30 23468 H 2193.1 -6.00453 3.17226 0
M  V30 23469 H 2191.04 -6.4863 0.980568 0
M  V30 23470 H 2190.96 -7.09896 2.59969 0
M  V30 23471 H 2192.23 -7.6411 1.54129 0
M  V30 23472 N 2196.46 -1.01661 -1.20428 0
M  V30 23473 C 2197.87 -0.731467 -1.41851 0
M  V30 23474 C 2198.07 0.688865 -1.89359 0
M  V30 23475 O 2197.13 1.45662 -2.06249 0
M  V30 23476 C 2198.44 -1.75718 -2.44016 0
M  V30 23477 C 2199.99 -1.77532 -2.57782 0
M  V30 23478 C 2200.46 -2.7903 -3.63189 0
M  V30 23479 N 2201.96 -2.7777 -3.70673 0
M  V30 23480 C 2202.69 -3.52962 -4.51891 0
M  V30 23481 N 2202.19 -4.3783 -5.36914 0
M  V30 23482 N 2203.98 -3.41559 -4.46424 0
M  V30 23483 H 2196.13 -1.93355 -0.879059 0
M  V30 23484 H 2198.39 -0.835244 -0.448411 0
M  V30 23485 H 2198.1 -2.77473 -2.16105 0
M  V30 23486 H 2197.97 -1.56933 -3.43004 0
M  V30 23487 H 2200.36 -0.764619 -2.85022 0
M  V30 23488 H 2200.44 -2.0039 -1.58989 0
M  V30 23489 H 2200.09 -3.80264 -3.36693 0
M  V30 23490 H 2200.02 -2.53433 -4.61605 0
M  V30 23491 H 2202.51 -2.16206 -3.09941 0
M  V30 23492 H 2202.82 -4.91973 -5.95972 0
M  V30 23493 H 2201.16 -4.41908 -5.36416 0
M  V30 23494 H 2204.36 -2.74679 -3.79037 0
M  V30 23495 H 2204.53 -4.00413 -5.09484 0
M  V30 23496 N 2197.93 1.36205 -0.792844 0
M  V30 23497 C 2198.88 2.30003 -0.191693 0
M  V30 23498 C 2199.85 1.52145 0.666426 0
M  V30 23499 O 2201.04 1.80638 0.614388 0
M  V30 23500 C 2198.18 3.38636 0.664788 0
M  V30 23501 C 2197.29 4.31478 -0.212251 0
M  V30 23502 C 2196.42 5.27197 0.650929 0
M  V30 23503 C 2195.46 6.11678 -0.227354 0
M  V30 23504 N 2194.6 6.99574 0.595004 0
M  V30 23505 H 2199.44 2.80826 -0.997027 0
M  V30 23506 H 2196.98 1.38224 -0.503231 0
M  V30 23507 H 2198.94 4.00271 1.17638 0
M  V30 23508 H 2197.57 2.89124 1.43552 0
M  V30 23509 H 2196.62 3.70968 -0.841842 0
M  V30 23510 H 2197.93 4.90817 -0.888837 0
M  V30 23511 H 2197.08 5.94138 1.2282 0
M  V30 23512 H 2195.82 4.68321 1.36113 0
M  V30 23513 H 2194.83 5.43696 -0.817 0
M  V30 23514 H 2196.05 6.7263 -0.935208 0
M  V30 23515 H 2194 6.43203 1.28943 0
M  V30 23516 H 2193.92 7.55996 -0.0238281 0
M  V30 23517 H 2195.18 7.70881 1.15599 0
M  V30 23518 N 2199.41 0.545154 1.47871 0
M  V30 23519 C 2200.66 0.0166214 2.02493 0
M  V30 23520 C 2200.99 -1.32834 1.42076 0
M  V30 23521 O 2200.24 -1.87472 0.561492 0
M  V30 23522 C 2200.54 -0.138607 3.57131 0
M  V30 23523 C 2200.21 1.13392 4.36409 0
M  V30 23524 C 2198.87 1.48264 4.5779 0
M  V30 23525 C 2201.22 1.97772 4.82219 0
M  V30 23526 C 2198.55 2.67385 5.22228 0
M  V30 23527 C 2200.9 3.16086 5.47971 0
M  V30 23528 C 2199.57 3.51285 5.67587 0
M  V30 23529 H 2198.84 0.0060822 0.740975 0
M  V30 23530 H 2201.48 0.714238 1.77682 0
M  V30 23531 H 2199.79 -0.919105 3.80867 0
M  V30 23532 H 2201.48 -0.562712 3.97032 0
M  V30 23533 H 2198.07 0.852371 4.20039 0
M  V30 23534 H 2202.26 1.72141 4.6549 0
M  V30 23535 H 2197.51 2.94841 5.35611 0
M  V30 23536 H 2201.69 3.81765 5.82433 0
M  V30 23537 H 2199.32 4.43686 6.1729 0
M  V30 23538 N 2200.89 -1.55074 0.28101 0
M  V30 23539 C 2202.12 -2.04133 -0.337257 0
M  V30 23540 C 2202.53 -1.15915 -1.49028 0
M  V30 23541 O 2201.89 -0.180491 -1.81605 0
M  V30 23542 C 2201.94 -3.52248 -0.812644 0
M  V30 23543 O 2201.66 -4.37109 0.294464 0
M  V30 23544 C 2203.16 -4.17218 -1.49812 0
M  V30 23545 H 2200.38 -0.666665 -0.0761521 0
M  V30 23546 H 2202.93 -2.00249 0.414822 0
M  V30 23547 H 2201.08 -3.56557 -1.5148 0
M  V30 23548 H 2201.5 -5.24451 -0.0720403 0
M  V30 23549 H 2202.97 -5.22441 -1.78211 0
M  V30 23550 H 2203.45 -3.65745 -2.43161 0
M  V30 23551 H 2204.05 -4.16929 -0.839669 0
M  V30 23552 N 2202.37 -0.00838561 -1.57598 0
M  V30 23553 C 2203.6 0.685456 -1.95216 0
M  V30 23554 C 2204.01 1.6684 -0.883736 0
M  V30 23555 O 2203.37 1.81989 0.136533 0
M  V30 23556 C 2203.42 1.41001 -3.32868 0
M  V30 23557 O 2203.14 0.466475 -4.35609 0
M  V30 23558 C 2204.64 2.19759 -3.84995 0
M  V30 23559 H 2201.86 0.190381 -0.643425 0
M  V30 23560 H 2204.41 -0.0619966 -2.04406 0
M  V30 23561 H 2202.56 2.10902 -3.2496 0
M  V30 23562 H 2202.98 0.978608 -5.1529 0
M  V30 23563 H 2204.45 2.6594 -4.83715 0
M  V30 23564 H 2204.93 3.0279 -3.18142 0
M  V30 23565 H 2205.53 1.54857 -3.96105 0
M  V30 23566 N 2203.85 1.55365 0.264492 0
M  V30 23567 C 2204.79 1.88827 1.32714 0
M  V30 23568 C 2205.76 0.740631 1.48674 0
M  V30 23569 O 2206.95 0.992686 1.62943 0
M  V30 23570 C 2204.09 2.17311 2.68086 0
M  V30 23571 C 2203.2 3.44789 2.60278 0
M  V30 23572 C 2202.34 3.6293 3.87885 0
M  V30 23573 C 2201.38 4.84071 3.74623 0
M  V30 23574 N 2200.51 4.98825 4.94083 0
M  V30 23575 H 2205.35 2.79458 1.03477 0
M  V30 23576 H 2202.89 1.38351 0.499733 0
M  V30 23577 H 2204.85 2.31827 3.4686 0
M  V30 23578 H 2203.48 1.29906 2.95507 0
M  V30 23579 H 2202.53 3.387 1.73167 0
M  V30 23580 H 2203.84 4.33703 2.46381 0
M  V30 23581 H 2203 3.7731 4.75102 0
M  V30 23582 H 2201.74 2.72217 4.04659 0
M  V30 23583 H 2200.74 4.69686 2.85789 0
M  V30 23584 H 2201.97 5.76227 3.5936 0
M  V30 23585 H 2199.91 4.11045 5.11252 0
M  V30 23586 H 2199.83 5.81798 4.8275 0
M  V30 23587 H 2201.1 5.17598 5.82848 0
M  V30 23588 N 2205.33 -0.529387 1.48443 0
M  V30 23589 C 2206.55 -1.31468 1.60409 0
M  V30 23590 C 2206.98 -1.86227 0.264771 0
M  V30 23591 O 2206.33 -1.64433 -0.763639 0
M  V30 23592 C 2206.38 -2.44096 2.65423 0
M  V30 23593 O 2205.49 -3.47149 2.22624 0
M  V30 23594 H 2204.83 -0.389348 0.53787 0
M  V30 23595 H 2207.36 -0.636931 1.94433 0
M  V30 23596 H 2207.37 -2.90274 2.86715 0
M  V30 23597 H 2206.04 -2.03601 3.62656 0
M  V30 23598 H 2204.62 -3.07086 2.11548 0
M  V30 23599 N 2206.8 -1.37041 -0.778305 0
M  V30 23600 C 2207.75 -1.32272 -1.89137 0
M  V30 23601 C 2208.72 -0.189416 -1.65016 0
M  V30 23602 O 2209.91 -0.377726 -1.87024 0
M  V30 23603 C 2207.05 -1.129 -3.2611 0
M  V30 23604 C 2206.16 -2.35403 -3.62229 0
M  V30 23605 C 2205.29 -2.08954 -4.88376 0
M  V30 23606 C 2204.33 -3.27359 -5.17206 0
M  V30 23607 N 2203.47 -3.00504 -6.34541 0
M  V30 23608 H 2208.31 -2.2744 -1.92548 0
M  V30 23609 H 2205.85 -1.13027 -0.941453 0
M  V30 23610 H 2207.8 -0.996907 -4.05114 0
M  V30 23611 H 2206.43 -0.213815 -3.22091 0
M  V30 23612 H 2205.49 -2.59375 -2.7826 0
M  V30 23613 H 2206.8 -3.23728 -3.79476 0
M  V30 23614 H 2205.95 -1.92739 -5.75271 0
M  V30 23615 H 2204.69 -1.17957 -4.7322 0
M  V30 23616 H 2203.7 -3.4412 -4.2879 0
M  V30 23617 H 2204.92 -4.19198 -5.34275 0
M  V30 23618 H 2202.87 -2.12129 -6.20755 0
M  V30 23619 H 2202.78 -3.8237 -6.52173 0
M  V30 23620 H 2204.05 -2.87891 -7.24389 0
M  V30 23621 N 2208.28 1.00373 -1.21503 0
M  V30 23622 C 2209.51 1.78278 -1.0598 0
M  V30 23623 C 2209.93 1.84098 0.385962 0
M  V30 23624 O 2209.29 1.28549 1.27847 0
M  V30 23625 C 2209.34 3.1996 -1.66307 0
M  V30 23626 O 2208.44 4.02248 -0.909404 0
M  V30 23627 H 2207.78 0.54939 -0.372916 0
M  V30 23628 H 2210.31 1.26162 -1.61072 0
M  V30 23629 H 2210.32 3.70629 -1.70581 0
M  V30 23630 H 2209 3.15038 -2.71521 0
M  V30 23631 H 2207.57 3.60809 -0.941859 0
M  V30 23632 N 2209.76 1.02298 1.19887 0
M  V30 23633 C 2210.71 0.59212 2.24937 0
M  V30 23634 C 2211.7 -0.372328 1.65258 0
M  V30 23635 O 2212.91 -0.241551 1.78372 0
M  V30 23636 H 2209.28 0.173195 0.731784 0
M  V30 23637 H 2211.25 1.4889 2.58601 0
M  V30 23638 C 2210 -0.0472899 3.47668 0
M  V30 23639 H 2209.33 0.685841 3.93873 0
M  V30 23640 H 2210.77 -0.311787 4.22852 0
M  V30 23641 C 2209.22 -1.29207 3.11139 0
M  V30 23642 O 2209.75 -2.38474 3.23254 0
M  V30 23643 N 2207.96 -1.17858 2.65627 0
M  V30 23644 H 2207.51 -0.289448 2.55969 0
M  V30 23645 H 2207.47 -2.01241 2.41556 0
M  V30 23646 N 2211.24 -1.35782 0.800057 0
M  V30 23647 C 2212.19 -2.3179 0.193891 0
M  V30 23648 C 2213.18 -1.5632 -0.652717 0
M  V30 23649 O 2214.39 -1.715 -0.546611 0
M  V30 23650 H 2210.76 -0.750716 0.0439332 0
M  V30 23651 H 2212.73 -2.80467 1.01888 0
M  V30 23652 C 2211.48 -3.41603 -0.648278 0
M  V30 23653 H 2210.8 -3.998 -0.00617638 0
M  V30 23654 H 2212.24 -4.11075 -1.0389 0
M  V30 23655 C 2210.7 -2.84082 -1.81105 0
M  V30 23656 O 2211.23 -2.77104 -2.9082 0
M  V30 23657 N 2209.44 -2.41221 -1.62051 0
M  V30 23658 H 2208.99 -2.47097 -0.72808 0
M  V30 23659 H 2208.94 -2.03083 -2.4001 0
M  V30 23660 N 2212.72 -0.552988 -1.4758 0
M  V30 23661 C 2213.96 -0.0356165 -2.03369 0
M  V30 23662 C 2214.32 1.29802 -1.42018 0
M  V30 23663 O 2213.61 1.83082 -0.56495 0
M  V30 23664 C 2213.8 0.119666 -3.572 0
M  V30 23665 C 2213.63 -1.19737 -4.33466 0
M  V30 23666 C 2212.4 -1.76353 -4.73527 0
M  V30 23667 C 2214.6 -2.11359 -4.68862 0
M  V30 23668 N 2212.58 -3.02106 -5.3442 0
M  V30 23669 C 2213.95 -3.2169 -5.30014 0
M  V30 23670 C 2216.01 -2.11404 -4.50791 0
M  V30 23671 C 2214.71 -4.32161 -5.75004 0
M  V30 23672 C 2216.74 -3.20885 -4.96777 0
M  V30 23673 C 2216.1 -4.29936 -5.57974 0
M  V30 23674 H 2212.2 -0.0550943 -0.780057 0
M  V30 23675 H 2214.78 -0.739347 -1.80116 0
M  V30 23676 H 2212.95 0.792513 -3.80229 0
M  V30 23677 H 2214.69 0.638721 -3.99628 0
M  V30 23678 H 2211.44 -1.30204 -4.5535 0
M  V30 23679 H 2211.86 -3.66192 -5.69414 0
M  V30 23680 H 2216.51 -1.28379 -4.02838 0
M  V30 23681 H 2214.22 -5.15949 -6.2195 0
M  V30 23682 H 2217.81 -3.22002 -4.84568 0
M  V30 23683 H 2216.69 -5.13253 -5.92909 0
M  V30 23684 N 2214.19 1.54923 -0.28923 0
M  V30 23685 C 2215.42 2.04309 0.326427 0
M  V30 23686 C 2215.84 1.16703 1.48411 0
M  V30 23687 O 2215.19 0.190119 1.81507 0
M  V30 23688 C 2215.24 3.52674 0.793952 0
M  V30 23689 O 2214.97 4.36947 -0.317641 0
M  V30 23690 C 2216.47 4.18007 1.47598 0
M  V30 23691 H 2213.69 0.667059 0.0726155 0
M  V30 23692 H 2216.23 2.00026 -0.425436 0
M  V30 23693 H 2214.39 3.57355 1.49587 0
M  V30 23694 H 2214.8 5.24481 0.0442264 0
M  V30 23695 H 2216.27 5.23379 1.75438 0
M  V30 23696 H 2216.75 3.67029 2.41218 0
M  V30 23697 H 2217.36 4.17368 0.817547 0
M  V30 23698 N 2215.67 0.0167433 1.57591 0
M  V30 23699 C 2217.08 -0.523803 1.79202 0
M  V30 23700 C 2217.43 -1.72982 0.925826 0
M  V30 23701 O 2216.56 -2.15992 0.13283 0
M  V30 23702 C 2217.15 -0.957034 3.25002 0
M  V30 23703 C 2215.71 -1.44277 3.47651 0
M  V30 23704 C 2214.86 -0.401709 2.74375 0
M  V30 23705 H 2217.81 0.242844 1.56831 0
M  V30 23706 H 2217.83 -1.82213 3.34034 0
M  V30 23707 H 2217.34 -0.0790733 3.88019 0
M  V30 23708 H 2215.44 -2.34107 2.8987 0
M  V30 23709 H 2215.56 -1.45869 4.56354 0
M  V30 23710 H 2213.92 -0.867079 2.39487 0
M  V30 23711 H 2214.7 0.467573 3.40101 0
M  V30 23712 N 2217.15 -1.55503 -0.256249 0
M  V30 23713 C 2218.1 -1.89528 -1.3171 0
M  V30 23714 C 2219.07 -0.748505 -1.48279 0
M  V30 23715 O 2220.25 -1.00131 -1.62414 0
M  V30 23716 C 2217.39 -2.1873 -2.66929 0
M  V30 23717 C 2216.51 -3.46165 -2.58445 0
M  V30 23718 C 2215.64 -3.64982 -3.85955 0
M  V30 23719 C 2214.68 -4.86051 -3.7205 0
M  V30 23720 N 2213.82 -5.01438 -4.91431 0
M  V30 23721 H 2218.66 -2.80003 -1.01993 0
M  V30 23722 H 2216.19 -1.38614 -0.492389 0
M  V30 23723 H 2218.15 -2.33663 -3.45626 0
M  V30 23724 H 2216.78 -1.31471 -2.94814 0
M  V30 23725 H 2215.83 -3.39613 -1.71368 0
M  V30 23726 H 2217.15 -4.35003 -2.44077 0
M  V30 23727 H 2216.3 -3.79824 -4.73095 0
M  V30 23728 H 2215.04 -2.7436 -4.0321 0
M  V30 23729 H 2214.04 -4.71195 -2.83294 0
M  V30 23730 H 2215.27 -5.78125 -3.56299 0
M  V30 23731 H 2213.21 -4.1375 -5.09065 0
M  V30 23732 H 2213.13 -5.8435 -4.79658 0
M  V30 23733 H 2214.4 -5.20682 -5.80095 0
M  V30 23734 N 2218.63 0.521507 -1.48721 0
M  V30 23735 C 2219.86 1.29951 -1.60612 0
M  V30 23736 C 2220.27 1.87281 -0.26876 0
M  V30 23737 O 2219.61 1.67549 0.753192 0
M  V30 23738 C 2219.67 2.48256 -2.60017 0
M  V30 23739 C 2219.34 2.1195 -4.04878 0
M  V30 23740 C 2220.33 1.67123 -4.92307 0
M  V30 23741 C 2218.02 2.22213 -4.50474 0
M  V30 23742 C 2220.01 1.33036 -6.23362 0
M  V30 23743 C 2217.7 1.87738 -5.81548 0
M  V30 23744 C 2218.7 1.43222 -6.67815 0
M  V30 23745 O 2218.38 1.09203 -7.96448 0
M  V30 23746 H 2218.12 0.401131 -0.544123 0
M  V30 23747 H 2220.67 0.634924 -1.9534 0
M  V30 23748 H 2218.9 3.17724 -2.20428 0
M  V30 23749 H 2220.59 3.1031 -2.61653 0
M  V30 23750 H 2221.36 1.58657 -4.58315 0
M  V30 23751 H 2217.23 2.55817 -3.83509 0
M  V30 23752 H 2220.78 0.982178 -6.90651 0
M  V30 23753 H 2216.68 1.95847 -6.15072 0
M  V30 23754 H 2217.44 1.22528 -8.09277 0
M  V30 23755 N 2220.11 1.37452 0.771027 0
M  V30 23756 C 2221.05 1.33361 1.90572 0
M  V30 23757 C 2222.05 0.22227 1.67935 0
M  V30 23758 O 2223.25 0.390335 1.75717 0
M  V30 23759 H 2219.63 0.415623 0.626707 0
M  V30 23760 H 2221.6 2.29148 1.91138 0
M  V30 23761 C 2220.35 1.15819 3.27843 0
M  V30 23762 H 2219.67 2.00589 3.45838 0
M  V30 23763 H 2221.11 1.17007 4.07536 0
M  V30 23764 C 2219.57 -0.136106 3.36625 0
M  V30 23765 O 2220.1 -1.11942 3.85787 0
M  V30 23766 N 2218.31 -0.187048 2.89997 0
M  V30 23767 H 2217.85 0.613797 2.50181 0
M  V30 23768 H 2217.81 -1.05266 2.96254 0
M  V30 23769 N 2221.58 -0.997276 1.22033 0
M  V30 23770 C 2222.49 -2.1209 1.00275 0
M  V30 23771 C 2223.51 -1.73935 -0.0475905 0
M  V30 23772 O 2224.69 -2.00883 0.144171 0
M  V30 23773 C 2221.75 -3.41839 0.578509 0
M  V30 23774 C 2220.81 -3.94122 1.70196 0
M  V30 23775 C 2220.05 -5.17679 1.29787 0
M  V30 23776 O 2220.27 -5.70132 0.174776 0
M  V30 23777 O 2219.2 -5.63603 2.11271 0
M  V30 23778 H 2223.03 -2.33327 1.94402 0
M  V30 23779 H 2220.61 -1.10464 1.00589 0
M  V30 23780 H 2222.5 -4.19927 0.352072 0
M  V30 23781 H 2221.17 -3.21973 -0.333962 0
M  V30 23782 H 2220.08 -3.17227 1.98287 0
M  V30 23783 H 2221.41 -4.18413 2.59213 0
M  V30 23784 N 2223.06 -1.02932 -1.19343 0
M  V30 23785 C 2224.29 -0.745678 -1.92995 0
M  V30 23786 C 2224.71 0.695558 -1.7552 0
M  V30 23787 O 2224.06 1.47304 -1.0774 0
M  V30 23788 C 2224.11 -1.08798 -3.44739 0
M  V30 23789 O 2223.83 -2.47262 -3.61653 0
M  V30 23790 C 2225.34 -0.827206 -4.35514 0
M  V30 23791 H 2222.56 -0.272812 -0.613037 0
M  V30 23792 H 2225.1 -1.37393 -1.51471 0
M  V30 23793 H 2223.25 -0.504899 -3.84096 0
M  V30 23794 H 2223.67 -2.60023 -4.55509 0
M  V30 23795 H 2225.14 -1.11668 -5.40587 0
M  V30 23796 H 2225.62 0.238359 -4.38553 0
M  V30 23797 H 2226.23 -1.39304 -4.01839 0
M  V30 23798 N 2224.54 1.35356 -0.807246 0
M  V30 23799 C 2225.79 1.9875 -0.387923 0
M  V30 23800 C 2226.12 1.64039 1.04506 0
M  V30 23801 O 2225.37 0.895977 1.73985 0
M  V30 23802 C 2225.67 3.5361 -0.519098 0
M  V30 23803 C 2225.34 4.08191 -1.91549 0
M  V30 23804 C 2224 4.22809 -2.29752 0
M  V30 23805 C 2226.35 4.37739 -2.82903 0
M  V30 23806 C 2223.68 4.64294 -3.58676 0
M  V30 23807 C 2226.03 4.80663 -4.11274 0
M  V30 23808 C 2224.69 4.93486 -4.49475 0
M  V30 23809 H 2223.96 0.727276 -0.141951 0
M  V30 23810 H 2226.61 1.61558 -1.02816 0
M  V30 23811 H 2224.92 3.91265 0.204589 0
M  V30 23812 H 2226.61 4.00616 -0.175415 0
M  V30 23813 H 2223.2 3.97265 -1.60869 0
M  V30 23814 H 2227.39 4.25997 -2.54637 0
M  V30 23815 H 2222.64 4.72411 -3.88121 0
M  V30 23816 H 2226.82 5.02487 -4.82161 0
M  V30 23817 H 2224.44 5.2539 -5.49427 0
M  V30 23818 N 2226.02 0.560807 1.47284 0
M  V30 23819 C 2226.97 -0.205344 2.27073 0
M  V30 23820 C 2227.95 -0.88202 1.34571 0
M  V30 23821 O 2229.14 -0.779732 1.589 0
M  V30 23822 C 2226.27 -1.23241 3.20416 0
M  V30 23823 C 2225.36 -0.558967 4.204 0
M  V30 23824 N 2225.75 0.373016 5.04423 0
M  V30 23825 C 2224.05 -0.812445 4.38538 0
M  V30 23826 C 2224.75 0.764548 5.76654 0
M  V30 23827 N 2223.73 0.118575 5.43471 0
M  V30 23828 H 2227.53 0.511168 2.89421 0
M  V30 23829 H 2225.04 0.381002 1.57867 0
M  V30 23830 H 2227.04 -1.79528 3.76265 0
M  V30 23831 H 2225.7 -1.94998 2.59627 0
M  V30 23832 H 2226.71 0.747377 5.12479 0
M  V30 23833 H 2223.39 -1.51825 3.88916 0
M  V30 23834 H 2224.78 1.53057 6.54235 0
M  V30 23835 N 2227.5 -1.54768 0.297442 0
M  V30 23836 C 2228.74 -2.00068 -0.312878 0
M  V30 23837 C 2229.07 -1.18584 -1.54169 0
M  V30 23838 O 2228.33 -0.249167 -1.94107 0
M  V30 23839 C 2228.63 -3.50124 -0.7175 0
M  V30 23840 C 2228.29 -4.4904 0.409174 0
M  V30 23841 C 2226.95 -4.75806 0.718483 0
M  V30 23842 C 2229.31 -5.07961 1.16726 0
M  V30 23843 C 2226.63 -5.58757 1.78906 0
M  V30 23844 C 2228.99 -5.92077 2.22772 0
M  V30 23845 C 2227.65 -6.17156 2.54313 0
M  V30 23846 H 2226.92 -0.732102 -0.11449 0
M  V30 23847 H 2229.57 -1.86931 0.4158 0
M  V30 23848 H 2227.87 -3.60852 -1.52621 0
M  V30 23849 H 2229.57 -3.82597 -1.20084 0
M  V30 23850 H 2226.16 -4.28309 0.157994 0
M  V30 23851 H 2230.34 -4.87287 0.941552 0
M  V30 23852 H 2225.6 -5.76426 2.0382 0
M  V30 23853 H 2229.77 -6.36761 2.81973 0
M  V30 23854 H 2227.4 -6.81223 3.37402 0
M  V30 23855 N 2228.97 -0.0251005 -1.5758 0
M  V30 23856 C 2229.9 0.956538 -2.13008 0
M  V30 23857 C 2230.89 1.34198 -1.04523 0
M  V30 23858 O 2232.07 1.42131 -1.32335 0
M  V30 23859 C 2229.2 2.24022 -2.6539 0
M  V30 23860 C 2228.15 1.99565 -3.78626 0
M  V30 23861 C 2227.48 3.34163 -4.1742 0
M  V30 23862 C 2228.78 1.33805 -5.0487 0
M  V30 23863 H 2230.47 0.494939 -2.95281 0
M  V30 23864 H 2228.02 0.236627 -1.42043 0
M  V30 23865 H 2229.97 2.93071 -3.02799 0
M  V30 23866 H 2228.7 2.7234 -1.80273 0
M  V30 23867 H 2227.36 1.32935 -3.41649 0
M  V30 23868 H 2227 3.80232 -3.29291 0
M  V30 23869 H 2226.7 3.18606 -4.93724 0
M  V30 23870 H 2228.23 4.04486 -4.57409 0
M  V30 23871 H 2229.64 1.92848 -5.39891 0
M  V30 23872 H 2228.04 1.28659 -5.86146 0
M  V30 23873 H 2229.11 0.310476 -4.83905 0
M  V30 23874 N 2230.45 1.55637 0.247999 0
M  V30 23875 C 2231.38 1.9324 1.31075 0
M  V30 23876 C 2232.36 0.797201 1.50262 0
M  V30 23877 O 2233.55 1.0574 1.62889 0
M  V30 23878 C 2230.68 2.22614 2.66571 0
M  V30 23879 C 2229.63 3.38375 2.62081 0
M  V30 23880 C 2228.96 3.53288 4.01362 0
M  V30 23881 C 2230.26 4.74094 2.19163 0
M  V30 23882 H 2231.95 2.82259 0.998506 0
M  V30 23883 H 2229.5 1.35804 0.478886 0
M  V30 23884 H 2231.45 2.47509 3.41053 0
M  V30 23885 H 2230.18 1.30419 2.9943 0
M  V30 23886 H 2228.83 3.13487 1.90057 0
M  V30 23887 H 2228.48 2.58515 4.31484 0
M  V30 23888 H 2228.18 4.31134 3.99246 0
M  V30 23889 H 2229.71 3.80503 4.77546 0
M  V30 23890 H 2231.12 4.98368 2.83376 0
M  V30 23891 H 2229.52 5.55034 2.2816 0
M  V30 23892 H 2230.59 4.7123 1.14327 0
M  V30 23893 N 2231.93 -0.513613 1.48996 0
M  V30 23894 C 2233.18 -1.26601 1.57533 0
M  V30 23895 C 2233.5 -1.93282 0.25827 0
M  V30 23896 O 2232.77 -1.82131 -0.72147 0
M  V30 23897 H 2231.35 -0.470266 0.580396 0
M  V30 23898 H 2234.01 -0.596341 1.85553 0
M  V30 23899 H 2233.11 -2.03664 2.36489 0
M  V30 23900 N 2233.41 -1.37859 -0.763727 0
M  V30 23901 C 2234.36 -1.3437 -1.89862 0
M  V30 23902 C 2235.35 -0.231173 -1.67815 0
M  V30 23903 O 2236.56 -0.399648 -1.75507 0
M  V30 23904 H 2232.93 -0.418941 -0.624494 0
M  V30 23905 H 2234.9 -2.30158 -1.89921 0
M  V30 23906 C 2233.65 -1.17556 -3.27225 0
M  V30 23907 H 2232.98 -2.0242 -3.4477 0
M  V30 23908 H 2234.42 -1.19167 -4.06909 0
M  V30 23909 C 2232.87 0.118252 -3.36692 0
M  V30 23910 O 2233.4 1.09895 -3.86375 0
M  V30 23911 N 2231.61 0.171666 -2.90093 0
M  V30 23912 H 2231.16 -0.627056 -2.49851 0
M  V30 23913 H 2231.12 1.03694 -2.96808 0
M  V30 23914 N 2234.89 0.990791 -1.22561 0
M  V30 23915 C 2235.8 2.11555 -1.01398 0
M  V30 23916 C 2236.81 1.73958 0.0383656 0
M  V30 23917 O 2237.99 2.00804 -0.154822 0
M  V30 23918 C 2235.05 3.41528 -0.596629 0
M  V30 23919 C 2234.12 3.93214 -1.72283 0
M  V30 23920 C 2233.35 5.16983 -1.3253 0
M  V30 23921 O 2233.57 5.70031 -0.205009 0
M  V30 23922 O 2232.51 5.62475 -2.14257 0
M  V30 23923 H 2236.33 2.32293 -1.95637 0
M  V30 23924 H 2233.92 1.09929 -1.01174 0
M  V30 23925 H 2235.8 4.19734 -0.374337 0
M  V30 23926 H 2234.47 3.22145 0.316883 0
M  V30 23927 H 2233.38 3.16171 -1.99967 0
M  V30 23928 H 2234.71 4.17032 -2.61429 0
M  V30 23929 N 2236.37 1.03564 1.18795 0
M  V30 23930 C 2237.28 0.632544 2.25912 0
M  V30 23931 C 2238.29 -0.338852 1.70669 0
M  V30 23932 O 2239.47 -0.195041 2.00453 0
M  V30 23933 C 2236.53 -0.00344848 3.467 0
M  V30 23934 C 2235.59 1.01631 4.17097 0
M  V30 23935 C 2234.83 0.410571 5.32118 0
M  V30 23936 O 2235.05 -0.784626 5.64978 0
M  V30 23937 O 2233.98 1.13677 5.91068 0
M  V30 23938 H 2237.81 1.52483 2.62646 0
M  V30 23939 H 2235.39 0.806217 1.2578 0
M  V30 23940 H 2237.28 -0.357736 4.19879 0
M  V30 23941 H 2235.95 -0.869631 3.118 0
M  V30 23942 H 2234.86 1.4223 3.46008 0
M  V30 23943 H 2236.19 1.85309 4.55984 0
M  V30 23944 N 2237.84 -1.34926 0.814413 0
M  V30 23945 C 2239.09 -1.98149 0.397671 0
M  V30 23946 C 2239.41 -1.6491 -1.04066 0
M  V30 23947 O 2238.68 -0.93551 -1.72119 0
M  V30 23948 H 2237.26 -0.732978 0.144056 0
M  V30 23949 H 2239.92 -1.64708 1.04198 0
M  V30 23950 H 2239.02 -3.07909 0.509743 0
M  V30 23951 N 2239.32 -0.56861 -1.46985 0
M  V30 23952 C 2240.73 -0.138252 -1.86187 0
M  V30 23953 C 2241.08 1.29501 -1.4739 0
M  V30 23954 O 2240.21 1.976 -0.882224 0
M  V30 23955 C 2240.8 -0.244124 -3.37919 0
M  V30 23956 C 2239.36 0.131269 -3.76171 0
M  V30 23957 C 2238.51 -0.586513 -2.71026 0
M  V30 23958 H 2241.46 -0.777669 -1.3834 0
M  V30 23959 H 2241.48 0.534285 -3.7673 0
M  V30 23960 H 2240.99 -1.28738 -3.66126 0
M  V30 23961 H 2239.09 1.17519 -3.53582 0
M  V30 23962 H 2239.21 -0.23523 -4.78522 0
M  V30 23963 H 2237.57 -0.028317 -2.54684 0
M  V30 23964 H 2238.35 -1.63114 -3.02074 0
M  V30 23965 N 2240.8 1.54608 -0.305646 0
M  V30 23966 C 2241.71 2.27375 0.57774 0
M  V30 23967 C 2242.73 1.31063 1.14448 0
M  V30 23968 O 2243.9 1.64052 1.16828 0
M  V30 23969 C 2240.97 3.00385 1.73118 0
M  V30 23970 C 2240.03 4.12244 1.19805 0
M  V30 23971 C 2239.26 4.81763 2.29651 0
M  V30 23972 O 2239.48 4.50673 3.49643 0
M  V30 23973 O 2238.42 5.69066 1.96081 0
M  V30 23974 H 2242.24 3.03697 -0.0126774 0
M  V30 23975 H 2239.83 1.49227 -0.0719446 0
M  V30 23976 H 2241.71 3.46164 2.40309 0
M  V30 23977 H 2240.39 2.26953 2.30811 0
M  V30 23978 H 2239.29 3.70854 0.491733 0
M  V30 23979 H 2240.63 4.87667 0.66648 0
M  V30 23980 N 2242.28 0.033457 1.57564 0
M  V30 23981 C 2243.24 -0.932011 2.09395 0
M  V30 23982 C 2244.24 -1.25132 1.00988 0
M  V30 23983 O 2245.43 -1.19094 1.27131 0
M  V30 23984 C 2242.56 -2.24725 2.56342 0
M  V30 23985 H 2243.76 -0.483033 2.95984 0
M  V30 23986 H 2241.31 -0.214653 1.54819 0
M  V30 23987 H 2242.04 -2.74242 1.73095 0
M  V30 23988 H 2241.83 -2.02859 3.35545 0
M  V30 23989 H 2243.32 -2.93918 2.96651 0
M  V30 23990 N 2243.76 -1.55766 -0.239741 0
M  V30 23991 C 2244.99 -1.81732 -0.982711 0
M  V30 23992 C 2245.39 -0.607866 -1.79169 0
M  V30 23993 O 2244.74 0.432941 -1.78525 0
M  V30 23994 C 2244.8 -3.01158 -1.96326 0
M  V30 23995 C 2244.46 -4.36896 -1.34054 0
M  V30 23996 C 2245.46 -5.14615 -0.739449 0
M  V30 23997 C 2243.14 -4.83601 -1.35776 0
M  V30 23998 C 2245.14 -6.37189 -0.163877 0
M  V30 23999 C 2242.83 -6.06123 -0.778334 0
M  V30 24000 C 2243.82 -6.82756 -0.182428 0
M  V30 24001 O 2243.51 -8.02963 0.388028 0
M  V30 24002 H 2243.24 -0.608492 -0.294471 0
M  V30 24003 H 2245.8 -2.03674 -0.265684 0
M  V30 24004 H 2244.03 -2.74988 -2.71879 0
M  V30 24005 H 2245.72 -3.14154 -2.57026 0
M  V30 24006 H 2246.48 -4.79647 -0.718603 0
M  V30 24007 H 2242.36 -4.2394 -1.81097 0
M  V30 24008 H 2245.91 -6.96947 0.301876 0
M  V30 24009 H 2241.8 -6.40567 -0.796532 0
M  V30 24010 H 2242.57 -8.18019 0.280584 0
M  V30 24011 N 2245.23 0.505704 -1.49266 0
M  V30 24012 C 2246.14 1.63424 -1.68315 0
M  V30 24013 C 2247.16 1.64547 -0.56571 0
M  V30 24014 O 2248.34 1.83054 -0.839833 0
M  V30 24015 C 2245.4 2.9981 -1.74112 0
M  V30 24016 C 2244.46 3.0935 -2.97659 0
M  V30 24017 C 2243.69 4.3923 -3.03171 0
M  V30 24018 O 2243.92 5.27755 -2.16405 0
M  V30 24019 O 2242.85 4.53645 -3.95588 0
M  V30 24020 H 2246.68 1.50284 -2.6391 0
M  V30 24021 H 2244.26 0.681478 -1.32952 0
M  V30 24022 H 2246.14 3.80877 -1.80306 0
M  V30 24023 H 2244.82 3.13221 -0.816956 0
M  V30 24024 H 2243.73 2.27488 -2.96985 0
M  V30 24025 H 2245.06 3.00864 -3.8954 0
M  V30 24026 N 2246.71 1.38262 0.756405 0
M  V30 24027 C 2247.64 1.37979 1.88372 0
M  V30 24028 C 2248.62 0.246111 1.6831 0
M  V30 24029 O 2249.81 0.448773 1.88944 0
M  V30 24030 C 2246.94 1.2013 3.25862 0
M  V30 24031 C 2245.89 2.30673 3.60519 0
M  V30 24032 C 2245.22 1.97932 4.96716 0
M  V30 24033 C 2246.52 3.72923 3.65686 0
M  V30 24034 H 2248.21 2.32315 1.88865 0
M  V30 24035 H 2245.76 1.11825 0.907253 0
M  V30 24036 H 2247.71 1.18559 4.04378 0
M  V30 24037 H 2246.44 0.222555 3.25841 0
M  V30 24038 H 2245.09 2.31425 2.8432 0
M  V30 24039 H 2244.74 0.98548 4.93252 0
M  V30 24040 H 2244.44 2.71965 5.20873 0
M  V30 24041 H 2245.97 1.97974 5.77615 0
M  V30 24042 H 2247.38 3.74216 4.34322 0
M  V30 24043 H 2245.78 4.46137 4.0135 0
M  V30 24044 H 2246.85 4.05441 2.6598 0
M  V30 24045 N 2248.19 -0.984277 1.23084 0
M  V30 24046 C 2249.12 -2.0783 0.966397 0
M  V30 24047 C 2250.14 -1.62696 -0.0581849 0
M  V30 24048 O 2251.32 -1.77622 0.176875 0
M  V30 24049 C 2248.42 -3.36117 0.433456 0
M  V30 24050 C 2247.6 -4.1024 1.51729 0
M  V30 24051 C 2246.66 -5.16805 0.989912 0
M  V30 24052 O 2245.68 -5.43903 1.67803 0
M  V30 24053 N 2246.88 -5.80207 -0.184265 0
M  V30 24054 H 2249.65 -2.31094 1.90829 0
M  V30 24055 H 2247.21 -1.15068 1.1389 0
M  V30 24056 H 2249.2 -4.04647 0.0657701 0
M  V30 24057 H 2247.77 -3.0985 -0.413752 0
M  V30 24058 H 2246.99 -3.36219 2.05792 0
M  V30 24059 H 2248.28 -4.5653 2.24627 0
M  V30 24060 H 2247.68 -5.60572 -0.759963 0
M  V30 24061 H 2246.24 -6.49931 -0.493252 0
M  V30 24062 N 2249.67 -1.04192 -1.18244 0
M  V30 24063 C 2250.92 -0.741227 -1.87587 0
M  V30 24064 C 2251.23 0.734034 -1.81304 0
M  V30 24065 O 2252.44 1.14829 -2.46021 0
M  V30 24066 C 2250.89 -1.27561 -3.36536 0
M  V30 24067 C 2250.5 -2.77959 -3.51344 0
M  V30 24068 C 2252.24 -1.0515 -4.11271 0
M  V30 24069 C 2250.15 -3.24748 -4.94259 0
M  V30 24070 H 2249.08 -0.273578 -0.702617 0
M  V30 24071 H 2251.73 -1.25792 -1.33599 0
M  V30 24072 H 2250.11 -0.686772 -3.89999 0
M  V30 24073 H 2251.29 -3.42611 -3.08147 0
M  V30 24074 H 2249.6 -2.98797 -2.90016 0
M  V30 24075 H 2252.2 -1.3762 -5.16686 0
M  V30 24076 H 2252.54 0.0112042 -4.16298 0
M  V30 24077 H 2253.08 -1.60501 -3.63984 0
M  V30 24078 H 2249.82 -4.30405 -4.94401 0
M  V30 24079 H 2249.34 -2.64833 -5.38167 0
M  V30 24080 H 2251.01 -3.18844 -5.62981 0
M  V30 24081 N 2251.15 1.34492 -0.821557 0
M  V30 24082 C 2252.39 2.00146 -0.41482 0
M  V30 24083 C 2252.75 1.63721 1.00296 0
M  V30 24084 O 2253.95 2.22209 1.51251 0
M  V30 24085 C 2252.22 3.52165 -0.609465 0
M  V30 24086 S 2253.78 4.37805 -0.295374 0
M  V30 24087 H 2250.6 0.693494 -0.156802 0
M  V30 24088 H 2253.2 1.6381 -1.06707 0
M  V30 24089 H 2251.91 3.76163 -1.64103 0
M  V30 24090 H 2251.44 3.93358 0.0575723 0
M  V30 24091 H 2253.45 4.88127 0.891445 0
M  V30 24092 N 2252.62 0.576397 1.46681 0
M  V30 24093 C 2253.87 0.0596577 2.02712 0
M  V30 24094 C 2254.2 -1.29445 1.44767 0
M  V30 24095 O 2253.48 -1.84674 0.610387 0
M  V30 24096 C 2253.76 -0.012887 3.60098 0
M  V30 24097 C 2253.61 1.36967 4.28439 0
M  V30 24098 C 2254.93 -0.716704 4.34225 0
M  V30 24099 H 2252.05 0.0231537 0.736636 0
M  V30 24100 H 2254.69 0.742381 1.74896 0
M  V30 24101 H 2252.84 -0.594311 3.83927 0
M  V30 24102 H 2254.52 1.99578 4.15892 0
M  V30 24103 H 2252.76 1.93913 3.88046 0
M  V30 24104 H 2253.43 1.27145 5.37158 0
M  V30 24105 H 2255.91 -0.222834 4.15503 0
M  V30 24106 H 2254.78 -0.736475 5.43937 0
M  V30 24107 H 2255.04 -1.77675 4.04826 0
M  V30 24108 N 2254.1 -1.54444 0.313841 0
M  V30 24109 C 2255.05 -2.2399 -0.556511 0
M  V30 24110 C 2256.02 -1.22713 -1.11941 0
M  V30 24111 O 2257.2 -1.51369 -1.16155 0
M  V30 24112 C 2254.34 -2.99395 -1.7163 0
M  V30 24113 C 2253.46 -4.1547 -1.18357 0
M  V30 24114 C 2252.59 -4.78428 -2.30825 0
M  V30 24115 C 2251.63 -5.86625 -1.74751 0
M  V30 24116 N 2250.77 -6.43484 -2.80844 0
M  V30 24117 H 2255.61 -2.97969 0.0431417 0
M  V30 24118 H 2253.15 -1.47063 0.0330618 0
M  V30 24119 H 2255.1 -3.41353 -2.39862 0
M  V30 24120 H 2253.73 -2.27769 -2.28738 0
M  V30 24121 H 2252.79 -3.78363 -0.393096 0
M  V30 24122 H 2254.1 -4.93382 -0.733176 0
M  V30 24123 H 2253.25 -5.23305 -3.0698 0
M  V30 24124 H 2251.99 -3.99876 -2.79197 0
M  V30 24125 H 2251 -5.41159 -0.9709 0
M  V30 24126 H 2252.22 -6.67068 -1.27269 0
M  V30 24127 H 2250.17 -5.67809 -3.28525 0
M  V30 24128 H 2250.08 -7.1678 -2.40339 0
M  V30 24129 H 2251.35 -6.93017 -3.56857 0
M  V30 24130 N 2255.58 -0.0418125 -1.57545 0
M  V30 24131 C 2256.86 0.673401 -1.83643 0
M  V30 24132 C 2257.24 1.89592 -0.928331 0
M  V30 24133 O 2256.59 2.28496 0.0129553 0
M  V30 24134 C 2256.8 1.03958 -3.33157 0
M  V30 24135 C 2258.14 1.42585 -3.99943 0
M  V30 24136 O 2259.17 1.1322 -3.37727 0
M  V30 24137 O 2258.03 1.97351 -5.09622 0
M  V30 24138 H 2255.12 0.331519 -0.757644 0
M  V30 24139 H 2257.67 -0.0704628 -1.69554 0
M  V30 24140 H 2256.44 0.170029 -3.9093 0
M  V30 24141 H 2256.06 1.8412 -3.524 0
M  V30 24142 N 2257.06 1.55891 0.231477 0
M  V30 24143 C 2258.29 1.8225 0.97306 0
M  V30 24144 C 2258.7 0.617359 1.78844 0
M  V30 24145 O 2258.04 -0.423468 1.78752 0
M  V30 24146 C 2258.1 3.02195 1.94727 0
M  V30 24147 C 2257.77 4.37601 1.31735 0
M  V30 24148 C 2258.76 5.14999 0.712147 0
M  V30 24149 C 2256.45 4.84315 1.33209 0
M  V30 24150 C 2258.44 6.37267 0.130083 0
M  V30 24151 C 2256.13 6.06527 0.746179 0
M  V30 24152 C 2257.13 6.82843 0.146217 0
M  V30 24153 O 2256.81 8.02746 -0.430606 0
M  V30 24154 H 2256.55 0.610046 0.29124 0
M  V30 24155 H 2259.1 2.03812 0.254879 0
M  V30 24156 H 2257.33 2.76426 2.70417 0
M  V30 24157 H 2259.02 3.15512 2.55356 0
M  V30 24158 H 2259.79 4.80021 0.693156 0
M  V30 24159 H 2255.66 4.24894 1.78846 0
M  V30 24160 H 2259.21 6.96777 -0.338832 0
M  V30 24161 H 2255.11 6.4098 0.76255 0
M  V30 24162 H 2255.87 8.17859 -0.323962 0
M  V30 24163 N 2258.54 -0.497781 1.49532 0
M  V30 24164 C 2259.78 -1.26184 1.60801 0
M  V30 24165 C 2260.14 -1.89802 0.28966 0
M  V30 24166 O 2261.34 -2.67363 0.277559 0
M  V30 24167 C 2259.61 -2.29793 2.73733 0
M  V30 24168 S 2261.17 -3.15494 3.04973 0
M  V30 24169 H 2257.99 -0.428788 0.567152 0
M  V30 24170 H 2260.59 -0.563444 1.87205 0
M  V30 24171 H 2259.3 -1.81591 3.68039 0
M  V30 24172 H 2258.83 -3.04297 2.49333 0
M  V30 24173 H 2260.84 -4.30503 2.46743 0
M  V30 24174 N 2260.01 -1.38661 -0.749062 0
M  V30 24175 C 2261.26 -1.35116 -1.5083 0
M  V30 24176 C 2261.59 0.0573707 -1.94415 0
M  V30 24177 O 2260.84 1.03538 -1.66067 0
M  V30 24178 C 2261.14 -2.25702 -2.77116 0
M  V30 24179 C 2260.81 -3.7359 -2.52471 0
M  V30 24180 C 2259.47 -4.13888 -2.45458 0
M  V30 24181 C 2261.82 -4.67185 -2.31057 0
M  V30 24182 C 2259.15 -5.45865 -2.15054 0
M  V30 24183 C 2261.5 -5.99424 -2.02173 0
M  V30 24184 C 2260.17 -6.38802 -1.9362 0
M  V30 24185 H 2259.44 -0.494426 -0.551927 0
M  V30 24186 H 2262.08 -1.71055 -0.860949 0
M  V30 24187 H 2260.39 -1.82833 -3.46524 0
M  V30 24188 H 2262.09 -2.2026 -3.35092 0
M  V30 24189 H 2258.68 -3.41643 -2.58801 0
M  V30 24190 H 2262.86 -4.36894 -2.35451 0
M  V30 24191 H 2258.12 -5.75312 -2.06944 0
M  V30 24192 H 2262.29 -6.71485 -1.84609 0
M  V30 24193 H 2259.92 -7.40988 -1.69826 0
M  V30 24194 N 2261.49 0.977736 -1.23605 0
M  V30 24195 C 2262.46 2.05217 -1.02072 0
M  V30 24196 C 2263.46 1.60789 0.0184023 0
M  V30 24197 O 2264.65 1.72785 -0.2216 0
M  V30 24198 C 2261.78 3.36516 -0.544985 0
M  V30 24199 H 2262.97 2.25752 -1.97424 0
M  V30 24200 H 2260.52 1.15153 -1.05686 0
M  V30 24201 H 2261.26 3.2167 0.412184 0
M  V30 24202 H 2261.04 3.70102 -1.29486 0
M  V30 24203 H 2262.53 4.15532 -0.415058 0
M  V30 24204 N 2262.97 1.04818 1.1769 0
M  V30 24205 C 2264.39 0.768819 1.39862 0
M  V30 24206 C 2264.59 -0.638418 1.91119 0
M  V30 24207 O 2263.64 -1.40143 2.10039 0
M  V30 24208 C 2264.96 1.82126 2.39271 0
M  V30 24209 C 2266.5 1.84304 2.52984 0
M  V30 24210 C 2266.98 2.88561 3.55664 0
M  V30 24211 N 2268.47 2.875 3.63178 0
M  V30 24212 C 2269.21 3.64819 4.42374 0
M  V30 24213 N 2268.7 4.51912 5.25117 0
M  V30 24214 N 2270.49 3.53275 4.37211 0
M  V30 24215 H 2262.65 1.95618 0.827485 0
M  V30 24216 H 2264.91 0.846839 0.426108 0
M  V30 24217 H 2264.61 2.83105 2.08673 0
M  V30 24218 H 2264.49 1.65972 3.38723 0
M  V30 24219 H 2266.88 0.839919 2.82895 0
M  V30 24220 H 2266.96 2.04535 1.5362 0
M  V30 24221 H 2266.6 3.89057 3.26492 0
M  V30 24222 H 2266.53 2.65583 4.54723 0
M  V30 24223 H 2269.02 2.24348 3.04099 0
M  V30 24224 H 2269.33 5.07601 5.82719 0
M  V30 24225 H 2267.68 4.55975 5.24511 0
M  V30 24226 H 2270.87 2.84632 3.71621 0
M  V30 24227 H 2271.04 4.1378 4.98688 0
M  V30 24228 N 2264.45 -1.34055 0.828678 0
M  V30 24229 C 2265.36 -2.33191 0.256766 0
M  V30 24230 C 2266.38 -1.62887 -0.611869 0
M  V30 24231 O 2267.55 -1.94614 -0.518406 0
M  V30 24232 C 2264.62 -3.42029 -0.567178 0
M  V30 24233 C 2263.68 -4.28072 0.324534 0
M  V30 24234 C 2262.91 -5.31712 -0.460181 0
M  V30 24235 O 2263.13 -5.44699 -1.6929 0
M  V30 24236 O 2262.07 -6.01686 0.160497 0
M  V30 24237 H 2265.89 -2.83945 1.07744 0
M  V30 24238 H 2263.48 -1.37216 0.590954 0
M  V30 24239 H 2265.36 -4.08473 -1.03575 0
M  V30 24240 H 2264.04 -2.93509 -1.36508 0
M  V30 24241 H 2262.94 -3.64531 0.840723 0
M  V30 24242 H 2264.28 -4.80048 1.08694 0
M  V30 24243 N 2265.93 -0.584167 -1.46374 0
M  V30 24244 C 2267.2 -0.00337318 -1.956 0
M  V30 24245 C 2267.58 1.45779 -1.52682 0
M  V30 24246 O 2266.93 2.1484 -0.778198 0
M  V30 24247 C 2267.14 -0.176953 -3.48551 0
M  V30 24248 C 2268.49 -0.0455355 -4.24576 0
M  V30 24249 O 2269.51 -0.105863 -3.56043 0
M  V30 24250 O 2268.37 0.0889415 -5.46428 0
M  V30 24251 H 2265.47 0.0489921 -0.825548 0
M  V30 24252 H 2268.01 -0.652588 -1.5665 0
M  V30 24253 H 2266.79 -1.19267 -3.72681 0
M  V30 24254 H 2266.41 0.508626 -3.94333 0
M  V30 24255 N 2267.41 1.54275 -0.322027 0
M  V30 24256 C 2268.82 1.59571 0.0306719 0
M  V30 24257 C 2269.02 1.3386 1.50612 0
M  V30 24258 O 2268.08 1.12227 2.26189 0
M  V30 24259 C 2269.39 2.9821 -0.386175 0
M  V30 24260 C 2270.94 3.11184 -0.336701 0
M  V30 24261 C 2271.41 4.52166 -0.728687 0
M  V30 24262 N 2272.9 4.58151 -0.682032 0
M  V30 24263 C 2273.64 5.65348 -0.957548 0
M  V30 24264 N 2273.14 6.80492 -1.30012 0
M  V30 24265 N 2274.93 5.55118 -0.883211 0
M  V30 24266 H 2267.08 1.69245 -1.28335 0
M  V30 24267 H 2269.34 0.791519 -0.52173 0
M  V30 24268 H 2269.05 3.22019 -1.41409 0
M  V30 24269 H 2268.92 3.76373 0.249596 0
M  V30 24270 H 2271.31 2.87111 0.682008 0
M  V30 24271 H 2271.39 2.35128 -1.00738 0
M  V30 24272 H 2271.03 4.76971 -1.7453 0
M  V30 24273 H 2270.96 5.26588 -0.0357077 0
M  V30 24274 H 2273.46 3.75456 -0.429051 0
M  V30 24275 H 2273.77 7.58186 -1.49577 0
M  V30 24276 H 2272.11 6.81992 -1.33836 0
M  V30 24277 H 2275.3 4.64041 -0.615082 0
M  V30 24278 H 2275.48 6.38573 -1.10129 0
M  V30 24279 N 2268.88 0.0501669 1.5752 0
M  V30 24280 C 2270.13 -0.624764 1.92937 0
M  V30 24281 C 2270.46 -1.70554 0.928715 0
M  V30 24282 O 2269.74 -1.94447 -0.0454437 0
M  V30 24283 C 2270.02 -1.22179 3.38739 0
M  V30 24284 C 2269.87 -0.149139 4.49553 0
M  V30 24285 C 2271.19 -2.13371 3.84916 0
M  V30 24286 H 2268.31 -0.225644 0.701608 0
M  V30 24287 H 2270.95 0.111726 1.89671 0
M  V30 24288 H 2269.1 -1.84947 3.41653 0
M  V30 24289 H 2270.78 0.482729 4.58767 0
M  V30 24290 H 2269.02 0.522917 4.30637 0
M  V30 24291 H 2269.69 -0.60687 5.48654 0
M  V30 24292 H 2272.17 -1.60565 3.83872 0
M  V30 24293 H 2271.04 -2.52088 4.87589 0
M  V30 24294 H 2271.3 -3.0334 3.21616 0
M  V30 24295 N 2270.36 -1.56011 -0.223207 0
M  V30 24296 C 2271.61 -1.78146 -0.945881 0
M  V30 24297 C 2271.92 -0.618429 -1.85566 0
M  V30 24298 O 2273.13 -0.723364 -2.61686 0
M  V30 24299 C 2271.59 -3.15478 -1.7321 0
M  V30 24300 C 2271.19 -4.395 -0.868542 0
M  V30 24301 C 2272.94 -3.46939 -2.44609 0
M  V30 24302 C 2270.84 -5.67858 -1.65202 0
M  V30 24303 H 2269.77 -0.664173 -0.356917 0
M  V30 24304 H 2272.43 -1.82409 -0.199813 0
M  V30 24305 H 2270.81 -3.05387 -2.52101 0
M  V30 24306 H 2271.98 -4.60643 -0.120285 0
M  V30 24307 H 2270.3 -4.15545 -0.266757 0
M  V30 24308 H 2272.89 -4.40063 -3.03724 0
M  V30 24309 H 2273.24 -2.69361 -3.17412 0
M  V30 24310 H 2273.77 -3.58352 -1.72709 0
M  V30 24311 H 2270.51 -6.48324 -0.967293 0
M  V30 24312 H 2270.03 -5.50779 -2.37493 0
M  V30 24313 H 2271.71 -6.07972 -2.21312 0
M  V30 24314 N 2271.84 0.489844 -1.49794 0
M  V30 24315 C 2273.09 1.24079 -1.59527 0
M  V30 24316 C 2273.41 1.92847 -0.288987 0
M  V30 24317 O 2272.68 1.83256 0.692403 0
M  V30 24318 H 2271.26 0.460973 -0.587804 0
M  V30 24319 H 2273.92 0.566746 -1.86478 0
M  V30 24320 H 2273.02 1.99876 -2.397 0
M  V30 24321 N 2273.32 1.39056 0.741698 0
M  V30 24322 C 2274.25 1.39969 1.86898 0
M  V30 24323 C 2275.23 0.263949 1.6804 0
M  V30 24324 O 2276.41 0.468788 1.88457 0
M  V30 24325 C 2273.54 1.2358 3.24569 0
M  V30 24326 C 2272.5 2.34484 3.58052 0
M  V30 24327 C 2271.82 2.03189 4.94589 0
M  V30 24328 C 2273.12 3.7678 3.6171 0
M  V30 24329 H 2274.82 2.34305 1.86391 0
M  V30 24330 H 2272.36 1.12781 0.895341 0
M  V30 24331 H 2274.32 1.22841 4.03098 0
M  V30 24332 H 2273.04 0.257103 3.25586 0
M  V30 24333 H 2271.7 2.34428 2.81849 0
M  V30 24334 H 2271.35 1.03774 4.92179 0
M  V30 24335 H 2271.05 2.77474 5.17959 0
M  V30 24336 H 2272.57 2.04089 5.75482 0
M  V30 24337 H 2273.99 3.78802 4.30328 0
M  V30 24338 H 2272.38 4.50369 3.96595 0
M  V30 24339 H 2273.45 4.08239 2.61665 0
M  V30 24340 N 2274.8 -0.971167 1.24121 0
M  V30 24341 C 2275.76 -2.04673 1.03159 0
M  V30 24342 C 2276.76 -1.60797 -0.00987496 0
M  V30 24343 O 2277.95 -1.72665 0.23076 0
M  V30 24344 C 2275.08 -3.36222 0.562824 0
M  V30 24345 H 2276.27 -2.24702 1.98618 0
M  V30 24346 H 2273.83 -1.14591 1.06295 0
M  V30 24347 H 2274.56 -3.21884 -0.39512 0
M  V30 24348 H 2274.35 -3.6941 1.31447 0
M  V30 24349 H 2275.84 -4.15306 0.437088 0
M  V30 24350 N 2276.27 -1.05441 -1.17133 0
M  V30 24351 C 2277.52 -0.76711 -1.87732 0
M  V30 24352 C 2277.85 0.704221 -1.80982 0
M  V30 24353 O 2277.13 1.51517 -1.21954 0
M  V30 24354 C 2277.41 -1.25139 -3.37657 0
M  V30 24355 C 2277.26 -2.78584 -3.53145 0
M  V30 24356 C 2278.58 -0.8524 -4.31766 0
M  V30 24357 H 2275.7 -0.280141 -0.681682 0
M  V30 24358 H 2278.34 -1.30883 -1.3773 0
M  V30 24359 H 2276.49 -0.790536 -3.80372 0
M  V30 24360 H 2278.17 -3.32812 -3.19428 0
M  V30 24361 H 2276.41 -3.17737 -2.9534 0
M  V30 24362 H 2277.08 -3.07531 -4.58398 0
M  V30 24363 H 2279.56 -1.24918 -3.96906 0
M  V30 24364 H 2278.43 -1.21883 -5.35197 0
M  V30 24365 H 2278.69 0.243407 -4.41429 0
M  V30 24366 N 2277.75 1.33613 -0.835776 0
M  V30 24367 C 2278.69 2.27214 -0.211855 0
M  V30 24368 C 2279.66 1.49508 0.639222 0
M  V30 24369 O 2280.85 1.78691 0.600161 0
M  V30 24370 C 2277.97 3.31328 0.702835 0
M  V30 24371 C 2277.02 4.26439 -0.0723799 0
M  V30 24372 S 2277.85 5.16103 -1.4282 0
M  V30 24373 C 2279.01 6.23747 -0.518723 0
M  V30 24374 H 2279.24 2.79785 -1.00538 0
M  V30 24375 H 2276.78 1.40857 -0.63236 0
M  V30 24376 H 2278.73 3.91796 1.22498 0
M  V30 24377 H 2277.39 2.77579 1.46999 0
M  V30 24378 H 2276.59 5.00128 0.623502 0
M  V30 24379 H 2276.19 3.7029 -0.525489 0
M  V30 24380 H 2278.48 6.76902 0.284659 0
M  V30 24381 H 2279.42 6.97411 -1.22569 0
M  V30 24382 H 2279.83 5.64409 -0.101444 0
M  V30 24383 N 2279.23 0.591922 1.46062 0
M  V30 24384 C 2280.64 0.167855 1.85944 0
M  V30 24385 C 2280.99 -1.2714 1.49432 0
M  V30 24386 O 2280.12 -1.96171 0.913549 0
M  V30 24387 C 2280.71 0.297853 3.37488 0
M  V30 24388 C 2279.27 -0.0714071 3.76332 0
M  V30 24389 C 2278.42 0.629556 2.70059 0
M  V30 24390 H 2281.37 0.799579 1.37085 0
M  V30 24391 H 2281.39 -0.474282 3.77533 0
M  V30 24392 H 2280.9 1.34546 3.64032 0
M  V30 24393 H 2279 -1.11879 3.55406 0
M  V30 24394 H 2279.12 0.311329 4.78087 0
M  V30 24395 H 2277.48 0.0688314 2.54607 0
M  V30 24396 H 2278.26 1.67899 2.99441 0
M  V30 24397 N 2280.71 -1.54102 0.330204 0
M  V30 24398 C 2281.64 -2.27514 -0.525313 0
M  V30 24399 C 2282.62 -1.28562 -1.11381 0
M  V30 24400 O 2283.8 -1.57385 -1.1377 0
M  V30 24401 C 2280.93 -3.03794 -1.68305 0
M  V30 24402 C 2279.89 -4.10139 -1.22353 0
M  V30 24403 C 2279.21 -4.74297 -2.46873 0
M  V30 24404 C 2280.51 -5.21234 -0.333605 0
M  V30 24405 H 2282.21 -2.99273 0.0870656 0
M  V30 24406 H 2279.75 -1.43935 0.0433146 0
M  V30 24407 H 2281.71 -3.53884 -2.28788 0
M  V30 24408 H 2280.43 -2.29663 -2.32212 0
M  V30 24409 H 2279.09 -3.60942 -0.641586 0
M  V30 24410 H 2278.74 -3.96775 -3.09159 0
M  V30 24411 H 2278.44 -5.46136 -2.16815 0
M  V30 24412 H 2279.96 -5.27164 -3.08107 0
M  V30 24413 H 2281.38 -5.6704 -0.844913 0
M  V30 24414 H 2279.77 -5.99969 -0.125507 0
M  V30 24415 H 2280.84 -4.8074 0.633808 0
M  V30 24416 N 2282.19 -0.0585199 -1.57491 0
M  V30 24417 C 2283.6 0.298063 -1.56792 0
M  V30 24418 C 2283.8 1.70942 -1.06682 0
M  V30 24419 O 2282.86 2.41816 -0.726714 0
M  V30 24420 C 2284.17 0.119826 -3.00461 0
M  V30 24421 C 2285.72 0.190373 -3.12421 0
M  V30 24422 C 2286.19 0.0405762 -4.57982 0
M  V30 24423 N 2287.69 0.0966144 -4.63099 0
M  V30 24424 C 2288.42 0.00492864 -5.734 0
M  V30 24425 N 2287.92 -0.139524 -6.92659 0
M  V30 24426 N 2289.71 0.0610403 -5.62067 0
M  V30 24427 H 2281.86 -0.981084 -1.88384 0
M  V30 24428 H 2284.12 -0.381478 -0.867858 0
M  V30 24429 H 2283.83 -0.85355 -3.41185 0
M  V30 24430 H 2283.7 0.877769 -3.66845 0
M  V30 24431 H 2286.09 1.15423 -2.71591 0
M  V30 24432 H 2286.17 -0.598449 -2.48701 0
M  V30 24433 H 2285.82 -0.919985 -4.99498 0
M  V30 24434 H 2285.75 0.848636 -5.19717 0
M  V30 24435 H 2288.24 0.20721 -3.77331 0
M  V30 24436 H 2288.55 -0.20199 -7.72536 0
M  V30 24437 H 2286.89 -0.174708 -6.9478 0
M  V30 24438 H 2290.09 0.1725 -4.67782 0
M  V30 24439 H 2290.26 -0.0138701 -6.47999 0
M  V30 24440 N 2283.66 1.56128 0.21493 0
M  V30 24441 C 2284.94 1.70248 0.963063 0
M  V30 24442 C 2285.32 0.607676 2.02165 0
M  V30 24443 O 2284.67 -0.384345 2.25244 0
M  V30 24444 C 2284.88 3.11818 1.5675 0
M  V30 24445 C 2286.23 3.71434 2.05723 0
M  V30 24446 O 2287.25 3.14821 1.66631 0
M  V30 24447 O 2286.11 4.70748 2.77595 0
M  V30 24448 H 2283.2 0.693651 0.450309 0
M  V30 24449 H 2285.75 1.68443 0.206189 0
M  V30 24450 H 2284.52 3.82962 0.803465 0
M  V30 24451 H 2284.15 3.17769 2.38974 0
M  V30 24452 N 2285.14 -0.481893 1.50052 0
M  V30 24453 C 2286.39 -1.23658 1.60738 0
M  V30 24454 C 2286.72 -1.9184 0.30182 0
M  V30 24455 O 2286 -1.81621 -0.695993 0
M  V30 24456 C 2286.28 -2.28869 2.78013 0
M  V30 24457 C 2286.13 -1.65062 4.18419 0
M  V30 24458 C 2287.45 -3.30274 2.90873 0
M  V30 24459 H 2284.57 -0.448218 0.585038 0
M  V30 24460 H 2287.21 -0.531914 1.82403 0
M  V30 24461 H 2285.36 -2.88969 2.59672 0
M  V30 24462 H 2287.03 -1.08642 4.48324 0
M  V30 24463 H 2285.28 -0.954074 4.23178 0
M  V30 24464 H 2285.95 -2.41465 4.96385 0
M  V30 24465 H 2288.42 -2.80186 3.07628 0
M  V30 24466 H 2287.3 -4.01231 3.74573 0
M  V30 24467 H 2287.56 -3.93751 2.01028 0
M  V30 24468 N 2286.62 -1.39448 -0.734313 0
M  V30 24469 C 2287.58 -1.37997 -1.83001 0
M  V30 24470 C 2288.58 -0.276966 -1.58397 0
M  V30 24471 O 2289.77 -0.534904 -1.65784 0
M  V30 24472 C 2286.91 -1.15325 -3.208 0
M  V30 24473 H 2288.1 -2.35498 -1.8569 0
M  V30 24474 H 2285.65 -1.25022 -0.938037 0
M  V30 24475 H 2286.39 -0.185093 -3.23771 0
M  V30 24476 H 2286.17 -1.95203 -3.40056 0
M  V30 24477 H 2287.66 -1.17053 -4.0086 0
M  V30 24478 N 2288.1 0.964571 -1.24635 0
M  V30 24479 C 2289.06 2.04123 -1.04243 0
M  V30 24480 C 2290.06 1.608 0.00134736 0
M  V30 24481 O 2291.25 1.7254 -0.239913 0
M  V30 24482 C 2288.38 3.35919 -0.580647 0
M  V30 24483 H 2289.58 2.23645 -1.99807 0
M  V30 24484 H 2287.13 1.14026 -1.06901 0
M  V30 24485 H 2287.86 3.22089 0.378044 0
M  V30 24486 H 2287.65 3.68708 -1.33404 0
M  V30 24487 H 2289.14 4.15069 -0.459107 0
M  V30 24488 N 2289.58 1.0606 1.16572 0
M  V30 24489 C 2290.52 0.669301 2.20882 0
M  V30 24490 C 2291.49 -0.332889 1.6273 0
M  V30 24491 O 2292.68 -0.222313 1.895 0
M  V30 24492 C 2289.82 0.0594178 3.45049 0
M  V30 24493 C 2288.93 1.1115 4.17456 0
M  V30 24494 C 2288.07 0.468009 5.29134 0
M  V30 24495 C 2287.11 1.50379 5.9334 0
M  V30 24496 N 2286.24 0.883828 6.96515 0
M  V30 24497 H 2291.08 1.56324 2.53706 0
M  V30 24498 H 2288.62 0.781647 1.24614 0
M  V30 24499 H 2290.58 -0.311698 4.16034 0
M  V30 24500 H 2289.21 -0.797937 3.12782 0
M  V30 24501 H 2288.26 1.60035 3.45099 0
M  V30 24502 H 2289.57 1.89739 4.61303 0
M  V30 24503 H 2288.73 0.0437937 6.06684 0
M  V30 24504 H 2287.46 -0.349778 4.86444 0
M  V30 24505 H 2286.47 1.93793 5.14514 0
M  V30 24506 H 2287.69 2.32363 6.3811 0
M  V30 24507 H 2285.64 0.0867103 6.55943 0
M  V30 24508 H 2285.56 1.60713 7.3872 0
M  V30 24509 H 2286.83 0.48468 7.77992 0
M  V30 24510 N 2291.06 -1.33168 0.84285 0
M  V30 24511 C 2292.3 -1.97261 0.439612 0
M  V30 24512 C 2292.62 -1.6708 -1.00545 0
M  V30 24513 O 2291.89 -0.971809 -1.70096 0
M  V30 24514 H 2290.47 -0.729758 0.159571 0
M  V30 24515 H 2293.14 -1.62461 1.07668 0
M  V30 24516 H 2292.23 -3.06759 0.57494 0
M  V30 24517 N 2292.53 -0.599659 -1.45746 0
M  V30 24518 C 2293.76 -0.0960563 -2.07177 0
M  V30 24519 C 2294.18 1.20697 -1.4427 0
M  V30 24520 O 2293.54 1.73303 -0.532534 0
M  V30 24521 C 2293.59 0.0384714 -3.60579 0
M  V30 24522 O 2292.69 1.09073 -3.97714 0
M  V30 24523 H 2292.03 -0.0704709 -0.66025 0
M  V30 24524 H 2294.56 -0.827418 -1.87123 0
M  V30 24525 H 2294.57 0.239232 -4.07298 0
M  V30 24526 H 2293.25 -0.913019 -4.05755 0
M  V30 24527 H 2291.83 0.867071 -3.62679 0
M  V30 24528 N 2294.01 1.53925 -0.338371 0
M  V30 24529 C 2295.25 2.02738 0.260133 0
M  V30 24530 C 2295.62 1.22094 1.48179 0
M  V30 24531 O 2296.82 1.60781 2.15413 0
M  V30 24532 C 2295.09 3.528 0.571565 0
M  V30 24533 S 2296.65 4.23527 1.14762 0
M  V30 24534 H 2293.46 0.706733 0.0777786 0
M  V30 24535 H 2296.07 1.89643 -0.474932 0
M  V30 24536 H 2294.77 4.09107 -0.325464 0
M  V30 24537 H 2294.3 3.70004 1.33643 0
M  V30 24538 H 2296.32 4.32421 2.43364 0
M  V30 24539 N 2295.49 0.0668712 1.57458 0
M  V30 24540 C 2296.45 -0.887385 2.11325 0
M  V30 24541 C 2297.45 -1.22962 1.0362 0
M  V30 24542 O 2298.64 -1.16371 1.29628 0
M  V30 24543 C 2295.77 -2.19237 2.61051 0
M  V30 24544 H 2296.97 -0.420142 2.96942 0
M  V30 24545 H 2294.52 -0.181765 1.5524 0
M  V30 24546 H 2295.26 -2.70509 1.78873 0
M  V30 24547 H 2295.04 -1.95696 3.39773 0
M  V30 24548 H 2296.53 -2.87559 3.02819 0
M  V30 24549 N 2296.97 -1.56239 -0.206647 0
M  V30 24550 C 2298.21 -1.81725 -0.935708 0
M  V30 24551 C 2298.57 -0.642641 -1.80926 0
M  V30 24552 O 2299.77 -0.777126 -2.57321 0
M  V30 24553 C 2298.04 -3.1218 -1.74006 0
M  V30 24554 S 2299.6 -3.59032 -2.52273 0
M  V30 24555 H 2296.42 -0.63788 -0.314053 0
M  V30 24556 H 2299.02 -1.94474 -0.200037 0
M  V30 24557 H 2297.73 -3.95695 -1.08873 0
M  V30 24558 H 2297.26 -3.02278 -2.51777 0
M  V30 24559 H 2299.27 -3.23551 -3.76203 0
M  V30 24560 N 2298.45 0.473929 -1.50305 0
M  V30 24561 C 2299.69 1.22518 -1.6236 0
M  V30 24562 C 2300.05 1.89744 -0.318588 0
M  V30 24563 O 2299.34 1.79002 0.683284 0
M  V30 24564 C 2299.53 2.29544 -2.73942 0
M  V30 24565 C 2299.36 1.72817 -4.15168 0
M  V30 24566 C 2298.13 1.52915 -4.81607 0
M  V30 24567 C 2300.33 1.22472 -4.99505 0
M  V30 24568 N 2298.31 0.914023 -6.07058 0
M  V30 24569 C 2299.68 0.732635 -6.15656 0
M  V30 24570 C 2301.74 1.113 -4.85301 0
M  V30 24571 C 2300.44 0.139849 -7.19164 0
M  V30 24572 C 2302.47 0.534155 -5.88983 0
M  V30 24573 C 2301.83 0.0524324 -7.0438 0
M  V30 24574 H 2297.93 0.437309 -0.648294 0
M  V30 24575 H 2300.51 0.527659 -1.87414 0
M  V30 24576 H 2298.68 2.96726 -2.50616 0
M  V30 24577 H 2300.42 2.96569 -2.75371 0
M  V30 24578 H 2297.17 1.7806 -4.38853 0
M  V30 24579 H 2297.59 0.624952 -6.74109 0
M  V30 24580 H 2302.24 1.47137 -3.96372 0
M  V30 24581 H 2299.95 -0.230733 -8.07771 0
M  V30 24582 H 2303.54 0.450117 -5.80056 0
M  V30 24583 H 2302.42 -0.388462 -7.83237 0
M  V30 24584 N 2299.92 1.39835 0.726907 0
M  V30 24585 C 2301.16 1.38939 1.49918 0
M  V30 24586 C 2301.53 -0.0126546 1.91996 0
M  V30 24587 O 2302.73 -0.146668 2.684 0
M  V30 24588 C 2301 2.34158 2.70009 0
M  V30 24589 S 2302.56 2.51521 3.59559 0
M  V30 24590 H 2299.38 0.492604 0.512701 0
M  V30 24591 H 2301.98 1.76004 0.851039 0
M  V30 24592 H 2300.68 3.34875 2.37249 0
M  V30 24593 H 2300.21 1.98337 3.39744 0
M  V30 24594 H 2302.23 1.75917 4.6397 0
M  V30 24595 N 2301.4 -0.957948 1.25144 0
M  V30 24596 C 2302.81 -1.51683 1.08854 0
M  V30 24597 C 2303.16 -1.93287 -0.336836 0
M  V30 24598 O 2302.29 -1.78292 -1.22641 0
M  V30 24599 C 2302.88 -2.7565 1.96983 0
M  V30 24600 C 2301.44 -3.27862 1.84887 0
M  V30 24601 C 2300.59 -2.00717 1.91332 0
M  V30 24602 H 2303.54 -0.775196 1.38479 0
M  V30 24603 H 2303.56 -3.49348 1.50786 0
M  V30 24604 H 2303.07 -2.45339 3.00716 0
M  V30 24605 H 2301.17 -3.63002 0.840246 0
M  V30 24606 H 2301.29 -3.96103 2.69517 0
M  V30 24607 H 2299.65 -2.15868 1.35178 0
M  V30 24608 H 2300.43 -1.72758 2.96664 0
M  V30 24609 N 2302.88 -1.06677 -1.16008 0
M  V30 24610 C 2303.81 -0.702346 -2.22687 0
M  V30 24611 C 2304.79 0.307003 -1.67307 0
M  V30 24612 O 2305.98 0.181271 -1.93352 0
M  V30 24613 C 2303.11 -0.092099 -3.47178 0
M  V30 24614 C 2302.06 -1.02785 -4.15475 0
M  V30 24615 C 2301.39 -0.280704 -5.33963 0
M  V30 24616 C 2302.69 -2.35854 -4.66015 0
M  V30 24617 H 2304.38 -1.59423 -2.53426 0
M  V30 24618 H 2301.93 -0.767982 -1.21811 0
M  V30 24619 H 2303.88 0.17474 -4.21038 0
M  V30 24620 H 2302.6 0.834821 -3.1575 0
M  V30 24621 H 2301.26 -1.2795 -3.43547 0
M  V30 24622 H 2300.91 0.649458 -4.9879 0
M  V30 24623 H 2300.61 -0.90436 -5.80599 0
M  V30 24624 H 2302.13 -0.0215033 -6.10596 0
M  V30 24625 H 2303.55 -2.15054 -5.31436 0
M  V30 24626 H 2301.94 -2.93752 -5.23288 0
M  V30 24627 H 2303.01 -2.98648 -3.82018 0
M  V30 24628 N 2304.36 1.32719 -0.8499 0
M  V30 24629 C 2305.61 1.97025 -0.450067 0
M  V30 24630 C 2305.93 1.67611 0.996574 0
M  V30 24631 O 2305.2 0.980815 1.69578 0
M  V30 24632 H 2303.78 0.728901 -0.163439 0
M  V30 24633 H 2306.44 1.61888 -1.08528 0
M  V30 24634 H 2305.53 3.06449 -0.5912 0
M  V30 24635 N 2305.84 0.60738 1.45426 0
M  V30 24636 C 2307.25 0.271013 1.57282 0
M  V30 24637 C 2307.45 -1.22644 1.59877 0
M  V30 24638 O 2306.51 -2.00945 1.52896 0
M  V30 24639 C 2307.82 0.942003 2.85564 0
M  V30 24640 C 2309.37 0.917902 2.99238 0
M  V30 24641 C 2309.84 1.5689 4.3029 0
M  V30 24642 N 2311.34 1.53438 4.37048 0
M  V30 24643 C 2312.07 2.00724 5.3712 0
M  V30 24644 N 2311.57 2.56095 6.43729 0
M  V30 24645 N 2313.36 1.91493 5.28476 0
M  V30 24646 H 2305.51 1.57968 1.41985 0
M  V30 24647 H 2307.77 0.661727 0.678838 0
M  V30 24648 H 2307.48 1.99638 2.89547 0
M  V30 24649 H 2307.35 0.465162 3.74321 0
M  V30 24650 H 2309.74 -0.127932 2.94823 0
M  V30 24651 H 2309.82 1.43301 2.11893 0
M  V30 24652 H 2309.47 2.61406 4.35465 0
M  V30 24653 H 2309.4 1.02882 5.16452 0
M  V30 24654 H 2311.89 1.12988 3.60613 0
M  V30 24655 H 2312.2 2.8997 7.16336 0
M  V30 24656 H 2310.54 2.60134 6.44481 0
M  V30 24657 H 2313.74 1.47975 4.44096 0
M  V30 24658 H 2313.91 2.28658 6.06316 0
M  V30 24659 N 2307.31 -1.53743 0.34653 0
M  V30 24660 C 2308.26 -2.2512 -0.508874 0
M  V30 24661 C 2309.23 -1.2506 -1.09313 0
M  V30 24662 O 2310.42 -1.53799 -1.12918 0
M  V30 24663 C 2307.56 -3.02968 -1.65241 0
M  V30 24664 C 2306.67 -4.17888 -1.09517 0
M  V30 24665 C 2305.8 -4.83216 -2.20625 0
M  V30 24666 C 2304.84 -5.90199 -1.62269 0
M  V30 24667 N 2303.98 -6.49296 -2.67131 0
M  V30 24668 H 2308.82 -2.9781 0.106336 0
M  V30 24669 H 2306.36 -1.4696 0.0642485 0
M  V30 24670 H 2308.32 -3.46364 -2.32568 0
M  V30 24671 H 2306.95 -2.32569 -2.23856 0
M  V30 24672 H 2306 -3.79112 -0.312751 0
M  V30 24673 H 2307.31 -4.94826 -0.628357 0
M  V30 24674 H 2306.46 -5.29699 -2.95811 0
M  V30 24675 H 2305.2 -4.05708 -2.70652 0
M  V30 24676 H 2304.21 -5.43097 -0.855893 0
M  V30 24677 H 2305.43 -6.69617 -1.1309 0
M  V30 24678 H 2303.38 -5.7465 -3.16407 0
M  V30 24679 H 2303.3 -7.21717 -2.25081 0
M  V30 24680 H 2304.56 -7.00431 -3.42077 0
M  V30 24681 N 2308.79 -0.0752207 -1.5742 0
M  V30 24682 C 2310.04 0.592697 -1.92795 0
M  V30 24683 C 2310.35 1.70561 -0.957508 0
M  V30 24684 O 2311.56 2.43333 -1.20421 0
M  V30 24685 C 2310.02 1.10563 -3.42497 0
M  V30 24686 C 2309.62 0.0235334 -4.47994 0
M  V30 24687 C 2311.37 1.74741 -3.86867 0
M  V30 24688 C 2309.28 0.550699 -5.8883 0
M  V30 24689 H 2308.21 0.225164 -0.719595 0
M  V30 24690 H 2310.86 -0.14801 -1.82902 0
M  V30 24691 H 2309.24 1.8994 -3.47475 0
M  V30 24692 H 2310.41 -0.751179 -4.54636 0
M  V30 24693 H 2308.73 -0.522232 -4.13112 0
M  V30 24694 H 2311.32 2.1522 -4.89474 0
M  V30 24695 H 2311.67 2.60876 -3.24421 0
M  V30 24696 H 2312.2 1.01979 -3.84506 0
M  V30 24697 H 2308.94 -0.273572 -6.54929 0
M  V30 24698 H 2308.46 1.29286 -5.85701 0
M  V30 24699 H 2310.14 1.02602 -6.38813 0
M  V30 24700 N 2310.27 1.56347 0.198358 0
M  V30 24701 C 2311.22 1.90689 1.24987 0
M  V30 24702 C 2312.2 0.772242 1.41157 0
M  V30 24703 O 2313.4 1.03505 1.43582 0
M  V30 24704 C 2310.53 2.2471 2.59538 0
M  V30 24705 C 2309.61 3.44624 2.47175 0
M  V30 24706 N 2310 4.62621 2.04487 0
M  V30 24707 C 2308.3 3.48697 2.78076 0
M  V30 24708 C 2309 5.4478 2.03936 0
M  V30 24709 N 2307.98 4.851 2.45315 0
M  V30 24710 H 2311.78 2.79421 0.9111 0
M  V30 24711 H 2309.29 1.57222 0.406812 0
M  V30 24712 H 2311.29 2.47497 3.35486 0
M  V30 24713 H 2309.95 1.37303 2.94241 0
M  V30 24714 H 2310.96 4.87349 1.75248 0
M  V30 24715 H 2307.64 2.71697 3.16997 0
M  V30 24716 H 2309.03 6.49283 1.7286 0
M  V30 24717 N 2311.75 -0.465951 1.50554 0
M  V30 24718 C 2312.68 -1.58225 1.64439 0
M  V30 24719 C 2313.66 -1.54965 0.492394 0
M  V30 24720 O 2314.84 -1.74513 0.712566 0
M  V30 24721 C 2311.97 -2.96805 1.6317 0
M  V30 24722 C 2311.02 -3.18199 2.83992 0
M  V30 24723 S 2311.85 -2.97549 4.45225 0
M  V30 24724 C 2313.01 -4.38462 4.46656 0
M  V30 24725 H 2313.24 -1.46208 2.58864 0
M  V30 24726 H 2310.77 -0.653653 1.39881 0
M  V30 24727 H 2312.73 -3.76698 1.63123 0
M  V30 24728 H 2311.39 -3.06207 0.699724 0
M  V30 24729 H 2310.58 -4.1945 2.79424 0
M  V30 24730 H 2310.19 -2.46087 2.81633 0
M  V30 24731 H 2312.48 -5.31184 4.20535 0
M  V30 24732 H 2313.42 -4.48073 5.48303 0
M  V30 24733 H 2313.83 -4.2078 3.76303 0
M  V30 24734 N 2313.23 -1.40218 -0.719481 0
M  V30 24735 C 2314.5 -1.28786 -1.47219 0
M  V30 24736 C 2314.88 0.0955697 -2.10884 0
M  V30 24737 O 2314.23 1.10807 -1.99835 0
M  V30 24738 C 2314.44 -2.42377 -2.51106 0
M  V30 24739 C 2315.79 -2.82428 -3.17048 0
M  V30 24740 O 2316.81 -2.41942 -2.61424 0
M  V30 24741 O 2315.67 -3.52363 -4.17735 0
M  V30 24742 H 2312.77 -0.505552 -0.654482 0
M  V30 24743 H 2315.31 -1.52129 -0.751987 0
M  V30 24744 H 2314.08 -3.34797 -2.0255 0
M  V30 24745 H 2313.71 -2.20784 -3.30667 0
M  V30 24746 N 2314.7 0.951297 -1.25651 0
M  V30 24747 C 2315.61 2.08222 -1.08077 0
M  V30 24748 C 2316.63 1.73992 -0.0169971 0
M  V30 24749 O 2317.81 2.0021 -0.218628 0
M  V30 24750 C 2314.87 3.39457 -0.704982 0
M  V30 24751 C 2313.93 3.87534 -1.84706 0
M  V30 24752 C 2313.17 5.12505 -1.48911 0
M  V30 24753 O 2313.39 5.69091 -0.386256 0
M  V30 24754 O 2312.32 5.55373 -2.32043 0
M  V30 24755 H 2316.15 2.25951 -2.02928 0
M  V30 24756 H 2313.73 1.06654 -1.0462 0
M  V30 24757 H 2315.62 4.18331 -0.507683 0
M  V30 24758 H 2314.29 3.2299 0.214234 0
M  V30 24759 H 2313.2 3.09649 -2.09924 0
M  V30 24760 H 2314.53 4.08504 -2.74564 0
M  V30 24761 N 2316.18 1.07291 1.1544 0
M  V30 24762 C 2317.41 0.816793 1.90095 0
M  V30 24763 C 2317.83 -0.629935 1.77981 0
M  V30 24764 O 2317.18 -1.43204 1.13133 0
M  V30 24765 C 2317.23 1.21518 3.40464 0
M  V30 24766 O 2316.95 2.60514 3.52227 0
M  V30 24767 C 2318.46 0.988274 4.32144 0
M  V30 24768 H 2315.68 0.295376 0.60249 0
M  V30 24769 H 2318.22 1.4292 1.46267 0
M  V30 24770 H 2316.37 0.647106 3.81957 0
M  V30 24771 H 2316.79 2.76749 4.45545 0
M  V30 24772 H 2318.26 1.31654 5.3607 0
M  V30 24773 H 2318.74 -0.0754291 4.39135 0
M  V30 24774 H 2319.35 1.54122 3.96392 0
M  V30 24775 N 2317.66 -1.32267 0.856927 0
M  V30 24776 C 2318.91 -1.96783 0.460509 0
M  V30 24777 C 2319.23 -1.68137 -0.987672 0
M  V30 24778 O 2318.5 -0.989795 -1.69056 0
M  V30 24779 H 2317.08 -0.728024 0.167302 0
M  V30 24780 H 2319.74 -1.6131 1.09385 0
M  V30 24781 H 2318.84 -3.06132 0.607443 0
M  V30 24782 N 2319.14 -0.615084 -1.45102 0
M  V30 24783 C 2320.07 0.148368 -2.27717 0
M  V30 24784 C 2321.05 0.866548 -1.37585 0
M  V30 24785 O 2322.23 0.8739 -1.67019 0
M  V30 24786 C 2319.36 1.21551 -3.16138 0
M  V30 24787 C 2318.41 0.599638 -4.22264 0
M  V30 24788 S 2319.24 -0.598175 -5.32149 0
M  V30 24789 C 2320.4 0.469374 -6.24138 0
M  V30 24790 H 2320.63 -0.552534 -2.9212 0
M  V30 24791 H 2318.16 -0.402805 -1.49053 0
M  V30 24792 H 2320.12 1.82631 -3.67636 0
M  V30 24793 H 2318.78 1.88852 -2.50985 0
M  V30 24794 H 2317.97 1.40282 -4.84084 0
M  V30 24795 H 2317.58 0.0638103 -3.73946 0
M  V30 24796 H 2319.87 1.3464 -6.63987 0
M  V30 24797 H 2320.81 -0.112849 -7.0801 0
M  V30 24798 H 2321.22 0.78807 -5.58972 0
M  V30 24799 N 2320.62 1.53557 -0.354678 0
M  V30 24800 C 2321.85 2.05509 0.239479 0
M  V30 24801 C 2322.26 1.22893 1.43327 0
M  V30 24802 O 2321.62 0.266931 1.80537 0
M  V30 24803 C 2321.67 3.55724 0.643657 0
M  V30 24804 O 2321.39 4.35207 -0.502679 0
M  V30 24805 C 2322.89 4.23891 1.29736 0
M  V30 24806 H 2320.11 0.669539 0.0442579 0
M  V30 24807 H 2322.65 1.98041 -0.509891 0
M  V30 24808 H 2320.81 3.63378 1.34295 0
M  V30 24809 H 2321.22 5.24197 -0.178264 0
M  V30 24810 H 2322.7 5.30349 1.53082 0
M  V30 24811 H 2323.17 3.7693 2.25434 0
M  V30 24812 H 2323.78 4.2046 0.639791 0
M  V30 24813 N 2322.1 0.083568 1.57378 0
M  V30 24814 C 2323.34 -0.582464 1.93107 0
M  V30 24815 C 2323.66 -1.70051 0.96654 0
M  V30 24816 O 2324.86 -2.42691 1.2171 0
M  V30 24817 C 2323.32 -1.08745 3.43078 0
M  V30 24818 C 2322.93 0.000225151 4.48 0
M  V30 24819 C 2324.67 -1.72687 3.87788 0
M  V30 24820 C 2322.58 -0.519464 5.89114 0
M  V30 24821 H 2321.51 -0.221345 0.720779 0
M  V30 24822 H 2324.16 0.157707 1.82821 0
M  V30 24823 H 2322.54 -1.88095 3.48477 0
M  V30 24824 H 2323.72 0.775279 4.54231 0
M  V30 24825 H 2322.03 0.544133 4.12829 0
M  V30 24826 H 2324.63 -2.12621 4.90608 0
M  V30 24827 H 2324.97 -2.59152 3.258 0
M  V30 24828 H 2325.5 -0.999389 3.85042 0
M  V30 24829 H 2322.24 0.308301 6.54775 0
M  V30 24830 H 2321.76 -1.26178 5.86378 0
M  V30 24831 H 2323.44 -0.992125 6.39348 0
M  V30 24832 N 2323.57 -1.5645 -0.190064 0
M  V30 24833 C 2324.5 -1.97971 -1.23813 0
M  V30 24834 C 2325.48 -0.85242 -1.472 0
M  V30 24835 O 2326.67 -1.11712 -1.58852 0
M  V30 24836 C 2323.8 -2.32354 -2.58126 0
M  V30 24837 C 2322.75 -3.47868 -2.49342 0
M  V30 24838 C 2322.08 -3.67941 -3.87974 0
M  V30 24839 C 2323.38 -4.81901 -2.01416 0
M  V30 24840 H 2325.07 -2.85771 -0.89306 0
M  V30 24841 H 2322.62 -1.37488 -0.428153 0
M  V30 24842 H 2324.57 -2.59997 -3.31632 0
M  V30 24843 H 2323.3 -1.41443 -2.94383 0
M  V30 24844 H 2321.96 -3.20324 -1.78291 0
M  V30 24845 H 2321.6 -2.74352 -4.21592 0
M  V30 24846 H 2321.3 -4.45654 -3.8297 0
M  V30 24847 H 2322.83 -3.97965 -4.63094 0
M  V30 24848 H 2324.24 -5.08542 -2.64684 0
M  V30 24849 H 2322.64 -5.6312 -2.07403 0
M  V30 24850 H 2323.71 -4.75148 -0.967593 0
M  V30 24851 N 2325.05 0.45796 -1.50799 0
M  V30 24852 C 2326.47 0.792795 -1.38517 0
M  V30 24853 C 2326.67 1.96378 -0.451443 0
M  V30 24854 O 2325.72 2.52298 0.101076 0
M  V30 24855 C 2327.04 1.09253 -2.80151 0
M  V30 24856 C 2328.58 1.1982 -2.89158 0
M  V30 24857 C 2329.06 1.53098 -4.31654 0
M  V30 24858 N 2330.55 1.60064 -4.34665 0
M  V30 24859 C 2331.29 1.87345 -5.41931 0
M  V30 24860 N 2330.78 2.12556 -6.59387 0
M  V30 24861 N 2332.57 1.88956 -5.29388 0
M  V30 24862 H 2324.73 -0.313548 -2.10073 0
M  V30 24863 H 2326.99 -0.0778028 -0.944802 0
M  V30 24864 H 2326.69 0.305022 -3.50375 0
M  V30 24865 H 2326.57 2.02544 -3.18207 0
M  V30 24866 H 2328.96 1.97636 -2.19144 0
M  V30 24867 H 2329.04 0.244776 -2.54626 0
M  V30 24868 H 2328.68 0.758178 -5.02209 0
M  V30 24869 H 2328.61 2.49613 -4.63682 0
M  V30 24870 H 2331.1 1.42567 -3.49976 0
M  V30 24871 H 2331.41 2.32684 -7.36938 0
M  V30 24872 H 2329.76 2.09921 -6.62539 0
M  V30 24873 H 2332.95 1.68765 -4.36619 0
M  V30 24874 H 2333.12 2.0988 -6.1307 0
M  V30 24875 N 2326.53 1.40598 0.712035 0
M  V30 24876 C 2327.78 1.38372 1.46752 0
M  V30 24877 C 2328.09 -0.00974952 1.95598 0
M  V30 24878 O 2329.3 -0.154629 2.71059 0
M  V30 24879 C 2327.75 2.43211 2.65285 0
M  V30 24880 C 2327.36 3.88386 2.23294 0
M  V30 24881 C 2329.11 2.50097 3.43004 0
M  V30 24882 C 2327.01 4.84814 3.38688 0
M  V30 24883 H 2325.94 0.514516 0.551171 0
M  V30 24884 H 2328.59 1.6635 0.774587 0
M  V30 24885 H 2326.98 2.08338 3.36766 0
M  V30 24886 H 2328.15 4.32422 1.5921 0
M  V30 24887 H 2326.46 3.85008 1.58611 0
M  V30 24888 H 2329.06 3.19327 4.28876 0
M  V30 24889 H 2329.4 1.5326 3.87062 0
M  V30 24890 H 2329.94 2.83979 2.78569 0
M  V30 24891 H 2326.68 5.82997 2.99658 0
M  V30 24892 H 2326.2 4.4544 4.01675 0
M  V30 24893 H 2327.88 5.04802 4.04703 0
M  V30 24894 N 2328.01 -0.94462 1.26153 0
M  V30 24895 C 2328.94 -2.06017 1.09906 0
M  V30 24896 C 2329.92 -1.70099 0.00522528 0
M  V30 24897 O 2331.1 -1.93395 0.176617 0
M  V30 24898 C 2328.23 -3.39592 0.727622 0
M  V30 24899 C 2327.19 -3.89558 1.77281 0
M  V30 24900 C 2326.51 -5.19744 1.25578 0
M  V30 24901 C 2327.81 -4.14822 3.17365 0
M  V30 24902 H 2329.51 -2.19868 2.03221 0
M  V30 24903 H 2327.05 -1.0565 0.97847 0
M  V30 24904 H 2329.01 -4.17094 0.60085 0
M  V30 24905 H 2327.73 -3.25708 -0.241229 0
M  V30 24906 H 2326.39 -3.14234 1.88819 0
M  V30 24907 H 2326.04 -5.02237 0.276872 0
M  V30 24908 H 2325.74 -5.54144 1.95443 0
M  V30 24909 H 2327.26 -5.99833 1.14161 0
M  V30 24910 H 2328.68 -4.82949 3.08923 0
M  V30 24911 H 2327.07 -4.60497 3.84789 0
M  V30 24912 H 2328.14 -3.20728 3.63678 0
M  V30 24913 N 2329.49 -1.07901 -1.1487 0
M  V30 24914 C 2330.71 -0.82696 -1.902 0
M  V30 24915 C 2331.14 0.614633 -1.77775 0
M  V30 24916 O 2330.49 1.43011 -1.11434 0
M  V30 24917 C 2330.54 -1.24708 -3.38349 0
M  V30 24918 O 2329.65 -0.395823 -4.10496 0
M  V30 24919 H 2328.99 -0.300792 -0.591963 0
M  V30 24920 H 2331.52 -1.4391 -1.45434 0
M  V30 24921 H 2331.53 -1.2257 -3.89154 0
M  V30 24922 H 2330.2 -2.29704 -3.46711 0
M  V30 24923 H 2328.78 -0.480182 -3.69795 0
M  V30 24924 N 2330.96 1.31811 -0.863929 0
M  V30 24925 C 2331.9 2.27574 -0.272525 0
M  V30 24926 C 2332.91 1.52828 0.561013 0
M  V30 24927 O 2334.1 1.74321 0.383991 0
M  V30 24928 C 2331.2 3.3294 0.632771 0
M  V30 24929 C 2330.37 4.37081 -0.166979 0
M  V30 24930 C 2329.43 5.21974 0.665516 0
M  V30 24931 O 2328.46 5.6912 0.0957091 0
M  V30 24932 N 2329.66 5.45739 1.9786 0
M  V30 24933 H 2332.42 2.78963 -1.09544 0
M  V30 24934 H 2329.98 1.44769 -0.724816 0
M  V30 24935 H 2331.98 3.86647 1.19526 0
M  V30 24936 H 2330.55 2.81641 1.35637 0
M  V30 24937 H 2329.77 3.83531 -0.910906 0
M  V30 24938 H 2331.05 5.03737 -0.715963 0
M  V30 24939 H 2330.45 5.09182 2.46475 0
M  V30 24940 H 2329.01 6.02405 2.48901 0
M  V30 24941 N 2332.44 0.62277 1.44773 0
M  V30 24942 C 2333.86 0.287679 1.56986 0
M  V30 24943 C 2334.06 -1.20942 1.61169 0
M  V30 24944 O 2333.11 -1.99312 1.55019 0
M  V30 24945 C 2334.43 0.972238 2.84549 0
M  V30 24946 C 2335.97 0.949588 2.98248 0
M  V30 24947 C 2336.45 1.61445 4.28602 0
M  V30 24948 N 2337.94 1.58065 4.35396 0
M  V30 24949 C 2338.68 2.0641 5.3496 0
M  V30 24950 N 2338.17 2.62908 6.40977 0
M  V30 24951 N 2339.96 1.97088 5.26415 0
M  V30 24952 H 2332.12 1.59465 1.40302 0
M  V30 24953 H 2334.38 0.66889 0.671782 0
M  V30 24954 H 2334.08 2.02698 2.87413 0
M  V30 24955 H 2333.96 0.504837 3.73806 0
M  V30 24956 H 2336.35 -0.0966549 2.94942 0
M  V30 24957 H 2336.43 1.4554 2.10361 0
M  V30 24958 H 2336.07 2.6601 4.32667 0
M  V30 24959 H 2336 1.08354 5.15332 0
M  V30 24960 H 2338.49 1.16807 3.59395 0
M  V30 24961 H 2338.8 2.97552 7.1322 0
M  V30 24962 H 2337.15 2.66955 6.41685 0
M  V30 24963 H 2340.34 1.52677 4.42501 0
M  V30 24964 H 2340.51 2.35076 6.03857 0
M  V30 24965 N 2333.92 -1.53367 0.362817 0
M  V30 24966 C 2335.14 -2.06107 -0.23119 0
M  V30 24967 C 2335.57 -1.23477 -1.41898 0
M  V30 24968 O 2334.93 -0.25316 -1.79524 0
M  V30 24969 C 2334.98 -3.55481 -0.605461 0
M  V30 24970 O 2334.08 -3.75593 -1.70305 0
M  V30 24971 H 2333.42 -0.663113 -0.0343154 0
M  V30 24972 H 2335.95 -1.97813 0.522619 0
M  V30 24973 H 2335.96 -3.98458 -0.877244 0
M  V30 24974 H 2334.64 -4.15067 0.263077 0
M  V30 24975 H 2333.21 -3.44514 -1.42704 0
M  V30 24976 N 2335.4 -0.091913 -1.57332 0
M  V30 24977 C 2336.35 0.885709 -2.15077 0
M  V30 24978 C 2337.34 1.29439 -1.09279 0
M  V30 24979 O 2338.55 1.26929 -1.27629 0
M  V30 24980 H 2334.92 0.303644 -0.687971 0
M  V30 24981 H 2336.89 0.373943 -2.96048 0
M  V30 24982 C 2335.64 2.13633 -2.74329 0
M  V30 24983 H 2334.96 1.83074 -3.55421 0
M  V30 24984 H 2336.4 2.80104 -3.18305 0
M  V30 24985 C 2334.86 2.90824 -1.70067 0
M  V30 24986 O 2335.39 3.85252 -1.13769 0
M  V30 24987 N 2333.6 2.54305 -1.40633 0
M  V30 24988 H 2333.15 1.77587 -1.86603 0
M  V30 24989 H 2333.1 3.06253 -0.711096 0
M  V30 24990 N 2336.88 1.56548 0.181765 0
M  V30 24991 C 2338.15 1.72253 0.926734 0
M  V30 24992 C 2338.53 0.650421 2.0083 0
M  V30 24993 O 2337.88 -0.336481 2.26009 0
M  V30 24994 C 2338.09 3.15073 1.50101 0
M  V30 24995 C 2339.44 3.75714 1.97798 0
M  V30 24996 O 2340.46 3.18285 1.59916 0
M  V30 24997 O 2339.32 4.7653 2.67547 0
M  V30 24998 H 2336.42 0.703046 0.435494 0
M  V30 24999 H 2338.96 1.68842 0.170414 0
M  V30 25000 H 2337.73 3.8458 0.722053 0
M  V30 25001 H 2337.36 3.22767 2.3218 0
M  V30 25002 N 2338.35 -0.449957 1.5104 0
M  V30 25003 C 2339.26 -1.57064 1.74264 0
M  V30 25004 C 2340.28 -1.62334 0.626391 0
M  V30 25005 O 2341.46 -1.79811 0.907194 0
M  V30 25006 C 2338.52 -2.93141 1.8512 0
M  V30 25007 C 2337.58 -2.9809 3.08935 0
M  V30 25008 C 2336.82 -4.27676 3.19263 0
M  V30 25009 O 2337.04 -5.19359 2.35844 0
M  V30 25010 O 2335.97 -4.38651 4.12152 0
M  V30 25011 H 2339.8 -1.40386 2.69305 0
M  V30 25012 H 2337.38 -0.631665 1.3539 0
M  V30 25013 H 2339.27 -3.73923 1.94318 0
M  V30 25014 H 2337.94 -3.09973 0.932643 0
M  V30 25015 H 2336.85 -2.16309 3.05224 0
M  V30 25016 H 2338.18 -2.86199 4.00438 0
M  V30 25017 N 2339.83 -1.40974 -0.704569 0
M  V30 25018 C 2341.08 -1.40054 -1.46672 0
M  V30 25019 C 2341.41 -0.00644516 -1.94199 0
M  V30 25020 O 2340.69 0.964205 -1.68918 0
M  V30 25021 C 2340.97 -2.39957 -2.68501 0
M  V30 25022 C 2340.82 -3.88436 -2.26798 0
M  V30 25023 C 2342.14 -2.3724 -3.70682 0
M  V30 25024 H 2339.26 -0.510038 -0.532006 0
M  V30 25025 H 2341.9 -1.72187 -0.803225 0
M  V30 25026 H 2340.05 -2.12686 -3.25111 0
M  V30 25027 H 2341.72 -4.26577 -1.75585 0
M  V30 25028 H 2339.97 -4.03737 -1.58678 0
M  V30 25029 H 2340.64 -4.53871 -3.14173 0
M  V30 25030 H 2343.11 -2.6142 -3.23726 0
M  V30 25031 H 2341.99 -3.0917 -4.53547 0
M  V30 25032 H 2342.25 -1.38784 -4.19752 0
M  V30 25033 N 2341.31 0.937917 -1.26653 0
M  V30 25034 C 2342.27 2.01865 -1.08549 0
M  V30 25035 C 2343.27 1.60767 -0.032761 0
M  V30 25036 O 2344.46 1.71992 -0.276458 0
M  V30 25037 C 2341.6 3.34611 -0.651769 0
M  V30 25038 H 2342.79 2.19357 -2.04506 0
M  V30 25039 H 2340.34 1.11732 -1.09296 0
M  V30 25040 H 2341.08 3.22818 0.309639 0
M  V30 25041 H 2340.86 3.65795 -1.41195 0
M  V30 25042 H 2342.35 4.14001 -0.547046 0
M  V30 25043 N 2342.79 1.08509 1.14296 0
M  V30 25044 C 2344.2 0.812926 1.37345 0
M  V30 25045 C 2344.4 -0.577291 1.93053 0
M  V30 25046 O 2343.46 -1.3339 2.14391 0
M  V30 25047 C 2344.77 1.89646 2.33356 0
M  V30 25048 C 2346.32 1.92259 2.46993 0
M  V30 25049 C 2346.8 2.9973 3.46303 0
M  V30 25050 N 2348.29 2.98908 3.53847 0
M  V30 25051 C 2349.02 3.78708 4.30544 0
M  V30 25052 N 2348.52 4.68389 5.10474 0
M  V30 25053 N 2350.31 3.67006 4.2575 0
M  V30 25054 H 2342.46 1.98152 0.764832 0
M  V30 25055 H 2344.73 0.859966 0.398951 0
M  V30 25056 H 2344.43 2.89601 1.9956 0
M  V30 25057 H 2344.31 1.76665 3.33271 0
M  V30 25058 H 2346.69 0.929495 2.80079 0
M  V30 25059 H 2346.77 2.09319 1.47035 0
M  V30 25060 H 2346.42 3.99247 3.1395 0
M  V30 25061 H 2346.35 2.79915 4.46044 0
M  V30 25062 H 2348.84 2.33909 2.96808 0
M  V30 25063 H 2349.15 5.25883 5.66275 0
M  V30 25064 H 2347.5 4.72431 5.09739 0
M  V30 25065 H 2350.69 2.96311 3.62378 0
M  V30 25066 H 2350.86 4.29436 4.85272 0
M  V30 25067 N 2344.27 -1.31351 0.870907 0
M  V30 25068 C 2345.18 -2.32256 0.330824 0
M  V30 25069 C 2346.19 -1.64751 -0.559738 0
M  V30 25070 O 2347.37 -1.96165 -0.456229 0
M  V30 25071 C 2344.43 -3.43661 -0.458076 0
M  V30 25072 C 2343.49 -4.26822 0.460557 0
M  V30 25073 C 2342.73 -5.32907 -0.290787 0
M  V30 25074 O 2342.95 -5.49809 -1.51875 0
M  V30 25075 O 2341.88 -6.00871 0.351837 0
M  V30 25076 H 2345.71 -2.80374 1.16723 0
M  V30 25077 H 2343.3 -1.35266 0.634309 0
M  V30 25078 H 2345.18 -4.11561 -0.905271 0
M  V30 25079 H 2343.85 -2.97703 -1.27101 0
M  V30 25080 H 2342.76 -3.61672 0.95627 0
M  V30 25081 H 2344.09 -4.76347 1.23911 0
M  V30 25082 N 2345.74 -0.630439 -1.44441 0
M  V30 25083 C 2346.99 -0.134652 -2.02052 0
M  V30 25084 C 2347.32 1.24324 -1.49579 0
M  V30 25085 O 2346.57 1.83879 -0.669838 0
M  V30 25086 C 2346.87 -0.0698463 -3.57332 0
M  V30 25087 C 2346.54 -1.38643 -4.29056 0
M  V30 25088 C 2345.2 -1.74702 -4.48367 0
M  V30 25089 C 2347.55 -2.25551 -4.69868 0
M  V30 25090 C 2344.88 -2.97378 -5.0575 0
M  V30 25091 C 2347.23 -3.47497 -5.2861 0
M  V30 25092 C 2345.9 -3.8378 -5.4614 0
M  V30 25093 H 2345.17 -0.0492728 -0.73936 0
M  V30 25094 H 2347.81 -0.816617 -1.73216 0
M  V30 25095 H 2346.12 0.695485 -3.85578 0
M  V30 25096 H 2347.82 0.330273 -3.99638 0
M  V30 25097 H 2344.41 -1.09582 -4.14355 0
M  V30 25098 H 2348.59 -1.98987 -4.54662 0
M  V30 25099 H 2343.85 -3.25567 -5.1751 0
M  V30 25100 H 2348.02 -4.15073 -5.59184 0
M  V30 25101 H 2345.65 -4.78921 -5.90372 0
M  V30 25102 N 2347.22 1.53172 -0.370945 0
M  V30 25103 C 2348.47 2.01632 0.217388 0
M  V30 25104 C 2348.8 1.25759 1.47981 0
M  V30 25105 O 2348.08 0.352798 1.91274 0
M  V30 25106 C 2348.36 3.56557 0.503919 0
M  V30 25107 C 2348.21 4.43117 -0.772508 0
M  V30 25108 C 2349.53 4.20392 1.30226 0
M  V30 25109 H 2346.65 0.73291 0.0775357 0
M  V30 25110 H 2349.29 1.83387 -0.496895 0
M  V30 25111 H 2347.44 3.72233 1.11241 0
M  V30 25112 H 2349.11 4.39227 -1.40987 0
M  V30 25113 H 2347.36 4.10869 -1.39174 0
M  V30 25114 H 2348.03 5.49479 -0.526911 0
M  V30 25115 H 2350.5 4.08581 0.787474 0
M  V30 25116 H 2349.38 5.28808 1.47149 0
M  V30 25117 H 2349.64 3.76809 2.31231 0
M  V30 25118 N 2348.7 0.100255 1.57281 0
M  V30 25119 C 2349.65 -0.85682 2.14306 0
M  V30 25120 C 2350.62 -1.27632 1.06298 0
M  V30 25121 O 2351.8 -1.35716 1.34112 0
M  V30 25122 C 2348.94 -2.10862 2.73187 0
M  V30 25123 C 2348.06 -1.73918 3.95445 0
M  V30 25124 C 2347.19 -2.93923 4.42473 0
M  V30 25125 C 2346.23 -2.5313 5.57307 0
M  V30 25126 N 2345.37 -3.65987 5.99165 0
M  V30 25127 H 2350.21 -0.363674 2.95773 0
M  V30 25128 H 2347.74 -0.167833 1.46139 0
M  V30 25129 H 2349.7 -2.84179 3.05447 0
M  V30 25130 H 2348.33 -2.57667 1.94441 0
M  V30 25131 H 2347.38 -0.905489 3.69466 0
M  V30 25132 H 2348.7 -1.39927 4.78771 0
M  V30 25133 H 2347.85 -3.75487 4.76544 0
M  V30 25134 H 2346.59 -3.31128 3.58058 0
M  V30 25135 H 2345.59 -1.69994 5.2286 0
M  V30 25136 H 2346.82 -2.17063 6.43475 0
M  V30 25137 H 2344.76 -4.029 5.17694 0
M  V30 25138 H 2344.68 -3.35857 6.773 0
M  V30 25139 H 2345.95 -4.48046 6.37868 0
M  V30 25140 N 2350.18 -1.56643 -0.17346 0
M  V30 25141 C 2351.11 -1.99273 -1.21706 0
M  V30 25142 C 2352.09 -0.867985 -1.46287 0
M  V30 25143 O 2353.28 -1.13391 -1.57658 0
M  V30 25144 C 2350.41 -2.35079 -2.55647 0
M  V30 25145 C 2349.36 -3.50494 -2.45639 0
M  V30 25146 C 2348.69 -3.72035 -3.84049 0
M  V30 25147 C 2349.99 -4.84011 -1.96293 0
M  V30 25148 H 2351.68 -2.86702 -0.8627 0
M  V30 25149 H 2349.23 -1.37934 -0.413547 0
M  V30 25150 H 2351.18 -2.63499 -3.28856 0
M  V30 25151 H 2349.9 -1.44557 -2.92867 0
M  V30 25152 H 2348.56 -3.22197 -1.74884 0
M  V30 25153 H 2348.21 -2.78808 -4.18659 0
M  V30 25154 H 2347.91 -4.49691 -3.78222 0
M  V30 25155 H 2349.43 -4.02854 -4.58847 0
M  V30 25156 H 2350.85 -5.11321 -2.59275 0
M  V30 25157 H 2349.24 -5.65288 -2.01419 0
M  V30 25158 H 2350.31 -4.76148 -0.917143 0
M  V30 25159 N 2351.66 0.44194 -1.51277 0
M  V30 25160 C 2352.6 1.53609 -1.72258 0
M  V30 25161 C 2353.57 1.56224 -0.564191 0
M  V30 25162 O 2354.76 1.73306 -0.798104 0
M  V30 25163 C 2351.9 2.91363 -1.84937 0
M  V30 25164 C 2351.01 2.98312 -3.12465 0
M  V30 25165 C 2350.15 4.2716 -3.15765 0
M  V30 25166 C 2349.19 4.2796 -4.37627 0
M  V30 25167 N 2348.32 5.48325 -4.38502 0
M  V30 25168 H 2353.16 1.35021 -2.65656 0
M  V30 25169 H 2350.7 0.655986 -1.31663 0
M  V30 25170 H 2352.66 3.71286 -1.90269 0
M  V30 25171 H 2351.29 3.08519 -0.949515 0
M  V30 25172 H 2350.34 2.1108 -3.16464 0
M  V30 25173 H 2351.65 2.94764 -4.02388 0
M  V30 25174 H 2350.81 5.15454 -3.19988 0
M  V30 25175 H 2349.55 4.33358 -2.23723 0
M  V30 25176 H 2348.55 3.3806 -4.33585 0
M  V30 25177 H 2349.78 4.23429 -5.30928 0
M  V30 25178 H 2347.72 5.55253 -3.49328 0
M  V30 25179 H 2347.64 5.46638 -5.22229 0
M  V30 25180 H 2348.91 6.38663 -4.46912 0
M  V30 25181 N 2353.14 1.41345 0.697083 0
M  V30 25182 C 2354.36 1.44173 1.49093 0
M  V30 25183 C 2354.79 0.0481899 1.88038 0
M  V30 25184 O 2354.14 -0.948216 1.54527 0
M  V30 25185 C 2354.19 2.35495 2.73084 0
M  V30 25186 O 2353.3 1.81094 3.70511 0
M  V30 25187 H 2352.64 0.489369 0.448792 0
M  V30 25188 H 2355.17 1.85789 0.856959 0
M  V30 25189 H 2355.18 2.51317 3.21409 0
M  V30 25190 H 2353.85 3.3675 2.44075 0
M  V30 25191 H 2352.43 1.74714 3.29438 0
M  V30 25192 N 2354.61 -0.931187 1.27148 0
M  V30 25193 C 2355.52 -2.06476 1.11376 0
M  V30 25194 C 2356.54 -1.73943 0.0446756 0
M  V30 25195 O 2357.72 -1.99837 0.250452 0
M  V30 25196 C 2354.78 -3.38292 0.758897 0
M  V30 25197 C 2353.84 -3.84546 1.90848 0
M  V30 25198 C 2353.07 -5.10071 1.57045 0
M  V30 25199 O 2353.3 -5.68404 0.476745 0
M  V30 25200 O 2352.23 -5.51612 2.40849 0
M  V30 25201 H 2356.06 -2.22694 2.06497 0
M  V30 25202 H 2353.64 -1.04976 1.06303 0
M  V30 25203 H 2355.52 -4.1747 0.574171 0
M  V30 25204 H 2354.2 -3.2329 -0.162822 0
M  V30 25205 H 2353.11 -3.0627 2.14824 0
M  V30 25206 H 2354.44 -4.04084 2.81028 0
M  V30 25207 N 2356.09 -1.09114 -1.13719 0
M  V30 25208 C 2357.32 -0.847086 -1.89312 0
M  V30 25209 C 2357.74 0.595743 -1.78417 0
M  V30 25210 O 2357.1 1.41821 -1.12944 0
M  V30 25211 C 2357.15 -1.2829 -3.37008 0
M  V30 25212 O 2356.25 -0.439339 -4.10053 0
M  V30 25213 H 2355.59 -0.307054 -0.588739 0
M  V30 25214 H 2358.12 -1.45444 -1.439 0
M  V30 25215 H 2358.13 -1.2669 -3.87832 0
M  V30 25216 H 2356.81 -2.33369 -3.44256 0
M  V30 25217 H 2355.38 -0.519377 -3.69265 0
M  V30 25218 N 2357.57 1.30887 -0.877861 0
M  V30 25219 C 2358.99 1.49041 -0.57087 0
M  V30 25220 C 2359.19 1.80625 0.893127 0
M  V30 25221 O 2358.24 1.88961 1.67481 0
M  V30 25222 C 2359.55 2.61876 -1.47789 0
M  V30 25223 C 2361.1 2.75758 -1.48076 0
M  V30 25224 C 2361.58 3.91698 -2.37354 0
M  V30 25225 N 2363.07 3.98997 -2.35278 0
M  V30 25226 C 2363.8 4.87999 -3.01072 0
M  V30 25227 N 2363.3 5.81847 -3.76066 0
M  V30 25228 N 2365.09 4.8131 -2.9034 0
M  V30 25229 H 2357.24 1.08656 -1.82504 0
M  V30 25230 H 2359.51 0.53763 -0.780806 0
M  V30 25231 H 2359.21 2.45337 -2.51998 0
M  V30 25232 H 2359.09 3.58195 -1.18222 0
M  V30 25233 H 2361.47 2.91707 -0.446217 0
M  V30 25234 H 2361.55 1.80082 -1.81671 0
M  V30 25235 H 2361.2 3.76506 -3.40889 0
M  V30 25236 H 2361.13 4.86698 -2.01079 0
M  V30 25237 H 2363.62 3.31857 -1.80774 0
M  V30 25238 H 2363.93 6.46507 -4.23378 0
M  V30 25239 H 2362.28 5.81802 -3.80174 0
M  V30 25240 H 2365.47 4.0697 -2.31285 0
M  V30 25241 H 2365.64 5.50465 -3.41895 0
M  V30 25242 N 2359.05 0.638091 1.44105 0
M  V30 25243 C 2360.27 0.150952 2.0685 0
M  V30 25244 C 2360.7 -1.1683 1.47419 0
M  V30 25245 O 2360.06 -1.7183 0.578295 0
M  V30 25246 C 2360.1 0.0571434 3.60555 0
M  V30 25247 O 2359.21 -0.984902 4.00467 0
M  V30 25248 H 2358.55 0.0879514 0.658149 0
M  V30 25249 H 2361.08 0.87674 1.84863 0
M  V30 25250 H 2361.09 -0.13116 4.07789 0
M  V30 25251 H 2359.76 1.02028 4.03191 0
M  V30 25252 H 2358.34 -0.770608 3.64851 0
M  V30 25253 N 2360.53 -1.52973 0.379063 0
M  V30 25254 C 2361.75 -2.05864 -0.206754 0
M  V30 25255 C 2362.17 -1.25158 -1.41354 0
M  V30 25256 O 2361.53 -0.295619 -1.8009 0
M  V30 25257 C 2361.58 -3.56703 -0.586983 0
M  V30 25258 O 2361.3 -4.34352 0.571853 0
M  V30 25259 C 2362.8 -4.25901 -1.22975 0
M  V30 25260 H 2360.02 -0.670158 -0.0336005 0
M  V30 25261 H 2362.56 -1.97205 0.541333 0
M  V30 25262 H 2360.72 -3.65468 -1.28497 0
M  V30 25263 H 2361.13 -5.23847 0.261636 0
M  V30 25264 H 2362.61 -5.32717 -1.44625 0
M  V30 25265 H 2363.08 -3.80469 -2.19409 0
M  V30 25266 H 2363.69 -4.21425 -0.572818 0
M  V30 25267 N 2362 -0.108595 -1.57225 0
M  V30 25268 C 2362.91 0.859363 -2.18294 0
M  V30 25269 C 2363.93 1.30036 -1.15614 0
M  V30 25270 O 2365.11 1.36549 -1.48041 0
M  V30 25271 C 2362.17 2.09553 -2.76204 0
M  V30 25272 C 2361.23 1.70745 -3.93884 0
M  V30 25273 C 2360.46 2.88469 -4.49023 0
M  V30 25274 O 2360.69 4.03592 -4.03075 0
M  V30 25275 O 2359.62 2.66155 -5.39857 0
M  V30 25276 H 2363.45 0.369716 -3.01441 0
M  V30 25277 H 2361.03 0.116473 -1.48945 0
M  V30 25278 H 2362.91 2.81972 -3.13161 0
M  V30 25279 H 2361.59 2.57544 -1.96094 0
M  V30 25280 H 2360.5 0.95465 -3.61714 0
M  V30 25281 H 2361.83 1.27505 -4.75398 0
M  V30 25282 N 2363.48 1.56732 0.16515 0
M  V30 25283 C 2364.39 2.00127 1.22419 0
M  V30 25284 C 2365.41 0.913645 1.48083 0
M  V30 25285 O 2366.58 1.22175 1.6011 0
M  V30 25286 C 2363.65 2.35769 2.54193 0
M  V30 25287 C 2362.71 3.5839 2.36337 0
M  V30 25288 C 2361.94 3.92322 3.61827 0
M  V30 25289 O 2362.17 3.27143 4.67262 0
M  V30 25290 O 2361.1 4.85647 3.5557 0
M  V30 25291 H 2364.93 2.90494 0.885835 0
M  V30 25292 H 2362.51 1.44682 0.372492 0
M  V30 25293 H 2364.39 2.59635 3.31915 0
M  V30 25294 H 2363.07 1.48562 2.87595 0
M  V30 25295 H 2361.97 3.39734 1.56626 0
M  V30 25296 H 2363.31 4.46157 2.07857 0
M  V30 25297 N 2364.96 -0.433911 1.51509 0
M  V30 25298 C 2366.21 -1.18072 1.64022 0
M  V30 25299 C 2366.53 -1.91641 0.360361 0
M  V30 25300 O 2365.8 -1.85699 -0.623912 0
M  V30 25301 H 2364.38 -0.438839 0.604507 0
M  V30 25302 H 2367.04 -0.497145 1.88453 0
M  V30 25303 H 2366.14 -1.90842 2.46953 0
M  V30 25304 N 2366.44 -1.41713 -0.689577 0
M  V30 25305 C 2367.66 -1.44962 -1.48327 0
M  V30 25306 C 2368.09 -0.0581613 -1.8801 0
M  V30 25307 O 2367.45 0.940008 -1.55028 0
M  V30 25308 C 2367.49 -2.36939 -2.71831 0
M  V30 25309 O 2366.6 -1.83057 -3.69546 0
M  V30 25310 H 2365.94 -0.491742 -0.446191 0
M  V30 25311 H 2368.47 -1.8624 -0.847094 0
M  V30 25312 H 2368.48 -2.53018 -3.20071 0
M  V30 25313 H 2367.15 -3.38039 -2.42285 0
M  V30 25314 H 2365.73 -1.76458 -3.28507 0
M  V30 25315 O 2367.96 0.831818 -1.38431 0
M  V30 25316 H 2368.65 1.47434 -1.25631 0
M  V30 END ATOM
M  V30 BEGIN BOND
M  V30 END BOND
M  V30 END CTAB
M  END
$$$$
