drugbank_target|Q9Z4N6 Iron ABC transporter substrate-binding protein (DB01942)
 OpenBabel12092120233D

  0  0  0     0  0            999 V3000
M  V30 BEGIN CTAB
M  V30 COUNTS 5391 5440 0 0 0
M  V30 BEGIN ATOM
M  V30 1 H -0.908 1.98254 -0.117106 0
M  V30 2 N 0 1.576 0 0
M  V30 3 C 0.933 2.03868 1.02534 0
M  V30 4 C 1.911 0.928543 1.3348 0
M  V30 5 O 3.095 1.19667 1.45644 0
M  V30 6 C 0.222 2.43627 2.35294 0
M  V30 7 C -0.732 3.65373 2.2001 0
M  V30 8 S 0.101 5.13292 1.52614 0
M  V30 9 C 1.257 5.56322 2.86805 0
M  V30 10 H 1.49 2.90518 0.631377 0
M  V30 11 H -0.977 1.52953 0.210867 0
M  V30 12 H 0.981 2.67203 3.11629 0
M  V30 13 H -0.358 1.57376 2.7183 0
M  V30 14 H -1.165 3.90944 3.18086 0
M  V30 15 H -1.563 3.418 1.51819 0
M  V30 16 H 0.729 5.58782 3.83104 0
M  V30 17 H 1.672 6.56266 2.65933 0
M  V30 18 H 2.08 4.83886 2.90714 0
M  V30 19 N 1.4781 -0.272755 1.55222 0
M  V30 20 C 2.4251 -1.33716 1.88119 0
M  V30 21 C 3.3951 -1.49066 0.73271 0
M  V30 22 O 4.5801 -1.63469 0.984002 0
M  V30 23 C 1.7201 -2.69238 2.15882 0
M  V30 24 C 0.8331 -2.62108 3.43399 0
M  V30 25 C -0.0319 -3.89811 3.60861 0
M  V30 26 C -0.9929 -3.77193 4.8207 0
M  V30 27 N -1.8559 -4.9673 4.96189 0
M  V30 28 H 2.9841 -1.04962 2.78903 0
M  V30 29 H 0.5211 -0.507088 1.38083 0
M  V30 30 H 2.4791 -3.48089 2.29978 0
M  V30 31 H 1.1091 -2.96194 1.28331 0
M  V30 32 H 0.1611 -1.74967 3.37773 0
M  V30 33 H 1.4731 -2.48685 4.32386 0
M  V30 34 H 0.6271 -4.77103 3.74777 0
M  V30 35 H -0.6339 -4.06102 2.7006 0
M  V30 36 H -1.6289 -2.88284 4.68159 0
M  V30 37 H -0.4039 -3.62421 5.74307 0
M  V30 38 H -2.4579 -5.13431 4.08319 0
M  V30 39 H -2.5409 -4.85839 5.79221 0
M  V30 40 H -1.2729 -5.85594 5.1449 0
M  V30 41 N 2.9562 -1.48159 -0.537278 0
M  V30 42 C 3.9032 -1.62138 -1.64256 0
M  V30 43 C 4.8732 -0.463668 -1.59497 0
M  V30 44 O 6.0582 -0.686241 -1.78032 0
M  V30 45 C 3.1982 -1.66028 -3.02537 0
M  V30 46 C 2.3112 -2.92855 -3.17585 0
M  V30 47 C 1.4462 -2.87952 -4.46382 0
M  V30 48 C 0.4852 -4.09516 -4.54932 0
M  V30 49 N -0.3778 -4.02733 -5.75109 0
M  V30 50 H 4.4622 -2.56529 -1.51647 0
M  V30 51 H 1.9992 -1.27224 -0.738414 0
M  V30 52 H 3.9572 -1.66265 -3.82638 0
M  V30 53 H 2.5872 -0.751331 -3.13934 0
M  V30 54 H 1.6392 -3.02395 -2.30784 0
M  V30 55 H 2.9512 -3.82822 -3.19764 0
M  V30 56 H 2.1052 -2.8655 -5.34765 0
M  V30 57 H 0.8442 -1.95702 -4.46712 0
M  V30 58 H -0.1508 -4.11201 -3.64957 0
M  V30 59 H 1.0742 -5.02917 -4.56346 0
M  V30 60 H -0.9798 -3.13299 -5.76351 0
M  V30 61 H -1.0628 -4.86397 -5.78752 0
M  V30 62 H 0.2052 -4.05379 -6.65799 0
M  V30 63 N 4.4343 0.785586 -1.36625 0
M  V30 64 C 5.6623 1.57448 -1.3423 0
M  V30 65 C 6.0773 1.88649 0.0755653 0
M  V30 66 O 5.4343 1.50414 1.03354 0
M  V30 67 C 5.4853 2.89316 -2.16745 0
M  V30 68 O 5.2063 2.59459 -3.53005 0
M  V30 69 C 6.7073 3.83606 -2.22174 0
M  V30 70 H 3.9273 0.488226 -0.4603 0
M  V30 71 H 6.4713 0.974733 -1.79775 0
M  V30 72 H 4.6263 3.4575 -1.74745 0
M  V30 73 H 5.0403 3.43804 -3.96105 0
M  V30 74 H 6.5143 4.73181 -2.8426 0
M  V30 75 H 6.9913 4.21734 -1.22627 0
M  V30 76 H 7.5973 3.33104 -2.64427 0
M  V30 77 N 5.9124 1.20967 1.01018 0
M  V30 78 C 6.8424 0.988272 2.11555 0
M  V30 79 C 7.8234 -0.0849778 1.69888 0
M  V30 80 O 9.0084 0.0738202 1.9406 0
M  V30 81 C 6.1384 0.546528 3.42973 0
M  V30 82 C 5.0924 1.56375 3.9841 0
M  V30 83 C 4.4184 0.97842 5.25672 0
M  V30 84 C 5.7184 2.94922 4.31066 0
M  V30 85 H 7.4124 1.91276 2.30334 0
M  V30 86 H 4.9584 0.921073 1.1069 0
M  V30 87 H 6.9114 0.378839 4.19694 0
M  V30 88 H 5.6354 -0.413598 3.23971 0
M  V30 89 H 4.2944 1.71891 3.23804 0
M  V30 90 H 3.9424 0.0101688 5.02999 0
M  V30 91 H 3.6424 1.65784 5.63728 0
M  V30 92 H 5.1664 0.821939 6.05043 0
M  V30 93 H 6.5804 2.8288 4.9865 0
M  V30 94 H 4.9774 3.5983 4.80253 0
M  V30 95 H 6.0474 3.4616 3.39561 0
M  V30 96 N 7.3905 -1.2043 1.01659 0
M  V30 97 C 8.6155 -1.94318 0.724942 0
M  V30 98 C 9.0405 -1.74266 -0.708034 0
M  V30 99 O 8.3985 -1.03694 -1.48719 0
M  V30 100 C 8.4465 -3.44486 1.06591 0
M  V30 101 O 7.5505 -4.12017 0.177599 0
M  V30 102 H 6.8915 -0.60708 0.26898 0
M  V30 103 H 9.4215 -1.52861 1.35995 0
M  V30 104 H 9.4315 -3.95106 1.01762 0
M  V30 105 H 8.1065 -3.58404 2.10997 0
M  V30 106 H 6.6835 -3.71821 0.283421 0
M  V30 107 N 8.8686 -0.792821 -1.36206 0
M  V30 108 C 9.8316 -0.199459 -2.2833 0
M  V30 109 C 10.8316 0.605189 -1.48977 0
M  V30 110 O 12.0216 0.425685 -1.68919 0
M  V30 111 C 9.1536 0.723523 -3.33134 0
M  V30 112 H 10.3466 -1.01181 -2.82316 0
M  V30 113 H 7.8996 -0.562485 -1.45828 0
M  V30 114 H 8.6346 1.56008 -2.84309 0
M  V30 115 H 8.4196 0.148436 -3.91819 0
M  V30 116 H 9.9096 1.13344 -4.01924 0
M  V30 117 N 10.3467 1.47872 -0.545128 0
M  V30 118 C 11.2767 2.32661 0.197793 0
M  V30 119 C 12.2577 1.43041 0.920504 0
M  V30 120 O 13.4427 1.71912 0.90333 0
M  V30 121 C 10.5727 3.24569 1.23582 0
M  V30 122 C 9.5267 4.23333 0.630323 0
M  V30 123 C 8.8527 5.0448 1.77211 0
M  V30 124 C 10.1527 5.20704 -0.407974 0
M  V30 125 H 11.8467 2.95024 -0.510045 0
M  V30 126 H 9.3927 1.4187 -0.246731 0
M  V30 127 H 11.3457 3.8272 1.76362 0
M  V30 128 H 10.0697 2.60236 1.97344 0
M  V30 129 H 8.7287 3.6639 0.123922 0
M  V30 130 H 8.3767 4.36561 2.49847 0
M  V30 131 H 8.0767 5.71339 1.37281 0
M  V30 132 H 9.6007 5.65487 2.3034 0
M  V30 133 H 11.0147 5.7329 0.033305 0
M  V30 134 H 9.4117 5.95699 -0.725486 0
M  V30 135 H 10.4817 4.66917 -1.30828 0
M  V30 136 N 11.8248 0.280983 1.55075 0
M  V30 137 C 12.7878 -0.590896 2.21452 0
M  V30 138 C 13.7878 -1.07682 1.19421 0
M  V30 139 O 14.9778 -0.97605 1.44288 0
M  V30 140 C 12.1098 -1.81587 2.88511 0
M  V30 141 H 13.3028 -0.0112554 2.99898 0
M  V30 142 H 10.8558 0.0316438 1.56268 0
M  V30 143 H 11.5908 -2.43587 2.14093 0
M  V30 144 H 11.3758 -1.4753 3.63287 0
M  V30 145 H 12.8658 -2.43575 3.39206 0
M  V30 146 N 13.3029 -1.57598 0.00835791 0
M  V30 147 C 14.5519 -1.90107 -0.673968 0
M  V30 148 C 14.8649 -0.884275 -1.7447 0
M  V30 149 O 16.0709 -1.09987 -2.48224 0
M  V30 150 C 14.5269 -3.37497 -1.24995 0
M  V30 151 C 14.1349 -4.47491 -0.2136 0
M  V30 152 C 15.8789 -3.79104 -1.90999 0
M  V30 153 C 13.7859 -5.85963 -0.80005 0
M  V30 154 H 12.7159 -0.709393 -0.255495 0
M  V30 155 H 15.3669 -1.83365 0.0702693 0
M  V30 156 H 13.7489 -3.39102 -2.04513 0
M  V30 157 H 14.9229 -4.57414 0.557596 0
M  V30 158 H 13.2379 -4.14956 0.346474 0
M  V30 159 H 15.8349 -4.79901 -2.35795 0
M  V30 160 H 16.1779 -3.1306 -2.74407 0
M  V30 161 H 16.7109 -3.79833 -1.18203 0
M  V30 162 H 13.4499 -6.555 -0.00456708 0
M  V30 163 H 12.9699 -5.79687 -1.54021 0
M  V30 164 H 14.6489 -6.33884 -1.29615 0
M  V30 165 N 14.781 0.264519 -1.55364 0
M  V30 166 C 15.744 1.31046 -1.88042 0
M  V30 167 C 16.744 1.41943 -0.755569 0
M  V30 168 O 17.934 1.40947 -1.02369 0
M  V30 169 C 15.066 2.69067 -2.09323 0
M  V30 170 H 16.259 1.03297 -2.81549 0
M  V30 171 H 13.812 0.502989 -1.47986 0
M  V30 172 H 14.547 3.01982 -1.18226 0
M  V30 173 H 14.332 2.62542 -2.91229 0
M  V30 174 H 15.822 3.44623 -2.35848 0
M  V30 175 N 16.2591 1.48442 0.529413 0
M  V30 176 C 17.2221 1.62524 1.61612 0
M  V30 177 C 18.2221 0.498509 1.52877 0
M  V30 178 O 19.4121 0.76431 1.56537 0
M  V30 179 C 16.5441 1.59597 3.01233 0
M  V30 180 H 17.7371 2.59423 1.50465 0
M  V30 181 H 15.2901 1.37047 0.751514 0
M  V30 182 H 16.0251 0.641781 3.17886 0
M  V30 183 H 15.8101 2.41397 3.08982 0
M  V30 184 H 17.3001 1.72646 3.80241 0
M  V30 185 N 17.7372 -0.778329 1.37039 0
M  V30 186 C 18.7002 -1.87301 1.32102 0
M  V30 187 C 19.7002 -1.59198 0.226405 0
M  V30 188 O 20.8902 -1.67403 0.481861 0
M  V30 189 C 18.0222 -3.24309 1.05055 0
M  V30 190 H 19.2152 -1.93093 2.29467 0
M  V30 191 H 16.7682 -0.977358 1.21973 0
M  V30 192 H 17.5032 -3.24196 0.0819373 0
M  V30 193 H 17.2882 -3.46098 1.84279 0
M  V30 194 H 18.7782 -4.04382 1.04234 0
M  V30 195 N 19.2153 -1.21501 -1.00376 0
M  V30 196 C 20.4433 -1.059 -1.77744 0
M  V30 197 C 20.8583 0.391125 -1.84704 0
M  V30 198 O 20.2153 1.27133 -1.30933 0
M  V30 199 C 20.2663 -1.65111 -3.21591 0
M  V30 200 O 19.9873 -3.0445 -3.15027 0
M  V30 201 C 21.4883 -1.54637 -4.15454 0
M  V30 202 H 18.7083 -0.371825 -0.558558 0
M  V30 203 H 21.2523 -1.60865 -1.26264 0
M  V30 204 H 19.4073 -1.14235 -3.70175 0
M  V30 205 H 19.8213 -3.3278 -4.0541 0
M  V30 206 H 21.2953 -2.00808 -5.14179 0
M  V30 207 H 21.7723 -0.501022 -4.36333 0
M  V30 208 H 22.3783 -2.04767 -3.72761 0
M  V30 209 N 20.6934 1.19889 -1.02296 0
M  V30 210 C 21.9404 1.8942 -0.715972 0
M  V30 211 C 22.2684 1.79251 0.754944 0
M  V30 212 O 21.5234 1.17526 1.56481 0
M  V30 213 C 21.8224 3.39883 -1.10518 0
M  V30 214 C 21.4884 3.70254 -2.57337 0
M  V30 215 C 20.1504 3.78254 -2.97452 0
M  V30 216 C 22.5024 3.84052 -3.52354 0
M  V30 217 C 19.8304 3.97514 -4.31509 0
M  V30 218 C 22.1824 4.04824 -4.86108 0
M  V30 219 C 20.8464 4.11054 -5.25919 0
M  V30 220 H 20.1164 0.693138 -0.261993 0
M  V30 221 H 22.7634 1.42012 -1.28472 0
M  V30 222 H 21.0684 3.8915 -0.454953 0
M  V30 223 H 22.7654 3.9199 -0.845261 0
M  V30 224 H 19.3554 3.64632 -2.25258 0
M  V30 225 H 23.5394 3.77221 -3.22518 0
M  V30 226 H 18.7954 4.00574 -4.61898 0
M  V30 227 H 22.9694 4.14442 -5.59653 0
M  V30 228 H 20.5964 4.2573 -6.29808 0
M  V30 229 N 22.1715 0.800033 1.35784 0
M  V30 230 C 23.3995 0.389606 2.03199 0
M  V30 231 C 23.8145 -0.997375 1.60306 0
M  V30 232 O 23.1715 -1.64154 0.797481 0
M  V30 233 C 23.2225 0.455855 3.58614 0
M  V30 234 O 22.9435 1.78815 3.99946 0
M  V30 235 C 24.4445 0.0374032 4.43284 0
M  V30 236 H 21.6645 0.159132 0.651857 0
M  V30 237 H 24.2085 1.08183 1.73541 0
M  V30 238 H 22.3635 -0.188057 3.86943 0
M  V30 239 H 22.7775 1.74636 4.94573 0
M  V30 240 H 24.2515 0.134882 5.51835 0
M  V30 241 H 24.7285 -1.01651 4.27275 0
M  V30 242 H 25.3345 0.654215 4.20238 0
M  V30 243 N 23.6496 -1.47581 0.552962 0
M  V30 244 C 24.8746 -2.07378 0.0300593 0
M  V30 245 C 25.2996 -1.40355 -1.25229 0
M  V30 246 O 24.6576 -0.477099 -1.7491 0
M  V30 247 C 24.7056 -3.60274 -0.153231 0
M  V30 248 O 23.8096 -3.94041 -1.21678 0
M  V30 249 H 23.1506 -0.662158 0.0494182 0
M  V30 250 H 25.6806 -1.89662 0.767434 0
M  V30 251 H 25.6906 -4.0633 -0.368761 0
M  V30 252 H 24.3656 -4.08455 0.783397 0
M  V30 253 H 22.9426 -3.59735 -0.982079 0
M  V30 254 N 25.1277 -0.289203 -1.54924 0
M  V30 255 C 26.3557 0.326463 -2.04308 0
M  V30 256 C 26.7707 1.48413 -1.16701 0
M  V30 257 O 26.1277 1.81507 -0.190087 0
M  V30 258 C 26.1787 0.794014 -3.52672 0
M  V30 259 O 25.8997 -0.317564 -4.36948 0
M  V30 260 C 27.4007 1.47605 -4.18004 0
M  V30 261 H 24.6207 0.0726272 -0.667058 0
M  V30 262 H 27.1647 -0.425401 -2.00026 0
M  V30 263 H 25.3197 1.49593 -3.57352 0
M  V30 264 H 25.7337 0.0443186 -5.24481 0
M  V30 265 H 27.2077 1.75447 -5.23376 0
M  V30 266 H 27.6847 2.41224 -3.67025 0
M  V30 267 H 28.2907 0.81762 -4.17367 0
M  V30 268 N 26.6058 1.57591 -0.0167156 0
M  V30 269 C 27.8308 1.9598 0.67872 0
M  V30 270 C 28.2558 0.892546 1.65575 0
M  V30 271 O 27.6138 -0.147772 1.80697 0
M  V30 272 C 27.6618 3.33468 1.37227 0
M  V30 273 O 26.7658 3.28954 2.48722 0
M  V30 274 H 26.1068 0.639339 0.17928 0
M  V30 275 H 28.6368 2.04463 -0.0748802 0
M  V30 276 H 28.6468 3.69417 1.7319 0
M  V30 277 H 27.3218 4.10694 0.656007 0
M  V30 278 H 25.8988 3.04705 2.14963 0
M  V30 279 N 28.0839 -0.256276 1.55502 0
M  V30 280 C 29.3119 -1.00342 1.8094 0
M  V30 281 C 29.7269 -1.79307 0.59114 0
M  V30 282 O 29.0839 -1.77114 -0.440081 0
M  V30 283 C 29.1349 -1.94875 3.04476 0
M  V30 284 O 28.8559 -1.19107 4.21598 0
M  V30 285 C 30.3569 -2.81266 3.42644 0
M  V30 286 H 27.5769 -0.295685 0.602338 0
M  V30 287 H 30.1209 -0.281998 2.02546 0
M  V30 288 H 28.2759 -2.62457 2.84947 0
M  V30 289 H 28.6899 -1.82969 4.91551 0
M  V30 290 H 30.1639 -3.43362 4.32211 0
M  V30 291 H 30.6409 -3.51897 2.62802 0
M  V30 292 H 31.2469 -2.1915 3.64491 0
M  V30 293 N 29.562 -1.4872 -0.521534 0
M  V30 294 C 30.492 -1.66771 -1.63431 0
M  V30 295 C 31.473 -0.516499 -1.62069 0
M  V30 296 O 32.658 -0.750013 -1.79132 0
M  V30 297 C 29.788 -1.71515 -3.01993 0
M  V30 298 C 28.742 -2.86222 -3.18216 0
M  V30 299 C 28.068 -2.76061 -4.57924 0
M  V30 300 C 29.368 -4.27419 -3.00184 0
M  V30 301 H 31.062 -2.59932 -1.48579 0
M  V30 302 H 28.608 -1.25089 -0.713358 0
M  V30 303 H 30.561 -1.82731 -3.7972 0
M  V30 304 H 29.285 -0.749393 -3.17886 0
M  V30 305 H 27.944 -2.74575 -2.42908 0
M  V30 306 H 27.592 -1.77437 -4.70665 0
M  V30 307 H 27.292 -3.53037 -4.69722 0
M  V30 308 H 28.816 -2.89256 -5.37739 0
M  V30 309 H 30.23 -4.39855 -3.67697 0
M  V30 310 H 28.627 -5.05458 -3.2347 0
M  V30 311 H 29.697 -4.43293 -1.96518 0
M  V30 312 N 31.0401 0.771051 -1.3745 0
M  V30 313 C 32.0031 1.86598 -1.33093 0
M  V30 314 C 33.0031 1.59076 -0.234845 0
M  V30 315 O 34.1931 1.67145 -0.490732 0
M  V30 316 C 31.3251 3.23747 -1.06773 0
M  V30 317 H 32.5181 1.91873 -2.30488 0
M  V30 318 H 30.0711 0.970876 -1.2249 0
M  V30 319 H 30.8061 3.24148 -0.099129 0
M  V30 320 H 30.5911 3.45115 -1.86112 0
M  V30 321 H 32.0811 4.03824 -1.06377 0
M  V30 322 N 32.5182 1.22032 0.997298 0
M  V30 323 C 33.4812 0.987909 2.06816 0
M  V30 324 C 34.4812 -0.0440084 1.6074 0
M  V30 325 O 35.6712 0.194053 1.73116 0
M  V30 326 C 32.8032 0.49132 3.37341 0
M  V30 327 H 33.9962 1.93803 2.28868 0
M  V30 328 H 31.5492 1.03838 1.16822 0
M  V30 329 H 32.2842 -0.463364 3.20973 0
M  V30 330 H 32.0692 1.23575 3.72118 0
M  V30 331 H 33.5592 0.348824 4.16141 0
M  V30 332 N 33.9963 -1.19345 1.0293 0
M  V30 333 C 34.9443 -2.24621 0.604001 0
M  V30 334 C 35.9383 -1.65452 -0.363587 0
M  V30 335 O 37.1443 -1.78497 -0.23212 0
M  V30 336 H 33.5193 -0.730858 0.177061 0
M  V30 337 H 35.4903 -2.5781 1.50255 0
M  V30 338 C 34.2393 -3.47688 -0.0289127 0
M  V30 339 H 33.5623 -3.93505 0.706651 0
M  V30 340 H 35.0023 -4.23011 -0.289432 0
M  V30 341 C 33.4613 -3.11817 -1.2756 0
M  V30 342 O 33.9913 -3.2451 -2.36762 0
M  V30 343 N 32.1973 -2.66246 -1.16453 0
M  V30 344 H 31.7443 -2.56118 -0.275914 0
M  V30 345 H 31.7023 -2.42617 -1.99961 0
M  V30 346 N 35.4744 -0.807222 -1.35358 0
M  V30 347 C 36.3844 -0.219594 -2.3357 0
M  V30 348 C 37.4004 0.637734 -1.61892 0
M  V30 349 O 38.5764 0.549336 -1.93763 0
M  V30 350 C 35.6414 0.62158 -3.41083 0
M  V30 351 C 34.7024 -0.256315 -4.28534 0
M  V30 352 C 33.9354 0.544807 -5.30912 0
M  V30 353 O 34.1584 1.77944 -5.41934 0
M  V30 354 O 33.0924 -0.0646478 -6.01865 0
M  V30 355 H 36.9184 -1.03208 -2.85625 0
M  V30 356 H 34.5034 -0.569025 -1.38139 0
M  V30 357 H 36.3854 1.10067 -4.06772 0
M  V30 358 H 35.0604 1.41165 -2.91297 0
M  V30 359 H 33.9674 -0.782559 -3.65823 0
M  V30 360 H 35.3004 -1.01034 -4.81719 0
M  V30 361 N 36.9525 1.47285 -0.560781 0
M  V30 362 C 38.1985 2.02764 -0.0381184 0
M  V30 363 C 38.5315 1.43384 1.30976 0
M  V30 364 O 37.8065 0.590733 1.85312 0
M  V30 365 C 38.0895 3.60064 0.0511427 0
M  V30 366 C 37.9425 4.2987 -1.32408 0
M  V30 367 C 39.2615 4.33439 0.762795 0
M  V30 368 H 36.3805 0.736841 -0.0153264 0
M  V30 369 H 39.0225 1.75675 -0.723759 0
M  V30 370 H 37.1725 3.83274 0.635065 0
M  V30 371 H 38.8445 4.17989 -1.95148 0
M  V30 372 H 37.0875 3.90085 -1.8978 0
M  V30 373 H 37.7585 5.38478 -1.21431 0
M  V30 374 H 40.2345 4.15243 0.266965 0
M  V30 375 H 39.1105 5.43124 0.794221 0
M  V30 376 H 39.3715 4.02915 1.81966 0
M  V30 377 N 38.4306 0.297415 1.54768 0
M  V30 378 C 39.3786 -0.596051 2.24833 0
M  V30 379 C 40.3726 -1.13992 1.25308 0
M  V30 380 O 41.5786 -1.09098 1.4317 0
M  V30 381 H 37.9536 -0.210814 0.721846 0
M  V30 382 H 39.9246 0.0174667 2.98395 0
M  V30 383 C 38.6736 -1.75818 2.99972 0
M  V30 384 H 37.9966 -1.3489 3.76357 0
M  V30 385 H 39.4366 -2.35949 3.52284 0
M  V30 386 C 37.8956 -2.66014 2.06732 0
M  V30 387 O 38.4256 -3.67009 1.63302 0
M  V30 388 N 36.6316 -2.33669 1.72763 0
M  V30 389 H 36.1786 -1.51586 2.08277 0
M  V30 390 H 36.1366 -2.94285 1.10652 0
M  V30 391 N 39.9087 -1.5758 0.0250728 0
M  V30 392 C 41.1547 -1.91917 -0.655413 0
M  V30 393 C 41.4877 -0.901433 -1.72011 0
M  V30 394 O 40.7627 0.0764069 -1.9435 0
M  V30 395 C 41.0457 -3.36751 -1.27558 0
M  V30 396 C 40.8987 -4.49258 -0.220719 0
M  V30 397 C 42.2177 -3.81469 -2.19475 0
M  V30 398 H 39.3367 -0.697925 -0.23679 0
M  V30 399 H 41.9787 -1.89825 0.0815036 0
M  V30 400 H 40.1287 -3.38664 -1.90365 0
M  V30 401 H 41.8007 -4.59478 0.409601 0
M  V30 402 H 40.0437 -4.31415 0.454264 0
M  V30 403 H 40.7147 -5.47618 -0.694175 0
M  V30 404 H 43.1907 -3.81266 -1.66659 0
M  V30 405 H 42.0667 -4.83512 -2.59822 0
M  V30 406 H 42.3277 -3.16744 -3.08424 0
M  V30 407 N 41.3868 0.248026 -1.55636 0
M  V30 408 C 42.6168 0.992367 -1.81206 0
M  V30 409 C 43.0248 1.7949 -0.598324 0
M  V30 410 O 42.3678 1.78292 0.442434 0
M  V30 411 C 42.4298 1.97926 -3.00109 0
M  V30 412 C 42.0938 1.36377 -4.36177 0
M  V30 413 C 43.0908 0.76682 -5.14214 0
M  V30 414 C 40.7758 1.38347 -4.82872 0
M  V30 415 C 42.7698 0.197778 -6.37093 0
M  V30 416 C 40.4568 0.810574 -6.057 0
M  V30 417 C 41.4548 0.218754 -6.8265 0
M  V30 418 O 41.1428 -0.345298 -8.03158 0
M  V30 419 H 40.8748 0.297704 -0.606917 0
M  V30 420 H 43.4288 0.276517 -2.0353 0
M  V30 421 H 41.6588 2.73339 -2.73538 0
M  V30 422 H 43.3478 2.58694 -3.12781 0
M  V30 423 H 44.1138 0.744114 -4.79258 0
M  V30 424 H 39.9928 1.8335 -4.2297 0
M  V30 425 H 43.5368 -0.264788 -6.97097 0
M  V30 426 H 39.4338 0.830604 -6.40134 0
M  V30 427 H 40.2018 -0.237055 -8.18157 0
M  V30 428 N 42.8649 1.48995 0.513639 0
M  V30 429 C 44.0899 1.61792 1.29762 0
M  V30 430 C 44.5149 0.284475 1.85936 0
M  V30 431 O 43.8729 -0.746185 1.65232 0
M  V30 432 C 43.9209 2.67993 2.41272 0
M  V30 433 O 43.0249 2.26287 3.44772 0
M  V30 434 H 42.3659 0.541963 0.38363 0
M  V30 435 H 44.8959 1.95097 0.616307 0
M  V30 436 H 44.9059 2.89772 2.87221 0
M  V30 437 H 43.5809 3.64791 1.9975 0
M  V30 438 H 42.1579 2.14788 3.04829 0
M  V30 439 N 44.343 -0.763751 1.37857 0
M  V30 440 C 45.573 -1.55067 1.3652 0
M  V30 441 C 45.981 -1.89135 -0.0494227 0
M  V30 442 O 45.324 -1.52529 -1.02375 0
M  V30 443 C 45.386 -2.8838 2.14656 0
M  V30 444 C 45.05 -2.76905 3.63555 0
M  V30 445 C 46.047 -2.4739 4.57268 0
M  V30 446 C 43.732 -2.94676 4.06781 0
M  V30 447 C 45.726 -2.35786 5.92186 0
M  V30 448 C 43.413 -2.82692 5.41782 0
M  V30 449 C 44.411 -2.53289 6.34298 0
M  V30 450 O 44.099 -2.41345 7.66817 0
M  V30 451 H 43.831 -0.486776 0.469069 0
M  V30 452 H 46.385 -0.953812 1.81911 0
M  V30 453 H 44.615 -3.50217 1.63967 0
M  V30 454 H 46.304 -3.49828 2.05852 0
M  V30 455 H 47.07 -2.33339 4.2518 0
M  V30 456 H 42.949 -3.16563 3.35126 0
M  V30 457 H 46.493 -2.12757 6.64365 0
M  V30 458 H 42.39 -2.96314 5.7347 0
M  V30 459 H 43.158 -2.56634 7.77226 0
M  V30 460 N 45.8211 -1.22559 -0.990812 0
M  V30 461 C 47.2371 -0.985996 -1.255 0
M  V30 462 C 47.4371 0.319173 -1.98956 0
M  V30 463 O 46.4931 1.04127 -2.3003 0
M  V30 464 C 47.8061 -2.18607 -2.06474 0
M  V30 465 C 49.3541 -2.22985 -2.19651 0
M  V30 466 C 49.8291 -3.4255 -3.04012 0
M  V30 467 N 51.3201 -3.42725 -3.11599 0
M  V30 468 C 52.0551 -4.31892 -3.7717 0
M  V30 469 N 51.5511 -5.31279 -4.44651 0
M  V30 470 N 53.3441 -4.19662 -3.73952 0
M  V30 471 H 45.4951 -2.06469 -0.49841 0
M  V30 472 H 47.7581 -0.904853 -0.282747 0
M  V30 473 H 47.4641 -3.13267 -1.59865 0
M  V30 474 H 47.3381 -2.18838 -3.07229 0
M  V30 475 H 49.7251 -1.28871 -2.65474 0
M  V30 476 H 49.8061 -2.26791 -1.18319 0
M  V30 477 H 49.4501 -4.36965 -2.58889 0
M  V30 478 H 49.3801 -3.35984 -4.0549 0
M  V30 479 H 51.8711 -2.70807 -2.63575 0
M  V30 480 H 52.1841 -5.95593 -4.92431 0
M  V30 481 H 50.5291 -5.3519 -4.43392 0
M  V30 482 H 53.7201 -3.41268 -3.20396 0
M  V30 483 H 53.8931 -4.89358 -4.24774 0
M  V30 484 N 47.2992 1.18797 -1.03562 0
M  V30 485 C 48.2312 2.21731 -0.580337 0
M  V30 486 C 49.2442 1.59051 0.347349 0
M  V30 487 O 50.4332 1.77929 0.142669 0
M  V30 488 C 47.5332 3.38459 0.172805 0
M  V30 489 C 46.7062 4.3072 -0.761496 0
M  V30 490 C 45.7652 5.26174 -0.0525547 0
M  V30 491 O 44.7912 5.65108 -0.681333 0
M  V30 492 N 45.9932 5.67624 1.21586 0
M  V30 493 H 48.7582 2.61417 -1.46565 0
M  V30 494 H 46.3192 1.33531 -0.915476 0
M  V30 495 H 48.3112 3.99335 0.656793 0
M  V30 496 H 46.8812 2.97507 0.959602 0
M  V30 497 H 46.1012 3.67525 -1.42544 0
M  V30 498 H 47.3892 4.89267 -1.39626 0
M  V30 499 H 46.7872 5.38038 1.74732 0
M  V30 500 H 45.3442 6.30721 1.64421 0
M  V30 501 N 48.7773 0.814389 1.34928 0
M  V30 502 C 50.1883 0.458364 1.80986 0
M  V30 503 C 50.5393 -1.02042 1.67577 0
M  V30 504 O 49.6643 -1.79352 1.21086 0
M  V30 505 C 50.2593 0.825212 3.28597 0
M  V30 506 C 48.8183 0.521677 3.72767 0
M  V30 507 C 47.9653 1.04668 2.56788 0
M  V30 508 H 50.9163 1.00533 1.22795 0
M  V30 509 H 50.9373 0.12571 3.80292 0
M  V30 510 H 50.4493 1.90154 3.38324 0
M  V30 511 H 48.5503 -0.545589 3.68584 0
M  V30 512 H 48.6633 1.05977 4.67232 0
M  V30 513 H 47.0273 0.468622 2.50352 0
M  V30 514 H 47.8103 2.12927 2.6929 0
M  V30 515 N 50.2554 -1.46986 0.568584 0
M  V30 516 C 51.4854 -2.0653 0.0539173 0
M  V30 517 C 51.8934 -1.42004 -1.25026 0
M  V30 518 O 51.2364 -0.514541 -1.76347 0
M  V30 519 C 51.2984 -3.58938 -0.200854 0
M  V30 520 C 50.9624 -4.45572 1.01559 0
M  V30 521 C 51.9594 -4.82986 1.92407 0
M  V30 522 C 49.6444 -4.8692 1.23346 0
M  V30 523 C 51.6384 -5.60559 3.03402 0
M  V30 524 C 49.3254 -5.64255 2.34649 0
M  V30 525 C 50.3234 -6.00986 3.24507 0
M  V30 526 O 50.0114 -6.76761 4.33878 0
M  V30 527 H 49.7434 -0.674292 0.0480234 0
M  V30 528 H 52.2974 -1.89812 0.784896 0
M  V30 529 H 50.5274 -3.73911 -0.986279 0
M  V30 530 H 52.2164 -4.0046 -0.662294 0
M  V30 531 H 52.9824 -4.51633 1.76785 0
M  V30 532 H 48.8614 -4.57789 0.543178 0
M  V30 533 H 52.4054 -5.89147 3.73565 0
M  V30 534 H 48.3024 -5.95021 2.5024 0
M  V30 535 H 49.0704 -6.95168 4.32068 0
M  V30 536 N 51.7335 -0.305618 -1.54608 0
M  V30 537 C 52.6635 0.561482 -2.26649 0
M  V30 538 C 53.6445 1.13415 -1.26772 0
M  V30 539 O 54.8295 1.16262 -1.55553 0
M  V30 540 C 51.9595 1.73122 -3.01075 0
M  V30 541 C 50.9135 1.2887 -4.08138 0
M  V30 542 C 50.2395 2.54396 -4.70305 0
M  V30 543 C 51.5395 0.416578 -5.20636 0
M  V30 544 H 53.2335 -0.0393902 -2.99374 0
M  V30 545 H 50.7795 -0.020385 -1.43986 0
M  V30 546 H 52.7325 2.34396 -3.50195 0
M  V30 547 H 51.4565 2.3584 -2.25936 0
M  V30 548 H 50.1155 0.698991 -3.59875 0
M  V30 549 H 49.7635 3.15439 -3.918 0
M  V30 550 H 49.4635 2.25486 -5.42614 0
M  V30 551 H 50.9875 3.16464 -5.2219 0
M  V30 552 H 52.4015 0.935116 -5.65622 0
M  V30 553 H 50.7985 0.221046 -5.99693 0
M  V30 554 H 51.8685 -0.557162 -4.81688 0
M  V30 555 N 53.2116 1.57565 -0.0334293 0
M  V30 556 C 54.4606 1.91155 0.643639 0
M  V30 557 C 54.7736 0.91192 1.73042 0
M  V30 558 O 55.9796 1.13923 2.46442 0
M  V30 559 C 54.4356 3.39443 1.1961 0
M  V30 560 C 54.0436 4.47774 0.142381 0
M  V30 561 C 55.7876 3.82094 1.84944 0
M  V30 562 C 53.6946 5.87162 0.706727 0
M  V30 563 H 52.6246 0.713368 0.244176 0
M  V30 564 H 55.2756 1.8323 -0.0994323 0
M  V30 565 H 53.6576 3.42313 1.99092 0
M  V30 566 H 54.8316 4.56469 -0.630296 0
M  V30 567 H 53.1466 4.14352 -0.412446 0
M  V30 568 H 55.7436 4.83591 2.2813 0
M  V30 569 H 56.0866 3.17386 2.69392 0
M  V30 570 H 56.6196 3.81665 1.12145 0
M  V30 571 H 53.3586 6.55424 -0.0997178 0
M  V30 572 H 52.8786 5.82064 1.44779 0
M  V30 573 H 54.5576 6.35866 1.19514 0
M  V30 574 N 54.6897 -0.239769 1.55765 0
M  V30 575 C 55.5997 -1.31831 1.94056 0
M  V30 576 C 56.6157 -1.52275 0.841925 0
M  V30 577 O 57.7917 -1.65759 1.14394 0
M  V30 578 C 54.8567 -2.65156 2.23368 0
M  V30 579 C 53.9177 -2.53173 3.46701 0
M  V30 580 C 53.1507 -3.8014 3.74606 0
M  V30 581 O 53.3737 -4.82343 3.04469 0
M  V30 582 O 52.3077 -3.78344 4.68123 0
M  V30 583 H 56.1337 -1.02347 2.85935 0
M  V30 584 H 53.7187 -0.441123 1.42739 0
M  V30 585 H 55.6007 -3.43929 2.43497 0
M  V30 586 H 54.2757 -2.94358 1.34666 0
M  V30 587 H 53.1827 -1.72662 3.31871 0
M  V30 588 H 54.5157 -2.28915 4.35728 0
M  V30 589 N 56.1678 -1.49265 -0.50573 0
M  V30 590 C 57.5788 -1.51769 -1.08734 0
M  V30 591 C 57.9298 -0.301192 -1.93874 0
M  V30 592 O 57.0548 0.589456 -2.08217 0
M  V30 593 C 57.6498 -2.75017 -1.97867 0
M  V30 594 C 56.2088 -2.80314 -2.51199 0
M  V30 595 C 55.3558 -2.4562 -1.28709 0
M  V30 596 H 58.3068 -1.56031 -0.289855 0
M  V30 597 H 58.3278 -2.5491 -2.82491 0
M  V30 598 H 57.8398 -3.63539 -1.35873 0
M  V30 599 H 55.9408 -1.96061 -3.16845 0
M  V30 600 H 56.0538 -3.82366 -2.88675 0
M  V30 601 H 54.4178 -1.97297 -1.61078 0
M  V30 602 H 55.2008 -3.36411 -0.6843 0
M  V30 603 N 57.6459 0.756429 -1.3826 0
M  V30 604 C 58.5789 1.87802 -1.29637 0
M  V30 605 C 59.5569 1.61667 -0.173939 0
M  V30 606 O 60.7409 1.85208 -0.350775 0
M  V30 607 C 57.8679 3.23354 -1.00797 0
M  V30 608 C 56.9139 3.68379 -2.14939 0
M  V30 609 S 57.7469 3.8025 -3.77054 0
M  V30 610 C 58.9029 5.18626 -3.50396 0
M  V30 611 H 59.1359 1.94829 -2.24564 0
M  V30 612 H 56.6689 0.919117 -1.24063 0
M  V30 613 H 58.6269 4.01637 -0.848413 0
M  V30 614 H 57.2879 3.14008 -0.0759369 0
M  V30 615 H 56.4809 4.66693 -1.90299 0
M  V30 616 H 56.0829 2.97242 -2.26988 0
M  V30 617 H 58.3749 6.04289 -3.06334 0
M  V30 618 H 59.3179 5.48286 -4.48094 0
M  V30 619 H 59.7259 4.87289 -2.84973 0
M  V30 620 N 59.124 1.23083 0.984299 0
M  V30 621 C 60.054 1.03292 2.09411 0
M  V30 622 C 61.035 -0.048923 1.7003 0
M  V30 623 O 62.22 0.114967 1.93859 0
M  V30 624 C 59.35 0.619155 3.41736 0
M  V30 625 C 58.304 1.64791 3.95004 0
M  V30 626 C 57.63 1.0897 5.23478 0
M  V30 627 C 58.93 3.03999 4.24714 0
M  V30 628 H 60.624 1.96119 2.26225 0
M  V30 629 H 58.17 0.944344 1.08711 0
M  V30 630 H 60.123 0.467777 4.18796 0
M  V30 631 H 58.847 -0.344786 3.24775 0
M  V30 632 H 57.506 1.78721 3.20085 0
M  V30 633 H 57.154 0.11686 5.02864 0
M  V30 634 H 56.854 1.77704 5.60085 0
M  V30 635 H 58.378 0.950093 6.03163 0
M  V30 636 H 59.792 2.93393 4.92538 0
M  V30 637 H 58.189 3.69936 4.72512 0
M  V30 638 H 59.259 3.53285 3.32142 0
M  V30 639 N 60.6021 -1.18246 1.0419 0
M  V30 640 C 61.5491 -2.2192 0.634037 0
M  V30 641 C 62.5191 -1.62179 -0.358765 0
M  V30 642 O 63.7041 -1.89122 -0.252466 0
M  V30 643 C 60.8441 -3.451 0.00445535 0
M  V30 644 C 59.9571 -4.19174 1.04487 0
M  V30 645 C 59.0921 -5.29813 0.383676 0
M  V30 646 C 58.1311 -5.9566 1.4091 0
M  V30 647 N 57.2681 -6.97834 0.772784 0
M  V30 648 H 62.1081 -2.56164 1.52263 0
M  V30 649 H 59.6451 -1.25843 0.761701 0
M  V30 650 H 61.6031 -4.15485 -0.377919 0
M  V30 651 H 60.2331 -3.11472 -0.847652 0
M  V30 652 H 59.2851 -3.47604 1.54518 0
M  V30 653 H 60.5971 -4.64267 1.82368 0
M  V30 654 H 59.7511 -6.06677 -0.0528366 0
M  V30 655 H 58.4901 -4.85825 -0.427208 0
M  V30 656 H 57.4951 -5.17535 1.85574 0
M  V30 657 H 58.7201 -6.4173 2.22171 0
M  V30 658 H 56.6661 -6.55998 -0.0177708 0
M  V30 659 H 56.5831 -7.41186 1.48928 0
M  V30 660 H 57.8511 -7.78665 0.36071 0
M  V30 661 N 62.0802 -0.821533 -1.34494 0
M  V30 662 C 63.0282 -0.230702 -2.31453 0
M  V30 663 C 64.0222 0.627793 -1.57338 0
M  V30 664 O 65.2282 0.519288 -1.72347 0
M  V30 665 H 61.6032 -0.0558577 -0.749923 0
M  V30 666 H 63.5742 -1.06332 -2.78812 0
M  V30 667 C 62.3232 0.59391 -3.4259 0
M  V30 668 H 61.6462 -0.0573588 -3.99759 0
M  V30 669 H 63.0862 0.973446 -4.12674 0
M  V30 670 C 61.5452 1.76568 -2.86924 0
M  V30 671 O 62.0752 2.8638 -2.81691 0
M  V30 672 N 60.2812 1.58198 -2.43766 0
M  V30 673 H 59.8282 0.68872 -2.48222 0
M  V30 674 H 59.7862 2.36752 -2.06871 0
M  V30 675 N 63.5583 1.46682 -0.576371 0
M  V30 676 C 64.8053 2.02412 -0.0595339 0
M  V30 677 C 65.1333 1.44859 1.29793 0
M  V30 678 O 64.3883 0.601099 1.8624 0
M  V30 679 C 64.6873 3.57345 0.062886 0
M  V30 680 C 64.3533 4.33908 -1.22616 0
M  V30 681 C 63.0153 4.54544 -1.57933 0
M  V30 682 C 65.3673 4.77919 -2.07948 0
M  V30 683 C 62.6953 5.16444 -2.78393 0
M  V30 684 C 65.0473 5.41149 -3.27629 0
M  V30 685 C 63.7113 5.60014 -3.63236 0
M  V30 686 H 62.9813 0.74068 -0.021785 0
M  V30 687 H 65.6283 1.76128 -0.751735 0
M  V30 688 H 63.9333 3.82729 0.838178 0
M  V30 689 H 65.6303 3.98136 0.478439 0
M  V30 690 H 62.2203 4.18138 -0.941202 0
M  V30 691 H 66.4043 4.61738 -1.81967 0
M  V30 692 H 61.6603 5.29242 -3.06126 0
M  V30 693 H 65.8343 5.74211 -3.94023 0
M  V30 694 H 63.4613 6.07748 -4.56669 0
M  V30 695 N 65.0364 0.313813 1.54444 0
M  V30 696 C 65.9464 -0.565714 2.27677 0
M  V30 697 C 66.9624 -1.13754 1.31666 0
M  V30 698 O 68.1384 -1.15959 1.64668 0
M  V30 699 C 65.2034 -1.71528 3.01296 0
M  V30 700 C 64.2644 -1.17624 4.12872 0
M  V30 701 C 63.4974 -2.27102 4.8297 0
M  V30 702 O 63.7204 -3.47256 4.52514 0
M  V30 703 O 62.6544 -1.9307 5.70094 0
M  V30 704 H 66.4804 0.0287296 3.03686 0
M  V30 705 H 64.0654 0.0798312 1.49187 0
M  V30 706 H 65.9474 -2.38476 3.4743 0
M  V30 707 H 64.6224 -2.29608 2.2817 0
M  V30 708 H 63.5294 -0.472124 3.71109 0
M  V30 709 H 64.8624 -0.640695 4.88012 0
M  V30 710 N 66.5145 -1.57545 0.0417849 0
M  V30 711 C 67.4615 -2.10977 -0.935805 0
M  V30 712 C 68.4315 -1.01486 -1.31491 0
M  V30 713 O 69.6165 -1.2898 -1.40602 0
M  V30 714 C 66.7565 -2.65169 -2.2086 0
M  V30 715 C 65.8695 -3.88714 -1.88482 0
M  V30 716 C 65.0045 -4.31254 -3.1015 0
M  V30 717 C 64.0435 -5.47524 -2.7365 0
M  V30 718 N 63.1805 -5.85162 -3.87982 0
M  V30 719 H 68.0205 -2.94218 -0.473249 0
M  V30 720 H 65.5575 -1.45415 -0.221981 0
M  V30 721 H 67.5155 -2.94685 -2.95325 0
M  V30 722 H 66.1455 -1.8474 -2.64709 0
M  V30 723 H 65.1975 -3.65849 -1.04205 0
M  V30 724 H 66.5095 -4.73245 -1.57608 0
M  V30 725 H 65.6635 -4.62273 -3.92923 0
M  V30 726 H 64.4025 -3.45516 -3.44195 0
M  V30 727 H 63.4075 -5.16187 -1.89291 0
M  V30 728 H 64.6325 -6.34971 -2.40807 0
M  V30 729 H 62.5785 -5.02377 -4.21846 0
M  V30 730 H 62.4955 -6.64362 -3.60775 0
M  V30 731 H 63.7635 -6.20791 -4.71422 0
M  V30 732 N 67.9926 0.231505 -1.5589 0
M  V30 733 C 69.2696 0.981096 -1.69215 0
M  V30 734 C 69.6496 2.02799 -0.586164 0
M  V30 735 O 68.9976 2.24823 0.408253 0
M  V30 736 C 69.2076 1.60054 -3.10135 0
M  V30 737 C 70.5556 2.09658 -3.69227 0
M  V30 738 O 71.5796 1.69967 -3.13033 0
M  V30 739 O 70.4386 2.8258 -4.67772 0
M  V30 740 H 67.5326 0.457653 -0.688827 0
M  V30 741 H 70.0786 0.224073 -1.68214 0
M  V30 742 H 68.8506 0.844105 -3.82087 0
M  V30 743 H 68.4736 2.42336 -3.15212 0
M  V30 744 N 69.4707 1.49531 0.497807 0
M  V30 745 C 70.6987 1.62893 1.27567 0
M  V30 746 C 71.1137 0.301585 1.86376 0
M  V30 747 O 70.4707 -0.713335 1.67982 0
M  V30 748 C 70.5217 2.70013 2.40364 0
M  V30 749 O 70.2427 3.976 1.83972 0
M  V30 750 C 71.7437 2.94109 3.31685 0
M  V30 751 H 68.9637 0.548298 0.386794 0
M  V30 752 H 71.5077 1.95584 0.597245 0
M  V30 753 H 69.6627 2.40092 3.04031 0
M  V30 754 H 70.0767 4.56631 2.58047 0
M  V30 755 H 71.5507 3.72788 4.07104 0
M  V30 756 H 72.0277 2.04147 3.88871 0
M  V30 757 H 72.6337 3.2546 2.73781 0
M  V30 758 N 70.9488 -0.749086 1.3866 0
M  V30 759 C 72.1968 -1.50535 1.34847 0
M  V30 760 C 72.5178 -1.94909 -0.0595016 0
M  V30 761 O 71.7878 -1.67973 -1.00806 0
M  V30 762 H 70.3678 -0.558395 0.49619 0
M  V30 763 H 73.0298 -0.890165 1.73384 0
M  V30 764 H 72.1258 -2.39413 2.00219 0
M  V30 765 N 72.4269 -1.23603 -0.977757 0
M  V30 766 C 73.6759 -1.06377 -1.71368 0
M  V30 767 C 73.9889 0.399062 -1.91486 0
M  V30 768 O 75.1949 0.691312 -2.62551 0
M  V30 769 C 73.6509 -1.85512 -3.08404 0
M  V30 770 C 73.2589 -3.36141 -2.96164 0
M  V30 771 C 75.0029 -1.76783 -3.85938 0
M  V30 772 C 72.9099 -4.07659 -4.28449 0
M  V30 773 H 71.8399 -0.394452 -0.642591 0
M  V30 774 H 74.4909 -1.47594 -1.09034 0
M  V30 775 H 72.8729 -1.37103 -3.71509 0
M  V30 776 H 74.0469 -3.92056 -2.42133 0
M  V30 777 H 72.3619 -3.45712 -2.32104 0
M  V30 778 H 74.9589 -2.27526 -4.83876 0
M  V30 779 H 75.3019 -0.731116 -4.0983 0
M  V30 780 H 75.8349 -2.22818 -3.2954 0
M  V30 781 H 72.5739 -5.11648 -4.09752 0
M  V30 782 H 72.0939 -3.5653 -4.82334 0
M  V30 783 H 73.7729 -4.141 -4.97122 0
M  V30 784 N 73.905 1.17692 -1.04816 0
M  V30 785 C 74.852 2.21581 -0.645797 0
M  V30 786 C 75.822 1.62367 0.350159 0
M  V30 787 O 77.007 1.89254 0.242433 0
M  V30 788 C 74.147 3.45092 -0.0227568 0
M  V30 789 C 73.26 4.18613 -1.06709 0
M  V30 790 C 72.395 5.29602 -0.411767 0
M  V30 791 C 71.434 5.94904 -1.44067 0
M  V30 792 N 70.571 6.97414 -0.809781 0
M  V30 793 H 75.411 2.55353 -1.5362 0
M  V30 794 H 72.948 1.25438 -0.768364 0
M  V30 795 H 74.906 4.15679 0.35588 0
M  V30 796 H 73.536 3.11917 0.831122 0
M  V30 797 H 72.588 3.46779 -1.5636 0
M  V30 798 H 73.9 4.63293 -1.84827 0
M  V30 799 H 73.054 6.06696 0.0206623 0
M  V30 800 H 71.793 4.86045 0.401438 0
M  V30 801 H 70.798 5.16544 -1.88316 0
M  V30 802 H 72.023 6.40542 -2.25571 0
M  V30 803 H 69.969 6.55998 -0.0170186 0
M  V30 804 H 69.886 7.40386 -1.52856 0
M  V30 805 H 71.154 7.78463 -0.401999 0
M  V30 806 N 75.3831 0.828654 1.34056 0
M  V30 807 C 76.6291 0.42008 1.98402 0
M  V30 808 C 76.9621 -1.01564 1.65525 0
M  V30 809 O 76.2371 -1.70834 0.929831 0
M  V30 810 C 76.5201 0.62927 3.54559 0
M  V30 811 C 76.3731 2.11152 3.97159 0
M  V30 812 C 77.6921 0.0688756 4.40046 0
M  V30 813 H 74.8111 0.154104 0.720709 0
M  V30 814 H 77.4531 1.04228 1.5886 0
M  V30 815 H 75.6031 0.0996418 3.88372 0
M  V30 816 H 77.2751 2.70522 3.73651 0
M  V30 817 H 75.5181 2.59985 3.47261 0
M  V30 818 H 76.1891 2.20868 5.05887 0
M  V30 819 H 78.6651 0.521458 4.1282 0
M  V30 820 H 77.5411 0.245006 5.48353 0
M  V30 821 H 77.8021 -1.0266 4.30015 0
M  V30 822 N 76.8612 -1.46375 0.584142 0
M  V30 823 C 77.8092 -2.32042 -0.161047 0
M  V30 824 C 78.8032 -1.44569 -0.882966 0
M  V30 825 O 80.0092 -1.61186 -0.801191 0
M  V30 826 H 76.3842 -0.748659 -0.0708033 0
M  V30 827 H 78.3552 -2.92704 0.580269 0
M  V30 828 C 77.1042 -3.27762 -1.1605 0
M  V30 829 H 76.4272 -3.95051 -0.614419 0
M  V30 830 H 77.8672 -3.90481 -1.65228 0
M  V30 831 C 76.3262 -2.53218 -2.22221 0
M  V30 832 O 76.8562 -2.29628 -3.29597 0
M  V30 833 N 75.0622 -2.13756 -1.96868 0
M  V30 834 H 74.6092 -2.33142 -1.09557 0
M  V30 835 H 74.5672 -1.642 -2.68115 0
M  V30 836 N 78.3393 -0.321999 -1.54275 0
M  V30 837 C 79.5883 0.281931 -1.9972 0
M  V30 838 C 79.9013 1.53369 -1.21397 0
M  V30 839 O 81.1073 2.21352 -1.57211 0
M  V30 840 C 79.5633 0.5529 -3.55628 0
M  V30 841 C 79.1713 -0.681721 -4.42783 0
M  V30 842 C 80.9153 1.11687 -4.09544 0
M  V30 843 C 78.8223 -0.382742 -5.9016 0
M  V30 844 H 77.7523 0.109124 -0.746062 0
M  V30 845 H 80.4033 -0.43398 -1.78294 0
M  V30 846 H 78.7853 1.32896 -3.73035 0
M  V30 847 H 79.9593 -1.45723 -4.37151 0
M  V30 848 H 78.2743 -1.1658 -3.99748 0
M  V30 849 H 80.8713 1.35515 -5.17242 0
M  V30 850 H 81.2143 2.06575 -3.61431 0
M  V30 851 H 81.7473 0.402032 -3.95763 0
M  V30 852 H 78.4863 -1.30076 -6.42464 0
M  V30 853 H 78.0063 0.355094 -5.98748 0
M  V30 854 H 79.6853 0.00800157 -6.47 0
M  V30 855 N 79.8174 1.5752 -0.0501392 0
M  V30 856 C 81.0664 1.91827 0.623328 0
M  V30 857 C 81.3794 0.930222 1.72065 0
M  V30 858 O 82.5854 1.1653 2.4522 0
M  V30 859 C 81.0414 3.40692 1.16003 0
M  V30 860 C 80.6494 4.479 0.0948811 0
M  V30 861 C 82.3934 3.84034 1.80881 0
M  V30 862 C 80.3004 5.87879 0.644411 0
M  V30 863 H 79.2304 0.715918 0.236596 0
M  V30 864 H 81.8814 1.83115 -0.118861 0
M  V30 865 H 80.2634 3.44405 1.9545 0
M  V30 866 H 81.4374 4.55775 -0.678675 0
M  V30 867 H 79.7524 4.13892 -0.45637 0
M  V30 868 H 82.3494 4.85984 2.22988 0
M  V30 869 H 82.6924 3.20225 2.6601 0
M  V30 870 H 83.2254 3.82833 1.0809 0
M  V30 871 H 79.9644 6.55282 -0.169229 0
M  V30 872 H 79.4844 5.83567 1.38598 0
M  V30 873 H 81.1634 6.37098 1.12763 0
M  V30 874 N 81.2955 -0.223234 1.56011 0
M  V30 875 C 82.5425 -0.947875 1.78946 0
M  V30 876 C 82.8705 -1.844 0.618608 0
M  V30 877 O 82.1255 -1.91629 -0.397093 0
M  V30 878 C 82.4245 -1.81948 3.0762 0
M  V30 879 C 82.0905 -1.07672 4.37856 0
M  V30 880 C 80.7525 -0.871544 4.73242 0
M  V30 881 C 83.1045 -0.552081 5.18268 0
M  V30 882 C 80.4325 -0.129791 5.86556 0
M  V30 883 C 82.7845 0.17632 6.32354 0
M  V30 884 C 81.4485 0.39277 6.66343 0
M  V30 885 H 80.7185 -0.346852 0.654809 0
M  V30 886 H 83.3655 -0.216171 1.90276 0
M  V30 887 H 81.6705 -2.61899 2.91404 0
M  V30 888 H 83.3675 -2.38227 3.22566 0
M  V30 889 H 79.9575 -1.24662 4.1007 0
M  V30 890 H 84.1415 -0.698076 4.91366 0
M  V30 891 H 79.3975 0.048153 6.11381 0
M  V30 892 H 83.5715 0.590367 6.93893 0
M  V30 893 H 81.1985 0.969466 7.53993 0
M  V30 894 N 82.7736 -1.49793 -0.48987 0
M  V30 895 C 83.7366 -1.66752 -1.57246 0
M  V30 896 C 84.7366 -0.538867 -1.51502 0
M  V30 897 O 85.9266 -0.805545 -1.54456 0
M  V30 898 C 83.0586 -1.67528 -2.96896 0
M  V30 899 H 84.2516 -2.63321 -1.43534 0
M  V30 900 H 81.8046 -1.38992 -0.714914 0
M  V30 901 H 82.5396 -0.725837 -3.16073 0
M  V30 902 H 82.3246 -2.49504 -3.02473 0
M  V30 903 H 83.8146 -1.82667 -3.7553 0
M  V30 904 N 84.2517 0.741722 -1.39055 0
M  V30 905 C 85.5287 1.49252 -1.26425 0
M  V30 906 C 85.9087 2.10705 0.129144 0
M  V30 907 O 85.2567 1.98045 1.13976 0
M  V30 908 C 85.4667 2.54934 -2.38347 0
M  V30 909 C 86.8147 3.21506 -2.77343 0
M  V30 910 O 87.8387 2.65245 -2.37747 0
M  V30 911 O 86.6977 4.23294 -3.45665 0
M  V30 912 H 83.7917 0.662451 -0.495064 0
M  V30 913 H 86.3377 0.776121 -1.50912 0
M  V30 914 H 85.1097 2.07857 -3.31529 0
M  V30 915 H 84.7327 3.34141 -2.15489 0
M  V30 916 N 85.7298 1.2412 0.971189 0
M  V30 917 C 86.6768 1.0305 2.06517 0
M  V30 918 C 87.6468 -0.0550666 1.66009 0
M  V30 919 O 88.8318 0.0988688 1.90544 0
M  V30 920 C 85.9718 0.637653 3.39158 0
M  V30 921 C 85.0848 1.79633 3.92882 0
M  V30 922 C 84.2198 1.34939 5.13775 0
M  V30 923 C 83.2588 2.47823 5.59687 0
M  V30 924 N 82.3958 2.04022 6.71803 0
M  V30 925 H 87.2358 1.96685 2.23873 0
M  V30 926 H 84.7728 0.979694 1.09729 0
M  V30 927 H 86.7308 0.390931 4.15364 0
M  V30 928 H 85.3608 -0.261693 3.21737 0
M  V30 929 H 84.4128 2.15681 3.13346 0
M  V30 930 H 85.7248 2.64466 4.22918 0
M  V30 931 H 84.8788 1.06134 5.97345 0
M  V30 932 H 83.6178 0.471557 4.85415 0
M  V30 933 H 82.6228 2.77392 4.74693 0
M  V30 934 H 83.8478 3.36158 5.90063 0
M  V30 935 H 81.7938 1.18632 6.45184 0
M  V30 936 H 81.7108 2.82409 7.01271 0
M  V30 937 H 82.9788 1.78347 7.58823 0
M  V30 938 N 87.2079 -1.17134 1.05439 0
M  V30 939 C 88.4559 -1.87085 0.764429 0
M  V30 940 C 88.7769 -1.81584 -0.710787 0
M  V30 941 O 88.0469 -1.24349 -1.51374 0
M  V30 942 H 86.6269 -0.692627 0.279779 0
M  V30 943 H 89.2889 -1.42087 1.33406 0
M  V30 944 H 88.3849 -2.92759 1.0816 0
M  V30 945 N 88.686 -0.835752 -1.33615 0
M  V30 946 C 89.616 -0.281739 -2.31794 0
M  V30 947 C 90.597 0.608833 -1.58831 0
M  V30 948 O 91.782 0.533035 -1.86741 0
M  V30 949 C 88.912 0.546612 -3.42971 0
M  V30 950 C 87.866 -0.247904 -4.27281 0
M  V30 951 C 87.192 0.704001 -5.30045 0
M  V30 952 C 88.492 -1.46324 -5.01385 0
M  V30 953 H 90.186 -1.10206 -2.78379 0
M  V30 954 H 87.732 -0.531388 -1.33837 0
M  V30 955 H 89.685 0.944467 -4.1068 0
M  V30 956 H 88.409 1.40011 -2.95067 0
M  V30 957 H 87.068 -0.627281 -3.61194 0
M  V30 958 H 86.716 1.55381 -4.78399 0
M  V30 959 H 86.416 0.176524 -5.87335 0
M  V30 960 H 87.94 1.09944 -6.0062 0
M  V30 961 H 89.354 -1.13871 -5.61877 0
M  V30 962 H 87.751 -1.92728 -5.6831 0
M  V30 963 H 88.821 -2.23467 -4.30338 0
M  V30 964 N 90.1641 1.46063 -0.591896 0
M  V30 965 C 91.4101 2.02638 -0.0811191 0
M  V30 966 C 91.7431 1.4613 1.27905 0
M  V30 967 O 91.0181 0.629908 1.84017 0
M  V30 968 C 91.3011 3.60091 -0.0252436 0
M  V30 969 C 91.1541 4.26965 -1.41496 0
M  V30 970 C 92.4731 4.3496 0.670685 0
M  V30 971 H 89.5921 0.73635 -0.0309524 0
M  V30 972 H 92.2341 1.741 -0.760859 0
M  V30 973 H 90.3841 3.84535 0.553624 0
M  V30 974 H 92.0561 4.13756 -2.0397 0
M  V30 975 H 90.2991 3.85971 -1.98011 0
M  V30 976 H 90.9701 5.35781 -1.32825 0
M  V30 977 H 93.4461 4.15716 0.178825 0
M  V30 978 H 92.3221 5.44686 0.678837 0
M  V30 979 H 92.5831 4.06685 1.73379 0
M  V30 980 N 91.6422 0.330177 1.54103 0
M  V30 981 C 92.9192 -0.325007 1.92881 0
M  V30 982 C 93.2992 -1.6934 1.26045 0
M  V30 983 O 92.6472 -2.24855 0.406526 0
M  V30 984 C 92.8572 -0.410634 3.46576 0
M  V30 985 C 94.2052 -0.667801 4.19316 0
M  V30 986 O 95.2292 -0.49329 3.52768 0
M  V30 987 O 94.0882 -1.00491 5.37181 0
M  V30 988 H 91.1822 -0.186873 0.80561 0
M  V30 989 H 93.7282 0.380376 1.65382 0
M  V30 990 H 92.5002 0.550164 3.87413 0
M  V30 991 H 92.1232 -1.16333 3.802 0
M  V30 992 N 93.1203 -1.57491 0.0584922 0
M  V30 993 C 94.5363 -1.56792 -0.298091 0
M  V30 994 C 94.7363 -1.06679 -1.70944 0
M  V30 995 O 93.7923 -0.726672 -2.41818 0
M  V30 996 C 95.1053 -3.00461 -0.119879 0
M  V30 997 C 96.6533 -3.1242 -0.190428 0
M  V30 998 C 97.1283 -4.57982 -0.0406567 0
M  V30 999 N 98.6193 -4.63099 -0.0966958 0
M  V30 1000 C 99.3543 -5.734 -0.00502943 0
M  V30 1001 N 98.8503 -6.9266 0.139402 0
M  V30 1002 N 100.643 -5.62067 -0.0611391 0
M  V30 1003 H 92.7943 -1.88386 0.98105 0
M  V30 1004 H 95.0573 -0.867865 0.381463 0
M  V30 1005 H 94.7633 -3.41187 0.85349 0
M  V30 1006 H 94.6373 -3.66843 -0.877833 0
M  V30 1007 H 97.0243 -2.71589 -1.15427 0
M  V30 1008 H 97.1053 -2.48702 0.598405 0
M  V30 1009 H 96.7493 -4.995 0.919897 0
M  V30 1010 H 96.6793 -5.19715 -0.848727 0
M  V30 1011 H 99.1703 -3.77331 -0.207277 0
M  V30 1012 H 99.4833 -7.72536 0.201855 0
M  V30 1013 H 97.8283 -6.94781 0.174586 0
M  V30 1014 H 101.019 -4.67782 -0.172583 0
M  V30 1015 H 101.192 -6.47999 0.0137562 0
M  V30 1016 N 94.5984 0.214957 -1.56127 0
M  V30 1017 C 95.8444 0.939762 -1.79712 0
M  V30 1018 C 96.1774 1.83723 -0.629247 0
M  V30 1019 O 95.4524 1.90925 0.371197 0
M  V30 1020 C 95.7354 1.77306 -3.13424 0
M  V30 1021 C 95.5884 0.90164 -4.40671 0
M  V30 1022 C 96.9074 2.74956 -3.43638 0
M  V30 1023 H 94.0264 0.340214 -0.653776 0
M  V30 1024 H 96.6684 0.20824 -1.88855 0
M  V30 1025 H 94.8184 2.39673 -3.0576 0
M  V30 1026 H 96.4904 0.294206 -4.60361 0
M  V30 1027 H 94.7334 0.207368 -4.33304 0
M  V30 1028 H 95.4044 1.51923 -5.30682 0
M  V30 1029 H 97.8804 2.22724 -3.51473 0
M  V30 1030 H 96.7564 3.30358 -4.38355 0
M  V30 1031 H 97.0174 3.53023 -2.66134 0
M  V30 1032 N 96.0765 1.50051 0.48192 0
M  V30 1033 C 97.0235 1.68122 1.58125 0
M  V30 1034 C 97.9935 0.522545 1.57666 0
M  V30 1035 O 99.1785 0.751844 1.75362 0
M  V30 1036 C 96.3185 1.77142 2.96167 0
M  V30 1037 C 95.4315 3.0444 3.06497 0
M  V30 1038 C 94.5665 3.04321 4.35387 0
M  V30 1039 C 93.6055 4.26118 4.3942 0
M  V30 1040 N 92.7425 4.238 5.59766 0
M  V30 1041 H 97.5825 2.6198 1.42022 0
M  V30 1042 H 95.1195 1.29877 0.690687 0
M  V30 1043 H 97.0775 1.80352 3.76203 0
M  V30 1044 H 95.7075 0.867329 3.1093 0
M  V30 1045 H 94.7595 3.10752 2.19402 0
M  V30 1046 H 96.0715 3.94426 3.05336 0
M  V30 1047 H 95.2255 3.062 5.23762 0
M  V30 1048 H 93.9645 2.12147 4.39141 0
M  V30 1049 H 92.9695 4.24463 3.49444 0
M  V30 1050 H 94.1945 5.19507 4.37366 0
M  V30 1051 H 92.1405 3.34474 5.64326 0
M  V30 1052 H 92.0575 5.07542 5.60301 0
M  V30 1053 H 93.3255 4.2981 6.50295 0
M  V30 1054 N 97.5546 -0.734337 1.39446 0
M  V30 1055 C 98.4866 -1.85861 1.34121 0
M  V30 1056 C 99.4996 -1.60871 0.249864 0
M  V30 1057 O 100.689 -1.71093 0.508865 0
M  V30 1058 C 97.7886 -3.21899 1.05991 0
M  V30 1059 C 96.9616 -3.74239 2.26415 0
M  V30 1060 C 96.0206 -4.88841 1.94733 0
M  V30 1061 O 95.0466 -5.02468 2.67422 0
M  V30 1062 N 96.2486 -5.73261 0.913884 0
M  V30 1063 H 99.0136 -1.90934 2.31007 0
M  V30 1064 H 96.5746 -0.915102 1.33557 0
M  V30 1065 H 98.5666 -3.96136 0.828147 0
M  V30 1066 H 97.1366 -3.12091 0.178361 0
M  V30 1067 H 96.3566 -2.91347 2.65539 0
M  V30 1068 H 97.6446 -4.05942 3.06738 0
M  V30 1069 H 97.0426 -5.64842 0.311476 0
M  V30 1070 H 95.5996 -6.47563 0.742015 0
M  V30 1071 N 99.0327 -1.24633 -0.964593 0
M  V30 1072 C 99.9427 -1.05859 -2.09359 0
M  V30 1073 C 100.959 0.00148855 -1.74 0
M  V30 1074 O 102.135 -0.197346 -2.00431 0
M  V30 1075 C 99.1997 -0.668879 -3.40187 0
M  V30 1076 C 98.2607 -1.80578 -3.89474 0
M  V30 1077 C 97.4937 -1.43457 -5.14058 0
M  V30 1078 O 97.7167 -0.325775 -5.69469 0
M  V30 1079 O 96.6507 -2.2613 -5.57807 0
M  V30 1080 H 100.477 -2.00516 -2.28094 0
M  V30 1081 H 98.0617 -1.03481 -1.0776 0
M  V30 1082 H 99.9437 -0.463211 -4.18846 0
M  V30 1083 H 98.6187 0.248536 -3.22744 0
M  V30 1084 H 97.5257 -2.06623 -3.11862 0
M  V30 1085 H 98.8587 -2.70208 -4.11398 0
M  V30 1086 N 100.511 1.16574 -1.06058 0
M  V30 1087 C 101.759 1.86677 -0.77434 0
M  V30 1088 C 102.08 1.81959 0.701147 0
M  V30 1089 O 101.35 1.2515 1.50713 0
M  V30 1090 H 99.9298 0.691134 -0.283449 0
M  V30 1091 H 102.592 1.41378 -1.34158 0
M  V30 1092 H 101.688 2.92181 -1.09711 0
M  V30 1093 N 101.989 0.842826 1.3317 0
M  V30 1094 C 102.899 0.281444 2.32906 0
M  V30 1095 C 103.915 -0.594587 1.63526 0
M  V30 1096 O 105.091 -0.49777 1.95152 0
M  V30 1097 C 102.156 -0.530929 3.42611 0
M  V30 1098 C 101.217 0.369843 4.27704 0
M  V30 1099 C 100.45 -0.403853 5.3217 0
M  V30 1100 O 100.673 -1.63513 5.46461 0
M  V30 1101 O 99.6069 0.224199 6.01482 0
M  V30 1102 H 103.433 1.10744 2.82789 0
M  V30 1103 H 101.018 0.60545 1.36582 0
M  V30 1104 H 102.9 -0.992437 4.09547 0
M  V30 1105 H 101.575 -1.33392 2.94938 0
M  V30 1106 H 100.482 0.879275 3.6362 0
M  V30 1107 H 101.815 1.13771 4.78871 0
M  V30 1108 N 103.467 -1.45747 0.599634 0
M  V30 1109 C 104.397 -2.33235 -0.111306 0
M  V30 1110 C 105.378 -1.46359 -0.866781 0
M  V30 1111 O 106.563 -1.75146 -0.838904 0
M  V30 1112 C 103.693 -3.28932 -1.11451 0
M  V30 1113 C 102.647 -4.25381 -0.472772 0
M  V30 1114 C 101.973 -5.1071 -1.58365 0
M  V30 1115 C 103.273 -5.18831 0.600948 0
M  V30 1116 H 104.967 -2.92927 0.61919 0
M  V30 1117 H 102.513 -1.40857 0.299215 0
M  V30 1118 H 104.466 -3.89002 -1.62036 0
M  V30 1119 H 103.19 -2.67381 -1.8755 0
M  V30 1120 H 101.849 -3.66598 0.0121472 0
M  V30 1121 H 101.497 -4.45533 -2.33473 0
M  V30 1122 H 101.197 -5.7604 -1.15982 0
M  V30 1123 H 102.721 -5.73647 -2.09194 0
M  V30 1124 H 104.135 -5.73019 0.179491 0
M  V30 1125 H 102.532 -5.92595 0.946076 0
M  V30 1126 H 103.602 -4.6174 1.48068 0
M  V30 1127 N 104.945 -0.338344 -1.53925 0
M  V30 1128 C 106.17 0.263987 -2.05713 0
M  V30 1129 C 106.595 1.43847 -1.21201 0
M  V30 1130 O 105.953 1.79904 -0.224535 0
M  V30 1131 C 106.001 0.662 -3.54471 0
M  V30 1132 O 105.105 1.76265 -3.72833 0
M  V30 1133 H 104.446 0.0448722 -0.662482 0
M  V30 1134 H 106.976 -0.491048 -1.9862 0
M  V30 1135 H 106.986 0.940594 -3.9701 0
M  V30 1136 H 105.661 -0.196937 -4.15433 0
M  V30 1137 H 104.238 1.48173 -3.42198 0
M  V30 1138 N 106.423 1.57458 -0.0668435 0
M  V30 1139 C 107.834 1.80776 0.466558 0
M  V30 1140 C 108.185 0.980361 1.69951 0
M  V30 1141 O 107.31 0.201441 2.1546 0
M  V30 1142 C 107.905 3.27881 0.85321 0
M  V30 1143 C 106.464 3.52062 1.3315 0
M  V30 1144 C 105.611 2.75513 0.314264 0
M  V30 1145 H 108.562 1.5598 -0.292588 0
M  V30 1146 H 108.583 3.39659 1.715 0
M  V30 1147 H 108.095 3.88075 -0.0443439 0
M  V30 1148 H 106.196 2.97167 2.24772 0
M  V30 1149 H 106.309 4.60762 1.31285 0
M  V30 1150 H 104.673 2.42123 0.790492 0
M  V30 1151 H 105.456 3.38442 -0.575477 0
M  V30 1152 N 107.901 -0.206675 1.56239 0
M  V30 1153 C 108.864 -1.23976 1.92776 0
M  V30 1154 C 109.864 -1.39041 0.807729 0
M  V30 1155 O 111.054 -1.37051 1.0753 0
M  V30 1156 C 108.186 -2.61112 2.19165 0
M  V30 1157 H 109.379 -0.927764 2.85189 0
M  V30 1158 H 106.932 -0.447718 1.4975 0
M  V30 1159 H 107.667 -2.97386 1.29352 0
M  V30 1160 H 107.452 -2.51552 3.00772 0
M  V30 1161 H 108.942 -3.35633 2.48476 0
M  V30 1162 N 109.379 -1.50304 -0.473955 0
M  V30 1163 C 110.656 -1.51667 -1.23518 0
M  V30 1164 C 111.036 -0.259701 -2.09496 0
M  V30 1165 O 110.384 0.756986 -2.15597 0
M  V30 1166 C 110.594 -2.81082 -2.06868 0
M  V30 1167 C 111.942 -3.31631 -2.65153 0
M  V30 1168 O 112.966 -2.82384 -2.17113 0
M  V30 1169 O 111.825 -4.17471 -3.52675 0
M  V30 1170 H 108.919 -0.60822 -0.560355 0
M  V30 1171 H 111.465 -1.62592 -0.486011 0
M  V30 1172 H 110.237 -3.64041 -1.4349 0
M  V30 1173 H 109.86 -2.73146 -2.88924 0
M  V30 1174 N 110.857 0.726932 -1.39834 0
M  V30 1175 C 112.103 1.48884 -1.377 0
M  V30 1176 C 112.436 1.94185 0.0244852 0
M  V30 1177 O 111.711 1.67361 0.990986 0
M  V30 1178 C 111.994 2.72288 -2.3565 0
M  V30 1179 C 111.847 2.32956 -3.84775 0
M  V30 1180 C 113.166 3.74414 -2.31306 0
M  V30 1181 H 110.285 0.540062 -0.5015 0
M  V30 1182 H 112.927 0.830547 -1.70886 0
M  V30 1183 H 111.077 3.28457 -2.07481 0
M  V30 1184 H 112.749 1.82356 -4.23726 0
M  V30 1185 H 110.992 1.65088 -4.01159 0
M  V30 1186 H 111.663 3.21362 -4.4881 0
M  V30 1187 H 114.139 3.27849 -2.56231 0
M  V30 1188 H 113.015 4.58414 -3.01907 0
M  V30 1189 H 113.276 4.21909 -1.32081 0
M  V30 1190 N 112.336 1.25143 0.95797 0
M  V30 1191 C 113.266 1.07711 2.07173 0
M  V30 1192 C 114.247 -0.0128462 1.70095 0
M  V30 1193 O 115.432 0.156061 1.93572 0
M  V30 1194 C 112.562 0.691503 3.40346 0
M  V30 1195 C 111.516 1.73132 3.9142 0
M  V30 1196 C 110.842 1.20049 5.21049 0
M  V30 1197 C 112.142 3.1294 4.1817 0
M  V30 1198 H 113.836 2.00873 2.22014 0
M  V30 1199 H 111.382 0.967191 1.06684 0
M  V30 1200 H 113.335 0.556505 4.17709 0
M  V30 1201 H 112.059 -0.275819 3.25433 0
M  V30 1202 H 110.718 1.8547 3.16222 0
M  V30 1203 H 110.366 0.223499 5.02503 0
M  V30 1204 H 110.066 1.89545 5.56189 0
M  V30 1205 H 111.59 1.07782 6.01012 0
M  V30 1206 H 113.004 3.03775 4.86203 0
M  V30 1207 H 111.401 3.79875 4.64559 0
M  V30 1208 H 112.471 3.6025 3.24573 0
M  V30 1209 N 113.814 -1.1601 1.06675 0
M  V30 1210 C 114.744 -2.22688 0.702307 0
M  V30 1211 C 115.725 -1.67306 -0.307032 0
M  V30 1212 O 116.91 -1.93352 -0.181305 0
M  V30 1213 C 114.04 -3.47178 0.092038 0
M  V30 1214 C 112.994 -4.15477 1.02777 0
M  V30 1215 C 112.32 -5.33963 0.28061 0
M  V30 1216 C 113.62 -4.66019 2.35846 0
M  V30 1217 H 115.314 -2.53429 1.59419 0
M  V30 1218 H 112.86 -1.21813 0.767961 0
M  V30 1219 H 114.813 -4.21037 -0.174814 0
M  V30 1220 H 113.537 -3.15749 -0.834877 0
M  V30 1221 H 112.196 -3.43549 1.27944 0
M  V30 1222 H 111.844 -4.98788 -0.649545 0
M  V30 1223 H 111.544 -5.806 0.904258 0
M  V30 1224 H 113.068 -6.10596 0.021396 0
M  V30 1225 H 114.482 -5.3144 2.15045 0
M  V30 1226 H 112.879 -5.23293 2.93743 0
M  V30 1227 H 113.949 -3.82023 2.98641 0
M  V30 1228 N 115.292 -0.849877 -1.32721 0
M  V30 1229 C 116.52 -0.464754 -2.01613 0
M  V30 1230 C 116.935 0.937191 -1.63897 0
M  V30 1231 O 116.292 1.61081 -0.857856 0
M  V30 1232 C 116.343 -0.588638 -3.56675 0
M  V30 1233 O 116.064 -1.93535 -3.93034 0
M  V30 1234 C 117.565 -0.2019 -4.4284 0
M  V30 1235 H 114.785 -0.183215 -0.645502 0
M  V30 1236 H 117.329 -1.1455 -1.69407 0
M  V30 1237 H 115.484 0.0443159 -3.87375 0
M  V30 1238 H 115.898 -1.92871 -4.87751 0
M  V30 1239 H 117.372 -0.339599 -5.50954 0
M  V30 1240 H 117.849 0.857224 -4.30753 0
M  V30 1241 H 118.455 -0.809733 -4.17521 0
M  V30 1242 N 116.77 1.45427 -0.607355 0
M  V30 1243 C 118.016 2.0254 -0.102607 0
M  V30 1244 C 118.349 1.47478 1.26348 0
M  V30 1245 O 117.624 0.64939 1.83339 0
M  V30 1246 C 117.907 3.60044 -0.0634347 0
M  V30 1247 C 117.76 4.2544 -1.46017 0
M  V30 1248 C 119.079 4.35646 0.624514 0
M  V30 1249 H 116.198 0.73598 -0.0387607 0
M  V30 1250 H 118.84 1.73284 -0.779282 0
M  V30 1251 H 116.99 3.85101 0.512808 0
M  V30 1252 H 118.662 4.11569 -2.08347 0
M  V30 1253 H 116.905 3.83849 -2.02094 0
M  V30 1254 H 117.576 5.34342 -1.385 0
M  V30 1255 H 120.052 4.15882 0.134723 0
M  V30 1256 H 118.928 5.45376 0.621028 0
M  V30 1257 H 119.189 4.08501 1.69055 0
M  V30 1258 N 118.248 0.346503 1.53744 0
M  V30 1259 C 119.525 -0.304532 1.93215 0
M  V30 1260 C 119.905 -1.67993 1.27834 0
M  V30 1261 O 119.253 -2.24411 0.430352 0
M  V30 1262 C 119.463 -0.373852 3.46992 0
M  V30 1263 C 120.811 -0.62329 4.2 0
M  V30 1264 O 121.835 -0.455847 3.53271 0
M  V30 1265 O 120.694 -0.947879 5.38217 0
M  V30 1266 H 117.788 -0.178318 0.807547 0
M  V30 1267 H 120.334 0.397895 1.64969 0
M  V30 1268 H 119.106 0.591224 3.86808 0
M  V30 1269 H 118.729 -1.12294 3.81413 0
M  V30 1270 N 119.726 -1.57421 0.075193 0
M  V30 1271 C 120.975 -1.92794 -0.592731 0
M  V30 1272 C 121.288 -0.957478 -1.70563 0
M  V30 1273 O 122.494 -1.20417 -2.43335 0
M  V30 1274 C 120.95 -3.42495 -1.10569 0
M  V30 1275 C 120.558 -4.47994 -0.0236121 0
M  V30 1276 C 122.302 -3.86864 -1.74748 0
M  V30 1277 C 120.209 -5.88829 -0.550803 0
M  V30 1278 H 119.139 -0.719591 -0.225177 0
M  V30 1279 H 121.79 -1.82902 0.147978 0
M  V30 1280 H 120.172 -3.47471 -1.89947 0
M  V30 1281 H 121.346 -4.54637 0.751099 0
M  V30 1282 H 119.661 -4.13113 0.522159 0
M  V30 1283 H 122.258 -4.8947 -2.15229 0
M  V30 1284 H 122.601 -3.24417 -2.60882 0
M  V30 1285 H 123.134 -3.84504 -1.01986 0
M  V30 1286 H 119.873 -6.54929 0.273457 0
M  V30 1287 H 119.393 -5.85698 -1.29296 0
M  V30 1288 H 121.072 -6.38811 -1.02613 0
M  V30 1289 N 121.204 0.198386 -1.56346 0
M  V30 1290 C 122.429 0.939682 -1.84891 0
M  V30 1291 C 122.854 1.76202 -0.658369 0
M  V30 1292 O 122.212 1.76993 0.392851 0
M  V30 1293 C 122.26 1.81428 -3.11635 0
M  V30 1294 O 121.364 2.91265 -2.91956 0
M  V30 1295 H 120.705 0.264807 -0.608912 0
M  V30 1296 H 123.235 0.204695 -2.03573 0
M  V30 1297 H 123.245 2.21958 -3.42343 0
M  V30 1298 H 121.92 1.21004 -3.97908 0
M  V30 1299 H 120.497 2.54514 -2.72538 0
M  V30 1300 N 122.682 1.50554 0.465978 0
M  V30 1301 C 124.098 1.38093 0.800154 0
M  V30 1302 C 124.298 0.440988 1.96615 0
M  V30 1303 O 123.354 -0.114499 2.5224 0
M  V30 1304 C 124.667 2.79565 1.10742 0
M  V30 1305 C 126.215 2.88516 1.21357 0
M  V30 1306 C 126.69 4.30833 1.55393 0
M  V30 1307 N 128.181 4.33807 1.62375 0
M  V30 1308 C 128.916 5.40927 1.90225 0
M  V30 1309 N 128.412 6.58247 2.16062 0
M  V30 1310 N 130.205 5.28376 1.9177 0
M  V30 1311 H 122.356 2.10237 -0.302366 0
M  V30 1312 H 124.619 0.945203 -0.0727746 0
M  V30 1313 H 124.325 3.50208 0.323661 0
M  V30 1314 H 124.199 3.17125 2.04234 0
M  V30 1315 H 126.586 2.1809 1.98799 0
M  V30 1316 H 126.667 2.54492 0.258321 0
M  V30 1317 H 126.311 5.01799 0.784889 0
M  V30 1318 H 126.241 4.62347 2.52076 0
M  V30 1319 H 128.732 3.49212 1.44427 0
M  V30 1320 H 129.045 7.3569 2.36601 0
M  V30 1321 H 127.39 6.61413 2.13444 0
M  V30 1322 H 130.581 4.35715 1.71085 0
M  V30 1323 H 130.754 6.11944 2.13139 0
M  V30 1324 N 124.16 -0.719506 1.40217 0
M  V30 1325 C 125.406 -1.48152 1.38488 0
M  V30 1326 C 125.739 -1.94195 -0.0141867 0
M  V30 1327 O 125.014 -1.67884 -0.982096 0
M  V30 1328 C 125.297 -2.71035 2.37091 0
M  V30 1329 C 125.15 -2.30912 3.86005 0
M  V30 1330 C 126.469 -3.73182 2.33288 0
M  V30 1331 H 123.588 -0.537395 0.504357 0
M  V30 1332 H 126.23 -0.821472 1.71324 0
M  V30 1333 H 124.38 -3.27352 2.0922 0
M  V30 1334 H 126.052 -1.80107 4.24687 0
M  V30 1335 H 124.295 -1.62958 4.02029 0
M  V30 1336 H 124.966 -3.18978 4.50508 0
M  V30 1337 H 127.442 -3.26485 2.57966 0
M  V30 1338 H 126.318 -4.56806 3.04334 0
M  V30 1339 H 126.579 -4.21202 1.34317 0
M  V30 1340 N 125.638 -1.25649 -0.95132 0
M  V30 1341 C 126.571 -1.00644 -2.04807 0
M  V30 1342 C 127.549 0.0654271 -1.62468 0
M  V30 1343 O 128.733 -0.074911 -1.88351 0
M  V30 1344 C 125.86 -0.522052 -3.34653 0
M  V30 1345 C 124.906 -1.58495 -3.95957 0
M  V30 1346 S 125.739 -3.17108 -4.31512 0
M  V30 1347 C 126.895 -2.70412 -5.64471 0
M  V30 1348 H 127.128 -1.93508 -2.25703 0
M  V30 1349 H 124.661 -1.09216 -1.09139 0
M  V30 1350 H 126.619 -0.24923 -4.09743 0
M  V30 1351 H 125.28 0.386146 -3.11717 0
M  V30 1352 H 124.473 -1.1968 -4.89584 0
M  V30 1353 H 124.075 -1.80862 -3.2736 0
M  V30 1354 H 126.367 -2.14245 -6.42733 0
M  V30 1355 H 127.31 -3.62693 -6.08161 0
M  V30 1356 H 127.718 -2.10302 -5.23864 0
M  V30 1357 N 127.117 1.15442 -1.07289 0
M  V30 1358 C 128.027 2.23786 -0.704057 0
M  V30 1359 C 129.043 1.7166 0.284413 0
M  V30 1360 O 130.219 2.00972 0.131205 0
M  V30 1361 C 127.284 3.46535 -0.106792 0
M  V30 1362 C 126.345 4.13654 -1.14842 0
M  V30 1363 C 125.578 5.30544 -0.57956 0
M  V30 1364 O 125.801 5.67187 0.604585 0
M  V30 1365 O 124.735 5.87154 -1.32414 0
M  V30 1366 H 128.561 2.57664 -1.60757 0
M  V30 1367 H 126.146 1.23152 -0.845803 0
M  V30 1368 H 128.028 4.20804 0.224048 0
M  V30 1369 H 126.703 3.14407 0.770049 0
M  V30 1370 H 125.61 3.4131 -1.5316 0
M  V30 1371 H 126.943 4.49861 -1.99714 0
M  V30 1372 N 128.595 0.856903 1.32268 0
M  V30 1373 C 129.844 0.457599 1.96441 0
M  V30 1374 C 130.157 -0.992426 1.68553 0
M  V30 1375 O 131.363 -1.49727 2.26482 0
M  V30 1376 C 129.819 0.767358 3.51624 0
M  V30 1377 C 129.427 2.23326 3.88367 0
M  V30 1378 C 131.171 0.435887 4.22256 0
M  V30 1379 C 129.078 2.48613 5.36606 0
M  V30 1380 H 128.008 0.167387 0.735185 0
M  V30 1381 H 130.659 1.048 1.5063 0
M  V30 1382 H 129.041 0.106367 3.95857 0
M  V30 1383 H 130.215 2.93623 3.55137 0
M  V30 1384 H 128.53 2.52948 3.30766 0
M  V30 1385 H 131.127 0.602202 5.31298 0
M  V30 1386 H 131.47 -0.622672 4.11617 0
M  V30 1387 H 132.003 1.05286 3.83614 0
M  V30 1388 H 128.742 3.53101 5.52268 0
M  V30 1389 H 128.262 1.82896 5.71235 0
M  V30 1390 H 129.941 2.32676 6.03714 0
M  V30 1391 N 130.073 -1.45103 0.615059 0
M  V30 1392 C 131.319 -2.02483 0.113347 0
M  V30 1393 C 131.652 -1.48146 -1.25564 0
M  V30 1394 O 130.927 -0.659104 -1.82992 0
M  V30 1395 C 131.21 -3.60005 0.0825278 0
M  V30 1396 C 131.063 -4.2466 1.48271 0
M  V30 1397 C 132.382 -4.35972 -0.601401 0
M  V30 1398 H 129.501 -0.735764 0.0426632 0
M  V30 1399 H 132.143 -1.72868 0.788461 0
M  V30 1400 H 130.293 -3.85367 -0.492378 0
M  V30 1401 H 131.965 -4.10458 2.10527 0
M  V30 1402 H 130.208 -3.82772 2.04127 0
M  V30 1403 H 130.879 -5.336 1.41332 0
M  V30 1404 H 133.355 -4.15947 -0.112666 0
M  V30 1405 H 132.231 -5.45697 -0.592097 0
M  V30 1406 H 132.492 -4.09391 -1.66887 0
M  V30 1407 N 131.551 -0.354651 -1.53558 0
M  V30 1408 C 132.499 0.512195 -2.26891 0
M  V30 1409 C 133.493 1.09263 -1.29452 0
M  V30 1410 O 134.699 1.03709 -1.47121 0
M  V30 1411 H 131.074 0.183878 -0.729173 0
M  V30 1412 H 133.045 -0.128202 -2.98124 0
M  V30 1413 C 131.794 1.64563 -3.06291 0
M  V30 1414 H 131.117 1.20829 -3.81104 0
M  V30 1415 H 132.557 2.22711 -3.60799 0
M  V30 1416 C 131.016 2.58158 -2.16462 0
M  V30 1417 O 131.546 3.60695 -1.76811 0
M  V30 1418 N 129.752 2.27096 -1.81317 0
M  V30 1419 H 129.299 1.43751 -2.1376 0
M  V30 1420 H 129.257 2.89975 -1.21498 0
M  V30 1421 N 133.029 1.57378 -0.0835403 0
M  V30 1422 C 133.992 2.12252 0.864959 0
M  V30 1423 C 134.992 1.04916 1.21858 0
M  V30 1424 O 136.182 1.30853 1.14991 0
M  V30 1425 C 133.314 2.63358 2.16461 0
M  V30 1426 H 134.507 2.97371 0.388676 0
M  V30 1427 H 132.06 1.55423 0.165317 0
M  V30 1428 H 132.795 1.81727 2.686 0
M  V30 1429 H 132.58 3.41826 1.92087 0
M  V30 1430 H 134.07 3.05847 2.84337 0
M  V30 1431 N 134.507 -0.190092 1.56449 0
M  V30 1432 C 135.784 -0.935886 1.71757 0
M  V30 1433 C 136.164 -2.01173 0.639726 0
M  V30 1434 O 135.512 -2.25827 -0.348502 0
M  V30 1435 C 135.722 -1.51775 3.1427 0
M  V30 1436 C 137.07 -1.99794 3.74656 0
M  V30 1437 O 138.094 -1.61607 3.1743 0
M  V30 1438 O 136.953 -2.70079 4.751 0
M  V30 1439 H 134.047 -0.439229 0.700719 0
M  V30 1440 H 136.593 -0.179395 1.68749 0
M  V30 1441 H 135.365 -0.742505 3.84191 0
M  V30 1442 H 134.988 -2.33894 3.21527 0
M  V30 1443 N 135.985 -1.50799 -0.457987 0
M  V30 1444 C 136.915 -1.73553 -1.5621 0
M  V30 1445 C 137.896 -0.584774 -1.59732 0
M  V30 1446 O 139.081 -0.825314 -1.7579 0
M  V30 1447 C 136.211 -1.84169 -2.94447 0
M  V30 1448 C 135.165 -2.99461 -3.0579 0
M  V30 1449 C 134.491 -2.95235 -4.45803 0
M  V30 1450 C 135.791 -4.39766 -2.81786 0
M  V30 1451 H 137.485 -2.66 -1.37421 0
M  V30 1452 H 135.031 -1.28002 -0.659662 0
M  V30 1453 H 136.984 -1.98672 -3.71628 0
M  V30 1454 H 135.708 -0.883545 -3.14422 0
M  V30 1455 H 134.367 -2.8463 -2.31044 0
M  V30 1456 H 134.015 -1.97239 -4.62715 0
M  V30 1457 H 133.715 -3.72642 -4.54326 0
M  V30 1458 H 135.239 -3.11803 -5.24987 0
M  V30 1459 H 136.653 -4.55054 -3.4871 0
M  V30 1460 H 135.05 -5.18722 -3.0174 0
M  V30 1461 H 136.12 -4.51229 -1.7754 0
M  V30 1462 N 137.463 0.71206 -1.40597 0
M  V30 1463 C 138.426 1.80785 -1.40888 0
M  V30 1464 C 139.426 1.57937 -0.302103 0
M  V30 1465 O 140.616 1.64913 -0.561182 0
M  V30 1466 C 137.748 3.18927 -1.20409 0
M  V30 1467 H 138.941 1.81924 -2.38419 0
M  V30 1468 H 136.494 0.91805 -1.26497 0
M  V30 1469 H 137.229 3.23436 -0.236522 0
M  V30 1470 H 137.014 3.36911 -2.00582 0
M  V30 1471 H 138.504 3.98949 -1.23408 0
M  V30 1472 N 138.941 1.26152 0.944643 0
M  V30 1473 C 139.873 1.03199 2.04652 0
M  V30 1474 C 140.886 -0.00642356 1.62799 0
M  V30 1475 O 142.075 0.233263 1.76969 0
M  V30 1476 C 139.175 0.540111 3.34568 0
M  V30 1477 C 138.348 1.64697 4.05208 0
M  V30 1478 C 137.407 1.15374 5.13396 0
M  V30 1479 O 136.433 1.85013 5.38293 0
M  V30 1480 N 137.635 0.00031529 5.805 0
M  V30 1481 H 140.4 1.9808 2.2491 0
M  V30 1482 H 137.961 1.17491 1.11389 0
M  V30 1483 H 139.953 0.194401 4.04233 0
M  V30 1484 H 138.523 -0.315021 3.11009 0
M  V30 1485 H 137.743 2.16379 3.29506 0
M  V30 1486 H 139.031 2.3903 4.49157 0
M  V30 1487 H 138.429 -0.581336 5.62705 0
M  V30 1488 H 136.986 -0.286346 6.51171 0
M  V30 1489 N 140.419 -1.14872 1.07899 0
M  V30 1490 C 141.366 -2.19791 0.704319 0
M  V30 1491 C 142.336 -1.63238 -0.306987 0
M  V30 1492 O 143.521 -1.8983 -0.192171 0
M  V30 1493 C 140.661 -3.44911 0.114244 0
M  V30 1494 C 139.774 -4.15637 1.1777 0
M  V30 1495 C 138.909 -5.28324 0.552037 0
M  V30 1496 C 137.948 -5.90875 1.59789 0
M  V30 1497 N 137.085 -6.95022 0.994404 0
M  V30 1498 H 141.925 -2.5119 1.60336 0
M  V30 1499 H 139.462 -1.23356 0.801352 0
M  V30 1500 H 141.42 -4.16477 -0.245544 0
M  V30 1501 H 140.05 -3.14011 -0.74813 0
M  V30 1502 H 139.102 -3.42512 1.65499 0
M  V30 1503 H 140.414 -4.5823 1.97046 0
M  V30 1504 H 139.568 -6.06538 0.1402 0
M  V30 1505 H 138.307 -4.86939 -0.272431 0
M  V30 1506 H 137.312 -5.11369 2.01945 0
M  V30 1507 H 138.537 -6.34337 2.42474 0
M  V30 1508 H 136.483 -6.55722 0.190939 0
M  V30 1509 H 136.4 -7.36073 1.72432 0
M  V30 1510 H 137.668 -7.77123 0.608253 0
M  V30 1511 N 141.898 -0.863906 -1.31812 0
M  V30 1512 C 143.147 -0.46801 -1.96195 0
M  V30 1513 C 143.46 0.983474 -1.69077 0
M  V30 1514 O 144.666 1.48523 -2.27273 0
M  V30 1515 C 143.122 -0.785995 -3.51212 0
M  V30 1516 C 142.73 -2.25383 -3.87178 0
M  V30 1517 C 144.474 -0.458274 -4.22019 0
M  V30 1518 C 142.381 -2.51455 -5.3528 0
M  V30 1519 H 141.311 -0.171283 -0.734287 0
M  V30 1520 H 143.962 -1.05597 -1.50072 0
M  V30 1521 H 142.344 -0.127359 -3.95795 0
M  V30 1522 H 143.518 -2.95502 -3.53575 0
M  V30 1523 H 141.833 -2.54698 -3.2942 0
M  V30 1524 H 144.43 -0.630369 -5.30971 0
M  V30 1525 H 144.773 0.600834 -4.11941 0
M  V30 1526 H 145.306 -1.07319 -3.8305 0
M  V30 1527 H 142.045 -3.56025 -5.50387 0
M  V30 1528 H 141.565 -1.85923 -5.70257 0
M  V30 1529 H 143.244 -2.35874 -6.02472 0
M  V30 1530 N 143.376 1.44774 -0.622745 0
M  V30 1531 C 144.653 1.95522 -0.0551974 0
M  V30 1532 C 145.033 1.5649 1.41683 0
M  V30 1533 O 144.381 0.834848 2.12703 0
M  V30 1534 C 144.591 3.4796 -0.269242 0
M  V30 1535 C 145.939 4.24306 -0.158014 0
M  V30 1536 O 146.963 3.55637 -0.200162 0
M  V30 1537 O 145.822 5.46471 -0.0558693 0
M  V30 1538 H 142.916 0.826556 0.0271015 0
M  V30 1539 H 145.462 1.54866 -0.693864 0
M  V30 1540 H 144.234 3.6939 -1.29099 0
M  V30 1541 H 143.857 3.95543 0.403966 0
M  V30 1542 N 144.854 0.36279 1.53368 0
M  V30 1543 C 146.079 -0.231226 2.06107 0
M  V30 1544 C 146.504 -1.419 1.23474 0
M  V30 1545 O 145.862 -1.79524 0.253128 0
M  V30 1546 C 145.91 -0.605523 3.5548 0
M  V30 1547 O 145.014 -1.70312 3.7559 0
M  V30 1548 H 144.355 -0.034327 0.663112 0
M  V30 1549 H 146.885 0.522584 1.97814 0
M  V30 1550 H 146.895 -0.877314 3.98456 0
M  V30 1551 H 145.57 0.263004 4.15068 0
M  V30 1552 H 144.147 -1.4271 3.44512 0
M  V30 1553 N 146.332 -1.57332 0.0918853 0
M  V30 1554 C 147.279 -2.13847 -0.868211 0
M  V30 1555 C 148.249 -1.05618 -1.28196 0
M  V30 1556 O 149.434 -1.33387 -1.36427 0
M  V30 1557 C 146.574 -2.72062 -2.12312 0
M  V30 1558 C 145.687 -3.94514 -1.7602 0
M  V30 1559 C 144.822 -4.40903 -2.96273 0
M  V30 1560 C 143.861 -5.55953 -2.56092 0
M  V30 1561 N 142.998 -5.97209 -3.69169 0
M  V30 1562 H 147.838 -2.95575 -0.379406 0
M  V30 1563 H 145.375 -1.46048 -0.175606 0
M  V30 1564 H 147.333 -3.03931 -2.858 0
M  V30 1565 H 145.963 -1.93068 -2.58698 0
M  V30 1566 H 145.015 -3.68979 -0.925135 0
M  V30 1567 H 146.327 -4.7802 -1.42472 0
M  V30 1568 H 145.481 -4.74539 -3.78018 0
M  V30 1569 H 144.22 -3.56291 -3.33029 0
M  V30 1570 H 143.225 -5.21948 -1.72773 0
M  V30 1571 H 144.45 -6.42311 -2.20484 0
M  V30 1572 H 142.396 -5.15543 -4.05649 0
M  V30 1573 H 142.313 -6.75504 -3.39456 0
M  V30 1574 H 143.581 -6.35475 -4.51434 0
M  V30 1575 N 147.81 0.181792 -1.56548 0
M  V30 1576 C 149.056 0.901431 -1.81665 0
M  V30 1577 C 149.389 1.82347 -0.668075 0
M  V30 1578 O 148.664 1.91669 0.330615 0
M  V30 1579 C 148.947 1.70618 -3.17115 0
M  V30 1580 C 148.8 0.807964 -4.42484 0
M  V30 1581 C 150.119 2.67605 -3.49393 0
M  V30 1582 H 147.238 0.32627 -0.660846 0
M  V30 1583 H 149.88 0.168134 -1.89255 0
M  V30 1584 H 148.03 2.33133 -3.10775 0
M  V30 1585 H 149.702 0.19649 -4.60881 0
M  V30 1586 H 147.945 0.115411 -4.33646 0
M  V30 1587 H 148.616 1.40632 -5.33785 0
M  V30 1588 H 151.092 2.15218 -3.56118 0
M  V30 1589 H 149.968 3.20985 -4.45264 0
M  V30 1590 H 150.229 3.47298 -2.73563 0
M  V30 1591 N 149.288 1.51039 0.449983 0
M  V30 1592 C 150.218 1.74379 1.55288 0
M  V30 1593 C 151.199 0.593236 1.5942 0
M  V30 1594 O 152.384 0.834625 1.7535 0
M  V30 1595 C 149.514 1.85728 2.93466 0
M  V30 1596 C 148.468 3.01078 3.04197 0
M  V30 1597 C 147.794 2.97595 4.44231 0
M  V30 1598 C 149.094 4.41254 2.7945 0
M  V30 1599 H 150.788 2.66725 1.36008 0
M  V30 1600 H 148.334 1.2835 0.652864 0
M  V30 1601 H 150.287 2.0064 3.70569 0
M  V30 1602 H 149.011 0.900207 3.13949 0
M  V30 1603 H 147.67 2.85851 2.29531 0
M  V30 1604 H 147.318 1.99691 4.61663 0
M  V30 1605 H 147.018 3.75046 4.52343 0
M  V30 1606 H 148.542 3.14583 5.23326 0
M  V30 1607 H 149.956 4.56897 3.46292 0
M  V30 1608 H 148.353 5.20315 2.98985 0
M  V30 1609 H 149.423 4.52164 1.75144 0
M  V30 1610 N 150.766 -0.704594 1.40972 0
M  V30 1611 C 151.676 -1.84856 1.44448 0
M  V30 1612 C 152.692 -1.70726 0.335961 0
M  V30 1613 O 153.868 -1.92799 0.582276 0
M  V30 1614 C 150.933 -3.20758 1.31587 0
M  V30 1615 C 149.994 -3.47063 2.52677 0
M  V30 1616 C 149.227 -4.76481 2.4042 0
M  V30 1617 O 149.45 -5.52341 1.42391 0
M  V30 1618 O 148.384 -5.03367 3.30007 0
M  V30 1619 H 152.21 -1.8488 2.40942 0
M  V30 1620 H 149.795 -0.85647 1.22413 0
M  V30 1621 H 151.677 -4.01913 1.26665 0
M  V30 1622 H 150.352 -3.21438 0.382049 0
M  V30 1623 H 149.259 -2.65873 2.63177 0
M  V30 1624 H 150.592 -3.5119 3.44858 0
M  V30 1625 N 152.244 -1.26651 -0.937939 0
M  V30 1626 C 153.191 -1.0849 -2.03712 0
M  V30 1627 C 154.161 0.011033 -1.66096 0
M  V30 1628 O 155.346 -0.149353 -1.90215 0
M  V30 1629 C 152.486 -0.72735 -3.37348 0
M  V30 1630 C 151.599 -1.89986 -3.87981 0
M  V30 1631 C 150.734 -1.48513 -5.10017 0
M  V30 1632 C 149.773 -2.62575 -5.5292 0
M  V30 1633 N 148.91 -2.21762 -6.66158 0
M  V30 1634 H 153.75 -2.02551 -2.18579 0
M  V30 1635 H 151.287 -1.00844 -1.07093 0
M  V30 1636 H 153.245 -0.50092 -4.14182 0
M  V30 1637 H 151.875 0.176298 -3.22318 0
M  V30 1638 H 150.927 -2.23913 -3.07518 0
M  V30 1639 H 152.239 -2.75586 -4.15757 0
M  V30 1640 H 151.393 -1.21934 -5.94321 0
M  V30 1641 H 150.132 -0.60009 -4.83994 0
M  V30 1642 H 149.137 -2.8988 -4.67172 0
M  V30 1643 H 150.362 -3.51685 -5.80943 0
M  V30 1644 H 148.308 -1.35696 -6.41812 0
M  V30 1645 H 148.225 -3.00903 -6.93537 0
M  V30 1646 H 149.493 -1.98403 -7.53828 0
M  V30 1647 N 153.722 1.14298 -1.08507 0
M  V30 1648 C 154.67 2.21483 -0.710483 0
M  V30 1649 C 155.664 1.66998 0.284234 0
M  V30 1650 O 156.87 1.79401 0.146692 0
M  V30 1651 H 153.245 0.721578 -0.211729 0
M  V30 1652 H 155.216 2.50348 -1.62384 0
M  V30 1653 C 153.965 3.4743 -0.137007 0
M  V30 1654 H 153.288 3.89686 -0.893592 0
M  V30 1655 H 154.728 4.2391 0.0872789 0
M  V30 1656 C 153.187 3.17548 1.12538 0
M  V30 1657 O 153.717 3.35437 2.21009 0
M  V30 1658 N 151.923 2.71499 1.03617 0
M  V30 1659 H 151.47 2.57143 0.153403 0
M  V30 1660 H 151.428 2.51881 1.88158 0
M  V30 1661 N 155.201 0.870884 1.31352 0
M  V30 1662 C 156.45 0.478408 1.95944 0
M  V30 1663 C 156.763 -0.974493 1.69597 0
M  V30 1664 O 157.969 -1.47316 2.28058 0
M  V30 1665 C 156.425 0.804609 3.50791 0
M  V30 1666 C 156.033 2.27433 3.85977 0
M  V30 1667 C 157.777 0.480648 4.2177 0
M  V30 1668 C 155.684 2.5429 5.33939 0
M  V30 1669 H 154.614 0.175175 0.733369 0
M  V30 1670 H 157.265 1.06391 1.4951 0
M  V30 1671 H 155.647 0.148347 3.95722 0
M  V30 1672 H 156.821 2.97373 3.52002 0
M  V30 1673 H 155.136 2.56442 3.28065 0
M  V30 1674 H 157.733 0.658519 5.30629 0
M  V30 1675 H 158.076 -0.578979 4.12254 0
M  V30 1676 H 158.609 1.09349 3.82476 0
M  V30 1677 H 155.348 3.58939 5.48491 0
M  V30 1678 H 154.868 1.88945 5.69263 0
M  V30 1679 H 156.547 2.39066 6.01212 0
M  V30 1680 N 156.679 -1.44442 0.630414 0
M  V30 1681 C 158.09 -1.85434 0.217063 0
M  V30 1682 C 158.441 -1.52748 -1.23136 0
M  V30 1683 O 157.566 -0.965205 -1.93682 0
M  V30 1684 C 158.161 -3.36581 0.387168 0
M  V30 1685 C 156.72 -3.76389 0.0283297 0
M  V30 1686 C 155.867 -2.68296 0.700889 0
M  V30 1687 H 158.818 -1.34919 0.83562 0
M  V30 1688 H 158.839 -3.78657 -0.374086 0
M  V30 1689 H 158.351 -3.60339 1.44144 0
M  V30 1690 H 156.452 -3.58246 -1.02423 0
M  V30 1691 H 156.565 -4.77095 0.437892 0
M  V30 1692 H 154.929 -2.54335 0.136267 0
M  V30 1693 H 155.712 -2.94887 1.75774 0
M  V30 1694 N 158.157 -0.370918 -1.53173 0
M  V30 1695 C 159.12 0.460778 -2.24521 0
M  V30 1696 C 160.12 1.00536 -1.25496 0
M  V30 1697 O 161.31 0.890266 -1.49733 0
M  V30 1698 C 158.442 1.64457 -2.98608 0
M  V30 1699 H 159.635 -0.163613 -2.99453 0
M  V30 1700 H 157.188 -0.122699 -1.55818 0
M  V30 1701 H 157.923 2.30691 -2.2793 0
M  V30 1702 H 157.708 1.26099 -3.7127 0
M  V30 1703 H 159.198 2.23384 -3.5283 0
M  V30 1704 N 159.635 1.57281 -0.100228 0
M  V30 1705 C 160.567 2.11342 0.886972 0
M  V30 1706 C 161.58 1.05182 1.24261 0
M  V30 1707 O 162.769 1.32613 1.19483 0
M  V30 1708 C 159.869 2.5825 2.19454 0
M  V30 1709 C 159.042 3.88302 2.01346 0
M  V30 1710 C 158.101 4.21004 3.15661 0
M  V30 1711 O 157.127 4.9014 2.89398 0
M  V30 1712 N 158.329 3.76818 4.41575 0
M  V30 1713 H 161.094 2.96668 0.425216 0
M  V30 1714 H 158.655 1.61678 0.0847334 0
M  V30 1715 H 160.647 2.7717 2.94888 0
M  V30 1716 H 159.217 1.77907 2.57037 0
M  V30 1717 H 158.437 3.7848 1.10212 0
M  V30 1718 H 159.725 4.73375 1.8653 0
M  V30 1719 H 159.123 3.2102 4.65792 0
M  V30 1720 H 157.68 4.00882 5.13942 0
M  V30 1721 N 161.113 -0.173488 1.56642 0
M  V30 1722 C 162.36 -0.890465 1.81871 0
M  V30 1723 C 162.688 -1.82339 0.67696 0
M  V30 1724 O 161.943 -1.92795 -0.335926 0
M  V30 1725 C 162.242 -1.72069 3.13252 0
M  V30 1726 C 161.908 -0.936878 4.41059 0
M  V30 1727 C 160.57 -0.720545 4.75775 0
M  V30 1728 C 162.922 -0.386919 5.19762 0
M  V30 1729 C 160.25 0.0568829 5.86672 0
M  V30 1730 C 162.602 0.37741 6.31473 0
M  V30 1731 C 161.266 0.604563 6.64757 0
M  V30 1732 H 160.536 -0.325844 0.665512 0
M  V30 1733 H 163.183 -0.155527 1.90867 0
M  V30 1734 H 161.488 -2.52496 2.99588 0
M  V30 1735 H 163.185 -2.27844 3.29982 0
M  V30 1736 H 159.775 -1.11553 4.13828 0
M  V30 1737 H 163.959 -0.541398 4.93338 0
M  V30 1738 H 159.215 0.242635 6.10918 0
M  V30 1739 H 163.389 0.810825 6.91664 0
M  V30 1740 H 161.016 1.20885 7.50527 0
M  V30 1741 N 162.591 -1.51276 -0.441967 0
M  V30 1742 C 164.007 -1.39349 -0.778083 0
M  V30 1743 C 164.207 -0.472212 -1.95889 0
M  V30 1744 O 163.263 0.0743551 -2.5239 0
M  V30 1745 C 164.576 -2.81292 -1.0628 0
M  V30 1746 C 166.124 -2.9041 -1.16751 0
M  V30 1747 C 166.599 -4.33251 -1.48519 0
M  V30 1748 N 168.09 -4.36336 -1.55453 0
M  V30 1749 C 168.825 -5.43885 -1.81596 0
M  V30 1750 N 168.321 -6.61601 -2.05562 0
M  V30 1751 N 170.114 -5.3136 -1.8334 0
M  V30 1752 H 162.265 -2.09729 0.335774 0
M  V30 1753 H 164.528 -0.943925 0.0878028 0
M  V30 1754 H 164.234 -3.50678 -0.267905 0
M  V30 1755 H 164.108 -3.20334 -1.99163 0
M  V30 1756 H 166.495 -2.21225 -1.95304 0
M  V30 1757 H 166.576 -2.54871 -0.217801 0
M  V30 1758 H 166.22 -5.02984 -0.704958 0
M  V30 1759 H 166.15 -4.66299 -2.44689 0
M  V30 1760 H 168.641 -3.51466 -1.38853 0
M  V30 1761 H 168.954 -7.39361 -2.24867 0
M  V30 1762 H 167.299 -6.64725 -2.02894 0
M  V30 1763 H 170.49 -4.38382 -1.64132 0
M  V30 1764 H 170.663 -6.15258 -2.03377 0
M  V30 1765 N 164.069 0.697108 -1.41344 0
M  V30 1766 C 165.346 1.45154 -1.31109 0
M  V30 1767 C 165.726 2.11009 0.0620449 0
M  V30 1768 O 165.074 2.01571 1.07618 0
M  V30 1769 C 165.284 2.47223 -2.46337 0
M  V30 1770 C 166.632 3.1252 -2.87431 0
M  V30 1771 O 167.656 2.57547 -2.46065 0
M  V30 1772 O 166.515 4.12083 -3.58957 0
M  V30 1773 H 163.609 0.646365 -0.515889 0
M  V30 1774 H 166.155 0.727716 -1.53305 0
M  V30 1775 H 164.927 1.97204 -3.37974 0
M  V30 1776 H 164.55 3.27116 -2.2601 0
M  V30 1777 N 165.547 1.27147 0.931209 0
M  V30 1778 C 166.772 1.16191 1.71797 0
M  V30 1779 C 167.197 -0.278004 1.86034 0
M  V30 1780 O 166.555 -1.20137 1.35782 0
M  V30 1781 C 166.603 1.84673 3.09723 0
M  V30 1782 O 165.707 1.14231 3.96264 0
M  V30 1783 H 165.048 0.404303 0.526721 0
M  V30 1784 H 167.578 1.68152 1.1656 0
M  V30 1785 H 167.588 1.91893 3.60057 0
M  V30 1786 H 166.263 2.89421 2.98677 0
M  V30 1787 H 164.84 1.15056 3.54706 0
M  V30 1788 N 167.025 -1.13721 1.09112 0
M  V30 1789 C 167.973 -2.21103 0.722219 0
M  V30 1790 C 168.967 -1.67147 -0.275374 0
M  V30 1791 O 170.173 -1.79477 -0.137176 0
M  V30 1792 H 166.548 -0.720445 0.215553 0
M  V30 1793 H 168.519 -2.49483 1.63709 0
M  V30 1794 C 167.268 -3.47352 0.15543 0
M  V30 1795 H 166.591 -3.89206 0.914246 0
M  V30 1796 H 168.031 -4.2395 -0.0647967 0
M  V30 1797 C 166.49 -3.1814 -1.10852 0
M  V30 1798 O 167.02 -3.36604 -2.19227 0
M  V30 1799 N 165.226 -2.72045 -1.02176 0
M  V30 1800 H 164.773 -2.57221 -0.139764 0
M  V30 1801 H 164.731 -2.52875 -1.8682 0
M  V30 1802 N 168.503 -0.877838 -1.30888 0
M  V30 1803 C 169.78 -0.413052 -1.91189 0
M  V30 1804 C 170.16 1.1056 -1.79832 0
M  V30 1805 O 169.508 1.93771 -1.21099 0
M  V30 1806 C 169.718 -0.903191 -3.3711 0
M  V30 1807 C 171.066 -0.93395 -4.14201 0
M  V30 1808 O 172.09 -0.849373 -3.45925 0
M  V30 1809 O 170.949 -1.05772 -5.36167 0
M  V30 1810 H 168.043 -0.125035 -0.817493 0
M  V30 1811 H 170.589 -0.966269 -1.39504 0
M  V30 1812 H 169.361 -1.94692 -3.39427 0
M  V30 1813 H 168.984 -0.328732 -3.96239 0
M  V30 1814 N 169.982 1.44106 -0.638065 0
M  V30 1815 C 170.914 2.28976 0.101205 0
M  V30 1816 C 171.927 1.4167 0.802088 0
M  V30 1817 O 173.116 1.65755 0.662375 0
M  V30 1818 C 170.216 3.18217 1.16581 0
M  V30 1819 C 169.389 4.33978 0.546066 0
M  V30 1820 C 168.448 5.04202 1.50554 0
M  V30 1821 O 167.474 5.59986 1.01999 0
M  V30 1822 N 168.676 5.06296 2.8398 0
M  V30 1823 H 171.441 2.93064 -0.627186 0
M  V30 1824 H 169.002 1.54629 -0.479731 0
M  V30 1825 H 170.994 3.62061 1.80815 0
M  V30 1826 H 169.564 2.55833 1.79634 0
M  V30 1827 H 168.784 3.93239 -0.275046 0
M  V30 1828 H 170.072 5.08675 0.112793 0
M  V30 1829 H 169.47 4.62319 3.26002 0
M  V30 1830 H 168.027 5.53907 3.43556 0
M  V30 1831 N 171.46 0.379036 1.52974 0
M  V30 1832 C 172.706 -0.199244 2.02422 0
M  V30 1833 C 173.061 -1.4532 1.26095 0
M  V30 1834 O 172.354 -1.88377 0.34996 0
M  V30 1835 C 172.548 -0.53096 3.53434 0
M  V30 1836 C 172.377 0.689298 4.44386 0
M  V30 1837 C 171.147 1.20546 4.9071 0
M  V30 1838 C 173.345 1.55856 4.90116 0
M  V30 1839 N 171.327 2.38434 5.65705 0
M  V30 1840 C 172.698 2.58396 5.63588 0
M  V30 1841 C 174.753 1.57986 4.7217 0
M  V30 1842 C 173.456 3.62939 6.21022 0
M  V30 1843 C 175.482 2.6143 5.30479 0
M  V30 1844 C 174.844 3.62693 6.03849 0
M  V30 1845 H 170.943 -0.0352671 0.781204 0
M  V30 1846 H 173.527 0.526614 1.87443 0
M  V30 1847 H 171.698 -1.22588 3.68547 0
M  V30 1848 H 173.43 -1.0955 3.89591 0
M  V30 1849 H 170.185 0.768022 4.67331 0
M  V30 1850 H 170.609 2.98055 6.07859 0
M  V30 1851 H 175.251 0.810475 4.14959 0
M  V30 1852 H 172.969 4.40751 6.77321 0
M  V30 1853 H 176.555 2.63949 5.18481 0
M  V30 1854 H 175.435 4.41424 6.48163 0
M  V30 1855 N 172.938 -1.57226 0.108567 0
M  V30 1856 C 174.185 -1.94833 -0.551943 0
M  V30 1857 C 174.513 -0.991204 -1.67348 0
M  V30 1858 O 173.768 -0.0131878 -1.95696 0
M  V30 1859 C 174.067 -3.38911 -1.13463 0
M  V30 1860 C 173.733 -4.50696 -0.135509 0
M  V30 1861 C 172.395 -4.80998 0.139252 0
M  V30 1862 C 174.747 -5.18333 0.545957 0
M  V30 1863 C 172.075 -5.76259 1.10194 0
M  V30 1864 C 174.427 -6.14627 1.49721 0
M  V30 1865 C 173.091 -6.43327 1.78006 0
M  V30 1866 H 172.361 -0.712944 -0.20197 0
M  V30 1867 H 175.008 -1.90582 0.18726 0
M  V30 1868 H 173.313 -3.39805 -1.95037 0
M  V30 1869 H 175.01 -3.65317 -1.65362 0
M  V30 1870 H 171.6 -4.27087 -0.359846 0
M  V30 1871 H 175.784 -4.95087 0.346842 0
M  V30 1872 H 171.04 -5.96804 1.32795 0
M  V30 1873 H 175.214 -6.66126 2.03099 0
M  V30 1874 H 172.841 -7.1695 2.52759 0
M  V30 1875 N 174.416 0.165178 -1.56732 0
M  V30 1876 C 175.664 0.879068 -1.8198 0
M  V30 1877 C 175.985 1.82514 -0.686561 0
M  V30 1878 O 175.255 1.93694 0.293146 0
M  V30 1879 H 173.835 0.327608 -0.671329 0
M  V30 1880 H 176.497 0.163526 -1.94213 0
M  V30 1881 H 175.593 1.45228 -2.76252 0
M  V30 1882 N 175.894 1.51508 0.433938 0
M  V30 1883 C 176.824 1.76016 1.53429 0
M  V30 1884 C 177.805 0.610112 1.58782 0
M  V30 1885 O 178.99 0.853177 1.74455 0
M  V30 1886 C 176.12 1.88831 2.9148 0
M  V30 1887 C 175.074 3.04288 3.00987 0
M  V30 1888 C 174.4 3.0229 4.4105 0
M  V30 1889 C 175.7 4.44193 2.74754 0
M  V30 1890 H 177.394 2.68152 1.33171 0
M  V30 1891 H 174.94 1.29035 0.639214 0
M  V30 1892 H 176.893 2.04559 3.6842 0
M  V30 1893 H 175.617 0.933455 3.12976 0
M  V30 1894 H 174.276 2.8827 2.26486 0
M  V30 1895 H 173.924 2.04576 4.59519 0
M  V30 1896 H 173.624 3.79822 4.4834 0
M  V30 1897 H 175.148 3.20116 5.1996 0
M  V30 1898 H 176.562 4.60544 3.41426 0
M  V30 1899 H 174.959 5.23457 2.9345 0
M  V30 1900 H 176.029 4.53996 1.70339 0
M  V30 1901 N 177.372 -0.689602 1.41712 0
M  V30 1902 C 178.6 -1.47827 1.44758 0
M  V30 1903 C 179.015 -1.88721 0.0545703 0
M  V30 1904 O 178.372 -1.57176 -0.927463 0
M  V30 1905 C 178.423 -2.73698 2.3616 0
M  V30 1906 O 178.144 -2.34524 3.7004 0
M  V30 1907 C 179.645 -3.67389 2.48072 0
M  V30 1908 H 176.865 -0.455357 0.49284 0
M  V30 1909 H 179.409 -0.848574 1.86063 0
M  V30 1910 H 177.564 -3.32891 1.98148 0
M  V30 1911 H 177.978 -3.15701 4.18847 0
M  V30 1912 H 179.452 -4.52475 3.16181 0
M  V30 1913 H 179.929 -4.12284 1.51388 0
M  V30 1914 H 180.535 -3.14097 2.86746 0
M  V30 1915 N 178.85 -1.27639 -0.924453 0
M  V30 1916 C 180.078 -1.16989 -1.70649 0
M  V30 1917 C 180.493 0.272869 -1.86818 0
M  V30 1918 O 179.85 1.18549 -1.38753 0
M  V30 1919 C 179.901 -1.85229 -3.10439 0
M  V30 1920 O 179.622 -3.23868 -2.95028 0
M  V30 1921 C 181.123 -1.80746 -4.04779 0
M  V30 1922 H 178.343 -0.406595 -0.53378 0
M  V30 1923 H 180.887 -1.68569 -1.15778 0
M  V30 1924 H 179.042 -1.37545 -3.6216 0
M  V30 1925 H 179.456 -3.57889 -3.83426 0
M  V30 1926 H 180.93 -2.33101 -5.00368 0
M  V30 1927 H 181.407 -0.777499 -4.32263 0
M  V30 1928 H 182.013 -2.28059 -3.58984 0
M  V30 1929 N 180.328 1.1314 -1.09713 0
M  V30 1930 C 181.744 1.36477 -0.827423 0
M  V30 1931 C 181.944 1.93654 0.556817 0
M  V30 1932 O 181 2.15791 1.31112 0
M  V30 1933 C 182.313 2.31334 -1.92106 0
M  V30 1934 C 183.861 2.44943 -1.94864 0
M  V30 1935 C 184.336 3.4311 -3.0338 0
M  V30 1936 N 185.827 3.50662 -3.02639 0
M  V30 1937 C 186.562 4.2651 -3.83246 0
M  V30 1938 N 186.058 5.05485 -4.73768 0
M  V30 1939 N 187.851 4.2184 -3.71493 0
M  V30 1940 H 180.002 0.743807 -1.9895 0
M  V30 1941 H 182.265 0.389823 -0.864143 0
M  V30 1942 H 181.971 1.96483 -2.91698 0
M  V30 1943 H 181.845 3.31381 -1.80184 0
M  V30 1944 H 184.232 2.79079 -0.959099 0
M  V30 1945 H 184.313 1.4481 -2.10864 0
M  V30 1946 H 183.957 3.09704 -4.02549 0
M  V30 1947 H 183.887 4.43055 -2.84622 0
M  V30 1948 H 186.378 2.94315 -2.37039 0
M  V30 1949 H 186.691 5.60675 -5.3185 0
M  V30 1950 H 185.036 5.04708 -4.77802 0
M  V30 1951 H 188.227 3.5922 -3.00131 0
M  V30 1952 H 188.4 4.80697 -4.3455 0
M  V30 1953 N 181.806 0.884767 1.30421 0
M  V30 1954 C 182.769 0.356277 2.26414 0
M  V30 1955 C 183.769 -0.501124 1.52792 0
M  V30 1956 O 184.959 -0.30831 1.7145 0
M  V30 1957 C 182.091 -0.492316 3.37326 0
M  V30 1958 H 183.284 1.20389 2.74675 0
M  V30 1959 H 180.837 0.661607 1.41607 0
M  V30 1960 H 181.572 -1.36052 2.94381 0
M  V30 1961 H 181.357 0.121832 3.91911 0
M  V30 1962 H 182.847 -0.853871 4.08777 0
M  V30 1963 N 183.284 -1.43765 0.645699 0
M  V30 1964 C 184.7 -1.56509 0.312591 0
M  V30 1965 C 184.9 -1.6307 -1.18365 0
M  V30 1966 O 183.956 -1.58167 -1.96824 0
M  V30 1967 C 185.269 -2.82968 1.01733 0
M  V30 1968 C 186.817 -2.96701 0.996865 0
M  V30 1969 C 187.292 -4.25982 1.68236 0
M  V30 1970 N 188.783 -4.32829 1.64964 0
M  V30 1971 C 189.518 -5.31613 2.14885 0
M  V30 1972 N 189.014 -6.36718 2.73061 0
M  V30 1973 N 190.807 -5.23217 2.05428 0
M  V30 1974 H 182.958 -1.3775 1.61675 0
M  V30 1975 H 185.221 -0.661067 0.679481 0
M  V30 1976 H 184.927 -2.84156 2.0724 0
M  V30 1977 H 184.801 -3.72957 0.564177 0
M  V30 1978 H 187.188 -2.95058 -0.0497719 0
M  V30 1979 H 187.269 -2.08022 1.48865 0
M  V30 1980 H 186.913 -4.28386 2.72852 0
M  V30 1981 H 186.843 -5.13545 1.16529 0
M  V30 1982 H 189.334 -3.57493 1.22503 0
M  V30 1983 H 189.647 -7.08401 3.08848 0
M  V30 1984 H 187.992 -6.37362 2.77118 0
M  V30 1985 H 191.183 -4.40019 1.59689 0
M  V30 1986 H 191.356 -6.00045 2.44643 0
M  V30 1987 N 184.763 -0.387143 -1.52771 0
M  V30 1988 C 186.009 0.196025 -2.0185 0
M  V30 1989 C 186.342 1.46641 -1.27319 0
M  V30 1990 O 185.617 1.90889 -0.373032 0
M  V30 1991 C 185.9 0.466136 -3.5707 0
M  V30 1992 C 185.753 -0.819385 -4.42274 0
M  V30 1993 C 187.072 1.25768 -4.21747 0
M  V30 1994 H 184.191 0.0697708 -0.73369 0
M  V30 1995 H 186.833 -0.516286 -1.82851 0
M  V30 1996 H 184.983 1.07293 -3.7339 0
M  V30 1997 H 186.655 -1.4563 -4.37709 0
M  V30 1998 H 184.898 -1.43517 -4.09372 0
M  V30 1999 H 185.569 -0.585065 -5.48891 0
M  V30 2000 H 188.045 0.744167 -4.09391 0
M  V30 2001 H 186.921 1.41541 -5.30337 0
M  V30 2002 H 187.182 2.27228 -3.79236 0
M  V30 2003 N 186.241 1.57166 -0.116904 0
M  V30 2004 C 187.49 1.94298 0.541407 0
M  V30 2005 C 187.803 1.00236 1.67964 0
M  V30 2006 O 189.009 1.26826 2.40057 0
M  V30 2007 C 187.465 3.45306 1.01449 0
M  V30 2008 C 187.073 4.47899 -0.0951738 0
M  V30 2009 C 188.817 3.91361 1.6443 0
M  V30 2010 C 186.724 5.90083 0.394491 0
M  V30 2011 H 185.654 0.725308 0.206019 0
M  V30 2012 H 188.305 1.82446 -0.196419 0
M  V30 2013 H 186.687 3.52385 1.80667 0
M  V30 2014 H 187.861 4.52486 -0.871374 0
M  V30 2015 H 186.176 4.11583 -0.631505 0
M  V30 2016 H 188.773 4.95004 2.02176 0
M  V30 2017 H 189.116 3.3122 2.52189 0
M  V30 2018 H 189.649 3.87073 0.917559 0
M  V30 2019 H 186.388 6.53974 -0.447004 0
M  V30 2020 H 185.908 5.88921 1.13722 0
M  V30 2021 H 187.587 6.41307 0.856399 0
M  V30 2022 N 187.719 -0.156864 1.56817 0
M  V30 2023 C 188.949 -0.885031 1.86684 0
M  V30 2024 C 189.357 -1.75696 0.701954 0
M  V30 2025 O 188.7 -1.80569 -0.337732 0
M  V30 2026 C 188.762 -1.80092 3.11138 0
M  V30 2027 C 188.426 -1.10714 4.43386 0
M  V30 2028 C 189.423 -0.465714 5.1781 0
M  V30 2029 C 187.108 -1.09959 4.90117 0
M  V30 2030 C 189.102 0.174002 6.37162 0
M  V30 2031 C 186.789 -0.456055 6.09396 0
M  V30 2032 C 187.787 0.179622 6.82764 0
M  V30 2033 O 187.475 0.812975 7.99779 0
M  V30 2034 H 187.207 -0.261813 0.623242 0
M  V30 2035 H 189.761 -0.157383 2.04796 0
M  V30 2036 H 187.991 -2.56926 2.89009 0
M  V30 2037 H 189.68 -2.40018 3.27332 0
M  V30 2038 H 190.446 -0.463427 4.82781 0
M  V30 2039 H 186.325 -1.58378 4.3294 0
M  V30 2040 H 189.869 0.670765 6.94368 0
M  V30 2041 H 185.766 -0.455975 6.43888 0
M  V30 2042 H 186.534 0.71366 8.15383 0
M  V30 2043 N 189.197 -1.51736 -0.425897 0
M  V30 2044 C 190.425 -1.68794 -1.1965 0
M  V30 2045 C 190.84 -0.390164 -1.84725 0
M  V30 2046 O 190.197 0.632376 -1.71194 0
M  V30 2047 C 190.248 -2.81174 -2.27208 0
M  V30 2048 O 189.969 -4.05925 -1.64793 0
M  V30 2049 C 191.47 -3.09599 -3.17275 0
M  V30 2050 H 188.69 -0.566128 -0.360194 0
M  V30 2051 H 191.234 -1.98211 -0.503249 0
M  V30 2052 H 189.389 -2.54324 -2.9223 0
M  V30 2053 H 189.803 -4.68423 -2.35967 0
M  V30 2054 H 191.277 -3.91786 -3.88854 0
M  V30 2055 H 191.754 -2.22468 -3.78688 0
M  V30 2056 H 192.36 -3.38151 -2.57941 0
M  V30 2057 N 190.675 0.682077 -1.42076 0
M  V30 2058 C 191.9 1.47558 -1.45744 0
M  V30 2059 C 192.325 1.87977 -0.0680981 0
M  V30 2060 O 191.683 1.55522 0.9318 0
M  V30 2061 C 191.731 2.70575 -2.38373 0
M  V30 2062 O 190.835 3.68573 -1.85007 0
M  V30 2063 H 190.176 0.443585 -0.494093 0
M  V30 2064 H 192.706 0.837238 -1.86686 0
M  V30 2065 H 192.716 3.18729 -2.54707 0
M  V30 2066 H 191.391 2.40495 -3.39315 0
M  V30 2067 H 189.968 3.2757 -1.78192 0
M  V30 2068 N 192.153 1.28127 0.917671 0
M  V30 2069 C 193.1 1.11717 2.0196 0
M  V30 2070 C 194.07 0.0153929 1.66093 0
M  V30 2071 O 195.255 0.179596 1.89953 0
M  V30 2072 C 192.395 0.780927 3.36148 0
M  V30 2073 C 191.508 1.96135 3.84909 0
M  V30 2074 C 190.643 1.56609 5.0759 0
M  V30 2075 C 189.682 2.71339 5.48673 0
M  V30 2076 N 188.819 2.32332 6.62545 0
M  V30 2077 H 193.659 2.06003 2.15329 0
M  V30 2078 H 191.196 1.02535 1.05475 0
M  V30 2079 H 193.154 0.56675 4.13333 0
M  V30 2080 H 191.784 -0.124998 3.22558 0
M  V30 2081 H 190.836 2.28777 3.03916 0
M  V30 2082 H 192.148 2.82165 4.1132 0
M  V30 2083 H 191.302 1.31374 5.92305 0
M  V30 2084 H 190.041 0.677014 4.82978 0
M  V30 2085 H 189.046 2.97276 4.62501 0
M  V30 2086 H 190.271 3.60882 5.75274 0
M  V30 2087 H 188.217 1.45889 6.39572 0
M  V30 2088 H 188.134 3.11899 6.88662 0
M  V30 2089 H 189.402 2.10371 7.50576 0
M  V30 2090 N 193.631 -1.12557 1.10312 0
M  V30 2091 C 194.908 -1.80363 0.756878 0
M  V30 2092 C 195.288 -1.97067 -0.756824 0
M  V30 2093 O 194.636 -1.54601 -1.68259 0
M  V30 2094 C 194.846 -3.14812 1.50647 0
M  V30 2095 C 196.194 -3.90029 1.67817 0
M  V30 2096 O 197.218 -3.24464 1.46974 0
M  V30 2097 O 196.077 -5.07652 2.02365 0
M  V30 2098 H 193.171 -0.780667 0.272926 0
M  V30 2099 H 195.717 -1.19404 1.20586 0
M  V30 2100 H 194.489 -2.97936 2.53672 0
M  V30 2101 H 194.112 -3.83478 1.05026 0
M  V30 2102 N 195.109 -0.891671 -1.2995 0
M  V30 2103 C 196.525 -0.58662 -1.48428 0
M  V30 2104 C 196.725 0.873951 -1.81561 0
M  V30 2105 O 195.781 1.65471 -1.90724 0
M  V30 2106 C 197.094 -1.50553 -2.60296 0
M  V30 2107 C 198.642 -1.50988 -2.74175 0
M  V30 2108 C 199.117 -2.41488 -3.89163 0
M  V30 2109 N 200.608 -2.39489 -3.96483 0
M  V30 2110 C 201.343 -3.06223 -4.84784 0
M  V30 2111 N 200.839 -3.82206 -5.77833 0
M  V30 2112 N 202.632 -2.95421 -4.78208 0
M  V30 2113 H 194.783 -1.83644 -1.06718 0
M  V30 2114 H 197.046 -0.786455 -0.529332 0
M  V30 2115 H 196.752 -2.54581 -2.42654 0
M  V30 2116 H 196.626 -1.22008 -3.56923 0
M  V30 2117 H 199.013 -0.47708 -2.91218 0
M  V30 2118 H 199.094 -1.83567 -1.78148 0
M  V30 2119 H 198.738 -3.44857 -3.72876 0
M  V30 2120 H 198.668 -2.06222 -4.84541 0
M  V30 2121 H 201.159 -1.84278 -3.29924 0
M  V30 2122 H 201.472 -4.302 -6.41988 0
M  V30 2123 H 199.817 -3.86313 -5.77743 0
M  V30 2124 H 203.008 -2.35581 -4.04499 0
M  V30 2125 H 203.181 -3.47704 -5.46814 0
M  V30 2126 N 196.587 1.43421 -0.653314 0
M  V30 2127 C 197.833 2.02111 -0.166992 0
M  V30 2128 C 198.166 1.51423 1.21592 0
M  V30 2129 O 197.441 0.707389 1.8118 0
M  V30 2130 C 197.724 3.5966 -0.177948 0
M  V30 2131 C 197.577 4.20579 -1.59478 0
M  V30 2132 C 198.896 4.37413 0.4856 0
M  V30 2133 H 196.015 0.734374 -0.0621557 0
M  V30 2134 H 198.657 1.70717 -0.834016 0
M  V30 2135 H 196.807 3.86537 0.390032 0
M  V30 2136 H 198.479 4.04732 -2.21336 0
M  V30 2137 H 196.722 3.77226 -2.14204 0
M  V30 2138 H 197.393 5.29665 -1.5543 0
M  V30 2139 H 199.869 4.161 0.00234528 0
M  V30 2140 H 198.745 5.47075 0.447207 0
M  V30 2141 H 199.006 4.13672 1.55974 0
M  V30 2142 N 198.065 0.39524 1.52563 0
M  V30 2143 C 199.313 -0.184678 2.01254 0
M  V30 2144 C 199.634 -1.46822 1.28329 0
M  V30 2145 O 198.904 -1.91666 0.405094 0
M  V30 2146 H 197.484 -0.0712355 0.743596 0
M  V30 2147 H 200.146 0.528293 1.87603 0
M  V30 2148 H 199.242 -0.390681 3.09645 0
M  V30 2149 N 199.544 -1.57102 0.125237 0
M  V30 2150 C 200.491 -2.15641 -0.822655 0
M  V30 2151 C 201.461 -1.08313 -1.25927 0
M  V30 2152 O 202.646 -1.36251 -1.33567 0
M  V30 2153 C 199.786 -2.76504 -2.06494 0
M  V30 2154 C 198.899 -3.98158 -1.67612 0
M  V30 2155 C 198.034 -4.47088 -2.86854 0
M  V30 2156 C 197.073 -5.6126 -2.44242 0
M  V30 2157 N 196.21 -6.04905 -3.56419 0
M  V30 2158 H 201.05 -2.96313 -0.316625 0
M  V30 2159 H 198.587 -1.46388 -0.144588 0
M  V30 2160 H 200.545 -3.09925 -2.79289 0
M  V30 2161 H 199.175 -1.98512 -2.54545 0
M  V30 2162 H 198.227 -3.70858 -0.846661 0
M  V30 2163 H 199.539 -4.80934 -1.32301 0
M  V30 2164 H 198.693 -4.82451 -3.67867 0
M  V30 2165 H 197.432 -3.63275 -3.25396 0
M  V30 2166 H 196.437 -5.25495 -1.61663 0
M  V30 2167 H 197.662 -6.46843 -2.0681 0
M  V30 2168 H 195.608 -5.24032 -3.94623 0
M  V30 2169 H 195.525 -6.82552 -3.25051 0
M  V30 2170 H 196.793 -6.44907 -4.37853 0
M  V30 2171 N 201.022 0.148545 -1.56898 0
M  V30 2172 C 201.952 1.18524 -2.01182 0
M  V30 2173 C 202.933 1.4489 -0.891123 0
M  V30 2174 O 204.118 1.55836 -1.15882 0
M  V30 2175 C 201.248 2.51879 -2.39112 0
M  V30 2176 C 200.202 2.40038 -3.54353 0
M  V30 2177 C 199.528 3.78089 -3.78091 0
M  V30 2178 C 200.828 1.88577 -4.87069 0
M  V30 2179 H 202.522 0.817029 -2.88036 0
M  V30 2180 H 200.068 0.391575 -1.38574 0
M  V30 2181 H 202.021 3.24627 -2.68692 0
M  V30 2182 H 200.745 2.90532 -1.49193 0
M  V30 2183 H 199.404 1.69742 -3.24936 0
M  V30 2184 H 199.052 4.14175 -2.85426 0
M  V30 2185 H 198.752 3.71028 -4.55645 0
M  V30 2186 H 200.276 4.52387 -4.10095 0
M  V30 2187 H 201.69 2.51117 -5.15377 0
M  V30 2188 H 200.087 1.9241 -5.68417 0
M  V30 2189 H 201.157 0.84136 -4.77545 0
M  V30 2190 N 202.5 1.5196 0.417844 0
M  V30 2191 C 203.911 1.57851 0.997 0
M  V30 2192 C 204.262 0.413714 1.91789 0
M  V30 2193 O 203.387 -0.467057 2.113 0
M  V30 2194 C 203.982 2.86085 1.81496 0
M  V30 2195 C 202.541 2.94483 2.34428 0
M  V30 2196 C 201.688 2.52707 1.14169 0
M  V30 2197 H 204.639 1.57455 0.198392 0
M  V30 2198 H 204.66 2.70947 2.67148 0
M  V30 2199 H 204.172 3.70842 1.14446 0
M  V30 2200 H 202.273 2.142 3.04875 0
M  V30 2201 H 202.386 3.98546 2.65891 0
M  V30 2202 H 200.75 2.06353 1.49301 0
M  V30 2203 H 201.533 3.39828 0.486999 0
M  V30 2204 N 203.978 -0.674533 1.42435 0
M  V30 2205 C 204.941 -1.76986 1.45632 0
M  V30 2206 C 205.941 -1.5708 0.343871 0
M  V30 2207 O 207.131 -1.63367 0.604709 0
M  V30 2208 C 204.263 -3.15623 1.28822 0
M  V30 2209 H 205.456 -1.75539 2.43158 0
M  V30 2210 H 203.009 -0.884189 1.28887 0
M  V30 2211 H 203.744 -3.22696 0.322193 0
M  V30 2212 H 203.529 -3.31475 2.09444 0
M  V30 2213 H 205.019 -3.95537 1.33942 0
M  V30 2214 N 205.456 -1.28612 -0.910864 0
M  V30 2215 C 206.704 -1.15705 -1.65701 0
M  V30 2216 C 207.025 0.29416 -1.92769 0
M  V30 2217 O 206.295 1.20331 -1.54588 0
M  V30 2218 H 204.875 -0.425216 -0.614167 0
M  V30 2219 H 207.537 -1.61381 -1.0928 0
M  V30 2220 H 206.633 -1.6988 -2.61815 0
M  V30 2221 N 206.934 1.1197 -1.10907 0
M  V30 2222 C 208.181 1.83588 -0.854507 0
M  V30 2223 C 208.509 1.84357 0.6199 0
M  V30 2224 O 207.764 1.28809 1.47332 0
M  V30 2225 C 208.063 3.30749 -1.35425 0
M  V30 2226 C 207.729 3.50146 -2.84093 0
M  V30 2227 C 206.391 3.55148 -3.2469 0
M  V30 2228 C 208.743 3.56857 -3.79872 0
M  V30 2229 C 206.071 3.6441 -4.59806 0
M  V30 2230 C 208.423 3.6765 -5.14797 0
M  V30 2231 C 207.087 3.7091 -5.54961 0
M  V30 2232 H 206.357 0.671795 -0.312686 0
M  V30 2233 H 209.004 1.32091 -1.38652 0
M  V30 2234 H 207.309 3.84703 -0.742361 0
M  V30 2235 H 209.006 3.8464 -1.1337 0
M  V30 2236 H 205.596 3.46919 -2.51685 0
M  V30 2237 H 209.78 3.52258 -3.49611 0
M  V30 2238 H 205.036 3.65208 -4.9034 0
M  V30 2239 H 209.21 3.71786 -5.88853 0
M  V30 2240 H 206.837 3.7784 -6.59652 0
M  V30 2241 N 208.412 0.89855 1.29475 0
M  V30 2242 C 209.689 0.443416 1.90508 0
M  V30 2243 C 210.069 -1.07685 1.81569 0
M  V30 2244 O 209.417 -1.9182 1.24166 0
M  V30 2245 C 209.627 0.956708 3.35631 0
M  V30 2246 C 210.975 0.999728 4.12663 0
M  V30 2247 O 211.999 0.904299 3.4453 0
M  V30 2248 O 210.858 1.14289 5.34416 0
M  V30 2249 H 207.952 0.138025 0.815401 0
M  V30 2250 H 210.498 0.98834 1.37949 0
M  V30 2251 H 209.27 2.00067 3.36287 0
M  V30 2252 H 208.893 0.391728 3.95666 0
M  V30 2253 N 209.89 -1.43072 0.660911 0
M  V30 2254 C 211.12 -2.05769 0.185153 0
M  V30 2255 C 211.528 -1.49668 -1.15742 0
M  V30 2256 O 210.871 -0.625649 -1.72717 0
M  V30 2257 C 210.933 -3.59489 0.0278237 0
M  V30 2258 C 210.597 -4.38212 1.2969 0
M  V30 2259 C 211.594 -4.69772 2.22734 0
M  V30 2260 C 209.279 -4.7809 1.54063 0
M  V30 2261 C 211.273 -5.40129 3.38437 0
M  V30 2262 C 208.96 -5.4819 2.70058 0
M  V30 2263 C 209.958 -5.79132 3.62071 0
M  V30 2264 O 209.646 -6.47798 4.76039 0
M  V30 2265 H 209.378 -0.669873 0.0908086 0
M  V30 2266 H 211.932 -1.84436 0.90402 0
M  V30 2267 H 210.162 -3.79426 -0.746489 0
M  V30 2268 H 211.851 -4.03862 -0.406275 0
M  V30 2269 H 212.617 -4.39476 2.05149 0
M  V30 2270 H 208.496 -4.53408 0.833215 0
M  V30 2271 H 212.04 -5.64198 4.10277 0
M  V30 2272 H 207.937 -5.77902 2.87574 0
M  V30 2273 H 208.705 -6.66283 4.75404 0
M  V30 2274 N 211.368 -0.403325 -1.52352 0
M  V30 2275 C 212.298 0.416205 -2.29761 0
M  V30 2276 C 213.279 1.05123 -1.33728 0
M  V30 2277 O 214.464 1.06134 -1.62632 0
M  V30 2278 C 211.594 1.53624 -3.11475 0
M  V30 2279 C 210.548 1.02653 -4.15507 0
M  V30 2280 C 209.874 2.23971 -4.85532 0
M  V30 2281 C 211.174 0.08463 -5.22231 0
M  V30 2282 H 212.868 -0.229701 -2.98518 0
M  V30 2283 H 210.414 -0.111913 -1.43564 0
M  V30 2284 H 212.367 2.1165 -3.64393 0
M  V30 2285 H 211.091 2.20994 -2.40477 0
M  V30 2286 H 209.75 0.46871 -3.63591 0
M  V30 2287 H 209.398 2.89883 -4.11068 0
M  V30 2288 H 209.098 1.90521 -5.55856 0
M  V30 2289 H 210.622 2.82614 -5.41259 0
M  V30 2290 H 212.036 0.573509 -5.70424 0
M  V30 2291 H 210.433 -0.160783 -5.99885 0
M  V30 2292 H 211.503 -0.86237 -4.7717 0
M  V30 2293 N 212.846 1.57033 -0.133567 0
M  V30 2294 C 214.123 1.87256 0.56522 0
M  V30 2295 C 214.503 1.03726 1.83859 0
M  V30 2296 O 213.851 0.120247 2.28183 0
M  V30 2297 C 214.061 3.3865 0.843636 0
M  V30 2298 C 215.409 4.07574 1.19032 0
M  V30 2299 O 216.433 3.43752 0.933429 0
M  V30 2300 O 215.292 5.20259 1.67312 0
M  V30 2301 H 212.386 0.775678 0.286796 0
M  V30 2302 H 214.932 1.68855 -0.169168 0
M  V30 2303 H 213.704 3.91257 -0.0581149 0
M  V30 2304 H 213.327 3.62532 1.63268 0
M  V30 2305 N 214.325 -0.140222 1.56975 0
M  V30 2306 C 215.255 -1.17456 2.01808 0
M  V30 2307 C 216.236 -1.44415 0.898794 0
M  V30 2308 O 217.421 -1.5522 1.16707 0
M  V30 2309 C 214.551 -2.50607 2.40444 0
M  V30 2310 C 213.505 -2.38155 3.55621 0
M  V30 2311 C 212.831 -3.76078 3.80091 0
M  V30 2312 C 214.131 -1.85991 4.88062 0
M  V30 2313 H 215.825 -0.801743 2.88466 0
M  V30 2314 H 213.371 -0.38422 1.38779 0
M  V30 2315 H 215.324 -3.23197 2.7041 0
M  V30 2316 H 214.048 -2.89737 1.50732 0
M  V30 2317 H 212.707 -1.68016 3.25832 0
M  V30 2318 H 212.355 -4.12656 2.87618 0
M  V30 2319 H 212.055 -3.68606 4.57606 0
M  V30 2320 H 213.579 -4.50206 4.12488 0
M  V30 2321 H 214.993 -2.4838 5.16701 0
M  V30 2322 H 213.39 -1.89393 5.6943 0
M  V30 2323 H 214.46 -0.816023 4.77984 0
M  V30 2324 N 215.803 -1.52179 -0.40978 0
M  V30 2325 C 216.766 -1.74853 -1.48186 0
M  V30 2326 C 217.766 -0.618417 -1.48433 0
M  V30 2327 O 218.956 -0.886286 -1.49969 0
M  V30 2328 C 216.088 -1.8303 -2.87598 0
M  V30 2329 H 217.281 -2.70559 -1.29374 0
M  V30 2330 H 214.834 -1.42586 -0.640233 0
M  V30 2331 H 215.569 -0.89236 -3.11781 0
M  V30 2332 H 215.354 -2.65187 -2.88822 0
M  V30 2333 H 216.844 -2.02316 -3.65319 0
M  V30 2334 N 217.281 0.66697 -1.42791 0
M  V30 2335 C 218.228 1.7803 -1.4688 0
M  V30 2336 C 219.198 1.6299 -0.319919 0
M  V30 2337 O 220.383 1.83432 -0.525118 0
M  V30 2338 C 217.523 3.1611 -1.38451 0
M  V30 2339 C 216.636 3.42381 -2.63437 0
M  V30 2340 C 215.771 4.70232 -2.47094 0
M  V30 2341 C 214.81 4.89564 -3.67415 0
M  V30 2342 N 213.947 6.08661 -3.49966 0
M  V30 2343 H 218.787 1.7387 -2.42019 0
M  V30 2344 H 216.324 0.84868 -1.20149 0
M  V30 2345 H 218.282 3.95914 -1.31561 0
M  V30 2346 H 216.912 3.19374 -0.469033 0
M  V30 2347 H 215.964 2.56774 -2.80662 0
M  V30 2348 H 217.276 3.52557 -3.52853 0
M  V30 2349 H 216.43 5.5814 -2.37834 0
M  V30 2350 H 215.169 4.62353 -1.5518 0
M  V30 2351 H 214.174 4.00096 -3.77099 0
M  V30 2352 H 215.399 4.99282 -4.6032 0
M  V30 2353 H 213.345 6.0194 -2.60776 0
M  V30 2354 H 213.262 6.19733 -4.32975 0
M  V30 2355 H 214.53 6.99226 -3.44532 0
M  V30 2356 N 218.759 1.29093 0.90403 0
M  V30 2357 C 220.17 1.15186 1.46932 0
M  V30 2358 C 220.521 -0.254587 1.94541 0
M  V30 2359 O 219.646 -1.14972 1.83332 0
M  V30 2360 C 220.241 2.08492 2.67051 0
M  V30 2361 C 218.8 1.98621 3.19729 0
M  V30 2362 C 217.947 1.9967 1.92425 0
M  V30 2363 H 220.898 1.41641 0.715789 0
M  V30 2364 H 220.919 1.65461 3.42641 0
M  V30 2365 H 220.431 3.10847 2.3237 0
M  V30 2366 H 218.532 0.993389 3.59114 0
M  V30 2367 H 218.645 2.86068 3.8432 0
M  V30 2368 H 217.009 1.44208 2.09943 0
M  V30 2369 H 217.792 3.03721 1.60026 0
M  V30 2370 N 220.237 -1.11381 1.11499 0
M  V30 2371 C 221.147 -2.21019 0.786628 0
M  V30 2372 C 222.163 -1.72597 -0.220507 0
M  V30 2373 O 223.339 -2.01321 -0.0565251 0
M  V30 2374 C 220.404 -3.459 0.235333 0
M  V30 2375 C 219.465 -4.09107 1.30115 0
M  V30 2376 C 218.698 -5.28027 0.776068 0
M  V30 2377 O 218.921 -5.6904 -0.393661 0
M  V30 2378 O 217.855 -5.81835 1.54114 0
M  V30 2379 H 221.681 -2.51521 1.70209 0
M  V30 2380 H 219.266 -1.19928 0.890928 0
M  V30 2381 H 221.148 -4.21346 -0.067715 0
M  V30 2382 H 219.823 -3.17049 -0.652828 0
M  V30 2383 H 218.73 -3.35391 1.65722 0
M  V30 2384 H 220.063 -4.42139 2.16273 0
M  V30 2385 N 221.715 -0.905404 -1.28997 0
M  V30 2386 C 222.945 -0.549049 -1.99171 0
M  V30 2387 C 223.353 0.87203 -1.67906 0
M  V30 2388 O 222.696 1.58796 -0.923561 0
M  V30 2389 C 222.758 -0.668306 -3.53234 0
M  V30 2390 C 222.422 -2.0574 -4.08069 0
M  V30 2391 C 223.419 -3.0292 -4.22534 0
M  V30 2392 C 221.104 -2.36833 -4.42962 0
M  V30 2393 C 223.098 -4.29314 -4.71135 0
M  V30 2394 C 220.785 -3.63467 -4.91258 0
M  V30 2395 C 221.783 -4.59522 -5.053 0
M  V30 2396 O 221.471 -5.83907 -5.52546 0
M  V30 2397 H 221.203 -0.208784 -0.64295 0
M  V30 2398 H 223.757 -1.21836 -1.65363 0
M  V30 2399 H 221.987 0.0580547 -3.86656 0
M  V30 2400 H 223.676 -0.320273 -4.04634 0
M  V30 2401 H 224.442 -2.80216 -3.95859 0
M  V30 2402 H 220.321 -1.62824 -4.31288 0
M  V30 2403 H 223.865 -5.04293 -4.8201 0
M  V30 2404 H 219.762 -3.86 -5.17372 0
M  V30 2405 H 220.53 -5.86578 -5.70849 0
M  V30 2406 N 223.193 1.4272 -0.668489 0
M  V30 2407 C 224.14 2.30796 0.0137489 0
M  V30 2408 C 225.11 1.4561 0.799177 0
M  V30 2409 O 226.295 1.74453 0.772702 0
M  V30 2410 C 223.435 3.31377 0.963507 0
M  V30 2411 C 222.548 4.31655 0.172569 0
M  V30 2412 C 221.683 5.19312 1.1175 0
M  V30 2413 C 220.722 6.11274 0.317886 0
M  V30 2414 N 219.859 6.91504 1.2152 0
M  V30 2415 H 224.699 2.88585 -0.743161 0
M  V30 2416 H 222.236 1.42154 -0.378226 0
M  V30 2417 H 224.194 3.88214 1.52792 0
M  V30 2418 H 222.824 2.75202 1.68712 0
M  V30 2419 H 221.876 3.76988 -0.508374 0
M  V30 2420 H 223.188 4.96779 -0.448527 0
M  V30 2421 H 222.342 5.80851 1.75206 0
M  V30 2422 H 221.081 4.5435 1.77249 0
M  V30 2423 H 220.086 5.48809 -0.329918 0
M  V30 2424 H 221.311 6.78283 -0.332917 0
M  V30 2425 H 219.257 6.29176 1.85671 0
M  V30 2426 H 219.174 7.53209 0.649036 0
M  V30 2427 H 220.442 7.57535 1.83742 0
M  V30 2428 N 224.671 0.411399 1.52136 0
M  V30 2429 C 225.919 -0.163322 2.01439 0
M  V30 2430 C 226.24 -1.45453 1.29879 0
M  V30 2431 O 225.51 -1.91225 0.4254 0
M  V30 2432 H 224.09 -0.0633447 0.744309 0
M  V30 2433 H 226.752 0.548161 1.87033 0
M  V30 2434 H 225.848 -0.357817 3.10042 0
M  V30 2435 N 226.149 -1.5696 0.141893 0
M  V30 2436 C 227.096 -2.16501 -0.799737 0
M  V30 2437 C 228.066 -1.09643 -1.24771 0
M  V30 2438 O 229.251 -1.3766 -1.32115 0
M  V30 2439 C 226.391 -2.78679 -2.03549 0
M  V30 2440 C 225.504 -3.99914 -1.6338 0
M  V30 2441 C 224.639 -4.50106 -2.82096 0
M  V30 2442 C 223.678 -5.63819 -2.38275 0
M  V30 2443 N 222.815 -6.08651 -3.49983 0
M  V30 2444 H 227.655 -2.96632 -0.285179 0
M  V30 2445 H 225.192 -1.46533 -0.129053 0
M  V30 2446 H 227.15 -3.1287 -2.75986 0
M  V30 2447 H 225.78 -2.012 -2.52425 0
M  V30 2448 H 224.832 -3.71735 -0.807279 0
M  V30 2449 H 226.144 -4.82311 -1.27192 0
M  V30 2450 H 225.298 -4.86325 -3.62729 0
M  V30 2451 H 224.037 -3.66706 -3.21525 0
M  V30 2452 H 223.042 -5.2718 -1.56081 0
M  V30 2453 H 224.267 -6.49 -1.99938 0
M  V30 2454 H 222.213 -5.28188 -3.89042 0
M  V30 2455 H 222.13 -6.85961 -3.17794 0
M  V30 2456 H 223.398 -6.49515 -4.30988 0
M  V30 2457 N 227.627 0.131896 -1.57047 0
M  V30 2458 C 228.873 0.843179 -1.84441 0
M  V30 2459 C 229.206 1.80129 -0.725749 0
M  V30 2460 O 228.481 1.92624 0.269469 0
M  V30 2461 C 228.764 1.60442 -3.22382 0
M  V30 2462 C 228.617 0.666782 -4.4483 0
M  V30 2463 C 229.936 2.56354 -3.5773 0
M  V30 2464 H 227.055 0.305081 -0.670891 0
M  V30 2465 H 229.697 0.107839 -1.89694 0
M  V30 2466 H 227.847 2.23128 -3.18035 0
M  V30 2467 H 229.519 0.0497646 -4.61273 0
M  V30 2468 H 227.762 -0.022609 -4.33794 0
M  V30 2469 H 228.433 1.23579 -5.37989 0
M  V30 2470 H 230.909 2.0378 -3.62785 0
M  V30 2471 H 229.785 3.06657 -4.5525 0
M  V30 2472 H 230.046 3.38419 -2.84473 0
M  V30 2473 N 229.106 1.52395 0.401703 0
M  V30 2474 C 230.346 1.68498 1.15705 0
M  V30 2475 C 230.71 0.409748 1.87577 0
M  V30 2476 O 231.911 0.446983 2.65058 0
M  V30 2477 C 230.182 2.87789 2.11924 0
M  V30 2478 S 231.741 3.24415 2.95466 0
M  V30 2479 H 228.559 0.593267 0.391862 0
M  V30 2480 H 231.161 1.90408 0.443282 0
M  V30 2481 H 229.865 3.7884 1.57824 0
M  V30 2482 H 229.396 2.68175 2.87829 0
M  V30 2483 H 231.411 2.73614 4.13944 0
M  V30 2484 N 230.584 -0.659388 1.43143 0
M  V30 2485 C 231.83 -1.42145 1.44647 0
M  V30 2486 C 232.163 -1.9408 0.0681907 0
M  V30 2487 O 231.438 -1.71899 -0.910007 0
M  V30 2488 C 231.721 -2.60735 2.48373 0
M  V30 2489 C 231.574 -2.14332 3.95451 0
M  V30 2490 C 232.893 -3.62951 2.48906 0
M  V30 2491 H 230.012 -0.51552 0.526696 0
M  V30 2492 H 232.654 -0.748069 1.74654 0
M  V30 2493 H 230.804 -3.18184 2.22916 0
M  V30 2494 H 232.476 -1.61932 4.31944 0
M  V30 2495 H 230.719 -1.4576 4.08578 0
M  V30 2496 H 231.39 -2.99583 4.63631 0
M  V30 2497 H 233.866 -3.1525 2.71582 0
M  V30 2498 H 232.742 -4.43487 3.23435 0
M  V30 2499 H 233.003 -4.15126 1.52061 0
M  V30 2500 N 232.062 -1.29571 -0.897171 0
M  V30 2501 C 233.478 -1.07637 -1.17841 0
M  V30 2502 C 233.678 0.170713 -2.00776 0
M  V30 2503 O 232.734 0.867768 -2.3712 0
M  V30 2504 C 234.047 -2.3332 -1.8969 0
M  V30 2505 C 235.595 -2.38664 -2.02505 0
M  V30 2506 C 236.07 -3.64157 -2.77765 0
M  V30 2507 N 237.561 -3.64894 -2.85318 0
M  V30 2508 C 238.296 -4.58679 -3.44094 0
M  V30 2509 N 237.792 -5.62799 -4.04017 0
M  V30 2510 N 239.585 -4.46245 -3.41793 0
M  V30 2511 H 231.736 -2.09598 -0.343883 0
M  V30 2512 H 233.999 -0.923333 -0.214848 0
M  V30 2513 H 233.705 -3.24262 -1.36187 0
M  V30 2514 H 233.579 -2.41025 -2.9015 0
M  V30 2515 H 235.966 -1.48208 -2.55183 0
M  V30 2516 H 236.047 -2.34943 -1.01171 0
M  V30 2517 H 235.691 -4.54965 -2.25763 0
M  V30 2518 H 235.621 -3.65137 -3.7945 0
M  V30 2519 H 238.112 -2.89613 -2.42761 0
M  V30 2520 H 238.425 -6.3048 -4.46895 0
M  V30 2521 H 236.77 -5.66605 -4.02472 0
M  V30 2522 H 239.961 -3.64094 -2.94199 0
M  V30 2523 H 240.134 -5.19518 -3.87304 0
M  V30 2524 N 233.54 1.10788 -1.12088 0
M  V30 2525 C 234.765 1.87002 -0.896949 0
M  V30 2526 C 235.19 1.79933 0.548261 0
M  V30 2527 O 234.548 1.16662 1.38779 0
M  V30 2528 C 234.596 3.3349 -1.37174 0
M  V30 2529 O 233.7 4.08745 -0.547831 0
M  V30 2530 H 233.041 0.580397 -0.322545 0
M  V30 2531 H 235.571 1.39996 -1.49206 0
M  V30 2532 H 235.581 3.84339 -1.36922 0
M  V30 2533 H 234.256 3.37951 -2.42408 0
M  V30 2534 H 232.833 3.6776 -0.617034 0
M  V30 2535 N 235.018 0.912232 1.28515 0
M  V30 2536 C 236.266 0.543523 1.94654 0
M  V30 2537 C 236.587 -0.9155 1.72173 0
M  V30 2538 O 235.857 -1.64708 1.06058 0
M  V30 2539 H 234.437 0.198017 0.720277 0
M  V30 2540 H 237.099 1.16126 1.56527 0
M  V30 2541 H 236.195 0.736684 3.03281 0
M  V30 2542 N 236.496 -1.42363 0.676048 0
M  V30 2543 C 237.443 -2.308 -0.00150904 0
M  V30 2544 C 238.413 -1.46032 -0.791444 0
M  V30 2545 O 239.598 -1.74861 -0.76344 0
M  V30 2546 C 236.738 -3.31883 -0.945919 0
M  V30 2547 C 235.851 -4.31741 -0.149675 0
M  V30 2548 C 234.986 -5.19898 -1.08995 0
M  V30 2549 C 234.025 -6.11434 -0.285465 0
M  V30 2550 N 233.162 -6.92138 -1.17851 0
M  V30 2551 H 238.002 -2.88187 0.758455 0
M  V30 2552 H 235.539 -1.41952 0.38576 0
M  V30 2553 H 237.497 -3.89019 -1.50731 0
M  V30 2554 H 236.127 -2.76093 -1.6725 0
M  V30 2555 H 235.179 -3.76713 0.528359 0
M  V30 2556 H 236.491 -4.96534 0.474866 0
M  V30 2557 H 235.645 -5.81772 -1.72123 0
M  V30 2558 H 234.384 -4.55284 -1.74837 0
M  V30 2559 H 233.389 -5.48627 0.359018 0
M  V30 2560 H 234.614 -6.78097 0.368883 0
M  V30 2561 H 232.56 -6.30152 -1.82332 0
M  V30 2562 H 232.477 -7.53542 -0.609082 0
M  V30 2563 H 233.745 -7.58499 -1.79722 0
M  V30 2564 N 237.974 -0.419461 -1.51915 0
M  V30 2565 C 238.922 0.415502 -2.28859 0
M  V30 2566 C 239.916 1.03674 -1.3397 0
M  V30 2567 O 241.122 0.973757 -1.51387 0
M  V30 2568 H 237.497 0.152786 -0.736315 0
M  V30 2569 H 239.468 -0.254531 -2.97312 0
M  V30 2570 C 238.217 1.51425 -3.12995 0
M  V30 2571 H 237.54 1.04556 -3.85886 0
M  V30 2572 H 238.98 2.07208 -3.6992 0
M  V30 2573 C 237.439 2.48745 -2.27217 0
M  V30 2574 O 237.969 3.52871 -1.9195 0
M  V30 2575 N 236.175 2.19202 -1.90785 0
M  V30 2576 H 235.722 1.34556 -2.19664 0
M  V30 2577 H 235.68 2.84561 -1.33687 0
M  V30 2578 N 239.452 1.56882 -0.150215 0
M  V30 2579 C 240.677 2.01027 0.510184 0
M  V30 2580 C 241.102 1.02966 1.57415 0
M  V30 2581 O 240.46 0.00590158 1.81299 0
M  V30 2582 C 240.508 3.43899 1.08472 0
M  V30 2583 O 239.612 3.4885 2.19948 0
M  V30 2584 H 238.953 0.652233 0.124451 0
M  V30 2585 H 241.483 2.03093 -0.247894 0
M  V30 2586 H 241.493 3.82766 1.41259 0
M  V30 2587 H 240.168 4.14776 0.305582 0
M  V30 2588 H 238.745 3.21827 1.88366 0
M  V30 2589 N 240.93 -0.123565 1.57115 0
M  V30 2590 C 242.16 -0.845233 1.88519 0
M  V30 2591 C 242.568 -1.74168 0.739064 0
M  V30 2592 O 241.911 -1.81244 -0.299355 0
M  V30 2593 C 241.973 -1.73452 3.14888 0
M  V30 2594 C 241.637 -1.01285 4.45635 0
M  V30 2595 C 242.634 -0.355774 5.18681 0
M  V30 2596 C 240.319 -0.99538 4.92339 0
M  V30 2597 C 242.313 0.309114 6.3665 0
M  V30 2598 C 240 -0.32669 6.10226 0
M  V30 2599 C 240.998 0.324406 6.82229 0
M  V30 2600 O 240.686 0.982437 7.97874 0
M  V30 2601 H 240.418 -0.248534 0.628655 0
M  V30 2602 H 242.972 -0.113907 2.05084 0
M  V30 2603 H 241.202 -2.50737 2.94394 0
M  V30 2604 H 242.891 -2.33021 3.32349 0
M  V30 2605 H 243.657 -0.360918 4.83655 0
M  V30 2606 H 239.536 -1.49159 4.36202 0
M  V30 2607 H 243.08 0.8179 6.92789 0
M  V30 2608 H 238.977 -0.319294 6.4471 0
M  V30 2609 H 239.745 0.886454 8.13686 0
M  V30 2610 N 242.408 -1.52605 -0.393616 0
M  V30 2611 C 243.356 -1.77688 -1.50099 0
M  V30 2612 C 244.35 -0.644615 -1.56656 0
M  V30 2613 O 245.556 -0.826997 -1.59877 0
M  V30 2614 H 241.931 -0.562159 -0.499481 0
M  V30 2615 H 243.902 -2.7043 -1.26135 0
M  V30 2616 C 242.651 -1.95858 -2.87289 0
M  V30 2617 H 241.974 -2.8241 -2.82992 0
M  V30 2618 H 243.414 -2.174 -3.64024 0
M  V30 2619 C 241.873 -0.729848 -3.28899 0
M  V30 2620 O 242.403 0.0949217 -4.01588 0
M  V30 2621 N 240.609 -0.561283 -2.85128 0
M  V30 2622 H 240.156 -1.23357 -2.26143 0
M  V30 2623 H 240.114 0.2595 -3.13327 0
M  V30 2624 N 243.887 0.651787 -1.4349 0
M  V30 2625 C 245.133 1.41376 -1.45398 0
M  V30 2626 C 245.466 1.94041 -0.0784823 0
M  V30 2627 O 244.741 1.72379 0.900878 0
M  V30 2628 C 245.024 2.59414 -2.49752 0
M  V30 2629 C 244.877 2.12232 -3.96582 0
M  V30 2630 C 246.196 3.61626 -2.50827 0
M  V30 2631 H 243.315 0.512719 -0.529422 0
M  V30 2632 H 245.957 0.738796 -1.75048 0
M  V30 2633 H 244.107 3.16997 -2.246 0
M  V30 2634 H 245.779 1.59639 -4.32797 0
M  V30 2635 H 244.022 1.43592 -4.09346 0
M  V30 2636 H 244.693 2.9712 -4.65214 0
M  V30 2637 H 247.169 3.13805 -2.7325 0
M  V30 2638 H 246.045 4.41766 -3.25783 0
M  V30 2639 H 246.306 4.14314 -1.5426 0
M  V30 2640 N 245.365 1.30045 0.890287 0
M  V30 2641 C 246.59 1.21598 1.68014 0
M  V30 2642 C 247.015 -0.218678 1.86825 0
M  V30 2643 O 246.373 -1.15756 1.39536 0
M  V30 2644 C 246.421 1.94434 3.03691 0
M  V30 2645 O 245.525 1.2678 3.92429 0
M  V30 2646 H 244.866 0.420856 0.513592 0
M  V30 2647 H 247.396 1.71775 1.11151 0
M  V30 2648 H 247.406 2.03251 3.5377 0
M  V30 2649 H 246.081 2.98777 2.89318 0
M  V30 2650 H 244.658 1.26282 3.50866 0
M  V30 2651 N 246.843 -1.10192 1.12674 0
M  V30 2652 C 247.773 -2.18652 0.819362 0
M  V30 2653 C 248.754 -1.68698 -0.217915 0
M  V30 2654 O 249.939 -1.94041 -0.0785581 0
M  V30 2655 C 247.069 -3.46202 0.27594 0
M  V30 2656 C 246.023 -4.09444 1.24656 0
M  V30 2657 C 245.349 -5.31725 0.563258 0
M  V30 2658 C 246.649 -4.52863 2.60217 0
M  V30 2659 H 248.343 -2.44622 1.72628 0
M  V30 2660 H 245.889 -1.17571 0.831451 0
M  V30 2661 H 247.842 -4.21372 0.0486149 0
M  V30 2662 H 246.566 -3.1973 -0.666331 0
M  V30 2663 H 245.225 -3.36284 1.45974 0
M  V30 2664 H 244.873 -5.0153 -0.384235 0
M  V30 2665 H 244.573 -5.74991 1.21075 0
M  V30 2666 H 246.097 -6.09624 0.34503 0
M  V30 2667 H 247.511 -5.19294 2.42913 0
M  V30 2668 H 245.908 -5.06986 3.21068 0
M  V30 2669 H 246.978 -3.65656 3.18471 0
M  V30 2670 N 248.321 -0.919034 -1.28029 0
M  V30 2671 C 249.568 -0.554934 -1.94748 0
M  V30 2672 C 249.896 0.90231 -1.72304 0
M  V30 2673 O 249.151 1.65767 -1.04018 0
M  V30 2674 C 249.45 -0.816855 -3.4794 0
M  V30 2675 C 249.116 -2.25448 -3.90492 0
M  V30 2676 C 247.778 -2.64752 -4.01821 0
M  V30 2677 C 250.13 -3.18977 -4.12193 0
M  V30 2678 C 247.458 -3.96727 -4.32232 0
M  V30 2679 C 249.81 -4.50523 -4.44086 0
M  V30 2680 C 248.474 -4.89673 -4.53626 0
M  V30 2681 H 247.744 -0.203065 -0.712633 0
M  V30 2682 H 250.391 -1.16136 -1.52265 0
M  V30 2683 H 248.696 -0.127677 -3.91592 0
M  V30 2684 H 250.393 -0.514238 -3.97689 0
M  V30 2685 H 246.983 -1.93952 -3.82205 0
M  V30 2686 H 251.167 -2.89817 -4.02889 0
M  V30 2687 H 246.423 -4.26754 -4.37825 0
M  V30 2688 H 250.597 -5.23005 -4.59825 0
M  V30 2689 H 248.224 -5.91969 -4.76946 0
M  V30 2690 N 249.799 1.42003 -0.683588 0
M  V30 2691 C 250.762 2.29191 -0.0198243 0
M  V30 2692 C 251.762 1.43773 0.72013 0
M  V30 2693 O 252.952 1.65061 0.556815 0
M  V30 2694 C 250.084 3.26435 0.982487 0
M  V30 2695 H 251.277 2.8938 -0.787345 0
M  V30 2696 H 248.83 1.49789 -0.446418 0
M  V30 2697 H 249.565 2.71203 1.77819 0
M  V30 2698 H 249.35 3.89449 0.455182 0
M  V30 2699 H 250.84 3.918 1.44508 0
M  V30 2700 N 251.277 0.427512 1.51691 0
M  V30 2701 C 252.24 -0.377132 2.26076 0
M  V30 2702 C 253.24 -0.958089 1.29141 0
M  V30 2703 O 254.43 -0.83408 1.52934 0
M  V30 2704 C 251.562 -1.53262 3.04506 0
M  V30 2705 H 252.755 0.27464 2.9864 0
M  V30 2706 H 250.308 0.180445 1.55255 0
M  V30 2707 H 251.043 -2.22072 2.36335 0
M  V30 2708 H 250.828 -1.12232 3.75694 0
M  V30 2709 H 252.318 -2.10135 3.60878 0
M  V30 2710 N 252.755 -1.56801 0.158532 0
M  V30 2711 C 253.688 -2.13148 -0.815065 0
M  V30 2712 C 254.666 -1.0581 -1.23462 0
M  V30 2713 O 255.85 -1.3371 -1.32868 0
M  V30 2714 C 252.977 -2.6606 -2.09594 0
M  V30 2715 C 252.023 -3.85651 -1.82141 0
M  V30 2716 S 252.856 -5.26041 -1.00207 0
M  V30 2717 C 254.012 -5.8235 -2.29389 0
M  V30 2718 H 254.245 -2.95396 -0.335937 0
M  V30 2719 H 251.778 -1.54299 -0.0559391 0
M  V30 2720 H 253.736 -2.97195 -2.8317 0
M  V30 2721 H 252.397 -1.83921 -2.54621 0
M  V30 2722 H 251.59 -4.20958 -2.77147 0
M  V30 2723 H 251.192 -3.55338 -1.16667 0
M  V30 2724 H 253.484 -5.94485 -3.24952 0
M  V30 2725 H 254.427 -6.79688 -1.9857 0
M  V30 2726 H 254.835 -5.10675 -2.40564 0
M  V30 2727 N 254.233 0.115231 -1.57178 0
M  V30 2728 C 255.482 0.820945 -1.84237 0
M  V30 2729 C 255.795 1.80866 -0.744761 0
M  V30 2730 O 257.001 2.56083 -0.901871 0
M  V30 2731 C 255.457 1.51072 -3.26658 0
M  V30 2732 C 255.065 0.563795 -4.44438 0
M  V30 2733 C 256.809 2.20134 -3.62962 0
M  V30 2734 C 254.716 1.25701 -5.77887 0
M  V30 2735 H 253.646 0.310328 -0.687177 0
M  V30 2736 H 256.297 0.0737134 -1.83352 0
M  V30 2737 H 254.679 2.30471 -3.22024 0
M  V30 2738 H 255.853 -0.197247 -4.60378 0
M  V30 2739 H 254.168 -0.0200638 -4.16395 0
M  V30 2740 H 256.765 2.72696 -4.59936 0
M  V30 2741 H 257.108 2.98107 -2.90582 0
M  V30 2742 H 257.641 1.47619 -3.69396 0
M  V30 2743 H 254.38 0.518493 -6.53446 0
M  V30 2744 H 253.9 1.98997 -5.65827 0
M  V30 2745 H 255.579 1.78915 -6.2177 0
M  V30 2746 N 255.711 1.52812 0.385517 0
M  V30 2747 C 256.621 1.80766 1.49535 0
M  V30 2748 C 257.637 0.694651 1.59532 0
M  V30 2749 O 258.813 0.982611 1.75803 0
M  V30 2750 C 255.878 1.97381 2.85029 0
M  V30 2751 C 254.939 3.21295 2.84724 0
M  V30 2752 C 254.172 3.37108 4.13756 0
M  V30 2753 O 254.395 2.5765 5.08893 0
M  V30 2754 O 253.329 4.30378 4.20783 0
M  V30 2755 H 257.155 2.75015 1.28842 0
M  V30 2756 H 254.74 1.37946 0.573697 0
M  V30 2757 H 256.622 2.09996 3.65349 0
M  V30 2758 H 255.297 1.06322 3.05741 0
M  V30 2759 H 254.204 3.1412 2.03174 0
M  V30 2760 H 255.537 4.12212 2.68965 0
M  V30 2761 N 257.189 -0.644168 1.43834 0
M  V30 2762 C 258.139 -1.7501 1.46135 0
M  V30 2763 C 259.123 -1.57507 0.328685 0
M  V30 2764 O 260.315 -1.67465 0.5731 0
M  V30 2765 C 257.444 -3.13641 1.39585 0
M  V30 2766 C 256.53 -3.3666 2.57916 0
M  V30 2767 N 256.921 -3.30107 3.83227 0
M  V30 2768 C 255.219 -3.67411 2.52834 0
M  V30 2769 C 255.92 -3.53456 4.61999 0
M  V30 2770 N 254.896 -3.75705 3.9287 0
M  V30 2771 H 258.698 -1.68382 2.40883 0
M  V30 2772 H 256.212 -0.846169 1.38614 0
M  V30 2773 H 258.209 -3.92933 1.39317 0
M  V30 2774 H 256.869 -3.21444 0.45865 0
M  V30 2775 H 257.88 -3.09316 4.15384 0
M  V30 2776 H 254.557 -3.82275 1.67845 0
M  V30 2777 H 255.947 -3.54093 5.71024 0
M  V30 2778 N 258.668 -1.30515 -0.883378 0
M  V30 2779 C 259.898 -1.22182 -1.66599 0
M  V30 2780 C 260.306 0.217507 -1.87946 0
M  V30 2781 O 259.649 1.1554 -1.42815 0
M  V30 2782 C 259.711 -1.88146 -3.06335 0
M  V30 2783 C 259.375 -3.37476 -3.08154 0
M  V30 2784 C 260.372 -4.33443 -2.87094 0
M  V30 2785 C 258.057 -3.7895 -3.29701 0
M  V30 2786 C 260.051 -5.68858 -2.8754 0
M  V30 2787 C 257.738 -5.14482 -3.29776 0
M  V30 2788 C 258.736 -6.09246 -3.0872 0
M  V30 2789 O 258.424 -7.42302 -3.08615 0
M  V30 2790 H 258.156 -0.423898 -0.52658 0
M  V30 2791 H 260.71 -1.72703 -1.11188 0
M  V30 2792 H 258.94 -1.32157 -3.63416 0
M  V30 2793 H 260.629 -1.7391 -3.66756 0
M  V30 2794 H 261.395 -4.02733 -2.70243 0
M  V30 2795 H 257.274 -3.05631 -3.45124 0
M  V30 2796 H 260.818 -6.428 -2.71024 0
M  V30 2797 H 256.715 -5.44832 -3.46163 0
M  V30 2798 H 257.483 -7.5131 -3.24769 0
M  V30 2799 N 260.146 1.09593 -1.13257 0
M  V30 2800 C 261.394 1.81375 -0.891492 0
M  V30 2801 C 261.715 1.86049 0.584009 0
M  V30 2802 O 260.985 1.34481 1.42449 0
M  V30 2803 H 259.565 0.671708 -0.326828 0
M  V30 2804 H 262.227 1.3256 -1.42877 0
M  V30 2805 H 261.323 2.84612 -1.28071 0
M  V30 2806 N 261.624 0.925811 1.2754 0
M  V30 2807 C 262.873 0.561084 1.93739 0
M  V30 2808 C 263.186 -0.901685 1.73577 0
M  V30 2809 O 264.392 -1.37511 2.34101 0
M  V30 2810 C 262.848 0.952668 3.47062 0
M  V30 2811 C 262.456 2.43599 3.75983 0
M  V30 2812 C 264.2 0.659103 4.19352 0
M  V30 2813 C 262.107 2.76707 5.22673 0
M  V30 2814 H 261.037 0.206122 0.725279 0
M  V30 2815 H 263.688 1.12637 1.44863 0
M  V30 2816 H 262.07 0.316053 3.94737 0
M  V30 2817 H 263.244 3.12035 3.39073 0
M  V30 2818 H 261.559 2.70125 3.16893 0
M  V30 2819 H 264.156 0.882985 5.27359 0
M  V30 2820 H 264.499 -0.403607 4.14339 0
M  V30 2821 H 265.032 1.25473 3.77494 0
M  V30 2822 H 261.771 3.8188 5.32774 0
M  V30 2823 H 261.291 2.12919 5.60737 0
M  V30 2824 H 262.97 2.6435 5.90532 0
M  V30 2825 N 263.102 -1.41638 0.69111 0
M  V30 2826 C 264.012 -2.34588 0.0233487 0
M  V30 2827 C 265.028 -1.55987 -0.770984 0
M  V30 2828 O 266.204 -1.88486 -0.709569 0
M  V30 2829 C 263.269 -3.34684 -0.904851 0
M  V30 2830 C 262.33 -4.29176 -0.103225 0
M  V30 2831 C 261.563 -5.2449 -0.987216 0
M  V30 2832 O 261.786 -5.2514 -2.22674 0
M  V30 2833 O 260.72 -6.00295 -0.439281 0
M  V30 2834 H 264.546 -2.93261 0.789416 0
M  V30 2835 H 262.131 -1.42417 0.45142 0
M  V30 2836 H 264.013 -3.96133 -1.43724 0
M  V30 2837 H 262.688 -2.78461 -1.65049 0
M  V30 2838 H 261.595 -3.71089 0.473655 0
M  V30 2839 H 262.928 -4.88484 0.60365 0
M  V30 2840 N 264.58 -0.43555 -1.51462 0
M  V30 2841 C 265.527 0.376797 -2.27703 0
M  V30 2842 C 266.497 1.01838 -1.31219 0
M  V30 2843 O 267.682 1.03762 -1.60119 0
M  V30 2844 C 264.822 1.47301 -3.12084 0
M  V30 2845 C 263.935 0.849744 -4.2356 0
M  V30 2846 C 263.07 1.92086 -4.95254 0
M  V30 2847 C 262.109 1.27593 -5.98654 0
M  V30 2848 N 261.246 2.28833 -6.63762 0
M  V30 2849 H 266.086 -0.279734 -2.96684 0
M  V30 2850 H 263.623 -0.149795 -1.46335 0
M  V30 2851 H 265.581 2.11984 -3.59331 0
M  V30 2852 H 264.211 2.0992 -2.45221 0
M  V30 2853 H 263.263 0.0912529 -3.80291 0
M  V30 2854 H 264.575 0.338878 -4.97648 0
M  V30 2855 H 263.729 2.64435 -5.46039 0
M  V30 2856 H 262.468 2.46545 -4.20793 0
M  V30 2857 H 261.473 0.537893 -5.47162 0
M  V30 2858 H 262.698 0.738693 -6.7507 0
M  V30 2859 H 260.644 2.82375 -5.92115 0
M  V30 2860 H 260.561 1.82632 -7.33608 0
M  V30 2861 H 261.829 3.00671 -7.19178 0
M  V30 2862 N 266.058 1.56714 -0.166846 0
M  V30 2863 C 267.286 2.0112 0.485644 0
M  V30 2864 C 267.701 1.04705 1.57106 0
M  V30 2865 O 267.058 0.0471923 1.82439 0
M  V30 2866 C 267.109 3.45361 1.06808 0
M  V30 2867 O 266.83 4.38092 0.0259995 0
M  V30 2868 C 268.331 4.05145 1.79924 0
M  V30 2869 H 265.551 0.65931 0.124704 0
M  V30 2870 H 268.095 2.02746 -0.267262 0
M  V30 2871 H 266.25 3.44524 1.7715 0
M  V30 2872 H 266.664 5.22519 0.455398 0
M  V30 2873 H 268.138 5.08009 2.15942 0
M  V30 2874 H 268.615 3.46982 2.69258 0
M  V30 2875 H 269.221 4.09672 1.14234 0
M  V30 2876 N 267.536 -0.106894 1.57237 0
M  V30 2877 C 268.483 -1.13049 2.01217 0
M  V30 2878 C 269.453 -1.40471 0.886403 0
M  V30 2879 O 270.638 -1.52133 1.15153 0
M  V30 2880 C 267.778 -2.4487 2.43172 0
M  V30 2881 C 266.891 -2.24281 3.69218 0
M  V30 2882 C 266.026 -3.49417 4.00101 0
M  V30 2883 C 265.065 -3.24038 5.19294 0
M  V30 2884 N 264.202 -4.41409 5.45988 0
M  V30 2885 H 269.042 -0.748456 2.88448 0
M  V30 2886 H 266.579 -0.358054 1.42676 0
M  V30 2887 H 268.537 -3.21786 2.65537 0
M  V30 2888 H 267.167 -2.80944 1.58967 0
M  V30 2889 H 266.219 -1.38224 3.54398 0
M  V30 2890 H 267.531 -2.01512 4.56283 0
M  V30 2891 H 266.685 -4.34746 4.2318 0
M  V30 2892 H 265.424 -3.75229 3.11535 0
M  V30 2893 H 264.429 -2.37102 4.96047 0
M  V30 2894 H 265.654 -2.99584 6.09447 0
M  V30 2895 H 263.6 -4.67319 4.60379 0
M  V30 2896 H 263.517 -4.21788 6.274 0
M  V30 2897 H 264.785 -5.27836 5.73593 0
M  V30 2898 N 269.014 -1.53014 -0.377408 0
M  V30 2899 C 269.977 -1.77957 -1.44444 0
M  V30 2900 C 270.977 -0.649763 -1.47087 0
M  V30 2901 O 272.167 -0.917897 -1.48055 0
M  V30 2902 C 269.299 -1.89089 -2.83651 0
M  V30 2903 H 270.492 -2.73243 -1.23606 0
M  V30 2904 H 268.045 -1.43912 -0.609844 0
M  V30 2905 H 268.78 -0.958293 -3.09818 0
M  V30 2906 H 268.565 -2.71254 -2.83132 0
M  V30 2907 H 270.055 -2.1002 -3.60945 0
M  V30 2908 N 270.492 0.636531 -1.44174 0
M  V30 2909 C 271.739 1.39619 -1.46672 0
M  V30 2910 C 272.067 1.94257 -0.0972691 0
M  V30 2911 O 271.322 1.73768 0.900175 0
M  V30 2912 C 271.621 2.58309 -2.47005 0
M  V30 2913 C 271.287 2.21992 -3.92467 0
M  V30 2914 C 269.949 2.118 -4.32081 0
M  V30 2915 C 272.301 1.9321 -4.84065 0
M  V30 2916 C 269.629 1.71007 -5.61225 0
M  V30 2917 C 271.981 1.53911 -6.13591 0
M  V30 2918 C 270.645 1.42257 -6.52165 0
M  V30 2919 H 269.915 0.510902 -0.536712 0
M  V30 2920 H 272.562 0.722328 -1.77355 0
M  V30 2921 H 270.867 3.30903 -2.09786 0
M  V30 2922 H 272.564 3.16533 -2.46186 0
M  V30 2923 H 269.154 2.30841 -3.61124 0
M  V30 2924 H 273.338 1.99997 -4.54219 0
M  V30 2925 H 268.594 1.60583 -5.89935 0
M  V30 2926 H 272.768 1.30677 -6.8403 0
M  V30 2927 H 270.395 1.10419 -7.52138 0
M  V30 2928 N 271.97 1.30982 0.876444 0
M  V30 2929 C 272.9 1.20668 1.99903 0
M  V30 2930 C 273.881 0.095354 1.69833 0
M  V30 2931 O 275.066 0.27885 1.92188 0
M  V30 2932 C 272.196 0.90655 3.3526 0
M  V30 2933 C 271.15 1.97675 3.79617 0
M  V30 2934 C 270.476 1.52943 5.1236 0
M  V30 2935 C 271.776 3.389 3.97422 0
M  V30 2936 H 273.47 2.14586 2.0879 0
M  V30 2937 H 271.016 1.03308 1.00317 0
M  V30 2938 H 272.969 0.821025 4.13324 0
M  V30 2939 H 271.693 -0.0682969 3.26529 0
M  V30 2940 H 270.352 2.05205 3.03787 0
M  V30 2941 H 270 0.54262 5.00065 0
M  V30 2942 H 269.7 2.24532 5.43009 0
M  V30 2943 H 271.224 1.45786 5.92941 0
M  V30 2944 H 272.638 3.34081 4.659 0
M  V30 2945 H 271.035 4.0865 4.3946 0
M  V30 2946 H 272.105 3.80163 3.01006 0
M  V30 2947 N 273.449 -1.08991 1.13837 0
M  V30 2948 C 274.359 -2.19301 0.833333 0
M  V30 2949 C 275.375 -1.73026 -0.183847 0
M  V30 2950 O 276.551 -2.01395 -0.0138092 0
M  V30 2951 C 273.616 -3.45323 0.308651 0
M  V30 2952 C 272.677 -4.06255 1.38764 0
M  V30 2953 C 271.91 -5.26262 0.887896 0
M  V30 2954 O 272.133 -5.69747 -0.27287 0
M  V30 2955 O 271.067 -5.78435 1.66421 0
M  V30 2956 H 274.893 -2.47854 1.75506 0
M  V30 2957 H 272.478 -1.18012 0.916166 0
M  V30 2958 H 274.36 -4.21394 0.0216739 0
M  V30 2959 H 273.035 -3.18362 -0.585431 0
M  V30 2960 H 271.942 -3.318 1.72799 0
M  V30 2961 H 273.275 -4.37452 2.25602 0
M  V30 2962 N 274.927 -0.932562 -1.27047 0
M  V30 2963 C 276.175 -0.574422 -1.93765 0
M  V30 2964 C 276.496 0.887993 -1.73608 0
M  V30 2965 O 275.766 1.62999 -1.08665 0
M  V30 2966 H 274.346 -0.209451 -0.717035 0
M  V30 2967 H 277.008 -1.18601 -1.5466 0
M  V30 2968 H 276.104 -0.784841 -3.02071 0
M  V30 2969 N 276.405 1.4127 -0.698611 0
M  V30 2970 C 277.335 2.33447 -0.049629 0
M  V30 2971 C 278.316 1.51982 0.763898 0
M  V30 2972 O 279.501 1.80509 0.716257 0
M  V30 2973 C 276.631 3.35828 0.885267 0
M  V30 2974 C 275.585 4.27627 0.178613 0
M  V30 2975 C 274.911 5.20406 1.22807 0
M  V30 2976 C 276.211 5.13459 -0.956933 0
M  V30 2977 H 277.905 2.87966 -0.81951 0
M  V30 2978 H 275.451 1.38461 -0.395538 0
M  V30 2979 H 277.404 3.9924 1.34854 0
M  V30 2980 H 276.128 2.79666 1.68685 0
M  V30 2981 H 274.787 3.65643 -0.26466 0
M  V30 2982 H 274.435 4.60558 2.02226 0
M  V30 2983 H 274.135 5.82661 0.760239 0
M  V30 2984 H 275.659 5.86695 1.69179 0
M  V30 2985 H 277.073 5.70421 -0.573805 0
M  V30 2986 H 275.47 5.8467 -1.35205 0
M  V30 2987 H 276.54 4.50443 -1.79524 0
M  V30 2988 N 277.883 0.443576 1.51229 0
M  V30 2989 C 278.83 -0.364716 2.279 0
M  V30 2990 C 279.8 -1.0114 1.31757 0
M  V30 2991 O 280.985 -1.02912 1.60667 0
M  V30 2992 C 278.125 -1.45644 3.12861 0
M  V30 2993 C 277.238 -0.827269 4.24005 0
M  V30 2994 C 276.373 -1.89456 4.96266 0
M  V30 2995 C 275.412 -1.24416 5.99322 0
M  V30 2996 N 274.549 -2.25309 6.64966 0
M  V30 2997 H 279.389 0.295464 2.96532 0
M  V30 2998 H 276.926 0.157554 1.46254 0
M  V30 2999 H 278.884 -2.10076 3.6045 0
M  V30 3000 H 277.514 -2.08616 2.46331 0
M  V30 3001 H 276.566 -0.0710839 3.80334 0
M  V30 3002 H 277.878 -0.312481 4.9782 0
M  V30 3003 H 277.032 -2.61535 5.47434 0
M  V30 3004 H 275.771 -2.4431 4.22095 0
M  V30 3005 H 274.776 -0.508868 5.4744 0
M  V30 3006 H 276.001 -0.702882 6.75453 0
M  V30 3007 H 273.947 -2.79231 5.93604 0
M  V30 3008 H 273.864 -1.78739 7.34567 0
M  V30 3009 H 275.132 -2.96853 7.20763 0
M  V30 3010 N 279.361 -1.56624 0.175154 0
M  V30 3011 C 280.324 -2.16934 -0.739738 0
M  V30 3012 C 281.324 -1.11842 -1.15533 0
M  V30 3013 O 282.514 -1.37335 -1.07167 0
M  V30 3014 C 279.646 -2.75531 -2.00738 0
M  V30 3015 H 280.839 -2.99131 -0.214639 0
M  V30 3016 H 278.392 -1.56123 -0.0744197 0
M  V30 3017 H 279.127 -1.97078 -2.57548 0
M  V30 3018 H 278.912 -3.52444 -1.71831 0
M  V30 3019 H 280.402 -3.21904 -2.66021 0
M  V30 3020 N 280.839 0.0985539 -1.57292 0
M  V30 3021 C 281.787 1.1387 -2.02821 0
M  V30 3022 C 282.781 1.41676 -0.928666 0
M  V30 3023 O 283.987 1.41398 -1.11385 0
M  V30 3024 H 280.362 0.384419 -0.646317 0
M  V30 3025 H 282.333 0.728347 -2.89375 0
M  V30 3026 C 281.082 2.45166 -2.46554 0
M  V30 3027 H 280.405 2.24613 -3.3074 0
M  V30 3028 H 281.845 3.16456 -2.8219 0
M  V30 3029 C 280.304 3.09216 -1.33742 0
M  V30 3030 O 280.834 3.96163 -0.66464 0
M  V30 3031 N 279.04 2.69413 -1.08928 0
M  V30 3032 H 278.587 1.98801 -1.63817 0
M  V30 3033 H 278.545 3.12594 -0.336458 0
M  V30 3034 N 282.317 1.53212 0.369288 0
M  V30 3035 C 283.247 1.82365 1.45826 0
M  V30 3036 C 284.228 0.676907 1.56051 0
M  V30 3037 O 285.413 0.926401 1.70679 0
M  V30 3038 C 282.543 2.01023 2.83208 0
M  V30 3039 C 281.497 3.1678 2.8781 0
M  V30 3040 C 280.823 3.20724 4.27832 0
M  V30 3041 C 282.123 4.55447 2.55667 0
M  V30 3042 H 283.817 2.73559 1.21678 0
M  V30 3043 H 281.363 1.3163 0.583911 0
M  V30 3044 H 283.316 2.20001 3.59413 0
M  V30 3045 H 282.04 1.06536 3.08736 0
M  V30 3046 H 280.699 2.97616 2.14056 0
M  V30 3047 H 280.347 2.23882 4.50429 0
M  V30 3048 H 280.047 3.98496 4.31827 0
M  V30 3049 H 281.571 3.41881 5.05915 0
M  V30 3050 H 282.985 4.74611 3.21586 0
M  V30 3051 H 281.382 5.35432 2.70984 0
M  V30 3052 H 282.452 4.60812 1.5093 0
M  V30 3053 N 283.795 -0.628877 1.44509 0
M  V30 3054 C 284.758 -1.72263 1.51188 0
M  V30 3055 C 285.758 -1.55907 0.39367 0
M  V30 3056 O 286.948 -1.61361 0.656377 0
M  V30 3057 C 284.08 -3.11365 1.38798 0
M  V30 3058 H 285.273 -1.67714 2.4862 0
M  V30 3059 H 282.826 -0.842737 1.31634 0
M  V30 3060 H 283.561 -3.21507 0.424693 0
M  V30 3061 H 283.346 -3.24644 2.19884 0
M  V30 3062 H 284.836 -3.91075 1.46458 0
M  V30 3063 N 285.273 -1.31445 -0.869486 0
M  V30 3064 C 286.689 -1.10113 -1.15531 0
M  V30 3065 C 286.889 0.128087 -2.01092 0
M  V30 3066 O 285.945 0.817276 -2.38908 0
M  V30 3067 C 287.258 -2.37291 -1.84698 0
M  V30 3068 C 288.806 -2.42906 -1.97397 0
M  V30 3069 C 289.281 -3.69967 -2.69979 0
M  V30 3070 N 290.772 -3.70864 -2.77514 0
M  V30 3071 C 291.507 -4.65875 -3.34287 0
M  V30 3072 N 291.003 -5.71242 -3.91988 0
M  V30 3073 N 292.796 -4.53394 -3.3225 0
M  V30 3074 H 284.947 -2.1028 -0.299347 0
M  V30 3075 H 287.21 -0.927683 -0.195214 0
M  V30 3076 H 286.916 -3.27078 -1.29278 0
M  V30 3077 H 286.79 -2.47125 -2.84972 0
M  V30 3078 H 289.177 -1.53588 -2.51982 0
M  V30 3079 H 289.258 -2.37036 -0.961643 0
M  V30 3080 H 288.902 -4.59652 -2.16062 0
M  V30 3081 H 288.832 -3.73103 -3.7162 0
M  V30 3082 H 291.323 -2.94697 -2.36563 0
M  V30 3083 H 291.636 -6.39817 -4.33421 0
M  V30 3084 H 289.981 -5.75015 -3.90362 0
M  V30 3085 H 293.172 -3.70252 -2.8641 0
M  V30 3086 H 293.345 -5.27617 -3.76197 0
M  V30 3087 N 286.751 1.08385 -1.14413 0
M  V30 3088 C 287.698 2.15311 -0.831265 0
M  V30 3089 C 288.668 1.64751 0.211292 0
M  V30 3090 O 289.853 1.90627 0.0811674 0
M  V30 3091 C 286.993 3.43658 -0.315143 0
M  V30 3092 C 286.106 4.08064 -1.41802 0
M  V30 3093 C 285.241 5.24207 -0.859126 0
M  V30 3094 C 284.28 5.80554 -1.93967 0
M  V30 3095 N 283.417 6.88042 -1.39793 0
M  V30 3096 H 288.257 2.41415 -1.74708 0
M  V30 3097 H 285.794 1.18474 -0.871909 0
M  V30 3098 H 287.752 4.172 0.00230884 0
M  V30 3099 H 286.382 3.17839 0.56378 0
M  V30 3100 H 285.434 3.3228 -1.85187 0
M  V30 3101 H 286.746 4.45962 -2.23427 0
M  V30 3102 H 285.9 6.04689 -0.49359 0
M  V30 3103 H 284.639 4.87699 -0.011932 0
M  V30 3104 H 283.644 4.98725 -2.31415 0
M  V30 3105 H 284.869 6.19121 -2.79046 0
M  V30 3106 H 282.815 6.53493 -0.572919 0
M  V30 3107 H 282.732 7.24767 -2.15054 0
M  V30 3108 H 284 7.72255 -1.0603 0
M  V30 3109 N 288.23 0.939286 1.26551 0
M  V30 3110 C 289.641 0.628782 1.75793 0
M  V30 3111 C 289.992 -0.856046 1.7654 0
M  V30 3112 O 289.117 -1.66994 1.3763 0
M  V30 3113 C 289.712 1.13465 3.19235 0
M  V30 3114 C 288.271 0.874601 3.66098 0
M  V30 3115 C 287.418 1.28667 2.45642 0
M  V30 3116 H 290.369 1.1178 1.12654 0
M  V30 3117 H 290.39 0.487609 3.77363 0
M  V30 3118 H 289.902 2.21535 3.1866 0
M  V30 3119 H 288.003 -0.191793 3.72106 0
M  V30 3120 H 288.116 1.50028 4.55004 0
M  V30 3121 H 286.48 0.705109 2.44745 0
M  V30 3122 H 287.263 2.37625 2.47769 0
M  V30 3123 N 289.708 -1.40897 0.706093 0
M  V30 3124 C 290.64 -2.29199 0.00815776 0
M  V30 3125 C 291.653 -1.45336 -0.733582 0
M  V30 3126 O 292.842 -1.68727 -0.582537 0
M  V30 3127 C 289.942 -3.23417 -1.01265 0
M  V30 3128 C 289.115 -4.36089 -0.338387 0
M  V30 3129 C 288.174 -5.10811 -1.26326 0
M  V30 3130 O 287.2 -5.64215 -0.751651 0
M  V30 3131 N 288.402 -5.19269 -2.595 0
M  V30 3132 H 291.167 -2.89738 0.766297 0
M  V30 3133 H 288.728 -1.52164 0.55296 0
M  V30 3134 H 290.72 -3.70276 -1.63334 0
M  V30 3135 H 289.29 -2.64112 -1.67223 0
M  V30 3136 H 288.51 -3.91479 0.462352 0
M  V30 3137 H 289.798 -5.08634 0.130031 0
M  V30 3138 H 289.196 -4.77347 -3.03573 0
M  V30 3139 H 287.753 -5.69667 -3.16737 0
M  V30 3140 N 291.186 -0.45159 -1.50991 0
M  V30 3141 C 292.434 0.109857 -2.01801 0
M  V30 3142 C 292.755 1.41958 -1.3369 0
M  V30 3143 O 292.025 1.9003 -0.475951 0
M  V30 3144 H 290.605 0.0435884 -0.745727 0
M  V30 3145 H 293.267 -0.597557 -1.85514 0
M  V30 3146 H 292.363 0.275489 -3.10882 0
M  V30 3147 N 292.664 1.56529 -0.183458 0
M  V30 3148 C 293.912 1.96855 0.457452 0
M  V30 3149 C 294.233 1.07104 1.62953 0
M  V30 3150 O 293.503 0.139887 1.954 0
M  V30 3151 H 292.083 0.72693 0.171992 0
M  V30 3152 H 294.745 1.93056 -0.267476 0
M  V30 3153 H 293.841 3.01423 0.809368 0
M  V30 3154 N 294.142 -0.090211 1.57342 0
M  V30 3155 C 295.419 -0.824761 1.77361 0
M  V30 3156 C 295.799 -1.96698 0.76637 0
M  V30 3157 O 295.147 -2.27586 -0.204179 0
M  V30 3158 C 295.357 -1.31481 3.23286 0
M  V30 3159 C 296.705 -1.75563 3.86604 0
M  V30 3160 O 297.729 -1.41093 3.27065 0
M  V30 3161 O 296.588 -2.39317 4.91314 0
M  V30 3162 H 293.682 -0.393776 0.727234 0
M  V30 3163 H 296.228 -0.0717138 1.69548 0
M  V30 3164 H 295 -0.496671 3.88135 0
M  V30 3165 H 294.623 -2.12973 3.35751 0
M  V30 3166 N 295.62 -1.53406 -0.361157 0
M  V30 3167 C 297.036 -1.43277 -0.703124 0
M  V30 3168 C 297.236 -0.575384 -1.9311 0
M  V30 3169 O 296.292 -0.0595362 -2.5243 0
M  V30 3170 C 297.605 -2.8653 -0.9122 0
M  V30 3171 C 299.153 -2.96191 -1.01193 0
M  V30 3172 C 299.628 -4.40514 -1.25345 0
M  V30 3173 N 301.119 -4.43962 -1.32105 0
M  V30 3174 C 301.854 -5.52746 -1.5251 0
M  V30 3175 N 301.35 -6.71567 -1.70203 0
M  V30 3176 N 303.143 -5.40331 -1.54916 0
M  V30 3177 H 295.294 -2.07654 0.446475 0
M  V30 3178 H 297.557 -0.937944 0.137715 0
M  V30 3179 H 297.263 -3.51605 -0.0816414 0
M  V30 3180 H 297.137 -3.30441 -1.81903 0
M  V30 3181 H 299.524 -2.31266 -1.83303 0
M  V30 3182 H 299.605 -2.55667 -0.0823929 0
M  V30 3183 H 299.249 -5.06014 -0.437346 0
M  V30 3184 H 299.179 -4.78614 -2.19627 0
M  V30 3185 H 301.67 -3.58332 -1.20028 0
M  V30 3186 H 301.983 -7.50241 -1.85359 0
M  V30 3187 H 300.328 -6.74545 -1.67373 0
M  V30 3188 H 303.519 -4.46465 -1.40663 0
M  V30 3189 H 303.692 -6.25173 -1.70477 0
M  V30 3190 N 297.098 0.621204 -1.44841 0
M  V30 3191 C 298.375 1.38 -1.38619 0
M  V30 3192 C 298.755 2.11041 -0.0498935 0
M  V30 3193 O 298.103 2.06992 0.967816 0
M  V30 3194 C 298.313 2.33817 -2.59096 0
M  V30 3195 C 299.661 2.96844 -3.03593 0
M  V30 3196 O 300.685 2.44141 -2.59371 0
M  V30 3197 O 299.544 3.92476 -3.80296 0
M  V30 3198 H 296.638 0.61811 -0.549426 0
M  V30 3199 H 299.184 0.645429 -1.56947 0
M  V30 3200 H 297.956 1.79012 -3.47952 0
M  V30 3201 H 297.579 3.14676 -2.43032 0
M  V30 3202 N 298.576 1.31904 0.862503 0
M  V30 3203 C 299.508 1.16005 1.97675 0
M  V30 3204 C 300.521 0.0971234 1.6251 0
M  V30 3205 O 301.71 0.345337 1.75128 0
M  V30 3206 C 298.81 0.751791 3.30456 0
M  V30 3207 C 297.983 1.90133 3.93914 0
M  V30 3208 C 297.042 1.4779 5.05019 0
M  V30 3209 O 296.068 2.18872 5.25437 0
M  V30 3210 N 297.27 0.369491 5.79323 0
M  V30 3211 H 300.035 2.11982 2.11857 0
M  V30 3212 H 297.596 1.24337 1.03691 0
M  V30 3213 H 299.588 0.451084 4.02178 0
M  V30 3214 H 298.158 -0.116593 3.12382 0
M  V30 3215 H 297.378 2.36896 3.15078 0
M  V30 3216 H 298.666 2.67111 4.33047 0
M  V30 3217 H 298.064 -0.222299 5.65263 0
M  V30 3218 H 296.621 0.128354 6.51674 0
M  V30 3219 N 300.054 -1.07777 1.14986 0
M  V30 3220 C 301.3 -1.80557 0.923422 0
M  V30 3221 C 301.633 -1.86298 -0.548337 0
M  V30 3222 O 300.908 -1.34354 -1.40639 0
M  V30 3223 C 301.191 -3.25839 1.53299 0
M  V30 3224 C 301.044 -3.28269 3.07505 0
M  V30 3225 C 302.363 -4.22991 1.21518 0
M  V30 3226 H 299.482 -0.655493 0.336894 0
M  V30 3227 H 302.124 -1.26144 1.42083 0
M  V30 3228 H 300.274 -3.72306 1.10999 0
M  V30 3229 H 301.946 -2.90079 3.58681 0
M  V30 3230 H 300.189 -2.67355 3.4162 0
M  V30 3231 H 300.86 -4.30691 3.45266 0
M  V30 3232 H 303.336 -3.84894 1.581 0
M  V30 3233 H 302.212 -5.22945 1.66793 0
M  V30 3234 H 302.473 -4.41904 0.131505 0
M  V30 3235 N 301.532 -0.945985 -1.26051 0
M  V30 3236 C 302.479 -0.45809 -2.26208 0
M  V30 3237 C 303.449 0.484816 -1.58867 0
M  V30 3238 O 304.634 0.399969 -1.86561 0
M  V30 3239 C 301.774 0.266131 -3.44072 0
M  V30 3240 C 300.887 -0.713005 -4.26075 0
M  V30 3241 C 300.022 0.0329013 -5.3119 0
M  V30 3242 C 299.061 -0.93774 -6.04874 0
M  V30 3243 N 298.198 -0.223274 -7.01745 0
M  V30 3244 H 303.038 -1.3171 -2.67313 0
M  V30 3245 H 300.575 -0.66069 -1.31428 0
M  V30 3246 H 302.533 0.702514 -4.11243 0
M  V30 3247 H 301.163 1.08925 -3.03867 0
M  V30 3248 H 300.215 -1.26789 -3.58648 0
M  V30 3249 H 301.527 -1.45406 -4.77136 0
M  V30 3250 H 300.681 0.528335 -6.04395 0
M  V30 3251 H 299.42 0.806801 -4.8098 0
M  V30 3252 H 298.425 -1.44425 -5.30492 0
M  V30 3253 H 299.65 -1.71172 -6.57173 0
M  V30 3254 H 297.596 0.532046 -6.53839 0
M  V30 3255 H 297.513 -0.90357 -7.50581 0
M  V30 3256 H 298.781 0.250907 -7.79096 0
M  V30 3257 N 303.011 1.40521 -0.713556 0
M  V30 3258 C 303.974 2.29098 -0.0684347 0
M  V30 3259 C 304.974 1.45268 0.689472 0
M  V30 3260 O 306.164 1.66205 0.521677 0
M  V30 3261 C 303.296 3.28446 0.913024 0
M  V30 3262 H 304.489 2.87645 -0.84855 0
M  V30 3263 H 302.042 1.48809 -0.47809 0
M  V30 3264 H 302.777 2.74913 1.72027 0
M  V30 3265 H 302.562 3.90327 0.372472 0
M  V30 3266 H 304.052 3.94777 1.36165 0
M  V30 3267 N 304.489 0.459591 1.5075 0
M  V30 3268 C 305.738 -0.100971 2.01447 0
M  V30 3269 C 306.051 -1.41816 1.34713 0
M  V30 3270 O 307.257 -2.06299 1.76502 0
M  V30 3271 C 305.713 -0.23047 3.59161 0
M  V30 3272 C 305.321 1.0776 4.34847 0
M  V30 3273 C 307.065 -0.743608 4.17936 0
M  V30 3274 C 304.972 0.91253 5.84317 0
M  V30 3275 H 303.902 -0.0415102 0.752856 0
M  V30 3276 H 306.553 0.592742 1.73663 0
M  V30 3277 H 304.935 -0.987703 3.83485 0
M  V30 3278 H 306.109 1.8449 4.22256 0
M  V30 3279 H 304.424 1.52097 3.87628 0
M  V30 3280 H 307.021 -0.883959 5.27343 0
M  V30 3281 H 307.364 -1.73196 3.78562 0
M  V30 3282 H 307.897 -0.04408 3.97776 0
M  V30 3283 H 304.636 1.87391 6.28144 0
M  V30 3284 H 304.156 0.185422 5.99513 0
M  V30 3285 H 305.835 0.574547 6.44444 0
M  V30 3286 N 305.967 -1.56429 0.191757 0
M  V30 3287 C 306.914 -2.18936 -0.730454 0
M  V30 3288 C 307.884 -1.13557 -1.21219 0
M  V30 3289 O 309.069 -1.41794 -1.27668 0
M  V30 3290 C 306.209 -2.85013 -1.9458 0
M  V30 3291 C 305.322 -4.04909 -1.50574 0
M  V30 3292 C 304.457 -4.58853 -2.67634 0
M  V30 3293 C 303.496 -5.71114 -2.20217 0
M  V30 3294 N 302.633 -6.19478 -3.30442 0
M  V30 3295 H 307.473 -2.97389 -0.190664 0
M  V30 3296 H 305.01 -1.46869 -0.0823694 0
M  V30 3297 H 306.968 -3.21492 -2.65893 0
M  V30 3298 H 305.598 -2.09129 -2.45896 0
M  V30 3299 H 304.65 -3.74115 -0.688605 0
M  V30 3300 H 305.962 -4.86113 -1.11784 0
M  V30 3301 H 305.116 -4.97619 -3.47074 0
M  V30 3302 H 303.855 -3.76749 -3.09696 0
M  V30 3303 H 302.86 -5.31879 -1.3923 0
M  V30 3304 H 304.085 -6.55033 -1.79189 0
M  V30 3305 H 302.031 -5.40297 -3.72041 0
M  V30 3306 H 301.948 -6.95725 -2.9581 0
M  V30 3307 H 303.216 -6.62898 -4.10106 0
M  V30 3308 N 307.445 0.0818655 -1.57387 0
M  V30 3309 C 308.355 1.11642 -2.06333 0
M  V30 3310 C 309.371 1.43033 -0.99083 0
M  V30 3311 O 310.547 1.53411 -1.30488 0
M  V30 3312 C 307.612 2.41342 -2.48907 0
M  V30 3313 C 306.673 2.17014 -3.7041 0
M  V30 3314 C 305.906 3.4053 -4.10944 0
M  V30 3315 O 306.129 4.4927 -3.51444 0
M  V30 3316 O 305.063 3.29336 -5.03807 0
M  V30 3317 H 308.889 0.730657 -2.9478 0
M  V30 3318 H 306.474 0.295301 -1.46452 0
M  V30 3319 H 308.356 3.17691 -2.76858 0
M  V30 3320 H 307.031 2.79319 -1.63593 0
M  V30 3321 H 305.938 1.38403 -3.47556 0
M  V30 3322 H 307.271 1.83923 -4.56545 0
M  V30 3323 N 308.923 1.53595 0.353017 0
M  V30 3324 C 310.171 1.70049 1.09215 0
M  V30 3325 C 310.492 0.461406 1.89463 0
M  V30 3326 O 309.762 -0.524633 1.88744 0
M  V30 3327 H 308.342 0.626912 0.40619 0
M  V30 3328 H 311.004 1.90822 0.396585 0
M  V30 3329 H 310.1 2.56718 1.77488 0
M  V30 3330 N 310.401 -0.613514 1.45168 0
M  V30 3331 C 311.65 -1.36874 1.4815 0
M  V30 3332 C 311.963 -1.952 0.124982 0
M  V30 3333 O 313.169 -2.71481 0.0324176 0
M  V30 3334 C 311.625 -2.47905 2.60904 0
M  V30 3335 C 311.233 -1.96016 4.02842 0
M  V30 3336 C 312.977 -3.24965 2.73126 0
M  V30 3337 C 310.884 -3.04494 5.06988 0
M  V30 3338 H 309.814 -0.514428 0.551253 0
M  V30 3339 H 312.465 -0.658182 1.7129 0
M  V30 3340 H 310.847 -3.21618 2.31037 0
M  V30 3341 H 312.021 -1.29051 4.4236 0
M  V30 3342 H 310.336 -1.31719 3.95018 0
M  V30 3343 H 312.933 -4.05865 3.48106 0
M  V30 3344 H 313.276 -3.75588 1.79553 0
M  V30 3345 H 313.809 -2.5835 3.0249 0
M  V30 3346 H 310.548 -2.58795 6.0225 0
M  V30 3347 H 310.068 -3.70044 4.72046 0
M  V30 3348 H 311.747 -3.68976 5.31475 0
M  V30 3349 N 311.879 -1.3236 -0.855495 0
M  V30 3350 C 313.119 -1.24187 -1.62348 0
M  V30 3351 C 313.483 0.193597 -1.91021 0
M  V30 3352 O 314.684 0.39904 -2.65822 0
M  V30 3353 C 312.955 -2.07661 -2.90881 0
M  V30 3354 S 314.514 -2.16505 -3.81669 0
M  V30 3355 H 311.332 -0.442076 -0.556857 0
M  V30 3356 H 313.934 -1.67198 -1.01317 0
M  V30 3357 H 312.638 -3.11018 -2.67761 0
M  V30 3358 H 312.169 -1.65425 -3.56929 0
M  V30 3359 H 314.184 -1.31394 -4.78487 0
M  V30 3360 N 313.357 1.07166 -1.15556 0
M  V30 3361 C 314.634 1.76546 -0.842069 0
M  V30 3362 C 315.014 2.00453 0.661939 0
M  V30 3363 O 314.362 1.62452 1.60691 0
M  V30 3364 C 314.572 3.07266 -1.65495 0
M  V30 3365 C 315.92 3.81578 -1.86234 0
M  V30 3366 O 316.944 3.17083 -1.62287 0
M  V30 3367 O 315.803 4.97419 -2.26355 0
M  V30 3368 H 312.897 0.766756 -0.309862 0
M  V30 3369 H 315.443 1.13514 -1.26145 0
M  V30 3370 H 314.215 2.85494 -2.67598 0
M  V30 3371 H 313.838 3.7803 -1.23203 0
M  V30 3372 N 314.835 0.952656 1.25548 0
M  V30 3373 C 316.065 0.622592 1.96996 0
M  V30 3374 C 316.473 -0.809112 1.71026 0
M  V30 3375 O 315.816 -1.55258 0.981861 0
M  V30 3376 C 315.878 0.798946 3.5051 0
M  V30 3377 C 315.542 2.20744 4.00151 0
M  V30 3378 C 316.539 3.18394 4.11001 0
M  V30 3379 C 314.224 2.5311 4.33867 0
M  V30 3380 C 316.218 4.46504 4.54877 0
M  V30 3381 C 313.905 3.8145 4.7743 0
M  V30 3382 C 314.903 4.77959 4.87897 0
M  V30 3383 O 314.591 6.04012 5.30494 0
M  V30 3384 H 314.323 0.232503 0.634758 0
M  V30 3385 H 316.877 1.2789 1.60728 0
M  V30 3386 H 315.107 0.0854903 3.86605 0
M  V30 3387 H 316.796 0.47023 4.03167 0
M  V30 3388 H 317.562 2.94715 3.85186 0
M  V30 3389 H 313.441 1.78719 4.24948 0
M  V30 3390 H 316.985 5.21835 4.62962 0
M  V30 3391 H 312.882 4.04936 5.0269 0
M  V30 3392 H 313.65 6.0736 5.48685 0
M  V30 3393 N 316.313 -1.40141 0.720998 0
M  V30 3394 C 317.538 -2.05618 0.271258 0
M  V30 3395 C 317.963 -1.53978 -1.08039 0
M  V30 3396 O 317.321 -0.677463 -1.68167 0
M  V30 3397 C 317.369 -3.59609 0.267197 0
M  V30 3398 O 316.473 -4.05526 -0.749814 0
M  V30 3399 H 315.814 -0.651904 0.126162 0
M  V30 3400 H 318.344 -1.79439 0.982997 0
M  V30 3401 H 318.354 -4.0786 0.106744 0
M  V30 3402 H 317.029 -3.96559 1.25354 0
M  V30 3403 H 315.606 -3.68722 -0.556644 0
M  V30 3404 N 317.792 -0.46758 -1.50504 0
M  V30 3405 C 319.041 0.0902868 -2.01498 0
M  V30 3406 C 319.354 1.411 -1.35463 0
M  V30 3407 O 320.56 2.0536 -1.77594 0
M  V30 3408 C 319.016 0.21142 -3.59278 0
M  V30 3409 C 318.624 -1.10065 -4.34269 0
M  V30 3410 C 320.368 0.721433 -4.18325 0
M  V30 3411 C 318.275 -0.943505 -5.83825 0
M  V30 3412 H 317.205 0.037517 -0.753066 0
M  V30 3413 H 319.856 -0.601943 -1.73346 0
M  V30 3414 H 318.238 0.967352 -3.84003 0
M  V30 3415 H 319.412 -1.86726 -4.21272 0
M  V30 3416 H 317.727 -1.5415 -3.86816 0
M  V30 3417 H 320.324 0.85598 -5.27804 0
M  V30 3418 H 320.667 1.71186 -3.79475 0
M  V30 3419 H 321.2 0.0229843 -3.97793 0
M  V30 3420 H 317.939 -1.90719 -6.27141 0
M  V30 3421 H 317.459 -0.217213 -5.99407 0
M  V30 3422 H 319.138 -0.608715 -6.4413 0
M  V30 3423 N 319.27 1.56325 -0.20005 0
M  V30 3424 C 320.518 1.97329 0.436547 0
M  V30 3425 C 320.839 1.08826 1.61808 0
M  V30 3426 O 320.109 0.160604 1.95241 0
M  V30 3427 H 318.689 0.728714 0.164272 0
M  V30 3428 H 321.351 1.92761 -0.287937 0
M  V30 3429 H 320.447 3.02264 0.777353 0
M  V30 3430 N 320.748 -0.0735177 1.57428 0
M  V30 3431 C 321.696 -1.10628 2.04607 0
M  V30 3432 C 322.69 -1.40181 0.951088 0
M  V30 3433 O 323.896 -1.39608 1.1362 0
M  V30 3434 H 320.271 -0.374088 0.652351 0
M  V30 3435 H 322.242 -0.682218 2.90497 0
M  V30 3436 C 320.991 -2.41212 2.50423 0
M  V30 3437 H 320.314 -2.19322 3.34272 0
M  V30 3438 H 321.754 -3.11927 2.87189 0
M  V30 3439 C 320.213 -3.0705 1.38644 0
M  V30 3440 O 320.743 -3.95056 0.727582 0
M  V30 3441 N 318.949 -2.67645 1.132 0
M  V30 3442 H 318.496 -1.96169 1.66959 0
M  V30 3443 H 318.454 -3.1202 0.386147 0
M  V30 3444 N 322.226 -1.5378 -0.344866 0
M  V30 3445 C 323.451 -1.75211 -1.10977 0
M  V30 3446 C 323.876 -0.48936 -1.81623 0
M  V30 3447 O 323.234 0.557925 -1.72502 0
M  V30 3448 C 323.282 -2.93147 -2.09993 0
M  V30 3449 O 322.386 -2.63203 -3.17487 0
M  V30 3450 H 321.727 -0.581241 -0.321021 0
M  V30 3451 H 324.257 -2.00738 -0.395661 0
M  V30 3452 H 324.267 -3.19898 -2.53237 0
M  V30 3453 H 322.942 -3.84731 -1.5797 0
M  V30 3454 H 321.519 -2.47336 -2.79069 0
M  V30 3455 N 323.704 0.605807 -1.45491 0
M  V30 3456 C 324.934 1.38934 -1.52908 0
M  V30 3457 C 325.342 1.88513 -0.161086 0
M  V30 3458 O 324.685 1.62962 0.847891 0
M  V30 3459 C 324.747 2.62737 -2.45376 0
M  V30 3460 C 324.411 2.34785 -3.92078 0
M  V30 3461 C 325.408 1.95038 -4.8193 0
M  V30 3462 C 323.093 2.47642 -4.37011 0
M  V30 3463 C 325.087 1.68511 -6.14722 0
M  V30 3464 C 322.774 2.20728 -5.69844 0
M  V30 3465 C 323.772 1.81225 -6.58519 0
M  V30 3466 O 323.46 1.54627 -7.88889 0
M  V30 3467 H 323.192 0.431629 -0.520262 0
M  V30 3468 H 325.746 0.74573 -1.91384 0
M  V30 3469 H 323.976 3.29824 -2.01874 0
M  V30 3470 H 325.665 3.24783 -2.43456 0
M  V30 3471 H 326.431 1.84639 -4.48479 0
M  V30 3472 H 322.31 2.77356 -3.68232 0
M  V30 3473 H 325.854 1.37602 -6.83894 0
M  V30 3474 H 321.751 2.30744 -6.02849 0
M  V30 3475 H 322.519 1.68665 -8.00933 0
M  V30 3476 N 325.182 1.32811 0.848464 0
M  V30 3477 C 326.412 1.26556 1.63301 0
M  V30 3478 C 326.82 -0.1676 1.88456 0
M  V30 3479 O 326.163 -1.11713 1.45828 0
M  V30 3480 C 326.225 1.96202 3.01239 0
M  V30 3481 C 325.889 3.45528 2.99098 0
M  V30 3482 C 326.886 4.40903 2.75501 0
M  V30 3483 C 324.571 3.87558 3.19537 0
M  V30 3484 C 326.565 5.76282 2.72356 0
M  V30 3485 C 324.252 5.23044 3.16019 0
M  V30 3486 C 325.25 6.17217 2.92458 0
M  V30 3487 O 324.938 7.50223 2.88825 0
M  V30 3488 H 324.67 0.43771 0.515156 0
M  V30 3489 H 327.224 1.7559 1.0657 0
M  V30 3490 H 325.454 1.41746 3.59785 0
M  V30 3491 H 327.143 1.83573 3.62016 0
M  V30 3492 H 327.909 4.09756 2.5947 0
M  V30 3493 H 323.788 3.14674 3.369 0
M  V30 3494 H 327.332 6.4976 2.53886 0
M  V30 3495 H 323.229 5.53818 3.31596 0
M  V30 3496 H 323.997 7.59657 3.04735 0
M  V30 3497 N 326.66 -1.06551 1.16123 0
M  V30 3498 C 327.89 -1.8274 0.963838 0
M  V30 3499 C 328.298 -1.82712 -0.491228 0
M  V30 3500 O 327.641 -1.24294 -1.35265 0
M  V30 3501 C 327.703 -3.3065 1.41106 0
M  V30 3502 C 327.367 -3.54384 2.88549 0
M  V30 3503 C 328.364 -3.4765 3.86569 0
M  V30 3504 C 326.049 -3.81789 3.26408 0
M  V30 3505 C 328.043 -3.67982 5.2045 0
M  V30 3506 C 325.73 -4.01772 4.60459 0
M  V30 3507 C 326.728 -3.94866 5.57288 0
M  V30 3508 O 326.416 -4.14306 6.88916 0
M  V30 3509 H 326.148 -0.583136 0.341948 0
M  V30 3510 H 328.702 -1.35351 1.54497 0
M  V30 3511 H 326.932 -3.78887 0.773394 0
M  V30 3512 H 328.621 -3.88324 1.1815 0
M  V30 3513 H 329.387 -3.2647 3.58667 0
M  V30 3514 H 325.266 -3.86276 2.51619 0
M  V30 3515 H 328.81 -3.62507 5.96015 0
M  V30 3516 H 324.707 -4.2244 4.88072 0
M  V30 3517 H 325.475 -4.31609 6.95454 0
M  V30 3518 N 328.138 -0.959301 -1.25041 0
M  V30 3519 C 329.386 -0.615393 -1.92503 0
M  V30 3520 C 329.707 0.850969 -1.75452 0
M  V30 3521 O 328.977 1.60658 -1.12098 0
M  V30 3522 H 327.557 -0.224613 -0.712431 0
M  V30 3523 H 330.219 -1.21855 -1.5211 0
M  V30 3524 H 329.315 -0.848738 -3.00338 0
M  V30 3525 N 329.616 1.39756 -0.72842 0
M  V30 3526 C 330.563 2.30647 -0.0841519 0
M  V30 3527 C 331.533 1.48869 0.7367 0
M  V30 3528 O 332.718 1.77574 0.698015 0
M  V30 3529 C 329.858 3.35165 0.822091 0
M  V30 3530 C 328.971 4.31999 -0.0106663 0
M  V30 3531 C 328.106 5.23585 0.896241 0
M  V30 3532 C 327.145 6.12072 0.0583381 0
M  V30 3533 N 326.282 6.96035 0.920818 0
M  V30 3534 H 331.122 2.85173 -0.864891 0
M  V30 3535 H 328.659 1.40422 -0.438179 0
M  V30 3536 H 330.617 3.94345 1.36189 0
M  V30 3537 H 329.247 2.8211 1.56888 0
M  V30 3538 H 328.299 3.74492 -0.66781 0
M  V30 3539 H 329.611 4.9443 -0.658825 0
M  V30 3540 H 328.765 5.87759 1.50412 0
M  V30 3541 H 327.504 4.61459 1.57819 0
M  V30 3542 H 326.509 5.46916 -0.562389 0
M  V30 3543 H 327.734 6.76261 -0.6203 0
M  V30 3544 H 325.68 6.36485 1.58818 0
M  V30 3545 H 325.597 7.55284 0.32899 0
M  V30 3546 H 326.865 7.64646 1.51447 0
M  V30 3547 N 331.094 0.475555 1.50254 0
M  V30 3548 C 332.027 -0.362381 2.25304 0
M  V30 3549 C 333.005 -0.992393 1.28803 0
M  V30 3550 O 334.189 -1.02746 1.58036 0
M  V30 3551 C 331.316 -1.50813 3.03271 0
M  V30 3552 C 330.362 -0.995044 4.1473 0
M  V30 3553 S 331.195 0.0938436 5.35418 0
M  V30 3554 C 332.351 -1.05567 6.16933 0
M  V30 3555 H 332.584 0.274686 2.96028 0
M  V30 3556 H 330.117 0.260495 1.52187 0
M  V30 3557 H 332.075 -2.16476 3.48781 0
M  V30 3558 H 330.736 -2.11672 2.32064 0
M  V30 3559 H 329.929 -1.85293 4.68703 0
M  V30 3560 H 329.531 -0.416052 3.71679 0
M  V30 3561 H 331.823 -1.96636 6.48337 0
M  V30 3562 H 332.766 -0.555109 7.05921 0
M  V30 3563 H 333.174 -1.31151 5.49053 0
M  V30 3564 N 332.573 -1.56217 0.208337 0
M  V30 3565 C 333.503 -2.22694 -0.702116 0
M  V30 3566 C 334.484 -1.19432 -1.2112 0
M  V30 3567 O 335.669 -1.47978 -1.25762 0
M  V30 3568 C 332.799 -2.8966 -1.9161 0
M  V30 3569 C 331.753 -3.9928 -1.5414 0
M  V30 3570 C 331.079 -4.53476 -2.83308 0
M  V30 3571 C 332.379 -5.17012 -0.741339 0
M  V30 3572 H 334.073 -2.99034 -0.147898 0
M  V30 3573 H 331.619 -1.43831 -0.0696951 0
M  V30 3574 H 333.572 -3.34852 -2.55836 0
M  V30 3575 H 332.296 -2.10746 -2.49507 0
M  V30 3576 H 330.955 -3.54799 -0.922668 0
M  V30 3577 H 330.603 -3.71308 -3.39322 0
M  V30 3578 H 330.303 -5.27451 -2.58976 0
M  V30 3579 H 331.827 -5.01378 -3.485 0
M  V30 3580 H 333.241 -5.58667 -1.28699 0
M  V30 3581 H 331.638 -5.97137 -0.595627 0
M  V30 3582 H 332.708 -4.8423 0.254851 0
M  V30 3583 N 334.051 0.0651679 -1.57465 0
M  V30 3584 C 335.328 0.79644 -1.78651 0
M  V30 3585 C 335.708 1.95454 -0.797566 0
M  V30 3586 O 335.056 2.27882 0.167946 0
M  V30 3587 C 335.266 1.26322 -3.25337 0
M  V30 3588 C 336.614 1.6939 -3.89348 0
M  V30 3589 O 337.638 1.35872 -3.29268 0
M  V30 3590 O 336.497 2.31471 -4.95059 0
M  V30 3591 H 333.591 0.382157 -0.733407 0
M  V30 3592 H 336.137 0.0447311 -1.69641 0
M  V30 3593 H 334.909 0.434859 -3.88876 0
M  V30 3594 H 334.532 2.07604 -3.39096 0
M  V30 3595 N 335.529 1.53961 0.336706 0
M  V30 3596 C 336.806 1.62171 1.09361 0
M  V30 3597 C 337.186 0.447263 2.06307 0
M  V30 3598 O 336.534 -0.559802 2.21537 0
M  V30 3599 C 336.744 2.98565 1.80721 0
M  V30 3600 C 338.092 3.54157 2.34218 0
M  V30 3601 O 339.116 3.00784 1.90807 0
M  V30 3602 O 337.975 4.47528 3.13657 0
M  V30 3603 H 335.069 0.6562 0.503319 0
M  V30 3604 H 337.615 1.66307 0.33765 0
M  V30 3605 H 336.387 3.75482 1.10132 0
M  V30 3606 H 336.01 2.9805 2.63158 0
M  V30 3607 N 337.007 -0.598083 1.45811 0
M  V30 3608 C 337.917 -1.73632 1.57763 0
M  V30 3609 C 338.933 -1.67763 0.461676 0
M  V30 3610 O 340.109 -1.87949 0.723685 0
M  V30 3611 C 337.174 -3.10114 1.55018 0
M  V30 3612 C 336.235 -3.27364 2.77726 0
M  V30 3613 C 335.468 -4.57334 2.75102 0
M  V30 3614 O 335.691 -5.40258 1.8297 0
M  V30 3615 O 334.625 -4.77502 3.66437 0
M  V30 3616 H 338.451 -1.66498 2.53992 0
M  V30 3617 H 336.036 -0.763308 1.28429 0
M  V30 3618 H 337.918 -3.9141 1.56129 0
M  V30 3619 H 336.593 -3.17718 0.619431 0
M  V30 3620 H 335.5 -2.45619 2.82174 0
M  V30 3621 H 336.833 -3.24641 3.69958 0
M  V30 3622 N 338.485 -1.33259 -0.841409 0
M  V30 3623 C 339.432 -1.23302 -1.95103 0
M  V30 3624 C 340.402 -0.112204 -1.65721 0
M  V30 3625 O 341.587 -0.290038 -1.88583 0
M  V30 3626 C 338.727 -0.975583 -3.31023 0
M  V30 3627 C 337.84 -2.18243 -3.72819 0
M  V30 3628 C 336.975 -1.85936 -4.97595 0
M  V30 3629 C 336.014 -3.02866 -5.3192 0
M  V30 3630 N 335.151 -2.70565 -6.47873 0
M  V30 3631 H 339.991 -2.18207 -2.02952 0
M  V30 3632 H 337.528 -1.0851 -0.993173 0
M  V30 3633 H 339.486 -0.80677 -4.09325 0
M  V30 3634 H 338.116 -0.0632755 -3.22738 0
M  V30 3635 H 337.168 -2.46107 -2.90061 0
M  V30 3636 H 338.48 -3.05666 -3.94169 0
M  V30 3637 H 337.634 -1.65684 -5.83638 0
M  V30 3638 H 336.373 -0.957452 -4.78209 0
M  V30 3639 H 335.378 -3.23736 -4.44382 0
M  V30 3640 H 336.603 -3.93809 -5.53255 0
M  V30 3641 H 334.549 -1.8293 -6.29978 0
M  V30 3642 H 334.466 -3.51519 -6.69306 0
M  V30 3643 H 335.734 -2.53774 -7.37034 0
M  V30 3644 N 339.963 1.05934 -1.16686 0
M  V30 3645 C 340.895 2.13468 -0.834503 0
M  V30 3646 C 341.908 1.62013 0.15984 0
M  V30 3647 O 343.097 1.7838 -0.0654228 0
M  V30 3648 C 340.197 3.3817 -0.222361 0
M  V30 3649 C 339.37 4.18928 -1.25771 0
M  V30 3650 C 338.429 5.21985 -0.664703 0
M  V30 3651 O 337.455 5.53334 -1.33453 0
M  V30 3652 N 338.657 5.77919 0.546834 0
M  V30 3653 H 341.422 2.42578 -1.75999 0
M  V30 3654 H 338.983 1.21967 -1.06469 0
M  V30 3655 H 340.975 4.04266 0.187472 0
M  V30 3656 H 339.545 3.06655 0.606758 0
M  V30 3657 H 338.765 3.48433 -1.84358 0
M  V30 3658 H 340.053 4.69687 -1.95631 0
M  V30 3659 H 339.451 5.54721 1.10912 0
M  V30 3660 H 338.008 6.45573 0.898829 0
M  V30 3661 N 341.441 0.965919 1.2453 0
M  V30 3662 C 342.388 0.49402 2.25451 0
M  V30 3663 C 343.358 -0.45948 1.59618 0
M  V30 3664 O 344.543 -0.370238 1.87173 0
M  V30 3665 C 341.683 -0.211359 3.44452 0
M  V30 3666 C 340.796 0.7807 4.24887 0
M  V30 3667 C 339.931 0.0516105 5.31175 0
M  V30 3668 C 338.97 1.03385 6.03306 0
M  V30 3669 N 338.107 0.334887 7.01301 0
M  V30 3670 H 342.947 1.35946 2.65184 0
M  V30 3671 H 340.484 0.681515 1.3036 0
M  V30 3672 H 342.442 -0.637 4.12308 0
M  V30 3673 H 341.072 -1.04077 3.05562 0
M  V30 3674 H 340.124 1.32479 3.56586 0
M  V30 3675 H 341.436 1.52978 4.74762 0
M  V30 3676 H 340.59 -0.432114 6.05159 0
M  V30 3677 H 339.329 -0.730179 4.82203 0
M  V30 3678 H 338.334 1.52847 5.28127 0
M  V30 3679 H 339.559 1.81606 6.54367 0
M  V30 3680 H 337.505 -0.427959 6.54603 0
M  V30 3681 H 337.422 1.02287 7.49048 0
M  V30 3682 H 338.69 -0.126928 7.79397 0
M  V30 3683 N 342.919 -1.39368 0.735821 0
M  V30 3684 C 344.144 -2.05319 0.293052 0
M  V30 3685 C 344.569 -1.55115 -1.064 0
M  V30 3686 O 343.927 -0.695261 -1.67439 0
M  V30 3687 C 343.975 -3.59305 0.305323 0
M  V30 3688 O 343.079 -4.06299 -0.706761 0
M  V30 3689 H 342.42 -0.650529 0.13307 0
M  V30 3690 H 344.95 -1.78386 1.00197 0
M  V30 3691 H 344.96 -4.07724 0.149997 0
M  V30 3692 H 343.635 -3.95207 1.29553 0
M  V30 3693 H 342.212 -3.69292 -0.517504 0
M  V30 3694 N 344.397 -0.483516 -1.5 0
M  V30 3695 C 345.643 0.0593261 -2.03313 0
M  V30 3696 C 345.998 1.36288 -1.35806 0
M  V30 3697 O 345.291 1.85519 -0.478897 0
M  V30 3698 C 345.485 0.286226 -3.56252 0
M  V30 3699 C 345.314 -0.993788 -4.38582 0
M  V30 3700 C 344.084 -1.54064 -4.81241 0
M  V30 3701 C 346.282 -1.89249 -4.78215 0
M  V30 3702 N 344.264 -2.76838 -5.47936 0
M  V30 3703 C 345.635 -2.96606 -5.44449 0
M  V30 3704 C 347.69 -1.90138 -4.60165 0
M  V30 3705 C 346.393 -4.04857 -5.94544 0
M  V30 3706 C 348.419 -2.97353 -5.1121 0
M  V30 3707 C 347.781 -4.03429 -5.77429 0
M  V30 3708 H 343.88 -0.0186322 -0.781778 0
M  V30 3709 H 346.464 -0.654489 -1.8337 0
M  V30 3710 H 344.635 0.969086 -3.76116 0
M  V30 3711 H 346.367 0.824515 -3.96212 0
M  V30 3712 H 343.122 -1.08813 -4.6093 0
M  V30 3713 H 343.546 -3.39221 -5.85882 0
M  V30 3714 H 348.188 -1.09441 -4.0839 0
M  V30 3715 H 345.906 -4.86363 -6.4535 0
M  V30 3716 H 349.492 -2.99039 -4.99066 0
M  V30 3717 H 348.372 -4.85025 -6.16214 0
M  V30 3718 N 345.875 1.56104 -0.216619 0
M  V30 3719 C 346.838 2.18819 0.681962 0
M  V30 3720 C 347.838 1.14866 1.12528 0
M  V30 3721 O 349.028 1.40128 1.03488 0
M  V30 3722 C 346.16 2.80756 1.93362 0
M  V30 3723 H 347.353 2.99595 0.135254 0
M  V30 3724 H 344.906 1.56265 0.0330003 0
M  V30 3725 H 345.641 2.03837 2.52232 0
M  V30 3726 H 345.426 3.56876 1.62426 0
M  V30 3727 H 346.916 3.28844 2.57393 0
M  V30 3728 N 347.353 -0.0568162 1.57498 0
M  V30 3729 C 348.263 -1.08346 2.08083 0
M  V30 3730 C 349.279 -1.41439 1.01346 0
M  V30 3731 O 350.455 -1.51316 1.32912 0
M  V30 3732 C 347.52 -2.37352 2.52715 0
M  V30 3733 C 346.581 -2.11093 3.73816 0
M  V30 3734 C 345.814 -3.33949 4.1631 0
M  V30 3735 O 346.037 -4.43622 3.58547 0
M  V30 3736 O 344.971 -3.21279 5.08983 0
M  V30 3737 H 348.797 -0.683667 2.95905 0
M  V30 3738 H 346.382 -0.271965 1.46904 0
M  V30 3739 H 348.264 -3.13246 2.81877 0
M  V30 3740 H 346.939 -2.76681 1.68016 0
M  V30 3741 H 345.846 -1.32856 3.49714 0
M  V30 3742 H 347.179 -1.76637 4.59413 0
M  V30 3743 N 348.832 -1.54138 -0.328536 0
M  V30 3744 C 349.795 -1.82462 -1.38709 0
M  V30 3745 C 350.795 -0.696229 -1.44946 0
M  V30 3746 O 351.985 -0.964535 -1.4506 0
M  V30 3747 C 349.117 -1.98018 -2.77492 0
M  V30 3748 H 350.31 -2.77037 -1.14851 0
M  V30 3749 H 347.863 -1.45779 -0.563751 0
M  V30 3750 H 348.598 -1.05637 -3.06613 0
M  V30 3751 H 348.383 -2.80124 -2.74359 0
M  V30 3752 H 349.873 -2.21396 -3.54081 0
M  V30 3753 N 350.31 0.590341 -1.46126 0
M  V30 3754 C 351.273 1.68194 -1.55703 0
M  V30 3755 C 352.273 1.54808 -0.434868 0
M  V30 3756 O 353.463 1.59564 -0.698928 0
M  V30 3757 C 350.595 3.07575 -1.47005 0
M  V30 3758 H 351.788 1.61064 -2.52979 0
M  V30 3759 H 349.341 0.807541 -1.33823 0
M  V30 3760 H 350.076 3.20268 -0.509785 0
M  V30 3761 H 349.861 3.187 -2.28414 0
M  V30 3762 H 351.351 3.87055 -1.56776 0
M  V30 3763 N 351.788 1.33704 0.83433 0
M  V30 3764 C 353.037 1.24763 1.58484 0
M  V30 3765 C 353.35 -0.183775 1.94735 0
M  V30 3766 O 354.556 -0.395234 2.68608 0
M  V30 3767 C 353.012 2.18638 2.85876 0
M  V30 3768 C 352.62 3.66974 2.56971 0
M  V30 3769 C 354.364 2.18581 3.63899 0
M  V30 3770 C 352.271 4.5275 3.80488 0
M  V30 3771 H 351.201 0.463425 0.594772 0
M  V30 3772 H 353.852 1.58797 0.919551 0
M  V30 3773 H 352.234 1.77542 3.5397 0
M  V30 3774 H 353.408 4.16538 1.9706 0
M  V30 3775 H 351.723 3.69366 1.92244 0
M  V30 3776 H 354.32 2.79894 4.55591 0
M  V30 3777 H 354.663 1.18207 3.99165 0
M  V30 3778 H 355.196 2.58062 3.02735 0
M  V30 3779 H 351.935 5.54017 3.5035 0
M  V30 3780 H 351.455 4.07927 4.39722 0
M  V30 3781 H 353.134 4.66784 4.4802 0
M  V30 3782 N 353.266 -1.05314 1.17247 0
M  V30 3783 C 354.515 -1.77685 0.954521 0
M  V30 3784 C 354.828 -1.88616 -0.518025 0
M  V30 3785 O 356.034 -2.57714 -0.854144 0
M  V30 3786 C 354.49 -3.19402 1.65863 0
M  V30 3787 C 354.098 -3.16605 3.16963 0
M  V30 3788 C 355.842 -3.96237 1.52303 0
M  V30 3789 C 353.749 -4.53103 3.80068 0
M  V30 3790 H 352.679 -0.666 0.353496 0
M  V30 3791 H 355.33 -1.1805 1.40486 0
M  V30 3792 H 353.712 -3.79355 1.13602 0
M  V30 3793 H 354.886 -2.66176 3.76148 0
M  V30 3794 H 353.201 -2.53268 3.30521 0
M  V30 3795 H 355.798 -4.97157 1.96822 0
M  V30 3796 H 356.141 -4.136 0.473401 0
M  V30 3797 H 356.674 -3.42829 2.01775 0
M  V30 3798 H 353.413 -4.40946 4.85023 0
M  V30 3799 H 352.933 -5.03686 3.2567 0
M  V30 3800 H 354.612 -5.22045 3.82202 0
M  V30 3801 N 354.744 -0.972509 -1.24016 0
M  V30 3802 C 355.692 -0.498562 -2.27194 0
M  V30 3803 C 356.686 0.440372 -1.63576 0
M  V30 3804 O 357.892 0.315133 -1.7722 0
M  V30 3805 H 354.267 -0.142775 -0.738322 0
M  V30 3806 H 356.238 -1.38065 -2.64539 0
M  V30 3807 C 354.987 0.191072 -3.47175 0
M  V30 3808 H 354.31 -0.522318 -3.96373 0
M  V30 3809 H 355.75 0.486445 -4.212 0
M  V30 3810 C 354.209 1.41967 -3.05527 0
M  V30 3811 O 354.739 2.51642 -3.13112 0
M  V30 3812 N 352.945 1.28746 -2.60524 0
M  V30 3813 H 352.492 0.395089 -2.54552 0
M  V30 3814 H 352.45 2.11061 -2.33025 0
M  V30 3815 N 356.222 1.38976 -0.743202 0
M  V30 3816 C 357.469 2.00343 -0.294752 0
M  V30 3817 C 357.797 1.58983 1.12047 0
M  V30 3818 O 357.052 0.813809 1.77977 0
M  V30 3819 C 357.351 3.55647 -0.353517 0
M  V30 3820 C 357.017 4.16685 -1.72292 0
M  V30 3821 C 355.679 4.3307 -2.09771 0
M  V30 3822 C 358.031 4.50464 -2.62168 0
M  V30 3823 C 355.359 4.80526 -3.36618 0
M  V30 3824 C 357.711 4.99332 -3.88395 0
M  V30 3825 C 356.375 5.13924 -4.25956 0
M  V30 3826 H 355.645 0.733108 -0.107857 0
M  V30 3827 H 358.292 1.6618 -0.951651 0
M  V30 3828 H 356.597 3.89884 0.386954 0
M  V30 3829 H 358.294 4.00998 0.0117269 0
M  V30 3830 H 354.884 4.04339 -1.42155 0
M  V30 3831 H 359.068 4.37416 -2.3448 0
M  V30 3832 H 354.324 4.90008 -3.65653 0
M  V30 3833 H 358.498 5.2444 -4.58187 0
M  V30 3834 H 356.125 5.50457 -5.2431 0
M  V30 3835 N 357.7 0.491464 1.49741 0
M  V30 3836 C 359.111 0.0413169 1.86654 0
M  V30 3837 C 359.462 -1.36985 1.40462 0
M  V30 3838 O 358.587 -2.01917 0.778354 0
M  V30 3839 C 359.182 0.0682023 3.38731 0
M  V30 3840 C 357.741 -0.32656 3.74981 0
M  V30 3841 C 356.888 0.444888 2.73708 0
M  V30 3842 H 359.839 0.704733 1.42194 0
M  V30 3843 H 359.86 -0.729322 3.73445 0
M  V30 3844 H 359.372 1.09539 3.72321 0
M  V30 3845 H 357.473 -1.35734 3.46997 0
M  V30 3846 H 357.586 -0.013741 4.79098 0
M  V30 3847 H 355.95 -0.104062 2.54487 0
M  V30 3848 H 356.733 1.47197 3.10142 0
M  V30 3849 N 359.178 -1.55987 0.224894 0
M  V30 3850 C 360.403 -2.03232 -0.41369 0
M  V30 3851 C 360.828 -1.10359 -1.52323 0
M  V30 3852 O 360.186 -0.092395 -1.81064 0
M  V30 3853 C 360.234 -3.48682 -0.919405 0
M  V30 3854 O 359.338 -3.58947 -2.03054 0
M  V30 3855 H 358.679 -0.657428 -0.0931903 0
M  V30 3856 H 361.209 -2.01679 0.34451 0
M  V30 3857 H 361.219 -3.8907 -1.22835 0
M  V30 3858 H 359.894 -4.15761 -0.107339 0
M  V30 3859 H 358.471 -3.30448 -1.72796 0
M  V30 3860 N 360.656 0.0484629 -1.57525 0
M  V30 3861 C 361.904 0.741657 -1.88 0
M  V30 3862 C 362.225 1.76918 -0.820054 0
M  V30 3863 O 361.495 1.95335 0.148661 0
M  V30 3864 H 360.075 0.276908 -0.69378 0
M  V30 3865 H 362.737 0.019013 -1.94891 0
M  V30 3866 H 361.833 1.24336 -2.86264 0
M  V30 3867 N 362.134 1.5431 0.320358 0
M  V30 3868 C 363.044 1.86946 1.41734 0
M  V30 3869 C 364.06 0.761689 1.56443 0
M  V30 3870 O 365.236 1.05629 1.71477 0
M  V30 3871 C 362.301 2.09293 2.76401 0
M  V30 3872 C 361.362 3.33082 2.70841 0
M  V30 3873 C 360.595 3.54353 3.99086 0
M  V30 3874 O 360.818 2.79002 4.97508 0
M  V30 3875 O 359.752 4.47838 4.0215 0
M  V30 3876 H 363.578 2.80232 1.17062 0
M  V30 3877 H 361.163 1.40255 0.514673 0
M  V30 3878 H 363.045 2.25303 3.56113 0
M  V30 3879 H 361.72 1.19194 3.00956 0
M  V30 3880 H 360.627 3.22454 1.89668 0
M  V30 3881 H 361.96 4.23249 2.5124 0
M  V30 3882 N 363.613 -0.582584 1.46437 0
M  V30 3883 C 364.563 -1.68654 1.53426 0
M  V30 3884 C 365.547 -1.55971 0.395194 0
M  V30 3885 O 366.739 -1.64884 0.643612 0
M  V30 3886 C 363.868 -3.07439 1.52762 0
M  V30 3887 C 362.954 -3.25418 2.71963 0
M  V30 3888 N 363.345 -3.13556 3.96883 0
M  V30 3889 C 361.643 -3.56357 2.68189 0
M  V30 3890 C 362.344 -3.33543 4.76575 0
M  V30 3891 N 361.32 -3.58704 4.08451 0
M  V30 3892 H 365.122 -1.58014 2.47808 0
M  V30 3893 H 362.636 -0.786617 1.42078 0
M  V30 3894 H 364.633 -3.86671 1.55857 0
M  V30 3895 H 363.293 -3.1921 0.594573 0
M  V30 3896 H 364.304 -2.9142 4.28129 0
M  V30 3897 H 360.981 -3.74812 1.83908 0
M  V30 3898 H 362.371 -3.29555 5.85528 0
M  V30 3899 N 365.091 -1.34144 -0.827227 0
M  V30 3900 C 366.339 -1.26009 -1.58007 0
M  V30 3901 C 366.66 0.170971 -1.94249 0
M  V30 3902 O 365.93 1.10256 -1.61927 0
M  V30 3903 H 364.51 -0.463414 -0.585881 0
M  V30 3904 H 367.172 -1.68005 -0.987951 0
M  V30 3905 H 366.268 -1.86187 -2.50481 0
M  V30 3906 N 366.569 1.04691 -1.17803 0
M  V30 3907 C 367.797 1.81446 -0.99423 0
M  V30 3908 C 368.212 1.83174 0.457459 0
M  V30 3909 O 367.569 1.26265 1.31771 0
M  V30 3910 C 367.62 3.27334 -1.5341 0
M  V30 3911 O 367.341 3.25798 -2.92895 0
M  V30 3912 C 368.842 4.20759 -1.39559 0
M  V30 3913 H 366.062 0.571599 -0.351447 0
M  V30 3914 H 368.606 1.31982 -1.56208 0
M  V30 3915 H 366.761 3.74052 -1.00815 0
M  V30 3916 H 367.175 4.17144 -3.17949 0
M  V30 3917 H 368.649 5.21084 -1.82141 0
M  V30 3918 H 369.126 4.37856 -0.343394 0
M  V30 3919 H 369.732 3.79901 -1.91195 0
M  V30 3920 N 368.047 0.979072 1.23499 0
M  V30 3921 C 368.997 0.489378 2.22686 0
M  V30 3922 C 369.981 -0.434871 1.54912 0
M  V30 3923 O 371.173 -0.263941 1.75021 0
M  V30 3924 C 368.302 -0.208178 3.42668 0
M  V30 3925 C 367.388 0.735563 4.17672 0
M  V30 3926 N 367.779 1.87763 4.69658 0
M  V30 3927 C 366.077 0.548625 4.42613 0
M  V30 3928 C 366.778 2.46886 5.26709 0
M  V30 3929 N 365.754 1.75287 5.14563 0
M  V30 3930 H 369.556 1.36062 2.60508 0
M  V30 3931 H 367.07 0.83958 1.39014 0
M  V30 3932 H 369.067 -0.576295 4.12898 0
M  V30 3933 H 367.727 -1.07572 3.06363 0
M  V30 3934 H 368.738 2.25885 4.66043 0
M  V30 3935 H 365.415 -0.274006 4.166 0
M  V30 3936 H 366.805 3.43326 5.77561 0
M  V30 3937 N 369.525 -1.3858 0.750561 0
M  V30 3938 C 370.472 -2.30483 0.120835 0
M  V30 3939 C 371.442 -1.50022 -0.712923 0
M  V30 3940 O 372.627 -1.78662 -0.669676 0
M  V30 3941 C 369.767 -3.36431 -0.768666 0
M  V30 3942 C 368.88 -4.31927 0.0793922 0
M  V30 3943 C 368.015 -5.24944 -0.81283 0
M  V30 3944 C 367.054 -6.12088 0.0390447 0
M  V30 3945 N 366.191 -6.97412 -0.809969 0
M  V30 3946 H 371.031 -2.83761 0.91015 0
M  V30 3947 H 368.568 -1.39707 0.460463 0
M  V30 3948 H 370.526 -3.96462 -1.29898 0
M  V30 3949 H 369.156 -2.8457 -1.5238 0
M  V30 3950 H 368.208 -3.73382 0.727303 0
M  V30 3951 H 369.52 -4.93319 0.737401 0
M  V30 3952 H 368.674 -5.90078 -1.41042 0
M  V30 3953 H 367.413 -4.63911 -1.50458 0
M  V30 3954 H 366.418 -5.45952 0.649328 0
M  V30 3955 H 367.643 -6.75189 0.727809 0
M  V30 3956 H 365.589 -6.38931 -1.48672 0
M  V30 3957 H 365.506 -7.55712 -0.208789 0
M  V30 3958 H 366.774 -7.66959 -1.39263 0
M  V30 3959 N 371.003 -0.499398 -1.49478 0
M  V30 3960 C 371.951 0.293604 -2.3074 0
M  V30 3961 C 372.945 0.96427 -1.39277 0
M  V30 3962 O 374.151 0.892141 -1.56336 0
M  V30 3963 H 370.526 0.113541 -0.743379 0
M  V30 3964 H 372.497 -0.411772 -2.95545 0
M  V30 3965 C 371.246 1.3462 -3.20582 0
M  V30 3966 H 370.569 0.83954 -3.90886 0
M  V30 3967 H 372.009 1.87308 -3.80384 0
M  V30 3968 C 370.468 2.36351 -2.40083 0
M  V30 3969 O 370.998 3.422 -2.10385 0
M  V30 3970 N 369.204 2.0878 -2.02137 0
M  V30 3971 H 368.751 1.22723 -2.26488 0
M  V30 3972 H 368.709 2.77075 -1.48583 0
M  V30 3973 N 372.481 1.55866 -0.233164 0
M  V30 3974 C 373.73 1.97779 0.39579 0
M  V30 3975 C 374.043 1.12419 1.60066 0
M  V30 3976 O 375.249 1.44283 2.29988 0
M  V30 3977 C 373.705 3.5188 0.755556 0
M  V30 3978 C 373.313 4.45959 -0.427152 0
M  V30 3979 C 375.057 4.02479 1.34946 0
M  V30 3980 C 372.964 5.91383 -0.0443043 0
M  V30 3981 H 371.894 0.738592 0.15165 0
M  V30 3982 H 374.545 1.80486 -0.331212 0
M  V30 3983 H 372.927 3.64816 1.5403 0
M  V30 3984 H 374.101 4.44776 -1.20462 0
M  V30 3985 H 372.416 4.05765 -0.935068 0
M  V30 3986 H 375.013 5.08637 1.649 0
M  V30 3987 H 375.356 3.49014 2.26925 0
M  V30 3988 H 375.889 3.92813 0.62791 0
M  V30 3989 H 372.628 6.48857 -0.930874 0
M  V30 3990 H 372.148 5.95734 0.697238 0
M  V30 3991 H 373.827 6.45893 0.378334 0
M  V30 3992 N 373.959 -0.0401083 1.57549 0
M  V30 3993 C 375.184 -0.748931 1.93406 0
M  V30 3994 C 375.609 -1.68686 0.832274 0
M  V30 3995 O 374.967 -1.80047 -0.212818 0
M  V30 3996 C 375.015 -1.4916 3.28304 0
M  V30 3997 O 374.119 -2.6042 3.19774 0
M  V30 3998 H 373.46 -0.202212 0.63246 0
M  V30 3999 H 375.99 0.00112086 2.046 0
M  V30 4000 H 376 -1.86395 3.62934 0
M  V30 4001 H 374.675 -0.80364 4.08062 0
M  V30 4002 H 373.252 -2.25808 2.96758 0
M  V30 4003 N 375.437 -1.54477 -0.31217 0
M  V30 4004 C 376.685 -1.72884 -1.04668 0
M  V30 4005 C 377.006 -0.511477 -1.88173 0
M  V30 4006 O 376.276 0.474407 -1.90069 0
M  V30 4007 H 374.856 -0.637461 -0.389425 0
M  V30 4008 H 377.518 -1.91807 -0.345852 0
M  V30 4009 H 376.614 -2.61334 -1.70619 0
M  V30 4010 N 376.915 0.57481 -1.46744 0
M  V30 4011 C 378.161 1.3347 -1.52688 0
M  V30 4012 C 378.494 1.93353 -0.181229 0
M  V30 4013 O 377.769 1.76912 0.808237 0
M  V30 4014 C 378.052 2.45811 -2.63152 0
M  V30 4015 C 377.905 1.90912 -4.07275 0
M  V30 4016 C 379.224 3.47822 -2.69644 0
M  V30 4017 H 376.343 0.483935 -0.555856 0
M  V30 4018 H 378.985 0.644968 -1.78718 0
M  V30 4019 H 377.135 3.04646 -2.41088 0
M  V30 4020 H 378.807 1.36473 -4.4065 0
M  V30 4021 H 377.05 1.21691 -4.16382 0
M  V30 4022 H 377.721 2.72042 -4.80309 0
M  V30 4023 H 380.197 2.9888 -2.895 0
M  V30 4024 H 379.073 4.23876 -3.48742 0
M  V30 4025 H 379.334 4.05555 -1.76005 0
M  V30 4026 N 378.394 1.34581 0.820102 0
M  V30 4027 C 379.64 1.27285 1.57881 0
M  V30 4028 C 379.973 -0.156137 1.93571 0
M  V30 4029 O 379.248 -1.10222 1.60254 0
M  V30 4030 C 379.531 2.16639 2.87645 0
M  V30 4031 C 379.384 3.68088 2.58517 0
M  V30 4032 C 380.703 2.05378 3.8924 0
M  V30 4033 H 377.822 0.463714 0.572833 0
M  V30 4034 H 380.464 1.64859 0.944539 0
M  V30 4035 H 378.614 1.84725 3.41773 0
M  V30 4036 H 380.286 4.10382 2.10676 0
M  V30 4037 H 378.529 3.89038 1.91917 0
M  V30 4038 H 379.2 4.2598 3.51063 0
M  V30 4039 H 381.676 2.33404 3.44473 0
M  V30 4040 H 380.552 2.7012 4.77835 0
M  V30 4041 H 380.813 1.0316 4.29896 0
M  V30 4042 N 379.872 -1.04064 1.18357 0
M  V30 4043 C 381.121 -1.76662 0.973313 0
M  V30 4044 C 381.434 -1.89154 -0.497991 0
M  V30 4045 O 382.64 -2.58606 -0.826762 0
M  V30 4046 C 381.096 -3.17624 1.69242 0
M  V30 4047 C 380.704 -3.13225 3.20303 0
M  V30 4048 C 382.448 -3.946 1.56497 0
M  V30 4049 C 380.355 -4.49046 3.84853 0
M  V30 4050 H 379.285 -0.662214 0.36054 0
M  V30 4051 H 381.936 -1.16553 1.41731 0
M  V30 4052 H 380.318 -3.78129 1.1762 0
M  V30 4053 H 381.492 -2.62172 3.78949 0
M  V30 4054 H 379.807 -2.49749 3.33189 0
M  V30 4055 H 382.404 -4.95042 2.02084 0
M  V30 4056 H 382.747 -4.13074 0.517243 0
M  V30 4057 H 383.28 -3.4067 2.05399 0
M  V30 4058 H 380.019 -4.35777 4.89672 0
M  V30 4059 H 379.539 -5.00203 3.30994 0
M  V30 4060 H 381.218 -5.17961 3.87718 0
M  V30 4061 N 381.35 -0.985608 -1.22978 0
M  V30 4062 C 382.313 -0.535071 -2.22867 0
M  V30 4063 C 383.313 0.378123 -1.56291 0
M  V30 4064 O 384.503 0.171092 -1.73358 0
M  V30 4065 C 381.635 0.222702 -3.40172 0
M  V30 4066 H 382.828 -1.41835 -2.6424 0
M  V30 4067 H 380.381 -0.772042 -1.35901 0
M  V30 4068 H 381.116 1.12229 -3.04262 0
M  V30 4069 H 380.901 -0.43288 -3.89703 0
M  V30 4070 H 382.391 0.526335 -4.1427 0
M  V30 4071 N 382.828 1.3818 -0.7579 0
M  V30 4072 C 383.775 2.30416 -0.133057 0
M  V30 4073 C 384.745 1.50398 0.704957 0
M  V30 4074 O 385.93 1.79014 0.660192 0
M  V30 4075 C 383.07 3.36834 0.750813 0
M  V30 4076 C 382.183 4.31879 -0.102297 0
M  V30 4077 C 381.318 5.25368 0.784979 0
M  V30 4078 C 380.357 6.12058 -0.0715046 0
M  V30 4079 N 379.494 6.97832 0.772972 0
M  V30 4080 H 384.334 2.83274 -0.925186 0
M  V30 4081 H 381.871 1.39461 -0.467866 0
M  V30 4082 H 383.829 3.97145 1.27794 0
M  V30 4083 H 382.459 2.85374 1.50868 0
M  V30 4084 H 381.511 3.72991 -0.747095 0
M  V30 4085 H 382.823 4.92921 -0.763552 0
M  V30 4086 H 381.977 5.90818 1.37911 0
M  V30 4087 H 380.716 4.64703 1.47996 0
M  V30 4088 H 379.721 5.456 -0.678272 0
M  V30 4089 H 380.946 6.74793 -0.763606 0
M  V30 4090 H 378.892 6.3971 1.45282 0
M  V30 4091 H 378.809 7.55812 0.168709 0
M  V30 4092 H 380.077 7.67687 1.35194 0
M  V30 4093 N 384.306 0.507319 1.49211 0
M  V30 4094 C 385.256 -0.287112 2.26185 0
M  V30 4095 C 386.24 -0.929983 1.31302 0
M  V30 4096 O 387.432 -0.836538 1.55984 0
M  V30 4097 C 384.561 -1.34718 3.15763 0
M  V30 4098 C 383.647 -0.710235 4.18111 0
M  V30 4099 N 384.038 0.190836 5.0544 0
M  V30 4100 C 382.336 -0.97009 4.35322 0
M  V30 4101 C 383.037 0.55606 5.79036 0
M  V30 4102 N 382.013 -0.0775232 5.43545 0
M  V30 4103 H 385.815 0.406445 2.91076 0
M  V30 4104 H 383.329 0.323814 1.59139 0
M  V30 4105 H 385.326 -1.92982 3.69545 0
M  V30 4106 H 383.986 -2.04235 2.52424 0
M  V30 4107 H 384.997 0.562047 5.14841 0
M  V30 4108 H 381.674 -1.65753 3.83187 0
M  V30 4109 H 383.064 1.2936 6.5933 0
M  V30 4110 N 385.784 -1.5574 0.241426 0
M  V30 4111 C 387.009 -2.0366 -0.392111 0
M  V30 4112 C 387.434 -1.11969 -1.51144 0
M  V30 4113 O 386.792 -0.111594 -1.80956 0
M  V30 4114 C 386.84 -3.49638 -0.882371 0
M  V30 4115 O 385.944 -3.6108 -1.99235 0
M  V30 4116 H 385.285 -0.658379 -0.0862122 0
M  V30 4117 H 387.815 -2.01302 0.365881 0
M  V30 4118 H 387.825 -3.90351 -1.18702 0
M  V30 4119 H 386.5 -4.15852 -0.0632361 0
M  V30 4120 H 385.077 -3.32262 -1.69282 0
M  V30 4121 N 387.262 0.0317525 -1.57568 0
M  V30 4122 C 388.673 0.578692 -1.77505 0
M  V30 4123 C 389.024 1.75749 -0.872164 0
M  V30 4124 O 388.149 2.16298 -0.0663106 0
M  V30 4125 C 388.744 1.05658 -3.21904 0
M  V30 4126 C 387.303 1.54906 -3.43047 0
M  V30 4127 C 386.45 0.485939 -2.73009 0
M  V30 4128 H 389.401 -0.194475 -1.57504 0
M  V30 4129 H 389.422 1.92404 -3.28269 0
M  V30 4130 H 388.934 0.198422 -3.87592 0
M  V30 4131 H 387.035 2.42915 -2.82529 0
M  V30 4132 H 387.148 1.59841 -4.5165 0
M  V30 4133 H 385.512 0.940354 -2.36705 0
M  V30 4134 H 386.295 -0.362709 -3.41379 0
M  V30 4135 N 388.74 1.54641 0.303973 0
M  V30 4136 C 389.688 1.86137 1.39484 0
M  V30 4137 C 390.682 0.734854 1.52631 0
M  V30 4138 O 391.888 0.918803 1.54784 0
M  V30 4139 H 388.263 0.590324 0.465856 0
M  V30 4140 H 390.234 2.77324 1.10154 0
M  V30 4141 C 388.983 2.12274 2.75382 0
M  V30 4142 H 388.306 2.98429 2.66046 0
M  V30 4143 H 389.746 2.38254 3.5073 0
M  V30 4144 C 388.205 0.920365 3.24085 0
M  V30 4145 O 388.735 0.139377 4.01458 0
M  V30 4146 N 386.941 0.726566 2.81371 0
M  V30 4147 H 386.488 1.36332 2.18567 0
M  V30 4148 H 386.446 -0.0763799 3.14307 0
M  V30 4149 N 390.218 -0.567019 1.47046 0
M  V30 4150 C 391.165 -1.67489 1.58796 0
M  V30 4151 C 392.135 -1.60399 0.43144 0
M  V30 4152 O 393.32 -1.79378 0.650233 0
M  V30 4153 C 390.46 -3.05821 1.59899 0
M  V30 4154 C 389.573 -3.2342 2.86397 0
M  V30 4155 C 388.708 -4.52093 2.789 0
M  V30 4156 C 387.747 -4.6309 4.00267 0
M  V30 4157 N 386.884 -5.83106 3.91064 0
M  V30 4158 H 391.724 -1.56785 2.53422 0
M  V30 4159 H 389.261 -0.763896 1.2571 0
M  V30 4160 H 391.219 -3.8591 1.58522 0
M  V30 4161 H 389.849 -3.15384 0.687929 0
M  V30 4162 H 388.901 -2.3683 2.97684 0
M  V30 4163 H 390.213 -3.27412 3.76301 0
M  V30 4164 H 389.367 -5.4043 2.75718 0
M  V30 4165 H 388.106 -4.50565 1.86662 0
M  V30 4166 H 387.111 -3.73168 4.03765 0
M  V30 4167 H 388.336 -4.66386 4.93621 0
M  V30 4168 H 386.282 -5.82546 3.01623 0
M  V30 4169 H 386.199 -5.88434 4.74638 0
M  V30 4170 H 387.467 -6.73831 3.91882 0
M  V30 4171 N 391.696 -1.35014 -0.812953 0
M  V30 4172 C 392.659 -1.27292 -1.90602 0
M  V30 4173 C 393.659 -0.185817 -1.59723 0
M  V30 4174 O 394.849 -0.439102 -1.68575 0
M  V30 4175 C 391.981 -0.967676 -3.26877 0
M  V30 4176 H 393.174 -2.24479 -1.9887 0
M  V30 4177 H 390.727 -1.19446 -1.00808 0
M  V30 4178 H 391.462 0.0005954 -3.243 0
M  V30 4179 H 391.247 -1.75412 -3.50675 0
M  V30 4180 H 392.737 -0.939085 -4.06904 0
M  V30 4181 N 393.175 1.03435 -1.18907 0
M  V30 4182 C 394.123 2.13703 -0.918353 0
M  V30 4183 C 395.117 1.68947 0.123767 0
M  V30 4184 O 396.323 1.79983 -0.0249701 0
M  V30 4185 H 392.698 0.698112 -0.279542 0
M  V30 4186 H 394.669 2.33731 -1.85506 0
M  V30 4187 C 393.418 3.44542 -0.467532 0
M  V30 4188 H 392.741 3.79394 -1.26095 0
M  V30 4189 H 394.181 4.22812 -0.317164 0
M  V30 4190 C 392.64 3.26829 0.817588 0
M  V30 4191 O 393.17 3.54975 1.88031 0
M  V30 4192 N 391.376 2.80139 0.772677 0
M  V30 4193 H 390.923 2.57434 -0.0923883 0
M  V30 4194 H 390.881 2.68668 1.63294 0
M  V30 4195 N 394.653 0.992116 1.22453 0
M  V30 4196 C 395.616 0.546883 2.2258 0
M  V30 4197 C 396.616 -0.369829 1.56489 0
M  V30 4198 O 397.806 -0.161896 1.73446 0
M  V30 4199 C 394.938 -0.204659 3.40285 0
M  V30 4200 H 396.131 1.43234 2.63484 0
M  V30 4201 H 393.684 0.779239 1.3549 0
M  V30 4202 H 394.419 -1.10614 3.04853 0
M  V30 4203 H 394.204 0.45354 3.89468 0
M  V30 4204 H 395.694 -0.504358 4.14543 0
M  V30 4205 N 396.131 -1.37776 0.765217 0
M  V30 4206 C 397.377 -2.00145 0.327072 0
M  V30 4207 C 397.71 -1.60607 -1.09175 0
M  V30 4208 O 396.985 -0.849127 -1.74986 0
M  V30 4209 C 397.268 -3.57109 0.46319 0
M  V30 4210 C 397.121 -4.06576 1.92395 0
M  V30 4211 C 398.44 -4.39888 -0.136473 0
M  V30 4212 H 395.559 -0.727113 0.120316 0
M  V30 4213 H 398.201 -1.63549 0.967039 0
M  V30 4214 H 396.351 -3.88414 -0.0816358 0
M  V30 4215 H 398.023 -3.85864 2.52798 0
M  V30 4216 H 396.266 -3.59011 2.43503 0
M  V30 4217 H 396.937 -5.15639 1.97028 0
M  V30 4218 H 399.413 -4.14803 0.328317 0
M  V30 4219 H 398.289 -5.48899 -0.0110582 0
M  V30 4220 H 398.55 -4.24758 -1.22608 0
M  V30 4221 N 397.609 -0.515225 -1.4894 0
M  V30 4222 C 398.556 0.255567 -2.29381 0
M  V30 4223 C 399.526 0.947387 -1.36432 0
M  V30 4224 O 400.711 0.951288 -1.65394 0
M  V30 4225 C 397.851 1.30551 -3.19453 0
M  V30 4226 C 396.964 0.624029 -4.27469 0
M  V30 4227 C 396.099 1.65563 -5.0474 0
M  V30 4228 C 395.138 0.956802 -6.04576 0
M  V30 4229 N 394.275 1.93326 -6.74959 0
M  V30 4230 H 399.115 -0.436607 -2.94784 0
M  V30 4231 H 396.652 -0.227154 -1.45336 0
M  V30 4232 H 398.61 1.92639 -3.70062 0
M  V30 4233 H 397.24 1.96626 -2.56004 0
M  V30 4234 H 396.292 -0.110459 -3.8024 0
M  V30 4235 H 397.604 0.0746092 -4.98744 0
M  V30 4236 H 396.758 2.35119 -5.59289 0
M  V30 4237 H 395.497 2.23893 -4.3327 0
M  V30 4238 H 394.502 0.247097 -5.49244 0
M  V30 4239 H 395.727 0.379814 -6.78037 0
M  V30 4240 H 393.673 2.50591 -6.06251 0
M  V30 4241 H 393.59 1.43489 -7.42258 0
M  V30 4242 H 394.858 2.62126 -7.34105 0
M  V30 4243 N 399.087 1.5561 -0.249682 0
M  V30 4244 C 400.017 2.24477 0.642826 0
M  V30 4245 C 400.998 1.22601 1.17911 0
M  V30 4246 O 402.183 1.5126 1.21795 0
M  V30 4247 C 399.313 2.94638 1.83863 0
M  V30 4248 C 398.267 4.03227 1.435 0
M  V30 4249 C 397.593 4.60828 2.71186 0
M  V30 4250 C 398.893 5.18796 0.604002 0
M  V30 4251 H 400.587 2.99321 0.0685625 0
M  V30 4252 H 398.133 1.43965 0.0315363 0
M  V30 4253 H 400.086 3.41517 2.46868 0
M  V30 4254 H 398.81 2.17287 2.43832 0
M  V30 4255 H 397.469 3.57121 0.828275 0
M  V30 4256 H 397.117 3.80174 3.29358 0
M  V30 4257 H 396.817 5.34132 2.44901 0
M  V30 4258 H 398.341 5.10442 3.35084 0
M  V30 4259 H 399.755 5.61883 1.13842 0
M  V30 4260 H 398.152 5.98506 0.437097 0
M  V30 4261 H 399.222 4.83384 -0.383147 0
M  V30 4262 N 400.565 -0.0233959 1.57583 0
M  V30 4263 C 401.814 -0.712133 1.8871 0
M  V30 4264 C 402.127 -1.76217 0.848944 0
M  V30 4265 O 403.333 -2.50389 1.04964 0
M  V30 4266 C 401.789 -1.3177 3.3491 0
M  V30 4267 C 401.397 -0.303715 4.46969 0
M  V30 4268 C 403.141 -1.98598 3.75179 0
M  V30 4269 C 401.048 -0.917945 5.84233 0
M  V30 4270 H 399.978 -0.269735 0.704101 0
M  V30 4271 H 402.629 0.0333114 1.8347 0
M  V30 4272 H 401.011 -2.11304 3.34913 0
M  V30 4273 H 402.185 0.465325 4.58445 0
M  V30 4274 H 400.5 0.2628 4.1557 0
M  V30 4275 H 403.097 -2.45416 4.75053 0
M  V30 4276 H 403.44 -2.80659 3.07468 0
M  V30 4277 H 403.973 -1.25831 3.77374 0
M  V30 4278 H 400.712 -0.136633 6.55358 0
M  V30 4279 H 400.232 -1.65669 5.76467 0
M  V30 4280 H 401.911 -1.4236 6.31144 0
M  V30 4281 N 402.043 -1.548 -0.295768 0
M  V30 4282 C 402.953 -1.89177 -1.38742 0
M  V30 4283 C 403.969 -0.786481 -1.55211 0
M  V30 4284 O 405.145 -1.08344 -1.69775 0
M  V30 4285 C 402.21 -2.13663 -2.73036 0
M  V30 4286 C 401.271 -3.37349 -2.65508 0
M  V30 4287 C 400.504 -3.60658 -3.93398 0
M  V30 4288 O 400.727 -2.86882 -4.93006 0
M  V30 4289 O 399.661 -4.54179 -3.94975 0
M  V30 4290 H 403.487 -2.82059 -1.12589 0
M  V30 4291 H 401.072 -1.41056 -0.492295 0
M  V30 4292 H 402.954 -2.3094 -3.52484 0
M  V30 4293 H 401.629 -1.23967 -2.99022 0
M  V30 4294 H 400.536 -3.25431 -1.84514 0
M  V30 4295 H 401.869 -4.27192 -2.44474 0
M  V30 4296 N 403.521 0.559213 -1.47345 0
M  V30 4297 C 404.751 1.33999 -1.57251 0
M  V30 4298 C 405.159 1.87905 -0.220978 0
M  V30 4299 O 404.502 1.65577 0.795617 0
M  V30 4300 C 404.564 2.54798 -2.53611 0
M  V30 4301 C 404.228 2.22192 -3.99349 0
M  V30 4302 C 405.225 1.79607 -4.87891 0
M  V30 4303 C 402.91 2.33613 -4.44669 0
M  V30 4304 C 404.904 1.48868 -6.19772 0
M  V30 4305 C 402.591 2.02487 -5.76578 0
M  V30 4306 C 403.589 1.60183 -6.63951 0
M  V30 4307 O 403.277 1.29451 -7.93409 0
M  V30 4308 H 403.009 0.414858 -0.533731 0
M  V30 4309 H 405.563 0.684465 -1.9366 0
M  V30 4310 H 403.793 3.23235 -2.12265 0
M  V30 4311 H 405.482 3.16873 -2.53666 0
M  V30 4312 H 406.248 1.70278 -4.54126 0
M  V30 4313 H 402.127 2.65501 -3.76869 0
M  V30 4314 H 405.671 1.15775 -6.87926 0
M  V30 4315 H 401.568 2.11448 -6.09885 0
M  V30 4316 H 402.336 1.43098 -8.05894 0
M  V30 4317 N 404.999 1.35443 0.805782 0
M  V30 4318 C 405.929 1.31095 1.93226 0
M  V30 4319 C 406.91 0.185244 1.69088 0
M  V30 4320 O 408.095 0.380332 1.90439 0
M  V30 4321 C 405.225 1.08299 3.29983 0
M  V30 4322 C 404.179 2.17519 3.68605 0
M  V30 4323 C 403.505 1.79887 5.03532 0
M  V30 4324 C 404.805 3.5949 3.78898 0
M  V30 4325 H 406.499 2.25352 1.97122 0
M  V30 4326 H 404.045 1.0848 0.946996 0
M  V30 4327 H 405.998 1.03897 4.08391 0
M  V30 4328 H 404.722 0.104885 3.26432 0
M  V30 4329 H 403.381 2.2102 2.92482 0
M  V30 4330 H 403.029 0.80693 4.96485 0
M  V30 4331 H 402.729 2.53001 5.30344 0
M  V30 4332 H 404.253 1.77011 5.84379 0
M  V30 4333 H 405.667 3.58307 4.47536 0
M  V30 4334 H 404.064 4.31371 4.1718 0
M  V30 4335 H 405.134 3.95584 2.80431 0
M  V30 4336 N 406.477 -1.02803 1.19454 0
M  V30 4337 C 407.702 -1.80378 1.02364 0
M  V30 4338 C 408.127 -1.83282 -0.423007 0
M  V30 4339 O 407.485 -1.25945 -1.30413 0
M  V30 4340 C 407.533 -3.23248 1.59821 0
M  V30 4341 O 406.637 -4.04 0.828105 0
M  V30 4342 H 405.978 -0.556799 0.361761 0
M  V30 4343 H 408.508 -1.29385 1.58495 0
M  V30 4344 H 408.518 -3.73994 1.63073 0
M  V30 4345 H 407.193 -3.2045 2.65113 0
M  V30 4346 H 405.77 -3.62635 0.86891 0
M  V30 4347 N 407.956 -0.998596 -1.21925 0
M  V30 4348 C 409.204 -0.676325 -1.90448 0
M  V30 4349 C 409.525 0.794719 -1.78071 0
M  V30 4350 O 408.795 1.5701 -1.17152 0
M  V30 4351 H 407.375 -0.247165 -0.704925 0
M  V30 4352 H 410.037 -1.26633 -1.48156 0
M  V30 4353 H 409.133 -0.943858 -2.97486 0
M  V30 4354 N 409.434 1.37368 -0.772513 0
M  V30 4355 C 410.344 2.34053 -0.160081 0
M  V30 4356 C 411.36 1.60216 0.678728 0
M  V30 4357 O 412.536 1.92303 0.59847 0
M  V30 4358 C 409.601 3.3939 0.708182 0
M  V30 4359 C 408.662 4.29048 -0.147172 0
M  V30 4360 C 407.895 5.29354 0.679744 0
M  V30 4361 O 408.118 5.3723 1.91678 0
M  V30 4362 O 407.052 6.01835 0.0885444 0
M  V30 4363 H 410.878 2.88159 -0.959053 0
M  V30 4364 H 408.463 1.39543 -0.533685 0
M  V30 4365 H 410.345 4.03839 1.20384 0
M  V30 4366 H 409.02 2.8761 1.48533 0
M  V30 4367 H 407.927 3.67697 -0.689205 0
M  V30 4368 H 409.26 4.84134 -0.887423 0
M  V30 4369 N 410.912 0.523116 1.48665 0
M  V30 4370 C 411.859 -0.243398 2.29513 0
M  V30 4371 C 412.829 -0.940139 1.36933 0
M  V30 4372 O 414.014 -0.942503 1.65896 0
M  V30 4373 C 411.154 -1.28855 3.20141 0
M  V30 4374 C 410.267 -0.60135 4.27794 0
M  V30 4375 C 409.402 -1.62884 5.05611 0
M  V30 4376 C 408.441 -0.924726 6.05075 0
M  V30 4377 N 407.578 -1.89744 6.75975 0
M  V30 4378 H 412.418 0.452234 2.94549 0
M  V30 4379 H 409.955 0.234858 1.45213 0
M  V30 4380 H 411.913 -1.90674 3.71079 0
M  V30 4381 H 410.543 -1.95266 2.57043 0
M  V30 4382 H 409.595 0.130623 3.80176 0
M  V30 4383 H 410.907 -0.0481585 4.98777 0
M  V30 4384 H 410.061 -2.32149 5.60528 0
M  V30 4385 H 408.8 -2.21592 4.34452 0
M  V30 4386 H 407.805 -0.217966 5.49368 0
M  V30 4387 H 409.03 -0.343851 6.78229 0
M  V30 4388 H 406.976 -2.47373 6.07571 0
M  V30 4389 H 406.893 -1.3955 7.43009 0
M  V30 4390 H 408.161 -2.58229 7.35485 0
M  V30 4391 N 412.39 -1.55475 0.257931 0
M  V30 4392 C 413.353 -2.20551 -0.623706 0
M  V30 4393 C 414.353 -1.17809 -1.09443 0
M  V30 4394 O 415.543 -1.42823 -0.997362 0
M  V30 4395 C 412.675 -2.85784 -1.8585 0
M  V30 4396 H 413.868 -2.99848 -0.0557743 0
M  V30 4397 H 411.421 -1.56298 0.0084422 0
M  V30 4398 H 412.156 -2.10453 -2.46739 0
M  V30 4399 H 411.941 -3.61057 -1.52907 0
M  V30 4400 H 413.431 -3.35553 -2.48584 0
M  V30 4401 N 413.868 0.0150385 -1.57593 0
M  V30 4402 C 414.8 1.03912 -2.04291 0
M  V30 4403 C 415.813 1.31618 -0.958146 0
M  V30 4404 O 417.002 1.28859 -1.23522 0
M  V30 4405 C 414.102 2.37749 -2.41514 0
M  V30 4406 C 413.275 2.29198 -3.72541 0
M  V30 4407 C 412.334 3.45598 -3.96797 0
M  V30 4408 O 411.36 3.24461 -4.67668 0
M  V30 4409 N 412.562 4.67945 -3.43523 0
M  V30 4410 H 415.327 0.64099 -2.92765 0
M  V30 4411 H 412.888 0.20272 -1.60626 0
M  V30 4412 H 414.88 3.14364 -2.54867 0
M  V30 4413 H 413.45 2.69357 -1.58637 0
M  V30 4414 H 412.67 1.3759 -3.69408 0
M  V30 4415 H 413.958 2.20642 -4.5847 0
M  V30 4416 H 413.356 4.88017 -2.86104 0
M  V30 4417 H 411.913 5.41878 -3.62232 0
M  V30 4418 N 415.346 1.54954 0.287554 0
M  V30 4419 C 416.594 1.74528 1.01904 0
M  V30 4420 C 416.915 0.541349 1.87335 0
M  V30 4421 O 416.185 -0.444108 1.908 0
M  V30 4422 H 414.765 0.643576 0.379235 0
M  V30 4423 H 417.427 1.92333 0.315294 0
M  V30 4424 H 416.523 2.64015 1.6644 0
M  V30 4425 N 416.824 -0.551391 1.4764 0
M  V30 4426 C 417.754 -1.66757 1.63445 0
M  V30 4427 C 418.735 -1.63077 0.483742 0
M  V30 4428 O 419.92 -1.80607 0.71377 0
M  V30 4429 C 417.05 -3.05387 1.65396 0
M  V30 4430 C 416.004 -3.23918 2.79752 0
M  V30 4431 C 415.33 -4.63393 2.66779 0
M  V30 4432 C 416.63 -3.08735 4.21284 0
M  V30 4433 H 418.324 -1.53786 2.56886 0
M  V30 4434 H 415.87 -0.738415 1.23626 0
M  V30 4435 H 417.823 -3.83325 1.75043 0
M  V30 4436 H 416.547 -3.19332 0.685195 0
M  V30 4437 H 415.206 -2.48391 2.69625 0
M  V30 4438 H 414.854 -4.74144 1.67918 0
M  V30 4439 H 414.554 -4.7674 3.43501 0
M  V30 4440 H 416.078 -5.43458 2.78364 0
M  V30 4441 H 417.492 -3.76484 4.32357 0
M  V30 4442 H 415.889 -3.33588 4.98838 0
M  V30 4443 H 416.959 -2.0541 4.39243 0
M  V30 4444 N 418.302 -1.35869 -0.798587 0
M  V30 4445 C 419.532 -1.32529 -1.58491 0
M  V30 4446 C 419.94 0.0975405 -1.88948 0
M  V30 4447 O 419.283 1.06224 -1.49874 0
M  V30 4448 C 419.345 -2.07247 -2.9375 0
M  V30 4449 C 419.009 -3.56391 -2.86068 0
M  V30 4450 C 420.006 -4.50824 -2.58947 0
M  V30 4451 C 417.691 -3.9915 -3.04933 0
M  V30 4452 C 419.685 -5.85993 -2.5078 0
M  V30 4453 C 417.372 -5.34413 -2.96389 0
M  V30 4454 C 418.37 -6.27646 -2.69349 0
M  V30 4455 O 418.058 -7.60426 -2.60782 0
M  V30 4456 H 417.79 -0.456529 -0.498556 0
M  V30 4457 H 420.344 -1.79425 -0.999799 0
M  V30 4458 H 418.574 -1.55001 -3.54276 0
M  V30 4459 H 420.263 -1.96883 -3.54954 0
M  V30 4460 H 421.029 -4.19104 -2.44084 0
M  V30 4461 H 416.908 -3.26961 -3.24989 0
M  V30 4462 H 420.452 -6.58735 -2.29595 0
M  V30 4463 H 416.349 -5.65743 -3.10813 0
M  V30 4464 H 417.117 -7.70444 -2.76331 0
M  V30 4465 N 419.78 1.02168 -1.19998 0
M  V30 4466 C 420.743 2.08765 -0.94604 0
M  V30 4467 C 421.743 1.60618 0.0763846 0
M  V30 4468 O 422.933 1.73472 -0.159135 0
M  V30 4469 C 420.065 3.38262 -0.423255 0
M  V30 4470 H 421.258 2.32726 -1.89153 0
M  V30 4471 H 418.811 1.1889 -1.01464 0
M  V30 4472 H 419.546 3.19974 0.527938 0
M  V30 4473 H 419.331 3.74532 -1.16053 0
M  V30 4474 H 420.821 4.16759 -0.264911 0
M  V30 4475 N 421.258 1.00505 1.21394 0
M  V30 4476 C 422.168 0.574806 2.27449 0
M  V30 4477 C 423.184 -0.382206 1.6975 0
M  V30 4478 O 424.36 -0.246027 1.99892 0
M  V30 4479 C 421.425 -0.0917414 3.46579 0
M  V30 4480 C 420.486 0.909758 4.1955 0
M  V30 4481 C 419.719 0.274924 5.32991 0
M  V30 4482 O 419.942 -0.928254 5.62796 0
M  V30 4483 O 418.876 0.985877 5.93771 0
M  V30 4484 H 422.702 1.45744 2.66444 0
M  V30 4485 H 420.287 0.773923 1.27792 0
M  V30 4486 H 422.169 -0.464551 4.18832 0
M  V30 4487 H 420.844 -0.948755 3.09484 0
M  V30 4488 H 419.751 1.33372 3.49518 0
M  V30 4489 H 421.084 1.73636 4.60555 0
M  V30 4490 N 422.737 -1.36956 0.779787 0
M  V30 4491 C 423.667 -2.32761 0.185651 0
M  V30 4492 C 424.648 -1.56177 -0.673989 0
M  V30 4493 O 425.833 -1.84378 -0.609797 0
M  V30 4494 C 422.963 -3.40418 -0.687964 0
M  V30 4495 C 421.917 -4.27941 0.0710102 0
M  V30 4496 C 421.243 -5.26681 -0.922573 0
M  V30 4497 C 422.543 -5.07006 1.25467 0
M  V30 4498 H 424.237 -2.82698 0.986008 0
M  V30 4499 H 421.783 -1.3592 0.475592 0
M  V30 4500 H 423.736 -4.06423 -1.11348 0
M  V30 4501 H 422.46 -2.89025 -1.52093 0
M  V30 4502 H 421.119 -3.63478 0.47739 0
M  V30 4503 H 420.767 -4.71565 -1.7503 0
M  V30 4504 H 420.467 -5.86103 -0.419237 0
M  V30 4505 H 421.991 -5.9556 -1.34686 0
M  V30 4506 H 423.405 -5.66105 0.905401 0
M  V30 4507 H 421.802 -5.75793 1.69063 0
M  V30 4508 H 422.872 -4.3921 2.05481 0
M  V30 4509 N 424.215 -0.530993 -1.48385 0
M  V30 4510 C 425.163 0.244595 -2.3131 0
M  V30 4511 C 426.157 0.93451 -1.41291 0
M  V30 4512 O 427.363 0.85878 -1.58193 0
M  V30 4513 H 423.738 0.0977472 -0.74562 0
M  V30 4514 H 425.709 -0.474369 -2.94605 0
M  V30 4515 C 424.458 1.2779 -3.23365 0
M  V30 4516 H 423.781 0.756439 -3.92579 0
M  V30 4517 H 425.221 1.79198 -3.84271 0
M  V30 4518 C 423.68 2.31205 -2.45042 0
M  V30 4519 O 424.21 3.37661 -2.17596 0
M  V30 4520 N 422.416 2.04446 -2.0652 0
M  V30 4521 H 421.963 1.17891 -2.2904 0
M  V30 4522 H 421.921 2.73861 -1.54427 0
M  V30 4523 N 425.693 1.55336 -0.266172 0
M  V30 4524 C 426.643 2.18848 0.639497 0
M  V30 4525 C 427.627 1.1503 1.12503 0
M  V30 4526 O 428.819 1.40875 1.0716 0
M  V30 4527 C 425.948 2.90626 1.82733 0
M  V30 4528 C 425.034 4.01723 1.35939 0
M  V30 4529 N 425.425 5.02145 0.606988 0
M  V30 4530 C 423.723 4.1463 1.6431 0
M  V30 4531 C 424.424 5.80572 0.362138 0
M  V30 4532 N 423.4 5.35551 0.931971 0
M  V30 4533 H 427.202 2.93845 0.0567057 0
M  V30 4534 H 424.716 1.62252 -0.0693312 0
M  V30 4535 H 426.713 3.34569 2.48735 0
M  V30 4536 H 425.373 2.17137 2.41416 0
M  V30 4537 H 426.384 5.17271 0.255198 0
M  V30 4538 H 423.061 3.52326 2.23993 0
M  V30 4539 H 424.451 6.71472 -0.239848 0
M  V30 4540 N 427.171 -0.0066808 1.57599 0
M  V30 4541 C 428.081 -1.01671 2.11424 0
M  V30 4542 C 429.097 -1.38143 1.05795 0
M  V30 4543 O 430.273 -1.47011 1.37658 0
M  V30 4544 C 427.338 -2.29192 2.60139 0
M  V30 4545 C 426.399 -1.99094 3.80342 0
M  V30 4546 C 425.632 -3.20535 4.26724 0
M  V30 4547 O 425.855 -4.3199 3.72479 0
M  V30 4548 O 424.789 -3.04924 5.18946 0
M  V30 4549 H 428.615 -0.589181 2.9793 0
M  V30 4550 H 426.2 -0.225091 1.47695 0
M  V30 4551 H 428.082 -3.0412 2.917 0
M  V30 4552 H 426.757 -2.71195 1.76733 0
M  V30 4553 H 425.664 -1.21663 3.53764 0
M  V30 4554 H 426.997 -1.61931 4.648 0
M  V30 4555 N 428.649 -1.55105 -0.279332 0
M  V30 4556 C 429.879 -1.7917 -1.02867 0
M  V30 4557 C 430.287 -0.56204 -1.80659 0
M  V30 4558 O 429.63 0.478266 -1.77365 0
M  V30 4559 C 429.692 -2.96061 -2.03932 0
M  V30 4560 C 429.356 -4.33341 -1.45137 0
M  V30 4561 C 430.353 -5.12565 -0.870266 0
M  V30 4562 C 428.038 -4.79987 -1.48048 0
M  V30 4563 C 430.032 -6.36565 -0.326097 0
M  V30 4564 C 427.719 -6.03944 -0.932443 0
M  V30 4565 C 428.717 -6.8207 -0.356247 0
M  V30 4566 O 428.405 -8.03691 0.183412 0
M  V30 4567 H 428.137 -0.600796 -0.309872 0
M  V30 4568 H 430.691 -2.02932 -0.317468 0
M  V30 4569 H 428.921 -2.67975 -2.78794 0
M  V30 4570 H 430.61 -3.07506 -2.64943 0
M  V30 4571 H 431.376 -4.77661 -0.840521 0
M  V30 4572 H 427.255 -4.1919 -1.91835 0
M  V30 4573 H 430.799 -6.97489 0.124286 0
M  V30 4574 H 426.696 -6.3833 -0.959407 0
M  V30 4575 H 427.464 -8.18468 0.0721681 0
M  V30 4576 N 430.127 0.543554 -1.4793 0
M  V30 4577 C 431.538 1.12561 -1.48953 0
M  V30 4578 C 431.889 1.94578 -0.251754 0
M  V30 4579 O 431.014 2.0665 0.642255 0
M  V30 4580 C 431.609 2.04801 -2.69892 0
M  V30 4581 C 430.168 2.58251 -2.73831 0
M  V30 4582 C 429.315 1.34918 -2.42265 0
M  V30 4583 H 432.266 0.32947 -1.55242 0
M  V30 4584 H 432.287 2.88886 -2.47639 0
M  V30 4585 H 431.799 1.4508 -3.59963 0
M  V30 4586 H 429.9 3.21732 -1.87934 0
M  V30 4587 H 430.013 2.98312 -3.74895 0
M  V30 4588 H 428.377 1.66046 -1.93134 0
M  V30 4589 H 429.16 0.769693 -3.3456 0
M  V30 4590 N 431.605 1.3629 0.791371 0
M  V30 4591 C 432.851 1.30605 1.55146 0
M  V30 4592 C 433.184 -0.115042 1.93859 0
M  V30 4593 O 432.459 -1.06798 1.62556 0
M  V30 4594 C 432.742 2.22692 2.82985 0
M  V30 4595 C 432.595 3.73489 2.50651 0
M  V30 4596 C 433.914 2.13588 3.84796 0
M  V30 4597 H 431.033 0.475761 0.562868 0
M  V30 4598 H 433.675 1.66825 0.909358 0
M  V30 4599 H 431.825 1.91933 3.37778 0
M  V30 4600 H 433.497 4.14758 2.01924 0
M  V30 4601 H 431.74 3.93021 1.83622 0
M  V30 4602 H 432.411 4.3333 3.41949 0
M  V30 4603 H 434.887 2.40659 3.39445 0
M  V30 4604 H 433.763 2.80195 4.71998 0
M  V30 4605 H 434.024 1.12256 4.27611 0
M  V30 4606 N 433.083 -1.0153 1.20538 0
M  V30 4607 C 434.03 -2.10098 0.955383 0
M  V30 4608 C 435 -1.65702 -0.114878 0
M  V30 4609 O 436.185 -1.90776 0.0301118 0
M  V30 4610 C 433.325 -3.41236 0.514969 0
M  V30 4611 C 432.438 -3.99102 1.65353 0
M  V30 4612 C 431.573 -5.18306 1.16329 0
M  V30 4613 C 430.612 -5.68258 2.27485 0
M  V30 4614 N 429.749 -6.78722 1.7967 0
M  V30 4615 H 434.589 -2.30818 1.88486 0
M  V30 4616 H 432.126 -1.13189 0.939499 0
M  V30 4617 H 434.084 -4.16504 0.240935 0
M  V30 4618 H 432.714 -3.20585 -0.377512 0
M  V30 4619 H 431.766 -3.20918 2.04245 0
M  V30 4620 H 433.078 -4.32177 2.49047 0
M  V30 4621 H 432.232 -6.00782 0.845302 0
M  V30 4622 H 430.971 -4.86799 0.296254 0
M  V30 4623 H 429.976 -4.84385 2.60099 0
M  V30 4624 H 431.201 -6.01798 3.14667 0
M  V30 4625 H 429.147 -6.49042 0.95295 0
M  V30 4626 H 429.064 -7.10996 2.56944 0
M  V30 4627 H 430.332 -7.64759 1.50875 0
M  V30 4628 N 434.561 -1.01147 -1.20859 0
M  V30 4629 C 435.471 -0.58686 -2.27141 0
M  V30 4630 C 436.487 0.373198 -1.69951 0
M  V30 4631 O 437.663 0.235423 -2.00019 0
M  V30 4632 C 434.728 0.0733602 -3.46622 0
M  V30 4633 C 433.789 -0.931995 -4.19061 0
M  V30 4634 C 433.022 -0.303186 -5.32838 0
M  V30 4635 O 433.245 0.898395 -5.63281 0
M  V30 4636 O 432.179 -1.01735 -5.9324 0
M  V30 4637 H 436.005 -1.47155 -2.65667 0
M  V30 4638 H 433.59 -0.780689 -1.2738 0
M  V30 4639 H 435.472 0.442333 -4.19072 0
M  V30 4640 H 434.147 0.932329 -3.09983 0
M  V30 4641 H 433.054 -1.35224 -3.48805 0
M  V30 4642 H 434.387 -1.76076 -4.59628 0
M  V30 4643 N 436.039 1.36541 -0.78704 0
M  V30 4644 C 437.287 1.98911 -0.357633 0
M  V30 4645 C 437.608 1.62778 1.07371 0
M  V30 4646 O 436.878 0.900612 1.73971 0
M  V30 4647 H 435.458 0.735734 -0.129246 0
M  V30 4648 H 438.12 1.66776 -1.00855 0
M  V30 4649 H 437.216 3.08874 -0.447549 0
M  V30 4650 N 437.518 0.538854 1.48102 0
M  V30 4651 C 438.767 0.0059532 2.01699 0
M  V30 4652 C 439.08 -1.34476 1.42041 0
M  V30 4653 O 440.286 -1.96653 1.87189 0
M  V30 4654 C 438.742 -0.0397627 3.59878 0
M  V30 4655 C 438.35 1.30659 4.28523 0
M  V30 4656 C 440.094 -0.521024 4.2129 0
M  V30 4657 C 438.001 1.22098 5.78659 0
M  V30 4658 H 436.931 -0.00154456 0.753998 0
M  V30 4659 H 439.582 0.683963 1.70277 0
M  V30 4660 H 437.964 -0.783037 3.88181 0
M  V30 4661 H 439.138 2.06613 4.11883 0
M  V30 4662 H 437.453 1.7243 3.79021 0
M  V30 4663 H 440.05 -0.603184 5.31287 0
M  V30 4664 H 440.393 -1.52885 3.8721 0
M  V30 4665 H 440.926 0.166834 3.9745 0
M  V30 4666 H 437.665 2.20424 6.17328 0
M  V30 4667 H 437.185 0.50295 5.97688 0
M  V30 4668 H 438.864 0.915345 6.40492 0
M  V30 4669 N 438.996 -1.55193 0.274407 0
M  V30 4670 C 439.906 -2.26164 -0.623473 0
M  V30 4671 C 440.922 -1.28729 -1.17068 0
M  V30 4672 O 442.098 -1.61663 -1.20112 0
M  V30 4673 C 439.163 -2.96833 -1.7914 0
M  V30 4674 C 438.224 -4.09745 -1.28093 0
M  V30 4675 C 437.457 -4.77034 -2.3932 0
M  V30 4676 O 437.68 -4.4353 -3.5866 0
M  V30 4677 O 436.614 -5.64996 -2.07516 0
M  V30 4678 H 440.44 -3.03661 -0.0485661 0
M  V30 4679 H 438.025 -1.49341 0.0418382 0
M  V30 4680 H 439.907 -3.41248 -2.4724 0
M  V30 4681 H 438.582 -2.22253 -2.35341 0
M  V30 4682 H 437.489 -3.69787 -0.566416 0
M  V30 4683 H 438.822 -4.86224 -0.764683 0
M  V30 4684 N 440.474 -0.00167713 -1.576 0
M  V30 4685 C 441.885 0.54091 -1.78693 0
M  V30 4686 C 442.236 1.7386 -0.909247 0
M  V30 4687 O 441.361 2.16109 -0.112176 0
M  V30 4688 C 441.956 0.98806 -3.24072 0
M  V30 4689 C 440.515 1.47594 -3.46256 0
M  V30 4690 C 439.662 0.42792 -2.73978 0
M  V30 4691 H 442.613 -0.22784 -1.57056 0
M  V30 4692 H 442.634 1.85398 -3.32277 0
M  V30 4693 H 442.146 0.116164 -3.87926 0
M  V30 4694 H 440.247 2.36868 -2.87618 0
M  V30 4695 H 440.36 1.50225 -4.54939 0
M  V30 4696 H 438.724 0.889934 -2.38647 0
M  V30 4697 H 439.507 -0.435038 -3.40532 0
M  V30 4698 N 441.952 1.55251 0.271103 0
M  V30 4699 C 443.177 1.80306 1.02491 0
M  V30 4700 C 443.602 0.575457 1.79081 0
M  V30 4701 O 442.96 -0.474987 1.74967 0
M  V30 4702 C 443.008 3.02832 1.95768 0
M  V30 4703 O 442.112 2.78051 3.04568 0
M  V30 4704 H 441.453 0.595896 0.292923 0
M  V30 4705 H 443.983 2.02397 0.299436 0
M  V30 4706 H 443.993 3.31616 2.37686 0
M  V30 4707 H 442.668 3.9183 1.39434 0
M  V30 4708 H 441.245 2.60369 2.66951 0
M  V30 4709 N 443.43 -0.535701 1.48216 0
M  V30 4710 C 444.393 -1.623 1.61838 0
M  V30 4711 C 445.393 -1.53087 0.492024 0
M  V30 4712 O 446.583 -1.5686 0.757668 0
M  V30 4713 C 443.715 -3.01907 1.58319 0
M  V30 4714 H 444.908 -1.51564 2.58783 0
M  V30 4715 H 442.461 -0.757317 1.36727 0
M  V30 4716 H 443.196 -3.18155 0.628299 0
M  V30 4717 H 442.981 -3.10003 2.40085 0
M  V30 4718 H 444.471 -3.80969 1.71033 0
M  V30 4719 N 444.908 -1.36708 -0.784132 0
M  V30 4720 C 446.157 -1.30559 -1.53744 0
M  V30 4721 C 446.47 0.111374 -1.95283 0
M  V30 4722 O 447.676 0.29527 -2.6989 0
M  V30 4723 C 446.132 -2.29098 -2.77565 0
M  V30 4724 C 445.74 -3.76258 -2.43174 0
M  V30 4725 C 447.484 -2.31936 -3.55536 0
M  V30 4726 C 445.391 -4.6656 -3.63422 0
M  V30 4727 H 444.321 -0.48518 -0.577162 0
M  V30 4728 H 446.972 -1.62101 -0.859981 0
M  V30 4729 H 445.354 -1.90557 -3.47137 0
M  V30 4730 H 446.528 -4.23565 -1.81465 0
M  V30 4731 H 444.843 -3.76246 -1.78403 0
M  V30 4732 H 447.44 -2.9661 -4.44889 0
M  V30 4733 H 447.783 -1.3294 -3.94503 0
M  V30 4734 H 448.316 -2.6912 -2.92949 0
M  V30 4735 H 445.055 -5.66638 -3.29547 0
M  V30 4736 H 444.575 -4.23966 -4.24279 0
M  V30 4737 H 446.254 -4.8309 -4.30387 0
M  V30 4738 N 446.386 1.0089 -1.21074 0
M  V30 4739 C 447.632 1.74866 -1.02712 0
M  V30 4740 C 447.965 1.89178 0.438787 0
M  V30 4741 O 447.24 1.42325 1.32567 0
M  V30 4742 C 447.523 3.16347 -1.72036 0
M  V30 4743 C 447.376 3.09782 -3.26121 0
M  V30 4744 C 448.695 4.15187 -1.45973 0
M  V30 4745 H 445.814 0.634736 -0.374539 0
M  V30 4746 H 448.456 1.17646 -1.49196 0
M  V30 4747 H 446.606 3.65201 -1.32517 0
M  V30 4748 H 448.278 2.68673 -3.74983 0
M  V30 4749 H 446.521 2.46982 -3.56626 0
M  V30 4750 H 447.192 4.09829 -3.6979 0
M  V30 4751 H 449.668 3.75022 -1.80272 0
M  V30 4752 H 448.544 5.12331 -1.96999 0
M  V30 4753 H 448.805 4.40386 -0.388924 0
M  V30 4754 N 447.864 1.01787 1.20321 0
M  V30 4755 C 448.811 0.589197 2.23153 0
M  V30 4756 C 449.781 -0.391367 1.61423 0
M  V30 4757 O 450.966 -0.290518 1.88575 0
M  V30 4758 C 448.106 -0.0650747 3.45039 0
M  V30 4759 C 447.219 0.960207 4.21194 0
M  V30 4760 C 446.354 0.276854 5.30478 0
M  V30 4761 C 445.393 1.2888 5.98378 0
M  V30 4762 N 444.53 0.632031 6.99249 0
M  V30 4763 H 449.37 1.47071 2.59179 0
M  V30 4764 H 446.907 0.736192 1.27352 0
M  V30 4765 H 448.865 -0.461552 4.14639 0
M  V30 4766 H 447.495 -0.910233 3.09701 0
M  V30 4767 H 446.547 1.47484 3.50646 0
M  V30 4768 H 447.859 1.72977 4.67847 0
M  V30 4769 H 447.013 -0.175056 6.06447 0
M  V30 4770 H 445.752 -0.525004 4.84866 0
M  V30 4771 H 444.757 1.75109 5.21169 0
M  V30 4772 H 445.982 2.09196 6.46076 0
M  V30 4773 H 443.928 -0.149935 6.55829 0
M  V30 4774 H 443.845 1.33964 7.44036 0
M  V30 4775 H 445.113 0.203755 7.79234 0
M  V30 4776 N 449.342 -1.36122 0.79427 0
M  V30 4777 C 450.59 -1.98718 0.368177 0
M  V30 4778 C 450.911 -1.63345 -1.06506 0
M  V30 4779 O 450.181 -0.909825 -1.73491 0
M  V30 4780 H 448.761 -0.735038 0.133146 0
M  V30 4781 H 451.423 -1.66239 1.01739 0
M  V30 4782 H 450.519 -3.08633 0.463923 0
M  V30 4783 N 450.82 -0.546701 -1.47814 0
M  V30 4784 C 452.066 -0.0269594 -2.03382 0
M  V30 4785 C 452.421 1.30406 -1.41464 0
M  V30 4786 O 451.714 1.8332 -0.557151 0
M  V30 4787 C 451.908 0.134869 -3.57145 0
M  V30 4788 C 451.737 -1.17891 -4.33972 0
M  V30 4789 C 450.507 -1.74336 -4.74273 0
M  V30 4790 C 452.705 -2.09361 -4.69758 0
M  V30 4791 N 450.687 -2.99829 -5.35701 0
M  V30 4792 C 452.058 -3.19431 -5.31379 0
M  V30 4793 C 454.113 -2.09484 -4.51687 0
M  V30 4794 C 452.816 -4.2971 -5.76838 0
M  V30 4795 C 454.842 -3.18767 -4.98138 0
M  V30 4796 C 454.204 -4.27557 -5.59799 0
M  V30 4797 H 450.303 -0.0517733 -0.780284 0
M  V30 4798 H 452.887 -0.731673 -1.80429 0
M  V30 4799 H 451.058 0.80869 -3.79888 0
M  V30 4800 H 452.79 0.655726 -3.99352 0
M  V30 4801 H 449.545 -1.28265 -4.559 0
M  V30 4802 H 449.969 -3.63765 -5.70968 0
M  V30 4803 H 454.611 -1.26663 -4.03381 0
M  V30 4804 H 452.329 -5.13297 -6.24141 0
M  V30 4805 H 455.915 -3.19937 -4.85934 0
M  V30 4806 H 454.795 -5.10725 -5.95088 0
M  V30 4807 N 452.299 1.55045 -0.282633 0
M  V30 4808 C 453.547 1.99365 0.331334 0
M  V30 4809 C 453.868 1.1725 1.55812 0
M  V30 4810 O 453.138 0.263871 1.94115 0
M  V30 4811 H 451.718 0.736397 0.125414 0
M  V30 4812 H 454.38 1.90964 -0.389711 0
M  V30 4813 H 453.476 3.0596 0.616036 0
M  V30 4814 N 453.777 0.010035 1.57597 0
M  V30 4815 C 455.005 -0.683413 1.95287 0
M  V30 4816 C 455.42 -1.66747 0.885481 0
M  V30 4817 O 454.777 -1.82003 -0.134629 0
M  V30 4818 C 454.828 -1.40652 3.33015 0
M  V30 4819 O 454.549 -0.461916 4.35658 0
M  V30 4820 C 456.05 -2.19356 3.85225 0
M  V30 4821 H 453.27 -0.189708 0.643624 0
M  V30 4822 H 455.814 0.0641359 2.04399 0
M  V30 4823 H 453.969 -2.10562 3.2518 0
M  V30 4824 H 454.383 -0.973215 5.15392 0
M  V30 4825 H 455.857 -2.65433 4.83993 0
M  V30 4826 H 456.334 -3.02457 3.18459 0
M  V30 4827 H 456.94 -1.54442 3.96267 0
M  V30 4828 N 455.255 -1.55392 -0.262866 0
M  V30 4829 C 456.502 -1.76476 -0.993109 0
M  V30 4830 C 456.83 -0.571479 -1.85915 0
M  V30 4831 O 456.085 0.445733 -1.90556 0
M  V30 4832 C 456.384 -3.02889 -1.89718 0
M  V30 4833 C 456.05 -4.34974 -1.18781 0
M  V30 4834 C 454.712 -4.7087 -0.991699 0
M  V30 4835 C 457.064 -5.16695 -0.683798 0
M  V30 4836 C 454.392 -5.86036 -0.279024 0
M  V30 4837 C 456.744 -6.32598 0.0153327 0
M  V30 4838 C 455.408 -6.67127 0.223062 0
M  V30 4839 H 454.678 -0.64577 -0.363404 0
M  V30 4840 H 457.325 -1.89664 -0.264525 0
M  V30 4841 H 455.63 -2.84644 -2.6923 0
M  V30 4842 H 457.327 -3.16399 -2.46359 0
M  V30 4843 H 453.917 -4.06765 -1.35058 0
M  V30 4844 H 458.101 -4.8943 -0.8229 0
M  V30 4845 H 453.357 -6.11306 -0.107456 0
M  V30 4846 H 457.531 -6.95171 0.413584 0
M  V30 4847 H 455.158 -7.56216 0.777265 0
M  V30 4848 N 456.733 0.527833 -1.48498 0
M  V30 4849 C 457.68 1.6322 -1.6318 0
M  V30 4850 C 458.65 1.59199 -0.473815 0
M  V30 4851 O 459.835 1.77591 -0.697563 0
M  V30 4852 C 456.975 3.01474 -1.67951 0
M  V30 4853 C 456.088 3.15713 -2.94871 0
M  V30 4854 C 455.223 4.44539 -2.90789 0
M  V30 4855 C 454.262 4.52315 -4.12404 0
M  V30 4856 N 453.399 5.72533 -4.06387 0
M  V30 4857 H 458.239 1.50011 -2.57489 0
M  V30 4858 H 455.776 0.730298 -1.27691 0
M  V30 4859 H 457.734 3.81572 -1.68698 0
M  V30 4860 H 456.364 3.1345 -0.771306 0
M  V30 4861 H 455.416 2.28854 -3.03859 0
M  V30 4862 H 456.728 3.1732 -3.8485 0
M  V30 4863 H 455.882 5.3293 -2.89949 0
M  V30 4864 H 454.621 4.45457 -1.98542 0
M  V30 4865 H 453.626 3.62331 -4.13517 0
M  V30 4866 H 454.851 4.53134 -5.05812 0
M  V30 4867 H 452.797 5.74344 -3.16962 0
M  V30 4868 H 452.714 5.75643 -4.90073 0
M  V30 4869 H 453.982 6.63204 -4.0961 0
M  V30 4870 N 458.211 1.37122 0.776871 0
M  V30 4871 C 459.436 1.354 1.57104 0
M  V30 4872 C 459.861 -0.0595562 1.88006 0
M  V30 4873 O 459.219 -1.03514 1.48844 0
M  V30 4874 C 459.267 2.19472 2.8612 0
M  V30 4875 O 458.371 1.59582 3.80273 0
M  V30 4876 H 457.712 0.462869 0.476076 0
M  V30 4877 H 460.242 1.80577 0.961932 0
M  V30 4878 H 460.252 2.32502 3.35271 0
M  V30 4879 H 458.927 3.22222 2.62956 0
M  V30 4880 H 457.504 1.55564 3.38902 0
M  V30 4881 N 459.689 -1.00246 1.21608 0
M  V30 4882 C 460.966 -1.71336 0.943568 0
M  V30 4883 C 461.346 -2.03972 -0.543943 0
M  V30 4884 O 460.694 -1.71545 -1.50946 0
M  V30 4885 C 460.904 -2.97094 1.83128 0
M  V30 4886 C 462.252 -3.70071 2.08165 0
M  V30 4887 O 463.276 -3.07081 1.80498 0
M  V30 4888 O 462.135 -4.83376 2.54971 0
M  V30 4889 H 459.229 -0.747386 0.354039 0
M  V30 4890 H 461.775 -1.05967 1.32549 0
M  V30 4891 H 460.547 -2.69407 2.83788 0
M  V30 4892 H 460.17 -3.70204 1.45034 0
M  V30 4893 N 461.167 -1.02423 -1.1978 0
M  V30 4894 C 462.395 -0.737456 -1.93311 0
M  V30 4895 C 462.81 0.703023 -1.75223 0
M  V30 4896 O 462.167 1.47761 -1.07112 0
M  V30 4897 C 462.218 -1.0733 -3.45199 0
M  V30 4898 O 461.939 -2.4572 -3.62702 0
M  V30 4899 C 463.44 -0.80866 -4.35862 0
M  V30 4900 H 460.66 -0.2702 -0.614193 0
M  V30 4901 H 463.204 -1.36747 -1.52054 0
M  V30 4902 H 461.359 -0.488545 -3.84307 0
M  V30 4903 H 461.773 -2.58081 -4.56612 0
M  V30 4904 H 463.247 -1.09365 -5.41057 0
M  V30 4905 H 463.724 0.257025 -4.38447 0
M  V30 4906 H 464.33 -1.37592 -4.02428 0
M  V30 4907 N 462.645 1.35699 -0.801477 0
M  V30 4908 C 463.894 1.98165 -0.375979 0
M  V30 4909 C 464.207 1.64306 1.06127 0
M  V30 4910 O 465.413 2.20097 1.58964 0
M  V30 4911 C 463.869 3.54497 -0.621305 0
M  V30 4912 C 463.477 3.9727 -2.07076 0
M  V30 4913 C 465.221 4.23697 -0.26091 0
M  V30 4914 C 463.128 5.46427 -2.26211 0
M  V30 4915 H 462.058 0.741478 -0.136844 0
M  V30 4916 H 464.709 1.54834 -0.984814 0
M  V30 4917 H 463.091 3.95958 0.0574112 0
M  V30 4918 H 464.265 3.66974 -2.78687 0
M  V30 4919 H 462.58 3.40943 -2.39054 0
M  V30 4920 H 465.177 5.33334 -0.381994 0
M  V30 4921 H 465.52 4.0869 0.792344 0
M  V30 4922 H 466.053 3.87639 -0.893339 0
M  V30 4923 H 462.792 5.66396 -3.29963 0
M  V30 4924 H 462.312 5.78309 -1.59119 0
M  V30 4925 H 463.991 6.12819 -2.07513 0
M  V30 4926 N 464.123 0.554532 1.47522 0
M  V30 4927 C 465.07 -0.19466 2.29978 0
M  V30 4928 C 466.04 -0.910882 1.38896 0
M  V30 4929 O 467.225 -0.907102 1.67858 0
M  V30 4930 C 464.365 -1.22035 3.22802 0
M  V30 4931 C 463.478 -0.510474 4.28973 0
M  V30 4932 C 462.613 -1.52123 5.08952 0
M  V30 4933 C 461.652 -0.796173 6.069 0
M  V30 4934 N 460.789 -1.75363 6.79847 0
M  V30 4935 H 465.629 0.51461 2.93523 0
M  V30 4936 H 463.166 0.265607 1.44682 0
M  V30 4937 H 465.124 -1.8276 3.7504 0
M  V30 4938 H 463.754 -1.89769 2.61127 0
M  V30 4939 H 462.806 0.211234 3.79813 0
M  V30 4940 H 464.118 0.0576503 4.98767 0
M  V30 4941 H 463.272 -2.20207 5.65326 0
M  V30 4942 H 462.011 -2.12327 4.39054 0
M  V30 4943 H 461.016 -0.101388 5.49707 0
M  V30 4944 H 462.241 -0.199911 6.78806 0
M  V30 4945 H 460.187 -2.3443 6.12682 0
M  V30 4946 H 460.104 -1.23759 7.45801 0
M  V30 4947 H 461.372 -2.4257 7.40797 0
M  V30 4948 N 465.601 -1.54893 0.290851 0
M  V30 4949 C 466.531 -2.26103 -0.583084 0
M  V30 4950 C 467.512 -1.25684 -1.14619 0
M  V30 4951 O 468.697 -1.54436 -1.17741 0
M  V30 4952 C 465.827 -2.99409 -1.75987 0
M  V30 4953 C 464.781 -4.0689 -1.32758 0
M  V30 4954 C 464.107 -4.67856 -2.58872 0
M  V30 4955 C 465.407 -5.20215 -0.46624 0
M  V30 4956 H 467.101 -2.99398 0.0108214 0
M  V30 4957 H 464.647 -1.43998 0.00664468 0
M  V30 4958 H 466.6 -3.47943 -2.37727 0
M  V30 4959 H 465.324 -2.23675 -2.37985 0
M  V30 4960 H 463.983 -3.59191 -0.733299 0
M  V30 4961 H 463.631 -3.88772 -3.19163 0
M  V30 4962 H 463.331 -5.40438 -2.30653 0
M  V30 4963 H 464.855 -5.19147 -3.21433 0
M  V30 4964 H 466.269 -5.64704 -0.989047 0
M  V30 4965 H 464.666 -5.99455 -0.27826 0
M  V30 4966 H 465.736 -4.82198 0.511173 0
M  V30 4967 N 467.08 -0.0183926 -1.57589 0
M  V30 4968 C 467.99 0.982943 -2.13015 0
M  V30 4969 C 469.006 1.36443 -1.07979 0
M  V30 4970 O 470.182 1.44802 -1.3998 0
M  V30 4971 C 467.247 2.25024 -2.63752 0
M  V30 4972 C 466.308 1.93018 -3.83461 0
M  V30 4973 C 465.541 3.13706 -4.31769 0
M  V30 4974 O 465.764 4.2601 -3.79305 0
M  V30 4975 O 464.698 2.96629 -5.23732 0
M  V30 4976 H 468.524 0.541709 -2.9883 0
M  V30 4977 H 466.109 0.201565 -1.48034 0
M  V30 4978 H 467.991 2.99441 -2.96502 0
M  V30 4979 H 466.666 2.68349 -1.81026 0
M  V30 4980 H 465.573 1.16019 -3.55655 0
M  V30 4981 H 466.906 1.54516 -4.67317 0
M  V30 4982 N 468.558 1.5553 0.254621 0
M  V30 4983 C 469.835 1.6774 1.00611 0
M  V30 4984 C 470.215 0.555993 2.03647 0
M  V30 4985 O 469.563 -0.441583 2.24193 0
M  V30 4986 C 469.773 3.07725 1.6464 0
M  V30 4987 C 471.121 3.66074 2.15116 0
M  V30 4988 O 472.145 3.10476 1.74595 0
M  V30 4989 O 471.004 4.63526 2.89493 0
M  V30 4990 H 468.098 0.681958 0.467828 0
M  V30 4991 H 470.644 1.67863 0.24902 0
M  V30 4992 H 469.416 3.80792 0.900734 0
M  V30 4993 H 469.039 3.1158 2.46989 0
M  V30 4994 N 470.036 -0.519951 1.48776 0
M  V30 4995 C 471.285 -1.27175 1.56555 0
M  V30 4996 C 471.598 -1.9401 0.248869 0
M  V30 4997 O 472.804 -2.70725 0.205004 0
M  V30 4998 C 471.26 -2.30811 2.76142 0
M  V30 4999 C 470.868 -1.7 4.14493 0
M  V30 5000 C 472.612 -3.06937 2.9324 0
M  V30 5001 C 470.519 -2.71635 5.25327 0
M  V30 5002 H 469.449 -0.478329 0.582853 0
M  V30 5003 H 472.1 -0.547916 1.75129 0
M  V30 5004 H 470.482 -3.06274 2.51023 0
M  V30 5005 H 471.656 -1.00658 4.49672 0
M  V30 5006 H 469.971 -1.06331 4.02595 0
M  V30 5007 H 472.568 -3.82905 3.73213 0
M  V30 5008 H 472.911 -3.63409 2.03075 0
M  V30 5009 H 473.444 -2.38589 3.18308 0
M  V30 5010 H 470.183 -2.1997 6.1749 0
M  V30 5011 H 469.703 -3.39275 4.94624 0
M  V30 5012 H 471.382 -3.34429 5.53865 0
M  V30 5013 N 471.514 -1.37532 -0.769588 0
M  V30 5014 C 472.477 -1.33292 -1.86456 0
M  V30 5015 C 473.477 -0.236537 -1.59051 0
M  V30 5016 O 474.667 -0.492511 -1.67093 0
M  V30 5017 C 471.799 -1.07118 -3.23633 0
M  V30 5018 H 472.992 -2.30692 -1.91628 0
M  V30 5019 H 470.545 -1.22593 -0.969572 0
M  V30 5020 H 471.28 -0.102578 -3.24138 0
M  V30 5021 H 471.065 -1.86479 -3.44917 0
M  V30 5022 H 472.555 -1.06806 -4.03711 0
M  V30 5023 N 472.992 0.995999 -1.22138 0
M  V30 5024 C 473.939 2.08551 -0.988687 0
M  V30 5025 C 474.909 1.65864 0.0885021 0
M  V30 5026 O 476.094 1.90704 -0.0604589 0
M  V30 5027 C 473.234 3.40374 -0.569191 0
M  V30 5028 C 472.347 3.96421 -1.71681 0
M  V30 5029 C 471.482 5.1639 -1.2456 0
M  V30 5030 C 470.521 5.64567 -2.36497 0
M  V30 5031 N 469.658 6.75777 -1.90445 0
M  V30 5032 H 474.498 2.2779 -1.92135 0
M  V30 5033 H 472.035 1.1168 -0.957388 0
M  V30 5034 H 473.993 4.16068 -0.307166 0
M  V30 5035 H 472.623 3.21145 0.326462 0
M  V30 5036 H 471.675 3.17628 -2.09324 0
M  V30 5037 H 472.987 4.2816 -2.55891 0
M  V30 5038 H 472.141 5.99362 -0.940774 0
M  V30 5039 H 470.88 4.86266 -0.373662 0
M  V30 5040 H 469.885 4.80185 -2.67772 0
M  V30 5041 H 471.11 5.96716 -3.24202 0
M  V30 5042 H 469.056 6.47443 -1.05609 0
M  V30 5043 H 468.973 7.06818 -2.68223 0
M  V30 5044 H 470.241 7.62262 -1.63022 0
M  V30 5045 N 474.47 1.03057 1.19235 0
M  V30 5046 C 475.418 0.606391 2.24557 0
M  V30 5047 C 476.412 -0.361826 1.65491 0
M  V30 5048 O 477.618 -0.23022 1.78522 0
M  V30 5049 H 473.993 0.177838 0.730669 0
M  V30 5050 H 475.964 1.50529 2.5765 0
M  V30 5051 C 474.713 -0.0252127 3.47691 0
M  V30 5052 H 474.036 0.710838 3.9343 0
M  V30 5053 H 475.476 -0.284931 4.23042 0
M  V30 5054 C 473.935 -1.27229 3.11953 0
M  V30 5055 O 474.465 -2.36416 3.24762 0
M  V30 5056 N 472.671 -1.16169 2.6637 0
M  V30 5057 H 472.218 -0.273189 2.56147 0
M  V30 5058 H 472.176 -1.99703 2.42829 0
M  V30 5059 N 475.948 -1.35272 0.808662 0
M  V30 5060 C 477.178 -2.02652 0.401953 0
M  V30 5061 C 477.586 -1.6108 -0.992462 0
M  V30 5062 O 476.929 -0.804984 -1.65123 0
M  V30 5063 C 476.991 -3.57174 0.408246 0
M  V30 5064 C 476.655 -4.22019 1.75353 0
M  V30 5065 C 477.652 -4.43552 2.71215 0
M  V30 5066 C 475.337 -4.59093 2.03811 0
M  V30 5067 C 477.331 -5.01264 3.93717 0
M  V30 5068 C 475.018 -5.16519 3.26576 0
M  V30 5069 C 476.016 -5.37546 4.21347 0
M  V30 5070 O 475.704 -5.93761 5.41944 0
M  V30 5071 H 475.436 -0.656495 0.161216 0
M  V30 5072 H 477.99 -1.73829 1.0942 0
M  V30 5073 H 476.22 -3.85197 -0.340608 0
M  V30 5074 H 477.909 -4.05893 0.0235623 0
M  V30 5075 H 478.675 -4.15288 2.50522 0
M  V30 5076 H 474.554 -4.42039 1.30854 0
M  V30 5077 H 478.098 -5.17592 4.67701 0
M  V30 5078 H 473.995 -5.4421 3.47139 0
M  V30 5079 H 474.763 -6.1221 5.43269 0
M  V30 5080 N 477.426 -0.562348 -1.47226 0
M  V30 5081 C 478.336 0.185466 -2.33866 0
M  V30 5082 C 479.352 0.906713 -1.48508 0
M  V30 5083 O 480.528 0.874458 -1.81425 0
M  V30 5084 C 477.593 1.19904 -3.25306 0
M  V30 5085 C 476.654 0.484669 -4.26555 0
M  V30 5086 C 475.887 1.44996 -5.13626 0
M  V30 5087 O 476.11 2.68515 -5.03245 0
M  V30 5088 O 475.044 0.971642 -5.94006 0
M  V30 5089 H 478.87 -0.525361 -2.99121 0
M  V30 5090 H 476.455 -0.322916 -1.45868 0
M  V30 5091 H 478.337 1.78399 -3.81774 0
M  V30 5092 H 477.012 1.8917 -2.62672 0
M  V30 5093 H 475.919 -0.141605 -3.73832 0
M  V30 5094 H 477.252 -0.166634 -4.91918 0
M  V30 5095 N 478.904 1.54736 -0.299062 0
M  V30 5096 C 479.867 2.22127 0.565012 0
M  V30 5097 C 480.867 1.20669 1.06281 0
M  V30 5098 O 482.057 1.45417 0.959145 0
M  V30 5099 C 479.189 2.90611 1.78208 0
M  V30 5100 H 480.382 2.99891 -0.0237448 0
M  V30 5101 H 477.935 1.5622 -0.0498788 0
M  V30 5102 H 478.67 2.16921 2.41072 0
M  V30 5103 H 478.455 3.64984 1.43281 0
M  V30 5104 H 479.945 3.42026 2.396 0
M  V30 5105 N 480.382 0.0267497 1.57577 0
M  V30 5106 C 481.345 -0.940916 2.08996 0
M  V30 5107 C 482.345 -1.25561 1.00455 0
M  V30 5108 O 483.535 -1.19634 1.26623 0
M  V30 5109 C 480.667 -2.25814 2.55384 0
M  V30 5110 H 481.86 -0.495628 2.95776 0
M  V30 5111 H 479.413 -0.221241 1.54726 0
M  V30 5112 H 480.148 -2.74976 1.71926 0
M  V30 5113 H 479.933 -2.04285 3.34679 0
M  V30 5114 H 481.423 -2.95178 2.95398 0
M  V30 5115 N 481.861 -1.55662 -0.24637 0
M  V30 5116 C 482.791 -1.93377 -1.30873 0
M  V30 5117 C 483.772 -0.798773 -1.50179 0
M  V30 5118 O 484.957 -1.0591 -1.62778 0
M  V30 5119 C 482.087 -2.22893 -2.66338 0
M  V30 5120 C 481.041 -3.38649 -2.61727 0
M  V30 5121 C 480.367 -3.53708 -4.00992 0
M  V30 5122 C 481.667 -4.74323 -2.18666 0
M  V30 5123 H 483.361 -2.82363 -0.995552 0
M  V30 5124 H 480.907 -1.35854 -0.477464 0
M  V30 5125 H 482.86 -2.47866 -3.40794 0
M  V30 5126 H 481.584 -1.30733 -2.99293 0
M  V30 5127 H 480.243 -3.13685 -1.89729 0
M  V30 5128 H 479.891 -2.58967 -4.31214 0
M  V30 5129 H 479.591 -4.31551 -3.98795 0
M  V30 5130 H 481.115 -3.81003 -4.77147 0
M  V30 5131 H 482.529 -4.98665 -2.82854 0
M  V30 5132 H 480.926 -5.55273 -2.27579 0
M  V30 5133 H 481.996 -4.71349 -1.13834 0
M  V30 5134 N 483.339 0.512053 -1.4905 0
M  V30 5135 C 484.286 1.6148 -1.64902 0
M  V30 5136 C 485.256 1.58687 -0.490673 0
M  V30 5137 O 486.441 1.76842 -0.71636 0
M  V30 5138 C 483.581 2.99676 -1.71139 0
M  V30 5139 C 482.694 3.12568 -2.98203 0
M  V30 5140 C 481.829 4.4143 -2.95487 0
M  V30 5141 C 480.868 4.47916 -4.17179 0
M  V30 5142 N 480.005 5.68191 -4.12437 0
M  V30 5143 H 484.845 1.47271 -2.59066 0
M  V30 5144 H 482.382 0.716713 -1.28459 0
M  V30 5145 H 484.34 3.79761 -1.72736 0
M  V30 5146 H 482.97 3.12614 -0.804508 0
M  V30 5147 H 482.022 2.25618 -3.06269 0
M  V30 5148 H 483.334 3.1322 -3.88194 0
M  V30 5149 H 482.488 5.29825 -2.95585 0
M  V30 5150 H 481.227 4.43326 -2.03256 0
M  V30 5151 H 480.232 3.57925 -4.17337 0
M  V30 5152 H 481.457 4.47744 -5.1059 0
M  V30 5153 H 479.403 5.7095 -3.23036 0
M  V30 5154 H 479.32 5.70413 -4.96151 0
M  V30 5155 H 480.588 6.58823 -4.16621 0
M  V30 5156 N 484.817 1.37938 0.762283 0
M  V30 5157 C 485.747 1.37176 1.88958 0
M  V30 5158 C 486.728 0.238945 1.68413 0
M  V30 5159 O 487.913 0.440726 1.89133 0
M  V30 5160 C 485.043 1.18742 3.2637 0
M  V30 5161 C 483.997 2.29136 3.61498 0
M  V30 5162 C 483.323 1.95816 4.97554 0
M  V30 5163 C 484.623 3.71363 3.6727 0
M  V30 5164 H 486.317 2.31509 1.89853 0
M  V30 5165 H 483.863 1.11438 0.912005 0
M  V30 5166 H 485.816 1.16837 4.04879 0
M  V30 5167 H 484.54 0.208683 3.25933 0
M  V30 5168 H 483.199 2.30213 2.85303 0
M  V30 5169 H 482.847 0.964475 4.93667 0
M  V30 5170 H 482.547 2.69745 5.22026 0
M  V30 5171 H 484.071 1.95513 5.78452 0
M  V30 5172 H 485.485 3.72364 4.35911 0
M  V30 5173 H 483.882 4.44425 4.03245 0
M  V30 5174 H 484.952 4.04305 2.67704 0
M  V30 5175 N 486.295 -0.989507 1.22664 0
M  V30 5176 C 487.541 -1.7321 1.05481 0
M  V30 5177 C 487.874 -1.89852 -0.408635 0
M  V30 5178 O 487.149 -1.44416 -1.30285 0
M  V30 5179 C 487.432 -3.1357 1.77047 0
M  V30 5180 C 487.285 -3.04555 3.31008 0
M  V30 5181 C 488.604 -4.12812 1.5256 0
M  V30 5182 H 485.723 -0.628697 0.384589 0
M  V30 5183 H 488.365 -1.15258 1.51049 0
M  V30 5184 H 486.515 -3.63046 1.3831 0
M  V30 5185 H 488.187 -2.62674 3.7921 0
M  V30 5186 H 486.43 -2.41278 3.6051 0
M  V30 5187 H 487.101 -4.03894 3.76263 0
M  V30 5188 H 489.577 -3.72106 1.86215 0
M  V30 5189 H 488.453 -5.09132 2.05124 0
M  V30 5190 H 488.714 -4.39711 0.458936 0
M  V30 5191 N 487.773 -1.03688 -1.18687 0
M  V30 5192 C 489.05 -0.652397 -1.84399 0
M  V30 5193 C 489.43 0.868386 -1.92412 0
M  V30 5194 O 488.778 1.76832 -1.44716 0
M  V30 5195 C 488.988 -1.3238 -3.22919 0
M  V30 5196 C 490.336 -1.45216 -3.98996 0
M  V30 5197 O 491.36 -1.2816 -3.32345 0
M  V30 5198 O 490.219 -1.72975 -5.18403 0
M  V30 5199 H 487.313 -0.227793 -0.795009 0
M  V30 5200 H 489.859 -1.13553 -1.2611 0
M  V30 5201 H 488.631 -2.36202 -3.11968 0
M  V30 5202 H 488.254 -0.829039 -3.88861 0
M  V30 5203 N 489.251 1.34841 -0.815825 0
M  V30 5204 C 490.161 2.33425 -0.234462 0
M  V30 5205 C 491.177 1.62295 0.627413 0
M  V30 5206 O 492.353 1.94109 0.536987 0
M  V30 5207 C 489.418 3.41471 0.599849 0
M  V30 5208 C 488.479 4.28362 -0.283596 0
M  V30 5209 C 487.712 5.31248 0.51099 0
M  V30 5210 O 487.935 5.43056 1.7449 0
M  V30 5211 O 486.869 6.01812 -0.10297 0
M  V30 5212 H 490.695 2.84962 -1.05024 0
M  V30 5213 H 488.28 1.37774 -0.577809 0
M  V30 5214 H 490.162 4.07464 1.07475 0
M  V30 5215 H 488.837 2.9219 1.39308 0
M  V30 5216 H 487.744 3.65318 -0.805836 0
M  V30 5217 H 489.077 4.81066 -1.041 0
M  V30 5218 N 490.729 0.570148 1.46925 0
M  V30 5219 C 491.975 0.0510284 2.02736 0
M  V30 5220 C 492.308 -1.3006 1.44215 0
M  V30 5221 O 491.583 -1.84932 0.602521 0
M  V30 5222 C 491.866 -0.028215 3.60089 0
M  V30 5223 C 491.719 1.35142 4.29018 0
M  V30 5224 C 493.038 -0.735181 4.33916 0
M  V30 5225 H 490.157 0.0200178 0.736728 0
M  V30 5226 H 492.799 0.73493 1.75211 0
M  V30 5227 H 490.949 -0.610648 3.83671 0
M  V30 5228 H 492.621 1.97806 4.16738 0
M  V30 5229 H 490.864 1.9226 3.88868 0
M  V30 5230 H 491.535 1.24857 5.37694 0
M  V30 5231 H 494.011 -0.240519 4.15404 0
M  V30 5232 H 492.887 -0.759622 5.43618 0
M  V30 5233 H 493.148 -1.79397 4.04066 0
M  V30 5234 N 492.207 -1.54576 0.307264 0
M  V30 5235 C 493.154 -2.23751 -0.56604 0
M  V30 5236 C 494.124 -1.22235 -1.12462 0
M  V30 5237 O 495.309 -1.50873 -1.16799 0
M  V30 5238 C 492.449 -2.98661 -1.72903 0
M  V30 5239 C 491.562 -4.14963 -1.20124 0
M  V30 5240 C 490.697 -4.77441 -2.3286 0
M  V30 5241 C 489.736 -5.85875 -1.77247 0
M  V30 5242 N 488.873 -6.42282 -2.8358 0
M  V30 5243 H 493.713 -2.97984 0.0304578 0
M  V30 5244 H 491.25 -1.47076 0.0268015 0
M  V30 5245 H 493.208 -3.40329 -2.41313 0
M  V30 5246 H 491.838 -2.26793 -2.29706 0
M  V30 5247 H 490.89 -3.78193 -0.409198 0
M  V30 5248 H 492.202 -4.93066 -0.754171 0
M  V30 5249 H 491.356 -5.21993 -3.09205 0
M  V30 5250 H 490.095 -3.98684 -2.80896 0
M  V30 5251 H 489.1 -5.40741 -0.993926 0
M  V30 5252 H 490.325 -6.6652 -1.30107 0
M  V30 5253 H 488.271 -5.66406 -3.30939 0
M  V30 5254 H 488.188 -7.1575 -2.43388 0
M  V30 5255 H 489.456 -6.91492 -3.59804 0
M  V30 5256 N 493.685 -0.035106 -1.57561 0
M  V30 5257 C 494.932 0.642229 -1.92046 0
M  V30 5258 C 495.26 1.7179 -0.91206 0
M  V30 5259 O 494.515 1.95544 0.0781153 0
M  V30 5260 C 494.814 1.29149 -3.3325 0
M  V30 5261 C 494.48 0.345604 -4.49574 0
M  V30 5262 C 493.142 0.0852775 -4.81124 0
M  V30 5263 C 495.494 -0.303569 -5.20315 0
M  V30 5264 C 492.822 -0.831927 -5.80772 0
M  V30 5265 C 495.174 -1.20886 -6.20942 0
M  V30 5266 C 493.838 -1.47802 -6.50931 0
M  V30 5267 H 493.108 0.235008 -0.702746 0
M  V30 5268 H 495.755 -0.0981529 -1.91248 0
M  V30 5269 H 494.06 2.10676 -3.30337 0
M  V30 5270 H 495.757 1.82223 -3.57205 0
M  V30 5271 H 492.347 0.558683 -4.24943 0
M  V30 5272 H 496.531 -0.115515 -4.96166 0
M  V30 5273 H 491.787 -1.0481 -6.02349 0
M  V30 5274 H 495.961 -1.71804 -6.74875 0
M  V30 5275 H 493.588 -2.19039 -7.2796 0
M  V30 5276 N 495.163 1.55791 0.238111 0
M  V30 5277 C 496.44 1.68798 0.98826 0
M  V30 5278 C 496.82 0.577562 2.03045 0
M  V30 5279 O 496.168 -0.41778 2.24648 0
M  V30 5280 C 496.378 3.09454 1.61367 0
M  V30 5281 C 497.726 3.68335 2.11221 0
M  V30 5282 O 498.75 3.1231 1.71292 0
M  V30 5283 O 497.609 4.6657 2.84561 0
M  V30 5284 H 494.703 0.686881 0.460568 0
M  V30 5285 H 497.249 1.68118 0.231202 0
M  V30 5286 H 496.021 3.81726 0.860295 0
M  V30 5287 H 495.644 3.14182 2.4367 0
M  V30 5288 N 496.642 -0.504142 1.49319 0
M  V30 5289 C 497.919 -1.26548 1.49147 0
M  V30 5290 C 498.299 -2.09977 0.21744 0
M  V30 5291 O 497.647 -2.14028 -0.800269 0
M  V30 5292 C 497.857 -2.12489 2.76857 0
M  V30 5293 C 499.205 -2.7178 3.26222 0
M  V30 5294 O 500.229 -2.22758 2.77952 0
M  V30 5295 O 499.088 -3.61015 4.10281 0
M  V30 5296 H 496.182 -0.572495 0.596806 0
M  V30 5297 H 498.728 -0.51867 1.61579 0
M  V30 5298 H 497.5 -1.50796 3.61077 0
M  V30 5299 H 497.123 -2.94368 2.6727 0
M  V30 5300 N 498.12 -1.38341 -0.754957 0
M  V30 5301 C 499.367 -1.34473 -1.51404 0
M  V30 5302 C 499.695 0.0656458 -1.94389 0
M  V30 5303 O 498.95 1.04244 -1.65625 0
M  V30 5304 C 499.249 -2.2452 -2.78075 0
M  V30 5305 C 498.915 -3.72512 -2.54059 0
M  V30 5306 C 497.577 -4.1284 -2.47218 0
M  V30 5307 C 499.929 -4.66197 -2.33044 0
M  V30 5308 C 497.257 -5.44945 -2.17376 0
M  V30 5309 C 499.609 -5.98558 -2.04723 0
M  V30 5310 C 498.273 -6.37972 -1.96337 0
M  V30 5311 H 497.543 -0.492072 -0.554027 0
M  V30 5312 H 500.19 -1.70687 -0.868223 0
M  V30 5313 H 498.495 -1.81357 -3.473 0
M  V30 5314 H 500.192 -2.18832 -3.36026 0
M  V30 5315 H 496.782 -3.40538 -2.60253 0
M  V30 5316 H 500.966 -4.35888 -2.37309 0
M  V30 5317 H 496.222 -5.74426 -2.09391 0
M  V30 5318 H 500.396 -6.70693 -1.87465 0
M  V30 5319 H 498.023 -7.40258 -1.72978 0
M  V30 5320 N 499.598 0.982988 -1.23187 0
M  V30 5321 C 500.823 1.76455 -1.08988 0
M  V30 5322 C 501.248 1.84726 0.354691 0
M  V30 5323 O 500.606 1.30699 1.25649 0
M  V30 5324 C 500.654 3.17094 -1.71708 0
M  V30 5325 O 499.758 4.00648 -0.977477 0
M  V30 5326 H 499.099 0.542988 -0.382177 0
M  V30 5327 H 501.629 1.23413 -1.63188 0
M  V30 5328 H 501.639 3.67684 -1.76841 0
M  V30 5329 H 500.314 3.10389 -2.76823 0
M  V30 5330 H 498.891 3.59161 -1.0029 0
M  V30 5331 N 501.076 1.04316 1.18135 0
M  V30 5332 C 501.986 0.646876 2.25505 0
M  V30 5333 C 503.002 -0.328008 1.7088 0
M  V30 5334 O 504.178 -0.182309 2.00573 0
M  V30 5335 C 501.243 0.0185664 3.46695 0
M  V30 5336 C 500.304 1.04277 4.16443 0
M  V30 5337 C 499.537 0.444352 5.31847 0
M  V30 5338 O 499.76 -0.748735 5.65465 0
M  V30 5339 O 498.694 1.17428 5.90334 0
M  V30 5340 H 502.52 1.54147 2.61672 0
M  V30 5341 H 500.105 0.814188 1.25265 0
M  V30 5342 H 501.987 -0.331068 4.20097 0
M  V30 5343 H 500.662 -0.849814 3.12346 0
M  V30 5344 H 499.569 1.44425 3.45098 0
M  V30 5345 H 500.902 1.882 4.54798 0
M  V30 5346 N 502.554 -1.34406 0.822964 0
M  V30 5347 C 503.501 -2.29519 0.24284 0
M  V30 5348 C 504.471 -1.5359 -0.632397 0
M  V30 5349 O 505.656 -1.8196 -0.57403 0
M  V30 5350 C 502.796 -3.40032 -0.58925 0
M  V30 5351 C 501.909 -4.30899 0.308236 0
M  V30 5352 C 501.044 -5.28515 -0.533425 0
M  V30 5353 C 500.083 -6.1102 0.363444 0
M  V30 5354 N 499.22 -7.00725 -0.439147 0
M  V30 5355 H 504.06 -2.78537 1.05929 0
M  V30 5356 H 501.597 -1.3707 0.533872 0
M  V30 5357 H 503.555 -4.0279 -1.087 0
M  V30 5358 H 502.185 -2.92248 -1.37081 0
M  V30 5359 H 501.237 -3.69002 0.924203 0
M  V30 5360 H 502.549 -4.88717 0.997862 0
M  V30 5361 H 501.703 -5.96725 -1.09565 0
M  V30 5362 H 500.442 -4.71235 -1.25656 0
M  V30 5363 H 499.447 -5.41743 0.937812 0
M  V30 5364 H 500.672 -6.70381 1.08469 0
M  V30 5365 H 498.618 -6.45913 -1.14595 0
M  V30 5366 H 498.535 -7.55756 0.19209 0
M  V30 5367 H 499.803 -7.73263 -0.984124 0
M  V30 5368 N 504.032 -0.577932 -1.46621 0
M  V30 5369 C 504.979 0.158048 -2.30258 0
M  V30 5370 C 505.949 0.888669 -1.40328 0
M  V30 5371 O 507.134 0.880283 -1.6928 0
M  V30 5372 C 504.274 1.16884 -3.24703 0
M  V30 5373 C 503.387 0.442163 -4.29731 0
M  V30 5374 C 502.522 1.44007 -5.11308 0
M  V30 5375 C 501.561 0.69952 -6.0809 0
M  V30 5376 N 500.698 1.64525 -6.82551 0
M  V30 5377 H 505.538 -0.561242 -2.92667 0
M  V30 5378 H 503.075 -0.288591 -1.44241 0
M  V30 5379 H 505.033 1.7677 -3.779 0
M  V30 5380 H 503.663 1.85591 -2.64113 0
M  V30 5381 H 502.715 -0.271632 -3.79429 0
M  V30 5382 H 504.027 -0.136992 -4.98612 0
M  V30 5383 H 503.181 2.11186 -5.68758 0
M  V30 5384 H 501.92 2.05315 -4.42377 0
M  V30 5385 H 500.925 0.0139217 -5.49798 0
M  V30 5386 H 502.15 0.091894 -6.79038 0
M  V30 5387 H 500.096 2.24653 -6.16334 0
M  V30 5388 H 500.013 1.11878 -7.47676 0
M  V30 5389 H 501.281 2.30754 -7.44562 0
M  V30 5390 O 505.549 1.54882 -0.457577 0
M  V30 5391 H 506.24 1.93569 0.0711413 0
M  V30 END ATOM
M  V30 BEGIN BOND
M  V30 END BOND
M  V30 END CTAB
M  END
$$$$
