drugbank_target|Q9Z4P0 Fumarate reductase flavoprotein subunit (DB03147)
 OpenBabel12092120263D

  0  0  0     0  0            999 V3000
M  V30 BEGIN CTAB
M  V30 COUNTS 8770 8849 0 0 0
M  V30 BEGIN ATOM
M  V30 1 H -0.908 1.98254 -0.117106 0
M  V30 2 N 0 1.576 0 0
M  V30 3 C 0.933 2.03868 1.02534 0
M  V30 4 C 1.911 0.928543 1.3348 0
M  V30 5 O 3.095 1.19667 1.45644 0
M  V30 6 C 0.222 2.43627 2.35294 0
M  V30 7 C -0.732 3.65373 2.2001 0
M  V30 8 S 0.101 5.13292 1.52614 0
M  V30 9 C 1.257 5.56322 2.86805 0
M  V30 10 H 1.49 2.90518 0.631377 0
M  V30 11 H -0.977 1.52953 0.210867 0
M  V30 12 H 0.981 2.67203 3.11629 0
M  V30 13 H -0.358 1.57376 2.7183 0
M  V30 14 H -1.165 3.90944 3.18086 0
M  V30 15 H -1.563 3.418 1.51819 0
M  V30 16 H 0.729 5.58782 3.83104 0
M  V30 17 H 1.672 6.56266 2.65933 0
M  V30 18 H 2.08 4.83886 2.90714 0
M  V30 19 N 1.4781 -0.272755 1.55222 0
M  V30 20 C 2.4251 -1.33716 1.88119 0
M  V30 21 C 3.3951 -1.49066 0.73271 0
M  V30 22 O 4.5801 -1.63469 0.984002 0
M  V30 23 C 1.7201 -2.69238 2.15882 0
M  V30 24 C 0.8331 -2.62108 3.43399 0
M  V30 25 C -0.0319 -3.89811 3.60861 0
M  V30 26 C -0.9929 -3.77193 4.8207 0
M  V30 27 N -1.8559 -4.9673 4.96189 0
M  V30 28 H 2.9841 -1.04962 2.78903 0
M  V30 29 H 0.5211 -0.507088 1.38083 0
M  V30 30 H 2.4791 -3.48089 2.29978 0
M  V30 31 H 1.1091 -2.96194 1.28331 0
M  V30 32 H 0.1611 -1.74967 3.37773 0
M  V30 33 H 1.4731 -2.48685 4.32386 0
M  V30 34 H 0.6271 -4.77103 3.74777 0
M  V30 35 H -0.6339 -4.06102 2.7006 0
M  V30 36 H -1.6289 -2.88284 4.68159 0
M  V30 37 H -0.4039 -3.62421 5.74307 0
M  V30 38 H -2.4579 -5.13431 4.08319 0
M  V30 39 H -2.5409 -4.85839 5.79221 0
M  V30 40 H -1.2729 -5.85594 5.1449 0
M  V30 41 N 2.9562 -1.48159 -0.537278 0
M  V30 42 C 3.8862 -1.65029 -1.6519 0
M  V30 43 C 4.8672 -0.499281 -1.62607 0
M  V30 44 O 6.0522 -0.730972 -1.79918 0
M  V30 45 C 3.1822 -1.68303 -3.03795 0
M  V30 46 C 2.1362 -2.8283 -3.21234 0
M  V30 47 C 1.4622 -2.71189 -4.60826 0
M  V30 48 C 2.7622 -4.24211 -3.04701 0
M  V30 49 H 4.4562 -2.58341 -1.51328 0
M  V30 50 H 2.0022 -1.24325 -0.726585 0
M  V30 51 H 3.9552 -1.78693 -3.81637 0
M  V30 52 H 2.6792 -0.715635 -3.18663 0
M  V30 53 H 1.3382 -2.71983 -2.45807 0
M  V30 54 H 0.9862 -1.72435 -4.7252 0
M  V30 55 H 0.6862 -3.48035 -4.7344 0
M  V30 56 H 2.2102 -2.83537 -5.40777 0
M  V30 57 H 3.6242 -4.3593 -3.72341 0
M  V30 58 H 2.0212 -5.01998 -3.28813 0
M  V30 59 H 3.0912 -4.41184 -2.01209 0
M  V30 60 N 4.4343 0.785586 -1.36625 0
M  V30 61 C 5.3813 1.89838 -1.31264 0
M  V30 62 C 6.3513 1.65115 -0.180633 0
M  V30 63 O 7.5363 1.87222 -0.36777 0
M  V30 64 C 4.6763 3.26706 -1.11163 0
M  V30 65 C 3.7893 3.63476 -2.33472 0
M  V30 66 C 2.9243 4.89481 -2.06353 0
M  V30 67 C 1.9633 5.18941 -3.24602 0
M  V30 68 N 1.1003 6.36131 -2.97123 0
M  V30 69 H 5.9403 1.93756 -2.26413 0
M  V30 70 H 3.4773 0.947454 -1.12524 0
M  V30 71 H 5.4353 4.05639 -0.975337 0
M  V30 72 H 4.0653 3.222 -0.196674 0
M  V30 73 H 3.1173 2.79636 -2.57891 0
M  V30 74 H 4.4293 3.81193 -3.21704 0
M  V30 75 H 3.5833 5.76288 -1.89675 0
M  V30 76 H 2.3223 4.73841 -1.15437 0
M  V30 77 H 1.3273 4.30615 -3.41834 0
M  V30 78 H 2.5523 5.36498 -4.16349 0
M  V30 79 H 0.4983 6.21875 -2.08823 0
M  V30 80 H 0.4153 6.54198 -3.78894 0
M  V30 81 H 1.6833 7.2591 -2.84033 0
M  V30 82 N 5.9124 1.20967 1.01018 0
M  V30 83 C 7.1424 1.04803 1.78044 0
M  V30 84 C 7.5504 -0.405462 1.84804 0
M  V30 85 O 6.8934 -1.2932 1.30468 0
M  V30 86 C 6.9554 1.56377 3.23707 0
M  V30 87 C 6.6194 3.04767 3.40538 0
M  V30 88 C 7.6164 4.02366 3.29239 0
M  V30 89 C 5.3014 3.43862 3.66147 0
M  V30 90 C 7.2954 5.37049 3.43304 0
M  V30 91 C 4.9824 4.78699 3.79855 0
M  V30 92 C 5.9804 5.75101 3.68439 0
M  V30 93 O 5.6684 7.07493 3.81719 0
M  V30 94 H 5.4004 0.368778 0.56655 0
M  V30 95 H 7.9544 1.60642 1.27997 0
M  V30 96 H 6.1844 0.949297 3.74867 0
M  V30 97 H 7.8734 1.36136 3.8239 0
M  V30 98 H 8.6394 3.73506 3.09384 0
M  V30 99 H 4.5184 2.69364 3.74118 0
M  V30 100 H 8.0624 6.12277 3.34309 0
M  V30 101 H 3.9594 5.07247 3.99213 0
M  V30 102 H 4.7274 7.1483 3.98697 0
M  V30 103 N 7.3905 -1.2043 1.01659 0
M  V30 104 C 8.3205 -2.25466 0.607226 0
M  V30 105 C 9.3015 -1.65853 -0.377716 0
M  V30 106 O 10.4865 -1.92409 -0.263149 0
M  V30 107 C 7.6165 -3.47256 -0.0552949 0
M  V30 108 C 6.5705 -4.19462 0.850632 0
M  V30 109 C 5.8965 -5.34673 0.0538859 0
M  V30 110 C 7.1965 -4.75603 2.15868 0
M  V30 111 H 8.8905 -2.59962 1.48526 0
M  V30 112 H 6.4365 -1.2496 0.715605 0
M  V30 113 H 8.3895 -4.19917 -0.353233 0
M  V30 114 H 7.1135 -3.11924 -0.968045 0
M  V30 115 H 5.7725 -3.48667 1.13257 0
M  V30 116 H 5.4205 -4.95585 -0.860514 0
M  V30 117 H 5.1205 -5.83913 0.657192 0
M  V30 118 H 6.6445 -6.10138 -0.237598 0
M  V30 119 H 8.0585 -5.40083 1.92311 0
M  V30 120 H 6.4555 -5.3528 2.71284 0
M  V30 121 H 7.5255 -3.94346 2.82169 0
M  V30 122 N 8.8686 -0.792821 -1.36206 0
M  V30 123 C 10.1146 -0.36733 -1.99446 0
M  V30 124 C 10.4476 1.05917 -1.62774 0
M  V30 125 O 9.7226 1.7324 -0.88421 0
M  V30 126 C 10.0056 -0.535044 -3.56103 0
M  V30 127 C 9.8586 -2.00548 -4.02617 0
M  V30 128 C 11.1776 0.0478191 -4.40074 0
M  V30 129 H 8.2966 -0.134941 -0.724541 0
M  V30 130 H 10.9386 -0.999794 -1.61568 0
M  V30 131 H 9.0886 0.00336329 -3.885 0
M  V30 132 H 10.7606 -2.60521 -3.80692 0
M  V30 133 H 9.0036 -2.50686 -3.54032 0
M  V30 134 H 9.6746 -2.07377 -5.11565 0
M  V30 135 H 12.1506 -0.411822 -4.14057 0
M  V30 136 H 11.0266 -0.0995336 -5.4881 0
M  V30 137 H 11.2876 1.14025 -4.27142 0
M  V30 138 N 10.3467 1.47872 -0.545128 0
M  V30 139 C 11.5717 2.07391 -0.0190611 0
M  V30 140 C 11.9967 1.39688 1.25971 0
M  V30 141 O 11.3547 0.467816 1.7516 0
M  V30 142 C 11.4027 3.60188 0.172335 0
M  V30 143 O 10.5067 3.9339 1.23766 0
M  V30 144 H 9.8477 0.662411 -0.0459059 0
M  V30 145 H 12.3777 1.90066 -0.757365 0
M  V30 146 H 12.3877 4.06129 0.390305 0
M  V30 147 H 11.0627 4.08865 -0.761725 0
M  V30 148 H 9.6397 3.5921 1.00114 0
M  V30 149 N 11.8248 0.280983 1.55075 0
M  V30 150 C 12.7878 -0.590896 2.21452 0
M  V30 151 C 13.7878 -1.07682 1.19421 0
M  V30 152 O 14.9778 -0.97605 1.44288 0
M  V30 153 C 12.1098 -1.81587 2.88511 0
M  V30 154 H 13.3028 -0.0112554 2.99898 0
M  V30 155 H 10.8558 0.0316438 1.56268 0
M  V30 156 H 11.5908 -2.43587 2.14093 0
M  V30 157 H 11.3758 -1.4753 3.63287 0
M  V30 158 H 12.8658 -2.43575 3.39206 0
M  V30 159 N 13.3029 -1.57598 0.00835791 0
M  V30 160 C 14.2359 -2.04409 -1.01451 0
M  V30 161 C 15.2139 -0.935609 -1.32985 0
M  V30 162 O 16.3979 -1.20437 -1.45007 0
M  V30 163 C 13.5249 -2.44872 -2.33999 0
M  V30 164 C 12.5709 -3.66535 -2.18069 0
M  V30 165 S 13.4039 -5.14095 -1.4989 0
M  V30 166 C 14.5599 -5.57835 -2.8385 0
M  V30 167 H 14.7929 -2.90849 -0.615961 0
M  V30 168 H 12.3259 -1.53063 -0.202752 0
M  V30 169 H 14.2839 -2.68852 -3.10208 0
M  V30 170 H 12.9449 -1.58815 -2.70992 0
M  V30 171 H 12.1379 -3.92626 -3.16008 0
M  V30 172 H 11.7399 -3.426 -1.50004 0
M  V30 173 H 14.0319 -5.60806 -3.80136 0
M  V30 174 H 14.9749 -6.57667 -2.62449 0
M  V30 175 H 15.3829 -4.85421 -2.88144 0
M  V30 176 N 14.781 0.264519 -1.55364 0
M  V30 177 C 15.744 1.31046 -1.88042 0
M  V30 178 C 16.744 1.41943 -0.755569 0
M  V30 179 O 17.934 1.40947 -1.02369 0
M  V30 180 C 15.066 2.69067 -2.09323 0
M  V30 181 H 16.259 1.03297 -2.81549 0
M  V30 182 H 13.812 0.502989 -1.47986 0
M  V30 183 H 14.547 3.01982 -1.18226 0
M  V30 184 H 14.332 2.62542 -2.91229 0
M  V30 185 H 15.822 3.44623 -2.35848 0
M  V30 186 N 16.2591 1.48442 0.529413 0
M  V30 187 C 17.1891 1.65902 1.64313 0
M  V30 188 C 18.1701 0.507897 1.6234 0
M  V30 189 O 19.3551 0.740503 1.79528 0
M  V30 190 C 16.4851 1.69911 3.02898 0
M  V30 191 C 15.4391 2.8453 3.19729 0
M  V30 192 C 14.7651 2.73629 4.59381 0
M  V30 193 C 16.0651 4.25821 3.02447 0
M  V30 194 H 17.7591 2.5914 1.49955 0
M  V30 195 H 15.3051 1.24709 0.719982 0
M  V30 196 H 17.2581 1.80715 3.80684 0
M  V30 197 H 15.9821 0.732524 3.18279 0
M  V30 198 H 14.6411 2.73283 2.44361 0
M  V30 199 H 14.2891 1.74938 4.71599 0
M  V30 200 H 13.9891 3.50541 4.71588 0
M  V30 201 H 15.5131 2.86401 5.39265 0
M  V30 202 H 16.9271 4.37898 3.70024 0
M  V30 203 H 15.3241 5.03735 3.26146 0
M  V30 204 H 16.3941 4.42244 1.98867 0
M  V30 205 N 17.7372 -0.778329 1.37039 0
M  V30 206 C 18.9832 -1.53892 1.32079 0
M  V30 207 C 19.3162 -1.9396 -0.0965386 0
M  V30 208 O 18.5912 -1.63568 -1.05242 0
M  V30 209 C 18.8742 -2.80847 2.25382 0
M  V30 210 C 18.7272 -2.47076 3.75864 0
M  V30 211 C 20.0462 -3.82741 2.1725 0
M  V30 212 H 17.1652 -0.558303 0.48111 0
M  V30 213 H 19.8072 -0.893397 1.67685 0
M  V30 214 H 17.9572 -3.35931 1.95148 0
M  V30 215 H 19.6292 -1.97957 4.16666 0
M  V30 216 H 17.8722 -1.79863 3.94755 0
M  V30 217 H 18.5432 -3.37798 4.36574 0
M  V30 218 H 21.0192 -3.37133 2.43887 0
M  V30 219 H 19.8952 -4.69303 2.84686 0
M  V30 220 H 20.1562 -4.2652 1.16331 0
M  V30 221 N 19.2153 -1.21501 -1.00376 0
M  V30 222 C 20.4613 -1.03452 -1.74429 0
M  V30 223 C 20.7943 0.430764 -1.89362 0
M  V30 224 O 20.0693 1.31962 -1.42886 0
M  V30 225 C 20.3523 -1.73375 -3.15615 0
M  V30 226 C 20.2053 -3.27431 -3.08397 0
M  V30 227 C 21.5243 -1.47732 -4.14564 0
M  V30 228 H 18.6433 -0.377226 -0.633143 0
M  V30 229 H 21.2853 -1.49693 -1.17013 0
M  V30 230 H 19.4353 -1.34064 -3.64636 0
M  V30 231 H 21.1073 -3.76119 -2.67081 0
M  V30 232 H 19.3503 -3.5767 -2.45468 0
M  V30 233 H 20.0213 -3.71524 -4.08258 0
M  V30 234 H 22.4973 -1.8186 -3.74254 0
M  V30 235 H 21.3733 -1.99169 -5.11491 0
M  V30 236 H 21.6343 -0.407589 -4.40217 0
M  V30 237 N 20.6934 1.19889 -1.02296 0
M  V30 238 C 21.6234 2.25141 -0.619174 0
M  V30 239 C 22.6044 1.66051 0.368915 0
M  V30 240 O 23.7894 1.92546 0.252941 0
M  V30 241 C 20.9194 3.4728 0.0368783 0
M  V30 242 C 19.8734 4.19005 -0.872865 0
M  V30 243 C 19.1994 5.34637 -0.0822402 0
M  V30 244 C 20.4994 4.74452 -2.18387 0
M  V30 245 H 22.1934 2.59171 -1.49903 0
M  V30 246 H 19.7394 1.24579 -0.722222 0
M  V30 247 H 21.6924 4.20098 0.330958 0
M  V30 248 H 20.4164 3.12433 0.95149 0
M  V30 249 H 19.0754 3.48061 -1.15105 0
M  V30 250 H 18.7234 4.96034 0.83422 0
M  V30 251 H 18.4234 5.83557 -0.688149 0
M  V30 252 H 19.9474 6.10255 0.205238 0
M  V30 253 H 21.3614 5.39055 -1.95172 0
M  V30 254 H 19.7584 5.33834 -2.74119 0
M  V30 255 H 20.8284 3.92844 -2.84257 0
M  V30 256 N 22.1715 0.800033 1.35784 0
M  V30 257 C 23.3965 0.388511 2.03729 0
M  V30 258 C 23.8215 -0.990481 1.5991 0
M  V30 259 O 23.1795 -1.64013 0.772612 0
M  V30 260 C 23.2275 0.4726 3.5749 0
M  V30 261 O 22.3315 -0.51646 4.09153 0
M  V30 262 H 21.6725 0.163271 0.643614 0
M  V30 263 H 24.2025 1.0841 1.73518 0
M  V30 264 H 24.2125 0.34003 4.06581 0
M  V30 265 H 22.8875 1.47848 3.88734 0
M  V30 266 H 21.4645 -0.344673 3.71304 0
M  V30 267 N 23.6496 -1.47581 0.552962 0
M  V30 268 C 24.8746 -2.07378 0.0300593 0
M  V30 269 C 25.2996 -1.40355 -1.25229 0
M  V30 270 O 24.6576 -0.477099 -1.7491 0
M  V30 271 C 24.7056 -3.60274 -0.153231 0
M  V30 272 O 23.8096 -3.94041 -1.21678 0
M  V30 273 H 23.1506 -0.662158 0.0494182 0
M  V30 274 H 25.6806 -1.89662 0.767434 0
M  V30 275 H 25.6906 -4.0633 -0.368761 0
M  V30 276 H 24.3656 -4.08455 0.783397 0
M  V30 277 H 22.9426 -3.59735 -0.982079 0
M  V30 278 N 25.1277 -0.289203 -1.54924 0
M  V30 279 C 26.3757 0.322879 -1.99504 0
M  V30 280 C 26.6967 1.55313 -1.1791 0
M  V30 281 O 25.9667 1.94001 -0.272097 0
M  V30 282 H 24.5467 0.122291 -0.736922 0
M  V30 283 H 27.2087 -0.397802 -1.90797 0
M  V30 284 H 26.3047 0.603061 -3.06218 0
M  V30 285 N 26.6058 1.57591 -0.0167156 0
M  V30 286 C 27.8338 1.95575 0.675128 0
M  V30 287 C 28.2488 0.892542 1.6637 0
M  V30 288 O 27.6058 -0.126912 1.82058 0
M  V30 289 C 27.6568 3.33608 1.39239 0
M  V30 290 O 27.3778 4.3585 0.443444 0
M  V30 291 C 28.8788 3.86151 2.17721 0
M  V30 292 H 26.0988 0.644423 0.186978 0
M  V30 293 H 28.6428 2.0437 -0.0728 0
M  V30 294 H 26.7978 3.2607 2.09182 0
M  V30 295 H 27.2118 5.158 0.951358 0
M  V30 296 H 28.6858 4.85114 2.63379 0
M  V30 297 H 29.1628 3.19738 3.01105 0
M  V30 298 H 29.7688 3.96918 1.52761 0
M  V30 299 N 28.0839 -0.256276 1.55502 0
M  V30 300 C 29.0469 -1.30047 1.88734 0
M  V30 301 C 30.0469 -1.4154 0.763086 0
M  V30 302 O 31.2369 -1.40403 1.03115 0
M  V30 303 C 28.3689 -2.67953 2.10747 0
M  V30 304 H 29.5619 -1.01802 2.82093 0
M  V30 305 H 27.1149 -0.495134 1.4825 0
M  V30 306 H 27.8499 -3.01351 1.19825 0
M  V30 307 H 27.6349 -2.60993 2.92617 0
M  V30 308 H 29.1249 -3.43368 2.37673 0
M  V30 309 N 29.562 -1.4872 -0.521534 0
M  V30 310 C 30.495 -1.58451 -1.64221 0
M  V30 311 C 31.473 -0.434513 -1.56687 0
M  V30 312 O 32.657 -0.647275 -1.77038 0
M  V30 313 C 29.784 -1.52037 -3.02659 0
M  V30 314 C 28.83 -2.71981 -3.28525 0
M  V30 315 S 29.663 -4.33869 -3.13876 0
M  V30 316 C 30.819 -4.30067 -4.54745 0
M  V30 317 H 31.052 -2.53256 -1.55719 0
M  V30 318 H 28.585 -1.37358 -0.705143 0
M  V30 319 H 30.543 -1.49023 -3.82495 0
M  V30 320 H 29.204 -0.585541 -3.08594 0
M  V30 321 H 28.397 -2.63656 -4.29536 0
M  V30 322 H 27.999 -2.72302 -2.56374 0
M  V30 323 H 30.291 -4.00521 -5.46433 0
M  V30 324 H 31.234 -5.31287 -4.68123 0
M  V30 325 H 31.642 -3.60419 -4.34463 0
M  V30 326 N 31.0401 0.771051 -1.3745 0
M  V30 327 C 32.0031 1.86598 -1.33093 0
M  V30 328 C 33.0031 1.59076 -0.234845 0
M  V30 329 O 34.1931 1.67145 -0.490732 0
M  V30 330 C 31.3251 3.23747 -1.06773 0
M  V30 331 H 32.5181 1.91873 -2.30488 0
M  V30 332 H 30.0711 0.970876 -1.2249 0
M  V30 333 H 30.8061 3.24148 -0.099129 0
M  V30 334 H 30.5911 3.45115 -1.86112 0
M  V30 335 H 32.0811 4.03824 -1.06377 0
M  V30 336 N 32.5182 1.22032 0.997298 0
M  V30 337 C 33.4652 0.986467 2.08656 0
M  V30 338 C 34.4352 -0.0902671 1.65855 0
M  V30 339 O 35.6202 0.0584294 1.90711 0
M  V30 340 C 32.7602 0.565569 3.40434 0
M  V30 341 C 31.8732 1.71259 3.96604 0
M  V30 342 C 31.0082 1.24011 5.16522 0
M  V30 343 C 30.0472 2.35896 5.64818 0
M  V30 344 N 29.1842 1.89726 6.7598 0
M  V30 345 H 34.0242 1.91892 2.27994 0
M  V30 346 H 31.5612 0.956199 1.11782 0
M  V30 347 H 33.5192 0.302738 4.161 0
M  V30 348 H 32.1492 -0.329879 3.2111 0
M  V30 349 H 31.2012 2.08986 3.17851 0
M  V30 350 H 32.5132 2.55436 4.28432 0
M  V30 351 H 31.6672 0.934395 5.99461 0
M  V30 352 H 30.4062 0.368487 4.86306 0
M  V30 353 H 29.4112 2.67261 4.8047 0
M  V30 354 H 30.6362 3.23567 5.97061 0
M  V30 355 H 28.5822 1.0492 6.47555 0
M  V30 356 H 28.4992 2.67471 7.07103 0
M  V30 357 H 29.7672 1.62211 7.62435 0
M  V30 358 N 33.9963 -1.19345 1.0293 0
M  V30 359 C 35.2243 -1.92997 0.745644 0
M  V30 360 C 35.6393 -1.75519 -0.695589 0
M  V30 361 O 34.9963 -1.07737 -1.47306 0
M  V30 362 C 35.0473 -3.44741 1.08792 0
M  V30 363 O 34.7683 -3.61658 2.47256 0
M  V30 364 C 36.2693 -4.35515 0.827129 0
M  V30 365 H 33.4893 -0.613042 0.272801 0
M  V30 366 H 36.0333 -1.51473 1.3739 0
M  V30 367 H 34.1883 -3.84097 0.504832 0
M  V30 368 H 34.6023 -4.55514 2.60015 0
M  V30 369 H 36.0763 -5.40589 1.11658 0
M  V30 370 H 36.5533 -4.38552 -0.238436 0
M  V30 371 H 37.1593 -4.01841 1.39297 0
M  V30 372 N 35.4744 -0.807222 -1.35358 0
M  V30 373 C 36.8854 -0.44876 -1.81226 0
M  V30 374 C 37.2364 1.02929 -1.67033 0
M  V30 375 O 36.3614 1.79991 -1.20133 0
M  V30 376 C 36.9564 -0.807774 -3.2903 0
M  V30 377 C 35.5154 -0.501901 -3.73039 0
M  V30 378 C 34.6624 -1.03304 -2.57339 0
M  V30 379 H 37.6134 -0.998808 -1.23327 0
M  V30 380 H 37.6344 -0.10554 -3.80354 0
M  V30 381 H 37.1464 -1.88357 -3.39328 0
M  V30 382 H 35.2474 0.565128 -3.68289 0
M  V30 383 H 35.3604 -1.03497 -4.67787 0
M  V30 384 H 33.7244 -0.455339 -2.50597 0
M  V30 385 H 34.5074 -2.11496 -2.70415 0
M  V30 386 N 36.9525 1.47285 -0.560781 0
M  V30 387 C 38.2295 1.9558 0.0277798 0
M  V30 388 C 38.6095 1.5034 1.48192 0
M  V30 389 O 37.9575 0.743882 2.16052 0
M  V30 390 C 38.1675 3.48789 -0.121418 0
M  V30 391 C 39.5155 4.24594 0.0220912 0
M  V30 392 O 40.5395 3.56166 -0.0491439 0
M  V30 393 O 39.3985 5.46217 0.175958 0
M  V30 394 H 36.4925 0.824663 0.0621342 0
M  V30 395 H 39.0385 1.5767 -0.627556 0
M  V30 396 H 37.8105 3.74533 -1.13316 0
M  V30 397 H 37.4335 3.93473 0.571366 0
M  V30 398 N 38.4306 0.297415 1.54768 0
M  V30 399 C 39.3636 -0.622188 2.19554 0
M  V30 400 C 40.3416 -1.13558 1.16376 0
M  V30 401 O 41.5256 -1.20444 1.45002 0
M  V30 402 C 38.6526 -1.8509 2.83653 0
M  V30 403 C 37.6986 -1.47106 4.00328 0
M  V30 404 S 38.5316 -0.53006 5.3287 0
M  V30 405 C 39.6876 -1.76665 6.0045 0
M  V30 406 H 39.9206 -0.0717806 2.97213 0
M  V30 407 H 37.4536 0.0815678 1.54184 0
M  V30 408 H 39.4116 -2.55605 3.21211 0
M  V30 409 H 38.0726 -2.37247 2.05846 0
M  V30 410 H 37.2656 -2.38594 4.43947 0
M  V30 411 H 36.8676 -0.845885 3.64309 0
M  V30 412 H 39.1596 -2.7077 6.21039 0
M  V30 413 H 40.1026 -1.37308 6.9466 0
M  V30 414 H 40.5106 -1.94174 5.30054 0
M  V30 415 N 39.9087 -1.5758 0.0250728 0
M  V30 416 C 41.1567 -1.91255 -0.653151 0
M  V30 417 C 41.4777 -0.901691 -1.729 0
M  V30 418 O 40.7477 0.0573785 -1.95816 0
M  V30 419 H 39.3277 -0.705942 -0.244243 0
M  V30 420 H 41.9897 -1.94767 0.0719209 0
M  V30 421 H 41.0857 -2.91752 -1.10847 0
M  V30 422 N 41.3868 0.248026 -1.55636 0
M  V30 423 C 42.6118 0.998028 -1.81808 0
M  V30 424 C 43.0368 1.78207 -0.601979 0
M  V30 425 O 42.3948 1.75653 0.448961 0
M  V30 426 C 42.4428 1.9125 -3.05705 0
M  V30 427 O 41.5468 3.00406 -2.82542 0
M  V30 428 H 40.8878 0.284045 -0.600179 0
M  V30 429 H 43.4178 0.269357 -2.02819 0
M  V30 430 H 43.4278 2.32737 -3.35108 0
M  V30 431 H 42.1028 1.33602 -3.93857 0
M  V30 432 H 40.6798 2.63056 -2.64303 0
M  V30 433 N 42.8649 1.48995 0.513639 0
M  V30 434 C 44.1119 1.57843 1.26854 0
M  V30 435 C 44.4399 0.259501 1.92761 0
M  V30 436 O 43.6949 -0.75159 1.80692 0
M  V30 437 C 43.9939 2.67756 2.36731 0
M  V30 438 C 43.6599 4.09669 1.88368 0
M  V30 439 C 42.3219 4.48291 1.74896 0
M  V30 440 C 44.6739 4.98537 1.52021 0
M  V30 441 C 42.0019 5.73568 1.23438 0
M  V30 442 C 44.3539 6.24319 1.0202 0
M  V30 443 C 43.0179 6.61783 0.871778 0
M  V30 444 H 42.2879 0.577587 0.464192 0
M  V30 445 H 44.9349 1.82778 0.571366 0
M  V30 446 H 43.2399 2.36743 3.12185 0
M  V30 447 H 44.9369 2.71813 2.9482 0
M  V30 448 H 41.5269 3.79176 1.99808 0
M  V30 449 H 45.7109 4.69363 1.61281 0
M  V30 450 H 40.9669 6.01304 1.10648 0
M  V30 451 H 45.1409 6.92566 0.729722 0
M  V30 452 H 42.7679 7.5874 0.470852 0
M  V30 453 N 44.343 -0.763751 1.37857 0
M  V30 454 C 45.293 -1.86765 1.30777 0
M  V30 455 C 46.277 -1.59726 0.194015 0
M  V30 456 O 47.469 -1.7172 0.42911 0
M  V30 457 C 44.598 -3.24343 1.12502 0
M  V30 458 C 43.684 -3.57307 2.28456 0
M  V30 459 N 44.075 -3.61398 3.53871 0
M  V30 460 C 42.373 -3.87517 2.20786 0
M  V30 461 C 43.074 -3.91339 4.30382 0
M  V30 462 N 42.05 -4.07649 3.59615 0
M  V30 463 H 45.852 -1.88191 2.25746 0
M  V30 464 H 43.366 -0.9606 1.30944 0
M  V30 465 H 45.363 -4.03327 1.05514 0
M  V30 466 H 44.023 -3.24175 0.184574 0
M  V30 467 H 45.034 -3.43407 3.87675 0
M  V30 468 H 41.711 -3.95125 1.34844 0
M  V30 469 H 43.101 -4.01213 5.3896 0
M  V30 470 N 45.8211 -1.22559 -0.990812 0
M  V30 471 C 46.7841 -0.998863 -2.0629 0
M  V30 472 C 47.7841 0.0354834 -1.60761 0
M  V30 473 O 48.9741 -0.203231 -1.7301 0
M  V30 474 C 46.1061 -0.509203 -3.37076 0
M  V30 475 H 47.2991 -1.95014 -2.27837 0
M  V30 476 H 44.8521 -1.04456 -1.16269 0
M  V30 477 H 45.5871 0.446335 -3.21214 0
M  V30 478 H 45.3721 -1.25547 -3.71457 0
M  V30 479 H 46.8621 -0.370888 -4.1595 0
M  V30 480 N 47.2992 1.18797 -1.03562 0
M  V30 481 C 48.5762 1.84469 -0.650434 0
M  V30 482 C 48.9562 1.92319 0.870433 0
M  V30 483 O 48.3042 1.44528 1.76986 0
M  V30 484 C 48.5142 3.2306 -1.32036 0
M  V30 485 C 49.8622 3.9915 -1.44792 0
M  V30 486 O 50.8862 3.32481 -1.27806 0
M  V30 487 O 49.7452 5.18587 -1.72423 0
M  V30 488 H 46.8392 0.795251 -0.226946 0
M  V30 489 H 49.3852 1.26231 -1.13419 0
M  V30 490 H 48.1572 3.1222 -2.3587 0
M  V30 491 H 47.7802 3.88949 -0.8249 0
M  V30 492 N 48.7773 0.814389 1.34928 0
M  V30 493 C 49.7103 0.175641 2.27523 0
M  V30 494 C 50.6883 -0.662953 1.48471 0
M  V30 495 O 51.8723 -0.628545 1.77712 0
M  V30 496 C 48.9993 -0.755516 3.30166 0
M  V30 497 C 48.0453 0.00445305 4.265 0
M  V30 498 S 48.8783 1.34582 5.18313 0
M  V30 499 C 50.0343 0.419315 6.24494 0
M  V30 500 H 50.2673 0.960691 2.8135 0
M  V30 501 H 47.8003 0.609846 1.41846 0
M  V30 502 H 49.7583 -1.28723 3.89796 0
M  V30 503 H 48.4193 -1.51402 2.75202 0
M  V30 504 H 47.6123 -0.703077 4.99072 0
M  V30 505 H 47.2143 0.466447 3.7108 0
M  V30 506 H 49.5063 -0.392432 6.76362 0
M  V30 507 H 50.4493 1.11446 6.99275 0
M  V30 508 H 50.8573 0.0115389 5.64499 0
M  V30 509 N 50.2554 -1.46986 0.568584 0
M  V30 510 C 51.5034 -2.02041 0.0487022 0
M  V30 511 C 51.8244 -1.44408 -1.31039 0
M  V30 512 O 51.0944 -0.623477 -1.85714 0
M  V30 513 H 49.6744 -0.746849 0.015014 0
M  V30 514 H 52.3364 -1.80257 0.741168 0
M  V30 515 H 51.4324 -3.12085 -0.0308961 0
M  V30 516 N 51.7335 -0.305618 -1.54608 0
M  V30 517 C 52.9585 0.307562 -2.05107 0
M  V30 518 C 53.3835 1.46385 -1.18123 0
M  V30 519 O 52.7415 1.8034 -0.186324 0
M  V30 520 C 52.7895 0.73704 -3.52987 0
M  V30 521 O 51.8935 1.84134 -3.6901 0
M  V30 522 H 51.2345 0.0589143 -0.661381 0
M  V30 523 H 53.7645 -0.448807 -1.99617 0
M  V30 524 H 53.7745 1.02459 -3.94925 0
M  V30 525 H 52.4495 -0.108773 -4.15758 0
M  V30 526 H 51.0265 1.55398 -3.38978 0
M  V30 527 N 53.2116 1.57565 -0.0334293 0
M  V30 528 C 54.4516 1.93844 0.648379 0
M  V30 529 C 54.8156 0.910387 1.69044 0
M  V30 530 O 56.0166 1.15952 2.42505 0
M  V30 531 C 54.2876 3.35017 1.24492 0
M  V30 532 S 55.8466 3.93229 1.94721 0
M  V30 533 H 52.6646 0.678231 0.213364 0
M  V30 534 H 55.2666 1.95254 -0.0981253 0
M  V30 535 H 53.9706 4.07652 0.474128 0
M  V30 536 H 53.5016 3.37061 2.02864 0
M  V30 537 H 55.5166 3.77014 3.22606 0
M  V30 538 N 54.6897 -0.239769 1.55765 0
M  V30 539 C 55.6217 -1.32001 1.87372 0
M  V30 540 C 56.6347 -1.43944 0.760522 0
M  V30 541 O 57.8237 -1.45167 1.0387 0
M  V30 542 C 54.9237 -2.69779 2.05115 0
M  V30 543 C 54.0967 -2.80014 3.36022 0
M  V30 544 C 53.1557 -3.98684 3.4342 0
M  V30 545 O 52.1817 -3.87877 4.16582 0
M  V30 546 N 53.3837 -5.12176 2.73232 0
M  V30 547 H 56.1487 -1.0522 2.80622 0
M  V30 548 H 53.7097 -0.429857 1.56089 0
M  V30 549 H 55.7017 -3.47517 2.07399 0
M  V30 550 H 54.2717 -2.89237 1.18577 0
M  V30 551 H 53.4917 -1.88896 3.45994 0
M  V30 552 H 54.7797 -2.83808 4.22292 0
M  V30 553 H 54.1777 -5.2385 2.13536 0
M  V30 554 H 52.7347 -5.88022 2.81199 0
M  V30 555 N 56.1678 -1.49265 -0.50573 0
M  V30 556 C 57.3928 -1.62478 -1.28902 0
M  V30 557 C 57.8178 -0.294332 -1.85783 0
M  V30 558 O 57.1758 0.737412 -1.65626 0
M  V30 559 C 57.2238 -2.69268 -2.39848 0
M  V30 560 O 56.3278 -2.28113 -3.43567 0
M  V30 561 H 55.6688 -0.54399 -0.380751 0
M  V30 562 H 58.1988 -1.95421 -0.605952 0
M  V30 563 H 58.2088 -2.91291 -2.85681 0
M  V30 564 H 56.8838 -3.65846 -1.97812 0
M  V30 565 H 55.4608 -2.16401 -3.03685 0
M  V30 566 N 57.6459 0.756429 -1.3826 0
M  V30 567 C 58.8859 1.52833 -1.35725 0
M  V30 568 C 59.2499 1.91926 0.0534106 0
M  V30 569 O 60.4509 2.68028 0.203613 0
M  V30 570 C 58.7219 2.74919 -2.28373 0
M  V30 571 S 60.2809 3.64817 -2.43832 0
M  V30 572 H 57.0989 0.523043 -0.481608 0
M  V30 573 H 59.7009 0.888212 -1.74158 0
M  V30 574 H 58.4049 2.44304 -3.29763 0
M  V30 575 H 57.9359 3.43878 -1.91079 0
M  V30 576 H 59.9509 4.676 -1.66027 0
M  V30 577 N 59.124 1.23083 0.984299 0
M  V30 578 C 60.074 0.975749 2.06066 0
M  V30 579 C 61.058 -0.0768251 1.60716 0
M  V30 580 O 62.25 0.134805 1.76486 0
M  V30 581 C 59.379 0.564673 3.38624 0
M  V30 582 C 58.465 1.65244 3.90583 0
M  V30 583 N 58.856 2.88193 4.15666 0
M  V30 584 C 57.154 1.52612 4.19077 0
M  V30 585 C 57.855 3.58593 4.58024 0
M  V30 586 N 56.831 2.86093 4.62225 0
M  V30 587 H 60.633 1.90957 2.23411 0
M  V30 588 H 58.147 1.12963 1.16675 0
M  V30 589 H 60.144 0.36322 4.15315 0
M  V30 590 H 58.804 -0.362147 3.22674 0
M  V30 591 H 59.815 3.24537 4.03604 0
M  V30 592 H 56.492 0.666121 4.12152 0
M  V30 593 H 57.882 4.63974 4.85982 0
M  V30 594 N 60.6021 -1.18246 1.0419 0
M  V30 595 C 61.5651 -2.20128 0.638452 0
M  V30 596 C 62.5651 -1.57885 -0.304805 0
M  V30 597 O 63.7551 -1.73967 -0.0900369 0
M  V30 598 C 60.8871 -3.4084 -0.0637751 0
M  V30 599 H 62.0801 -2.57336 1.54007 0
M  V30 600 H 59.6331 -1.32152 0.834598 0
M  V30 601 H 60.3681 -3.09166 -0.979136 0
M  V30 602 H 60.1531 -3.8726 0.614198 0
M  V30 603 H 61.6431 -4.16274 -0.332512 0
M  V30 604 N 62.0802 -0.821533 -1.34494 0
M  V30 605 C 63.0272 -0.240397 -2.29545 0
M  V30 606 C 63.9972 0.634031 -1.53523 0
M  V30 607 O 65.1822 0.575966 -1.81899 0
M  V30 608 C 62.3222 0.592869 -3.39969 0
M  V30 609 C 61.4352 -0.30365 -4.30932 0
M  V30 610 C 60.5702 0.539049 -5.28458 0
M  V30 611 C 59.6092 -0.356942 -6.11058 0
M  V30 612 N 58.7462 0.446603 -7.00678 0
M  V30 613 H 63.5862 -1.05632 -2.7865 0
M  V30 614 H 61.1232 -0.532413 -1.37127 0
M  V30 615 H 63.0812 1.09129 -4.02675 0
M  V30 616 H 61.7112 1.37392 -2.92102 0
M  V30 617 H 60.7632 -0.920276 -3.691 0
M  V30 618 H 62.0752 -0.992661 -4.88823 0
M  V30 619 H 61.2292 1.102 -5.96608 0
M  V30 620 H 59.9682 1.26157 -4.71101 0
M  V30 621 H 58.9732 -0.932047 -5.41842 0
M  V30 622 H 60.1982 -1.07755 -6.70497 0
M  V30 623 H 58.1442 1.15282 -6.45791 0
M  V30 624 H 58.0612 -0.184048 -7.55776 0
M  V30 625 H 59.3292 0.992352 -7.73158 0
M  V30 626 N 63.5583 1.46682 -0.576371 0
M  V30 627 C 64.9693 1.86112 -0.148091 0
M  V30 628 C 65.3203 1.48073 1.2872 0
M  V30 629 O 64.4453 0.892656 1.97131 0
M  V30 630 C 65.0403 3.37786 -0.261982 0
M  V30 631 C 63.5993 3.76235 0.111384 0
M  V30 632 C 62.7463 2.70713 -0.60083 0
M  V30 633 H 65.6973 1.37927 -0.78497 0
M  V30 634 H 65.7183 3.77007 0.514364 0
M  V30 635 H 65.2303 3.6544 -1.30671 0
M  V30 636 H 63.3313 3.54198 1.15649 0
M  V30 637 H 63.4443 4.78391 -0.26052 0
M  V30 638 H 61.8083 2.54666 -0.0417783 0
M  V30 639 H 62.5913 3.01208 -1.64708 0
M  V30 640 N 65.0364 0.313813 1.54444 0
M  V30 641 C 66.2854 -0.292519 1.99568 0
M  V30 642 C 66.5984 -1.54011 1.20582 0
M  V30 643 O 67.8044 -2.22183 1.56035 0
M  V30 644 C 66.2604 -0.571752 3.55329 0
M  V30 645 C 65.8684 0.658229 4.43138 0
M  V30 646 C 67.6124 -1.13857 4.08946 0
M  V30 647 C 65.5194 0.351439 5.90355 0
M  V30 648 H 64.4494 -0.113079 0.745472 0
M  V30 649 H 67.1004 0.424518 1.78522 0
M  V30 650 H 65.4824 -1.34872 3.72325 0
M  V30 651 H 66.6564 1.43403 4.37918 0
M  V30 652 H 64.9714 1.14458 4.0036 0
M  V30 653 H 67.5684 -1.38257 5.16516 0
M  V30 654 H 67.9114 -2.08489 3.6033 0
M  V30 655 H 68.4444 -0.423015 3.95544 0
M  V30 656 H 65.1834 1.26667 6.43145 0
M  V30 657 H 64.7034 -0.386842 5.98551 0
M  V30 658 H 66.3824 -0.0423134 6.46986 0
M  V30 659 N 66.5145 -1.57545 0.0417849 0
M  V30 660 C 67.4615 -2.10977 -0.935805 0
M  V30 661 C 68.4315 -1.01486 -1.31491 0
M  V30 662 O 69.6165 -1.2898 -1.40602 0
M  V30 663 C 66.7565 -2.65169 -2.2086 0
M  V30 664 C 65.8695 -3.88714 -1.88482 0
M  V30 665 C 65.0045 -4.31254 -3.1015 0
M  V30 666 C 64.0435 -5.47524 -2.7365 0
M  V30 667 N 63.1805 -5.85162 -3.87982 0
M  V30 668 H 68.0205 -2.94218 -0.473249 0
M  V30 669 H 65.5575 -1.45415 -0.221981 0
M  V30 670 H 67.5155 -2.94685 -2.95325 0
M  V30 671 H 66.1455 -1.8474 -2.64709 0
M  V30 672 H 65.1975 -3.65849 -1.04205 0
M  V30 673 H 66.5095 -4.73245 -1.57608 0
M  V30 674 H 65.6635 -4.62273 -3.92923 0
M  V30 675 H 64.4025 -3.45516 -3.44195 0
M  V30 676 H 63.4075 -5.16187 -1.89291 0
M  V30 677 H 64.6325 -6.34971 -2.40807 0
M  V30 678 H 62.5785 -5.02377 -4.21846 0
M  V30 679 H 62.4955 -6.64362 -3.60775 0
M  V30 680 H 63.7635 -6.20791 -4.71422 0
M  V30 681 N 67.9926 0.231505 -1.5589 0
M  V30 682 C 69.2386 0.95877 -1.78705 0
M  V30 683 C 69.5716 1.8438 -0.609725 0
M  V30 684 O 68.8466 1.90521 0.391426 0
M  V30 685 C 69.1296 1.8062 -3.11526 0
M  V30 686 C 68.9826 0.948328 -4.39689 0
M  V30 687 C 70.3016 2.78585 -3.40703 0
M  V30 688 H 67.4206 0.347129 -0.650131 0
M  V30 689 H 70.0626 0.228259 -1.88624 0
M  V30 690 H 68.2126 2.42902 -3.03201 0
M  V30 691 H 69.8846 0.343016 -4.60023 0
M  V30 692 H 68.1276 0.253314 -4.3306 0
M  V30 693 H 68.7986 1.57543 -5.29041 0
M  V30 694 H 71.2746 2.26439 -3.49091 0
M  V30 695 H 70.1506 3.34988 -4.34826 0
M  V30 696 H 70.4116 3.55825 -2.62375 0
M  V30 697 N 69.4707 1.49531 0.497807 0
M  V30 698 C 70.6987 1.62893 1.27567 0
M  V30 699 C 71.1137 0.301585 1.86376 0
M  V30 700 O 70.4707 -0.713335 1.67982 0
M  V30 701 C 70.5217 2.70013 2.40364 0
M  V30 702 O 70.2427 3.976 1.83972 0
M  V30 703 C 71.7437 2.94109 3.31685 0
M  V30 704 H 68.9637 0.548298 0.386794 0
M  V30 705 H 71.5077 1.95584 0.597245 0
M  V30 706 H 69.6627 2.40092 3.04031 0
M  V30 707 H 70.0767 4.56631 2.58047 0
M  V30 708 H 71.5507 3.72788 4.07104 0
M  V30 709 H 72.0277 2.04147 3.88871 0
M  V30 710 H 72.6337 3.2546 2.73781 0
M  V30 711 N 70.9488 -0.749086 1.3866 0
M  V30 712 C 72.2258 -1.4992 1.25632 0
M  V30 713 C 72.6058 -2.10633 -0.140317 0
M  V30 714 O 71.9538 -1.97437 -1.15025 0
M  V30 715 C 72.1638 -2.56195 2.36992 0
M  V30 716 C 73.5118 -3.22972 2.75634 0
M  V30 717 O 74.5358 -2.66502 2.36337 0
M  V30 718 O 73.3948 -4.25122 3.43415 0
M  V30 719 H 70.4888 -0.665067 0.491544 0
M  V30 720 H 73.0348 -0.784113 1.50498 0
M  V30 721 H 71.8068 -2.09612 3.30422 0
M  V30 722 H 71.4298 -3.35279 2.13714 0
M  V30 723 N 72.4269 -1.23603 -0.977757 0
M  V30 724 C 73.6519 -1.09735 -1.75991 0
M  V30 725 C 74.0769 0.346858 -1.84874 0
M  V30 726 O 73.4349 1.25093 -1.3123 0
M  V30 727 C 73.4829 -1.73051 -3.16363 0
M  V30 728 O 72.5869 -0.994452 -4.0023 0
M  V30 729 H 71.9279 -0.384476 -0.541364 0
M  V30 730 H 74.4579 -1.6371 -1.2272 0
M  V30 731 H 74.4679 -1.78398 -3.66931 0
M  V30 732 H 73.1429 -2.78137 -3.09213 0
M  V30 733 H 71.7199 -1.01812 -3.58732 0
M  V30 734 N 73.905 1.17692 -1.04816 0
M  V30 735 C 74.815 2.25229 -0.65643 0
M  V30 736 C 75.831 1.71018 0.320761 0
M  V30 737 O 77.007 2.00649 0.173805 0
M  V30 738 C 74.072 3.46684 -0.0332629 0
M  V30 739 C 73.133 4.15997 -1.06042 0
M  V30 740 C 72.366 5.31654 -0.466893 0
M  V30 741 O 72.589 5.65777 0.724758 0
M  V30 742 O 71.523 5.89831 -1.1993 0
M  V30 743 H 75.349 2.61016 -1.55255 0
M  V30 744 H 72.934 1.24919 -0.81949 0
M  V30 745 H 74.816 4.20234 0.313256 0
M  V30 746 H 73.491 3.12703 0.836566 0
M  V30 747 H 72.398 3.44482 -1.45886 0
M  V30 748 H 73.731 4.53996 -1.90127 0
M  V30 749 N 75.3831 0.828654 1.34056 0
M  V30 750 C 76.6111 0.43262 2.02326 0
M  V30 751 C 77.0261 -0.963147 1.62385 0
M  V30 752 O 76.3831 -1.62425 0.832121 0
M  V30 753 C 76.4341 0.53182 3.57567 0
M  V30 754 O 76.1551 1.87258 3.96063 0
M  V30 755 C 77.6561 0.131422 4.43105 0
M  V30 756 H 74.8761 0.172923 0.648335 0
M  V30 757 H 77.4201 1.1184 1.71208 0
M  V30 758 H 75.5751 -0.105938 3.87255 0
M  V30 759 H 75.9891 1.85087 4.90758 0
M  V30 760 H 77.4631 0.251904 5.51425 0
M  V30 761 H 77.9401 -0.925645 4.29335 0
M  V30 762 H 78.5461 0.743207 4.18756 0
M  V30 763 N 76.8612 -1.46375 0.584142 0
M  V30 764 C 77.8112 -2.27371 -0.169232 0
M  V30 765 C 78.7952 -1.35955 -0.860523 0
M  V30 766 O 79.9872 -1.60119 -0.754382 0
M  V30 767 C 77.1162 -3.22334 -1.18134 0
M  V30 768 C 76.2022 -4.21235 -0.492088 0
M  V30 769 N 76.5932 -5.03766 0.453129 0
M  V30 770 C 74.8912 -4.39773 -0.742652 0
M  V30 771 C 75.5922 -5.75366 0.85609 0
M  V30 772 N 74.5682 -5.43214 0.204926 0
M  V30 773 H 78.3702 -2.88572 0.557097 0
M  V30 774 H 75.8842 -1.57242 0.406042 0
M  V30 775 H 77.8812 -3.79071 -1.73525 0
M  V30 776 H 76.5412 -2.62693 -1.90847 0
M  V30 777 H 77.5522 -5.11227 0.828723 0
M  V30 778 H 74.2292 -3.91279 -1.45625 0
M  V30 779 H 75.6192 -6.5172 1.63434 0
M  V30 780 N 78.3393 -0.321999 -1.54275 0
M  V30 781 C 79.2493 0.553631 -2.27974 0
M  V30 782 C 80.2653 1.13054 -1.32268 0
M  V30 783 O 81.4413 1.15084 -1.6528 0
M  V30 784 C 78.5063 1.69927 -3.02201 0
M  V30 785 C 77.5673 1.15433 -4.1349 0
M  V30 786 C 76.8003 2.24537 -4.84168 0
M  V30 787 O 77.0233 3.44852 -4.5435 0
M  V30 788 O 75.9573 1.90044 -5.7111 0
M  V30 789 H 79.7833 -0.0448345 -3.03667 0
M  V30 790 H 77.3683 -0.0877418 -1.49142 0
M  V30 791 H 79.2503 2.3663 -3.48689 0
M  V30 792 H 77.9253 2.28395 -2.29385 0
M  V30 793 H 76.8323 0.452436 -3.71354 0
M  V30 794 H 78.1653 0.614805 -4.88345 0
M  V30 795 N 79.8174 1.5752 -0.0501392 0
M  V30 796 C 80.7654 2.12651 0.942459 0
M  V30 797 C 81.7594 1.05807 1.32292 0
M  V30 798 O 82.9654 1.24217 1.3027 0
M  V30 799 H 79.3404 0.679673 0.321789 0
M  V30 800 H 81.3114 2.94951 0.452356 0
M  V30 801 C 80.0604 2.68565 2.20836 0
M  V30 802 H 79.3834 3.50439 1.92439 0
M  V30 803 H 80.8234 3.10761 2.8845 0
M  V30 804 C 79.2824 1.62291 2.95234 0
M  V30 805 O 79.8124 1.03508 3.88135 0
M  V30 806 N 78.0184 1.33836 2.57946 0
M  V30 807 H 77.5654 1.81826 1.82475 0
M  V30 808 H 77.5234 0.629595 3.08032 0
M  V30 809 N 81.2955 -0.223234 1.56011 0
M  V30 810 C 82.2585 -1.26014 1.9145 0
M  V30 811 C 83.2585 -1.3989 0.792937 0
M  V30 812 O 84.4485 -1.38184 1.0607 0
M  V30 813 C 81.5805 -2.63422 2.16383 0
M  V30 814 H 82.7735 -0.95796 2.84189 0
M  V30 815 H 80.3265 -0.463576 1.49267 0
M  V30 816 H 81.0615 -2.98741 1.2619 0
M  V30 817 H 80.8465 -2.54728 2.98088 0
M  V30 818 H 82.3365 -3.38249 2.44903 0
M  V30 819 N 82.7736 -1.49793 -0.48987 0
M  V30 820 C 83.7056 -1.63413 -1.60713 0
M  V30 821 C 84.7186 -0.516329 -1.54395 0
M  V30 822 O 85.9076 -0.788812 -1.60125 0
M  V30 823 C 83.0076 -1.58516 -2.99543 0
M  V30 824 C 82.1806 -2.86016 -3.30928 0
M  V30 825 C 81.2396 -2.74018 -4.49222 0
M  V30 826 O 80.2656 -3.47964 -4.50455 0
M  V30 827 N 81.4676 -1.86309 -5.4979 0
M  V30 828 H 84.2326 -2.59777 -1.49452 0
M  V30 829 H 81.7936 -1.47022 -0.677955 0
M  V30 830 H 83.7856 -1.48128 -3.76617 0
M  V30 831 H 82.3556 -0.69965 -3.0467 0
M  V30 832 H 81.5756 -3.10672 -2.42645 0
M  V30 833 H 82.8636 -3.70521 -3.487 0
M  V30 834 H 82.2616 -1.2551 -5.51601 0
M  V30 835 H 80.8186 -1.81837 -6.25922 0
M  V30 836 N 84.2517 0.741722 -1.39055 0
M  V30 837 C 85.4917 1.51385 -1.37338 0
M  V30 838 C 85.8557 1.91972 0.0330513 0
M  V30 839 O 87.0567 2.68229 0.175174 0
M  V30 840 C 85.3277 2.72481 -2.31276 0
M  V30 841 S 86.8867 3.62211 -2.47687 0
M  V30 842 H 83.7047 0.517906 -0.487129 0
M  V30 843 H 86.3067 0.86969 -1.7509 0
M  V30 844 H 85.0107 2.40793 -3.32336 0
M  V30 845 H 84.5417 3.41832 -1.94716 0
M  V30 846 H 86.5567 4.65812 -1.70978 0
M  V30 847 N 85.7298 1.2412 0.971189 0
M  V30 848 C 86.6768 1.0305 2.06517 0
M  V30 849 C 87.6468 -0.0550666 1.66009 0
M  V30 850 O 88.8318 0.0988688 1.90544 0
M  V30 851 C 85.9718 0.637653 3.39158 0
M  V30 852 C 85.0848 1.79633 3.92882 0
M  V30 853 C 84.2198 1.34939 5.13775 0
M  V30 854 C 83.2588 2.47823 5.59687 0
M  V30 855 N 82.3958 2.04022 6.71803 0
M  V30 856 H 87.2358 1.96685 2.23873 0
M  V30 857 H 84.7728 0.979694 1.09729 0
M  V30 858 H 86.7308 0.390931 4.15364 0
M  V30 859 H 85.3608 -0.261693 3.21737 0
M  V30 860 H 84.4128 2.15681 3.13346 0
M  V30 861 H 85.7248 2.64466 4.22918 0
M  V30 862 H 84.8788 1.06134 5.97345 0
M  V30 863 H 83.6178 0.471557 4.85415 0
M  V30 864 H 82.6228 2.77392 4.74693 0
M  V30 865 H 83.8478 3.36158 5.90063 0
M  V30 866 H 81.7938 1.18632 6.45184 0
M  V30 867 H 81.7108 2.82409 7.01271 0
M  V30 868 H 82.9788 1.78347 7.58823 0
M  V30 869 N 87.2079 -1.17134 1.05439 0
M  V30 870 C 88.4329 -1.91913 0.786396 0
M  V30 871 C 88.8579 -1.7643 -0.652234 0
M  V30 872 O 88.2159 -1.08372 -1.45345 0
M  V30 873 C 88.2639 -3.40921 1.17497 0
M  V30 874 O 87.3679 -4.11244 0.308589 0
M  V30 875 H 86.7089 -0.598215 0.288158 0
M  V30 876 H 89.2389 -1.48457 1.4079 0
M  V30 877 H 89.2489 -3.91668 1.14281 0
M  V30 878 H 87.9239 -3.5151 2.22292 0
M  V30 879 H 86.5009 -3.70731 0.40157 0
M  V30 880 N 88.686 -0.835752 -1.33615 0
M  V30 881 C 89.926 -0.43599 -1.99696 0
M  V30 882 C 90.29 0.98557 -1.64774 0
M  V30 883 O 91.491 1.48889 -2.23798 0
M  V30 884 C 89.762 -0.646721 -3.515 0
M  V30 885 S 91.321 -0.341715 -4.37467 0
M  V30 886 H 88.139 -0.164136 -0.691795 0
M  V30 887 H 90.741 -1.08436 -1.62671 0
M  V30 888 H 89.445 -1.68077 -3.74404 0
M  V30 889 H 88.976 0.0159173 -3.93397 0
M  V30 890 H 90.991 0.839708 -4.89043 0
M  V30 891 N 90.1641 1.46063 -0.591896 0
M  V30 892 C 91.1141 2.27458 0.157172 0
M  V30 893 C 92.0981 1.3641 0.853301 0
M  V30 894 O 93.2901 1.60517 0.74588 0
M  V30 895 C 90.4191 3.22956 1.16423 0
M  V30 896 C 89.5051 4.2149 0.469742 0
M  V30 897 N 89.8961 5.03519 -0.479839 0
M  V30 898 C 88.1941 4.40161 0.719319 0
M  V30 899 C 88.8951 5.74904 -0.886591 0
M  V30 900 N 87.8711 5.43097 -0.233731 0
M  V30 901 H 91.6731 2.88272 -0.572392 0
M  V30 902 H 89.1871 1.57024 -0.414375 0
M  V30 903 H 91.1841 3.79986 1.71513 0
M  V30 904 H 89.8441 2.63701 1.89451 0
M  V30 905 H 90.8551 5.1078 -0.855823 0
M  V30 906 H 87.5321 3.92046 1.43548 0
M  V30 907 H 88.9221 6.50844 -1.66888 0
M  V30 908 N 91.6422 0.330177 1.54103 0
M  V30 909 C 92.8902 -0.269871 2.0029 0
M  V30 910 C 93.2112 -1.52133 1.21986 0
M  V30 911 O 92.4812 -1.93212 0.323438 0
M  V30 912 H 91.0612 -0.10271 0.739905 0
M  V30 913 H 93.7232 0.448249 1.89675 0
M  V30 914 H 92.8192 -0.52166 3.07709 0
M  V30 915 N 93.1203 -1.57491 0.0584922 0
M  V30 916 C 94.0303 -2.15448 -0.928414 0
M  V30 917 C 95.0463 -1.11416 -1.3365 0
M  V30 918 O 96.2223 -1.4362 -1.41193 0
M  V30 919 C 93.2873 -2.69393 -2.18239 0
M  V30 920 C 92.3483 -3.88249 -1.83196 0
M  V30 921 C 91.5813 -4.39613 -3.02616 0
M  V30 922 O 91.8043 -3.90023 -4.16219 0
M  V30 923 O 90.7383 -5.31111 -2.83204 0
M  V30 924 H 94.5643 -3.00112 -0.465483 0
M  V30 925 H 92.1493 -1.48499 -0.163826 0
M  V30 926 H 94.0313 -3.04026 -2.91798 0
M  V30 927 H 92.7063 -1.87796 -2.63656 0
M  V30 928 H 91.6133 -3.58492 -1.06931 0
M  V30 929 H 92.9463 -4.71098 -1.42573 0
M  V30 930 N 94.5984 0.214957 -1.56127 0
M  V30 931 C 95.8284 0.953707 -1.8327 0
M  V30 932 C 96.2364 1.78181 -0.636262 0
M  V30 933 O 95.5794 1.79191 0.404516 0
M  V30 934 C 95.6414 1.91516 -3.0424 0
M  V30 935 C 95.3054 1.27094 -4.38972 0
M  V30 936 C 96.3024 0.657575 -5.15725 0
M  V30 937 C 93.9874 1.28073 -4.85698 0
M  V30 938 C 95.9814 0.0625968 -6.37369 0
M  V30 939 C 93.6684 0.681914 -6.07283 0
M  V30 940 C 94.6664 0.0739046 -6.8296 0
M  V30 941 O 94.3544 -0.515582 -8.02245 0
M  V30 942 H 94.0864 0.284764 -0.613095 0
M  V30 943 H 96.6404 0.233283 -2.04071 0
M  V30 944 H 94.8704 2.67475 -2.79274 0
M  V30 945 H 96.5594 2.52001 -3.18198 0
M  V30 946 H 97.3254 0.642288 -4.80728 0
M  V30 947 H 93.2044 1.74337 -4.26764 0
M  V30 948 H 96.7484 -0.412593 -6.96379 0
M  V30 949 H 92.6454 0.694636 -6.41752 0
M  V30 950 H 93.4134 -0.410544 -8.1747 0
M  V30 951 N 96.0765 1.50051 0.48192 0
M  V30 952 C 97.0395 1.67584 1.5636 0
M  V30 953 C 98.0395 0.546894 1.51214 0
M  V30 954 O 99.2295 0.813725 1.54026 0
M  V30 955 C 96.3615 1.691 2.96003 0
M  V30 956 H 97.5545 2.64078 1.42136 0
M  V30 957 H 95.1075 1.39369 0.707533 0
M  V30 958 H 95.8425 0.742589 3.15684 0
M  V30 959 H 95.6275 2.51105 3.01146 0
M  V30 960 H 97.1175 1.84656 3.74556 0
M  V30 961 N 97.5546 -0.734337 1.39446 0
M  V30 962 C 98.4646 -1.87879 1.40495 0
M  V30 963 C 99.4806 -1.714 0.299672 0
M  V30 964 O 100.657 -1.93991 0.541249 0
M  V30 965 C 97.7216 -3.23477 1.24754 0
M  V30 966 C 96.7826 -3.52344 2.45259 0
M  V30 967 C 96.0156 -4.81473 2.30259 0
M  V30 968 O 96.2386 -5.55237 1.30643 0
M  V30 969 O 95.1726 -5.10254 3.19256 0
M  V30 970 H 98.9986 -1.89949 2.36966 0
M  V30 971 H 96.5836 -0.882243 1.20569 0
M  V30 972 H 98.4656 -4.04509 1.18111 0
M  V30 973 H 97.1406 -3.22176 0.313781 0
M  V30 974 H 96.0476 -2.71396 2.57478 0
M  V30 975 H 97.3806 -3.58426 3.37331 0
M  V30 976 N 99.0327 -1.24633 -0.964593 0
M  V30 977 C 99.9627 -1.06611 -2.07741 0
M  V30 978 C 100.944 0.0218666 -1.70086 0
M  V30 979 O 102.129 -0.145793 -1.93652 0
M  V30 980 C 99.2587 -0.673444 -3.40708 0
M  V30 981 C 98.2127 -1.71054 -3.92332 0
M  V30 982 C 97.5387 -1.17285 -5.21678 0
M  V30 983 C 98.8387 -3.10718 -4.19824 0
M  V30 984 H 100.533 -1.99693 -2.23076 0
M  V30 985 H 98.0787 -0.96152 -1.07195 0
M  V30 986 H 100.032 -0.534345 -4.17998 0
M  V30 987 H 98.7557 0.293073 -3.25282 0
M  V30 988 H 97.4147 -1.83791 -3.17201 0
M  V30 989 H 97.0627 -0.196847 -5.02615 0
M  V30 990 H 96.7627 -1.86592 -5.57187 0
M  V30 991 H 98.2867 -1.04593 -6.01575 0
M  V30 992 H 99.7007 -3.01192 -4.87808 0
M  V30 993 H 98.0977 -3.77406 -4.66567 0
M  V30 994 H 99.1677 -3.58524 -3.26479 0
M  V30 995 N 100.511 1.16574 -1.06058 0
M  V30 996 C 101.474 2.19085 -0.673392 0
M  V30 997 C 102.474 1.5835 0.279648 0
M  V30 998 O 103.664 1.74088 0.0623488 0
M  V30 999 C 100.796 3.40899 0.00954234 0
M  V30 1000 H 101.989 2.54853 -1.58081 0
M  V30 1001 H 99.5418 1.30808 -0.855516 0
M  V30 1002 H 100.277 3.10684 0.929826 0
M  V30 1003 H 100.062 3.86233 -0.67573 0
M  V30 1004 H 101.552 4.1675 0.266245 0
M  V30 1005 N 101.989 0.842826 1.3317 0
M  V30 1006 C 102.937 0.267495 2.31057 0
M  V30 1007 C 103.931 -0.602682 1.58316 0
M  V30 1008 O 105.137 -0.491803 1.73151 0
M  V30 1009 H 101.512 0.0677813 0.748939 0
M  V30 1010 H 103.483 1.10754 2.77085 0
M  V30 1011 C 102.232 -0.539331 3.43492 0
M  V30 1012 H 101.555 0.12095 3.99617 0
M  V30 1013 H 102.995 -0.90767 4.14171 0
M  V30 1014 C 101.454 -1.71981 2.89697 0
M  V30 1015 O 101.984 -2.81862 2.86211 0
M  V30 1016 N 100.19 -1.54299 2.46252 0
M  V30 1017 H 99.7369 -0.649143 2.49287 0
M  V30 1018 H 99.6949 -2.33431 2.10612 0
M  V30 1019 N 103.467 -1.45747 0.599634 0
M  V30 1020 C 104.744 -1.95585 0.0240846 0
M  V30 1021 C 105.124 -1.54217 -1.44154 0
M  V30 1022 O 104.472 -0.800903 -2.14004 0
M  V30 1023 C 104.682 -3.48344 0.21385 0
M  V30 1024 C 106.03 -4.24504 0.0904902 0
M  V30 1025 O 107.054 -3.55911 0.143558 0
M  V30 1026 O 105.913 -5.46491 -0.0310766 0
M  V30 1027 H 103.007 -0.82602 -0.0402478 0
M  V30 1028 H 105.553 -1.55951 0.669139 0
M  V30 1029 H 104.325 -3.71397 1.23206 0
M  V30 1030 H 103.948 -3.9485 -0.466842 0
M  V30 1031 N 104.945 -0.338344 -1.53925 0
M  V30 1032 C 105.892 0.520845 -2.24846 0
M  V30 1033 C 106.862 1.09976 -1.24477 0
M  V30 1034 O 108.047 1.13735 -1.53196 0
M  V30 1035 C 105.187 1.6685 -3.02084 0
M  V30 1036 C 104.3 1.11739 -4.17299 0
M  V30 1037 C 103.435 2.23193 -4.82036 0
M  V30 1038 C 102.474 1.65407 -5.89328 0
M  V30 1039 N 101.611 2.70582 -6.47866 0
M  V30 1040 H 106.451 -0.0904881 -2.97863 0
M  V30 1041 H 103.988 -0.0564282 -1.46992 0
M  V30 1042 H 105.946 2.34407 -3.45122 0
M  V30 1043 H 104.576 2.2509 -2.31375 0
M  V30 1044 H 103.628 0.332919 -3.7894 0
M  V30 1045 H 104.94 0.654677 -4.94485 0
M  V30 1046 H 104.094 2.98626 -5.28117 0
M  V30 1047 H 102.833 2.72807 -4.04262 0
M  V30 1048 H 101.838 0.884779 -5.42634 0
M  V30 1049 H 103.063 1.16652 -6.69006 0
M  V30 1050 H 101.009 3.1946 -5.72959 0
M  V30 1051 H 100.926 2.28917 -7.20509 0
M  V30 1052 H 102.194 3.45799 -6.98601 0
M  V30 1053 N 106.423 1.57458 -0.0668435 0
M  V30 1054 C 107.353 2.15468 0.899764 0
M  V30 1055 C 108.334 1.08042 1.31381 0
M  V30 1056 O 109.519 1.36054 1.38574 0
M  V30 1057 C 106.649 2.71232 2.16911 0
M  V30 1058 C 105.603 3.83781 1.89463 0
M  V30 1059 C 104.929 4.26127 3.22986 0
M  V30 1060 C 106.229 5.08238 1.20381 0
M  V30 1061 H 107.923 2.96488 0.416529 0
M  V30 1062 H 105.469 1.4262 0.198908 0
M  V30 1063 H 107.422 3.10458 2.84945 0
M  V30 1064 H 106.146 1.87426 2.67468 0
M  V30 1065 H 104.805 3.45051 1.23836 0
M  V30 1066 H 104.453 3.39249 3.71374 0
M  V30 1067 H 104.153 5.01993 3.05413 0
M  V30 1068 H 105.677 4.67966 3.92225 0
M  V30 1069 H 107.091 5.44811 1.78475 0
M  V30 1070 H 105.488 5.89349 1.13083 0
M  V30 1071 H 106.558 4.84558 0.182153 0
M  V30 1072 N 107.901 -0.206675 1.56239 0
M  V30 1073 C 108.833 -1.27997 1.9013 0
M  V30 1074 C 109.846 -1.42299 0.790883 0
M  V30 1075 O 111.035 -1.42931 1.06925 0
M  V30 1076 C 108.135 -2.65368 2.10792 0
M  V30 1077 C 107.308 -2.72824 3.41886 0
M  V30 1078 C 106.367 -3.9131 3.51799 0
M  V30 1079 O 105.393 -3.78953 4.24716 0
M  V30 1080 N 106.595 -5.06265 2.84035 0
M  V30 1081 H 109.36 -0.992444 2.82791 0
M  V30 1082 H 106.921 -0.396652 1.56966 0
M  V30 1083 H 108.913 -3.43039 2.14724 0
M  V30 1084 H 107.483 -2.86657 1.24685 0
M  V30 1085 H 106.703 -1.81515 3.49923 0
M  V30 1086 H 107.991 -2.74786 4.28217 0
M  V30 1087 H 107.389 -5.19203 2.246 0
M  V30 1088 H 105.946 -5.81925 2.93609 0
M  V30 1089 N 109.379 -1.50304 -0.473955 0
M  V30 1090 C 110.626 -1.6115 -1.22625 0
M  V30 1091 C 110.954 -0.310517 -1.92005 0
M  V30 1092 O 110.209 0.703419 -1.82621 0
M  V30 1093 C 110.508 -2.73938 -2.29549 0
M  V30 1094 C 110.174 -4.14519 -1.7744 0
M  V30 1095 C 108.836 -4.5277 -1.62949 0
M  V30 1096 C 111.188 -5.02392 -1.3875 0
M  V30 1097 C 108.516 -5.76639 -1.08187 0
M  V30 1098 C 110.868 -6.26805 -0.854309 0
M  V30 1099 C 109.532 -6.63861 -0.696011 0
M  V30 1100 H 108.802 -0.589691 -0.448715 0
M  V30 1101 H 111.449 -1.84228 -0.522705 0
M  V30 1102 H 109.754 -2.44937 -3.05799 0
M  V30 1103 H 111.451 -2.79534 -2.87509 0
M  V30 1104 H 108.041 -3.8434 -1.89685 0
M  V30 1105 H 112.225 -4.73474 -1.4878 0
M  V30 1106 H 107.481 -6.04027 -0.946666 0
M  V30 1107 H 111.655 -6.94258 -0.545843 0
M  V30 1108 H 109.282 -7.59722 -0.26952 0
M  V30 1109 N 110.857 0.726932 -1.39834 0
M  V30 1110 C 112.134 1.47902 -1.28001 0
M  V30 1111 C 112.514 2.1083 0.106789 0
M  V30 1112 O 111.862 1.99242 1.11869 0
M  V30 1113 C 112.072 2.52392 -2.41038 0
M  V30 1114 C 113.42 3.18546 -2.80737 0
M  V30 1115 O 114.444 2.62708 -2.40547 0
M  V30 1116 O 113.303 4.19604 -3.50135 0
M  V30 1117 H 110.397 0.657163 -0.502062 0
M  V30 1118 H 112.943 0.760071 -1.51727 0
M  V30 1119 H 111.715 2.04329 -3.33715 0
M  V30 1120 H 111.338 3.31837 -2.19021 0
M  V30 1121 N 112.336 1.25143 0.95797 0
M  V30 1122 C 113.747 1.08851 1.51685 0
M  V30 1123 C 114.098 -0.33687 1.93286 0
M  V30 1124 O 113.223 -1.22644 1.7829 0
M  V30 1125 C 113.818 1.96978 2.75654 0
M  V30 1126 C 112.377 1.84881 3.27866 0
M  V30 1127 C 111.524 1.91329 2.0072 0
M  V30 1128 H 114.475 1.38478 0.77522 0
M  V30 1129 H 114.496 1.5078 3.4935 0
M  V30 1130 H 114.008 3.00712 2.45345 0
M  V30 1131 H 112.109 0.840182 3.63004 0
M  V30 1132 H 112.222 2.6951 3.96107 0
M  V30 1133 H 110.586 1.35174 2.15871 0
M  V30 1134 H 111.369 2.96661 1.72764 0
M  V30 1135 N 113.814 -1.1601 1.06675 0
M  V30 1136 C 114.764 -2.18512 0.650888 0
M  V30 1137 C 115.748 -1.57677 -0.320441 0
M  V30 1138 O 116.94 -1.76482 -0.135266 0
M  V30 1139 C 114.069 -3.43273 0.0429255 0
M  V30 1140 C 113.155 -4.11176 1.03898 0
M  V30 1141 N 113.546 -4.54672 2.216 0
M  V30 1142 C 111.844 -4.37417 0.870779 0
M  V30 1143 C 112.545 -5.07248 2.84736 0
M  V30 1144 N 111.521 -5.0037 2.12441 0
M  V30 1145 H 115.323 -2.49863 1.54745 0
M  V30 1146 H 112.837 -1.32503 0.938975 0
M  V30 1147 H 114.834 -4.16006 -0.272857 0
M  V30 1148 H 113.494 -3.13408 -0.84884 0
M  V30 1149 H 114.505 -4.4828 2.59356 0
M  V30 1150 H 111.182 -4.17488 0.0313293 0
M  V30 1151 H 112.572 -5.50912 3.84636 0
M  V30 1152 N 115.292 -0.849877 -1.32721 0
M  V30 1153 C 116.24 -0.279745 -2.30912 0
M  V30 1154 C 117.234 0.594278 -1.58634 0
M  V30 1155 O 118.44 0.482613 -1.73409 0
M  V30 1156 H 114.815 -0.0717521 -0.748569 0
M  V30 1157 H 116.786 -1.12222 -2.76494 0
M  V30 1158 C 115.535 0.521108 -3.43773 0
M  V30 1159 H 114.858 -0.142141 -3.99547 0
M  V30 1160 H 116.298 0.885693 -4.14646 0
M  V30 1161 C 114.757 1.70442 -2.90605 0
M  V30 1162 O 115.287 2.8034 -2.87702 0
M  V30 1163 N 113.493 1.52991 -2.47067 0
M  V30 1164 H 113.04 0.635914 -2.49628 0
M  V30 1165 H 112.998 2.32311 -2.11847 0
M  V30 1166 N 116.77 1.45427 -0.607355 0
M  V30 1167 C 117.995 2.07124 -0.107006 0
M  V30 1168 C 118.42 1.44906 1.19933 0
M  V30 1169 O 117.778 0.541687 1.73019 0
M  V30 1170 C 117.826 3.60595 0.0194119 0
M  V30 1171 O 116.93 3.98285 1.0697 0
M  V30 1172 H 116.271 0.659868 -0.0739597 0
M  V30 1173 H 118.801 1.86683 -0.837297 0
M  V30 1174 H 118.811 4.07419 0.2177 0
M  V30 1175 H 117.486 4.05266 -0.934453 0
M  V30 1176 H 116.063 3.63133 0.847889 0
M  V30 1177 N 118.248 0.346503 1.53744 0
M  V30 1178 C 119.198 -0.524953 2.21874 0
M  V30 1179 C 120.182 -1.06376 1.20718 0
M  V30 1180 O 121.374 -0.996972 1.46251 0
M  V30 1181 C 118.503 -1.6739 2.99726 0
M  V30 1182 C 117.589 -1.14888 4.08242 0
M  V30 1183 N 117.98 -0.345329 5.0462 0
M  V30 1184 C 116.278 -1.4255 4.22606 0
M  V30 1185 C 116.979 -0.0600706 5.81669 0
M  V30 1186 N 115.955 -0.65252 5.39669 0
M  V30 1187 H 119.757 0.0960091 2.93743 0
M  V30 1188 H 117.271 0.15352 1.61673 0
M  V30 1189 H 119.268 -2.3102 3.47038 0
M  V30 1190 H 117.928 -2.29811 2.29384 0
M  V30 1191 H 118.939 0.0138439 5.17898 0
M  V30 1192 H 115.616 -2.05389 3.63486 0
M  V30 1193 H 117.006 0.588321 6.69319 0
M  V30 1194 N 119.726 -1.57421 0.075193 0
M  V30 1195 C 120.656 -2.15942 -0.888324 0
M  V30 1196 C 121.637 -1.08737 -1.30806 0
M  V30 1197 O 122.822 -1.36787 -1.37851 0
M  V30 1198 C 119.952 -2.72379 -2.1547 0
M  V30 1199 C 118.906 -3.8478 -1.87425 0
M  V30 1200 C 118.232 -4.27834 -3.20721 0
M  V30 1201 C 119.532 -5.08869 -1.17684 0
M  V30 1202 H 121.226 -2.96705 -0.400799 0
M  V30 1203 H 118.772 -1.42723 -0.191342 0
M  V30 1204 H 120.725 -3.11965 -2.83295 0
M  V30 1205 H 119.449 -1.88841 -2.6647 0
M  V30 1206 H 118.108 -3.45703 -1.22004 0
M  V30 1207 H 117.756 -3.41214 -3.6957 0
M  V30 1208 H 117.456 -5.03605 -3.02746 0
M  V30 1209 H 118.98 -4.70039 -3.89738 0
M  V30 1210 H 120.394 -5.4575 -1.75584 0
M  V30 1211 H 118.791 -5.8994 -1.09956 0
M  V30 1212 H 119.861 -4.84648 -0.156453 0
M  V30 1213 N 121.204 0.198386 -1.56346 0
M  V30 1214 C 122.452 0.91747 -1.80075 0
M  V30 1215 C 122.773 1.83929 -0.647692 0
M  V30 1216 O 122.043 1.93029 0.334166 0
M  V30 1217 H 120.623 0.341774 -0.664228 0
M  V30 1218 H 123.285 0.204684 -1.93822 0
M  V30 1219 H 122.381 1.51055 -2.7311 0
M  V30 1220 N 122.682 1.50554 0.465978 0
M  V30 1221 C 123.959 1.5232 1.22712 0
M  V30 1222 C 124.339 0.270807 2.09356 0
M  V30 1223 O 123.687 -0.745541 2.15995 0
M  V30 1224 C 123.897 2.82175 2.05374 0
M  V30 1225 C 125.245 3.33033 2.6339 0
M  V30 1226 O 126.269 2.83531 2.15612 0
M  V30 1227 O 125.128 4.19336 3.50456 0
M  V30 1228 H 122.222 0.611183 0.557122 0
M  V30 1229 H 124.768 1.62847 0.477381 0
M  V30 1230 H 123.54 3.64797 1.41558 0
M  V30 1231 H 123.163 2.74675 2.87471 0
M  V30 1232 N 124.16 -0.719506 1.40217 0
M  V30 1233 C 125.409 -1.47486 1.37589 0
M  V30 1234 C 125.722 -1.9559 -0.0201568 0
M  V30 1235 O 126.928 -2.70973 -0.169049 0
M  V30 1236 C 125.384 -2.66575 2.41796 0
M  V30 1237 C 124.992 -2.25358 3.87192 0
M  V30 1238 C 126.736 -3.4433 2.48269 0
M  V30 1239 C 124.643 -3.41262 4.83005 0
M  V30 1240 H 123.573 -0.553901 0.511576 0
M  V30 1241 H 126.224 -0.783427 1.65936 0
M  V30 1242 H 124.606 -3.3787 2.06543 0
M  V30 1243 H 125.78 -1.61509 4.31569 0
M  V30 1244 H 124.095 -1.60657 3.84159 0
M  V30 1245 H 126.692 -4.30569 3.17041 0
M  V30 1246 H 127.035 -3.87872 1.51198 0
M  V30 1247 H 127.568 -2.80076 2.82493 0
M  V30 1248 H 124.307 -3.02755 5.81394 0
M  V30 1249 H 123.827 -4.0404 4.43297 0
M  V30 1250 H 125.506 -4.07383 5.02641 0
M  V30 1251 N 125.638 -1.25649 -0.95132 0
M  V30 1252 C 126.586 -1.06118 -2.06982 0
M  V30 1253 C 127.58 0.00889169 -1.69398 0
M  V30 1254 O 128.786 -0.146988 -1.79399 0
M  V30 1255 H 125.161 -0.326248 -0.677544 0
M  V30 1256 H 127.132 -2.00932 -2.2061 0
M  V30 1257 C 125.881 -0.700145 -3.40578 0
M  V30 1258 H 125.204 -1.51537 -3.69968 0
M  V30 1259 H 126.644 -0.603211 -4.19687 0
M  V30 1260 C 125.103 0.59403 -3.31622 0
M  V30 1261 O 125.633 1.63522 -3.66911 0
M  V30 1262 N 123.839 0.58089 -2.84735 0
M  V30 1263 H 123.386 -0.266783 -2.56215 0
M  V30 1264 H 123.344 1.44695 -2.79125 0
M  V30 1265 N 127.117 1.15442 -1.07289 0
M  V30 1266 C 128.357 1.8788 -0.805012 0
M  V30 1267 C 128.721 1.80413 0.656907 0
M  V30 1268 O 129.922 2.47874 1.0398 0
M  V30 1269 C 128.193 3.3298 -1.29843 0
M  V30 1270 S 129.752 4.23158 -1.16114 0
M  V30 1271 H 126.57 0.64839 -0.291739 0
M  V30 1272 H 129.172 1.39285 -1.37186 0
M  V30 1273 H 127.876 3.35958 -2.35712 0
M  V30 1274 H 127.407 3.86629 -0.726767 0
M  V30 1275 H 129.422 4.96103 -0.0982778 0
M  V30 1276 N 128.595 0.856903 1.32268 0
M  V30 1277 C 129.823 0.475439 2.01363 0
M  V30 1278 C 130.238 -0.928486 1.64392 0
M  V30 1279 O 129.595 -1.60624 0.866387 0
M  V30 1280 C 129.646 0.607545 3.56358 0
M  V30 1281 O 129.367 1.95617 3.92002 0
M  V30 1282 C 130.868 0.225382 4.42727 0
M  V30 1283 H 128.088 0.186636 0.644521 0
M  V30 1284 H 130.632 1.15446 1.68797 0
M  V30 1285 H 128.787 -0.0237719 3.87393 0
M  V30 1286 H 129.201 1.95455 4.86721 0
M  V30 1287 H 130.675 0.368813 5.50767 0
M  V30 1288 H 131.152 -0.834369 4.31202 0
M  V30 1289 H 131.758 0.831864 4.17085 0
M  V30 1290 N 130.073 -1.45103 0.615059 0
M  V30 1291 C 131.298 -2.07064 0.117988 0
M  V30 1292 C 131.723 -1.4554 -1.19163 0
M  V30 1293 O 131.081 -0.550855 -1.72729 0
M  V30 1294 C 131.129 -3.606 -0.000288387 0
M  V30 1295 O 130.233 -3.98847 -1.04856 0
M  V30 1296 H 129.574 -0.659467 0.0774581 0
M  V30 1297 H 132.104 -1.86236 0.847186 0
M  V30 1298 H 132.114 -4.07529 -0.196091 0
M  V30 1299 H 130.789 -4.04765 0.955932 0
M  V30 1300 H 129.366 -3.63577 -0.828619 0
M  V30 1301 N 131.551 -0.354651 -1.53558 0
M  V30 1302 C 132.791 0.238651 -2.03002 0
M  V30 1303 C 133.155 1.46878 -1.23656 0
M  V30 1304 O 134.356 2.13699 -1.63053 0
M  V30 1305 C 132.627 0.534175 -3.53386 0
M  V30 1306 S 134.186 1.10271 -4.24719 0
M  V30 1307 H 131.004 0.0702908 -0.707517 0
M  V30 1308 H 133.606 -0.494987 -1.8913 0
M  V30 1309 H 132.31 -0.368765 -4.0874 0
M  V30 1310 H 131.841 1.29718 -3.71398 0
M  V30 1311 H 133.856 2.38772 -4.34974 0
M  V30 1312 N 133.029 1.57378 -0.0835403 0
M  V30 1313 C 133.979 2.09916 0.889905 0
M  V30 1314 C 134.963 1.01151 1.25129 0
M  V30 1315 O 136.155 1.27443 1.2283 0
M  V30 1316 C 133.284 2.67379 2.15322 0
M  V30 1317 C 132.37 3.83167 1.81779 0
M  V30 1318 N 132.761 4.91665 1.18739 0
M  V30 1319 C 131.059 3.92685 2.11459 0
M  V30 1320 C 131.76 5.72409 1.0355 0
M  V30 1321 N 130.736 5.21062 1.54906 0
M  V30 1322 H 134.538 2.91188 0.398378 0
M  V30 1323 H 132.052 1.61956 0.120013 0
M  V30 1324 H 134.049 3.0334 2.8599 0
M  V30 1325 H 132.709 1.87558 2.65051 0
M  V30 1326 H 133.72 5.10784 0.855604 0
M  V30 1327 H 130.397 3.23856 2.63483 0
M  V30 1328 H 131.787 6.69699 0.543425 0
M  V30 1329 N 134.507 -0.190092 1.56449 0
M  V30 1330 C 135.454 -1.23557 1.94942 0
M  V30 1331 C 136.424 -1.44972 0.810696 0
M  V30 1332 O 137.609 -1.58023 1.06927 0
M  V30 1333 C 134.749 -2.57416 2.2985 0
M  V30 1334 C 133.862 -2.43537 3.5681 0
M  V30 1335 C 132.997 -3.70134 3.81017 0
M  V30 1336 C 132.036 -3.51109 5.01387 0
M  V30 1337 N 131.173 -4.6973 5.21822 0
M  V30 1338 H 136.013 -0.900304 2.84075 0
M  V30 1339 H 133.55 -0.43318 1.40577 0
M  V30 1340 H 135.508 -3.35409 2.48106 0
M  V30 1341 H 134.138 -2.88975 1.43852 0
M  V30 1342 H 133.19 -1.56816 3.46573 0
M  V30 1343 H 134.502 -2.25415 4.4496 0
M  V30 1344 H 133.656 -4.56566 3.9954 0
M  V30 1345 H 132.395 -3.91215 2.91207 0
M  V30 1346 H 131.4 -2.63063 4.82782 0
M  V30 1347 H 132.625 -3.31468 5.9271 0
M  V30 1348 H 130.571 -4.91065 4.34961 0
M  V30 1349 H 130.488 -4.54452 6.0416 0
M  V30 1350 H 131.756 -5.57499 5.44808 0
M  V30 1351 N 135.985 -1.50799 -0.457987 0
M  V30 1352 C 137.233 -1.62121 -1.2067 0
M  V30 1353 C 137.554 -0.329793 -1.92191 0
M  V30 1354 O 136.824 0.653409 -1.84682 0
M  V30 1355 H 135.404 -0.597441 -0.448411 0
M  V30 1356 H 138.066 -1.87637 -0.527096 0
M  V30 1357 H 137.162 -2.43882 -1.94751 0
M  V30 1358 N 137.463 0.71206 -1.40597 0
M  V30 1359 C 138.413 1.81783 -1.37619 0
M  V30 1360 C 139.397 1.58896 -0.253162 0
M  V30 1361 O 140.589 1.70009 -0.492547 0
M  V30 1362 C 137.718 3.19944 -1.24462 0
M  V30 1363 C 136.804 3.48582 -2.4156 0
M  V30 1364 N 137.195 3.48016 -3.67041 0
M  V30 1365 C 135.493 3.79056 -2.35016 0
M  V30 1366 C 136.194 3.75096 -4.44609 0
M  V30 1367 N 135.17 3.94022 -3.74497 0
M  V30 1368 H 138.972 1.79683 -2.32575 0
M  V30 1369 H 136.486 0.91134 -1.34419 0
M  V30 1370 H 138.483 3.99133 -1.20411 0
M  V30 1371 H 137.143 3.23267 -0.304762 0
M  V30 1372 H 138.154 3.28782 -4.00153 0
M  V30 1373 H 134.831 3.89848 -1.49415 0
M  V30 1374 H 136.221 3.80934 -5.53479 0
M  V30 1375 N 138.941 1.26152 0.944643 0
M  V30 1376 C 139.851 1.09176 2.07648 0
M  V30 1377 C 140.867 0.0261935 1.7398 0
M  V30 1378 O 142.043 0.229208 2.00091 0
M  V30 1379 C 139.108 0.722915 3.39079 0
M  V30 1380 C 138.169 1.86752 3.86552 0
M  V30 1381 C 137.402 1.51617 5.11711 0
M  V30 1382 O 137.625 0.416331 5.68879 0
M  V30 1383 O 136.559 2.34975 5.54139 0
M  V30 1384 H 140.385 2.0412 2.24875 0
M  V30 1385 H 137.97 1.05182 1.061 0
M  V30 1386 H 139.852 0.529787 4.18056 0
M  V30 1387 H 138.527 -0.197159 3.23099 0
M  V30 1388 H 137.434 2.11558 3.08535 0
M  V30 1389 H 138.767 2.76719 4.07047 0
M  V30 1390 N 140.419 -1.14872 1.07899 0
M  V30 1391 C 141.329 -2.2341 0.715915 0
M  V30 1392 C 142.345 -1.71808 -0.275306 0
M  V30 1393 O 143.521 -2.01039 -0.120545 0
M  V30 1394 C 140.586 -3.46474 0.125168 0
M  V30 1395 C 139.647 -4.13039 1.17034 0
M  V30 1396 C 138.88 -5.30229 0.607688 0
M  V30 1397 O 139.103 -5.675 -0.574497 0
M  V30 1398 O 138.037 -5.86444 1.35526 0
M  V30 1399 H 141.863 -2.56808 1.62121 0
M  V30 1400 H 139.448 -1.22702 0.852322 0
M  V30 1401 H 141.33 -4.20917 -0.201729 0
M  V30 1402 H 140.005 -3.14811 -0.753364 0
M  V30 1403 H 138.912 -3.40493 1.54968 0
M  V30 1404 H 140.245 -4.48796 2.02097 0
M  V30 1405 N 141.898 -0.863906 -1.31812 0
M  V30 1406 C 143.309 -0.52522 -1.7916 0
M  V30 1407 C 143.66 0.957518 -1.71248 0
M  V30 1408 O 142.785 1.74734 -1.27659 0
M  V30 1409 C 143.38 -0.9466 -3.25307 0
M  V30 1410 C 141.939 -0.659668 -3.70574 0
M  V30 1411 C 141.086 -1.14126 -2.52726 0
M  V30 1412 H 144.037 -1.05022 -1.1898 0
M  V30 1413 H 144.058 -0.266766 -3.79564 0
M  V30 1414 H 143.57 -2.02579 -3.31034 0
M  V30 1415 H 141.671 0.408416 -3.70355 0
M  V30 1416 H 141.784 -1.23245 -4.62977 0
M  V30 1417 H 140.148 -0.561216 -2.4844 0
M  V30 1418 H 140.931 -2.22775 -2.61201 0
M  V30 1419 N 143.376 1.44774 -0.622745 0
M  V30 1420 C 144.323 2.30635 0.0871679 0
M  V30 1421 C 145.293 1.42994 0.845097 0
M  V30 1422 O 146.478 1.71907 0.827812 0
M  V30 1423 C 143.618 3.28144 1.06844 0
M  V30 1424 C 142.731 4.30888 0.309809 0
M  V30 1425 C 141.866 5.15494 1.28215 0
M  V30 1426 C 140.905 6.09953 0.512198 0
M  V30 1427 N 140.042 6.87287 1.43458 0
M  V30 1428 H 144.882 2.90803 -0.650974 0
M  V30 1429 H 142.419 1.43286 -0.33281 0
M  V30 1430 H 144.377 3.83157 1.65066 0
M  V30 1431 H 143.007 2.69695 1.77382 0
M  V30 1432 H 142.059 3.78414 -0.388181 0
M  V30 1433 H 143.371 4.97955 -0.290254 0
M  V30 1434 H 142.525 5.74983 1.93596 0
M  V30 1435 H 141.264 4.48481 1.91614 0
M  V30 1436 H 140.269 5.49581 -0.155151 0
M  V30 1437 H 141.494 6.78999 -0.116958 0
M  V30 1438 H 139.44 6.2295 2.05594 0
M  V30 1439 H 139.357 7.50763 0.888335 0
M  V30 1440 H 140.625 7.51306 2.07749 0
M  V30 1441 N 144.854 0.36279 1.53368 0
M  V30 1442 C 146.101 -0.227776 2.01215 0
M  V30 1443 C 146.429 -1.49003 1.25014 0
M  V30 1444 O 145.684 -1.92876 0.331236 0
M  V30 1445 C 145.983 -0.568417 3.52851 0
M  V30 1446 C 145.649 0.59918 4.46901 0
M  V30 1447 C 144.311 0.919559 4.72332 0
M  V30 1448 C 146.663 1.38156 5.02556 0
M  V30 1449 C 143.991 2.02434 5.5067 0
M  V30 1450 C 146.343 2.47674 5.821 0
M  V30 1451 C 145.007 2.8025 6.05819 0
M  V30 1452 H 144.277 -0.083349 0.736297 0
M  V30 1453 H 146.924 0.494677 1.85001 0
M  V30 1454 H 145.229 -1.37185 3.66998 0
M  V30 1455 H 146.926 -1.03756 3.87344 0
M  V30 1456 H 143.516 0.339437 4.27254 0
M  V30 1457 H 147.7 1.14729 4.82857 0
M  V30 1458 H 142.956 2.28075 5.67267 0
M  V30 1459 H 147.13 3.08716 6.24234 0
M  V30 1460 H 144.757 3.65979 6.66306 0
M  V30 1461 N 146.332 -1.57332 0.0918853 0
M  V30 1462 C 147.562 -1.98286 -0.580205 0
M  V30 1463 C 147.97 -0.969713 -1.6246 0
M  V30 1464 O 147.313 0.0493501 -1.83634 0
M  V30 1465 C 147.375 -3.35603 -1.28882 0
M  V30 1466 C 147.039 -4.55285 -0.395559 0
M  V30 1467 C 148.036 -5.18687 0.355002 0
M  V30 1468 C 145.721 -5.01314 -0.314556 0
M  V30 1469 C 147.715 -6.26484 1.17458 0
M  V30 1470 C 145.402 -6.08979 0.508677 0
M  V30 1471 C 146.4 -6.71429 1.2519 0
M  V30 1472 O 146.088 -7.77018 2.06151 0
M  V30 1473 H 145.82 -0.656678 -0.160466 0
M  V30 1474 H 148.374 -2.04721 0.16688 0
M  V30 1475 H 146.604 -3.25842 -2.08241 0
M  V30 1476 H 148.293 -3.61026 -1.85512 0
M  V30 1477 H 149.059 -4.84058 0.302134 0
M  V30 1478 H 144.938 -4.5247 -0.882697 0
M  V30 1479 H 148.482 -6.75159 1.75518 0
M  V30 1480 H 144.379 -6.4304 0.563037 0
M  V30 1481 H 145.147 -7.93991 1.98799 0
M  V30 1482 N 147.81 0.181792 -1.56548 0
M  V30 1483 C 149.05 0.906711 -1.83189 0
M  V30 1484 C 149.414 1.79882 -0.671312 0
M  V30 1485 O 150.615 2.56054 -0.81792 0
M  V30 1486 C 148.886 1.69023 -3.14906 0
M  V30 1487 S 150.445 2.46535 -3.62996 0
M  V30 1488 H 147.263 0.303877 -0.642791 0
M  V30 1489 H 149.865 0.169107 -1.94767 0
M  V30 1490 H 148.569 1.02571 -3.97376 0
M  V30 1491 H 148.1 2.46941 -3.06241 0
M  V30 1492 H 150.115 3.71014 -3.29489 0
M  V30 1493 N 149.288 1.51039 0.449983 0
M  V30 1494 C 150.236 1.71995 1.5659 0
M  V30 1495 C 151.23 0.586029 1.5894 0
M  V30 1496 O 152.436 0.76709 1.62837 0
M  V30 1497 H 148.811 0.543233 0.520001 0
M  V30 1498 H 150.782 2.65562 1.36085 0
M  V30 1499 C 149.531 1.8506 2.9436 0
M  V30 1500 H 148.854 2.71712 2.93279 0
M  V30 1501 H 150.294 2.0374 3.71842 0
M  V30 1502 C 148.753 0.607277 3.31382 0
M  V30 1503 O 149.283 -0.243903 4.00959 0
M  V30 1504 N 147.489 0.455073 2.87015 0
M  V30 1505 H 147.036 1.14879 2.30566 0
M  V30 1506 H 146.994 -0.375611 3.12148 0
M  V30 1507 N 150.766 -0.704594 1.40972 0
M  V30 1508 C 151.676 -1.84856 1.44448 0
M  V30 1509 C 152.692 -1.70726 0.335961 0
M  V30 1510 O 153.868 -1.92799 0.582276 0
M  V30 1511 C 150.933 -3.20758 1.31587 0
M  V30 1512 C 149.994 -3.47063 2.52677 0
M  V30 1513 C 149.227 -4.76481 2.4042 0
M  V30 1514 O 149.45 -5.52341 1.42391 0
M  V30 1515 O 148.384 -5.03367 3.30007 0
M  V30 1516 H 152.21 -1.8488 2.40942 0
M  V30 1517 H 149.795 -0.85647 1.22413 0
M  V30 1518 H 151.677 -4.01913 1.26665 0
M  V30 1519 H 150.352 -3.21438 0.382049 0
M  V30 1520 H 149.259 -2.65873 2.63177 0
M  V30 1521 H 150.592 -3.5119 3.44858 0
M  V30 1522 N 152.244 -1.26651 -0.937939 0
M  V30 1523 C 153.484 -1.13611 -1.69917 0
M  V30 1524 C 153.848 0.314687 -1.89404 0
M  V30 1525 O 155.049 0.567285 -2.62746 0
M  V30 1526 C 153.32 -1.88742 -3.03498 0
M  V30 1527 S 154.879 -1.91794 -3.94665 0
M  V30 1528 H 151.697 -0.405767 -0.583844 0
M  V30 1529 H 154.299 -1.60416 -1.11745 0
M  V30 1530 H 153.003 -2.9336 -2.86999 0
M  V30 1531 H 152.534 -1.42391 -3.66727 0
M  V30 1532 H 154.549 -1.00698 -4.85875 0
M  V30 1533 N 153.722 1.14298 -1.08507 0
M  V30 1534 C 154.672 2.17449 -0.685569 0
M  V30 1535 C 155.656 1.58167 0.295315 0
M  V30 1536 O 156.848 1.76675 0.107172 0
M  V30 1537 C 153.977 3.43161 -0.0975318 0
M  V30 1538 C 153.063 4.09471 -1.10426 0
M  V30 1539 N 153.454 4.51089 -2.28806 0
M  V30 1540 C 151.752 4.35976 -0.940258 0
M  V30 1541 C 152.453 5.02654 -2.9277 0
M  V30 1542 N 151.429 4.96927 -2.20374 0
M  V30 1543 H 155.231 2.47369 -1.587 0
M  V30 1544 H 152.745 1.30992 -0.959936 0
M  V30 1545 H 154.742 4.16388 0.20664 0
M  V30 1546 H 153.402 3.14719 0.798872 0
M  V30 1547 H 154.413 4.44097 -2.66455 0
M  V30 1548 H 151.09 4.17386 -0.0977441 0
M  V30 1549 H 152.48 5.44723 -3.93352 0
M  V30 1550 N 155.201 0.870884 1.31352 0
M  V30 1551 C 156.426 0.495957 2.01383 0
M  V30 1552 C 156.851 -0.904324 1.64935 0
M  V30 1553 O 156.209 -1.59687 0.858466 0
M  V30 1554 C 156.257 0.661433 3.54482 0
M  V30 1555 O 155.361 -0.298851 4.11316 0
M  V30 1556 H 154.702 0.197158 0.634054 0
M  V30 1557 H 157.232 1.17455 1.67527 0
M  V30 1558 H 157.242 0.555072 4.04207 0
M  V30 1559 H 155.917 1.68246 3.8035 0
M  V30 1560 H 154.494 -0.147368 3.72609 0
M  V30 1561 N 156.679 -1.44442 0.630414 0
M  V30 1562 C 157.926 -2.02052 0.134617 0
M  V30 1563 C 158.254 -1.49576 -1.24327 0
M  V30 1564 O 157.509 -0.669806 -1.83881 0
M  V30 1565 C 157.808 -3.57332 0.0697835 0
M  V30 1566 C 157.474 -4.29058 1.38635 0
M  V30 1567 C 156.136 -4.4837 1.74694 0
M  V30 1568 C 158.488 -4.69872 2.25543 0
M  V30 1569 C 155.816 -5.05756 2.97369 0
M  V30 1570 C 158.168 -5.28616 3.47487 0
M  V30 1571 C 156.832 -5.46147 3.8377 0
M  V30 1572 H 156.102 -0.739361 0.0492598 0
M  V30 1573 H 158.749 -1.73217 0.816586 0
M  V30 1574 H 157.054 -3.85577 -0.695553 0
M  V30 1575 H 158.751 -3.99637 -0.330344 0
M  V30 1576 H 155.341 -4.14357 1.09574 0
M  V30 1577 H 159.525 -4.54666 1.98979 0
M  V30 1578 H 154.781 -5.17515 3.25558 0
M  V30 1579 H 158.955 -5.59192 4.15063 0
M  V30 1580 H 156.582 -5.9038 4.7891 0
M  V30 1581 N 158.157 -0.370918 -1.53173 0
M  V30 1582 C 159.434 0.273754 -1.93675 0
M  V30 1583 C 159.814 1.65938 -1.3049 0
M  V30 1584 O 159.162 2.23698 -0.465999 0
M  V30 1585 C 159.372 0.318602 -3.47543 0
M  V30 1586 C 160.72 0.556392 -4.20939 0
M  V30 1587 O 161.744 0.399587 -3.53952 0
M  V30 1588 O 160.603 0.862133 -5.39657 0
M  V30 1589 H 157.697 0.165448 -0.810281 0
M  V30 1590 H 160.243 -0.42409 -1.64315 0
M  V30 1591 H 159.015 -0.652687 -3.85818 0
M  V30 1592 H 158.638 1.06212 -3.83151 0
M  V30 1593 N 159.635 1.57281 -0.100228 0
M  V30 1594 C 160.884 1.93713 0.561984 0
M  V30 1595 C 161.197 0.984492 1.69018 0
M  V30 1596 O 162.403 1.24273 2.41389 0
M  V30 1597 C 160.859 3.4421 1.05106 0
M  V30 1598 C 160.467 4.47975 -0.0476628 0
M  V30 1599 C 162.211 3.89595 1.68571 0
M  V30 1600 C 160.118 5.89631 0.457055 0
M  V30 1601 H 159.048 0.723082 0.2137 0
M  V30 1602 H 161.699 1.82644 -0.177057 0
M  V30 1603 H 160.081 3.50449 1.84395 0
M  V30 1604 H 161.255 4.53385 -0.823333 0
M  V30 1605 H 159.57 4.1223 -0.587816 0
M  V30 1606 H 162.167 4.92832 2.07414 0
M  V30 1607 H 162.51 3.28526 2.55688 0
M  V30 1608 H 163.043 3.86078 0.958562 0
M  V30 1609 H 159.782 6.54411 -0.377616 0
M  V30 1610 H 159.302 5.87681 1.19962 0
M  V30 1611 H 160.981 6.40363 0.92437 0
M  V30 1612 N 161.113 -0.173488 1.56642 0
M  V30 1613 C 162.06 -1.21482 1.96242 0
M  V30 1614 C 163.03 -1.44104 0.826027 0
M  V30 1615 O 164.215 -1.5688 1.08597 0
M  V30 1616 C 161.355 -2.54964 2.32567 0
M  V30 1617 C 160.468 -2.39739 3.59373 0
M  V30 1618 C 159.603 -3.66072 3.84921 0
M  V30 1619 C 158.642 -3.45771 5.05083 0
M  V30 1620 N 157.779 -4.64169 5.26775 0
M  V30 1621 H 162.619 -0.870123 2.85014 0
M  V30 1622 H 160.156 -0.418245 1.41029 0
M  V30 1623 H 162.114 -3.32758 2.5165 0
M  V30 1624 H 160.744 -2.87433 1.46908 0
M  V30 1625 H 159.796 -1.53131 3.48217 0
M  V30 1626 H 161.108 -2.20683 4.47326 0
M  V30 1627 H 160.262 -4.52303 4.0436 0
M  V30 1628 H 159.001 -3.88105 2.9534 0
M  V30 1629 H 158.006 -2.57927 4.85545 0
M  V30 1630 H 159.231 -3.25163 5.96193 0
M  V30 1631 H 157.177 -4.86425 4.40144 0
M  V30 1632 H 157.094 -4.48019 6.08946 0
M  V30 1633 H 158.362 -5.51689 5.5069 0
M  V30 1634 N 162.591 -1.51276 -0.441967 0
M  V30 1635 C 164.002 -1.56244 -1.02199 0
M  V30 1636 C 164.353 -0.383149 -1.92422 0
M  V30 1637 O 163.478 0.500613 -2.1053 0
M  V30 1638 C 164.073 -2.83162 -1.86024 0
M  V30 1639 C 162.632 -2.90716 -2.39084 0
M  V30 1640 C 161.779 -2.50858 -1.18175 0
M  V30 1641 H 164.73 -1.5712 -0.223416 0
M  V30 1642 H 164.751 -2.66663 -2.71425 0
M  V30 1643 H 164.263 -3.68974 -1.20331 0
M  V30 1644 H 162.364 -2.09323 -3.08244 0
M  V30 1645 H 162.477 -3.94266 -2.72198 0
M  V30 1646 H 160.841 -2.03951 -1.52565 0
M  V30 1647 H 161.624 -3.3901 -0.541001 0
M  V30 1648 N 164.069 0.697108 -1.41344 0
M  V30 1649 C 165.002 1.82134 -1.37486 0
M  V30 1650 C 165.98 1.60784 -0.242351 0
M  V30 1651 O 167.164 1.83553 -0.429012 0
M  V30 1652 C 164.291 3.18788 -1.14421 0
M  V30 1653 C 163.337 3.58932 -2.3037 0
M  V30 1654 S 164.17 3.63916 -3.92843 0
M  V30 1655 C 165.326 5.03298 -3.72078 0
M  V30 1656 H 165.559 1.85129 -2.32625 0
M  V30 1657 H 163.092 0.865671 -1.2785 0
M  V30 1658 H 165.05 3.97677 -1.018 0
M  V30 1659 H 163.711 3.13404 -0.20905 0
M  V30 1660 H 162.904 4.58202 -2.09922 0
M  V30 1661 H 162.506 2.87347 -2.39391 0
M  V30 1662 H 164.798 5.90753 -3.31688 0
M  V30 1663 H 165.741 5.28788 -4.70945 0
M  V30 1664 H 166.149 4.74764 -3.05384 0
M  V30 1665 N 165.547 1.27147 0.931209 0
M  V30 1666 C 166.958 1.12044 1.49342 0
M  V30 1667 C 167.309 -0.295795 1.93957 0
M  V30 1668 O 166.434 -1.18835 1.80852 0
M  V30 1669 C 167.029 2.02781 2.71414 0
M  V30 1670 C 165.588 1.91794 3.2387 0
M  V30 1671 C 164.735 1.95543 1.96617 0
M  V30 1672 H 167.686 1.40091 0.745672 0
M  V30 1673 H 167.707 1.58156 3.46074 0
M  V30 1674 H 167.219 3.05848 2.38911 0
M  V30 1675 H 165.32 0.916992 3.6114 0
M  V30 1676 H 165.433 2.77852 3.90302 0
M  V30 1677 H 163.797 1.39722 2.12955 0
M  V30 1678 H 164.58 3.00259 1.66432 0
M  V30 1679 N 167.025 -1.13721 1.09112 0
M  V30 1680 C 168.272 -1.84924 0.825192 0
M  V30 1681 C 168.6 -1.83347 -0.649151 0
M  V30 1682 O 167.855 -1.26449 -1.49362 0
M  V30 1683 C 168.154 -3.32861 1.30146 0
M  V30 1684 C 167.82 -3.54621 2.78486 0
M  V30 1685 C 166.482 -3.60268 3.18999 0
M  V30 1686 C 168.834 -3.62855 3.74146 0
M  V30 1687 C 166.162 -3.71679 4.53951 0
M  V30 1688 C 168.514 -3.75793 5.08883 0
M  V30 1689 C 167.178 -3.79692 5.4899 0
M  V30 1690 H 166.448 -0.676684 0.301959 0
M  V30 1691 H 169.095 -1.3428 1.36533 0
M  V30 1692 H 167.4 -3.85835 0.681064 0
M  V30 1693 H 169.097 -3.86395 1.07236 0
M  V30 1694 H 165.687 -3.50879 2.46134 0
M  V30 1695 H 169.871 -3.57775 3.43963 0
M  V30 1696 H 165.127 -3.72963 4.84467 0
M  V30 1697 H 169.301 -3.81107 5.82864 0
M  V30 1698 H 166.928 -3.88287 6.53558 0
M  V30 1699 N 168.503 -0.877838 -1.30888 0
M  V30 1700 C 169.728 -0.506629 -2.01117 0
M  V30 1701 C 170.153 0.895564 -1.65412 0
M  V30 1702 O 169.511 1.5923 -0.866922 0
M  V30 1703 C 169.559 -0.680223 -3.54126 0
M  V30 1704 O 168.663 0.277033 -4.11468 0
M  V30 1705 H 168.004 -0.200518 -0.633 0
M  V30 1706 H 170.534 -1.18342 -1.66902 0
M  V30 1707 H 170.544 -0.5765 -4.03907 0
M  V30 1708 H 169.219 -1.70261 -3.79452 0
M  V30 1709 H 167.796 0.127606 -3.72682 0
M  V30 1710 N 169.982 1.44106 -0.638065 0
M  V30 1711 C 171.259 1.95453 -0.0759321 0
M  V30 1712 C 171.639 1.57984 1.40015 0
M  V30 1713 O 170.987 0.857361 2.11806 0
M  V30 1714 C 171.197 3.47655 -0.306132 0
M  V30 1715 C 172.545 4.24114 -0.203008 0
M  V30 1716 O 173.569 3.55405 -0.237871 0
M  V30 1717 O 172.428 5.46381 -0.113827 0
M  V30 1718 H 169.522 0.826797 0.0183332 0
M  V30 1719 H 172.068 1.54122 -0.710251 0
M  V30 1720 H 170.84 3.68 -1.3301 0
M  V30 1721 H 170.463 3.95949 0.361991 0
M  V30 1722 N 171.46 0.379036 1.52974 0
M  V30 1723 C 172.423 -0.448865 2.24762 0
M  V30 1724 C 173.423 -0.998689 1.26027 0
M  V30 1725 O 174.613 -0.882313 1.50203 0
M  V30 1726 C 171.745 -1.62872 2.99476 0
M  V30 1727 H 172.938 0.179491 2.99362 0
M  V30 1728 H 170.491 0.13096 1.5575 0
M  V30 1729 H 171.226 -2.29479 2.29151 0
M  V30 1730 H 171.011 -1.24128 3.71934 0
M  V30 1731 H 172.501 -2.2151 3.5401 0
M  V30 1732 N 172.938 -1.57226 0.108567 0
M  V30 1733 C 173.885 -2.14756 -0.845481 0
M  V30 1734 C 174.855 -1.06971 -1.27068 0
M  V30 1735 O 176.04 -1.34827 -1.35005 0
M  V30 1736 C 173.18 -2.74298 -2.09415 0
M  V30 1737 C 172.293 -3.96358 -1.71826 0
M  V30 1738 C 171.428 -4.44021 -2.9158 0
M  V30 1739 C 170.467 -5.58637 -2.50181 0
M  V30 1740 N 169.604 -6.01091 -3.62814 0
M  V30 1741 H 174.444 -2.95961 -0.348035 0
M  V30 1742 H 171.981 -1.46226 -0.160106 0
M  V30 1743 H 173.939 -3.06945 -2.82561 0
M  V30 1744 H 172.569 -1.95801 -2.56636 0
M  V30 1745 H 171.621 -3.69939 -0.885947 0
M  V30 1746 H 172.933 -4.79504 -1.37394 0
M  V30 1747 H 172.087 -4.78522 -3.72963 0
M  V30 1748 H 170.826 -3.59803 -3.29231 0
M  V30 1749 H 169.831 -5.23751 -1.67228 0
M  V30 1750 H 171.056 -6.44613 -2.13659 0
M  V30 1751 H 169.002 -5.19817 -4.00158 0
M  V30 1752 H 168.919 -6.79066 -3.32273 0
M  V30 1753 H 170.187 -6.40227 -4.44668 0
M  V30 1754 N 174.416 0.165178 -1.56732 0
M  V30 1755 C 175.363 1.2044 -1.96883 0
M  V30 1756 C 176.333 1.43664 -0.833657 0
M  V30 1757 O 177.518 1.56302 -1.09427 0
M  V30 1758 C 174.658 2.53727 -2.33916 0
M  V30 1759 C 173.771 2.3783 -3.6064 0
M  V30 1760 C 172.906 3.64026 -3.86857 0
M  V30 1761 C 171.945 3.43088 -5.06909 0
M  V30 1762 N 171.082 4.61369 -5.29229 0
M  V30 1763 H 175.922 0.854996 -2.85471 0
M  V30 1764 H 173.459 0.41076 -1.41249 0
M  V30 1765 H 175.417 3.31419 -2.53411 0
M  V30 1766 H 174.047 2.8665 -1.48431 0
M  V30 1767 H 173.099 1.51282 -3.49024 0
M  V30 1768 H 174.411 2.18308 -4.4849 0
M  V30 1769 H 173.565 4.50152 -4.06753 0
M  V30 1770 H 172.304 3.86533 -2.97394 0
M  V30 1771 H 171.309 2.55349 -4.86906 0
M  V30 1772 H 172.534 3.21997 -5.97909 0
M  V30 1773 H 170.48 4.84084 -4.42718 0
M  V30 1774 H 170.397 4.44783 -6.11313 0
M  V30 1775 H 171.665 5.48761 -5.53608 0
M  V30 1776 N 175.894 1.51508 0.433938 0
M  V30 1777 C 176.841 1.73068 1.52696 0
M  V30 1778 C 177.811 0.572441 1.55924 0
M  V30 1779 O 178.996 0.807253 1.72882 0
M  V30 1780 C 176.136 1.86474 2.90381 0
M  V30 1781 C 175.249 3.14037 2.96656 0
M  V30 1782 C 174.384 3.18019 4.25485 0
M  V30 1783 C 173.423 4.39882 4.2564 0
M  V30 1784 N 172.56 4.41394 5.45999 0
M  V30 1785 H 177.4 2.66366 1.33615 0
M  V30 1786 H 174.937 1.32008 0.649018 0
M  V30 1787 H 176.895 1.92229 3.70275 0
M  V30 1788 H 175.525 0.965809 3.08013 0
M  V30 1789 H 174.577 3.17575 2.09404 0
M  V30 1790 H 175.889 4.0394 2.92633 0
M  V30 1791 H 175.043 3.22708 5.13755 0
M  V30 1792 H 173.782 2.2601 4.3217 0
M  V30 1793 H 172.787 4.35366 3.35763 0
M  V30 1794 H 174.012 5.33159 4.20617 0
M  V30 1795 H 171.958 3.52258 5.53399 0
M  V30 1796 H 171.875 5.25111 5.4387 0
M  V30 1797 H 173.143 4.50281 6.36292 0
M  V30 1798 N 177.372 -0.689602 1.41712 0
M  V30 1799 C 178.319 -1.80345 1.44029 0
M  V30 1800 C 179.289 -1.63478 0.293948 0
M  V30 1801 O 180.474 -1.84244 0.495869 0
M  V30 1802 C 177.614 -3.18272 1.33405 0
M  V30 1803 C 176.727 -3.46529 2.57956 0
M  V30 1804 C 175.862 -4.74103 2.39582 0
M  V30 1805 C 174.901 -4.95347 3.5958 0
M  V30 1806 N 174.038 -6.14151 3.40239 0
M  V30 1807 H 178.878 -1.77698 2.39222 0
M  V30 1808 H 176.415 -0.867688 1.18784 0
M  V30 1809 H 178.373 -3.97956 1.25246 0
M  V30 1810 H 177.003 -3.2008 0.418164 0
M  V30 1811 H 176.055 -2.61207 2.76542 0
M  V30 1812 H 177.367 -3.58126 3.47199 0
M  V30 1813 H 176.521 -5.61853 2.28924 0
M  V30 1814 H 175.26 -4.64763 1.47805 0
M  V30 1815 H 174.265 -4.06044 3.70686 0
M  V30 1816 H 175.49 -5.06542 4.52318 0
M  V30 1817 H 173.436 -6.06013 2.51167 0
M  V30 1818 H 173.353 -6.26543 4.23061 0
M  V30 1819 H 174.621 -7.04619 3.33365 0
M  V30 1820 N 178.85 -1.27639 -0.924453 0
M  V30 1821 C 180.075 -1.17101 -1.71179 0
M  V30 1822 C 180.5 0.268134 -1.86179 0
M  V30 1823 O 179.858 1.19415 -1.36418 0
M  V30 1824 C 179.906 -1.86313 -3.08739 0
M  V30 1825 O 179.01 -1.16331 -3.95652 0
M  V30 1826 H 178.351 -0.407091 -0.524569 0
M  V30 1827 H 180.881 -1.68767 -1.15666 0
M  V30 1828 H 180.891 -1.938 -3.59034 0
M  V30 1829 H 179.566 -2.91001 -2.97138 0
M  V30 1830 H 178.143 -1.16935 -3.54091 0
M  V30 1831 N 180.328 1.1314 -1.09713 0
M  V30 1832 C 181.574 1.84967 -0.846104 0
M  V30 1833 C 181.929 1.82082 0.621601 0
M  V30 1834 O 181.222 1.2501 1.452 0
M  V30 1835 C 181.416 3.32167 -1.3191 0
M  V30 1836 C 181.245 3.49386 -2.83125 0
M  V30 1837 C 180.015 3.63456 -3.51038 0
M  V30 1838 C 182.213 3.45179 -3.81256 0
M  V30 1839 N 180.195 3.68966 -4.9065 0
M  V30 1840 C 181.566 3.57094 -5.06837 0
M  V30 1841 C 183.621 3.28598 -3.74069 0
M  V30 1842 C 182.324 3.5414 -6.26081 0
M  V30 1843 C 184.35 3.26953 -4.92804 0
M  V30 1844 C 183.712 3.39422 -6.17229 0
M  V30 1845 H 179.811 0.692899 -0.362512 0
M  V30 1846 H 182.395 1.35506 -1.39808 0
M  V30 1847 H 180.566 3.80186 -0.794535 0
M  V30 1848 H 182.298 3.91815 -1.01308 0
M  V30 1849 H 179.053 3.65256 -3.01471 0
M  V30 1850 H 179.477 3.75404 -5.63383 0
M  V30 1851 H 184.119 3.17858 -2.78794 0
M  V30 1852 H 181.837 3.63653 -7.21653 0
M  V30 1853 H 185.423 3.15316 -4.88945 0
M  V30 1854 H 184.303 3.38114 -7.07565 0
M  V30 1855 N 181.806 0.884767 1.30421 0
M  V30 1856 C 183.083 0.423185 1.90967 0
M  V30 1857 C 183.463 -1.09605 1.80416 0
M  V30 1858 O 182.811 -1.93126 1.22125 0
M  V30 1859 C 183.021 0.921056 3.36627 0
M  V30 1860 C 184.369 0.955903 4.137 0
M  V30 1861 O 185.393 0.867706 3.4547 0
M  V30 1862 O 184.252 1.08614 5.35598 0
M  V30 1863 H 181.346 0.129369 0.816819 0
M  V30 1864 H 183.892 0.973653 1.3899 0
M  V30 1865 H 182.664 1.96489 3.3839 0
M  V30 1866 H 182.287 0.349741 3.96059 0
M  V30 1867 N 183.284 -1.43765 0.645699 0
M  V30 1868 C 184.561 -1.9541 0.0862963 0
M  V30 1869 C 184.941 -1.58725 -1.39175 0
M  V30 1870 O 184.289 -0.868581 -2.11348 0
M  V30 1871 C 184.499 -3.47488 0.324565 0
M  V30 1872 C 185.847 -4.24001 0.225497 0
M  V30 1873 O 186.871 -3.55274 0.256715 0
M  V30 1874 O 185.73 -5.46313 0.142801 0
M  V30 1875 H 182.824 -0.826882 -0.0139483 0
M  V30 1876 H 185.37 -1.53743 0.718415 0
M  V30 1877 H 184.142 -3.67289 1.3496 0
M  V30 1878 H 183.765 -3.96135 -0.340987 0
M  V30 1879 N 184.763 -0.387143 -1.52771 0
M  V30 1880 C 186.011 0.195349 -2.01154 0
M  V30 1881 C 186.332 1.475 -1.27549 0
M  V30 1882 O 185.602 1.91878 -0.394924 0
M  V30 1883 H 184.182 0.075178 -0.743207 0
M  V30 1884 H 186.844 -0.518337 -1.87881 0
M  V30 1885 H 185.94 0.407096 -3.09434 0
M  V30 1886 N 186.241 1.57166 -0.116904 0
M  V30 1887 C 187.487 1.96206 0.536166 0
M  V30 1888 C 187.842 0.99915 1.64422 0
M  V30 1889 O 187.135 0.0288195 1.91578 0
M  V30 1890 C 187.329 3.39508 1.11664 0
M  V30 1891 C 187.158 4.49651 0.0663474 0
M  V30 1892 C 185.928 5.03982 -0.36474 0
M  V30 1893 C 188.126 5.09322 -0.713829 0
M  V30 1894 N 186.108 5.97699 -1.40102 0
M  V30 1895 C 187.479 5.98963 -1.60136 0
M  V30 1896 C 189.534 4.91989 -0.764948 0
M  V30 1897 C 188.237 6.73128 -2.53556 0
M  V30 1898 C 190.263 5.66833 -1.68685 0
M  V30 1899 C 189.625 6.56158 -2.56196 0
M  V30 1900 H 185.724 0.764203 0.165886 0
M  V30 1901 H 188.308 1.93623 -0.204535 0
M  V30 1902 H 186.479 3.42743 1.82707 0
M  V30 1903 H 188.211 3.65677 1.73386 0
M  V30 1904 H 184.966 4.73592 0.027252 0
M  V30 1905 H 185.39 6.49262 -1.91802 0
M  V30 1906 H 190.032 4.22676 -0.102501 0
M  V30 1907 H 187.75 7.41689 -3.20816 0
M  V30 1908 H 191.336 5.55427 -1.73181 0
M  V30 1909 H 190.216 7.13057 -3.26372 0
M  V30 1910 N 187.719 -0.156864 1.56817 0
M  V30 1911 C 188.996 -0.899244 1.73704 0
M  V30 1912 C 189.376 -1.99771 0.682254 0
M  V30 1913 O 188.724 -2.26515 -0.300522 0
M  V30 1914 C 188.934 -1.45075 3.17418 0
M  V30 1915 C 190.282 -1.91802 3.7881 0
M  V30 1916 O 191.306 -1.54838 3.20786 0
M  V30 1917 O 190.165 -2.5994 4.80722 0
M  V30 1918 H 187.259 -0.424267 0.709878 0
M  V30 1919 H 189.805 -0.143561 1.69092 0
M  V30 1920 H 188.577 -0.660846 3.85679 0
M  V30 1921 H 188.2 -2.27021 3.26416 0
M  V30 1922 N 189.197 -1.51736 -0.425897 0
M  V30 1923 C 190.129 -1.70083 -1.53638 0
M  V30 1924 C 191.142 -0.581349 -1.52066 0
M  V30 1925 O 192.331 -0.856017 -1.56635 0
M  V30 1926 C 189.431 -1.71078 -2.9255 0
M  V30 1927 C 188.604 -2.99795 -3.185 0
M  V30 1928 C 187.663 -2.92825 -4.37196 0
M  V30 1929 O 186.689 -3.66756 -4.35291 0
M  V30 1930 N 187.891 -2.0946 -5.41393 0
M  V30 1931 H 190.656 -2.65882 -1.383 0
M  V30 1932 H 188.217 -1.49765 -0.614988 0
M  V30 1933 H 190.209 -1.63969 -3.69995 0
M  V30 1934 H 188.779 -0.828242 -3.01428 0
M  V30 1935 H 187.999 -3.20684 -2.2925 0
M  V30 1936 H 189.287 -3.84977 -3.32671 0
M  V30 1937 H 188.685 -1.48792 -5.45781 0
M  V30 1938 H 187.242 -2.08221 -6.17647 0
M  V30 1939 N 190.675 0.682077 -1.42076 0
M  V30 1940 C 191.952 1.43755 -1.32642 0
M  V30 1941 C 192.332 2.11063 0.0396611 0
M  V30 1942 O 191.68 2.02701 1.05474 0
M  V30 1943 C 191.89 2.44596 -2.48946 0
M  V30 1944 C 193.238 3.09454 -2.9073 0
M  V30 1945 O 194.262 2.54922 -2.48783 0
M  V30 1946 O 193.121 4.08253 -3.63307 0
M  V30 1947 H 190.215 0.640857 -0.522715 0
M  V30 1948 H 192.761 0.711415 -1.54068 0
M  V30 1949 H 191.533 1.93609 -3.40046 0
M  V30 1950 H 191.156 3.24701 -2.29467 0
M  V30 1951 N 192.153 1.28127 0.917671 0
M  V30 1952 C 193.1 1.11717 2.0196 0
M  V30 1953 C 194.07 0.0153929 1.66093 0
M  V30 1954 O 195.255 0.179596 1.89953 0
M  V30 1955 C 192.395 0.780927 3.36148 0
M  V30 1956 C 191.508 1.96135 3.84909 0
M  V30 1957 C 190.643 1.56609 5.0759 0
M  V30 1958 C 189.682 2.71339 5.48673 0
M  V30 1959 N 188.819 2.32332 6.62545 0
M  V30 1960 H 193.659 2.06003 2.15329 0
M  V30 1961 H 191.196 1.02535 1.05475 0
M  V30 1962 H 193.154 0.56675 4.13333 0
M  V30 1963 H 191.784 -0.124998 3.22558 0
M  V30 1964 H 190.836 2.28777 3.03916 0
M  V30 1965 H 192.148 2.82165 4.1132 0
M  V30 1966 H 191.302 1.31374 5.92305 0
M  V30 1967 H 190.041 0.677014 4.82978 0
M  V30 1968 H 189.046 2.97276 4.62501 0
M  V30 1969 H 190.271 3.60882 5.75274 0
M  V30 1970 H 188.217 1.45889 6.39572 0
M  V30 1971 H 188.134 3.11899 6.88662 0
M  V30 1972 H 189.402 2.10371 7.50576 0
M  V30 1973 N 193.631 -1.12557 1.10312 0
M  V30 1974 C 194.88 -1.83395 0.839588 0
M  V30 1975 C 195.193 -1.84939 -0.636929 0
M  V30 1976 O 196.399 -2.51761 -1.01631 0
M  V30 1977 C 194.855 -3.29303 1.45215 0
M  V30 1978 C 194.463 -3.36122 2.96186 0
M  V30 1979 C 196.207 -4.05121 1.26796 0
M  V30 1980 C 194.114 -4.76357 3.50483 0
M  V30 1981 H 193.044 -0.687133 0.310425 0
M  V30 1982 H 195.695 -1.26746 1.32694 0
M  V30 1983 H 194.077 -3.85812 0.892469 0
M  V30 1984 H 195.251 -2.89559 3.58458 0
M  V30 1985 H 193.566 -2.73776 3.13745 0
M  V30 1986 H 196.163 -5.08668 1.64806 0
M  V30 1987 H 196.506 -4.15773 0.209409 0
M  V30 1988 H 197.039 -3.54967 1.79563 0
M  V30 1989 H 193.778 -4.70899 4.55998 0
M  V30 1990 H 193.298 -5.23377 2.92978 0
M  V30 1991 H 194.977 -5.45294 3.48228 0
M  V30 1992 N 195.109 -0.891671 -1.2995 0
M  V30 1993 C 196.041 -0.320695 -2.26945 0
M  V30 1994 C 197.054 0.528497 -1.53983 0
M  V30 1995 O 198.243 0.346959 -1.75096 0
M  V30 1996 C 195.343 0.562066 -3.34207 0
M  V30 1997 C 194.516 -0.259576 -4.36629 0
M  V30 1998 C 193.575 0.554739 -5.23268 0
M  V30 1999 O 192.601 -0.0249311 -5.69195 0
M  V30 2000 N 193.803 1.8625 -5.4981 0
M  V30 2001 H 196.568 -1.15432 -2.76578 0
M  V30 2002 H 194.129 -0.755336 -1.432 0
M  V30 2003 H 196.121 1.11304 -3.89093 0
M  V30 2004 H 194.691 1.29637 -2.84452 0
M  V30 2005 H 193.911 -0.991986 -3.81514 0
M  V30 2006 H 195.199 -0.822564 -5.02107 0
M  V30 2007 H 194.597 2.35628 -5.14292 0
M  V30 2008 H 193.154 2.36078 -6.07545 0
M  V30 2009 N 196.587 1.43421 -0.653314 0
M  V30 2010 C 197.534 2.30768 0.0382271 0
M  V30 2011 C 198.504 1.44755 0.814576 0
M  V30 2012 O 199.689 1.73624 0.791162 0
M  V30 2013 C 196.829 3.30336 0.998599 0
M  V30 2014 C 195.942 4.31448 0.218342 0
M  V30 2015 C 195.077 5.18098 1.17252 0
M  V30 2016 C 194.116 6.10902 0.382702 0
M  V30 2017 N 193.253 6.90176 1.28848 0
M  V30 2018 H 198.093 2.89357 -0.712511 0
M  V30 2019 H 195.63 1.42548 -0.363128 0
M  V30 2020 H 197.588 3.86572 1.56901 0
M  V30 2021 H 196.218 2.73397 1.71621 0
M  V30 2022 H 195.27 3.77506 -0.46836 0
M  V30 2023 H 196.582 4.97227 -0.395812 0
M  V30 2024 H 195.736 5.7896 1.81356 0
M  V30 2025 H 194.475 4.52444 1.82058 0
M  V30 2026 H 193.48 5.49128 -0.27169 0
M  V30 2027 H 194.705 6.78598 -0.260957 0
M  V30 2028 H 192.651 6.27171 1.92334 0
M  V30 2029 H 192.568 7.52478 0.728887 0
M  V30 2030 H 193.836 7.55543 1.91766 0
M  V30 2031 N 198.065 0.39524 1.52563 0
M  V30 2032 C 199.028 -0.425001 2.25225 0
M  V30 2033 C 200.028 -0.985266 1.27079 0
M  V30 2034 O 201.218 -0.866332 1.5113 0
M  V30 2035 C 198.35 -1.59686 3.01186 0
M  V30 2036 H 199.543 0.211233 2.99155 0
M  V30 2037 H 197.096 0.147472 1.55603 0
M  V30 2038 H 197.831 -2.27035 2.31572 0
M  V30 2039 H 197.616 -1.20176 3.73229 0
M  V30 2040 H 199.106 -2.17743 3.5634 0
M  V30 2041 N 199.544 -1.57102 0.125237 0
M  V30 2042 C 200.793 -1.94582 -0.531095 0
M  V30 2043 C 201.106 -1.01126 -1.6743 0
M  V30 2044 O 202.312 -1.28097 -2.39381 0
M  V30 2045 C 200.768 -3.45839 -0.996164 0
M  V30 2046 C 200.376 -4.47842 0.118926 0
M  V30 2047 C 202.12 -3.92227 -1.62352 0
M  V30 2048 C 200.027 -5.90284 -0.363192 0
M  V30 2049 H 198.957 -0.726391 -0.20217 0
M  V30 2050 H 201.608 -1.82339 0.206092 0
M  V30 2051 H 199.99 -3.53338 -1.78796 0
M  V30 2052 H 201.164 -4.52018 0.895358 0
M  V30 2053 H 199.479 -4.11243 0.653324 0
M  V30 2054 H 202.076 -4.96069 -1.99548 0
M  V30 2055 H 202.419 -3.32552 -2.50429 0
M  V30 2056 H 202.952 -3.87554 -0.897019 0
M  V30 2057 H 199.691 -6.53728 0.481679 0
M  V30 2058 H 199.211 -5.89515 -1.10597 0
M  V30 2059 H 200.89 -6.41752 -0.822377 0
M  V30 2060 N 201.022 0.148545 -1.56898 0
M  V30 2061 C 201.985 1.16736 -1.97244 0
M  V30 2062 C 202.985 1.35947 -0.858777 0
M  V30 2063 O 204.175 1.32966 -1.12542 0
M  V30 2064 C 201.307 2.52798 -2.28705 0
M  V30 2065 H 202.5 0.821279 -2.88435 0
M  V30 2066 H 200.053 0.391831 -1.51309 0
M  V30 2067 H 200.788 2.92381 -1.403 0
M  V30 2068 H 200.573 2.40216 -3.09901 0
M  V30 2069 H 202.063 3.26179 -2.60762 0
M  V30 2070 N 202.5 1.5196 0.417844 0
M  V30 2071 C 203.463 1.74065 1.49111 0
M  V30 2072 C 204.463 0.610537 1.48758 0
M  V30 2073 O 205.653 0.87832 1.50437 0
M  V30 2074 C 202.785 1.81502 2.88565 0
M  V30 2075 H 203.978 2.69869 1.30807 0
M  V30 2076 H 201.531 1.42244 0.647785 0
M  V30 2077 H 202.266 0.875813 3.1225 0
M  V30 2078 H 202.051 2.63651 2.90225 0
M  V30 2079 H 203.541 2.00376 3.66387 0
M  V30 2080 N 203.978 -0.674533 1.42435 0
M  V30 2081 C 205.226 -1.43175 1.42637 0
M  V30 2082 C 205.547 -1.94951 0.0438992 0
M  V30 2083 O 204.817 -1.7308 -0.917607 0
M  V30 2084 H 203.397 -0.531307 0.525092 0
M  V30 2085 H 206.059 -0.797006 1.77859 0
M  V30 2086 H 205.155 -2.28463 2.12629 0
M  V30 2087 N 205.456 -1.28612 -0.910864 0
M  V30 2088 C 206.867 -1.14406 -1.47541 0
M  V30 2089 C 207.218 0.264901 -1.94403 0
M  V30 2090 O 206.343 1.15942 -1.82719 0
M  V30 2091 C 206.938 -2.07073 -2.68153 0
M  V30 2092 C 205.497 -1.96923 -3.20778 0
M  V30 2093 C 204.644 -1.98646 -1.93481 0
M  V30 2094 H 207.595 -1.41259 -0.723291 0
M  V30 2095 H 207.616 -1.63642 -3.43514 0
M  V30 2096 H 207.128 -3.09611 -2.34015 0
M  V30 2097 H 205.229 -0.97433 -3.59635 0
M  V30 2098 H 205.342 -2.84026 -3.85832 0
M  V30 2099 H 203.706 -1.43093 -2.10705 0
M  V30 2100 H 204.489 -3.02868 -1.61634 0
M  V30 2101 N 206.934 1.1197 -1.10907 0
M  V30 2102 C 208.159 1.87942 -0.877064 0
M  V30 2103 C 208.584 1.79341 0.567314 0
M  V30 2104 O 207.942 1.15184 1.40009 0
M  V30 2105 C 207.99 3.34926 -1.33629 0
M  V30 2106 O 207.094 4.09303 -0.504447 0
M  V30 2107 H 206.435 0.583785 -0.316371 0
M  V30 2108 H 208.965 1.4157 -1.47712 0
M  V30 2109 H 208.975 3.8577 -1.32837 0
M  V30 2110 H 207.65 3.40504 -2.3881 0
M  V30 2111 H 206.227 3.68393 -0.577993 0
M  V30 2112 N 208.412 0.89855 1.29475 0
M  V30 2113 C 209.322 0.379974 2.31502 0
M  V30 2114 C 210.338 -0.524695 1.659 0
M  V30 2115 O 211.514 -0.414551 1.97087 0
M  V30 2116 C 208.579 -0.385138 3.44554 0
M  V30 2117 C 207.64 0.550914 4.2575 0
M  V30 2118 C 206.873 -0.177778 5.33404 0
M  V30 2119 O 207.096 -1.40189 5.52904 0
M  V30 2120 O 206.03 0.479106 5.9999 0
M  V30 2121 H 209.856 1.22639 2.77837 0
M  V30 2122 H 207.441 0.662834 1.33891 0
M  V30 2123 H 209.323 -0.817841 4.13388 0
M  V30 2124 H 207.998 -1.20763 3.0033 0
M  V30 2125 H 206.905 1.03271 3.59564 0
M  V30 2126 H 208.238 1.33979 4.73614 0
M  V30 2127 N 209.89 -1.43072 0.660911 0
M  V30 2128 C 211.118 -2.06067 0.185422 0
M  V30 2129 C 211.533 -1.49582 -1.15198 0
M  V30 2130 O 210.89 -0.630134 -1.71276 0
M  V30 2131 C 210.941 -3.61371 0.0966523 0
M  V30 2132 O 210.662 -4.15758 1.38119 0
M  V30 2133 C 212.163 -4.41455 -0.403996 0
M  V30 2134 H 209.383 -0.664459 0.0934604 0
M  V30 2135 H 211.927 -1.83447 0.90373 0
M  V30 2136 H 210.082 -3.8315 -0.572259 0
M  V30 2137 H 210.496 -5.09499 1.24542 0
M  V30 2138 H 211.97 -5.50437 -0.415045 0
M  V30 2139 H 212.447 -4.15036 -1.43674 0
M  V30 2140 H 213.053 -4.24663 0.232691 0
M  V30 2141 N 211.368 -0.403325 -1.52352 0
M  V30 2142 C 212.596 0.174012 -2.06167 0
M  V30 2143 C 213.011 1.39347 -1.27388 0
M  V30 2144 O 212.368 1.79597 -0.324201 0
M  V30 2145 C 212.419 0.530223 -3.5759 0
M  V30 2146 O 212.14 -0.640806 -4.33388 0
M  V30 2147 C 213.641 1.16192 -4.27802 0
M  V30 2148 H 210.861 0.0229464 -0.670608 0
M  V30 2149 H 213.405 -0.572604 -1.9632 0
M  V30 2150 H 211.56 1.22673 -3.67464 0
M  V30 2151 H 211.974 -0.344851 -5.23365 0
M  V30 2152 H 213.448 1.36141 -5.34948 0
M  V30 2153 H 213.925 2.13335 -3.83907 0
M  V30 2154 H 214.531 0.505775 -4.22282 0
M  V30 2155 N 212.846 1.57033 -0.133567 0
M  V30 2156 C 213.778 2.13176 0.841944 0
M  V30 2157 C 214.791 1.07794 1.22001 0
M  V30 2158 O 215.98 1.35117 1.16643 0
M  V30 2159 C 213.08 2.62847 2.13926 0
M  V30 2160 C 212.253 3.92486 1.93064 0
M  V30 2161 C 211.312 4.27605 3.0666 0
M  V30 2162 O 210.338 4.96168 2.78937 0
M  V30 2163 N 211.54 3.861 4.33483 0
M  V30 2164 H 214.305 2.97503 0.362192 0
M  V30 2165 H 211.866 1.61821 0.05042 0
M  V30 2166 H 213.858 2.83363 2.88942 0
M  V30 2167 H 212.428 1.83319 2.53205 0
M  V30 2168 H 211.648 3.80732 1.02159 0
M  V30 2169 H 212.936 4.77225 1.76447 0
M  V30 2170 H 212.334 3.30828 4.58878 0
M  V30 2171 H 210.891 4.11694 5.05323 0
M  V30 2172 N 214.325 -0.140222 1.56975 0
M  V30 2173 C 215.571 -0.852949 1.83991 0
M  V30 2174 C 215.904 -1.80512 0.716187 0
M  V30 2175 O 215.179 -1.92479 -0.279681 0
M  V30 2176 C 215.462 -1.6215 3.21527 0
M  V30 2177 C 215.315 -0.690363 4.4447 0
M  V30 2178 C 216.634 -2.58247 3.56366 0
M  V30 2179 H 213.753 -0.308634 0.669264 0
M  V30 2180 H 216.395 -0.117898 1.89634 0
M  V30 2181 H 214.545 -2.24812 3.16847 0
M  V30 2182 H 216.217 -0.0742264 4.6124 0
M  V30 2183 H 214.46 -0.000396433 4.338 0
M  V30 2184 H 215.131 -1.2643 5.37326 0
M  V30 2185 H 217.607 -2.05701 3.61699 0
M  V30 2186 H 216.483 -3.09067 4.53617 0
M  V30 2187 H 216.744 -3.39923 2.82674 0
M  V30 2188 N 215.803 -1.52179 -0.40978 0
M  V30 2189 C 216.733 -1.78435 -1.5061 0
M  V30 2190 C 217.714 -0.635295 -1.57791 0
M  V30 2191 O 218.899 -0.880823 -1.73076 0
M  V30 2192 C 216.029 -1.93444 -2.88439 0
M  V30 2193 C 214.983 -3.09038 -2.96108 0
M  V30 2194 C 214.309 -3.09268 -4.36185 0
M  V30 2195 C 215.609 -4.48508 -2.67652 0
M  V30 2196 H 217.303 -2.70237 -1.28889 0
M  V30 2197 H 214.849 -1.30036 -0.618605 0
M  V30 2198 H 216.802 -2.10394 -3.65119 0
M  V30 2199 H 215.526 -0.983129 -3.11452 0
M  V30 2200 H 214.185 -2.91837 -2.21872 0
M  V30 2201 H 213.833 -2.11861 -4.56206 0
M  V30 2202 H 213.533 -3.86907 -4.42241 0
M  V30 2203 H 215.057 -3.28348 -5.14801 0
M  V30 2204 H 216.471 -4.65918 -3.34056 0
M  V30 2205 H 214.868 -5.28059 -2.85085 0
M  V30 2206 H 215.938 -4.56649 -1.63095 0
M  V30 2207 N 217.281 0.66697 -1.42791 0
M  V30 2208 C 218.527 1.4291 -1.43891 0
M  V30 2209 C 218.86 1.94114 -0.0578972 0
M  V30 2210 O 218.135 1.71414 0.91911 0
M  V30 2211 C 218.418 2.62049 -2.46987 0
M  V30 2212 C 218.271 2.16426 -3.94309 0
M  V30 2213 C 219.59 3.64266 -2.46978 0
M  V30 2214 H 216.709 0.518306 -0.523954 0
M  V30 2215 H 219.351 0.757321 -1.74255 0
M  V30 2216 H 217.501 3.19361 -2.21225 0
M  V30 2217 H 219.173 1.64221 -4.31079 0
M  V30 2218 H 217.416 1.47925 -4.078 0
M  V30 2219 H 218.087 3.02038 -4.62036 0
M  V30 2220 H 220.563 3.16686 -2.69906 0
M  V30 2221 H 219.439 4.45196 -3.21079 0
M  V30 2222 H 219.7 4.15927 -1.49857 0
M  V30 2223 N 218.759 1.29093 0.90403 0
M  V30 2224 C 220.005 1.16986 1.65656 0
M  V30 2225 C 220.338 -0.278925 1.92186 0
M  V30 2226 O 219.613 -1.2019 1.5292 0
M  V30 2227 C 219.896 1.97908 3.0084 0
M  V30 2228 C 219.749 3.50903 2.81403 0
M  V30 2229 C 221.068 1.80208 4.01513 0
M  V30 2230 H 218.187 0.426346 0.601164 0
M  V30 2231 H 220.829 1.58518 1.04747 0
M  V30 2232 H 218.979 1.62616 3.52829 0
M  V30 2233 H 220.651 3.96153 2.36348 0
M  V30 2234 H 218.894 3.76045 2.1627 0
M  V30 2235 H 219.565 4.02791 3.77443 0
M  V30 2236 H 222.041 2.11025 3.58619 0
M  V30 2237 H 220.917 2.39184 4.94047 0
M  V30 2238 H 221.178 0.756119 4.35586 0
M  V30 2239 N 220.237 -1.11381 1.11499 0
M  V30 2240 C 221.485 -1.8277 0.862524 0
M  V30 2241 C 221.806 -1.85097 -0.613534 0
M  V30 2242 O 221.076 -1.32198 -1.4457 0
M  V30 2243 H 219.656 -0.676823 0.316101 0
M  V30 2244 H 222.318 -1.34816 1.4075 0
M  V30 2245 H 221.414 -2.86614 1.23527 0
M  V30 2246 N 221.715 -0.905404 -1.28997 0
M  V30 2247 C 222.678 -0.392253 -2.25819 0
M  V30 2248 C 223.678 0.476753 -1.5357 0
M  V30 2249 O 224.868 0.280994 -1.71919 0
M  V30 2250 C 222 0.438588 -3.38067 0
M  V30 2251 H 223.193 -1.24743 -2.72725 0
M  V30 2252 H 220.746 -0.684051 -1.40536 0
M  V30 2253 H 221.481 1.31352 -2.96508 0
M  V30 2254 H 221.266 -0.184167 -3.91667 0
M  V30 2255 H 222.756 0.78873 -4.10084 0
M  V30 2256 N 223.193 1.4272 -0.668489 0
M  V30 2257 C 224.441 2.01226 -0.187769 0
M  V30 2258 C 224.762 1.53092 1.2078 0
M  V30 2259 O 224.032 0.74993 1.80977 0
M  V30 2260 H 222.612 0.744041 -0.0664272 0
M  V30 2261 H 225.274 1.74723 -0.863583 0
M  V30 2262 H 224.37 3.11556 -0.184166 0
M  V30 2263 N 224.671 0.411399 1.52136 0
M  V30 2264 C 225.896 -0.165538 2.06738 0
M  V30 2265 C 226.321 -1.379 1.27926 0
M  V30 2266 O 225.679 -1.78628 0.310114 0
M  V30 2267 C 225.727 -0.492124 3.57226 0
M  V30 2268 O 224.831 -1.58276 3.80818 0
M  V30 2269 H 224.172 -0.0132132 0.663869 0
M  V30 2270 H 226.702 0.585253 1.96051 0
M  V30 2271 H 226.712 -0.750104 4.01045 0
M  V30 2272 H 225.387 0.394922 4.14021 0
M  V30 2273 H 223.964 -1.31677 3.48877 0
M  V30 2274 N 226.149 -1.5696 0.141893 0
M  V30 2275 C 227.112 -2.15316 -0.785587 0
M  V30 2276 C 228.112 -1.09366 -1.1788 0
M  V30 2277 O 229.302 -1.35031 -1.10056 0
M  V30 2278 C 226.434 -2.71211 -2.06537 0
M  V30 2279 H 227.627 -2.98608 -0.278041 0
M  V30 2280 H 225.18 -1.5593 -0.107519 0
M  V30 2281 H 225.915 -1.91571 -2.6167 0
M  V30 2282 H 225.7 -3.4872 -1.79268 0
M  V30 2283 H 227.19 -3.16189 -2.72789 0
M  V30 2284 N 227.627 0.131896 -1.57047 0
M  V30 2285 C 228.875 0.840269 -1.83804 0
M  V30 2286 C 229.196 1.81017 -0.72512 0
M  V30 2287 O 228.466 1.94272 0.251995 0
M  V30 2288 H 227.046 0.313294 -0.678127 0
M  V30 2289 H 229.708 0.122294 -1.94516 0
M  V30 2290 H 228.804 1.39335 -2.79271 0
M  V30 2291 N 229.106 1.52395 0.401703 0
M  V30 2292 C 230.353 1.66817 1.14796 0
M  V30 2293 C 230.681 0.401772 1.90305 0
M  V30 2294 O 229.936 -0.615487 1.85769 0
M  V30 2295 C 230.235 2.84578 2.16217 0
M  V30 2296 C 229.901 4.22513 1.5746 0
M  V30 2297 C 228.563 4.60029 1.41161 0
M  V30 2298 C 230.915 5.0844 1.14622 0
M  V30 2299 C 228.243 5.81144 0.80552 0
M  V30 2300 C 230.595 6.30167 0.55428 0
M  V30 2301 C 229.259 6.66426 0.378482 0
M  V30 2302 H 228.529 0.610428 0.420069 0
M  V30 2303 H 231.176 1.86512 0.434212 0
M  V30 2304 H 229.481 2.59248 2.93764 0
M  V30 2305 H 231.178 2.92933 2.73845 0
M  V30 2306 H 227.768 3.92953 1.71132 0
M  V30 2307 H 231.952 4.80034 1.26021 0
M  V30 2308 H 227.208 6.07855 0.657399 0
M  V30 2309 H 231.382 6.96071 0.213983 0
M  V30 2310 H 229.009 7.60143 -0.0932606 0
M  V30 2311 N 230.584 -0.659388 1.43143 0
M  V30 2312 C 231.532 -1.79374 1.4808 0
M  V30 2313 C 232.526 -1.65639 0.354988 0
M  V30 2314 O 233.732 -1.7206 0.528704 0
M  V30 2315 H 230.107 -0.591705 0.4641 0
M  V30 2316 H 232.078 -1.72329 2.43609 0
M  V30 2317 C 230.827 -3.17606 1.41499 0
M  V30 2318 H 230.15 -3.28809 2.27431 0
M  V30 2319 H 231.59 -3.96951 1.49015 0
M  V30 2320 C 230.049 -3.36642 0.131765 0
M  V30 2321 O 230.579 -3.93461 -0.809386 0
M  V30 2322 N 228.785 -2.90567 0.0439396 0
M  V30 2323 H 228.332 -2.44513 0.810619 0
M  V30 2324 H 228.29 -3.03681 -0.813969 0
M  V30 2325 N 232.062 -1.29571 -0.897171 0
M  V30 2326 C 233.025 -1.14913 -1.98312 0
M  V30 2327 C 234.025 -0.0838629 -1.60581 0
M  V30 2328 O 235.215 -0.331006 -1.71026 0
M  V30 2329 C 232.347 -0.757835 -3.3237 0
M  V30 2330 H 233.54 -2.11377 -2.12743 0
M  V30 2331 H 231.093 -1.12793 -1.08201 0
M  V30 2332 H 231.828 0.206837 -3.2364 0
M  V30 2333 H 231.613 -1.52755 -3.61121 0
M  V30 2334 H 233.103 -0.678408 -4.12053 0
M  V30 2335 N 233.54 1.10788 -1.12088 0
M  V30 2336 C 234.765 1.87002 -0.896949 0
M  V30 2337 C 235.19 1.79933 0.548261 0
M  V30 2338 O 234.548 1.16662 1.38779 0
M  V30 2339 C 234.596 3.3349 -1.37174 0
M  V30 2340 O 233.7 4.08745 -0.547831 0
M  V30 2341 H 233.041 0.580397 -0.322545 0
M  V30 2342 H 235.571 1.39996 -1.49206 0
M  V30 2343 H 235.581 3.84339 -1.36922 0
M  V30 2344 H 234.256 3.37951 -2.42408 0
M  V30 2345 H 232.833 3.6776 -0.617034 0
M  V30 2346 N 235.018 0.912232 1.28515 0
M  V30 2347 C 235.948 0.416403 2.29757 0
M  V30 2348 C 236.929 -0.515194 1.6211 0
M  V30 2349 O 238.114 -0.423253 1.89532 0
M  V30 2350 C 235.244 -0.34572 3.45575 0
M  V30 2351 C 234.198 0.496599 4.25109 0
M  V30 2352 C 233.524 -0.393771 5.33248 0
M  V30 2353 C 234.824 1.75307 4.92001 0
M  V30 2354 H 236.518 1.26249 2.7148 0
M  V30 2355 H 234.064 0.608515 1.30511 0
M  V30 2356 H 236.017 -0.703422 4.15488 0
M  V30 2357 H 234.741 -1.2257 3.02728 0
M  V30 2358 H 233.4 0.8368 3.56922 0
M  V30 2359 H 233.048 -1.27225 4.86644 0
M  V30 2360 H 232.748 0.166209 5.87365 0
M  V30 2361 H 234.272 -0.747389 6.06009 0
M  V30 2362 H 235.686 1.46437 5.54283 0
M  V30 2363 H 234.083 2.25534 5.56106 0
M  V30 2364 H 235.153 2.48176 4.16577 0
M  V30 2365 N 236.496 -1.42363 0.676048 0
M  V30 2366 C 237.459 -2.29199 0.00766941 0
M  V30 2367 C 238.459 -1.43389 -0.727745 0
M  V30 2368 O 239.649 -1.64764 -0.56556 0
M  V30 2369 C 236.781 -3.2591 -0.999785 0
M  V30 2370 H 237.974 -2.89794 0.771988 0
M  V30 2371 H 235.527 -1.50024 0.438468 0
M  V30 2372 H 236.262 -2.70256 -1.79255 0
M  V30 2373 H 236.047 -3.89202 -0.475829 0
M  V30 2374 H 237.537 -3.91028 -1.46583 0
M  V30 2375 N 237.974 -0.419461 -1.51915 0
M  V30 2376 C 238.937 0.389116 -2.25873 0
M  V30 2377 C 239.937 0.964924 -1.28631 0
M  V30 2378 O 241.127 0.842179 -1.52489 0
M  V30 2379 C 238.259 1.54874 -3.03689 0
M  V30 2380 H 239.452 -0.258799 -2.98781 0
M  V30 2381 H 237.005 -0.172209 -1.55348 0
M  V30 2382 H 237.74 2.23323 -2.35154 0
M  V30 2383 H 237.525 1.14223 -3.75094 0
M  V30 2384 H 239.015 2.12046 -3.59759 0
M  V30 2385 N 239.452 1.56882 -0.150215 0
M  V30 2386 C 240.399 2.16922 0.788244 0
M  V30 2387 C 241.369 1.10303 1.24187 0
M  V30 2388 O 242.554 1.38359 1.31383 0
M  V30 2389 C 239.694 2.79754 2.02068 0
M  V30 2390 C 238.807 4.00775 1.61257 0
M  V30 2391 C 237.942 4.51595 2.79705 0
M  V30 2392 C 236.981 5.65074 2.35282 0
M  V30 2393 N 236.118 6.10499 3.4675 0
M  V30 2394 H 240.958 2.96779 0.269444 0
M  V30 2395 H 238.495 1.46599 0.12128 0
M  V30 2396 H 240.453 3.14329 2.74323 0
M  V30 2397 H 239.083 2.02536 2.51354 0
M  V30 2398 H 238.135 3.72158 0.787553 0
M  V30 2399 H 239.447 4.82978 1.24633 0
M  V30 2400 H 238.601 4.88242 3.60145 0
M  V30 2401 H 237.34 3.68406 3.19576 0
M  V30 2402 H 236.345 5.28 1.53283 0
M  V30 2403 H 237.57 6.50052 1.96493 0
M  V30 2404 H 235.516 5.30243 3.86236 0
M  V30 2405 H 235.433 6.87637 3.14152 0
M  V30 2406 H 236.701 6.51791 4.27537 0
M  V30 2407 N 240.93 -0.123565 1.57115 0
M  V30 2408 C 241.877 -1.15177 2.00007 0
M  V30 2409 C 242.847 -1.41403 0.871454 0
M  V30 2410 O 244.032 -1.53346 1.13533 0
M  V30 2411 C 241.172 -2.47436 2.40561 0
M  V30 2412 C 240.285 -2.28184 3.66819 0
M  V30 2413 C 239.42 -3.53641 3.96373 0
M  V30 2414 C 238.459 -3.29528 5.15827 0
M  V30 2415 N 237.596 -4.47175 5.41275 0
M  V30 2416 H 242.436 -0.779008 2.87638 0
M  V30 2417 H 239.973 -0.373166 1.42288 0
M  V30 2418 H 241.931 -3.24584 2.62109 0
M  V30 2419 H 240.561 -2.82614 1.55978 0
M  V30 2420 H 239.613 -1.41976 3.52912 0
M  V30 2421 H 240.925 -2.0634 4.5412 0
M  V30 2422 H 240.079 -4.39209 4.18545 0
M  V30 2423 H 238.818 -3.78512 3.07538 0
M  V30 2424 H 237.823 -2.42349 4.93505 0
M  V30 2425 H 239.048 -3.06031 6.06236 0
M  V30 2426 H 236.994 -4.72175 4.55397 0
M  V30 2427 H 236.911 -4.28419 6.22891 0
M  V30 2428 H 238.179 -5.3389 5.67963 0
M  V30 2429 N 242.408 -1.52605 -0.393616 0
M  V30 2430 C 243.371 -1.76415 -1.46323 0
M  V30 2431 C 244.371 -0.634126 -1.47768 0
M  V30 2432 O 245.561 -0.902142 -1.4902 0
M  V30 2433 C 242.693 -1.8607 -2.85641 0
M  V30 2434 H 243.886 -2.71916 -1.26498 0
M  V30 2435 H 241.439 -1.43257 -0.625073 0
M  V30 2436 H 242.174 -0.925378 -3.10817 0
M  V30 2437 H 241.959 -2.68235 -2.85993 0
M  V30 2438 H 243.449 -2.06179 -3.63153 0
M  V30 2439 N 243.887 0.651787 -1.4349 0
M  V30 2440 C 245.135 1.40888 -1.44897 0
M  V30 2441 C 245.456 1.94856 -0.0749086 0
M  V30 2442 O 244.726 1.74518 0.889956 0
M  V30 2443 H 243.306 0.522887 -0.533478 0
M  V30 2444 H 245.968 0.768609 -1.79104 0
M  V30 2445 H 245.064 2.25052 -2.16236 0
M  V30 2446 N 245.365 1.30045 0.890287 0
M  V30 2447 C 246.328 1.15963 1.977 0
M  V30 2448 C 247.328 0.0923777 1.60534 0
M  V30 2449 O 248.518 0.340071 1.70848 0
M  V30 2450 C 245.65 0.775451 3.31963 0
M  V30 2451 H 246.843 2.12502 2.11619 0
M  V30 2452 H 244.396 1.13366 1.07601 0
M  V30 2453 H 245.131 -0.189671 3.23745 0
M  V30 2454 H 244.916 1.54668 3.60306 0
M  V30 2455 H 246.406 0.700251 4.11687 0
M  V30 2456 N 246.843 -1.10192 1.12674 0
M  V30 2457 C 247.791 -2.18694 0.792196 0
M  V30 2458 C 248.785 -1.67938 -0.222058 0
M  V30 2459 O 249.991 -1.79822 -0.0800074 0
M  V30 2460 H 246.366 -0.713223 0.238364 0
M  V30 2461 H 248.337 -2.44149 1.71564 0
M  V30 2462 C 247.086 -3.46682 0.265859 0
M  V30 2463 H 246.409 -3.86101 1.03761 0
M  V30 2464 H 247.849 -4.23942 0.0701128 0
M  V30 2465 C 246.308 -3.21506 -1.00675 0
M  V30 2466 O 246.838 -3.43408 -2.08408 0
M  V30 2467 N 245.044 -2.75158 -0.934692 0
M  V30 2468 H 244.591 -2.57535 -0.0578604 0
M  V30 2469 H 244.549 -2.58691 -1.7868 0
M  V30 2470 N 248.321 -0.919034 -1.28029 0
M  V30 2471 C 249.567 -0.555757 -1.95036 0
M  V30 2472 C 249.9 0.899198 -1.72128 0
M  V30 2473 O 249.175 1.64023 -1.04531 0
M  V30 2474 C 249.458 -0.872024 -3.49382 0
M  V30 2475 C 249.311 -2.3801 -3.81669 0
M  V30 2476 C 250.63 -0.37185 -4.38526 0
M  V30 2477 H 247.749 -0.203386 -0.708381 0
M  V30 2478 H 250.391 -1.14924 -1.51303 0
M  V30 2479 H 248.541 -0.366946 -3.86763 0
M  V30 2480 H 250.213 -2.9562 -3.54128 0
M  V30 2481 H 248.456 -2.83289 -3.28526 0
M  V30 2482 H 249.127 -2.55192 -4.8947 0
M  V30 2483 H 251.603 -0.804602 -4.08247 0
M  V30 2484 H 250.479 -0.622173 -5.45362 0
M  V30 2485 H 250.74 0.727934 -4.36066 0
M  V30 2486 N 249.799 1.42003 -0.683588 0
M  V30 2487 C 251.048 2.00638 -0.206681 0
M  V30 2488 C 251.361 1.5472 1.19671 0
M  V30 2489 O 252.567 2.05833 1.77045 0
M  V30 2490 C 251.023 3.58487 -0.318632 0
M  V30 2491 C 250.631 4.1339 -1.72663 0
M  V30 2492 C 252.375 4.24384 0.0991141 0
M  V30 2493 C 250.282 5.63633 -1.79087 0
M  V30 2494 H 249.212 0.750408 -0.0735107 0
M  V30 2495 H 251.863 1.62624 -0.850048 0
M  V30 2496 H 250.245 3.94047 0.392781 0
M  V30 2497 H 251.419 3.89273 -2.46583 0
M  V30 2498 H 249.734 3.59976 -2.09299 0
M  V30 2499 H 252.331 5.34652 0.0713833 0
M  V30 2500 H 252.674 4.00505 1.13586 0
M  V30 2501 H 253.207 3.93816 -0.561599 0
M  V30 2502 H 249.946 5.92323 -2.80774 0
M  V30 2503 H 249.466 5.89714 -1.09535 0
M  V30 2504 H 251.145 6.28201 -1.5483 0
M  V30 2505 N 251.277 0.427512 1.51691 0
M  V30 2506 C 252.207 -0.3796 2.30394 0
M  V30 2507 C 253.188 -1.02982 1.35384 0
M  V30 2508 O 254.373 -1.03534 1.643 0
M  V30 2509 C 251.503 -1.48649 3.1388 0
M  V30 2510 C 250.457 -0.960294 4.17088 0
M  V30 2511 C 249.783 -2.16219 4.89033 0
M  V30 2512 C 251.083 -0.00153679 5.223 0
M  V30 2513 H 252.777 0.277164 2.98114 0
M  V30 2514 H 250.323 0.134739 1.43368 0
M  V30 2515 H 252.276 -2.05826 3.67714 0
M  V30 2516 H 251 -2.1714 2.43962 0
M  V30 2517 H 249.659 -0.410806 3.64291 0
M  V30 2518 H 249.307 -2.83307 4.15628 0
M  V30 2519 H 249.007 -1.81654 5.58816 0
M  V30 2520 H 250.531 -2.73968 5.45687 0
M  V30 2521 H 251.945 -0.482687 5.71264 0
M  V30 2522 H 250.342 0.256199 5.99553 0
M  V30 2523 H 251.412 0.938174 4.75738 0
M  V30 2524 N 252.755 -1.56801 0.158532 0
M  V30 2525 C 254.001 -1.96781 -0.490405 0
M  V30 2526 C 254.334 -1.04397 -1.63753 0
M  V30 2527 O 253.609 -0.0885805 -1.94298 0
M  V30 2528 C 253.892 -3.4635 -0.985594 0
M  V30 2529 C 253.745 -4.49512 0.160824 0
M  V30 2530 C 255.064 -3.98697 -1.86355 0
M  V30 2531 H 252.183 -0.715482 -0.176788 0
M  V30 2532 H 254.825 -1.88451 0.242088 0
M  V30 2533 H 252.975 -3.53579 -1.60978 0
M  V30 2534 H 254.647 -4.54353 0.797537 0
M  V30 2535 H 252.89 -4.26013 0.818256 0
M  V30 2536 H 253.561 -5.51531 -0.227569 0
M  V30 2537 H 256.037 -3.94019 -1.33746 0
M  V30 2538 H 254.913 -5.03792 -2.17909 0
M  V30 2539 H 255.174 -3.41744 -2.8047 0
M  V30 2540 N 254.233 0.115231 -1.57178 0
M  V30 2541 C 255.51 0.852873 -1.76027 0
M  V30 2542 C 255.89 1.97892 -0.73498 0
M  V30 2543 O 255.238 2.27232 0.24036 0
M  V30 2544 C 255.448 1.36608 -3.21153 0
M  V30 2545 C 256.796 1.81692 -3.83762 0
M  V30 2546 O 257.82 1.46278 -3.24779 0
M  V30 2547 O 256.679 2.47104 -4.87444 0
M  V30 2548 H 253.773 0.405296 -0.720877 0
M  V30 2549 H 256.319 0.0986785 -1.69413 0
M  V30 2550 H 255.091 0.558357 -3.87296 0
M  V30 2551 H 254.714 2.18287 -3.3232 0
M  V30 2552 N 255.711 1.52812 0.385517 0
M  V30 2553 C 256.658 1.77838 1.47113 0
M  V30 2554 C 257.628 0.621757 1.54024 0
M  V30 2555 O 258.813 0.861846 1.70226 0
M  V30 2556 C 255.953 1.95618 2.84302 0
M  V30 2557 C 255.066 3.23316 2.86515 0
M  V30 2558 C 254.201 3.31394 4.15152 0
M  V30 2559 C 253.24 4.53201 4.1143 0
M  V30 2560 N 252.377 4.58542 5.3168 0
M  V30 2561 H 257.217 2.70482 1.25073 0
M  V30 2562 H 254.754 1.34006 0.606692 0
M  V30 2563 H 256.712 2.03912 3.63972 0
M  V30 2564 H 255.342 1.06331 3.04784 0
M  V30 2565 H 254.394 3.24076 1.99195 0
M  V30 2566 H 255.706 4.13045 2.79634 0
M  V30 2567 H 254.86 3.3889 5.03228 0
M  V30 2568 H 253.599 2.39645 4.24761 0
M  V30 2569 H 252.604 4.45827 3.21742 0
M  V30 2570 H 253.829 5.46271 4.03442 0
M  V30 2571 H 251.775 3.69686 5.41912 0
M  V30 2572 H 251.692 5.42148 5.26889 0
M  V30 2573 H 252.96 4.70296 6.21644 0
M  V30 2574 N 257.189 -0.644168 1.43834 0
M  V30 2575 C 258.152 -1.73857 1.49353 0
M  V30 2576 C 259.152 -1.56315 0.377112 0
M  V30 2577 O 260.342 -1.62048 0.639226 0
M  V30 2578 C 257.474 -3.12819 1.35488 0
M  V30 2579 H 258.667 -1.70342 2.46827 0
M  V30 2580 H 256.22 -0.856652 1.30733 0
M  V30 2581 H 256.955 -3.2194 0.390569 0
M  V30 2582 H 256.74 -3.26958 2.16428 0
M  V30 2583 H 258.23 -3.92606 1.42302 0
M  V30 2584 N 258.668 -1.30515 -0.883378 0
M  V30 2585 C 260.079 -1.17509 -1.45081 0
M  V30 2586 C 260.43 0.223605 -1.94922 0
M  V30 2587 O 259.555 1.12041 -1.85137 0
M  V30 2588 C 260.15 -2.12715 -2.63701 0
M  V30 2589 C 258.709 -2.03682 -3.16529 0
M  V30 2590 C 257.856 -2.02706 -1.89224 0
M  V30 2591 H 260.807 -1.42762 -0.693165 0
M  V30 2592 H 260.828 -1.70891 -3.39965 0
M  V30 2593 H 260.34 -3.14505 -2.27395 0
M  V30 2594 H 258.441 -1.05039 -3.57488 0
M  V30 2595 H 258.554 -2.92146 -3.7972 0
M  V30 2596 H 256.918 -1.4753 -2.07622 0
M  V30 2597 H 257.701 -3.06229 -1.55174 0
M  V30 2598 N 260.146 1.09593 -1.13257 0
M  V30 2599 C 261.393 1.81734 -0.893257 0
M  V30 2600 C 261.721 1.8563 0.580656 0
M  V30 2601 O 260.976 1.31906 1.44566 0
M  V30 2602 C 261.275 3.27802 -1.42411 0
M  V30 2603 C 260.941 3.44041 -2.91456 0
M  V30 2604 C 259.603 3.48181 -3.3215 0
M  V30 2605 C 261.955 3.48719 -3.87356 0
M  V30 2606 C 259.283 3.54575 -4.67433 0
M  V30 2607 C 261.635 3.56648 -5.2248 0
M  V30 2608 C 260.299 3.59055 -5.62704 0
M  V30 2609 H 259.569 0.665011 -0.326866 0
M  V30 2610 H 262.216 1.2912 -1.41422 0
M  V30 2611 H 260.521 3.83042 -0.823795 0
M  V30 2612 H 262.218 3.82149 -1.21503 0
M  V30 2613 H 258.808 3.41502 -2.58987 0
M  V30 2614 H 262.992 3.44763 -3.57004 0
M  V30 2615 H 258.248 3.54725 -4.97976 0
M  V30 2616 H 262.422 3.59212 -5.96607 0
M  V30 2617 H 260.049 3.63763 -6.67518 0
M  V30 2618 N 261.624 0.925811 1.2754 0
M  V30 2619 C 262.849 0.580924 1.99098 0
M  V30 2620 C 263.274 -0.833555 1.68622 0
M  V30 2621 O 262.632 -1.55903 0.925422 0
M  V30 2622 C 262.68 0.811186 3.51358 0
M  V30 2623 O 261.784 -0.124129 4.12213 0
M  V30 2624 H 261.125 0.223873 0.625122 0
M  V30 2625 H 263.655 1.24455 1.62395 0
M  V30 2626 H 263.665 0.72601 4.01489 0
M  V30 2627 H 262.34 1.84227 3.72872 0
M  V30 2628 H 260.917 0.0108006 3.72898 0
M  V30 2629 N 263.102 -1.41638 0.69111 0
M  V30 2630 C 264.35 -2.00902 0.219758 0
M  V30 2631 C 264.671 -1.54994 -1.18329 0
M  V30 2632 O 263.941 -0.778628 -1.79762 0
M  V30 2633 H 262.521 -0.74289 0.0782558 0
M  V30 2634 H 265.183 -1.73327 0.891271 0
M  V30 2635 H 264.279 -3.11224 0.233708 0
M  V30 2636 N 264.58 -0.43555 -1.51462 0
M  V30 2637 C 265.828 0.131254 -2.01673 0
M  V30 2638 C 266.149 1.43368 -1.32177 0
M  V30 2639 O 265.419 1.90524 -0.455769 0
M  V30 2640 H 263.999 0.0514954 -0.745223 0
M  V30 2641 H 266.661 -0.577847 -1.86137 0
M  V30 2642 H 265.757 0.308446 -3.10572 0
M  V30 2643 N 266.058 1.56714 -0.166846 0
M  V30 2644 C 267.006 2.19056 0.782123 0
M  V30 2645 C 268 1.15328 1.24079 0
M  V30 2646 O 269.206 1.33537 1.20697 0
M  V30 2647 H 265.581 0.70167 0.270486 0
M  V30 2648 H 267.552 2.97494 0.232322 0
M  V30 2649 C 266.301 2.84206 2.00306 0
M  V30 2650 H 265.624 3.63748 1.65914 0
M  V30 2651 H 267.064 3.31302 2.64604 0
M  V30 2652 C 265.523 1.83744 2.82382 0
M  V30 2653 O 266.053 1.32014 3.79388 0
M  V30 2654 N 264.259 1.52601 2.47308 0
M  V30 2655 H 263.806 1.9486 1.68485 0
M  V30 2656 H 263.764 0.856351 3.02513 0
M  V30 2657 N 267.536 -0.106894 1.57237 0
M  V30 2658 C 268.761 -0.830287 1.90055 0
M  V30 2659 C 269.186 -1.72064 0.75998 0
M  V30 2660 O 268.544 -1.78982 -0.288991 0
M  V30 2661 C 268.592 -1.6295 3.21683 0
M  V30 2662 O 267.696 -2.73748 3.08441 0
M  V30 2663 H 267.037 -0.228855 0.623315 0
M  V30 2664 H 269.567 -0.085658 2.04421 0
M  V30 2665 H 269.577 -2.01621 3.54701 0
M  V30 2666 H 268.252 -0.975989 4.04286 0
M  V30 2667 H 266.829 -2.38192 2.86913 0
M  V30 2668 N 269.014 -1.53014 -0.377408 0
M  V30 2669 C 269.947 -1.73382 -1.48371 0
M  V30 2670 C 270.925 -0.581879 -1.51832 0
M  V30 2671 O 272.109 -0.81307 -1.70063 0
M  V30 2672 C 269.236 -1.80192 -2.8679 0
M  V30 2673 C 268.282 -3.02056 -3.01105 0
M  V30 2674 S 269.115 -4.61811 -2.71093 0
M  V30 2675 C 270.271 -4.71453 -4.11683 0
M  V30 2676 H 270.504 -2.66946 -1.30872 0
M  V30 2677 H 268.037 -1.43453 -0.571012 0
M  V30 2678 H 269.995 -1.84802 -3.6655 0
M  V30 2679 H 268.656 -0.877008 -3.01608 0
M  V30 2680 H 267.849 -3.03396 -4.02451 0
M  V30 2681 H 267.451 -2.95498 -2.29253 0
M  V30 2682 H 269.743 -4.50781 -5.0577 0
M  V30 2683 H 270.686 -5.73487 -4.15353 0
M  V30 2684 H 271.094 -4.00189 -3.98132 0
M  V30 2685 N 270.492 0.636531 -1.44174 0
M  V30 2686 C 271.741 1.39213 -1.45954 0
M  V30 2687 C 272.054 1.95374 -0.0939119 0
M  V30 2688 O 273.26 2.71498 0.0107767 0
M  V30 2689 C 271.716 2.52025 -2.56927 0
M  V30 2690 C 271.324 2.024 -3.99673 0
M  V30 2691 C 273.068 3.29269 -2.67922 0
M  V30 2692 C 270.975 3.12521 -5.0208 0
M  V30 2693 H 269.905 0.523132 -0.542999 0
M  V30 2694 H 272.556 0.685349 -1.70221 0
M  V30 2695 H 270.938 3.25253 -2.25891 0
M  V30 2696 H 272.112 1.36073 -4.40251 0
M  V30 2697 H 270.427 1.37987 -3.92872 0
M  V30 2698 H 273.024 4.11352 -3.41605 0
M  V30 2699 H 273.367 3.78397 -1.73555 0
M  V30 2700 H 273.9 2.63129 -2.98342 0
M  V30 2701 H 270.639 2.68343 -5.98057 0
M  V30 2702 H 270.159 3.77507 -4.66099 0
M  V30 2703 H 271.838 3.77385 -5.25538 0
M  V30 2704 N 271.97 1.30982 0.876444 0
M  V30 2705 C 273.195 1.23373 1.66715 0
M  V30 2706 C 273.62 -0.19885 1.87046 0
M  V30 2707 O 272.978 -1.1427 1.40756 0
M  V30 2708 C 273.026 1.97644 3.01611 0
M  V30 2709 O 272.13 1.30935 3.91062 0
M  V30 2710 H 271.471 0.426279 0.509099 0
M  V30 2711 H 274.001 1.72944 1.09323 0
M  V30 2712 H 274.011 2.06992 3.51594 0
M  V30 2713 H 272.686 3.01829 2.86133 0
M  V30 2714 H 271.263 1.29996 3.49507 0
M  V30 2715 N 273.449 -1.08991 1.13837 0
M  V30 2716 C 274.412 -2.13925 0.822715 0
M  V30 2717 C 275.412 -1.599 -0.1699 0
M  V30 2718 O 276.602 -1.74104 0.0577251 0
M  V30 2719 C 273.734 -3.40155 0.225318 0
M  V30 2720 H 274.927 -2.43358 1.75262 0
M  V30 2721 H 272.48 -1.24603 0.943594 0
M  V30 2722 H 273.215 -3.16352 -0.713594 0
M  V30 2723 H 273 -3.80661 0.940193 0
M  V30 2724 H 274.49 -4.17594 0.0214784 0
M  V30 2725 N 274.927 -0.932562 -1.27047 0
M  V30 2726 C 276.175 -0.574422 -1.93765 0
M  V30 2727 C 276.496 0.887993 -1.73608 0
M  V30 2728 O 275.766 1.62999 -1.08665 0
M  V30 2729 H 274.346 -0.209451 -0.717035 0
M  V30 2730 H 277.008 -1.18601 -1.5466 0
M  V30 2731 H 276.104 -0.784841 -3.02071 0
M  V30 2732 N 276.405 1.4127 -0.698611 0
M  V30 2733 C 277.653 2.00782 -0.230409 0
M  V30 2734 C 277.974 1.5562 1.17505 0
M  V30 2735 O 277.244 0.78815 1.79346 0
M  V30 2736 H 275.824 0.742464 -0.0821944 0
M  V30 2737 H 278.486 1.72852 -0.90045 0
M  V30 2738 H 277.582 3.11095 -0.25021 0
M  V30 2739 N 277.883 0.443576 1.51229 0
M  V30 2740 C 278.816 -0.410089 2.24485 0
M  V30 2741 C 279.794 -1.01949 1.26669 0
M  V30 2742 O 280.978 -1.06075 1.55821 0
M  V30 2743 C 278.105 -1.57211 3.00004 0
M  V30 2744 C 277.151 -1.08279 4.12526 0
M  V30 2745 S 277.984 -0.0197476 5.35496 0
M  V30 2746 C 279.14 -1.18629 6.14555 0
M  V30 2747 H 279.373 0.211832 2.96544 0
M  V30 2748 H 276.906 0.228156 1.52705 0
M  V30 2749 H 278.864 -2.23825 3.44111 0
M  V30 2750 H 277.525 -2.16547 2.27522 0
M  V30 2751 H 276.718 -1.95193 4.64667 0
M  V30 2752 H 276.32 -0.494797 3.70713 0
M  V30 2753 H 278.612 -2.10344 6.4402 0
M  V30 2754 H 279.555 -0.70472 7.04584 0
M  V30 2755 H 279.963 -1.42768 5.46148 0
M  V30 2756 N 279.361 -1.56624 0.175154 0
M  V30 2757 C 280.309 -2.19468 -0.770495 0
M  V30 2758 C 281.303 -1.15985 -1.23466 0
M  V30 2759 O 282.509 -1.34176 -1.19987 0
M  V30 2760 H 278.884 -0.703095 -0.266761 0
M  V30 2761 H 280.855 -2.97613 -0.216542 0
M  V30 2762 C 279.604 -2.85264 -1.98796 0
M  V30 2763 H 278.927 -3.64623 -1.63983 0
M  V30 2764 H 280.367 -3.327 -2.62843 0
M  V30 2765 C 278.826 -1.85239 -2.81404 0
M  V30 2766 O 279.356 -1.34024 -3.78682 0
M  V30 2767 N 277.562 -1.53911 -2.46495 0
M  V30 2768 H 277.109 -1.95751 -1.67449 0
M  V30 2769 H 277.067 -0.872382 -3.02054 0
M  V30 2770 N 280.839 0.0985539 -1.57292 0
M  V30 2771 C 281.802 1.10402 -2.00858 0
M  V30 2772 C 282.802 1.33146 -0.901593 0
M  V30 2773 O 283.992 1.29318 -1.16716 0
M  V30 2774 C 281.124 2.45394 -2.36632 0
M  V30 2775 H 282.317 0.729099 -2.90902 0
M  V30 2776 H 279.87 0.343495 -1.52479 0
M  V30 2777 H 280.605 2.87769 -1.49531 0
M  V30 2778 H 280.39 2.30235 -3.17387 0
M  V30 2779 H 281.88 3.17718 -2.71007 0
M  V30 2780 N 282.317 1.53212 0.369288 0
M  V30 2781 C 283.563 1.69466 1.11397 0
M  V30 2782 C 283.896 0.443257 1.89074 0
M  V30 2783 O 283.171 -0.559386 1.86282 0
M  V30 2784 C 283.454 2.9422 2.07621 0
M  V30 2785 C 283.307 4.29508 1.33577 0
M  V30 2786 C 284.626 3.14565 3.07794 0
M  V30 2787 H 281.745 0.616667 0.403597 0
M  V30 2788 H 284.387 1.85845 0.395179 0
M  V30 2789 H 282.537 2.80387 2.68916 0
M  V30 2790 H 284.209 4.55147 0.750955 0
M  V30 2791 H 282.452 4.29088 0.637618 0
M  V30 2792 H 283.123 5.12926 2.03989 0
M  V30 2793 H 285.599 3.2756 2.56601 0
M  V30 2794 H 284.475 4.03297 3.72348 0
M  V30 2795 H 284.736 2.29675 3.77759 0
M  V30 2796 N 283.795 -0.628877 1.44509 0
M  V30 2797 C 285.043 -1.38565 1.4712 0
M  V30 2798 C 285.364 -1.94712 0.105899 0
M  V30 2799 O 284.634 -1.75912 -0.862079 0
M  V30 2800 H 283.214 -0.514333 0.541729 0
M  V30 2801 H 285.876 -0.740018 1.80305 0
M  V30 2802 H 284.972 -2.21583 2.19789 0
M  V30 2803 N 285.273 -1.31445 -0.869486 0
M  V30 2804 C 286.501 -1.24122 -1.65534 0
M  V30 2805 C 286.916 0.193387 -1.87807 0
M  V30 2806 O 286.273 1.12557 -1.43656 0
M  V30 2807 C 286.324 -1.98229 -3.02304 0
M  V30 2808 O 286.045 -3.3609 -2.81026 0
M  V30 2809 C 287.546 -1.97751 -3.96749 0
M  V30 2810 H 284.766 -0.428868 -0.516055 0
M  V30 2811 H 287.31 -1.73328 -1.08525 0
M  V30 2812 H 285.465 -1.52782 -3.56001 0
M  V30 2813 H 285.879 -3.7383 -3.67902 0
M  V30 2814 H 287.353 -2.54114 -4.90031 0
M  V30 2815 H 287.83 -0.960137 -4.28577 0
M  V30 2816 H 288.436 -2.43079 -3.48988 0
M  V30 2817 N 286.751 1.08385 -1.14413 0
M  V30 2818 C 287.698 2.15311 -0.831265 0
M  V30 2819 C 288.668 1.64751 0.211292 0
M  V30 2820 O 289.853 1.90627 0.0811674 0
M  V30 2821 C 286.993 3.43658 -0.315143 0
M  V30 2822 C 286.106 4.08064 -1.41802 0
M  V30 2823 C 285.241 5.24207 -0.859126 0
M  V30 2824 C 284.28 5.80554 -1.93967 0
M  V30 2825 N 283.417 6.88042 -1.39793 0
M  V30 2826 H 288.257 2.41415 -1.74708 0
M  V30 2827 H 285.794 1.18474 -0.871909 0
M  V30 2828 H 287.752 4.172 0.00230884 0
M  V30 2829 H 286.382 3.17839 0.56378 0
M  V30 2830 H 285.434 3.3228 -1.85187 0
M  V30 2831 H 286.746 4.45962 -2.23427 0
M  V30 2832 H 285.9 6.04689 -0.49359 0
M  V30 2833 H 284.639 4.87699 -0.011932 0
M  V30 2834 H 283.644 4.98725 -2.31415 0
M  V30 2835 H 284.869 6.19121 -2.79046 0
M  V30 2836 H 282.815 6.53493 -0.572919 0
M  V30 2837 H 282.732 7.24767 -2.15054 0
M  V30 2838 H 284 7.72255 -1.0603 0
M  V30 2839 N 288.23 0.939286 1.26551 0
M  V30 2840 C 289.162 0.404704 2.25599 0
M  V30 2841 C 290.175 -0.470983 1.55838 0
M  V30 2842 O 291.364 -0.281734 1.76263 0
M  V30 2843 C 288.464 -0.43764 3.36062 0
M  V30 2844 C 287.637 0.421449 4.35365 0
M  V30 2845 C 286.696 -0.36015 5.24966 0
M  V30 2846 O 285.722 0.236167 5.6871 0
M  V30 2847 N 286.924 -1.65715 5.56344 0
M  V30 2848 H 289.689 1.25618 2.72103 0
M  V30 2849 H 287.25 0.807963 1.40298 0
M  V30 2850 H 289.242 -0.967866 3.92956 0
M  V30 2851 H 287.812 -1.18991 2.89067 0
M  V30 2852 H 287.032 1.1329 3.7757 0
M  V30 2853 H 288.32 1.00835 4.98708 0
M  V30 2854 H 287.718 -2.16378 5.22682 0
M  V30 2855 H 286.275 -2.13366 6.15888 0
M  V30 2856 N 289.708 -1.40897 0.706093 0
M  V30 2857 C 290.64 -2.29199 0.00815776 0
M  V30 2858 C 291.653 -1.45336 -0.733582 0
M  V30 2859 O 292.842 -1.68727 -0.582537 0
M  V30 2860 C 289.942 -3.23417 -1.01265 0
M  V30 2861 C 289.115 -4.36089 -0.338387 0
M  V30 2862 C 288.174 -5.10811 -1.26326 0
M  V30 2863 O 287.2 -5.64215 -0.751651 0
M  V30 2864 N 288.402 -5.19269 -2.595 0
M  V30 2865 H 291.167 -2.89738 0.766297 0
M  V30 2866 H 288.728 -1.52164 0.55296 0
M  V30 2867 H 290.72 -3.70276 -1.63334 0
M  V30 2868 H 289.29 -2.64112 -1.67223 0
M  V30 2869 H 288.51 -3.91479 0.462352 0
M  V30 2870 H 289.798 -5.08634 0.130031 0
M  V30 2871 H 289.196 -4.77347 -3.03573 0
M  V30 2872 H 287.753 -5.69667 -3.16737 0
M  V30 2873 N 291.186 -0.45159 -1.50991 0
M  V30 2874 C 292.414 0.108334 -2.06616 0
M  V30 2875 C 292.829 1.35224 -1.31757 0
M  V30 2876 O 292.186 1.78475 -0.381174 0
M  V30 2877 C 292.237 0.41619 -3.59096 0
M  V30 2878 O 291.958 -0.778361 -4.3113 0
M  V30 2879 C 293.459 1.02523 -4.31282 0
M  V30 2880 H 290.679 0.00159995 -0.670998 0
M  V30 2881 H 293.223 -0.634771 -1.94399 0
M  V30 2882 H 291.378 1.10921 -3.71181 0
M  V30 2883 H 291.792 -0.511181 -5.22003 0
M  V30 2884 H 293.266 1.19053 -5.39009 0
M  V30 2885 H 293.743 2.01013 -3.905 0
M  V30 2886 H 294.349 0.371173 -4.23677 0
M  V30 2887 N 292.664 1.56529 -0.183458 0
M  V30 2888 C 293.627 2.17324 0.728223 0
M  V30 2889 C 294.627 1.12453 1.14939 0
M  V30 2890 O 295.817 1.37902 1.06437 0
M  V30 2891 C 292.949 2.76591 1.99274 0
M  V30 2892 H 294.142 2.99241 0.198772 0
M  V30 2893 H 291.695 1.5616 0.0661391 0
M  V30 2894 H 292.43 1.98441 2.56499 0
M  V30 2895 H 292.215 3.5335 1.69959 0
M  V30 2896 H 293.705 3.23311 2.6431 0
M  V30 2897 N 294.142 -0.090211 1.57342 0
M  V30 2898 C 295.092 -1.11557 1.98844 0
M  V30 2899 C 296.076 -1.35503 0.867624 0
M  V30 2900 O 297.268 -1.36113 1.13148 0
M  V30 2901 C 294.397 -2.43446 2.42051 0
M  V30 2902 C 293.483 -2.22853 3.60828 0
M  V30 2903 N 293.874 -1.72141 4.75606 0
M  V30 2904 C 292.172 -2.53401 3.67021 0
M  V30 2905 C 292.873 -1.65932 5.57531 0
M  V30 2906 N 291.849 -2.11323 5.00843 0
M  V30 2907 H 295.651 -0.716499 2.85032 0
M  V30 2908 H 293.165 -0.297567 1.59651 0
M  V30 2909 H 295.162 -3.17644 2.70014 0
M  V30 2910 H 293.822 -2.84087 1.57241 0
M  V30 2911 H 294.833 -1.41268 4.98261 0
M  V30 2912 H 291.51 -2.97532 2.92884 0
M  V30 2913 H 292.9 -1.27733 6.59647 0
M  V30 2914 N 295.62 -1.53406 -0.361157 0
M  V30 2915 C 296.868 -1.69467 -1.10115 0
M  V30 2916 C 297.189 -0.451352 -1.89705 0
M  V30 2917 O 296.459 0.534636 -1.88463 0
M  V30 2918 H 295.039 -0.624749 -0.409508 0
M  V30 2919 H 297.701 -1.90609 -0.406699 0
M  V30 2920 H 296.797 -2.55774 -1.78847 0
M  V30 2921 N 297.098 0.621204 -1.44841 0
M  V30 2922 C 298.344 1.3826 -1.48365 0
M  V30 2923 C 298.677 1.93831 -0.119624 0
M  V30 2924 O 297.952 1.74251 0.864111 0
M  V30 2925 C 298.235 2.54058 -2.55199 0
M  V30 2926 C 298.088 2.03772 -4.00995 0
M  V30 2927 C 299.407 3.56225 -2.58442 0
M  V30 2928 H 296.526 0.501374 -0.540179 0
M  V30 2929 H 299.168 0.7015 -1.76576 0
M  V30 2930 H 297.318 3.12162 -2.31274 0
M  V30 2931 H 298.99 1.50423 -4.36086 0
M  V30 2932 H 297.233 1.34876 -4.12299 0
M  V30 2933 H 297.904 2.87185 -4.71411 0
M  V30 2934 H 300.38 3.07939 -2.79844 0
M  V30 2935 H 299.256 4.34756 -3.3508 0
M  V30 2936 H 299.517 4.10949 -1.63013 0
M  V30 2937 N 298.576 1.31904 0.862503 0
M  V30 2938 C 299.486 1.22161 2.00285 0
M  V30 2939 C 300.502 0.136785 1.73462 0
M  V30 2940 O 301.678 0.355994 1.98229 0
M  V30 2941 C 298.743 0.937093 3.33796 0
M  V30 2942 C 297.804 2.10957 3.73893 0
M  V30 2943 C 297.037 1.83853 5.01033 0
M  V30 2944 O 297.26 0.777274 5.65079 0
M  V30 2945 O 296.194 2.69741 5.38074 0
M  V30 2946 H 300.02 2.18008 2.11439 0
M  V30 2947 H 297.605 1.11716 0.991957 0
M  V30 2948 H 299.487 0.794583 4.13841 0
M  V30 2949 H 298.162 0.00871894 3.23699 0
M  V30 2950 H 297.069 2.30752 2.94456 0
M  V30 2951 H 298.402 3.02046 3.88625 0
M  V30 2952 N 300.054 -1.07777 1.14986 0
M  V30 2953 C 301.331 -1.7699 0.832695 0
M  V30 2954 C 301.711 -2.001 -0.672561 0
M  V30 2955 O 301.059 -1.61598 -1.6155 0
M  V30 2956 C 301.269 -3.08139 1.63863 0
M  V30 2957 C 302.617 -3.8256 1.84208 0
M  V30 2958 O 303.641 -3.17939 1.60603 0
M  V30 2959 O 302.5 -4.98612 2.23714 0
M  V30 2960 H 299.594 -0.768389 0.305791 0
M  V30 2961 H 302.14 -1.14182 1.25541 0
M  V30 2962 H 300.912 -2.86909 2.6608 0
M  V30 2963 H 300.535 -3.78678 1.21197 0
M  V30 2964 N 301.532 -0.945985 -1.26051 0
M  V30 2965 C 302.479 -0.45809 -2.26208 0
M  V30 2966 C 303.449 0.484816 -1.58867 0
M  V30 2967 O 304.634 0.399969 -1.86561 0
M  V30 2968 C 301.774 0.266131 -3.44072 0
M  V30 2969 C 300.887 -0.713005 -4.26075 0
M  V30 2970 C 300.022 0.0329013 -5.3119 0
M  V30 2971 C 299.061 -0.93774 -6.04874 0
M  V30 2972 N 298.198 -0.223274 -7.01745 0
M  V30 2973 H 303.038 -1.3171 -2.67313 0
M  V30 2974 H 300.575 -0.66069 -1.31428 0
M  V30 2975 H 302.533 0.702514 -4.11243 0
M  V30 2976 H 301.163 1.08925 -3.03867 0
M  V30 2977 H 300.215 -1.26789 -3.58648 0
M  V30 2978 H 301.527 -1.45406 -4.77136 0
M  V30 2979 H 300.681 0.528335 -6.04395 0
M  V30 2980 H 299.42 0.806801 -4.8098 0
M  V30 2981 H 298.425 -1.44425 -5.30492 0
M  V30 2982 H 299.65 -1.71172 -6.57173 0
M  V30 2983 H 297.596 0.532046 -6.53839 0
M  V30 2984 H 297.513 -0.90357 -7.50581 0
M  V30 2985 H 298.781 0.250907 -7.79096 0
M  V30 2986 N 303.011 1.40521 -0.713556 0
M  V30 2987 C 304.257 2.01221 -0.252564 0
M  V30 2988 C 304.59 1.56444 1.1506 0
M  V30 2989 O 303.865 0.783597 1.78017 0
M  V30 2990 C 304.148 3.58582 -0.330332 0
M  V30 2991 C 304.001 4.13437 -1.77173 0
M  V30 2992 C 305.32 4.39079 0.299641 0
M  V30 2993 H 302.439 0.731077 -0.0932471 0
M  V30 2994 H 305.081 1.67026 -0.905673 0
M  V30 2995 H 303.231 3.87844 0.225737 0
M  V30 2996 H 304.903 3.9498 -2.38303 0
M  V30 2997 H 303.146 3.67801 -2.3001 0
M  V30 2998 H 303.817 5.22597 -1.77755 0
M  V30 2999 H 306.293 4.15735 -0.174139 0
M  V30 3000 H 305.169 5.4848 0.214771 0
M  V30 3001 H 305.43 4.19915 1.38288 0
M  V30 3002 N 304.489 0.459591 1.5075 0
M  V30 3003 C 305.399 -0.34613 2.32033 0
M  V30 3004 C 306.415 -1.00686 1.41909 0
M  V30 3005 O 307.591 -0.997361 1.7497 0
M  V30 3006 C 304.656 -1.42029 3.16273 0
M  V30 3007 C 303.717 -0.777362 4.22203 0
M  V30 3008 C 302.95 -1.80034 5.02418 0
M  V30 3009 O 303.173 -3.02544 4.83553 0
M  V30 3010 O 302.107 -1.37853 5.85901 0
M  V30 3011 H 305.933 0.318054 3.0203 0
M  V30 3012 H 303.518 0.221663 1.47746 0
M  V30 3013 H 305.4 -2.04275 3.68578 0
M  V30 3014 H 304.075 -2.06815 2.49016 0
M  V30 3015 H 302.982 -0.116256 3.73919 0
M  V30 3016 H 304.315 -0.172634 4.91897 0
M  V30 3017 N 305.967 -1.56429 0.191757 0
M  V30 3018 C 307.213 -1.98541 -0.441943 0
M  V30 3019 C 307.568 -1.07646 -1.59468 0
M  V30 3020 O 306.861 -0.120191 -1.91223 0
M  V30 3021 C 307.055 -3.44449 -0.953384 0
M  V30 3022 C 306.884 -4.49456 0.148262 0
M  V30 3023 C 305.654 -5.01668 0.604781 0
M  V30 3024 C 307.852 -5.05336 0.95602 0
M  V30 3025 N 305.834 -5.90334 1.6846 0
M  V30 3026 C 307.205 -5.9064 1.88531 0
M  V30 3027 C 309.26 -4.87779 0.998811 0
M  V30 3028 C 307.963 -6.60264 2.85383 0
M  V30 3029 C 309.989 -5.58139 1.95537 0
M  V30 3030 C 309.351 -6.43187 2.8721 0
M  V30 3031 H 305.45 -0.771247 -0.129236 0
M  V30 3032 H 308.034 -1.92426 0.296682 0
M  V30 3033 H 306.205 -3.5107 -1.66146 0
M  V30 3034 H 307.937 -3.73533 -1.55741 0
M  V30 3035 H 304.692 -4.73183 0.198736 0
M  V30 3036 H 305.116 -6.39371 2.22561 0
M  V30 3037 H 309.758 -4.21705 0.304048 0
M  V30 3038 H 307.476 -7.25538 3.55837 0
M  V30 3039 H 311.062 -5.46532 1.99484 0
M  V30 3040 H 309.942 -6.96674 3.60022 0
M  V30 3041 N 307.445 0.0818655 -1.57387 0
M  V30 3042 C 308.692 0.782914 -1.86753 0
M  V30 3043 C 309.02 1.78082 -0.782118 0
M  V30 3044 O 308.275 1.94426 0.22295 0
M  V30 3045 C 308.574 1.53513 -3.22752 0
M  V30 3046 C 308.24 0.678134 -4.45771 0
M  V30 3047 C 306.902 0.441929 -4.79166 0
M  V30 3048 C 309.254 0.0832243 -5.21134 0
M  V30 3049 C 306.582 -0.398833 -5.85343 0
M  V30 3050 C 308.934 -0.744935 -6.28199 0
M  V30 3051 C 307.598 -0.991107 -6.60101 0
M  V30 3052 H 306.868 0.286489 -0.683378 0
M  V30 3053 H 309.515 0.0439808 -1.91449 0
M  V30 3054 H 307.82 2.34599 -3.138 0
M  V30 3055 H 309.517 2.08218 -3.42705 0
M  V30 3056 H 306.107 0.872357 -4.19628 0
M  V30 3057 H 310.291 0.252847 -4.95655 0
M  V30 3058 H 305.547 -0.598405 -6.08465 0
M  V30 3059 H 309.721 -1.21271 -6.8576 0
M  V30 3060 H 307.348 -1.64437 -7.42202 0
M  V30 3061 N 308.923 1.53595 0.353017 0
M  V30 3062 C 310.172 1.69603 1.09168 0
M  V30 3063 C 310.485 0.460925 1.90092 0
M  V30 3064 O 311.691 0.501774 2.66823 0
M  V30 3065 C 310.147 2.99872 1.9901 0
M  V30 3066 C 309.755 4.30687 1.23339 0
M  V30 3067 C 311.499 3.25246 2.72792 0
M  V30 3068 C 309.406 5.52036 2.12156 0
M  V30 3069 H 308.336 0.631966 0.411261 0
M  V30 3070 H 310.987 1.80096 0.351802 0
M  V30 3071 H 309.369 2.83212 2.7678 0
M  V30 3072 H 310.543 4.58019 0.505456 0
M  V30 3073 H 308.858 4.11853 0.613663 0
M  V30 3074 H 311.455 4.13095 3.39495 0
M  V30 3075 H 311.798 2.41846 3.38846 0
M  V30 3076 H 312.331 3.42638 2.021 0
M  V30 3077 H 309.07 6.37951 1.50659 0
M  V30 3078 H 308.59 5.28966 2.82764 0
M  V30 3079 H 310.269 5.87313 2.71427 0
M  V30 3080 N 310.401 -0.613514 1.45168 0
M  V30 3081 C 311.311 -1.75296 1.55912 0
M  V30 3082 C 312.327 -1.68244 0.443856 0
M  V30 3083 O 313.503 -1.88706 0.70371 0
M  V30 3084 C 310.568 -3.1174 1.5172 0
M  V30 3085 C 309.629 -3.30291 2.74238 0
M  V30 3086 C 308.862 -4.60226 2.70236 0
M  V30 3087 O 309.085 -5.42168 1.77229 0
M  V30 3088 O 308.019 -4.81361 3.61352 0
M  V30 3089 H 311.845 -1.69183 2.52212 0
M  V30 3090 H 309.43 -0.776886 1.27612 0
M  V30 3091 H 311.312 -3.93044 1.51968 0
M  V30 3092 H 309.987 -3.18357 0.585697 0
M  V30 3093 H 308.894 -2.48598 2.79553 0
M  V30 3094 H 310.227 -3.28547 3.66494 0
M  V30 3095 N 311.879 -1.3236 -0.855495 0
M  V30 3096 C 313.156 -1.13491 -1.59309 0
M  V30 3097 C 313.536 0.30503 -2.08885 0
M  V30 3098 O 312.884 1.30151 -1.87811 0
M  V30 3099 C 313.094 -2.16176 -2.73987 0
M  V30 3100 C 314.442 -2.49463 -3.43589 0
M  V30 3101 O 315.466 -2.14715 -2.84211 0
M  V30 3102 O 314.325 -3.09027 -4.50738 0
M  V30 3103 H 311.419 -0.437887 -0.701559 0
M  V30 3104 H 313.965 -1.43887 -0.899696 0
M  V30 3105 H 312.737 -3.1297 -2.34873 0
M  V30 3106 H 312.36 -1.86769 -3.51003 0
M  V30 3107 N 313.357 1.07166 -1.15556 0
M  V30 3108 C 314.32 2.12589 -0.856644 0
M  V30 3109 C 315.32 1.6015 0.14444 0
M  V30 3110 O 316.51 1.7399 -0.0854163 0
M  V30 3111 C 313.642 3.39753 -0.279405 0
M  V30 3112 H 314.835 2.40539 -1.79112 0
M  V30 3113 H 312.388 1.23086 -0.963298 0
M  V30 3114 H 313.123 3.17447 0.663174 0
M  V30 3115 H 312.908 3.79117 -1.00063 0
M  V30 3116 H 314.398 4.17507 -0.0879113 0
M  V30 3117 N 314.835 0.952656 1.25548 0
M  V30 3118 C 315.768 0.415525 2.24385 0
M  V30 3119 C 316.746 -0.502046 1.54655 0
M  V30 3120 O 317.93 -0.436875 1.83368 0
M  V30 3121 C 315.057 -0.401734 3.36309 0
M  V30 3122 C 314.103 0.455949 4.24056 0
M  V30 3123 S 314.936 1.88698 5.01152 0
M  V30 3124 C 316.092 1.07809 6.16545 0
M  V30 3125 H 316.325 1.25315 2.69599 0
M  V30 3126 H 313.858 0.756587 1.34592 0
M  V30 3127 H 315.816 -0.867329 4.01233 0
M  V30 3128 H 314.477 -1.21416 2.89684 0
M  V30 3129 H 313.67 -0.170776 5.03711 0
M  V30 3130 H 313.272 0.856675 3.64056 0
M  V30 3131 H 315.564 0.325816 6.76716 0
M  V30 3132 H 316.507 1.84849 6.83547 0
M  V30 3133 H 316.915 0.60909 5.61204 0
M  V30 3134 N 316.313 -1.40141 0.720998 0
M  V30 3135 C 317.26 -2.30688 0.071919 0
M  V30 3136 C 318.23 -1.48476 -0.744584 0
M  V30 3137 O 319.415 -1.77201 -0.707423 0
M  V30 3138 C 316.555 -3.34724 -0.839855 0
M  V30 3139 C 315.668 -4.31998 -0.0122438 0
M  V30 3140 C 314.803 -5.23102 -0.923995 0
M  V30 3141 C 313.842 -6.12033 -0.0907969 0
M  V30 3142 N 312.979 -6.95537 -0.957718 0
M  V30 3143 H 317.819 -2.85628 0.849755 0
M  V30 3144 H 315.356 -1.40653 0.430726 0
M  V30 3145 H 317.314 -3.93618 -1.38279 0
M  V30 3146 H 315.944 -2.81274 -1.58381 0
M  V30 3147 H 314.996 -3.74841 0.64794 0
M  V30 3148 H 316.308 -4.94772 0.632595 0
M  V30 3149 H 315.462 -5.86953 -1.53527 0
M  V30 3150 H 314.201 -4.60615 -1.60264 0
M  V30 3151 H 313.206 -5.47207 0.533377 0
M  V30 3152 H 314.431 -6.76581 0.584428 0
M  V30 3153 H 312.377 -6.35633 -1.62192 0
M  V30 3154 H 312.294 -7.55099 -0.36904 0
M  V30 3155 H 313.562 -7.63832 -1.555 0
M  V30 3156 N 317.792 -0.46758 -1.50504 0
M  V30 3157 C 319.04 0.0884469 -2.01906 0
M  V30 3158 C 319.361 1.40532 -1.35188 0
M  V30 3159 O 318.631 1.89515 -0.496079 0
M  V30 3160 H 317.211 0.0356765 -0.746148 0
M  V30 3161 H 319.873 -0.6172 -1.84869 0
M  V30 3162 H 318.969 0.2425 -3.11156 0
M  V30 3163 N 319.27 1.56325 -0.20005 0
M  V30 3164 C 320.518 1.97329 0.436547 0
M  V30 3165 C 320.839 1.08826 1.61808 0
M  V30 3166 O 320.109 0.160604 1.95241 0
M  V30 3167 H 318.689 0.728714 0.164272 0
M  V30 3168 H 321.351 1.92761 -0.287937 0
M  V30 3169 H 320.447 3.02264 0.777353 0
M  V30 3170 N 320.748 -0.0735177 1.57428 0
M  V30 3171 C 322.164 -0.428264 1.53747 0
M  V30 3172 C 322.364 -1.79272 0.91998 0
M  V30 3173 O 321.42 -2.47051 0.521745 0
M  V30 3174 C 322.733 -0.370914 2.98404 0
M  V30 3175 C 324.281 -0.451224 3.0973 0
M  V30 3176 C 324.756 -0.4238 4.56035 0
M  V30 3177 N 326.247 -0.483925 4.60665 0
M  V30 3178 C 326.982 -0.484891 5.71346 0
M  V30 3179 N 326.478 -0.440775 6.91396 0
M  V30 3180 N 328.271 -0.531319 5.59583 0
M  V30 3181 H 320.422 0.819949 1.95935 0
M  V30 3182 H 322.685 0.307493 0.896745 0
M  V30 3183 H 322.391 0.564956 3.47133 0
M  V30 3184 H 322.265 -1.18176 3.5821 0
M  V30 3185 H 324.652 -1.37752 2.60976 0
M  V30 3186 H 324.733 0.388167 2.52838 0
M  V30 3187 H 324.377 0.498638 5.05446 0
M  V30 3188 H 324.307 -1.2807 5.10789 0
M  V30 3189 H 326.798 -0.522338 3.74273 0
M  V30 3190 H 327.111 -0.44539 7.71515 0
M  V30 3191 H 325.456 -0.40749 6.93804 0
M  V30 3192 H 328.647 -0.563464 4.64696 0
M  V30 3193 H 328.82 -0.528603 6.4584 0
M  V30 3194 N 322.226 -1.5378 -0.344866 0
M  V30 3195 C 323.158 -1.77988 -1.44406 0
M  V30 3196 C 324.171 -0.661138 -1.48771 0
M  V30 3197 O 325.36 -0.937842 -1.51877 0
M  V30 3198 C 322.46 -1.86345 -2.8307 0
M  V30 3199 C 321.633 -3.16256 -3.0216 0
M  V30 3200 C 320.692 -3.15588 -4.21059 0
M  V30 3201 O 319.718 -3.89314 -4.15239 0
M  V30 3202 N 320.92 -2.37864 -5.29529 0
M  V30 3203 H 323.685 -2.72839 -1.24012 0
M  V30 3204 H 321.246 -1.52814 -0.534737 0
M  V30 3205 H 323.238 -1.83351 -3.60783 0
M  V30 3206 H 321.808 -0.986858 -2.96614 0
M  V30 3207 H 321.028 -3.32385 -2.11929 0
M  V30 3208 H 322.316 -4.0207 -3.11797 0
M  V30 3209 H 321.714 -1.77514 -5.37127 0
M  V30 3210 H 320.271 -2.40668 -6.05741 0
M  V30 3211 N 323.704 0.605807 -1.45491 0
M  V30 3212 C 324.636 1.73031 -1.5031 0
M  V30 3213 C 325.649 1.57968 -0.393687 0
M  V30 3214 O 326.838 1.65817 -0.660839 0
M  V30 3215 C 323.938 3.11049 -1.34543 0
M  V30 3216 C 323.111 3.52334 -2.59189 0
M  V30 3217 C 322.17 4.69323 -2.37954 0
M  V30 3218 O 321.196 4.7635 -3.11575 0
M  V30 3219 N 322.398 5.62705 -1.4263 0
M  V30 3220 H 325.163 1.6936 -2.4726 0
M  V30 3221 H 322.724 0.79114 -1.41254 0
M  V30 3222 H 324.716 3.87071 -1.18144 0
M  V30 3223 H 323.286 3.09217 -0.458623 0
M  V30 3224 H 322.506 2.66256 -2.90691 0
M  V30 3225 H 323.794 3.76677 -3.42041 0
M  V30 3226 H 323.192 5.59744 -0.818758 0
M  V30 3227 H 321.749 6.38252 -1.32202 0
M  V30 3228 N 325.182 1.32811 0.848464 0
M  V30 3229 C 326.13 1.22231 1.97895 0
M  V30 3230 C 327.124 0.125749 1.68933 0
M  V30 3231 O 328.33 0.289083 1.77663 0
M  V30 3232 H 324.705 0.379058 0.649476 0
M  V30 3233 H 326.676 2.17828 2.03945 0
M  V30 3234 C 325.425 0.968572 3.33937 0
M  V30 3235 H 324.748 1.80458 3.56756 0
M  V30 3236 H 326.188 0.934808 4.13567 0
M  V30 3237 C 324.647 -0.328628 3.35293 0
M  V30 3238 O 325.177 -1.33848 3.78745 0
M  V30 3239 N 323.383 -0.352788 2.88451 0
M  V30 3240 H 322.93 0.469541 2.53285 0
M  V30 3241 H 322.888 -1.22057 2.89741 0
M  V30 3242 N 326.66 -1.06551 1.16123 0
M  V30 3243 C 327.937 -1.76097 0.85142 0
M  V30 3244 C 328.317 -2.00802 -0.6513 0
M  V30 3245 O 327.665 -1.63302 -1.59827 0
M  V30 3246 C 327.875 -3.06384 1.67122 0
M  V30 3247 C 329.223 -3.80585 1.88255 0
M  V30 3248 O 330.247 -3.16218 1.63966 0
M  V30 3249 O 329.106 -4.96212 2.2899 0
M  V30 3250 H 326.2 -0.765102 0.313923 0
M  V30 3251 H 328.746 -1.12844 1.26745 0
M  V30 3252 H 327.518 -2.84071 2.69108 0
M  V30 3253 H 327.141 -3.77371 1.25206 0
M  V30 3254 N 328.138 -0.959301 -1.25041 0
M  V30 3255 C 329.387 -0.612254 -1.92183 0
M  V30 3256 C 329.7 0.855347 -1.75907 0
M  V30 3257 O 330.906 1.31256 -2.37664 0
M  V30 3258 C 329.362 -1.04435 -3.44414 0
M  V30 3259 C 328.97 -2.53482 -3.69393 0
M  V30 3260 C 330.714 -0.770055 -4.17457 0
M  V30 3261 C 328.621 -2.90468 -5.15153 0
M  V30 3262 H 327.551 -0.225279 -0.719559 0
M  V30 3263 H 330.202 -1.16438 -1.41825 0
M  V30 3264 H 328.584 -0.4206 -3.9376 0
M  V30 3265 H 329.758 -3.20916 -3.30681 0
M  V30 3266 H 328.073 -2.78432 -3.0962 0
M  V30 3267 H 330.67 -1.02249 -5.24832 0
M  V30 3268 H 331.013 0.293611 -4.15263 0
M  V30 3269 H 331.546 -1.35437 -3.74034 0
M  V30 3270 H 328.285 -3.95871 -5.22462 0
M  V30 3271 H 327.805 -2.27711 -5.54894 0
M  V30 3272 H 329.484 -2.79914 -5.83315 0
M  V30 3273 N 329.616 1.39756 -0.72842 0
M  V30 3274 C 330.563 2.30647 -0.0841519 0
M  V30 3275 C 331.533 1.48869 0.7367 0
M  V30 3276 O 332.718 1.77574 0.698015 0
M  V30 3277 C 329.858 3.35165 0.822091 0
M  V30 3278 C 328.971 4.31999 -0.0106663 0
M  V30 3279 C 328.106 5.23585 0.896241 0
M  V30 3280 C 327.145 6.12072 0.0583381 0
M  V30 3281 N 326.282 6.96035 0.920818 0
M  V30 3282 H 331.122 2.85173 -0.864891 0
M  V30 3283 H 328.659 1.40422 -0.438179 0
M  V30 3284 H 330.617 3.94345 1.36189 0
M  V30 3285 H 329.247 2.8211 1.56888 0
M  V30 3286 H 328.299 3.74492 -0.66781 0
M  V30 3287 H 329.611 4.9443 -0.658825 0
M  V30 3288 H 328.765 5.87759 1.50412 0
M  V30 3289 H 327.504 4.61459 1.57819 0
M  V30 3290 H 326.509 5.46916 -0.562389 0
M  V30 3291 H 327.734 6.76261 -0.6203 0
M  V30 3292 H 325.68 6.36485 1.58818 0
M  V30 3293 H 325.597 7.55284 0.32899 0
M  V30 3294 H 326.865 7.64646 1.51447 0
M  V30 3295 N 331.094 0.475555 1.50254 0
M  V30 3296 C 332.024 -0.30611 2.31485 0
M  V30 3297 C 333.005 -0.986228 1.38591 0
M  V30 3298 O 334.19 -0.982541 1.67511 0
M  V30 3299 C 331.32 -1.38588 3.1845 0
M  V30 3300 C 330.274 -0.827115 4.19932 0
M  V30 3301 C 329.6 -2.00551 4.95665 0
M  V30 3302 C 330.9 0.16463 5.2204 0
M  V30 3303 H 332.594 0.371866 2.97082 0
M  V30 3304 H 330.14 0.180282 1.42867 0
M  V30 3305 H 332.093 -1.94023 3.74076 0
M  V30 3306 H 330.817 -2.09269 2.50747 0
M  V30 3307 H 329.476 -0.294702 3.65414 0
M  V30 3308 H 329.124 -2.6994 4.2443 0
M  V30 3309 H 328.824 -1.63784 5.64313 0
M  V30 3310 H 330.348 -2.56468 5.54127 0
M  V30 3311 H 331.762 -0.300699 5.72511 0
M  V30 3312 H 330.159 0.446813 5.98434 0
M  V30 3313 H 331.229 1.08905 4.72512 0
M  V30 3314 N 332.573 -1.56217 0.208337 0
M  V30 3315 C 333.819 -1.98242 -0.427552 0
M  V30 3316 C 334.152 -1.09554 -1.60348 0
M  V30 3317 O 333.427 -0.15035 -1.93918 0
M  V30 3318 C 333.71 -3.4931 -0.874907 0
M  V30 3319 C 333.563 -4.48773 0.303751 0
M  V30 3320 C 334.882 -4.04424 -1.73577 0
M  V30 3321 H 332.001 -0.720744 -0.153936 0
M  V30 3322 H 334.643 -1.87586 0.30192 0
M  V30 3323 H 332.793 -3.58522 -1.49648 0
M  V30 3324 H 334.465 -4.51586 0.941682 0
M  V30 3325 H 332.708 -4.23194 0.953375 0
M  V30 3326 H 333.379 -5.51976 -0.0519883 0
M  V30 3327 H 335.855 -3.98075 -1.21143 0
M  V30 3328 H 334.731 -5.1047 -2.01771 0
M  V30 3329 H 334.992 -3.50494 -2.69456 0
M  V30 3330 N 334.051 0.0651679 -1.57465 0
M  V30 3331 C 335.279 0.775808 -1.91804 0
M  V30 3332 C 335.694 1.70782 -0.804916 0
M  V30 3333 O 335.051 1.81153 0.221311 0
M  V30 3334 C 335.102 1.56381 -3.25925 0
M  V30 3335 O 334.823 0.669248 -4.32958 0
M  V30 3336 C 336.324 2.37485 -3.7432 0
M  V30 3337 H 333.544 0.2202 -0.63384 0
M  V30 3338 H 336.088 0.0334587 -2.04473 0
M  V30 3339 H 334.243 2.25837 -3.14764 0
M  V30 3340 H 334.657 1.21801 -5.10162 0
M  V30 3341 H 336.131 2.88223 -4.70778 0
M  V30 3342 H 336.608 3.17307 -3.03666 0
M  V30 3343 H 337.214 1.73173 -3.88447 0
M  V30 3344 N 335.529 1.53961 0.336706 0
M  V30 3345 C 336.778 1.70751 1.07363 0
M  V30 3346 C 337.091 0.481061 1.89592 0
M  V30 3347 O 338.297 0.530046 2.66276 0
M  V30 3348 C 336.753 3.01965 1.95818 0
M  V30 3349 C 336.361 4.31971 1.18764 0
M  V30 3350 C 338.105 3.28121 2.69327 0
M  V30 3351 C 336.012 5.54255 2.06289 0
M  V30 3352 H 334.942 0.636292 0.404535 0
M  V30 3353 H 337.593 1.80459 0.332681 0
M  V30 3354 H 335.975 2.86132 2.7376 0
M  V30 3355 H 337.149 4.5853 0.456849 0
M  V30 3356 H 335.464 4.12481 0.569946 0
M  V30 3357 H 338.061 4.16673 3.35094 0
M  V30 3358 H 338.404 2.45426 3.36261 0
M  V30 3359 H 338.937 3.44762 1.98454 0
M  V30 3360 H 335.676 6.39513 1.43885 0
M  V30 3361 H 335.196 5.31935 2.77138 0
M  V30 3362 H 336.875 5.90159 2.65182 0
M  V30 3363 N 337.007 -0.598083 1.45811 0
M  V30 3364 C 337.937 -1.71873 1.58057 0
M  V30 3365 C 338.918 -1.64533 0.431615 0
M  V30 3366 O 340.103 -1.82787 0.65595 0
M  V30 3367 C 337.233 -3.10495 1.55597 0
M  V30 3368 C 336.187 -3.32654 2.69305 0
M  V30 3369 C 335.513 -4.71646 2.51902 0
M  V30 3370 C 336.813 -3.21981 4.11248 0
M  V30 3371 H 338.507 -1.61881 2.51863 0
M  V30 3372 H 336.053 -0.777372 1.21214 0
M  V30 3373 H 338.006 -3.88699 1.6276 0
M  V30 3374 H 336.73 -3.2135 0.583255 0
M  V30 3375 H 335.389 -2.56843 2.61586 0
M  V30 3376 H 335.037 -4.79246 1.52748 0
M  V30 3377 H 334.737 -4.87426 3.2816 0
M  V30 3378 H 336.261 -5.52038 2.60933 0
M  V30 3379 H 337.675 -3.90049 4.20161 0
M  V30 3380 H 336.072 -3.49289 4.87972 0
M  V30 3381 H 337.142 -2.1928 4.32486 0
M  V30 3382 N 338.485 -1.33259 -0.841409 0
M  V30 3383 C 339.448 -1.23221 -1.9326 0
M  V30 3384 C 340.448 -0.151895 -1.60081 0
M  V30 3385 O 341.638 -0.403246 -1.69468 0
M  V30 3386 C 338.77 -0.898123 -3.28856 0
M  V30 3387 H 339.963 -2.2021 -2.03587 0
M  V30 3388 H 337.516 -1.17281 -1.03319 0
M  V30 3389 H 338.251 0.0693841 -3.24226 0
M  V30 3390 H 338.036 -1.67934 -3.54317 0
M  V30 3391 H 339.526 -0.852563 -4.08805 0
M  V30 3392 N 339.963 1.05934 -1.16686 0
M  V30 3393 C 340.873 2.17014 -0.891183 0
M  V30 3394 C 341.889 1.73453 0.137907 0
M  V30 3395 O 343.065 2.01361 -0.039592 0
M  V30 3396 C 340.13 3.44384 -0.400099 0
M  V30 3397 C 339.191 4.02433 -1.49486 0
M  V30 3398 C 338.424 5.23723 -1.02711 0
M  V30 3399 O 338.647 5.7027 0.121716 0
M  V30 3400 O 337.581 5.7382 -1.81699 0
M  V30 3401 H 341.407 2.43113 -1.82015 0
M  V30 3402 H 338.992 1.15541 -0.947132 0
M  V30 3403 H 340.874 4.21189 -0.133392 0
M  V30 3404 H 339.549 3.19802 0.500817 0
M  V30 3405 H 338.456 3.27102 -1.81535 0
M  V30 3406 H 339.789 4.31317 -2.37121 0
M  V30 3407 N 341.441 0.965919 1.2453 0
M  V30 3408 C 342.373 0.452465 2.2469 0
M  V30 3409 C 343.386 -0.437821 1.56802 0
M  V30 3410 O 344.575 -0.244283 1.76821 0
M  V30 3411 C 341.675 -0.366258 3.36915 0
M  V30 3412 C 340.848 0.513701 4.34373 0
M  V30 3413 C 339.907 -0.248716 5.25612 0
M  V30 3414 O 338.933 0.356745 5.68081 0
M  V30 3415 N 340.135 -1.53877 5.59734 0
M  V30 3416 H 342.9 1.31361 2.69378 0
M  V30 3417 H 340.461 0.837541 1.38553 0
M  V30 3418 H 342.453 -0.884297 3.94921 0
M  V30 3419 H 341.023 -1.12832 2.91526 0
M  V30 3420 H 340.243 1.21273 3.75082 0
M  V30 3421 H 341.531 1.11391 4.96457 0
M  V30 3422 H 340.929 -2.05243 5.27154 0
M  V30 3423 H 339.486 -2.00254 6.20275 0
M  V30 3424 N 342.919 -1.39368 0.735821 0
M  V30 3425 C 344.144 -2.05319 0.293052 0
M  V30 3426 C 344.569 -1.55115 -1.064 0
M  V30 3427 O 343.927 -0.695261 -1.67439 0
M  V30 3428 C 343.975 -3.59305 0.305323 0
M  V30 3429 O 343.079 -4.06299 -0.706761 0
M  V30 3430 H 342.42 -0.650529 0.13307 0
M  V30 3431 H 344.95 -1.78386 1.00197 0
M  V30 3432 H 344.96 -4.07724 0.149997 0
M  V30 3433 H 343.635 -3.95207 1.29553 0
M  V30 3434 H 342.212 -3.69292 -0.517504 0
M  V30 3435 N 344.397 -0.483516 -1.5 0
M  V30 3436 C 345.36 0.292965 -2.2732 0
M  V30 3437 C 346.36 0.909499 -1.32608 0
M  V30 3438 O 347.55 0.776745 -1.55924 0
M  V30 3439 C 344.682 1.41854 -3.09984 0
M  V30 3440 H 345.875 -0.385289 -2.97415 0
M  V30 3441 H 343.428 -0.237942 -1.54478 0
M  V30 3442 H 344.163 2.13148 -2.44414 0
M  V30 3443 H 343.948 0.982114 -3.79601 0
M  V30 3444 H 345.438 1.96597 -3.68429 0
M  V30 3445 N 345.875 1.56104 -0.216619 0
M  V30 3446 C 347.152 1.89988 0.465165 0
M  V30 3447 C 347.532 1.13326 1.78102 0
M  V30 3448 O 346.88 0.241033 2.27225 0
M  V30 3449 C 347.09 3.42646 0.662939 0
M  V30 3450 C 348.438 4.13311 0.972602 0
M  V30 3451 O 349.462 3.48217 0.749901 0
M  V30 3452 O 348.321 5.28396 1.39499 0
M  V30 3453 H 345.415 0.78979 0.245276 0
M  V30 3454 H 347.961 1.67721 -0.258436 0
M  V30 3455 H 346.733 3.90399 -0.26543 0
M  V30 3456 H 346.356 3.70677 1.43821 0
M  V30 3457 N 347.353 -0.0568162 1.57498 0
M  V30 3458 C 348.601 -0.751617 1.87604 0
M  V30 3459 C 348.922 -1.77351 0.81066 0
M  V30 3460 O 348.192 -1.95254 -0.159018 0
M  V30 3461 H 346.772 -0.280583 0.692302 0
M  V30 3462 H 349.434 -0.0293483 1.94878 0
M  V30 3463 H 348.53 -1.25852 2.856 0
M  V30 3464 N 348.832 -1.54138 -0.328536 0
M  V30 3465 C 350.078 -1.7236 -1.06865 0
M  V30 3466 C 350.411 -0.493231 -1.87832 0
M  V30 3467 O 349.686 0.5098 -1.877 0
M  V30 3468 C 349.969 -2.99621 -1.99747 0
M  V30 3469 C 349.822 -4.32899 -1.22143 0
M  V30 3470 C 351.141 -3.22615 -2.99345 0
M  V30 3471 H 348.26 -0.627151 -0.387105 0
M  V30 3472 H 350.902 -1.86827 -0.345767 0
M  V30 3473 H 349.052 -2.87418 -2.61387 0
M  V30 3474 H 350.724 -4.56978 -0.630017 0
M  V30 3475 H 348.967 -4.30628 -0.523628 0
M  V30 3476 H 349.638 -5.18154 -1.90318 0
M  V30 3477 H 352.114 -3.34248 -2.47826 0
M  V30 3478 H 350.99 -4.13027 -3.61524 0
M  V30 3479 H 351.251 -2.3961 -3.71536 0
M  V30 3480 N 350.31 0.590341 -1.46126 0
M  V30 3481 C 351.242 1.71427 -1.52136 0
M  V30 3482 C 352.255 1.57542 -0.41042 0
M  V30 3483 O 353.444 1.65106 -0.678389 0
M  V30 3484 C 350.544 3.09605 -1.37834 0
M  V30 3485 C 349.717 3.49566 -2.62912 0
M  V30 3486 C 348.776 4.66773 -2.42918 0
M  V30 3487 O 347.802 4.73019 -3.1661 0
M  V30 3488 N 349.004 5.61161 -1.4859 0
M  V30 3489 H 351.769 1.66728 -2.49042 0
M  V30 3490 H 349.33 0.776113 -1.42085 0
M  V30 3491 H 351.322 3.85796 -1.22243 0
M  V30 3492 H 349.892 3.08714 -0.491393 0
M  V30 3493 H 349.112 2.63158 -2.93499 0
M  V30 3494 H 350.4 3.73028 -3.46017 0
M  V30 3495 H 349.798 5.58844 -0.87808 0
M  V30 3496 H 348.355 6.36814 -1.38965 0
M  V30 3497 N 351.788 1.33704 0.83433 0
M  V30 3498 C 353.034 1.26612 1.59188 0
M  V30 3499 C 353.389 -0.165439 1.91687 0
M  V30 3500 O 352.682 -1.10873 1.56262 0
M  V30 3501 C 352.876 2.07926 2.90692 0
M  V30 3502 C 352.705 3.58844 2.71038 0
M  V30 3503 C 351.475 4.28148 2.68361 0
M  V30 3504 C 353.673 4.53082 2.43353 0
M  V30 3505 N 351.655 5.64987 2.40132 0
M  V30 3506 C 353.026 5.77843 2.24716 0
M  V30 3507 C 355.081 4.42119 2.28987 0
M  V30 3508 C 353.784 6.92877 1.9317 0
M  V30 3509 C 355.81 5.56973 1.98835 0
M  V30 3510 C 355.172 6.80745 1.81012 0
M  V30 3511 H 351.271 0.518517 0.585375 0
M  V30 3512 H 353.855 1.68294 0.979044 0
M  V30 3513 H 352.026 1.68558 3.49918 0
M  V30 3514 H 353.758 1.92568 3.55949 0
M  V30 3515 H 350.513 3.80469 2.82029 0
M  V30 3516 H 350.937 6.37133 2.28889 0
M  V30 3517 H 355.579 3.47058 2.41477 0
M  V30 3518 H 353.297 7.87931 1.79418 0
M  V30 3519 H 356.883 5.50428 1.88468 0
M  V30 3520 H 355.763 7.68115 1.58017 0
M  V30 3521 N 353.266 -1.05314 1.17247 0
M  V30 3522 C 354.196 -2.1498 0.911362 0
M  V30 3523 C 355.177 -1.69471 -0.146169 0
M  V30 3524 O 356.362 -1.942 0.003812 0
M  V30 3525 C 353.492 -3.4472 0.422528 0
M  V30 3526 C 352.446 -4.03789 1.4191 0
M  V30 3527 C 351.772 -5.28858 0.788274 0
M  V30 3528 C 353.072 -4.41418 2.7919 0
M  V30 3529 H 354.766 -2.3708 1.82848 0
M  V30 3530 H 352.312 -1.13938 0.880569 0
M  V30 3531 H 354.265 -4.20787 0.227289 0
M  V30 3532 H 352.989 -3.22269 -0.530123 0
M  V30 3533 H 351.648 -3.2979 1.60106 0
M  V30 3534 H 351.296 -5.02709 -0.171173 0
M  V30 3535 H 350.996 -5.69338 1.45353 0
M  V30 3536 H 352.52 -6.07612 0.603282 0
M  V30 3537 H 353.934 -5.08524 2.64719 0
M  V30 3538 H 352.331 -4.92913 3.42282 0
M  V30 3539 H 353.401 -3.51819 3.33693 0
M  V30 3540 N 354.744 -0.972509 -1.24016 0
M  V30 3541 C 355.654 -0.5143 -2.28893 0
M  V30 3542 C 356.67 0.427078 -1.68677 0
M  V30 3543 O 357.846 0.298939 -1.99169 0
M  V30 3544 C 354.911 0.183598 -3.46214 0
M  V30 3545 C 353.972 -0.798202 -4.21814 0
M  V30 3546 C 353.205 -0.133514 -5.33533 0
M  V30 3547 O 353.428 1.07714 -5.60137 0
M  V30 3548 O 352.362 -0.828103 -5.96176 0
M  V30 3549 H 356.188 -1.38629 -2.70214 0
M  V30 3550 H 353.773 -0.739769 -1.29799 0
M  V30 3551 H 355.655 0.575433 -4.17453 0
M  V30 3552 H 354.33 1.03048 -3.0686 0
M  V30 3553 H 353.237 -1.24059 -3.52931 0
M  V30 3554 H 354.57 -1.61364 -4.64997 0
M  V30 3555 N 356.222 1.38976 -0.743202 0
M  V30 3556 C 357.447 2.05161 -0.303936 0
M  V30 3557 C 357.872 1.55677 1.05576 0
M  V30 3558 O 357.23 0.704131 1.67068 0
M  V30 3559 C 357.278 3.59138 -0.324373 0
M  V30 3560 O 356.382 4.06668 0.685204 0
M  V30 3561 H 355.723 0.649815 -0.136518 0
M  V30 3562 H 358.253 1.77852 -1.01142 0
M  V30 3563 H 358.263 4.07639 -0.171618 0
M  V30 3564 H 356.938 3.94515 -1.31647 0
M  V30 3565 H 355.515 3.69561 0.497913 0
M  V30 3566 N 357.7 0.491464 1.49741 0
M  V30 3567 C 358.63 -0.28154 2.31796 0
M  V30 3568 C 359.611 -0.971473 1.3963 0
M  V30 3569 O 360.796 -0.964719 1.68543 0
M  V30 3570 C 357.926 -1.35203 3.19902 0
M  V30 3571 C 356.88 -0.782529 4.20786 0
M  V30 3572 C 356.206 -1.95283 4.97764 0
M  V30 3573 C 357.506 0.21999 5.21837 0
M  V30 3574 H 359.2 0.403355 2.96671 0
M  V30 3575 H 356.746 0.195425 1.42668 0
M  V30 3576 H 358.699 -1.90045 3.76113 0
M  V30 3577 H 357.423 -2.06598 2.52953 0
M  V30 3578 H 356.082 -0.255928 3.65706 0
M  V30 3579 H 355.73 -2.65423 4.2727 0
M  V30 3580 H 355.43 -1.57789 5.66018 0
M  V30 3581 H 356.954 -2.50577 5.56816 0
M  V30 3582 H 358.368 -0.23996 5.72798 0
M  V30 3583 H 356.765 0.51026 5.97927 0
M  V30 3584 H 357.835 1.13911 4.7133 0
M  V30 3585 N 359.178 -1.55987 0.224894 0
M  V30 3586 C 360.426 -1.97998 -0.405099 0
M  V30 3587 C 360.747 -1.11387 -1.60056 0
M  V30 3588 O 360.017 -0.191645 -1.9496 0
M  V30 3589 H 358.597 -0.731235 -0.152658 0
M  V30 3590 H 361.259 -1.92279 0.318567 0
M  V30 3591 H 360.355 -3.03463 -0.729167 0
M  V30 3592 N 360.656 0.0484629 -1.57525 0
M  V30 3593 C 361.619 1.03956 -2.04269 0
M  V30 3594 C 362.619 1.30211 -0.943496 0
M  V30 3595 O 363.809 1.25539 -1.20771 0
M  V30 3596 C 360.941 2.37742 -2.44319 0
M  V30 3597 H 362.134 0.636182 -2.93075 0
M  V30 3598 H 359.687 0.294811 -1.53494 0
M  V30 3599 H 360.422 2.82866 -1.5861 0
M  V30 3600 H 360.207 2.20021 -3.24551 0
M  V30 3601 H 361.697 3.08936 -2.80978 0
M  V30 3602 N 362.134 1.5431 0.320358 0
M  V30 3603 C 363.082 1.84647 1.4145 0
M  V30 3604 C 364.076 0.718624 1.53402 0
M  V30 3605 O 365.282 0.902335 1.5575 0
M  V30 3606 H 361.657 0.585349 0.472091 0
M  V30 3607 H 363.628 2.7614 1.13089 0
M  V30 3608 C 362.377 2.09341 2.77617 0
M  V30 3609 H 361.7 2.9559 2.69196 0
M  V30 3610 H 363.14 2.3452 3.53237 0
M  V30 3611 C 361.599 0.885939 3.25043 0
M  V30 3612 O 362.129 0.0967891 4.01583 0
M  V30 3613 N 360.335 0.696682 2.82125 0
M  V30 3614 H 359.882 1.34006 2.2 0
M  V30 3615 H 359.84 -0.109712 3.14209 0
M  V30 3616 N 363.613 -0.582584 1.46437 0
M  V30 3617 C 364.543 -1.70187 1.59871 0
M  V30 3618 C 365.524 -1.64066 0.449042 0
M  V30 3619 O 366.709 -1.82081 0.6753 0
M  V30 3620 C 363.839 -3.08827 1.58881 0
M  V30 3621 C 362.793 -3.29779 2.72819 0
M  V30 3622 C 362.119 -4.68947 2.5689 0
M  V30 3623 C 363.419 -3.17601 4.1464 0
M  V30 3624 H 365.113 -1.592 2.53566 0
M  V30 3625 H 362.659 -0.764472 1.22032 0
M  V30 3626 H 364.612 -3.86951 1.66873 0
M  V30 3627 H 363.336 -3.20713 0.617306 0
M  V30 3628 H 361.995 -2.54054 2.64296 0
M  V30 3629 H 361.643 -4.77599 1.57823 0
M  V30 3630 H 361.343 -4.83919 3.33312 0
M  V30 3631 H 362.867 -5.4924 2.66773 0
M  V30 3632 H 364.281 -3.8557 4.24274 0
M  V30 3633 H 362.678 -3.44094 4.9165 0
M  V30 3634 H 363.748 -2.14681 4.34788 0
M  V30 3635 N 365.091 -1.34144 -0.827227 0
M  V30 3636 C 366.368 -1.16844 -1.56865 0
M  V30 3637 C 366.748 0.260654 -2.09485 0
M  V30 3638 O 366.096 1.26138 -1.9053 0
M  V30 3639 C 366.306 -2.21939 -2.6934 0
M  V30 3640 C 367.654 -2.56695 -3.3822 0
M  V30 3641 O 368.678 -2.20695 -2.79593 0
M  V30 3642 O 367.537 -3.18518 -4.44082 0
M  V30 3643 H 364.631 -0.452669 -0.692112 0
M  V30 3644 H 367.177 -1.45763 -0.868973 0
M  V30 3645 H 365.949 -3.17882 -2.28182 0
M  V30 3646 H 365.572 -1.94172 -3.46962 0
M  V30 3647 N 366.569 1.04691 -1.17803 0
M  V30 3648 C 367.846 1.7472 -0.879328 0
M  V30 3649 C 368.226 2.01812 0.619271 0
M  V30 3650 O 367.574 1.65824 1.57209 0
M  V30 3651 C 367.784 3.03686 -1.71976 0
M  V30 3652 C 369.132 3.77542 -1.94286 0
M  V30 3653 O 370.156 3.13569 -1.68976 0
M  V30 3654 O 369.015 4.92506 -2.36855 0
M  V30 3655 H 366.109 0.760011 -0.326056 0
M  V30 3656 H 368.655 1.10813 -1.28525 0
M  V30 3657 H 367.427 2.79754 -2.73594 0
M  V30 3658 H 367.05 3.75332 -1.31194 0
M  V30 3659 N 368.047 0.979072 1.23499 0
M  V30 3660 C 368.977 0.537606 2.27227 0
M  V30 3661 C 369.958 -0.428539 1.64613 0
M  V30 3662 O 371.143 -0.322191 1.91509 0
M  V30 3663 C 368.273 -0.162052 3.46922 0
M  V30 3664 C 367.227 0.721242 4.21879 0
M  V30 3665 C 366.553 -0.110555 5.34586 0
M  V30 3666 C 367.853 2.01141 4.82016 0
M  V30 3667 H 369.547 1.40462 2.64406 0
M  V30 3668 H 367.093 0.67684 1.27102 0
M  V30 3669 H 369.046 -0.482192 4.18632 0
M  V30 3670 H 367.77 -1.06351 3.08799 0
M  V30 3671 H 366.429 1.02482 3.51984 0
M  V30 3672 H 366.077 -1.0125 4.92704 0
M  V30 3673 H 365.777 0.477325 5.85658 0
M  V30 3674 H 367.301 -0.425107 6.09118 0
M  V30 3675 H 368.715 1.75612 5.45741 0
M  V30 3676 H 367.112 2.54695 5.43369 0
M  V30 3677 H 368.182 2.69909 4.02836 0
M  V30 3678 N 369.525 -1.3858 0.750561 0
M  V30 3679 C 370.472 -2.30483 0.120835 0
M  V30 3680 C 371.442 -1.50022 -0.712923 0
M  V30 3681 O 372.627 -1.78662 -0.669676 0
M  V30 3682 C 369.767 -3.36431 -0.768666 0
M  V30 3683 C 368.88 -4.31927 0.0793922 0
M  V30 3684 C 368.015 -5.24944 -0.81283 0
M  V30 3685 C 367.054 -6.12088 0.0390447 0
M  V30 3686 N 366.191 -6.97412 -0.809969 0
M  V30 3687 H 371.031 -2.83761 0.91015 0
M  V30 3688 H 368.568 -1.39707 0.460463 0
M  V30 3689 H 370.526 -3.96462 -1.29898 0
M  V30 3690 H 369.156 -2.8457 -1.5238 0
M  V30 3691 H 368.208 -3.73382 0.727303 0
M  V30 3692 H 369.52 -4.93319 0.737401 0
M  V30 3693 H 368.674 -5.90078 -1.41042 0
M  V30 3694 H 367.413 -4.63911 -1.50458 0
M  V30 3695 H 366.418 -5.45952 0.649328 0
M  V30 3696 H 367.643 -6.75189 0.727809 0
M  V30 3697 H 365.589 -6.38931 -1.48672 0
M  V30 3698 H 365.506 -7.55712 -0.208789 0
M  V30 3699 H 366.774 -7.66959 -1.39263 0
M  V30 3700 N 371.003 -0.499398 -1.49478 0
M  V30 3701 C 372.419 -0.155261 -1.58843 0
M  V30 3702 C 372.619 1.34008 -1.50479 0
M  V30 3703 O 371.675 2.11589 -1.37791 0
M  V30 3704 C 372.988 -0.730636 -2.91689 0
M  V30 3705 C 374.536 -0.696599 -3.0515 0
M  V30 3706 C 375.011 -1.25001 -4.40612 0
M  V30 3707 N 376.502 -1.21064 -4.47099 0
M  V30 3708 C 377.237 -1.60905 -5.50361 0
M  V30 3709 N 376.733 -2.08331 -6.60735 0
M  V30 3710 N 378.526 -1.52331 -5.41065 0
M  V30 3711 H 370.677 -1.47162 -1.53158 0
M  V30 3712 H 372.94 -0.610309 -0.725415 0
M  V30 3713 H 372.646 -1.77928 -3.03372 0
M  V30 3714 H 372.52 -0.190161 -3.7672 0
M  V30 3715 H 374.907 0.343204 -2.93097 0
M  V30 3716 H 374.988 -1.2742 -2.21806 0
M  V30 3717 H 374.632 -2.28859 -4.53416 0
M  V30 3718 H 374.562 -0.64836 -5.22593 0
M  V30 3719 H 377.053 -0.863128 -3.67911 0
M  V30 3720 H 377.366 -2.36805 -7.35624 0
M  V30 3721 H 375.711 -2.12304 -6.6178 0
M  V30 3722 H 378.902 -1.151 -4.53729 0
M  V30 3723 H 379.075 -1.83704 -6.21415 0
M  V30 3724 N 372.481 1.55866 -0.233164 0
M  V30 3725 C 373.706 2.03449 0.402906 0
M  V30 3726 C 374.131 1.11166 1.51736 0
M  V30 3727 O 373.489 0.101996 1.81013 0
M  V30 3728 C 373.537 3.49165 0.9009 0
M  V30 3729 O 372.641 3.60019 2.01147 0
M  V30 3730 H 371.982 0.657913 0.0897025 0
M  V30 3731 H 374.512 2.01493 -0.355201 0
M  V30 3732 H 374.522 3.89716 1.2077 0
M  V30 3733 H 373.197 4.15813 0.0852889 0
M  V30 3734 H 371.774 3.3136 1.71042 0
M  V30 3735 N 373.959 -0.0401083 1.57549 0
M  V30 3736 C 375.207 -0.731677 1.8839 0
M  V30 3737 C 375.528 -1.76481 0.829425 0
M  V30 3738 O 374.798 -1.95411 -0.1383 0
M  V30 3739 H 373.378 -0.273225 0.695239 0
M  V30 3740 H 376.04 -0.00867725 1.94898 0
M  V30 3741 H 375.136 -1.22816 2.86919 0
M  V30 3742 N 375.437 -1.54477 -0.31217 0
M  V30 3743 C 376.685 -1.72884 -1.04668 0
M  V30 3744 C 377.006 -0.511477 -1.88173 0
M  V30 3745 O 376.276 0.474407 -1.90069 0
M  V30 3746 H 374.856 -0.637461 -0.389425 0
M  V30 3747 H 377.518 -1.91807 -0.345852 0
M  V30 3748 H 376.614 -2.61334 -1.70619 0
M  V30 3749 N 376.915 0.57481 -1.46744 0
M  V30 3750 C 377.878 1.66533 -1.57478 0
M  V30 3751 C 378.878 1.54338 -0.451263 0
M  V30 3752 O 380.068 1.58814 -0.715813 0
M  V30 3753 C 377.2 3.05999 -1.50259 0
M  V30 3754 H 378.393 1.58372 -2.54673 0
M  V30 3755 H 375.946 0.793301 -1.34672 0
M  V30 3756 H 376.681 3.19709 -0.543725 0
M  V30 3757 H 376.466 3.16259 -2.31781 0
M  V30 3758 H 377.956 3.8537 -1.60872 0
M  V30 3759 N 378.394 1.34581 0.820102 0
M  V30 3760 C 379.81 1.14325 1.11364 0
M  V30 3761 C 380.01 -0.0533648 2.01429 0
M  V30 3762 O 379.066 -0.728044 2.41776 0
M  V30 3763 C 380.379 2.43983 1.75764 0
M  V30 3764 C 381.927 2.50065 1.88246 0
M  V30 3765 C 382.402 3.79732 2.56061 0
M  V30 3766 N 383.893 3.80908 2.63558 0
M  V30 3767 C 384.628 4.77961 3.16766 0
M  V30 3768 N 384.124 5.85397 3.70517 0
M  V30 3769 N 385.917 4.65413 3.15194 0
M  V30 3770 H 378.068 2.11246 0.221096 0
M  V30 3771 H 380.331 0.934289 0.160649 0
M  V30 3772 H 380.037 3.31651 1.1705 0
M  V30 3773 H 379.911 2.57531 2.75604 0
M  V30 3774 H 382.298 1.62834 2.46108 0
M  V30 3775 H 382.379 2.40442 0.873006 0
M  V30 3776 H 382.023 4.67354 1.98853 0
M  V30 3777 H 381.953 3.86639 3.57516 0
M  V30 3778 H 384.444 3.03274 2.25463 0
M  V30 3779 H 384.757 6.55463 4.09376 0
M  V30 3780 H 383.102 5.89107 3.68752 0
M  V30 3781 H 386.293 3.80627 2.72471 0
M  V30 3782 H 386.466 5.41216 3.56356 0
M  V30 3783 N 379.872 -1.04064 1.18357 0
M  V30 3784 C 381.118 -1.77528 0.980397 0
M  V30 3785 C 381.451 -1.87948 -0.48879 0
M  V30 3786 O 380.726 -1.3876 -1.36293 0
M  V30 3787 C 381.009 -3.20797 1.63588 0
M  V30 3788 C 380.862 -3.1832 3.17793 0
M  V30 3789 C 382.181 -4.18911 1.34914 0
M  V30 3790 H 379.3 -0.644443 0.357578 0
M  V30 3791 H 381.942 -1.2156 1.46024 0
M  V30 3792 H 380.092 -3.68586 1.22788 0
M  V30 3793 H 381.764 -2.78521 3.67728 0
M  V30 3794 H 380.007 -2.56351 3.49952 0
M  V30 3795 H 380.678 -4.19489 3.58794 0
M  V30 3796 H 383.154 -3.7967 1.70265 0
M  V30 3797 H 382.03 -5.17374 1.83346 0
M  V30 3798 H 382.291 -4.41262 0.272027 0
M  V30 3799 N 381.35 -0.985608 -1.22978 0
M  V30 3800 C 382.627 -0.573599 -1.87001 0
M  V30 3801 C 383.007 0.949213 -1.88555 0
M  V30 3802 O 382.355 1.82811 -1.37086 0
M  V30 3803 C 382.565 -1.18564 -3.28243 0
M  V30 3804 C 383.913 -1.28163 -4.04796 0
M  V30 3805 O 384.937 -1.13949 -3.37482 0
M  V30 3806 O 383.796 -1.50832 -5.25273 0
M  V30 3807 H 380.89 -0.193868 -0.803955 0
M  V30 3808 H 383.436 -1.08102 -1.30813 0
M  V30 3809 H 382.208 -2.22758 -3.21706 0
M  V30 3810 H 381.831 -0.663363 -3.92027 0
M  V30 3811 N 382.828 1.3818 -0.7579 0
M  V30 3812 C 384.244 1.5353 -0.435972 0
M  V30 3813 C 384.444 1.71961 1.05032 0
M  V30 3814 O 383.5 1.73307 1.83633 0
M  V30 3815 C 384.813 2.73989 -1.23898 0
M  V30 3816 C 386.361 2.87841 -1.22949 0
M  V30 3817 C 386.836 4.11266 -2.01554 0
M  V30 3818 N 388.327 4.18352 -1.98837 0
M  V30 3819 C 389.062 5.12856 -2.5645 0
M  V30 3820 N 388.558 6.13005 -3.22794 0
M  V30 3821 N 390.351 5.05238 -2.46356 0
M  V30 3822 H 382.502 1.24467 -1.7211 0
M  V30 3823 H 384.765 0.604982 -0.729864 0
M  V30 3824 H 384.471 2.66789 -2.29165 0
M  V30 3825 H 384.345 3.67294 -0.858764 0
M  V30 3826 H 386.732 2.9452 -0.184854 0
M  V30 3827 H 386.813 1.95534 -1.64924 0
M  V30 3828 H 386.457 4.05349 -3.06031 0
M  V30 3829 H 386.387 5.02661 -1.5697 0
M  V30 3830 H 388.878 3.46628 -1.50524 0
M  V30 3831 H 389.191 6.81619 -3.64165 0
M  V30 3832 H 387.536 6.13325 -3.2689 0
M  V30 3833 H 390.727 4.25938 -1.9415 0
M  V30 3834 H 390.9 5.78707 -2.91552 0
M  V30 3835 N 384.306 0.507319 1.49211 0
M  V30 3836 C 385.534 -0.0315749 2.06876 0
M  V30 3837 C 385.949 -1.30241 1.36685 0
M  V30 3838 O 385.306 -1.76937 0.447152 0
M  V30 3839 C 385.357 -0.282627 3.60393 0
M  V30 3840 O 385.078 0.937835 4.27944 0
M  V30 3841 C 386.579 -0.864453 4.3479 0
M  V30 3842 H 383.799 0.0233048 0.670595 0
M  V30 3843 H 386.343 0.706484 1.91909 0
M  V30 3844 H 384.498 -0.97068 3.75042 0
M  V30 3845 H 384.912 0.704567 5.19746 0
M  V30 3846 H 386.386 -0.989664 5.43056 0
M  V30 3847 H 386.863 -1.86382 3.97692 0
M  V30 3848 H 387.469 -0.213672 4.24763 0
M  V30 3849 N 385.784 -1.5574 0.241426 0
M  V30 3850 C 386.734 -2.17803 -0.674233 0
M  V30 3851 C 387.718 -1.13225 -1.14319 0
M  V30 3852 O 388.91 -1.39153 -1.09387 0
M  V30 3853 C 386.039 -2.87682 -1.87333 0
M  V30 3854 C 385.125 -3.99509 -1.42313 0
M  V30 3855 N 385.516 -5.01115 -0.686798 0
M  V30 3856 C 383.814 -4.11964 -1.70885 0
M  V30 3857 C 384.515 -5.79922 -0.454456 0
M  V30 3858 N 383.491 -5.34001 -1.01705 0
M  V30 3859 H 387.293 -2.93718 -0.103447 0
M  V30 3860 H 384.807 -1.62342 0.0435095 0
M  V30 3861 H 386.804 -3.3057 -2.54026 0
M  V30 3862 H 385.464 -2.13269 -2.4484 0
M  V30 3863 H 386.475 -5.16799 -0.337459 0
M  V30 3864 H 383.152 -3.48718 -2.2957 0
M  V30 3865 H 384.542 -6.71768 0.132992 0
M  V30 3866 N 387.262 0.0317525 -1.57568 0
M  V30 3867 C 388.678 0.38735 -1.54828 0
M  V30 3868 C 388.878 1.7677 -0.967187 0
M  V30 3869 O 387.934 2.45581 -0.587063 0
M  V30 3870 C 389.247 0.291667 -2.99282 0
M  V30 3871 C 390.795 0.368946 -3.10818 0
M  V30 3872 C 391.27 0.302741 -4.56998 0
M  V30 3873 N 392.761 0.361617 -4.61786 0
M  V30 3874 C 393.496 0.333238 -5.72431 0
M  V30 3875 N 392.992 0.257308 -6.92322 0
M  V30 3876 N 394.785 0.382769 -5.60795 0
M  V30 3877 H 386.936 -0.871609 -1.93692 0
M  V30 3878 H 389.199 -0.331161 -0.888277 0
M  V30 3879 H 388.905 -0.656794 -3.45513 0
M  V30 3880 H 388.779 1.08638 -3.61217 0
M  V30 3881 H 391.166 1.30784 -2.64536 0
M  V30 3882 H 391.247 -0.455066 -2.5172 0
M  V30 3883 H 390.891 -0.632473 -5.03947 0
M  V30 3884 H 390.821 1.14482 -5.14005 0
M  V30 3885 H 393.312 0.422923 -3.75526 0
M  V30 3886 H 393.625 0.24068 -7.72425 0
M  V30 3887 H 391.97 0.223396 -6.94641 0
M  V30 3888 H 395.161 0.44006 -4.66027 0
M  V30 3889 H 395.334 0.357184 -6.47015 0
M  V30 3890 N 388.74 1.54641 0.303973 0
M  V30 3891 C 390.151 1.64811 0.877163 0
M  V30 3892 C 390.502 0.554838 1.88191 0
M  V30 3893 O 389.627 -0.309033 2.14182 0
M  V30 3894 C 390.222 2.9876 1.59775 0
M  V30 3895 C 388.781 3.11061 2.11938 0
M  V30 3896 C 387.928 2.60479 0.951097 0
M  V30 3897 H 390.879 1.58493 0.0810486 0
M  V30 3898 H 390.9 2.90017 2.46314 0
M  V30 3899 H 390.412 3.7831 0.866226 0
M  V30 3900 H 388.513 2.36225 2.88146 0
M  V30 3901 H 388.626 4.17171 2.35595 0
M  V30 3902 H 386.99 2.16859 1.33583 0
M  V30 3903 H 387.773 3.42504 0.233581 0
M  V30 3904 N 390.218 -0.567019 1.47046 0
M  V30 3905 C 391.168 -1.67018 1.55207 0
M  V30 3906 C 392.152 -1.55543 0.411714 0
M  V30 3907 O 393.344 -1.64192 0.661064 0
M  V30 3908 C 390.473 -3.05801 1.56014 0
M  V30 3909 C 389.559 -3.22515 2.75399 0
M  V30 3910 N 389.95 -3.09329 4.00186 0
M  V30 3911 C 388.248 -3.53493 2.71954 0
M  V30 3912 C 388.949 -3.2847 4.80086 0
M  V30 3913 N 387.925 -3.54352 4.12233 0
M  V30 3914 H 391.727 -1.55377 2.4947 0
M  V30 3915 H 389.241 -0.771503 1.42904 0
M  V30 3916 H 391.238 -3.84996 1.59949 0
M  V30 3917 H 389.898 -3.18561 0.628396 0
M  V30 3918 H 390.909 -2.86863 4.31196 0
M  V30 3919 H 387.586 -3.7284 1.87873 0
M  V30 3920 H 388.976 -3.23326 5.88991 0
M  V30 3921 N 391.696 -1.35014 -0.812953 0
M  V30 3922 C 392.944 -1.27678 -1.56661 0
M  V30 3923 C 393.265 0.150359 -1.94419 0
M  V30 3924 O 392.535 1.08532 -1.63088 0
M  V30 3925 H 391.115 -0.469602 -0.580933 0
M  V30 3926 H 393.777 -1.69043 -0.970076 0
M  V30 3927 H 392.873 -1.88833 -2.48492 0
M  V30 3928 N 393.175 1.03435 -1.18907 0
M  V30 3929 C 394.423 1.76394 -0.986382 0
M  V30 3930 C 394.744 1.88883 0.484567 0
M  V30 3931 O 394.014 1.41843 1.3512 0
M  V30 3932 H 392.594 0.65344 -0.361975 0
M  V30 3933 H 395.256 1.248 -1.49703 0
M  V30 3934 H 394.352 2.77424 -1.42978 0
M  V30 3935 N 394.653 0.992116 1.22453 0
M  V30 3936 C 395.6 0.541731 2.24352 0
M  V30 3937 C 396.57 -0.425519 1.60557 0
M  V30 3938 O 397.755 -0.330453 1.87917 0
M  V30 3939 C 394.895 -0.138248 3.44823 0
M  V30 3940 C 394.008 0.870649 4.23136 0
M  V30 3941 C 393.143 0.164269 5.30946 0
M  V30 3942 C 392.182 1.16159 6.00977 0
M  V30 3943 N 391.319 0.483568 7.00433 0
M  V30 3944 H 396.159 1.41541 2.62241 0
M  V30 3945 H 393.696 0.709013 1.28885 0
M  V30 3946 H 395.654 -0.5494 4.13567 0
M  V30 3947 H 394.284 -0.975721 3.077 0
M  V30 3948 H 393.336 1.40013 3.53696 0
M  V30 3949 H 394.648 1.63014 4.7141 0
M  V30 3950 H 393.802 -0.303653 6.0594 0
M  V30 3951 H 392.541 -0.627733 4.83643 0
M  V30 3952 H 391.546 1.64015 5.24766 0
M  V30 3953 H 392.771 1.95445 6.50368 0
M  V30 3954 H 390.717 -0.289012 6.55363 0
M  V30 3955 H 390.634 1.18152 7.4671 0
M  V30 3956 H 391.902 0.0384219 7.79491 0
M  V30 3957 N 396.131 -1.37776 0.765217 0
M  V30 3958 C 397.356 -2.04651 0.336537 0
M  V30 3959 C 397.781 -1.57337 -1.03086 0
M  V30 3960 O 397.139 -0.730621 -1.65927 0
M  V30 3961 C 397.187 -3.58577 0.381468 0
M  V30 3962 O 396.291 -4.07706 -0.62042 0
M  V30 3963 H 395.632 -0.64756 0.146838 0
M  V30 3964 H 398.162 -1.76221 1.03959 0
M  V30 3965 H 398.172 -4.07314 0.236448 0
M  V30 3966 H 396.847 -3.9237 1.37907 0
M  V30 3967 H 395.424 -3.70306 -0.439056 0
M  V30 3968 N 397.609 -0.515225 -1.4894 0
M  V30 3969 C 398.834 0.022727 -2.07388 0
M  V30 3970 C 399.259 1.2876 -1.37122 0
M  V30 3971 O 398.617 1.76067 -0.432431 0
M  V30 3972 C 398.665 0.244869 -3.59768 0
M  V30 3973 O 397.769 1.31667 -3.90817 0
M  V30 3974 H 397.11 -0.0325506 -0.663202 0
M  V30 3975 H 399.64 -0.718918 -1.91553 0
M  V30 3976 H 399.65 0.47205 -4.0526 0
M  V30 3977 H 398.325 -0.679194 -4.10317 0
M  V30 3978 H 396.902 1.07331 -3.5712 0
M  V30 3979 N 399.087 1.5561 -0.249682 0
M  V30 3980 C 400.335 1.98618 0.373548 0
M  V30 3981 C 400.656 1.13919 1.58264 0
M  V30 3982 O 399.926 0.222637 1.94631 0
M  V30 3983 H 398.506 0.733571 0.141006 0
M  V30 3984 H 401.168 1.91748 -0.349117 0
M  V30 3985 H 400.264 3.04584 0.680796 0
M  V30 3986 N 400.565 -0.0233959 1.57583 0
M  V30 3987 C 401.976 -0.56927 1.77809 0
M  V30 3988 C 402.327 -1.75284 0.881472 0
M  V30 3989 O 401.452 -2.1626 0.0777805 0
M  V30 3990 C 402.047 -1.03949 3.22459 0
M  V30 3991 C 400.606 -1.53084 3.43864 0
M  V30 3992 C 399.753 -0.471454 2.73263 0
M  V30 3993 H 402.704 0.202825 1.57399 0
M  V30 3994 H 402.725 -1.90661 3.29285 0
M  V30 3995 H 402.237 -0.177865 3.87692 0
M  V30 3996 H 400.338 -2.41414 2.83814 0
M  V30 3997 H 400.451 -1.57443 4.52491 0
M  V30 3998 H 398.815 -0.927788 2.37201 0
M  V30 3999 H 399.598 0.380808 3.41181 0
M  V30 4000 N 402.043 -1.548 -0.295768 0
M  V30 4001 C 402.953 -1.89177 -1.38742 0
M  V30 4002 C 403.969 -0.786481 -1.55211 0
M  V30 4003 O 405.145 -1.08344 -1.69775 0
M  V30 4004 C 402.21 -2.13663 -2.73036 0
M  V30 4005 C 401.271 -3.37349 -2.65508 0
M  V30 4006 C 400.504 -3.60658 -3.93398 0
M  V30 4007 O 400.727 -2.86882 -4.93006 0
M  V30 4008 O 399.661 -4.54179 -3.94975 0
M  V30 4009 H 403.487 -2.82059 -1.12589 0
M  V30 4010 H 401.072 -1.41056 -0.492295 0
M  V30 4011 H 402.954 -2.3094 -3.52484 0
M  V30 4012 H 401.629 -1.23967 -2.99022 0
M  V30 4013 H 400.536 -3.25431 -1.84514 0
M  V30 4014 H 401.869 -4.27192 -2.44474 0
M  V30 4015 N 403.521 0.559213 -1.47345 0
M  V30 4016 C 404.77 1.31281 -1.53128 0
M  V30 4017 C 405.083 1.94602 -0.197344 0
M  V30 4018 O 406.289 2.71173 -0.133154 0
M  V30 4019 C 404.745 2.38051 -2.69925 0
M  V30 4020 C 404.353 1.8093 -4.0984 0
M  V30 4021 C 406.097 3.14604 -2.84999 0
M  V30 4022 C 404.004 2.85468 -5.1794 0
M  V30 4023 H 402.934 0.493614 -0.569966 0
M  V30 4024 H 405.585 0.594155 -1.73615 0
M  V30 4025 H 403.967 3.12822 -2.42814 0
M  V30 4026 H 405.141 1.12544 -4.46845 0
M  V30 4027 H 403.456 1.16967 -3.99634 0
M  V30 4028 H 406.053 3.92666 -3.62929 0
M  V30 4029 H 406.396 3.68665 -1.93369 0
M  V30 4030 H 406.929 2.46945 -3.1187 0
M  V30 4031 H 403.668 2.36264 -6.1144 0
M  V30 4032 H 403.188 3.52269 -4.85455 0
M  V30 4033 H 404.867 3.48996 -5.44803 0
M  V30 4034 N 404.999 1.35443 0.805782 0
M  V30 4035 C 406.248 1.28097 1.55801 0
M  V30 4036 C 406.561 -0.142428 1.95081 0
M  V30 4037 O 407.767 -0.33817 2.69386 0
M  V30 4038 C 406.223 2.24653 2.81174 0
M  V30 4039 C 405.831 3.72342 2.49129 0
M  V30 4040 C 407.575 2.2625 3.59181 0
M  V30 4041 C 405.482 4.60719 3.70799 0
M  V30 4042 H 404.412 0.475937 0.584808 0
M  V30 4043 H 407.063 1.60712 0.885661 0
M  V30 4044 H 405.445 1.85011 3.50124 0
M  V30 4045 H 406.619 4.20624 1.88181 0
M  V30 4046 H 404.934 3.73361 1.84366 0
M  V30 4047 H 407.531 2.89495 4.49552 0
M  V30 4048 H 407.874 1.26647 3.96568 0
M  V30 4049 H 408.407 2.64426 2.97193 0
M  V30 4050 H 405.146 5.61324 3.3852 0
M  V30 4051 H 404.666 4.17163 4.3097 0
M  V30 4052 H 406.345 4.76182 4.38018 0
M  V30 4053 N 406.477 -1.02803 1.19454 0
M  V30 4054 C 407.754 -1.73299 0.907013 0
M  V30 4055 C 408.134 -2.02772 -0.587086 0
M  V30 4056 O 407.482 -1.68304 -1.54551 0
M  V30 4057 C 407.692 -3.00912 1.76785 0
M  V30 4058 C 409.04 -3.74403 2.00268 0
M  V30 4059 O 410.064 -3.10841 1.73943 0
M  V30 4060 O 408.923 -4.88675 2.4466 0
M  V30 4061 H 406.017 -0.754727 0.338106 0
M  V30 4062 H 408.563 -1.08754 1.30271 0
M  V30 4063 H 407.335 -2.75366 2.7801 0
M  V30 4064 H 406.958 -3.73197 1.37149 0
M  V30 4065 N 407.956 -0.998596 -1.21925 0
M  V30 4066 C 409.184 -0.696286 -1.94832 0
M  V30 4067 C 409.599 0.740032 -1.73692 0
M  V30 4068 O 408.956 1.5 -1.03953 0
M  V30 4069 C 409.007 -0.999833 -3.47398 0
M  V30 4070 O 408.728 -2.37972 -3.67833 0
M  V30 4071 C 410.229 -0.716025 -4.37479 0
M  V30 4072 H 407.449 -0.257111 -0.619786 0
M  V30 4073 H 409.993 -1.33491 -1.54921 0
M  V30 4074 H 408.148 -0.406918 -3.85257 0
M  V30 4075 H 408.562 -2.48338 -4.61983 0
M  V30 4076 H 410.036 -0.978642 -5.43256 0
M  V30 4077 H 410.513 0.349968 -4.37803 0
M  V30 4078 H 411.119 -1.29025 -4.05256 0
M  V30 4079 N 409.434 1.37368 -0.772513 0
M  V30 4080 C 410.364 2.32856 -0.173304 0
M  V30 4081 C 411.345 1.55818 0.682262 0
M  V30 4082 O 412.53 1.84052 0.619566 0
M  V30 4083 C 409.66 3.40048 0.706007 0
M  V30 4084 C 408.614 4.27973 -0.0483144 0
M  V30 4085 C 407.94 5.26184 0.950491 0
M  V30 4086 C 409.24 5.07665 -1.22776 0
M  V30 4087 H 410.934 2.83217 -0.971002 0
M  V30 4088 H 408.48 1.3617 -0.468377 0
M  V30 4089 H 410.433 4.05827 1.13501 0
M  V30 4090 H 409.157 2.88214 1.53623 0
M  V30 4091 H 407.816 3.63726 -0.458107 0
M  V30 4092 H 407.464 4.7063 1.77529 0
M  V30 4093 H 407.164 5.85872 0.450314 0
M  V30 4094 H 408.688 5.94838 1.37842 0
M  V30 4095 H 410.102 5.66578 -0.875366 0
M  V30 4096 H 408.499 5.76681 -1.66007 0
M  V30 4097 H 409.569 4.40294 -2.03149 0
M  V30 4098 N 410.912 0.523116 1.48665 0
M  V30 4099 C 412.328 0.180511 1.58576 0
M  V30 4100 C 412.528 -1.31597 1.52592 0
M  V30 4101 O 411.584 -2.0937 1.4114 0
M  V30 4102 C 412.897 0.776949 2.90489 0
M  V30 4103 C 414.445 0.745058 3.04003 0
M  V30 4104 C 414.92 1.31995 4.38567 0
M  V30 4105 N 416.411 1.28162 4.45117 0
M  V30 4106 C 417.146 1.6964 5.47731 0
M  V30 4107 N 416.642 2.18816 6.57337 0
M  V30 4108 N 418.435 1.6092 5.38573 0
M  V30 4109 H 410.586 1.4958 1.50797 0
M  V30 4110 H 412.849 0.621772 0.715614 0
M  V30 4111 H 412.555 1.82732 3.00503 0
M  V30 4112 H 412.429 0.25007 3.7637 0
M  V30 4113 H 414.816 -0.296532 2.93606 0
M  V30 4114 H 414.897 1.30933 2.1975 0
M  V30 4115 H 414.541 2.36043 4.49718 0
M  V30 4116 H 414.471 0.731418 5.21496 0
M  V30 4117 H 416.962 0.92155 3.66491 0
M  V30 4118 H 417.275 2.48478 7.31764 0
M  V30 4119 H 415.62 2.22805 6.58318 0
M  V30 4120 H 418.811 1.22304 4.5184 0
M  V30 4121 H 418.984 1.93567 6.18414 0
M  V30 4122 N 412.39 -1.55475 0.257931 0
M  V30 4123 C 413.337 -2.21837 -0.636939 0
M  V30 4124 C 414.307 -1.18596 -1.16294 0
M  V30 4125 O 415.492 -1.47081 -1.21539 0
M  V30 4126 C 412.632 -2.9301 -1.82317 0
M  V30 4127 C 411.745 -4.10931 -1.33265 0
M  V30 4128 C 410.88 -4.69791 -2.47931 0
M  V30 4129 C 409.919 -5.7994 -1.95796 0
M  V30 4130 N 409.056 -6.32935 -3.0387 0
M  V30 4131 H 413.896 -2.9793 -0.0643591 0
M  V30 4132 H 411.433 -1.47086 -0.0200031 0
M  V30 4133 H 413.391 -3.3248 -2.52018 0
M  V30 4134 H 412.021 -2.1937 -2.36805 0
M  V30 4135 H 411.073 -3.76699 -0.52931 0
M  V30 4136 H 412.385 -4.90417 -0.910654 0
M  V30 4137 H 411.539 -5.11892 -3.25656 0
M  V30 4138 H 410.278 -3.89545 -2.93438 0
M  V30 4139 H 409.283 -5.37305 -1.16546 0
M  V30 4140 H 410.508 -6.62043 -1.51246 0
M  V30 4141 H 408.454 -5.55591 -3.48791 0
M  V30 4142 H 408.371 -7.07645 -2.66035 0
M  V30 4143 H 409.639 -6.79695 -3.81621 0
M  V30 4144 N 413.868 0.0150385 -1.57593 0
M  V30 4145 C 414.831 0.995996 -2.06428 0
M  V30 4146 C 415.831 1.2818 -0.970903 0
M  V30 4147 O 417.021 1.22949 -1.23406 0
M  V30 4148 C 414.153 2.32506 -2.49307 0
M  V30 4149 H 415.346 0.573873 -2.94358 0
M  V30 4150 H 412.899 0.262186 -1.54085 0
M  V30 4151 H 413.634 2.79438 -1.64575 0
M  V30 4152 H 413.419 2.13087 -3.29145 0
M  V30 4153 H 414.909 3.02906 -2.87468 0
M  V30 4154 N 415.346 1.54954 0.287554 0
M  V30 4155 C 416.309 1.86076 1.33823 0
M  V30 4156 C 417.309 0.734414 1.43049 0
M  V30 4157 O 418.499 1.00266 1.42452 0
M  V30 4158 C 415.631 2.05305 2.72144 0
M  V30 4159 H 416.824 2.79984 1.07465 0
M  V30 4160 H 414.377 1.47223 0.524902 0
M  V30 4161 H 415.112 1.1373 3.03704 0
M  V30 4162 H 414.897 2.873 2.66836 0
M  V30 4163 H 416.387 2.30706 3.48087 0
M  V30 4164 N 416.824 -0.551391 1.4764 0
M  V30 4165 C 417.771 -1.65796 1.60563 0
M  V30 4166 C 418.741 -1.59932 0.448428 0
M  V30 4167 O 419.926 -1.78679 0.669222 0
M  V30 4168 C 417.066 -3.04108 1.63133 0
M  V30 4169 C 416.179 -3.20365 2.89811 0
M  V30 4170 C 415.314 -4.49109 2.8368 0
M  V30 4171 C 414.353 -4.58819 4.05156 0
M  V30 4172 N 413.49 -5.78926 3.97227 0
M  V30 4173 H 418.33 -1.54088 2.5507 0
M  V30 4174 H 415.867 -0.75052 1.26513 0
M  V30 4175 H 417.825 -3.84207 1.62606 0
M  V30 4176 H 416.455 -3.14637 0.721341 0
M  V30 4177 H 415.507 -2.33659 3.00179 0
M  V30 4178 H 416.819 -3.23402 3.79753 0
M  V30 4179 H 415.973 -5.37475 2.81434 0
M  V30 4180 H 414.712 -4.4856 1.91431 0
M  V30 4181 H 413.717 -3.68864 4.077 0
M  V30 4182 H 414.942 -4.61124 4.98539 0
M  V30 4183 H 412.888 -5.79314 3.07785 0
M  V30 4184 H 412.805 -5.83367 4.80853 0
M  V30 4185 H 414.073 -6.69637 3.99007 0
M  V30 4186 N 418.302 -1.35869 -0.798587 0
M  V30 4187 C 419.212 -1.31578 -1.94228 0
M  V30 4188 C 420.228 -0.21939 -1.72611 0
M  V30 4189 O 421.404 -0.450167 -1.96305 0
M  V30 4190 C 418.469 -1.09528 -3.28944 0
M  V30 4191 C 417.53 -2.28556 -3.63402 0
M  V30 4192 C 416.763 -2.07549 -4.9169 0
M  V30 4193 O 416.986 -1.046 -5.60727 0
M  V30 4194 O 415.92 -2.95106 -5.24591 0
M  V30 4195 H 419.746 -2.27847 -2.00796 0
M  V30 4196 H 417.331 -1.16322 -0.937526 0
M  V30 4197 H 419.213 -0.991127 -4.09579 0
M  V30 4198 H 417.888 -0.16315 -3.23289 0
M  V30 4199 H 416.795 -2.44538 -2.83112 0
M  V30 4200 H 418.128 -3.20244 -3.73771 0
M  V30 4201 N 419.78 1.02168 -1.19998 0
M  V30 4202 C 420.712 2.10705 -0.901994 0
M  V30 4203 C 421.725 1.6244 0.108216 0
M  V30 4204 O 422.914 1.78082 -0.12214 0
M  V30 4205 C 420.014 3.37291 -0.329834 0
M  V30 4206 C 419.187 4.14714 -1.39035 0
M  V30 4207 C 418.246 5.19606 -0.830432 0
M  V30 4208 O 417.272 5.48809 -1.50989 0
M  V30 4209 N 418.474 5.79366 0.362696 0
M  V30 4210 H 421.239 2.36856 -1.83628 0
M  V30 4211 H 418.8 1.18518 -1.10296 0
M  V30 4212 H 420.792 4.04657 0.0587633 0
M  V30 4213 H 419.362 3.0843 0.508891 0
M  V30 4214 H 418.582 3.42392 -1.9535 0
M  V30 4215 H 419.87 4.63226 -2.10474 0
M  V30 4216 H 419.268 5.57968 0.932081 0
M  V30 4217 H 417.825 6.48106 0.69299 0
M  V30 4218 N 421.258 1.00505 1.21394 0
M  V30 4219 C 422.506 0.686415 1.90086 0
M  V30 4220 C 422.827 -0.785264 1.7849 0
M  V30 4221 O 422.097 -1.56387 1.17983 0
M  V30 4222 H 420.677 0.2509 0.703604 0
M  V30 4223 H 423.339 1.27417 1.47482 0
M  V30 4224 H 422.435 0.959621 2.96981 0
M  V30 4225 N 422.737 -1.36956 0.779787 0
M  V30 4226 C 423.986 -1.98738 0.344405 0
M  V30 4227 C 424.299 -1.62596 -1.08728 0
M  V30 4228 O 425.505 -2.1754 -1.62445 0
M  V30 4229 C 423.961 -3.5544 0.564829 0
M  V30 4230 C 423.569 -4.00514 2.0073 0
M  V30 4231 C 425.313 -4.24059 0.193471 0
M  V30 4232 C 423.22 -5.49957 2.17489 0
M  V30 4233 H 422.15 -0.743561 0.12503 0
M  V30 4234 H 424.801 -1.56381 0.960057 0
M  V30 4235 H 423.183 -3.95817 -0.120397 0
M  V30 4236 H 424.357 -3.71362 2.72814 0
M  V30 4237 H 422.672 -3.44703 2.336 0
M  V30 4238 H 425.269 -5.33874 0.297097 0
M  V30 4239 H 425.612 -4.07378 -0.857263 0
M  V30 4240 H 426.145 -3.89012 0.831556 0
M  V30 4241 H 422.884 -5.71574 3.2091 0
M  V30 4242 H 422.404 -5.80767 1.49899 0
M  V30 4243 H 424.083 -6.16043 1.97738 0
M  V30 4244 N 424.215 -0.530993 -1.48385 0
M  V30 4245 C 425.492 0.0671788 -1.95485 0
M  V30 4246 C 425.872 1.51191 -1.47324 0
M  V30 4247 O 425.22 2.17507 -0.700202 0
M  V30 4248 C 425.43 -0.0511206 -3.48963 0
M  V30 4249 C 426.778 0.107632 -4.24464 0
M  V30 4250 O 427.802 0.0226248 -3.56193 0
M  V30 4251 O 426.661 0.285972 -5.45751 0
M  V30 4252 H 423.755 0.0787365 -0.823243 0
M  V30 4253 H 426.301 -0.595662 -1.58902 0
M  V30 4254 H 425.073 -1.05747 -3.7674 0
M  V30 4255 H 424.696 0.650525 -3.92242 0
M  V30 4256 N 425.693 1.55336 -0.266172 0
M  V30 4257 C 426.921 2.03801 0.356756 0
M  V30 4258 C 427.336 1.14485 1.50129 0
M  V30 4259 O 426.693 0.163121 1.8177 0
M  V30 4260 C 426.744 3.51455 0.846281 0
M  V30 4261 O 426.465 4.37371 -0.252663 0
M  V30 4262 C 427.966 4.15767 1.53794 0
M  V30 4263 H 425.186 0.665906 0.0825218 0
M  V30 4264 H 427.73 2.00636 -0.39566 0
M  V30 4265 H 425.885 3.55092 1.54881 0
M  V30 4266 H 426.299 5.24358 0.122173 0
M  V30 4267 H 427.773 5.20714 1.83198 0
M  V30 4268 H 428.25 3.63404 2.46646 0
M  V30 4269 H 428.856 4.16107 0.879488 0
M  V30 4270 N 427.171 -0.0066808 1.57599 0
M  V30 4271 C 428.587 -0.36267 1.55425 0
M  V30 4272 C 428.787 -1.75209 0.995187 0
M  V30 4273 O 427.843 -2.44616 0.626058 0
M  V30 4274 C 429.156 -0.244017 2.99708 0
M  V30 4275 C 430.704 -0.319451 3.11366 0
M  V30 4276 C 431.179 -0.229998 4.57422 0
M  V30 4277 N 432.67 -0.288105 4.62303 0
M  V30 4278 C 433.405 -0.242127 5.72889 0
M  V30 4279 N 432.901 -0.147133 6.92644 0
M  V30 4280 N 434.694 -0.293502 5.61333 0
M  V30 4281 H 426.845 0.902314 1.92281 0
M  V30 4282 H 429.108 0.34525 0.882896 0
M  V30 4283 H 428.814 0.711678 3.44424 0
M  V30 4284 H 428.688 -1.02877 3.629 0
M  V30 4285 H 431.075 -1.26559 2.66584 0
M  V30 4286 H 431.156 0.495055 2.50964 0
M  V30 4287 H 430.8 0.712566 5.02877 0
M  V30 4288 H 430.73 -1.0629 5.15761 0
M  V30 4289 H 433.221 -0.363126 3.76151 0
M  V30 4290 H 433.534 -0.117763 7.7271 0
M  V30 4291 H 431.879 -0.112857 6.94908 0
M  V30 4292 H 435.07 -0.365864 4.66668 0
M  V30 4293 H 435.243 -0.254204 6.47501 0
M  V30 4294 N 428.649 -1.55105 -0.279332 0
M  V30 4295 C 429.579 -1.90557 -1.34945 0
M  V30 4296 C 430.56 -0.766738 -1.51839 0
M  V30 4297 O 431.745 -1.02434 -1.64988 0
M  V30 4298 C 428.875 -2.17193 -2.71006 0
M  V30 4299 C 427.829 -3.33021 -2.68851 0
M  V30 4300 C 427.155 -3.45123 -4.08405 0
M  V30 4301 C 428.455 -4.69578 -2.28678 0
M  V30 4302 H 430.149 -2.80188 -1.05522 0
M  V30 4303 H 427.695 -1.34811 -0.506173 0
M  V30 4304 H 429.648 -2.40581 -3.45975 0
M  V30 4305 H 428.372 -1.24355 -3.01999 0
M  V30 4306 H 427.031 -3.0959 -1.9634 0
M  V30 4307 H 426.679 -2.49762 -4.3661 0
M  V30 4308 H 426.379 -4.22995 -4.07859 0
M  V30 4309 H 427.903 -3.70796 -4.85121 0
M  V30 4310 H 429.317 -4.92553 -2.93368 0
M  V30 4311 H 427.714 -5.5032 -2.39306 0
M  V30 4312 H 428.784 -4.68828 -1.23807 0
M  V30 4313 N 430.127 0.543554 -1.4793 0
M  V30 4314 C 431.075 1.67039 -1.61866 0
M  V30 4315 C 432.069 1.62294 -0.48549 0
M  V30 4316 O 433.275 1.67315 -0.66376 0
M  V30 4317 H 429.65 0.552954 -0.509652 0
M  V30 4318 H 431.621 1.52426 -2.56533 0
M  V30 4319 C 430.37 3.05357 -1.6629 0
M  V30 4320 H 429.693 3.09696 -2.5284 0
M  V30 4321 H 431.133 3.83855 -1.80088 0
M  V30 4322 C 429.592 3.34531 -0.398861 0
M  V30 4323 O 430.122 3.98649 0.494162 0
M  V30 4324 N 428.328 2.89299 -0.2747 0
M  V30 4325 H 427.875 2.37298 -1.00236 0
M  V30 4326 H 427.833 3.09188 0.570075 0
M  V30 4327 N 431.605 1.3629 0.791371 0
M  V30 4328 C 432.83 1.33726 1.58531 0
M  V30 4329 C 433.255 -0.0794933 1.87932 0
M  V30 4330 O 432.613 -1.05087 1.47738 0
M  V30 4331 C 432.661 2.16425 2.88431 0
M  V30 4332 O 431.765 1.5554 3.81944 0
M  V30 4333 H 431.106 0.457793 0.480959 0
M  V30 4334 H 433.636 1.79547 0.981031 0
M  V30 4335 H 433.646 2.28933 3.37718 0
M  V30 4336 H 432.321 3.19415 2.66359 0
M  V30 4337 H 430.898 1.51961 3.40532 0
M  V30 4338 N 433.083 -1.0153 1.20538 0
M  V30 4339 C 434.499 -1.27461 0.96051 0
M  V30 4340 C 434.699 -1.98273 -0.359193 0
M  V30 4341 O 433.755 -2.27886 -1.0874 0
M  V30 4342 C 435.068 -2.10837 2.14402 0
M  V30 4343 C 436.616 -2.24099 2.18515 0
M  V30 4344 C 437.091 -3.10852 3.36355 0
M  V30 4345 N 438.582 -3.18441 3.36377 0
M  V30 4346 C 439.317 -3.85795 4.24205 0
M  V30 4347 N 438.813 -4.55264 5.22213 0
M  V30 4348 N 440.606 -3.82331 4.12043 0
M  V30 4349 H 432.757 -0.539907 2.05423 0
M  V30 4350 H 435.02 -0.30092 0.898972 0
M  V30 4351 H 434.726 -1.66144 3.09983 0
M  V30 4352 H 434.6 -3.11576 2.12604 0
M  V30 4353 H 436.987 -2.68016 1.23497 0
M  V30 4354 H 437.068 -1.22865 2.24361 0
M  V30 4355 H 436.712 -2.6764 4.31661 0
M  V30 4356 H 436.642 -4.12177 3.27746 0
M  V30 4357 H 439.133 -2.68978 2.65442 0
M  V30 4358 H 439.446 -5.04331 5.85551 0
M  V30 4359 H 437.791 -4.54085 5.26148 0
M  V30 4360 H 440.982 -3.27207 3.34743 0
M  V30 4361 H 441.155 -4.34547 4.807 0
M  V30 4362 N 434.561 -1.01147 -1.20859 0
M  V30 4363 C 435.807 -0.698899 -1.90377 0
M  V30 4364 C 436.14 0.76904 -1.78324 0
M  V30 4365 O 435.415 1.55817 -1.16409 0
M  V30 4366 C 435.698 -1.12878 -3.41951 0
M  V30 4367 C 435.551 -2.65665 -3.62963 0
M  V30 4368 C 436.87 -0.696114 -4.3456 0
M  V30 4369 H 433.989 -0.255372 -0.691342 0
M  V30 4370 H 436.631 -1.25831 -1.42361 0
M  V30 4371 H 434.781 -0.652827 -3.82976 0
M  V30 4372 H 436.453 -3.21074 -3.31224 0
M  V30 4373 H 434.696 -3.06878 -3.06608 0
M  V30 4374 H 435.367 -2.90797 -4.69192 0
M  V30 4375 H 437.843 -1.10521 -4.01154 0
M  V30 4376 H 436.719 -1.025 -5.39245 0
M  V30 4377 H 436.98 0.402465 -4.40264 0
M  V30 4378 N 436.039 1.36541 -0.78704 0
M  V30 4379 C 437.285 1.99599 -0.358872 0
M  V30 4380 C 437.618 1.62323 1.06606 0
M  V30 4381 O 436.893 0.876858 1.73613 0
M  V30 4382 C 437.176 3.56327 -0.519944 0
M  V30 4383 C 437.029 4.03464 -1.98839 0
M  V30 4384 C 438.348 4.4005 0.0664737 0
M  V30 4385 H 435.467 0.725107 -0.131869 0
M  V30 4386 H 438.109 1.6199 -0.992936 0
M  V30 4387 H 436.259 3.88495 0.0198321 0
M  V30 4388 H 437.931 3.81793 -2.58905 0
M  V30 4389 H 436.174 3.55092 -2.49183 0
M  V30 4390 H 436.845 5.12439 -2.05207 0
M  V30 4391 H 439.321 4.14228 -0.394267 0
M  V30 4392 H 438.197 5.48847 -0.0762682 0
M  V30 4393 H 438.458 4.26655 1.15835 0
M  V30 4394 N 437.518 0.538854 1.48102 0
M  V30 4395 C 438.465 -0.219042 2.29758 0
M  V30 4396 C 439.435 -0.925562 1.37922 0
M  V30 4397 O 440.62 -0.924855 1.66886 0
M  V30 4398 C 437.76 -1.25452 3.2149 0
M  V30 4399 C 436.873 -0.555943 4.28408 0
M  V30 4400 C 436.008 -1.57512 5.0731 0
M  V30 4401 C 435.047 -0.860498 6.06021 0
M  V30 4402 N 434.184 -1.82564 6.77949 0
M  V30 4403 H 439.024 0.483449 2.94052 0
M  V30 4404 H 436.561 0.250247 1.44956 0
M  V30 4405 H 438.519 -1.86727 3.7308 0
M  V30 4406 H 437.149 -1.92528 2.591 0
M  V30 4407 H 436.201 0.170938 3.80016 0
M  V30 4408 H 437.513 0.00474616 4.988 0
M  V30 4409 H 436.667 -2.26191 5.62959 0
M  V30 4410 H 435.406 -2.16972 4.36778 0
M  V30 4411 H 434.411 -0.159686 5.49568 0
M  V30 4412 H 435.636 -0.271897 6.78555 0
M  V30 4413 H 433.582 -2.40915 6.10161 0
M  V30 4414 H 433.499 -1.31662 7.44447 0
M  V30 4415 H 434.767 -2.50414 7.38182 0
M  V30 4416 N 438.996 -1.55193 0.274407 0
M  V30 4417 C 439.926 -2.25471 -0.607032 0
M  V30 4418 C 440.907 -1.24461 -1.15946 0
M  V30 4419 O 442.092 -1.53179 -1.19373 0
M  V30 4420 C 439.222 -2.97526 -1.79153 0
M  V30 4421 C 438.176 -4.05459 -1.37067 0
M  V30 4422 C 437.502 -4.65084 -2.6382 0
M  V30 4423 C 438.802 -5.19691 -0.521389 0
M  V30 4424 H 440.496 -2.99393 -0.0209343 0
M  V30 4425 H 438.042 -1.43997 -0.00862866 0
M  V30 4426 H 439.995 -3.45402 -2.41404 0
M  V30 4427 H 438.719 -2.21138 -2.40344 0
M  V30 4428 H 437.378 -3.58393 -0.771355 0
M  V30 4429 H 437.026 -3.85365 -3.23268 0
M  V30 4430 H 436.726 -5.37961 -2.36372 0
M  V30 4431 H 438.25 -5.15708 -3.26921 0
M  V30 4432 H 439.664 -5.63623 -1.04889 0
M  V30 4433 H 438.061 -5.99126 -0.341825 0
M  V30 4434 H 439.131 -4.82713 0.46 0
M  V30 4435 N 440.474 -0.00167713 -1.576 0
M  V30 4436 C 441.72 0.683832 -1.90923 0
M  V30 4437 C 442.053 1.7333 -0.875799 0
M  V30 4438 O 441.328 1.94215 0.10525 0
M  V30 4439 C 441.611 1.32543 -3.3482 0
M  V30 4440 C 441.464 0.287387 -4.48881 0
M  V30 4441 C 442.783 2.25114 -3.78169 0
M  V30 4442 H 439.902 0.247125 -0.694333 0
M  V30 4443 H 442.544 -0.0533149 -1.89925 0
M  V30 4444 H 440.694 1.95372 -3.35801 0
M  V30 4445 H 442.366 -0.341346 -4.60035 0
M  V30 4446 H 440.609 -0.39017 -4.32042 0
M  V30 4447 H 441.28 0.775393 -5.46527 0
M  V30 4448 H 443.756 1.723 -3.7875 0
M  V30 4449 H 442.632 2.66971 -4.79602 0
M  V30 4450 H 442.893 3.13092 -3.12131 0
M  V30 4451 N 441.952 1.55251 0.271103 0
M  V30 4452 C 443.198 1.76207 1.00394 0
M  V30 4453 C 443.531 0.562604 1.85872 0
M  V30 4454 O 442.806 -0.439785 1.89463 0
M  V30 4455 C 443.089 3.06828 1.8849 0
M  V30 4456 C 442.942 4.37134 1.05992 0
M  V30 4457 C 444.261 3.33503 2.87165 0
M  V30 4458 H 441.38 0.641086 0.363562 0
M  V30 4459 H 444.022 1.87982 0.276189 0
M  V30 4460 H 442.172 2.96921 2.5054 0
M  V30 4461 H 443.844 4.59001 0.459978 0
M  V30 4462 H 442.087 4.32275 0.363443 0
M  V30 4463 H 442.758 5.2486 1.70955 0
M  V30 4464 H 445.234 3.43215 2.3525 0
M  V30 4465 H 444.11 4.2616 3.45946 0
M  V30 4466 H 444.371 2.53235 3.62387 0
M  V30 4467 N 443.43 -0.535701 1.48216 0
M  V30 4468 C 444.378 -1.66179 1.62749 0
M  V30 4469 C 445.372 -1.62034 0.49409 0
M  V30 4470 O 446.578 -1.6696 0.672624 0
M  V30 4471 H 442.953 -0.550244 0.512578 0
M  V30 4472 H 444.924 -1.51063 2.57337 0
M  V30 4473 C 443.673 -3.04471 1.67907 0
M  V30 4474 H 442.996 -3.08351 2.54479 0
M  V30 4475 H 444.436 -3.82894 1.82121 0
M  V30 4476 C 442.895 -3.34314 0.416596 0
M  V30 4477 O 443.425 -3.98905 -0.473014 0
M  V30 4478 N 441.631 -2.89149 0.290038 0
M  V30 4479 H 441.178 -2.36764 1.01493 0
M  V30 4480 H 441.136 -3.09486 -0.55367 0
M  V30 4481 N 444.908 -1.36708 -0.784132 0
M  V30 4482 C 446.185 -1.21776 -1.53069 0
M  V30 4483 C 446.565 0.193876 -2.10208 0
M  V30 4484 O 445.913 1.20012 -1.94446 0
M  V30 4485 C 446.123 -2.30395 -2.62143 0
M  V30 4486 C 447.471 -2.67325 -3.29882 0
M  V30 4487 O 448.495 -2.29478 -2.7243 0
M  V30 4488 O 447.354 -3.32485 -4.33724 0
M  V30 4489 H 444.448 -0.474459 -0.677361 0
M  V30 4490 H 446.994 -1.48454 -0.82216 0
M  V30 4491 H 445.766 -3.2498 -2.17953 0
M  V30 4492 H 445.389 -2.05112 -3.40609 0
M  V30 4493 N 446.386 1.0089 -1.21074 0
M  V30 4494 C 447.663 1.71834 -0.934469 0
M  V30 4495 C 448.043 2.0368 0.554753 0
M  V30 4496 O 447.391 1.70742 1.51854 0
M  V30 4497 C 447.601 2.98061 -1.8155 0
M  V30 4498 C 448.949 3.7117 -2.06199 0
M  V30 4499 O 449.973 3.08034 -1.78867 0
M  V30 4500 O 448.832 4.84721 -2.52404 0
M  V30 4501 H 445.926 0.749253 -0.35007 0
M  V30 4502 H 448.472 1.06668 -1.31985 0
M  V30 4503 H 447.244 2.70908 -2.82355 0
M  V30 4504 H 446.867 3.70968 -1.43068 0
M  V30 4505 N 447.864 1.01787 1.20321 0
M  V30 4506 C 448.814 0.559976 2.21016 0
M  V30 4507 C 449.798 -0.385366 1.56217 0
M  V30 4508 O 450.99 -0.208126 1.75772 0
M  V30 4509 C 448.119 -0.0990553 3.43157 0
M  V30 4510 C 447.205 0.86807 4.15121 0
M  V30 4511 N 447.596 2.0261 4.63447 0
M  V30 4512 C 445.894 0.689162 4.40643 0
M  V30 4513 C 446.595 2.63518 5.18588 0
M  V30 4514 N 445.571 1.91569 5.08726 0
M  V30 4515 H 449.373 1.44281 2.56048 0
M  V30 4516 H 446.887 0.883381 1.36272 0
M  V30 4517 H 448.884 -0.444643 4.14522 0
M  V30 4518 H 447.544 -0.977709 3.0963 0
M  V30 4519 H 448.555 2.40598 4.58621 0
M  V30 4520 H 445.232 -0.14133 4.17261 0
M  V30 4521 H 446.622 3.61527 5.66346 0
M  V30 4522 N 449.342 -1.36122 0.79427 0
M  V30 4523 C 450.567 -2.03891 0.379871 0
M  V30 4524 C 450.992 -1.59488 -0.997251 0
M  V30 4525 O 450.35 -0.765652 -1.64339 0
M  V30 4526 C 450.398 -3.57687 0.457442 0
M  V30 4527 O 449.502 -4.08931 -0.5338 0
M  V30 4528 H 448.843 -0.6443 0.160541 0
M  V30 4529 H 451.373 -1.73976 1.07673 0
M  V30 4530 H 451.383 -4.06721 0.322792 0
M  V30 4531 H 450.058 -3.89357 1.46199 0
M  V30 4532 H 448.635 -3.71154 -0.360409 0
M  V30 4533 N 450.82 -0.546701 -1.47814 0
M  V30 4534 C 452.066 -0.0187684 -2.02791 0
M  V30 4535 C 452.399 1.32338 -1.42128 0
M  V30 4536 O 451.674 1.85867 -0.573023 0
M  V30 4537 C 451.957 0.0854985 -3.59998 0
M  V30 4538 C 451.81 -1.283 -4.31114 0
M  V30 4539 C 453.129 0.80412 -4.32691 0
M  V30 4540 H 450.248 -0.0082946 -0.736953 0
M  V30 4541 H 452.89 -0.706962 -1.76358 0
M  V30 4542 H 451.04 0.671609 -3.82651 0
M  V30 4543 H 452.712 -1.91151 -4.19832 0
M  V30 4544 H 450.955 -1.86049 -3.91878 0
M  V30 4545 H 451.626 -1.16287 -5.39612 0
M  V30 4546 H 454.102 0.306576 -4.14969 0
M  V30 4547 H 452.978 0.846011 -5.42341 0
M  V30 4548 H 453.239 1.85802 -4.01161 0
M  V30 4549 N 452.299 1.55045 -0.282633 0
M  V30 4550 C 453.545 2.00056 0.332481 0
M  V30 4551 C 453.878 1.1708 1.54939 0
M  V30 4552 O 453.153 0.2427 1.9298 0
M  V30 4553 C 453.436 3.53086 0.70725 0
M  V30 4554 C 453.289 4.46813 -0.517521 0
M  V30 4555 C 454.608 4.12245 1.54084 0
M  V30 4556 H 451.727 0.727268 0.119373 0
M  V30 4557 H 454.369 1.85932 -0.391076 0
M  V30 4558 H 452.519 3.65253 1.32372 0
M  V30 4559 H 454.191 4.46579 -1.15607 0
M  V30 4560 H 452.434 4.18163 -1.1542 0
M  V30 4561 H 453.105 5.51595 -0.211426 0
M  V30 4562 H 455.581 4.03401 1.02013 0
M  V30 4563 H 454.457 5.19515 1.77186 0
M  V30 4564 H 454.718 3.62951 2.52427 0
M  V30 4565 N 453.777 0.010035 1.57597 0
M  V30 4566 C 455.025 -0.671371 1.90623 0
M  V30 4567 C 455.346 -1.73753 0.885151 0
M  V30 4568 O 454.616 -1.95752 -0.0760611 0
M  V30 4569 H 453.196 -0.250968 0.703579 0
M  V30 4570 H 455.858 0.0533325 1.94827 0
M  V30 4571 H 454.954 -1.13626 2.90681 0
M  V30 4572 N 455.255 -1.55392 -0.262866 0
M  V30 4573 C 456.218 -1.88181 -1.30846 0
M  V30 4574 C 457.218 -0.757079 -1.41862 0
M  V30 4575 O 458.408 -1.02519 -1.40838 0
M  V30 4576 C 455.54 -2.09609 -2.68844 0
M  V30 4577 H 456.733 -2.81659 -1.02997 0
M  V30 4578 H 454.286 -1.48039 -0.501414 0
M  V30 4579 H 455.021 -1.18547 -3.01856 0
M  V30 4580 H 454.806 -2.91508 -2.62231 0
M  V30 4581 H 456.296 -2.36215 -3.44372 0
M  V30 4582 N 456.733 0.527833 -1.48498 0
M  V30 4583 C 457.979 1.28545 -1.56857 0
M  V30 4584 C 458.312 1.92678 -0.242651 0
M  V30 4585 O 457.587 1.79394 0.751545 0
M  V30 4586 C 457.87 2.37314 -2.70839 0
M  V30 4587 C 457.723 1.77858 -4.13142 0
M  V30 4588 C 459.042 3.39068 -2.80573 0
M  V30 4589 H 456.161 0.466006 -0.570971 0
M  V30 4590 H 458.803 0.587784 -1.8068 0
M  V30 4591 H 456.953 2.96821 -2.50658 0
M  V30 4592 H 458.625 1.22385 -4.44769 0
M  V30 4593 H 456.868 1.08383 -4.20042 0
M  V30 4594 H 457.539 2.56624 -4.88721 0
M  V30 4595 H 460.015 2.89518 -2.98862 0
M  V30 4596 H 458.891 4.12566 -3.6205 0
M  V30 4597 H 459.152 3.9975 -1.88818 0
M  V30 4598 N 458.211 1.37122 0.776871 0
M  V30 4599 C 459.457 1.32243 1.53752 0
M  V30 4600 C 459.79 -0.0944745 1.9397 0
M  V30 4601 O 459.065 -1.05068 1.6368 0
M  V30 4602 C 459.348 2.25681 2.80607 0
M  V30 4603 C 459.201 3.76127 2.46676 0
M  V30 4604 C 460.52 2.17657 3.82509 0
M  V30 4605 H 457.639 0.481704 0.557791 0
M  V30 4606 H 460.281 1.6778 0.891612 0
M  V30 4607 H 458.431 1.95505 3.35723 0
M  V30 4608 H 460.103 4.16877 1.97513 0
M  V30 4609 H 458.346 3.94946 1.79443 0
M  V30 4610 H 459.017 4.36933 3.37333 0
M  V30 4611 H 461.493 2.44245 3.36873 0
M  V30 4612 H 460.369 2.85185 4.69 0
M  V30 4613 H 460.63 1.16785 4.26396 0
M  V30 4614 N 459.689 -1.00246 1.21608 0
M  V30 4615 C 460.639 -2.07492 0.945051 0
M  V30 4616 C 461.623 -1.60585 -0.100675 0
M  V30 4617 O 462.815 -1.76667 0.10859 0
M  V30 4618 C 459.944 -3.39425 0.514342 0
M  V30 4619 C 459.03 -3.92993 1.59428 0
M  V30 4620 N 459.421 -4.19898 2.81991 0
M  V30 4621 C 457.719 -4.21297 1.46374 0
M  V30 4622 C 458.42 -4.63297 3.51754 0
M  V30 4623 N 457.396 -4.66421 2.79199 0
M  V30 4624 H 461.198 -2.26222 1.87619 0
M  V30 4625 H 458.712 -1.18339 1.11219 0
M  V30 4626 H 460.709 -4.15808 0.301527 0
M  V30 4627 H 459.369 -3.22101 -0.410008 0
M  V30 4628 H 460.38 -4.08377 3.1851 0
M  V30 4629 H 457.057 -4.13095 0.604863 0
M  V30 4630 H 458.447 -4.92816 4.56708 0
M  V30 4631 N 461.167 -1.02423 -1.1978 0
M  V30 4632 C 462.415 -0.716569 -1.8897 0
M  V30 4633 C 462.736 0.756769 -1.79716 0
M  V30 4634 O 462.006 1.5449 -1.20456 0
M  V30 4635 H 460.586 -0.262062 -0.699523 0
M  V30 4636 H 463.248 -1.29747 -1.45436 0
M  V30 4637 H 462.344 -1.00675 -2.95417 0
M  V30 4638 N 462.645 1.35699 -0.801477 0
M  V30 4639 C 463.592 2.29876 -0.206294 0
M  V30 4640 C 464.562 1.52565 0.656752 0
M  V30 4641 O 465.747 1.81024 0.602906 0
M  V30 4642 C 462.887 3.39052 0.643272 0
M  V30 4643 C 462 4.31335 -0.239644 0
M  V30 4644 C 461.135 5.27599 0.61744 0
M  V30 4645 C 460.174 6.11521 -0.26619 0
M  V30 4646 N 459.311 6.99938 0.550571 0
M  V30 4647 H 464.151 2.80187 -1.01484 0
M  V30 4648 H 461.688 1.37902 -0.511997 0
M  V30 4649 H 463.646 4.0101 1.15094 0
M  V30 4650 H 462.276 2.9003 1.41713 0
M  V30 4651 H 461.328 3.70426 -0.865381 0
M  V30 4652 H 462.64 4.90243 -0.919985 0
M  V30 4653 H 461.794 5.94906 1.19045 0
M  V30 4654 H 460.533 4.69176 1.33137 0
M  V30 4655 H 459.538 5.43166 -0.851507 0
M  V30 4656 H 460.763 6.72022 -0.9779 0
M  V30 4657 H 458.709 6.44008 1.24856 0
M  V30 4658 H 458.626 7.55966 -0.071832 0
M  V30 4659 H 459.894 7.71599 1.10702 0
M  V30 4660 N 464.123 0.554532 1.47522 0
M  V30 4661 C 465.073 -0.215008 2.26984 0
M  V30 4662 C 466.057 -0.88774 1.34194 0
M  V30 4663 O 467.249 -0.786489 1.58567 0
M  V30 4664 C 464.378 -1.24604 3.19889 0
M  V30 4665 C 463.464 -0.576857 4.20159 0
M  V30 4666 N 463.855 0.351541 5.04577 0
M  V30 4667 C 462.153 -0.831104 4.38188 0
M  V30 4668 C 462.854 0.739995 5.76974 0
M  V30 4669 N 461.83 0.0954407 5.43516 0
M  V30 4670 H 465.632 0.498843 2.89636 0
M  V30 4671 H 463.146 0.374279 1.58028 0
M  V30 4672 H 465.143 -1.81128 3.75498 0
M  V30 4673 H 463.803 -1.96101 2.58794 0
M  V30 4674 H 464.814 0.725556 5.12792 0
M  V30 4675 H 461.491 -1.53479 3.88266 0
M  V30 4676 H 462.881 1.50271 6.5488 0
M  V30 4677 N 465.601 -1.54893 0.290851 0
M  V30 4678 C 466.829 -2.04343 -0.324288 0
M  V30 4679 C 467.244 -1.16859 -1.48289 0
M  V30 4680 O 466.601 -0.192018 -1.81487 0
M  V30 4681 C 466.652 -3.52756 -0.79026 0
M  V30 4682 O 466.373 -4.36913 0.322213 0
M  V30 4683 C 467.874 -4.18161 -1.4716 0
M  V30 4684 H 465.094 -0.667135 -0.0719173 0
M  V30 4685 H 467.638 -1.99981 0.427529 0
M  V30 4686 H 465.793 -3.57511 -1.49213 0
M  V30 4687 H 466.207 -5.24486 -0.0387372 0
M  V30 4688 H 467.681 -5.23562 -1.7489 0
M  V30 4689 H 468.158 -3.67282 -2.40834 0
M  V30 4690 H 468.764 -4.17454 -0.813178 0
M  V30 4691 N 467.08 -0.0183926 -1.57589 0
M  V30 4692 C 468.328 0.661253 -1.90976 0
M  V30 4693 C 468.649 1.73281 -0.894353 0
M  V30 4694 O 467.919 1.9579 0.0656788 0
M  V30 4695 H 466.499 0.247233 -0.704901 0
M  V30 4696 H 469.161 -0.0636639 -1.94796 0
M  V30 4697 H 468.257 1.12083 -2.9128 0
M  V30 4698 N 468.558 1.5553 0.254621 0
M  V30 4699 C 469.788 1.80784 1.00004 0
M  V30 4700 C 470.196 0.59071 1.79742 0
M  V30 4701 O 469.539 -0.449988 1.78103 0
M  V30 4702 C 469.601 2.99268 1.99196 0
M  V30 4703 C 469.265 4.35595 1.38224 0
M  V30 4704 C 470.262 5.13884 0.788611 0
M  V30 4705 C 467.947 4.82281 1.40393 0
M  V30 4706 C 469.941 6.37004 0.224783 0
M  V30 4707 C 467.628 6.05351 0.836243 0
M  V30 4708 C 468.626 6.82551 0.24769 0
M  V30 4709 O 468.314 8.03297 -0.311249 0
M  V30 4710 H 468.046 0.60565 0.300274 0
M  V30 4711 H 470.6 2.03411 0.285143 0
M  V30 4712 H 468.83 2.72377 2.74496 0
M  V30 4713 H 470.519 3.11682 2.60018 0
M  V30 4714 H 471.285 4.78938 0.764423 0
M  V30 4715 H 467.164 4.22189 1.85142 0
M  V30 4716 H 470.708 6.97203 -0.235235 0
M  V30 4717 H 466.605 6.39776 0.857733 0
M  V30 4718 H 467.373 8.1825 -0.20237 0
M  V30 4719 N 470.036 -0.519951 1.48776 0
M  V30 4720 C 471.266 -1.29783 1.60748 0
M  V30 4721 C 471.674 -1.87253 0.27072 0
M  V30 4722 O 471.017 -1.67628 -0.751438 0
M  V30 4723 C 471.079 -2.47984 2.60277 0
M  V30 4724 C 470.743 -2.11526 4.051 0
M  V30 4725 C 471.74 -1.66608 4.92481 0
M  V30 4726 C 469.425 -2.21742 4.50706 0
M  V30 4727 C 471.419 -1.32384 6.23501 0
M  V30 4728 C 469.106 -1.87129 5.81744 0
M  V30 4729 C 470.104 -1.42523 6.67964 0
M  V30 4730 O 469.792 -1.0837 7.96562 0
M  V30 4731 H 469.524 -0.400562 0.544542 0
M  V30 4732 H 472.078 -0.632879 1.95407 0
M  V30 4733 H 470.308 -3.17493 2.2076 0
M  V30 4734 H 471.997 -3.10036 2.61978 0
M  V30 4735 H 472.763 -1.58178 4.58481 0
M  V30 4736 H 468.642 -2.55415 3.83776 0
M  V30 4737 H 472.186 -0.974949 6.90754 0
M  V30 4738 H 468.083 -1.95204 6.15277 0
M  V30 4739 H 468.851 -1.21681 8.09405 0
M  V30 4740 N 471.514 -1.37532 -0.769588 0
M  V30 4741 C 472.447 -1.27839 -1.8903 0
M  V30 4742 C 473.425 -0.158504 -1.61826 0
M  V30 4743 O 474.609 -0.333086 -1.85534 0
M  V30 4744 C 471.736 -0.977072 -3.24301 0
M  V30 4745 C 470.782 -2.11414 -3.70414 0
M  V30 4746 S 471.615 -3.73409 -3.83831 0
M  V30 4747 C 472.771 -3.45432 -5.21946 0
M  V30 4748 H 473.004 -2.22694 -1.96963 0
M  V30 4749 H 470.537 -1.2318 -0.930914 0
M  V30 4750 H 472.495 -0.810049 -4.02428 0
M  V30 4751 H 471.156 -0.0459701 -3.14066 0
M  V30 4752 H 470.349 -1.85837 -4.68488 0
M  V30 4753 H 469.951 -2.24141 -2.99394 0
M  V30 4754 H 472.243 -3.00554 -6.07185 0
M  V30 4755 H 473.186 -4.42841 -5.52537 0
M  V30 4756 H 473.594 -2.80311 -4.89986 0
M  V30 4757 N 472.992 0.995999 -1.22138 0
M  V30 4758 C 474.241 1.72928 -1.03821 0
M  V30 4759 C 474.554 1.90872 0.427444 0
M  V30 4760 O 475.76 2.61496 0.730212 0
M  V30 4761 C 474.216 3.11124 -1.80913 0
M  V30 4762 C 473.824 3.01122 -3.31707 0
M  V30 4763 C 475.568 3.8852 -1.71035 0
M  V30 4764 C 473.475 4.34453 -4.01253 0
M  V30 4765 H 472.405 0.648376 -0.384869 0
M  V30 4766 H 475.056 1.11213 -1.45959 0
M  V30 4767 H 473.438 3.73503 -1.31573 0
M  V30 4768 H 474.612 2.47926 -3.88419 0
M  V30 4769 H 472.927 2.3721 -3.42228 0
M  V30 4770 H 475.524 4.872 -2.20318 0
M  V30 4771 H 475.867 4.1087 -0.670196 0
M  V30 4772 H 476.4 3.32812 -2.17902 0
M  V30 4773 H 473.139 4.17303 -5.05508 0
M  V30 4774 H 472.659 4.87574 -3.49331 0
M  V30 4775 H 474.338 5.03215 -4.06674 0
M  V30 4776 N 474.47 1.03057 1.19235 0
M  V30 4777 C 475.718 0.726581 1.88587 0
M  V30 4778 C 476.039 -0.747227 1.80115 0
M  V30 4779 O 475.309 -1.53849 1.21274 0
M  V30 4780 H 473.889 0.265768 0.698124 0
M  V30 4781 H 476.551 1.30516 1.44746 0
M  V30 4782 H 475.647 1.0224 2.94879 0
M  V30 4783 N 475.948 -1.35272 0.808662 0
M  V30 4784 C 476.911 -2.28082 0.226093 0
M  V30 4785 C 477.911 -1.49673 -0.587762 0
M  V30 4786 O 479.101 -1.69404 -0.405943 0
M  V30 4787 C 476.233 -3.33955 -0.684596 0
M  V30 4788 H 477.426 -2.81116 1.04469 0
M  V30 4789 H 474.979 -1.45162 0.579466 0
M  V30 4790 H 475.714 -2.86111 -1.5268 0
M  V30 4791 H 475.499 -3.91965 -0.102699 0
M  V30 4792 H 476.989 -4.03219 -1.08646 0
M  V30 4793 N 477.426 -0.562348 -1.47226 0
M  V30 4794 C 478.373 0.182461 -2.30078 0
M  V30 4795 C 479.343 0.903503 -1.39377 0
M  V30 4796 O 480.528 0.898188 -1.68337 0
M  V30 4797 C 477.668 1.20322 -3.23445 0
M  V30 4798 C 476.781 0.487717 -4.29238 0
M  V30 4799 C 475.916 1.49422 -5.09752 0
M  V30 4800 C 474.955 0.763976 -6.07314 0
M  V30 4801 N 474.092 1.71755 -6.80768 0
M  V30 4802 H 478.932 -0.530169 -2.93246 0
M  V30 4803 H 476.469 -0.273276 -1.44539 0
M  V30 4804 H 478.427 1.80768 -3.76004 0
M  V30 4805 H 477.057 1.88382 -2.6213 0
M  V30 4806 H 476.109 -0.231374 -3.79696 0
M  V30 4807 H 477.421 -0.0841003 -4.98729 0
M  V30 4808 H 476.575 2.17206 -5.66486 0
M  V30 4809 H 475.314 2.09995 -4.40174 0
M  V30 4810 H 474.319 0.0722344 -5.49753 0
M  V30 4811 H 475.544 0.16391 -6.78902 0
M  V30 4812 H 473.49 2.31177 -6.13916 0
M  V30 4813 H 473.407 1.19802 -7.46447 0
M  V30 4814 H 474.675 2.38638 -7.42073 0
M  V30 4815 N 478.904 1.54736 -0.299062 0
M  V30 4816 C 480.129 2.04975 0.316254 0
M  V30 4817 C 480.554 1.17501 1.46885 0
M  V30 4818 O 479.912 0.178678 1.80417 0
M  V30 4819 C 479.96 3.52672 0.751997 0
M  V30 4820 O 479.064 3.68226 1.85697 0
M  V30 4821 H 478.405 0.661126 0.0617175 0
M  V30 4822 H 480.935 1.99805 -0.440341 0
M  V30 4823 H 480.945 3.94488 1.04133 0
M  V30 4824 H 479.62 4.158 -0.0911482 0
M  V30 4825 H 478.197 3.38316 1.56834 0
M  V30 4826 N 480.382 0.0267497 1.57577 0
M  V30 4827 C 481.628 -0.653371 1.91987 0
M  V30 4828 C 481.961 -1.71915 0.903263 0
M  V30 4829 O 481.236 -1.94358 -0.0743387 0
M  V30 4830 C 481.519 -1.272 3.36886 0
M  V30 4831 C 481.372 -0.215938 4.49281 0
M  V30 4832 C 482.691 -2.19069 3.81703 0
M  V30 4833 H 479.81 -0.236047 0.698177 0
M  V30 4834 H 482.452 0.0835236 1.89816 0
M  V30 4835 H 480.602 -1.90005 3.38866 0
M  V30 4836 H 482.274 0.41449 4.59434 0
M  V30 4837 H 480.517 0.458855 4.31366 0
M  V30 4838 H 481.188 -0.688347 5.47691 0
M  V30 4839 H 483.664 -1.66253 3.81444 0
M  V30 4840 H 482.54 -2.59307 4.83788 0
M  V30 4841 H 482.801 -3.08087 3.17072 0
M  V30 4842 N 481.861 -1.55662 -0.24637 0
M  V30 4843 C 483.107 -1.77782 -0.975779 0
M  V30 4844 C 483.44 -0.592103 -1.84953 0
M  V30 4845 O 482.715 0.409588 -1.90138 0
M  V30 4846 C 482.998 -3.09788 -1.83584 0
M  V30 4847 C 482.851 -4.38764 -0.990241 0
M  V30 4848 C 484.17 -3.38029 -2.81823 0
M  V30 4849 H 481.289 -0.646789 -0.353317 0
M  V30 4850 H 483.931 -1.88398 -0.246248 0
M  V30 4851 H 482.081 -3.00869 -2.45784 0
M  V30 4852 H 483.753 -4.59675 -0.386897 0
M  V30 4853 H 481.996 -4.32798 -0.294626 0
M  V30 4854 H 482.667 -5.27514 -1.62584 0
M  V30 4855 H 485.143 -3.46915 -2.2976 0
M  V30 4856 H 484.019 -4.3161 -3.39122 0
M  V30 4857 H 484.28 -2.58968 -3.58313 0
M  V30 4858 N 483.339 0.512053 -1.4905 0
M  V30 4859 C 484.269 1.62365 -1.67809 0
M  V30 4860 C 485.25 1.61737 -0.526809 0
M  V30 4861 O 486.435 1.78651 -0.761404 0
M  V30 4862 C 483.565 3.00895 -1.73435 0
M  V30 4863 C 482.519 3.16387 -2.88242 0
M  V30 4864 C 481.845 4.56157 -2.78971 0
M  V30 4865 C 483.145 2.97457 -4.29321 0
M  V30 4866 H 484.839 1.46921 -2.60873 0
M  V30 4867 H 482.385 0.705379 -1.2554 0
M  V30 4868 H 484.338 3.78549 -1.85145 0
M  V30 4869 H 483.062 3.17403 -0.769619 0
M  V30 4870 H 481.721 2.41155 -2.76116 0
M  V30 4871 H 481.369 4.69525 -1.8043 0
M  V30 4872 H 481.069 4.67465 -3.5602 0
M  V30 4873 H 482.593 5.35886 -2.92675 0
M  V30 4874 H 484.007 3.64888 -4.42187 0
M  V30 4875 H 482.404 3.20245 -5.07507 0
M  V30 4876 H 483.474 1.93692 -4.44535 0
M  V30 4877 N 484.817 1.37938 0.762283 0
M  V30 4878 C 485.78 1.34279 1.85747 0
M  V30 4879 C 486.78 0.244969 1.58923 0
M  V30 4880 O 487.97 0.501365 1.66829 0
M  V30 4881 C 485.102 1.08833 3.23061 0
M  V30 4882 H 486.295 2.31705 1.90401 0
M  V30 4883 H 483.848 1.23105 0.963057 0
M  V30 4884 H 484.583 0.119767 3.24079 0
M  V30 4885 H 484.368 1.88306 3.43923 0
M  V30 4886 H 485.858 1.08946 4.03138 0
M  V30 4887 N 486.295 -0.989507 1.22664 0
M  V30 4888 C 487.523 -1.76496 1.07967 0
M  V30 4889 C 487.938 -1.85148 -0.369543 0
M  V30 4890 O 487.295 -1.32408 -1.25596 0
M  V30 4891 C 487.346 -3.19642 1.68853 0
M  V30 4892 O 487.067 -3.11453 3.08105 0
M  V30 4893 C 488.568 -4.13621 1.59475 0
M  V30 4894 H 485.788 -0.55418 0.378319 0
M  V30 4895 H 488.332 -1.24378 1.62328 0
M  V30 4896 H 486.487 -3.68816 1.18547 0
M  V30 4897 H 486.901 -4.01499 3.37489 0
M  V30 4898 H 488.375 -5.11801 2.06795 0
M  V30 4899 H 488.852 -4.35718 0.55191 0
M  V30 4900 H 489.458 -3.70346 2.09103 0
M  V30 4901 N 487.773 -1.03688 -1.18687 0
M  V30 4902 C 489.021 -0.736572 -1.88199 0
M  V30 4903 C 489.342 0.737665 -1.80509 0
M  V30 4904 O 488.612 1.53204 -1.22088 0
M  V30 4905 H 487.192 -0.269466 -0.696704 0
M  V30 4906 H 489.854 -1.31282 -1.44052 0
M  V30 4907 H 488.95 -1.03802 -2.94332 0
M  V30 4908 N 489.251 1.34841 -0.815825 0
M  V30 4909 C 490.499 1.98107 -0.399744 0
M  V30 4910 C 490.82 1.65019 1.03894 0
M  V30 4911 O 490.09 0.937311 1.72021 0
M  V30 4912 H 488.67 0.732827 -0.144823 0
M  V30 4913 H 491.332 1.64599 -1.0437 0
M  V30 4914 H 490.428 3.07856 -0.512965 0
M  V30 4915 N 490.729 0.570148 1.46925 0
M  V30 4916 C 491.959 0.0561151 2.06524 0
M  V30 4917 C 492.367 -1.24874 1.42137 0
M  V30 4918 O 491.71 -1.76292 0.516417 0
M  V30 4919 C 491.772 -0.197035 3.5896 0
M  V30 4920 C 491.436 1.02033 4.45464 0
M  V30 4921 C 492.433 1.92921 4.82781 0
M  V30 4922 C 490.118 1.23864 4.86788 0
M  V30 4923 C 492.112 3.03999 5.60235 0
M  V30 4924 C 489.799 2.35249 5.64004 0
M  V30 4925 C 490.797 3.25146 6.0064 0
M  V30 4926 O 490.485 4.34598 6.76299 0
M  V30 4927 H 490.217 0.0487409 0.674241 0
M  V30 4928 H 492.771 0.786915 1.89728 0
M  V30 4929 H 491.001 -0.982299 3.74016 0
M  V30 4930 H 492.69 -0.658032 4.00531 0
M  V30 4931 H 493.456 1.77265 4.51444 0
M  V30 4932 H 489.335 0.54805 4.57731 0
M  V30 4933 H 492.879 3.74192 5.8875 0
M  V30 4934 H 488.776 2.50873 5.94755 0
M  V30 4935 H 489.544 4.32808 6.94708 0
M  V30 4936 N 492.207 -1.54576 0.307264 0
M  V30 4937 C 493.455 -1.99867 -0.299574 0
M  V30 4938 C 493.776 -1.19714 -1.53927 0
M  V30 4939 O 493.046 -0.29472 -1.9367 0
M  V30 4940 H 491.626 -0.738299 -0.113683 0
M  V30 4941 H 494.288 -1.9032 0.420042 0
M  V30 4942 H 493.384 -3.06901 -0.567283 0
M  V30 4943 N 493.685 -0.035106 -1.57561 0
M  V30 4944 C 494.618 0.979673 -2.06101 0
M  V30 4945 C 495.596 1.31378 -0.958046 0
M  V30 4946 O 496.78 1.42942 -1.22881 0
M  V30 4947 C 493.907 2.29809 -2.48808 0
M  V30 4948 C 492.953 2.11817 -3.70184 0
M  V30 4949 S 493.786 1.41143 -5.16565 0
M  V30 4950 C 494.942 2.74341 -5.62572 0
M  V30 4951 H 495.175 0.566506 -2.91853 0
M  V30 4952 H 492.708 0.176744 -1.53385 0
M  V30 4953 H 494.666 3.056 -2.74078 0
M  V30 4954 H 493.327 2.68257 -1.63392 0
M  V30 4955 H 492.52 3.09299 -3.97933 0
M  V30 4956 H 492.122 1.44168 -3.45097 0
M  V30 4957 H 494.414 3.70562 -5.67177 0
M  V30 4958 H 495.357 2.51249 -6.62027 0
M  V30 4959 H 495.765 2.79863 -4.90242 0
M  V30 4960 N 495.163 1.55791 0.238111 0
M  V30 4961 C 496.111 1.91885 1.31464 0
M  V30 4962 C 497.105 0.798929 1.49377 0
M  V30 4963 O 498.311 0.983626 1.50747 0
M  V30 4964 H 494.686 0.609551 0.440399 0
M  V30 4965 H 496.657 2.81747 0.982925 0
M  V30 4966 C 495.406 2.23763 2.6613 0
M  V30 4967 H 494.729 3.09444 2.53149 0
M  V30 4968 H 496.169 2.52915 3.40309 0
M  V30 4969 C 494.628 1.05699 3.1989 0
M  V30 4970 O 495.158 0.309524 4.00506 0
M  V30 4971 N 493.364 0.845251 2.78036 0
M  V30 4972 H 492.911 1.4548 2.12588 0
M  V30 4973 H 492.869 0.0569973 3.14348 0
M  V30 4974 N 496.642 -0.504142 1.49319 0
M  V30 4975 C 497.589 -1.60603 1.65756 0
M  V30 4976 C 498.559 -1.58425 0.499082 0
M  V30 4977 O 499.744 -1.76459 0.725728 0
M  V30 4978 C 496.884 -2.98764 1.72726 0
M  V30 4979 C 495.997 -3.10982 2.99857 0
M  V30 4980 C 495.132 -4.39857 2.97824 0
M  V30 4981 C 494.171 -4.45697 4.19548 0
M  V30 4982 N 493.308 -5.65995 4.15444 0
M  V30 4983 H 498.148 -1.45895 2.59843 0
M  V30 4984 H 495.685 -0.709891 1.28837 0
M  V30 4985 H 497.643 -3.78839 1.74747 0
M  V30 4986 H 496.273 -3.12183 0.821075 0
M  V30 4987 H 495.325 -2.23991 3.07461 0
M  V30 4988 H 496.637 -3.11157 3.89849 0
M  V30 4989 H 495.791 -5.2825 2.98391 0
M  V30 4990 H 494.53 -4.42242 2.05604 0
M  V30 4991 H 493.535 -3.55707 4.19229 0
M  V30 4992 H 494.76 -4.4503 5.12957 0
M  V30 4993 H 492.706 -5.69229 3.26059 0
M  V30 4994 H 492.623 -5.67773 4.99169 0
M  V30 4995 H 493.891 -6.56604 4.20109 0
M  V30 4996 N 498.12 -1.38341 -0.754957 0
M  V30 4997 C 499.03 -1.3769 -1.89944 0
M  V30 4998 C 500.046 -0.274194 -1.71826 0
M  V30 4999 O 501.222 -0.512391 -1.94773 0
M  V30 5000 C 498.287 -1.19938 -3.25293 0
M  V30 5001 C 497.348 -2.40001 -3.55946 0
M  V30 5002 C 496.581 -2.23087 -4.84838 0
M  V30 5003 O 496.804 -1.22386 -5.57116 0
M  V30 5004 O 495.738 -3.11646 -5.14937 0
M  V30 5005 H 499.564 -2.3412 -1.93446 0
M  V30 5006 H 497.149 -1.19246 -0.900044 0
M  V30 5007 H 499.031 -1.12093 -4.06218 0
M  V30 5008 H 497.706 -0.265919 -3.22606 0
M  V30 5009 H 496.613 -2.53421 -2.75188 0
M  V30 5010 H 497.946 -3.31973 -3.63394 0
M  V30 5011 N 499.598 0.982988 -1.23187 0
M  V30 5012 C 500.531 2.07302 -0.953993 0
M  V30 5013 C 501.509 1.62249 0.106753 0
M  V30 5014 O 502.693 1.88481 -0.0269525 0
M  V30 5015 C 499.82 3.35873 -0.436716 0
M  V30 5016 C 498.866 3.99862 -1.48367 0
M  V30 5017 S 499.699 4.39443 -3.06023 0
M  V30 5018 C 500.855 5.7117 -2.55959 0
M  V30 5019 H 501.088 2.30554 -1.87702 0
M  V30 5020 H 498.621 1.11883 -1.06403 0
M  V30 5021 H 500.579 4.10244 -0.144872 0
M  V30 5022 H 499.24 3.10634 0.465351 0
M  V30 5023 H 498.433 4.92471 -1.07182 0
M  V30 5024 H 498.035 3.31857 -1.72473 0
M  V30 5025 H 500.327 6.47977 -1.97818 0
M  V30 5026 H 501.27 6.17194 -3.47098 0
M  V30 5027 H 501.678 5.29046 -1.96902 0
M  V30 5028 N 501.076 1.04316 1.18135 0
M  V30 5029 C 502.325 0.74319 1.87509 0
M  V30 5030 C 502.638 -0.732136 1.81381 0
M  V30 5031 O 503.844 -1.14572 2.46141 0
M  V30 5032 C 502.3 1.27913 3.36402 0
M  V30 5033 C 501.908 2.78326 3.51053 0
M  V30 5034 C 503.652 1.0558 4.11161 0
M  V30 5035 C 501.559 3.25266 4.93919 0
M  V30 5036 H 500.489 0.274313 0.702331 0
M  V30 5037 H 503.14 1.25931 1.33467 0
M  V30 5038 H 501.522 0.690853 3.89927 0
M  V30 5039 H 502.696 3.42933 3.07788 0
M  V30 5040 H 501.011 2.991 2.89704 0
M  V30 5041 H 503.608 1.38161 5.16542 0
M  V30 5042 H 503.951 -0.00684729 4.16299 0
M  V30 5043 H 504.484 1.60882 3.63816 0
M  V30 5044 H 501.223 4.30922 4.9395 0
M  V30 5045 H 500.743 2.65396 5.3789 0
M  V30 5046 H 502.422 3.19433 5.62647 0
M  V30 5047 N 502.554 -1.34406 0.822964 0
M  V30 5048 C 503.517 -2.2783 0.250271 0
M  V30 5049 C 504.517 -1.50288 -0.571854 0
M  V30 5050 O 505.707 -1.69825 -0.387952 0
M  V30 5051 C 502.839 -3.34663 -0.649137 0
M  V30 5052 H 504.032 -2.79992 1.07444 0
M  V30 5053 H 501.585 -1.44539 0.594829 0
M  V30 5054 H 502.32 -2.87714 -1.49637 0
M  V30 5055 H 502.105 -3.92052 -0.0611199 0
M  V30 5056 H 503.595 -4.04349 -1.04363 0
M  V30 5057 N 504.032 -0.577932 -1.46621 0
M  V30 5058 C 505.262 -0.0670668 -2.06491 0
M  V30 5059 C 505.67 1.24119 -1.42798 0
M  V30 5060 O 505.013 1.76016 -0.525759 0
M  V30 5061 C 505.075 0.177995 -3.59059 0
M  V30 5062 C 504.739 -1.04394 -4.44917 0
M  V30 5063 C 505.736 -1.95479 -4.81751 0
M  V30 5064 C 503.421 -1.26444 -4.86125 0
M  V30 5065 C 505.415 -3.06965 -5.58615 0
M  V30 5066 C 503.102 -2.38237 -5.62749 0
M  V30 5067 C 504.1 -3.28327 -5.98908 0
M  V30 5068 O 503.788 -4.38179 -6.73984 0
M  V30 5069 H 503.52 -0.0523159 -0.673973 0
M  V30 5070 H 506.074 -0.796966 -1.89308 0
M  V30 5071 H 504.304 0.962451 -3.74531 0
M  V30 5072 H 505.993 0.636782 -4.00874 0
M  V30 5073 H 506.759 -1.79657 -4.50498 0
M  V30 5074 H 502.638 -0.572316 -4.57434 0
M  V30 5075 H 506.182 -3.77309 -5.86757 0
M  V30 5076 H 502.079 -2.54023 -5.93416 0
M  V30 5077 H 502.847 -4.36486 -6.92403 0
M  V30 5078 N 505.51 1.54411 -0.315457 0
M  V30 5079 C 506.74 2.04536 0.291315 0
M  V30 5080 C 507.148 1.19162 1.4696 0
M  V30 5081 O 506.491 0.213199 1.82459 0
M  V30 5082 C 506.553 3.5056 0.796725 0
M  V30 5083 C 506.217 4.5627 -0.258178 0
M  V30 5084 C 507.214 5.08312 -1.09153 0
M  V30 5085 C 504.899 5.00672 -0.404036 0
M  V30 5086 C 506.893 6.03312 -2.05655 0
M  V30 5087 C 504.58 5.95488 -1.37248 0
M  V30 5088 C 505.578 6.46693 -2.19721 0
M  V30 5089 O 505.266 7.39648 -3.14921 0
M  V30 5090 H 504.998 0.672856 0.0651165 0
M  V30 5091 H 507.552 2.00244 -0.457308 0
M  V30 5092 H 505.782 3.52223 1.59612 0
M  V30 5093 H 507.471 3.83804 1.32096 0
M  V30 5094 H 508.237 4.74793 -0.98979 0
M  V30 5095 H 504.116 4.60436 0.22799 0
M  V30 5096 H 507.66 6.43203 -2.70067 0
M  V30 5097 H 503.557 6.28424 -1.47489 0
M  V30 5098 H 504.325 7.57496 -3.10067 0
M  V30 5099 N 506.988 0.0434614 1.5754 0
M  V30 5100 C 508.404 -0.313039 1.565 0
M  V30 5101 C 508.604 -1.71954 1.05043 0
M  V30 5102 O 507.66 -2.425 0.703564 0
M  V30 5103 C 508.973 -0.148544 3.00333 0
M  V30 5104 C 510.521 -0.220231 3.12224 0
M  V30 5105 C 510.996 -0.0843565 4.57922 0
M  V30 5106 N 512.487 -0.140881 4.62986 0
M  V30 5107 C 513.222 -0.0597443 5.73369 0
M  V30 5108 N 512.718 0.0733004 6.92761 0
M  V30 5109 N 514.511 -0.11477 5.61983 0
M  V30 5110 H 506.662 0.96303 1.89313 0
M  V30 5111 H 508.925 0.373164 0.871466 0
M  V30 5112 H 508.631 0.820894 3.41986 0
M  V30 5113 H 508.505 -0.912798 3.65989 0
M  V30 5114 H 510.892 -1.18014 2.70475 0
M  V30 5115 H 510.973 0.574646 2.49262 0
M  V30 5116 H 510.617 0.872192 5.00355 0
M  V30 5117 H 510.547 -0.898281 5.18882 0
M  V30 5118 H 513.038 -0.243273 3.77116 0
M  V30 5119 H 513.351 0.128128 7.72694 0
M  V30 5120 H 511.696 0.10828 6.94916 0
M  V30 5121 H 514.887 -0.217212 4.67596 0
M  V30 5122 H 515.06 -0.0480779 6.47982 0
M  V30 5123 N 508.466 -1.55915 -0.229846 0
M  V30 5124 C 509.877 -1.68809 -0.797531 0
M  V30 5125 C 510.228 -0.643995 -1.8533 0
M  V30 5126 O 509.353 0.206492 -2.15413 0
M  V30 5127 C 509.948 -3.06043 -1.45338 0
M  V30 5128 C 508.507 -3.20819 -1.96856 0
M  V30 5129 C 507.654 -2.6472 -0.825736 0
M  V30 5130 H 510.605 -1.58699 -0.00533733 0
M  V30 5131 H 510.626 -3.01438 -2.32196 0
M  V30 5132 H 510.138 -3.82012 -0.684743 0
M  V30 5133 H 508.239 -2.49704 -2.76548 0
M  V30 5134 H 508.352 -4.27937 -2.15423 0
M  V30 5135 H 506.716 -2.22985 -1.23084 0
M  V30 5136 H 507.499 -3.43229 -0.0699019 0
M  V30 5137 N 509.944 0.496216 -1.49584 0
M  V30 5138 C 511.172 1.27394 -1.63029 0
M  V30 5139 C 511.587 1.86344 -0.303569 0
M  V30 5140 O 510.944 1.68057 0.711547 0
M  V30 5141 C 510.995 2.40077 -2.70269 0
M  V30 5142 O 510.716 1.83549 -3.97796 0
M  V30 5143 C 512.217 3.31372 -2.94462 0
M  V30 5144 H 509.437 0.386211 -0.54871 0
M  V30 5145 H 511.981 0.595163 -1.95648 0
M  V30 5146 H 510.136 3.03775 -2.40415 0
M  V30 5147 H 510.55 2.57561 -4.56905 0
M  V30 5148 H 512.024 4.06707 -3.73221 0
M  V30 5149 H 512.501 3.88654 -2.0456 0
M  V30 5150 H 513.107 2.73435 -3.25751 0
M  V30 5151 N 511.423 1.38739 0.74761 0
M  V30 5152 C 512.356 1.3083 1.86972 0
M  V30 5153 C 513.334 0.184229 1.61553 0
M  V30 5154 O 514.518 0.36256 1.8498 0
M  V30 5155 C 511.645 1.02854 3.22705 0
M  V30 5156 C 510.691 2.17281 3.67003 0
M  V30 5157 S 511.524 3.79468 3.77842 0
M  V30 5158 C 512.68 3.53692 5.16385 0
M  V30 5159 H 512.913 2.258 1.93395 0
M  V30 5160 H 510.446 1.24646 0.911199 0
M  V30 5161 H 512.404 0.87397 4.01089 0
M  V30 5162 H 511.065 0.0959295 3.13953 0
M  V30 5163 H 510.258 1.93267 4.65472 0
M  V30 5164 H 509.86 2.28876 2.9579 0
M  V30 5165 H 512.152 3.10176 6.02327 0
M  V30 5166 H 513.095 4.51576 5.45422 0
M  V30 5167 H 513.503 2.8807 4.85464 0
M  V30 5168 N 512.901 -0.976442 1.23707 0
M  V30 5169 C 513.848 -2.06952 1.02174 0
M  V30 5170 C 514.818 -1.65984 -0.0621034 0
M  V30 5171 O 516.003 -1.90584 0.0907906 0
M  V30 5172 C 513.143 -3.39425 0.62327 0
M  V30 5173 C 512.256 -3.9364 1.77966 0
M  V30 5174 C 511.391 -5.14343 1.3276 0
M  V30 5175 C 510.43 -5.60733 2.45449 0
M  V30 5176 N 509.567 -6.72662 2.01172 0
M  V30 5177 H 514.407 -2.24704 1.95734 0
M  V30 5178 H 511.944 -1.10143 0.975034 0
M  V30 5179 H 513.902 -4.15526 0.37332 0
M  V30 5180 H 512.532 -3.21624 -0.275329 0
M  V30 5181 H 511.584 -3.14258 2.14351 0
M  V30 5182 H 512.896 -4.24035 2.62671 0
M  V30 5183 H 512.05 -5.97789 1.03601 0
M  V30 5184 H 510.789 -4.8561 0.450975 0
M  V30 5185 H 509.794 -4.75865 2.75378 0
M  V30 5186 H 511.019 -5.91483 3.33654 0
M  V30 5187 H 508.965 -6.45681 1.15895 0
M  V30 5188 H 508.882 -7.02462 2.79434 0
M  V30 5189 H 510.15 -7.59572 1.75129 0
M  V30 5190 N 514.379 -1.04941 -1.1758 0
M  V30 5191 C 515.656 -0.671918 -1.83697 0
M  V30 5192 C 516.036 0.847929 -1.93322 0
M  V30 5193 O 515.384 1.75287 -1.46583 0
M  V30 5194 C 515.594 -1.35797 -3.21497 0
M  V30 5195 C 516.942 -1.4944 -3.97433 0
M  V30 5196 O 517.966 -1.31678 -3.30967 0
M  V30 5197 O 516.825 -1.78463 -5.1654 0
M  V30 5198 H 513.919 -0.236212 -0.792548 0
M  V30 5199 H 516.465 -1.14884 -1.24899 0
M  V30 5200 H 515.237 -2.39498 -3.09446 0
M  V30 5201 H 514.86 -0.870236 -3.8796 0
M  V30 5202 N 515.857 1.33968 -0.830081 0
M  V30 5203 C 516.79 2.27303 -0.202182 0
M  V30 5204 C 517.768 1.49235 0.645581 0
M  V30 5205 O 518.952 1.78433 0.607762 0
M  V30 5206 C 516.079 3.31025 0.716932 0
M  V30 5207 C 515.125 4.26466 -0.0542271 0
M  V30 5208 S 515.958 5.16707 -1.40622 0
M  V30 5209 C 517.114 6.23962 -0.492167 0
M  V30 5210 H 517.347 2.8021 -0.99346 0
M  V30 5211 H 514.88 1.41124 -0.626359 0
M  V30 5212 H 516.838 3.91271 1.24165 0
M  V30 5213 H 515.499 2.76951 1.4818 0
M  V30 5214 H 514.692 4.99858 0.644785 0
M  V30 5215 H 514.294 3.7051 -0.509722 0
M  V30 5216 H 516.586 6.76774 0.31347 0
M  V30 5217 H 517.529 6.97927 -1.19599 0
M  V30 5218 H 517.937 5.64447 -0.0774176 0
M  V30 5219 N 517.335 0.585699 1.46312 0
M  V30 5220 C 518.563 0.0781299 2.06752 0
M  V30 5221 C 518.978 -1.22812 1.43396 0
M  V30 5222 O 518.335 -1.74318 0.540314 0
M  V30 5223 C 518.386 -0.0911927 3.61385 0
M  V30 5224 O 518.107 1.16336 4.22371 0
M  V30 5225 C 519.608 -0.632765 4.38761 0
M  V30 5226 H 516.828 0.0588188 0.668417 0
M  V30 5227 H 519.372 0.807218 1.87894 0
M  V30 5228 H 517.527 -0.770514 3.7966 0
M  V30 5229 H 517.941 0.979082 5.15281 0
M  V30 5230 H 519.415 -0.70041 5.47538 0
M  V30 5231 H 519.892 -1.65039 4.07012 0
M  V30 5232 H 520.498 0.0117856 4.25298 0
M  V30 5233 N 518.813 -1.54241 0.323641 0
M  V30 5234 C 520.038 -2.05452 -0.283605 0
M  V30 5235 C 520.463 -1.19823 -1.44997 0
M  V30 5236 O 519.821 -0.207358 -1.8011 0
M  V30 5237 C 519.869 -3.53823 -0.695795 0
M  V30 5238 O 518.973 -3.71134 -1.79815 0
M  V30 5239 H 518.314 -0.662024 -0.0511917 0
M  V30 5240 H 520.844 -1.99079 0.472073 0
M  V30 5241 H 520.854 -3.96094 -0.978434 0
M  V30 5242 H 519.529 -4.15602 0.157287 0
M  V30 5243 H 518.106 -3.40768 -1.51431 0
M  V30 5244 N 520.291 -0.0518155 -1.57515 0
M  V30 5245 C 521.516 0.634896 -1.97443 0
M  V30 5246 C 521.941 1.63546 -0.929207 0
M  V30 5247 O 521.299 1.80981 0.107484 0
M  V30 5248 C 521.347 1.29765 -3.36442 0
M  V30 5249 O 520.451 2.41333 -3.34413 0
M  V30 5250 H 519.792 0.164994 -0.643174 0
M  V30 5251 H 522.322 -0.120407 -2.04245 0
M  V30 5252 H 522.332 1.64918 -3.73184 0
M  V30 5253 H 521.007 0.564361 -4.12053 0
M  V30 5254 H 519.584 2.08122 -3.09418 0
M  V30 5255 N 521.769 1.56035 0.221574 0
M  V30 5256 C 522.717 1.93269 1.29421 0
M  V30 5257 C 523.711 0.814727 1.48521 0
M  V30 5258 O 524.917 0.999559 1.49696 0
M  V30 5259 H 521.292 0.614188 0.43391 0
M  V30 5260 H 523.263 2.82773 0.952987 0
M  V30 5261 C 522.012 2.26573 2.63742 0
M  V30 5262 H 521.335 3.12112 2.49853 0
M  V30 5263 H 522.775 2.5651 3.37607 0
M  V30 5264 C 521.234 1.09086 3.1875 0
M  V30 5265 O 521.764 0.351985 4.00155 0
M  V30 5266 N 519.97 0.874693 2.77124 0
M  V30 5267 H 519.517 1.47726 2.11033 0
M  V30 5268 H 519.475 0.0903349 3.1427 0
M  V30 5269 N 523.247 -0.488276 1.49845 0
M  V30 5270 C 524.195 -1.60917 1.67954 0
M  V30 5271 C 525.189 -1.6038 0.54539 0
M  V30 5272 O 526.395 -1.64736 0.7254 0
M  V30 5273 H 522.77 -0.533658 0.529824 0
M  V30 5274 H 524.741 -1.428 2.62013 0
M  V30 5275 C 523.49 -2.98975 1.77509 0
M  V30 5276 H 522.813 -3.00099 2.6416 0
M  V30 5277 H 524.253 -3.76906 1.9421 0
M  V30 5278 C 522.712 -3.3282 0.522745 0
M  V30 5279 O 523.242 -4.00208 -0.345866 0
M  V30 5280 N 521.448 -2.8808 0.381882 0
M  V30 5281 H 520.995 -2.33415 1.08974 0
M  V30 5282 H 520.953 -3.11091 -0.454929 0
M  V30 5283 N 524.725 -1.39134 -0.740242 0
M  V30 5284 C 525.974 -1.35384 -1.49512 0
M  V30 5285 C 526.287 0.04919 -1.95538 0
M  V30 5286 O 527.493 0.209257 -2.70692 0
M  V30 5287 C 525.949 -2.37812 -2.70136 0
M  V30 5288 C 525.557 -3.83804 -2.31081 0
M  V30 5289 C 527.301 -2.4313 -3.47977 0
M  V30 5290 C 525.208 -4.77886 -3.48395 0
M  V30 5291 H 524.138 -0.503297 -0.561434 0
M  V30 5292 H 526.789 -1.64754 -0.807974 0
M  V30 5293 H 525.171 -2.01505 -3.40899 0
M  V30 5294 H 526.345 -4.29123 -1.67898 0
M  V30 5295 H 524.66 -3.81732 -1.66343 0
M  V30 5296 H 527.257 -3.10614 -4.35228 0
M  V30 5297 H 527.6 -1.45423 -3.90074 0
M  V30 5298 H 528.133 -2.78304 -2.84239 0
M  V30 5299 H 524.872 -5.76836 -3.11353 0
M  V30 5300 H 524.392 -4.3725 -4.10576 0
M  V30 5301 H 526.071 -4.96538 -4.148 0
M  V30 5302 N 526.204 0.969867 -1.24223 0
M  V30 5303 C 527.432 1.74756 -1.10761 0
M  V30 5304 C 527.847 1.85713 0.340041 0
M  V30 5305 O 527.204 1.34389 1.23474 0
M  V30 5306 C 527.255 3.16915 -1.73917 0
M  V30 5307 O 526.976 3.06511 -3.13021 0
M  V30 5308 C 528.477 4.11032 -1.66036 0
M  V30 5309 H 525.697 0.548092 -0.387087 0
M  V30 5310 H 528.241 1.2178 -1.64286 0
M  V30 5311 H 526.396 3.66884 -1.244 0
M  V30 5312 H 526.81 3.96079 -3.43834 0
M  V30 5313 H 528.284 5.08446 -2.14911 0
M  V30 5314 H 528.761 4.34785 -0.621159 0
M  V30 5315 H 529.367 3.66972 -2.14969 0
M  V30 5316 N 527.682 1.05563 1.17022 0
M  V30 5317 C 528.645 0.664098 2.19368 0
M  V30 5318 C 529.645 -0.286358 1.5823 0
M  V30 5319 O 530.835 -0.069728 1.7406 0
M  V30 5320 C 527.967 -0.0239932 3.40892 0
M  V30 5321 H 529.16 1.57 2.55521 0
M  V30 5322 H 526.713 0.849964 1.31169 0
M  V30 5323 H 527.448 -0.942988 3.10287 0
M  V30 5324 H 527.233 0.659351 3.86516 0
M  V30 5325 H 528.723 -0.283909 4.16634 0
M  V30 5326 N 529.16 -1.33526 0.837174 0
M  V30 5327 C 530.388 -2.02047 0.445494 0
M  V30 5328 C 530.803 -1.62995 -0.952788 0
M  V30 5329 O 530.16 -0.842447 -1.61892 0
M  V30 5330 C 530.211 -3.57221 0.554577 0
M  V30 5331 O 529.932 -3.94863 1.89776 0
M  V30 5332 C 531.433 -4.43012 0.159634 0
M  V30 5333 H 528.653 -0.647221 0.177048 0
M  V30 5334 H 531.197 -1.70492 1.12928 0
M  V30 5335 H 529.352 -3.87315 -0.0812781 0
M  V30 5336 H 529.766 -4.89569 1.88208 0
M  V30 5337 H 531.24 -5.51253 0.28701 0
M  V30 5338 H 531.717 -4.29916 -0.898289 0
M  V30 5339 H 532.323 -4.18274 0.769855 0
M  V30 5340 N 530.638 -0.59345 -1.46 0
M  V30 5341 C 531.886 -0.082988 -2.0193 0
M  V30 5342 C 532.207 1.28569 -1.46612 0
M  V30 5343 O 531.477 1.84629 -0.654909 0
M  V30 5344 H 530.057 -0.0276882 -0.746487 0
M  V30 5345 H 532.719 -0.771657 -1.78973 0
M  V30 5346 H 531.815 -0.022079 -3.12092 0
M  V30 5347 N 532.116 1.54067 -0.331816 0
M  V30 5348 C 533.393 1.92915 0.322955 0
M  V30 5349 C 533.773 1.26225 1.69205 0
M  V30 5350 O 533.121 0.408919 2.24811 0
M  V30 5351 C 533.331 3.46619 0.406946 0
M  V30 5352 C 534.679 4.19386 0.663339 0
M  V30 5353 O 535.703 3.5282 0.489536 0
M  V30 5354 O 534.562 5.37288 0.999193 0
M  V30 5355 H 531.656 0.805808 0.186016 0
M  V30 5356 H 534.202 1.65342 -0.382135 0
M  V30 5357 H 532.974 3.87354 -0.554287 0
M  V30 5358 H 532.597 3.80324 1.15929 0
M  V30 5359 N 533.594 0.0601682 1.57485 0
M  V30 5360 C 534.842 -0.610386 1.92662 0
M  V30 5361 C 535.163 -1.70849 0.939981 0
M  V30 5362 O 534.433 -1.95895 -0.0137455 0
M  V30 5363 H 533.013 -0.228457 0.711208 0
M  V30 5364 H 535.675 0.115288 1.94559 0
M  V30 5365 H 534.771 -1.0432 2.94149 0
M  V30 5366 N 535.072 -1.5615 -0.213296 0
M  V30 5367 C 536.318 -1.79812 -0.937849 0
M  V30 5368 C 536.651 -0.631201 -1.83656 0
M  V30 5369 O 535.926 0.369165 -1.90964 0
M  V30 5370 C 536.209 -3.13613 -1.76972 0
M  V30 5371 C 536.062 -4.40766 -0.89695 0
M  V30 5372 C 537.381 -3.43931 -2.7459 0
M  V30 5373 H 534.5 -0.654138 -0.339518 0
M  V30 5374 H 537.142 -1.88877 -0.20623 0
M  V30 5375 H 535.292 -3.06015 -2.39347 0
M  V30 5376 H 536.964 -4.60392 -0.289306 0
M  V30 5377 H 535.207 -4.33326 -0.202756 0
M  V30 5378 H 535.878 -5.30843 -1.51358 0
M  V30 5379 H 538.354 -3.5171 -2.22349 0
M  V30 5380 H 537.23 -4.38706 -3.29891 0
M  V30 5381 H 537.491 -2.6651 -3.52739 0
M  V30 5382 N 536.55 0.480323 -1.50102 0
M  V30 5383 C 537.48 1.58769 -1.71215 0
M  V30 5384 C 538.461 1.60583 -0.560997 0
M  V30 5385 O 539.646 1.76996 -0.799127 0
M  V30 5386 C 536.776 2.97148 -1.79778 0
M  V30 5387 C 535.73 3.10201 -2.94888 0
M  V30 5388 C 535.056 4.50137 -2.88584 0
M  V30 5389 C 536.356 2.88283 -4.35534 0
M  V30 5390 H 538.05 1.41354 -2.6393 0
M  V30 5391 H 535.596 0.678591 -1.27008 0
M  V30 5392 H 537.549 3.74536 -1.93133 0
M  V30 5393 H 536.273 3.15699 -0.836772 0
M  V30 5394 H 534.932 2.35244 -2.81169 0
M  V30 5395 H 534.58 4.65593 -1.90349 0
M  V30 5396 H 534.28 4.59808 -3.65856 0
M  V30 5397 H 535.804 5.29558 -3.03976 0
M  V30 5398 H 537.218 3.55427 -4.49827 0
M  V30 5399 H 535.615 3.09408 -5.14186 0
M  V30 5400 H 536.685 1.84219 -4.48544 0
M  V30 5401 N 538.028 1.39524 0.732853 0
M  V30 5402 C 538.961 1.32806 1.85574 0
M  V30 5403 C 539.939 0.201354 1.61348 0
M  V30 5404 O 541.123 0.38216 1.84585 0
M  V30 5405 C 538.25 1.06271 3.21596 0
M  V30 5406 C 537.296 2.21161 3.64678 0
M  V30 5407 S 538.129 3.83454 3.73796 0
M  V30 5408 C 539.285 3.59149 5.12604 0
M  V30 5409 H 539.518 2.27838 1.9099 0
M  V30 5410 H 537.051 1.25605 0.897927 0
M  V30 5411 H 539.009 0.916461 4.00139 0
M  V30 5412 H 537.67 0.129223 3.13834 0
M  V30 5413 H 536.863 1.98193 4.63396 0
M  V30 5414 H 536.465 2.32 2.93346 0
M  V30 5415 H 538.757 3.16547 5.99003 0
M  V30 5416 H 539.7 4.57335 5.40602 0
M  V30 5417 H 540.108 2.93203 4.82382 0
M  V30 5418 N 539.506 -0.963266 1.24736 0
M  V30 5419 C 540.469 -2.04013 1.04457 0
M  V30 5420 C 541.469 -1.608 0.000335555 0
M  V30 5421 O 542.659 -1.72515 0.241719 0
M  V30 5422 C 539.791 -3.35858 0.584162 0
M  V30 5423 H 540.984 -2.23436 2.00041 0
M  V30 5424 H 538.537 -1.13914 1.07021 0
M  V30 5425 H 539.272 -3.22128 -0.374673 0
M  V30 5426 H 539.057 -3.68568 1.3379 0
M  V30 5427 H 540.547 -4.1502 0.463451 0
M  V30 5428 N 540.985 -1.06182 -1.16461 0
M  V30 5429 C 541.932 -0.671613 -2.20812 0
M  V30 5430 C 542.902 0.331186 -1.62765 0
M  V30 5431 O 544.087 0.22033 -1.89524 0
M  V30 5432 C 541.227 -0.063029 -3.45042 0
M  V30 5433 C 540.34 -1.11587 -4.1734 0
M  V30 5434 C 539.475 -0.473546 -5.29085 0
M  V30 5435 C 538.514 -1.51 -5.93182 0
M  V30 5436 N 537.651 -0.891118 -6.96422 0
M  V30 5437 H 542.491 -1.56589 -2.53542 0
M  V30 5438 H 540.028 -0.782951 -1.24532 0
M  V30 5439 H 541.986 0.307344 -4.16066 0
M  V30 5440 H 540.616 0.794663 -3.12866 0
M  V30 5441 H 539.668 -1.60396 -3.44931 0
M  V30 5442 H 540.98 -1.90221 -4.61104 0
M  V30 5443 H 540.134 -0.0501432 -6.06679 0
M  V30 5444 H 538.873 0.344687 -4.8648 0
M  V30 5445 H 537.878 -1.94331 -5.14311 0
M  V30 5446 H 539.103 -2.33031 -6.37866 0
M  V30 5447 H 537.049 -0.0935753 -6.55933 0
M  V30 5448 H 536.966 -1.61486 -7.38551 0
M  V30 5449 H 538.234 -0.492822 -7.77941 0
M  V30 5450 N 542.463 1.3308 -0.844243 0
M  V30 5451 C 543.373 2.32876 -0.283922 0
M  V30 5452 C 544.389 1.63589 0.592846 0
M  V30 5453 O 545.565 1.95205 0.495693 0
M  V30 5454 C 542.63 3.42667 0.527283 0
M  V30 5455 C 541.691 4.27664 -0.374394 0
M  V30 5456 C 540.924 5.32212 0.39819 0
M  V30 5457 O 541.147 5.46635 1.62932 0
M  V30 5458 O 540.081 6.01458 -0.2306 0
M  V30 5459 H 543.907 2.82671 -1.11045 0
M  V30 5460 H 541.492 1.36518 -0.606903 0
M  V30 5461 H 543.374 4.09652 0.988078 0
M  V30 5462 H 542.049 2.95079 1.33078 0
M  V30 5463 H 540.956 3.63526 -0.883144 0
M  V30 5464 H 542.289 4.78749 -1.1428 0
M  V30 5465 N 543.941 0.601185 1.45683 0
M  V30 5466 C 545.19 0.0914953 2.01492 0
M  V30 5467 C 545.503 -1.28331 1.47616 0
M  V30 5468 O 546.709 -1.88537 1.95362 0
M  V30 5469 C 545.165 0.11291 3.59723 0
M  V30 5470 C 544.773 1.48717 4.22596 0
M  V30 5471 C 546.517 -0.341871 4.23121 0
M  V30 5472 C 544.424 1.46531 5.7296 0
M  V30 5473 H 543.354 0.0304365 0.753385 0
M  V30 5474 H 546.005 0.755568 1.67223 0
M  V30 5475 H 544.387 -0.617692 3.91153 0
M  V30 5476 H 545.561 2.23897 4.02749 0
M  V30 5477 H 543.876 1.88351 3.71366 0
M  V30 5478 H 546.473 -0.377304 5.33367 0
M  V30 5479 H 546.816 -1.36325 3.93346 0
M  V30 5480 H 547.349 0.335256 3.96385 0
M  V30 5481 H 544.088 2.46408 6.07423 0
M  V30 5482 H 543.608 0.755997 5.95017 0
M  V30 5483 H 545.287 1.18618 6.36034 0
M  V30 5484 N 545.419 -1.53889 0.339982 0
M  V30 5485 C 546.667 -2.00458 -0.257112 0
M  V30 5486 C 546.988 -1.22953 -1.51353 0
M  V30 5487 O 546.258 -0.335734 -1.93002 0
M  V30 5488 H 544.838 -0.740544 -0.0979965 0
M  V30 5489 H 547.5 -1.89386 0.460317 0
M  V30 5490 H 546.596 -3.08035 -0.502057 0
M  V30 5491 N 546.897 -0.0685191 -1.57451 0
M  V30 5492 C 547.86 0.885173 -2.11417 0
M  V30 5493 C 548.86 1.22853 -1.03748 0
M  V30 5494 O 550.05 1.16235 -1.2975 0
M  V30 5495 C 547.182 2.18964 -2.61281 0
M  V30 5496 H 548.375 0.417034 -2.96986 0
M  V30 5497 H 545.928 0.18014 -1.55258 0
M  V30 5498 H 546.663 2.70321 -1.79156 0
M  V30 5499 H 546.448 1.9534 -3.39977 0
M  V30 5500 H 547.938 2.87242 -3.0312 0
M  V30 5501 N 548.375 1.56261 0.205012 0
M  V30 5502 C 549.6 1.84491 0.947512 0
M  V30 5503 C 550.025 0.650894 1.76479 0
M  V30 5504 O 549.383 -0.40035 1.76824 0
M  V30 5505 C 549.431 3.10863 1.82747 0
M  V30 5506 O 548.535 2.90719 2.925 0
M  V30 5507 H 547.876 0.607783 0.267386 0
M  V30 5508 H 550.406 2.03485 0.213323 0
M  V30 5509 H 550.416 3.41399 2.23407 0
M  V30 5510 H 549.091 3.97392 1.2269 0
M  V30 5511 H 547.668 2.71457 2.55667 0
M  V30 5512 N 549.853 -0.472356 1.50355 0
M  V30 5513 C 550.786 -1.58923 1.63764 0
M  V30 5514 C 551.764 -1.55173 0.485793 0
M  V30 5515 O 552.948 -1.74815 0.705132 0
M  V30 5516 C 550.075 -2.97497 1.61905 0
M  V30 5517 C 549.121 -3.19405 2.82635 0
M  V30 5518 S 549.954 -2.99441 4.43954 0
M  V30 5519 C 551.11 -4.40359 4.44786 0
M  V30 5520 H 551.343 -1.47309 2.58239 0
M  V30 5521 H 548.876 -0.659601 1.39602 0
M  V30 5522 H 550.834 -3.77389 1.61518 0
M  V30 5523 H 549.495 -3.06502 0.686683 0
M  V30 5524 H 548.688 -4.20636 2.77636 0
M  V30 5525 H 548.29 -2.47283 2.80583 0
M  V30 5526 H 550.582 -5.32969 4.1827 0
M  V30 5527 H 551.525 -4.50403 5.46391 0
M  V30 5528 H 551.933 -4.22378 3.74509 0
M  V30 5529 N 551.331 -1.39911 -0.725443 0
M  V30 5530 C 552.559 -1.40949 -1.51463 0
M  V30 5531 C 552.974 -0.0065242 -1.88799 0
M  V30 5532 O 552.331 0.967163 -1.54765 0
M  V30 5533 C 552.382 -2.29119 -2.79619 0
M  V30 5534 O 552.103 -3.63952 -2.43866 0
M  V30 5535 C 553.604 -2.38642 -3.73584 0
M  V30 5536 H 550.824 -0.481091 -0.467752 0
M  V30 5537 H 553.368 -1.83843 -0.895651 0
M  V30 5538 H 551.523 -1.89612 -3.37826 0
M  V30 5539 H 551.937 -4.10677 -3.26258 0
M  V30 5540 H 553.411 -3.04563 -4.60375 0
M  V30 5541 H 553.888 -1.40846 -4.16004 0
M  V30 5542 H 554.494 -2.78659 -3.21293 0
M  V30 5543 N 552.809 0.956637 -1.25245 0
M  V30 5544 C 554.086 1.67716 -1.00651 0
M  V30 5545 C 554.466 2.0585 0.467866 0
M  V30 5546 O 553.814 1.77029 1.44475 0
M  V30 5547 C 554.024 2.90093 -1.94028 0
M  V30 5548 C 555.372 3.6209 -2.21756 0
M  V30 5549 O 556.396 3.00171 -1.9177 0
M  V30 5550 O 555.255 4.7358 -2.72735 0
M  V30 5551 H 552.349 0.733731 -0.381533 0
M  V30 5552 H 554.895 1.00974 -1.3639 0
M  V30 5553 H 553.667 2.58689 -2.93591 0
M  V30 5554 H 553.29 3.64566 -1.58674 0
M  V30 5555 N 554.287 1.06798 1.15896 0
M  V30 5556 C 555.536 0.782796 1.8589 0
M  V30 5557 C 555.849 -0.693498 1.82893 0
M  V30 5558 O 557.055 -1.09325 2.48516 0
M  V30 5559 C 555.511 1.3502 3.33613 0
M  V30 5560 C 555.119 2.8571 3.45071 0
M  V30 5561 C 556.863 1.14278 4.08829 0
M  V30 5562 C 554.77 3.35669 4.86909 0
M  V30 5563 H 553.7 0.289149 0.696354 0
M  V30 5564 H 556.351 1.28734 1.30766 0
M  V30 5565 H 554.733 0.773407 3.88374 0
M  V30 5566 H 555.907 3.49385 3.00445 0
M  V30 5567 H 554.222 3.05178 2.83294 0
M  V30 5568 H 556.819 1.49087 5.13495 0
M  V30 5569 H 557.162 0.0814575 4.1622 0
M  V30 5570 H 557.695 1.68563 3.60321 0
M  V30 5571 H 554.434 4.41302 4.84698 0
M  V30 5572 H 553.954 2.76745 5.32139 0
M  V30 5573 H 555.633 3.31296 5.55745 0
M  V30 5574 N 555.766 -1.3263 0.851289 0
M  V30 5575 C 557.043 -1.91982 0.374448 0
M  V30 5576 C 557.423 -1.77568 -1.14161 0
M  V30 5577 O 556.771 -1.1717 -1.96172 0
M  V30 5578 C 556.981 -3.38862 0.835088 0
M  V30 5579 C 558.329 -4.15999 0.850309 0
M  V30 5580 O 559.353 -3.47566 0.779505 0
M  V30 5581 O 558.212 -5.38189 0.949481 0
M  V30 5582 H 555.306 -0.819846 0.10854 0
M  V30 5583 H 557.852 -1.41422 0.937966 0
M  V30 5584 H 556.624 -3.43281 1.87814 0
M  V30 5585 H 556.247 -3.96821 0.248833 0
M  V30 5586 N 557.244 -0.608902 -1.45362 0
M  V30 5587 C 558.49 -0.113196 -2.03085 0
M  V30 5588 C 558.845 1.24288 -1.46868 0
M  V30 5589 O 558.138 1.80792 -0.634402 0
M  V30 5590 C 558.332 -0.0167296 -3.57396 0
M  V30 5591 C 558.161 -1.36191 -4.28581 0
M  V30 5592 C 556.931 -1.94295 -4.66452 0
M  V30 5593 C 559.129 -2.29097 -4.60455 0
M  V30 5594 N 557.111 -3.2228 -5.22503 0
M  V30 5595 C 558.482 -3.41681 -5.17353 0
M  V30 5596 C 560.537 -2.28453 -4.42395 0
M  V30 5597 C 559.24 -4.53789 -5.58093 0
M  V30 5598 C 561.266 -3.39608 -4.8417 0
M  V30 5599 C 560.628 -4.50915 -5.41161 0
M  V30 5600 H 556.727 -0.0848213 -0.777386 0
M  V30 5601 H 559.311 -0.807541 -1.77163 0
M  V30 5602 H 557.482 0.646839 -3.82976 0
M  V30 5603 H 559.214 0.485757 -4.01774 0
M  V30 5604 H 555.969 -1.47486 -4.5005 0
M  V30 5605 H 556.393 -3.87654 -5.55025 0
M  V30 5606 H 561.035 -1.43658 -3.97646 0
M  V30 5607 H 558.753 -5.39307 -6.01808 0
M  V30 5608 H 562.339 -3.40259 -4.71927 0
M  V30 5609 H 561.219 -5.35505 -5.72891 0
M  V30 5610 N 558.722 1.53707 -0.348139 0
M  V30 5611 C 559.968 2.01286 0.247332 0
M  V30 5612 C 560.301 1.23546 1.49834 0
M  V30 5613 O 559.576 0.324331 1.91777 0
M  V30 5614 C 559.859 3.55768 0.556858 0
M  V30 5615 C 559.712 4.44216 -0.706564 0
M  V30 5616 C 561.031 4.1841 1.3646 0
M  V30 5617 H 558.15 0.731677 0.0884201 0
M  V30 5618 H 560.792 1.84106 -0.469584 0
M  V30 5619 H 558.942 3.70539 1.16761 0
M  V30 5620 H 560.614 4.41274 -1.34444 0
M  V30 5621 H 558.857 4.12892 -1.33052 0
M  V30 5622 H 559.528 5.50202 -0.445186 0
M  V30 5623 H 562.004 4.07365 0.848113 0
M  V30 5624 H 560.88 5.26563 1.54992 0
M  V30 5625 H 561.141 3.7333 2.36805 0
M  V30 5626 N 560.2 0.0768682 1.57412 0
M  V30 5627 C 561.132 -0.918248 2.10002 0
M  V30 5628 C 562.145 -1.25808 1.03325 0
M  V30 5629 O 563.334 -1.21438 1.30824 0
M  V30 5630 C 560.434 -2.23263 2.54964 0
M  V30 5631 C 559.607 -2.07088 3.8527 0
M  V30 5632 C 558.666 -3.21876 4.16272 0
M  V30 5633 O 557.692 -2.96643 4.8579 0
M  V30 5634 N 558.894 -4.4712 3.70221 0
M  V30 5635 H 561.659 -0.469209 2.96004 0
M  V30 5636 H 559.22 -0.108725 1.61535 0
M  V30 5637 H 561.212 -2.9897 2.72762 0
M  V30 5638 H 559.782 -2.59649 1.74072 0
M  V30 5639 H 559.002 -1.15818 3.76802 0
M  V30 5640 H 560.29 -1.93537 4.70554 0
M  V30 5641 H 559.688 -4.70506 3.1407 0
M  V30 5642 H 558.245 -5.19837 3.93209 0
M  V30 5643 N 561.678 -1.56367 -0.196722 0
M  V30 5644 C 562.641 -1.93561 -1.22746 0
M  V30 5645 C 563.641 -0.816566 -1.38524 0
M  V30 5646 O 564.831 -1.084 -1.36363 0
M  V30 5647 C 561.963 -2.20823 -2.59712 0
M  V30 5648 H 563.156 -2.85774 -0.909586 0
M  V30 5649 H 560.709 -1.50032 -0.438174 0
M  V30 5650 H 561.444 -1.31243 -2.96557 0
M  V30 5651 H 561.229 -3.02368 -2.49632 0
M  V30 5652 H 562.719 -2.50608 -3.34044 0
M  V30 5653 N 563.156 0.464375 -1.50603 0
M  V30 5654 C 564.106 1.55929 -1.66343 0
M  V30 5655 C 565.09 1.52338 -0.517887 0
M  V30 5656 O 566.282 1.59248 -0.772601 0
M  V30 5657 C 563.411 2.94327 -1.7671 0
M  V30 5658 C 562.497 3.02777 -2.96962 0
M  V30 5659 N 562.888 2.81026 -4.20545 0
M  V30 5660 C 561.186 3.33919 -2.95659 0
M  V30 5661 C 561.887 2.94618 -5.01573 0
M  V30 5662 N 560.863 3.25112 -4.35664 0
M  V30 5663 H 564.665 1.37822 -2.59581 0
M  V30 5664 H 562.179 0.671227 -1.47879 0
M  V30 5665 H 564.176 3.73063 -1.86091 0
M  V30 5666 H 562.836 3.13476 -0.846353 0
M  V30 5667 H 563.847 2.56477 -4.49933 0
M  V30 5668 H 560.524 3.59013 -2.13111 0
M  V30 5669 H 561.914 2.81984 -6.09865 0
M  V30 5670 N 564.634 1.40294 0.718013 0
M  V30 5671 C 566.045 1.34289 1.29705 0
M  V30 5672 C 566.396 0.0152228 1.96194 0
M  V30 5673 O 565.521 -0.88682 1.97394 0
M  V30 5674 C 566.116 2.43219 2.3586 0
M  V30 5675 C 564.675 2.40682 2.89394 0
M  V30 5676 C 563.822 2.24223 1.63154 0
M  V30 5677 H 566.773 1.50135 0.514312 0
M  V30 5678 H 566.794 2.10986 3.16647 0
M  V30 5679 H 566.306 3.39836 1.87439 0
M  V30 5680 H 564.407 1.47756 3.42051 0
M  V30 5681 H 564.52 3.36177 3.41353 0
M  V30 5682 H 562.884 1.71696 1.88129 0
M  V30 5683 H 563.667 3.22834 1.16761 0
M  V30 5684 N 566.112 -0.949982 1.2575 0
M  V30 5685 C 567.34 -1.72972 1.13527 0
M  V30 5686 C 567.755 -1.8623 -0.310453 0
M  V30 5687 O 567.112 -1.36336 -1.2132 0
M  V30 5688 C 567.163 -3.14108 1.78936 0
M  V30 5689 O 566.884 -3.01493 3.17858 0
M  V30 5690 C 568.385 -4.08338 1.72554 0
M  V30 5691 H 565.605 -0.541864 0.395758 0
M  V30 5692 H 568.149 -1.19151 1.66202 0
M  V30 5693 H 566.304 -3.64858 1.30221 0
M  V30 5694 H 566.718 -3.90559 3.50092 0
M  V30 5695 H 568.192 -5.04963 2.22973 0
M  V30 5696 H 568.669 -4.33742 0.690251 0
M  V30 5697 H 569.275 -3.63506 2.2078 0
M  V30 5698 N 567.59 -1.07411 -1.15328 0
M  V30 5699 C 568.836 -0.798831 -1.86404 0
M  V30 5700 C 569.169 0.673433 -1.8215 0
M  V30 5701 O 568.444 1.49428 -1.24505 0
M  V30 5702 C 568.727 -1.30846 -3.35487 0
M  V30 5703 C 568.58 -2.84532 -3.4837 0
M  V30 5704 C 569.899 -0.925486 -4.30259 0
M  V30 5705 H 567.018 -0.291659 -0.676834 0
M  V30 5706 H 569.66 -1.332 -1.35491 0
M  V30 5707 H 567.81 -0.854916 -3.78977 0
M  V30 5708 H 569.482 -3.3818 -3.13739 0
M  V30 5709 H 567.725 -3.22699 -2.8991 0
M  V30 5710 H 568.396 -3.15259 -4.53118 0
M  V30 5711 H 570.872 -1.3163 -3.94731 0
M  V30 5712 H 569.748 -1.3094 -5.33053 0
M  V30 5713 H 570.009 0.168525 -4.41779 0
M  V30 5714 N 569.068 1.32177 -0.85831 0
M  V30 5715 C 570.316 1.96735 -0.462568 0
M  V30 5716 C 570.637 1.6824 0.985911 0
M  V30 5717 O 569.907 0.991564 1.68952 0
M  V30 5718 H 568.487 0.727849 -0.168064 0
M  V30 5719 H 571.149 1.61195 -1.09554 0
M  V30 5720 H 570.245 3.06068 -0.610647 0
M  V30 5721 N 570.547 0.616602 1.45037 0
M  V30 5722 C 571.494 -0.0969439 2.30596 0
M  V30 5723 C 572.464 -0.851151 1.42635 0
M  V30 5724 O 573.649 -0.835092 1.71554 0
M  V30 5725 C 570.789 -1.08234 3.27688 0
M  V30 5726 C 569.902 -0.328072 4.30752 0
M  V30 5727 C 569.037 -1.30399 5.14946 0
M  V30 5728 C 568.076 -0.538049 6.09731 0
M  V30 5729 N 567.213 -1.46371 6.86673 0
M  V30 5730 H 572.053 0.63864 2.91076 0
M  V30 5731 H 569.59 0.326733 1.43425 0
M  V30 5732 H 571.548 -1.66688 3.82454 0
M  V30 5733 H 570.178 -1.78523 2.68941 0
M  V30 5734 H 569.23 0.372136 3.78575 0
M  V30 5735 H 570.542 0.269142 4.98073 0
M  V30 5736 H 569.696 -1.96032 5.74157 0
M  V30 5737 H 568.435 -1.93514 4.47665 0
M  V30 5738 H 567.44 0.131852 5.49642 0
M  V30 5739 H 568.665 0.0881732 6.79043 0
M  V30 5740 H 566.611 -2.08233 6.22073 0
M  V30 5741 H 566.528 -0.920152 7.50379 0
M  V30 5742 H 567.796 -2.10932 7.50418 0
M  V30 5743 N 572.025 -1.5352 0.356285 0
M  V30 5744 C 573.302 -1.93405 -0.292223 0
M  V30 5745 C 573.682 -1.28901 -1.67176 0
M  V30 5746 O 573.03 -0.444632 -2.24132 0
M  V30 5747 C 573.24 -3.47223 -0.35175 0
M  V30 5748 C 574.588 -4.20389 -0.596534 0
M  V30 5749 O 575.612 -3.53554 -0.433344 0
M  V30 5750 O 574.471 -5.3881 -0.913589 0
M  V30 5751 H 571.565 -0.808666 -0.173172 0
M  V30 5752 H 574.111 -1.64713 0.408391 0
M  V30 5753 H 572.883 -3.86423 0.615841 0
M  V30 5754 H 572.506 -3.8212 -1.09864 0
M  V30 5755 N 573.503 -0.0852151 -1.57369 0
M  V30 5756 C 574.728 0.592872 -1.98746 0
M  V30 5757 C 575.153 1.61538 -0.963689 0
M  V30 5758 O 574.511 1.81168 0.069071 0
M  V30 5759 C 574.559 1.22599 -3.39119 0
M  V30 5760 O 573.663 2.34185 -3.39457 0
M  V30 5761 H 573.004 0.151314 -0.646529 0
M  V30 5762 H 575.534 -0.163703 -2.03944 0
M  V30 5763 H 575.544 1.56965 -3.76598 0
M  V30 5764 H 574.219 0.476831 -4.13158 0
M  V30 5765 H 572.796 2.01512 -3.13763 0
M  V30 5766 N 574.981 1.5647 0.188427 0
M  V30 5767 C 576.397 1.50204 0.539532 0
M  V30 5768 C 576.597 0.78644 1.85519 0
M  V30 5769 O 575.653 0.339714 2.50204 0
M  V30 5770 C 576.966 2.94893 0.588103 0
M  V30 5771 C 578.514 3.05602 0.67648 0
M  V30 5772 C 578.989 4.51716 0.756101 0
M  V30 5773 N 580.48 4.55894 0.819451 0
M  V30 5774 C 581.215 5.66272 0.90134 0
M  V30 5775 N 580.711 6.86323 0.945118 0
M  V30 5776 N 582.504 5.54201 0.939043 0
M  V30 5777 H 574.655 2.01406 -0.674493 0
M  V30 5778 H 576.918 0.916828 -0.241103 0
M  V30 5779 H 576.624 3.50334 -0.309633 0
M  V30 5780 H 576.498 3.4861 1.44051 0
M  V30 5781 H 578.885 2.50206 1.56465 0
M  V30 5782 H 578.966 2.54999 -0.202262 0
M  V30 5783 H 578.61 5.07739 -0.12774 0
M  V30 5784 H 578.54 5.00058 1.65074 0
M  V30 5785 H 581.031 3.69452 0.794594 0
M  V30 5786 H 581.344 7.66194 1.0083 0
M  V30 5787 H 579.689 6.88968 0.913683 0
M  V30 5788 H 582.88 4.59333 0.901725 0
M  V30 5789 H 583.053 6.40247 0.999402 0
M  V30 5790 N 576.459 -0.456382 1.50847 0
M  V30 5791 C 577.708 -1.2042 1.61808 0
M  V30 5792 C 578.021 -1.9278 0.330932 0
M  V30 5793 O 579.227 -2.69612 0.319643 0
M  V30 5794 C 577.683 -2.18891 2.85683 0
M  V30 5795 C 577.291 -1.52267 4.2133 0
M  V30 5796 C 579.035 -2.94224 3.05994 0
M  V30 5797 C 576.942 -2.4911 5.36375 0
M  V30 5798 H 575.872 -0.453177 0.602616 0
M  V30 5799 H 578.523 -0.473144 1.77295 0
M  V30 5800 H 576.905 -2.95351 2.63787 0
M  V30 5801 H 578.079 -0.814949 4.53536 0
M  V30 5802 H 576.394 -0.891594 4.06743 0
M  V30 5803 H 578.991 -3.66732 3.89117 0
M  V30 5804 H 579.334 -3.54469 2.18306 0
M  V30 5805 H 579.867 -2.24874 3.28141 0
M  V30 5806 H 576.606 -1.93582 6.26264 0
M  V30 5807 H 576.126 -3.17991 5.08569 0
M  V30 5808 H 577.805 -3.10637 5.67551 0
M  V30 5809 N 577.937 -1.40673 -0.710563 0
M  V30 5810 C 578.867 -1.44095 -1.83736 0
M  V30 5811 C 579.848 -0.301286 -1.67411 0
M  V30 5812 O 581.033 -0.510618 -1.87367 0
M  V30 5813 C 578.163 -1.30773 -3.21738 0
M  V30 5814 C 577.117 -2.42395 -3.52745 0
M  V30 5815 C 576.443 -2.14147 -4.89944 0
M  V30 5816 C 577.743 -3.84738 -3.53234 0
M  V30 5817 H 579.437 -2.38396 -1.81129 0
M  V30 5818 H 576.983 -1.14746 -0.870017 0
M  V30 5819 H 578.936 -1.31783 -4.00264 0
M  V30 5820 H 577.66 -0.329507 -3.24934 0
M  V30 5821 H 576.319 -2.40643 -2.76562 0
M  V30 5822 H 575.967 -1.14703 -4.89747 0
M  V30 5823 H 575.667 -2.88934 -5.11655 0
M  V30 5824 H 577.191 -2.16848 -5.70797 0
M  V30 5825 H 578.605 -3.88286 -4.2179 0
M  V30 5826 H 577.002 -4.59085 -3.86473 0
M  V30 5827 H 578.072 -4.13962 -2.52514 0
M  V30 5828 N 579.415 0.9433 -1.26252 0
M  V30 5829 C 580.664 1.68369 -1.11062 0
M  V30 5830 C 580.977 1.92514 0.346104 0
M  V30 5831 O 582.183 2.64358 0.618646 0
M  V30 5832 C 580.639 3.03171 -1.93946 0
M  V30 5833 C 580.247 2.86782 -3.4418 0
M  V30 5834 C 581.991 3.80916 -1.87359 0
M  V30 5835 C 579.898 4.17044 -4.19319 0
M  V30 5836 H 578.828 0.631469 -0.412023 0
M  V30 5837 H 581.479 1.04922 -1.50544 0
M  V30 5838 H 579.861 3.67587 -1.47296 0
M  V30 5839 H 581.035 2.31229 -3.98585 0
M  V30 5840 H 579.35 2.22482 -3.51981 0
M  V30 5841 H 581.947 4.77417 -2.40784 0
M  V30 5842 H 582.29 4.07658 -0.843857 0
M  V30 5843 H 582.823 3.2327 -2.31821 0
M  V30 5844 H 579.562 3.95487 -5.22753 0
M  V30 5845 H 579.082 4.72319 -3.69696 0
M  V30 5846 H 580.761 4.85513 -4.27651 0
M  V30 5847 N 580.893 1.08022 1.14757 0
M  V30 5848 C 582.118 0.82895 1.90114 0
M  V30 5849 C 582.543 -0.612772 1.77839 0
M  V30 5850 O 581.901 -1.42895 1.11583 0
M  V30 5851 C 581.949 1.25062 3.38219 0
M  V30 5852 O 581.053 0.400119 4.10454 0
M  V30 5853 H 580.394 0.301412 0.591648 0
M  V30 5854 H 582.924 1.44062 1.45284 0
M  V30 5855 H 582.934 1.22977 3.89025 0
M  V30 5856 H 581.609 2.30067 3.46471 0
M  V30 5857 H 580.186 0.484052 3.69745 0
M  V30 5858 N 582.371 -1.3172 0.865308 0
M  V30 5859 C 583.281 -2.32394 0.320935 0
M  V30 5860 C 584.297 -1.64511 -0.566746 0
M  V30 5861 O 585.473 -1.95969 -0.464575 0
M  V30 5862 C 582.538 -3.43462 -0.472701 0
M  V30 5863 C 581.599 -4.27015 0.442385 0
M  V30 5864 C 580.832 -5.32779 -0.313469 0
M  V30 5865 O 581.055 -5.49158 -1.54214 0
M  V30 5866 O 579.989 -6.01015 0.326257 0
M  V30 5867 H 583.815 -2.80868 1.15528 0
M  V30 5868 H 581.4 -1.35535 0.628545 0
M  V30 5869 H 583.282 -4.11172 -0.922781 0
M  V30 5870 H 581.957 -2.97159 -1.28367 0
M  V30 5871 H 580.864 -3.62075 0.940866 0
M  V30 5872 H 582.197 -4.76871 1.21882 0
M  V30 5873 N 583.85 -0.624285 -1.44708 0
M  V30 5874 C 585.077 -0.132919 -2.06473 0
M  V30 5875 C 585.493 1.18967 -1.46602 0
M  V30 5876 O 584.85 1.72824 -0.586341 0
M  V30 5877 C 584.901 -0.00465418 -3.615 0
M  V30 5878 O 584.622 -1.27494 -4.19138 0
M  V30 5879 C 586.123 0.516213 -4.40284 0
M  V30 5880 H 583.343 -0.0765201 -0.666623 0
M  V30 5881 H 585.887 -0.856751 -1.85688 0
M  V30 5882 H 584.042 0.669583 -3.8157 0
M  V30 5883 H 584.456 -1.11536 -5.12504 0
M  V30 5884 H 585.93 0.554994 -5.49203 0
M  V30 5885 H 586.407 1.5419 -4.11245 0
M  V30 5886 H 587.013 -0.124542 -4.25118 0
M  V30 5887 N 585.328 1.53329 -0.364422 0
M  V30 5888 C 586.574 2.01537 0.225969 0
M  V30 5889 C 586.907 1.25128 1.48515 0
M  V30 5890 O 586.182 0.344653 1.91422 0
M  V30 5891 C 586.465 3.56339 0.519092 0
M  V30 5892 C 586.318 4.43441 -0.753639 0
M  V30 5893 C 587.637 4.19833 1.32015 0
M  V30 5894 H 584.756 0.732573 0.0806548 0
M  V30 5895 H 587.398 1.83597 -0.489084 0
M  V30 5896 H 585.548 3.71756 1.12825 0
M  V30 5897 H 587.22 4.39823 -1.39116 0
M  V30 5898 H 585.463 4.11457 -1.37424 0
M  V30 5899 H 586.134 5.49699 -0.503517 0
M  V30 5900 H 588.61 4.08242 0.804859 0
M  V30 5901 H 587.486 5.28177 1.49399 0
M  V30 5902 H 587.747 3.75821 2.32832 0
M  V30 5903 N 586.806 0.0935595 1.57322 0
M  V30 5904 C 588.222 -0.263091 1.57417 0
M  V30 5905 C 588.422 -1.68526 1.1046 0
M  V30 5906 O 587.478 -2.40139 0.780357 0
M  V30 5907 C 588.791 -0.0529201 3.00653 0
M  V30 5908 C 590.339 -0.120788 3.12767 0
M  V30 5909 C 590.814 0.0613707 4.57959 0
M  V30 5910 N 592.305 0.00648534 4.632 0
M  V30 5911 C 593.04 0.122699 5.73269 0
M  V30 5912 N 592.536 0.29366 6.92177 0
M  V30 5913 N 594.329 0.0640787 5.62063 0
M  V30 5914 H 586.48 1.02277 1.86154 0
M  V30 5915 H 588.743 0.4007 0.859153 0
M  V30 5916 H 588.449 0.929279 3.39201 0
M  V30 5917 H 588.323 -0.795899 3.68708 0
M  V30 5918 H 590.71 -1.09349 2.74093 0
M  V30 5919 H 590.791 0.653656 2.47307 0
M  V30 5920 H 590.435 1.03093 4.97327 0
M  V30 5921 H 590.365 -0.732748 5.21477 0
M  V30 5922 H 592.856 -0.123173 3.77699 0
M  V30 5923 H 593.169 0.37389 7.71895 0
M  V30 5924 H 591.514 0.329307 6.94219 0
M  V30 5925 H 594.705 -0.0683396 4.6805 0
M  V30 5926 H 594.878 0.158097 6.47807 0
M  V30 5927 N 588.284 -1.56567 -0.180126 0
M  V30 5928 C 589.532 -1.81133 -0.896392 0
M  V30 5929 C 589.853 -0.669114 -1.83161 0
M  V30 5930 O 589.123 0.311616 -1.93406 0
M  V30 5931 H 587.703 -0.668172 -0.333999 0
M  V30 5932 H 590.365 -1.94048 -0.182051 0
M  V30 5933 H 589.461 -2.74854 -1.47857 0
M  V30 5934 N 589.762 0.448376 -1.51087 0
M  V30 5935 C 591.008 1.20049 -1.6345 0
M  V30 5936 C 591.341 1.91121 -0.344444 0
M  V30 5937 O 590.616 1.83125 0.655396 0
M  V30 5938 C 590.899 2.22624 -2.83038 0
M  V30 5939 C 590.752 1.55708 -4.21989 0
M  V30 5940 C 592.071 3.23718 -2.98152 0
M  V30 5941 H 589.19 0.435085 -0.59487 0
M  V30 5942 H 591.832 0.491183 -1.83541 0
M  V30 5943 H 589.982 2.83117 -2.66039 0
M  V30 5944 H 591.654 0.986367 -4.50631 0
M  V30 5945 H 589.897 0.859647 -4.25197 0
M  V30 5946 H 590.568 2.30357 -5.01637 0
M  V30 5947 H 593.044 2.73269 -3.13788 0
M  V30 5948 H 591.92 3.92795 -3.83411 0
M  V30 5949 H 592.181 3.89179 -2.09743 0
M  V30 5950 N 591.24 1.41047 0.703093 0
M  V30 5951 C 592.488 1.39723 1.4602 0
M  V30 5952 C 592.809 0.00461257 1.94999 0
M  V30 5953 O 592.079 -0.952292 1.71196 0
M  V30 5954 H 590.659 0.514281 0.541779 0
M  V30 5955 H 593.321 1.76217 0.832678 0
M  V30 5956 H 592.417 2.07982 2.32701 0
M  V30 5957 N 592.718 -0.936591 1.26751 0
M  V30 5958 C 593.681 -2.01752 1.08761 0
M  V30 5959 C 594.681 -1.60763 0.0344435 0
M  V30 5960 O 595.871 -1.71963 0.278258 0
M  V30 5961 C 593.003 -3.34543 0.655271 0
M  V30 5962 H 594.196 -2.19143 2.04735 0
M  V30 5963 H 591.749 -1.11618 1.09413 0
M  V30 5964 H 592.484 -3.22851 -0.30626 0
M  V30 5965 H 592.269 -3.65647 1.41578 0
M  V30 5966 H 593.759 -4.13944 0.551378 0
M  V30 5967 N 594.196 -1.08629 -1.14182 0
M  V30 5968 C 595.442 -0.818556 -1.85546 0
M  V30 5969 C 595.775 0.654076 -1.82854 0
M  V30 5970 O 595.05 1.48099 -1.26083 0
M  V30 5971 C 595.333 -1.34397 -3.3408 0
M  V30 5972 C 595.186 -2.8821 -3.45333 0
M  V30 5973 C 596.505 -0.971069 -4.29253 0
M  V30 5974 H 593.624 -0.298821 -0.673702 0
M  V30 5975 H 596.266 -1.34629 -1.34071 0
M  V30 5976 H 594.416 -0.895064 -3.78049 0
M  V30 5977 H 596.088 -3.41488 -3.10134 0
M  V30 5978 H 594.331 -3.25756 -2.86471 0
M  V30 5979 H 595.002 -3.20047 -4.49749 0
M  V30 5980 H 597.478 -1.35809 -3.93313 0
M  V30 5981 H 596.354 -1.36586 -5.31635 0
M  V30 5982 H 596.615 0.121659 -4.41933 0
M  V30 5983 N 595.674 1.31259 -0.872281 0
M  V30 5984 C 596.607 2.26544 -0.274394 0
M  V30 5985 C 597.585 1.51213 0.597776 0
M  V30 5986 O 598.769 1.80277 0.550687 0
M  V30 5987 C 595.896 3.33139 0.611256 0
M  V30 5988 C 594.942 4.26077 -0.189876 0
M  V30 5989 S 595.775 5.11971 -1.56989 0
M  V30 5990 C 596.931 6.2208 -0.690427 0
M  V30 5991 H 597.164 2.76908 -1.0821 0
M  V30 5992 H 594.697 1.3906 -0.670939 0
M  V30 5993 H 596.655 3.95024 1.11654 0
M  V30 5994 H 595.316 2.81525 1.39294 0
M  V30 5995 H 594.509 5.01657 0.485433 0
M  V30 5996 H 594.111 3.68701 -0.627339 0
M  V30 5997 H 596.403 6.77429 0.098001 0
M  V30 5998 H 597.346 6.93768 -1.41742 0
M  V30 5999 H 597.754 5.63915 -0.256953 0
M  V30 6000 N 597.152 0.631951 1.44375 0
M  V30 6001 C 598.398 0.13697 2.02337 0
M  V30 6002 C 598.731 -1.23826 1.49602 0
M  V30 6003 O 598.006 -1.8221 0.680415 0
M  V30 6004 C 598.289 0.124536 3.59885 0
M  V30 6005 C 598.142 1.53217 4.229 0
M  V30 6006 C 599.461 -0.550481 4.36644 0
M  V30 6007 H 596.58 0.051247 0.735216 0
M  V30 6008 H 599.222 0.808581 1.71936 0
M  V30 6009 H 597.372 -0.44737 3.85916 0
M  V30 6010 H 599.044 2.15303 4.07973 0
M  V30 6011 H 597.287 2.0858 3.80364 0
M  V30 6012 H 597.958 1.4755 5.31914 0
M  V30 6013 H 600.434 -0.0641154 4.16051 0
M  V30 6014 H 599.31 -0.528371 5.46351 0
M  V30 6015 H 599.571 -1.62097 4.11311 0
M  V30 6016 N 598.631 -1.53133 0.372548 0
M  V30 6017 C 599.579 -2.27473 -0.485681 0
M  V30 6018 C 600.573 -1.30719 -1.07745 0
M  V30 6019 O 601.779 -1.48321 -1.01985 0
M  V30 6020 H 598.154 -0.731269 -0.175356 0
M  V30 6021 H 600.125 -2.97955 0.162986 0
M  V30 6022 C 598.874 -3.08191 -1.60978 0
M  V30 6023 H 598.197 -3.82488 -1.16373 0
M  V30 6024 H 599.637 -3.63373 -2.18485 0
M  V30 6025 C 598.096 -2.19461 -2.55614 0
M  V30 6026 O 598.626 -1.81008 -3.58607 0
M  V30 6027 N 596.832 -1.83955 -2.24965 0
M  V30 6028 H 596.379 -2.15423 -1.41247 0
M  V30 6029 H 596.337 -1.24874 -2.88538 0
M  V30 6030 N 600.109 -0.101901 -1.5727 0
M  V30 6031 C 601.056 0.854577 -2.14396 0
M  V30 6032 C 602.026 1.27521 -1.06432 0
M  V30 6033 O 603.211 1.35575 -1.34253 0
M  V30 6034 C 600.351 2.10576 -2.73408 0
M  V30 6035 C 599.464 1.73504 -3.95626 0
M  V30 6036 C 598.599 2.9346 -4.42781 0
M  V30 6037 C 597.638 2.52547 -5.57572 0
M  V30 6038 N 596.775 3.65359 -5.99547 0
M  V30 6039 H 601.615 0.360578 -2.9581 0
M  V30 6040 H 599.152 0.166303 -1.46157 0
M  V30 6041 H 601.11 2.83859 -3.05745 0
M  V30 6042 H 599.74 2.57463 -1.94711 0
M  V30 6043 H 598.792 0.901622 -3.6956 0
M  V30 6044 H 600.104 1.39426 -4.78917 0
M  V30 6045 H 599.258 3.74988 -4.76937 0
M  V30 6046 H 597.997 3.30753 -3.58404 0
M  V30 6047 H 597.002 1.69446 -5.23037 0
M  V30 6048 H 598.227 2.1639 -6.43702 0
M  V30 6049 H 596.173 4.02358 -5.18116 0
M  V30 6050 H 596.09 3.35148 -6.77652 0
M  V30 6051 H 597.358 4.47378 -6.38336 0
M  V30 6052 N 601.587 1.56661 0.17182 0
M  V30 6053 C 602.864 1.72838 0.915778 0
M  V30 6054 C 603.244 0.66316 2.00413 0
M  V30 6055 O 602.592 -0.322123 2.26218 0
M  V30 6056 C 602.802 3.16019 1.48097 0
M  V30 6057 C 604.15 3.76962 1.95408 0
M  V30 6058 O 605.174 3.19294 1.57892 0
M  V30 6059 O 604.033 4.78219 2.64516 0
M  V30 6060 H 601.127 0.705797 0.431021 0
M  V30 6061 H 603.673 1.68947 0.159689 0
M  V30 6062 H 602.445 3.85031 0.697618 0
M  V30 6063 H 602.068 3.24234 2.30126 0
M  V30 6064 N 603.065 -0.440357 1.51323 0
M  V30 6065 C 604.313 -1.18769 1.63518 0
M  V30 6066 C 604.634 -1.91793 0.352201 0
M  V30 6067 O 603.904 -1.85432 -0.631811 0
M  V30 6068 H 602.484 -0.441408 0.602634 0
M  V30 6069 H 605.146 -0.505162 1.8824 0
M  V30 6070 H 604.242 -1.91892 2.46138 0
M  V30 6071 N 604.543 -1.41418 -0.695603 0
M  V30 6072 C 605.491 -1.43467 -1.83084 0
M  V30 6073 C 606.485 -0.312719 -1.66489 0
M  V30 6074 O 607.691 -0.484744 -1.7335 0
M  V30 6075 H 604.066 -0.448891 -0.603325 0
M  V30 6076 H 606.037 -2.39144 -1.78473 0
M  V30 6077 C 604.786 -1.3337 -3.21104 0
M  V30 6078 H 604.109 -2.18989 -3.3449 0
M  V30 6079 H 605.549 -1.38865 -4.00615 0
M  V30 6080 C 604.008 -0.0460484 -3.36869 0
M  V30 6081 O 604.538 0.909258 -3.91274 0
M  V30 6082 N 602.744 0.0300222 -2.90584 0
M  V30 6083 H 602.291 -0.748129 -2.46497 0
M  V30 6084 H 602.249 0.890991 -3.01511 0
M  V30 6085 N 606.021 0.929856 -1.27246 0
M  V30 6086 C 607.437 1.20542 -1.04603 0
M  V30 6087 C 607.637 2.00276 0.221754 0
M  V30 6088 O 606.693 2.34835 0.927833 0
M  V30 6089 C 608.006 1.95566 -2.28417 0
M  V30 6090 C 609.554 2.08513 -2.33433 0
M  V30 6091 C 610.029 2.86943 -3.5697 0
M  V30 6092 N 611.52 2.94512 -3.57515 0
M  V30 6093 C 612.255 3.55656 -4.49774 0
M  V30 6094 N 611.751 4.18209 -5.52334 0
M  V30 6095 N 613.544 3.53038 -4.37402 0
M  V30 6096 H 605.695 0.397113 -2.08655 0
M  V30 6097 H 607.958 0.238277 -0.917566 0
M  V30 6098 H 607.664 1.44395 -3.20691 0
M  V30 6099 H 607.538 2.9619 -2.33563 0
M  V30 6100 H 609.925 2.58872 -1.41666 0
M  V30 6101 H 610.006 1.07117 -2.32292 0
M  V30 6102 H 609.65 2.37268 -4.49072 0
M  V30 6103 H 609.58 3.8862 -3.55362 0
M  V30 6104 H 612.071 2.50053 -2.83341 0
M  V30 6105 H 612.384 4.62796 -6.18902 0
M  V30 6106 H 610.729 4.16761 -5.56179 0
M  V30 6107 H 613.92 3.0337 -3.56489 0
M  V30 6108 H 614.093 4.004 -5.09493 0
M  V30 6109 N 607.499 1.09233 1.13605 0
M  V30 6110 C 608.746 0.827159 1.84836 0
M  V30 6111 C 609.074 -0.647199 1.83416 0
M  V30 6112 O 608.329 -1.49228 1.26608 0
M  V30 6113 C 608.628 1.305 3.32723 0
M  V30 6114 C 608.294 2.78864 3.54325 0
M  V30 6115 C 606.956 3.19382 3.59928 0
M  V30 6116 C 609.308 3.74532 3.62457 0
M  V30 6117 C 606.636 4.54346 3.71196 0
M  V30 6118 C 608.988 5.09283 3.75252 0
M  V30 6119 C 607.652 5.49394 3.79108 0
M  V30 6120 H 606.922 0.302679 0.676363 0
M  V30 6121 H 609.569 1.36676 1.34134 0
M  V30 6122 H 607.874 0.68517 3.85762 0
M  V30 6123 H 609.571 1.07648 3.86281 0
M  V30 6124 H 606.161 2.46507 3.50617 0
M  V30 6125 H 610.345 3.44343 3.57409 0
M  V30 6126 H 605.601 4.84864 3.72447 0
M  V30 6127 H 609.775 5.83269 3.80487 0
M  V30 6128 H 607.402 6.5397 3.87591 0
M  V30 6129 N 608.977 -1.30795 0.87923 0
M  V30 6130 C 610.226 -1.95636 0.490875 0
M  V30 6131 C 610.539 -1.70214 -0.963674 0
M  V30 6132 O 611.745 -2.28991 -1.45861 0
M  V30 6133 C 610.201 -3.50271 0.826929 0
M  V30 6134 C 609.809 -3.84521 2.29886 0
M  V30 6135 C 611.553 -4.21456 0.507494 0
M  V30 6136 C 609.46 -5.32309 2.57685 0
M  V30 6137 H 608.39 -0.732238 0.179841 0
M  V30 6138 H 611.041 -1.48829 1.07341 0
M  V30 6139 H 609.423 -3.9562 0.173542 0
M  V30 6140 H 610.597 -3.50102 2.99609 0
M  V30 6141 H 608.912 -3.26425 2.58526 0
M  V30 6142 H 611.509 -5.30199 0.692293 0
M  V30 6143 H 611.852 -4.12614 -0.552718 0
M  V30 6144 H 612.385 -3.81772 1.11782 0
M  V30 6145 H 609.124 -5.46195 3.62424 0
M  V30 6146 H 608.644 -5.68048 1.92566 0
M  V30 6147 H 610.323 -5.99678 2.42889 0
M  V30 6148 N 610.455 -0.639598 -1.44038 0
M  V30 6149 C 611.68 -0.153117 -2.06834 0
M  V30 6150 C 612.105 1.16676 -1.47541 0
M  V30 6151 O 611.463 1.71769 -0.580093 0
M  V30 6152 C 611.511 -0.0609169 -3.60549 0
M  V30 6153 O 610.615 0.98071 -4.00569 0
M  V30 6154 H 609.956 -0.0886402 -0.658057 0
M  V30 6155 H 612.486 -0.878674 -1.84771 0
M  V30 6156 H 612.496 0.126892 -4.07803 0
M  V30 6157 H 611.171 -1.0245 -4.03084 0
M  V30 6158 H 609.748 0.766789 -3.64931 0
M  V30 6159 N 611.933 1.52934 -0.380664 0
M  V30 6160 C 612.843 2.29921 0.466192 0
M  V30 6161 C 613.859 1.36488 1.07922 0
M  V30 6162 O 615.035 1.69553 1.0869 0
M  V30 6163 C 612.1 3.08468 1.58266 0
M  V30 6164 C 611.161 4.17595 0.995627 0
M  V30 6165 C 610.394 4.92387 2.05889 0
M  V30 6166 O 610.617 4.67184 3.27254 0
M  V30 6167 O 609.551 5.77949 1.68102 0
M  V30 6168 H 613.377 3.03274 -0.160735 0
M  V30 6169 H 610.962 1.48698 -0.144617 0
M  V30 6170 H 612.844 3.57469 2.23145 0
M  V30 6171 H 611.519 2.37937 2.19471 0
M  V30 6172 H 610.426 3.72811 0.310332 0
M  V30 6173 H 611.759 4.90336 0.427918 0
M  V30 6174 N 613.412 0.11024 1.57214 0
M  V30 6175 C 614.342 -0.840002 2.17867 0
M  V30 6176 C 615.323 -1.28352 1.11624 0
M  V30 6177 O 616.508 -1.3477 1.39824 0
M  V30 6178 C 613.638 -2.09349 2.77111 0
M  V30 6179 C 612.592 -1.78807 3.8886 0
M  V30 6180 C 611.918 -3.11112 4.34872 0
M  V30 6181 C 613.218 -1.0632 5.11364 0
M  V30 6182 H 614.912 -0.334608 2.97524 0
M  V30 6183 H 612.458 -0.159502 1.43114 0
M  V30 6184 H 614.411 -2.76275 3.18198 0
M  V30 6185 H 613.135 -2.62198 1.9473 0
M  V30 6186 H 611.794 -1.14273 3.48335 0
M  V30 6187 H 611.442 -3.61877 3.49362 0
M  V30 6188 H 611.142 -2.91453 5.10224 0
M  V30 6189 H 612.666 -3.79171 4.78604 0
M  V30 6190 H 614.08 -1.63383 5.49526 0
M  V30 6191 H 612.477 -0.967876 5.92243 0
M  V30 6192 H 613.547 -0.0484569 4.84876 0
M  V30 6193 N 614.89 -1.56749 -0.16351 0
M  V30 6194 C 616.118 -1.86577 -0.894233 0
M  V30 6195 C 616.533 -0.696543 -1.75481 0
M  V30 6196 O 615.89 0.334161 -1.79415 0
M  V30 6197 C 615.941 -3.15508 -1.76456 0
M  V30 6198 O 615.662 -4.27926 -0.938685 0
M  V30 6199 C 617.163 -3.58737 -2.60428 0
M  V30 6200 H 614.383 -0.618829 -0.259405 0
M  V30 6201 H 616.927 -2.03863 -0.161259 0
M  V30 6202 H 615.082 -3.00025 -2.45079 0
M  V30 6203 H 615.496 -5.01546 -1.53465 0
M  V30 6204 H 616.97 -4.51832 -3.17099 0
M  V30 6205 H 617.447 -2.83229 -3.35675 0
M  V30 6206 H 618.053 -3.76858 -1.97125 0
M  V30 6207 N 616.368 0.432326 -1.51554 0
M  V30 6208 C 617.596 1.20364 -1.68286 0
M  V30 6209 C 618.011 1.84888 -0.38233 0
M  V30 6210 O 617.368 1.70924 0.639627 0
M  V30 6211 C 617.419 2.28398 -2.80208 0
M  V30 6212 O 617.14 1.66512 -4.05223 0
M  V30 6213 C 618.641 3.18584 -3.08251 0
M  V30 6214 H 615.861 0.36259 -0.564596 0
M  V30 6215 H 618.405 0.511647 -1.97996 0
M  V30 6216 H 616.56 2.93305 -2.53083 0
M  V30 6217 H 616.974 2.37951 -4.67418 0
M  V30 6218 H 618.448 3.90511 -3.90135 0
M  V30 6219 H 618.925 3.79628 -2.2086 0
M  V30 6220 H 619.531 2.59372 -3.37055 0
M  V30 6221 N 617.846 1.41785 0.688094 0
M  V30 6222 C 619.262 1.24419 0.999608 0
M  V30 6223 C 619.462 0.138868 2.01021 0
M  V30 6224 O 618.518 -0.494283 2.47615 0
M  V30 6225 C 619.831 2.59625 1.51709 0
M  V30 6226 C 621.379 2.66869 1.63554 0
M  V30 6227 C 621.854 4.0241 2.18702 0
M  V30 6228 N 623.345 4.04295 2.26053 0
M  V30 6229 C 624.08 5.05977 2.69768 0
M  V30 6230 N 623.576 6.18047 3.13033 0
M  V30 6231 N 625.369 4.93336 2.69398 0
M  V30 6232 H 617.52 2.12392 0.0187427 0
M  V30 6233 H 619.783 0.945347 0.0708673 0
M  V30 6234 H 619.489 3.41297 0.849059 0
M  V30 6235 H 619.363 2.82628 2.49803 0
M  V30 6236 H 621.75 1.8555 2.29467 0
M  V30 6237 H 621.831 2.47668 0.639857 0
M  V30 6238 H 621.475 4.8418 1.53402 0
M  V30 6239 H 621.405 4.18955 3.19037 0
M  V30 6240 H 623.896 3.23383 1.9553 0
M  V30 6241 H 624.209 6.91498 3.45038 0
M  V30 6242 H 622.554 6.21572 3.10923 0
M  V30 6243 H 625.745 4.04865 2.34952 0
M  V30 6244 H 625.918 5.72717 3.03148 0
M  V30 6245 N 619.324 -0.923095 1.27737 0
M  V30 6246 C 620.601 -1.64989 1.05062 0
M  V30 6247 C 620.981 -2.07018 -0.413124 0
M  V30 6248 O 620.329 -1.80797 -1.39731 0
M  V30 6249 C 620.539 -2.84847 2.01652 0
M  V30 6250 C 621.887 -3.56083 2.31279 0
M  V30 6251 O 622.911 -2.94981 1.99662 0
M  V30 6252 O 621.77 -4.66182 2.85196 0
M  V30 6253 H 618.864 -0.723357 0.400853 0
M  V30 6254 H 621.41 -0.973224 1.3902 0
M  V30 6255 H 620.182 -2.50814 3.00347 0
M  V30 6256 H 619.805 -3.60231 1.68284 0
M  V30 6257 N 620.802 -1.09834 -1.13024 0
M  V30 6258 C 621.749 -0.741522 -2.18564 0
M  V30 6259 C 622.719 0.279236 -1.63736 0
M  V30 6260 O 623.904 0.159923 -1.90129 0
M  V30 6261 C 621.044 -0.17277 -3.44667 0
M  V30 6262 C 620.157 -1.24808 -4.13578 0
M  V30 6263 C 619.292 -0.641631 -5.27311 0
M  V30 6264 C 618.331 -1.69795 -5.88078 0
M  V30 6265 N 617.468 -1.11223 -6.93234 0
M  V30 6266 H 622.308 -1.64576 -2.48432 0
M  V30 6267 H 619.845 -0.822174 -1.21978 0
M  V30 6268 H 621.803 0.17482 -4.16834 0
M  V30 6269 H 620.433 0.694725 -3.15235 0
M  V30 6270 H 619.485 -1.71288 -3.39653 0
M  V30 6271 H 620.797 -2.04795 -4.54819 0
M  V30 6272 H 619.951 -0.243128 -6.06213 0
M  V30 6273 H 618.69 0.189742 -4.87331 0
M  V30 6274 H 617.695 -2.10595 -5.07868 0
M  V30 6275 H 618.92 -2.53206 -6.3013 0
M  V30 6276 H 616.866 -0.302208 -6.55304 0
M  V30 6277 H 616.783 -1.84901 -7.3304 0
M  V30 6278 H 618.051 -0.740068 -7.75979 0
M  V30 6279 N 622.28 1.30327 -0.886154 0
M  V30 6280 C 623.243 2.26376 -0.358687 0
M  V30 6281 C 624.243 1.52845 0.499498 0
M  V30 6282 O 625.433 1.71483 0.306485 0
M  V30 6283 C 622.565 3.37379 0.488726 0
M  V30 6284 H 623.758 2.74547 -1.20681 0
M  V30 6285 H 621.311 1.41536 -0.663113 0
M  V30 6286 H 622.046 2.94526 1.35739 0
M  V30 6287 H 621.831 3.91897 -0.126003 0
M  V30 6288 H 623.321 4.08868 0.84952 0
M  V30 6289 N 623.758 0.647228 1.43697 0
M  V30 6290 C 624.983 0.164083 2.0675 0
M  V30 6291 C 625.408 -1.15892 1.48158 0
M  V30 6292 O 624.766 -1.71459 0.589194 0
M  V30 6293 C 624.814 0.0800368 3.60511 0
M  V30 6294 O 623.918 -0.959453 4.01084 0
M  V30 6295 H 623.259 0.0921288 0.657578 0
M  V30 6296 H 625.789 0.88846 1.84303 0
M  V30 6297 H 625.799 -0.105263 4.07864 0
M  V30 6298 H 624.474 1.04586 4.02535 0
M  V30 6299 H 623.051 -0.747425 3.65333 0
M  V30 6300 N 625.236 -1.5273 0.388769 0
M  V30 6301 C 626.513 -1.93981 -0.251133 0
M  V30 6302 C 626.893 -1.32418 -1.64404 0
M  V30 6303 O 626.241 -0.492074 -2.23139 0
M  V30 6304 C 626.451 -3.47891 -0.27802 0
M  V30 6305 C 627.799 -4.21559 -0.507229 0
M  V30 6306 O 628.823 -3.54394 -0.358252 0
M  V30 6307 O 627.682 -5.40626 -0.799094 0
M  V30 6308 H 624.776 -0.812157 -0.15598 0
M  V30 6309 H 627.322 -1.63809 0.443237 0
M  V30 6310 H 626.094 -3.8503 0.697669 0
M  V30 6311 H 625.717 -3.84364 -1.01733 0
M  V30 6312 N 626.714 -0.118576 -1.57153 0
M  V30 6313 C 627.677 0.817464 -2.14127 0
M  V30 6314 C 628.677 1.1949 -1.07604 0
M  V30 6315 O 629.867 1.12048 -1.33382 0
M  V30 6316 C 626.999 2.10541 -2.68115 0
M  V30 6317 H 628.192 0.322339 -2.98163 0
M  V30 6318 H 625.745 0.130655 -1.55753 0
M  V30 6319 H 626.48 2.64485 -1.87665 0
M  V30 6320 H 626.265 1.84425 -3.4602 0
M  V30 6321 H 627.755 2.77453 -3.12105 0
M  V30 6322 N 628.193 1.56834 0.155195 0
M  V30 6323 C 629.442 1.82088 0.867567 0
M  V30 6324 C 629.755 0.69849 1.82703 0
M  V30 6325 O 630.961 0.836407 2.58295 0
M  V30 6326 C 629.417 3.22707 1.59336 0
M  V30 6327 C 629.025 4.42859 0.676719 0
M  V30 6328 C 630.769 3.57242 2.293 0
M  V30 6329 C 628.676 5.74501 1.40367 0
M  V30 6330 H 627.606 0.679057 0.327715 0
M  V30 6331 H 630.257 1.83105 0.120351 0
M  V30 6332 H 628.639 3.16054 2.38591 0
M  V30 6333 H 629.813 4.60731 -0.0800196 0
M  V30 6334 H 628.128 4.16311 0.0859129 0
M  V30 6335 H 630.725 4.52847 2.84312 0
M  V30 6336 H 631.068 2.82901 3.05406 0
M  V30 6337 H 631.601 3.6552 1.56972 0
M  V30 6338 H 628.34 6.51915 0.684623 0
M  V30 6339 H 627.86 5.60579 2.13332 0
M  V30 6340 H 629.539 6.17016 1.94681 0
M  V30 6341 N 629.671 -0.424282 1.51781 0
M  V30 6342 C 630.601 -1.52305 1.7699 0
M  V30 6343 C 631.582 -1.5839 0.620209 0
M  V30 6344 O 632.767 -1.73908 0.864268 0
M  V30 6345 C 629.897 -2.90271 1.90683 0
M  V30 6346 C 628.851 -2.99043 3.06198 0
M  V30 6347 C 628.177 -4.39116 3.05092 0
M  V30 6348 C 629.477 -2.7192 4.45934 0
M  V30 6349 H 631.171 -1.31461 2.68995 0
M  V30 6350 H 628.717 -0.630985 1.29439 0
M  V30 6351 H 630.67 -3.6711 2.06901 0
M  V30 6352 H 629.394 -3.12376 0.953365 0
M  V30 6353 H 628.053 -2.24646 2.89706 0
M  V30 6354 H 627.701 -4.58207 2.07498 0
M  V30 6355 H 627.401 -4.45912 3.82669 0
M  V30 6356 H 628.925 -5.17911 3.2342 0
M  V30 6357 H 630.339 -3.38487 4.62709 0
M  V30 6358 H 628.736 -2.90111 5.25315 0
M  V30 6359 H 629.806 -1.67445 4.55072 0
M  V30 6360 N 631.149 -1.42148 -0.680565 0
M  V30 6361 C 632.096 -1.45175 -1.79424 0
M  V30 6362 C 633.066 -0.304352 -1.63288 0
M  V30 6363 O 634.251 -0.507591 -1.83924 0
M  V30 6364 C 631.391 -1.35429 -3.17416 0
M  V30 6365 C 630.504 -2.60158 -3.4488 0
M  V30 6366 C 629.639 -2.42596 -4.72568 0
M  V30 6367 C 628.678 -3.62727 -4.93047 0
M  V30 6368 N 627.815 -3.44143 -6.11973 0
M  V30 6369 H 632.655 -2.40349 -1.76172 0
M  V30 6370 H 630.192 -1.19334 -0.860107 0
M  V30 6371 H 632.15 -1.27777 -3.97151 0
M  V30 6372 H 630.78 -0.438536 -3.19807 0
M  V30 6373 H 629.832 -2.78199 -2.5944 0
M  V30 6374 H 631.144 -3.49473 -3.55908 0
M  V30 6375 H 630.298 -2.32497 -5.60384 0
M  V30 6376 H 629.037 -1.50761 -4.63813 0
M  V30 6377 H 628.042 -3.73264 -4.03676 0
M  V30 6378 H 629.267 -4.55534 -5.03652 0
M  V30 6379 H 627.213 -2.5502 -6.04401 0
M  V30 6380 H 627.13 -4.27041 -6.23836 0
M  V30 6381 H 628.398 -3.37845 -7.02482 0
M  V30 6382 N 632.627 0.916307 -1.28225 0
M  V30 6383 C 633.559 2.02303 -1.07732 0
M  V30 6384 C 634.572 1.62773 -0.0298421 0
M  V30 6385 O 635.761 1.76406 -0.272626 0
M  V30 6386 C 632.861 3.33282 -0.614504 0
M  V30 6387 C 632.034 4.01439 -1.73682 0
M  V30 6388 C 631.093 5.10698 -1.26781 0
M  V30 6389 O 630.119 5.34038 -1.96958 0
M  V30 6390 N 631.321 5.80355 -0.129624 0
M  V30 6391 H 634.086 2.20442 -2.03041 0
M  V30 6392 H 631.647 1.08744 -1.19943 0
M  V30 6393 H 633.639 4.03699 -0.284397 0
M  V30 6394 H 632.209 3.11633 0.245664 0
M  V30 6395 H 631.429 3.24604 -2.23665 0
M  V30 6396 H 632.717 4.43721 -2.48976 0
M  V30 6397 H 632.115 5.6386 0.455847 0
M  V30 6398 H 630.672 6.51647 0.141224 0
M  V30 6399 N 634.105 1.10431 1.1244 0
M  V30 6400 C 635.516 0.864439 1.65482 0
M  V30 6401 C 635.867 -0.60527 1.8663 0
M  V30 6402 O 634.992 -1.46492 1.59276 0
M  V30 6403 C 635.587 1.56267 3.0061 0
M  V30 6404 C 634.146 1.3695 3.50602 0
M  V30 6405 C 633.293 1.61209 2.25626 0
M  V30 6406 H 636.244 1.26203 0.962209 0
M  V30 6407 H 636.265 1.00166 3.67079 0
M  V30 6408 H 635.777 2.63231 2.85186 0
M  V30 6409 H 633.878 0.321481 3.71211 0
M  V30 6410 H 633.991 2.11143 4.30064 0
M  V30 6411 H 632.355 1.03482 2.32731 0
M  V30 6412 H 633.138 2.69425 2.12756 0
M  V30 6413 N 635.583 -1.29855 0.893053 0
M  V30 6414 C 636.831 -1.9544 0.514566 0
M  V30 6415 C 637.152 -1.70795 -0.940959 0
M  V30 6416 O 636.422 -1.03601 -1.66264 0
M  V30 6417 H 635.002 -0.723137 0.187302 0
M  V30 6418 H 637.664 -1.58234 1.13789 0
M  V30 6419 H 636.76 -3.04341 0.691581 0
M  V30 6420 N 637.061 -0.65484 -1.43351 0
M  V30 6421 C 637.993 0.0744757 -2.29079 0
M  V30 6422 C 639.006 0.7855 -1.42596 0
M  V30 6423 O 640.195 0.642986 -1.66517 0
M  V30 6424 C 637.295 1.12859 -3.19556 0
M  V30 6425 C 636.468 0.495381 -4.34586 0
M  V30 6426 C 635.527 1.44659 -5.05925 0
M  V30 6427 O 634.553 0.954567 -5.61139 0
M  V30 6428 N 635.755 2.78051 -5.09576 0
M  V30 6429 H 638.52 -0.661346 -2.92312 0
M  V30 6430 H 636.081 -0.497744 -1.54059 0
M  V30 6431 H 638.073 1.76577 -3.64147 0
M  V30 6432 H 636.643 1.76636 -2.57912 0
M  V30 6433 H 635.863 -0.32092 -3.92892 0
M  V30 6434 H 637.151 0.0534203 -5.08772 0
M  V30 6435 H 636.549 3.20584 -4.66093 0
M  V30 6436 H 635.106 3.37068 -5.57878 0
M  V30 6437 N 638.539 1.52521 -0.396863 0
M  V30 6438 C 639.786 2.01672 0.182898 0
M  V30 6439 C 640.114 1.28302 1.46181 0
M  V30 6440 O 639.369 0.374118 1.92091 0
M  V30 6441 C 639.668 3.5403 0.489677 0
M  V30 6442 C 639.334 4.45456 -0.698581 0
M  V30 6443 C 637.996 4.70166 -1.02454 0
M  V30 6444 C 640.348 4.99354 -1.49316 0
M  V30 6445 C 637.676 5.46024 -2.1465 0
M  V30 6446 C 640.028 5.76439 -2.60579 0
M  V30 6447 C 638.692 5.99426 -2.93675 0
M  V30 6448 H 637.962 0.737971 0.066927 0
M  V30 6449 H 640.609 1.83853 -0.535764 0
M  V30 6450 H 638.914 3.69963 1.28976 0
M  V30 6451 H 640.611 3.8956 0.951018 0
M  V30 6452 H 637.201 4.26392 -0.434525 0
M  V30 6453 H 641.385 4.80182 -1.25457 0
M  V30 6454 H 636.641 5.62046 -2.40654 0
M  V30 6455 H 640.815 6.17202 -3.22544 0
M  V30 6456 H 638.442 6.57988 -3.80731 0
M  V30 6457 N 640.017 0.126909 1.57088 0
M  V30 6458 C 640.98 -0.806097 2.14557 0
M  V30 6459 C 641.98 -1.18918 1.08236 0
M  V30 6460 O 643.17 -1.11339 1.33975 0
M  V30 6461 C 640.302 -2.09116 2.69227 0
M  V30 6462 H 641.495 -0.306522 2.98329 0
M  V30 6463 H 639.048 -0.122393 1.5582 0
M  V30 6464 H 639.783 -2.63486 1.89065 0
M  V30 6465 H 639.568 -1.82588 3.46993 0
M  V30 6466 H 641.058 -2.75794 3.13572 0
M  V30 6467 N 641.495 -1.56914 -0.146875 0
M  V30 6468 C 642.741 -1.84515 -0.855914 0
M  V30 6469 C 643.096 -0.710909 -1.78784 0
M  V30 6470 O 642.389 0.291123 -1.89375 0
M  V30 6471 C 642.583 -3.16128 -1.66727 0
M  V30 6472 C 642.412 -4.42246 -0.815405 0
M  V30 6473 C 641.182 -5.03006 -0.480976 0
M  V30 6474 C 643.38 -5.14094 -0.145684 0
M  V30 6475 N 641.362 -6.12695 0.384476 0
M  V30 6476 C 642.733 -6.17282 0.579902 0
M  V30 6477 C 644.788 -4.97856 -0.0663705 0
M  V30 6478 C 643.491 -7.0599 1.37731 0
M  V30 6479 C 645.517 -5.87028 0.71778 0
M  V30 6480 C 644.879 -6.89698 1.43165 0
M  V30 6481 H 640.978 -0.725829 -0.291026 0
M  V30 6482 H 643.562 -1.94322 -0.121279 0
M  V30 6483 H 641.733 -3.07468 -2.37315 0
M  V30 6484 H 643.465 -3.31635 -2.31949 0
M  V30 6485 H 640.22 -4.66504 -0.816789 0
M  V30 6486 H 640.644 -6.72158 0.80823 0
M  V30 6487 H 645.286 -4.18465 -0.603929 0
M  V30 6488 H 643.004 -7.84809 1.92613 0
M  V30 6489 H 646.59 -5.76532 0.781141 0
M  V30 6490 H 645.47 -7.57505 2.02868 0
M  V30 6491 N 642.974 0.416227 -1.52004 0
M  V30 6492 C 644.223 1.16088 -1.64944 0
M  V30 6493 C 644.536 1.91835 -0.381928 0
M  V30 6494 O 645.742 2.6867 -0.391013 0
M  V30 6495 C 644.198 2.1124 -2.91386 0
M  V30 6496 C 643.806 1.41042 -4.25219 0
M  V30 6497 C 645.55 2.86008 -3.13688 0
M  V30 6498 C 643.457 2.34801 -5.42791 0
M  V30 6499 H 642.387 0.437041 -0.61442 0
M  V30 6500 H 645.038 0.425971 -1.78487 0
M  V30 6501 H 643.42 2.88254 -2.71525 0
M  V30 6502 H 644.594 0.694416 -4.55538 0
M  V30 6503 H 642.909 0.78344 -4.08964 0
M  V30 6504 H 645.506 3.56286 -3.98703 0
M  V30 6505 H 645.849 3.48556 -2.27628 0
M  V30 6506 H 646.382 2.16095 -3.33988 0
M  V30 6507 H 643.121 1.7691 -6.31176 0
M  V30 6508 H 642.641 3.04395 -5.16821 0
M  V30 6509 H 644.32 2.9548 -5.75587 0
M  V30 6510 N 644.452 1.42507 0.673017 0
M  V30 6511 C 645.701 1.42364 1.42883 0
M  V30 6512 C 646.014 0.0441598 1.9555 0
M  V30 6513 O 647.22 -0.0798679 2.71382 0
M  V30 6514 C 645.676 2.5043 2.58482 0
M  V30 6515 C 645.284 3.94392 2.12506 0
M  V30 6516 C 647.028 2.59455 3.35981 0
M  V30 6517 C 644.935 4.93964 3.25198 0
M  V30 6518 H 643.865 0.52951 0.536782 0
M  V30 6519 H 646.516 1.68422 0.728448 0
M  V30 6520 H 644.898 2.1754 3.30896 0
M  V30 6521 H 646.072 4.36645 1.47233 0
M  V30 6522 H 644.387 3.89233 1.4794 0
M  V30 6523 H 646.984 3.31025 4.19912 0
M  V30 6524 H 647.327 1.63869 3.82691 0
M  V30 6525 H 647.86 2.91549 2.70637 0
M  V30 6526 H 644.599 5.91034 2.83477 0
M  V30 6527 H 644.119 4.56341 3.89247 0
M  V30 6528 H 645.798 5.15763 3.90637 0
M  V30 6529 N 645.93 -0.909495 1.28709 0
M  V30 6530 C 647.177 -1.65905 1.16111 0
M  V30 6531 C 647.505 -1.92334 -0.289436 0
M  V30 6532 O 646.76 -1.52495 -1.22653 0
M  V30 6533 C 647.059 -3.02117 1.90945 0
M  V30 6534 C 646.725 -2.95332 3.40719 0
M  V30 6535 C 645.387 -2.93189 3.81567 0
M  V30 6536 C 647.739 -2.85264 4.36204 0
M  V30 6537 C 645.067 -2.78784 5.16233 0
M  V30 6538 C 647.419 -2.724 5.70948 0
M  V30 6539 C 646.083 -2.68617 6.11066 0
M  V30 6540 H 645.353 -0.60709 0.42488 0
M  V30 6541 H 648 -1.05932 1.59533 0
M  V30 6542 H 646.305 -3.65901 1.40085 0
M  V30 6543 H 648.002 -3.59026 1.7861 0
M  V30 6544 H 644.592 -2.97797 3.08245 0
M  V30 6545 H 648.776 -2.86005 4.05605 0
M  V30 6546 H 644.032 -2.74254 5.46438 0
M  V30 6547 H 648.206 -2.63579 6.44592 0
M  V30 6548 H 645.833 -2.57213 7.15364 0
M  V30 6549 N 647.408 -1.11026 -1.11852 0
M  V30 6550 C 648.685 -0.768347 -1.79877 0
M  V30 6551 C 649.065 0.744261 -1.97545 0
M  V30 6552 O 648.413 1.67271 -1.55669 0
M  V30 6553 C 648.623 -1.52648 -3.13846 0
M  V30 6554 C 649.971 -1.70297 -3.88953 0
M  V30 6555 O 650.995 -1.49037 -3.23522 0
M  V30 6556 O 649.854 -2.05593 -5.06353 0
M  V30 6557 H 646.948 -0.277891 -0.778913 0
M  V30 6558 H 649.494 -1.21343 -1.18633 0
M  V30 6559 H 648.266 -2.55564 -2.96315 0
M  V30 6560 H 647.889 -1.07466 -3.82801 0
M  V30 6561 N 648.886 1.2938 -0.899927 0
M  V30 6562 C 649.834 2.29675 -0.367698 0
M  V30 6563 C 650.828 1.60787 0.533282 0
M  V30 6564 O 652.034 1.75126 0.416058 0
M  V30 6565 H 648.409 0.745284 -0.100279 0
M  V30 6566 H 650.38 2.72008 -1.22696 0
M  V30 6567 C 649.129 3.45512 0.389483 0
M  V30 6568 H 648.452 3.98713 -0.294575 0
M  V30 6569 H 649.892 4.17725 0.726744 0
M  V30 6570 C 648.351 2.969 1.59223 0
M  V30 6571 O 648.881 2.98195 2.69152 0
M  V30 6572 N 647.087 2.52728 1.43447 0
M  V30 6573 H 646.634 2.51873 0.540148 0
M  V30 6574 H 646.592 2.20561 2.24054 0
M  V30 6575 N 650.364 0.662433 1.43002 0
M  V30 6576 C 651.296 -0.062326 2.29115 0
M  V30 6577 C 652.309 -0.777926 1.43011 0
M  V30 6578 O 653.498 -0.634146 1.66856 0
M  V30 6579 C 650.598 -1.11163 3.2015 0
M  V30 6580 C 649.771 -0.472327 4.34842 0
M  V30 6581 C 648.83 -1.41974 5.06685 0
M  V30 6582 O 647.856 -0.924795 5.61637 0
M  V30 6583 N 649.058 -2.75345 5.11043 0
M  V30 6584 H 651.823 0.676838 2.91957 0
M  V30 6585 H 649.384 0.505907 1.53793 0
M  V30 6586 H 651.376 -1.74643 3.65078 0
M  V30 6587 H 649.946 -1.75266 2.58845 0
M  V30 6588 H 649.166 0.341751 3.92716 0
M  V30 6589 H 650.454 -0.0264381 5.08793 0
M  V30 6590 H 649.852 -3.18108 4.67786 0
M  V30 6591 H 648.409 -3.34105 5.59658 0
M  V30 6592 N 651.842 -1.52309 0.404946 0
M  V30 6593 C 652.772 -2.29805 -0.41376 0
M  V30 6594 C 653.753 -1.3384 -1.0498 0
M  V30 6595 O 654.938 -1.62745 -1.05961 0
M  V30 6596 C 652.068 -3.11639 -1.53292 0
M  V30 6597 C 651.022 -4.15616 -1.02211 0
M  V30 6598 C 650.348 -4.8577 -2.23455 0
M  V30 6599 C 651.648 -5.2224 -0.0790725 0
M  V30 6600 H 653.342 -2.98493 0.232878 0
M  V30 6601 H 650.888 -1.43552 0.113441 0
M  V30 6602 H 652.841 -3.64618 -2.11262 0
M  V30 6603 H 651.565 -2.40712 -2.20738 0
M  V30 6604 H 650.224 -3.63641 -0.46484 0
M  V30 6605 H 649.872 -4.11376 -2.89445 0
M  V30 6606 H 649.572 -5.56058 -1.89929 0
M  V30 6607 H 651.096 -5.4156 -2.82038 0
M  V30 6608 H 652.51 -5.70485 -0.567438 0
M  V30 6609 H 650.907 -5.99867 0.167167 0
M  V30 6610 H 651.977 -4.77078 0.867447 0
M  V30 6611 N 653.32 -0.135238 -1.57019 0
M  V30 6612 C 654.55 0.525303 -1.9981 0
M  V30 6613 C 654.958 1.59724 -1.01415 0
M  V30 6614 O 654.301 1.837 -0.00130938 0
M  V30 6615 C 654.363 1.19578 -3.3903 0
M  V30 6616 C 654.027 0.269855 -4.56203 0
M  V30 6617 C 655.024 -0.497905 -5.1751 0
M  V30 6618 C 652.709 0.176188 -5.01991 0
M  V30 6619 C 654.703 -1.3469 -6.23007 0
M  V30 6620 C 652.39 -0.676422 -6.07345 0
M  V30 6621 C 653.388 -1.43658 -6.67721 0
M  V30 6622 O 653.076 -2.27501 -7.71037 0
M  V30 6623 H 652.808 0.142296 -0.660854 0
M  V30 6624 H 655.362 -0.223272 -2.04183 0
M  V30 6625 H 653.592 1.99176 -3.3146 0
M  V30 6626 H 655.281 1.75486 -3.66005 0
M  V30 6627 H 656.047 -0.435507 -4.83041 0
M  V30 6628 H 651.926 0.757583 -4.54733 0
M  V30 6629 H 655.47 -1.9407 -6.70062 0
M  V30 6630 H 651.367 -0.740154 -6.41243 0
M  V30 6631 H 652.135 -2.20619 -7.88206 0
M  V30 6632 N 654.798 1.5699 0.138552 0
M  V30 6633 C 655.745 1.98899 1.17081 0
M  V30 6634 C 656.715 0.857922 1.42228 0
M  V30 6635 O 657.9 1.12065 1.54422 0
M  V30 6636 C 655.04 2.38189 2.4972 0
M  V30 6637 C 654.153 3.64624 2.31674 0
M  V30 6638 C 653.288 3.9298 3.57407 0
M  V30 6639 C 652.327 5.1266 3.34435 0
M  V30 6640 N 651.464 5.36983 4.5232 0
M  V30 6641 H 656.304 2.86881 0.80642 0
M  V30 6642 H 653.841 1.41925 0.386727 0
M  V30 6643 H 655.799 2.59 3.2707 0
M  V30 6644 H 654.429 1.53275 2.84089 0
M  V30 6645 H 653.481 3.51542 1.45337 0
M  V30 6646 H 654.793 4.52131 2.10664 0
M  V30 6647 H 653.947 4.14335 4.43183 0
M  V30 6648 H 652.686 3.03912 3.8143 0
M  V30 6649 H 651.691 4.9117 2.47048 0
M  V30 6650 H 652.916 6.03288 3.11802 0
M  V30 6651 H 650.862 4.50871 4.76499 0
M  V30 6652 H 650.779 6.18775 4.34343 0
M  V30 6653 H 652.047 5.62842 5.39285 0
M  V30 6654 N 656.276 -0.40816 1.52223 0
M  V30 6655 C 657.223 -1.49737 1.75635 0
M  V30 6656 C 658.193 -1.5493 0.598824 0
M  V30 6657 O 659.378 -1.71487 0.83648 0
M  V30 6658 C 656.518 -2.87174 1.91376 0
M  V30 6659 C 655.631 -2.91283 3.19027 0
M  V30 6660 C 654.766 -4.20026 3.25195 0
M  V30 6661 C 653.805 -4.18113 4.47044 0
M  V30 6662 N 652.942 -5.38429 4.50598 0
M  V30 6663 H 657.782 -1.29075 2.68596 0
M  V30 6664 H 655.319 -0.626518 1.33091 0
M  V30 6665 H 657.277 -3.66959 1.98486 0
M  V30 6666 H 655.907 -3.06329 1.01795 0
M  V30 6667 H 654.959 -2.03984 3.21084 0
M  V30 6668 H 656.271 -2.85734 4.08849 0
M  V30 6669 H 655.425 -5.08204 3.31382 0
M  V30 6670 H 654.164 -4.28271 2.33313 0
M  V30 6671 H 653.169 -3.28325 4.41002 0
M  V30 6672 H 654.394 -4.11507 5.40221 0
M  V30 6673 H 652.34 -5.4734 3.616 0
M  V30 6674 H 652.257 -5.34879 5.34266 0
M  V30 6675 H 653.525 -6.28557 4.61016 0
M  V30 6676 N 657.755 -1.42862 -0.66545 0
M  V30 6677 C 658.718 -1.46756 -1.76055 0
M  V30 6678 C 659.718 -0.353866 -1.56858 0
M  V30 6679 O 660.908 -0.615099 -1.62979 0
M  V30 6680 C 658.04 -1.30829 -3.14796 0
M  V30 6681 H 659.233 -2.44271 -1.73987 0
M  V30 6682 H 656.786 -1.29447 -0.875965 0
M  V30 6683 H 657.521 -0.342733 -3.22484 0
M  V30 6684 H 657.306 -2.11551 -3.30134 0
M  V30 6685 H 658.796 -1.36458 -3.94676 0
M  V30 6686 N 659.233 0.902656 -1.29189 0
M  V30 6687 C 660.18 2.00643 -1.14066 0
M  V30 6688 C 661.15 1.66064 -0.0347756 0
M  V30 6689 O 662.335 1.8973 -0.201752 0
M  V30 6690 C 659.475 3.35214 -0.820104 0
M  V30 6691 C 658.588 3.82594 -2.00614 0
M  V30 6692 C 657.723 5.05727 -1.62522 0
M  V30 6693 C 656.762 5.45469 -2.77724 0
M  V30 6694 N 655.899 6.59789 -2.40048 0
M  V30 6695 H 660.739 2.1291 -2.08502 0
M  V30 6696 H 658.276 1.04271 -1.03759 0
M  V30 6697 H 660.234 4.12643 -0.614949 0
M  V30 6698 H 658.864 3.22682 0.0873452 0
M  V30 6699 H 657.916 3.01226 -2.32308 0
M  V30 6700 H 659.228 4.07999 -2.86946 0
M  V30 6701 H 658.382 5.90732 -1.38277 0
M  V30 6702 H 657.121 4.82155 -0.733333 0
M  V30 6703 H 656.126 4.59 -3.02653 0
M  V30 6704 H 657.351 5.71024 -3.67572 0
M  V30 6705 H 655.297 6.37826 -1.53343 0
M  V30 6706 H 655.214 6.84975 -3.19914 0
M  V30 6707 H 656.482 7.4807 -2.19116 0
M  V30 6708 N 660.711 1.11618 1.11262 0
M  V30 6709 C 661.644 0.719995 2.16544 0
M  V30 6710 C 662.622 -0.28471 1.60088 0
M  V30 6711 O 663.806 -0.180693 1.87632 0
M  V30 6712 C 660.933 0.0643302 3.38639 0
M  V30 6713 C 659.979 1.03448 4.13764 0
M  V30 6714 S 660.812 2.55789 4.70459 0
M  V30 6715 C 661.968 1.91529 5.95875 0
M  V30 6716 H 662.201 1.61181 2.49816 0
M  V30 6717 H 659.734 0.934401 1.22916 0
M  V30 6718 H 661.692 -0.307609 4.09346 0
M  V30 6719 H 660.353 -0.804471 3.03623 0
M  V30 6720 H 659.546 0.523188 5.01277 0
M  V30 6721 H 659.148 1.34893 3.48826 0
M  V30 6722 H 661.44 1.25286 6.65815 0
M  V30 6723 H 662.383 2.77047 6.51652 0
M  V30 6724 H 662.791 1.37468 5.47506 0
M  V30 6725 N 662.189 -1.289 0.906776 0
M  V30 6726 C 663.435 -1.95558 0.53712 0
M  V30 6727 C 663.768 -1.71262 -0.915582 0
M  V30 6728 O 663.043 -1.02961 -1.65013 0
M  V30 6729 C 663.326 -3.50198 0.838645 0
M  V30 6730 C 663.179 -3.83923 2.34357 0
M  V30 6731 C 664.498 -4.38861 0.329988 0
M  V30 6732 H 661.617 -0.710289 0.196617 0
M  V30 6733 H 664.259 -1.52392 1.13475 0
M  V30 6734 H 662.409 -3.87096 0.330024 0
M  V30 6735 H 664.081 -3.56933 2.92227 0
M  V30 6736 H 662.324 -3.31215 2.80141 0
M  V30 6737 H 662.995 -4.91883 2.5051 0
M  V30 6738 H 665.471 -4.08996 0.765609 0
M  V30 6739 H 664.347 -5.45931 0.570105 0
M  V30 6740 H 664.608 -4.35352 -0.769511 0
M  V30 6741 N 663.667 -0.670007 -1.42649 0
M  V30 6742 C 665.083 -0.33911 -1.55956 0
M  V30 6743 C 665.283 1.1558 -1.65056 0
M  V30 6744 O 664.339 1.94111 -1.61485 0
M  V30 6745 C 665.652 -1.06522 -2.812 0
M  V30 6746 C 667.2 -1.04708 -2.94966 0
M  V30 6747 C 667.675 -1.75442 -4.23065 0
M  V30 6748 N 669.166 -1.72286 -4.29967 0
M  V30 6749 C 669.901 -2.23877 -5.27889 0
M  V30 6750 N 669.397 -2.83829 -6.31991 0
M  V30 6751 N 671.19 -2.14279 -5.19654 0
M  V30 6752 H 663.341 -1.6399 -1.34986 0
M  V30 6753 H 665.604 -0.690603 -0.649439 0
M  V30 6754 H 665.31 -2.12033 -2.80597 0
M  V30 6755 H 665.184 -0.627398 -3.71946 0
M  V30 6756 H 667.571 -0.000315966 -2.951 0
M  V30 6757 H 667.652 -1.52374 -2.05465 0
M  V30 6758 H 667.296 -2.80084 -4.23693 0
M  V30 6759 H 667.226 -1.25229 -5.11493 0
M  V30 6760 H 669.717 -1.28554 -3.55362 0
M  V30 6761 H 670.03 -3.20827 -7.03057 0
M  V30 6762 H 668.375 -2.87896 -6.32567 0
M  V30 6763 H 671.566 -1.67135 -4.37245 0
M  V30 6764 H 671.739 -2.54792 -5.95806 0
M  V30 6765 N 665.145 1.52092 -0.413018 0
M  V30 6766 C 666.393 2.01456 0.161178 0
M  V30 6767 C 666.714 1.30034 1.45314 0
M  V30 6768 O 665.984 0.427435 1.9118 0
M  V30 6769 H 664.564 0.744376 0.0625526 0
M  V30 6770 H 667.226 1.86974 -0.550151 0
M  V30 6771 H 666.322 3.1008 0.354517 0
M  V30 6772 N 666.623 0.143563 1.56945 0
M  V30 6773 C 667.853 -0.514699 2.00086 0
M  V30 6774 C 668.261 -1.59184 1.0226 0
M  V30 6775 O 667.604 -1.83697 0.0110514 0
M  V30 6776 C 667.666 -1.17778 3.39659 0
M  V30 6777 C 667.33 -0.245657 4.56339 0
M  V30 6778 C 668.327 0.525343 5.17239 0
M  V30 6779 C 666.012 -0.149564 5.02077 0
M  V30 6780 C 668.006 1.37992 6.22284 0
M  V30 6781 C 665.693 0.708621 6.06978 0
M  V30 6782 C 666.691 1.47197 6.6695 0
M  V30 6783 O 666.379 2.31586 7.6982 0
M  V30 6784 H 666.111 -0.138789 0.661599 0
M  V30 6785 H 668.665 0.234098 2.04062 0
M  V30 6786 H 666.895 -1.97415 3.32512 0
M  V30 6787 H 668.584 -1.73542 3.6693 0
M  V30 6788 H 669.35 0.461118 4.82803 0
M  V30 6789 H 665.229 -0.733457 4.55128 0
M  V30 6790 H 668.773 1.97621 6.69023 0
M  V30 6791 H 664.67 0.77415 6.40841 0
M  V30 6792 H 665.438 2.24796 7.87025 0
M  V30 6793 N 668.101 -1.57061 -0.130224 0
M  V30 6794 C 669.378 -1.75205 -0.869631 0
M  V30 6795 C 669.758 -0.716063 -1.98584 0
M  V30 6796 O 669.106 0.262032 -2.26993 0
M  V30 6797 C 669.316 -3.19835 -1.39666 0
M  V30 6798 C 670.664 -3.82011 -1.85345 0
M  V30 6799 O 671.688 -3.23368 -1.49371 0
M  V30 6800 O 670.547 -4.85064 -2.51744 0
M  V30 6801 H 667.641 -0.716977 -0.412157 0
M  V30 6802 H 670.187 -1.69311 -0.11484 0
M  V30 6803 H 668.959 -3.86745 -0.595288 0
M  V30 6804 H 668.582 -3.30222 -2.21448 0
M  V30 6805 N 669.579 0.400081 -1.52437 0
M  V30 6806 C 670.529 1.48734 -1.72807 0
M  V30 6807 C 671.513 1.50004 -0.582032 0
M  V30 6808 O 672.705 1.55828 -0.839449 0
M  V30 6809 C 669.834 2.86568 -1.89034 0
M  V30 6810 C 668.92 2.8991 -3.09537 0
M  V30 6811 N 669.311 2.62937 -4.32086 0
M  V30 6812 C 667.609 3.21078 -3.09556 0
M  V30 6813 C 668.31 2.73079 -5.13617 0
M  V30 6814 N 667.286 3.06342 -4.49061 0
M  V30 6815 H 671.088 1.26689 -2.65193 0
M  V30 6816 H 668.602 0.607902 -1.50593 0
M  V30 6817 H 670.599 3.64834 -2.01746 0
M  V30 6818 H 669.259 3.09604 -0.978547 0
M  V30 6819 H 670.27 2.37163 -4.60406 0
M  V30 6820 H 666.947 3.49651 -2.28146 0
M  V30 6821 H 668.337 2.55863 -6.21276 0
M  V30 6822 N 671.057 1.43213 0.657864 0
M  V30 6823 C 671.987 1.50815 1.78262 0
M  V30 6824 C 672.968 0.363211 1.66177 0
M  V30 6825 O 674.153 0.579806 1.85343 0
M  V30 6826 C 671.283 1.42625 3.16663 0
M  V30 6827 C 670.237 2.5532 3.43505 0
M  V30 6828 C 669.563 2.32184 4.81658 0
M  V30 6829 C 670.863 3.97583 3.38711 0
M  V30 6830 H 672.557 2.44954 1.72157 0
M  V30 6831 H 670.103 1.17896 0.82683 0
M  V30 6832 H 672.056 1.46548 3.95097 0
M  V30 6833 H 670.78 0.449877 3.23487 0
M  V30 6834 H 669.439 2.50742 2.6744 0
M  V30 6835 H 669.087 1.32801 4.85153 0
M  V30 6836 H 668.787 3.07724 5.00579 0
M  V30 6837 H 670.311 2.37883 5.62356 0
M  V30 6838 H 671.725 4.03673 4.07089 0
M  V30 6839 H 670.122 4.73112 3.69168 0
M  V30 6840 H 671.192 4.23049 2.36976 0
M  V30 6841 N 672.536 -0.895792 1.29666 0
M  V30 6842 C 673.446 -2.03329 1.17024 0
M  V30 6843 C 674.462 -1.73753 0.0925962 0
M  V30 6844 O 675.638 -1.99071 0.305431 0
M  V30 6845 C 672.703 -3.36072 0.851841 0
M  V30 6846 C 671.764 -3.7914 2.01373 0
M  V30 6847 C 670.997 -5.05549 1.71043 0
M  V30 6848 O 671.22 -5.66874 0.633213 0
M  V30 6849 O 670.154 -5.44764 2.5596 0
M  V30 6850 H 673.98 -2.16918 2.12556 0
M  V30 6851 H 671.565 -1.02007 1.09156 0
M  V30 6852 H 673.447 -4.15729 0.689006 0
M  V30 6853 H 672.122 -3.23616 -0.0736634 0
M  V30 6854 H 671.029 -3.00233 2.23183 0
M  V30 6855 H 672.362 -3.96186 2.92058 0
M  V30 6856 N 674.014 -1.12206 -1.10668 0
M  V30 6857 C 674.947 -0.731468 -2.16159 0
M  V30 6858 C 675.925 0.276216 -1.60237 0
M  V30 6859 O 677.109 0.17074 -1.87725 0
M  V30 6860 C 674.236 -0.0822882 -3.386 0
M  V30 6861 C 673.282 -1.05641 -4.1321 0
M  V30 6862 S 674.115 -2.58281 -4.69096 0
M  V30 6863 C 675.271 -1.94686 -5.94851 0
M  V30 6864 H 675.504 -1.62504 -2.48957 0
M  V30 6865 H 673.037 -0.940906 -1.22419 0
M  V30 6866 H 674.995 0.285896 -4.09503 0
M  V30 6867 H 673.656 0.788358 -3.04046 0
M  V30 6868 H 672.849 -0.549764 -5.00993 0
M  V30 6869 H 672.451 -1.36741 -3.48106 0
M  V30 6870 H 674.743 -1.28815 -6.65141 0
M  V30 6871 H 675.686 -2.80499 -6.50174 0
M  V30 6872 H 676.094 -1.40369 -5.46769 0
M  V30 6873 N 675.492 1.28418 -0.913599 0
M  V30 6874 C 676.422 2.29713 -0.418847 0
M  V30 6875 C 677.403 1.62165 0.513469 0
M  V30 6876 O 678.588 1.89576 0.421235 0
M  V30 6877 C 675.718 3.45612 0.342042 0
M  V30 6878 C 674.672 4.25056 -0.501123 0
M  V30 6879 C 673.998 5.3329 0.388097 0
M  V30 6880 C 675.298 4.91814 -1.75831 0
M  V30 6881 H 676.992 2.71346 -1.26538 0
M  V30 6882 H 674.538 1.30446 -0.609903 0
M  V30 6883 H 676.491 4.15562 0.699 0
M  V30 6884 H 675.215 3.02858 1.22248 0
M  V30 6885 H 673.874 3.56833 -0.840598 0
M  V30 6886 H 673.522 4.8678 1.26707 0
M  V30 6887 H 673.222 5.87347 -0.172459 0
M  V30 6888 H 674.746 6.06088 0.74094 0
M  V30 6889 H 676.16 5.54126 -1.47026 0
M  V30 6890 H 674.557 5.55866 -2.26126 0
M  V30 6891 H 675.627 4.16313 -2.4862 0
M  V30 6892 N 676.97 0.677563 1.42291 0
M  V30 6893 C 678.2 0.209155 2.05539 0
M  V30 6894 C 678.608 -1.13987 1.51009 0
M  V30 6895 O 677.951 -1.71976 0.645764 0
M  V30 6896 C 678.013 0.0697758 3.59432 0
M  V30 6897 C 677.677 1.34795 4.36668 0
M  V30 6898 C 678.674 2.28201 4.67141 0
M  V30 6899 C 676.359 1.59632 4.76259 0
M  V30 6900 C 678.353 3.44718 5.36142 0
M  V30 6901 C 676.04 2.76437 5.45 0
M  V30 6902 C 677.038 3.68805 5.74867 0
M  V30 6903 O 676.726 4.83567 6.42198 0
M  V30 6904 H 676.458 0.0986202 0.668768 0
M  V30 6905 H 679.012 0.925483 1.83368 0
M  V30 6906 H 677.242 -0.702157 3.80272 0
M  V30 6907 H 678.931 -0.359115 4.04308 0
M  V30 6908 H 679.697 2.10264 4.37052 0
M  V30 6909 H 675.576 0.886073 4.52404 0
M  V30 6910 H 679.12 4.16833 5.59371 0
M  V30 6911 H 675.017 2.94299 5.74507 0
M  V30 6912 H 675.785 4.83147 6.6069 0
M  V30 6913 N 678.448 -1.51871 0.421078 0
M  V30 6914 C 679.395 -2.27334 -0.398508 0
M  V30 6915 C 680.365 -1.30241 -1.03085 0
M  V30 6916 O 681.55 -1.59121 -1.05285 0
M  V30 6917 C 678.69 -3.10664 -1.50272 0
M  V30 6918 C 677.803 -4.2273 -0.890122 0
M  V30 6919 C 676.938 -4.93399 -1.96803 0
M  V30 6920 C 675.977 -5.97409 -1.333 0
M  V30 6921 N 675.114 -6.61548 -2.35156 0
M  V30 6922 H 679.954 -2.96938 0.251411 0
M  V30 6923 H 677.491 -1.46472 0.135825 0
M  V30 6924 H 679.449 -3.57292 -2.15403 0
M  V30 6925 H 678.079 -2.43207 -2.1225 0
M  V30 6926 H 677.131 -3.80186 -0.127537 0
M  V30 6927 H 678.443 -4.97302 -0.386349 0
M  V30 6928 H 677.597 -5.43491 -2.69633 0
M  V30 6929 H 676.336 -4.18421 -2.50549 0
M  V30 6930 H 675.341 -5.46624 -0.59008 0
M  V30 6931 H 676.566 -6.74335 -0.803076 0
M  V30 6932 H 674.512 -5.89394 -2.88012 0
M  V30 6933 H 674.429 -7.31832 -1.89624 0
M  V30 6934 H 675.697 -7.16276 -3.0752 0
M  V30 6935 N 679.926 -0.151884 -1.56866 0
M  V30 6936 C 681.174 0.497021 -1.95893 0
M  V30 6937 C 681.495 1.65078 -1.03799 0
M  V30 6938 O 680.765 1.95642 -0.10049 0
M  V30 6939 H 679.345 0.186603 -0.723318 0
M  V30 6940 H 682.007 -0.228525 -1.93556 0
M  V30 6941 H 681.103 0.869933 -2.99731 0
M  V30 6942 N 681.404 1.57128 0.121893 0
M  V30 6943 C 682.681 1.75664 0.860327 0
M  V30 6944 C 683.061 0.726585 1.98202 0
M  V30 6945 O 682.409 -0.24999 2.27128 0
M  V30 6946 C 682.619 3.20571 1.37968 0
M  V30 6947 C 683.967 3.82988 1.83317 0
M  V30 6948 O 684.991 3.24156 1.47654 0
M  V30 6949 O 683.85 4.86393 2.49168 0
M  V30 6950 H 680.944 0.719153 0.408348 0
M  V30 6951 H 683.49 1.6937 0.105859 0
M  V30 6952 H 682.262 3.87056 0.57477 0
M  V30 6953 H 681.885 3.31392 2.19694 0
M  V30 6954 N 682.882 -0.391992 1.52647 0
M  V30 6955 C 684.11 -1.1586 1.71418 0
M  V30 6956 C 684.525 -1.8381 0.431216 0
M  V30 6957 O 683.882 -1.7256 -0.594085 0
M  V30 6958 C 683.933 -2.20888 2.86165 0
M  V30 6959 O 683.654 -1.5571 4.09495 0
M  V30 6960 C 685.155 -3.103 3.1659 0
M  V30 6961 H 682.375 -0.347494 0.574011 0
M  V30 6962 H 684.919 -0.458972 1.99283 0
M  V30 6963 H 683.074 -2.86492 2.6077 0
M  V30 6964 H 683.488 -2.25474 4.73563 0
M  V30 6965 H 684.962 -3.8003 4.00351 0
M  V30 6966 H 685.439 -3.73639 2.30848 0
M  V30 6967 H 686.045 -2.50345 3.43813 0
M  V30 6968 N 684.36 -1.4356 -0.65026 0
M  V30 6969 C 685.606 -1.45549 -1.41221 0
M  V30 6970 C 685.939 -0.0805472 -1.94033 0
M  V30 6971 O 685.214 0.899043 -1.72475 0
M  V30 6972 C 685.497 -2.50028 -2.59148 0
M  V30 6973 C 685.35 -3.96808 -2.1181 0
M  V30 6974 C 686.669 -2.51212 -3.61359 0
M  V30 6975 H 683.788 -0.529967 -0.512156 0
M  V30 6976 H 686.43 -1.75127 -0.736933 0
M  V30 6977 H 684.58 -2.24937 -3.16758 0
M  V30 6978 H 686.252 -4.32966 -1.59178 0
M  V30 6979 H 684.495 -4.09498 -1.43156 0
M  V30 6980 H 685.166 -4.6553 -2.96625 0
M  V30 6981 H 687.642 -2.73583 -3.13515 0
M  V30 6982 H 686.518 -3.26252 -4.41419 0
M  V30 6983 H 686.779 -1.54701 -4.1415 0
M  V30 6984 N 685.838 0.888903 -1.30139 0
M  V30 6985 C 686.748 2.02705 -1.18101 0
M  V30 6986 C 687.764 1.73702 -0.101809 0
M  V30 6987 O 688.94 1.98906 -0.315984 0
M  V30 6988 C 686.005 3.35616 -0.869651 0
M  V30 6989 C 685.066 3.78067 -2.03381 0
M  V30 6990 C 684.299 5.04635 -1.73721 0
M  V30 6991 O 684.522 5.66531 -0.663267 0
M  V30 6992 O 683.456 5.43399 -2.58845 0
M  V30 6993 H 687.282 2.15788 -2.13704 0
M  V30 6994 H 684.867 1.01426 -1.09695 0
M  V30 6995 H 686.749 4.15358 -0.711043 0
M  V30 6996 H 685.424 3.23651 0.0565002 0
M  V30 6997 H 684.331 2.99046 -2.24772 0
M  V30 6998 H 685.664 3.94631 -2.94155 0
M  V30 6999 N 687.317 1.12792 1.10072 0
M  V30 7000 C 688.249 0.757003 2.16338 0
M  V30 7001 C 689.262 -0.218144 1.61332 0
M  V30 7002 O 690.451 0.0010727 1.785 0
M  V30 7003 C 687.551 0.100303 3.38752 0
M  V30 7004 C 686.724 1.10586 4.2319 0
M  V30 7005 C 685.783 0.47609 5.24042 0
M  V30 7006 O 684.809 1.13418 5.57786 0
M  V30 7007 N 686.011 -0.754823 5.75572 0
M  V30 7008 H 688.776 1.6714 2.48766 0
M  V30 7009 H 686.337 1.02003 1.25726 0
M  V30 7010 H 688.329 -0.333092 4.03327 0
M  V30 7011 H 686.899 -0.716915 3.04268 0
M  V30 7012 H 686.119 1.71677 3.54853 0
M  V30 7013 H 687.407 1.78571 4.76435 0
M  V30 7014 H 686.805 -1.30838 5.50362 0
M  V30 7015 H 685.362 -1.13098 6.41913 0
M  V30 7016 N 688.795 -1.27931 0.920396 0
M  V30 7017 C 689.725 -2.29487 0.431024 0
M  V30 7018 C 690.706 -1.62435 -0.504861 0
M  V30 7019 O 691.891 -1.89797 -0.411176 0
M  V30 7020 C 689.021 -3.45788 -0.323709 0
M  V30 7021 C 687.975 -4.24784 0.523658 0
M  V30 7022 C 687.301 -5.33488 -0.359809 0
M  V30 7023 C 688.601 -4.90874 1.78437 0
M  V30 7024 H 690.295 -2.70671 1.27975 0
M  V30 7025 H 687.841 -1.30121 0.616813 0
M  V30 7026 H 689.794 -4.15927 -0.676952 0
M  V30 7027 H 688.518 -3.03502 -1.2064 0
M  V30 7028 H 687.177 -3.56382 0.85951 0
M  V30 7029 H 686.825 -4.87445 -1.24124 0
M  V30 7030 H 686.525 -5.87247 0.203605 0
M  V30 7031 H 688.049 -6.06472 -0.708787 0
M  V30 7032 H 689.463 -5.53339 1.49963 0
M  V30 7033 H 687.86 -5.54659 2.29071 0
M  V30 7034 H 688.93 -4.14988 2.50824 0
M  V30 7035 N 690.273 -0.685099 -1.4193 0
M  V30 7036 C 691.236 -0.0222632 -2.29189 0
M  V30 7037 C 692.236 0.7186 -1.4385 0
M  V30 7038 O 693.426 0.555058 -1.6512 0
M  V30 7039 C 690.558 0.979013 -3.2654 0
M  V30 7040 H 691.751 -0.790424 -2.89296 0
M  V30 7041 H 689.304 -0.448012 -1.49742 0
M  V30 7042 H 690.039 1.77531 -2.71392 0
M  V30 7043 H 689.824 0.451037 -3.89497 0
M  V30 7044 H 691.314 1.44091 -3.91954 0
M  V30 7045 N 691.751 1.51645 -0.429126 0
M  V30 7046 C 692.698 2.27542 0.386446 0
M  V30 7047 C 693.668 1.30786 1.02393 0
M  V30 7048 O 694.853 1.59678 1.0444 0
M  V30 7049 C 691.993 3.11457 1.48623 0
M  V30 7050 C 691.106 4.23196 0.867691 0
M  V30 7051 C 690.241 4.94435 1.94183 0
M  V30 7052 C 689.28 5.98108 1.30129 0
M  V30 7053 N 688.417 6.62786 2.31644 0
M  V30 7054 H 693.257 2.968 -0.267155 0
M  V30 7055 H 690.794 1.46397 -0.143591 0
M  V30 7056 H 692.752 3.58429 2.13506 0
M  V30 7057 H 691.382 2.44329 2.10957 0
M  V30 7058 H 690.434 3.80248 0.107373 0
M  V30 7059 H 691.746 4.97499 0.35997 0
M  V30 7060 H 690.9 5.44914 2.66747 0
M  V30 7061 H 689.639 4.19744 2.48326 0
M  V30 7062 H 688.644 5.4693 0.561082 0
M  V30 7063 H 689.869 6.74751 0.767303 0
M  V30 7064 H 687.815 5.90913 2.84883 0
M  V30 7065 H 687.732 7.32828 1.85741 0
M  V30 7066 H 689 7.17897 3.03717 0
M  V30 7067 N 693.229 0.160201 1.56784 0
M  V30 7068 C 694.454 -0.497373 2.01348 0
M  V30 7069 C 694.879 -1.56757 1.03966 0
M  V30 7070 O 694.237 -1.81292 0.0174455 0
M  V30 7071 C 694.285 -1.0628 3.44582 0
M  V30 7072 O 693.389 -2.17723 3.50244 0
M  V30 7073 H 692.73 -0.120295 0.653012 0
M  V30 7074 H 695.26 0.260821 2.02931 0
M  V30 7075 H 695.27 -1.38819 3.83658 0
M  V30 7076 H 693.945 -0.279166 4.14962 0
M  V30 7077 H 692.522 -1.86313 3.2302 0
M  V30 7078 N 694.707 -1.5719 -0.113559 0
M  V30 7079 C 695.935 -1.89328 -0.834422 0
M  V30 7080 C 696.35 -0.752018 -1.73177 0
M  V30 7081 O 695.707 0.276912 -1.80387 0
M  V30 7082 C 695.758 -3.20962 -1.66329 0
M  V30 7083 O 695.479 -4.30695 -0.802069 0
M  V30 7084 C 696.98 -3.6684 -2.48884 0
M  V30 7085 H 694.2 -0.626769 -0.239587 0
M  V30 7086 H 696.744 -2.04273 -0.0963195 0
M  V30 7087 H 694.899 -3.0767 -2.35409 0
M  V30 7088 H 695.313 -5.06175 -1.37431 0
M  V30 7089 H 696.787 -4.61692 -3.02563 0
M  V30 7090 H 697.264 -2.93765 -3.26495 0
M  V30 7091 H 697.87 -3.82938 -1.85036 0
M  V30 7092 N 696.185 0.383891 -1.52853 0
M  V30 7093 C 697.433 1.12619 -1.67814 0
M  V30 7094 C 697.754 1.90354 -0.423141 0
M  V30 7095 O 697.024 1.87649 0.562554 0
M  V30 7096 H 695.604 0.418738 -0.618601 0
M  V30 7097 H 698.266 0.43495 -1.89985 0
M  V30 7098 H 697.362 1.82624 -2.5309 0
M  V30 7099 N 697.663 1.43903 0.642637 0
M  V30 7100 C 698.596 1.44339 1.76753 0
M  V30 7101 C 699.574 0.303558 1.59741 0
M  V30 7102 O 700.758 0.498775 1.81781 0
M  V30 7103 C 697.885 1.26508 3.14187 0
M  V30 7104 C 696.931 2.43905 3.49875 0
M  V30 7105 S 697.764 4.0645 3.48653 0
M  V30 7106 C 698.92 3.91021 4.88726 0
M  V30 7107 H 699.153 2.39523 1.76113 0
M  V30 7108 H 696.686 1.31061 0.81623 0
M  V30 7109 H 698.644 1.16908 3.93501 0
M  V30 7110 H 697.305 0.328548 3.12377 0
M  V30 7111 H 696.498 2.27262 4.49853 0
M  V30 7112 H 696.1 2.50186 2.77998 0
M  V30 7113 H 698.392 3.54 5.77659 0
M  V30 7114 H 699.335 4.9079 5.10423 0
M  V30 7115 H 699.743 3.23287 4.62759 0
M  V30 7116 N 699.141 -0.881989 1.30609 0
M  V30 7117 C 700.088 -1.98803 1.17244 0
M  V30 7118 C 701.058 -1.65987 0.0611905 0
M  V30 7119 O 702.243 -1.89385 0.231911 0
M  V30 7120 C 699.383 -3.33867 0.87333 0
M  V30 7121 C 698.496 -3.79354 2.06675 0
M  V30 7122 C 697.631 -5.03078 1.70547 0
M  V30 7123 C 696.67 -5.40981 2.86366 0
M  V30 7124 N 695.807 -6.55886 2.50514 0
M  V30 7125 H 700.647 -2.09566 2.11863 0
M  V30 7126 H 698.184 -1.02607 1.05405 0
M  V30 7127 H 700.142 -4.11612 0.680519 0
M  V30 7128 H 698.772 -3.2278 -0.0359983 0
M  V30 7129 H 697.824 -2.97492 2.37071 0
M  V30 7130 H 699.136 -4.03382 2.93401 0
M  V30 7131 H 698.29 -5.88457 1.47658 0
M  V30 7132 H 697.029 -4.80927 0.809947 0
M  V30 7133 H 696.034 -4.54127 3.09917 0
M  V30 7134 H 697.259 -5.65104 3.76609 0
M  V30 7135 H 695.205 -6.35306 1.63471 0
M  V30 7136 H 695.122 -6.79799 3.30771 0
M  V30 7137 H 696.39 -7.44489 2.30989 0
M  V30 7138 N 700.619 -1.13374 -1.09472 0
M  V30 7139 C 701.865 -0.896516 -1.81908 0
M  V30 7140 C 702.198 0.575933 -1.85463 0
M  V30 7141 O 701.473 1.42618 -1.32251 0
M  V30 7142 C 701.756 -1.48445 -3.28079 0
M  V30 7143 C 701.609 -3.02598 -3.32798 0
M  V30 7144 C 702.928 -1.15226 -4.24748 0
M  V30 7145 H 700.047 -0.327127 -0.660422 0
M  V30 7146 H 702.689 -1.40195 -1.2824 0
M  V30 7147 H 700.839 -1.0546 -3.73912 0
M  V30 7148 H 702.511 -3.54335 -2.95372 0
M  V30 7149 H 700.754 -3.37613 -2.72397 0
M  V30 7150 H 701.425 -3.38835 -4.3577 0
M  V30 7151 H 703.901 -1.52369 -3.87199 0
M  V30 7152 H 702.777 -1.59012 -5.25363 0
M  V30 7153 H 703.038 -0.0658891 -4.42051 0
M  V30 7154 N 702.098 1.27442 -0.927168 0
M  V30 7155 C 703.061 2.2512 -0.430525 0
M  V30 7156 C 704.061 1.54357 0.450619 0
M  V30 7157 O 705.251 1.72371 0.251774 0
M  V30 7158 C 702.383 3.38763 0.381144 0
M  V30 7159 H 703.576 2.70569 -1.29354 0
M  V30 7160 H 701.129 1.39355 -0.707806 0
M  V30 7161 H 701.864 2.98695 1.263 0
M  V30 7162 H 701.649 3.91298 -0.250618 0
M  V30 7163 H 703.139 4.11364 0.719012 0
M  V30 7164 N 703.576 0.692616 1.41565 0
M  V30 7165 C 704.853 0.150496 1.9502 0
M  V30 7166 C 705.233 -1.33881 1.63215 0
M  V30 7167 O 704.581 -2.08378 0.937598 0
M  V30 7168 C 704.791 0.438636 3.46233 0
M  V30 7169 C 706.139 0.364777 4.2303 0
M  V30 7170 O 707.163 0.373383 3.54238 0
M  V30 7171 O 706.022 0.32234 5.45549 0
M  V30 7172 H 703.116 0.0132454 0.826894 0
M  V30 7173 H 705.662 0.768574 1.51298 0
M  V30 7174 H 704.434 1.46962 3.62654 0
M  V30 7175 H 704.057 -0.210562 3.97042 0
M  V30 7176 N 705.054 -1.51416 0.437162 0
M  V30 7177 C 705.984 -2.30631 -0.364922 0
M  V30 7178 C 706.965 -1.36037 -1.02118 0
M  V30 7179 O 708.15 -1.64956 -1.02485 0
M  V30 7180 C 705.28 -3.1482 -1.46648 0
M  V30 7181 C 704.234 -4.17691 -0.933717 0
M  V30 7182 C 703.56 -4.904 -2.13101 0
M  V30 7183 C 704.86 -5.2229 0.0317201 0
M  V30 7184 H 706.554 -2.97932 0.29614 0
M  V30 7185 H 704.1 -1.4328 0.143865 0
M  V30 7186 H 706.053 -3.69017 -2.03481 0
M  V30 7187 H 704.777 -2.4534 -2.15583 0
M  V30 7188 H 703.436 -3.64545 -0.387602 0
M  V30 7189 H 703.084 -4.17423 -2.80654 0
M  V30 7190 H 702.784 -5.59962 -1.78092 0
M  V30 7191 H 704.308 -5.4742 -2.70487 0
M  V30 7192 H 705.722 -5.7156 -0.446302 0
M  V30 7193 H 704.119 -5.99378 0.29437 0
M  V30 7194 H 705.189 -4.75131 0.968447 0
M  V30 7195 N 706.532 -0.168513 -1.56696 0
M  V30 7196 C 707.495 0.748928 -2.16619 0
M  V30 7197 C 708.495 1.16007 -1.11351 0
M  V30 7198 O 709.685 1.07748 -1.3688 0
M  V30 7199 C 706.817 2.01904 -2.74677 0
M  V30 7200 H 708.01 0.227317 -2.99037 0
M  V30 7201 H 705.563 0.0810372 -1.5609 0
M  V30 7202 H 706.298 2.58381 -1.95985 0
M  V30 7203 H 706.083 1.73323 -3.51712 0
M  V30 7204 H 707.573 2.67383 -3.20774 0
M  V30 7205 N 708.01 1.57248 0.105221 0
M  V30 7206 C 708.957 2.01338 1.12835 0
M  V30 7207 C 709.927 0.887897 1.40377 0
M  V30 7208 O 711.112 1.15315 1.5201 0
M  V30 7209 C 708.252 2.43432 2.44611 0
M  V30 7210 C 707.365 3.69457 2.23888 0
M  V30 7211 C 706.5 4.00473 3.48991 0
M  V30 7212 C 705.539 5.19638 3.23485 0
M  V30 7213 N 704.676 5.46457 4.40828 0
M  V30 7214 H 709.516 2.88527 0.745386 0
M  V30 7215 H 707.053 1.42714 0.356535 0
M  V30 7216 H 709.011 2.65879 3.21503 0
M  V30 7217 H 707.641 1.59266 2.80774 0
M  V30 7218 H 706.693 3.54545 1.37847 0
M  V30 7219 H 708.005 4.56497 2.01026 0
M  V30 7220 H 707.159 4.23642 4.34295 0
M  V30 7221 H 705.898 3.11935 3.74897 0
M  V30 7222 H 704.903 4.96299 2.36574 0
M  V30 7223 H 706.128 6.09766 2.98935 0
M  V30 7224 H 704.074 4.60876 4.66829 0
M  V30 7225 H 703.991 6.27849 4.2112 0
M  V30 7226 H 705.259 5.74155 5.27225 0
M  V30 7227 N 709.488 -0.375779 1.53054 0
M  V30 7228 C 710.716 -1.14036 1.72637 0
M  V30 7229 C 711.131 -1.83342 0.450687 0
M  V30 7230 O 710.488 -1.7318 -0.575749 0
M  V30 7231 C 710.539 -2.17841 2.88492 0
M  V30 7232 O 710.26 -1.51358 4.11123 0
M  V30 7233 C 711.761 -3.06924 3.19863 0
M  V30 7234 H 708.981 -0.341386 0.577665 0
M  V30 7235 H 711.525 -0.437809 1.99759 0
M  V30 7236 H 709.68 -2.8371 2.63794 0
M  V30 7237 H 710.094 -2.20439 4.75928 0
M  V30 7238 H 711.568 -3.75763 4.04359 0
M  V30 7239 H 712.045 -3.71169 2.34798 0
M  V30 7240 H 712.651 -2.46684 3.46449 0
M  V30 7241 N 710.966 -1.44241 -0.634997 0
M  V30 7242 C 712.212 -1.47038 -1.39669 0
M  V30 7243 C 712.545 -0.101122 -1.93937 0
M  V30 7244 O 711.82 0.880699 -1.73418 0
M  V30 7245 C 712.103 -2.52763 -2.56482 0
M  V30 7246 C 711.956 -3.99032 -2.07589 0
M  V30 7247 C 713.275 -2.55031 -3.58674 0
M  V30 7248 H 710.394 -0.53537 -0.506506 0
M  V30 7249 H 713.036 -1.75898 -0.718317 0
M  V30 7250 H 711.186 -2.28284 -3.14354 0
M  V30 7251 H 712.858 -4.3463 -1.54577 0
M  V30 7252 H 711.101 -4.10994 -1.38804 0
M  V30 7253 H 711.772 -4.68649 -2.91671 0
M  V30 7254 H 714.248 -2.76893 -3.10595 0
M  V30 7255 H 713.124 -3.30916 -4.37934 0
M  V30 7256 H 713.385 -1.59085 -4.12486 0
M  V30 7257 N 712.444 0.87505 -1.31075 0
M  V30 7258 C 713.669 1.66583 -1.23551 0
M  V30 7259 C 714.094 1.87067 0.19686 0
M  V30 7260 O 713.452 1.40877 1.1412 0
M  V30 7261 C 713.5 3.01401 -1.97965 0
M  V30 7262 O 712.604 3.90923 -1.31351 0
M  V30 7263 H 711.945 0.508645 -0.426821 0
M  V30 7264 H 714.475 1.09139 -1.7306 0
M  V30 7265 H 714.485 3.51374 -2.07366 0
M  V30 7266 H 713.16 2.85812 -3.02133 0
M  V30 7267 H 711.737 3.49369 -1.30368 0
M  V30 7268 N 713.922 1.13953 1.08869 0
M  V30 7269 C 715.199 0.815768 1.77777 0
M  V30 7270 C 715.579 -0.691624 1.99449 0
M  V30 7271 O 714.927 -1.63085 1.60049 0
M  V30 7272 C 715.137 1.60916 3.09689 0
M  V30 7273 C 716.485 1.80549 3.84301 0
M  V30 7274 O 717.509 1.57562 3.19457 0
M  V30 7275 O 716.368 2.18946 5.00724 0
M  V30 7276 H 713.462 0.298445 0.771271 0
M  V30 7277 H 716.008 1.24446 1.15374 0
M  V30 7278 H 714.78 2.6333 2.89435 0
M  V30 7279 H 714.403 1.17578 3.79817 0
M  V30 7280 N 715.4 -1.26948 0.933913 0
M  V30 7281 C 716.63 -1.97898 0.593279 0
M  V30 7282 C 717.038 -1.69806 -0.834412 0
M  V30 7283 O 716.381 -0.958704 -1.56699 0
M  V30 7284 C 716.443 -3.51657 0.746825 0
M  V30 7285 C 716.107 -4.03384 2.14779 0
M  V30 7286 C 717.104 -4.15682 3.12257 0
M  V30 7287 C 714.789 -4.37577 2.46641 0
M  V30 7288 C 716.783 -4.61455 4.39702 0
M  V30 7289 C 714.47 -4.8304 3.7432 0
M  V30 7290 C 715.468 -4.94939 4.70664 0
M  V30 7291 O 715.156 -5.39403 5.96071 0
M  V30 7292 H 714.888 -0.63814 0.223055 0
M  V30 7293 H 717.442 -1.62608 1.2549 0
M  V30 7294 H 715.672 -3.8669 0.0280889 0
M  V30 7295 H 717.361 -4.03821 0.410328 0
M  V30 7296 H 718.127 -3.89519 2.88964 0
M  V30 7297 H 714.006 -4.27554 1.72391 0
M  V30 7298 H 717.55 -4.70658 5.14905 0
M  V30 7299 H 713.447 -5.08646 3.97429 0
M  V30 7300 H 714.215 -5.57641 5.99148 0
M  V30 7301 N 716.879 -0.700114 -1.41195 0
M  V30 7302 C 717.827 -0.0263301 -2.32585 0
M  V30 7303 C 718.821 0.763683 -1.51209 0
M  V30 7304 O 720.027 0.668793 -1.67114 0
M  V30 7305 H 716.402 0.0102869 -0.75193 0
M  V30 7306 H 718.373 -0.814087 -2.8708 0
M  V30 7307 C 717.122 0.892793 -3.36042 0
M  V30 7308 H 716.445 0.294306 -3.98715 0
M  V30 7309 H 717.885 1.33247 -4.02518 0
M  V30 7310 C 716.344 2.01109 -2.7029 0
M  V30 7311 O 716.874 3.10035 -2.55423 0
M  V30 7312 N 715.08 1.79015 -2.28915 0
M  V30 7313 H 714.627 0.904275 -2.41207 0
M  V30 7314 H 714.585 2.54022 -1.85257 0
M  V30 7315 N 718.357 1.51182 -0.445186 0
M  V30 7316 C 719.605 2.01753 0.11841 0
M  V30 7317 C 719.926 1.33087 1.42523 0
M  V30 7318 O 719.196 0.467891 1.9023 0
M  V30 7319 H 717.776 0.745536 0.0467492 0
M  V30 7320 H 720.438 1.85765 -0.589688 0
M  V30 7321 H 719.534 3.10762 0.288665 0
M  V30 7322 N 719.835 0.176821 1.56605 0
M  V30 7323 C 721.065 -0.472142 2.01133 0
M  V30 7324 C 721.473 -1.56979 1.05614 0
M  V30 7325 O 720.816 -1.83632 0.0500137 0
M  V30 7326 C 720.878 -1.10547 3.42081 0
M  V30 7327 C 720.542 -0.148806 4.56758 0
M  V30 7328 C 721.539 0.634939 5.16008 0
M  V30 7329 C 719.224 -0.0430325 5.02282 0
M  V30 7330 C 721.218 1.5116 6.19217 0
M  V30 7331 C 718.905 0.83721 6.05338 0
M  V30 7332 C 719.903 1.61311 6.63677 0
M  V30 7333 O 719.591 2.47863 7.64735 0
M  V30 7334 H 719.323 -0.124725 0.664394 0
M  V30 7335 H 721.877 0.277329 2.03519 0
M  V30 7336 H 720.107 -1.90318 3.36625 0
M  V30 7337 H 721.796 -1.6572 3.70529 0
M  V30 7338 H 722.562 0.563424 4.81716 0
M  V30 7339 H 718.441 -0.636753 4.56581 0
M  V30 7340 H 721.985 2.11767 6.64681 0
M  V30 7341 H 717.882 0.909908 6.39055 0
M  V30 7342 H 718.65 2.4144 7.8208 0
M  V30 7343 N 721.313 -1.57302 -0.09688 0
M  V30 7344 C 722.559 -1.86273 -0.801885 0
M  V30 7345 C 722.892 -0.765694 -1.78468 0
M  V30 7346 O 722.167 0.226495 -1.93177 0
M  V30 7347 C 722.45 -3.25876 -1.53221 0
M  V30 7348 C 722.303 -4.46205 -0.567529 0
M  V30 7349 C 723.622 -3.63352 -2.48321 0
M  V30 7350 H 720.741 -0.67752 -0.29006 0
M  V30 7351 H 723.383 -1.89887 -0.0655577 0
M  V30 7352 H 721.533 -3.22926 -2.15988 0
M  V30 7353 H 723.205 -4.6127 0.0529982 0
M  V30 7354 H 721.448 -4.33636 0.119233 0
M  V30 7355 H 722.119 -5.40608 -1.11564 0
M  V30 7356 H 724.595 -3.67234 -1.95648 0
M  V30 7357 H 723.471 -4.61968 -2.9644 0
M  V30 7358 H 723.732 -2.91941 -3.31998 0
M  V30 7359 N 722.791 0.367657 -1.53252 0
M  V30 7360 C 723.754 1.43308 -1.78873 0
M  V30 7361 C 724.754 1.46671 -0.659115 0
M  V30 7362 O 725.944 1.47468 -0.927306 0
M  V30 7363 C 723.076 2.82442 -1.90892 0
M  V30 7364 H 724.269 1.21864 -2.74024 0
M  V30 7365 H 721.822 0.600668 -1.44297 0
M  V30 7366 H 722.557 3.09202 -0.978 0
M  V30 7367 H 722.342 2.81399 -2.73051 0
M  V30 7368 H 723.832 3.59601 -2.12314 0
M  V30 7369 N 724.269 1.44576 0.627338 0
M  V30 7370 C 725.494 1.51271 1.41887 0
M  V30 7371 C 725.919 0.139814 1.8758 0
M  V30 7372 O 725.277 -0.871746 1.58966 0
M  V30 7373 C 725.325 2.48529 2.61277 0
M  V30 7374 O 724.429 1.98944 3.61241 0
M  V30 7375 H 723.77 0.510668 0.424399 0
M  V30 7376 H 726.3 1.89746 0.765356 0
M  V30 7377 H 726.31 2.66689 3.08773 0
M  V30 7378 H 724.985 3.48249 2.27366 0
M  V30 7379 H 723.562 1.90568 3.20528 0
M  V30 7380 N 725.747 -0.868086 1.31537 0
M  V30 7381 C 726.995 -1.61807 1.21091 0
M  V30 7382 C 727.316 -1.93631 -0.230623 0
M  V30 7383 O 726.586 -1.5846 -1.15183 0
M  V30 7384 H 725.166 -0.599854 0.445178 0
M  V30 7385 H 727.828 -1.03915 1.64887 0
M  V30 7386 H 726.924 -2.56088 1.78396 0
M  V30 7387 N 727.225 -1.14528 -1.08264 0
M  V30 7388 C 728.172 -0.833556 -2.15222 0
M  V30 7389 C 729.142 0.209539 -1.64773 0
M  V30 7390 O 730.327 0.0791388 -1.90636 0
M  V30 7391 C 727.467 -0.318799 -3.43624 0
M  V30 7392 C 726.58 -1.42237 -4.07913 0
M  V30 7393 C 725.715 -0.864704 -5.24115 0
M  V30 7394 C 724.754 -1.94585 -5.80347 0
M  V30 7395 N 723.891 -1.40525 -6.87893 0
M  V30 7396 H 728.731 -1.74965 -2.41228 0
M  V30 7397 H 726.268 -0.873169 -1.18381 0
M  V30 7398 H 728.226 -0.00213088 -4.172 0
M  V30 7399 H 726.856 0.560397 -3.17898 0
M  V30 7400 H 725.908 -1.8554 -3.32083 0
M  V30 7401 H 727.22 -2.23901 -4.45724 0
M  V30 7402 H 726.374 -0.500025 -6.04636 0
M  V30 7403 H 725.113 -0.0171219 -4.87697 0
M  V30 7404 H 724.118 -2.31946 -4.98479 0
M  V30 7405 H 725.343 -2.79704 -6.18823 0
M  V30 7406 H 723.289 -0.579873 -6.53432 0
M  V30 7407 H 723.206 -2.15825 -7.24538 0
M  V30 7408 H 724.474 -1.06852 -7.72142 0
M  V30 7409 N 728.703 1.26451 -0.940633 0
M  V30 7410 C 729.98 1.88947 -0.505811 0
M  V30 7411 C 730.36 1.85011 1.01657 0
M  V30 7412 O 729.708 1.30406 1.87634 0
M  V30 7413 C 729.918 3.32304 -1.06654 0
M  V30 7414 C 731.266 4.09153 -1.13486 0
M  V30 7415 O 732.29 3.41371 -1.01708 0
M  V30 7416 O 731.149 5.30369 -1.31797 0
M  V30 7417 H 728.243 0.810422 -0.164759 0
M  V30 7418 H 730.789 1.34625 -1.03316 0
M  V30 7419 H 729.561 3.29527 -2.11015 0
M  V30 7420 H 729.184 3.94164 -0.521603 0
M  V30 7421 N 730.181 0.707592 1.40822 0
M  V30 7422 C 731.409 0.253073 2.05346 0
M  V30 7423 C 731.824 -1.10218 1.53289 0
M  V30 7424 O 731.181 -1.69112 0.686105 0
M  V30 7425 C 731.232 0.215411 3.60858 0
M  V30 7426 O 730.953 1.51714 4.10992 0
M  V30 7427 C 732.454 -0.258636 4.42545 0
M  V30 7428 H 729.674 0.115256 0.661027 0
M  V30 7429 H 732.218 0.963555 1.80377 0
M  V30 7430 H 730.373 -0.445978 3.84824 0
M  V30 7431 H 730.787 1.41226 5.05129 0
M  V30 7432 H 732.261 -0.233849 5.51504 0
M  V30 7433 H 732.738 -1.2995 4.19535 0
M  V30 7434 H 733.344 0.372186 4.23668 0
M  V30 7435 N 731.66 -1.50943 0.453197 0
M  V30 7436 C 732.623 -2.26684 -0.338705 0
M  V30 7437 C 733.623 -1.30748 -0.936032 0
M  V30 7438 O 734.813 -1.54327 -0.808002 0
M  V30 7439 C 731.945 -3.07063 -1.48071 0
M  V30 7440 H 733.138 -2.98131 0.325289 0
M  V30 7441 H 730.691 -1.54926 0.206771 0
M  V30 7442 H 731.426 -2.4007 -2.18029 0
M  V30 7443 H 731.211 -3.77545 -1.0584 0
M  V30 7444 H 732.701 -3.64393 -2.0398 0
M  V30 7445 N 733.138 -0.185124 -1.56509 0
M  V30 7446 C 734.385 0.456258 -1.97293 0
M  V30 7447 C 734.713 1.62314 -1.07165 0
M  V30 7448 O 733.968 1.95398 -0.108621 0
M  V30 7449 C 734.267 0.967977 -3.44042 0
M  V30 7450 C 733.933 -0.084476 -4.50821 0
M  V30 7451 C 732.595 -0.373689 -4.79747 0
M  V30 7452 C 734.947 -0.79812 -5.15053 0
M  V30 7453 C 732.275 -1.3817 -5.70198 0
M  V30 7454 C 734.627 -1.79521 -6.06593 0
M  V30 7455 C 733.291 -2.09172 -6.3388 0
M  V30 7456 H 732.561 0.166957 -0.721946 0
M  V30 7457 H 735.208 -0.279992 -1.89442 0
M  V30 7458 H 733.513 1.78231 -3.48914 0
M  V30 7459 H 735.21 1.47347 -3.72948 0
M  V30 7460 H 731.8 0.15111 -4.28334 0
M  V30 7461 H 735.984 -0.587903 -4.92806 0
M  V30 7462 H 731.24 -1.61745 -5.89617 0
M  V30 7463 H 735.414 -2.35347 -6.55427 0
M  V30 7464 H 733.041 -2.87427 -7.03768 0
M  V30 7465 N 734.616 1.57351 0.0885366 0
M  V30 7466 C 735.864 1.86051 0.789262 0
M  V30 7467 C 736.185 0.774763 1.78948 0
M  V30 7468 O 735.455 -0.198324 1.94894 0
M  V30 7469 H 734.035 0.686508 0.294475 0
M  V30 7470 H 736.697 1.94779 0.0686055 0
M  V30 7471 H 735.793 2.83007 1.31581 0
M  V30 7472 N 736.094 -0.359525 1.53444 0
M  V30 7473 C 737.51 -0.701599 1.43352 0
M  V30 7474 C 737.71 -1.93049 0.577439 0
M  V30 7475 O 736.766 -2.52423 0.0622224 0
M  V30 7476 C 738.079 -0.90915 2.86627 0
M  V30 7477 C 739.627 -1.00878 2.96298 0
M  V30 7478 C 740.102 -1.24876 4.40647 0
M  V30 7479 N 741.593 -1.31632 4.44103 0
M  V30 7480 C 742.328 -1.51922 5.52908 0
M  V30 7481 N 741.824 -1.69489 6.71748 0
M  V30 7482 N 743.617 -1.54341 5.40496 0
M  V30 7483 H 735.768 0.448685 2.07607 0
M  V30 7484 H 738.031 0.138713 0.937797 0
M  V30 7485 H 737.737 -0.0778997 3.51614 0
M  V30 7486 H 737.611 -1.81551 3.30634 0
M  V30 7487 H 739.998 -1.83057 2.31461 0
M  V30 7488 H 740.079 -0.0796721 2.55676 0
M  V30 7489 H 739.723 -0.431961 5.0606 0
M  V30 7490 H 739.653 -2.19118 4.78848 0
M  V30 7491 H 742.144 -1.19646 3.5846 0
M  V30 7492 H 742.457 -1.84561 7.50438 0
M  V30 7493 H 740.802 -1.66655 6.74723 0
M  V30 7494 H 743.993 -1.40188 4.46615 0
M  V30 7495 H 744.166 -1.69812 6.25354 0
M  V30 7496 N 737.572 -1.44907 -0.619662 0
M  V30 7497 C 738.535 -1.52282 -1.71297 0
M  V30 7498 C 739.535 -0.40359 -1.55653 0
M  V30 7499 O 740.725 -0.666638 -1.6094 0
M  V30 7500 C 737.857 -1.40778 -3.10474 0
M  V30 7501 H 739.05 -2.49683 -1.66128 0
M  V30 7502 H 736.603 -1.32168 -0.834339 0
M  V30 7503 H 737.338 -0.445156 -3.2123 0
M  V30 7504 H 737.123 -2.21947 -3.23237 0
M  V30 7505 H 738.613 -1.48946 -3.90135 0
M  V30 7506 N 739.05 0.861098 -1.31996 0
M  V30 7507 C 740.327 1.59788 -1.12814 0
M  V30 7508 C 740.707 2.08753 0.313882 0
M  V30 7509 O 740.055 1.87258 1.30946 0
M  V30 7510 C 740.265 2.74901 -2.15012 0
M  V30 7511 C 741.613 3.44643 -2.48004 0
M  V30 7512 O 742.637 2.85119 -2.13508 0
M  V30 7513 O 741.496 4.52044 -3.07113 0
M  V30 7514 H 738.59 0.703408 -0.434909 0
M  V30 7515 H 741.136 0.905788 -1.43505 0
M  V30 7516 H 739.908 2.36198 -3.11971 0
M  V30 7517 H 739.531 3.51792 -1.85279 0
M  V30 7518 N 740.528 1.15101 1.07655 0
M  V30 7519 C 741.461 0.788522 2.14144 0
M  V30 7520 C 742.439 -0.233635 1.60913 0
M  V30 7521 O 743.623 -0.120908 1.88112 0
M  V30 7522 C 740.75 0.172033 3.38263 0
M  V30 7523 C 739.796 1.16559 4.10264 0
M  V30 7524 S 740.629 2.70627 4.62084 0
M  V30 7525 C 741.785 2.10389 5.8948 0
M  V30 7526 H 742.018 1.69047 2.44561 0
M  V30 7527 H 739.551 0.973033 1.19881 0
M  V30 7528 H 741.509 -0.177223 4.10117 0
M  V30 7529 H 740.17 -0.707468 3.06029 0
M  V30 7530 H 739.363 0.6824 4.99359 0
M  V30 7531 H 738.965 1.45923 3.44358 0
M  V30 7532 H 741.257 1.46405 6.61492 0
M  V30 7533 H 742.2 2.97639 6.42508 0
M  V30 7534 H 742.608 1.54816 5.42856 0
M  V30 7535 N 742.006 -1.2595 0.947325 0
M  V30 7536 C 743.417 -1.75389 0.639963 0
M  V30 7537 C 743.768 -1.77081 -0.844788 0
M  V30 7538 O 742.893 -1.3869 -1.66114 0
M  V30 7539 C 743.488 -3.18506 1.15496 0
M  V30 7540 C 742.047 -3.65534 0.897894 0
M  V30 7541 C 741.194 -2.44818 1.30228 0
M  V30 7542 H 744.145 -1.1194 1.12495 0
M  V30 7543 H 744.166 -3.77045 0.511627 0
M  V30 7544 H 743.678 -3.17243 2.23559 0
M  V30 7545 H 741.779 -3.72221 -0.168096 0
M  V30 7546 H 741.892 -4.54039 1.52922 0
M  V30 7547 H 740.256 -2.44291 0.720678 0
M  V30 7548 H 741.039 -2.46251 2.39198 0
M  V30 7549 N 743.484 -0.715051 -1.40445 0
M  V30 7550 C 744.414 -0.0768699 -2.33373 0
M  V30 7551 C 745.395 0.746109 -1.52863 0
M  V30 7552 O 746.58 0.695142 -1.81332 0
M  V30 7553 C 743.71 0.846014 -3.36838 0
M  V30 7554 C 742.664 0.128694 -4.27806 0
M  V30 7555 C 741.99 1.16726 -5.21804 0
M  V30 7556 C 743.29 -1.01679 -5.12307 0
M  V30 7557 H 744.984 -0.853061 -2.8699 0
M  V30 7558 H 742.53 -0.41167 -1.3799 0
M  V30 7559 H 744.483 1.30185 -4.00786 0
M  V30 7560 H 743.207 1.6541 -2.81615 0
M  V30 7561 H 741.866 -0.307314 -3.6531 0
M  V30 7562 H 741.514 1.96838 -4.62887 0
M  V30 7563 H 741.214 0.692188 -5.83509 0
M  V30 7564 H 742.738 1.62321 -5.88629 0
M  V30 7565 H 744.152 -0.640337 -5.69713 0
M  V30 7566 H 742.549 -1.4202 -5.83053 0
M  V30 7567 H 743.619 -1.84769 -4.48317 0
M  V30 7568 N 744.962 1.50701 -0.461195 0
M  V30 7569 C 745.91 2.29918 0.352231 0
M  V30 7570 C 746.904 1.36778 0.999403 0
M  V30 7571 O 748.11 1.54015 0.931639 0
M  V30 7572 H 744.485 0.740249 0.132423 0
M  V30 7573 H 746.456 2.96497 -0.336424 0
M  V30 7574 C 745.205 3.17052 1.42736 0
M  V30 7575 H 744.528 3.88623 0.938747 0
M  V30 7576 H 745.968 3.75493 1.96928 0
M  V30 7577 C 744.427 2.3399 2.42384 0
M  V30 7578 O 744.957 2.01608 3.47444 0
M  V30 7579 N 743.163 1.96758 2.13857 0
M  V30 7580 H 742.71 2.23292 1.28447 0
M  V30 7581 H 742.668 1.41484 2.80766 0
M  V30 7582 N 746.441 0.193421 1.56409 0
M  V30 7583 C 747.374 -0.767384 2.1491 0
M  V30 7584 C 748.352 -1.21075 1.08534 0
M  V30 7585 O 749.536 -1.29856 1.36637 0
M  V30 7586 C 746.663 -2.03615 2.70663 0
M  V30 7587 C 745.709 -1.73505 3.89613 0
M  V30 7588 S 746.542 -0.884645 5.28142 0
M  V30 7589 C 747.698 -2.1636 5.87315 0
M  V30 7590 H 747.931 -0.270053 2.96071 0
M  V30 7591 H 745.464 -0.0215546 1.54385 0
M  V30 7592 H 747.422 -2.7648 3.03429 0
M  V30 7593 H 746.083 -2.50461 1.89547 0
M  V30 7594 H 745.276 -2.67701 4.27027 0
M  V30 7595 H 744.878 -1.08723 3.57848 0
M  V30 7596 H 747.17 -3.11629 6.01576 0
M  V30 7597 H 748.113 -1.8338 6.83943 0
M  V30 7598 H 748.521 -2.29129 5.15907 0
M  V30 7599 N 747.919 -1.57396 -0.0801906 0
M  V30 7600 C 749.147 -1.91055 -0.794075 0
M  V30 7601 C 749.562 -0.788583 -1.71542 0
M  V30 7602 O 748.919 0.238587 -1.80934 0
M  V30 7603 C 748.97 -3.24418 -1.59484 0
M  V30 7604 O 748.691 -4.323 -0.710532 0
M  V30 7605 C 750.192 -3.72037 -2.41046 0
M  V30 7606 H 747.412 -0.63171 -0.226238 0
M  V30 7607 H 749.956 -2.04431 -0.0529685 0
M  V30 7608 H 748.111 -3.12595 -2.2883 0
M  V30 7609 H 748.525 -5.08976 -1.26663 0
M  V30 7610 H 749.999 -4.68006 -2.92702 0
M  V30 7611 H 750.476 -3.00624 -3.2019 0
M  V30 7612 H 751.082 -3.86777 -1.76871 0
M  V30 7613 N 749.397 0.351382 -1.53633 0
M  V30 7614 C 750.329 1.45159 -1.77374 0
M  V30 7615 C 751.342 1.4905 -0.654826 0
M  V30 7616 O 752.531 1.52274 -0.931396 0
M  V30 7617 C 749.631 2.83858 -1.85143 0
M  V30 7618 C 748.804 3.03498 -3.14972 0
M  V30 7619 C 747.863 4.22393 -3.138 0
M  V30 7620 O 746.889 4.16885 -3.87551 0
M  V30 7621 N 748.091 5.30533 -2.35617 0
M  V30 7622 H 750.856 1.25167 -2.72311 0
M  V30 7623 H 748.417 0.54121 -1.52586 0
M  V30 7624 H 750.409 3.61557 -1.8182 0
M  V30 7625 H 748.979 2.9703 -0.974275 0
M  V30 7626 H 748.199 2.13336 -3.31484 0
M  V30 7627 H 749.487 3.13498 -4.00745 0
M  V30 7628 H 748.885 5.37875 -1.75235 0
M  V30 7629 H 747.442 6.06756 -2.38098 0
M  V30 7630 N 750.875 1.45233 0.611969 0
M  V30 7631 C 752.1 1.52767 1.40274 0
M  V30 7632 C 752.525 0.159701 1.87421 0
M  V30 7633 O 751.883 -0.854837 1.59882 0
M  V30 7634 C 751.931 2.51286 2.58626 0
M  V30 7635 O 751.035 2.02764 3.59111 0
M  V30 7636 H 750.376 0.515141 0.418958 0
M  V30 7637 H 752.906 1.90547 0.745188 0
M  V30 7638 H 752.916 2.69949 3.05927 0
M  V30 7639 H 751.591 3.50641 2.23659 0
M  V30 7640 H 750.168 1.93957 3.18489 0
M  V30 7641 N 752.353 -0.854086 1.3245 0
M  V30 7642 C 753.764 -1.42427 1.20712 0
M  V30 7643 C 754.115 -1.95371 -0.18013 0
M  V30 7644 O 753.24 -1.87587 -1.07889 0
M  V30 7645 C 753.835 -2.58897 2.18536 0
M  V30 7646 C 752.394 -3.11913 2.10683 0
M  V30 7647 C 751.541 -1.84661 2.06871 0
M  V30 7648 H 754.492 -0.661192 1.4427 0
M  V30 7649 H 754.513 -3.36074 1.78422 0
M  V30 7650 H 754.025 -2.20333 3.19492 0
M  V30 7651 H 752.126 -3.55059 1.12977 0
M  V30 7652 H 752.239 -3.73119 3.00532 0
M  V30 7653 H 750.603 -2.04285 1.52118 0
M  V30 7654 H 751.386 -1.48314 3.09609 0
M  V30 7655 N 753.831 -1.1567 -1.07043 0
M  V30 7656 C 755.061 -0.956083 -1.83146 0
M  V30 7657 C 755.469 0.498969 -1.82502 0
M  V30 7658 O 754.812 1.35791 -1.23719 0
M  V30 7659 C 754.874 -1.39704 -3.31245 0
M  V30 7660 C 754.538 -2.87045 -3.55604 0
M  V30 7661 C 755.535 -3.85092 -3.49285 0
M  V30 7662 C 753.22 -3.24787 -3.8317 0
M  V30 7663 C 755.214 -5.18885 -3.70185 0
M  V30 7664 C 752.901 -4.58751 -4.03721 0
M  V30 7665 C 753.899 -5.55609 -3.97224 0
M  V30 7666 O 753.587 -6.87154 -4.17223 0
M  V30 7667 H 753.319 -0.339473 -0.58458 0
M  V30 7668 H 755.873 -1.53922 -1.36005 0
M  V30 7669 H 754.103 -0.757326 -3.79212 0
M  V30 7670 H 755.792 -1.16503 -3.88821 0
M  V30 7671 H 756.558 -3.5728 -3.27988 0
M  V30 7672 H 752.437 -2.49979 -3.87339 0
M  V30 7673 H 755.981 -5.94473 -3.6503 0
M  V30 7674 H 751.878 -4.86277 -4.24505 0
M  V30 7675 H 752.646 -6.93618 -4.34553 0
M  V30 7676 N 755.309 1.25446 -0.953992 0
M  V30 7677 C 756.539 1.96929 -0.624688 0
M  V30 7678 C 756.947 1.71112 0.807292 0
M  V30 7679 O 756.29 0.983512 1.55154 0
M  V30 7680 C 756.352 3.50425 -0.802676 0
M  V30 7681 C 756.016 3.99916 -2.21169 0
M  V30 7682 C 757.013 4.10662 -3.18831 0
M  V30 7683 C 754.698 4.33598 -2.53571 0
M  V30 7684 C 756.692 4.54401 -4.46988 0
M  V30 7685 C 754.379 4.77024 -3.81958 0
M  V30 7686 C 755.377 4.87388 -4.78478 0
M  V30 7687 O 755.065 5.29851 -6.04577 0
M  V30 7688 H 754.797 0.634511 -0.233179 0
M  V30 7689 H 757.351 1.60591 -1.28061 0
M  V30 7690 H 755.581 3.86596 -0.0896044 0
M  V30 7691 H 757.27 4.03117 -0.47452 0
M  V30 7692 H 758.036 3.84872 -2.95124 0
M  V30 7693 H 753.915 4.24757 -1.79171 0
M  V30 7694 H 757.459 4.62406 -5.22328 0
M  V30 7695 H 753.356 5.02258 -4.05471 0
M  V30 7696 H 754.124 5.48039 -6.07944 0
M  V30 7697 N 756.787 0.722489 1.40064 0
M  V30 7698 C 757.75 0.0830209 2.2905 0
M  V30 7699 C 758.75 -0.680208 1.45705 0
M  V30 7700 O 759.94 -0.511084 1.66534 0
M  V30 7701 C 757.072 -0.892092 3.29021 0
M  V30 7702 H 758.265 0.866848 2.87099 0
M  V30 7703 H 755.818 0.487556 1.48501 0
M  V30 7704 H 756.553 -1.70273 2.76003 0
M  V30 7705 H 756.338 -0.34761 3.90556 0
M  V30 7706 H 757.828 -1.33648 3.95636 0
M  V30 7707 N 758.265 -1.50454 0.469181 0
M  V30 7708 C 759.511 -2.02615 -0.0865971 0
M  V30 7709 C 759.844 -1.35062 -1.39542 0
M  V30 7710 O 759.119 -0.475701 -1.88593 0
M  V30 7711 C 759.402 -3.59068 -0.272385 0
M  V30 7712 C 759.255 -4.37196 1.05733 0
M  V30 7713 C 760.574 -4.2793 -1.0278 0
M  V30 7714 H 757.693 -0.736389 -0.0299977 0
M  V30 7715 H 760.335 -1.79792 0.614399 0
M  V30 7716 H 758.485 -3.78646 -0.869471 0
M  V30 7717 H 760.157 -4.29195 1.69084 0
M  V30 7718 H 758.4 -4.01013 1.65442 0
M  V30 7719 H 759.071 -5.44924 0.880997 0
M  V30 7720 H 761.547 -4.12816 -0.521718 0
M  V30 7721 H 760.423 -5.37214 -1.12659 0
M  V30 7722 H 760.684 -3.90968 -2.0639 0
M  V30 7723 N 759.743 -0.201713 -1.56304 0
M  V30 7724 C 760.69 0.716499 -2.19397 0
M  V30 7725 C 761.66 1.20494 -1.14326 0
M  V30 7726 O 762.845 1.26763 -1.42604 0
M  V30 7727 C 759.985 1.92762 -2.86246 0
M  V30 7728 C 759.098 1.47993 -4.0586 0
M  V30 7729 C 758.233 2.64706 -4.60547 0
M  V30 7730 C 757.272 2.16576 -5.72504 0
M  V30 7731 N 756.409 3.26491 -6.21569 0
M  V30 7732 H 761.249 0.171724 -2.97505 0
M  V30 7733 H 758.786 0.073016 -1.46919 0
M  V30 7734 H 760.744 2.6384 -3.23178 0
M  V30 7735 H 759.374 2.44559 -2.10691 0
M  V30 7736 H 758.426 0.66477 -3.74546 0
M  V30 7737 H 759.738 1.08686 -4.86815 0
M  V30 7738 H 758.892 3.43898 -4.99819 0
M  V30 7739 H 757.631 3.0729 -3.78713 0
M  V30 7740 H 756.636 1.3584 -5.32755 0
M  V30 7741 H 757.861 1.75015 -6.56161 0
M  V30 7742 H 755.807 3.68594 -5.42655 0
M  V30 7743 H 755.724 2.91374 -6.97594 0
M  V30 7744 H 756.992 4.05877 -6.65495 0
M  V30 7745 N 761.222 1.57436 0.0718424 0
M  V30 7746 C 762.468 1.87525 0.772149 0
M  V30 7747 C 762.801 0.79399 1.77227 0
M  V30 7748 O 762.076 -0.195733 1.93513 0
M  V30 7749 C 762.359 3.28272 1.48018 0
M  V30 7750 C 762.212 4.47052 0.49647 0
M  V30 7751 C 763.531 3.67256 2.42509 0
M  V30 7752 H 760.65 0.682049 0.279245 0
M  V30 7753 H 763.292 1.89967 0.03534 0
M  V30 7754 H 761.442 3.26321 2.10824 0
M  V30 7755 H 763.114 4.61127 -0.126375 0
M  V30 7756 H 761.357 4.33392 -0.188205 0
M  V30 7757 H 762.028 5.42315 1.02949 0
M  V30 7758 H 764.504 3.70301 1.89781 0
M  V30 7759 H 763.38 4.66626 2.89053 0
M  V30 7760 H 763.641 2.97186 3.27312 0
M  V30 7761 N 762.7 -0.34323 1.53817 0
M  V30 7762 C 763.663 -1.40444 1.8113 0
M  V30 7763 C 764.663 -1.45604 0.682366 0
M  V30 7764 O 765.853 -1.45974 0.950649 0
M  V30 7765 C 762.985 -2.79369 1.95361 0
M  V30 7766 H 764.178 -1.17489 2.75928 0
M  V30 7767 H 761.731 -0.577636 1.45234 0
M  V30 7768 H 762.466 -3.07607 1.02707 0
M  V30 7769 H 762.251 -2.7702 2.77493 0
M  V30 7770 H 763.741 -3.56178 2.18008 0
M  V30 7771 N 764.178 -1.45556 -0.604258 0
M  V30 7772 C 765.589 -1.44171 -1.18624 0
M  V30 7773 C 765.94 -0.171081 -1.95453 0
M  V30 7774 O 765.065 0.727156 -2.03817 0
M  V30 7775 C 765.66 -2.61193 -2.15786 0
M  V30 7776 C 764.219 -2.62918 -2.69353 0
M  V30 7777 C 763.366 -2.36479 -1.4482 0
M  V30 7778 H 766.317 -1.53747 -0.393381 0
M  V30 7779 H 766.338 -2.35481 -2.98879 0
M  V30 7780 H 765.85 -3.53656 -1.59841 0
M  V30 7781 H 763.951 -1.7447 -3.29228 0
M  V30 7782 H 764.064 -3.6224 -3.13559 0
M  V30 7783 H 762.428 -1.86103 -1.73891 0
M  V30 7784 H 763.211 -3.31091 -0.907376 0
M  V30 7785 N 765.656 0.84705 -1.32902 0
M  V30 7786 C 766.904 1.5986 -1.2365 0
M  V30 7787 C 767.225 1.93974 0.199789 0
M  V30 7788 O 766.495 1.60273 1.12648 0
M  V30 7789 H 765.075 0.592696 -0.454665 0
M  V30 7790 H 767.737 1.01278 -1.66519 0
M  V30 7791 H 766.833 2.53218 -1.82448 0
M  V30 7792 N 767.134 1.16236 1.06428 0
M  V30 7793 C 768.383 0.937523 1.78587 0
M  V30 7794 C 768.696 -0.536 1.88113 0
M  V30 7795 O 769.902 -0.878697 2.56887 0
M  V30 7796 C 768.358 1.62808 3.2097 0
M  V30 7797 C 767.966 3.13927 3.19615 0
M  V30 7798 C 769.71 1.48515 3.97673 0
M  V30 7799 C 767.617 3.75727 4.56709 0
M  V30 7800 H 766.547 0.347125 0.669343 0
M  V30 7801 H 769.198 1.39353 1.19385 0
M  V30 7802 H 767.58 1.09977 3.80422 0
M  V30 7803 H 768.754 3.7359 2.69753 0
M  V30 7804 H 767.069 3.28089 2.56411 0
M  V30 7805 H 769.666 1.92069 4.99013 0
M  V30 7806 H 770.009 0.433913 4.14032 0
M  V30 7807 H 770.542 1.98494 3.44739 0
M  V30 7808 H 767.281 4.80793 4.45554 0
M  V30 7809 H 766.801 3.20849 5.0677 0
M  V30 7810 H 768.48 3.77203 5.25668 0
M  V30 7811 N 768.612 -1.24939 0.960631 0
M  V30 7812 C 769.562 -2.23388 0.456266 0
M  V30 7813 C 770.546 -1.54249 -0.45782 0
M  V30 7814 O 771.738 -1.7461 -0.289894 0
M  V30 7815 C 768.867 -3.42321 -0.259024 0
M  V30 7816 C 767.953 -4.18718 0.673478 0
M  V30 7817 N 768.344 -4.72394 1.8077 0
M  V30 7818 C 766.642 -4.43378 0.482859 0
M  V30 7819 C 767.343 -5.30316 2.3904 0
M  V30 7820 N 766.319 -5.17109 1.67629 0
M  V30 7821 H 770.121 -2.62499 1.32179 0
M  V30 7822 H 767.635 -1.40245 0.818851 0
M  V30 7823 H 769.632 -4.11997 -0.637527 0
M  V30 7824 H 768.292 -3.04732 -1.12108 0
M  V30 7825 H 769.303 -4.69345 2.18942 0
M  V30 7826 H 765.98 -4.16147 -0.335821 0
M  V30 7827 H 767.37 -5.82594 3.34715 0
M  V30 7828 N 770.09 -0.729906 -1.39679 0
M  V30 7829 C 771.04 -0.0627678 -2.27914 0
M  V30 7830 C 772.024 0.717867 -1.43998 0
M  V30 7831 O 773.216 0.587713 -1.66958 0
M  V30 7832 C 770.345 0.847564 -3.32673 0
M  V30 7833 C 769.431 0.0613515 -4.24056 0
M  V30 7834 N 769.822 -0.962863 -4.96551 0
M  V30 7835 C 768.12 0.291773 -4.45045 0
M  V30 7836 C 768.821 -1.43652 -5.63683 0
M  V30 7837 N 767.797 -0.756044 -5.38317 0
M  V30 7838 H 771.599 -0.847545 -2.81414 0
M  V30 7839 H 769.113 -0.563776 -1.523 0
M  V30 7840 H 771.11 1.34094 -3.94746 0
M  V30 7841 H 769.77 1.63156 -2.80732 0
M  V30 7842 H 770.781 -1.34409 -5.00154 0
M  V30 7843 H 767.458 1.05097 -4.04056 0
M  V30 7844 H 768.848 -2.28835 -6.31731 0
M  V30 7845 N 771.568 1.50203 -0.477153 0
M  V30 7846 C 772.796 2.0677 0.0732489 0
M  V30 7847 C 773.211 1.34033 1.32968 0
M  V30 7848 O 772.568 0.411412 1.77802 0
M  V30 7849 C 772.619 3.59751 0.35518 0
M  V30 7850 O 772.34 4.29747 -0.851425 0
M  V30 7851 C 773.841 4.3296 0.951877 0
M  V30 7852 H 771.061 0.670929 -0.00978923 0
M  V30 7853 H 773.605 1.93293 -0.667676 0
M  V30 7854 H 771.76 3.7301 1.04605 0
M  V30 7855 H 772.174 5.2106 -0.599708 0
M  V30 7856 H 773.648 5.40952 1.09888 0
M  V30 7857 H 774.125 3.93856 1.94356 0
M  V30 7858 H 774.731 4.24246 0.299208 0
M  V30 7859 N 773.046 0.209999 1.56195 0
M  V30 7860 C 773.979 -0.744546 2.15712 0
M  V30 7861 C 774.957 -1.19917 1.09812 0
M  V30 7862 O 776.141 -1.284 1.38006 0
M  V30 7863 C 773.268 -2.00733 2.72807 0
M  V30 7864 C 772.314 -1.69363 3.91431 0
M  V30 7865 S 773.147 -0.828579 5.29051 0
M  V30 7866 C 774.303 -2.10118 5.89577 0
M  V30 7867 H 774.536 -0.238636 2.96341 0
M  V30 7868 H 772.069 -0.00517877 1.54399 0
M  V30 7869 H 774.027 -2.73246 3.06344 0
M  V30 7870 H 772.688 -2.48436 1.92193 0
M  V30 7871 H 771.881 -2.63157 4.29842 0
M  V30 7872 H 771.483 -1.04921 3.58981 0
M  V30 7873 H 773.775 -3.05231 6.04847 0
M  V30 7874 H 774.718 -1.76116 6.85849 0
M  V30 7875 H 775.126 -2.23644 5.18308 0
M  V30 7876 N 774.524 -1.57472 -0.0634922 0
M  V30 7877 C 775.772 -1.87283 -0.759563 0
M  V30 7878 C 776.093 -0.803135 -1.77693 0
M  V30 7879 O 775.363 0.167293 -1.95184 0
M  V30 7880 H 773.943 -0.691106 -0.283516 0
M  V30 7881 H 776.605 -1.94864 -0.0376091 0
M  V30 7882 H 775.701 -2.85064 -1.27062 0
M  V30 7883 N 776.003 0.335068 -1.53997 0
M  V30 7884 C 777.251 1.07223 -1.71312 0
M  V30 7885 C 777.572 1.88911 -0.483486 0
M  V30 7886 O 776.842 1.89344 0.50257 0
M  V30 7887 H 775.422 0.398846 -0.63161 0
M  V30 7888 H 778.084 0.374288 -1.91272 0
M  V30 7889 H 777.18 1.7448 -2.58772 0
M  V30 7890 N 777.481 1.45874 0.596531 0
M  V30 7891 C 778.727 1.5069 1.35722 0
M  V30 7892 C 779.06 0.152506 1.936 0
M  V30 7893 O 778.335 -0.834411 1.75692 0
M  V30 7894 C 778.618 2.59474 2.4969 0
M  V30 7895 C 778.471 4.04396 1.96937 0
M  V30 7896 C 779.79 2.64451 3.51787 0
M  V30 7897 H 776.909 0.548611 0.492133 0
M  V30 7898 H 779.551 1.77741 0.671428 0
M  V30 7899 H 777.701 2.36539 3.08191 0
M  V30 7900 H 779.373 4.38576 1.43 0
M  V30 7901 H 777.616 4.14529 1.27859 0
M  V30 7902 H 778.287 4.76218 2.79143 0
M  V30 7903 H 780.763 2.85031 3.03145 0
M  V30 7904 H 779.639 3.42411 4.29006 0
M  V30 7905 H 779.9 1.69965 4.08123 0
M  V30 7906 N 778.959 -0.83999 1.33349 0
M  V30 7907 C 779.922 -1.93128 1.23426 0
M  V30 7908 C 780.922 -1.60065 0.153599 0
M  V30 7909 O 782.112 -1.69425 0.405049 0
M  V30 7910 C 779.244 -3.28761 0.901622 0
M  V30 7911 H 780.437 -2.03352 2.20427 0
M  V30 7912 H 777.99 -1.03194 1.17391 0
M  V30 7913 H 778.725 -3.24233 -0.0659337 0
M  V30 7914 H 778.51 -3.54138 1.68311 0
M  V30 7915 H 780 -4.08714 0.856913 0
M  V30 7916 N 780.437 -1.16799 -1.0581 0
M  V30 7917 C 781.686 -0.94698 -1.78088 0
M  V30 7918 C 781.999 0.526016 -1.88394 0
M  V30 7919 O 783.205 0.865061 -2.5735 0
M  V30 7920 C 781.661 -1.64508 -3.20102 0
M  V30 7921 C 781.269 -3.15618 -3.17946 0
M  V30 7922 C 783.013 -1.50622 -3.96879 0
M  V30 7923 C 780.92 -3.78144 -4.5471 0
M  V30 7924 H 779.85 -0.35067 -0.667493 0
M  V30 7925 H 782.501 -1.39985 -1.18645 0
M  V30 7926 H 780.883 -1.11993 -3.79834 0
M  V30 7927 H 782.057 -3.75016 -2.67768 0
M  V30 7928 H 780.372 -3.29444 -2.54667 0
M  V30 7929 H 782.969 -1.94713 -4.97987 0
M  V30 7930 H 783.312 -0.455864 -4.13797 0
M  V30 7931 H 783.845 -2.00319 -3.43682 0
M  V30 7932 H 780.584 -4.83149 -4.42998 0
M  V30 7933 H 780.104 -3.23532 -5.05062 0
M  V30 7934 H 781.783 -3.79986 -5.2366 0
M  V30 7935 N 781.915 1.24427 -0.967243 0
M  V30 7936 C 782.863 2.27403 -0.488927 0
M  V30 7937 C 783.857 1.63388 0.447302 0
M  V30 7938 O 785.063 1.77085 0.322643 0
M  V30 7939 H 781.438 0.738921 -0.139643 0
M  V30 7940 H 783.409 2.65122 -1.36942 0
M  V30 7941 C 782.158 3.4709 0.205787 0
M  V30 7942 H 781.481 3.96591 -0.50551 0
M  V30 7943 H 782.921 4.2099 0.504296 0
M  V30 7944 C 781.38 3.04923 1.43261 0
M  V30 7945 O 781.91 3.12043 2.52967 0
M  V30 7946 N 780.116 2.59976 1.29849 0
M  V30 7947 H 779.663 2.54382 0.405876 0
M  V30 7948 H 779.621 2.32128 2.12047 0
M  V30 7949 N 783.393 0.737304 1.3929 0
M  V30 7950 C 784.621 0.296573 2.04763 0
M  V30 7951 C 785.036 -1.06941 1.55592 0
M  V30 7952 O 784.393 -1.67619 0.721822 0
M  V30 7953 C 784.444 0.291906 3.6032 0
M  V30 7954 O 784.165 1.60397 4.07682 0
M  V30 7955 C 785.666 -0.164708 4.42994 0
M  V30 7956 H 782.886 0.129251 0.658434 0
M  V30 7957 H 785.43 1.0016 1.78293 0
M  V30 7958 H 783.585 -0.364251 3.85684 0
M  V30 7959 H 783.999 1.51909 5.0202 0
M  V30 7960 H 785.473 -0.116814 5.51876 0
M  V30 7961 H 785.95 -1.21022 4.22197 0
M  V30 7962 H 786.556 0.461968 4.22784 0
M  V30 7963 N 784.871 -1.49948 0.485112 0
M  V30 7964 C 786.099 -2.06806 -0.0622824 0
M  V30 7965 C 786.514 -1.34736 -1.32256 0
M  V30 7966 O 785.871 -0.420836 -1.77582 0
M  V30 7967 C 785.922 -3.59934 -0.336096 0
M  V30 7968 O 785.643 -4.29289 0.874203 0
M  V30 7969 C 787.144 -4.33459 -0.928903 0
M  V30 7970 H 784.364 -0.670867 0.0133472 0
M  V30 7971 H 786.908 -1.92937 0.677917 0
M  V30 7972 H 785.063 -3.7356 -1.02625 0
M  V30 7973 H 785.477 -5.20735 0.627332 0
M  V30 7974 H 786.951 -5.41527 -1.07017 0
M  V30 7975 H 787.428 -3.94881 -1.92265 0
M  V30 7976 H 788.034 -4.24399 -0.276705 0
M  V30 7977 N 786.349 -0.21828 -1.56081 0
M  V30 7978 C 787.312 0.679633 -2.18892 0
M  V30 7979 C 788.312 1.12405 -1.14986 0
M  V30 7980 O 789.502 1.03339 -1.40238 0
M  V30 7981 C 786.634 1.93063 -2.80962 0
M  V30 7982 H 787.827 0.132066 -2.99609 0
M  V30 7983 H 785.38 0.0313374 -1.56269 0
M  V30 7984 H 786.115 2.52015 -2.04106 0
M  V30 7985 H 785.9 1.62046 -3.57048 0
M  V30 7986 H 787.39 2.57043 -3.29118 0
M  V30 7987 N 787.827 1.57504 0.0551401 0
M  V30 7988 C 789.052 1.92682 0.767352 0
M  V30 7989 C 789.477 0.81614 1.69472 0
M  V30 7990 O 788.835 -0.229989 1.79835 0
M  V30 7991 C 788.883 3.26866 1.52286 0
M  V30 7992 O 787.987 3.17274 2.63459 0
M  V30 7993 H 787.328 0.630502 0.208238 0
M  V30 7994 H 789.858 2.04592 0.0184026 0
M  V30 7995 H 789.868 3.61138 1.8985 0
M  V30 7996 H 788.543 4.07276 0.842541 0
M  V30 7997 H 787.12 2.94589 2.2863 0
M  V30 7998 N 789.305 -0.326896 1.54172 0
M  V30 7999 C 790.551 -1.06681 1.72473 0
M  V30 8000 C 790.884 -1.87779 0.49523 0
M  V30 8001 O 790.159 -1.87754 -0.507803 0
M  V30 8002 C 790.442 -1.99429 2.99834 0
M  V30 8003 C 790.295 -1.21682 4.33028 0
M  V30 8004 C 791.614 -2.99002 3.22933 0
M  V30 8005 H 788.733 -0.386438 0.627563 0
M  V30 8006 H 791.375 -0.343779 1.86864 0
M  V30 8007 H 789.525 -2.61081 2.87696 0
M  V30 8008 H 791.197 -0.625153 4.57044 0
M  V30 8009 H 789.44 -0.519045 4.30684 0
M  V30 8010 H 790.111 -1.89766 5.18356 0
M  V30 8011 H 792.587 -2.4747 3.34511 0
M  V30 8012 H 791.463 -3.61085 4.13412 0
M  V30 8013 H 791.724 -3.71281 2.40006 0
M  V30 8014 N 790.784 -1.46188 -0.588786 0
M  V30 8015 C 791.714 -1.59148 -1.70863 0
M  V30 8016 C 792.695 -0.442083 -1.64255 0
M  V30 8017 O 793.88 -0.667575 -1.82365 0
M  V30 8018 C 791.01 -1.5757 -3.09498 0
M  V30 8019 C 789.964 -2.71418 -3.30932 0
M  V30 8020 C 789.29 -2.549 -4.70032 0
M  V30 8021 C 790.59 -4.1329 -3.19356 0
M  V30 8022 H 792.284 -2.52889 -1.60274 0
M  V30 8023 H 789.83 -1.21707 -0.769638 0
M  V30 8024 H 791.783 -1.65231 -3.87655 0
M  V30 8025 H 790.507 -0.603705 -3.20972 0
M  V30 8026 H 789.166 -2.63216 -2.55172 0
M  V30 8027 H 788.814 -1.55797 -4.78264 0
M  V30 8028 H 788.514 -3.31257 -4.85327 0
M  V30 8029 H 790.038 -2.64443 -5.50366 0
M  V30 8030 H 791.452 -4.22636 -3.87365 0
M  V30 8031 H 789.849 -4.90187 -3.46175 0
M  V30 8032 H 790.919 -4.33874 -2.16522 0
M  V30 8033 N 792.262 0.832906 -1.33792 0
M  V30 8034 C 793.539 1.57359 -1.16178 0
M  V30 8035 C 793.919 2.09372 0.269532 0
M  V30 8036 O 793.267 1.89993 1.26944 0
M  V30 8037 C 793.477 2.70279 -2.20795 0
M  V30 8038 C 794.825 3.39305 -2.55259 0
M  V30 8039 O 795.849 2.80526 -2.19508 0
M  V30 8040 O 794.708 4.45428 -3.16632 0
M  V30 8041 H 791.802 0.694025 -0.449731 0
M  V30 8042 H 794.348 0.875144 -1.45394 0
M  V30 8043 H 793.12 2.29527 -3.16911 0
M  V30 8044 H 792.743 3.47782 -1.927 0
M  V30 8045 N 793.74 1.17359 1.05189 0
M  V30 8046 C 794.67 0.91365 2.14883 0
M  V30 8047 C 795.651 -0.144365 1.69486 0
M  V30 8048 O 796.836 0.00587861 1.94199 0
M  V30 8049 C 793.966 0.426196 3.44675 0
M  V30 8050 C 792.92 1.4234 4.03638 0
M  V30 8051 C 792.246 0.793902 5.28773 0
M  V30 8052 C 793.546 2.7966 4.41121 0
M  V30 8053 H 795.24 1.831 2.36885 0
M  V30 8054 H 792.786 0.881781 1.13845 0
M  V30 8055 H 794.739 0.231767 4.20762 0
M  V30 8056 H 793.463 -0.526693 3.22325 0
M  V30 8057 H 792.122 1.60457 3.2962 0
M  V30 8058 H 791.77 -0.165824 5.02727 0
M  V30 8059 H 791.47 1.45959 5.69183 0
M  V30 8060 H 792.994 0.609747 6.07548 0
M  V30 8061 H 794.408 2.6526 5.08242 0
M  V30 8062 H 792.805 3.42807 4.92548 0
M  V30 8063 H 793.875 3.34068 3.51464 0
M  V30 8064 N 795.218 -1.23913 0.973828 0
M  V30 8065 C 796.15 -2.24397 0.466763 0
M  V30 8066 C 797.163 -1.57078 -0.427828 0
M  V30 8067 O 798.352 -1.76973 -0.233019 0
M  V30 8068 C 795.452 -3.37141 -0.344798 0
M  V30 8069 C 794.625 -4.34037 0.541349 0
M  V30 8070 C 793.684 -5.2576 -0.215243 0
M  V30 8071 O 792.71 -5.67842 0.39291 0
M  V30 8072 N 793.912 -5.60702 -1.5031 0
M  V30 8073 H 796.677 -2.68536 1.33074 0
M  V30 8074 H 794.238 -1.38017 0.846346 0
M  V30 8075 H 796.23 -3.95476 -0.859133 0
M  V30 8076 H 794.8 -2.92239 -1.10974 0
M  V30 8077 H 794.02 -3.74302 1.23659 0
M  V30 8078 H 795.308 -4.95738 1.1455 0
M  V30 8079 H 794.706 -5.28451 -2.01882 0
M  V30 8080 H 793.263 -6.21538 -1.96301 0
M  V30 8081 N 796.696 -0.74468 -1.38897 0
M  V30 8082 C 797.921 -0.306119 -2.05128 0
M  V30 8083 C 798.346 1.0541 -1.55789 0
M  V30 8084 O 797.704 1.66993 -0.705909 0
M  V30 8085 C 797.752 -0.328195 -3.59103 0
M  V30 8086 O 796.856 0.680876 -4.06741 0
M  V30 8087 H 796.197 -0.137209 -0.649669 0
M  V30 8088 H 798.727 -1.01331 -1.77745 0
M  V30 8089 H 798.737 -0.175956 -4.0762 0
M  V30 8090 H 797.412 -1.32067 -3.94374 0
M  V30 8091 H 795.989 0.49398 -3.69614 0
M  V30 8092 N 798.174 1.49689 -0.493057 0
M  V30 8093 C 799.121 2.28976 0.28959 0
M  V30 8094 C 800.091 1.35011 0.967536 0
M  V30 8095 O 801.276 1.63964 0.975736 0
M  V30 8096 C 798.416 3.1748 1.35279 0
M  V30 8097 C 797.529 4.26496 0.687418 0
M  V30 8098 C 796.664 5.02226 1.73038 0
M  V30 8099 C 795.703 6.03089 1.04645 0
M  V30 8100 N 794.84 6.72014 2.03325 0
M  V30 8101 H 799.68 2.954 -0.392798 0
M  V30 8102 H 797.217 1.45657 -0.205554 0
M  V30 8103 H 799.175 3.67162 1.98111 0
M  V30 8104 H 797.805 2.53057 2.00405 0
M  V30 8105 H 796.857 3.80362 -0.0540001 0
M  V30 8106 H 798.169 4.98578 0.14864 0
M  V30 8107 H 797.323 5.55737 2.43395 0
M  V30 8108 H 796.062 4.29899 2.303 0
M  V30 8109 H 795.067 5.48817 0.328606 0
M  V30 8110 H 796.292 6.77398 0.480428 0
M  V30 8111 H 794.238 6.02464 2.59564 0
M  V30 8112 H 794.155 7.40046 1.54492 0
M  V30 8113 H 795.423 7.30133 2.72995 0
M  V30 8114 N 799.652 0.226554 1.55963 0
M  V30 8115 C 801.063 -0.280381 1.84583 0
M  V30 8116 C 801.414 -1.59105 1.14804 0
M  V30 8117 O 800.539 -2.12297 0.419414 0
M  V30 8118 C 801.134 -0.515499 3.34855 0
M  V30 8119 C 799.693 -0.966733 3.63774 0
M  V30 8120 C 798.84 -0.0325753 2.77281 0
M  V30 8121 H 801.791 0.449626 1.52197 0
M  V30 8122 H 801.812 -1.36085 3.55332 0
M  V30 8123 H 801.324 0.438594 3.85614 0
M  V30 8124 H 799.425 -1.93401 3.18476 0
M  V30 8125 H 799.538 -0.837679 4.7172 0
M  V30 8126 H 797.902 -0.540279 2.48904 0
M  V30 8127 H 798.685 0.916524 3.30839 0
M  V30 8128 N 801.13 -1.57531 -0.0467866 0
M  V30 8129 C 802.379 -1.87632 -0.740069 0
M  V30 8130 C 802.692 -0.822691 -1.77457 0
M  V30 8131 O 803.898 -1.01235 -2.5192 0
M  V30 8132 C 802.354 -3.32917 -1.36727 0
M  V30 8133 C 801.962 -4.46469 -0.370035 0
M  V30 8134 C 803.706 -3.72189 -2.04146 0
M  V30 8135 C 801.613 -5.82806 -1.00457 0
M  V30 8136 H 800.543 -0.70002 -0.280158 0
M  V30 8137 H 803.194 -1.83499 0.00607151 0
M  V30 8138 H 801.576 -3.31739 -2.16252 0
M  V30 8139 H 802.75 -4.59085 0.397217 0
M  V30 8140 H 801.065 -4.15914 0.201079 0
M  V30 8141 H 803.662 -4.71357 -2.52441 0
M  V30 8142 H 804.005 -3.03268 -2.85192 0
M  V30 8143 H 804.538 -3.75465 -1.3142 0
M  V30 8144 H 801.277 -6.55083 -0.233907 0
M  V30 8145 H 800.797 -5.73944 -1.74209 0
M  V30 8146 H 802.476 -6.28961 -1.51713 0
M  V30 8147 N 802.608 0.318715 -1.54344 0
M  V30 8148 C 803.885 1.07461 -1.63437 0
M  V30 8149 C 804.265 2.05771 -0.47131 0
M  V30 8150 O 803.613 2.22175 0.53391 0
M  V30 8151 C 803.823 1.77224 -3.00654 0
M  V30 8152 C 805.171 2.30069 -3.56866 0
M  V30 8153 O 806.195 1.87284 -3.0299 0
M  V30 8154 O 805.054 3.08412 -4.51159 0
M  V30 8155 H 802.148 0.495627 -0.66203 0
M  V30 8156 H 804.694 0.318218 -1.6669 0
M  V30 8157 H 803.466 1.05742 -3.76742 0
M  V30 8158 H 803.089 2.59662 -3.01101 0
M  V30 8159 N 804.086 1.46499 0.581025 0
M  V30 8160 C 805.334 1.51596 1.33653 0
M  V30 8161 C 805.655 0.169859 1.94259 0
M  V30 8162 O 804.925 -0.803776 1.78651 0
M  V30 8163 H 803.505 0.558346 0.496244 0
M  V30 8164 H 806.167 1.8264 0.680338 0
M  V30 8165 H 805.263 2.26956 2.14237 0
M  V30 8166 N 805.565 -0.825799 1.34232 0
M  V30 8167 C 806.495 -1.95151 1.28212 0
M  V30 8168 C 807.476 -1.69345 0.160123 0
M  V30 8169 O 808.661 -1.90983 0.352019 0
M  V30 8170 C 805.791 -3.31554 1.03388 0
M  V30 8171 C 804.745 -3.71793 2.12023 0
M  V30 8172 C 804.071 -5.06147 1.72392 0
M  V30 8173 C 805.371 -3.84193 3.53826 0
M  V30 8174 H 807.065 -2.00445 2.22401 0
M  V30 8175 H 804.611 -0.962996 1.07063 0
M  V30 8176 H 806.564 -4.09889 0.978225 0
M  V30 8177 H 805.288 -3.26551 0.0564142 0
M  V30 8178 H 803.947 -2.95731 2.16654 0
M  V30 8179 H 803.595 -4.97628 0.733137 0
M  V30 8180 H 803.295 -5.34041 2.451 0
M  V30 8181 H 804.819 -5.86943 1.68317 0
M  V30 8182 H 806.233 -4.52806 3.51624 0
M  V30 8183 H 804.63 -4.23538 4.2513 0
M  V30 8184 H 805.7 -2.86272 3.91377 0
M  V30 8185 N 807.043 -1.17915 -1.04565 0
M  V30 8186 C 808.29 -0.971424 -1.77678 0
M  V30 8187 C 808.618 0.499401 -1.87979 0
M  V30 8188 O 807.873 1.38695 -1.38066 0
M  V30 8189 C 808.172 -1.56528 -3.213 0
M  V30 8190 C 807.838 -3.06138 -3.31044 0
M  V30 8191 C 806.5 -3.46974 -3.33411 0
M  V30 8192 C 808.852 -4.02151 -3.31548 0
M  V30 8193 C 806.18 -4.82406 -3.33918 0
M  V30 8194 C 808.532 -5.37492 -3.33595 0
M  V30 8195 C 807.196 -5.77782 -3.34251 0
M  V30 8196 H 806.466 -0.355469 -0.650171 0
M  V30 8197 H 809.113 -1.46902 -1.22849 0
M  V30 8198 H 807.418 -0.98955 -3.79098 0
M  V30 8199 H 809.115 -1.38003 -3.76505 0
M  V30 8200 H 805.705 -2.73589 -3.29919 0
M  V30 8201 H 809.889 -3.71656 -3.28916 0
M  V30 8202 H 805.145 -5.12927 -3.3274 0
M  V30 8203 H 809.319 -6.1166 -3.32934 0
M  V30 8204 H 806.946 -6.82702 -3.34397 0
M  V30 8205 N 808.521 1.23394 -0.980386 0
M  V30 8206 C 809.484 2.23092 -0.525619 0
M  V30 8207 C 810.484 1.56129 0.384745 0
M  V30 8208 O 811.674 1.73284 0.178439 0
M  V30 8209 C 808.806 3.40074 0.23712 0
M  V30 8210 H 809.999 2.64839 -1.40714 0
M  V30 8211 H 807.552 1.36227 -0.766275 0
M  V30 8212 H 808.287 3.03783 1.13518 0
M  V30 8213 H 808.072 3.89883 -0.416356 0
M  V30 8214 H 809.562 4.14043 0.543892 0
M  V30 8215 N 809.999 0.752036 1.385 0
M  V30 8216 C 810.962 0.131587 2.28822 0
M  V30 8217 C 811.962 -0.649149 1.47115 0
M  V30 8218 O 813.152 -0.475645 1.67581 0
M  V30 8219 C 810.284 -0.822101 3.30839 0
M  V30 8220 H 811.477 0.927551 2.85196 0
M  V30 8221 H 809.03 0.518945 1.47434 0
M  V30 8222 H 809.765 -1.6438 2.79553 0
M  V30 8223 H 809.55 -0.264689 3.91206 0
M  V30 8224 H 811.04 -1.25226 3.98382 0
M  V30 8225 N 811.477 -1.49425 0.500989 0
M  V30 8226 C 812.725 -2.02053 -0.0434495 0
M  V30 8227 C 813.046 -1.38285 -1.37486 0
M  V30 8228 O 812.316 -0.538171 -1.88363 0
M  V30 8229 H 810.896 -0.746757 -0.0190469 0
M  V30 8230 H 813.558 -1.83449 0.658227 0
M  V30 8231 H 812.654 -3.11619 -0.173129 0
M  V30 8232 N 812.955 -0.234822 -1.55841 0
M  V30 8233 C 813.865 0.680828 -2.24504 0
M  V30 8234 C 814.881 1.20306 -1.25708 0
M  V30 8235 O 816.057 1.24188 -1.58554 0
M  V30 8236 C 813.122 1.86636 -2.92178 0
M  V30 8237 C 812.183 1.3848 -4.06352 0
M  V30 8238 C 811.416 2.51382 -4.70789 0
M  V30 8239 O 811.639 3.69831 -4.34259 0
M  V30 8240 O 810.573 2.21828 -5.59532 0
M  V30 8241 H 814.399 0.12583 -3.03439 0
M  V30 8242 H 811.984 -0.00381817 -1.494 0
M  V30 8243 H 813.866 2.55845 -3.34845 0
M  V30 8244 H 812.541 2.40921 -2.16192 0
M  V30 8245 H 811.448 0.660341 -3.68226 0
M  V30 8246 H 812.781 0.888177 -4.8412 0
M  V30 8247 N 814.433 1.57553 0.0384317 0
M  V30 8248 C 815.679 1.89121 0.732199 0
M  V30 8249 C 816.012 0.831404 1.75503 0
M  V30 8250 O 815.287 -0.154642 1.93884 0
M  V30 8251 C 815.57 3.31338 1.41021 0
M  V30 8252 C 815.423 4.48004 0.401532 0
M  V30 8253 C 816.742 3.72318 2.34665 0
M  V30 8254 H 813.861 0.687819 0.264715 0
M  V30 8255 H 816.503 1.89999 -0.00496279 0
M  V30 8256 H 814.653 3.3072 2.03854 0
M  V30 8257 H 816.325 4.60755 -0.224159 0
M  V30 8258 H 814.568 4.32895 -0.280092 0
M  V30 8259 H 815.239 5.44377 0.91423 0
M  V30 8260 H 817.715 3.74243 1.81883 0
M  V30 8261 H 816.591 4.72652 2.7909 0
M  V30 8262 H 816.852 3.04062 3.20934 0
M  V30 8263 N 815.911 -0.310526 1.54511 0
M  V30 8264 C 817.139 -1.06611 1.77318 0
M  V30 8265 C 817.554 -1.81265 0.528043 0
M  V30 8266 O 816.911 -1.75466 -0.50178 0
M  V30 8267 C 816.962 -2.05409 2.97472 0
M  V30 8268 O 816.683 -1.33785 4.17173 0
M  V30 8269 C 818.184 -2.93082 3.32593 0
M  V30 8270 H 815.404 -0.316578 0.591624 0
M  V30 8271 H 817.948 -0.352691 2.01436 0
M  V30 8272 H 816.103 -2.72266 2.7559 0
M  V30 8273 H 816.517 -2.00055 4.84849 0
M  V30 8274 H 817.991 -3.58274 4.19933 0
M  V30 8275 H 818.468 -3.60877 2.50329 0
M  V30 8276 H 819.074 -2.31768 3.566 0
M  V30 8277 N 817.389 -1.46805 -0.573248 0
M  V30 8278 C 818.637 -1.52302 -1.32847 0
M  V30 8279 C 818.958 -0.180159 -1.94166 0
M  V30 8280 O 818.228 0.794291 -1.79075 0
M  V30 8281 H 816.808 -0.56097 -0.493276 0
M  V30 8282 H 819.47 -1.82998 -0.670642 0
M  V30 8283 H 818.566 -2.28089 -2.13031 0
M  V30 8284 N 818.867 0.818669 -1.34668 0
M  V30 8285 C 820.115 1.57201 -1.27013 0
M  V30 8286 C 820.436 1.94354 0.158599 0
M  V30 8287 O 819.706 1.62626 1.09223 0
M  V30 8288 H 818.286 0.582919 -0.467135 0
M  V30 8289 H 820.948 0.977234 -1.6863 0
M  V30 8290 H 820.044 2.49291 -1.87778 0
M  V30 8291 N 820.346 1.18468 1.03938 0
M  V30 8292 C 821.592 0.982286 1.77423 0
M  V30 8293 C 821.925 -0.48679 1.88 0
M  V30 8294 O 821.2 -1.36146 1.38905 0
M  V30 8295 C 821.483 1.63929 3.20623 0
M  V30 8296 C 821.336 3.18132 3.17982 0
M  V30 8297 C 822.655 1.3536 4.18767 0
M  V30 8298 H 819.774 0.358264 0.644062 0
M  V30 8299 H 822.416 1.46154 1.21405 0
M  V30 8300 H 820.566 1.2318 3.68455 0
M  V30 8301 H 822.238 3.68024 2.78129 0
M  V30 8302 H 820.481 3.50225 2.55978 0
M  V30 8303 H 821.152 3.5924 4.19107 0
M  V30 8304 H 823.628 1.70669 3.79488 0
M  V30 8305 H 822.504 1.83896 5.17178 0
M  V30 8306 H 822.765 0.276722 4.41233 0
M  V30 8307 N 821.824 -1.22873 0.986916 0
M  V30 8308 C 822.774 -2.2237 0.503547 0
M  V30 8309 C 823.758 -1.55186 -0.424998 0
M  V30 8310 O 824.95 -1.75186 -0.252791 0
M  V30 8311 C 822.079 -3.42794 -0.186355 0
M  V30 8312 C 821.165 -4.17196 0.762143 0
M  V30 8313 N 821.556 -4.68453 1.9075 0
M  V30 8314 C 819.854 -4.42255 0.576797 0
M  V30 8315 C 820.555 -5.25126 2.50235 0
M  V30 8316 N 819.531 -5.13437 1.7856 0
M  V30 8317 H 823.333 -2.59636 1.37718 0
M  V30 8318 H 820.847 -1.38476 0.848415 0
M  V30 8319 H 822.844 -4.13256 -0.549993 0
M  V30 8320 H 821.504 -3.07042 -1.05619 0
M  V30 8321 H 822.515 -4.64595 2.28848 0
M  V30 8322 H 819.192 -4.16766 -0.247474 0
M  V30 8323 H 820.582 -5.75363 3.46997 0
M  V30 8324 N 823.302 -0.75937 -1.38099 0
M  V30 8325 C 824.55 -0.317485 -1.99591 0
M  V30 8326 C 824.871 1.10628 -1.60581 0
M  V30 8327 O 824.141 1.7575 -0.865378 0
M  V30 8328 H 822.721 -0.114397 -0.738189 0
M  V30 8329 H 825.383 -0.974749 -1.68774 0
M  V30 8330 H 824.479 -0.385227 -3.09713 0
M  V30 8331 N 824.78 1.49157 -0.508906 0
M  V30 8332 C 826.01 2.06579 0.0293308 0
M  V30 8333 C 826.418 1.36852 1.30645 0
M  V30 8334 O 825.761 0.443079 1.78276 0
M  V30 8335 C 825.823 3.57838 0.345296 0
M  V30 8336 C 825.487 4.49302 -0.835256 0
M  V30 8337 C 826.484 4.90345 -1.72793 0
M  V30 8338 C 824.169 4.91494 -1.0363 0
M  V30 8339 C 826.163 5.72327 -2.80573 0
M  V30 8340 C 823.85 5.7325 -2.11726 0
M  V30 8341 C 824.848 6.13572 -3.00032 0
M  V30 8342 O 824.536 6.93691 -4.06261 0
M  V30 8343 H 824.268 0.675679 -0.0208193 0
M  V30 8344 H 826.822 1.9282 -0.707789 0
M  V30 8345 H 825.052 3.69634 1.13612 0
M  V30 8346 H 826.741 3.97467 0.823089 0
M  V30 8347 H 827.507 4.58388 -1.58446 0
M  V30 8348 H 823.386 4.59605 -0.358308 0
M  V30 8349 H 826.93 6.03719 -3.49527 0
M  V30 8350 H 822.827 6.0462 -2.26065 0
M  V30 8351 H 823.595 7.12011 -4.03711 0
M  V30 8352 N 826.258 0.243083 1.55714 0
M  V30 8353 C 827.206 -0.674349 2.2261 0
M  V30 8354 C 828.2 -1.18307 1.21243 0
M  V30 8355 O 829.406 -1.1404 1.39265 0
M  V30 8356 H 825.781 -0.235941 0.714028 0
M  V30 8357 H 827.752 -0.0869446 2.98273 0
M  V30 8358 C 826.501 -1.86206 2.93637 0
M  V30 8359 H 825.824 -1.47975 3.71407 0
M  V30 8360 H 827.264 -2.4813 3.43813 0
M  V30 8361 C 825.723 -2.73084 1.97298 0
M  V30 8362 O 826.253 -3.72497 1.50361 0
M  V30 8363 N 824.459 -2.39571 1.64482 0
M  V30 8364 H 824.006 -1.5878 2.02846 0
M  V30 8365 H 823.964 -2.97976 1.00288 0
M  V30 8366 N 827.736 -1.57571 -0.0300757 0
M  V30 8367 C 829.152 -1.54869 -0.385703 0
M  V30 8368 C 829.352 -0.969068 -1.76667 0
M  V30 8369 O 828.408 -0.589676 -2.45518 0
M  V30 8370 C 829.721 -2.99313 -0.288482 0
M  V30 8371 C 831.269 -3.10857 -0.365638 0
M  V30 8372 C 831.744 -4.5703 -0.297878 0
M  V30 8373 N 833.235 -4.61825 -0.356703 0
M  V30 8374 C 833.97 -5.72466 -0.327146 0
M  V30 8375 N 833.466 -6.92349 -0.249941 0
M  V30 8376 N 835.259 -5.60836 -0.376801 0
M  V30 8377 H 827.41 -1.936 0.87367 0
M  V30 8378 H 829.673 -0.887924 0.332106 0
M  V30 8379 H 829.379 -3.45443 0.66047 0
M  V30 8380 H 829.253 -3.61332 -1.08253 0
M  V30 8381 H 831.64 -2.64676 -1.30502 0
M  V30 8382 H 831.721 -2.51671 0.457744 0
M  V30 8383 H 831.365 -5.03879 0.637835 0
M  V30 8384 H 831.295 -5.14127 -1.13935 0
M  V30 8385 H 833.786 -3.75571 -0.418926 0
M  V30 8386 H 834.099 -7.7245 -0.23246 0
M  V30 8387 H 832.444 -6.94664 -0.216004 0
M  V30 8388 H 835.635 -4.66073 -0.435101 0
M  V30 8389 H 835.808 -6.47052 -0.350298 0
M  V30 8390 N 829.214 0.302327 -1.54673 0
M  V30 8391 C 830.144 1.37759 -1.88533 0
M  V30 8392 C 831.125 1.52961 -0.744113 0
M  V30 8393 O 832.31 1.6649 -0.999731 0
M  V30 8394 C 829.44 2.74201 -2.13146 0
M  V30 8395 C 828.394 2.73765 -3.28993 0
M  V30 8396 C 827.72 4.13483 -3.39022 0
M  V30 8397 C 829.02 2.35624 -4.66132 0
M  V30 8398 H 830.714 1.0967 -2.78591 0
M  V30 8399 H 828.26 0.52613 -1.34044 0
M  V30 8400 H 830.213 3.49508 -2.35419 0
M  V30 8401 H 828.937 3.03812 -1.19858 0
M  V30 8402 H 827.596 2.00914 -3.06642 0
M  V30 8403 H 827.244 4.40269 -2.43253 0
M  V30 8404 H 826.944 4.14093 -4.16894 0
M  V30 8405 H 828.468 4.90572 -3.63553 0
M  V30 8406 H 829.882 3.00647 -4.88143 0
M  V30 8407 H 828.279 2.47449 -5.46707 0
M  V30 8408 H 829.349 1.30753 -4.66939 0
M  V30 8409 N 830.692 1.47107 0.565454 0
M  V30 8410 C 831.94 1.53005 1.32038 0
M  V30 8411 C 832.261 0.190453 1.94068 0
M  V30 8412 O 831.531 -0.784783 1.79494 0
M  V30 8413 H 830.111 0.563578 0.490294 0
M  V30 8414 H 832.773 1.83351 0.660928 0
M  V30 8415 H 831.869 2.29215 2.11818 0
M  V30 8416 N 832.17 -0.811516 1.35101 0
M  V30 8417 C 833.418 -1.56525 1.27845 0
M  V30 8418 C 833.739 -1.94435 -0.14829 0
M  V30 8419 O 833.009 -1.63203 -1.08359 0
M  V30 8420 H 831.589 -0.580433 0.47022 0
M  V30 8421 H 834.251 -0.968277 1.69146 0
M  V30 8422 H 833.347 -2.48291 1.89097 0
M  V30 8423 N 833.648 -1.19017 -1.03309 0
M  V30 8424 C 834.596 -0.920627 -2.13605 0
M  V30 8425 C 835.59 0.121969 -1.6896 0
M  V30 8426 O 836.796 -0.0268854 -1.7998 0
M  V30 8427 H 833.171 -0.280284 -0.697814 0
M  V30 8428 H 835.142 -1.85755 -2.33533 0
M  V30 8429 C 833.891 -0.471198 -3.44492 0
M  V30 8430 H 833.214 -1.26499 -3.7926 0
M  V30 8431 H 834.654 -0.321663 -4.22778 0
M  V30 8432 C 833.113 0.81411 -3.26916 0
M  V30 8433 O 833.643 1.87654 -3.55175 0
M  V30 8434 N 831.849 0.769695 -2.80221 0
M  V30 8435 H 831.396 -0.0951278 -2.57424 0
M  V30 8436 H 831.354 1.63008 -2.68842 0
M  V30 8437 N 835.127 1.22348 -0.993418 0
M  V30 8438 C 836.09 2.22522 -0.549251 0
M  V30 8439 C 837.09 1.56529 0.368164 0
M  V30 8440 O 838.28 1.73463 0.16005 0
M  V30 8441 C 835.412 3.40307 0.201037 0
M  V30 8442 H 836.605 2.63332 -1.43515 0
M  V30 8443 H 834.158 1.35407 -0.78068 0
M  V30 8444 H 834.893 3.0497 1.10289 0
M  V30 8445 H 834.678 3.8942 -0.457685 0
M  V30 8446 H 836.168 4.14597 0.499946 0
M  V30 8447 N 836.605 0.766683 1.37694 0
M  V30 8448 C 837.854 0.325425 1.99057 0
M  V30 8449 C 838.167 -1.10275 1.61551 0
M  V30 8450 O 839.373 -1.64513 2.1598 0
M  V30 8451 C 837.829 0.530886 3.55963 0
M  V30 8452 C 837.437 1.96899 4.02411 0
M  V30 8453 C 839.181 0.152997 4.24224 0
M  V30 8454 C 837.088 2.12232 5.52007 0
M  V30 8455 H 836.018 0.117929 0.744721 0
M  V30 8456 H 838.669 0.945091 1.5729 0
M  V30 8457 H 837.051 -0.158162 3.95684 0
M  V30 8458 H 838.225 2.69258 3.73948 0
M  V30 8459 H 836.54 2.303 3.46916 0
M  V30 8460 H 839.137 0.24614 5.34133 0
M  V30 8461 H 839.48 -0.896096 4.06541 0
M  V30 8462 H 840.013 0.794398 3.89787 0
M  V30 8463 H 836.752 3.15442 5.7461 0
M  V30 8464 H 836.272 1.4435 5.82171 0
M  V30 8465 H 837.951 1.9185 6.17902 0
M  V30 8466 N 838.083 -1.48885 0.516809 0
M  V30 8467 C 839.046 -2.27916 -0.242256 0
M  V30 8468 C 840.046 -1.34601 -0.879735 0
M  V30 8469 O 841.236 -1.57616 -0.74182 0
M  V30 8470 C 838.368 -3.13067 -1.34914 0
M  V30 8471 H 839.561 -2.96483 0.451444 0
M  V30 8472 H 837.114 -1.5391 0.272294 0
M  V30 8473 H 837.849 -2.49102 -2.07651 0
M  V30 8474 H 837.634 -3.81695 -0.897313 0
M  V30 8475 H 839.124 -3.72716 -1.88341 0
M  V30 8476 N 839.561 -0.251338 -1.55583 0
M  V30 8477 C 840.838 0.422729 -1.90977 0
M  V30 8478 C 841.218 1.75534 -1.17265 0
M  V30 8479 O 840.566 2.26632 -0.291588 0
M  V30 8480 C 840.776 0.586448 -3.44037 0
M  V30 8481 C 842.124 0.880294 -4.15375 0
M  V30 8482 O 843.148 0.672148 -3.49801 0
M  V30 8483 O 842.007 1.27694 -5.31372 0
M  V30 8484 H 839.101 0.227622 -0.795058 0
M  V30 8485 H 841.647 -0.295733 -1.67103 0
M  V30 8486 H 840.419 -0.352327 -3.89711 0
M  V30 8487 H 840.042 1.35528 -3.73789 0
M  V30 8488 N 841.039 1.57585 0.0217189 0
M  V30 8489 C 842.267 1.93871 0.722619 0
M  V30 8490 C 842.682 0.851706 1.68498 0
M  V30 8491 O 842.039 -0.17127 1.81695 0
M  V30 8492 C 842.09 3.30114 1.47333 0
M  V30 8493 O 841.811 4.34639 0.549597 0
M  V30 8494 C 843.312 3.80727 2.27072 0
M  V30 8495 H 840.532 0.639671 0.202637 0
M  V30 8496 H 843.076 2.04487 -0.0229414 0
M  V30 8497 H 841.231 3.20872 2.17071 0
M  V30 8498 H 841.645 5.13326 1.07686 0
M  V30 8499 H 843.119 4.78547 2.75131 0
M  V30 8500 H 843.596 3.12301 3.08812 0
M  V30 8501 H 844.202 3.93075 1.62395 0
M  V30 8502 N 842.517 -0.29412 1.54831 0
M  V30 8503 C 843.763 -1.02999 1.74697 0
M  V30 8504 C 844.096 -1.86687 0.534949 0
M  V30 8505 O 843.371 -1.88789 -0.467863 0
M  V30 8506 C 843.654 -1.93024 3.03996 0
M  V30 8507 C 843.507 -1.1247 4.35512 0
M  V30 8508 C 844.826 -2.92085 3.29203 0
M  V30 8509 H 841.945 -0.373039 0.635618 0
M  V30 8510 H 844.587 -0.304065 1.87551 0
M  V30 8511 H 842.737 -2.5492 2.93169 0
M  V30 8512 H 844.409 -0.528067 4.58268 0
M  V30 8513 H 842.652 -0.427574 4.31688 0
M  V30 8514 H 843.323 -1.78728 5.22265 0
M  V30 8515 H 845.799 -2.40319 3.39685 0
M  V30 8516 H 844.675 -3.52234 4.20978 0
M  V30 8517 H 844.936 -3.66107 2.47827 0
M  V30 8518 N 843.995 -1.47404 -0.557645 0
M  V30 8519 C 845.241 -1.54235 -1.31679 0
M  V30 8520 C 845.574 -0.203782 -1.93128 0
M  V30 8521 O 844.849 0.787536 -1.77843 0
M  V30 8522 C 845.132 -2.66003 -2.42723 0
M  V30 8523 C 844.985 -4.09475 -1.86145 0
M  V30 8524 C 846.304 -2.73685 -3.44652 0
M  V30 8525 H 843.423 -0.561466 -0.477415 0
M  V30 8526 H 846.065 -1.79459 -0.624067 0
M  V30 8527 H 844.215 -2.44627 -3.01811 0
M  V30 8528 H 845.887 -4.42213 -1.31321 0
M  V30 8529 H 844.13 -4.17774 -1.16823 0
M  V30 8530 H 844.801 -4.83451 -2.66418 0
M  V30 8531 H 847.277 -2.92968 -2.95481 0
M  V30 8532 H 846.153 -3.53665 -4.19777 0
M  V30 8533 H 846.414 -1.80726 -4.03473 0
M  V30 8534 N 845.473 0.80434 -1.35529 0
M  V30 8535 C 846.72 1.56154 -1.28927 0
M  V30 8536 C 847.048 1.94026 0.135682 0
M  V30 8537 O 846.303 1.61759 1.10148 0
M  V30 8538 C 846.602 2.85988 -2.14349 0
M  V30 8539 C 846.268 2.67323 -3.6311 0
M  V30 8540 C 844.93 2.61941 -4.03659 0
M  V30 8541 C 847.282 2.49699 -4.57493 0
M  V30 8542 C 844.61 2.3688 -5.36754 0
M  V30 8543 C 846.962 2.26168 -5.90788 0
M  V30 8544 C 845.626 2.19209 -6.30479 0
M  V30 8545 H 844.896 0.571407 -0.471779 0
M  V30 8546 H 847.543 0.929193 -1.67446 0
M  V30 8547 H 845.848 3.53612 -1.68718 0
M  V30 8548 H 847.545 3.43697 -2.06576 0
M  V30 8549 H 844.135 2.72361 -3.30934 0
M  V30 8550 H 848.319 2.52869 -4.27049 0
M  V30 8551 H 843.575 2.29964 -5.66504 0
M  V30 8552 H 847.749 2.11522 -6.63499 0
M  V30 8553 H 845.376 1.99553 -7.33541 0
M  V30 8554 N 846.951 1.19563 1.02676 0
M  V30 8555 C 848.199 0.997593 1.75763 0
M  V30 8556 C 848.52 -0.47253 1.89188 0
M  V30 8557 O 847.79 -1.34214 1.42701 0
M  V30 8558 H 846.37 0.366128 0.651122 0
M  V30 8559 H 849.032 1.50495 1.23844 0
M  V30 8560 H 848.128 1.44741 2.76508 0
M  V30 8561 N 848.429 -1.21819 0.999893 0
M  V30 8562 C 849.845 -1.42847 0.711824 0
M  V30 8563 C 850.045 -1.88391 -0.714928 0
M  V30 8564 O 849.101 -2.0422 -1.48494 0
M  V30 8565 C 850.414 -2.46417 1.72334 0
M  V30 8566 C 851.962 -2.60207 1.73958 0
M  V30 8567 C 852.437 -3.67005 2.73992 0
M  V30 8568 N 853.928 -3.7447 2.72628 0
M  V30 8569 C 854.663 -4.56718 3.46693 0
M  V30 8570 N 854.159 -5.42904 4.3038 0
M  V30 8571 N 855.952 -4.51094 3.35366 0
M  V30 8572 H 848.103 -0.905656 1.92124 0
M  V30 8573 H 850.366 -0.459893 0.828977 0
M  V30 8574 H 850.072 -2.19914 2.74465 0
M  V30 8575 H 849.946 -3.45137 1.52186 0
M  V30 8576 H 852.333 -2.8605 0.725217 0
M  V30 8577 H 852.414 -1.61739 1.98177 0
M  V30 8578 H 852.058 -3.41908 3.75582 0
M  V30 8579 H 851.988 -4.65058 2.4704 0
M  V30 8580 H 854.479 -3.12895 2.11909 0
M  V30 8581 H 854.792 -6.02704 4.83702 0
M  V30 8582 H 853.137 -5.42463 4.34464 0
M  V30 8583 H 856.328 -3.82791 2.69423 0
M  V30 8584 H 856.501 -5.1496 3.93344 0
M  V30 8585 N 849.908 -0.773975 -1.37286 0
M  V30 8586 C 851.157 -0.335977 -1.98882 0
M  V30 8587 C 851.47 1.09416 -1.62134 0
M  V30 8588 O 852.676 1.63366 -2.1685 0
M  V30 8589 C 851.132 -0.549756 -3.55676 0
M  V30 8590 C 850.74 -1.9903 -4.01361 0
M  V30 8591 C 852.484 -0.175493 -4.24137 0
M  V30 8592 C 850.391 -2.15156 -5.50874 0
M  V30 8593 H 849.321 -0.121877 -0.744085 0
M  V30 8594 H 851.972 -0.953419 -1.56787 0
M  V30 8595 H 850.354 0.137175 -3.95762 0
M  V30 8596 H 851.528 -2.71237 -3.72515 0
M  V30 8597 H 849.843 -2.32137 -3.4569 0
M  V30 8598 H 852.44 -0.274463 -5.33995 0
M  V30 8599 H 852.783 0.874524 -4.07011 0
M  V30 8600 H 853.316 -0.815058 -3.89361 0
M  V30 8601 H 850.055 -3.18485 -5.72929 0
M  V30 8602 H 849.575 -1.47435 -5.81397 0
M  V30 8603 H 851.254 -1.95124 -6.16876 0
M  V30 8604 N 851.386 1.48609 -0.524698 0
M  V30 8605 C 852.349 2.28041 0.230166 0
M  V30 8606 C 853.349 1.35065 0.872584 0
M  V30 8607 O 854.539 1.58007 0.73345 0
M  V30 8608 C 851.671 3.13778 1.33252 0
M  V30 8609 H 852.864 2.96239 -0.467161 0
M  V30 8610 H 850.417 1.53763 -0.280452 0
M  V30 8611 H 851.152 2.502 2.06327 0
M  V30 8612 H 850.937 3.82165 0.877058 0
M  V30 8613 H 852.427 3.7371 1.86362 0
M  V30 8614 N 852.864 0.259585 1.55447 0
M  V30 8615 C 854.112 -0.360893 1.98852 0
M  V30 8616 C 854.433 -1.57535 1.14924 0
M  V30 8617 O 853.703 -1.94485 0.235025 0
M  V30 8618 H 852.283 -0.136332 0.734454 0
M  V30 8619 H 854.945 0.361319 1.91522 0
M  V30 8620 H 854.041 -0.661388 3.05012 0
M  V30 8621 N 854.342 -1.57594 -0.0133615 0
M  V30 8622 C 855.619 -1.81173 -0.737273 0
M  V30 8623 C 855.999 -0.861395 -1.92726 0
M  V30 8624 O 855.347 0.0929324 -2.28311 0
M  V30 8625 C 855.557 -3.29314 -1.15557 0
M  V30 8626 C 856.905 -3.94707 -1.56498 0
M  V30 8627 O 857.929 -3.33557 -1.24973 0
M  V30 8628 O 856.788 -5.02402 -2.15069 0
M  V30 8629 H 853.882 -0.745575 -0.357837 0
M  V30 8630 H 856.428 -1.69696 0.0110674 0
M  V30 8631 H 855.2 -3.90096 -0.30677 0
M  V30 8632 H 854.823 -3.45739 -1.96343 0
M  V30 8633 N 855.82 0.285905 -1.54985 0
M  V30 8634 C 856.768 1.37302 -1.87752 0
M  V30 8635 C 857.762 1.51763 -0.752616 0
M  V30 8636 O 858.968 1.53701 -0.936805 0
M  V30 8637 H 855.343 0.458935 -0.59572 0
M  V30 8638 H 857.314 1.0691 -2.78591 0
M  V30 8639 C 856.063 2.72885 -2.15474 0
M  V30 8640 H 855.386 2.62545 -3.01513 0
M  V30 8641 H 856.826 3.47925 -2.42331 0
M  V30 8642 C 855.285 3.22989 -0.958124 0
M  V30 8643 O 855.815 4.01268 -0.186219 0
M  V30 8644 N 854.021 2.80503 -0.759354 0
M  V30 8645 H 853.568 2.16961 -1.38874 0
M  V30 8646 H 853.526 3.14375 0.0396937 0
M  V30 8647 N 857.298 1.47698 0.54982 0
M  V30 8648 C 858.261 1.60282 1.63837 0
M  V30 8649 C 859.261 0.477394 1.5355 0
M  V30 8650 O 860.451 0.742665 1.57576 0
M  V30 8651 C 857.583 1.55431 3.03404 0
M  V30 8652 H 858.776 2.57325 1.54026 0
M  V30 8653 H 856.329 1.35999 0.770329 0
M  V30 8654 H 857.064 0.597912 3.1874 0
M  V30 8655 H 856.849 2.37116 3.12279 0
M  V30 8656 H 858.339 1.6739 3.82584 0
M  V30 8657 N 858.776 -0.797141 1.35954 0
M  V30 8658 C 859.739 -1.89104 1.29508 0
M  V30 8659 C 860.739 -1.59495 0.204444 0
M  V30 8660 O 861.929 -1.68051 0.458746 0
M  V30 8661 C 859.061 -3.25726 1.00576 0
M  V30 8662 H 860.254 -1.96237 2.26785 0
M  V30 8663 H 857.807 -0.994075 1.20614 0
M  V30 8664 H 858.542 -3.24279 0.0372519 0
M  V30 8665 H 858.327 -3.48604 1.79492 0
M  V30 8666 H 859.817 -4.0578 0.986508 0
M  V30 8667 N 860.254 -1.20106 -1.0204 0
M  V30 8668 C 861.201 -0.946468 -2.10501 0
M  V30 8669 C 862.171 0.121902 -1.65652 0
M  V30 8670 O 863.356 -0.0220244 -1.90787 0
M  V30 8671 C 860.496 -0.500499 -3.41451 0
M  V30 8672 C 859.609 -1.63659 -3.998 0
M  V30 8673 C 858.744 -1.14131 -5.18794 0
M  V30 8674 C 857.783 -2.25074 -5.69217 0
M  V30 8675 N 856.92 -1.76791 -6.79477 0
M  V30 8676 H 861.76 -1.87506 -2.31615 0
M  V30 8677 H 859.297 -0.934693 -1.13587 0
M  V30 8678 H 861.255 -0.223276 -4.16602 0
M  V30 8679 H 859.885 0.391099 -3.20422 0
M  V30 8680 H 858.937 -2.02882 -3.21781 0
M  V30 8681 H 860.249 -2.47213 -4.33229 0
M  V30 8682 H 859.403 -0.819826 -6.01135 0
M  V30 8683 H 858.142 -0.275615 -4.86921 0
M  V30 8684 H 857.147 -2.58043 -4.85483 0
M  V30 8685 H 858.372 -3.12114 -6.03127 0
M  V30 8686 H 856.318 -0.925428 -6.4944 0
M  V30 8687 H 856.235 -2.53928 -7.12079 0
M  V30 8688 H 857.503 -1.47631 -7.65392 0
M  V30 8689 N 861.732 1.21287 -1.00634 0
M  V30 8690 C 862.682 2.21541 -0.53886 0
M  V30 8691 C 863.666 1.55842 0.400256 0
M  V30 8692 O 864.858 1.75566 0.224889 0
M  V30 8693 C 861.987 3.43047 0.131796 0
M  V30 8694 C 861.073 4.1593 -0.828419 0
M  V30 8695 N 861.464 4.65359 -1.98178 0
M  V30 8696 C 859.762 4.41281 -0.647083 0
M  V30 8697 C 860.463 5.21079 -2.58557 0
M  V30 8698 N 859.439 5.10531 -1.86705 0
M  V30 8699 H 863.241 2.57413 -1.41831 0
M  V30 8700 H 860.755 1.37109 -0.870338 0
M  V30 8701 H 862.752 4.14079 0.484178 0
M  V30 8702 H 861.412 3.08683 1.00721 0
M  V30 8703 H 862.423 4.60896 -2.3621 0
M  V30 8704 H 859.1 4.17107 0.181139 0
M  V30 8705 H 860.49 5.6977 -3.56107 0
M  V30 8706 N 863.21 0.781244 1.36873 0
M  V30 8707 C 864.173 0.180094 2.28491 0
M  V30 8708 C 865.173 -0.617798 1.48458 0
M  V30 8709 O 866.363 -0.439991 1.68552 0
M  V30 8710 C 863.495 -0.751741 3.32508 0
M  V30 8711 H 864.688 0.987837 2.83164 0
M  V30 8712 H 862.241 0.550102 1.463 0
M  V30 8713 H 862.976 -1.58413 2.82977 0
M  V30 8714 H 862.761 -0.181649 3.91679 0
M  V30 8715 H 864.251 -1.16748 4.00949 0
M  V30 8716 N 864.689 -1.48329 0.532571 0
M  V30 8717 C 865.619 -2.32485 -0.217511 0
M  V30 8718 C 866.6 -1.42255 -0.932598 0
M  V30 8719 O 867.785 -1.7114 -0.917873 0
M  V30 8720 C 864.915 -3.23509 -1.26329 0
M  V30 8721 C 863.869 -4.22784 -0.666191 0
M  V30 8722 C 863.195 -5.0296 -1.81482 0
M  V30 8723 C 864.495 -5.21031 0.363813 0
M  V30 8724 H 866.189 -2.95445 0.485014 0
M  V30 8725 H 863.735 -1.42075 0.234694 0
M  V30 8726 H 865.688 -3.81211 -1.79601 0
M  V30 8727 H 864.412 -2.58554 -1.99543 0
M  V30 8728 H 863.071 -3.66272 -0.15498 0
M  V30 8729 H 862.719 -4.34427 -2.5354 0
M  V30 8730 H 862.419 -5.70154 -1.4212 0
M  V30 8731 H 863.943 -5.63514 -2.35126 0
M  V30 8732 H 865.357 -5.73241 -0.0819079 0
M  V30 8733 H 863.754 -5.96292 0.674956 0
M  V30 8734 H 864.824 -4.6801 1.26865 0
M  V30 8735 N 866.167 -0.267825 -1.55308 0
M  V30 8736 C 867.444 0.402449 -1.91415 0
M  V30 8737 C 867.824 1.7428 -1.1912 0
M  V30 8738 O 867.172 2.2631 -0.315609 0
M  V30 8739 C 867.382 0.549926 -3.4464 0
M  V30 8740 C 868.73 0.836188 -4.16285 0
M  V30 8741 O 869.754 0.635009 -3.50494 0
M  V30 8742 O 868.613 1.22051 -5.32697 0
M  V30 8743 H 865.707 0.219177 -0.797427 0
M  V30 8744 H 868.253 -0.313439 -1.6678 0
M  V30 8745 H 867.025 -0.393641 -3.89315 0
M  V30 8746 H 866.648 1.31556 -3.75205 0
M  V30 8747 N 867.645 1.57599 0.00500368 0
M  V30 8748 C 868.592 2.08106 0.998025 0
M  V30 8749 C 869.562 0.975374 1.34446 0
M  V30 8750 O 870.747 1.24749 1.44369 0
M  V30 8751 C 867.887 2.58496 2.28635 0
M  V30 8752 C 867 3.82947 1.99939 0
M  V30 8753 C 866.135 4.21857 3.22816 0
M  V30 8754 C 865.174 5.39159 2.89783 0
M  V30 8755 N 864.311 5.73386 4.05183 0
M  V30 8756 H 869.151 2.92684 0.560385 0
M  V30 8757 H 866.688 1.44692 0.265053 0
M  V30 8758 H 868.646 2.85787 3.03943 0
M  V30 8759 H 867.276 1.768 2.70077 0
M  V30 8760 H 866.328 3.62594 1.1502 0
M  V30 8761 H 867.64 4.68358 1.71588 0
M  V30 8762 H 866.794 4.50404 4.06474 0
M  V30 8763 H 865.533 3.35145 3.54301 0
M  V30 8764 H 864.538 5.1034 2.04532 0
M  V30 8765 H 865.763 6.27543 2.59551 0
M  V30 8766 H 863.709 4.89632 4.36574 0
M  V30 8767 H 863.626 6.53359 3.80339 0
M  V30 8768 H 864.894 6.06522 4.89644 0
M  V30 8769 O 869.162 -0.147371 1.60826 0
M  V30 8770 H 869.853 -0.78165 1.77228 0
M  V30 END ATOM
M  V30 BEGIN BOND
M  V30 END BOND
M  V30 END CTAB
M  END
$$$$
