drugbank_target|Q9ZAG3 Limonene-1,2-epoxide hydrolase (DB02641; DB03814; DB04165)
 OpenBabel12092120013D

  0  0  0     0  0            999 V3000
M  V30 BEGIN CTAB
M  V30 COUNTS 2299 2323 0 0 0
M  V30 BEGIN ATOM
M  V30 1 H -0.908 1.98254 -0.117106 0
M  V30 2 N 0 1.576 0 0
M  V30 3 C 0.933 2.03868 1.02534 0
M  V30 4 C 1.911 0.928543 1.3348 0
M  V30 5 O 3.095 1.19667 1.45644 0
M  V30 6 C 0.222 2.43627 2.35294 0
M  V30 7 C -0.732 3.65373 2.2001 0
M  V30 8 S 0.101 5.13292 1.52614 0
M  V30 9 C 1.257 5.56322 2.86805 0
M  V30 10 H 1.49 2.90518 0.631377 0
M  V30 11 H -0.977 1.52953 0.210867 0
M  V30 12 H 0.981 2.67203 3.11629 0
M  V30 13 H -0.358 1.57376 2.7183 0
M  V30 14 H -1.165 3.90944 3.18086 0
M  V30 15 H -1.563 3.418 1.51819 0
M  V30 16 H 0.729 5.58782 3.83104 0
M  V30 17 H 1.672 6.56266 2.65933 0
M  V30 18 H 2.08 4.83886 2.90714 0
M  V30 19 N 1.4781 -0.272755 1.55222 0
M  V30 20 C 2.7061 -1.02255 1.79865 0
M  V30 21 C 3.1211 -1.79924 0.572088 0
M  V30 22 O 2.4781 -1.76638 -0.458842 0
M  V30 23 C 2.5291 -1.98094 3.02392 0
M  V30 24 O 2.2501 -1.23572 4.20311 0
M  V30 25 C 3.7511 -2.84884 3.39641 0
M  V30 26 H 0.9711 -0.302057 0.599168 0
M  V30 27 H 3.5151 -0.303465 2.02236 0
M  V30 28 H 1.6701 -2.65465 2.82147 0
M  V30 29 H 2.0841 -1.88172 4.89583 0
M  V30 30 H 3.5581 -3.47927 4.28545 0
M  V30 31 H 4.0351 -3.54665 2.59055 0
M  V30 32 H 4.6411 -2.23003 3.62146 0
M  V30 33 N 2.9562 -1.48159 -0.537278 0
M  V30 34 C 4.1812 -1.59707 -1.32319 0
M  V30 35 C 4.6062 -0.254859 -1.86365 0
M  V30 36 O 3.9642 0.772378 -1.64024 0
M  V30 37 C 4.0122 -2.6412 -2.45505 0
M  V30 38 O 3.1162 -2.20774 -3.48328 0
M  V30 39 H 2.4572 -0.535791 -0.392204 0
M  V30 40 H 4.9872 -1.94092 -0.647268 0
M  V30 41 H 4.9972 -2.85166 -2.91795 0
M  V30 42 H 3.6722 -3.61567 -2.05528 0
M  V30 43 H 2.2492 -2.09911 -3.08207 0
M  V30 44 N 4.4343 0.785586 -1.36625 0
M  V30 45 C 5.3813 1.89838 -1.31264 0
M  V30 46 C 6.3513 1.65115 -0.180633 0
M  V30 47 O 7.5363 1.87222 -0.36777 0
M  V30 48 C 4.6763 3.26706 -1.11163 0
M  V30 49 C 3.7893 3.63476 -2.33472 0
M  V30 50 C 2.9243 4.89481 -2.06353 0
M  V30 51 C 1.9633 5.18941 -3.24602 0
M  V30 52 N 1.1003 6.36131 -2.97123 0
M  V30 53 H 5.9403 1.93756 -2.26413 0
M  V30 54 H 3.4773 0.947454 -1.12524 0
M  V30 55 H 5.4353 4.05639 -0.975337 0
M  V30 56 H 4.0653 3.222 -0.196674 0
M  V30 57 H 3.1173 2.79636 -2.57891 0
M  V30 58 H 4.4293 3.81193 -3.21704 0
M  V30 59 H 3.5833 5.76288 -1.89675 0
M  V30 60 H 2.3223 4.73841 -1.15437 0
M  V30 61 H 1.3273 4.30615 -3.41834 0
M  V30 62 H 2.5523 5.36498 -4.16349 0
M  V30 63 H 0.4983 6.21875 -2.08823 0
M  V30 64 H 0.4153 6.54198 -3.78894 0
M  V30 65 H 1.6833 7.2591 -2.84033 0
M  V30 66 N 5.9124 1.20967 1.01018 0
M  V30 67 C 7.1614 1.01796 1.74128 0
M  V30 68 C 7.4744 -0.449691 1.90361 0
M  V30 69 O 8.6804 -0.76068 2.60626 0
M  V30 70 C 7.1364 1.7727 3.13215 0
M  V30 71 C 6.7444 3.28171 3.04972 0
M  V30 72 C 8.4884 1.66489 3.90489 0
M  V30 73 C 6.3954 3.96156 4.39107 0
M  V30 74 H 5.3254 0.377276 0.652824 0
M  V30 75 H 7.9764 1.44651 1.12909 0
M  V30 76 H 6.3584 1.27205 3.75013 0
M  V30 77 H 7.5324 3.85499 2.52443 0
M  V30 78 H 5.8474 3.39437 2.41188 0
M  V30 79 H 8.4444 2.14617 4.89738 0
M  V30 80 H 8.7874 0.6222 4.11624 0
M  V30 81 H 9.3204 2.14003 3.35332 0
M  V30 82 H 6.0594 5.00604 4.23174 0
M  V30 83 H 5.5794 3.43617 4.91617 0
M  V30 84 H 7.2584 4.00774 5.07926 0
M  V30 85 N 7.3905 -1.2043 1.01659 0
M  V30 86 C 8.3005 -2.2689 0.596484 0
M  V30 87 C 9.3165 -1.70107 -0.36599 0
M  V30 88 O 10.4925 -2.00117 -0.226942 0
M  V30 89 C 7.5575 -3.4665 -0.0586659 0
M  V30 90 C 6.6185 -4.18662 0.949751 0
M  V30 91 C 5.8515 -5.32705 0.32577 0
M  V30 92 O 6.0745 -5.63656 -0.874509 0
M  V30 93 O 5.0085 -5.92803 1.04249 0
M  V30 94 H 8.8345 -2.65041 1.4828 0
M  V30 95 H 6.4195 -1.27048 0.786082 0
M  V30 96 H 8.3015 -4.19256 -0.424564 0
M  V30 97 H 6.9765 -3.10375 -0.91918 0
M  V30 98 H 5.8835 -3.48229 1.36702 0
M  V30 99 H 7.2165 -4.58878 1.78023 0
M  V30 100 N 8.8686 -0.792821 -1.36206 0
M  V30 101 C 9.8006 -0.151469 -2.28699 0
M  V30 102 C 10.8136 0.641262 -1.49638 0
M  V30 103 O 12.0026 0.475885 -1.72039 0
M  V30 104 C 9.1026 0.808424 -3.29117 0
M  V30 105 C 8.2756 0.0650202 -4.37352 0
M  V30 106 C 7.3346 0.941358 -5.17711 0
M  V30 107 O 6.3606 0.397352 -5.67811 0
M  V30 108 N 7.5626 2.2652 -5.3448 0
M  V30 109 H 10.3276 -0.945982 -2.84379 0
M  V30 110 H 7.8886 -0.647032 -1.48409 0
M  V30 111 H 9.8806 1.3986 -3.79765 0
M  V30 112 H 8.4506 1.5038 -2.74052 0
M  V30 113 H 7.6706 -0.706255 -3.87822 0
M  V30 114 H 8.9586 -0.447847 -5.06825 0
M  V30 115 H 8.3566 2.73128 -4.95396 0
M  V30 116 H 6.9136 2.80493 -5.88359 0
M  V30 117 N 10.3467 1.47872 -0.545128 0
M  V30 118 C 11.7577 1.86384 -0.108581 0
M  V30 119 C 12.1087 1.45309 1.31832 0
M  V30 120 O 11.2337 0.850641 1.9898 0
M  V30 121 C 11.8287 3.38265 -0.190274 0
M  V30 122 C 10.3877 3.75914 0.191164 0
M  V30 123 C 9.5347 2.71926 -0.543273 0
M  V30 124 H 12.4857 1.39561 -0.755537 0
M  V30 125 H 12.5067 3.75831 0.594217 0
M  V30 126 H 12.0187 3.6813 -1.2289 0
M  V30 127 H 10.1197 3.51665 1.23136 0
M  V30 128 H 10.2327 4.78836 -0.158987 0
M  V30 129 H 8.5967 2.54697 0.0122495 0
M  V30 130 H 9.3797 3.04634 -1.58282 0
M  V30 131 N 11.8248 0.280983 1.55075 0
M  V30 132 C 13.2408 -0.0729964 1.59433 0
M  V30 133 C 13.4408 -1.5411 1.29817 0
M  V30 134 O 12.4968 -2.29086 1.06187 0
M  V30 135 C 13.8098 0.306921 2.9913 0
M  V30 136 C 15.3578 0.254023 3.11968 0
M  V30 137 C 15.8328 0.608467 4.5394 0
M  V30 138 N 17.3238 0.560241 4.59799 0
M  V30 139 C 18.0588 0.80722 5.6769 0
M  V30 140 N 17.5548 1.11912 6.83701 0
M  V30 141 N 19.3478 0.735623 5.57266 0
M  V30 142 H 11.4988 1.238 1.7259 0
M  V30 143 H 13.7618 0.500547 0.805082 0
M  V30 144 H 13.4678 1.32816 3.25657 0
M  V30 145 H 13.3418 -0.349363 3.75579 0
M  V30 146 H 15.7288 -0.75794 2.852 0
M  V30 147 H 15.8098 0.944649 2.37718 0
M  V30 148 H 15.4538 1.61814 4.81434 0
M  V30 149 H 15.3838 -0.104013 5.26497 0
M  V30 150 H 17.8748 0.329288 3.76463 0
M  V30 151 H 18.1878 1.29409 7.61888 0
M  V30 152 H 16.5328 1.15695 6.85303 0
M  V30 153 H 19.7238 0.491752 4.6551 0
M  V30 154 H 19.8968 0.931482 6.4127 0
M  V30 155 N 13.3029 -1.57598 0.00835791 0
M  V30 156 C 14.5489 -1.92046 -0.670055 0
M  V30 157 C 14.9039 -0.88351 -1.70915 0
M  V30 158 O 14.1969 0.103223 -1.91322 0
M  V30 159 C 14.3909 -3.3101 -1.34787 0
M  V30 160 C 14.2199 -4.48126 -0.375945 0
M  V30 161 C 12.9899 -5.05297 0.0166914 0
M  V30 162 C 15.1879 -5.1303 0.361272 0
M  V30 163 N 13.1699 -6.05931 0.985952 0
M  V30 164 C 14.5409 -6.08571 1.18495 0
M  V30 165 C 16.5959 -4.9609 0.42421 0
M  V30 166 C 15.2989 -6.88996 2.06584 0
M  V30 167 C 17.3249 -5.77107 1.29236 0
M  V30 168 C 16.6869 -6.72248 2.10386 0
M  V30 169 H 12.7859 -0.75096 -0.218136 0
M  V30 170 H 15.3699 -1.94572 0.0706669 0
M  V30 171 H 13.5409 -3.29342 -2.05884 0
M  V30 172 H 15.2729 -3.52864 -1.98164 0
M  V30 173 H 12.0279 -4.72279 -0.353435 0
M  V30 174 H 12.4519 -6.60932 1.4662 0
M  V30 175 H 17.0939 -4.22378 -0.188915 0
M  V30 176 H 14.8119 -7.62028 2.6896 0
M  V30 177 H 18.3979 -5.66038 1.34508 0
M  V30 178 H 17.2779 -7.33846 2.76476 0
M  V30 179 N 14.781 0.264519 -1.55364 0
M  V30 180 C 15.744 1.31046 -1.88042 0
M  V30 181 C 16.744 1.41943 -0.755569 0
M  V30 182 O 17.934 1.40947 -1.02369 0
M  V30 183 C 15.066 2.69067 -2.09323 0
M  V30 184 H 16.259 1.03297 -2.81549 0
M  V30 185 H 13.812 0.502989 -1.47986 0
M  V30 186 H 14.547 3.01982 -1.18226 0
M  V30 187 H 14.332 2.62542 -2.91229 0
M  V30 188 H 15.822 3.44623 -2.35848 0
M  V30 189 N 16.2591 1.48442 0.529413 0
M  V30 190 C 17.4841 1.60406 1.31471 0
M  V30 191 C 17.9091 0.264738 1.86228 0
M  V30 192 O 17.2671 -0.763668 1.64432 0
M  V30 193 C 17.3151 2.65419 2.44101 0
M  V30 194 O 16.4191 2.22618 3.47153 0
M  V30 195 H 15.7601 0.537863 0.389357 0
M  V30 196 H 18.2901 1.94432 0.636965 0
M  V30 197 H 18.3001 2.86709 2.90279 0
M  V30 198 H 16.9751 3.62652 2.03608 0
M  V30 199 H 15.5521 2.11543 3.0709 0
M  V30 200 N 17.7372 -0.778329 1.37039 0
M  V30 201 C 18.6842 -1.89139 1.32269 0
M  V30 202 C 19.6542 -1.65017 0.189387 0
M  V30 203 O 20.8392 -1.87024 0.377693 0
M  V30 204 C 17.9792 -3.26112 1.12894 0
M  V30 205 C 17.0922 -3.62233 2.35396 0
M  V30 206 C 16.2272 -4.8838 2.08946 0
M  V30 207 C 15.2662 -5.17212 3.2735 0
M  V30 208 N 14.4032 -6.34546 3.00492 0
M  V30 209 H 19.2432 -1.92552 2.27437 0
M  V30 210 H 16.7802 -0.941473 1.13025 0
M  V30 211 H 18.7382 -4.05116 0.996835 0
M  V30 212 H 17.3682 -3.22091 0.213758 0
M  V30 213 H 16.4202 -2.78265 2.5937 0
M  V30 214 H 17.7322 -3.79481 3.23721 0
M  V30 215 H 16.8862 -5.75274 1.92729 0
M  V30 216 H 15.6252 -4.73222 1.17949 0
M  V30 217 H 14.6302 -4.28796 3.44113 0
M  V30 218 H 15.8552 -5.34283 4.19188 0
M  V30 219 H 13.8012 -6.20759 2.12118 0
M  V30 220 H 13.7182 -6.52179 3.82358 0
M  V30 221 H 14.9862 -7.24394 2.87879 0
M  V30 222 N 19.2153 -1.21501 -1.00376 0
M  V30 223 C 20.4923 -0.941745 -1.71437 0
M  V30 224 C 20.8723 0.546114 -2.03914 0
M  V30 225 O 20.2203 1.51128 -1.71384 0
M  V30 226 C 20.4303 -1.82812 -2.97289 0
M  V30 227 C 21.7783 -2.07771 -3.70292 0
M  V30 228 O 22.8023 -1.80171 -3.07273 0
M  V30 229 O 21.6613 -2.54456 -4.83647 0
M  V30 230 H 18.7553 -0.353243 -0.747762 0
M  V30 231 H 21.3013 -1.32436 -1.06108 0
M  V30 232 H 20.0733 -2.83501 -2.69709 0
M  V30 233 H 19.6963 -1.4464 -3.70358 0
M  V30 234 N 20.6934 1.19889 -1.02296 0
M  V30 235 C 21.9184 1.9393 -0.735237 0
M  V30 236 C 22.3434 1.74639 0.698782 0
M  V30 237 O 21.7014 1.04481 1.48167 0
M  V30 238 C 21.7494 3.43916 -1.08417 0
M  V30 239 O 20.8534 4.11917 -0.199446 0
M  V30 240 H 20.1944 0.605645 -0.272196 0
M  V30 241 H 22.7244 1.52137 -1.36804 0
M  V30 242 H 22.7344 3.9456 -1.03856 0
M  V30 243 H 21.4094 3.5728 -2.12894 0
M  V30 244 H 19.9864 3.71666 -0.303136 0
M  V30 245 N 22.1715 0.800033 1.35784 0
M  V30 246 C 23.1345 0.211565 2.28221 0
M  V30 247 C 24.1345 -0.59728 1.49296 0
M  V30 248 O 25.3245 -0.416721 1.69142 0
M  V30 249 C 22.4565 -0.705846 3.33513 0
M  V30 250 H 23.6495 1.02677 2.81776 0
M  V30 251 H 21.2025 0.570211 1.45528 0
M  V30 252 H 21.9375 -1.54498 2.85133 0
M  V30 253 H 21.7225 -0.127655 3.91892 0
M  V30 254 H 23.2125 -1.11211 4.02519 0
M  V30 255 N 23.6496 -1.47581 0.552962 0
M  V30 256 C 24.6126 -2.28439 -0.186605 0
M  V30 257 C 25.6126 -1.36706 -0.84665 0
M  V30 258 O 26.8026 -1.59378 -0.703164 0
M  V30 259 C 23.9346 -3.16264 -1.2724 0
M  V30 260 H 25.1276 -2.95294 0.523609 0
M  V30 261 H 22.6806 -1.532 0.309745 0
M  V30 262 H 23.4156 -2.54091 -2.01514 0
M  V30 263 H 23.2006 -3.83769 -0.803968 0
M  V30 264 H 24.6906 -3.77198 -1.79196 0
M  V30 265 N 25.1277 -0.289203 -1.54924 0
M  V30 266 C 26.3757 0.322879 -1.99504 0
M  V30 267 C 26.6967 1.55313 -1.1791 0
M  V30 268 O 25.9667 1.94001 -0.272097 0
M  V30 269 H 24.5467 0.122291 -0.736922 0
M  V30 270 H 27.2087 -0.397802 -1.90797 0
M  V30 271 H 26.3047 0.603061 -3.06218 0
M  V30 272 N 26.6058 1.57591 -0.0167156 0
M  V30 273 C 27.5688 2.08393 0.954204 0
M  V30 274 C 28.5688 0.996531 1.26198 0
M  V30 275 O 29.7588 1.25858 1.20438 0
M  V30 276 C 26.8908 2.5394 2.27436 0
M  V30 277 H 28.0838 2.95455 0.514451 0
M  V30 278 H 25.6368 1.54582 0.231089 0
M  V30 279 H 26.3718 1.70171 2.76066 0
M  V30 280 H 26.1568 3.33371 2.06412 0
M  V30 281 H 27.6468 2.93512 2.97053 0
M  V30 282 N 28.0839 -0.256276 1.55502 0
M  V30 283 C 29.0469 -1.30047 1.88734 0
M  V30 284 C 30.0469 -1.4154 0.763086 0
M  V30 285 O 31.2369 -1.40403 1.03115 0
M  V30 286 C 28.3689 -2.67953 2.10747 0
M  V30 287 H 29.5619 -1.01802 2.82093 0
M  V30 288 H 27.1149 -0.495134 1.4825 0
M  V30 289 H 27.8499 -3.01351 1.19825 0
M  V30 290 H 27.6349 -2.60993 2.92617 0
M  V30 291 H 29.1249 -3.43368 2.37673 0
M  V30 292 N 29.562 -1.4872 -0.521534 0
M  V30 293 C 30.787 -1.61101 -1.30618 0
M  V30 294 C 31.212 -0.274611 -1.86085 0
M  V30 295 O 30.57 0.754937 -1.64834 0
M  V30 296 C 30.618 -2.66709 -2.4269 0
M  V30 297 O 29.722 -2.24456 -3.45967 0
M  V30 298 H 29.063 -0.539921 -0.386499 0
M  V30 299 H 31.593 -1.94767 -0.626645 0
M  V30 300 H 31.603 -2.88245 -2.88754 0
M  V30 301 H 30.278 -3.63727 -2.01682 0
M  V30 302 H 28.855 -2.13168 -3.05964 0
M  V30 303 N 31.0401 0.771051 -1.3745 0
M  V30 304 C 32.2681 1.56015 -1.35893 0
M  V30 305 C 32.6831 1.88718 0.0555523 0
M  V30 306 O 32.0401 1.51502 1.01752 0
M  V30 307 C 32.0911 2.87001 -2.19801 0
M  V30 308 O 31.8121 2.557 -3.55738 0
M  V30 309 C 33.3131 3.81228 -2.26231 0
M  V30 310 H 30.5331 0.483317 -0.465453 0
M  V30 311 H 33.0771 0.955611 -1.80799 0
M  V30 312 H 31.2321 3.43877 -1.78402 0
M  V30 313 H 31.6461 3.39584 -3.99729 0
M  V30 314 H 33.1201 4.70139 -2.89263 0
M  V30 315 H 33.5971 4.20409 -1.27093 0
M  V30 316 H 34.2031 3.30281 -2.67945 0
M  V30 317 N 32.5182 1.22032 0.997298 0
M  V30 318 C 33.9292 1.0397 1.55071 0
M  V30 319 C 34.2802 -0.398192 1.92117 0
M  V30 320 O 33.4052 -1.28254 1.74298 0
M  V30 321 C 34.0002 1.88109 2.81781 0
M  V30 322 C 32.5592 1.74357 3.33581 0
M  V30 323 C 31.7062 1.84846 2.06706 0
M  V30 324 H 34.6572 1.35941 0.818883 0
M  V30 325 H 34.6782 1.39589 3.53971 0
M  V30 326 H 34.1902 2.92754 2.54787 0
M  V30 327 H 32.2912 0.72427 3.65493 0
M  V30 328 H 32.4042 2.56772 4.04481 0
M  V30 329 H 30.7682 1.28238 2.20062 0
M  V30 330 H 31.5512 2.91014 1.82114 0
M  V30 331 N 33.9963 -1.19345 1.0293 0
M  V30 332 C 35.2733 -1.84811 0.640642 0
M  V30 333 C 35.6533 -1.91855 -0.88062 0
M  V30 334 O 35.0013 -1.43587 -1.7775 0
M  V30 335 C 35.2113 -3.23755 1.30321 0
M  V30 336 C 36.5593 -3.99912 1.42673 0
M  V30 337 O 37.5833 -3.33155 1.26041 0
M  V30 338 O 36.4423 -5.19494 1.6967 0
M  V30 339 H 33.5363 -0.796443 0.222726 0
M  V30 340 H 36.0823 -1.26831 1.12748 0
M  V30 341 H 34.8543 -3.13466 2.34211 0
M  V30 342 H 34.4773 -3.89381 0.804261 0
M  V30 343 N 35.4744 -0.807222 -1.35358 0
M  V30 344 C 36.3844 -0.219594 -2.3357 0
M  V30 345 C 37.4004 0.637734 -1.61892 0
M  V30 346 O 38.5764 0.549336 -1.93763 0
M  V30 347 C 35.6414 0.62158 -3.41083 0
M  V30 348 C 34.7024 -0.256315 -4.28534 0
M  V30 349 C 33.9354 0.544807 -5.30912 0
M  V30 350 O 34.1584 1.77944 -5.41934 0
M  V30 351 O 33.0924 -0.0646478 -6.01865 0
M  V30 352 H 36.9184 -1.03208 -2.85625 0
M  V30 353 H 34.5034 -0.569025 -1.38139 0
M  V30 354 H 36.3854 1.10067 -4.06772 0
M  V30 355 H 35.0604 1.41165 -2.91297 0
M  V30 356 H 33.9674 -0.782559 -3.65823 0
M  V30 357 H 35.3004 -1.01034 -4.81719 0
M  V30 358 N 36.9525 1.47285 -0.560781 0
M  V30 359 C 37.8995 2.30058 0.18491 0
M  V30 360 C 38.8695 1.39281 0.904986 0
M  V30 361 O 40.0545 1.68241 0.899979 0
M  V30 362 C 37.1945 3.23317 1.20666 0
M  V30 363 C 36.3075 4.29186 0.492285 0
M  V30 364 C 35.4425 5.09592 1.49964 0
M  V30 365 C 34.4815 6.07232 0.770439 0
M  V30 366 N 33.6185 6.80584 1.72479 0
M  V30 367 H 38.4585 2.93302 -0.527048 0
M  V30 368 H 35.9955 1.44568 -0.271738 0
M  V30 369 H 37.9535 3.75811 1.81168 0
M  V30 370 H 36.5835 2.61929 1.88661 0
M  V30 371 H 35.6355 3.7972 -0.227333 0
M  V30 372 H 36.9475 4.98738 -0.0787929 0
M  V30 373 H 36.1015 5.66254 2.17809 0
M  V30 374 H 34.8405 4.3995 2.10464 0
M  V30 375 H 33.8455 5.49745 0.0780846 0
M  V30 376 H 35.0705 6.78884 0.171134 0
M  V30 377 H 33.0165 6.1367 2.3183 0
M  V30 378 H 32.9335 7.46319 1.20596 0
M  V30 379 H 34.2015 7.41818 2.39428 0
M  V30 380 N 38.4306 0.297415 1.54768 0
M  V30 381 C 39.6796 -0.313669 1.99246 0
M  V30 382 C 39.9926 -1.55281 1.18942 0
M  V30 383 O 41.1986 -2.23825 1.5367 0
M  V30 384 C 39.6546 -0.609407 3.54703 0
M  V30 385 C 39.2626 0.611192 4.43811 0
M  V30 386 C 41.0066 -1.18188 4.07715 0
M  V30 387 C 38.9136 0.288805 5.90694 0
M  V30 388 H 37.8436 -0.120979 0.744231 0
M  V30 389 H 40.4946 0.40556 1.78962 0
M  V30 390 H 38.8766 -1.38813 3.70873 0
M  V30 391 H 40.0506 1.3875 4.39414 0
M  V30 392 H 38.3656 1.10205 4.01552 0
M  V30 393 H 40.9626 -1.43727 5.15021 0
M  V30 394 H 41.3056 -2.12299 3.58099 0
M  V30 395 H 41.8386 -0.464944 3.95074 0
M  V30 396 H 38.5776 1.19838 6.44453 0
M  V30 397 H 38.0976 -0.450305 5.98107 0
M  V30 398 H 39.7766 -0.110933 6.46905 0
M  V30 399 N 39.9087 -1.5758 0.0250728 0
M  V30 400 C 41.1547 -1.91917 -0.655413 0
M  V30 401 C 41.4877 -0.901433 -1.72011 0
M  V30 402 O 40.7627 0.0764069 -1.9435 0
M  V30 403 C 41.0457 -3.36751 -1.27558 0
M  V30 404 C 40.8987 -4.49258 -0.220719 0
M  V30 405 C 42.2177 -3.81469 -2.19475 0
M  V30 406 H 39.3367 -0.697925 -0.23679 0
M  V30 407 H 41.9787 -1.89825 0.0815036 0
M  V30 408 H 40.1287 -3.38664 -1.90365 0
M  V30 409 H 41.8007 -4.59478 0.409601 0
M  V30 410 H 40.0437 -4.31415 0.454264 0
M  V30 411 H 40.7147 -5.47618 -0.694175 0
M  V30 412 H 43.1907 -3.81266 -1.66659 0
M  V30 413 H 42.0667 -4.83512 -2.59822 0
M  V30 414 H 42.3277 -3.16744 -3.08424 0
M  V30 415 N 41.3868 0.248026 -1.55636 0
M  V30 416 C 42.3168 1.31079 -1.93237 0
M  V30 417 C 43.2978 1.50264 -0.797174 0
M  V30 418 O 44.4828 1.62891 -1.05737 0
M  V30 419 C 41.6128 2.66575 -2.22609 0
M  V30 420 C 40.5668 2.62087 -3.3837 0
M  V30 421 C 39.8928 4.01369 -3.53281 0
M  V30 422 C 41.1928 2.19171 -4.7409 0
M  V30 423 H 42.8868 0.998556 -2.82257 0
M  V30 424 H 40.4328 0.47891 -1.35803 0
M  V30 425 H 42.3858 3.41057 -2.47503 0
M  V30 426 H 41.1098 2.99432 -1.30414 0
M  V30 427 H 39.7688 1.90063 -3.13483 0
M  V30 428 H 39.4168 4.31489 -2.58508 0
M  V30 429 H 39.1168 3.99254 -4.31127 0
M  V30 430 H 40.6408 4.77552 -3.80495 0
M  V30 431 H 42.0548 2.83384 -4.98363 0
M  V30 432 H 40.4518 2.2817 -5.5503 0
M  V30 433 H 41.5218 1.14336 -4.71227 0
M  V30 434 N 42.8649 1.48995 0.513639 0
M  V30 435 C 43.7749 1.67443 1.64317 0
M  V30 436 C 44.7909 0.556947 1.64846 0
M  V30 437 O 45.9669 0.830082 1.83498 0
M  V30 438 C 43.0319 1.72515 3.00732 0
M  V30 439 C 42.0929 2.96009 3.1093 0
M  V30 440 C 41.3259 3.00829 4.40837 0
M  V30 441 O 41.5489 2.13594 5.28898 0
M  V30 442 O 40.4829 3.93168 4.55744 0
M  V30 443 H 44.3089 2.63106 1.51687 0
M  V30 444 H 41.8939 1.32588 0.688543 0
M  V30 445 H 43.7759 1.78277 3.81831 0
M  V30 446 H 42.4509 0.800278 3.13651 0
M  V30 447 H 41.3579 2.9577 2.29065 0
M  V30 448 H 42.6909 3.87934 3.02933 0
M  V30 449 N 44.343 -0.763751 1.37857 0
M  V30 450 C 45.59 -1.52257 1.33506 0
M  V30 451 C 45.918 -1.94343 -0.078022 0
M  V30 452 O 45.173 -1.64958 -1.05297 0
M  V30 453 C 45.472 -2.79499 2.22745 0
M  V30 454 C 45.138 -2.56426 3.70886 0
M  V30 455 C 43.8 -2.49842 4.11257 0
M  V30 456 C 46.152 -2.36008 4.64704 0
M  V30 457 C 43.48 -2.20841 5.43549 0
M  V30 458 C 45.832 -2.0853 5.97242 0
M  V30 459 C 44.496 -2.00396 6.36709 0
M  V30 460 H 43.766 -0.557149 0.488534 0
M  V30 461 H 46.413 -0.879073 1.70131 0
M  V30 462 H 44.718 -3.48447 1.79142 0
M  V30 463 H 46.415 -3.37413 2.16688 0
M  V30 464 H 43.005 -2.62416 3.38874 0
M  V30 465 H 47.189 -2.40079 4.34368 0
M  V30 466 H 42.445 -2.13045 5.73081 0
M  V30 467 H 46.619 -1.91732 6.69486 0
M  V30 468 H 44.246 -1.77688 7.39142 0
M  V30 469 N 45.8211 -1.22559 -0.990812 0
M  V30 470 C 46.7541 -0.940773 -2.07905 0
M  V30 471 C 47.7321 0.117082 -1.62178 0
M  V30 472 O 48.9161 -0.0149506 -1.88494 0
M  V30 473 C 46.0431 -0.415321 -3.36144 0
M  V30 474 C 45.0891 -1.45818 -4.00799 0
M  V30 475 S 45.9221 -3.03219 -4.41382 0
M  V30 476 C 47.0781 -2.52317 -5.72789 0
M  V30 477 H 47.3111 -1.8623 -2.31745 0
M  V30 478 H 44.8441 -1.05688 -1.12558 0
M  V30 479 H 46.8021 -0.118747 -4.10328 0
M  V30 480 H 45.4631 0.485121 -3.10331 0
M  V30 481 H 44.6561 -1.04044 -4.93144 0
M  V30 482 H 44.2581 -1.70356 -3.32949 0
M  V30 483 H 46.5501 -1.93688 -6.49224 0
M  V30 484 H 47.4931 -3.43161 -6.19392 0
M  V30 485 H 47.9011 -1.93529 -5.30289 0
M  V30 486 N 47.2992 1.18797 -1.03562 0
M  V30 487 C 48.5762 1.84469 -0.650434 0
M  V30 488 C 48.9562 1.92319 0.870433 0
M  V30 489 O 48.3042 1.44528 1.76986 0
M  V30 490 C 48.5142 3.2306 -1.32036 0
M  V30 491 C 49.8622 3.9915 -1.44792 0
M  V30 492 O 50.8862 3.32481 -1.27806 0
M  V30 493 O 49.7452 5.18587 -1.72423 0
M  V30 494 H 46.8392 0.795251 -0.226946 0
M  V30 495 H 49.3852 1.26231 -1.13419 0
M  V30 496 H 48.1572 3.1222 -2.3587 0
M  V30 497 H 47.7802 3.88949 -0.8249 0
M  V30 498 N 48.7773 0.814389 1.34928 0
M  V30 499 C 49.7403 0.235759 2.27984 0
M  V30 500 C 50.7403 -0.581412 1.49921 0
M  V30 501 O 51.9303 -0.398758 1.69575 0
M  V30 502 C 49.0623 -0.670433 3.34242 0
M  V30 503 H 50.2553 1.05659 2.80671 0
M  V30 504 H 47.8083 0.585614 1.44915 0
M  V30 505 H 48.5433 -1.51466 2.86755 0
M  V30 506 H 48.3283 -0.0860822 3.92005 0
M  V30 507 H 49.8183 -1.06935 4.03676 0
M  V30 508 N 50.2554 -1.46986 0.568584 0
M  V30 509 C 51.1854 -2.32946 -0.160753 0
M  V30 510 C 52.1664 -1.44487 -0.897631 0
M  V30 511 O 53.3514 -1.73327 -0.875867 0
M  V30 512 C 50.4814 -3.26494 -1.18403 0
M  V30 513 C 49.4354 -4.24282 -0.562895 0
M  V30 514 C 48.7614 -5.07236 -1.69163 0
M  V30 515 C 50.0614 -5.19989 0.490761 0
M  V30 516 H 51.7554 -2.94175 0.556916 0
M  V30 517 H 49.3014 -1.4146 0.26927 0
M  V30 518 H 51.2544 -3.85477 -1.70251 0
M  V30 519 H 49.9784 -2.63343 -1.93179 0
M  V30 520 H 48.6374 -3.66541 -0.0656164 0
M  V30 521 H 48.2854 -4.4048 -2.42871 0
M  V30 522 H 47.9854 -5.7345 -1.28174 0
M  V30 523 H 49.5094 -5.6908 -2.21314 0
M  V30 524 H 50.9234 -5.73271 0.0579047 0
M  V30 525 H 49.3204 -5.94469 0.820165 0
M  V30 526 H 50.3904 -4.64777 1.3824 0
M  V30 527 N 51.7335 -0.305618 -1.54608 0
M  V30 528 C 52.9615 0.304775 -2.04643 0
M  V30 529 C 53.3765 1.47167 -1.18268 0
M  V30 530 O 52.7335 1.81296 -0.209328 0
M  V30 531 C 52.7845 0.756564 -3.53495 0
M  V30 532 O 52.5055 -0.36389 -4.36586 0
M  V30 533 C 54.0065 1.43163 -4.19546 0
M  V30 534 H 51.2265 0.0655481 -0.667791 0
M  V30 535 H 53.7705 -0.446592 -1.99564 0
M  V30 536 H 51.9255 1.45794 -3.58919 0
M  V30 537 H 52.3395 -0.0113121 -5.24499 0
M  V30 538 H 53.8135 1.69886 -5.25207 0
M  V30 539 H 54.2905 2.37318 -3.69563 0
M  V30 540 H 54.8965 0.773307 -4.18211 0
M  V30 541 N 53.2116 1.57565 -0.0334293 0
M  V30 542 C 54.4366 1.96689 0.657895 0
M  V30 543 C 54.8616 0.910057 1.64619 0
M  V30 544 O 54.2196 -0.128598 1.80843 0
M  V30 545 C 54.2676 3.34905 1.33683 0
M  V30 546 O 53.3716 3.31574 2.45219 0
M  V30 547 H 52.7126 0.641205 0.172489 0
M  V30 548 H 55.2426 2.04372 -0.0965621 0
M  V30 549 H 55.2526 3.71234 1.69262 0
M  V30 550 H 53.9276 4.11366 0.612411 0
M  V30 551 H 52.5046 3.06968 2.11719 0
M  V30 552 N 54.6897 -0.239769 1.55765 0
M  V30 553 C 55.6377 -1.31668 1.91745 0
M  V30 554 C 56.6317 -1.49462 0.797338 0
M  V30 555 O 57.8377 -1.50852 0.982021 0
M  V30 556 H 54.2127 -0.441048 0.609082 0
M  V30 557 H 56.1837 -0.985923 2.81642 0
M  V30 558 C 54.9327 -2.66368 2.2348 0
M  V30 559 H 54.2557 -2.53478 3.09175 0
M  V30 560 H 55.6957 -3.40578 2.52553 0
M  V30 561 C 54.1547 -3.20002 1.05359 0
M  V30 562 O 54.6847 -4.00538 0.305261 0
M  V30 563 N 52.8907 -2.78126 0.842292 0
M  V30 564 H 52.4377 -2.12742 1.45253 0
M  V30 565 H 52.3957 -3.14354 0.053652 0
M  V30 566 N 56.1678 -1.49265 -0.50573 0
M  V30 567 C 57.4448 -1.49012 -1.26707 0
M  V30 568 C 57.8248 -0.215205 -2.1 0
M  V30 569 O 57.1728 0.802547 -2.13943 0
M  V30 570 C 57.3828 -2.7663 -2.12783 0
M  V30 571 C 58.7308 -3.25932 -2.72127 0
M  V30 572 O 59.7548 -2.77715 -2.23054 0
M  V30 573 O 58.6138 -4.09897 -3.61451 0
M  V30 574 H 55.7078 -0.596197 -0.57313 0
M  V30 575 H 58.2538 -1.61524 -0.52039 0
M  V30 576 H 57.0258 -3.60916 -1.5118 0
M  V30 577 H 56.6488 -2.66956 -2.94653 0
M  V30 578 N 57.6459 0.756429 -1.3826 0
M  V30 579 C 58.6089 1.85176 -1.35065 0
M  V30 580 C 59.6089 1.58818 -0.251703 0
M  V30 581 O 60.7989 1.66615 -0.508433 0
M  V30 582 C 57.9309 3.22596 -1.10201 0
M  V30 583 H 59.1239 1.89417 -2.3251 0
M  V30 584 H 56.6769 0.95783 -1.23512 0
M  V30 585 H 57.4119 3.24025 -0.133504 0
M  V30 586 H 57.1969 3.43122 -1.89762 0
M  V30 587 H 58.6869 4.02673 -1.10654 0
M  V30 588 N 59.124 1.23083 0.984299 0
M  V30 589 C 60.087 1.00979 2.05757 0
M  V30 590 C 61.087 -0.0269573 1.60777 0
M  V30 591 O 62.277 0.212403 1.729 0
M  V30 592 C 59.409 0.527072 3.36801 0
M  V30 593 H 60.602 1.9622 2.26799 0
M  V30 594 H 58.155 1.05072 1.15714 0
M  V30 595 H 58.89 -0.429294 3.21446 0
M  V30 596 H 58.675 1.27515 3.70786 0
M  V30 597 H 60.165 0.392942 4.15747 0
M  V30 598 N 60.6021 -1.18246 1.0419 0
M  V30 599 C 61.5491 -2.2192 0.634037 0
M  V30 600 C 62.5191 -1.62179 -0.358765 0
M  V30 601 O 63.7041 -1.89122 -0.252466 0
M  V30 602 C 60.8441 -3.451 0.00445535 0
M  V30 603 C 59.9571 -4.19174 1.04487 0
M  V30 604 C 59.0921 -5.29813 0.383676 0
M  V30 605 C 58.1311 -5.9566 1.4091 0
M  V30 606 N 57.2681 -6.97834 0.772784 0
M  V30 607 H 62.1081 -2.56164 1.52263 0
M  V30 608 H 59.6451 -1.25843 0.761701 0
M  V30 609 H 61.6031 -4.15485 -0.377919 0
M  V30 610 H 60.2331 -3.11472 -0.847652 0
M  V30 611 H 59.2851 -3.47604 1.54518 0
M  V30 612 H 60.5971 -4.64267 1.82368 0
M  V30 613 H 59.7511 -6.06677 -0.0528366 0
M  V30 614 H 58.4901 -4.85825 -0.427208 0
M  V30 615 H 57.4951 -5.17535 1.85574 0
M  V30 616 H 58.7201 -6.4173 2.22171 0
M  V30 617 H 56.6661 -6.55998 -0.0177708 0
M  V30 618 H 56.5831 -7.41186 1.48928 0
M  V30 619 H 57.8511 -7.78665 0.36071 0
M  V30 620 N 62.0802 -0.821533 -1.34494 0
M  V30 621 C 63.0102 -0.257138 -2.3208 0
M  V30 622 C 63.9912 0.625645 -1.58176 0
M  V30 623 O 65.1762 0.552811 -1.86166 0
M  V30 624 C 62.3062 0.582958 -3.42372 0
M  V30 625 C 61.2602 -0.202571 -4.2752 0
M  V30 626 C 60.5862 0.760179 -5.29269 0
M  V30 627 C 61.8862 -1.40998 -5.02908 0
M  V30 628 H 63.5802 -1.07247 -2.79532 0
M  V30 629 H 61.1262 -0.517163 -1.34393 0
M  V30 630 H 63.0792 0.987972 -4.09655 0
M  V30 631 H 61.8032 1.43133 -2.93565 0
M  V30 632 H 60.4622 -0.588936 -3.61838 0
M  V30 633 H 60.1102 1.60447 -4.76724 0
M  V30 634 H 59.8102 0.238809 -5.87115 0
M  V30 635 H 61.3342 1.16308 -5.9942 0
M  V30 636 H 62.7482 -1.07905 -5.63054 0
M  V30 637 H 61.1452 -1.86689 -5.70322 0
M  V30 638 H 62.2152 -2.1889 -4.32684 0
M  V30 639 N 63.5583 1.46682 -0.576371 0
M  V30 640 C 64.8073 2.01619 -0.0572825 0
M  V30 641 C 65.1203 1.45417 1.30818 0
M  V30 642 O 66.3263 1.92133 1.91825 0
M  V30 643 C 64.7823 3.59863 -0.0518371 0
M  V30 644 C 64.3903 4.25059 -1.41523 0
M  V30 645 C 66.1343 4.2248 0.413639 0
M  V30 646 C 64.0413 5.75364 -1.36785 0
M  V30 647 H 62.9713 0.753794 -0.0176448 0
M  V30 648 H 65.6223 1.68481 -0.727076 0
M  V30 649 H 64.0043 3.90048 0.683994 0
M  V30 650 H 65.1783 4.06491 -2.17029 0
M  V30 651 H 63.4933 3.7451 -1.8202 0
M  V30 652 H 66.0903 5.3265 0.467779 0
M  V30 653 H 66.4333 3.90976 1.42982 0
M  V30 654 H 66.9663 3.96897 -0.267929 0
M  V30 655 H 63.7053 6.11518 -2.36063 0
M  V30 656 H 63.2253 5.96214 -0.654895 0
M  V30 657 H 64.9043 6.37955 -1.07805 0
M  V30 658 N 65.0364 0.313813 1.54444 0
M  V30 659 C 65.9464 -0.565714 2.27677 0
M  V30 660 C 66.9624 -1.13754 1.31666 0
M  V30 661 O 68.1384 -1.15959 1.64668 0
M  V30 662 C 65.2034 -1.71528 3.01296 0
M  V30 663 C 64.2644 -1.17624 4.12872 0
M  V30 664 C 63.4974 -2.27102 4.8297 0
M  V30 665 O 63.7204 -3.47256 4.52514 0
M  V30 666 O 62.6544 -1.9307 5.70094 0
M  V30 667 H 66.4804 0.0287296 3.03686 0
M  V30 668 H 64.0654 0.0798312 1.49187 0
M  V30 669 H 65.9474 -2.38476 3.4743 0
M  V30 670 H 64.6224 -2.29608 2.2817 0
M  V30 671 H 63.5294 -0.472124 3.71109 0
M  V30 672 H 64.8624 -0.640695 4.88012 0
M  V30 673 N 66.5145 -1.57545 0.0417849 0
M  V30 674 C 67.7445 -1.96339 -0.642995 0
M  V30 675 C 68.1525 -0.917536 -1.65463 0
M  V30 676 O 67.4955 0.107747 -1.83384 0
M  V30 677 C 67.5575 -3.31333 -1.39494 0
M  V30 678 C 67.2215 -4.53796 -0.540204 0
M  V30 679 C 68.2185 -5.19553 0.189806 0
M  V30 680 C 65.9035 -5.0006 -0.473886 0
M  V30 681 C 67.8975 -6.29904 0.974674 0
M  V30 682 C 65.5845 -6.10289 0.314677 0
M  V30 683 C 66.5825 -6.75072 1.03765 0
M  V30 684 O 66.2705 -7.83183 1.81327 0
M  V30 685 H 66.0025 -0.651241 -0.181277 0
M  V30 686 H 68.5565 -2.05148 0.101665 0
M  V30 687 H 66.7865 -3.19052 -2.18502 0
M  V30 688 H 68.4755 -3.54942 -1.96904 0
M  V30 689 H 69.2415 -4.84774 0.147981 0
M  V30 690 H 65.1205 -4.49433 -1.0262 0
M  V30 691 H 68.6645 -6.80401 1.5395 0
M  V30 692 H 64.5615 -6.44506 0.358174 0
M  V30 693 H 65.3295 -7.99913 1.73438 0
M  V30 694 N 67.9926 0.231505 -1.5589 0
M  V30 695 C 69.2396 0.957352 -1.78441 0
M  V30 696 C 69.5676 1.84726 -0.60882 0
M  V30 697 O 68.8226 1.91416 0.40725 0
M  V30 698 C 69.1216 1.83577 -3.0665 0
M  V30 699 C 68.7876 1.09993 -4.37278 0
M  V30 700 C 67.4496 0.896629 -4.72773 0
M  V30 701 C 69.8016 0.579558 -5.17968 0
M  V30 702 C 67.1296 0.160896 -5.86479 0
M  V30 703 C 69.4816 -0.142783 -6.32439 0
M  V30 704 C 68.1456 -0.357427 -6.66542 0
M  V30 705 H 67.4156 0.35032 -0.65296 0
M  V30 706 H 70.0626 0.226259 -1.90159 0
M  V30 707 H 68.3676 2.63441 -2.90011 0
M  V30 708 H 70.0646 2.39934 -3.21298 0
M  V30 709 H 66.6546 1.26835 -4.09403 0
M  V30 710 H 70.8386 0.724125 -4.90989 0
M  V30 711 H 66.0946 -0.0157293 -6.11398 0
M  V30 712 H 70.2686 -0.553559 -6.94196 0
M  V30 713 H 67.8956 -0.929466 -7.54497 0
M  V30 714 N 69.4707 1.49531 0.497807 0
M  V30 715 C 70.4337 1.65916 1.58128 0
M  V30 716 C 71.4337 0.530825 1.51786 0
M  V30 717 O 72.6237 0.797342 1.54881 0
M  V30 718 C 69.7557 1.65951 2.9778 0
M  V30 719 H 70.9487 2.62556 1.44929 0
M  V30 720 H 68.5017 1.38611 0.722275 0
M  V30 721 H 69.2367 0.709065 3.16453 0
M  V30 722 H 69.0217 2.47897 3.03792 0
M  V30 723 H 70.5117 1.80673 3.76493 0
M  V30 724 N 70.9488 -0.749086 1.3866 0
M  V30 725 C 71.8588 -1.89358 1.38494 0
M  V30 726 C 72.8748 -1.71708 0.281476 0
M  V30 727 O 74.0508 -1.94554 0.520643 0
M  V30 728 C 71.1158 -3.24782 1.21316 0
M  V30 729 C 70.1768 -3.54926 2.41508 0
M  V30 730 C 69.4098 -4.83888 2.2514 0
M  V30 731 O 69.6328 -5.56592 1.24746 0
M  V30 732 O 68.5668 -5.13612 3.13826 0
M  V30 733 H 72.3928 -1.92452 2.34938 0
M  V30 734 H 69.9778 -0.894981 1.19626 0
M  V30 735 H 71.8598 -4.05739 1.13814 0
M  V30 736 H 70.5348 -3.2249 0.279592 0
M  V30 737 H 69.4418 -2.74112 2.54585 0
M  V30 738 H 70.7748 -3.61983 3.3351 0
M  V30 739 N 72.4269 -1.23603 -0.977757 0
M  V30 740 C 73.7039 -0.977897 -1.69401 0
M  V30 741 C 74.0839 0.502738 -2.05026 0
M  V30 742 O 73.4319 1.47459 -1.74551 0
M  V30 743 C 73.6419 -1.89077 -2.93345 0
M  V30 744 C 74.9899 -2.15579 -3.65802 0
M  V30 745 O 76.0139 -1.86648 -3.03383 0
M  V30 746 O 74.8729 -2.64658 -4.78141 0
M  V30 747 H 71.9669 -0.369025 -0.740101 0
M  V30 748 H 74.5129 -1.34657 -1.03274 0
M  V30 749 H 73.2849 -2.89158 -2.63634 0
M  V30 750 H 72.9079 -1.52463 -3.67207 0
M  V30 751 N 73.905 1.17692 -1.04816 0
M  V30 752 C 75.133 1.91786 -0.776254 0
M  V30 753 C 75.548 1.76604 0.667577 0
M  V30 754 O 74.905 1.10067 1.45573 0
M  V30 755 C 74.956 3.42967 -1.14263 0
M  V30 756 O 74.677 3.57678 -2.52978 0
M  V30 757 C 76.178 4.34144 -0.896311 0
M  V30 758 H 73.398 0.608624 -0.282519 0
M  V30 759 H 75.942 1.49268 -1.39783 0
M  V30 760 H 74.097 3.83245 -0.565874 0
M  V30 761 H 74.511 4.51319 -2.67229 0
M  V30 762 H 75.985 5.38744 -1.20244 0
M  V30 763 H 76.462 4.38876 0.168636 0
M  V30 764 H 77.068 3.99574 -1.45672 0
M  V30 765 N 75.3831 0.828654 1.34056 0
M  V30 766 C 76.3161 0.199763 2.27324 0
M  V30 767 C 77.2941 -0.647168 1.49166 0
M  V30 768 O 78.4781 -0.609661 1.78369 0
M  V30 769 C 75.6051 -0.720455 3.30949 0
M  V30 770 C 74.6511 0.0496888 4.26471 0
M  V30 771 S 75.4841 1.40072 5.16856 0
M  V30 772 C 76.6401 0.485527 6.24014 0
M  V30 773 H 76.8731 0.990478 2.80316 0
M  V30 774 H 74.4061 0.624857 1.41191 0
M  V30 775 H 76.3641 -1.24581 3.91139 0
M  V30 776 H 75.0251 -1.48474 2.76793 0
M  V30 777 H 74.2181 -0.650104 4.9979 0
M  V30 778 H 73.8201 0.505779 3.70564 0
M  V30 779 H 76.1121 -0.320672 6.76741 0
M  V30 780 H 77.0551 1.18856 6.98054 0
M  V30 781 H 77.4631 0.0714109 5.64455 0
M  V30 782 N 76.8612 -1.46375 0.584142 0
M  V30 783 C 78.0912 -2.06461 0.0758195 0
M  V30 784 C 78.4992 -1.43322 -1.23512 0
M  V30 785 O 77.8422 -0.533216 -1.75791 0
M  V30 786 C 77.9042 -3.59131 -0.162773 0
M  V30 787 C 77.5682 -4.4447 1.06279 0
M  V30 788 C 78.5652 -4.80918 1.97519 0
M  V30 789 C 76.2502 -4.85584 1.28504 0
M  V30 790 C 78.2442 -5.57309 3.09331 0
M  V30 791 C 75.9312 -5.61734 2.4062 0
M  V30 792 C 76.9292 -5.9751 3.30863 0
M  V30 793 O 76.6172 -6.72121 4.41032 0
M  V30 794 H 76.3492 -0.673745 0.0551725 0
M  V30 795 H 78.9032 -1.88969 0.804984 0
M  V30 796 H 77.1332 -3.74936 -0.946565 0
M  V30 797 H 78.8222 -4.0114 -0.619782 0
M  V30 798 H 79.5882 -4.49732 1.81565 0
M  V30 799 H 75.4672 -4.57187 0.591702 0
M  V30 800 H 79.0112 -5.85152 3.79793 0
M  V30 801 H 74.9082 -5.92334 2.56537 0
M  V30 802 H 75.6762 -6.90547 4.39417 0
M  V30 803 N 78.3393 -0.321999 -1.54275 0
M  V30 804 C 79.2713 0.578671 -2.21775 0
M  V30 805 C 80.2843 1.08109 -1.21722 0
M  V30 806 O 81.4733 0.994938 -1.482 0
M  V30 807 C 78.5733 1.80661 -2.86731 0
M  V30 808 C 77.7463 1.44314 -4.12907 0
M  V30 809 C 76.8053 2.52845 -4.61472 0
M  V30 810 O 75.8313 2.17054 -5.2619 0
M  V30 811 N 77.0333 3.83748 -4.35566 0
M  V30 812 H 79.7983 0.000709447 -2.997 0
M  V30 813 H 77.3593 -0.145132 -1.61248 0
M  V30 814 H 79.3513 2.52655 -3.16145 0
M  V30 815 H 77.9213 2.29245 -2.12521 0
M  V30 816 H 77.1413 0.554906 -3.90275 0
M  V30 817 H 78.4293 1.17598 -4.95023 0
M  V30 818 H 77.8273 4.15625 -3.83761 0
M  V30 819 H 76.3843 4.51977 -4.69638 0
M  V30 820 N 79.8174 1.5752 -0.0501392 0
M  V30 821 C 80.7654 2.12651 0.942459 0
M  V30 822 C 81.7594 1.05807 1.32292 0
M  V30 823 O 82.9654 1.24217 1.3027 0
M  V30 824 H 79.3404 0.679673 0.321789 0
M  V30 825 H 81.3114 2.94951 0.452356 0
M  V30 826 C 80.0604 2.68565 2.20836 0
M  V30 827 H 79.3834 3.50439 1.92439 0
M  V30 828 H 80.8234 3.10761 2.8845 0
M  V30 829 C 79.2824 1.62291 2.95234 0
M  V30 830 O 79.8124 1.03508 3.88135 0
M  V30 831 N 78.0184 1.33836 2.57946 0
M  V30 832 H 77.5654 1.81826 1.82475 0
M  V30 833 H 77.5234 0.629595 3.08032 0
M  V30 834 N 81.2955 -0.223234 1.56011 0
M  V30 835 C 82.2285 -1.30377 1.87289 0
M  V30 836 C 83.2065 -1.45286 0.730112 0
M  V30 837 O 84.3905 -1.61126 0.978302 0
M  V30 838 C 81.5175 -2.67431 2.07843 0
M  V30 839 C 80.5635 -2.69546 3.30526 0
M  V30 840 S 81.3965 -2.23781 4.865 0
M  V30 841 C 82.5525 -3.62714 5.10088 0
M  V30 842 H 82.7855 -1.03652 2.78646 0
M  V30 843 H 80.3185 -0.425393 1.48424 0
M  V30 844 H 82.2765 -3.46336 2.20368 0
M  V30 845 H 80.9375 -2.91381 1.17285 0
M  V30 846 H 80.1305 -3.70255 3.41947 0
M  V30 847 H 79.7325 -1.98703 3.16849 0
M  V30 848 H 82.0245 -4.58391 4.98883 0
M  V30 849 H 82.9675 -3.5621 6.11981 0
M  V30 850 H 83.3755 -3.56323 4.37829 0
M  V30 851 N 82.7736 -1.49793 -0.48987 0
M  V30 852 C 84.1846 -1.52914 -1.07118 0
M  V30 853 C 84.5356 -0.321738 -1.93544 0
M  V30 854 O 83.6606 0.567338 -2.08831 0
M  V30 855 C 84.2556 -2.771 -1.94938 0
M  V30 856 C 82.8146 -2.82963 -2.48212 0
M  V30 857 C 81.9616 -2.46972 -1.26096 0
M  V30 858 H 84.9126 -1.56329 -0.273289 0
M  V30 859 H 84.9336 -2.57892 -2.79771 0
M  V30 860 H 84.4456 -3.64959 -1.32009 0
M  V30 861 H 82.5466 -1.99411 -3.14748 0
M  V30 862 H 82.6596 -3.85406 -2.84603 0
M  V30 863 H 81.0236 -1.98994 -1.58976 0
M  V30 864 H 81.8066 -3.37118 -0.648581 0
M  V30 865 N 84.2517 0.741722 -1.39055 0
M  V30 866 C 85.1817 1.869 -1.39966 0
M  V30 867 C 86.1627 1.6804 -0.26392 0
M  V30 868 O 87.3477 1.88458 -0.468755 0
M  V30 869 C 84.4777 3.24572 -1.23574 0
M  V30 870 C 83.4317 3.58056 -2.34477 0
M  V30 871 C 82.7577 4.94593 -2.0318 0
M  V30 872 C 84.0577 3.61716 -3.76774 0
M  V30 873 H 85.7517 1.86395 -2.34302 0
M  V30 874 H 83.2977 0.895361 -1.1278 0
M  V30 875 H 85.2507 4.031 -1.22834 0
M  V30 876 H 83.9747 3.25587 -0.257045 0
M  V30 877 H 82.6337 2.81854 -2.34423 0
M  V30 878 H 82.2817 4.92181 -1.03765 0
M  V30 879 H 81.9817 5.17964 -2.77465 0
M  V30 880 H 83.5057 5.75486 -2.04079 0
M  V30 881 H 84.9197 4.30335 -3.78794 0
M  V30 882 H 83.3167 3.96603 -4.50362 0
M  V30 883 H 84.3867 2.61672 -4.08235 0
M  V30 884 N 85.7298 1.2412 0.971189 0
M  V30 885 C 87.1408 1.07236 1.52831 0
M  V30 886 C 87.4918 -0.357352 1.92918 0
M  V30 887 O 86.6168 -1.24528 1.76979 0
M  V30 888 C 87.2118 1.94043 2.77728 0
M  V30 889 C 85.7708 1.81394 3.29808 0
M  V30 890 C 84.9178 1.89189 2.02738 0
M  V30 891 H 87.8688 1.37648 0.789864 0
M  V30 892 H 87.8898 1.47066 3.5093 0
M  V30 893 H 87.4018 2.98093 2.4852 0
M  V30 894 H 85.5028 0.801634 3.63874 0
M  V30 895 H 85.6158 2.65294 3.98944 0
M  V30 896 H 83.9798 1.32877 2.17292 0
M  V30 897 H 84.7628 2.94812 1.759 0
M  V30 898 N 87.2079 -1.17134 1.05439 0
M  V30 899 C 88.6189 -1.69084 0.791676 0
M  V30 900 C 88.9699 -1.83822 -0.685839 0
M  V30 901 O 88.0949 -1.52757 -1.53278 0
M  V30 902 C 88.6899 -3.07119 1.4305 0
M  V30 903 C 87.2489 -3.56225 1.21577 0
M  V30 904 C 86.3959 -2.32421 1.51247 0
M  V30 905 H 89.3469 -1.01617 1.219 0
M  V30 906 H 89.3679 -3.71087 0.84112 0
M  V30 907 H 88.8799 -2.9636 2.50584 0
M  V30 908 H 86.9809 -3.72257 0.159787 0
M  V30 909 H 87.0939 -4.38837 1.92246 0
M  V30 910 H 85.4579 -2.3701 0.932653 0
M  V30 911 H 86.2409 -2.24268 2.5992 0
M  V30 912 N 88.686 -0.835752 -1.33615 0
M  V30 913 C 89.649 -0.272 -2.2758 0
M  V30 914 C 90.649 0.557487 -1.50827 0
M  V30 915 O 91.839 0.37173 -1.70188 0
M  V30 916 C 88.971 0.617173 -3.35267 0
M  V30 917 H 90.164 -1.10111 -2.78954 0
M  V30 918 H 87.717 -0.608594 -1.43965 0
M  V30 919 H 88.452 1.46884 -2.89129 0
M  V30 920 H 88.237 0.0237066 -3.92093 0
M  V30 921 H 89.727 1.005 -4.05326 0
M  V30 922 N 90.1641 1.46063 -0.591896 0
M  V30 923 C 91.3941 2.06418 -0.0867676 0
M  V30 924 C 91.8021 1.43975 1.22751 0
M  V30 925 O 91.1451 0.542531 1.75506 0
M  V30 926 C 91.2071 3.59213 0.143725 0
M  V30 927 C 90.8711 4.439 -1.08635 0
M  V30 928 C 91.8681 4.79864 -2.00067 0
M  V30 929 C 89.5531 4.84896 -1.31077 0
M  V30 930 C 91.5471 5.55661 -3.12282 0
M  V30 931 C 89.2341 5.6045 -2.43596 0
M  V30 932 C 90.2321 5.95747 -3.34027 0
M  V30 933 O 89.9201 6.69772 -4.4459 0
M  V30 934 H 89.6521 0.673443 -0.0587447 0
M  V30 935 H 92.2061 1.88539 -0.814994 0
M  V30 936 H 90.4361 3.75433 0.926668 0
M  V30 937 H 92.1251 4.01463 0.5985 0
M  V30 938 H 92.8911 4.48763 -1.83947 0
M  V30 939 H 88.7701 4.56867 -0.61594 0
M  V30 940 H 92.3141 5.8313 -3.82891 0
M  V30 941 H 88.2111 5.90965 -2.59674 0
M  V30 942 H 88.9791 6.88207 -4.43073 0
M  V30 943 N 91.6422 0.330177 1.54103 0
M  V30 944 C 92.8902 -0.269871 2.0029 0
M  V30 945 C 93.2112 -1.52133 1.21986 0
M  V30 946 O 92.4812 -1.93212 0.323438 0
M  V30 947 H 91.0612 -0.10271 0.739905 0
M  V30 948 H 93.7232 0.448249 1.89675 0
M  V30 949 H 92.8192 -0.52166 3.07709 0
M  V30 950 N 93.1203 -1.57491 0.0584922 0
M  V30 951 C 94.5363 -1.56792 -0.298091 0
M  V30 952 C 94.7363 -1.06679 -1.70944 0
M  V30 953 O 93.7923 -0.726672 -2.41818 0
M  V30 954 C 95.1053 -3.00461 -0.119879 0
M  V30 955 C 96.6533 -3.1242 -0.190428 0
M  V30 956 C 97.1283 -4.57982 -0.0406567 0
M  V30 957 N 98.6193 -4.63099 -0.0966958 0
M  V30 958 C 99.3543 -5.734 -0.00502943 0
M  V30 959 N 98.8503 -6.9266 0.139402 0
M  V30 960 N 100.643 -5.62067 -0.0611391 0
M  V30 961 H 92.7943 -1.88386 0.98105 0
M  V30 962 H 95.0573 -0.867865 0.381463 0
M  V30 963 H 94.7633 -3.41187 0.85349 0
M  V30 964 H 94.6373 -3.66843 -0.877833 0
M  V30 965 H 97.0243 -2.71589 -1.15427 0
M  V30 966 H 97.1053 -2.48702 0.598405 0
M  V30 967 H 96.7493 -4.995 0.919897 0
M  V30 968 H 96.6793 -5.19715 -0.848727 0
M  V30 969 H 99.1703 -3.77331 -0.207277 0
M  V30 970 H 99.4833 -7.72536 0.201855 0
M  V30 971 H 97.8283 -6.94781 0.174586 0
M  V30 972 H 101.019 -4.67782 -0.172583 0
M  V30 973 H 101.192 -6.47999 0.0137562 0
M  V30 974 N 94.5984 0.214957 -1.56127 0
M  V30 975 C 95.8754 0.963093 -1.70247 0
M  V30 976 C 96.2554 2.02166 -0.60764 0
M  V30 977 O 95.6034 2.25244 0.384385 0
M  V30 978 C 95.8134 1.56756 -3.11815 0
M  V30 979 C 97.1614 2.0573 -3.7143 0
M  V30 980 O 98.1854 1.66637 -3.14818 0
M  V30 981 O 97.0444 2.77603 -4.70743 0
M  V30 982 H 94.1384 0.450321 -0.693643 0
M  V30 983 H 96.6844 0.206219 -1.68442 0
M  V30 984 H 95.4564 0.803533 -3.82961 0
M  V30 985 H 95.0794 2.3898 -3.17765 0
M  V30 986 N 96.0765 1.50051 0.48192 0
M  V30 987 C 97.0395 1.67584 1.5636 0
M  V30 988 C 98.0395 0.546894 1.51214 0
M  V30 989 O 99.2295 0.813725 1.54026 0
M  V30 990 C 96.3615 1.691 2.96003 0
M  V30 991 H 97.5545 2.64078 1.42136 0
M  V30 992 H 95.1075 1.39369 0.707533 0
M  V30 993 H 95.8425 0.742589 3.15684 0
M  V30 994 H 95.6275 2.51105 3.01146 0
M  V30 995 H 97.1175 1.84656 3.74556 0
M  V30 996 N 97.5546 -0.734337 1.39446 0
M  V30 997 C 98.8006 -1.49613 1.36908 0
M  V30 998 C 99.1336 -1.94169 -0.0347829 0
M  V30 999 O 98.4086 -1.66833 -0.999847 0
M  V30 1000 C 98.6916 -2.73534 2.34203 0
M  V30 1001 C 98.5446 -2.34993 3.83534 0
M  V30 1002 C 99.8636 -3.75635 2.29317 0
M  V30 1003 H 96.9826 -0.542714 0.498629 0
M  V30 1004 H 99.6246 -0.839597 1.70443 0
M  V30 1005 H 97.7746 -3.29553 2.05736 0
M  V30 1006 H 99.4466 -1.84601 4.22753 0
M  V30 1007 H 97.6896 -1.67213 4.00278 0
M  V30 1008 H 98.3606 -3.23738 4.47099 0
M  V30 1009 H 100.837 -3.29203 2.54489 0
M  V30 1010 H 99.7126 -4.60008 2.99472 0
M  V30 1011 H 99.9736 -4.22603 1.29842 0
M  V30 1012 N 99.0327 -1.24633 -0.964593 0
M  V30 1013 C 99.9427 -1.05859 -2.09359 0
M  V30 1014 C 100.959 0.00148855 -1.74 0
M  V30 1015 O 102.135 -0.197346 -2.00431 0
M  V30 1016 C 99.1997 -0.668879 -3.40187 0
M  V30 1017 C 98.2607 -1.80578 -3.89474 0
M  V30 1018 C 97.4937 -1.43457 -5.14058 0
M  V30 1019 O 97.7167 -0.325775 -5.69469 0
M  V30 1020 O 96.6507 -2.2613 -5.57807 0
M  V30 1021 H 100.477 -2.00516 -2.28094 0
M  V30 1022 H 98.0617 -1.03481 -1.0776 0
M  V30 1023 H 99.9437 -0.463211 -4.18846 0
M  V30 1024 H 98.6187 0.248536 -3.22744 0
M  V30 1025 H 97.5257 -2.06623 -3.11862 0
M  V30 1026 H 98.8587 -2.70208 -4.11398 0
M  V30 1027 N 100.511 1.16574 -1.06058 0
M  V30 1028 C 101.443 2.2045 -0.627239 0
M  V30 1029 C 102.456 1.59752 0.313534 0
M  V30 1030 O 103.645 1.78192 0.104896 0
M  V30 1031 C 100.745 3.3875 0.100974 0
M  V30 1032 C 99.9178 4.29008 -0.852687 0
M  V30 1033 C 98.9768 5.25944 -0.164152 0
M  V30 1034 O 98.0028 5.63535 -0.801047 0
M  V30 1035 N 99.2048 5.70075 1.09518 0
M  V30 1036 H 101.97 2.58249 -1.52077 0
M  V30 1037 H 99.5308 1.3156 -0.943594 0
M  V30 1038 H 101.523 4.00638 0.57194 0
M  V30 1039 H 100.093 2.99476 0.89628 0
M  V30 1040 H 99.3128 3.64419 -1.50308 0
M  V30 1041 H 100.601 4.86195 -1.49972 0
M  V30 1042 H 99.9988 5.41624 1.6328 0
M  V30 1043 H 98.5558 6.34067 1.51006 0
M  V30 1044 N 101.989 0.842826 1.3317 0
M  V30 1045 C 103.217 0.454055 2.01856 0
M  V30 1046 C 103.632 -0.94587 1.63397 0
M  V30 1047 O 102.989 -1.61534 0.849302 0
M  V30 1048 C 103.04 0.569715 3.56982 0
M  V30 1049 O 102.761 1.91448 3.94055 0
M  V30 1050 C 104.262 0.178412 4.42941 0
M  V30 1051 H 101.482 0.17979 0.646465 0
M  V30 1052 H 104.026 1.1365 1.70012 0
M  V30 1053 H 102.181 -0.0648587 3.87346 0
M  V30 1054 H 102.595 1.90282 4.88767 0
M  V30 1055 H 104.069 0.310376 5.51127 0
M  V30 1056 H 104.546 -0.880056 4.30293 0
M  V30 1057 H 105.152 0.787579 4.17944 0
M  V30 1058 N 103.467 -1.45747 0.599634 0
M  V30 1059 C 104.397 -2.33235 -0.111306 0
M  V30 1060 C 105.378 -1.46359 -0.866781 0
M  V30 1061 O 106.563 -1.75146 -0.838904 0
M  V30 1062 C 103.693 -3.28932 -1.11451 0
M  V30 1063 C 102.647 -4.25381 -0.472772 0
M  V30 1064 C 101.973 -5.1071 -1.58365 0
M  V30 1065 C 103.273 -5.18831 0.600948 0
M  V30 1066 H 104.967 -2.92927 0.61919 0
M  V30 1067 H 102.513 -1.40857 0.299215 0
M  V30 1068 H 104.466 -3.89002 -1.62036 0
M  V30 1069 H 103.19 -2.67381 -1.8755 0
M  V30 1070 H 101.849 -3.66598 0.0121472 0
M  V30 1071 H 101.497 -4.45533 -2.33473 0
M  V30 1072 H 101.197 -5.7604 -1.15982 0
M  V30 1073 H 102.721 -5.73647 -2.09194 0
M  V30 1074 H 104.135 -5.73019 0.179491 0
M  V30 1075 H 102.532 -5.92595 0.946076 0
M  V30 1076 H 103.602 -4.6174 1.48068 0
M  V30 1077 N 104.945 -0.338344 -1.53925 0
M  V30 1078 C 105.908 0.508299 -2.23493 0
M  V30 1079 C 106.908 1.03175 -1.23335 0
M  V30 1080 O 108.098 0.921826 -1.47811 0
M  V30 1081 C 105.23 1.70754 -2.95052 0
M  V30 1082 H 106.423 -0.100058 -2.99733 0
M  V30 1083 H 103.976 -0.0896198 -1.56043 0
M  V30 1084 H 104.711 2.35474 -2.22986 0
M  V30 1085 H 104.496 1.33946 -3.68512 0
M  V30 1086 H 105.986 2.30818 -3.48013 0
M  V30 1087 N 106.423 1.57458 -0.0668435 0
M  V30 1088 C 107.671 1.92919 0.602214 0
M  V30 1089 C 107.992 0.947215 1.70449 0
M  V30 1090 O 107.262 -0.00544117 1.95899 0
M  V30 1091 H 105.842 0.71217 0.22544 0
M  V30 1092 H 108.504 1.94508 -0.123535 0
M  V30 1093 H 107.6 2.94589 1.03073 0
M  V30 1094 N 107.901 -0.206675 1.56239 0
M  V30 1095 C 108.831 -1.25909 1.96645 0
M  V30 1096 C 109.812 -1.48097 0.836734 0
M  V30 1097 O 110.997 -1.6003 1.10019 0
M  V30 1098 C 108.127 -2.6058 2.29599 0
M  V30 1099 C 107.081 -2.53024 3.452 0
M  V30 1100 C 106.407 -3.91861 3.63798 0
M  V30 1101 C 107.707 -2.06524 4.79734 0
M  V30 1102 H 109.401 -0.923369 2.84806 0
M  V30 1103 H 106.947 -0.442735 1.37025 0
M  V30 1104 H 108.9 -3.34375 2.56459 0
M  V30 1105 H 107.624 -2.95869 1.38307 0
M  V30 1106 H 106.283 -1.81684 3.18412 0
M  V30 1107 H 105.931 -4.24483 2.69857 0
M  V30 1108 H 105.631 -3.87683 4.4156 0
M  V30 1109 H 107.155 -4.67296 3.93022 0
M  V30 1110 H 108.569 -2.70072 5.05702 0
M  V30 1111 H 106.966 -2.13374 5.60885 0
M  V30 1112 H 108.036 -1.01802 4.74093 0
M  V30 1113 N 109.379 -1.50304 -0.473955 0
M  V30 1114 C 110.626 -1.6115 -1.22625 0
M  V30 1115 C 110.954 -0.310517 -1.92005 0
M  V30 1116 O 110.209 0.703419 -1.82621 0
M  V30 1117 C 110.508 -2.73938 -2.29549 0
M  V30 1118 C 110.174 -4.14519 -1.7744 0
M  V30 1119 C 108.836 -4.5277 -1.62949 0
M  V30 1120 C 111.188 -5.02392 -1.3875 0
M  V30 1121 C 108.516 -5.76639 -1.08187 0
M  V30 1122 C 110.868 -6.26805 -0.854309 0
M  V30 1123 C 109.532 -6.63861 -0.696011 0
M  V30 1124 H 108.802 -0.589691 -0.448715 0
M  V30 1125 H 111.449 -1.84228 -0.522705 0
M  V30 1126 H 109.754 -2.44937 -3.05799 0
M  V30 1127 H 111.451 -2.79534 -2.87509 0
M  V30 1128 H 108.041 -3.8434 -1.89685 0
M  V30 1129 H 112.225 -4.73474 -1.4878 0
M  V30 1130 H 107.481 -6.04027 -0.946666 0
M  V30 1131 H 111.655 -6.94258 -0.545843 0
M  V30 1132 H 109.282 -7.59722 -0.26952 0
M  V30 1133 N 110.857 0.726932 -1.39834 0
M  V30 1134 C 112.085 1.51613 -1.40787 0
M  V30 1135 C 112.5 1.88799 -0.00451505 0
M  V30 1136 O 111.857 1.54662 0.968809 0
M  V30 1137 C 111.908 2.79863 -2.28821 0
M  V30 1138 O 111.629 2.44253 -3.63692 0
M  V30 1139 C 113.13 3.73837 -2.38245 0
M  V30 1140 H 110.35 0.468264 -0.480593 0
M  V30 1141 H 112.894 0.897607 -1.83748 0
M  V30 1142 H 111.049 3.38027 -1.89252 0
M  V30 1143 H 111.463 3.26695 -4.1033 0
M  V30 1144 H 112.937 4.60699 -3.04073 0
M  V30 1145 H 113.414 4.16153 -1.40403 0
M  V30 1146 H 114.02 3.21589 -2.78317 0
M  V30 1147 N 112.336 1.25143 0.95797 0
M  V30 1148 C 113.582 1.09855 1.70469 0
M  V30 1149 C 113.915 -0.360187 1.90831 0
M  V30 1150 O 113.19 -1.26568 1.47685 0
M  V30 1151 C 113.473 1.8497 3.08963 0
M  V30 1152 C 113.326 3.38652 2.96032 0
M  V30 1153 C 114.645 1.63016 4.08795 0
M  V30 1154 H 111.764 0.400465 0.618706 0
M  V30 1155 H 114.406 1.53933 1.11376 0
M  V30 1156 H 112.556 1.47505 3.59409 0
M  V30 1157 H 114.228 3.85772 2.52938 0
M  V30 1158 H 112.471 3.66534 2.32025 0
M  V30 1159 H 113.142 3.8642 3.94187 0
M  V30 1160 H 115.618 1.95625 3.67247 0
M  V30 1161 H 114.494 2.18015 5.03747 0
M  V30 1162 H 114.755 0.570692 4.38401 0
M  V30 1163 N 113.814 -1.1601 1.06675 0
M  V30 1164 C 114.747 -2.1947 0.625168 0
M  V30 1165 C 115.725 -1.58699 -0.354041 0
M  V30 1166 O 116.909 -1.86669 -0.262098 0
M  V30 1167 C 114.036 -3.38598 -0.0829593 0
M  V30 1168 C 113.082 -4.1787 0.853611 0
M  V30 1169 S 113.915 -4.81135 2.35094 0
M  V30 1170 C 115.071 -6.03639 1.65441 0
M  V30 1171 H 115.304 -2.56587 1.50168 0
M  V30 1172 H 112.837 -1.26862 0.880078 0
M  V30 1173 H 114.795 -4.07621 -0.485288 0
M  V30 1174 H 113.456 -2.99839 -0.935716 0
M  V30 1175 H 112.649 -5.03078 0.304755 0
M  V30 1176 H 112.251 -3.54361 1.196 0
M  V30 1177 H 114.543 -6.70632 0.962201 0
M  V30 1178 H 115.486 -6.63081 2.48454 0
M  V30 1179 H 115.894 -5.52965 1.13534 0
M  V30 1180 N 115.292 -0.849877 -1.32721 0
M  V30 1181 C 116.517 -0.463856 -2.02146 0
M  V30 1182 C 116.942 0.930449 -1.63476 0
M  V30 1183 O 116.3 1.61033 -0.832952 0
M  V30 1184 C 116.348 -0.604955 -3.55489 0
M  V30 1185 O 115.452 0.36425 -4.10788 0
M  V30 1186 H 114.793 -0.187046 -0.637111 0
M  V30 1187 H 117.323 -1.14775 -1.69375 0
M  V30 1188 H 117.333 -0.490696 -4.05038 0
M  V30 1189 H 116.008 -1.62174 -3.82978 0
M  V30 1190 H 114.585 0.206628 -3.72327 0
M  V30 1191 N 116.77 1.45427 -0.607355 0
M  V30 1192 C 118.019 2.01452 -0.100036 0
M  V30 1193 C 118.332 1.48159 1.27704 0
M  V30 1194 O 119.538 1.96159 1.87707 0
M  V30 1195 C 117.994 3.59672 -0.128158 0
M  V30 1196 C 117.602 4.21962 -1.50507 0
M  V30 1197 C 119.346 4.23262 0.323932 0
M  V30 1198 C 117.253 5.72333 -1.48959 0
M  V30 1199 H 116.183 0.75325 -0.0336299 0
M  V30 1200 H 118.834 1.66901 -0.76265 0
M  V30 1201 H 117.216 3.91411 0.601105 0
M  V30 1202 H 118.39 4.01796 -2.25602 0
M  V30 1203 H 116.705 3.70565 -1.89923 0
M  V30 1204 H 119.302 5.33522 0.354691 0
M  V30 1205 H 119.645 3.93921 1.34656 0
M  V30 1206 H 120.178 3.96239 -0.352056 0
M  V30 1207 H 116.917 6.06373 -2.48981 0
M  V30 1208 H 116.437 5.94691 -0.781214 0
M  V30 1209 H 118.116 6.35525 -1.21313 0
M  V30 1210 N 118.248 0.346503 1.53744 0
M  V30 1211 C 119.525 -0.304532 1.93215 0
M  V30 1212 C 119.905 -1.67993 1.27834 0
M  V30 1213 O 119.253 -2.24411 0.430352 0
M  V30 1214 C 119.463 -0.373852 3.46992 0
M  V30 1215 C 120.811 -0.62329 4.2 0
M  V30 1216 O 121.835 -0.455847 3.53271 0
M  V30 1217 O 120.694 -0.947879 5.38217 0
M  V30 1218 H 117.788 -0.178318 0.807547 0
M  V30 1219 H 120.334 0.397895 1.64969 0
M  V30 1220 H 119.106 0.591224 3.86808 0
M  V30 1221 H 118.729 -1.12294 3.81413 0
M  V30 1222 N 119.726 -1.57421 0.075193 0
M  V30 1223 C 120.689 -2.11791 -0.876203 0
M  V30 1224 C 121.689 -1.04268 -1.22412 0
M  V30 1225 O 122.879 -1.30242 -1.15684 0
M  V30 1226 C 120.011 -2.62207 -2.17854 0
M  V30 1227 H 121.204 -2.9716 -0.40444 0
M  V30 1228 H 118.757 -1.55333 -0.173557 0
M  V30 1229 H 119.492 -1.803 -2.6956 0
M  V30 1230 H 119.277 -3.40802 -1.93897 0
M  V30 1231 H 120.767 -3.04335 -2.85955 0
M  V30 1232 N 121.204 0.198386 -1.56346 0
M  V30 1233 C 122.45 0.920648 -1.80698 0
M  V30 1234 C 122.783 1.83045 -0.648697 0
M  V30 1235 O 122.058 1.91308 0.350925 0
M  V30 1236 C 122.341 1.73971 -3.15287 0
M  V30 1237 C 122.194 0.85485 -4.41602 0
M  V30 1238 C 123.513 2.71296 -3.46535 0
M  V30 1239 H 120.632 0.333261 -0.657348 0
M  V30 1240 H 123.274 0.188198 -1.89066 0
M  V30 1241 H 121.424 2.36416 -3.08285 0
M  V30 1242 H 123.096 0.245362 -4.60647 0
M  V30 1243 H 121.339 0.161398 -4.335 0
M  V30 1244 H 122.01 1.46286 -5.32264 0
M  V30 1245 H 124.486 2.18983 -3.53816 0
M  V30 1246 H 123.362 3.2569 -4.41834 0
M  V30 1247 H 123.623 3.5018 -2.69864 0
M  V30 1248 N 122.682 1.50554 0.465978 0
M  V30 1249 C 123.592 1.72585 1.58907 0
M  V30 1250 C 124.608 0.60911 1.6299 0
M  V30 1251 O 125.784 0.88804 1.80765 0
M  V30 1252 C 122.849 1.81995 2.95091 0
M  V30 1253 C 121.91 3.05751 3.01355 0
M  V30 1254 C 121.143 3.14702 4.31043 0
M  V30 1255 O 121.366 2.30313 5.21835 0
M  V30 1256 O 120.3 4.07468 4.43005 0
M  V30 1257 H 124.126 2.67799 1.43239 0
M  V30 1258 H 121.711 1.34711 0.646013 0
M  V30 1259 H 123.593 1.90335 3.75966 0
M  V30 1260 H 122.268 0.899659 3.10947 0
M  V30 1261 H 121.175 3.02908 2.19539 0
M  V30 1262 H 122.508 3.97375 2.90437 0
M  V30 1263 N 124.16 -0.719506 1.40217 0
M  V30 1264 C 125.388 -1.50864 1.41589 0
M  V30 1265 C 125.803 -1.88794 0.0145275 0
M  V30 1266 O 125.16 -1.55174 -0.960594 0
M  V30 1267 C 125.211 -2.78646 2.30302 0
M  V30 1268 O 124.932 -2.42321 3.64983 0
M  V30 1269 C 126.433 -3.72569 2.40224 0
M  V30 1270 H 123.653 -0.465709 0.48307 0
M  V30 1271 H 126.197 -0.88785 1.84221 0
M  V30 1272 H 124.352 -3.37019 1.91042 0
M  V30 1273 H 124.766 -3.24514 4.12057 0
M  V30 1274 H 126.24 -4.5908 3.06512 0
M  V30 1275 H 126.717 -4.15403 1.42608 0
M  V30 1276 H 127.323 -3.20109 2.80019 0
M  V30 1277 N 125.638 -1.25649 -0.95132 0
M  V30 1278 C 126.885 -1.10594 -1.69633 0
M  V30 1279 C 127.213 0.352515 -1.91279 0
M  V30 1280 O 126.468 1.27601 -1.4838 0
M  V30 1281 C 126.767 -1.80909 -3.08231 0
M  V30 1282 C 126.433 -3.30825 -3.06375 0
M  V30 1283 C 125.095 -3.71722 -3.05576 0
M  V30 1284 C 127.447 -4.26589 -2.99452 0
M  V30 1285 C 124.775 -5.06788 -2.95606 0
M  V30 1286 C 127.127 -5.61683 -2.91024 0
M  V30 1287 C 125.791 -6.01904 -2.88562 0
M  V30 1288 H 125.061 -0.404691 -0.620731 0
M  V30 1289 H 127.708 -1.55964 -1.11119 0
M  V30 1290 H 126.013 -1.27979 -3.70309 0
M  V30 1291 H 127.71 -1.6671 -3.64704 0
M  V30 1292 H 124.3 -2.98287 -3.07771 0
M  V30 1293 H 128.484 -3.95982 -2.99185 0
M  V30 1294 H 123.74 -5.37126 -2.92071 0
M  V30 1295 H 127.914 -6.35578 -2.84629 0
M  V30 1296 H 125.541 -7.06521 -2.80593 0
M  V30 1297 N 127.117 1.15442 -1.07289 0
M  V30 1298 C 128.067 2.18164 -0.662467 0
M  V30 1299 C 129.051 1.57845 0.312074 0
M  V30 1300 O 130.243 1.76552 0.125905 0
M  V30 1301 C 127.372 3.43246 -0.0611295 0
M  V30 1302 C 126.458 4.1062 -1.06077 0
M  V30 1303 N 126.849 4.53491 -2.24008 0
M  V30 1304 C 125.147 4.36949 -0.893964 0
M  V30 1305 C 125.848 5.05731 -2.87422 0
M  V30 1306 N 124.824 4.99236 -2.15091 0
M  V30 1307 H 128.626 2.49038 -1.56068 0
M  V30 1308 H 126.14 1.32003 -0.945988 0
M  V30 1309 H 128.137 4.16145 0.250792 0
M  V30 1310 H 126.797 3.13854 0.832207 0
M  V30 1311 H 127.808 4.46898 -2.6173 0
M  V30 1312 H 124.485 4.17466 -0.0534693 0
M  V30 1313 H 125.875 5.48865 -3.87553 0
M  V30 1314 N 128.595 0.856903 1.32268 0
M  V30 1315 C 129.844 0.457599 1.96441 0
M  V30 1316 C 130.157 -0.992426 1.68553 0
M  V30 1317 O 131.363 -1.49727 2.26482 0
M  V30 1318 C 129.819 0.767358 3.51624 0
M  V30 1319 C 129.427 2.23326 3.88367 0
M  V30 1320 C 131.171 0.435887 4.22256 0
M  V30 1321 C 129.078 2.48613 5.36606 0
M  V30 1322 H 128.008 0.167387 0.735185 0
M  V30 1323 H 130.659 1.048 1.5063 0
M  V30 1324 H 129.041 0.106367 3.95857 0
M  V30 1325 H 130.215 2.93623 3.55137 0
M  V30 1326 H 128.53 2.52948 3.30766 0
M  V30 1327 H 131.127 0.602202 5.31298 0
M  V30 1328 H 131.47 -0.622672 4.11617 0
M  V30 1329 H 132.003 1.05286 3.83614 0
M  V30 1330 H 128.742 3.53101 5.52268 0
M  V30 1331 H 128.262 1.82896 5.71235 0
M  V30 1332 H 129.941 2.32676 6.03714 0
M  V30 1333 N 130.073 -1.45103 0.615059 0
M  V30 1334 C 131.321 -2.01784 0.112955 0
M  V30 1335 C 131.642 -1.48504 -1.26378 0
M  V30 1336 O 130.912 -0.682245 -1.83636 0
M  V30 1337 H 129.492 -0.745993 0.0387668 0
M  V30 1338 H 132.154 -1.77808 0.798141 0
M  V30 1339 H 131.25 -3.12025 0.0684069 0
M  V30 1340 N 131.551 -0.354651 -1.53558 0
M  V30 1341 C 132.776 0.242153 -2.05981 0
M  V30 1342 C 133.201 1.42553 -1.2272 0
M  V30 1343 O 132.559 1.79656 -0.243604 0
M  V30 1344 C 132.607 0.624367 -3.55154 0
M  V30 1345 O 131.711 1.72301 -3.74681 0
M  V30 1346 H 131.052 0.0378432 -0.662921 0
M  V30 1347 H 133.582 -0.512087 -1.98088 0
M  V30 1348 H 133.592 0.898433 -3.97985 0
M  V30 1349 H 132.267 -0.240989 -4.15201 0
M  V30 1350 H 130.844 1.44535 -3.4375 0
M  V30 1351 N 133.029 1.57378 -0.0835403 0
M  V30 1352 C 134.254 1.98682 0.594987 0
M  V30 1353 C 134.679 0.961969 1.61641 0
M  V30 1354 O 134.037 -0.0709989 1.81161 0
M  V30 1355 C 134.085 3.38988 1.2296 0
M  V30 1356 O 133.189 3.39208 2.34546 0
M  V30 1357 H 132.53 0.646368 0.152002 0
M  V30 1358 H 135.06 2.03961 -0.161533 0
M  V30 1359 H 135.07 3.76431 1.57366 0
M  V30 1360 H 133.745 4.13107 0.481228 0
M  V30 1361 H 132.322 3.13548 2.01846 0
M  V30 1362 N 134.507 -0.190092 1.56449 0
M  V30 1363 C 135.455 -1.25501 1.95837 0
M  V30 1364 C 136.449 -1.4685 0.844485 0
M  V30 1365 O 137.655 -1.47651 1.02952 0
M  V30 1366 H 134.03 -0.421447 0.622805 0
M  V30 1367 H 136.001 -0.895821 2.84636 0
M  V30 1368 C 134.75 -2.59124 2.31841 0
M  V30 1369 H 134.073 -2.43514 3.17082 0
M  V30 1370 H 135.513 -3.32371 2.6326 0
M  V30 1371 C 133.972 -3.16488 1.15486 0
M  V30 1372 O 134.502 -3.99365 0.432535 0
M  V30 1373 N 132.708 -2.75305 0.930349 0
M  V30 1374 H 132.255 -2.08013 1.51948 0
M  V30 1375 H 132.213 -3.14024 0.153634 0
M  V30 1376 N 135.985 -1.50799 -0.457987 0
M  V30 1377 C 137.233 -1.62121 -1.2067 0
M  V30 1378 C 137.554 -0.329793 -1.92191 0
M  V30 1379 O 136.824 0.653409 -1.84682 0
M  V30 1380 H 135.404 -0.597441 -0.448411 0
M  V30 1381 H 138.066 -1.87637 -0.527096 0
M  V30 1382 H 137.162 -2.43882 -1.94751 0
M  V30 1383 N 137.463 0.71206 -1.40597 0
M  V30 1384 C 138.393 1.83889 -1.43899 0
M  V30 1385 C 139.374 1.67442 -0.299504 0
M  V30 1386 O 140.559 1.87421 -0.508624 0
M  V30 1387 C 137.689 3.21877 -1.30431 0
M  V30 1388 C 136.643 3.53002 -2.42019 0
M  V30 1389 C 135.969 4.90172 -2.13626 0
M  V30 1390 C 137.269 3.53643 -3.84362 0
M  V30 1391 H 138.963 1.81383 -2.38203 0
M  V30 1392 H 136.509 0.871237 -1.14654 0
M  V30 1393 H 138.462 4.00404 -1.31357 0
M  V30 1394 H 137.186 3.24968 -0.326049 0
M  V30 1395 H 135.845 2.76818 -2.40349 0
M  V30 1396 H 135.493 4.89869 -1.14182 0
M  V30 1397 H 135.193 5.11962 -2.88389 0
M  V30 1398 H 136.717 5.71028 -2.1624 0
M  V30 1399 H 138.131 4.22203 -3.87837 0
M  V30 1400 H 136.528 3.86961 -4.58673 0
M  V30 1401 H 137.598 2.52954 -4.13693 0
M  V30 1402 N 138.941 1.26152 0.944643 0
M  V30 1403 C 140.187 1.11657 1.69294 0
M  V30 1404 C 140.52 -0.339926 1.91202 0
M  V30 1405 O 139.795 -1.24994 1.49019 0
M  V30 1406 C 140.078 1.88236 3.06984 0
M  V30 1407 C 139.931 3.41772 2.92424 0
M  V30 1408 C 141.25 1.67343 4.07043 0
M  V30 1409 H 138.369 0.407004 0.614424 0
M  V30 1410 H 141.011 1.55106 1.09737 0
M  V30 1411 H 139.161 1.51308 3.57824 0
M  V30 1412 H 140.833 3.88433 2.48832 0
M  V30 1413 H 139.076 3.68974 2.28124 0
M  V30 1414 H 139.747 3.90579 3.90067 0
M  V30 1415 H 142.223 1.99509 3.65151 0
M  V30 1416 H 141.099 2.23346 5.01406 0
M  V30 1417 H 141.36 0.617158 4.37771 0
M  V30 1418 N 140.419 -1.14872 1.07899 0
M  V30 1419 C 141.649 -1.89386 0.825631 0
M  V30 1420 C 142.057 -1.78565 -0.625406 0
M  V30 1421 O 141.4 -1.13918 -1.44113 0
M  V30 1422 C 141.462 -3.40206 1.16191 0
M  V30 1423 C 141.126 -3.74812 2.61467 0
M  V30 1424 C 142.123 -3.75367 3.59716 0
M  V30 1425 C 139.808 -4.0495 2.97189 0
M  V30 1426 C 141.802 -4.05574 4.9172 0
M  V30 1427 C 139.489 -4.34821 4.29388 0
M  V30 1428 C 140.487 -4.35116 5.26463 0
M  V30 1429 O 140.175 -4.64267 6.56286 0
M  V30 1430 H 139.907 -0.606894 0.297751 0
M  V30 1431 H 142.461 -1.46438 1.44031 0
M  V30 1432 H 140.691 -3.8358 0.490214 0
M  V30 1433 H 142.38 -3.96018 0.890193 0
M  V30 1434 H 143.146 -3.52176 3.33462 0
M  V30 1435 H 139.025 -4.03876 2.22273 0
M  V30 1436 H 142.569 -4.05719 5.67484 0
M  V30 1437 H 138.466 -4.5748 4.55392 0
M  V30 1438 H 139.234 -4.82007 6.61522 0
M  V30 1439 N 141.898 -0.863906 -1.31812 0
M  V30 1440 C 143.126 -0.486111 -2.01108 0
M  V30 1441 C 143.541 0.919755 -1.64882 0
M  V30 1442 O 142.898 1.60162 -0.874893 0
M  V30 1443 C 142.949 -0.626435 -3.56031 0
M  V30 1444 O 142.67 -1.97693 -3.90959 0
M  V30 1445 C 144.171 -0.248857 -4.42601 0
M  V30 1446 H 141.391 -0.190052 -0.643523 0
M  V30 1447 H 143.935 -1.1634 -1.68182 0
M  V30 1448 H 142.09 0.00322717 -3.874 0
M  V30 1449 H 142.504 -1.98034 -4.85678 0
M  V30 1450 H 143.978 -0.398016 -5.50563 0
M  V30 1451 H 144.455 0.811489 -4.31638 0
M  V30 1452 H 145.061 -0.853971 -4.16638 0
M  V30 1453 N 143.376 1.44774 -0.622745 0
M  V30 1454 C 144.286 2.34433 0.0886031 0
M  V30 1455 C 145.302 1.52131 0.844529 0
M  V30 1456 O 146.478 1.84886 0.798691 0
M  V30 1457 C 143.543 3.29986 1.0635 0
M  V30 1458 C 142.604 4.28195 0.307873 0
M  V30 1459 C 141.837 5.19183 1.23633 0
M  V30 1460 O 142.06 5.13918 2.47476 0
M  V30 1461 O 140.994 5.97515 0.725189 0
M  V30 1462 H 144.82 2.96693 -0.648599 0
M  V30 1463 H 142.405 1.44408 -0.382957 0
M  V30 1464 H 144.287 3.88825 1.6246 0
M  V30 1465 H 142.962 2.70269 1.78146 0
M  V30 1466 H 141.869 3.72927 -0.296064 0
M  V30 1467 H 143.202 4.90808 -0.3699 0
M  V30 1468 N 144.854 0.36279 1.53368 0
M  V30 1469 C 146.27 0.0116182 1.59596 0
M  V30 1470 C 146.47 -1.47012 1.37803 0
M  V30 1471 O 145.526 -2.23136 1.18181 0
M  V30 1472 C 146.839 0.465052 2.97082 0
M  V30 1473 C 148.387 0.419033 3.10182 0
M  V30 1474 C 148.862 0.848235 4.50077 0
M  V30 1475 N 150.353 0.803183 4.56183 0
M  V30 1476 C 151.088 1.107 5.62613 0
M  V30 1477 N 150.584 1.47996 6.76808 0
M  V30 1478 N 152.377 1.02998 5.52583 0
M  V30 1479 H 144.528 1.32775 1.65785 0
M  V30 1480 H 146.791 0.542518 0.777417 0
M  V30 1481 H 146.497 1.49892 3.18159 0
M  V30 1482 H 146.371 -0.149786 3.76902 0
M  V30 1483 H 148.758 -0.605696 2.88817 0
M  V30 1484 H 148.839 1.06933 2.32377 0
M  V30 1485 H 148.483 1.87107 4.7218 0
M  V30 1486 H 148.413 0.175218 5.26308 0
M  V30 1487 H 150.904 0.52838 3.74188 0
M  V30 1488 H 151.217 1.69613 7.53957 0
M  V30 1489 H 149.562 1.51859 6.78206 0
M  V30 1490 H 152.753 0.737817 4.62249 0
M  V30 1491 H 152.926 1.2701 6.35431 0
M  V30 1492 N 146.332 -1.57332 0.0918853 0
M  V30 1493 C 147.578 -1.94524 -0.573425 0
M  V30 1494 C 147.911 -0.973578 -1.68033 0
M  V30 1495 O 147.186 -0.00609226 -1.94499 0
M  V30 1496 C 147.469 -3.41858 -1.13161 0
M  V30 1497 C 147.322 -4.4979 -0.0299747 0
M  V30 1498 C 148.641 -3.90435 -2.03098 0
M  V30 1499 H 145.76 -0.70734 -0.206975 0
M  V30 1500 H 148.402 -1.89309 0.161942 0
M  V30 1501 H 146.552 -3.46433 -1.7583 0
M  V30 1502 H 148.224 -4.57327 0.604112 0
M  V30 1503 H 146.467 -4.291 0.636833 0
M  V30 1504 H 147.138 -5.50069 -0.461287 0
M  V30 1505 H 149.614 -3.87992 -1.50338 0
M  V30 1506 H 148.49 -4.94097 -2.39081 0
M  V30 1507 H 148.751 -3.29541 -2.94712 0
M  V30 1508 N 147.81 0.181792 -1.56548 0
M  V30 1509 C 149.087 0.926765 -1.72251 0
M  V30 1510 C 149.467 2.00831 -0.650386 0
M  V30 1511 O 148.815 2.26008 0.336521 0
M  V30 1512 C 149.025 1.50106 -3.1507 0
M  V30 1513 C 150.373 1.97805 -3.75711 0
M  V30 1514 O 151.397 1.59922 -3.18282 0
M  V30 1515 O 150.256 2.67555 -4.76525 0
M  V30 1516 H 147.35 0.435506 -0.703039 0
M  V30 1517 H 149.896 0.170443 -1.68842 0
M  V30 1518 H 148.668 0.72212 -3.84579 0
M  V30 1519 H 148.291 2.32186 -3.22763 0
M  V30 1520 N 149.288 1.51039 0.449983 0
M  V30 1521 C 150.534 1.63322 1.20223 0
M  V30 1522 C 150.867 0.34241 1.91158 0
M  V30 1523 O 150.142 -0.657344 1.83055 0
M  V30 1524 C 150.425 2.82801 2.22925 0
M  V30 1525 C 150.278 4.21823 1.56157 0
M  V30 1526 C 151.597 2.97807 3.24035 0
M  V30 1527 H 148.716 0.594407 0.435718 0
M  V30 1528 H 151.358 1.83489 0.493136 0
M  V30 1529 H 149.508 2.65738 2.834 0
M  V30 1530 H 151.18 4.50526 0.991162 0
M  V30 1531 H 149.423 4.25105 0.864172 0
M  V30 1532 H 150.094 5.01391 2.30891 0
M  V30 1533 H 152.57 3.13497 2.73603 0
M  V30 1534 H 151.446 3.82992 3.93202 0
M  V30 1535 H 151.707 2.09328 3.89402 0
M  V30 1536 N 150.766 -0.704594 1.40972 0
M  V30 1537 C 151.696 -1.83124 1.44872 0
M  V30 1538 C 152.677 -1.67281 0.30838 0
M  V30 1539 O 153.862 -1.87149 0.518556 0
M  V30 1540 C 150.992 -3.21181 1.32136 0
M  V30 1541 C 149.946 -3.51714 2.43888 0
M  V30 1542 C 149.272 -4.89032 2.16222 0
M  V30 1543 C 150.572 -3.516 3.86232 0
M  V30 1544 H 152.266 -1.80117 2.39161 0
M  V30 1545 H 149.812 -0.865145 1.15114 0
M  V30 1546 H 151.765 -3.99702 1.33479 0
M  V30 1547 H 150.489 -3.24791 0.343279 0
M  V30 1548 H 149.148 -2.75539 2.41813 0
M  V30 1549 H 148.796 -4.89256 1.16778 0
M  V30 1550 H 148.496 -5.10426 2.911 0
M  V30 1551 H 150.02 -5.69873 2.19265 0
M  V30 1552 H 151.434 -4.2014 3.9007 0
M  V30 1553 H 149.831 -3.84523 4.60719 0
M  V30 1554 H 150.901 -2.50757 4.15029 0
M  V30 1555 N 152.244 -1.26651 -0.937939 0
M  V30 1556 C 153.66 -1.03834 -1.21205 0
M  V30 1557 C 153.86 0.234502 -2.00131 0
M  V30 1558 O 152.916 0.942767 -2.3424 0
M  V30 1559 C 154.229 -2.27167 -1.97017 0
M  V30 1560 C 155.777 -2.32101 -2.09996 0
M  V30 1561 C 156.252 -3.55136 -2.8921 0
M  V30 1562 N 157.743 -3.55632 -2.96783 0
M  V30 1563 C 158.478 -4.475 -3.58512 0
M  V30 1564 N 157.974 -5.4966 -4.21717 0
M  V30 1565 N 159.767 -4.35145 -3.55816 0
M  V30 1566 H 151.918 -2.08398 -0.410391 0
M  V30 1567 H 154.181 -0.916031 -0.244114 0
M  V30 1568 H 153.887 -3.19765 -1.46434 0
M  V30 1569 H 153.761 -2.31672 -2.97671 0
M  V30 1570 H 156.148 -1.40015 -2.59769 0
M  V30 1571 H 156.229 -2.31605 -1.08594 0
M  V30 1572 H 155.873 -4.47553 -2.40123 0
M  V30 1573 H 155.803 -3.5288 -3.90875 0
M  V30 1574 H 158.294 -2.81743 -2.51852 0
M  V30 1575 H 158.607 -6.15943 -4.66727 0
M  V30 1576 H 156.952 -5.53514 -4.20294 0
M  V30 1577 H 160.143 -3.5455 -3.05634 0
M  V30 1578 H 160.316 -5.06934 -4.03636 0
M  V30 1579 N 153.722 1.14298 -1.08507 0
M  V30 1580 C 154.685 2.17607 -0.719711 0
M  V30 1581 C 155.685 1.58907 0.245997 0
M  V30 1582 O 156.875 1.74181 0.0254081 0
M  V30 1583 C 154.007 3.40842 -0.0627695 0
M  V30 1584 H 155.2 2.51443 -1.63452 0
M  V30 1585 H 152.753 1.28963 -0.88307 0
M  V30 1586 H 153.488 3.12587 0.863716 0
M  V30 1587 H 153.273 3.84713 -0.757504 0
M  V30 1588 H 154.763 4.17221 0.177786 0
M  V30 1589 N 155.201 0.870884 1.31352 0
M  V30 1590 C 156.131 0.343096 2.30966 0
M  V30 1591 C 157.112 -0.566507 1.60389 0
M  V30 1592 O 158.297 -0.483336 1.88089 0
M  V30 1593 C 155.427 -0.455487 3.443 0
M  V30 1594 C 154.381 0.361103 4.26474 0
M  V30 1595 C 153.707 -0.563221 5.31725 0
M  V30 1596 C 155.007 1.59566 4.97329 0
M  V30 1597 H 156.701 1.17548 2.75359 0
M  V30 1598 H 154.247 0.566686 1.32381 0
M  V30 1599 H 156.2 -0.83525 4.13039 0
M  V30 1600 H 154.924 -1.32139 2.98675 0
M  V30 1601 H 153.583 0.722825 3.59403 0
M  V30 1602 H 153.231 -1.42643 4.82351 0
M  V30 1603 H 152.931 -0.0207409 5.87596 0
M  V30 1604 H 154.455 -0.939808 6.03324 0
M  V30 1605 H 155.869 1.28728 5.58661 0
M  V30 1606 H 154.266 2.07728 5.63 0
M  V30 1607 H 155.336 2.34798 4.24262 0
M  V30 1608 N 156.679 -1.44442 0.630414 0
M  V30 1609 C 158.09 -1.85434 0.217063 0
M  V30 1610 C 158.441 -1.52748 -1.23136 0
M  V30 1611 O 157.566 -0.965205 -1.93682 0
M  V30 1612 C 158.161 -3.36581 0.387168 0
M  V30 1613 C 156.72 -3.76389 0.0283297 0
M  V30 1614 C 155.867 -2.68296 0.700889 0
M  V30 1615 H 158.818 -1.34919 0.83562 0
M  V30 1616 H 158.839 -3.78657 -0.374086 0
M  V30 1617 H 158.351 -3.60339 1.44144 0
M  V30 1618 H 156.452 -3.58246 -1.02423 0
M  V30 1619 H 156.565 -4.77095 0.437892 0
M  V30 1620 H 154.929 -2.54335 0.136267 0
M  V30 1621 H 155.712 -2.94887 1.75774 0
M  V30 1622 N 158.157 -0.370918 -1.53173 0
M  V30 1623 C 159.385 0.217704 -2.05751 0
M  V30 1624 C 159.8 1.42018 -1.24404 0
M  V30 1625 O 159.157 1.80245 -0.286033 0
M  V30 1626 C 159.208 0.605954 -3.56385 0
M  V30 1627 O 158.929 -0.548734 -4.3465 0
M  V30 1628 C 160.43 1.2524 -4.25241 0
M  V30 1629 H 157.65 0.0371659 -0.66997 0
M  V30 1630 H 160.194 -0.530832 -1.9749 0
M  V30 1631 H 158.349 1.3044 -3.6478 0
M  V30 1632 H 158.763 -0.23376 -5.23979 0
M  V30 1633 H 160.237 1.47458 -5.3194 0
M  V30 1634 H 160.714 2.2143 -3.79296 0
M  V30 1635 H 161.32 0.595233 -4.21114 0
M  V30 1636 N 159.635 1.57281 -0.100228 0
M  V30 1637 C 160.883 1.94153 0.561157 0
M  V30 1638 C 161.204 0.983157 1.68401 0
M  V30 1639 O 160.474 0.0361132 1.95867 0
M  V30 1640 H 159.054 0.716791 0.210283 0
M  V30 1641 H 161.716 1.94202 -0.164765 0
M  V30 1642 H 160.812 2.96709 0.968008 0
M  V30 1643 N 161.113 -0.173488 1.56642 0
M  V30 1644 C 162.06 -1.21482 1.96242 0
M  V30 1645 C 163.03 -1.44104 0.826027 0
M  V30 1646 O 164.215 -1.5688 1.08597 0
M  V30 1647 C 161.355 -2.54964 2.32567 0
M  V30 1648 C 160.468 -2.39739 3.59373 0
M  V30 1649 C 159.603 -3.66072 3.84921 0
M  V30 1650 C 158.642 -3.45771 5.05083 0
M  V30 1651 N 157.779 -4.64169 5.26775 0
M  V30 1652 H 162.619 -0.870123 2.85014 0
M  V30 1653 H 160.156 -0.418245 1.41029 0
M  V30 1654 H 162.114 -3.32758 2.5165 0
M  V30 1655 H 160.744 -2.87433 1.46908 0
M  V30 1656 H 159.796 -1.53131 3.48217 0
M  V30 1657 H 161.108 -2.20683 4.47326 0
M  V30 1658 H 160.262 -4.52303 4.0436 0
M  V30 1659 H 159.001 -3.88105 2.9534 0
M  V30 1660 H 158.006 -2.57927 4.85545 0
M  V30 1661 H 159.231 -3.25163 5.96193 0
M  V30 1662 H 157.177 -4.86425 4.40144 0
M  V30 1663 H 157.094 -4.48019 6.08946 0
M  V30 1664 H 158.362 -5.51689 5.5069 0
M  V30 1665 N 162.591 -1.51276 -0.441967 0
M  V30 1666 C 163.816 -1.67799 -1.21895 0
M  V30 1667 C 164.241 -0.372864 -1.84367 0
M  V30 1668 O 163.599 0.666501 -1.68604 0
M  V30 1669 C 163.647 -2.79199 -2.28211 0
M  V30 1670 O 162.751 -2.42479 -3.33583 0
M  V30 1671 H 162.092 -0.559649 -0.357336 0
M  V30 1672 H 164.622 -1.97815 -0.522522 0
M  V30 1673 H 164.632 -3.03146 -2.73069 0
M  V30 1674 H 163.307 -3.73906 -1.82118 0
M  V30 1675 H 161.884 -2.29087 -2.94234 0
M  V30 1676 N 164.069 0.697108 -1.41344 0
M  V30 1677 C 165.299 1.48377 -1.43763 0
M  V30 1678 C 165.707 1.89156 -0.0408726 0
M  V30 1679 O 165.05 1.57239 0.949812 0
M  V30 1680 C 165.112 2.7781 -2.2817 0
M  V30 1681 C 164.776 2.59244 -3.76353 0
M  V30 1682 C 165.773 2.25292 -4.68551 0
M  V30 1683 C 163.458 2.74933 -4.20378 0
M  V30 1684 C 165.452 2.07264 -6.02761 0
M  V30 1685 C 163.139 2.56521 -5.54653 0
M  V30 1686 C 164.137 2.22737 -6.4566 0
M  V30 1687 O 163.825 2.04485 -7.77458 0
M  V30 1688 H 163.557 0.463842 -0.491759 0
M  V30 1689 H 166.111 0.865934 -1.86255 0
M  V30 1690 H 164.341 3.41995 -1.8049 0
M  V30 1691 H 166.03 3.39608 -2.22309 0
M  V30 1692 H 166.796 2.12787 -4.35829 0
M  V30 1693 H 162.675 3.00213 -3.49848 0
M  V30 1694 H 166.219 1.80817 -6.73759 0
M  V30 1695 H 162.116 2.68616 -5.86955 0
M  V30 1696 H 162.884 2.1926 -7.88586 0
M  V30 1697 N 165.547 1.27147 0.931209 0
M  V30 1698 C 166.495 1.09398 2.05268 0
M  V30 1699 C 167.489 0.0180591 1.6939 0
M  V30 1700 O 168.695 0.17551 1.79142 0
M  V30 1701 H 165.07 0.336986 0.672268 0
M  V30 1702 H 167.041 2.04416 2.17386 0
M  V30 1703 C 165.79 0.75424 3.39421 0
M  V30 1704 H 165.113 1.57404 3.67511 0
M  V30 1705 H 166.553 0.669903 4.18674 0
M  V30 1706 C 165.012 -0.541197 3.32525 0
M  V30 1707 O 165.542 -1.57664 3.69466 0
M  V30 1708 N 163.748 -0.535517 2.85623 0
M  V30 1709 H 163.295 0.307511 2.55758 0
M  V30 1710 H 163.253 -1.40236 2.81392 0
M  V30 1711 N 167.025 -1.13721 1.09112 0
M  V30 1712 C 167.955 -2.21148 0.749385 0
M  V30 1713 C 168.936 -1.6792 -0.271475 0
M  V30 1714 O 170.121 -1.93693 -0.140251 0
M  V30 1715 C 167.251 -3.46905 0.165659 0
M  V30 1716 C 166.205 -4.13203 1.11567 0
M  V30 1717 C 165.531 -5.33248 0.393809 0
M  V30 1718 C 166.831 -4.60912 2.45678 0
M  V30 1719 H 168.525 -2.4999 1.64758 0
M  V30 1720 H 166.071 -1.20156 0.793626 0
M  V30 1721 H 168.024 -4.21313 -0.085466 0
M  V30 1722 H 166.748 -3.17449 -0.767714 0
M  V30 1723 H 165.407 -3.40758 1.35202 0
M  V30 1724 H 165.055 -5.00054 -0.543599 0
M  V30 1725 H 164.755 -5.78552 1.02721 0
M  V30 1726 H 166.279 -6.10413 0.150908 0
M  V30 1727 H 167.693 -5.26759 2.26269 0
M  V30 1728 H 166.09 -5.16944 3.04776 0
M  V30 1729 H 167.16 -3.75603 3.06677 0
M  V30 1730 N 168.503 -0.877838 -1.30888 0
M  V30 1731 C 169.728 -0.506629 -2.01117 0
M  V30 1732 C 170.153 0.895564 -1.65412 0
M  V30 1733 O 169.511 1.5923 -0.866922 0
M  V30 1734 C 169.559 -0.680223 -3.54126 0
M  V30 1735 O 168.663 0.277033 -4.11468 0
M  V30 1736 H 168.004 -0.200518 -0.633 0
M  V30 1737 H 170.534 -1.18342 -1.66902 0
M  V30 1738 H 170.544 -0.5765 -4.03907 0
M  V30 1739 H 169.219 -1.70261 -3.79452 0
M  V30 1740 H 167.796 0.127606 -3.72682 0
M  V30 1741 N 169.982 1.44106 -0.638065 0
M  V30 1742 C 171.231 2.01194 -0.142744 0
M  V30 1743 C 171.544 1.50835 1.24532 0
M  V30 1744 O 172.75 2.00096 1.83504 0
M  V30 1745 C 171.206 3.59319 -0.20442 0
M  V30 1746 C 170.814 4.18674 -1.59423 0
M  V30 1747 C 172.558 4.23854 0.234079 0
M  V30 1748 C 170.465 5.69045 -1.61065 0
M  V30 1749 H 169.395 0.752367 -0.0495998 0
M  V30 1750 H 172.046 1.65246 -0.797881 0
M  V30 1751 H 170.428 3.92598 0.517946 0
M  V30 1752 H 171.602 3.96921 -2.34074 0
M  V30 1753 H 169.917 3.66453 -1.97741 0
M  V30 1754 H 172.514 5.34155 0.241443 0
M  V30 1755 H 172.857 3.96688 1.2627 0
M  V30 1756 H 173.39 3.95403 -0.436025 0
M  V30 1757 H 170.129 6.00956 -2.61787 0
M  V30 1758 H 169.649 5.929 -0.90718 0
M  V30 1759 H 171.328 6.32809 -1.34766 0
M  V30 1760 N 171.46 0.379036 1.52974 0
M  V30 1761 C 172.39 -0.452706 2.29069 0
M  V30 1762 C 173.371 -1.07237 1.32039 0
M  V30 1763 O 174.556 -1.08708 1.60923 0
M  V30 1764 C 171.686 -1.5856 3.08992 0
M  V30 1765 C 170.64 -1.0925 4.13822 0
M  V30 1766 C 169.966 -2.31668 4.81907 0
M  V30 1767 C 171.266 -0.167702 5.22031 0
M  V30 1768 H 172.96 0.182181 2.98845 0
M  V30 1769 H 170.506 0.0890592 1.43724 0
M  V30 1770 H 172.459 -2.1742 3.6098 0
M  V30 1771 H 171.183 -2.24792 2.36931 0
M  V30 1772 H 169.842 -0.526494 3.628 0
M  V30 1773 H 169.49 -2.96386 4.06404 0
M  V30 1774 H 169.19 -1.9934 5.52754 0
M  V30 1775 H 170.714 -2.91189 5.36695 0
M  V30 1776 H 172.128 -0.664186 5.6944 0
M  V30 1777 H 170.525 0.0653265 6.00064 0
M  V30 1778 H 171.595 0.786347 4.78482 0
M  V30 1779 N 172.938 -1.57226 0.108567 0
M  V30 1780 C 174.186 -1.94448 -0.550853 0
M  V30 1781 C 174.507 -0.992074 -1.67878 0
M  V30 1782 O 173.777 -0.0465 -1.95845 0
M  V30 1783 H 172.357 -0.717897 -0.206479 0
M  V30 1784 H 175.019 -1.94112 0.175062 0
M  V30 1785 H 174.115 -2.97218 -0.952259 0
M  V30 1786 N 174.416 0.165178 -1.56732 0
M  V30 1787 C 175.662 0.882112 -1.82611 0
M  V30 1788 C 175.995 1.81628 -0.687378 0
M  V30 1789 O 175.27 1.92009 0.310267 0
M  V30 1790 C 175.553 1.67245 -3.18906 0
M  V30 1791 C 175.406 0.760987 -4.43316 0
M  V30 1792 C 176.725 2.63884 -3.52212 0
M  V30 1793 H 173.844 0.319242 -0.664269 0
M  V30 1794 H 176.486 0.148052 -1.89422 0
M  V30 1795 H 174.636 2.29824 -3.1323 0
M  V30 1796 H 176.308 0.147596 -4.61064 0
M  V30 1797 H 174.551 0.0694102 -4.33744 0
M  V30 1798 H 175.222 1.34962 -5.35247 0
M  V30 1799 H 177.698 2.11429 -3.58381 0
M  V30 1800 H 176.574 3.16245 -4.48643 0
M  V30 1801 H 176.835 3.44377 -2.77231 0
M  V30 1802 N 175.894 1.51508 0.433938 0
M  V30 1803 C 177.141 1.64345 1.18309 0
M  V30 1804 C 177.469 0.361315 1.91115 0
M  V30 1805 O 176.724 -0.654753 1.84422 0
M  V30 1806 C 177.023 2.79928 2.22205 0
M  V30 1807 C 176.689 4.19078 1.66387 0
M  V30 1808 C 175.351 4.56932 1.50887 0
M  V30 1809 C 177.703 5.05894 1.25381 0
M  V30 1810 C 175.031 5.79305 0.928608 0
M  V30 1811 C 177.383 6.2885 0.687823 0
M  V30 1812 C 176.047 6.65473 0.519755 0
M  V30 1813 H 175.317 0.601381 0.432923 0
M  V30 1814 H 177.964 1.85549 0.473676 0
M  V30 1815 H 176.269 2.52959 2.99197 0
M  V30 1816 H 177.966 2.87059 2.79997 0
M  V30 1817 H 174.556 3.89234 1.79428 0
M  V30 1818 H 178.74 4.77253 1.36175 0
M  V30 1819 H 173.996 6.06324 0.786186 0
M  V30 1820 H 178.17 6.95461 0.361581 0
M  V30 1821 H 175.797 7.6017 0.0679979 0
M  V30 1822 N 177.372 -0.689602 1.41712 0
M  V30 1823 C 178.304 -1.815 1.39966 0
M  V30 1824 C 179.317 -1.59995 0.300917 0
M  V30 1825 O 180.506 -1.69387 0.563039 0
M  V30 1826 C 177.606 -3.18364 1.16179 0
M  V30 1827 C 176.779 -3.66847 2.38206 0
M  V30 1828 C 175.838 -4.82398 2.10186 0
M  V30 1829 O 174.864 -4.93706 2.83272 0
M  V30 1830 N 176.066 -5.70064 1.0958 0
M  V30 1831 H 178.831 -1.83488 2.36965 0
M  V30 1832 H 176.392 -0.872149 1.36401 0
M  V30 1833 H 178.384 -3.93301 0.953756 0
M  V30 1834 H 176.954 -3.11365 0.27756 0
M  V30 1835 H 176.174 -2.82751 2.74673 0
M  V30 1836 H 177.462 -3.95978 3.19498 0
M  V30 1837 H 176.86 -5.63565 0.491019 0
M  V30 1838 H 175.417 -6.44874 0.947656 0
M  V30 1839 N 178.85 -1.27639 -0.924453 0
M  V30 1840 C 179.78 -1.13166 -2.04244 0
M  V30 1841 C 180.761 -0.032256 -1.70069 0
M  V30 1842 O 181.946 -0.207328 -1.9309 0
M  V30 1843 C 179.076 -0.781496 -3.38393 0
M  V30 1844 C 178.03 -1.83449 -3.86692 0
M  V30 1845 C 177.356 -1.33822 -5.17683 0
M  V30 1846 C 178.656 -3.23917 -4.09726 0
M  V30 1847 H 180.35 -2.06689 -2.1661 0
M  V30 1848 H 177.896 -0.995136 -1.04082 0
M  V30 1849 H 179.849 -0.667057 -4.16087 0
M  V30 1850 H 178.573 0.189439 -3.2605 0
M  V30 1851 H 177.232 -1.93789 -3.11193 0
M  V30 1852 H 176.88 -0.35665 -5.01734 0
M  V30 1853 H 176.58 -2.04224 -5.50968 0
M  V30 1854 H 178.104 -1.23679 -5.97943 0
M  V30 1855 H 179.518 -3.16559 -4.77978 0
M  V30 1856 H 177.915 -3.92059 -4.54324 0
M  V30 1857 H 178.985 -3.68729 -3.14908 0
M  V30 1858 N 180.328 1.1314 -1.09713 0
M  V30 1859 C 181.556 1.88321 -0.856898 0
M  V30 1860 C 181.971 1.79276 0.592073 0
M  V30 1861 O 181.328 1.16142 1.40774 0
M  V30 1862 C 181.379 3.37812 -1.28706 0
M  V30 1863 O 181.1 3.46627 -2.67921 0
M  V30 1864 C 182.601 4.29952 -1.07964 0
M  V30 1865 H 179.821 0.596094 -0.308079 0
M  V30 1866 H 182.365 1.43205 -1.45988 0
M  V30 1867 H 180.52 3.805 -0.727912 0
M  V30 1868 H 180.934 4.39579 -2.8613 0
M  V30 1869 H 182.408 5.33159 -1.42986 0
M  V30 1870 H 182.885 4.39196 -0.0176577 0
M  V30 1871 H 183.491 3.93036 -1.62489 0
M  V30 1872 N 181.806 0.884767 1.30421 0
M  V30 1873 C 182.716 0.355398 2.31892 0
M  V30 1874 C 183.732 -0.542261 1.65335 0
M  V30 1875 O 184.908 -0.435432 1.96637 0
M  V30 1876 C 181.973 -0.421661 3.44126 0
M  V30 1877 C 181.034 0.505727 4.26311 0
M  V30 1878 C 180.267 -0.234343 5.33185 0
M  V30 1879 O 180.49 -1.46045 5.51386 0
M  V30 1880 O 179.424 0.415443 6.00465 0
M  V30 1881 H 183.25 1.19685 2.79122 0
M  V30 1882 H 180.835 0.648596 1.34587 0
M  V30 1883 H 182.717 -0.861641 4.12497 0
M  V30 1884 H 181.392 -1.23942 2.99032 0
M  V30 1885 H 180.299 0.994513 3.60639 0
M  V30 1886 H 181.632 1.28948 4.75009 0
M  V30 1887 N 183.284 -1.43765 0.645699 0
M  V30 1888 C 184.532 -2.01499 0.155731 0
M  V30 1889 C 184.853 -1.51151 -1.232 0
M  V30 1890 O 184.123 -0.721044 -1.82148 0
M  V30 1891 H 182.703 -0.745003 0.0545817 0
M  V30 1892 H 185.365 -1.76075 0.835677 0
M  V30 1893 H 184.461 -3.1181 0.134577 0
M  V30 1894 N 184.763 -0.387143 -1.52771 0
M  V30 1895 C 185.71 0.449048 -2.26389 0
M  V30 1896 C 186.68 1.05961 -1.27912 0
M  V30 1897 O 187.865 1.08804 -1.56737 0
M  V30 1898 C 185.005 1.57155 -3.0724 0
M  V30 1899 C 184.118 0.984066 -4.20643 0
M  V30 1900 C 183.253 2.07745 -4.88892 0
M  V30 1901 C 182.292 1.46574 -5.94292 0
M  V30 1902 N 181.429 2.49834 -6.56146 0
M  V30 1903 H 186.269 -0.185205 -2.97424 0
M  V30 1904 H 183.806 -0.103164 -1.46738 0
M  V30 1905 H 185.764 2.23309 -3.52405 0
M  V30 1906 H 184.394 2.17615 -2.38419 0
M  V30 1907 H 183.446 0.212193 -3.79808 0
M  V30 1908 H 184.758 0.497029 -4.96318 0
M  V30 1909 H 183.912 2.81673 -5.3735 0
M  V30 1910 H 182.651 2.59807 -4.12737 0
M  V30 1911 H 181.656 0.711696 -5.45174 0
M  V30 1912 H 182.881 0.953088 -6.72379 0
M  V30 1913 H 180.827 3.0107 -5.82832 0
M  V30 1914 H 180.744 2.05879 -7.27427 0
M  V30 1915 H 182.012 3.23399 -7.09249 0
M  V30 1916 N 186.241 1.57166 -0.116904 0
M  V30 1917 C 187.49 1.94298 0.541407 0
M  V30 1918 C 187.803 1.00236 1.67964 0
M  V30 1919 O 189.009 1.26826 2.40057 0
M  V30 1920 C 187.465 3.45306 1.01449 0
M  V30 1921 C 187.073 4.47899 -0.0951738 0
M  V30 1922 C 188.817 3.91361 1.6443 0
M  V30 1923 C 186.724 5.90083 0.394491 0
M  V30 1924 H 185.654 0.725308 0.206019 0
M  V30 1925 H 188.305 1.82446 -0.196419 0
M  V30 1926 H 186.687 3.52385 1.80667 0
M  V30 1927 H 187.861 4.52486 -0.871374 0
M  V30 1928 H 186.176 4.11583 -0.631505 0
M  V30 1929 H 188.773 4.95004 2.02176 0
M  V30 1930 H 189.116 3.3122 2.52189 0
M  V30 1931 H 189.649 3.87073 0.917559 0
M  V30 1932 H 186.388 6.53974 -0.447004 0
M  V30 1933 H 185.908 5.88921 1.13722 0
M  V30 1934 H 187.587 6.41307 0.856399 0
M  V30 1935 N 187.719 -0.156864 1.56817 0
M  V30 1936 C 188.947 -0.886316 1.86955 0
M  V30 1937 C 189.362 -1.75185 0.703975 0
M  V30 1938 O 188.719 -1.79555 -0.326552 0
M  V30 1939 C 188.77 -1.75117 3.16253 0
M  V30 1940 O 188.491 -0.920537 4.2832 0
M  V30 1941 C 189.992 -2.58905 3.59837 0
M  V30 1942 H 187.212 -0.25678 0.619923 0
M  V30 1943 H 189.756 -0.152615 2.0393 0
M  V30 1944 H 187.911 -2.43805 3.01062 0
M  V30 1945 H 188.325 -1.51337 5.02192 0
M  V30 1946 H 189.799 -3.1518 4.53172 0
M  V30 1947 H 190.276 -3.34472 2.84649 0
M  V30 1948 H 190.882 -1.95526 3.7769 0
M  V30 1949 N 189.197 -1.51736 -0.425897 0
M  V30 1950 C 190.445 -1.64644 -1.17204 0
M  V30 1951 C 190.766 -0.370486 -1.91448 0
M  V30 1952 O 190.036 0.614088 -1.86026 0
M  V30 1953 H 188.616 -0.606819 -0.435638 0
M  V30 1954 H 191.278 -1.88713 -0.487177 0
M  V30 1955 H 190.374 -2.47958 -1.89534 0
M  V30 1956 N 190.675 0.682077 -1.42076 0
M  V30 1957 C 191.921 1.44283 -1.43366 0
M  V30 1958 C 192.276 1.92344 -0.0465775 0
M  V30 1959 O 191.569 1.67517 0.929973 0
M  V30 1960 C 191.763 2.66036 -2.38662 0
M  V30 1961 C 191.592 2.29889 -3.86499 0
M  V30 1962 C 190.362 2.19599 -4.55087 0
M  V30 1963 C 192.56 1.91999 -4.77117 0
M  V30 1964 N 190.542 1.76478 -5.87987 0
M  V30 1965 C 191.913 1.59741 -5.99068 0
M  V30 1966 C 193.968 1.78927 -4.64639 0
M  V30 1967 C 192.671 1.15723 -7.0993 0
M  V30 1968 C 194.697 1.36314 -5.75476 0
M  V30 1969 C 194.059 1.04975 -6.96534 0
M  V30 1970 H 190.158 0.524739 -0.579805 0
M  V30 1971 H 192.742 0.787834 -1.78048 0
M  V30 1972 H 190.913 3.29237 -2.06053 0
M  V30 1973 H 192.645 3.32588 -2.30581 0
M  V30 1974 H 189.4 2.38433 -4.09202 0
M  V30 1975 H 189.824 1.57362 -6.58458 0
M  V30 1976 H 194.466 2.01805 -3.7153 0
M  V30 1977 H 192.184 0.91591 -8.02893 0
M  V30 1978 H 195.77 1.26731 -5.6783 0
M  V30 1979 H 194.65 0.725017 -7.80841 0
M  V30 1980 N 192.153 1.28127 0.917671 0
M  V30 1981 C 193.569 1.05749 1.19538 0
M  V30 1982 C 193.769 -0.202633 2.00479 0
M  V30 1983 O 192.825 -0.905382 2.3571 0
M  V30 1984 C 194.138 2.30273 1.93378 0
M  V30 1985 C 195.686 2.35412 2.06277 0
M  V30 1986 C 196.161 3.59692 2.83524 0
M  V30 1987 N 197.652 3.60309 2.91087 0
M  V30 1988 C 198.387 4.53147 3.51348 0
M  V30 1989 N 197.883 5.563 4.12919 0
M  V30 1990 N 199.676 4.40751 3.48849 0
M  V30 1991 H 191.827 2.09024 0.377184 0
M  V30 1992 H 194.09 0.919798 0.22951 0
M  V30 1993 H 193.796 3.22055 1.41328 0
M  V30 1994 H 193.67 2.36378 2.93947 0
M  V30 1995 H 196.057 1.4413 2.57508 0
M  V30 1996 H 196.138 2.33304 1.04895 0
M  V30 1997 H 195.782 4.51316 2.32973 0
M  V30 1998 H 195.712 3.59054 3.85211 0
M  V30 1999 H 198.203 2.85714 2.47338 0
M  V30 2000 H 198.516 6.2329 4.56869 0
M  V30 2001 H 196.861 5.60131 4.11435 0
M  V30 2002 H 200.052 3.59367 2.99955 0
M  V30 2003 H 200.225 5.13291 3.9552 0
M  V30 2004 N 193.631 -1.12557 1.10312 0
M  V30 2005 C 194.908 -1.80363 0.756878 0
M  V30 2006 C 195.288 -1.97067 -0.756824 0
M  V30 2007 O 194.636 -1.54601 -1.68259 0
M  V30 2008 C 194.846 -3.14812 1.50647 0
M  V30 2009 C 196.194 -3.90029 1.67817 0
M  V30 2010 O 197.218 -3.24464 1.46974 0
M  V30 2011 O 196.077 -5.07652 2.02365 0
M  V30 2012 H 193.171 -0.780667 0.272926 0
M  V30 2013 H 195.717 -1.19404 1.20586 0
M  V30 2014 H 194.489 -2.97936 2.53672 0
M  V30 2015 H 194.112 -3.83478 1.05026 0
M  V30 2016 N 195.109 -0.891671 -1.2995 0
M  V30 2017 C 196.339 -0.527893 -1.99742 0
M  V30 2018 C 196.747 0.88979 -1.66971 0
M  V30 2019 O 196.09 1.59766 -0.906667 0
M  V30 2020 C 196.152 -0.630804 -3.53922 0
M  V30 2021 C 195.816 -2.01401 -4.10228 0
M  V30 2022 C 196.813 -2.98422 -4.25724 0
M  V30 2023 C 194.498 -2.32121 -4.45449 0
M  V30 2024 C 196.492 -4.24293 -4.75662 0
M  V30 2025 C 194.179 -3.58237 -4.95086 0
M  V30 2026 C 195.177 -4.54137 -5.10146 0
M  V30 2027 O 194.865 -5.78014 -5.58708 0
M  V30 2028 H 194.597 -0.201953 -0.645129 0
M  V30 2029 H 197.151 -1.20076 -1.66646 0
M  V30 2030 H 195.381 0.0990616 -3.86573 0
M  V30 2031 H 197.07 -0.277338 -4.04951 0
M  V30 2032 H 197.836 -2.76001 -3.98809 0
M  V30 2033 H 193.715 -1.5824 -4.32991 0
M  V30 2034 H 197.259 -4.99153 -4.87332 0
M  V30 2035 H 193.156 -3.80491 -5.21437 0
M  V30 2036 H 193.924 -5.8049 -5.77039 0
M  V30 2037 N 196.587 1.43421 -0.653314 0
M  V30 2038 C 197.834 2.01812 -0.166745 0
M  V30 2039 C 198.162 1.51535 1.21931 0
M  V30 2040 O 197.417 0.698975 1.82792 0
M  V30 2041 C 197.716 3.57176 -0.126623 0
M  V30 2042 C 197.382 4.26798 -1.45444 0
M  V30 2043 C 196.044 4.45534 -1.81805 0
M  V30 2044 C 198.396 4.66225 -2.32989 0
M  V30 2045 C 195.724 5.00961 -3.05377 0
M  V30 2046 C 198.076 5.23021 -3.55853 0
M  V30 2047 C 196.74 5.39973 -3.9241 0
M  V30 2048 H 196.01 0.738484 -0.0610162 0
M  V30 2049 H 198.657 1.71896 -0.84404 0
M  V30 2050 H 196.962 3.86634 0.634123 0
M  V30 2051 H 198.659 4.00112 0.266723 0
M  V30 2052 H 195.249 4.12561 -1.16153 0
M  V30 2053 H 199.433 4.51443 -2.06187 0
M  V30 2054 H 194.689 5.12271 -3.3375 0
M  V30 2055 H 198.863 5.52518 -4.23907 0
M  V30 2056 H 196.49 5.82687 -4.88242 0
M  V30 2057 N 198.065 0.39524 1.52563 0
M  V30 2058 C 199.342 -0.242908 1.94086 0
M  V30 2059 C 199.722 -1.63841 1.33114 0
M  V30 2060 O 199.07 -2.22928 0.501529 0
M  V30 2061 C 199.28 -0.26327 3.48006 0
M  V30 2062 C 200.628 -0.489354 4.21771 0
M  V30 2063 O 201.652 -0.343226 3.54543 0
M  V30 2064 O 200.511 -0.776169 5.4096 0
M  V30 2065 H 197.605 -0.152536 0.812811 0
M  V30 2066 H 200.151 0.450178 1.6362 0
M  V30 2067 H 198.923 0.713985 3.84731 0
M  V30 2068 H 198.546 -1.00103 3.84792 0
M  V30 2069 N 199.544 -1.57102 0.125237 0
M  V30 2070 C 200.474 -2.18659 -0.819174 0
M  V30 2071 C 201.455 -1.12843 -1.27281 0
M  V30 2072 O 202.64 -1.41104 -1.33429 0
M  V30 2073 C 199.77 -2.79096 -2.06695 0
M  V30 2074 C 198.724 -3.90548 -1.75088 0
M  V30 2075 C 198.05 -4.37821 -3.06948 0
M  V30 2076 C 199.35 -5.12356 -1.01435 0
M  V30 2077 H 201.044 -2.9783 -0.306202 0
M  V30 2078 H 198.59 -1.4326 -0.145839 0
M  V30 2079 H 200.543 -3.2082 -2.73226 0
M  V30 2080 H 199.267 -1.97223 -2.60328 0
M  V30 2081 H 197.926 -3.49409 -1.10944 0
M  V30 2082 H 197.574 -3.52799 -3.58527 0
M  V30 2083 H 197.274 -5.12982 -2.86571 0
M  V30 2084 H 198.798 -4.822 -3.74587 0
M  V30 2085 H 200.212 -5.5106 -1.58132 0
M  V30 2086 H 198.609 -5.9314 -0.911319 0
M  V30 2087 H 199.679 -4.849 -0.00218681 0
M  V30 2088 N 201.022 0.148545 -1.56898 0
M  V30 2089 C 202.438 0.501131 -1.51528 0
M  V30 2090 C 202.638 1.83458 -0.833399 0
M  V30 2091 O 201.694 2.49259 -0.40328 0
M  V30 2092 C 203.007 0.512864 -2.96294 0
M  V30 2093 C 204.555 0.598487 -3.07225 0
M  V30 2094 C 205.03 0.640897 -4.53494 0
M  V30 2095 N 206.521 0.703163 -4.57832 0
M  V30 2096 C 207.256 0.756935 -5.68382 0
M  V30 2097 N 206.752 0.770147 -6.88506 0
M  V30 2098 N 208.545 0.797698 -5.56411 0
M  V30 2099 H 200.696 -0.725532 -1.99624 0
M  V30 2100 H 202.959 -0.264358 -0.910395 0
M  V30 2101 H 202.665 -0.398691 -3.49433 0
M  V30 2102 H 202.539 1.35133 -3.52163 0
M  V30 2103 H 204.926 1.50046 -2.54106 0
M  V30 2104 H 205.007 -0.267093 -2.54402 0
M  V30 2105 H 204.651 -0.256915 -5.0725 0
M  V30 2106 H 204.581 1.52295 -5.04097 0
M  V30 2107 H 207.072 0.700314 -3.71354 0
M  V30 2108 H 207.385 0.812983 -7.68512 0
M  V30 2109 H 205.73 0.738049 -6.9107 0
M  V30 2110 H 208.921 0.784535 -4.61479 0
M  V30 2111 H 209.094 0.83614 -6.42583 0
M  V30 2112 N 202.5 1.5196 0.417844 0
M  V30 2113 C 203.41 1.77554 1.53336 0
M  V30 2114 C 204.426 0.660655 1.6097 0
M  V30 2115 O 205.602 0.945099 1.77848 0
M  V30 2116 C 202.667 1.91291 2.89152 0
M  V30 2117 C 201.728 3.15183 2.91475 0
M  V30 2118 C 200.961 3.28256 4.20813 0
M  V30 2119 O 201.184 2.46798 5.14244 0
M  V30 2120 O 200.118 4.21356 4.29817 0
M  V30 2121 H 203.944 2.7222 1.34647 0
M  V30 2122 H 201.529 1.36698 0.602828 0
M  V30 2123 H 203.411 2.02199 3.69721 0
M  V30 2124 H 202.086 0.998129 3.07927 0
M  V30 2125 H 200.993 3.09739 2.09791 0
M  V30 2126 H 202.326 4.06414 2.77648 0
M  V30 2127 N 203.978 -0.674533 1.42435 0
M  V30 2128 C 205.225 -1.43459 1.42919 0
M  V30 2129 C 205.553 -1.94446 0.0457312 0
M  V30 2130 O 204.808 -1.7132 -0.94593 0
M  V30 2131 C 205.107 -2.64767 2.40069 0
M  V30 2132 C 204.773 -2.3232 3.86443 0
M  V30 2133 C 203.435 -2.23182 4.26314 0
M  V30 2134 C 205.787 -2.05977 4.78773 0
M  V30 2135 C 203.115 -1.85827 5.56494 0
M  V30 2136 C 205.467 -1.70125 6.09295 0
M  V30 2137 C 204.131 -1.59498 6.48164 0
M  V30 2138 H 203.401 -0.524952 0.522978 0
M  V30 2139 H 206.048 -0.769097 1.75377 0
M  V30 2140 H 204.353 -3.36349 2.00939 0
M  V30 2141 H 206.05 -3.22949 2.37707 0
M  V30 2142 H 202.64 -2.40334 3.54877 0
M  V30 2143 H 206.824 -2.11969 4.48757 0
M  V30 2144 H 202.08 -1.76168 5.8547 0
M  V30 2145 H 206.254 -1.48767 6.80324 0
M  V30 2146 H 203.881 -1.30322 7.48946 0
M  V30 2147 N 205.456 -1.28612 -0.910864 0
M  V30 2148 C 206.366 -1.14643 -2.0468 0
M  V30 2149 C 207.382 -0.0723121 -1.7385 0
M  V30 2150 O 208.558 -0.282178 -1.99413 0
M  V30 2151 C 205.623 -0.812561 -3.37044 0
M  V30 2152 C 204.684 -1.96935 -3.81465 0
M  V30 2153 C 203.917 -1.65131 -5.07511 0
M  V30 2154 O 204.14 -0.567013 -5.67575 0
M  V30 2155 O 203.074 -2.49585 -5.47714 0
M  V30 2156 H 206.9 -2.1001 -2.19384 0
M  V30 2157 H 204.485 -1.07958 -1.03274 0
M  V30 2158 H 206.367 -0.640441 -4.16505 0
M  V30 2159 H 205.042 0.111426 -3.23508 0
M  V30 2160 H 203.949 -2.19664 -3.02818 0
M  V30 2161 H 205.282 -2.87414 -3.99567 0
M  V30 2162 N 206.934 1.1197 -1.10907 0
M  V30 2163 C 207.844 2.21433 -0.774896 0
M  V30 2164 C 208.86 1.72478 0.229657 0
M  V30 2165 O 210.036 2.01288 0.0672008 0
M  V30 2166 C 207.101 3.4602 -0.216986 0
M  V30 2167 C 206.162 4.09791 -1.27944 0
M  V30 2168 C 205.395 5.28431 -0.748055 0
M  V30 2169 O 205.618 5.68823 0.423833 0
M  V30 2170 O 204.552 5.82644 -1.51027 0
M  V30 2171 H 208.378 2.5242 -1.68873 0
M  V30 2172 H 205.963 1.20399 -0.884555 0
M  V30 2173 H 207.845 4.21304 0.090059 0
M  V30 2174 H 206.52 3.16698 0.669633 0
M  V30 2175 H 205.427 3.36265 -1.63941 0
M  V30 2176 H 206.76 4.4328 -2.13925 0
M  V30 2177 N 208.412 0.89855 1.29475 0
M  V30 2178 C 209.375 0.380272 2.26023 0
M  V30 2179 C 210.375 -0.484891 1.53315 0
M  V30 2180 O 211.565 -0.290108 1.71767 0
M  V30 2181 C 208.697 -0.45651 3.3783 0
M  V30 2182 H 209.89 1.23295 2.73383 0
M  V30 2183 H 207.443 0.676589 1.40897 0
M  V30 2184 H 208.178 -1.32922 2.95808 0
M  V30 2185 H 207.963 0.163393 3.91759 0
M  V30 2186 H 209.453 -0.810466 4.0966 0
M  V30 2187 N 209.89 -1.43072 0.660911 0
M  V30 2188 C 211.136 -2.0202 0.177708 0
M  V30 2189 C 211.469 -1.52066 -1.20787 0
M  V30 2190 O 210.744 -0.716987 -1.80802 0
M  V30 2191 C 211.027 -3.59561 0.197019 0
M  V30 2192 C 210.88 -4.19727 1.61706 0
M  V30 2193 C 212.199 -4.37664 -0.462396 0
M  V30 2194 H 209.318 -0.734034 0.0660494 0
M  V30 2195 H 211.96 -1.70272 0.843058 0
M  V30 2196 H 210.11 -3.86739 -0.369527 0
M  V30 2197 H 211.782 -4.03553 2.23479 0
M  V30 2198 H 210.025 -3.76084 2.16201 0
M  V30 2199 H 210.696 -5.28834 1.58237 0
M  V30 2200 H 213.172 -4.16095 0.0197215 0
M  V30 2201 H 212.048 -5.47305 -0.418188 0
M  V30 2202 H 212.309 -4.14493 -1.53778 0
M  V30 2203 N 211.368 -0.403325 -1.52352 0
M  V30 2204 C 212.645 0.232611 -1.94212 0
M  V30 2205 C 213.025 1.63133 -1.33981 0
M  V30 2206 O 212.373 2.22659 -0.513344 0
M  V30 2207 C 212.583 0.244811 -3.4814 0
M  V30 2208 C 213.931 0.46698 -4.22024 0
M  V30 2209 O 214.955 0.324419 -3.5472 0
M  V30 2210 O 213.814 0.74747 -5.41364 0
M  V30 2211 H 210.908 0.148223 -0.813609 0
M  V30 2212 H 213.454 -0.458848 -1.63379 0
M  V30 2213 H 212.226 -0.734378 -3.84347 0
M  V30 2214 H 211.849 0.980611 -3.85318 0
M  V30 2215 N 212.846 1.57033 -0.133567 0
M  V30 2216 C 213.776 2.1909 0.807567 0
M  V30 2217 C 214.757 1.13517 1.26681 0
M  V30 2218 O 215.942 1.41809 1.32679 0
M  V30 2219 C 213.072 2.80188 2.05212 0
M  V30 2220 C 212.026 3.91471 1.73015 0
M  V30 2221 C 211.352 4.39443 3.04622 0
M  V30 2222 C 212.652 5.12886 0.987168 0
M  V30 2223 H 214.346 2.97988 0.290403 0
M  V30 2224 H 211.892 1.43335 0.138239 0
M  V30 2225 H 213.845 3.22264 2.71521 0
M  V30 2226 H 212.569 1.98601 2.59278 0
M  V30 2227 H 211.228 3.49993 1.0909 0
M  V30 2228 H 210.876 3.54695 3.56651 0
M  V30 2229 H 210.576 5.14495 2.83847 0
M  V30 2230 H 212.1 4.8418 3.72024 0
M  V30 2231 H 213.514 5.51891 1.55208 0
M  V30 2232 H 211.911 5.93615 0.87985 0
M  V30 2233 H 212.981 4.84894 -0.0235286 0
M  V30 2234 N 214.325 -0.140222 1.56975 0
M  V30 2235 C 215.736 -0.699596 1.73097 0
M  V30 2236 C 216.087 -1.8134 0.749022 0
M  V30 2237 O 215.212 -2.16241 -0.0828503 0
M  V30 2238 C 215.807 -1.27582 3.1386 0
M  V30 2239 C 214.366 -1.78169 3.31561 0
M  V30 2240 C 213.513 -0.672855 2.69013 0
M  V30 2241 H 216.464 0.0855115 1.58469 0
M  V30 2242 H 216.485 -2.14561 3.14235 0
M  V30 2243 H 215.997 -0.464955 3.85305 0
M  V30 2244 H 214.098 -2.61801 2.65124 0
M  V30 2245 H 214.211 -1.90574 4.39566 0
M  V30 2246 H 212.575 -1.10118 2.29665 0
M  V30 2247 H 213.358 0.126679 3.43066 0
M  V30 2248 N 215.803 -1.52179 -0.40978 0
M  V30 2249 C 216.733 -1.78435 -1.5061 0
M  V30 2250 C 217.714 -0.635295 -1.57791 0
M  V30 2251 O 218.899 -0.880823 -1.73076 0
M  V30 2252 C 216.029 -1.93444 -2.88439 0
M  V30 2253 C 214.983 -3.09038 -2.96108 0
M  V30 2254 C 214.309 -3.09268 -4.36185 0
M  V30 2255 C 215.609 -4.48508 -2.67652 0
M  V30 2256 H 217.303 -2.70237 -1.28889 0
M  V30 2257 H 214.849 -1.30036 -0.618605 0
M  V30 2258 H 216.802 -2.10394 -3.65119 0
M  V30 2259 H 215.526 -0.983129 -3.11452 0
M  V30 2260 H 214.185 -2.91837 -2.21872 0
M  V30 2261 H 213.833 -2.11861 -4.56206 0
M  V30 2262 H 213.533 -3.86907 -4.42241 0
M  V30 2263 H 215.057 -3.28348 -5.14801 0
M  V30 2264 H 216.471 -4.65918 -3.34056 0
M  V30 2265 H 214.868 -5.28059 -2.85085 0
M  V30 2266 H 215.938 -4.56649 -1.63095 0
M  V30 2267 N 217.281 0.66697 -1.42791 0
M  V30 2268 C 218.697 0.981027 -1.25889 0
M  V30 2269 C 218.897 2.00793 -0.168695 0
M  V30 2270 O 217.953 2.48321 0.45747 0
M  V30 2271 C 219.266 1.47838 -2.61848 0
M  V30 2272 C 220.814 1.59575 -2.69267 0
M  V30 2273 C 221.289 2.12704 -4.05612 0
M  V30 2274 N 222.78 2.20026 -4.07606 0
M  V30 2275 C 223.515 2.62227 -5.09926 0
M  V30 2276 N 223.011 3.03824 -6.22626 0
M  V30 2277 N 224.804 2.62045 -4.97281 0
M  V30 2278 H 216.955 -0.0127891 -2.12396 0
M  V30 2279 H 219.218 0.0568258 -0.946295 0
M  V30 2280 H 218.924 0.798299 -3.4252 0
M  V30 2281 H 218.798 2.45579 -2.86305 0
M  V30 2282 H 221.185 2.26687 -1.88936 0
M  V30 2283 H 221.266 0.60302 -2.48591 0
M  V30 2284 H 220.91 1.46198 -4.86404 0
M  V30 2285 H 220.84 3.12782 -4.23645 0
M  V30 2286 H 223.331 1.90708 -3.2625 0
M  V30 2287 H 223.644 3.34734 -6.96544 0
M  V30 2288 H 221.989 3.01662 -6.26119 0
M  V30 2289 H 225.18 2.28916 -4.08308 0
M  V30 2290 H 225.353 2.94613 -5.77154 0
M  V30 2291 N 218.759 1.29093 0.90403 0
M  V30 2292 C 220.007 1.16583 1.65085 0
M  V30 2293 C 220.328 -0.283933 1.92922 0
M  V30 2294 O 219.598 -1.19509 1.55224 0
M  V30 2295 H 218.178 0.428467 0.611903 0
M  V30 2296 H 220.84 1.61959 1.08422 0
M  V30 2297 H 219.936 1.71266 2.6091 0
M  V30 2298 O 220.276 -1.03933 1.23613 0
M  V30 2299 H 220.967 -1.65369 1.0086 0
M  V30 END ATOM
M  V30 BEGIN BOND
M  V30 END BOND
M  V30 END CTAB
M  END
$$$$
