drugbank_target|Q9ZGH3 dTDP-glucose 4,6-dehydratase (DB03751)
 OpenBabel12092120233D

  0  0  0     0  0            999 V3000
M  V30 BEGIN CTAB
M  V30 COUNTS 5085 5142 0 0 0
M  V30 BEGIN ATOM
M  V30 1 H -0.908 1.98254 -0.117106 0
M  V30 2 N 0 1.576 0 0
M  V30 3 C 0.933 2.03868 1.02534 0
M  V30 4 C 1.911 0.928543 1.3348 0
M  V30 5 O 3.095 1.19667 1.45644 0
M  V30 6 C 0.222 2.43627 2.35294 0
M  V30 7 C -0.732 3.65373 2.2001 0
M  V30 8 S 0.101 5.13292 1.52614 0
M  V30 9 C 1.257 5.56322 2.86805 0
M  V30 10 H 1.49 2.90518 0.631377 0
M  V30 11 H -0.977 1.52953 0.210867 0
M  V30 12 H 0.981 2.67203 3.11629 0
M  V30 13 H -0.358 1.57376 2.7183 0
M  V30 14 H -1.165 3.90944 3.18086 0
M  V30 15 H -1.563 3.418 1.51819 0
M  V30 16 H 0.729 5.58782 3.83104 0
M  V30 17 H 1.672 6.56266 2.65933 0
M  V30 18 H 2.08 4.83886 2.90714 0
M  V30 19 N 1.4781 -0.272755 1.55222 0
M  V30 20 C 2.8941 -0.619959 1.47067 0
M  V30 21 C 3.0941 -1.895 0.684978 0
M  V30 22 O 2.1501 -2.51675 0.203931 0
M  V30 23 C 3.4631 -0.746693 2.91282 0
M  V30 24 C 5.0111 -0.840731 3.01497 0
M  V30 25 C 5.4861 -0.99924 4.46967 0
M  V30 26 N 6.9771 -1.06476 4.50796 0
M  V30 27 C 7.7121 -1.20621 5.6057 0
M  V30 28 N 7.2081 -1.31483 6.80209 0
M  V30 29 N 9.0011 -1.23733 5.48312 0
M  V30 30 H 1.1521 0.564606 2.04758 0
M  V30 31 H 3.4151 0.191177 0.928523 0
M  V30 32 H 3.1211 0.119753 3.51496 0
M  V30 33 H 2.9951 -1.6269 3.40311 0
M  V30 34 H 5.3821 -1.69764 2.41379 0
M  V30 35 H 5.4631 0.0640874 2.5572 0
M  V30 36 H 5.1071 -0.146984 5.07687 0
M  V30 37 H 5.0371 -1.91871 4.90401 0
M  V30 38 H 7.5281 -0.993196 3.64615 0
M  V30 39 H 7.8411 -1.42111 7.59621 0
M  V30 40 H 6.1861 -1.28487 6.8302 0
M  V30 41 H 9.3771 -1.14877 4.53785 0
M  V30 42 H 9.5501 -1.34412 6.33906 0
M  V30 43 N 2.9562 -1.48159 -0.537278 0
M  V30 44 C 3.8862 -1.65029 -1.6519 0
M  V30 45 C 4.8672 -0.499281 -1.62607 0
M  V30 46 O 6.0522 -0.730972 -1.79918 0
M  V30 47 C 3.1822 -1.68303 -3.03795 0
M  V30 48 C 2.1362 -2.8283 -3.21234 0
M  V30 49 C 1.4622 -2.71189 -4.60826 0
M  V30 50 C 2.7622 -4.24211 -3.04701 0
M  V30 51 H 4.4562 -2.58341 -1.51328 0
M  V30 52 H 2.0022 -1.24325 -0.726585 0
M  V30 53 H 3.9552 -1.78693 -3.81637 0
M  V30 54 H 2.6792 -0.715635 -3.18663 0
M  V30 55 H 1.3382 -2.71983 -2.45807 0
M  V30 56 H 0.9862 -1.72435 -4.7252 0
M  V30 57 H 0.6862 -3.48035 -4.7344 0
M  V30 58 H 2.2102 -2.83537 -5.40777 0
M  V30 59 H 3.6242 -4.3593 -3.72341 0
M  V30 60 H 2.0212 -5.01998 -3.28813 0
M  V30 61 H 3.0912 -4.41184 -2.01209 0
M  V30 62 N 4.4343 0.785586 -1.36625 0
M  V30 63 C 5.3643 1.91259 -1.33949 0
M  V30 64 C 6.3453 1.68795 -0.210325 0
M  V30 65 O 7.5303 1.89854 -0.408561 0
M  V30 66 C 4.6603 3.28339 -1.13186 0
M  V30 67 C 3.6143 3.65335 -2.22967 0
M  V30 68 C 2.9403 5.00806 -1.87342 0
M  V30 69 C 4.2403 3.7352 -3.65075 0
M  V30 70 H 5.9343 1.93755 -2.28253 0
M  V30 71 H 3.4803 0.930788 -1.09874 0
M  V30 72 H 5.4333 4.06804 -1.09948 0
M  V30 73 H 4.1573 3.2624 -0.153332 0
M  V30 74 H 2.8163 2.89169 -2.25337 0
M  V30 75 H 2.4643 4.95233 -0.880545 0
M  V30 76 H 2.1643 5.26529 -2.60846 0
M  V30 77 H 3.6883 5.81687 -1.85667 0
M  V30 78 H 5.1023 4.42168 -3.64911 0
M  V30 79 H 3.4993 4.10731 -4.37516 0
M  V30 80 H 4.5693 2.74527 -3.99703 0
M  V30 81 N 5.9124 1.20967 1.01018 0
M  V30 82 C 7.1584 1.02526 1.74975 0
M  V30 83 C 7.4914 -0.4408 1.89131 0
M  V30 84 O 6.7664 -1.32718 1.42184 0
M  V30 85 C 7.0494 1.71699 3.1653 0
M  V30 86 C 6.9024 3.25791 3.10129 0
M  V30 87 C 8.2214 1.45531 4.15342 0
M  V30 88 H 5.3404 0.373863 0.635134 0
M  V30 89 H 7.9824 1.49071 1.17805 0
M  V30 90 H 6.1324 1.32128 3.65341 0
M  V30 91 H 7.8044 3.74697 2.69072 0
M  V30 92 H 6.0474 3.56363 2.47362 0
M  V30 93 H 6.7184 3.69353 4.10222 0
M  V30 94 H 9.1944 1.79872 3.75213 0
M  V30 95 H 8.0704 1.96453 5.1254 0
M  V30 96 H 8.3314 0.384237 4.40427 0
M  V30 97 N 7.3905 -1.2043 1.01659 0
M  V30 98 C 8.6185 -1.93777 0.725132 0
M  V30 99 C 9.0335 -1.74772 -0.714166 0
M  V30 100 O 8.3905 -1.06169 -1.4844 0
M  V30 101 C 8.4415 -3.45876 1.05129 0
M  V30 102 O 8.1625 -3.6426 2.43406 0
M  V30 103 C 9.6635 -4.36368 0.780891 0
M  V30 104 H 6.8835 -0.615901 0.266284 0
M  V30 105 H 9.4275 -1.52922 1.35776 0
M  V30 106 H 7.5825 -3.8461 0.464065 0
M  V30 107 H 7.9965 -4.58246 2.55169 0
M  V30 108 H 9.4705 -5.41743 1.05918 0
M  V30 109 H 9.9475 -4.38275 -0.284937 0
M  V30 110 H 10.5535 -4.03296 1.35027 0
M  V30 111 N 8.8686 -0.792821 -1.36206 0
M  V30 112 C 10.1166 -0.366062 -1.98757 0
M  V30 113 C 10.4376 1.0668 -1.63231 0
M  V30 114 O 9.7076 1.73587 -0.907978 0
M  V30 115 H 8.2876 -0.132364 -0.735179 0
M  V30 116 H 10.9496 -1.01562 -1.66347 0
M  V30 117 H 10.0456 -0.460638 -3.08682 0
M  V30 118 N 10.3467 1.47872 -0.545128 0
M  V30 119 C 11.5947 2.02093 -0.016553 0
M  V30 120 C 11.9157 1.42305 1.3332 0
M  V30 121 O 11.1857 0.593853 1.86682 0
M  V30 122 H 9.7657 0.746993 -0.00313038 0
M  V30 123 H 12.4277 1.81414 -0.712397 0
M  V30 124 H 11.5237 3.11996 0.0805422 0
M  V30 125 N 11.8248 0.280983 1.55075 0
M  V30 126 C 12.7878 -0.590896 2.21452 0
M  V30 127 C 13.7878 -1.07682 1.19421 0
M  V30 128 O 14.9778 -0.97605 1.44288 0
M  V30 129 C 12.1098 -1.81587 2.88511 0
M  V30 130 H 13.3028 -0.0112554 2.99898 0
M  V30 131 H 10.8558 0.0316438 1.56268 0
M  V30 132 H 11.5908 -2.43587 2.14093 0
M  V30 133 H 11.3758 -1.4753 3.63287 0
M  V30 134 H 12.8658 -2.43575 3.39206 0
M  V30 135 N 13.3029 -1.57598 0.00835791 0
M  V30 136 C 14.5509 -1.90551 -0.6734 0
M  V30 137 C 14.8719 -0.883301 -1.73847 0
M  V30 138 O 14.1419 0.0781442 -1.95744 0
M  V30 139 H 12.7219 -0.703312 -0.251717 0
M  V30 140 H 15.3839 -1.94833 0.0512592 0
M  V30 141 H 14.4799 -2.9056 -1.13935 0
M  V30 142 N 14.781 0.264519 -1.55364 0
M  V30 143 C 16.028 0.994986 -1.7637 0
M  V30 144 C 16.356 1.85976 -0.5695 0
M  V30 145 O 15.611 1.90509 0.44776 0
M  V30 146 C 15.91 1.9004 -3.02687 0
M  V30 147 C 15.576 1.19243 -4.34847 0
M  V30 148 C 14.238 0.996709 -4.70764 0
M  V30 149 C 16.59 0.689296 -5.16622 0
M  V30 150 C 13.918 0.285261 -5.86006 0
M  V30 151 C 16.27 -0.00860079 -6.32599 0
M  V30 152 C 14.934 -0.215963 -6.67151 0
M  V30 153 H 14.204 0.364091 -0.645383 0
M  V30 154 H 16.851 0.266543 -1.89636 0
M  V30 155 H 15.156 2.69533 -2.84357 0
M  V30 156 H 16.853 2.46695 -3.16137 0
M  V30 157 H 13.443 1.3549 -4.06621 0
M  V30 158 H 17.627 0.828108 -4.89342 0
M  V30 159 H 12.883 0.113961 -6.11294 0
M  V30 160 H 17.057 -0.406186 -6.95214 0
M  V30 161 H 14.684 -0.769217 -7.56298 0
M  V30 162 N 16.2591 1.48442 0.529413 0
M  V30 163 C 17.5081 1.55742 1.28169 0
M  V30 164 C 17.8211 0.236511 1.94165 0
M  V30 165 O 19.0271 0.187761 2.7085 0
M  V30 166 C 17.4831 2.74667 2.32564 0
M  V30 167 C 17.0911 4.13402 1.72636 0
M  V30 168 C 18.8351 2.9128 3.08798 0
M  V30 169 C 16.7421 5.23587 2.74975 0
M  V30 170 H 15.6721 0.579796 0.48203 0
M  V30 171 H 18.3231 1.74776 0.559056 0
M  V30 172 H 16.7051 2.49067 3.07866 0
M  V30 173 H 17.8791 4.49022 1.03519 0
M  V30 174 H 16.1941 4.0191 1.08892 0
M  V30 175 H 18.7911 3.70767 3.85274 0
M  V30 176 H 19.1341 2.00757 3.64695 0
M  V30 177 H 19.6671 3.16782 2.40611 0
M  V30 178 H 16.4061 6.16076 2.23897 0
M  V30 179 H 15.9261 4.92454 3.42417 0
M  V30 180 H 17.6051 5.51724 3.37949 0
M  V30 181 N 17.7372 -0.778329 1.37039 0
M  V30 182 C 18.9852 -1.53361 1.31623 0
M  V30 183 C 19.3062 -1.94739 -0.100831 0
M  V30 184 O 18.5762 -1.65797 -1.04347 0
M  V30 185 H 17.1562 -0.568794 0.484234 0
M  V30 186 H 19.8182 -0.926742 1.71457 0
M  V30 187 H 18.9142 -2.43606 1.95096 0
M  V30 188 N 19.2153 -1.21501 -1.00376 0
M  V30 189 C 20.4403 -1.05977 -1.78279 0
M  V30 190 C 20.8653 0.385994 -1.84097 0
M  V30 191 O 20.2233 1.27849 -1.28547 0
M  V30 192 C 20.2713 -1.66302 -3.19963 0
M  V30 193 O 19.3753 -0.909333 -4.0225 0
M  V30 194 H 18.7163 -0.372906 -0.549397 0
M  V30 195 H 21.2463 -1.6107 -1.26165 0
M  V30 196 H 21.2563 -1.70574 -3.70632 0
M  V30 197 H 19.9313 -2.71515 -3.15043 0
M  V30 198 H 18.5083 -0.941795 -3.60811 0
M  V30 199 N 20.6934 1.19889 -1.02296 0
M  V30 200 C 21.6434 2.20777 -0.56934 0
M  V30 201 C 22.6274 1.56379 0.378741 0
M  V30 202 O 23.8194 1.75859 0.200673 0
M  V30 203 C 20.9484 3.43196 0.0845077 0
M  V30 204 C 20.0344 4.14749 -0.88566 0
M  V30 205 N 20.4254 4.62584 -2.04573 0
M  V30 206 C 18.7234 4.40347 -0.707835 0
M  V30 207 C 19.4244 5.17466 -2.65714 0
M  V30 208 N 18.4004 5.0791 -1.93723 0
M  V30 209 H 22.2024 2.55434 -1.45365 0
M  V30 210 H 19.7164 1.35897 -0.88915 0
M  V30 211 H 21.7134 4.14707 0.427067 0
M  V30 212 H 20.3734 3.10042 0.964574 0
M  V30 213 H 21.3844 4.57597 -2.4254 0
M  V30 214 H 18.0614 4.17317 0.12364 0
M  V30 215 H 19.4514 5.64808 -3.63925 0
M  V30 216 N 22.1715 0.800033 1.35784 0
M  V30 217 C 23.4185 0.377342 1.98953 0
M  V30 218 C 23.7465 -1.05378 1.6348 0
M  V30 219 O 23.0015 -1.74459 0.886707 0
M  V30 220 C 23.3005 0.500276 3.53881 0
M  V30 221 C 22.9665 1.89375 4.09204 0
M  V30 222 C 21.6285 2.27499 4.24025 0
M  V30 223 C 23.9805 2.8057 4.39238 0
M  V30 224 C 21.3085 3.562 4.66195 0
M  V30 225 C 23.6605 4.0871 4.82844 0
M  V30 226 C 22.3245 4.46843 4.95871 0
M  V30 227 H 21.5945 0.138079 0.728021 0
M  V30 228 H 24.2415 1.01955 1.62103 0
M  V30 229 H 22.5465 -0.225405 3.91151 0
M  V30 230 H 24.2435 0.154097 4.00704 0
M  V30 231 H 20.8335 1.58753 3.98115 0
M  V30 232 H 25.0175 2.52367 4.27346 0
M  V30 233 H 20.2735 3.85602 4.74469 0
M  V30 234 H 24.4475 4.79481 5.05046 0
M  V30 235 H 22.0745 5.46623 5.28306 0
M  V30 236 N 23.6496 -1.47581 0.552962 0
M  V30 237 C 24.8956 -2.02782 0.0273648 0
M  V30 238 C 25.2286 -1.42687 -1.31734 0
M  V30 239 O 24.5036 -0.580897 -1.85623 0
M  V30 240 C 24.7866 -3.60031 -0.0702371 0
M  V30 241 C 24.6396 -4.30566 1.30126 0
M  V30 242 C 25.9586 -4.33028 -0.785771 0
M  V30 243 H 23.0776 -0.736912 0.0114185 0
M  V30 244 H 25.7196 -1.76056 0.714432 0
M  V30 245 H 23.8696 -3.82932 -0.655382 0
M  V30 246 H 25.5416 -4.19018 1.92929 0
M  V30 247 H 23.7846 -3.91086 1.87709 0
M  V30 248 H 24.4556 -5.39114 1.18573 0
M  V30 249 H 26.9316 -4.15095 -0.288982 0
M  V30 250 H 25.8076 -5.42695 -0.823013 0
M  V30 251 H 26.0686 -4.01945 -1.841 0
M  V30 252 N 25.1277 -0.289203 -1.54924 0
M  V30 253 C 26.5437 0.0645403 -1.59469 0
M  V30 254 C 26.7437 1.53419 -1.30632 0
M  V30 255 O 25.7997 2.2852 -1.074 0
M  V30 256 C 27.1127 -0.32278 -2.98963 0
M  V30 257 C 28.6607 -0.270564 -3.11828 0
M  V30 258 C 29.1357 -0.632532 -4.53611 0
M  V30 259 N 30.6267 -0.584617 -4.59496 0
M  V30 260 C 31.3617 -0.837314 -5.67254 0
M  V30 261 N 30.8577 -1.15536 -6.83098 0
M  V30 262 N 32.6507 -0.765166 -5.56868 0
M  V30 263 H 24.8017 -1.24714 -1.71931 0
M  V30 264 H 27.0647 -0.504809 -0.802416 0
M  V30 265 H 26.7707 -1.34541 -3.24948 0
M  V30 266 H 26.6447 0.32944 -3.75759 0
M  V30 267 H 29.0317 0.742805 -2.85598 0
M  V30 268 H 29.1127 -0.957242 -2.37214 0
M  V30 269 H 28.7567 -1.64365 -4.80569 0
M  V30 270 H 28.6867 0.07609 -5.26545 0
M  V30 271 H 31.1777 -0.349248 -3.76283 0
M  V30 272 H 31.4907 -1.33447 -7.61191 0
M  V30 273 H 29.8357 -1.19328 -6.84679 0
M  V30 274 H 33.0267 -0.516432 -4.65243 0
M  V30 275 H 33.1997 -0.965477 -6.40767 0
M  V30 276 N 26.6058 1.57591 -0.0167156 0
M  V30 277 C 27.5378 2.06343 0.997753 0
M  V30 278 C 28.5508 0.984469 1.29661 0
M  V30 279 O 29.7398 1.26093 1.26344 0
M  V30 280 C 26.8398 2.46255 2.32834 0
M  V30 281 C 26.0128 3.77083 2.21646 0
M  V30 282 C 25.0718 4.0368 3.37534 0
M  V30 283 O 24.0978 4.7411 3.14973 0
M  V30 284 N 25.2998 3.52881 4.60929 0
M  V30 285 H 28.0648 2.93997 0.581875 0
M  V30 286 H 25.6258 1.61002 0.170316 0
M  V30 287 H 27.6178 2.61149 3.09166 0
M  V30 288 H 26.1878 1.64032 2.66106 0
M  V30 289 H 25.4078 3.72106 1.30119 0
M  V30 290 H 26.6958 4.62822 2.11361 0
M  V30 291 H 26.0938 2.95878 4.82154 0
M  V30 292 H 24.6508 3.73076 5.34469 0
M  V30 293 N 28.0839 -0.256276 1.55502 0
M  V30 294 C 29.0139 -1.32102 1.92539 0
M  V30 295 C 29.9949 -1.50684 0.789194 0
M  V30 296 O 31.1799 -1.63449 1.04872 0
M  V30 297 C 28.3099 -2.67752 2.21192 0
M  V30 298 C 27.2639 -2.63878 3.36975 0
M  V30 299 C 26.5899 -4.03236 3.51147 0
M  V30 300 C 27.8899 -2.21682 4.72921 0
M  V30 301 H 29.5839 -1.01351 2.81724 0
M  V30 302 H 27.1299 -0.486105 1.35547 0
M  V30 303 H 29.0829 -3.42365 2.45691 0
M  V30 304 H 27.8069 -3.0012 1.28824 0
M  V30 305 H 26.4659 -1.91722 3.12471 0
M  V30 306 H 26.1139 -4.32854 2.56216 0
M  V30 307 H 25.8139 -4.01535 4.29003 0
M  V30 308 H 27.3379 -4.79563 3.77957 0
M  V30 309 H 28.7519 -2.86023 4.96854 0
M  V30 310 H 27.1489 -2.3111 5.53812 0
M  V30 311 H 28.2189 -1.16833 4.70615 0
M  V30 312 N 29.562 -1.4872 -0.521534 0
M  V30 313 C 30.492 -1.66771 -1.63431 0
M  V30 314 C 31.473 -0.516499 -1.62069 0
M  V30 315 O 32.658 -0.750013 -1.79132 0
M  V30 316 C 29.788 -1.71515 -3.01993 0
M  V30 317 C 28.742 -2.86222 -3.18216 0
M  V30 318 C 28.068 -2.76061 -4.57924 0
M  V30 319 C 29.368 -4.27419 -3.00184 0
M  V30 320 H 31.062 -2.59932 -1.48579 0
M  V30 321 H 28.608 -1.25089 -0.713358 0
M  V30 322 H 30.561 -1.82731 -3.7972 0
M  V30 323 H 29.285 -0.749393 -3.17886 0
M  V30 324 H 27.944 -2.74575 -2.42908 0
M  V30 325 H 27.592 -1.77437 -4.70665 0
M  V30 326 H 27.292 -3.53037 -4.69722 0
M  V30 327 H 28.816 -2.89256 -5.37739 0
M  V30 328 H 30.23 -4.39855 -3.67697 0
M  V30 329 H 28.627 -5.05458 -3.2347 0
M  V30 330 H 29.697 -4.43293 -1.96518 0
M  V30 331 N 31.0401 0.771051 -1.3745 0
M  V30 332 C 32.0031 1.86598 -1.33093 0
M  V30 333 C 33.0031 1.59076 -0.234845 0
M  V30 334 O 34.1931 1.67145 -0.490732 0
M  V30 335 C 31.3251 3.23747 -1.06773 0
M  V30 336 H 32.5181 1.91873 -2.30488 0
M  V30 337 H 30.0711 0.970876 -1.2249 0
M  V30 338 H 30.8061 3.24148 -0.099129 0
M  V30 339 H 30.5911 3.45115 -1.86112 0
M  V30 340 H 32.0811 4.03824 -1.06377 0
M  V30 341 N 32.5182 1.22032 0.997298 0
M  V30 342 C 33.7662 1.04016 1.73278 0
M  V30 343 C 34.0872 -0.426255 1.90284 0
M  V30 344 O 33.3572 -1.30694 1.45931 0
M  V30 345 H 31.9372 0.381897 0.642 0
M  V30 346 H 34.5992 1.5347 1.20137 0
M  V30 347 H 33.6952 1.51441 2.72896 0
M  V30 348 N 33.9963 -1.19345 1.0293 0
M  V30 349 C 34.9593 -2.20793 0.615069 0
M  V30 350 C 35.9593 -1.57553 -0.321533 0
M  V30 351 O 37.1493 -1.73862 -0.108483 0
M  V30 352 C 34.2813 -3.40754 -0.0999222 0
M  V30 353 H 35.4743 -2.58955 1.51269 0
M  V30 354 H 33.0273 -1.3303 0.820534 0
M  V30 355 H 33.7623 -3.0811 -1.01187 0
M  V30 356 H 33.5473 -3.87889 0.57309 0
M  V30 357 H 35.0373 -4.15898 -0.376645 0
M  V30 358 N 35.4744 -0.807222 -1.35358 0
M  V30 359 C 36.7044 -0.399796 -2.02695 0
M  V30 360 C 37.1124 0.994176 -1.60974 0
M  V30 361 O 36.4554 1.65209 -0.803226 0
M  V30 362 C 36.5174 -0.404445 -3.57218 0
M  V30 363 C 36.1814 -1.74904 -4.22206 0
M  V30 364 C 37.1784 -2.70743 -4.4384 0
M  V30 365 C 34.8634 -2.03322 -4.5931 0
M  V30 366 C 36.8574 -3.93183 -5.01683 0
M  V30 367 C 34.5444 -3.26026 -5.16866 0
M  V30 368 C 35.5424 -4.20774 -5.37994 0
M  V30 369 O 35.2304 -5.41312 -5.94337 0
M  V30 370 H 34.9624 -0.160517 -0.656666 0
M  V30 371 H 37.5164 -1.09235 -1.73945 0
M  V30 372 H 35.7464 0.344707 -3.85161 0
M  V30 373 H 37.4354 -0.0192429 -4.05895 0
M  V30 374 H 38.2014 -2.5008 -4.15554 0
M  V30 375 H 34.0804 -1.30384 -4.42178 0
M  V30 376 H 37.6244 -4.6715 -5.1809 0
M  V30 377 H 33.5214 -3.46559 -5.44579 0
M  V30 378 H 34.2894 -5.42618 -6.12787 0
M  V30 379 N 36.9525 1.47285 -0.560781 0
M  V30 380 C 38.3635 1.86258 -0.128343 0
M  V30 381 C 38.7145 1.46699 1.30284 0
M  V30 382 O 37.8395 0.871698 1.98067 0
M  V30 383 C 38.4345 3.38044 -0.22614 0
M  V30 384 C 36.9935 3.76096 0.151283 0
M  V30 385 C 36.1405 2.71335 -0.572084 0
M  V30 386 H 39.0915 1.38752 -0.770297 0
M  V30 387 H 39.1125 3.76441 0.554322 0
M  V30 388 H 38.6245 3.66806 -1.26788 0
M  V30 389 H 36.7255 3.52951 1.19399 0
M  V30 390 H 36.8385 4.78641 -0.209765 0
M  V30 391 H 35.2025 2.54696 -0.0147653 0
M  V30 392 H 35.9855 3.02938 -1.61504 0
M  V30 393 N 38.4306 0.297415 1.54768 0
M  V30 394 C 39.7076 -0.365847 1.92148 0
M  V30 395 C 40.0876 -1.71975 1.22424 0
M  V30 396 O 39.4356 -2.25666 0.358739 0
M  V30 397 C 39.6456 -0.484056 3.45627 0
M  V30 398 C 40.9936 -0.756594 4.17805 0
M  V30 399 O 42.0176 -0.568007 3.51642 0
M  V30 400 O 40.8766 -1.11863 5.34929 0
M  V30 401 H 37.9706 -0.203919 0.801465 0
M  V30 402 H 40.5166 0.34521 1.66152 0
M  V30 403 H 39.2886 0.467865 3.88493 0
M  V30 404 H 38.9116 -1.24372 3.77647 0
M  V30 405 N 39.9087 -1.5758 0.0250728 0
M  V30 406 C 41.1547 -1.91917 -0.655413 0
M  V30 407 C 41.4877 -0.901433 -1.72011 0
M  V30 408 O 40.7627 0.0764069 -1.9435 0
M  V30 409 C 41.0457 -3.36751 -1.27558 0
M  V30 410 C 40.8987 -4.49258 -0.220719 0
M  V30 411 C 42.2177 -3.81469 -2.19475 0
M  V30 412 H 39.3367 -0.697925 -0.23679 0
M  V30 413 H 41.9787 -1.89825 0.0815036 0
M  V30 414 H 40.1287 -3.38664 -1.90365 0
M  V30 415 H 41.8007 -4.59478 0.409601 0
M  V30 416 H 40.0437 -4.31415 0.454264 0
M  V30 417 H 40.7147 -5.47618 -0.694175 0
M  V30 418 H 43.1907 -3.81266 -1.66659 0
M  V30 419 H 42.0667 -4.83512 -2.59822 0
M  V30 420 H 42.3277 -3.16744 -3.08424 0
M  V30 421 N 41.3868 0.248026 -1.55636 0
M  V30 422 C 42.7978 0.817177 -1.67866 0
M  V30 423 C 43.1488 1.86069 -0.622322 0
M  V30 424 O 42.2738 2.15157 0.231618 0
M  V30 425 C 42.8688 1.489 -3.04326 0
M  V30 426 C 41.4278 2.00587 -3.185 0
M  V30 427 C 40.5748 0.856573 -2.63739 0
M  V30 428 H 43.5258 0.0238579 -1.58682 0
M  V30 429 H 43.5468 2.35698 -2.98708 0
M  V30 430 H 43.0588 0.729279 -3.81186 0
M  V30 431 H 41.1598 2.79443 -2.4646 0
M  V30 432 H 41.2728 2.20402 -4.25393 0
M  V30 433 H 39.6368 1.25678 -2.21534 0
M  V30 434 H 40.4198 0.109953 -3.43124 0
M  V30 435 N 42.8649 1.48995 0.513639 0
M  V30 436 C 43.8279 1.64229 1.59879 0
M  V30 437 C 44.8279 0.514696 1.5234 0
M  V30 438 O 46.0179 0.78087 1.55718 0
M  V30 439 C 43.1499 1.62783 2.99524 0
M  V30 440 H 44.3429 2.61004 1.47705 0
M  V30 441 H 41.8959 1.37837 0.736936 0
M  V30 442 H 42.6309 0.675461 3.17188 0
M  V30 443 H 42.4159 2.4466 3.06404 0
M  V30 444 H 43.9059 1.76669 3.78388 0
M  V30 445 N 44.343 -0.763751 1.37857 0
M  V30 446 C 45.62 -1.51244 1.24035 0
M  V30 447 C 46 -2.10472 -0.162649 0
M  V30 448 O 45.348 -1.96206 -1.17112 0
M  V30 449 C 45.558 -2.58694 2.34261 0
M  V30 450 C 46.906 -3.25878 2.72193 0
M  V30 451 O 47.93 -2.68993 2.33497 0
M  V30 452 O 46.789 -4.2874 3.38887 0
M  V30 453 H 43.883 -0.670243 0.484462 0
M  V30 454 H 46.429 -0.800031 1.49658 0
M  V30 455 H 45.201 -2.13105 3.2818 0
M  V30 456 H 44.824 -3.37527 2.10146 0
M  V30 457 N 45.8211 -1.22559 -0.990812 0
M  V30 458 C 46.7311 -1.01394 -2.11557 0
M  V30 459 C 47.7471 0.0383962 -1.73958 0
M  V30 460 O 48.9231 -0.154787 -2.00804 0
M  V30 461 C 45.9881 -0.596569 -3.41529 0
M  V30 462 C 45.0491 -1.72276 -3.93217 0
M  V30 463 C 44.2821 -1.32521 -5.16985 0
M  V30 464 O 44.5051 -0.204909 -5.70032 0
M  V30 465 O 43.4391 -2.14247 -5.62478 0
M  V30 466 H 47.2651 -1.95633 -2.32296 0
M  V30 467 H 44.8501 -1.01172 -1.0993 0
M  V30 468 H 46.7321 -0.374263 -4.19735 0
M  V30 469 H 45.4071 0.316939 -3.22145 0
M  V30 470 H 44.3141 -1.99961 -3.16174 0
M  V30 471 H 45.6471 -2.61421 -4.17037 0
M  V30 472 N 47.2992 1.18797 -1.03562 0
M  V30 473 C 48.5452 1.8893 -0.737113 0
M  V30 474 C 48.8782 1.79837 0.732956 0
M  V30 475 O 48.1532 1.19525 1.5344 0
M  V30 476 C 48.4362 3.39607 -1.19745 0
M  V30 477 C 48.2892 3.57537 -2.72924 0
M  V30 478 C 49.6082 4.33069 -0.783526 0
M  V30 479 H 46.7272 0.686057 -0.269249 0
M  V30 480 H 49.3692 1.39797 -1.28673 0
M  V30 481 H 47.5192 3.81583 -0.729855 0
M  V30 482 H 49.1912 3.24688 -3.27682 0
M  V30 483 H 47.4342 3.00363 -3.12993 0
M  V30 484 H 48.1052 4.63238 -3.00191 0
M  V30 485 H 50.5812 3.98846 -1.18581 0
M  V30 486 H 49.4572 5.3707 -1.13343 0
M  V30 487 H 49.7182 4.40986 0.313681 0
M  V30 488 N 48.7773 0.814389 1.34928 0
M  V30 489 C 50.0263 0.394871 1.97797 0
M  V30 490 C 50.3393 -1.04555 1.65311 0
M  V30 491 O 51.5453 -1.56856 2.21604 0
M  V30 492 C 50.0013 0.655103 3.53888 0
M  V30 493 C 49.6093 2.10858 3.95276 0
M  V30 494 C 51.3533 0.301329 4.23429 0
M  V30 495 C 49.2603 2.31415 5.44244 0
M  V30 496 H 48.1903 0.143913 0.740139 0
M  V30 497 H 50.8413 0.999544 1.53888 0
M  V30 498 H 49.2233 -0.0196253 3.95995 0
M  V30 499 H 50.3973 2.82176 3.64298 0
M  V30 500 H 48.7123 2.42297 3.38646 0
M  V30 501 H 51.3093 0.432869 5.32945 0
M  V30 502 H 51.6523 -0.75331 4.09428 0
M  V30 503 H 52.1853 0.930288 3.86769 0
M  V30 504 H 48.9243 3.35353 5.63222 0
M  V30 505 H 48.4443 1.6463 5.76764 0
M  V30 506 H 50.1233 2.13352 6.10811 0
M  V30 507 N 50.2554 -1.46986 0.568584 0
M  V30 508 C 51.5014 -2.02741 0.0488709 0
M  V30 509 C 51.8344 -1.44077 -1.30214 0
M  V30 510 O 51.1094 -0.600552 -1.84996 0
M  V30 511 C 51.3924 -3.60086 -0.032047 0
M  V30 512 C 51.2454 -4.29162 1.34686 0
M  V30 513 C 52.5644 -4.33838 -0.739798 0
M  V30 514 H 49.6834 -0.736749 0.0192338 0
M  V30 515 H 52.3254 -1.75289 0.733065 0
M  V30 516 H 50.4754 -3.83606 -0.61473 0
M  V30 517 H 52.1474 -4.16948 1.97362 0
M  V30 518 H 50.3904 -3.89073 1.91846 0
M  V30 519 H 51.0614 -5.37826 1.24285 0
M  V30 520 H 53.5374 -4.15378 -0.244939 0
M  V30 521 H 52.4134 -5.43537 -0.765406 0
M  V30 522 H 52.6744 -4.03875 -1.79827 0
M  V30 523 N 51.7335 -0.305618 -1.54608 0
M  V30 524 C 52.6635 0.561482 -2.26649 0
M  V30 525 C 53.6445 1.13415 -1.26772 0
M  V30 526 O 54.8295 1.16262 -1.55553 0
M  V30 527 C 51.9595 1.73122 -3.01075 0
M  V30 528 C 50.9135 1.2887 -4.08138 0
M  V30 529 C 50.2395 2.54396 -4.70305 0
M  V30 530 C 51.5395 0.416578 -5.20636 0
M  V30 531 H 53.2335 -0.0393902 -2.99374 0
M  V30 532 H 50.7795 -0.020385 -1.43986 0
M  V30 533 H 52.7325 2.34396 -3.50195 0
M  V30 534 H 51.4565 2.3584 -2.25936 0
M  V30 535 H 50.1155 0.698991 -3.59875 0
M  V30 536 H 49.7635 3.15439 -3.918 0
M  V30 537 H 49.4635 2.25486 -5.42614 0
M  V30 538 H 50.9875 3.16464 -5.2219 0
M  V30 539 H 52.4015 0.935116 -5.65622 0
M  V30 540 H 50.7985 0.221046 -5.99693 0
M  V30 541 H 51.8685 -0.557162 -4.81688 0
M  V30 542 N 53.2116 1.57565 -0.0334293 0
M  V30 543 C 54.4886 1.83282 0.683163 0
M  V30 544 C 54.8686 0.91823 1.90084 0
M  V30 545 O 54.2166 -0.025113 2.28486 0
M  V30 546 C 54.4266 3.32599 1.0573 0
M  V30 547 C 55.7746 3.99179 1.44711 0
M  V30 548 O 56.7986 3.3712 1.15015 0
M  V30 549 O 55.6576 5.08565 2.0006 0
M  V30 550 H 52.7516 0.755869 0.335546 0
M  V30 551 H 55.2976 1.69589 -0.0614402 0
M  V30 552 H 54.0696 3.90834 0.190828 0
M  V30 553 H 53.6926 3.51415 1.85993 0
M  V30 554 N 54.6897 -0.239769 1.55765 0
M  V30 555 C 55.9147 -0.988373 1.82335 0
M  V30 556 C 56.3397 -1.77886 0.611421 0
M  V30 557 O 55.6977 -1.75889 -0.439639 0
M  V30 558 C 55.7457 -1.89627 3.06715 0
M  V30 559 O 54.8497 -2.98904 2.84131 0
M  V30 560 H 54.1907 -0.280858 0.601677 0
M  V30 561 H 56.7207 -0.258597 2.02959 0
M  V30 562 H 56.7307 -2.30957 3.36338 0
M  V30 563 H 55.4057 -1.31511 3.9456 0
M  V30 564 H 53.9827 -2.61651 2.65694 0
M  V30 565 N 56.1678 -1.49265 -0.50573 0
M  V30 566 C 57.0978 -1.68495 -1.61653 0
M  V30 567 C 58.0788 -0.53366 -1.61512 0
M  V30 568 O 59.2638 -0.76897 -1.78327 0
M  V30 569 C 56.3938 -1.74709 -3.00157 0
M  V30 570 C 55.3478 -2.89581 -3.15162 0
M  V30 571 C 54.6738 -2.80903 -4.5497 0
M  V30 572 C 55.9738 -4.30578 -2.95634 0
M  V30 573 H 57.6678 -2.61493 -1.45814 0
M  V30 574 H 55.2138 -1.25838 -0.70005 0
M  V30 575 H 57.1668 -1.86748 -3.77761 0
M  V30 576 H 55.8908 -0.783067 -3.17074 0
M  V30 577 H 54.5498 -2.77136 -2.39982 0
M  V30 578 H 54.1978 -1.82419 -4.68756 0
M  V30 579 H 53.8978 -3.57999 -4.65951 0
M  V30 580 H 55.4218 -2.94944 -5.34641 0
M  V30 581 H 56.8358 -4.4373 -3.63011 0
M  V30 582 H 55.2328 -5.0886 -3.18091 0
M  V30 583 H 56.3028 -4.45352 -1.91806 0
M  V30 584 N 57.6459 0.756429 -1.3826 0
M  V30 585 C 58.8739 1.54565 -1.3754 0
M  V30 586 C 59.2889 1.88767 0.0355331 0
M  V30 587 O 58.6459 1.52572 1.0014 0
M  V30 588 C 58.6969 2.84654 -2.22833 0
M  V30 589 O 58.4179 2.51912 -3.5843 0
M  V30 590 C 59.9189 3.78807 -2.30261 0
M  V30 591 H 57.1389 0.478353 -0.470553 0
M  V30 592 H 59.6829 0.936381 -1.81803 0
M  V30 593 H 57.8379 3.41965 -1.8204 0
M  V30 594 H 58.2519 3.35325 -4.03308 0
M  V30 595 H 59.7259 4.67045 -2.94233 0
M  V30 596 H 60.2029 4.19038 -1.31545 0
M  V30 597 H 60.8089 3.2742 -2.71433 0
M  V30 598 N 59.124 1.23083 0.984299 0
M  V30 599 C 60.354 1.08556 1.75781 0
M  V30 600 C 60.762 -0.366171 1.85623 0
M  V30 601 O 60.105 -1.26524 1.33182 0
M  V30 602 C 60.167 1.63208 3.20318 0
M  V30 603 C 59.831 3.11922 3.33997 0
M  V30 604 C 60.828 4.09259 3.2063 0
M  V30 605 C 58.513 3.51552 3.58771 0
M  V30 606 C 60.507 5.4421 3.31835 0
M  V30 607 C 58.194 4.86649 3.69616 0
M  V30 608 C 59.192 5.82787 3.56157 0
M  V30 609 O 58.88 7.15431 3.66626 0
M  V30 610 H 58.612 0.380713 0.5586 0
M  V30 611 H 61.166 1.63321 1.2456 0
M  V30 612 H 59.396 1.0286 3.72769 0
M  V30 613 H 61.085 1.44216 3.79416 0
M  V30 614 H 61.851 3.79984 3.01392 0
M  V30 615 H 57.73 2.77239 3.6832 0
M  V30 616 H 61.274 6.1923 3.21247 0
M  V30 617 H 57.171 5.15601 3.88363 0
M  V30 618 H 57.939 7.23127 3.83445 0
M  V30 619 N 60.6021 -1.18246 1.0419 0
M  V30 620 C 61.5651 -2.20128 0.638452 0
M  V30 621 C 62.5651 -1.57885 -0.304805 0
M  V30 622 O 63.7551 -1.73967 -0.0900369 0
M  V30 623 C 60.8871 -3.4084 -0.0637751 0
M  V30 624 H 62.0801 -2.57336 1.54007 0
M  V30 625 H 59.6331 -1.32152 0.834598 0
M  V30 626 H 60.3681 -3.09166 -0.979136 0
M  V30 627 H 60.1531 -3.8726 0.614198 0
M  V30 628 H 61.6431 -4.16274 -0.332512 0
M  V30 629 N 62.0802 -0.821533 -1.34494 0
M  V30 630 C 63.3282 -0.408139 -1.97936 0
M  V30 631 C 63.6492 1.03193 -1.65457 0
M  V30 632 O 62.9192 1.71622 -0.944595 0
M  V30 633 H 61.4992 -0.147928 -0.732206 0
M  V30 634 H 64.1612 -1.05067 -1.64155 0
M  V30 635 H 63.2572 -0.52601 -3.07635 0
M  V30 636 N 63.5583 1.46682 -0.576371 0
M  V30 637 C 64.5063 2.31953 0.17335 0
M  V30 638 C 65.5003 1.44098 0.89062 0
M  V30 639 O 66.7063 1.60759 0.809728 0
M  V30 640 H 63.0813 0.748273 0.0747727 0
M  V30 641 H 65.0523 2.93007 -0.564738 0
M  V30 642 C 63.8013 3.27142 1.17786 0
M  V30 643 H 63.1243 3.94719 0.635361 0
M  V30 644 H 64.5643 3.896 1.67296 0
M  V30 645 C 63.0233 2.52036 2.23561 0
M  V30 646 O 63.5533 2.27877 3.3081 0
M  V30 647 N 61.7593 2.12709 1.97998 0
M  V30 648 H 61.3063 2.32557 1.10792 0
M  V30 649 H 61.2643 1.62776 2.68982 0
M  V30 650 N 65.0364 0.313813 1.54444 0
M  V30 651 C 66.4524 -0.0391619 1.59552 0
M  V30 652 C 66.6524 -1.51322 1.33056 0
M  V30 653 O 65.7084 -2.26782 1.11022 0
M  V30 654 C 67.0214 0.370302 2.98411 0
M  V30 655 C 68.5694 0.320139 3.11358 0
M  V30 656 C 69.0444 0.704617 4.52547 0
M  V30 657 N 70.5354 0.657645 4.58508 0
M  V30 658 C 71.2704 0.927453 5.6585 0
M  V30 659 N 70.7664 1.26389 6.81174 0
M  V30 660 N 72.5594 0.853662 5.5558 0
M  V30 661 H 64.7104 1.27433 1.69925 0
M  V30 662 H 66.9734 0.517511 0.794284 0
M  V30 663 H 66.6794 1.39694 3.22767 0
M  V30 664 H 66.5534 -0.269619 3.76235 0
M  V30 665 H 68.9404 -0.697275 2.86744 0
M  V30 666 H 69.0214 0.99486 2.35661 0
M  V30 667 H 68.6654 1.7199 4.77893 0
M  V30 668 H 68.5954 0.00768843 5.26599 0
M  V30 669 H 71.0864 0.409067 3.75679 0
M  V30 670 H 71.3994 1.4554 7.58972 0
M  V30 671 H 69.7444 1.30206 6.82694 0
M  V30 672 H 72.9354 0.590383 4.64362 0
M  V30 673 H 73.1084 1.0673 6.3915 0
M  V30 674 N 66.5145 -1.57545 0.0417849 0
M  V30 675 C 67.4775 -2.09885 -0.92093 0
M  V30 676 C 68.4775 -1.01648 -1.24596 0
M  V30 677 O 69.6675 -1.27759 -1.1842 0
M  V30 678 C 66.7995 -2.57527 -2.23367 0
M  V30 679 H 67.9925 -2.96236 -0.467382 0
M  V30 680 H 65.5455 -1.5493 -0.206467 0
M  V30 681 H 66.2805 -1.74542 -2.73323 0
M  V30 682 H 66.0655 -3.36613 -2.01083 0
M  V30 683 H 67.5555 -2.98201 -2.92346 0
M  V30 684 N 67.9926 0.231505 -1.5589 0
M  V30 685 C 68.9406 1.30649 -1.92441 0
M  V30 686 C 69.9346 1.49037 -0.805254 0
M  V30 687 O 71.1406 1.50329 -0.990007 0
M  V30 688 H 67.5156 0.437812 -0.611412 0
M  V30 689 H 69.4866 0.970973 -2.82161 0
M  V30 690 C 68.2356 2.65179 -2.24889 0
M  V30 691 H 67.5586 2.51835 -3.10514 0
M  V30 692 H 68.9986 3.39234 -2.54355 0
M  V30 693 C 67.4576 3.19439 -1.07054 0
M  V30 694 O 67.9876 4.00371 -0.326499 0
M  V30 695 N 66.1936 2.77675 -0.85703 0
M  V30 696 H 65.7406 2.11969 -1.46379 0
M  V30 697 H 65.6986 3.14321 -0.0703223 0
M  V30 698 N 69.4707 1.49531 0.497807 0
M  V30 699 C 70.4007 1.6935 1.60757 0
M  V30 700 C 71.3817 0.542218 1.61227 0
M  V30 701 O 72.5667 0.778417 1.77917 0
M  V30 702 C 69.6967 1.76298 2.99226 0
M  V30 703 C 68.6507 2.91248 3.13622 0
M  V30 704 C 67.9767 2.83312 4.53474 0
M  V30 705 C 69.2767 4.3214 2.93346 0
M  V30 706 H 70.9707 2.62263 1.44425 0
M  V30 707 H 68.5167 1.26208 0.693367 0
M  V30 708 H 70.4697 1.88749 3.76765 0
M  V30 709 H 69.1937 0.799871 3.16654 0
M  V30 710 H 67.8527 2.78404 2.38509 0
M  V30 711 H 67.5007 1.84902 4.67782 0
M  V30 712 H 67.2007 3.60465 4.64046 0
M  V30 713 H 68.7247 2.97775 5.33069 0
M  V30 714 H 70.1387 4.45649 3.60652 0
M  V30 715 H 68.5357 5.1054 3.15387 0
M  V30 716 H 69.6057 4.46363 1.89441 0
M  V30 717 N 70.9488 -0.749086 1.3866 0
M  V30 718 C 71.9118 -1.84457 1.36045 0
M  V30 719 C 72.9118 -1.58682 0.260122 0
M  V30 720 O 74.1018 -1.66343 0.517261 0
M  V30 721 C 71.2338 -3.22008 1.11911 0
M  V30 722 H 72.4268 -1.88182 2.33512 0
M  V30 723 H 69.9798 -0.951266 1.24019 0
M  V30 724 H 70.7148 -3.2395 0.150686 0
M  V30 725 H 70.4998 -3.42111 1.91579 0
M  V30 726 H 71.9898 -4.0208 1.12788 0
M  V30 727 N 72.4269 -1.23603 -0.977757 0
M  V30 728 C 73.8379 -1.06424 -1.53398 0
M  V30 729 C 74.1889 0.367578 -1.92726 0
M  V30 730 O 73.3139 1.25465 -1.76316 0
M  V30 731 C 73.9089 -1.92568 -2.78753 0
M  V30 732 C 72.4679 -1.79642 -3.30765 0
M  V30 733 C 71.6149 -1.88111 -2.03739 0
M  V30 734 H 74.5659 -1.37227 -0.797152 0
M  V30 735 H 74.5869 -1.45203 -3.51705 0
M  V30 736 H 74.0989 -2.96771 -2.50098 0
M  V30 737 H 72.1999 -0.782325 -3.64294 0
M  V30 738 H 72.3129 -2.63174 -4.00345 0
M  V30 739 H 70.6769 -1.31723 -2.17994 0
M  V30 740 H 71.4599 -2.93875 -1.77461 0
M  V30 741 N 73.905 1.17692 -1.04816 0
M  V30 742 C 75.151 1.88137 -0.75711 0
M  V30 743 C 75.484 1.80604 0.713841 0
M  V30 744 O 74.759 1.21146 1.52164 0
M  V30 745 C 75.042 3.38318 -1.2334 0
M  V30 746 C 74.895 3.54622 -2.76701 0
M  V30 747 C 76.214 4.32214 -0.829415 0
M  V30 748 H 73.333 0.683163 -0.27651 0
M  V30 749 H 75.975 1.38424 -1.30149 0
M  V30 750 H 74.125 3.80787 -0.770286 0
M  V30 751 H 75.797 3.21194 -3.31107 0
M  V30 752 H 74.04 2.97026 -3.16161 0
M  V30 753 H 74.711 4.60028 -3.05088 0
M  V30 754 H 77.187 3.97565 -1.22805 0
M  V30 755 H 76.063 5.35838 -1.19033 0
M  V30 756 H 76.324 4.41294 0.266891 0
M  V30 757 N 75.3831 0.828654 1.34056 0
M  V30 758 C 76.6601 0.341809 1.9259 0
M  V30 759 C 77.0401 -1.17158 1.75605 0
M  V30 760 O 76.3881 -1.98132 1.13824 0
M  V30 761 C 76.5981 0.777453 3.4023 0
M  V30 762 C 77.9461 0.779579 4.17382 0
M  V30 763 O 78.9701 0.7204 3.48839 0
M  V30 764 O 77.8291 0.857996 5.39723 0
M  V30 765 H 74.9231 0.0946085 0.821571 0
M  V30 766 H 77.4691 0.913827 1.42994 0
M  V30 767 H 76.2411 1.8196 3.46419 0
M  V30 768 H 75.8641 0.181444 3.97186 0
M  V30 769 N 76.8612 -1.46375 0.584142 0
M  V30 770 C 77.8242 -2.28784 -0.138108 0
M  V30 771 C 78.8242 -1.38471 -0.817462 0
M  V30 772 O 80.0142 -1.60833 -0.669199 0
M  V30 773 C 77.1462 -3.18892 -1.20503 0
M  V30 774 H 78.3392 -2.94117 0.586127 0
M  V30 775 H 75.8922 -1.52509 0.342171 0
M  V30 776 H 76.6272 -2.58309 -1.96079 0
M  V30 777 H 76.4122 -3.85388 -0.722384 0
M  V30 778 H 77.9022 -3.80914 -1.71155 0
M  V30 779 N 78.3393 -0.321999 -1.54275 0
M  V30 780 C 79.6163 0.335232 -1.92706 0
M  V30 781 C 79.9963 1.70006 -1.25145 0
M  V30 782 O 79.3443 2.25067 -0.394596 0
M  V30 783 C 79.5543 0.429008 -3.46353 0
M  V30 784 C 80.9023 0.690029 -4.18956 0
M  V30 785 O 81.9263 0.511992 -3.52501 0
M  V30 786 O 80.7853 1.03338 -5.36641 0
M  V30 787 H 77.8793 0.191143 -0.804608 0
M  V30 788 H 80.4253 -0.3716 -1.65581 0
M  V30 789 H 79.1973 -0.529611 -3.87699 0
M  V30 790 H 78.8203 1.18348 -3.79578 0
M  V30 791 N 79.8174 1.5752 -0.0501392 0
M  V30 792 C 81.2284 1.80271 0.485705 0
M  V30 793 C 81.5794 0.96228 1.70981 0
M  V30 794 O 80.7044 0.178578 2.15662 0
M  V30 795 C 81.2994 3.26957 0.887938 0
M  V30 796 C 79.8584 3.5063 1.36877 0
M  V30 797 C 79.0054 2.75165 0.343468 0
M  V30 798 H 81.9564 1.56281 -0.276028 0
M  V30 799 H 81.9774 3.37821 1.75093 0
M  V30 800 H 81.4894 3.881 -0.0031809 0
M  V30 801 H 79.5904 2.94766 2.27911 0
M  V30 802 H 79.7034 4.59343 1.36164 0
M  V30 803 H 78.0674 2.4127 0.816128 0
M  V30 804 H 78.8504 3.39034 -0.539548 0
M  V30 805 N 81.2955 -0.223234 1.56011 0
M  V30 806 C 82.7115 -0.572856 1.48965 0
M  V30 807 C 82.9115 -1.87225 0.74492 0
M  V30 808 O 81.9675 -2.50899 0.283896 0
M  V30 809 C 83.2805 -0.653646 2.9351 0
M  V30 810 C 84.8285 -0.744386 3.0402 0
M  V30 811 C 85.3035 -0.856535 4.49919 0
M  V30 812 N 86.7945 -0.9208 4.53955 0
M  V30 813 C 87.5295 -1.02726 5.64123 0
M  V30 814 N 87.0255 -1.09777 6.84047 0
M  V30 815 N 88.8185 -1.06226 5.51971 0
M  V30 816 H 80.9695 0.629462 2.02858 0
M  V30 817 H 83.2325 0.220621 0.921971 0
M  V30 818 H 82.9385 0.231518 3.50937 0
M  V30 819 H 82.8125 -1.51781 3.45315 0
M  V30 820 H 85.1995 -1.61999 2.46658 0
M  V30 821 H 85.2805 0.14541 2.55386 0
M  V30 822 H 84.9245 0.0146069 5.07898 0
M  V30 823 H 84.8545 -1.76172 4.96257 0
M  V30 824 H 87.3455 -0.876694 3.6759 0
M  V30 825 H 87.6585 -1.17872 7.63758 0
M  V30 826 H 86.0035 -1.06693 6.86762 0
M  V30 827 H 89.1945 -1.00382 4.5721 0
M  V30 828 H 89.3675 -1.14177 6.37862 0
M  V30 829 N 82.7736 -1.49793 -0.48987 0
M  V30 830 C 83.7036 -1.70201 -1.59856 0
M  V30 831 C 84.6846 -0.55076 -1.60937 0
M  V30 832 O 85.8696 -0.787841 -1.77501 0
M  V30 833 C 82.9996 -1.77882 -2.98287 0
M  V30 834 C 81.9536 -2.92907 -3.12073 0
M  V30 835 C 81.2796 -2.85712 -4.51965 0
M  V30 836 C 82.5796 -4.3369 -2.91051 0
M  V30 837 H 84.2736 -2.63025 -1.43032 0
M  V30 838 H 81.8196 -1.26574 -0.686664 0
M  V30 839 H 83.7726 -1.90744 -3.75759 0
M  V30 840 H 82.4966 -0.816653 -3.16225 0
M  V30 841 H 81.1556 -2.79665 -2.37029 0
M  V30 842 H 80.8036 -1.8738 -4.66795 0
M  V30 843 H 80.5036 -3.62921 -4.62128 0
M  V30 844 H 82.0276 -3.00598 -5.31482 0
M  V30 845 H 83.4416 -4.47555 -3.58284 0
M  V30 846 H 81.8386 -5.12205 -3.12675 0
M  V30 847 H 82.9086 -4.47362 -1.87071 0
M  V30 848 N 84.2517 0.741722 -1.39055 0
M  V30 849 C 85.6677 1.04638 -1.20512 0
M  V30 850 C 85.8677 2.01405 -0.0620218 0
M  V30 851 O 84.9237 2.45547 0.588457 0
M  V30 852 C 86.2367 1.6151 -2.53643 0
M  V30 853 C 87.7847 1.73623 -2.6043 0
M  V30 854 C 88.2597 2.33906 -3.93767 0
M  V30 855 N 89.7507 2.41323 -3.9537 0
M  V30 856 C 90.4857 2.88888 -4.95309 0
M  V30 857 N 89.9817 3.36401 -6.05645 0
M  V30 858 N 91.7747 2.88037 -4.82692 0
M  V30 859 H 83.9257 0.0998155 -2.12165 0
M  V30 860 H 86.1887 0.106907 -0.941953 0
M  V30 861 H 85.8947 0.978739 -3.37807 0
M  V30 862 H 85.7687 2.60411 -2.72885 0
M  V30 863 H 88.1557 2.36384 -1.76655 0
M  V30 864 H 88.2367 0.733945 -2.45045 0
M  V30 865 H 87.8807 1.71776 -4.7797 0
M  V30 866 H 87.8107 3.34799 -4.06469 0
M  V30 867 H 90.3017 2.07734 -3.15682 0
M  V30 868 H 90.6147 3.71186 -6.77821 0
M  V30 869 H 88.9597 3.34427 -6.09248 0
M  V30 870 H 92.1507 2.50237 -3.95599 0
M  V30 871 H 92.3237 3.24792 -5.60726 0
M  V30 872 N 85.7298 1.2412 0.971189 0
M  V30 873 C 86.9768 1.07881 1.71371 0
M  V30 874 C 87.3048 -0.382901 1.90694 0
M  V30 875 O 86.5598 -1.29945 1.46331 0
M  V30 876 C 86.8588 1.75983 3.11071 0
M  V30 877 C 86.5248 3.25909 3.11599 0
M  V30 878 C 85.1868 3.66813 3.11451 0
M  V30 879 C 87.5388 4.21771 3.062 0
M  V30 880 C 84.8668 5.02021 3.03631 0
M  V30 881 C 87.2188 5.56982 2.99923 0
M  V30 882 C 85.8828 5.97237 2.98102 0
M  V30 883 H 85.1528 0.394764 0.62709 0
M  V30 884 H 87.7998 1.54176 1.13587 0
M  V30 885 H 86.1048 1.22072 3.72298 0
M  V30 886 H 87.8018 1.60887 3.6731 0
M  V30 887 H 84.3918 2.93353 3.12477 0
M  V30 888 H 88.5758 3.91172 3.05447 0
M  V30 889 H 83.8318 5.32411 3.0058 0
M  V30 890 H 88.0058 6.30969 2.94704 0
M  V30 891 H 85.6328 7.01967 2.91798 0
M  V30 892 N 87.2079 -1.17134 1.05439 0
M  V30 893 C 88.4539 -1.87733 0.767077 0
M  V30 894 C 88.7869 -1.8098 -0.704253 0
M  V30 895 O 88.0619 -1.21951 -1.5152 0
M  V30 896 C 88.3449 -3.37659 1.25133 0
M  V30 897 C 88.1979 -3.53149 2.78578 0
M  V30 898 C 89.5169 -4.31768 0.852324 0
M  V30 899 H 86.6359 -0.681687 0.280129 0
M  V30 900 H 89.2779 -1.37732 1.30881 0
M  V30 901 H 87.4279 -3.80373 0.790469 0
M  V30 902 H 89.0999 -3.19434 3.32806 0
M  V30 903 H 87.3429 -2.95345 3.17732 0
M  V30 904 H 88.0139 -4.58403 3.07523 0
M  V30 905 H 90.4899 -3.96909 1.24911 0
M  V30 906 H 89.3659 -5.35199 1.21873 0
M  V30 907 H 89.6269 -4.41429 -0.243485 0
M  V30 908 N 88.686 -0.835752 -1.33615 0
M  V30 909 C 89.636 -0.238856 -2.26745 0
M  V30 910 C 90.62 0.604343 -1.49119 0
M  V30 911 O 91.812 0.456822 -1.71003 0
M  V30 912 C 88.941 0.587725 -3.38232 0
M  V30 913 C 88.027 -0.266811 -4.2326 0
M  V30 914 N 88.418 -1.34403 -4.87616 0
M  V30 915 C 86.716 -0.0533131 -4.45968 0
M  V30 916 C 87.417 -1.86819 -5.50884 0
M  V30 917 N 86.393 -1.17013 -5.30857 0
M  V30 918 H 90.195 -1.06266 -2.74016 0
M  V30 919 H 87.709 -0.679881 -1.47483 0
M  V30 920 H 89.706 1.03161 -4.03935 0
M  V30 921 H 88.366 1.40954 -2.9251 0
M  V30 922 H 89.377 -1.7269 -4.88261 0
M  V30 923 H 86.054 0.735312 -4.10974 0
M  V30 924 H 87.444 -2.7701 -6.1214 0
M  V30 925 N 90.1641 1.46063 -0.591896 0
M  V30 926 C 91.4121 2.01938 -0.0808391 0
M  V30 927 C 91.7331 1.46475 1.28725 0
M  V30 928 O 91.0031 0.652944 1.84698 0
M  V30 929 H 89.5831 0.746516 -0.0268938 0
M  V30 930 H 92.2451 1.79055 -0.769752 0
M  V30 931 H 91.3411 3.12094 -0.0187578 0
M  V30 932 N 91.6422 0.330177 1.54103 0
M  V30 933 C 92.9192 -0.325007 1.92881 0
M  V30 934 C 93.2992 -1.6934 1.26045 0
M  V30 935 O 92.6472 -2.24855 0.406526 0
M  V30 936 C 92.8572 -0.410634 3.46576 0
M  V30 937 C 94.2052 -0.667801 4.19316 0
M  V30 938 O 95.2292 -0.49329 3.52768 0
M  V30 939 O 94.0882 -1.00491 5.37181 0
M  V30 940 H 91.1822 -0.186873 0.80561 0
M  V30 941 H 93.7282 0.380376 1.65382 0
M  V30 942 H 92.5002 0.550164 3.87413 0
M  V30 943 H 92.1232 -1.16333 3.802 0
M  V30 944 N 93.1203 -1.57491 0.0584922 0
M  V30 945 C 94.3693 -1.92155 -0.613146 0
M  V30 946 C 94.6823 -0.939334 -1.71569 0
M  V30 947 O 95.8883 -1.17829 -2.44599 0
M  V30 948 C 94.3443 -3.41303 -1.14195 0
M  V30 949 C 93.9523 -4.47944 -0.0711265 0
M  V30 950 C 95.6963 -3.84988 -1.78841 0
M  V30 951 C 93.6033 -5.88212 -0.613225 0
M  V30 952 H 92.5333 -0.717162 -0.232796 0
M  V30 953 H 95.1843 -1.83049 0.12857 0
M  V30 954 H 93.5663 -3.45437 -1.93621 0
M  V30 955 H 94.7403 -4.55408 0.702836 0
M  V30 956 H 93.0553 -4.13644 0.478313 0
M  V30 957 H 95.6523 -4.87159 -2.20408 0
M  V30 958 H 95.9953 -3.21632 -2.64308 0
M  V30 959 H 96.5283 -3.83401 -1.06059 0
M  V30 960 H 93.2673 -6.55183 0.203978 0
M  V30 961 H 92.7873 -5.84294 -1.35501 0
M  V30 962 H 94.4663 -6.37687 -1.09383 0
M  V30 963 N 94.5984 0.214957 -1.56127 0
M  V30 964 C 96.0144 0.564948 -1.49267 0
M  V30 965 C 96.2144 1.86827 -0.754838 0
M  V30 966 O 95.2704 2.50745 -0.297198 0
M  V30 967 C 96.5834 0.638071 -2.93852 0
M  V30 968 C 98.1314 0.728253 -3.0441 0
M  V30 969 C 98.6064 0.832663 -4.50367 0
M  V30 970 N 100.097 0.896712 -4.54437 0
M  V30 971 C 100.832 0.997324 -5.6466 0
M  V30 972 N 100.328 1.06147 -6.8462 0
M  V30 973 N 102.121 1.03297 -5.52527 0
M  V30 974 H 94.2724 -0.640211 -2.02522 0
M  V30 975 H 96.5354 -0.225507 -0.920788 0
M  V30 976 H 96.2414 -0.250126 -3.50809 0
M  V30 977 H 96.1154 1.49947 -3.46115 0
M  V30 978 H 98.5024 1.60689 -2.47514 0
M  V30 979 H 98.5834 -0.158952 -2.55306 0
M  V30 980 H 98.2274 -0.0415417 -5.07883 0
M  V30 981 H 98.1574 1.73538 -4.97184 0
M  V30 982 H 100.648 0.857188 -3.6805 0
M  V30 983 H 100.961 1.1382 -7.64372 0
M  V30 984 H 99.3064 1.03049 -6.87318 0
M  V30 985 H 102.497 0.979558 -4.57736 0
M  V30 986 H 102.67 1.10793 -6.38458 0
M  V30 987 N 96.0765 1.50051 0.48192 0
M  V30 988 C 97.3535 1.51009 1.2432 0
M  V30 989 C 97.7335 0.248587 2.09631 0
M  V30 990 O 97.0815 -0.768409 2.15192 0
M  V30 991 C 97.2915 2.79981 2.08355 0
M  V30 992 C 98.6395 3.3022 2.66908 0
M  V30 993 O 99.6635 2.81228 2.18607 0
M  V30 994 O 98.5225 4.15595 3.54884 0
M  V30 995 H 95.6165 0.605239 0.563573 0
M  V30 996 H 98.1625 1.62332 0.494627 0
M  V30 997 H 96.9345 3.63275 1.45419 0
M  V30 998 H 96.5575 2.7161 2.90368 0
M  V30 999 N 97.5546 -0.734337 1.39446 0
M  V30 1000 C 98.5176 -1.83004 1.37994 0
M  V30 1001 C 99.5176 -1.58397 0.276938 0
M  V30 1002 O 100.708 -1.65785 0.534875 0
M  V30 1003 C 97.8396 -3.20802 1.1532 0
M  V30 1004 H 99.0326 -1.85694 2.35494 0
M  V30 1005 H 96.5856 -0.938059 1.25021 0
M  V30 1006 H 97.3206 -3.23772 0.185036 0
M  V30 1007 H 97.1056 -3.4006 1.95197 0
M  V30 1008 H 98.5956 -4.00862 1.17046 0
M  V30 1009 N 99.0327 -1.24633 -0.964593 0
M  V30 1010 C 100.281 -1.08573 -1.70459 0
M  V30 1011 C 100.602 0.375655 -1.91347 0
M  V30 1012 O 99.8717 1.26779 -1.49345 0
M  V30 1013 H 98.4517 -0.398784 -0.631649 0
M  V30 1014 H 101.114 -1.56601 -1.16026 0
M  V30 1015 H 100.21 -1.58623 -2.68785 0
M  V30 1016 N 100.511 1.16574 -1.06058 0
M  V30 1017 C 101.441 2.23057 -0.690488 0
M  V30 1018 C 102.422 1.67141 0.315901 0
M  V30 1019 O 103.607 1.93253 0.191556 0
M  V30 1020 C 100.737 3.47222 -0.073625 0
M  V30 1021 C 99.6908 4.16016 -1.00573 0
M  V30 1022 C 99.0168 5.34104 -0.252289 0
M  V30 1023 C 100.317 4.67264 -2.33371 0
M  V30 1024 H 102.011 2.54271 -1.58072 0
M  V30 1025 H 99.5568 1.22218 -0.76149 0
M  V30 1026 H 101.51 4.20939 0.19714 0
M  V30 1027 H 100.234 3.15302 0.85161 0
M  V30 1028 H 98.8928 3.44223 -1.2612 0
M  V30 1029 H 98.5408 4.98437 0.675988 0
M  V30 1030 H 98.2408 5.81072 -0.873455 0
M  V30 1031 H 99.7648 6.10599 0.0109857 0
M  V30 1032 H 101.179 5.32573 -2.12223 0
M  V30 1033 H 99.5758 5.24843 -2.90963 0
M  V30 1034 H 100.646 3.83602 -2.96611 0
M  V30 1035 N 101.989 0.842826 1.3317 0
M  V30 1036 C 102.919 0.294028 2.31641 0
M  V30 1037 C 103.9 -0.600401 1.59151 0
M  V30 1038 O 105.085 -0.523124 1.87022 0
M  V30 1039 C 102.215 -0.528416 3.43257 0
M  V30 1040 C 101.169 0.27056 4.27144 0
M  V30 1041 C 100.495 -0.675881 5.30411 0
M  V30 1042 C 101.795 1.48981 5.00602 0
M  V30 1043 H 103.489 1.11681 2.77791 0
M  V30 1044 H 101.035 0.538478 1.33553 0
M  V30 1045 H 102.988 -0.922674 4.11175 0
M  V30 1046 H 101.712 -1.38445 2.95805 0
M  V30 1047 H 100.371 0.646427 3.60856 0
M  V30 1048 H 100.019 -1.52842 4.79216 0
M  V30 1049 H 99.7189 -0.145374 5.8742 0
M  V30 1050 H 101.243 -1.06757 6.01195 0
M  V30 1051 H 102.657 1.16849 5.61266 0
M  V30 1052 H 101.054 1.95739 5.6728 0
M  V30 1053 H 102.124 2.25746 4.29147 0
M  V30 1054 N 103.467 -1.45747 0.599634 0
M  V30 1055 C 104.43 -2.28917 -0.113835 0
M  V30 1056 C 105.43 -1.3933 -0.802729 0
M  V30 1057 O 106.62 -1.61534 -0.652103 0
M  V30 1058 C 103.752 -3.20152 -1.17114 0
M  V30 1059 H 104.945 -2.93478 0.617289 0
M  V30 1060 H 102.498 -1.52137 0.358327 0
M  V30 1061 H 103.233 -2.60374 -1.93329 0
M  V30 1062 H 103.018 -3.86133 -0.681468 0
M  V30 1063 H 104.508 -3.82708 -1.67105 0
M  V30 1064 N 104.945 -0.338344 -1.53925 0
M  V30 1065 C 106.361 0.0137736 -1.59594 0
M  V30 1066 C 106.561 1.49186 -1.35447 0
M  V30 1067 O 105.617 2.24987 -1.14616 0
M  V30 1068 C 106.93 -0.41773 -2.97784 0
M  V30 1069 C 108.478 -0.369633 -3.1081 0
M  V30 1070 C 108.953 -0.776524 -4.51369 0
M  V30 1071 N 110.444 -0.730506 -4.57403 0
M  V30 1072 C 111.179 -1.01736 -5.64303 0
M  V30 1073 N 110.675 -1.3721 -6.79077 0
M  V30 1074 N 112.468 -0.941942 -5.54151 0
M  V30 1075 H 104.619 -1.3012 -1.67876 0
M  V30 1076 H 106.882 -0.530082 -0.78595 0
M  V30 1077 H 106.588 -1.44811 -3.20504 0
M  V30 1078 H 106.462 0.209729 -3.76616 0
M  V30 1079 H 108.849 0.651568 -2.87817 0
M  V30 1080 H 108.93 -1.03223 -2.34049 0
M  V30 1081 H 108.574 -1.79571 -4.75096 0
M  V30 1082 H 108.504 -0.0914649 -5.26521 0
M  V30 1083 H 110.995 -0.468783 -3.74981 0
M  V30 1084 H 111.308 -1.57597 -7.5656 0
M  V30 1085 H 109.653 -1.4105 -6.80536 0
M  V30 1086 H 112.844 -0.664184 -4.63364 0
M  V30 1087 H 113.017 -1.16884 -6.37371 0
M  V30 1088 N 106.423 1.57458 -0.0668435 0
M  V30 1089 C 107.333 2.15937 0.916975 0
M  V30 1090 C 108.349 1.12123 1.33058 0
M  V30 1091 O 109.525 1.44366 1.40429 0
M  V30 1092 C 106.59 2.70547 2.16807 0
M  V30 1093 C 105.651 3.89215 1.81135 0
M  V30 1094 C 104.884 4.41211 3.0028 0
M  V30 1095 O 105.107 3.92225 4.14144 0
M  V30 1096 O 104.041 5.32605 2.80384 0
M  V30 1097 H 107.867 3.00354 0.449561 0
M  V30 1098 H 105.452 1.48584 0.155949 0
M  V30 1099 H 107.334 3.0557 2.90181 0
M  V30 1100 H 106.009 1.89192 2.62656 0
M  V30 1101 H 104.916 3.59054 1.05028 0
M  V30 1102 H 106.249 4.71848 1.40073 0
M  V30 1103 N 107.901 -0.206675 1.56239 0
M  V30 1104 C 108.831 -1.25909 1.96645 0
M  V30 1105 C 109.812 -1.48097 0.836734 0
M  V30 1106 O 110.997 -1.6003 1.10019 0
M  V30 1107 C 108.127 -2.6058 2.29599 0
M  V30 1108 C 107.081 -2.53024 3.452 0
M  V30 1109 C 106.407 -3.91861 3.63798 0
M  V30 1110 C 107.707 -2.06524 4.79734 0
M  V30 1111 H 109.401 -0.923369 2.84806 0
M  V30 1112 H 106.947 -0.442735 1.37025 0
M  V30 1113 H 108.9 -3.34375 2.56459 0
M  V30 1114 H 107.624 -2.95869 1.38307 0
M  V30 1115 H 106.283 -1.81684 3.18412 0
M  V30 1116 H 105.931 -4.24483 2.69857 0
M  V30 1117 H 105.631 -3.87683 4.4156 0
M  V30 1118 H 107.155 -4.67296 3.93022 0
M  V30 1119 H 108.569 -2.70072 5.05702 0
M  V30 1120 H 106.966 -2.13374 5.60885 0
M  V30 1121 H 108.036 -1.01802 4.74093 0
M  V30 1122 N 109.379 -1.50304 -0.473955 0
M  V30 1123 C 110.795 -1.37667 -0.807466 0
M  V30 1124 C 110.995 -0.430555 -1.96846 0
M  V30 1125 O 110.051 0.127874 -2.52176 0
M  V30 1126 C 111.364 -2.78974 -1.12223 0
M  V30 1127 C 112.912 -2.87868 -1.22885 0
M  V30 1128 C 113.387 -4.30003 -1.57676 0
M  V30 1129 N 114.878 -4.3294 -1.64673 0
M  V30 1130 C 115.613 -5.3991 -1.93091 0
M  V30 1131 N 115.109 -6.57092 -2.1955 0
M  V30 1132 N 116.902 -5.27351 -1.94569 0
M  V30 1133 H 109.053 -2.10394 0.291212 0
M  V30 1134 H 111.316 -0.945575 0.0677609 0
M  V30 1135 H 111.022 -3.50031 -0.342229 0
M  V30 1136 H 110.896 -3.16038 -2.05913 0
M  V30 1137 H 113.283 -2.17032 -1.99953 0
M  V30 1138 H 113.364 -2.54352 -0.271814 0
M  V30 1139 H 113.008 -5.01375 -0.81149 0
M  V30 1140 H 112.938 -4.61004 -2.54525 0
M  V30 1141 H 115.429 -3.48441 -1.46277 0
M  V30 1142 H 115.742 -7.34425 -2.405 0
M  V30 1143 H 114.087 -6.60272 -2.16948 0
M  V30 1144 H 117.278 -4.34801 -1.73394 0
M  V30 1145 H 117.451 -6.10805 -2.16381 0
M  V30 1146 N 110.857 0.726932 -1.39834 0
M  V30 1147 C 112.105 1.4837 -1.37225 0
M  V30 1148 C 112.426 1.94979 0.0284857 0
M  V30 1149 O 111.696 1.69555 0.981213 0
M  V30 1150 H 110.276 0.55043 -0.505011 0
M  V30 1151 H 112.938 0.862468 -1.74778 0
M  V30 1152 H 112.034 2.36198 -2.04003 0
M  V30 1153 N 112.336 1.25143 0.95797 0
M  V30 1154 C 113.582 1.09855 1.70469 0
M  V30 1155 C 113.915 -0.360187 1.90831 0
M  V30 1156 O 113.19 -1.26568 1.47685 0
M  V30 1157 C 113.473 1.8497 3.08963 0
M  V30 1158 C 113.326 3.38652 2.96032 0
M  V30 1159 C 114.645 1.63016 4.08795 0
M  V30 1160 H 111.764 0.400465 0.618706 0
M  V30 1161 H 114.406 1.53933 1.11376 0
M  V30 1162 H 112.556 1.47505 3.59409 0
M  V30 1163 H 114.228 3.85772 2.52938 0
M  V30 1164 H 112.471 3.66534 2.32025 0
M  V30 1165 H 113.142 3.8642 3.94187 0
M  V30 1166 H 115.618 1.95625 3.67247 0
M  V30 1167 H 114.494 2.18015 5.03747 0
M  V30 1168 H 114.755 0.570692 4.38401 0
M  V30 1169 N 113.814 -1.1601 1.06675 0
M  V30 1170 C 115.091 -1.82679 0.699114 0
M  V30 1171 C 115.471 -1.94559 -0.819137 0
M  V30 1172 O 114.819 -1.49169 -1.73092 0
M  V30 1173 C 115.029 -3.19445 1.40555 0
M  V30 1174 C 116.377 -3.95171 1.55323 0
M  V30 1175 O 117.401 -3.28976 1.36577 0
M  V30 1176 O 116.26 -5.13833 1.86112 0
M  V30 1177 H 113.354 -0.788954 0.247951 0
M  V30 1178 H 115.9 -1.23179 1.16726 0
M  V30 1179 H 114.672 -3.05856 2.44065 0
M  V30 1180 H 114.295 -3.86625 0.927733 0
M  V30 1181 N 115.292 -0.849877 -1.32721 0
M  V30 1182 C 116.255 -0.296122 -2.27279 0
M  V30 1183 C 117.255 0.541458 -1.5141 0
M  V30 1184 O 118.445 0.353658 -1.70572 0
M  V30 1185 C 115.577 0.581579 -3.35902 0
M  V30 1186 H 116.77 -1.13064 -2.77771 0
M  V30 1187 H 114.323 -0.62383 -1.43311 0
M  V30 1188 H 115.058 1.43809 -2.9067 0
M  V30 1189 H 114.843 -0.0178814 -3.92096 0
M  V30 1190 H 116.333 0.961951 -4.0637 0
M  V30 1191 N 116.77 1.45427 -0.607355 0
M  V30 1192 C 118.019 2.01452 -0.100036 0
M  V30 1193 C 118.332 1.48159 1.27704 0
M  V30 1194 O 119.538 1.96159 1.87707 0
M  V30 1195 C 117.994 3.59672 -0.128158 0
M  V30 1196 C 117.602 4.21962 -1.50507 0
M  V30 1197 C 119.346 4.23262 0.323932 0
M  V30 1198 C 117.253 5.72333 -1.48959 0
M  V30 1199 H 116.183 0.75325 -0.0336299 0
M  V30 1200 H 118.834 1.66901 -0.76265 0
M  V30 1201 H 117.216 3.91411 0.601105 0
M  V30 1202 H 118.39 4.01796 -2.25602 0
M  V30 1203 H 116.705 3.70565 -1.89923 0
M  V30 1204 H 119.302 5.33522 0.354691 0
M  V30 1205 H 119.645 3.93921 1.34656 0
M  V30 1206 H 120.178 3.96239 -0.352056 0
M  V30 1207 H 116.917 6.06373 -2.48981 0
M  V30 1208 H 116.437 5.94691 -0.781214 0
M  V30 1209 H 118.116 6.35525 -1.21313 0
M  V30 1210 N 118.248 0.346503 1.53744 0
M  V30 1211 C 119.494 -0.249473 2.0126 0
M  V30 1212 C 119.827 -1.49965 1.23386 0
M  V30 1213 O 119.102 -1.91811 0.32229 0
M  V30 1214 C 119.385 -0.560643 3.55709 0
M  V30 1215 C 119.238 0.701836 4.44291 0
M  V30 1216 C 120.557 -1.36905 4.18264 0
M  V30 1217 H 117.676 -0.0891987 0.731582 0
M  V30 1218 H 120.318 0.467624 1.84156 0
M  V30 1219 H 118.468 -1.17156 3.70414 0
M  V30 1220 H 120.14 1.33974 4.41417 0
M  V30 1221 H 118.383 1.32612 4.13033 0
M  V30 1222 H 119.054 0.43933 5.50249 0
M  V30 1223 H 121.53 -0.852448 4.07275 0
M  V30 1224 H 120.406 -1.55553 5.26398 0
M  V30 1225 H 120.667 -2.37203 3.73078 0
M  V30 1226 N 119.726 -1.57421 0.075193 0
M  V30 1227 C 120.676 -2.09441 -0.901025 0
M  V30 1228 C 121.66 -1.00486 -1.25663 0
M  V30 1229 O 122.852 -1.2679 -1.23504 0
M  V30 1230 C 119.981 -2.66233 -2.16737 0
M  V30 1231 C 119.067 -3.82198 -1.83808 0
M  V30 1232 N 119.458 -4.91028 -1.21345 0
M  V30 1233 C 117.756 -3.91558 -2.13538 0
M  V30 1234 C 118.457 -5.71852 -1.06585 0
M  V30 1235 N 117.433 -5.20233 -1.57667 0
M  V30 1236 H 121.235 -2.90972 -0.413815 0
M  V30 1237 H 118.749 -1.6189 -0.128601 0
M  V30 1238 H 120.746 -3.01819 -2.87595 0
M  V30 1239 H 119.406 -1.8615 -2.66042 0
M  V30 1240 H 120.417 -5.10323 -0.88268 0
M  V30 1241 H 117.094 -3.22454 -2.65197 0
M  V30 1242 H 118.484 -6.69401 -0.578933 0
M  V30 1243 N 121.204 0.198386 -1.56346 0
M  V30 1244 C 122.451 0.919286 -1.80431 0
M  V30 1245 C 122.779 1.83393 -0.647866 0
M  V30 1246 O 122.034 1.92236 0.366556 0
M  V30 1247 C 122.333 1.77031 -3.10475 0
M  V30 1248 C 121.999 1.00693 -4.39513 0
M  V30 1249 C 120.661 0.796145 -4.74568 0
M  V30 1250 C 123.013 0.469559 -5.19081 0
M  V30 1251 C 120.341 0.0364588 -5.86689 0
M  V30 1252 C 122.693 -0.2769 -6.31994 0
M  V30 1253 C 121.357 -0.49873 -6.65634 0
M  V30 1254 H 120.627 0.336391 -0.660244 0
M  V30 1255 H 123.274 0.185872 -1.90596 0
M  V30 1256 H 121.579 2.5723 -2.95533 0
M  V30 1257 H 123.276 2.33065 -3.26315 0
M  V30 1258 H 119.866 1.18122 -4.12001 0
M  V30 1259 H 124.05 0.619816 -4.92414 0
M  V30 1260 H 119.306 -0.145412 -6.11227 0
M  V30 1261 H 123.48 -0.700684 -6.92866 0
M  V30 1262 H 121.107 -1.0893 -7.52355 0
M  V30 1263 N 122.682 1.50554 0.465978 0
M  V30 1264 C 123.645 1.69233 1.54574 0
M  V30 1265 C 124.645 0.562901 1.50626 0
M  V30 1266 O 125.835 0.830016 1.53155 0
M  V30 1267 C 122.967 1.7223 2.94193 0
M  V30 1268 H 124.16 2.65571 1.39327 0
M  V30 1269 H 121.713 1.40111 0.692711 0
M  V30 1270 H 122.448 0.77603 3.14878 0
M  V30 1271 H 122.233 2.54285 2.98466 0
M  V30 1272 H 123.723 1.88618 3.72576 0
M  V30 1273 N 124.16 -0.719506 1.40217 0
M  V30 1274 C 125.123 -1.8153 1.39927 0
M  V30 1275 C 126.123 -1.58095 0.293723 0
M  V30 1276 O 127.313 -1.65209 0.552429 0
M  V30 1277 C 124.445 -3.19561 1.18716 0
M  V30 1278 H 125.638 -1.83186 2.37451 0
M  V30 1279 H 123.191 -0.924746 1.26008 0
M  V30 1280 H 123.926 -3.23557 0.219366 0
M  V30 1281 H 123.711 -3.3797 1.98793 0
M  V30 1282 H 125.201 -3.99598 1.21291 0
M  V30 1283 N 125.638 -1.25649 -0.95132 0
M  V30 1284 C 126.548 -1.08073 -2.08224 0
M  V30 1285 C 127.564 -0.0169666 -1.73992 0
M  V30 1286 O 128.74 -0.218593 -2.0021 0
M  V30 1287 C 125.805 -0.704922 -3.39458 0
M  V30 1288 C 124.866 -1.84699 -3.87537 0
M  V30 1289 C 124.099 -1.48902 -5.12508 0
M  V30 1290 O 124.322 -0.386156 -5.69091 0
M  V30 1291 O 123.256 -2.32033 -5.55378 0
M  V30 1292 H 127.082 -2.02924 -2.25954 0
M  V30 1293 H 124.667 -1.04618 -1.06656 0
M  V30 1294 H 126.549 -0.507609 -4.18332 0
M  V30 1295 H 125.224 0.214291 -3.2299 0
M  V30 1296 H 124.131 -2.09919 -3.09653 0
M  V30 1297 H 125.464 -2.74557 -4.08509 0
M  V30 1298 N 127.117 1.15442 -1.07289 0
M  V30 1299 C 128.342 1.90638 -0.816828 0
M  V30 1300 C 128.767 1.77445 0.624083 0
M  V30 1301 O 128.125 1.10671 1.43602 0
M  V30 1302 C 128.173 3.39008 -1.22906 0
M  V30 1303 O 127.277 4.10701 -0.373975 0
M  V30 1304 H 126.618 0.593555 -0.297638 0
M  V30 1305 H 129.148 1.46198 -1.43134 0
M  V30 1306 H 129.158 3.89801 -1.20497 0
M  V30 1307 H 127.833 3.47929 -2.27856 0
M  V30 1308 H 126.41 3.70046 -0.460499 0
M  V30 1309 N 128.595 0.856903 1.32268 0
M  V30 1310 C 129.545 0.274899 2.26337 0
M  V30 1311 C 130.529 -0.580543 1.50062 0
M  V30 1312 O 131.721 -0.429559 1.71708 0
M  V30 1313 C 128.85 -0.533841 3.39124 0
M  V30 1314 C 127.936 0.334114 4.22782 0
M  V30 1315 N 128.327 1.42143 4.85416 0
M  V30 1316 C 126.625 0.124256 4.45827 0
M  V30 1317 C 127.326 1.95559 5.47843 0
M  V30 1318 N 126.302 1.25444 5.28928 0
M  V30 1319 H 130.104 1.10612 2.72291 0
M  V30 1320 H 127.618 0.703258 1.46383 0
M  V30 1321 H 129.615 -0.96722 4.05525 0
M  V30 1322 H 128.275 -1.36283 2.94715 0
M  V30 1323 H 129.286 1.80436 4.85451 0
M  V30 1324 H 125.963 -0.669837 4.12092 0
M  V30 1325 H 127.353 2.86714 6.07655 0
M  V30 1326 N 130.073 -1.45103 0.615059 0
M  V30 1327 C 131.319 -2.02483 0.113347 0
M  V30 1328 C 131.652 -1.48146 -1.25564 0
M  V30 1329 O 130.927 -0.659104 -1.82992 0
M  V30 1330 C 131.21 -3.60005 0.0825278 0
M  V30 1331 C 131.063 -4.2466 1.48271 0
M  V30 1332 C 132.382 -4.35972 -0.601401 0
M  V30 1333 H 129.501 -0.735764 0.0426632 0
M  V30 1334 H 132.143 -1.72868 0.788461 0
M  V30 1335 H 130.293 -3.85367 -0.492378 0
M  V30 1336 H 131.965 -4.10458 2.10527 0
M  V30 1337 H 130.208 -3.82772 2.04127 0
M  V30 1338 H 130.879 -5.336 1.41332 0
M  V30 1339 H 133.355 -4.15947 -0.112666 0
M  V30 1340 H 132.231 -5.45697 -0.592097 0
M  V30 1341 H 132.492 -4.09391 -1.66887 0
M  V30 1342 N 131.551 -0.354651 -1.53558 0
M  V30 1343 C 132.828 0.294281 -1.93374 0
M  V30 1344 C 133.208 1.67313 -1.28723 0
M  V30 1345 O 132.556 2.24179 -0.442247 0
M  V30 1346 C 132.766 0.355445 -3.47185 0
M  V30 1347 C 134.114 0.601007 -4.20325 0
M  V30 1348 O 135.138 0.437106 -3.53508 0
M  V30 1349 O 133.997 0.919322 -5.38712 0
M  V30 1350 H 131.091 0.174033 -0.808481 0
M  V30 1351 H 133.637 -0.406638 -1.64756 0
M  V30 1352 H 132.409 -0.611729 -3.86489 0
M  V30 1353 H 132.032 1.1027 -3.82003 0
M  V30 1354 N 133.029 1.57378 -0.0835403 0
M  V30 1355 C 134.445 1.57246 0.273109 0
M  V30 1356 C 134.645 1.09385 1.69225 0
M  V30 1357 O 133.701 0.765051 2.40631 0
M  V30 1358 C 135.014 3.00614 0.0720628 0
M  V30 1359 C 136.562 3.12684 0.1407 0
M  V30 1360 C 137.037 4.57989 -0.0322094 0
M  V30 1361 N 138.528 4.63194 0.0230085 0
M  V30 1362 C 139.263 5.73335 -0.0861941 0
M  V30 1363 N 138.759 6.9235 -0.24958 0
M  V30 1364 N 140.552 5.62093 -0.0282886 0
M  V30 1365 H 132.703 1.86801 -1.0109 0
M  V30 1366 H 134.966 0.861687 -0.395222 0
M  V30 1367 H 134.672 3.39786 -0.907662 0
M  V30 1368 H 134.546 3.68193 0.81936 0
M  V30 1369 H 136.933 2.73391 1.11092 0
M  V30 1370 H 137.014 2.47719 -0.637896 0
M  V30 1371 H 136.658 4.97973 -0.999247 0
M  V30 1372 H 136.588 5.21 0.765937 0
M  V30 1373 H 139.079 3.77613 0.14722 0
M  V30 1374 H 139.392 7.72117 -0.324733 0
M  V30 1375 H 137.737 6.94415 -0.285097 0
M  V30 1376 H 140.928 4.67997 0.0981408 0
M  V30 1377 H 141.101 6.47895 -0.116845 0
M  V30 1378 N 134.507 -0.190092 1.56449 0
M  V30 1379 C 135.732 -0.929864 1.85387 0
M  V30 1380 C 136.157 -1.7585 0.667704 0
M  V30 1381 O 135.515 -1.77198 -0.383459 0
M  V30 1382 C 135.563 -1.79773 3.12593 0
M  V30 1383 O 134.667 -2.89713 2.93496 0
M  V30 1384 H 134.008 -0.261574 0.610307 0
M  V30 1385 H 136.538 -0.193896 2.03679 0
M  V30 1386 H 136.548 -2.20139 3.43515 0
M  V30 1387 H 135.223 -1.18892 3.98544 0
M  V30 1388 H 133.8 -2.53065 2.73884 0
M  V30 1389 N 135.985 -1.50799 -0.457987 0
M  V30 1390 C 137.234 -1.6168 -1.20593 0
M  V30 1391 C 137.547 -0.32888 -1.92815 0
M  V30 1392 O 138.753 -0.316773 -2.69646 0
M  V30 1393 C 137.209 -2.8545 -2.19195 0
M  V30 1394 C 136.817 -4.21168 -1.52715 0
M  V30 1395 C 138.561 -3.05681 -2.94549 0
M  V30 1396 C 136.468 -5.3611 -2.4968 0
M  V30 1397 H 135.398 -0.602134 -0.453818 0
M  V30 1398 H 138.049 -1.77245 -0.475031 0
M  V30 1399 H 136.431 -2.63472 -2.95632 0
M  V30 1400 H 137.605 -4.53449 -0.819775 0
M  V30 1401 H 135.92 -4.06648 -0.895922 0
M  V30 1402 H 138.517 -3.88727 -3.67145 0
M  V30 1403 H 138.86 -2.17929 -3.54701 0
M  V30 1404 H 139.393 -3.27901 -2.25223 0
M  V30 1405 H 136.132 -6.26057 -1.94249 0
M  V30 1406 H 135.652 -5.0823 -3.18532 0
M  V30 1407 H 137.331 -5.6722 -3.11241 0
M  V30 1408 N 137.463 0.71206 -1.40597 0
M  V30 1409 C 138.426 1.80785 -1.40888 0
M  V30 1410 C 139.426 1.57937 -0.302103 0
M  V30 1411 O 140.616 1.64913 -0.561182 0
M  V30 1412 C 137.748 3.18927 -1.20409 0
M  V30 1413 H 138.941 1.81924 -2.38419 0
M  V30 1414 H 136.494 0.91805 -1.26497 0
M  V30 1415 H 137.229 3.23436 -0.236522 0
M  V30 1416 H 137.014 3.36911 -2.00582 0
M  V30 1417 H 138.504 3.98949 -1.23408 0
M  V30 1418 N 138.941 1.26152 0.944643 0
M  V30 1419 C 140.189 1.11271 1.6871 0
M  V30 1420 C 140.51 -0.345166 1.91921 0
M  V30 1421 O 139.78 -1.24387 1.51343 0
M  V30 1422 H 138.36 0.408783 0.625224 0
M  V30 1423 H 141.022 1.58427 1.1352 0
M  V30 1424 H 140.118 1.62879 2.66227 0
M  V30 1425 N 140.419 -1.14872 1.07899 0
M  V30 1426 C 141.382 -2.17986 0.708161 0
M  V30 1427 C 142.382 -1.58775 -0.25442 0
M  V30 1428 O 143.572 -1.74166 -0.034645 0
M  V30 1429 C 140.704 -3.40871 0.0446929 0
M  V30 1430 H 141.897 -2.52306 1.62116 0
M  V30 1431 H 139.45 -1.2943 0.876218 0
M  V30 1432 H 140.185 -3.12124 -0.880281 0
M  V30 1433 H 139.97 -3.8511 0.737091 0
M  V30 1434 H 141.46 -4.17121 -0.19991 0
M  V30 1435 N 141.898 -0.863906 -1.31812 0
M  V30 1436 C 143.123 -0.48527 -2.01643 0
M  V30 1437 C 143.548 0.913058 -1.64453 0
M  V30 1438 O 142.906 1.6014 -0.849985 0
M  V30 1439 C 142.954 -0.642625 -3.54828 0
M  V30 1440 O 142.058 0.320659 -4.11151 0
M  V30 1441 H 141.399 -0.193793 -0.635091 0
M  V30 1442 H 143.929 -1.16565 -1.68148 0
M  V30 1443 H 143.939 -0.533628 -4.04495 0
M  V30 1444 H 142.614 -1.66227 -3.81237 0
M  V30 1445 H 141.191 0.167126 -3.72525 0
M  V30 1446 N 143.376 1.44774 -0.622745 0
M  V30 1447 C 144.622 2.0242 -0.124083 0
M  V30 1448 C 144.955 1.4881 1.24777 0
M  V30 1449 O 144.23 0.668799 1.8264 0
M  V30 1450 C 144.513 3.59957 -0.101619 0
M  V30 1451 C 144.366 4.23867 -1.50521 0
M  V30 1452 C 145.685 4.36284 0.578272 0
M  V30 1453 H 142.804 0.735528 -0.0465645 0
M  V30 1454 H 145.446 1.72447 -0.797617 0
M  V30 1455 H 143.596 3.85623 0.471934 0
M  V30 1456 H 145.268 4.09336 -2.12701 0
M  V30 1457 H 143.511 3.81684 -2.06154 0
M  V30 1458 H 144.182 5.32843 -1.4416 0
M  V30 1459 H 146.658 4.16001 0.0906057 0
M  V30 1460 H 145.534 5.46004 0.563149 0
M  V30 1461 H 145.795 4.10271 1.64713 0
M  V30 1462 N 144.854 0.36279 1.53368 0
M  V30 1463 C 146.101 -0.227776 2.01215 0
M  V30 1464 C 146.429 -1.49003 1.25014 0
M  V30 1465 O 145.684 -1.92876 0.331236 0
M  V30 1466 C 145.983 -0.568417 3.52851 0
M  V30 1467 C 145.649 0.59918 4.46901 0
M  V30 1468 C 144.311 0.919559 4.72332 0
M  V30 1469 C 146.663 1.38156 5.02556 0
M  V30 1470 C 143.991 2.02434 5.5067 0
M  V30 1471 C 146.343 2.47674 5.821 0
M  V30 1472 C 145.007 2.8025 6.05819 0
M  V30 1473 H 144.277 -0.083349 0.736297 0
M  V30 1474 H 146.924 0.494677 1.85001 0
M  V30 1475 H 145.229 -1.37185 3.66998 0
M  V30 1476 H 146.926 -1.03756 3.87344 0
M  V30 1477 H 143.516 0.339437 4.27254 0
M  V30 1478 H 147.7 1.14729 4.82857 0
M  V30 1479 H 142.956 2.28075 5.67267 0
M  V30 1480 H 147.13 3.08716 6.24234 0
M  V30 1481 H 144.757 3.65979 6.66306 0
M  V30 1482 N 146.332 -1.57332 0.0918853 0
M  V30 1483 C 147.56 -1.98574 -0.581048 0
M  V30 1484 C 147.975 -0.970903 -1.61923 0
M  V30 1485 O 147.332 0.0399054 -1.82456 0
M  V30 1486 C 147.383 -3.39872 -1.23164 0
M  V30 1487 O 147.104 -4.37469 -0.234989 0
M  V30 1488 C 148.605 -3.96099 -1.99049 0
M  V30 1489 H 145.825 -0.65261 -0.156018 0
M  V30 1490 H 148.369 -2.0379 0.170225 0
M  V30 1491 H 146.524 -3.35679 -1.93386 0
M  V30 1492 H 146.938 -5.19751 -0.70418 0
M  V30 1493 H 148.412 -4.97127 -2.39934 0
M  V30 1494 H 148.889 -3.3374 -2.85507 0
M  V30 1495 H 149.495 -4.03755 -1.3365 0
M  V30 1496 N 147.81 0.181792 -1.56548 0
M  V30 1497 C 148.72 1.24538 -1.98815 0
M  V30 1498 C 149.736 1.49045 -0.897861 0
M  V30 1499 O 150.912 1.61399 -1.20467 0
M  V30 1500 C 147.977 2.56683 -2.33055 0
M  V30 1501 C 147.038 2.40131 -3.55859 0
M  V30 1502 C 146.271 3.65975 -3.88456 0
M  V30 1503 O 146.494 4.70711 -3.22161 0
M  V30 1504 O 145.428 3.6071 -4.81842 0
M  V30 1505 H 149.254 0.916647 -2.89536 0
M  V30 1506 H 146.839 0.387842 -1.44278 0
M  V30 1507 H 148.721 3.34655 -2.56094 0
M  V30 1508 H 147.396 2.89157 -1.45498 0
M  V30 1509 H 146.303 1.60226 -3.38051 0
M  V30 1510 H 147.636 2.12585 -4.43924 0
M  V30 1511 N 149.288 1.51039 0.449983 0
M  V30 1512 C 150.516 1.66869 1.2232 0
M  V30 1513 C 150.931 0.360727 1.85322 0
M  V30 1514 O 150.288 -0.659531 1.70166 0
M  V30 1515 C 150.339 2.77524 2.31652 0
M  V30 1516 O 150.06 4.03252 1.7123 0
M  V30 1517 C 151.561 3.04512 3.2216 0
M  V30 1518 H 148.781 0.560326 0.369155 0
M  V30 1519 H 151.325 1.97385 0.534719 0
M  V30 1520 H 149.48 2.49642 2.96239 0
M  V30 1521 H 149.894 4.64609 2.43389 0
M  V30 1522 H 151.368 3.85551 3.95038 0
M  V30 1523 H 151.845 2.16415 3.8218 0
M  V30 1524 H 152.451 3.34005 2.63288 0
M  V30 1525 N 150.766 -0.704594 1.40972 0
M  V30 1526 C 151.714 -1.83994 1.42299 0
M  V30 1527 C 152.708 -1.66684 0.302111 0
M  V30 1528 O 153.914 -1.73655 0.473697 0
M  V30 1529 H 150.289 -0.606171 0.44504 0
M  V30 1530 H 152.26 -1.79992 2.38003 0
M  V30 1531 C 151.009 -3.21946 1.31323 0
M  V30 1532 H 150.332 -3.35878 2.16855 0
M  V30 1533 H 151.772 -4.01491 1.36311 0
M  V30 1534 C 150.231 -3.36891 0.0245977 0
M  V30 1535 O 150.761 -3.90687 -0.934153 0
M  V30 1536 N 148.967 -2.90559 -0.0485243 0
M  V30 1537 H 148.514 -2.46968 0.732419 0
M  V30 1538 H 148.472 -3.00937 -0.910171 0
M  V30 1539 N 152.244 -1.26651 -0.937939 0
M  V30 1540 C 153.49 -1.12553 -1.687 0
M  V30 1541 C 153.823 0.329782 -1.91379 0
M  V30 1542 O 153.098 1.24202 -1.4968 0
M  V30 1543 C 153.381 -1.89862 -3.05981 0
M  V30 1544 C 153.234 -3.43318 -2.90607 0
M  V30 1545 C 154.553 -1.69499 -4.0615 0
M  V30 1546 H 151.672 -0.410257 -0.612257 0
M  V30 1547 H 154.314 -1.55685 -1.08913 0
M  V30 1548 H 152.464 -1.53204 -3.57017 0
M  V30 1549 H 154.136 -3.89747 -2.46769 0
M  V30 1550 H 152.379 -3.70179 -2.26164 0
M  V30 1551 H 153.05 -3.92642 -3.8799 0
M  V30 1552 H 155.526 -2.01442 -3.64088 0
M  V30 1553 H 154.402 -2.26002 -5.00214 0
M  V30 1554 H 154.663 -0.640365 -4.37438 0
M  V30 1555 N 153.722 1.14298 -1.08507 0
M  V30 1556 C 154.654 2.1907 -0.673859 0
M  V30 1557 C 155.667 1.60381 0.279577 0
M  V30 1558 O 156.856 1.78374 0.0670754 0
M  V30 1559 C 153.956 3.38888 0.0290979 0
M  V30 1560 C 153.129 4.27103 -0.943494 0
M  V30 1561 C 152.188 5.25477 -0.275676 0
M  V30 1562 O 151.214 5.61709 -0.920401 0
M  V30 1563 N 152.416 5.7227 0.974013 0
M  V30 1564 H 155.181 2.54965 -1.57521 0
M  V30 1565 H 152.742 1.29528 -0.971287 0
M  V30 1566 H 154.734 4.01761 0.48683 0
M  V30 1567 H 153.304 3.01309 0.832555 0
M  V30 1568 H 152.524 3.61149 -1.58004 0
M  V30 1569 H 153.812 4.82905 -1.60251 0
M  V30 1570 H 153.21 5.44965 1.51755 0
M  V30 1571 H 151.767 6.37127 1.37522 0
M  V30 1572 N 155.201 0.870884 1.31352 0
M  V30 1573 C 156.449 0.48132 1.96285 0
M  V30 1574 C 156.77 -0.969813 1.69173 0
M  V30 1575 O 156.04 -1.67998 1.00764 0
M  V30 1576 H 154.62 0.175002 0.726212 0
M  V30 1577 H 157.282 1.11087 1.60143 0
M  V30 1578 H 156.378 0.639825 3.05471 0
M  V30 1579 N 156.679 -1.44442 0.630414 0
M  V30 1580 C 157.907 -2.06414 0.141671 0
M  V30 1581 C 158.322 -1.47105 -1.18345 0
M  V30 1582 O 157.679 -0.593662 -1.72574 0
M  V30 1583 C 157.73 -3.61494 0.0199784 0
M  V30 1584 O 157.451 -4.18594 1.29269 0
M  V30 1585 C 158.952 -4.40499 -0.497544 0
M  V30 1586 H 156.172 -0.666292 0.0793452 0
M  V30 1587 H 158.716 -1.85323 0.864614 0
M  V30 1588 H 156.871 -3.8185 -0.653402 0
M  V30 1589 H 157.285 -5.12026 1.13707 0
M  V30 1590 H 158.759 -5.49433 -0.531708 0
M  V30 1591 H 159.236 -4.11895 -1.52445 0
M  V30 1592 H 159.842 -4.25061 0.142562 0
M  V30 1593 N 158.157 -0.370918 -1.53173 0
M  V30 1594 C 159.089 0.507823 -2.23503 0
M  V30 1595 C 160.102 1.04182 -1.251 0
M  V30 1596 O 161.291 0.947286 -1.5129 0
M  V30 1597 C 158.391 1.71447 -2.92334 0
M  V30 1598 C 157.564 1.31105 -4.17289 0
M  V30 1599 C 156.623 2.38035 -4.69282 0
M  V30 1600 O 155.649 2.00204 -5.32829 0
M  V30 1601 N 156.851 3.69697 -4.47554 0
M  V30 1602 H 159.616 -0.0946382 -2.99551 0
M  V30 1603 H 157.177 -0.196358 -1.60705 0
M  V30 1604 H 159.169 2.42469 -3.24023 0
M  V30 1605 H 157.739 2.22368 -2.19707 0
M  V30 1606 H 156.959 0.430462 -3.91843 0
M  V30 1607 H 158.247 1.0179 -4.98514 0
M  V30 1608 H 157.645 4.03205 -3.9679 0
M  V30 1609 H 156.202 4.36807 -4.8378 0
M  V30 1610 N 159.635 1.57281 -0.100228 0
M  V30 1611 C 160.863 1.98879 0.570509 0
M  V30 1612 C 161.278 0.979476 1.61405 0
M  V30 1613 O 160.635 -0.0302288 1.82475 0
M  V30 1614 C 160.686 3.4052 1.2136 0
M  V30 1615 O 160.407 4.37588 0.211786 0
M  V30 1616 C 161.908 3.97149 1.96945 0
M  V30 1617 H 159.128 0.653428 0.152555 0
M  V30 1618 H 161.672 2.03697 -0.18103 0
M  V30 1619 H 159.827 3.367 1.91603 0
M  V30 1620 H 160.241 5.20118 0.676607 0
M  V30 1621 H 161.715 4.98393 2.37294 0
M  V30 1622 H 162.192 3.3525 2.83733 0
M  V30 1623 H 162.798 4.04458 1.31506 0
M  V30 1624 N 161.113 -0.173488 1.56642 0
M  V30 1625 C 162.043 -1.2171 1.99271 0
M  V30 1626 C 163.024 -1.46289 0.867959 0
M  V30 1627 O 164.209 -1.5766 1.13388 0
M  V30 1628 C 161.339 -2.55651 2.35074 0
M  V30 1629 C 160.293 -2.45645 3.50489 0
M  V30 1630 C 159.619 -3.84056 3.72028 0
M  V30 1631 C 160.919 -1.96302 4.84007 0
M  V30 1632 H 162.613 -0.86275 2.867 0
M  V30 1633 H 160.159 -0.413571 1.37933 0
M  V30 1634 H 162.112 -3.2886 2.63494 0
M  V30 1635 H 160.836 -2.92869 1.44552 0
M  V30 1636 H 159.495 -1.7489 3.22194 0
M  V30 1637 H 159.143 -4.18664 2.788 0
M  V30 1638 H 158.843 -3.7823 4.49684 0
M  V30 1639 H 160.367 -4.58854 4.02846 0
M  V30 1640 H 161.781 -2.59284 5.11317 0
M  V30 1641 H 160.178 -2.01429 5.65284 0
M  V30 1642 H 161.248 -0.917226 4.76146 0
M  V30 1643 N 162.591 -1.51276 -0.441967 0
M  V30 1644 C 163.521 -1.752 -1.54361 0
M  V30 1645 C 164.502 -0.601682 -1.59103 0
M  V30 1646 O 165.687 -0.843913 -1.74905 0
M  V30 1647 C 162.817 -1.87282 -2.92477 0
M  V30 1648 C 161.771 -3.02687 -3.02596 0
M  V30 1649 C 161.097 -2.99947 -4.42647 0
M  V30 1650 C 162.397 -4.4273 -2.77106 0
M  V30 1651 H 164.091 -2.67442 -1.34592 0
M  V30 1652 H 161.637 -1.28694 -0.646048 0
M  V30 1653 H 163.59 -2.02602 -3.695 0
M  V30 1654 H 162.314 -0.916844 -3.13467 0
M  V30 1655 H 160.973 -2.87065 -2.28012 0
M  V30 1656 H 160.621 -2.02136 -4.60597 0
M  V30 1657 H 160.321 -3.77439 -4.50348 0
M  V30 1658 H 161.845 -3.17354 -5.2165 0
M  V30 1659 H 163.259 -4.58727 -3.43864 0
M  V30 1660 H 161.656 -5.21893 -2.96222 0
M  V30 1661 H 162.726 -4.53087 -1.72744 0
M  V30 1662 N 164.069 0.697108 -1.41344 0
M  V30 1663 C 165.001 1.8224 -1.39001 0
M  V30 1664 C 166.014 1.60152 -0.292428 0
M  V30 1665 O 167.203 1.69684 -0.554048 0
M  V30 1666 C 164.303 3.18976 -1.14489 0
M  V30 1667 C 163.476 3.68105 -2.36258 0
M  V30 1668 C 162.535 4.83506 -2.07625 0
M  V30 1669 O 161.561 4.95201 -2.8065 0
M  V30 1670 N 162.763 5.70637 -1.06555 0
M  V30 1671 H 165.528 1.84742 -2.35988 0
M  V30 1672 H 163.089 0.87937 -1.35936 0
M  V30 1673 H 165.081 3.93801 -0.932885 0
M  V30 1674 H 163.651 3.11508 -0.261043 0
M  V30 1675 H 162.871 2.84204 -2.7317 0
M  V30 1676 H 164.159 3.97667 -3.17393 0
M  V30 1677 H 163.557 5.63817 -0.461125 0
M  V30 1678 H 162.114 6.45368 -0.913444 0
M  V30 1679 N 165.547 1.27147 0.931209 0
M  V30 1680 C 166.787 1.14511 1.69312 0
M  V30 1681 C 167.151 -0.304638 1.89568 0
M  V30 1682 O 168.352 -0.553343 2.63043 0
M  V30 1683 C 166.623 1.90349 3.02493 0
M  V30 1684 S 168.182 1.93884 3.93642 0
M  V30 1685 H 165 0.408858 0.581684 0
M  V30 1686 H 167.602 1.61006 1.10893 0
M  V30 1687 H 166.306 2.94877 2.85439 0
M  V30 1688 H 165.837 1.44333 3.65966 0
M  V30 1689 H 167.852 1.03273 4.85334 0
M  V30 1690 N 167.025 -1.13721 1.09112 0
M  V30 1691 C 167.988 -2.17222 0.731241 0
M  V30 1692 C 168.988 -1.59035 -0.237566 0
M  V30 1693 O 170.178 -1.74192 -0.0161704 0
M  V30 1694 C 167.31 -3.40804 0.0808443 0
M  V30 1695 H 168.503 -2.50573 1.64783 0
M  V30 1696 H 166.056 -1.28493 0.889897 0
M  V30 1697 H 166.791 -3.1304 -0.847127 0
M  V30 1698 H 166.576 -3.84306 0.777896 0
M  V30 1699 H 168.066 -4.1731 -0.155657 0
M  V30 1700 N 168.503 -0.877838 -1.30888 0
M  V30 1701 C 169.749 -0.493426 -1.96706 0
M  V30 1702 C 170.082 0.953504 -1.6918 0
M  V30 1703 O 169.357 1.67266 -0.992594 0
M  V30 1704 C 169.64 -0.760429 -3.51979 0
M  V30 1705 C 169.493 -2.25747 -3.89048 0
M  V30 1706 C 170.812 -0.232148 -4.39487 0
M  V30 1707 H 167.931 -0.180746 -0.714493 0
M  V30 1708 H 170.573 -1.10052 -1.54882 0
M  V30 1709 H 168.723 -0.243715 -3.87735 0
M  V30 1710 H 170.395 -2.84204 -3.63354 0
M  V30 1711 H 168.638 -2.72694 -3.37373 0
M  V30 1712 H 169.309 -2.39491 -4.97341 0
M  V30 1713 H 171.785 -0.674314 -4.106 0
M  V30 1714 H 170.661 -0.448355 -5.47066 0
M  V30 1715 H 170.922 0.866297 -4.33529 0
M  V30 1716 N 169.982 1.44106 -0.638065 0
M  V30 1717 C 171.259 1.95453 -0.0759321 0
M  V30 1718 C 171.639 1.57984 1.40015 0
M  V30 1719 O 170.987 0.857361 2.11806 0
M  V30 1720 C 171.197 3.47655 -0.306132 0
M  V30 1721 C 172.545 4.24114 -0.203008 0
M  V30 1722 O 173.569 3.55405 -0.237871 0
M  V30 1723 O 172.428 5.46381 -0.113827 0
M  V30 1724 H 169.522 0.826797 0.0183332 0
M  V30 1725 H 172.068 1.54122 -0.710251 0
M  V30 1726 H 170.84 3.68 -1.3301 0
M  V30 1727 H 170.463 3.95949 0.361991 0
M  V30 1728 N 171.46 0.379036 1.52974 0
M  V30 1729 C 172.423 -0.448865 2.24762 0
M  V30 1730 C 173.423 -0.998689 1.26027 0
M  V30 1731 O 174.613 -0.882313 1.50203 0
M  V30 1732 C 171.745 -1.62872 2.99476 0
M  V30 1733 H 172.938 0.179491 2.99362 0
M  V30 1734 H 170.491 0.13096 1.5575 0
M  V30 1735 H 171.226 -2.29479 2.29151 0
M  V30 1736 H 171.011 -1.24128 3.71934 0
M  V30 1737 H 172.501 -2.2151 3.5401 0
M  V30 1738 N 172.938 -1.57226 0.108567 0
M  V30 1739 C 174.186 -1.94448 -0.550853 0
M  V30 1740 C 174.507 -0.992074 -1.67878 0
M  V30 1741 O 173.777 -0.0465 -1.95845 0
M  V30 1742 H 172.357 -0.717897 -0.206479 0
M  V30 1743 H 175.019 -1.94112 0.175062 0
M  V30 1744 H 174.115 -2.97218 -0.952259 0
M  V30 1745 N 174.416 0.165178 -1.56732 0
M  V30 1746 C 175.662 0.882112 -1.82611 0
M  V30 1747 C 175.995 1.81628 -0.687378 0
M  V30 1748 O 175.27 1.92009 0.310267 0
M  V30 1749 C 175.553 1.67245 -3.18906 0
M  V30 1750 C 175.406 0.760987 -4.43316 0
M  V30 1751 C 176.725 2.63884 -3.52212 0
M  V30 1752 H 173.844 0.319242 -0.664269 0
M  V30 1753 H 176.486 0.148052 -1.89422 0
M  V30 1754 H 174.636 2.29824 -3.1323 0
M  V30 1755 H 176.308 0.147596 -4.61064 0
M  V30 1756 H 174.551 0.0694102 -4.33744 0
M  V30 1757 H 175.222 1.34962 -5.35247 0
M  V30 1758 H 177.698 2.11429 -3.58381 0
M  V30 1759 H 176.574 3.16245 -4.48643 0
M  V30 1760 H 176.835 3.44377 -2.77231 0
M  V30 1761 N 175.894 1.51508 0.433938 0
M  V30 1762 C 177.142 1.6402 1.18075 0
M  V30 1763 C 177.463 0.360328 1.91642 0
M  V30 1764 O 176.733 -0.623945 1.85698 0
M  V30 1765 H 175.313 0.6045 0.43885 0
M  V30 1766 H 177.975 1.88452 0.497178 0
M  V30 1767 H 177.071 2.46949 1.90847 0
M  V30 1768 N 177.372 -0.689602 1.41712 0
M  V30 1769 C 178.788 -1.00093 1.24312 0
M  V30 1770 C 178.988 -2.01036 0.136729 0
M  V30 1771 O 178.044 -2.47562 -0.496918 0
M  V30 1772 C 179.357 -1.51985 2.59463 0
M  V30 1773 C 180.905 -1.63838 2.66695 0
M  V30 1774 C 181.38 -2.1913 4.02177 0
M  V30 1775 N 182.871 -2.26483 4.04054 0
M  V30 1776 C 183.606 -2.70306 5.0569 0
M  V30 1777 N 183.102 -3.13691 6.17713 0
M  V30 1778 N 184.895 -2.69923 4.9305 0
M  V30 1779 H 177.046 -0.0210029 2.1239 0
M  V30 1780 H 179.309 -0.0718733 0.945272 0
M  V30 1781 H 179.015 -0.85269 3.41207 0
M  V30 1782 H 178.889 -2.50103 2.82362 0
M  V30 1783 H 181.276 -2.29664 1.85306 0
M  V30 1784 H 181.357 -0.642492 2.476 0
M  V30 1785 H 181.001 -1.53918 4.84016 0
M  V30 1786 H 180.931 -3.19482 4.18615 0
M  V30 1787 H 183.422 -1.95874 3.23174 0
M  V30 1788 H 183.735 -3.45773 6.9113 0
M  V30 1789 H 182.08 -3.11585 6.21241 0
M  V30 1790 H 185.271 -2.35382 4.04614 0
M  V30 1791 H 185.444 -3.03758 5.72394 0
M  V30 1792 N 178.85 -1.27639 -0.924453 0
M  V30 1793 C 180.096 -1.14336 -1.67497 0
M  V30 1794 C 180.429 0.309465 -1.91718 0
M  V30 1795 O 179.704 1.22608 -1.50989 0
M  V30 1796 C 179.987 -1.93096 -3.0395 0
M  V30 1797 C 179.84 -3.46381 -2.8695 0
M  V30 1798 C 181.159 -1.73798 -4.0433 0
M  V30 1799 H 178.278 -0.416728 -0.607871 0
M  V30 1800 H 180.92 -1.56832 -1.07256 0
M  V30 1801 H 179.07 -1.56982 -3.55372 0
M  V30 1802 H 180.742 -3.92343 -2.42621 0
M  V30 1803 H 178.985 -3.72557 -2.22225 0
M  V30 1804 H 179.656 -3.96735 -3.83804 0
M  V30 1805 H 182.132 -2.05293 -3.61931 0
M  V30 1806 H 181.008 -2.31294 -4.97789 0
M  V30 1807 H 181.269 -0.686725 -4.36734 0
M  V30 1808 N 180.328 1.1314 -1.09713 0
M  V30 1809 C 181.574 1.84757 -0.836224 0
M  V30 1810 C 181.907 1.8347 0.636598 0
M  V30 1811 O 181.182 1.27491 1.46889 0
M  V30 1812 C 181.465 3.32782 -1.37578 0
M  V30 1813 C 181.318 3.42567 -2.91493 0
M  V30 1814 C 182.637 4.28307 -1.01198 0
M  V30 1815 H 179.756 0.67082 -0.305236 0
M  V30 1816 H 182.398 1.3278 -1.35903 0
M  V30 1817 H 180.548 3.77177 -0.931097 0
M  V30 1818 H 182.22 3.06862 -3.44432 0
M  V30 1819 H 180.463 2.83349 -3.28475 0
M  V30 1820 H 181.134 4.46674 -3.24324 0
M  V30 1821 H 183.61 3.91999 -1.39556 0
M  V30 1822 H 182.486 5.30307 -1.41653 0
M  V30 1823 H 182.747 4.42029 0.0794833 0
M  V30 1824 N 181.806 0.884767 1.30421 0
M  V30 1825 C 182.756 0.322846 2.25703 0
M  V30 1826 C 183.74 -0.548582 1.51259 0
M  V30 1827 O 184.932 -0.39304 1.72581 0
M  V30 1828 C 182.061 -0.461787 3.4018 0
M  V30 1829 C 181.147 0.423717 4.21978 0
M  V30 1830 N 181.538 1.52408 4.82292 0
M  V30 1831 C 179.836 0.218795 4.45463 0
M  V30 1832 C 180.537 2.07136 5.43571 0
M  V30 1833 N 179.513 1.36635 5.26148 0
M  V30 1834 H 183.315 1.16363 2.69883 0
M  V30 1835 H 180.829 0.73415 1.44859 0
M  V30 1836 H 182.826 -0.880985 4.07485 0
M  V30 1837 H 181.486 -1.30001 2.9754 0
M  V30 1838 H 182.497 1.90693 4.81515 0
M  V30 1839 H 179.174 -0.582275 4.1342 0
M  V30 1840 H 180.564 2.99538 6.01437 0
M  V30 1841 N 183.284 -1.43765 0.645699 0
M  V30 1842 C 184.53 -2.02197 0.156271 0
M  V30 1843 C 184.863 -1.50776 -1.22393 0
M  V30 1844 O 184.138 -0.697771 -1.81553 0
M  V30 1845 C 184.421 -3.59749 0.158872 0
M  V30 1846 C 184.274 -4.21419 1.57245 0
M  V30 1847 C 185.593 -4.37149 -0.50879 0
M  V30 1848 H 182.712 -0.734694 0.0582602 0
M  V30 1849 H 185.354 -1.71157 0.824951 0
M  V30 1850 H 183.504 -3.86325 -0.410525 0
M  V30 1851 H 185.176 -4.059 2.19186 0
M  V30 1852 H 183.419 -3.78356 2.122 0
M  V30 1853 H 184.09 -5.30482 1.52619 0
M  V30 1854 H 186.566 -4.16093 -0.024412 0
M  V30 1855 H 185.442 -5.4683 -0.476213 0
M  V30 1856 H 185.703 -4.12839 -1.58165 0
M  V30 1857 N 184.763 -0.387143 -1.52771 0
M  V30 1858 C 185.988 0.198407 -2.06449 0
M  V30 1859 C 186.413 1.39918 -1.25716 0
M  V30 1860 O 185.771 1.79099 -0.281657 0
M  V30 1861 C 185.819 0.548893 -3.56398 0
M  V30 1862 O 184.923 1.64315 -3.78252 0
M  V30 1863 H 184.264 0.0237731 -0.663574 0
M  V30 1864 H 186.794 -0.553989 -1.96957 0
M  V30 1865 H 186.804 0.813812 -3.99801 0
M  V30 1866 H 185.479 -0.329005 -4.14597 0
M  V30 1867 H 184.056 1.37211 -3.46738 0
M  V30 1868 N 186.241 1.57166 -0.116904 0
M  V30 1869 C 187.469 1.99473 0.549383 0
M  V30 1870 C 187.884 0.996541 1.60357 0
M  V30 1871 O 187.241 -0.0108731 1.82497 0
M  V30 1872 C 187.292 3.41788 1.17741 0
M  V30 1873 O 187.013 4.37788 0.165362 0
M  V30 1874 C 188.514 3.99216 1.92722 0
M  V30 1875 H 185.734 0.655009 0.145616 0
M  V30 1876 H 188.278 2.03494 -0.202625 0
M  V30 1877 H 186.433 3.38713 1.88021 0
M  V30 1878 H 186.847 5.20806 0.621403 0
M  V30 1879 H 188.321 5.00882 2.31995 0
M  V30 1880 H 188.798 3.3824 2.80161 0
M  V30 1881 H 189.404 4.0583 1.27209 0
M  V30 1882 N 187.719 -0.156864 1.56817 0
M  V30 1883 C 188.996 -0.899244 1.73704 0
M  V30 1884 C 189.376 -1.99771 0.682254 0
M  V30 1885 O 188.724 -2.26515 -0.300522 0
M  V30 1886 C 188.934 -1.45075 3.17418 0
M  V30 1887 C 190.282 -1.91802 3.7881 0
M  V30 1888 O 191.306 -1.54838 3.20786 0
M  V30 1889 O 190.165 -2.5994 4.80722 0
M  V30 1890 H 187.259 -0.424267 0.709878 0
M  V30 1891 H 189.805 -0.143561 1.69092 0
M  V30 1892 H 188.577 -0.660846 3.85679 0
M  V30 1893 H 188.2 -2.27021 3.26416 0
M  V30 1894 N 189.197 -1.51736 -0.425897 0
M  V30 1895 C 190.107 -1.76738 -1.54275 0
M  V30 1896 C 191.123 -0.65211 -1.61318 0
M  V30 1897 O 192.299 -0.935654 -1.78346 0
M  V30 1898 C 189.364 -1.89755 -2.90162 0
M  V30 1899 C 188.425 -3.13633 -2.93143 0
M  V30 1900 C 187.658 -3.2602 -4.22548 0
M  V30 1901 O 187.881 -2.44067 -5.15546 0
M  V30 1902 O 186.815 -4.19071 -4.32046 0
M  V30 1903 H 190.641 -2.71502 -1.36089 0
M  V30 1904 H 188.226 -1.36376 -0.610069 0
M  V30 1905 H 190.108 -2.00236 -3.70788 0
M  V30 1906 H 188.783 -0.981785 -3.08452 0
M  V30 1907 H 187.69 -3.08622 -2.11431 0
M  V30 1908 H 189.023 -4.04936 -2.798 0
M  V30 1909 N 190.675 0.682077 -1.42076 0
M  V30 1910 C 191.921 1.44428 -1.42367 0
M  V30 1911 C 192.254 1.94164 -0.0373056 0
M  V30 1912 O 191.529 1.70429 0.937239 0
M  V30 1913 C 191.812 2.64654 -2.44194 0
M  V30 1914 C 191.665 2.20596 -3.91991 0
M  V30 1915 C 192.984 3.66865 -2.431 0
M  V30 1916 H 190.103 0.523834 -0.518428 0
M  V30 1917 H 192.745 0.77576 -1.73442 0
M  V30 1918 H 190.895 3.2169 -2.17826 0
M  V30 1919 H 192.567 1.68783 -4.29313 0
M  V30 1920 H 190.81 1.52242 -4.06208 0
M  V30 1921 H 191.481 3.06921 -4.58807 0
M  V30 1922 H 193.957 3.19531 -2.66532 0
M  V30 1923 H 192.833 4.48577 -3.16339 0
M  V30 1924 H 193.094 4.17493 -1.45437 0
M  V30 1925 N 192.153 1.28127 0.917671 0
M  V30 1926 C 193.383 1.17722 1.6978 0
M  V30 1927 C 193.791 -0.267261 1.87303 0
M  V30 1928 O 193.134 -1.19286 1.39702 0
M  V30 1929 C 193.196 1.79958 3.11216 0
M  V30 1930 C 192.86 3.29187 3.16993 0
M  V30 1931 C 193.857 4.25679 2.98485 0
M  V30 1932 C 191.542 3.70075 3.39632 0
M  V30 1933 C 193.536 5.61035 3.02521 0
M  V30 1934 C 191.223 5.05557 3.433 0
M  V30 1935 C 192.221 6.00847 3.24764 0
M  V30 1936 O 191.909 7.33859 3.28187 0
M  V30 1937 H 191.641 0.409788 0.537634 0
M  V30 1938 H 194.195 1.69694 1.15728 0
M  V30 1939 H 192.425 1.22475 3.66793 0
M  V30 1940 H 194.114 1.64125 3.71238 0
M  V30 1941 H 194.88 3.95426 2.80826 0
M  V30 1942 H 190.759 2.96373 3.53106 0
M  V30 1943 H 194.303 6.35388 2.87971 0
M  V30 1944 H 190.2 5.35462 3.60486 0
M  V30 1945 H 190.968 7.42436 3.44575 0
M  V30 1946 N 193.631 -1.12557 1.10312 0
M  V30 1947 C 194.879 -1.83675 0.843091 0
M  V30 1948 C 195.2 -1.84435 -0.633131 0
M  V30 1949 O 194.47 -1.30657 -1.45964 0
M  V30 1950 H 193.05 -0.680138 0.308904 0
M  V30 1951 H 195.712 -1.36301 1.39313 0
M  V30 1952 H 194.808 -2.87908 1.2048 0
M  V30 1953 N 195.109 -0.891671 -1.2995 0
M  V30 1954 C 196.334 -0.527932 -2.00568 0
M  V30 1955 C 196.759 0.877969 -1.66353 0
M  V30 1956 O 196.117 1.58301 -0.883762 0
M  V30 1957 C 196.165 -0.717745 -3.53385 0
M  V30 1958 O 195.269 0.233376 -4.11739 0
M  V30 1959 H 194.61 -0.20722 -0.630837 0
M  V30 1960 H 197.14 -1.20105 -1.65638 0
M  V30 1961 H 197.15 -0.619307 -4.03272 0
M  V30 1962 H 195.825 -1.74276 -3.77625 0
M  V30 1963 H 194.402 0.0880706 -3.72796 0
M  V30 1964 N 196.587 1.43421 -0.653314 0
M  V30 1965 C 197.836 2.01032 -0.164076 0
M  V30 1966 C 198.149 1.52147 1.22926 0
M  V30 1967 O 199.355 2.02031 1.81371 0
M  V30 1968 C 197.811 3.59082 -0.24252 0
M  V30 1969 C 197.419 4.1696 -1.63855 0
M  V30 1970 C 199.163 4.24079 0.18911 0
M  V30 1971 C 197.07 5.67304 -1.67092 0
M  V30 1972 H 196 0.751798 -0.0575769 0
M  V30 1973 H 198.651 1.6439 -0.815362 0
M  V30 1974 H 197.033 3.93125 0.476276 0
M  V30 1975 H 198.207 3.94416 -2.38271 0
M  V30 1976 H 196.522 3.64335 -2.01616 0
M  V30 1977 H 199.119 5.34381 0.184775 0
M  V30 1978 H 199.462 3.98005 1.22056 0
M  V30 1979 H 199.995 3.94918 -0.477938 0
M  V30 1980 H 196.734 5.98145 -2.68146 0
M  V30 1981 H 196.254 5.91904 -0.970014 0
M  V30 1982 H 197.933 6.31344 -1.4147 0
M  V30 1983 N 198.065 0.39524 1.52563 0
M  V30 1984 C 199.342 -0.242908 1.94086 0
M  V30 1985 C 199.722 -1.63841 1.33114 0
M  V30 1986 O 199.07 -2.22928 0.501529 0
M  V30 1987 C 199.28 -0.26327 3.48006 0
M  V30 1988 C 200.628 -0.489354 4.21771 0
M  V30 1989 O 201.652 -0.343226 3.54543 0
M  V30 1990 O 200.511 -0.776169 5.4096 0
M  V30 1991 H 197.605 -0.152536 0.812811 0
M  V30 1992 H 200.151 0.450178 1.6362 0
M  V30 1993 H 198.923 0.713985 3.84731 0
M  V30 1994 H 198.546 -1.00103 3.84792 0
M  V30 1995 N 199.544 -1.57102 0.125237 0
M  V30 1996 C 200.769 -2.0019 -0.542101 0
M  V30 1997 C 201.194 -1.00449 -1.59034 0
M  V30 1998 O 200.552 0.0229423 -1.81285 0
M  V30 1999 C 200.6 -3.42129 -1.13929 0
M  V30 2000 O 199.704 -3.45307 -2.2547 0
M  V30 2001 H 199.045 -0.650171 -0.134812 0
M  V30 2002 H 201.575 -2.03461 0.215553 0
M  V30 2003 H 201.585 -3.80471 -1.4733 0
M  V30 2004 H 200.26 -4.14237 -0.371531 0
M  V30 2005 H 198.837 -3.1879 -1.93462 0
M  V30 2006 N 201.022 0.148545 -1.56898 0
M  V30 2007 C 202.27 0.859717 -1.82902 0
M  V30 2008 C 202.591 1.81775 -0.70588 0
M  V30 2009 O 201.861 1.93994 0.272586 0
M  V30 2010 H 200.441 0.320469 -0.674766 0
M  V30 2011 H 203.103 0.142918 -1.94375 0
M  V30 2012 H 202.199 1.4229 -2.77777 0
M  V30 2013 N 202.5 1.5196 0.417844 0
M  V30 2014 C 203.725 1.69717 1.1921 0
M  V30 2015 C 204.15 0.402148 1.83751 0
M  V30 2016 O 203.508 -0.639593 1.69643 0
M  V30 2017 C 203.556 2.82794 2.2374 0
M  V30 2018 O 202.66 2.47756 3.29683 0
M  V30 2019 H 202.001 0.565263 0.348387 0
M  V30 2020 H 204.531 1.98621 0.490985 0
M  V30 2021 H 204.541 3.07452 2.68212 0
M  V30 2022 H 203.216 3.76756 1.76146 0
M  V30 2023 H 201.793 2.33739 2.90552 0
M  V30 2024 N 203.978 -0.674533 1.42435 0
M  V30 2025 C 205.224 -1.43521 1.4413 0
M  V30 2026 C 205.579 -1.92316 0.0567773 0
M  V30 2027 O 204.872 -1.68008 -0.921076 0
M  V30 2028 C 205.066 -2.64767 2.40069 0
M  V30 2029 C 204.895 -2.27836 3.87713 0
M  V30 2030 C 203.665 -2.17183 4.56245 0
M  V30 2031 C 205.863 -1.89466 4.78129 0
M  V30 2032 N 203.845 -1.73358 5.88915 0
M  V30 2033 C 205.216 -1.56561 5.99907 0
M  V30 2034 C 207.271 -1.7646 4.65582 0
M  V30 2035 C 205.974 -1.11957 7.10534 0
M  V30 2036 C 208 -1.3326 5.76191 0
M  V30 2037 C 207.362 -1.0128 6.97081 0
M  V30 2038 H 203.461 -0.521656 0.582579 0
M  V30 2039 H 206.045 -0.778381 1.78464 0
M  V30 2040 H 204.216 -3.28139 2.07796 0
M  V30 2041 H 205.948 -3.3136 2.32342 0
M  V30 2042 H 202.703 -2.3626 4.10461 0
M  V30 2043 H 203.127 -1.53867 6.59283 0
M  V30 2044 H 207.769 -1.99831 3.72595 0
M  V30 2045 H 205.487 -0.873318 8.03367 0
M  V30 2046 H 209.073 -1.23717 5.68494 0
M  V30 2047 H 207.953 -0.683597 7.81215 0
M  V30 2048 N 205.456 -1.28612 -0.910864 0
M  V30 2049 C 206.684 -1.18792 -1.69399 0
M  V30 2050 C 207.099 0.253039 -1.87097 0
M  V30 2051 O 206.456 1.17071 -1.40003 0
M  V30 2052 C 206.507 -1.88511 -3.08457 0
M  V30 2053 O 206.228 -3.26979 -2.91576 0
M  V30 2054 C 207.729 -1.85029 -4.02839 0
M  V30 2055 H 204.949 -0.412233 -0.529438 0
M  V30 2056 H 207.493 -1.69788 -1.13984 0
M  V30 2057 H 205.648 -1.41379 -3.60681 0
M  V30 2058 H 206.062 -3.61936 -3.79608 0
M  V30 2059 H 207.536 -2.38395 -4.97867 0
M  V30 2060 H 208.013 -0.823303 -4.31414 0
M  V30 2061 H 208.619 -2.31853 -3.56545 0
M  V30 2062 N 206.934 1.1197 -1.10907 0
M  V30 2063 C 207.844 2.21433 -0.774896 0
M  V30 2064 C 208.86 1.72478 0.229657 0
M  V30 2065 O 210.036 2.01288 0.0672008 0
M  V30 2066 C 207.101 3.4602 -0.216986 0
M  V30 2067 C 206.162 4.09791 -1.27944 0
M  V30 2068 C 205.395 5.28431 -0.748055 0
M  V30 2069 O 205.618 5.68823 0.423833 0
M  V30 2070 O 204.552 5.82644 -1.51027 0
M  V30 2071 H 208.378 2.5242 -1.68873 0
M  V30 2072 H 205.963 1.20399 -0.884555 0
M  V30 2073 H 207.845 4.21304 0.090059 0
M  V30 2074 H 206.52 3.16698 0.669633 0
M  V30 2075 H 205.427 3.36265 -1.63941 0
M  V30 2076 H 206.76 4.4328 -2.13925 0
M  V30 2077 N 208.412 0.89855 1.29475 0
M  V30 2078 C 209.637 0.538561 2.00285 0
M  V30 2079 C 210.062 -0.869135 1.66816 0
M  V30 2080 O 209.42 -1.57831 0.892145 0
M  V30 2081 C 209.468 0.736475 3.52999 0
M  V30 2082 O 208.572 -0.211537 4.11857 0
M  V30 2083 H 207.913 0.210563 0.62973 0
M  V30 2084 H 210.443 1.20982 1.64998 0
M  V30 2085 H 210.453 0.640685 4.02938 0
M  V30 2086 H 209.128 1.76276 3.76696 0
M  V30 2087 H 207.705 -0.0682991 3.72837 0
M  V30 2088 N 209.89 -1.43072 0.660911 0
M  V30 2089 C 211.115 -2.06584 0.183805 0
M  V30 2090 C 211.54 -1.49257 -1.14472 0
M  V30 2091 O 210.898 -0.605528 -1.70889 0
M  V30 2092 C 210.946 -3.60418 0.114434 0
M  V30 2093 O 210.05 -4.01981 -0.921137 0
M  V30 2094 H 209.391 -0.656669 0.0983994 0
M  V30 2095 H 211.921 -1.83447 0.906006 0
M  V30 2096 H 211.931 -4.07946 -0.0663394 0
M  V30 2097 H 210.606 -4.01519 1.08422 0
M  V30 2098 H 209.183 -3.66029 -0.71253 0
M  V30 2099 N 211.368 -0.403325 -1.52352 0
M  V30 2100 C 212.779 0.0675782 -1.86578 0
M  V30 2101 C 213.13 1.44941 -1.32236 0
M  V30 2102 O 212.255 2.06112 -0.659307 0
M  V30 2103 C 212.85 0.129404 -3.38553 0
M  V30 2104 C 211.409 0.544629 -3.72439 0
M  V30 2105 C 210.556 -0.284551 -2.75836 0
M  V30 2106 H 213.507 -0.620631 -1.46061 0
M  V30 2107 H 213.528 0.94581 -3.68558 0
M  V30 2108 H 213.04 -0.87645 -3.78074 0
M  V30 2109 H 211.141 1.55734 -3.38493 0
M  V30 2110 H 211.254 0.293046 -4.78203 0
M  V30 2111 H 209.618 0.252258 -2.53448 0
M  V30 2112 H 210.401 -1.28865 -3.18196 0
M  V30 2113 N 212.846 1.57033 -0.133567 0
M  V30 2114 C 213.776 2.1909 0.807567 0
M  V30 2115 C 214.757 1.13517 1.26681 0
M  V30 2116 O 215.942 1.41809 1.32679 0
M  V30 2117 C 213.072 2.80188 2.05212 0
M  V30 2118 C 212.026 3.91471 1.73015 0
M  V30 2119 C 211.352 4.39443 3.04622 0
M  V30 2120 C 212.652 5.12886 0.987168 0
M  V30 2121 H 214.346 2.97988 0.290403 0
M  V30 2122 H 211.892 1.43335 0.138239 0
M  V30 2123 H 213.845 3.22264 2.71521 0
M  V30 2124 H 212.569 1.98601 2.59278 0
M  V30 2125 H 211.228 3.49993 1.0909 0
M  V30 2126 H 210.876 3.54695 3.56651 0
M  V30 2127 H 210.576 5.14495 2.83847 0
M  V30 2128 H 212.1 4.8418 3.72024 0
M  V30 2129 H 213.514 5.51891 1.55208 0
M  V30 2130 H 211.911 5.93615 0.87985 0
M  V30 2131 H 212.981 4.84894 -0.0235286 0
M  V30 2132 N 214.325 -0.140222 1.56975 0
M  V30 2133 C 215.235 -1.19223 2.02047 0
M  V30 2134 C 216.251 -1.46612 0.937062 0
M  V30 2135 O 217.427 -1.58148 1.24704 0
M  V30 2136 C 214.492 -2.50414 2.39778 0
M  V30 2137 C 213.553 -2.30612 3.621 0
M  V30 2138 C 212.786 -3.55547 3.98023 0
M  V30 2139 O 213.009 -4.62004 3.34528 0
M  V30 2140 O 211.943 -3.47808 4.91237 0
M  V30 2141 H 215.769 -0.839559 2.91865 0
M  V30 2142 H 213.354 -0.349453 1.45256 0
M  V30 2143 H 215.236 -3.27747 2.64877 0
M  V30 2144 H 213.911 -2.85198 1.53114 0
M  V30 2145 H 212.818 -1.51207 3.4218 0
M  V30 2146 H 214.151 -2.00741 4.49404 0
M  V30 2147 N 215.803 -1.52179 -0.40978 0
M  V30 2148 C 217.214 -1.58377 -0.988615 0
M  V30 2149 C 217.565 -0.423879 -1.91566 0
M  V30 2150 O 216.69 0.455844 -2.11544 0
M  V30 2151 C 217.285 -2.87044 -1.79976 0
M  V30 2152 C 215.844 -2.95722 -2.32863 0
M  V30 2153 C 214.991 -2.53309 -1.12828 0
M  V30 2154 H 217.942 -1.57558 -0.190039 0
M  V30 2155 H 217.963 -2.7236 -2.65707 0
M  V30 2156 H 217.475 -3.71444 -1.12478 0
M  V30 2157 H 215.576 -2.15814 -3.03735 0
M  V30 2158 H 215.689 -3.99951 -2.63773 0
M  V30 2159 H 214.053 -2.07142 -1.48204 0
M  V30 2160 H 214.836 -3.40082 -0.46897 0
M  V30 2161 N 217.281 0.66697 -1.42791 0
M  V30 2162 C 218.229 1.80157 -1.47127 0
M  V30 2163 C 219.223 1.65825 -0.346199 0
M  V30 2164 O 220.429 1.72338 -0.519572 0
M  V30 2165 H 216.804 0.594158 -0.460956 0
M  V30 2166 H 218.775 1.73619 -2.42692 0
M  V30 2167 C 217.524 3.18351 -1.39813 0
M  V30 2168 H 216.847 3.3001 -2.25684 0
M  V30 2169 H 218.287 3.97736 -1.46908 0
M  V30 2170 C 216.746 3.36707 -0.11391 0
M  V30 2171 O 217.276 3.93027 0.830241 0
M  V30 2172 N 215.482 2.90586 -0.0285295 0
M  V30 2173 H 215.029 2.4494 -0.79764 0
M  V30 2174 H 214.987 3.03245 0.830063 0
M  V30 2175 N 218.759 1.29093 0.90403 0
M  V30 2176 C 219.984 1.19809 1.69294 0
M  V30 2177 C 220.409 -0.238481 1.86582 0
M  V30 2178 O 219.767 -1.1723 1.383 0
M  V30 2179 C 219.815 1.91202 3.05736 0
M  V30 2180 O 218.919 1.22611 3.93752 0
M  V30 2181 H 218.26 0.415385 0.518027 0
M  V30 2182 H 220.79 1.70586 1.12967 0
M  V30 2183 H 220.8 1.99487 3.55906 0
M  V30 2184 H 219.475 2.95692 2.92471 0
M  V30 2185 H 218.052 1.22554 3.52186 0
M  V30 2186 N 220.237 -1.11381 1.11499 0
M  V30 2187 C 221.648 -1.6465 0.880191 0
M  V30 2188 C 221.999 -1.87199 -0.587434 0
M  V30 2189 O 221.124 -1.60667 -1.44966 0
M  V30 2190 C 221.719 -2.99105 1.59128 0
M  V30 2191 C 220.278 -3.49279 1.40289 0
M  V30 2192 C 219.425 -2.24077 1.63354 0
M  V30 2193 H 222.376 -0.950123 1.27116 0
M  V30 2194 H 222.397 -3.66107 1.03664 0
M  V30 2195 H 221.909 -2.82661 2.65941 0
M  V30 2196 H 220.01 -3.70887 0.356888 0
M  V30 2197 H 220.123 -4.2803 2.15238 0
M  V30 2198 H 218.487 -2.31733 1.05698 0
M  V30 2199 H 219.27 -2.10175 2.71443 0
M  V30 2200 N 221.715 -0.905404 -1.28997 0
M  V30 2201 C 222.945 -0.549049 -1.99171 0
M  V30 2202 C 223.353 0.87203 -1.67906 0
M  V30 2203 O 222.696 1.58796 -0.923561 0
M  V30 2204 C 222.758 -0.668306 -3.53234 0
M  V30 2205 C 222.422 -2.0574 -4.08069 0
M  V30 2206 C 223.419 -3.0292 -4.22534 0
M  V30 2207 C 221.104 -2.36833 -4.42962 0
M  V30 2208 C 223.098 -4.29314 -4.71135 0
M  V30 2209 C 220.785 -3.63467 -4.91258 0
M  V30 2210 C 221.783 -4.59522 -5.053 0
M  V30 2211 O 221.471 -5.83907 -5.52546 0
M  V30 2212 H 221.203 -0.208784 -0.64295 0
M  V30 2213 H 223.757 -1.21836 -1.65363 0
M  V30 2214 H 221.987 0.0580547 -3.86656 0
M  V30 2215 H 223.676 -0.320273 -4.04634 0
M  V30 2216 H 224.442 -2.80216 -3.95859 0
M  V30 2217 H 220.321 -1.62824 -4.31288 0
M  V30 2218 H 223.865 -5.04293 -4.8201 0
M  V30 2219 H 219.762 -3.86 -5.17372 0
M  V30 2220 H 220.53 -5.86578 -5.70849 0
M  V30 2221 N 223.193 1.4272 -0.668489 0
M  V30 2222 C 224.156 2.292 0.00448567 0
M  V30 2223 C 225.156 1.43001 0.735339 0
M  V30 2224 O 226.346 1.64461 0.57429 0
M  V30 2225 C 223.478 3.25375 1.01705 0
M  V30 2226 H 224.671 2.90199 -0.756608 0
M  V30 2227 H 222.224 1.50254 -0.430506 0
M  V30 2228 H 222.959 2.69301 1.80686 0
M  V30 2229 H 222.744 3.88944 0.496463 0
M  V30 2230 H 224.234 3.90245 1.48655 0
M  V30 2231 N 224.671 0.411399 1.52136 0
M  V30 2232 C 225.634 -0.401089 2.25663 0
M  V30 2233 C 226.634 -0.971732 1.28117 0
M  V30 2234 O 227.824 -0.850254 1.52041 0
M  V30 2235 C 224.956 -1.56483 3.02863 0
M  V30 2236 H 226.149 0.24295 2.98914 0
M  V30 2237 H 223.702 0.163968 1.55438 0
M  V30 2238 H 224.437 -2.24567 2.33967 0
M  V30 2239 H 224.222 -1.16211 3.74483 0
M  V30 2240 H 225.712 -2.13951 3.58629 0
M  V30 2241 N 226.149 -1.5696 0.141893 0
M  V30 2242 C 227.374 -2.00754 -0.520838 0
M  V30 2243 C 227.799 -1.0213 -1.57959 0
M  V30 2244 O 227.157 0.00371324 -1.813 0
M  V30 2245 C 227.205 -3.43318 -1.10294 0
M  V30 2246 O 226.309 -3.47679 -2.21795 0
M  V30 2247 H 225.65 -0.651564 -0.127908 0
M  V30 2248 H 228.18 -2.03221 0.23712 0
M  V30 2249 H 228.19 -3.82012 -1.43287 0
M  V30 2250 H 226.865 -4.14608 -0.327574 0
M  V30 2251 H 225.442 -3.20824 -1.9007 0
M  V30 2252 N 227.627 0.131896 -1.57047 0
M  V30 2253 C 228.574 1.16236 -1.99393 0
M  V30 2254 C 229.544 1.41863 -0.863943 0
M  V30 2255 O 230.729 1.53946 -1.12718 0
M  V30 2256 C 227.869 2.48708 -2.39245 0
M  V30 2257 C 226.982 2.30127 -3.65603 0
M  V30 2258 C 226.117 3.55738 -3.94492 0
M  V30 2259 C 225.156 3.32259 -5.14073 0
M  V30 2260 N 224.293 4.50039 -5.38896 0
M  V30 2261 H 229.133 0.794251 -2.87221 0
M  V30 2262 H 226.67 0.380707 -1.42088 0
M  V30 2263 H 228.628 3.25969 -2.60384 0
M  V30 2264 H 227.258 2.83437 -1.54478 0
M  V30 2265 H 226.31 1.43845 -3.52154 0
M  V30 2266 H 227.622 2.08746 -4.5302 0
M  V30 2267 H 226.776 4.41423 -4.1621 0
M  V30 2268 H 225.515 3.80138 -3.05526 0
M  V30 2269 H 224.52 2.44963 -4.92212 0
M  V30 2270 H 225.745 3.09242 -6.04604 0
M  V30 2271 H 223.691 4.74584 -4.52886 0
M  V30 2272 H 223.608 4.31716 -6.2061 0
M  V30 2273 H 224.876 5.36895 -5.65123 0
M  V30 2274 N 229.106 1.52395 0.401703 0
M  V30 2275 C 230.069 1.75636 1.47257 0
M  V30 2276 C 231.069 0.62628 1.48103 0
M  V30 2277 O 232.259 0.894227 1.49497 0
M  V30 2278 C 229.391 1.84553 2.86624 0
M  V30 2279 H 230.584 2.71241 1.27938 0
M  V30 2280 H 228.137 1.42923 0.632662 0
M  V30 2281 H 228.872 0.908882 3.11303 0
M  V30 2282 H 228.657 2.66715 2.87412 0
M  V30 2283 H 230.147 2.04251 3.64241 0
M  V30 2284 N 230.584 -0.659388 1.43143 0
M  V30 2285 C 231.832 -1.41654 1.44147 0
M  V30 2286 C 232.153 -1.94893 0.0645739 0
M  V30 2287 O 231.423 -1.74044 -0.899198 0
M  V30 2288 H 230.003 -0.525708 0.530697 0
M  V30 2289 H 232.665 -0.778097 1.78694 0
M  V30 2290 H 231.761 -2.26195 2.1504 0
M  V30 2291 N 232.062 -1.29571 -0.897171 0
M  V30 2292 C 233.287 -1.20705 -1.68656 0
M  V30 2293 C 233.712 0.228582 -1.86706 0
M  V30 2294 O 233.07 1.16494 -1.3892 0
M  V30 2295 C 233.118 -1.9282 -3.04717 0
M  V30 2296 O 232.222 -1.24697 -3.93096 0
M  V30 2297 H 231.563 -0.418126 -0.515816 0
M  V30 2298 H 234.093 -1.71183 -1.12061 0
M  V30 2299 H 234.103 -2.01372 -3.54843 0
M  V30 2300 H 232.778 -2.97239 -2.90899 0
M  V30 2301 H 231.355 -1.2442 -3.51531 0
M  V30 2302 N 233.54 1.10788 -1.12088 0
M  V30 2303 C 234.817 1.79136 -0.785476 0
M  V30 2304 C 235.197 1.98246 0.725377 0
M  V30 2305 O 234.545 1.57258 1.65778 0
M  V30 2306 C 234.755 3.12375 -1.55636 0
M  V30 2307 C 236.103 3.8731 -1.74001 0
M  V30 2308 O 237.127 3.22085 -1.52117 0
M  V30 2309 O 235.986 5.04369 -2.10415 0
M  V30 2310 H 233.08 0.776226 -0.285311 0
M  V30 2311 H 235.626 1.1747 -1.2247 0
M  V30 2312 H 234.398 2.93863 -2.5838 0
M  V30 2313 H 234.021 3.81758 -1.11114 0
M  V30 2314 N 235.018 0.912232 1.28515 0
M  V30 2315 C 235.948 0.416403 2.29757 0
M  V30 2316 C 236.929 -0.515194 1.6211 0
M  V30 2317 O 238.114 -0.423253 1.89532 0
M  V30 2318 C 235.244 -0.34572 3.45575 0
M  V30 2319 C 234.198 0.496599 4.25109 0
M  V30 2320 C 233.524 -0.393771 5.33248 0
M  V30 2321 C 234.824 1.75307 4.92001 0
M  V30 2322 H 236.518 1.26249 2.7148 0
M  V30 2323 H 234.064 0.608515 1.30511 0
M  V30 2324 H 236.017 -0.703422 4.15488 0
M  V30 2325 H 234.741 -1.2257 3.02728 0
M  V30 2326 H 233.4 0.8368 3.56922 0
M  V30 2327 H 233.048 -1.27225 4.86644 0
M  V30 2328 H 232.748 0.166209 5.87365 0
M  V30 2329 H 234.272 -0.747389 6.06009 0
M  V30 2330 H 235.686 1.46437 5.54283 0
M  V30 2331 H 234.083 2.25534 5.56106 0
M  V30 2332 H 235.153 2.48176 4.16577 0
M  V30 2333 N 236.496 -1.42363 0.676048 0
M  V30 2334 C 237.742 -2.0182 0.199125 0
M  V30 2335 C 238.075 -1.53339 -1.19168 0
M  V30 2336 O 237.35 -0.736124 -1.80032 0
M  V30 2337 C 237.633 -3.59331 0.235144 0
M  V30 2338 C 237.486 -4.17989 1.66149 0
M  V30 2339 C 238.805 -4.3813 -0.41595 0
M  V30 2340 H 235.924 -0.733293 0.0738311 0
M  V30 2341 H 238.566 -1.69368 0.86107 0
M  V30 2342 H 236.716 -3.87109 -0.328487 0
M  V30 2343 H 238.388 -4.0116 2.27747 0
M  V30 2344 H 236.631 -3.7377 2.20178 0
M  V30 2345 H 237.302 -5.27126 1.63837 0
M  V30 2346 H 239.778 -4.16051 0.0638529 0
M  V30 2347 H 238.654 -5.47717 -0.360115 0
M  V30 2348 H 238.915 -4.16101 -1.49373 0
M  V30 2349 N 237.974 -0.419461 -1.51915 0
M  V30 2350 C 238.937 0.389116 -2.25873 0
M  V30 2351 C 239.937 0.964924 -1.28631 0
M  V30 2352 O 241.127 0.842179 -1.52489 0
M  V30 2353 C 238.259 1.54874 -3.03689 0
M  V30 2354 H 239.452 -0.258799 -2.98781 0
M  V30 2355 H 237.005 -0.172209 -1.55348 0
M  V30 2356 H 237.74 2.23323 -2.35154 0
M  V30 2357 H 237.525 1.14223 -3.75094 0
M  V30 2358 H 239.015 2.12046 -3.59759 0
M  V30 2359 N 239.452 1.56882 -0.150215 0
M  V30 2360 C 240.868 1.58263 0.20617 0
M  V30 2361 C 241.068 1.16464 1.64434 0
M  V30 2362 O 240.124 0.866422 2.3717 0
M  V30 2363 C 241.437 3.00649 -0.0555025 0
M  V30 2364 C 242.985 3.12999 0.00795388 0
M  V30 2365 C 243.46 4.5744 -0.226429 0
M  V30 2366 N 244.951 4.62875 -0.173469 0
M  V30 2367 C 245.686 5.72454 -0.329288 0
M  V30 2368 N 245.182 6.90669 -0.543005 0
M  V30 2369 N 246.975 5.61467 -0.266666 0
M  V30 2370 H 239.126 1.82345 -1.08922 0
M  V30 2371 H 241.389 0.844149 -0.431413 0
M  V30 2372 H 241.095 3.3563 -1.05096 0
M  V30 2373 H 240.969 3.71337 0.66246 0
M  V30 2374 H 243.356 2.77857 0.993966 0
M  V30 2375 H 243.437 2.4479 -0.742388 0
M  V30 2376 H 243.081 4.93287 -1.20956 0
M  V30 2377 H 243.011 5.2378 0.544274 0
M  V30 2378 H 245.502 3.77898 -0.0130709 0
M  V30 2379 H 245.815 7.70045 -0.651922 0
M  V30 2380 H 244.16 6.92581 -0.579366 0
M  V30 2381 H 247.351 4.67992 -0.100441 0
M  V30 2382 H 247.524 6.46816 -0.391535 0
M  V30 2383 N 240.93 -0.123565 1.57115 0
M  V30 2384 C 241.893 -1.13583 1.99076 0
M  V30 2385 C 242.893 -1.34564 0.880296 0
M  V30 2386 O 244.083 -1.31158 1.14644 0
M  V30 2387 C 241.215 -2.49128 2.32698 0
M  V30 2388 H 242.408 -0.775287 2.89706 0
M  V30 2389 H 239.961 -0.36771 1.51913 0
M  V30 2390 H 240.696 -2.90111 1.44934 0
M  V30 2391 H 240.481 -2.35255 3.13684 0
M  V30 2392 H 241.971 -3.2199 2.65918 0
M  V30 2393 N 242.408 -1.52605 -0.393616 0
M  V30 2394 C 243.638 -1.71046 -1.15874 0
M  V30 2395 C 244.046 -0.426483 -1.84331 0
M  V30 2396 O 243.389 0.608513 -1.73329 0
M  V30 2397 C 243.451 -2.80118 -2.25332 0
M  V30 2398 C 243.115 -4.21381 -1.76881 0
M  V30 2399 C 244.112 -5.04697 -1.24808 0
M  V30 2400 C 241.797 -4.67683 -1.83244 0
M  V30 2401 C 243.791 -6.32393 -0.797387 0
M  V30 2402 C 241.478 -5.95364 -1.37787 0
M  V30 2403 C 242.476 -6.77549 -0.861208 0
M  V30 2404 O 242.164 -8.02837 -0.413252 0
M  V30 2405 H 241.896 -0.576155 -0.353583 0
M  V30 2406 H 244.45 -2.00018 -0.467123 0
M  V30 2407 H 242.68 -2.46557 -2.97904 0
M  V30 2408 H 244.369 -2.87006 -2.87023 0
M  V30 2409 H 245.135 -4.70111 -1.19252 0
M  V30 2410 H 241.014 -4.03805 -2.22401 0
M  V30 2411 H 244.558 -6.9649 -0.393437 0
M  V30 2412 H 240.455 -6.29455 -1.43026 0
M  V30 2413 H 241.223 -8.16749 -0.53515 0
M  V30 2414 N 243.887 0.651787 -1.4349 0
M  V30 2415 C 244.837 1.75783 -1.45205 0
M  V30 2416 C 245.821 1.57679 -0.320328 0
M  V30 2417 O 247.013 1.67767 -0.564211 0
M  V30 2418 C 244.142 3.14377 -1.3792 0
M  V30 2419 C 243.228 3.38023 -2.56127 0
M  V30 2420 N 243.619 3.32135 -3.81471 0
M  V30 2421 C 241.917 3.68747 -2.50882 0
M  V30 2422 C 242.618 3.55902 -4.60118 0
M  V30 2423 N 241.594 3.77783 -3.90872 0
M  V30 2424 H 245.396 1.69657 -2.39987 0
M  V30 2425 H 242.91 0.853508 -1.38163 0
M  V30 2426 H 244.907 3.93666 -1.37231 0
M  V30 2427 H 243.567 3.21683 -0.441596 0
M  V30 2428 H 244.578 3.11515 -4.13738 0
M  V30 2429 H 241.255 3.8316 -1.65816 0
M  V30 2430 H 242.645 3.57116 -5.69138 0
M  V30 2431 N 245.365 1.30045 0.890287 0
M  V30 2432 C 246.781 1.08261 1.17268 0
M  V30 2433 C 246.981 -0.160063 2.00863 0
M  V30 2434 O 246.037 -0.855181 2.37577 0
M  V30 2435 C 247.35 2.34323 1.8845 0
M  V30 2436 C 248.898 2.39735 2.01237 0
M  V30 2437 C 249.373 3.65625 2.7583 0
M  V30 2438 N 250.864 3.66402 2.83379 0
M  V30 2439 C 251.599 4.60498 3.41657 0
M  V30 2440 N 251.095 5.64933 4.01026 0
M  V30 2441 N 252.888 4.48051 3.39421 0
M  V30 2442 H 245.039 2.09777 0.332762 0
M  V30 2443 H 247.302 0.92446 0.209948 0
M  V30 2444 H 247.008 3.2498 1.34465 0
M  V30 2445 H 246.882 2.4256 2.88867 0
M  V30 2446 H 249.269 1.4956 2.54393 0
M  V30 2447 H 249.35 2.35476 0.999232 0
M  V30 2448 H 248.994 4.56156 2.23347 0
M  V30 2449 H 248.924 3.67144 3.77509 0
M  V30 2450 H 251.415 2.90896 2.41222 0
M  V30 2451 H 251.728 6.32841 4.43545 0
M  V30 2452 H 250.073 5.68732 3.99461 0
M  V30 2453 H 253.264 3.65649 2.92264 0
M  V30 2454 H 253.437 5.21565 3.84544 0
M  V30 2455 N 246.843 -1.10192 1.12674 0
M  V30 2456 C 248.071 -1.85983 0.906527 0
M  V30 2457 C 248.486 -1.80783 -0.544333 0
M  V30 2458 O 247.843 -1.19834 -1.37645 0
M  V30 2459 C 247.894 -3.34281 1.37618 0
M  V30 2460 O 247.615 -3.39401 2.77017 0
M  V30 2461 C 249.116 -4.26938 1.19325 0
M  V30 2462 H 246.336 -0.587716 0.323775 0
M  V30 2463 H 248.88 -1.39284 1.49734 0
M  V30 2464 H 247.035 -3.78436 0.828539 0
M  V30 2465 H 247.449 -4.31838 2.97684 0
M  V30 2466 H 248.923 -5.29181 1.57071 0
M  V30 2467 H 249.4 -4.38995 0.134097 0
M  V30 2468 H 250.006 -3.8859 1.72852 0
M  V30 2469 N 248.321 -0.919034 -1.28029 0
M  V30 2470 C 249.551 -0.570143 -1.98577 0
M  V30 2471 C 249.959 0.854172 -1.68821 0
M  V30 2472 O 249.302 1.57807 -0.940351 0
M  V30 2473 C 249.364 -0.705734 -3.52505 0
M  V30 2474 C 249.028 -2.10057 -4.05863 0
M  V30 2475 C 250.025 -3.07385 -4.19298 0
M  V30 2476 C 247.71 -2.41517 -4.40426 0
M  V30 2477 C 249.704 -4.34287 -4.66555 0
M  V30 2478 C 247.391 -3.68657 -4.87376 0
M  V30 2479 C 248.389 -4.64856 -5.00398 0
M  V30 2480 O 248.077 -5.89735 -5.46322 0
M  V30 2481 H 247.809 -0.215592 -0.6407 0
M  V30 2482 H 250.363 -1.23583 -1.64062 0
M  V30 2483 H 248.593 0.0170414 -3.86696 0
M  V30 2484 H 250.282 -0.363172 -4.04272 0
M  V30 2485 H 251.048 -2.84398 -3.92865 0
M  V30 2486 H 246.927 -1.67389 -4.29537 0
M  V30 2487 H 250.471 -5.09377 -4.76635 0
M  V30 2488 H 246.368 -3.91466 -5.13249 0
M  V30 2489 H 247.136 -5.92599 -5.64596 0
M  V30 2490 N 249.799 1.42003 -0.683588 0
M  V30 2491 C 251.047 2.01015 -0.209101 0
M  V30 2492 C 251.368 1.54365 1.19149 0
M  V30 2493 O 250.638 0.769083 1.80172 0
M  V30 2494 H 249.218 0.743294 -0.074315 0
M  V30 2495 H 251.88 1.73798 -0.882066 0
M  V30 2496 H 250.976 3.11343 -0.2172 0
M  V30 2497 N 251.277 0.427512 1.51691 0
M  V30 2498 C 252.207 -0.3796 2.30394 0
M  V30 2499 C 253.188 -1.02982 1.35384 0
M  V30 2500 O 254.373 -1.03534 1.643 0
M  V30 2501 C 251.503 -1.48649 3.1388 0
M  V30 2502 C 250.457 -0.960294 4.17088 0
M  V30 2503 C 249.783 -2.16219 4.89033 0
M  V30 2504 C 251.083 -0.00153679 5.223 0
M  V30 2505 H 252.777 0.277164 2.98114 0
M  V30 2506 H 250.323 0.134739 1.43368 0
M  V30 2507 H 252.276 -2.05826 3.67714 0
M  V30 2508 H 251 -2.1714 2.43962 0
M  V30 2509 H 249.659 -0.410806 3.64291 0
M  V30 2510 H 249.307 -2.83307 4.15628 0
M  V30 2511 H 249.007 -1.81654 5.58816 0
M  V30 2512 H 250.531 -2.73968 5.45687 0
M  V30 2513 H 251.945 -0.482687 5.71264 0
M  V30 2514 H 250.342 0.256199 5.99553 0
M  V30 2515 H 251.412 0.938174 4.75738 0
M  V30 2516 N 252.755 -1.56801 0.158532 0
M  V30 2517 C 254.032 -1.88131 -0.535357 0
M  V30 2518 C 254.412 -1.06638 -1.82186 0
M  V30 2519 O 253.76 -0.156533 -2.27963 0
M  V30 2520 C 253.97 -3.39949 -0.789653 0
M  V30 2521 C 255.318 -4.09416 -1.12533 0
M  V30 2522 O 256.342 -3.45194 -0.878622 0
M  V30 2523 O 255.201 -5.22855 -1.59014 0
M  V30 2524 H 252.295 -0.780143 -0.27442 0
M  V30 2525 H 254.841 -1.68564 0.19601 0
M  V30 2526 H 253.613 -3.91115 0.120353 0
M  V30 2527 H 253.236 -3.65084 -1.57479 0
M  V30 2528 N 254.233 0.115231 -1.57178 0
M  V30 2529 C 255.479 0.82357 -1.85325 0
M  V30 2530 C 255.812 1.79349 -0.744814 0
M  V30 2531 O 255.087 1.92899 0.249024 0
M  V30 2532 C 255.37 1.57014 -3.24066 0
M  V30 2533 C 255.223 0.619565 -4.45513 0
M  V30 2534 C 256.542 2.52545 -3.60429 0
M  V30 2535 H 253.661 0.297948 -0.674089 0
M  V30 2536 H 256.303 0.0877138 -1.89797 0
M  V30 2537 H 254.453 2.19742 -3.20383 0
M  V30 2538 H 256.125 0.000837639 -4.613 0
M  V30 2539 H 254.368 -0.0686174 -4.33746 0
M  V30 2540 H 255.039 1.17866 -5.3927 0
M  V30 2541 H 257.515 1.9992 -3.64926 0
M  V30 2542 H 256.391 3.01811 -4.58477 0
M  V30 2543 H 256.652 3.35383 -2.88047 0
M  V30 2544 N 255.711 1.52812 0.385517 0
M  V30 2545 C 257.127 1.4214 0.725829 0
M  V30 2546 C 257.327 0.544589 1.94001 0
M  V30 2547 O 256.383 0.0193693 2.52493 0
M  V30 2548 C 257.696 2.85042 0.957668 0
M  V30 2549 C 259.244 2.94543 1.05892 0
M  V30 2550 C 259.719 4.38464 1.32337 0
M  V30 2551 N 261.21 4.41804 1.39151 0
M  V30 2552 C 261.945 5.5025 1.61285 0
M  V30 2553 N 261.441 6.68775 1.80866 0
M  V30 2554 N 263.234 5.37798 1.63492 0
M  V30 2555 H 255.385 2.08338 -0.413383 0
M  V30 2556 H 257.648 0.940016 -0.122775 0
M  V30 2557 H 257.354 3.51431 0.137568 0
M  V30 2558 H 257.228 3.27505 1.87137 0
M  V30 2559 H 259.615 2.28321 1.86959 0
M  V30 2560 H 259.696 2.55504 0.123057 0
M  V30 2561 H 259.34 5.05254 0.517793 0
M  V30 2562 H 259.27 4.75059 2.27214 0
M  V30 2563 H 261.761 3.56377 1.25713 0
M  V30 2564 H 262.074 7.47197 1.97271 0
M  V30 2565 H 260.419 6.71797 1.78083 0
M  V30 2566 H 263.61 4.44171 1.47749 0
M  V30 2567 H 263.783 6.22382 1.80402 0
M  V30 2568 N 257.189 -0.644168 1.43834 0
M  V30 2569 C 258.438 -1.39985 1.45214 0
M  V30 2570 C 258.751 -1.95421 0.0835494 0
M  V30 2571 O 259.957 -2.71488 -0.0251748 0
M  V30 2572 C 258.413 -2.53384 2.55587 0
M  V30 2573 C 258.021 -2.04517 3.98594 0
M  V30 2574 C 259.765 -3.30685 2.66172 0
M  V30 2575 C 257.672 -3.1518 5.00416 0
M  V30 2576 H 256.602 -0.526005 0.540218 0
M  V30 2577 H 259.253 -0.694367 1.69855 0
M  V30 2578 H 257.635 -3.26446 2.24163 0
M  V30 2579 H 258.809 -1.38405 4.39523 0
M  V30 2580 H 257.124 -1.40068 3.92135 0
M  V30 2581 H 259.721 -4.13158 3.39418 0
M  V30 2582 H 260.064 -3.79312 1.71546 0
M  V30 2583 H 260.597 -2.64708 2.96942 0
M  V30 2584 H 257.336 -2.71511 5.96625 0
M  V30 2585 H 256.856 -3.79974 4.64091 0
M  V30 2586 H 258.535 -3.80166 5.23529 0
M  V30 2587 N 258.668 -1.30515 -0.883378 0
M  V30 2588 C 259.896 -1.22359 -1.66841 0
M  V30 2589 C 260.311 0.213296 -1.87591 0
M  V30 2590 O 259.668 1.14075 -1.42454 0
M  V30 2591 C 259.719 -1.95011 -3.04389 0
M  V30 2592 O 259.44 -3.3309 -2.84575 0
M  V30 2593 C 260.941 -1.93532 -3.98824 0
M  V30 2594 H 258.161 -0.423371 -0.520575 0
M  V30 2595 H 260.705 -1.72167 -1.10357 0
M  V30 2596 H 258.86 -1.48997 -3.57601 0
M  V30 2597 H 259.274 -3.69907 -3.71846 0
M  V30 2598 H 260.748 -2.48902 -4.92699 0
M  V30 2599 H 261.225 -0.914627 -4.29571 0
M  V30 2600 H 261.831 -2.39364 -3.51547 0
M  V30 2601 N 260.146 1.09593 -1.13257 0
M  V30 2602 C 261.562 1.33775 -0.870423 0
M  V30 2603 C 261.762 1.95327 0.494926 0
M  V30 2604 O 260.818 2.19853 1.2418 0
M  V30 2605 C 262.131 2.25106 -1.99369 0
M  V30 2606 C 263.679 2.3862 -2.02558 0
M  V30 2607 C 264.154 3.33285 -3.14142 0
M  V30 2608 N 265.645 3.40857 -3.13641 0
M  V30 2609 C 266.38 4.14101 -3.96621 0
M  V30 2610 N 265.876 4.90157 -4.8961 0
M  V30 2611 N 267.669 4.09808 -3.84726 0
M  V30 2612 H 259.82 0.680136 -2.01216 0
M  V30 2613 H 262.083 0.362133 -0.876107 0
M  V30 2614 H 261.789 1.87103 -2.97801 0
M  V30 2615 H 261.663 3.25481 -1.90635 0
M  V30 2616 H 264.05 2.75887 -1.0474 0
M  V30 2617 H 264.131 1.38028 -2.15364 0
M  V30 2618 H 263.775 2.96741 -4.12198 0
M  V30 2619 H 263.705 4.33776 -2.98574 0
M  V30 2620 H 266.196 2.86624 -2.46282 0
M  V30 2621 H 266.509 5.4347 -5.49418 0
M  V30 2622 H 264.854 4.89251 -4.93617 0
M  V30 2623 H 268.045 3.4949 -3.11408 0
M  V30 2624 H 268.218 4.66629 -4.49623 0
M  V30 2625 N 261.624 0.925811 1.2754 0
M  V30 2626 C 262.864 0.572521 1.96218 0
M  V30 2627 C 263.228 -0.869719 1.71172 0
M  V30 2628 O 264.429 -1.33119 2.33523 0
M  V30 2629 C 262.7 0.887325 3.4621 0
M  V30 2630 S 264.259 0.642266 4.34074 0
M  V30 2631 H 261.077 0.211403 0.678845 0
M  V30 2632 H 263.679 1.19384 1.54815 0
M  V30 2633 H 262.383 1.93469 3.61936 0
M  V30 2634 H 261.914 0.255123 3.92572 0
M  V30 2635 H 263.929 -0.500822 4.93666 0
M  V30 2636 N 263.102 -1.41638 0.69111 0
M  V30 2637 C 264.342 -2.03166 0.224291 0
M  V30 2638 C 264.706 -1.53537 -1.15284 0
M  V30 2639 O 265.907 -2.0696 -1.71525 0
M  V30 2640 C 264.178 -3.56342 0.274758 0
M  V30 2641 S 265.737 -4.3864 -0.118669 0
M  V30 2642 H 262.555 -0.705188 0.0907263 0
M  V30 2643 H 265.157 -1.7314 0.907895 0
M  V30 2644 H 263.861 -3.89958 1.2791 0
M  V30 2645 H 263.392 -3.91063 -0.428142 0
M  V30 2646 H 265.407 -4.77549 -1.34764 0
M  V30 2647 N 264.58 -0.43555 -1.51462 0
M  V30 2648 C 265.528 0.391205 -2.29287 0
M  V30 2649 C 266.522 1.02247 -1.35062 0
M  V30 2650 O 267.728 0.957646 -1.52411 0
M  V30 2651 H 264.103 0.144968 -0.737895 0
M  V30 2652 H 266.074 -0.286051 -2.97026 0
M  V30 2653 C 264.823 1.48096 -3.14583 0
M  V30 2654 H 264.146 1.00457 -3.86973 0
M  V30 2655 H 265.586 2.03273 -3.72097 0
M  V30 2656 C 264.045 2.46321 -2.29843 0
M  V30 2657 O 264.575 3.50815 -1.95682 0
M  V30 2658 N 262.781 2.17166 -1.931 0
M  V30 2659 H 262.328 1.32218 -2.21079 0
M  V30 2660 H 262.286 2.83127 -1.36698 0
M  V30 2661 N 266.058 1.56714 -0.166846 0
M  V30 2662 C 267.006 2.19056 0.782123 0
M  V30 2663 C 268 1.15328 1.24079 0
M  V30 2664 O 269.206 1.33537 1.20697 0
M  V30 2665 H 265.581 0.70167 0.270486 0
M  V30 2666 H 267.552 2.97494 0.232322 0
M  V30 2667 C 266.301 2.84206 2.00306 0
M  V30 2668 H 265.624 3.63748 1.65914 0
M  V30 2669 H 267.064 3.31302 2.64604 0
M  V30 2670 C 265.523 1.83744 2.82382 0
M  V30 2671 O 266.053 1.32014 3.79388 0
M  V30 2672 N 264.259 1.52601 2.47308 0
M  V30 2673 H 263.806 1.9486 1.68485 0
M  V30 2674 H 263.764 0.856351 3.02513 0
M  V30 2675 N 267.536 -0.106894 1.57237 0
M  V30 2676 C 268.766 -0.825191 1.89405 0
M  V30 2677 C 269.174 -1.73374 0.757496 0
M  V30 2678 O 268.517 -1.81552 -0.280115 0
M  V30 2679 C 268.579 -1.70102 3.1671 0
M  V30 2680 C 268.243 -0.965523 4.46684 0
M  V30 2681 C 269.24 -0.300741 5.19029 0
M  V30 2682 C 266.925 -0.943105 4.93367 0
M  V30 2683 C 268.919 0.376622 6.36286 0
M  V30 2684 C 266.606 -0.261949 6.10538 0
M  V30 2685 C 267.604 0.396748 6.81847 0
M  V30 2686 O 267.292 1.06701 7.96787 0
M  V30 2687 H 267.024 -0.241852 0.631255 0
M  V30 2688 H 269.578 -0.0921491 2.05193 0
M  V30 2689 H 267.808 -2.47601 2.97036 0
M  V30 2690 H 269.497 -2.29483 3.34802 0
M  V30 2691 H 270.263 -0.309599 4.84011 0
M  V30 2692 H 266.142 -1.44524 4.3776 0
M  V30 2693 H 269.686 0.891334 6.91882 0
M  V30 2694 H 265.583 -0.250896 6.45012 0
M  V30 2695 H 266.351 0.972707 8.127 0
M  V30 2696 N 269.014 -1.53014 -0.377408 0
M  V30 2697 C 270.262 -1.6829 -1.11906 0
M  V30 2698 C 270.583 -0.431206 -1.90173 0
M  V30 2699 O 269.853 0.554595 -1.87886 0
M  V30 2700 H 268.433 -0.620371 -0.416112 0
M  V30 2701 H 271.095 -1.90167 -0.426893 0
M  V30 2702 H 270.191 -2.53862 -1.8155 0
M  V30 2703 N 270.492 0.636531 -1.44174 0
M  V30 2704 C 271.903 1.21806 -1.41493 0
M  V30 2705 C 272.254 1.95785 -0.1275 0
M  V30 2706 O 271.379 2.02147 0.772376 0
M  V30 2707 C 271.974 2.21551 -2.56321 0
M  V30 2708 C 270.533 2.75143 -2.56853 0
M  V30 2709 C 269.68 1.50052 -2.33195 0
M  V30 2710 H 272.631 0.427531 -1.52833 0
M  V30 2711 H 272.652 3.0405 -2.28765 0
M  V30 2712 H 272.164 1.67679 -3.50008 0
M  V30 2713 H 270.265 3.33033 -1.67093 0
M  V30 2714 H 270.378 3.2155 -3.55165 0
M  V30 2715 H 268.742 1.77993 -1.82183 0
M  V30 2716 H 269.525 0.980903 -3.28988 0
M  V30 2717 N 271.97 1.30982 0.876444 0
M  V30 2718 C 273.2 1.23063 1.65949 0
M  V30 2719 C 273.608 -0.207537 1.88058 0
M  V30 2720 O 272.951 -1.14781 1.43426 0
M  V30 2721 C 273.013 1.89768 3.05333 0
M  V30 2722 C 272.677 3.39106 3.0636 0
M  V30 2723 C 273.674 4.3496 2.84791 0
M  V30 2724 C 271.359 3.80693 3.27686 0
M  V30 2725 C 273.353 5.70375 2.84519 0
M  V30 2726 C 271.04 5.16223 3.27043 0
M  V30 2727 C 272.038 6.10875 3.05485 0
M  V30 2728 O 271.726 7.43928 3.04674 0
M  V30 2729 H 271.458 0.426685 0.524324 0
M  V30 2730 H 274.012 1.7329 1.10271 0
M  V30 2731 H 272.242 1.34082 3.6271 0
M  V30 2732 H 273.931 1.75853 3.65829 0
M  V30 2733 H 274.697 4.0416 2.68103 0
M  V30 2734 H 270.576 3.07457 3.43499 0
M  V30 2735 H 274.12 6.44228 2.67611 0
M  V30 2736 H 270.017 5.4666 3.43269 0
M  V30 2737 H 270.785 7.53022 3.2078 0
M  V30 2738 N 273.449 -1.08991 1.13837 0
M  V30 2739 C 274.381 -2.15606 0.777612 0
M  V30 2740 C 275.394 -1.61533 -0.202739 0
M  V30 2741 O 276.583 -1.78491 0.0181055 0
M  V30 2742 C 273.683 -3.3864 0.132623 0
M  V30 2743 C 272.856 -4.22115 1.1462 0
M  V30 2744 C 271.915 -5.23564 0.526074 0
M  V30 2745 O 270.941 -5.56678 1.18735 0
M  V30 2746 N 272.143 -5.76266 -0.699866 0
M  V30 2747 H 274.908 -2.47159 1.69506 0
M  V30 2748 H 272.469 -1.24747 1.03198 0
M  V30 2749 H 274.461 -4.03626 -0.29459 0
M  V30 2750 H 273.031 -3.04938 -0.687849 0
M  V30 2751 H 272.251 -3.53199 1.75055 0
M  V30 2752 H 273.539 -4.74709 1.83109 0
M  V30 2753 H 272.937 -5.51585 -1.25581 0
M  V30 2754 H 271.494 -6.42963 -1.06968 0
M  V30 2755 N 274.927 -0.932562 -1.27047 0
M  V30 2756 C 275.877 -0.406392 -2.24349 0
M  V30 2757 C 276.861 0.492066 -1.53191 0
M  V30 2758 O 278.053 0.328717 -1.73921 0
M  V30 2759 C 275.182 0.335214 -3.41659 0
M  V30 2760 C 274.268 -0.58004 -4.20115 0
M  V30 2761 N 274.659 -1.70203 -4.76303 0
M  V30 2762 C 272.957 -0.383974 -4.44344 0
M  V30 2763 C 273.658 -2.27167 -5.35509 0
M  V30 2764 N 272.634 -1.56068 -5.20715 0
M  V30 2765 H 276.436 -1.26299 -2.65378 0
M  V30 2766 H 273.95 -0.787408 -1.42034 0
M  V30 2767 H 275.947 0.729142 -4.10474 0
M  V30 2768 H 274.607 1.18868 -3.0216 0
M  V30 2769 H 275.618 -2.08433 -4.74106 0
M  V30 2770 H 272.295 0.428436 -4.15296 0
M  V30 2771 H 273.685 -3.21654 -5.89905 0
M  V30 2772 N 276.405 1.4127 -0.698611 0
M  V30 2773 C 277.816 1.84187 -0.305289 0
M  V30 2774 C 278.167 1.58449 1.15708 0
M  V30 2775 O 277.292 1.05651 1.88856 0
M  V30 2776 C 277.887 3.3435 -0.547314 0
M  V30 2777 C 276.446 3.75826 -0.207878 0
M  V30 2778 C 275.593 2.64647 -0.828099 0
M  V30 2779 H 278.544 1.30778 -0.89904 0
M  V30 2780 H 278.565 3.8001 0.192998 0
M  V30 2781 H 278.077 3.53051 -1.61172 0
M  V30 2782 H 276.178 3.62725 0.852143 0
M  V30 2783 H 276.291 4.74462 -0.665021 0
M  V30 2784 H 274.655 2.53395 -0.257458 0
M  V30 2785 H 275.438 2.86165 -1.89643 0
M  V30 2786 N 277.883 0.443576 1.51229 0
M  V30 2787 C 278.793 -0.370721 2.31652 0
M  V30 2788 C 279.809 -1.02186 1.40833 0
M  V30 2789 O 280.985 -1.01586 1.73903 0
M  V30 2790 C 278.05 -1.45376 3.14749 0
M  V30 2791 C 277.111 -0.822099 4.21355 0
M  V30 2792 C 276.344 -1.85353 5.0048 0
M  V30 2793 O 276.567 -3.07656 4.80316 0
M  V30 2794 O 275.501 -1.4406 5.84406 0
M  V30 2795 H 279.327 0.286002 3.0235 0
M  V30 2796 H 276.912 0.20598 1.47973 0
M  V30 2797 H 278.794 -2.08173 3.66391 0
M  V30 2798 H 277.469 -2.09445 2.46809 0
M  V30 2799 H 276.376 -0.155909 3.73775 0
M  V30 2800 H 277.709 -0.224797 4.91686 0
M  V30 2801 N 279.361 -1.56624 0.175154 0
M  V30 2802 C 280.308 -2.18149 -0.753634 0
M  V30 2803 C 281.278 -1.12265 -1.22417 0
M  V30 2804 O 282.463 -1.40432 -1.29165 0
M  V30 2805 C 279.603 -2.82933 -1.97592 0
M  V30 2806 C 278.716 -4.03289 -1.5486 0
M  V30 2807 C 277.851 -4.55988 -2.72485 0
M  V30 2808 C 276.89 -5.68746 -2.26262 0
M  V30 2809 N 276.027 -6.15938 -3.36994 0
M  V30 2810 H 280.867 -2.9717 -0.222195 0
M  V30 2811 H 278.404 -1.46774 -0.0979422 0
M  V30 2812 H 280.362 -3.18653 -2.69288 0
M  V30 2813 H 278.992 -2.06509 -2.481 0
M  V30 2814 H 278.044 -3.73364 -0.728246 0
M  V30 2815 H 279.356 -4.849 -1.16933 0
M  V30 2816 H 278.51 -4.9391 -3.52332 0
M  V30 2817 H 277.249 -3.73443 -3.13674 0
M  V30 2818 H 276.254 -5.30372 -1.44863 0
M  V30 2819 H 277.479 -6.53095 -1.86127 0
M  V30 2820 H 275.425 -5.36321 -3.77751 0
M  V30 2821 H 275.342 -6.92548 -3.03172 0
M  V30 2822 H 276.61 -6.58511 -4.17114 0
M  V30 2823 N 280.839 0.0985539 -1.57292 0
M  V30 2824 C 281.769 1.12064 -2.04851 0
M  V30 2825 C 282.75 1.41981 -0.936767 0
M  V30 2826 O 283.935 1.52071 -1.20781 0
M  V30 2827 C 281.065 2.44144 -2.47004 0
M  V30 2828 C 280.019 2.28643 -3.6181 0
M  V30 2829 C 279.345 3.65869 -3.89929 0
M  V30 2830 C 280.645 1.72986 -4.92822 0
M  V30 2831 H 282.339 0.724979 -2.9049 0
M  V30 2832 H 279.885 0.34729 -1.39749 0
M  V30 2833 H 281.838 3.15914 -2.78884 0
M  V30 2834 H 280.562 2.85639 -1.5836 0
M  V30 2835 H 279.221 1.59318 -3.30172 0
M  V30 2836 H 278.869 4.04885 -2.98458 0
M  V30 2837 H 278.569 3.56344 -4.67218 0
M  V30 2838 H 280.093 4.39112 -4.2428 0
M  V30 2839 H 281.507 2.34593 -5.23105 0
M  V30 2840 H 279.904 1.74229 -5.74251 0
M  V30 2841 H 280.974 0.689007 -4.7998 0
M  V30 2842 N 282.317 1.53212 0.369288 0
M  V30 2843 C 283.566 1.68436 1.10961 0
M  V30 2844 C 283.879 0.440738 1.9057 0
M  V30 2845 O 285.085 0.473446 2.6734 0
M  V30 2846 C 283.541 2.97744 2.0218 0
M  V30 2847 C 283.149 4.29355 1.279 0
M  V30 2848 C 284.893 3.22334 2.76226 0
M  V30 2849 C 282.8 5.49755 2.17999 0
M  V30 2850 H 281.73 0.627568 0.41794 0
M  V30 2851 H 284.381 1.79713 0.370884 0
M  V30 2852 H 282.763 2.8026 2.79768 0
M  V30 2853 H 283.937 4.57458 0.554007 0
M  V30 2854 H 282.252 4.11179 0.657311 0
M  V30 2855 H 284.849 4.09471 3.43857 0
M  V30 2856 H 285.192 2.38238 3.41392 0
M  V30 2857 H 285.725 3.40475 2.05723 0
M  V30 2858 H 282.464 6.36318 1.57417 0
M  V30 2859 H 281.984 5.25937 2.88359 0
M  V30 2860 H 283.663 5.84401 2.77641 0
M  V30 2861 N 283.795 -0.628877 1.44509 0
M  V30 2862 C 285.206 -1.21054 1.42137 0
M  V30 2863 C 285.557 -1.95715 0.137881 0
M  V30 2864 O 284.682 -2.02554 -0.761645 0
M  V30 2865 C 285.277 -2.20189 2.57493 0
M  V30 2866 C 283.836 -2.73777 2.58308 0
M  V30 2867 C 282.983 -1.48813 2.33987 0
M  V30 2868 H 285.934 -0.41942 1.53057 0
M  V30 2869 H 285.955 -3.02833 2.30375 0
M  V30 2870 H 285.467 -1.6582 3.50892 0
M  V30 2871 H 283.568 -3.32142 1.68856 0
M  V30 2872 H 283.681 -3.19662 3.56865 0
M  V30 2873 H 282.045 -1.77024 1.83124 0
M  V30 2874 H 282.828 -0.963442 3.29504 0
M  V30 2875 N 285.273 -1.31445 -0.869486 0
M  V30 2876 C 286.203 -1.21727 -1.99261 0
M  V30 2877 C 287.184 -0.104359 -1.6978 0
M  V30 2878 O 288.369 -0.289038 -1.92037 0
M  V30 2879 C 285.499 -0.924317 -3.34774 0
M  V30 2880 C 284.453 -1.99685 -3.78563 0
M  V30 2881 C 283.779 -1.55658 -5.11541 0
M  V30 2882 C 285.079 -3.41003 -3.95619 0
M  V30 2883 H 286.773 -2.1569 -2.07649 0
M  V30 2884 H 284.319 -1.03839 -0.997675 0
M  V30 2885 H 286.272 -0.842934 -4.12883 0
M  V30 2886 H 284.996 0.0509793 -3.2656 0
M  V30 2887 H 283.655 -2.06813 -3.02694 0
M  V30 2888 H 283.303 -0.569132 -4.9977 0
M  V30 2889 H 283.003 -2.27409 -5.41811 0
M  V30 2890 H 284.527 -1.48928 -5.92159 0
M  V30 2891 H 285.941 -3.36547 -4.64122 0
M  V30 2892 H 284.338 -4.10975 -4.37286 0
M  V30 2893 H 285.408 -3.81754 -2.98985 0
M  V30 2894 N 286.751 1.08385 -1.14413 0
M  V30 2895 C 287.998 1.80776 -0.912482 0
M  V30 2896 C 288.326 1.86236 0.560934 0
M  V30 2897 O 287.581 1.33431 1.43159 0
M  V30 2898 C 287.88 3.26273 -1.45879 0
M  V30 2899 C 287.546 3.4093 -2.95089 0
M  V30 2900 C 286.208 3.44638 -3.35824 0
M  V30 2901 C 288.56 3.44591 -3.91033 0
M  V30 2902 C 285.888 3.49597 -4.71167 0
M  V30 2903 C 288.24 3.51086 -5.26233 0
M  V30 2904 C 286.904 3.53067 -5.6648 0
M  V30 2905 H 286.174 0.661507 -0.333901 0
M  V30 2906 H 288.821 1.27613 -1.42784 0
M  V30 2907 H 287.126 3.82146 -0.864376 0
M  V30 2908 H 288.823 3.80839 -1.2555 0
M  V30 2909 H 285.413 3.38736 -2.62594 0
M  V30 2910 H 289.597 3.40957 -3.60641 0
M  V30 2911 H 284.853 3.49424 -5.0171 0
M  V30 2912 H 289.027 3.52864 -6.00383 0
M  V30 2913 H 286.654 3.56662 -6.71339 0
M  V30 2914 N 288.23 0.939286 1.26551 0
M  V30 2915 C 289.476 0.586715 1.94128 0
M  V30 2916 C 289.809 -0.8717 1.73537 0
M  V30 2917 O 289.084 -1.62339 1.07127 0
M  V30 2918 C 289.367 0.927497 3.4795 0
M  V30 2919 C 289.22 2.44052 3.77834 0
M  V30 2920 C 290.539 0.441569 4.37879 0
M  V30 2921 H 287.658 0.21463 0.705055 0
M  V30 2922 H 290.3 1.17316 1.49455 0
M  V30 2923 H 288.45 0.428431 3.8613 0
M  V30 2924 H 290.122 3.01216 3.4938 0
M  V30 2925 H 288.365 2.8848 3.23978 0
M  V30 2926 H 289.036 2.62947 4.85348 0
M  V30 2927 H 291.512 0.869448 4.06915 0
M  V30 2928 H 290.388 0.708856 5.44304 0
M  V30 2929 H 290.649 -0.658467 4.37169 0
M  V30 2930 N 289.708 -1.40897 0.706093 0
M  V30 2931 C 290.936 -2.05373 0.250887 0
M  V30 2932 C 291.351 -1.53172 -1.10381 0
M  V30 2933 O 290.708 -0.684305 -1.69185 0
M  V30 2934 C 290.759 -3.6088 0.211571 0
M  V30 2935 O 290.48 -4.11153 1.51276 0
M  V30 2936 C 291.981 -4.42517 -0.263346 0
M  V30 2937 H 289.201 -0.66115 0.114552 0
M  V30 2938 H 291.745 -1.80479 0.961635 0
M  V30 2939 H 289.9 -3.84777 -0.450073 0
M  V30 2940 H 290.314 -5.05279 1.40689 0
M  V30 2941 H 291.788 -5.51479 -0.239718 0
M  V30 2942 H 292.265 -4.19396 -1.30397 0
M  V30 2943 H 292.871 -4.23708 0.367677 0
M  V30 2944 N 291.186 -0.45159 -1.50991 0
M  V30 2945 C 292.134 0.366864 -2.29689 0
M  V30 2946 C 293.128 1.00809 -1.36139 0
M  V30 2947 O 294.334 0.941427 -1.53418 0
M  V30 2948 H 290.709 0.137133 -0.739391 0
M  V30 2949 H 292.68 -0.317538 -2.96706 0
M  V30 2950 C 291.429 1.44751 -3.16137 0
M  V30 2951 H 290.752 0.963473 -3.88017 0
M  V30 2952 H 292.192 1.99315 -3.74232 0
M  V30 2953 C 290.651 2.43869 -2.32442 0
M  V30 2954 O 291.181 3.4872 -1.99392 0
M  V30 2955 N 289.387 2.15105 -1.95392 0
M  V30 2956 H 288.934 1.29866 -2.22469 0
M  V30 2957 H 288.892 2.81661 -1.39693 0
M  V30 2958 N 292.664 1.56529 -0.183458 0
M  V30 2959 C 293.594 2.21549 0.737456 0
M  V30 2960 C 294.575 1.17489 1.23005 0
M  V30 2961 O 295.76 1.45959 1.281 0
M  V30 2962 C 292.89 2.86575 1.96194 0
M  V30 2963 C 291.844 3.96778 1.60473 0
M  V30 2964 C 291.17 4.48911 2.90487 0
M  V30 2965 C 292.47 5.15767 0.823497 0
M  V30 2966 H 294.164 2.98761 0.195453 0
M  V30 2967 H 291.71 1.43702 0.0925686 0
M  V30 2968 H 293.663 3.30739 2.61131 0
M  V30 2969 H 292.387 2.06749 2.52828 0
M  V30 2970 H 291.046 3.53286 0.978997 0
M  V30 2971 H 290.694 3.65862 3.45186 0
M  V30 2972 H 290.394 5.23265 2.67335 0
M  V30 2973 H 291.918 4.95771 3.56432 0
M  V30 2974 H 293.332 5.56549 1.37571 0
M  V30 2975 H 291.729 5.96114 0.690551 0
M  V30 2976 H 292.799 4.84574 -0.177782 0
M  V30 2977 N 294.142 -0.090211 1.57342 0
M  V30 2978 C 295.072 -1.10976 2.05443 0
M  V30 2979 C 296.053 -1.41482 0.944284 0
M  V30 2980 O 297.238 -1.51428 1.21586 0
M  V30 2981 C 294.368 -2.42831 2.48295 0
M  V30 2982 C 293.322 -2.26721 3.63018 0
M  V30 2983 C 292.648 -3.63796 3.91863 0
M  V30 2984 C 293.948 -1.7037 4.93732 0
M  V30 2985 H 295.642 -0.709564 2.9087 0
M  V30 2986 H 293.188 -0.339874 1.39932 0
M  V30 2987 H 295.141 -3.14431 2.80555 0
M  V30 2988 H 293.865 -2.84795 1.59873 0
M  V30 2989 H 292.524 -1.57565 3.31012 0
M  V30 2990 H 292.172 -4.03297 3.00601 0
M  V30 2991 H 291.872 -3.53861 4.69101 0
M  V30 2992 H 293.396 -4.36855 4.26603 0
M  V30 2993 H 294.81 -2.31816 5.24342 0
M  V30 2994 H 293.207 -1.71181 5.75167 0
M  V30 2995 H 294.277 -0.663542 4.80339 0
M  V30 2996 N 295.62 -1.53406 -0.361157 0
M  V30 2997 C 296.897 -1.60411 -1.11927 0
M  V30 2998 C 297.277 -0.414385 -2.06993 0
M  V30 2999 O 296.625 0.594976 -2.20618 0
M  V30 3000 C 296.835 -2.95652 -1.85448 0
M  V30 3001 C 298.183 -3.50386 -2.39823 0
M  V30 3002 O 299.207 -2.97711 -1.95568 0
M  V30 3003 O 298.066 -4.42482 -3.20737 0
M  V30 3004 H 295.16 -0.64811 -0.513695 0
M  V30 3005 H 297.706 -1.65749 -0.364065 0
M  V30 3006 H 296.478 -3.73682 -1.16091 0
M  V30 3007 H 296.101 -2.93825 -2.67866 0
M  V30 3008 N 297.098 0.621204 -1.44841 0
M  V30 3009 C 298.346 1.37783 -1.47852 0
M  V30 3010 C 298.667 1.94653 -0.116224 0
M  V30 3011 O 297.937 1.76367 0.852737 0
M  V30 3012 H 296.517 0.511453 -0.544449 0
M  V30 3013 H 299.179 0.730446 -1.80694 0
M  V30 3014 H 298.275 2.20414 -2.20961 0
M  V30 3015 N 298.576 1.31904 0.862503 0
M  V30 3016 C 299.824 1.21776 1.61292 0
M  V30 3017 C 300.145 -0.222413 1.93727 0
M  V30 3018 O 299.415 -1.1451 1.58947 0
M  V30 3019 H 297.995 0.447717 0.597962 0
M  V30 3020 H 300.657 1.65326 1.03215 0
M  V30 3021 H 299.753 1.7948 2.5533 0
M  V30 3022 N 300.054 -1.07777 1.14986 0
M  V30 3023 C 301.282 -1.84018 0.945773 0
M  V30 3024 C 301.697 -1.81897 -0.505863 0
M  V30 3025 O 301.054 -1.22726 -1.35072 0
M  V30 3026 C 301.105 -3.31287 1.44677 0
M  V30 3027 O 300.826 -3.33449 2.84154 0
M  V30 3028 C 302.327 -4.24311 1.28355 0
M  V30 3029 H 299.547 -0.580716 0.336169 0
M  V30 3030 H 302.091 -1.36077 1.52654 0
M  V30 3031 H 300.246 -3.76594 0.908625 0
M  V30 3032 H 300.66 -4.25427 3.06777 0
M  V30 3033 H 302.134 -5.2573 1.68261 0
M  V30 3034 H 302.611 -4.38612 0.227184 0
M  V30 3035 H 303.217 -3.84836 1.81056 0
M  V30 3036 N 301.532 -0.945985 -1.26051 0
M  V30 3037 C 302.462 -0.477172 -2.28572 0
M  V30 3038 C 303.443 0.472032 -1.63419 0
M  V30 3039 O 304.628 0.372853 -1.90587 0
M  V30 3040 C 301.758 0.253975 -3.4637 0
M  V30 3041 C 300.712 -0.609135 -4.23643 0
M  V30 3042 C 300.038 0.252252 -5.34105 0
M  V30 3043 C 301.338 -1.8829 -4.8718 0
M  V30 3044 H 303.032 -1.33402 -2.68038 0
M  V30 3045 H 300.578 -0.642904 -1.28852 0
M  V30 3046 H 302.531 0.593016 -4.17207 0
M  V30 3047 H 301.255 1.145 -3.05871 0
M  V30 3048 H 299.914 -0.931138 -3.54578 0
M  V30 3049 H 299.562 1.14278 -4.89846 0
M  V30 3050 H 299.262 -0.32188 -5.86718 0
M  V30 3051 H 300.786 0.586454 -6.07777 0
M  V30 3052 H 302.2 -1.61081 -5.50205 0
M  V30 3053 H 300.597 -2.40199 -5.49931 0
M  V30 3054 H 301.667 -2.59134 -4.09851 0
M  V30 3055 N 303.011 1.40521 -0.713556 0
M  V30 3056 C 304.422 1.83853 -0.324807 0
M  V30 3057 C 304.773 1.59667 1.14021 0
M  V30 3058 O 303.898 1.07649 1.87725 0
M  V30 3059 C 304.493 3.33751 -0.582746 0
M  V30 3060 C 303.052 3.75584 -0.247727 0
M  V30 3061 C 302.199 2.63753 -0.856121 0
M  V30 3062 H 305.15 1.29817 -0.91286 0
M  V30 3063 H 305.171 3.80194 0.152682 0
M  V30 3064 H 304.683 3.51322 -1.64908 0
M  V30 3065 H 302.784 3.63608 0.813624 0
M  V30 3066 H 302.897 4.7373 -0.715307 0
M  V30 3067 H 301.261 2.53108 -0.28432 0
M  V30 3068 H 302.044 2.84137 -1.92668 0
M  V30 3069 N 304.489 0.459591 1.5075 0
M  V30 3070 C 305.419 -0.330644 2.31147 0
M  V30 3071 C 306.4 -1.00087 1.37538 0
M  V30 3072 O 307.585 -1.00025 1.66459 0
M  V30 3073 C 304.715 -1.41958 3.16962 0
M  V30 3074 C 303.669 -0.871608 4.19031 0
M  V30 3075 C 302.995 -2.05797 4.9351 0
M  V30 3076 C 304.295 0.109251 5.22186 0
M  V30 3077 H 305.989 0.340336 2.97459 0
M  V30 3078 H 303.535 0.165119 1.4305 0
M  V30 3079 H 305.488 -1.9798 3.71997 0
M  V30 3080 H 304.212 -2.11917 2.48513 0
M  V30 3081 H 302.871 -0.333442 3.6508 0
M  V30 3082 H 302.519 -2.74427 4.21544 0
M  V30 3083 H 302.219 -1.6976 5.62544 0
M  V30 3084 H 303.743 -2.62331 5.51375 0
M  V30 3085 H 305.157 -0.361405 5.7216 0
M  V30 3086 H 303.554 0.383316 5.98875 0
M  V30 3087 H 304.624 1.03887 4.73641 0
M  V30 3088 N 305.967 -1.56429 0.191757 0
M  V30 3089 C 307.197 -2.01574 -0.452928 0
M  V30 3090 C 307.605 -1.07107 -1.55964 0
M  V30 3091 O 306.948 -0.067534 -1.83576 0
M  V30 3092 C 307.01 -3.43121 -1.07278 0
M  V30 3093 C 306.674 -4.56879 -0.105214 0
M  V30 3094 C 307.671 -5.15379 0.684149 0
M  V30 3095 C 305.356 -5.023 0.00489824 0
M  V30 3096 C 307.35 -6.17746 1.57062 0
M  V30 3097 C 305.037 -6.04511 0.894935 0
M  V30 3098 C 306.035 -6.62108 1.67637 0
M  V30 3099 O 305.723 -7.62335 2.55149 0
M  V30 3100 H 305.455 -0.665554 -0.118379 0
M  V30 3101 H 308.009 -2.03245 0.296737 0
M  V30 3102 H 306.239 -3.38425 -1.87097 0
M  V30 3103 H 307.928 -3.72093 -1.62177 0
M  V30 3104 H 308.694 -4.81157 0.609365 0
M  V30 3105 H 304.573 -4.57168 -0.593156 0
M  V30 3106 H 308.117 -6.6263 2.181 0
M  V30 3107 H 304.014 -6.38157 0.970847 0
M  V30 3108 H 304.782 -7.79741 2.48892 0
M  V30 3109 N 307.445 0.0818655 -1.57387 0
M  V30 3110 C 308.693 0.781368 -1.86384 0
M  V30 3111 C 309.014 1.78618 -0.782342 0
M  V30 3112 O 308.284 1.94976 0.190061 0
M  V30 3113 H 306.864 0.291562 -0.687751 0
M  V30 3114 H 309.526 0.060348 -1.94807 0
M  V30 3115 H 308.622 1.3038 -2.83562 0
M  V30 3116 N 308.923 1.53595 0.353017 0
M  V30 3117 C 310.2 1.61002 1.11075 0
M  V30 3118 C 310.58 0.425356 2.0677 0
M  V30 3119 O 309.928 -0.583267 2.2093 0
M  V30 3120 C 310.138 2.96631 1.83877 0
M  V30 3121 C 311.486 3.51653 2.37961 0
M  V30 3122 O 312.51 2.98743 1.93987 0
M  V30 3123 O 311.369 4.44177 3.18386 0
M  V30 3124 H 308.463 0.650825 0.510251 0
M  V30 3125 H 311.009 1.6594 0.35527 0
M  V30 3126 H 309.781 3.74293 1.14108 0
M  V30 3127 H 309.404 2.95242 2.66304 0
M  V30 3128 N 310.401 -0.613514 1.45168 0
M  V30 3129 C 311.649 -1.36997 1.48581 0
M  V30 3130 C 311.97 -1.94589 0.126545 0
M  V30 3131 O 311.24 -1.76816 -0.843372 0
M  V30 3132 H 309.82 -0.508558 0.547154 0
M  V30 3133 H 312.482 -0.720853 1.81079 0
M  V30 3134 H 311.578 -2.1924 2.22127 0
M  V30 3135 N 311.879 -1.3236 -0.855495 0
M  V30 3136 C 312.842 -1.21164 -1.94556 0
M  V30 3137 C 313.842 -0.134908 -1.60233 0
M  V30 3138 O 315.032 -0.385249 -1.69887 0
M  V30 3139 C 312.164 -0.863192 -3.29791 0
M  V30 3140 H 313.357 -2.18038 -2.05911 0
M  V30 3141 H 310.91 -1.16179 -1.04557 0
M  V30 3142 H 311.645 0.103769 -3.24134 0
M  V30 3143 H 311.43 -1.64166 -3.56078 0
M  V30 3144 H 312.92 -0.809156 -4.09686 0
M  V30 3145 N 313.357 1.07166 -1.15556 0
M  V30 3146 C 314.305 2.16517 -0.8499 0
M  V30 3147 C 315.299 1.68468 0.177454 0
M  V30 3148 O 316.505 1.79971 0.0323026 0
M  V30 3149 H 312.88 0.706652 -0.25719 0
M  V30 3150 H 314.851 2.39514 -1.77976 0
M  V30 3151 C 313.6 3.45855 -0.357682 0
M  V30 3152 H 312.923 3.83214 -1.13961 0
M  V30 3153 H 314.363 4.23607 -0.182489 0
M  V30 3154 C 312.822 3.24062 0.921152 0
M  V30 3155 O 313.352 3.48813 1.9923 0
M  V30 3156 N 311.558 2.77539 0.86141 0
M  V30 3157 H 311.105 2.57598 -0.0104408 0
M  V30 3158 H 311.063 2.63337 1.71758 0
M  V30 3159 N 314.835 0.952656 1.25548 0
M  V30 3160 C 316.081 0.607272 1.93494 0
M  V30 3161 C 316.414 -0.853245 1.74452 0
M  V30 3162 O 315.689 -1.61194 1.08843 0
M  V30 3163 C 315.972 0.96435 3.46947 0
M  V30 3164 C 315.825 2.48045 3.75225 0
M  V30 3165 C 317.144 0.487987 4.37386 0
M  V30 3166 H 314.263 0.222096 0.702739 0
M  V30 3167 H 316.905 1.18895 1.48203 0
M  V30 3168 H 315.055 0.469361 3.85654 0
M  V30 3169 H 316.727 3.04905 3.46166 0
M  V30 3170 H 314.97 2.919 3.209 0
M  V30 3171 H 315.641 2.6808 4.82532 0
M  V30 3172 H 318.117 0.912558 4.0597 0
M  V30 3173 H 316.993 0.766547 5.43521 0
M  V30 3174 H 317.254 -0.612063 4.37843 0
M  V30 3175 N 316.313 -1.40141 0.720998 0
M  V30 3176 C 317.729 -1.54632 0.395113 0
M  V30 3177 C 317.929 -1.69115 -1.09555 0
M  V30 3178 O 316.985 -1.68377 -1.88163 0
M  V30 3179 C 318.298 -2.77177 1.1659 0
M  V30 3180 C 319.846 -2.91 1.15274 0
M  V30 3181 C 320.321 -4.16465 1.90579 0
M  V30 3182 N 321.812 -4.23476 1.87675 0
M  V30 3183 C 322.547 -5.19475 2.42762 0
M  V30 3184 N 322.043 -6.21348 3.06428 0
M  V30 3185 N 323.836 -5.11592 2.32874 0
M  V30 3186 H 315.987 -1.28986 1.68749 0
M  V30 3187 H 318.25 -0.62412 0.713567 0
M  V30 3188 H 317.956 -2.72771 2.22011 0
M  V30 3189 H 317.83 -3.69442 0.76108 0
M  V30 3190 H 320.217 -2.94907 0.106702 0
M  V30 3191 H 320.298 -1.99838 1.59682 0
M  V30 3192 H 319.942 -4.1332 2.95176 0
M  V30 3193 H 319.872 -5.06646 1.43587 0
M  V30 3194 H 322.363 -3.50497 1.41281 0
M  V30 3195 H 322.676 -6.91034 3.45965 0
M  V30 3196 H 321.021 -6.21777 3.10514 0
M  V30 3197 H 324.212 -4.30936 1.82789 0
M  V30 3198 H 324.385 -5.86233 2.76106 0
M  V30 3199 N 317.792 -0.46758 -1.50504 0
M  V30 3200 C 318.702 0.33382 -2.32213 0
M  V30 3201 C 319.718 0.999323 -1.42441 0
M  V30 3202 O 320.894 0.988068 -1.75497 0
M  V30 3203 C 317.959 1.4035 -3.17022 0
M  V30 3204 C 317.02 0.754961 -4.2261 0
M  V30 3205 C 316.253 1.77367 -5.03365 0
M  V30 3206 O 316.476 2.99976 -4.8515 0
M  V30 3207 O 315.41 1.34744 -5.86624 0
M  V30 3208 H 319.236 -0.334067 -3.01857 0
M  V30 3209 H 316.821 -0.229496 -1.47627 0
M  V30 3210 H 318.703 2.02318 -3.69656 0
M  V30 3211 H 317.378 2.05492 -2.5011 0
M  V30 3212 H 316.285 0.0964244 -3.73976 0
M  V30 3213 H 317.618 0.146545 -4.91982 0
M  V30 3214 N 319.27 1.56325 -0.20005 0
M  V30 3215 C 320.516 1.98772 0.431408 0
M  V30 3216 C 320.871 1.0849 1.58895 0
M  V30 3217 O 320.164 0.130331 1.91156 0
M  V30 3218 C 320.358 3.4495 0.935103 0
M  V30 3219 C 320.187 4.49371 -0.172096 0
M  V30 3220 C 318.957 5.0134 -0.631377 0
M  V30 3221 C 321.155 5.04822 -0.982806 0
M  V30 3222 N 319.137 5.89433 -1.71588 0
M  V30 3223 C 320.508 5.89632 -1.91661 0
M  V30 3224 C 322.563 4.87242 -1.02467 0
M  V30 3225 C 321.266 6.58741 -2.88881 0
M  V30 3226 C 323.292 5.57094 -1.98494 0
M  V30 3227 C 322.654 6.41655 -2.90617 0
M  V30 3228 H 318.753 0.771922 0.125144 0
M  V30 3229 H 321.337 1.92266 -0.306883 0
M  V30 3230 H 319.508 3.51946 1.64282 0
M  V30 3231 H 321.24 3.74354 1.53758 0
M  V30 3232 H 317.995 4.73071 -0.223827 0
M  V30 3233 H 318.419 6.38182 -2.25948 0
M  V30 3234 H 323.061 4.21538 -0.326408 0
M  V30 3235 H 320.779 7.23641 -3.5968 0
M  V30 3236 H 324.365 5.45466 -2.0238 0
M  V30 3237 H 323.245 6.94755 -3.63711 0
M  V30 3238 N 320.748 -0.0735177 1.57428 0
M  V30 3239 C 321.994 -0.774145 1.87443 0
M  V30 3240 C 322.327 -1.77311 0.792103 0
M  V30 3241 O 321.602 -1.93492 -0.197793 0
M  V30 3242 C 321.885 -1.48367 3.28115 0
M  V30 3243 C 321.738 -0.501227 4.46999 0
M  V30 3244 C 323.057 -2.429 3.66998 0
M  V30 3245 H 320.176 -0.279971 0.681752 0
M  V30 3246 H 322.818 -0.0373616 1.89963 0
M  V30 3247 H 320.968 -2.11171 3.26097 0
M  V30 3248 H 322.64 0.121468 4.6114 0
M  V30 3249 H 320.883 0.183593 4.33411 0
M  V30 3250 H 321.554 -1.03526 5.42205 0
M  V30 3251 H 324.03 -1.90175 3.70098 0
M  V30 3252 H 322.906 -2.89549 4.66318 0
M  V30 3253 H 323.167 -3.27628 2.96837 0
M  V30 3254 N 322.226 -1.5378 -0.344866 0
M  V30 3255 C 323.176 -1.78057 -1.42407 0
M  V30 3256 C 324.16 -0.635732 -1.47808 0
M  V30 3257 O 325.352 -0.89508 -1.527 0
M  V30 3258 C 322.481 -1.99242 -2.79566 0
M  V30 3259 C 321.567 -3.19787 -2.78562 0
M  V30 3260 N 321.958 -4.41284 -2.47189 0
M  V30 3261 C 320.256 -3.2093 -3.0971 0
M  V30 3262 C 320.957 -5.23128 -2.54385 0
M  V30 3263 N 319.933 -4.59813 -2.89953 0
M  V30 3264 H 323.735 -2.69588 -1.17046 0
M  V30 3265 H 321.249 -1.52687 -0.553217 0
M  V30 3266 H 323.246 -2.14768 -3.57324 0
M  V30 3267 H 321.906 -1.08953 -3.05875 0
M  V30 3268 H 322.917 -4.68657 -2.20411 0
M  V30 3269 H 319.594 -2.40603 -3.41199 0
M  V30 3270 H 320.984 -6.30096 -2.333 0
M  V30 3271 N 323.704 0.605807 -1.45491 0
M  V30 3272 C 324.932 1.39136 -1.5313 0
M  V30 3273 C 325.347 1.88082 -0.164507 0
M  V30 3274 O 324.704 1.62316 0.834247 0
M  V30 3275 C 324.755 2.59463 -2.51716 0
M  V30 3276 O 324.476 2.12551 -3.83084 0
M  V30 3277 C 325.977 3.52301 -2.6907 0
M  V30 3278 H 323.197 0.425849 -0.51855 0
M  V30 3279 H 325.741 0.73865 -1.90694 0
M  V30 3280 H 323.896 3.20772 -2.17219 0
M  V30 3281 H 324.31 2.90744 -4.36541 0
M  V30 3282 H 325.784 4.33271 -3.42024 0
M  V30 3283 H 326.261 4.02757 -1.75167 0
M  V30 3284 H 326.867 2.96845 -3.04571 0
M  V30 3285 N 325.182 1.32811 0.848464 0
M  V30 3286 C 326.459 1.14334 1.58704 0
M  V30 3287 C 326.839 -0.293948 2.09043 0
M  V30 3288 O 326.187 -1.29153 1.88499 0
M  V30 3289 C 326.397 2.17626 2.72837 0
M  V30 3290 C 327.745 2.51282 3.42261 0
M  V30 3291 O 328.769 2.16219 2.83068 0
M  V30 3292 O 327.628 3.11413 4.49093 0
M  V30 3293 H 324.722 0.441601 0.699226 0
M  V30 3294 H 327.268 1.44362 0.892053 0
M  V30 3295 H 326.04 3.14211 2.3321 0
M  V30 3296 H 325.663 1.88628 3.50008 0
M  V30 3297 N 326.66 -1.06551 1.16123 0
M  V30 3298 C 327.937 -1.76097 0.85142 0
M  V30 3299 C 328.317 -2.00802 -0.6513 0
M  V30 3300 O 327.665 -1.63302 -1.59827 0
M  V30 3301 C 327.875 -3.06384 1.67122 0
M  V30 3302 C 329.223 -3.80585 1.88255 0
M  V30 3303 O 330.247 -3.16218 1.63966 0
M  V30 3304 O 329.106 -4.96212 2.2899 0
M  V30 3305 H 326.2 -0.765102 0.313923 0
M  V30 3306 H 328.746 -1.12844 1.26745 0
M  V30 3307 H 327.518 -2.84071 2.69108 0
M  V30 3308 H 327.141 -3.77371 1.25206 0
M  V30 3309 N 328.138 -0.959301 -1.25041 0
M  V30 3310 C 329.088 -0.453888 -2.23436 0
M  V30 3311 C 330.072 0.459461 -1.542 0
M  V30 3312 O 331.264 0.291752 -1.74579 0
M  V30 3313 C 328.393 0.262667 -3.42294 0
M  V30 3314 C 327.479 -0.669022 -4.1879 0
M  V30 3315 N 327.87 -1.80267 -4.72586 0
M  V30 3316 C 326.168 -0.47814 -4.4343 0
M  V30 3317 C 326.869 -2.38475 -5.3057 0
M  V30 3318 N 325.845 -1.67078 -5.17287 0
M  V30 3319 H 329.647 -1.319 -2.6264 0
M  V30 3320 H 327.161 -0.817358 -1.40332 0
M  V30 3321 H 329.158 0.641911 -4.11929 0
M  V30 3322 H 327.818 1.12432 -3.04613 0
M  V30 3323 H 328.829 -2.18442 -4.69578 0
M  V30 3324 H 325.506 0.340249 -4.16111 0
M  V30 3325 H 326.896 -3.34094 -5.8295 0
M  V30 3326 N 329.616 1.39756 -0.72842 0
M  V30 3327 C 330.856 2.025 -0.278078 0
M  V30 3328 C 331.22 1.5654 1.11173 0
M  V30 3329 O 332.421 2.11435 1.65978 0
M  V30 3330 C 330.692 3.55489 -0.369139 0
M  V30 3331 S 332.251 4.388 0.00232983 0
M  V30 3332 H 329.069 0.702534 -0.109391 0
M  V30 3333 H 331.671 1.70672 -0.95348 0
M  V30 3334 H 330.375 3.86429 -1.38204 0
M  V30 3335 H 329.906 3.92061 0.324308 0
M  V30 3336 H 331.921 4.80954 1.22055 0
M  V30 3337 N 331.094 0.475555 1.50254 0
M  V30 3338 C 332.51 0.12997 1.5907 0
M  V30 3339 C 332.71 -1.36385 1.48328 0
M  V30 3340 O 331.766 -2.13754 1.34407 0
M  V30 3341 C 333.079 0.684139 2.92814 0
M  V30 3342 C 334.627 0.647965 3.0622 0
M  V30 3343 C 335.102 1.17975 4.42545 0
M  V30 3344 N 336.593 1.13936 4.48969 0
M  V30 3345 C 337.328 1.52129 5.52851 0
M  V30 3346 N 336.824 1.97793 6.63965 0
M  V30 3347 N 338.617 1.43704 5.4342 0
M  V30 3348 H 330.768 1.44706 1.55479 0
M  V30 3349 H 333.031 0.598691 0.735033 0
M  V30 3350 H 332.737 1.73079 3.06164 0
M  V30 3351 H 332.611 0.130204 3.76975 0
M  V30 3352 H 334.998 -0.38979 2.92514 0
M  V30 3353 H 335.079 1.23876 2.23805 0
M  V30 3354 H 334.723 2.21616 4.57 0
M  V30 3355 H 334.653 0.565138 5.23559 0
M  V30 3356 H 337.144 0.804488 3.69238 0
M  V30 3357 H 337.457 2.25072 7.39299 0
M  V30 3358 H 335.802 2.01749 6.65073 0
M  V30 3359 H 338.993 1.07867 4.55502 0
M  V30 3360 H 339.166 1.73794 6.24259 0
M  V30 3361 N 332.573 -1.56217 0.208337 0
M  V30 3362 C 333.821 -1.97558 -0.426076 0
M  V30 3363 C 334.142 -1.09683 -1.61229 0
M  V30 3364 O 333.412 -0.170956 -1.95153 0
M  V30 3365 H 331.992 -0.729575 -0.160405 0
M  V30 3366 H 334.654 -1.92606 0.298155 0
M  V30 3367 H 333.75 -3.02672 -0.761312 0
M  V30 3368 N 334.051 0.0651679 -1.57465 0
M  V30 3369 C 335.3 0.761916 -1.86756 0
M  V30 3370 C 335.613 1.78406 -0.801925 0
M  V30 3371 O 336.819 2.53084 -0.982885 0
M  V30 3372 C 335.275 1.40603 -3.31299 0
M  V30 3373 C 334.883 0.422115 -4.46007 0
M  V30 3374 C 336.627 2.08476 -3.69781 0
M  V30 3375 C 334.534 1.07252 -5.81593 0
M  V30 3376 H 333.464 0.288308 -0.696702 0
M  V30 3377 H 336.115 0.015344 -1.83494 0
M  V30 3378 H 334.497 2.20109 -3.29193 0
M  V30 3379 H 335.671 -0.343613 -4.59517 0
M  V30 3380 H 333.986 -0.152527 -4.16121 0
M  V30 3381 H 336.583 2.57925 -4.68379 0
M  V30 3382 H 336.926 2.88712 -2.99919 0
M  V30 3383 H 337.459 1.35792 -3.73905 0
M  V30 3384 H 334.198 0.310342 -6.54765 0
M  V30 3385 H 333.718 1.80895 -5.71872 0
M  V30 3386 H 335.397 1.59043 -6.27148 0
M  V30 3387 N 335.529 1.53961 0.336706 0
M  V30 3388 C 336.492 1.81724 1.39675 0
M  V30 3389 C 337.492 0.688532 1.45313 0
M  V30 3390 O 338.682 0.956829 1.45569 0
M  V30 3391 C 335.814 1.96543 2.78538 0
M  V30 3392 H 337.007 2.76424 1.16318 0
M  V30 3393 H 334.56 1.45478 0.571474 0
M  V30 3394 H 335.295 1.0401 3.07168 0
M  V30 3395 H 335.08 2.78665 2.75841 0
M  V30 3396 H 336.57 2.19516 3.5525 0
M  V30 3397 N 337.007 -0.598083 1.45811 0
M  V30 3398 C 337.937 -1.71873 1.58057 0
M  V30 3399 C 338.918 -1.64533 0.431615 0
M  V30 3400 O 340.103 -1.82787 0.65595 0
M  V30 3401 C 337.233 -3.10495 1.55597 0
M  V30 3402 C 336.187 -3.32654 2.69305 0
M  V30 3403 C 335.513 -4.71646 2.51902 0
M  V30 3404 C 336.813 -3.21981 4.11248 0
M  V30 3405 H 338.507 -1.61881 2.51863 0
M  V30 3406 H 336.053 -0.777372 1.21214 0
M  V30 3407 H 338.006 -3.88699 1.6276 0
M  V30 3408 H 336.73 -3.2135 0.583255 0
M  V30 3409 H 335.389 -2.56843 2.61586 0
M  V30 3410 H 335.037 -4.79246 1.52748 0
M  V30 3411 H 334.737 -4.87426 3.2816 0
M  V30 3412 H 336.261 -5.52038 2.60933 0
M  V30 3413 H 337.675 -3.90049 4.20161 0
M  V30 3414 H 336.072 -3.49289 4.87972 0
M  V30 3415 H 337.142 -2.1928 4.32486 0
M  V30 3416 N 338.485 -1.33259 -0.841409 0
M  V30 3417 C 339.731 -1.24757 -1.59886 0
M  V30 3418 C 340.064 0.186913 -1.93298 0
M  V30 3419 O 339.339 1.12757 -1.5848 0
M  V30 3420 C 339.622 -2.12036 -2.91055 0
M  V30 3421 C 339.475 -3.63929 -2.6434 0
M  V30 3422 C 340.794 -1.9916 -3.92458 0
M  V30 3423 H 337.913 -0.454542 -0.580138 0
M  V30 3424 H 340.555 -1.63335 -0.970647 0
M  V30 3425 H 338.705 -1.79265 -3.44669 0
M  V30 3426 H 340.377 -4.06978 -2.17178 0
M  V30 3427 H 338.62 -3.85935 -1.98082 0
M  V30 3428 H 339.291 -4.20341 -3.57796 0
M  V30 3429 H 341.767 -2.27895 -3.48143 0
M  V30 3430 H 340.643 -2.62484 -4.82072 0
M  V30 3431 H 340.904 -0.963082 -4.31482 0
M  V30 3432 N 339.963 1.05934 -1.16686 0
M  V30 3433 C 340.893 2.1546 -0.899949 0
M  V30 3434 C 341.874 1.69391 0.155154 0
M  V30 3435 O 343.059 1.94199 0.00648693 0
M  V30 3436 C 340.189 3.44939 -0.404241 0
M  V30 3437 C 339.143 4.04536 -1.39767 0
M  V30 3438 C 338.469 5.29268 -0.760216 0
M  V30 3439 C 339.769 4.42893 -2.76845 0
M  V30 3440 H 341.463 2.38046 -1.81588 0
M  V30 3441 H 339.009 1.14404 -0.874514 0
M  V30 3442 H 340.962 4.20901 -0.204971 0
M  V30 3443 H 339.686 3.21983 0.547206 0
M  V30 3444 H 338.345 3.30635 -1.58355 0
M  V30 3445 H 337.993 5.02611 0.197831 0
M  V30 3446 H 337.693 5.70101 -1.42332 0
M  V30 3447 H 339.217 6.07924 -0.57105 0
M  V30 3448 H 340.631 5.09921 -2.62019 0
M  V30 3449 H 339.028 4.94721 -3.39663 0
M  V30 3450 H 340.098 3.53584 -3.31823 0
M  V30 3451 N 341.441 0.965919 1.2453 0
M  V30 3452 C 342.404 0.499547 2.2369 0
M  V30 3453 C 343.404 -0.40294 1.5567 0
M  V30 3454 O 344.594 -0.19865 1.73064 0
M  V30 3455 C 341.726 -0.276792 3.39774 0
M  V30 3456 H 342.919 1.37613 2.66463 0
M  V30 3457 H 340.472 0.750324 1.37112 0
M  V30 3458 H 341.207 -1.17055 3.02438 0
M  V30 3459 H 340.992 0.370826 3.90343 0
M  V30 3460 H 342.482 -0.592175 4.1338 0
M  V30 3461 N 342.919 -1.39368 0.735821 0
M  V30 3462 C 344.167 -2.00101 0.283562 0
M  V30 3463 C 344.488 -1.5868 -1.13338 0
M  V30 3464 O 343.758 -0.835423 -1.77193 0
M  V30 3465 H 342.338 -0.740024 0.101851 0
M  V30 3466 H 345 -1.70404 0.945962 0
M  V30 3467 H 344.096 -3.10323 0.332604 0
M  V30 3468 N 344.397 -0.483516 -1.5 0
M  V30 3469 C 345.645 0.067027 -2.01989 0
M  V30 3470 C 345.966 1.3909 -1.36671 0
M  V30 3471 O 345.236 1.88978 -0.516152 0
M  V30 3472 H 343.816 0.0277606 -0.746484 0
M  V30 3473 H 346.478 -0.636773 -1.84204 0
M  V30 3474 H 345.574 0.209484 -3.11396 0
M  V30 3475 N 345.875 1.56104 -0.216619 0
M  V30 3476 C 347.291 1.58995 0.13886 0
M  V30 3477 C 347.491 1.23333 1.59346 0
M  V30 3478 O 346.547 0.966234 2.33281 0
M  V30 3479 C 347.86 3.00143 -0.182968 0
M  V30 3480 C 349.408 3.12751 -0.124807 0
M  V30 3481 C 349.883 4.56068 -0.420241 0
M  V30 3482 N 351.374 4.61723 -0.369634 0
M  V30 3483 C 352.109 5.70542 -0.571789 0
M  V30 3484 N 351.605 6.87744 -0.835453 0
M  V30 3485 N 353.398 5.59831 -0.504563 0
M  V30 3486 H 345.549 1.77562 -1.16557 0
M  V30 3487 H 347.812 0.825091 -0.466828 0
M  V30 3488 H 347.518 3.30871 -1.19237 0
M  V30 3489 H 347.392 3.73813 0.504367 0
M  V30 3490 H 349.779 2.81822 0.875223 0
M  V30 3491 H 349.86 2.41421 -0.845544 0
M  V30 3492 H 349.504 4.87713 -1.41769 0
M  V30 3493 H 349.434 5.25617 0.321631 0
M  V30 3494 H 351.925 3.77502 -0.173338 0
M  V30 3495 H 352.238 7.66587 -0.977938 0
M  V30 3496 H 350.583 6.895 -0.872592 0
M  V30 3497 H 353.774 4.67145 -0.298842 0
M  V30 3498 H 353.947 6.44573 -0.665519 0
M  V30 3499 N 347.353 -0.0568162 1.57498 0
M  V30 3500 C 348.316 -1.05038 2.03715 0
M  V30 3501 C 349.316 -1.30709 0.936577 0
M  V30 3502 O 350.506 -1.26178 1.20103 0
M  V30 3503 C 347.638 -2.39034 2.43055 0
M  V30 3504 H 348.831 -0.651715 2.92733 0
M  V30 3505 H 346.384 -0.302947 1.53336 0
M  V30 3506 H 347.119 -2.83703 1.57108 0
M  V30 3507 H 346.904 -2.21739 3.2338 0
M  V30 3508 H 348.394 -3.10421 2.79336 0
M  V30 3509 N 348.832 -1.54138 -0.328536 0
M  V30 3510 C 350.08 -1.71765 -1.06496 0
M  V30 3511 C 350.401 -0.49149 -1.88704 0
M  V30 3512 O 349.671 0.494539 -1.89555 0
M  V30 3513 H 348.251 -0.633295 -0.396164 0
M  V30 3514 H 350.913 -1.91429 -0.366176 0
M  V30 3515 H 350.009 -2.5951 -1.73381 0
M  V30 3516 N 350.31 0.590341 -1.46126 0
M  V30 3517 C 351.22 1.72793 -1.58681 0
M  V30 3518 C 352.236 1.67516 -0.470566 0
M  V30 3519 O 353.412 1.87562 -0.733642 0
M  V30 3520 C 350.477 3.09287 -1.5666 0
M  V30 3521 C 349.538 3.25886 -2.79458 0
M  V30 3522 C 348.771 4.55869 -2.77524 0
M  V30 3523 O 348.994 5.3928 -1.85832 0
M  V30 3524 O 347.928 4.75552 -3.68964 0
M  V30 3525 H 351.754 1.65149 -2.54872 0
M  V30 3526 H 349.339 0.756486 -1.28832 0
M  V30 3527 H 351.221 3.90577 -1.58202 0
M  V30 3528 H 349.896 3.17385 -0.636271 0
M  V30 3529 H 348.803 2.44119 -2.83472 0
M  V30 3530 H 350.136 3.22675 -3.71674 0
M  V30 3531 N 351.788 1.33704 0.83433 0
M  V30 3532 C 353.037 1.24763 1.58484 0
M  V30 3533 C 353.35 -0.183775 1.94735 0
M  V30 3534 O 354.556 -0.395234 2.68608 0
M  V30 3535 C 353.012 2.18638 2.85876 0
M  V30 3536 C 352.62 3.66974 2.56971 0
M  V30 3537 C 354.364 2.18581 3.63899 0
M  V30 3538 C 352.271 4.5275 3.80488 0
M  V30 3539 H 351.201 0.463425 0.594772 0
M  V30 3540 H 353.852 1.58797 0.919551 0
M  V30 3541 H 352.234 1.77542 3.5397 0
M  V30 3542 H 353.408 4.16538 1.9706 0
M  V30 3543 H 351.723 3.69366 1.92244 0
M  V30 3544 H 354.32 2.79894 4.55591 0
M  V30 3545 H 354.663 1.18207 3.99165 0
M  V30 3546 H 355.196 2.58062 3.02735 0
M  V30 3547 H 351.935 5.54017 3.5035 0
M  V30 3548 H 351.455 4.07927 4.39722 0
M  V30 3549 H 353.134 4.66784 4.4802 0
M  V30 3550 N 353.266 -1.05314 1.17247 0
M  V30 3551 C 354.496 -1.81707 0.983166 0
M  V30 3552 C 354.904 -1.83222 -0.471822 0
M  V30 3553 O 354.247 -1.25721 -1.3394 0
M  V30 3554 C 354.309 -3.29134 1.44606 0
M  V30 3555 C 353.973 -3.51304 2.92292 0
M  V30 3556 C 354.97 -3.4353 3.90235 0
M  V30 3557 C 352.655 -3.78306 3.30439 0
M  V30 3558 C 354.649 -3.62442 5.24323 0
M  V30 3559 C 352.336 -3.96866 4.64694 0
M  V30 3560 C 353.334 -3.88933 5.61445 0
M  V30 3561 O 353.022 -4.06976 6.93272 0
M  V30 3562 H 352.754 -0.579476 0.348114 0
M  V30 3563 H 355.308 -1.33705 1.55924 0
M  V30 3564 H 353.538 -3.78046 0.813537 0
M  V30 3565 H 355.227 -3.87049 1.22262 0
M  V30 3566 H 355.993 -3.22648 3.62109 0
M  V30 3567 H 351.872 -3.83585 2.55702 0
M  V30 3568 H 355.416 -3.56165 5.99827 0
M  V30 3569 H 351.313 -4.1724 4.92525 0
M  V30 3570 H 352.081 -4.24209 6.99992 0
M  V30 3571 N 354.744 -0.972509 -1.24016 0
M  V30 3572 C 355.694 -0.477561 -2.22942 0
M  V30 3573 C 356.678 0.44308 -1.54679 0
M  V30 3574 O 357.87 0.273219 -1.74879 0
M  V30 3575 C 354.999 0.226348 -3.42553 0
M  V30 3576 C 354.085 -0.713403 -4.18057 0
M  V30 3577 N 354.476 -1.8527 -4.70647 0
M  V30 3578 C 352.774 -0.525145 -4.42898 0
M  V30 3579 C 353.475 -2.44089 -5.28011 0
M  V30 3580 N 352.451 -1.72556 -5.15486 0
M  V30 3581 H 356.253 -1.34678 -2.61226 0
M  V30 3582 H 353.767 -0.832196 -1.39457 0
M  V30 3583 H 355.764 0.598184 -4.12586 0
M  V30 3584 H 354.424 1.09195 -3.05788 0
M  V30 3585 H 355.435 -2.2341 -4.67235 0
M  V30 3586 H 352.112 0.296096 -4.16449 0
M  V30 3587 H 353.502 -3.40259 -5.79374 0
M  V30 3588 N 356.222 1.38976 -0.743202 0
M  V30 3589 C 357.471 1.99581 -0.291592 0
M  V30 3590 C 357.784 1.59656 1.13001 0
M  V30 3591 O 358.99 2.13157 1.68156 0
M  V30 3592 C 357.446 3.56813 -0.470391 0
M  V30 3593 C 357.054 4.05695 -1.90041 0
M  V30 3594 C 358.798 4.24423 -0.0809709 0
M  V30 3595 C 356.705 5.5553 -2.02832 0
M  V30 3596 H 355.635 0.746615 -0.105272 0
M  V30 3597 H 358.286 1.58872 -0.918258 0
M  V30 3598 H 356.668 3.95359 0.225299 0
M  V30 3599 H 357.842 3.78464 -2.62872 0
M  V30 3600 H 356.157 3.50775 -2.24379 0
M  V30 3601 H 358.754 5.34474 -0.155445 0
M  V30 3602 H 359.097 4.04962 0.96497 0
M  V30 3603 H 359.63 3.9108 -0.728124 0
M  V30 3604 H 356.369 5.79881 -3.05643 0
M  V30 3605 H 355.889 5.84537 -1.34448 0
M  V30 3606 H 357.568 6.21069 -1.81335 0
M  V30 3607 N 357.7 0.491464 1.49741 0
M  V30 3608 C 358.948 -0.0563141 2.02022 0
M  V30 3609 C 359.269 -1.38363 1.37407 0
M  V30 3610 O 358.539 -1.88702 0.526166 0
M  V30 3611 H 357.119 -0.0238014 0.746621 0
M  V30 3612 H 359.781 0.646533 1.83864 0
M  V30 3613 H 358.877 -0.192967 3.11503 0
M  V30 3614 N 359.178 -1.55987 0.224894 0
M  V30 3615 C 360.426 -1.97998 -0.405099 0
M  V30 3616 C 360.747 -1.11387 -1.60056 0
M  V30 3617 O 360.017 -0.191645 -1.9496 0
M  V30 3618 H 358.597 -0.731235 -0.152658 0
M  V30 3619 H 361.259 -1.92279 0.318567 0
M  V30 3620 H 360.355 -3.03463 -0.729167 0
M  V30 3621 N 360.656 0.0484629 -1.57525 0
M  V30 3622 C 361.904 0.741657 -1.88 0
M  V30 3623 C 362.225 1.76918 -0.820054 0
M  V30 3624 O 361.495 1.95335 0.148661 0
M  V30 3625 H 360.075 0.276908 -0.69378 0
M  V30 3626 H 362.737 0.019013 -1.94891 0
M  V30 3627 H 361.833 1.24336 -2.86264 0
M  V30 3628 N 362.134 1.5431 0.320358 0
M  V30 3629 C 363.064 1.86912 1.3995 0
M  V30 3630 C 364.045 0.726211 1.53819 0
M  V30 3631 O 365.23 0.980233 1.67646 0
M  V30 3632 C 362.36 2.09932 2.7667 0
M  V30 3633 C 361.314 3.25776 2.77586 0
M  V30 3634 C 360.64 3.34173 4.17412 0
M  V30 3635 C 361.94 4.6335 2.41048 0
M  V30 3636 H 363.634 2.77292 1.12914 0
M  V30 3637 H 361.18 1.33421 0.541738 0
M  V30 3638 H 363.133 2.31324 3.52232 0
M  V30 3639 H 361.857 1.16304 3.0519 0
M  V30 3640 H 360.516 3.04276 2.04479 0
M  V30 3641 H 360.164 2.38098 4.43078 0
M  V30 3642 H 359.864 4.12033 4.18931 0
M  V30 3643 H 361.388 3.57803 4.94782 0
M  V30 3644 H 362.802 4.84602 3.06324 0
M  V30 3645 H 361.199 5.43782 2.53813 0
M  V30 3646 H 362.269 4.65381 1.36193 0
M  V30 3647 N 363.613 -0.582584 1.46437 0
M  V30 3648 C 364.523 -1.71949 1.59595 0
M  V30 3649 C 365.539 -1.67264 0.479443 0
M  V30 3650 O 366.715 -1.87171 0.743579 0
M  V30 3651 C 363.78 -3.08452 1.58298 0
M  V30 3652 C 362.841 -3.244 2.81182 0
M  V30 3653 C 362.074 -4.54391 2.79937 0
M  V30 3654 O 362.297 -5.38287 1.8869 0
M  V30 3655 O 361.231 -4.73588 3.71481 0
M  V30 3656 H 365.057 -1.63795 2.55744 0
M  V30 3657 H 362.642 -0.749643 1.29231 0
M  V30 3658 H 364.524 -3.89732 1.60271 0
M  V30 3659 H 363.199 -3.17043 0.653094 0
M  V30 3660 H 362.106 -2.42613 2.84763 0
M  V30 3661 H 363.439 -3.20699 3.7338 0
M  V30 3662 N 365.091 -1.34144 -0.827227 0
M  V30 3663 C 366.021 -1.28005 -1.95287 0
M  V30 3664 C 367.002 -0.158321 -1.69362 0
M  V30 3665 O 368.187 -0.349987 -1.9102 0
M  V30 3666 C 365.317 -1.03036 -3.31664 0
M  V30 3667 C 364.271 -2.11628 -3.72019 0
M  V30 3668 C 363.597 -1.71854 -5.0633 0
M  V30 3669 C 364.897 -3.53417 -3.8457 0
M  V30 3670 H 366.591 -2.22187 -2.00682 0
M  V30 3671 H 364.137 -1.0696 -0.964135 0
M  V30 3672 H 366.09 -0.973863 -4.09993 0
M  V30 3673 H 364.814 -0.0529391 -3.26557 0
M  V30 3674 H 363.473 -2.16339 -2.95961 0
M  V30 3675 H 363.121 -0.727841 -4.97706 0
M  V30 3676 H 362.821 -2.44531 -5.34302 0
M  V30 3677 H 364.345 -1.67692 -5.87122 0
M  V30 3678 H 365.759 -3.51142 -4.5318 0
M  V30 3679 H 364.156 -4.24679 -4.2399 0
M  V30 3680 H 365.226 -3.91072 -2.86689 0
M  V30 3681 N 366.569 1.04691 -1.17803 0
M  V30 3682 C 367.797 1.81446 -0.99423 0
M  V30 3683 C 368.212 1.83174 0.457459 0
M  V30 3684 O 367.569 1.26265 1.31771 0
M  V30 3685 C 367.62 3.27334 -1.5341 0
M  V30 3686 O 367.341 3.25798 -2.92895 0
M  V30 3687 C 368.842 4.20759 -1.39559 0
M  V30 3688 H 366.062 0.571599 -0.351447 0
M  V30 3689 H 368.606 1.31982 -1.56208 0
M  V30 3690 H 366.761 3.74052 -1.00815 0
M  V30 3691 H 367.175 4.17144 -3.17949 0
M  V30 3692 H 368.649 5.21084 -1.82141 0
M  V30 3693 H 369.126 4.37856 -0.343394 0
M  V30 3694 H 369.732 3.79901 -1.91195 0
M  V30 3695 N 368.047 0.979072 1.23499 0
M  V30 3696 C 368.995 0.510604 2.26926 0
M  V30 3697 C 369.989 -0.431691 1.63807 0
M  V30 3698 O 371.195 -0.30573 1.77385 0
M  V30 3699 H 367.57 0.146688 0.737554 0
M  V30 3700 H 369.541 1.39466 2.63803 0
M  V30 3701 C 368.29 -0.172658 3.47271 0
M  V30 3702 H 367.613 0.543331 3.96091 0
M  V30 3703 H 369.053 -0.464101 4.21452 0
M  V30 3704 C 367.512 -1.40345 3.06276 0
M  V30 3705 O 368.042 -2.49978 3.14442 0
M  V30 3706 N 366.248 -1.27362 2.61203 0
M  V30 3707 H 365.795 -0.381584 2.54758 0
M  V30 3708 H 365.753 -2.09822 2.34141 0
M  V30 3709 N 369.525 -1.3858 0.750561 0
M  V30 3710 C 370.941 -1.53759 0.427824 0
M  V30 3711 C 371.141 -1.71401 -1.05943 0
M  V30 3712 O 370.197 -1.72331 -1.84549 0
M  V30 3713 C 371.51 -2.74642 1.22443 0
M  V30 3714 C 373.058 -2.88489 1.2142 0
M  V30 3715 C 373.533 -4.12329 1.9937 0
M  V30 3716 N 375.024 -4.194 1.96616 0
M  V30 3717 C 375.759 -5.14209 2.53727 0
M  V30 3718 N 375.255 -6.14709 3.19539 0
M  V30 3719 N 377.048 -5.06537 2.43673 0
M  V30 3720 H 369.199 -1.25377 1.71447 0
M  V30 3721 H 371.462 -0.608844 0.726645 0
M  V30 3722 H 371.168 -2.68 2.27747 0
M  V30 3723 H 371.042 -3.67745 0.839273 0
M  V30 3724 H 373.429 -2.94614 0.169232 0
M  V30 3725 H 373.51 -1.96406 1.63885 0
M  V30 3726 H 373.154 -4.06966 3.03877 0
M  V30 3727 H 373.084 -5.03486 1.54302 0
M  V30 3728 H 375.575 -3.47421 1.48684 0
M  V30 3729 H 375.888 -6.8354 3.60545 0
M  V30 3730 H 374.233 -6.1505 3.23633 0
M  V30 3731 H 377.424 -4.26962 1.91889 0
M  V30 3732 H 377.597 -5.80245 2.88479 0
M  V30 3733 N 371.003 -0.499398 -1.49478 0
M  V30 3734 C 371.913 0.284489 -2.32869 0
M  V30 3735 C 372.929 0.968885 -1.44529 0
M  V30 3736 O 374.105 0.95062 -1.77553 0
M  V30 3737 C 371.17 1.33594 -3.19928 0
M  V30 3738 C 370.231 0.665149 -4.24116 0
M  V30 3739 C 369.464 1.6665 -5.07014 0
M  V30 3740 O 369.687 2.89618 -4.91404 0
M  V30 3741 O 368.621 1.22271 -5.8935 0
M  V30 3742 H 372.447 -0.39802 -3.01081 0
M  V30 3743 H 370.032 -0.260758 -1.47107 0
M  V30 3744 H 371.914 1.94431 -3.73864 0
M  V30 3745 H 370.589 2.0014 -2.54412 0
M  V30 3746 H 369.496 0.0170769 -3.74096 0
M  V30 3747 H 370.829 0.0421555 -4.92182 0
M  V30 3748 N 372.481 1.55866 -0.233164 0
M  V30 3749 C 373.411 2.23783 0.666599 0
M  V30 3750 C 374.392 1.21343 1.19205 0
M  V30 3751 O 375.577 1.4996 1.23392 0
M  V30 3752 C 372.707 2.92671 1.86978 0
M  V30 3753 C 371.661 4.01682 1.47768 0
M  V30 3754 C 370.987 4.57926 2.76058 0
M  V30 3755 C 372.287 5.18126 0.658993 0
M  V30 3756 H 373.981 2.99232 0.100306 0
M  V30 3757 H 371.527 1.43924 0.046804 0
M  V30 3758 H 373.48 3.3888 2.50476 0
M  V30 3759 H 372.204 2.14688 2.46123 0
M  V30 3760 H 370.863 3.56222 0.866106 0
M  V30 3761 H 370.511 3.76659 3.33372 0
M  V30 3762 H 370.211 5.31505 2.50552 0
M  V30 3763 H 371.735 5.06859 3.40479 0
M  V30 3764 H 373.149 5.60644 1.19795 0
M  V30 3765 H 371.546 5.98009 0.500552 0
M  V30 3766 H 372.616 4.83763 -0.331856 0
M  V30 3767 N 373.959 -0.0401083 1.57549 0
M  V30 3768 C 375.187 -0.745196 1.93014 0
M  V30 3769 C 375.602 -1.6948 0.831984 0
M  V30 3770 O 374.959 -1.81482 -0.192463 0
M  V30 3771 C 375.01 -1.51176 3.28372 0
M  V30 3772 O 374.731 -0.600284 4.33968 0
M  V30 3773 C 376.232 -2.315 3.78051 0
M  V30 3774 H 373.452 -0.210088 0.637263 0
M  V30 3775 H 375.996 -0.000924689 2.045 0
M  V30 3776 H 374.151 -2.20801 3.18317 0
M  V30 3777 H 374.565 -1.13669 5.12035 0
M  V30 3778 H 376.039 -2.80697 4.75303 0
M  V30 3779 H 376.516 -3.12436 3.08675 0
M  V30 3780 H 377.122 -1.66971 3.91153 0
M  V30 3781 N 375.437 -1.54477 -0.31217 0
M  V30 3782 C 376.685 -1.72884 -1.04668 0
M  V30 3783 C 377.006 -0.511477 -1.88173 0
M  V30 3784 O 376.276 0.474407 -1.90069 0
M  V30 3785 H 374.856 -0.637461 -0.389425 0
M  V30 3786 H 377.518 -1.91807 -0.345852 0
M  V30 3787 H 376.614 -2.61334 -1.70619 0
M  V30 3788 N 376.915 0.57481 -1.46744 0
M  V30 3789 C 378.164 1.32898 -1.51727 0
M  V30 3790 C 378.477 1.948 -0.176692 0
M  V30 3791 O 379.683 2.71299 -0.104385 0
M  V30 3792 C 378.139 2.40901 -2.67385 0
M  V30 3793 C 377.747 1.85266 -4.07898 0
M  V30 3794 C 379.491 3.17609 -2.81646 0
M  V30 3795 C 377.398 2.90945 -5.14883 0
M  V30 3796 H 376.328 0.499631 -0.564699 0
M  V30 3797 H 378.979 0.612536 -1.72975 0
M  V30 3798 H 377.361 3.15379 -2.39483 0
M  V30 3799 H 378.535 1.17278 -4.45626 0
M  V30 3800 H 376.85 1.21199 -3.98371 0
M  V30 3801 H 379.447 3.96493 -3.58744 0
M  V30 3802 H 379.79 3.70696 -1.89448 0
M  V30 3803 H 380.323 2.50239 -3.09233 0
M  V30 3804 H 377.062 2.42736 -6.089 0
M  V30 3805 H 376.582 3.57398 -4.81691 0
M  V30 3806 H 378.261 3.54755 -5.41071 0
M  V30 3807 N 378.394 1.34581 0.820102 0
M  V30 3808 C 379.324 1.29038 1.94606 0
M  V30 3809 C 380.305 0.1673 1.69275 0
M  V30 3810 O 381.49 0.360112 1.90832 0
M  V30 3811 C 378.62 1.04793 3.31113 0
M  V30 3812 C 377.574 2.13597 3.70891 0
M  V30 3813 C 376.9 1.74537 5.05412 0
M  V30 3814 C 378.2 3.55451 3.8269 0
M  V30 3815 H 379.894 2.23248 1.99501 0
M  V30 3816 H 377.44 1.0747 0.958449 0
M  V30 3817 H 379.393 0.995592 4.0947 0
M  V30 3818 H 378.117 0.0702565 3.26524 0
M  V30 3819 H 376.776 2.17905 2.9481 0
M  V30 3820 H 376.424 0.754226 4.97313 0
M  V30 3821 H 376.124 2.47361 5.32997 0
M  V30 3822 H 377.648 1.70803 5.86224 0
M  V30 3823 H 379.062 3.5354 4.51312 0
M  V30 3824 H 377.459 4.26922 4.21732 0
M  V30 3825 H 378.529 3.92587 2.84611 0
M  V30 3826 N 379.872 -1.04064 1.18357 0
M  V30 3827 C 380.802 -2.14001 0.934113 0
M  V30 3828 C 381.783 -1.69616 -0.128186 0
M  V30 3829 O 382.968 -1.94185 0.0244093 0
M  V30 3830 C 380.098 -3.44253 0.459066 0
M  V30 3831 C 379.052 -4.02261 1.46185 0
M  V30 3832 C 378.378 -5.27992 0.844322 0
M  V30 3833 C 379.678 -4.38432 2.83856 0
M  V30 3834 H 381.372 -2.35127 1.85352 0
M  V30 3835 H 378.918 -1.12998 0.892604 0
M  V30 3836 H 380.871 -4.20522 0.271907 0
M  V30 3837 H 379.595 -3.22813 -0.495912 0
M  V30 3838 H 378.254 -3.28074 1.63595 0
M  V30 3839 H 377.902 -5.02862 -0.117845 0
M  V30 3840 H 377.602 -5.67765 1.51384 0
M  V30 3841 H 379.126 -6.06938 0.667693 0
M  V30 3842 H 380.54 -5.05688 2.70098 0
M  V30 3843 H 378.937 -4.89254 3.47491 0
M  V30 3844 H 380.007 -3.4826 3.37406 0
M  V30 3845 N 381.35 -0.985608 -1.22978 0
M  V30 3846 C 382.627 -0.573599 -1.87001 0
M  V30 3847 C 383.007 0.949213 -1.88555 0
M  V30 3848 O 382.355 1.82811 -1.37086 0
M  V30 3849 C 382.565 -1.18564 -3.28243 0
M  V30 3850 C 383.913 -1.28163 -4.04796 0
M  V30 3851 O 384.937 -1.13949 -3.37482 0
M  V30 3852 O 383.796 -1.50832 -5.25273 0
M  V30 3853 H 380.89 -0.193868 -0.803955 0
M  V30 3854 H 383.436 -1.08102 -1.30813 0
M  V30 3855 H 382.208 -2.22758 -3.21706 0
M  V30 3856 H 381.831 -0.663363 -3.92027 0
M  V30 3857 N 382.828 1.3818 -0.7579 0
M  V30 3858 C 384.053 2.04827 -0.325679 0
M  V30 3859 C 384.478 1.56788 1.03919 0
M  V30 3860 O 383.836 0.721811 1.66312 0
M  V30 3861 C 383.884 3.58774 -0.362447 0
M  V30 3862 O 382.988 4.07372 0.642033 0
M  V30 3863 H 382.329 0.64833 -0.143402 0
M  V30 3864 H 384.859 1.7677 -1.03023 0
M  V30 3865 H 384.869 4.07434 -0.214844 0
M  V30 3866 H 383.544 3.93096 -1.35824 0
M  V30 3867 H 382.121 3.70068 0.458688 0
M  V30 3868 N 384.306 0.507319 1.49211 0
M  V30 3869 C 385.236 -0.256939 2.32082 0
M  V30 3870 C 386.217 -0.956609 1.40652 0
M  V30 3871 O 387.402 -0.946788 1.69557 0
M  V30 3872 C 384.532 -1.31802 3.21318 0
M  V30 3873 C 383.486 -0.737855 4.21592 0
M  V30 3874 C 382.812 -1.89992 4.99807 0
M  V30 3875 C 384.112 0.275325 5.21574 0
M  V30 3876 H 385.806 0.434798 2.96226 0
M  V30 3877 H 383.352 0.210546 1.42452 0
M  V30 3878 H 385.305 -1.86045 3.78107 0
M  V30 3879 H 384.029 -2.03903 2.5513 0
M  V30 3880 H 382.688 -0.217126 3.65956 0
M  V30 3881 H 382.336 -2.60877 4.30061 0
M  V30 3882 H 382.036 -1.51777 5.6766 0
M  V30 3883 H 383.56 -2.44657 5.59442 0
M  V30 3884 H 384.974 -0.179193 5.7302 0
M  V30 3885 H 383.371 0.573649 5.97352 0
M  V30 3886 H 384.441 1.18903 4.70096 0
M  V30 3887 N 385.784 -1.5574 0.241426 0
M  V30 3888 C 387.032 -1.98417 -0.384075 0
M  V30 3889 C 387.353 -1.13078 -1.58866 0
M  V30 3890 O 386.623 -0.212312 -1.94746 0
M  V30 3891 H 385.203 -0.732813 -0.144894 0
M  V30 3892 H 387.865 -1.9193 0.338943 0
M  V30 3893 H 386.961 -3.04219 -0.696939 0
M  V30 3894 N 387.262 0.0317525 -1.57568 0
M  V30 3895 C 388.225 1.01783 -2.0536 0
M  V30 3896 C 389.225 1.29203 -0.957253 0
M  V30 3897 O 390.415 1.24251 -1.22095 0
M  V30 3898 C 387.547 2.35137 -2.46827 0
M  V30 3899 H 388.74 0.605062 -2.93733 0
M  V30 3900 H 386.293 0.278514 -1.53799 0
M  V30 3901 H 387.028 2.81168 -1.61602 0
M  V30 3902 H 386.813 2.16566 -3.26866 0
M  V30 3903 H 388.303 3.05938 -2.84239 0
M  V30 3904 N 388.74 1.54641 0.303973 0
M  V30 3905 C 390.017 1.64455 1.05896 0
M  V30 3906 C 390.397 0.490923 2.05312 0
M  V30 3907 O 389.745 -0.512685 2.22674 0
M  V30 3908 C 389.955 3.02331 1.74347 0
M  V30 3909 C 391.303 3.59045 2.26653 0
M  V30 3910 O 392.327 3.04764 1.84384 0
M  V30 3911 O 391.186 4.54081 3.04093 0
M  V30 3912 H 388.28 0.666729 0.489287 0
M  V30 3913 H 390.826 1.66986 0.302298 0
M  V30 3914 H 389.598 3.77734 1.02142 0
M  V30 3915 H 389.221 3.03565 2.56777 0
M  V30 3916 N 390.218 -0.567019 1.47046 0
M  V30 3917 C 391.464 -1.32434 1.54379 0
M  V30 3918 C 391.819 -1.91365 0.199276 0
M  V30 3919 O 391.112 -1.74378 -0.793915 0
M  V30 3920 C 391.306 -2.4623 2.59047 0
M  V30 3921 C 391.135 -1.98448 4.03545 0
M  V30 3922 C 389.905 -1.82741 4.71098 0
M  V30 3923 C 392.103 -1.53477 4.90866 0
M  V30 3924 N 390.085 -1.29196 6.00151 0
M  V30 3925 C 391.456 -1.1163 6.09868 0
M  V30 3926 C 393.511 -1.41438 4.77388 0
M  V30 3927 C 392.214 -0.589425 7.16881 0
M  V30 3928 C 394.24 -0.901528 5.84488 0
M  V30 3929 C 393.602 -0.492932 7.02673 0
M  V30 3930 H 389.701 -0.477005 0.61967 0
M  V30 3931 H 392.285 -0.643856 1.83746 0
M  V30 3932 H 390.456 -3.11821 2.31564 0
M  V30 3933 H 392.188 -3.13213 2.56281 0
M  V30 3934 H 388.943 -2.05162 4.26855 0
M  V30 3935 H 389.367 -1.0454 6.6888 0
M  V30 3936 H 394.009 -1.71643 3.86392 0
M  V30 3937 H 391.727 -0.274994 8.07632 0
M  V30 3938 H 395.313 -0.812071 5.76105 0
M  V30 3939 H 394.193 -0.102227 7.84133 0
M  V30 3940 N 391.696 -1.35014 -0.812953 0
M  V30 3941 C 392.921 -1.31187 -1.60639 0
M  V30 3942 C 393.346 0.109382 -1.87782 0
M  V30 3943 O 392.704 1.07424 -1.46047 0
M  V30 3944 C 392.752 -2.11809 -2.91838 0
M  V30 3945 O 391.856 -1.49444 -3.8437 0
M  V30 3946 H 391.197 -0.450084 -0.488181 0
M  V30 3947 H 393.727 -1.77963 -1.00947 0
M  V30 3948 H 393.737 -2.23531 -3.41318 0
M  V30 3949 H 392.412 -3.15137 -2.71407 0
M  V30 3950 H 390.989 -1.46524 -3.42907 0
M  V30 3951 N 393.175 1.03435 -1.18907 0
M  V30 3952 C 394.4 1.80919 -1.01406 0
M  V30 3953 C 394.825 1.83055 0.432721 0
M  V30 3954 O 394.183 1.25252 1.31079 0
M  V30 3955 C 394.231 3.24091 -1.58105 0
M  V30 3956 O 393.335 4.04434 -0.806669 0
M  V30 3957 H 392.676 0.558709 -0.358803 0
M  V30 3958 H 395.206 1.30223 -1.57807 0
M  V30 3959 H 395.216 3.74853 -1.61087 0
M  V30 3960 H 393.891 3.21851 -2.6341 0
M  V30 3961 H 392.468 3.63091 -0.849666 0
M  V30 3962 N 394.653 0.992116 1.22453 0
M  V30 3963 C 395.899 0.668523 1.91464 0
M  V30 3964 C 396.232 -0.797313 1.77078 0
M  V30 3965 O 395.507 -1.5765 1.13916 0
M  V30 3966 C 395.79 1.07424 3.43703 0
M  V30 3967 C 395.643 2.59857 3.67143 0
M  V30 3968 C 396.962 0.626891 4.35612 0
M  V30 3969 H 394.081 0.244341 0.695318 0
M  V30 3970 H 396.723 1.2355 1.44345 0
M  V30 3971 H 394.873 0.591816 3.83966 0
M  V30 3972 H 396.545 3.15764 3.3629 0
M  V30 3973 H 394.788 3.01961 3.11451 0
M  V30 3974 H 395.459 2.83296 4.73759 0
M  V30 3975 H 397.935 1.04125 4.02861 0
M  V30 3976 H 396.811 0.939076 5.40807 0
M  V30 3977 H 397.072 -0.472457 4.39568 0
M  V30 3978 N 396.131 -1.37776 0.765217 0
M  V30 3979 C 397.547 -1.53297 0.444108 0
M  V30 3980 C 397.747 -1.72515 -1.04119 0
M  V30 3981 O 396.803 -1.74278 -1.82711 0
M  V30 3982 C 398.116 -2.73328 1.25349 0
M  V30 3983 C 399.664 -2.87185 1.24473 0
M  V30 3984 C 400.139 -4.10191 2.03733 0
M  V30 3985 N 401.63 -4.17291 2.01053 0
M  V30 3986 C 402.365 -5.11488 2.59166 0
M  V30 3987 N 401.861 -6.11285 3.26041 0
M  V30 3988 N 403.654 -5.03924 2.49032 0
M  V30 3989 H 395.805 -1.23552 1.72768 0
M  V30 3990 H 398.068 -0.601103 0.733062 0
M  V30 3991 H 397.774 -2.6557 2.30577 0
M  V30 3992 H 397.648 -3.66834 0.87823 0
M  V30 3993 H 400.035 -2.94418 0.20047 0
M  V30 3994 H 400.116 -1.94657 1.65959 0
M  V30 3995 H 399.76 -4.0372 3.08176 0
M  V30 3996 H 399.69 -5.01821 1.59633 0
M  V30 3997 H 402.181 -3.45825 1.5236 0
M  V30 3998 H 402.494 -6.79678 3.67774 0
M  V30 3999 H 400.839 -6.11583 3.30138 0
M  V30 4000 H 404.03 -4.24902 1.96407 0
M  V30 4001 H 404.203 -5.77152 2.94617 0
M  V30 4002 N 397.609 -0.515225 -1.4894 0
M  V30 4003 C 398.556 0.255567 -2.29381 0
M  V30 4004 C 399.526 0.947387 -1.36432 0
M  V30 4005 O 400.711 0.951288 -1.65394 0
M  V30 4006 C 397.851 1.30551 -3.19453 0
M  V30 4007 C 396.964 0.624029 -4.27469 0
M  V30 4008 C 396.099 1.65563 -5.0474 0
M  V30 4009 C 395.138 0.956802 -6.04576 0
M  V30 4010 N 394.275 1.93326 -6.74959 0
M  V30 4011 H 399.115 -0.436607 -2.94784 0
M  V30 4012 H 396.652 -0.227154 -1.45336 0
M  V30 4013 H 398.61 1.92639 -3.70062 0
M  V30 4014 H 397.24 1.96626 -2.56004 0
M  V30 4015 H 396.292 -0.110459 -3.8024 0
M  V30 4016 H 397.604 0.0746092 -4.98744 0
M  V30 4017 H 396.758 2.35119 -5.59289 0
M  V30 4018 H 395.497 2.23893 -4.3327 0
M  V30 4019 H 394.502 0.247097 -5.49244 0
M  V30 4020 H 395.727 0.379814 -6.78037 0
M  V30 4021 H 393.673 2.50591 -6.06251 0
M  V30 4022 H 393.59 1.43489 -7.42258 0
M  V30 4023 H 394.858 2.62126 -7.34105 0
M  V30 4024 N 399.087 1.5561 -0.249682 0
M  V30 4025 C 400.333 1.99306 0.374841 0
M  V30 4026 C 400.666 1.13767 1.57387 0
M  V30 4027 O 399.941 0.201711 1.93451 0
M  V30 4028 C 400.224 3.51507 0.781986 0
M  V30 4029 C 400.077 4.4781 -0.422629 0
M  V30 4030 C 401.396 4.08884 1.62793 0
M  V30 4031 H 398.515 0.724572 0.134773 0
M  V30 4032 H 401.157 1.86719 -0.351549 0
M  V30 4033 H 399.307 3.62363 1.4009 0
M  V30 4034 H 400.979 4.48931 -1.06108 0
M  V30 4035 H 399.222 4.20518 -1.06524 0
M  V30 4036 H 399.893 5.51919 -0.0943766 0
M  V30 4037 H 402.369 4.01147 1.10547 0
M  V30 4038 H 401.245 5.1564 1.88166 0
M  V30 4039 H 401.506 3.57515 2.60068 0
M  V30 4040 N 400.565 -0.0233959 1.57583 0
M  V30 4041 C 401.528 -1.00693 2.05897 0
M  V30 4042 C 402.528 -1.28693 0.964092 0
M  V30 4043 O 403.718 -1.23602 1.22753 0
M  V30 4044 C 400.85 -2.33825 2.4807 0
M  V30 4045 H 402.043 -0.589476 2.9405 0
M  V30 4046 H 399.596 -0.270354 1.53944 0
M  V30 4047 H 400.331 -2.80307 1.6309 0
M  V30 4048 H 400.116 -2.1483 3.2801 0
M  V30 4049 H 401.606 -3.04426 2.85857 0
M  V30 4050 N 402.043 -1.548 -0.295768 0
M  V30 4051 C 403.32 -1.65014 -1.05023 0
M  V30 4052 C 403.7 -0.501805 -2.05049 0
M  V30 4053 O 403.048 0.500869 -2.22943 0
M  V30 4054 C 403.258 -3.03252 -1.72741 0
M  V30 4055 C 404.606 -3.60242 -2.24746 0
M  V30 4056 O 405.63 -3.05737 -1.82765 0
M  V30 4057 O 404.489 -4.55687 -3.01681 0
M  V30 4058 H 401.583 -0.669314 -0.485744 0
M  V30 4059 H 404.129 -1.67144 -0.293438 0
M  V30 4060 H 402.901 -3.7827 -1.00138 0
M  V30 4061 H 402.524 -3.04922 -2.55163 0
M  V30 4062 N 403.521 0.559213 -1.47345 0
M  V30 4063 C 404.937 0.884943 -1.32819 0
M  V30 4064 C 405.137 1.98988 -0.317173 0
M  V30 4065 O 404.193 2.51031 0.272011 0
M  V30 4066 C 405.506 1.28007 -2.72093 0
M  V30 4067 C 407.054 1.39161 -2.80363 0
M  V30 4068 C 407.529 1.82031 -4.20272 0
M  V30 4069 N 409.02 1.89185 -4.22804 0
M  V30 4070 C 409.755 2.2368 -5.27973 0
M  V30 4071 N 409.251 2.56802 -6.43447 0
M  V30 4072 N 411.044 2.24436 -5.15349 0
M  V30 4073 H 403.195 -0.170304 -2.11716 0
M  V30 4074 H 405.458 -0.0135247 -0.947904 0
M  V30 4075 H 405.164 0.542027 -3.47498 0
M  V30 4076 H 405.038 2.23665 -3.03733 0
M  V30 4077 H 407.425 2.12048 -2.05231 0
M  V30 4078 H 407.506 0.41696 -2.52379 0
M  V30 4079 H 407.15 1.09715 -4.95908 0
M  V30 4080 H 407.08 2.80495 -4.45679 0
M  V30 4081 H 409.571 1.65982 -3.39497 0
M  V30 4082 H 409.884 2.82144 -7.19454 0
M  V30 4083 H 408.229 2.54387 -6.46771 0
M  V30 4084 H 411.42 1.97998 -4.24163 0
M  V30 4085 H 411.593 2.50989 -5.97418 0
M  V30 4086 N 404.999 1.35443 0.805782 0
M  V30 4087 C 405.946 1.28431 1.91766 0
M  V30 4088 C 406.916 0.156102 1.65365 0
M  V30 4089 O 408.101 0.339936 1.87747 0
M  V30 4090 C 405.241 1.06301 3.2832 0
M  V30 4091 C 404.354 2.2805 3.66902 0
M  V30 4092 C 403.489 1.99064 4.92491 0
M  V30 4093 C 402.528 3.16863 5.23703 0
M  V30 4094 N 401.665 2.87647 6.40471 0
M  V30 4095 H 406.505 2.23511 1.97096 0
M  V30 4096 H 404.042 1.11105 0.964054 0
M  V30 4097 H 406 0.915012 4.07042 0
M  V30 4098 H 404.63 0.148822 3.22457 0
M  V30 4099 H 403.682 2.53711 2.83434 0
M  V30 4100 H 404.994 3.1601 3.85927 0
M  V30 4101 H 404.148 1.81099 5.7904 0
M  V30 4102 H 402.887 1.0839 4.75503 0
M  V30 4103 H 401.892 3.35404 4.35642 0
M  V30 4104 H 403.117 4.08339 5.4262 0
M  V30 4105 H 401.063 1.99568 6.24907 0
M  V30 4106 H 400.98 3.69141 6.59751 0
M  V30 4107 H 402.248 2.73226 7.30047 0
M  V30 4108 N 406.477 -1.02803 1.19454 0
M  V30 4109 C 407.725 -1.75869 0.995722 0
M  V30 4110 C 408.046 -1.89138 -0.474543 0
M  V30 4111 O 407.316 -1.42558 -1.34366 0
M  V30 4112 H 405.896 -0.651511 0.365435 0
M  V30 4113 H 408.558 -1.24004 1.50363 0
M  V30 4114 H 407.654 -2.76661 1.44447 0
M  V30 4115 N 407.956 -0.998596 -1.21925 0
M  V30 4116 C 408.906 -0.524743 -2.21879 0
M  V30 4117 C 409.89 0.41017 -1.55584 0
M  V30 4118 O 411.082 0.236063 -1.75419 0
M  V30 4119 C 408.211 0.153636 -3.42956 0
M  V30 4120 C 407.297 -0.801918 -4.16449 0
M  V30 4121 N 407.688 -1.95211 -4.66611 0
M  V30 4122 C 405.986 -0.618972 -4.41684 0
M  V30 4123 C 406.687 -2.55234 -5.22715 0
M  V30 4124 N 405.663 -1.83451 -5.1171 0
M  V30 4125 H 409.465 -1.40189 -2.58311 0
M  V30 4126 H 406.979 -0.86159 -1.3766 0
M  V30 4127 H 408.976 0.510534 -4.13762 0
M  V30 4128 H 407.636 1.02684 -3.08036 0
M  V30 4129 H 408.647 -2.33271 -4.62391 0
M  V30 4130 H 405.324 0.207694 -4.16983 0
M  V30 4131 H 406.714 -3.52471 -5.72026 0
M  V30 4132 N 409.434 1.37368 -0.772513 0
M  V30 4133 C 410.711 1.93839 -0.26188 0
M  V30 4134 C 411.091 1.7061 1.24319 0
M  V30 4135 O 410.439 1.05534 2.02669 0
M  V30 4136 C 410.649 3.43154 -0.636102 0
M  V30 4137 C 411.997 4.20249 -0.606324 0
M  V30 4138 O 413.021 3.5152 -0.575538 0
M  V30 4139 O 411.88 5.42809 -0.634086 0
M  V30 4140 H 408.974 0.82478 -0.0605555 0
M  V30 4141 H 411.52 1.4665 -0.853917 0
M  V30 4142 H 410.292 3.53647 -1.6748 0
M  V30 4143 H 409.915 3.97596 -0.0170516 0
M  V30 4144 N 410.912 0.523116 1.48665 0
M  V30 4145 C 411.842 -0.23231 2.32342 0
M  V30 4146 C 412.823 -0.941637 1.41659 0
M  V30 4147 O 414.008 -0.928751 1.70552 0
M  V30 4148 C 411.138 -1.28387 3.22698 0
M  V30 4149 C 410.092 -0.693098 4.22351 0
M  V30 4150 C 409.418 -1.8468 5.01794 0
M  V30 4151 C 410.718 0.33063 5.21252 0
M  V30 4152 H 412.412 0.466192 2.95748 0
M  V30 4153 H 409.958 0.225643 1.42221 0
M  V30 4154 H 411.911 -1.82024 3.80059 0
M  V30 4155 H 410.635 -2.01186 2.57278 0
M  V30 4156 H 409.294 -0.178299 3.66166 0
M  V30 4157 H 408.942 -2.56301 4.32804 0
M  V30 4158 H 408.642 -1.45747 5.69238 0
M  V30 4159 H 410.166 -2.38709 5.62006 0
M  V30 4160 H 411.58 -0.118407 5.73178 0
M  V30 4161 H 409.977 0.636974 5.9671 0
M  V30 4162 H 411.047 1.23883 4.68808 0
M  V30 4163 N 412.39 -1.55475 0.257931 0
M  V30 4164 C 413.806 -1.59307 -0.0966563 0
M  V30 4165 C 414.006 -1.27514 -1.5602 0
M  V30 4166 O 413.062 -1.02774 -2.30637 0
M  V30 4167 C 414.375 -2.99552 0.262481 0
M  V30 4168 C 415.923 -3.1231 0.207683 0
M  V30 4169 C 416.398 -4.54793 0.541012 0
M  V30 4170 N 417.889 -4.6058 0.491921 0
M  V30 4171 C 418.624 -5.68825 0.722857 0
M  V30 4172 N 418.12 -6.85287 1.0175 0
M  V30 4173 N 419.913 -5.58296 0.652815 0
M  V30 4174 H 412.064 -1.74409 1.21224 0
M  V30 4175 H 414.327 -0.812424 0.48854 0
M  V30 4176 H 414.033 -3.27593 1.27967 0
M  V30 4177 H 413.907 -3.75019 -0.40508 0
M  V30 4178 H 416.294 -2.84044 -0.800195 0
M  V30 4179 H 416.375 -2.39095 0.909255 0
M  V30 4180 H 416.019 -4.83783 1.5465 0
M  V30 4181 H 415.949 -5.26285 -0.18216 0
M  V30 4182 H 418.44 -3.7691 0.273366 0
M  V30 4183 H 418.753 -7.63725 1.18084 0
M  V30 4184 H 417.098 -6.86945 1.05509 0
M  V30 4185 H 420.289 -4.66189 0.422592 0
M  V30 4186 H 420.462 -6.42582 0.836182 0
M  V30 4187 N 413.868 0.0150385 -1.57593 0
M  V30 4188 C 415.098 0.713359 -1.93894 0
M  V30 4189 C 415.506 1.68663 -0.857289 0
M  V30 4190 O 414.849 1.82876 0.173788 0
M  V30 4191 C 414.911 1.51348 -3.26089 0
M  V30 4192 C 414.575 0.703451 -4.51554 0
M  V30 4193 C 415.572 -0.00237924 -5.199 0
M  V30 4194 C 413.257 0.653854 -4.98026 0
M  V30 4195 C 415.251 -0.746955 -6.33008 0
M  V30 4196 C 412.938 -0.0944578 -6.11027 0
M  V30 4197 C 413.936 -0.793609 -6.78374 0
M  V30 4198 O 413.624 -1.52974 -7.89211 0
M  V30 4199 H 413.356 0.204637 -0.644282 0
M  V30 4200 H 415.91 -0.0276411 -2.05381 0
M  V30 4201 H 414.14 2.29862 -3.10967 0
M  V30 4202 H 415.829 2.09572 -3.47612 0
M  V30 4203 H 416.595 0.0268803 -4.84993 0
M  V30 4204 H 412.474 1.18756 -4.45441 0
M  V30 4205 H 416.018 -1.2932 -6.85509 0
M  V30 4206 H 411.915 -0.125591 -6.45378 0
M  V30 4207 H 412.683 -1.44488 -8.05646 0
M  V30 4208 N 415.346 1.54954 0.287554 0
M  V30 4209 C 416.571 1.79209 1.04397 0
M  V30 4210 C 416.996 0.556431 1.79682 0
M  V30 4211 O 416.354 -0.493518 1.74454 0
M  V30 4212 C 416.402 3.00739 1.98969 0
M  V30 4213 O 415.506 2.74805 3.075 0
M  V30 4214 H 414.847 0.592755 0.299227 0
M  V30 4215 H 417.377 2.02068 0.320886 0
M  V30 4216 H 417.387 3.29077 2.4119 0
M  V30 4217 H 416.062 3.90329 1.43582 0
M  V30 4218 H 414.639 2.57523 2.69697 0
M  V30 4219 N 416.824 -0.551391 1.4764 0
M  V30 4220 C 417.754 -1.66757 1.63445 0
M  V30 4221 C 418.735 -1.63077 0.483742 0
M  V30 4222 O 419.92 -1.80607 0.71377 0
M  V30 4223 C 417.05 -3.05387 1.65396 0
M  V30 4224 C 416.004 -3.23918 2.79752 0
M  V30 4225 C 415.33 -4.63393 2.66779 0
M  V30 4226 C 416.63 -3.08735 4.21284 0
M  V30 4227 H 418.324 -1.53786 2.56886 0
M  V30 4228 H 415.87 -0.738415 1.23626 0
M  V30 4229 H 417.823 -3.83325 1.75043 0
M  V30 4230 H 416.547 -3.19332 0.685195 0
M  V30 4231 H 415.206 -2.48391 2.69625 0
M  V30 4232 H 414.854 -4.74144 1.67918 0
M  V30 4233 H 414.554 -4.7674 3.43501 0
M  V30 4234 H 416.078 -5.43458 2.78364 0
M  V30 4235 H 417.492 -3.76484 4.32357 0
M  V30 4236 H 415.889 -3.33588 4.98838 0
M  V30 4237 H 416.959 -2.0541 4.39243 0
M  V30 4238 N 418.302 -1.35869 -0.798587 0
M  V30 4239 C 419.579 -1.20145 -1.54352 0
M  V30 4240 C 419.959 0.216161 -2.0999 0
M  V30 4241 O 419.307 1.22068 -1.93162 0
M  V30 4242 C 419.517 -2.27602 -2.64572 0
M  V30 4243 C 420.865 -2.63811 -3.32699 0
M  V30 4244 O 421.889 -2.26576 -2.74849 0
M  V30 4245 O 420.748 -3.27866 -4.37226 0
M  V30 4246 H 417.842 -0.467248 -0.682355 0
M  V30 4247 H 420.388 -1.47574 -0.837859 0
M  V30 4248 H 419.16 -3.2265 -2.21388 0
M  V30 4249 H 418.783 -2.01488 -3.42766 0
M  V30 4250 N 419.78 1.02168 -1.19998 0
M  V30 4251 C 421.028 1.75338 -1.00504 0
M  V30 4252 C 421.349 1.89387 0.464506 0
M  V30 4253 O 420.619 1.43268 1.33608 0
M  V30 4254 H 419.199 0.649564 -0.368885 0
M  V30 4255 H 421.861 1.23205 -1.51018 0
M  V30 4256 H 420.957 2.75892 -1.45912 0
M  V30 4257 N 421.258 1.00505 1.21394 0
M  V30 4258 C 422.506 0.686415 1.90086 0
M  V30 4259 C 422.827 -0.785264 1.7849 0
M  V30 4260 O 422.097 -1.56387 1.17983 0
M  V30 4261 H 420.677 0.2509 0.703604 0
M  V30 4262 H 423.339 1.27417 1.47482 0
M  V30 4263 H 422.435 0.959621 2.96981 0
M  V30 4264 N 422.737 -1.36956 0.779787 0
M  V30 4265 C 423.647 -2.33965 0.172491 0
M  V30 4266 C 424.663 -1.60574 -0.670222 0
M  V30 4267 O 425.839 -1.92617 -0.588263 0
M  V30 4268 C 422.904 -3.39761 -0.690173 0
M  V30 4269 C 421.965 -4.28964 0.169924 0
M  V30 4270 C 421.198 -5.29707 -0.651662 0
M  V30 4271 O 421.421 -5.38238 -1.88827 0
M  V30 4272 O 420.355 -6.01873 -0.0566264 0
M  V30 4273 H 424.181 -2.87647 0.974321 0
M  V30 4274 H 421.766 -1.39258 0.541078 0
M  V30 4275 H 423.648 -4.04471 -1.1824 0
M  V30 4276 H 422.323 -2.88394 -1.47006 0
M  V30 4277 H 421.23 -3.67326 0.708696 0
M  V30 4278 H 422.563 -4.83656 0.913085 0
M  V30 4279 N 424.215 -0.530993 -1.48385 0
M  V30 4280 C 425.464 0.00474348 -2.01699 0
M  V30 4281 C 425.777 1.35227 -1.41325 0
M  V30 4282 O 426.983 1.97643 -1.86144 0
M  V30 4283 C 425.439 0.0588473 -3.59852 0
M  V30 4284 C 425.047 -1.28385 -4.2921 0
M  V30 4285 C 426.791 0.543358 -4.21008 0
M  V30 4286 C 424.698 -1.19028 -5.79298 0
M  V30 4287 H 423.628 0.00554317 -0.75398 0
M  V30 4288 H 426.279 -0.674924 -1.70637 0
M  V30 4289 H 424.661 0.803612 -3.8776 0
M  V30 4290 H 425.835 -2.04426 -4.12973 0
M  V30 4291 H 424.15 -1.70418 -3.7993 0
M  V30 4292 H 426.747 0.631351 -5.3096 0
M  V30 4293 H 427.09 1.54937 -3.86394 0
M  V30 4294 H 427.623 -0.145754 -3.97533 0
M  V30 4295 H 424.362 -2.17147 -6.18488 0
M  V30 4296 H 423.882 -0.471246 -5.97946 0
M  V30 4297 H 425.561 -0.881365 -6.40969 0
M  V30 4298 N 425.693 1.55336 -0.266172 0
M  V30 4299 C 426.603 2.2583 0.635458 0
M  V30 4300 C 427.619 1.28106 1.17749 0
M  V30 4301 O 428.795 1.61024 1.20968 0
M  V30 4302 C 425.86 2.95879 1.80712 0
M  V30 4303 C 424.921 4.09059 1.30265 0
M  V30 4304 C 424.154 4.75759 2.41846 0
M  V30 4305 O 424.377 4.41622 3.61007 0
M  V30 4306 O 423.311 5.63888 2.1051 0
M  V30 4307 H 427.137 3.03631 0.0646693 0
M  V30 4308 H 424.722 1.49361 -0.0339177 0
M  V30 4309 H 426.604 3.39932 2.49047 0
M  V30 4310 H 425.279 2.21002 2.36516 0
M  V30 4311 H 424.186 3.69482 0.586019 0
M  V30 4312 H 425.519 4.85811 0.790458 0
M  V30 4313 N 427.171 -0.0066808 1.57599 0
M  V30 4314 C 428.587 -0.36267 1.55425 0
M  V30 4315 C 428.787 -1.75209 0.995187 0
M  V30 4316 O 427.843 -2.44616 0.626058 0
M  V30 4317 C 429.156 -0.244017 2.99708 0
M  V30 4318 C 430.704 -0.319451 3.11366 0
M  V30 4319 C 431.179 -0.229998 4.57422 0
M  V30 4320 N 432.67 -0.288105 4.62303 0
M  V30 4321 C 433.405 -0.242127 5.72889 0
M  V30 4322 N 432.901 -0.147133 6.92644 0
M  V30 4323 N 434.694 -0.293502 5.61333 0
M  V30 4324 H 426.845 0.902314 1.92281 0
M  V30 4325 H 429.108 0.34525 0.882896 0
M  V30 4326 H 428.814 0.711678 3.44424 0
M  V30 4327 H 428.688 -1.02877 3.629 0
M  V30 4328 H 431.075 -1.26559 2.66584 0
M  V30 4329 H 431.156 0.495055 2.50964 0
M  V30 4330 H 430.8 0.712566 5.02877 0
M  V30 4331 H 430.73 -1.0629 5.15761 0
M  V30 4332 H 433.221 -0.363126 3.76151 0
M  V30 4333 H 433.534 -0.117763 7.7271 0
M  V30 4334 H 431.879 -0.112857 6.94908 0
M  V30 4335 H 435.07 -0.365864 4.66668 0
M  V30 4336 H 435.243 -0.254204 6.47501 0
M  V30 4337 N 428.649 -1.55105 -0.279332 0
M  V30 4338 C 429.559 -1.90638 -1.36727 0
M  V30 4339 C 430.575 -0.802899 -1.54368 0
M  V30 4340 O 431.751 -1.10138 -1.68616 0
M  V30 4341 C 428.816 -2.16547 -2.70755 0
M  V30 4342 C 427.877 -3.40146 -2.61915 0
M  V30 4343 C 427.11 -3.6481 -3.8955 0
M  V30 4344 O 427.333 -2.92095 -4.89935 0
M  V30 4345 O 426.267 -4.58343 -3.90135 0
M  V30 4346 H 430.093 -2.83237 -1.09591 0
M  V30 4347 H 427.678 -1.4157 -0.477306 0
M  V30 4348 H 429.56 -2.34665 -3.50014 0
M  V30 4349 H 428.235 -1.27131 -2.9769 0
M  V30 4350 H 427.142 -3.2737 -1.81052 0
M  V30 4351 H 428.475 -4.29761 -2.3993 0
M  V30 4352 N 430.127 0.543554 -1.4793 0
M  V30 4353 C 431.057 1.65888 -1.64327 0
M  V30 4354 C 432.038 1.62818 -0.492383 0
M  V30 4355 O 433.223 1.80226 -0.723338 0
M  V30 4356 C 430.353 3.04506 -1.67013 0
M  V30 4357 C 429.307 3.2243 -2.81466 0
M  V30 4358 C 428.633 4.61972 -2.69233 0
M  V30 4359 C 429.933 3.06496 -4.22915 0
M  V30 4360 H 431.627 1.52421 -2.57698 0
M  V30 4361 H 429.173 0.731849 -1.24016 0
M  V30 4362 H 431.126 3.82391 -1.77074 0
M  V30 4363 H 429.85 3.18964 -0.70212 0
M  V30 4364 H 428.509 2.46957 -2.70938 0
M  V30 4365 H 428.157 4.73247 -1.7043 0
M  V30 4366 H 427.857 4.74911 -3.46025 0
M  V30 4367 H 429.381 5.41974 -2.81242 0
M  V30 4368 H 430.795 3.74186 -4.34348 0
M  V30 4369 H 429.192 3.30938 -5.006 0
M  V30 4370 H 430.262 2.03077 -4.40327 0
M  V30 4371 N 431.605 1.3629 0.791371 0
M  V30 4372 C 432.853 1.30154 1.5461 0
M  V30 4373 C 433.174 -0.119409 1.94634 0
M  V30 4374 O 432.444 -1.05924 1.64794 0
M  V30 4375 H 431.024 0.478784 0.573389 0
M  V30 4376 H 433.686 1.70565 0.94306 0
M  V30 4377 H 432.782 1.92762 2.45457 0
M  V30 4378 N 433.083 -1.0153 1.20538 0
M  V30 4379 C 434.313 -1.78487 1.04048 0
M  V30 4380 C 434.721 -1.84631 -0.413292 0
M  V30 4381 O 434.064 -1.29919 -1.29872 0
M  V30 4382 C 434.126 -3.24367 1.55003 0
M  V30 4383 C 433.79 -3.41827 3.0332 0
M  V30 4384 C 434.787 -3.30941 4.00966 0
M  V30 4385 C 432.472 -3.67602 3.42307 0
M  V30 4386 C 434.466 -3.45577 5.35589 0
M  V30 4387 C 432.153 -3.81881 4.77085 0
M  V30 4388 C 433.151 -3.70874 5.73534 0
M  V30 4389 O 432.839 -3.84714 7.05868 0
M  V30 4390 H 432.571 -0.568108 0.366373 0
M  V30 4391 H 435.125 -1.28677 1.60098 0
M  V30 4392 H 433.355 -3.75266 0.933397 0
M  V30 4393 H 435.044 -3.82963 1.34514 0
M  V30 4394 H 435.81 -3.10964 3.72191 0
M  V30 4395 H 431.689 -3.75256 2.67776 0
M  V30 4396 H 435.233 -3.36902 6.10854 0
M  V30 4397 H 431.13 -4.01359 5.0555 0
M  V30 4398 H 431.898 -4.01724 7.13134 0
M  V30 4399 N 434.561 -1.01147 -1.20859 0
M  V30 4400 C 435.977 -0.725422 -1.42161 0
M  V30 4401 C 436.177 0.696919 -1.89064 0
M  V30 4402 O 435.233 1.46539 -2.05627 0
M  V30 4403 C 436.546 -1.74678 -2.44761 0
M  V30 4404 C 438.094 -1.76433 -2.58535 0
M  V30 4405 C 438.569 -2.77481 -3.64374 0
M  V30 4406 N 440.06 -2.76189 -3.71852 0
M  V30 4407 C 440.795 -3.51035 -4.53389 0
M  V30 4408 N 440.291 -4.35541 -5.38773 0
M  V30 4409 N 442.084 -3.39655 -4.47873 0
M  V30 4410 H 434.235 -1.92979 -0.887282 0
M  V30 4411 H 436.498 -0.833327 -0.451962 0
M  V30 4412 H 436.204 -2.76551 -2.17285 0
M  V30 4413 H 436.078 -1.55472 -3.43669 0
M  V30 4414 H 438.465 -0.75248 -2.85345 0
M  V30 4415 H 438.546 -1.99712 -1.5984 0
M  V30 4416 H 438.19 -3.78827 -3.38308 0
M  V30 4417 H 438.12 -2.51466 -4.6268 0
M  V30 4418 H 440.611 -2.14885 -3.10858 0
M  V30 4419 H 440.924 -4.89432 -5.98061 0
M  V30 4420 H 439.269 -4.39621 -5.38292 0
M  V30 4421 H 442.46 -2.73063 -3.80203 0
M  V30 4422 H 442.633 -3.9824 -5.11184 0
M  V30 4423 N 436.039 1.36541 -0.78704 0
M  V30 4424 C 437.45 1.81873 -0.421807 0
M  V30 4425 C 437.801 1.65487 1.05397 0
M  V30 4426 O 436.926 1.17448 1.81755 0
M  V30 4427 C 437.521 3.30192 -0.758841 0
M  V30 4428 C 436.08 3.73743 -0.446468 0
M  V30 4429 C 435.227 2.58844 -0.994728 0
M  V30 4430 H 438.178 1.24796 -0.98039 0
M  V30 4431 H 438.199 3.80468 -0.0490648 0
M  V30 4432 H 437.711 3.42087 -1.83299 0
M  V30 4433 H 435.812 3.6741 0.619739 0
M  V30 4434 H 435.925 4.69272 -0.965415 0
M  V30 4435 H 434.289 2.51245 -0.418087 0
M  V30 4436 H 435.072 2.73525 -2.07458 0
M  V30 4437 N 437.518 0.538854 1.48102 0
M  V30 4438 C 438.45 -0.256278 2.27763 0
M  V30 4439 C 439.463 -0.89633 1.35904 0
M  V30 4440 O 440.652 -0.773275 1.60881 0
M  V30 4441 C 437.752 -1.37896 3.09577 0
M  V30 4442 C 436.925 -0.839159 4.29275 0
M  V30 4443 C 435.984 -1.84405 4.9283 0
M  V30 4444 O 435.01 -1.39746 5.51779 0
M  V30 4445 N 436.212 -3.17666 4.85869 0
M  V30 4446 H 438.977 0.426968 2.96643 0
M  V30 4447 H 436.538 0.373747 1.57527 0
M  V30 4448 H 438.53 -2.04955 3.48963 0
M  V30 4449 H 437.1 -1.96572 2.4306 0
M  V30 4450 H 436.32 0.00769287 3.94199 0
M  V30 4451 H 437.608 -0.457548 5.06739 0
M  V30 4452 H 437.006 -3.56609 4.39143 0
M  V30 4453 H 435.563 -3.80334 5.29329 0
M  V30 4454 N 438.996 -1.55193 0.274407 0
M  V30 4455 C 440.242 -1.99877 -0.343086 0
M  V30 4456 C 440.575 -1.16256 -1.55558 0
M  V30 4457 O 439.85 -0.232462 -1.93106 0
M  V30 4458 C 440.133 -3.52706 -0.725965 0
M  V30 4459 C 439.986 -4.47081 0.493818 0
M  V30 4460 C 441.305 -4.11422 -1.56268 0
M  V30 4461 H 438.424 -0.726625 -0.123229 0
M  V30 4462 H 441.066 -1.86136 0.38121 0
M  V30 4463 H 439.216 -3.64546 -1.34307 0
M  V30 4464 H 440.888 -4.47186 1.13237 0
M  V30 4465 H 439.131 -4.1877 1.13201 0
M  V30 4466 H 439.802 -5.51699 0.18217 0
M  V30 4467 H 442.278 -4.02855 -1.04151 0
M  V30 4468 H 441.154 -5.18568 -1.79939 0
M  V30 4469 H 441.415 -3.61607 -2.54348 0
M  V30 4470 N 440.474 -0.00167713 -1.576 0
M  V30 4471 C 441.699 0.69739 -1.95323 0
M  V30 4472 C 442.124 1.6642 -0.876706 0
M  V30 4473 O 441.482 1.80548 0.165007 0
M  V30 4474 C 441.53 1.40403 -3.32144 0
M  V30 4475 O 440.634 2.5185 -3.26566 0
M  V30 4476 H 439.975 0.185373 -0.637599 0
M  V30 4477 H 442.505 -0.0553665 -2.04525 0
M  V30 4478 H 442.515 1.76707 -3.67748 0
M  V30 4479 H 441.19 0.695167 -4.10049 0
M  V30 4480 H 439.767 2.17861 -3.0264 0
M  V30 4481 N 441.952 1.55251 0.271103 0
M  V30 4482 C 443.199 1.75946 1.00245 0
M  V30 4483 C 443.527 0.561611 1.86215 0
M  V30 4484 O 442.782 -0.455832 1.90317 0
M  V30 4485 C 443.081 3.01879 1.91321 0
M  V30 4486 C 442.747 4.34337 1.21086 0
M  V30 4487 C 441.409 4.70338 1.01666 0
M  V30 4488 C 443.761 5.16325 0.71119 0
M  V30 4489 C 441.089 5.8588 0.310099 0
M  V30 4490 C 443.441 6.32597 0.0182157 0
M  V30 4491 C 442.105 6.67236 -0.18768 0
M  V30 4492 H 441.375 0.643833 0.366824 0
M  V30 4493 H 444.022 1.89521 0.27458 0
M  V30 4494 H 442.327 2.83212 2.70736 0
M  V30 4495 H 444.024 3.15088 2.48033 0
M  V30 4496 H 440.614 4.06043 1.37213 0
M  V30 4497 H 444.798 4.88987 0.848844 0
M  V30 4498 H 440.054 6.1124 0.139873 0
M  V30 4499 H 444.228 6.9538 -0.376711 0
M  V30 4500 H 441.855 7.56618 -0.73715 0
M  V30 4501 N 443.43 -0.535701 1.48216 0
M  V30 4502 C 444.393 -1.623 1.61838 0
M  V30 4503 C 445.393 -1.53087 0.492024 0
M  V30 4504 O 446.583 -1.5686 0.757668 0
M  V30 4505 C 443.715 -3.01907 1.58319 0
M  V30 4506 H 444.908 -1.51564 2.58783 0
M  V30 4507 H 442.461 -0.757317 1.36727 0
M  V30 4508 H 443.196 -3.18155 0.628299 0
M  V30 4509 H 442.981 -3.10003 2.40085 0
M  V30 4510 H 444.471 -3.80969 1.71033 0
M  V30 4511 N 444.908 -1.36708 -0.784132 0
M  V30 4512 C 446.185 -1.21776 -1.53069 0
M  V30 4513 C 446.565 0.193876 -2.10208 0
M  V30 4514 O 445.913 1.20012 -1.94446 0
M  V30 4515 C 446.123 -2.30395 -2.62143 0
M  V30 4516 C 447.471 -2.67325 -3.29882 0
M  V30 4517 O 448.495 -2.29478 -2.7243 0
M  V30 4518 O 447.354 -3.32485 -4.33724 0
M  V30 4519 H 444.448 -0.474459 -0.677361 0
M  V30 4520 H 446.994 -1.48454 -0.82216 0
M  V30 4521 H 445.766 -3.2498 -2.17953 0
M  V30 4522 H 445.389 -2.05112 -3.40609 0
M  V30 4523 N 446.386 1.0089 -1.21074 0
M  V30 4524 C 447.634 1.74262 -1.02358 0
M  V30 4525 C 447.955 1.89869 0.444393 0
M  V30 4526 O 447.225 1.44677 1.32081 0
M  V30 4527 H 445.805 0.645615 -0.375754 0
M  V30 4528 H 448.467 1.21596 -1.52317 0
M  V30 4529 H 447.563 2.74328 -1.4883 0
M  V30 4530 N 447.864 1.01787 1.20321 0
M  V30 4531 C 448.794 0.609625 2.25401 0
M  V30 4532 C 449.775 -0.375951 1.65893 0
M  V30 4533 O 450.96 -0.261101 1.92437 0
M  V30 4534 C 448.09 -0.0515995 3.47262 0
M  V30 4535 C 447.044 0.855095 4.19371 0
M  V30 4536 C 446.37 0.0595757 5.34667 0
M  V30 4537 C 447.67 2.16374 4.75373 0
M  V30 4538 H 449.364 1.48803 2.59804 0
M  V30 4539 H 446.91 0.716934 1.24884 0
M  V30 4540 H 448.863 -0.348764 4.19954 0
M  V30 4541 H 447.587 -0.964726 3.12027 0
M  V30 4542 H 446.246 1.13628 3.48546 0
M  V30 4543 H 445.894 -0.85524 4.95676 0
M  V30 4544 H 445.594 0.663406 5.83843 0
M  V30 4545 H 447.118 -0.231105 6.10162 0
M  V30 4546 H 448.532 1.92885 5.39878 0
M  V30 4547 H 446.929 2.71853 5.34991 0
M  V30 4548 H 447.999 2.82589 3.94045 0
M  V30 4549 N 449.342 -1.36122 0.79427 0
M  V30 4550 C 450.305 -2.28309 0.201889 0
M  V30 4551 C 451.305 -1.49041 -0.603603 0
M  V30 4552 O 452.495 -1.68964 -0.423888 0
M  V30 4553 C 449.627 -3.3321 -0.719978 0
M  V30 4554 H 450.82 -2.82208 1.01481 0
M  V30 4555 H 448.373 -1.45768 0.564037 0
M  V30 4556 H 449.108 -2.84475 -1.55706 0
M  V30 4557 H 448.893 -3.91835 -0.144266 0
M  V30 4558 H 450.383 -4.02044 -1.12916 0
M  V30 4559 N 450.82 -0.546701 -1.47814 0
M  V30 4560 C 452.236 -0.205717 -1.58269 0
M  V30 4561 C 452.436 1.29153 -1.54667 0
M  V30 4562 O 451.492 2.07098 -1.44453 0
M  V30 4563 C 452.805 -0.823065 -2.89216 0
M  V30 4564 C 454.353 -0.793328 -3.02779 0
M  V30 4565 C 454.828 -1.38955 -4.36412 0
M  V30 4566 N 456.319 -1.35227 -4.43021 0
M  V30 4567 C 457.054 -1.78333 -5.44963 0
M  V30 4568 N 456.55 -2.29246 -6.53772 0
M  V30 4569 N 458.343 -1.69467 -5.35945 0
M  V30 4570 H 450.494 -1.5196 -1.48398 0
M  V30 4571 H 452.757 -0.633078 -0.705632 0
M  V30 4572 H 452.463 -1.8749 -2.97558 0
M  V30 4573 H 452.337 -0.309915 -3.75925 0
M  V30 4574 H 454.724 0.249784 -2.94041 0
M  V30 4575 H 454.805 -1.34412 -2.17639 0
M  V30 4576 H 454.449 -2.43168 -4.45906 0
M  V30 4577 H 454.379 -0.814291 -5.20266 0
M  V30 4578 H 456.87 -0.979739 -3.64979 0
M  V30 4579 H 457.183 -2.60089 -7.27718 0
M  V30 4580 H 455.528 -2.3325 -6.5469 0
M  V30 4581 H 458.719 -1.29477 -4.49837 0
M  V30 4582 H 458.892 -2.03381 -6.15256 0
M  V30 4583 N 452.299 1.55045 -0.282633 0
M  V30 4584 C 453.527 2.04168 0.33512 0
M  V30 4585 C 453.942 1.16071 1.48906 0
M  V30 4586 O 453.299 0.182391 1.81586 0
M  V30 4587 C 453.35 3.52332 0.808957 0
M  V30 4588 O 453.071 4.37078 -0.299038 0
M  V30 4589 C 454.572 4.17375 1.49375 0
M  V30 4590 H 451.792 0.666744 0.0754543 0
M  V30 4591 H 454.336 2.00205 -0.416918 0
M  V30 4592 H 452.491 3.56715 1.51106 0
M  V30 4593 H 452.905 5.24458 0.0665514 0
M  V30 4594 H 454.379 5.22627 1.77664 0
M  V30 4595 H 454.856 3.65999 2.42778 0
M  V30 4596 H 455.462 4.17016 0.835305 0
M  V30 4597 N 453.777 0.010035 1.57597 0
M  V30 4598 C 455.023 -0.673697 1.91283 0
M  V30 4599 C 455.356 -1.72863 0.884979 0
M  V30 4600 O 454.631 -1.94268 -0.0949487 0
M  V30 4601 C 454.914 -1.30766 3.35518 0
M  V30 4602 C 454.767 -0.263578 4.49027 0
M  V30 4603 C 456.086 -2.23105 3.79358 0
M  V30 4604 H 453.205 -0.243439 0.695634 0
M  V30 4605 H 455.847 0.0633864 1.89894 0
M  V30 4606 H 453.997 -1.93588 3.36832 0
M  V30 4607 H 455.669 0.365738 4.59848 0
M  V30 4608 H 453.912 0.413077 4.31829 0
M  V30 4609 H 454.583 -0.746398 5.4693 0
M  V30 4610 H 457.059 -1.70289 3.79659 0
M  V30 4611 H 455.935 -2.64424 4.81011 0
M  V30 4612 H 456.196 -3.11433 3.13787 0
M  V30 4613 N 455.255 -1.55392 -0.262866 0
M  V30 4614 C 456.671 -1.47459 -0.610582 0
M  V30 4615 C 456.871 -0.697031 -1.8906 0
M  V30 4616 O 455.927 -0.219952 -2.5154 0
M  V30 4617 C 457.24 -2.91751 -0.728131 0
M  V30 4618 C 458.788 -3.02027 -0.821517 0
M  V30 4619 C 459.263 -4.47594 -0.97076 0
M  V30 4620 N 460.754 -4.51465 -1.03603 0
M  V30 4621 C 461.489 -5.61326 -1.17049 0
M  V30 4622 N 460.985 -6.81032 -1.2715 0
M  V30 4623 N 462.778 -5.49089 -1.20239 0
M  V30 4624 H 454.929 -2.04395 0.577632 0
M  V30 4625 H 457.192 -0.927287 0.197086 0
M  V30 4626 H 456.898 -3.51413 0.142132 0
M  V30 4627 H 456.772 -3.4134 -1.6052 0
M  V30 4628 H 459.159 -2.42456 -1.68224 0
M  V30 4629 H 459.24 -2.55674 0.0803688 0
M  V30 4630 H 458.884 -5.07771 -0.114655 0
M  V30 4631 H 458.814 -4.91613 -1.88745 0
M  V30 4632 H 461.305 -3.6524 -0.96996 0
M  V30 4633 H 461.618 -7.60511 -1.37271 0
M  V30 4634 H 459.963 -6.83824 -1.24136 0
M  V30 4635 H 463.154 -4.54507 -1.11985 0
M  V30 4636 H 463.327 -6.34749 -1.30373 0
M  V30 4637 N 456.733 0.527833 -1.48498 0
M  V30 4638 C 457.979 1.28295 -1.57836 0
M  V30 4639 C 458.334 1.9077 -0.249943 0
M  V30 4640 O 457.627 1.76421 0.747402 0
M  V30 4641 C 457.821 2.39275 -2.65485 0
M  V30 4642 C 457.65 1.87679 -4.08664 0
M  V30 4643 C 456.42 1.70187 -4.75778 0
M  V30 4644 C 458.618 1.40409 -4.94762 0
M  V30 4645 N 456.6 1.13238 -6.03366 0
M  V30 4646 C 457.971 0.954216 -6.12613 0
M  V30 4647 C 460.026 1.28732 -4.8097 0
M  V30 4648 C 458.729 0.39915 -7.18192 0
M  V30 4649 C 460.755 0.746244 -5.86673 0
M  V30 4650 C 460.117 0.306457 -7.03733 0
M  V30 4651 H 456.216 0.460408 -0.632099 0
M  V30 4652 H 458.8 0.594913 -1.85388 0
M  V30 4653 H 456.971 3.05572 -2.3975 0
M  V30 4654 H 458.703 3.06308 -2.64495 0
M  V30 4655 H 455.458 1.93772 -4.32145 0
M  V30 4656 H 455.882 0.867687 -6.71417 0
M  V30 4657 H 460.524 1.61338 -3.90807 0
M  V30 4658 H 458.242 0.0607678 -8.08077 0
M  V30 4659 H 461.828 0.659041 -5.78055 0
M  V30 4660 H 460.708 -0.105708 -7.84129 0
M  V30 4661 N 458.211 1.37122 0.776871 0
M  V30 4662 C 459.441 1.35034 1.56363 0
M  V30 4663 C 459.849 -0.0674681 1.8908 0
M  V30 4664 O 459.192 -1.03826 1.51545 0
M  V30 4665 C 459.254 2.11894 2.90415 0
M  V30 4666 C 458.918 3.60897 2.80362 0
M  V30 4667 C 459.915 4.54887 2.51742 0
M  V30 4668 C 457.6 4.03951 2.98545 0
M  V30 4669 C 459.594 5.89909 2.41426 0
M  V30 4670 C 457.281 5.3906 2.87849 0
M  V30 4671 C 458.279 6.31852 2.5933 0
M  V30 4672 O 457.967 7.64479 2.48651 0
M  V30 4673 H 457.699 0.464402 0.49123 0
M  V30 4674 H 460.253 1.80992 0.971127 0
M  V30 4675 H 458.483 1.60618 3.51765 0
M  V30 4676 H 460.172 2.02505 3.51776 0
M  V30 4677 H 460.938 4.22934 2.37385 0
M  V30 4678 H 456.817 3.3209 3.19746 0
M  V30 4679 H 460.361 6.62304 2.19086 0
M  V30 4680 H 456.258 5.70617 3.01773 0
M  V30 4681 H 457.026 7.74742 2.64039 0
M  V30 4682 N 459.689 -1.00246 1.21608 0
M  V30 4683 C 461.105 -1.26435 0.973975 0
M  V30 4684 C 461.305 -1.98642 -0.338143 0
M  V30 4685 O 460.361 -2.29026 -1.06317 0
M  V30 4686 C 461.674 -2.08551 2.16626 0
M  V30 4687 C 463.222 -2.21769 2.20879 0
M  V30 4688 C 463.697 -3.07267 3.39633 0
M  V30 4689 N 465.188 -3.14855 3.39736 0
M  V30 4690 C 465.923 -3.81274 4.28273 0
M  V30 4691 N 465.419 -4.497 5.27012 0
M  V30 4692 N 467.212 -3.7794 4.16074 0
M  V30 4693 H 459.363 -0.518089 2.05984 0
M  V30 4694 H 461.626 -0.291368 0.902113 0
M  V30 4695 H 461.332 -1.62847 3.11727 0
M  V30 4696 H 461.206 -3.09303 2.15897 0
M  V30 4697 H 463.593 -2.66691 1.26332 0
M  V30 4698 H 463.674 -1.20478 2.25652 0
M  V30 4699 H 463.318 -2.63047 4.34475 0
M  V30 4700 H 463.248 -4.08678 3.321 0
M  V30 4701 H 465.739 -2.66147 2.6828 0
M  V30 4702 H 466.052 -4.98092 5.90867 0
M  V30 4703 H 464.397 -4.48479 5.30935 0
M  V30 4704 H 467.588 -3.23638 3.38195 0
M  V30 4705 H 467.761 -4.29424 4.85282 0
M  V30 4706 N 461.167 -1.02423 -1.1978 0
M  V30 4707 C 462.077 -0.610919 -2.26506 0
M  V30 4708 C 463.093 0.355152 -1.70337 0
M  V30 4709 O 464.269 0.214195 -2.00258 0
M  V30 4710 C 461.334 0.0365921 -3.46681 0
M  V30 4711 C 460.395 -0.976389 -4.18049 0
M  V30 4712 C 459.628 -0.359683 -5.32487 0
M  V30 4713 O 459.851 0.838601 -5.64202 0
M  V30 4714 O 458.785 -1.08022 -5.92127 0
M  V30 4715 H 462.611 -1.49965 -2.64091 0
M  V30 4716 H 460.196 -0.794156 -1.26545 0
M  V30 4717 H 462.078 0.39786 -4.19518 0
M  V30 4718 H 460.753 0.899398 -3.10954 0
M  V30 4719 H 459.66 -1.38916 -3.47352 0
M  V30 4720 H 460.993 -1.80941 -4.57735 0
M  V30 4721 N 462.645 1.35699 -0.801477 0
M  V30 4722 C 463.593 2.3177 -0.196317 0
M  V30 4723 C 464.587 1.56388 0.651081 0
M  V30 4724 O 465.793 1.71557 0.544815 0
M  V30 4725 H 462.168 0.750669 -0.0447189 0
M  V30 4726 H 464.139 2.8036 -1.02181 0
M  V30 4727 C 462.888 3.41671 0.644702 0
M  V30 4728 H 462.211 3.998 0.0019921 0
M  V30 4729 H 463.651 4.11184 1.0346 0
M  V30 4730 C 462.11 2.84271 1.80808 0
M  V30 4731 O 462.64 2.77408 2.9053 0
M  V30 4732 N 460.846 2.41391 1.61799 0
M  V30 4733 H 460.393 2.47173 0.725493 0
M  V30 4734 H 460.351 2.03334 2.39797 0
M  V30 4735 N 464.123 0.554532 1.47522 0
M  V30 4736 C 465.539 0.214107 1.58157 0
M  V30 4737 C 465.739 -1.28331 1.55349 0
M  V30 4738 O 464.795 -2.06329 1.45549 0
M  V30 4739 C 466.108 0.838391 2.88776 0
M  V30 4740 C 467.656 0.809374 3.02354 0
M  V30 4741 C 468.131 1.41268 4.35669 0
M  V30 4742 N 469.622 1.37574 4.42298 0
M  V30 4743 C 470.357 1.8122 5.4401 0
M  V30 4744 N 469.853 2.3271 6.52547 0
M  V30 4745 N 471.646 1.72307 5.35039 0
M  V30 4746 H 463.797 1.52744 1.4759 0
M  V30 4747 H 466.06 0.636812 0.702264 0
M  V30 4748 H 465.766 1.89065 2.96559 0
M  V30 4749 H 465.64 0.329847 3.75755 0
M  V30 4750 H 468.027 -0.234187 2.94169 0
M  V30 4751 H 468.108 1.35565 2.16924 0
M  V30 4752 H 467.752 2.45529 4.4461 0
M  V30 4753 H 467.682 0.841871 5.19827 0
M  V30 4754 H 470.173 0.999081 3.64454 0
M  V30 4755 H 470.486 2.63944 7.26329 0
M  V30 4756 H 468.831 2.36719 6.53444 0
M  V30 4757 H 472.022 1.3186 4.49144 0
M  V30 4758 H 472.195 2.06641 6.14169 0
M  V30 4759 N 465.601 -1.54893 0.290851 0
M  V30 4760 C 466.849 -1.99538 -0.320756 0
M  V30 4761 C 467.17 -1.18075 -1.55188 0
M  V30 4762 O 466.44 -0.274162 -1.93972 0
M  V30 4763 H 465.02 -0.737052 -0.121507 0
M  V30 4764 H 467.682 -1.90755 0.399832 0
M  V30 4765 H 466.778 -3.06282 -0.599802 0
M  V30 4766 N 467.08 -0.0183926 -1.57589 0
M  V30 4767 C 468.326 0.657813 -1.92469 0
M  V30 4768 C 468.681 1.70349 -0.894375 0
M  V30 4769 O 467.974 1.91384 0.0910389 0
M  V30 4770 C 468.168 1.32676 -3.31861 0
M  V30 4771 C 467.997 0.347403 -4.48356 0
M  V30 4772 C 466.767 -0.0488653 -5.05276 0
M  V30 4773 C 468.965 -0.393931 -5.12789 0
M  V30 4774 N 466.947 -1.02451 -6.05291 0
M  V30 4775 C 468.318 -1.22367 -6.07804 0
M  V30 4776 C 470.373 -0.455789 -4.95809 0
M  V30 4777 C 469.076 -2.10966 -6.87667 0
M  V30 4778 C 471.102 -1.32908 -5.76272 0
M  V30 4779 C 470.464 -2.14662 -6.70894 0
M  V30 4780 H 466.563 0.21335 -0.752334 0
M  V30 4781 H 469.147 -0.0830547 -1.94523 0
M  V30 4782 H 467.318 2.03782 -3.30647 0
M  V30 4783 H 469.05 1.95913 -3.54119 0
M  V30 4784 H 465.805 0.323356 -4.72495 0
M  V30 4785 H 466.229 -1.50826 -6.59985 0
M  V30 4786 H 470.871 0.162017 -4.22489 0
M  V30 4787 H 468.589 -2.73807 -7.603 0
M  V30 4788 H 472.175 -1.38109 -5.6517 0
M  V30 4789 H 471.055 -2.81143 -7.32071 0
M  V30 4790 N 468.558 1.5553 0.254621 0
M  V30 4791 C 469.804 1.7818 0.980989 0
M  V30 4792 C 470.159 0.586059 1.83257 0
M  V30 4793 O 469.452 -0.420889 1.8692 0
M  V30 4794 C 469.646 3.03891 1.88109 0
M  V30 4795 C 469.475 4.35578 1.11812 0
M  V30 4796 C 468.245 4.98497 0.826343 0
M  V30 4797 C 470.443 5.11869 0.499486 0
M  V30 4798 N 468.425 6.13888 0.0385095 0
M  V30 4799 C 469.796 6.1981 -0.153292 0
M  V30 4800 C 471.851 4.96216 0.409175 0
M  V30 4801 C 470.554 7.13801 -0.8877 0
M  V30 4802 C 472.58 5.90578 -0.311683 0
M  V30 4803 C 471.942 6.97922 -0.953129 0
M  V30 4804 H 468.041 0.704057 0.340335 0
M  V30 4805 H 470.625 1.93025 0.254855 0
M  V30 4806 H 468.796 2.90389 2.57932 0
M  V30 4807 H 470.528 3.14869 2.54244 0
M  V30 4808 H 467.283 4.59769 1.13621 0
M  V30 4809 H 467.707 6.76129 -0.343275 0
M  V30 4810 H 472.349 4.1331 0.890765 0
M  V30 4811 H 470.067 7.96214 -1.38092 0
M  V30 4812 H 473.653 5.80544 -0.382125 0
M  V30 4813 H 472.533 7.69681 -1.50203 0
M  V30 4814 N 470.036 -0.519951 1.48776 0
M  V30 4815 C 470.946 -1.65025 1.66745 0
M  V30 4816 C 471.962 -1.6508 0.549954 0
M  V30 4817 O 473.138 -1.83848 0.822295 0
M  V30 4818 C 470.203 -3.0146 1.71238 0
M  V30 4819 C 469.264 -3.12182 2.94688 0
M  V30 4820 C 468.497 -4.42109 2.98958 0
M  V30 4821 O 468.72 -5.29799 2.1135 0
M  V30 4822 O 467.654 -4.57406 3.91233 0
M  V30 4823 H 471.48 -1.52801 2.62461 0
M  V30 4824 H 469.065 -0.694157 1.32294 0
M  V30 4825 H 470.947 -3.82584 1.76657 0
M  V30 4826 H 469.622 -3.13988 0.786975 0
M  V30 4827 H 468.529 -2.30316 2.94797 0
M  V30 4828 H 469.862 -3.04574 3.86646 0
M  V30 4829 N 471.514 -1.37532 -0.769588 0
M  V30 4830 C 472.925 -1.29382 -1.346 0
M  V30 4831 C 473.276 0.0576039 -1.96115 0
M  V30 4832 O 472.401 0.95947 -1.93967 0
M  V30 4833 C 472.996 -2.34298 -2.44724 0
M  V30 4834 C 471.555 -2.29776 -2.98128 0
M  V30 4835 C 470.702 -2.18013 -1.71364 0
M  V30 4836 H 473.653 -1.48123 -0.56968 0
M  V30 4837 H 473.674 -1.99089 -3.24259 0
M  V30 4838 H 473.186 -3.32645 -1.99922 0
M  V30 4839 H 471.287 -1.34959 -3.47299 0
M  V30 4840 H 471.4 -3.23276 -3.53595 0
M  V30 4841 H 469.764 -1.64595 -1.94372 0
M  V30 4842 H 470.547 -3.18278 -1.28662 0
M  V30 4843 N 472.992 0.995999 -1.22138 0
M  V30 4844 C 473.922 2.10387 -1.01289 0
M  V30 4845 C 474.903 1.69975 0.0651454 0
M  V30 4846 O 476.088 1.9396 -0.0964628 0
M  V30 4847 C 473.218 3.42312 -0.586517 0
M  V30 4848 C 472.172 3.96558 -1.61014 0
M  V30 4849 C 471.498 5.24494 -1.0397 0
M  V30 4850 C 472.798 4.27595 -2.99933 0
M  V30 4851 H 474.492 2.28086 -1.93951 0
M  V30 4852 H 472.038 1.09607 -0.933928 0
M  V30 4853 H 473.991 4.19223 -0.427793 0
M  V30 4854 H 472.715 3.24431 0.375761 0
M  V30 4855 H 471.374 3.21776 -1.75658 0
M  V30 4856 H 471.022 5.02953 -0.0688703 0
M  V30 4857 H 470.722 5.61755 -1.72352 0
M  V30 4858 H 472.246 6.04042 -0.892494 0
M  V30 4859 H 473.66 4.95315 -2.8868 0
M  V30 4860 H 472.057 4.76021 -3.6541 0
M  V30 4861 H 473.127 3.35498 -3.50099 0
M  V30 4862 N 474.47 1.03057 1.19235 0
M  V30 4863 C 475.417 0.612832 2.22515 0
M  V30 4864 C 476.387 -0.374224 1.61829 0
M  V30 4865 O 477.572 -0.270501 1.88873 0
M  V30 4866 C 474.712 -0.028475 3.45088 0
M  V30 4867 C 473.825 1.00483 4.20151 0
M  V30 4868 C 472.96 0.333102 5.30155 0
M  V30 4869 C 471.999 1.3522 5.96977 0
M  V30 4870 N 471.136 0.70616 6.9854 0
M  V30 4871 H 475.976 1.49812 2.57605 0
M  V30 4872 H 473.513 0.749658 1.26564 0
M  V30 4873 H 475.471 -0.417548 4.15105 0
M  V30 4874 H 474.101 -0.877334 3.10649 0
M  V30 4875 H 473.153 1.51194 3.49062 0
M  V30 4876 H 474.465 1.77929 4.65986 0
M  V30 4877 H 473.619 -0.110725 6.06599 0
M  V30 4878 H 472.358 -0.473547 4.85396 0
M  V30 4879 H 471.363 1.80627 5.19282 0
M  V30 4880 H 472.588 2.16037 6.4382 0
M  V30 4881 H 470.534 -0.0803667 6.55951 0
M  V30 4882 H 470.451 1.41848 7.42573 0
M  V30 4883 H 471.719 0.286391 7.78974 0
M  V30 4884 N 475.948 -1.35272 0.808662 0
M  V30 4885 C 476.911 -2.28082 0.226093 0
M  V30 4886 C 477.911 -1.49673 -0.587762 0
M  V30 4887 O 479.101 -1.69404 -0.405943 0
M  V30 4888 C 476.233 -3.33955 -0.684596 0
M  V30 4889 H 477.426 -2.81116 1.04469 0
M  V30 4890 H 474.979 -1.45162 0.579466 0
M  V30 4891 H 475.714 -2.86111 -1.5268 0
M  V30 4892 H 475.499 -3.91965 -0.102699 0
M  V30 4893 H 476.989 -4.03219 -1.08646 0
M  V30 4894 N 477.426 -0.562348 -1.47226 0
M  V30 4895 C 478.654 -0.0452275 -2.06851 0
M  V30 4896 C 479.069 1.25078 -1.41424 0
M  V30 4897 O 478.426 1.75156 -0.512513 0
M  V30 4898 C 478.477 0.148674 -3.61194 0
M  V30 4899 O 478.198 -1.09602 -4.24169 0
M  V30 4900 C 479.699 0.702488 -4.37699 0
M  V30 4901 H 476.919 -0.0481775 -0.669268 0
M  V30 4902 H 479.463 -0.777223 -1.89155 0
M  V30 4903 H 477.618 0.830817 -3.78386 0
M  V30 4904 H 478.032 -0.896982 -5.16773 0
M  V30 4905 H 479.506 0.78743 -5.46355 0
M  V30 4906 H 479.983 1.71493 -4.04335 0
M  V30 4907 H 480.589 0.0558772 -4.25263 0
M  V30 4908 N 478.904 1.54736 -0.299062 0
M  V30 4909 C 479.867 2.22127 0.565012 0
M  V30 4910 C 480.867 1.20669 1.06281 0
M  V30 4911 O 482.057 1.45417 0.959145 0
M  V30 4912 C 479.189 2.90611 1.78208 0
M  V30 4913 H 480.382 2.99891 -0.0237448 0
M  V30 4914 H 477.935 1.5622 -0.0498788 0
M  V30 4915 H 478.67 2.16921 2.41072 0
M  V30 4916 H 478.455 3.64984 1.43281 0
M  V30 4917 H 479.945 3.42026 2.396 0
M  V30 4918 N 480.382 0.0267497 1.57577 0
M  V30 4919 C 481.793 -0.512413 1.79531 0
M  V30 4920 C 482.144 -1.72391 0.936791 0
M  V30 4921 O 481.269 -2.15903 0.146543 0
M  V30 4922 C 481.864 -0.936378 3.25603 0
M  V30 4923 C 480.423 -1.42067 3.4856 0
M  V30 4924 C 479.57 -0.384278 2.74624 0
M  V30 4925 H 482.521 0.252797 1.56674 0
M  V30 4926 H 482.542 -1.80088 3.35184 0
M  V30 4927 H 482.054 -0.0544332 3.88062 0
M  V30 4928 H 480.155 -2.32262 2.9135 0
M  V30 4929 H 480.268 -1.42968 4.57271 0
M  V30 4930 H 478.632 -0.851855 2.40032 0
M  V30 4931 H 479.415 0.489159 3.39797 0
M  V30 4932 N 481.861 -1.55662 -0.24637 0
M  V30 4933 C 482.793 -1.86811 -1.32794 0
M  V30 4934 C 483.806 -0.754413 -1.44265 0
M  V30 4935 O 484.995 -1.03253 -1.45606 0
M  V30 4936 C 482.095 -2.0397 -2.70646 0
M  V30 4937 C 481.268 -3.34832 -2.81436 0
M  V30 4938 C 480.327 -3.41727 -4.00136 0
M  V30 4939 O 479.353 -4.14934 -3.89639 0
M  V30 4940 N 480.555 -2.71058 -5.1333 0
M  V30 4941 H 483.32 -2.80174 -1.06409 0
M  V30 4942 H 480.881 -1.55906 -0.43647 0
M  V30 4943 H 482.873 -2.05924 -3.48393 0
M  V30 4944 H 481.443 -1.1735 -2.89738 0
M  V30 4945 H 480.663 -3.4519 -1.90361 0
M  V30 4946 H 481.951 -4.21085 -2.85595 0
M  V30 4947 H 481.349 -2.11314 -5.2475 0
M  V30 4948 H 479.906 -2.78704 -5.89209 0
M  V30 4949 N 483.339 0.512053 -1.4905 0
M  V30 4950 C 484.269 1.62365 -1.67809 0
M  V30 4951 C 485.25 1.61737 -0.526809 0
M  V30 4952 O 486.435 1.78651 -0.761404 0
M  V30 4953 C 483.565 3.00895 -1.73435 0
M  V30 4954 C 482.519 3.16387 -2.88242 0
M  V30 4955 C 481.845 4.56157 -2.78971 0
M  V30 4956 C 483.145 2.97457 -4.29321 0
M  V30 4957 H 484.839 1.46921 -2.60873 0
M  V30 4958 H 482.385 0.705379 -1.2554 0
M  V30 4959 H 484.338 3.78549 -1.85145 0
M  V30 4960 H 483.062 3.17403 -0.769619 0
M  V30 4961 H 481.721 2.41155 -2.76116 0
M  V30 4962 H 481.369 4.69525 -1.8043 0
M  V30 4963 H 481.069 4.67465 -3.5602 0
M  V30 4964 H 482.593 5.35886 -2.92675 0
M  V30 4965 H 484.007 3.64888 -4.42187 0
M  V30 4966 H 482.404 3.20245 -5.07507 0
M  V30 4967 H 483.474 1.93692 -4.44535 0
M  V30 4968 N 484.817 1.37938 0.762283 0
M  V30 4969 C 486.228 1.30094 1.33912 0
M  V30 4970 C 486.579 -0.0472026 1.96143 0
M  V30 4971 O 485.704 -0.94917 1.94473 0
M  V30 4972 C 486.299 2.35592 2.43478 0
M  V30 4973 C 484.858 2.31353 2.96905 0
M  V30 4974 C 484.005 2.18919 1.70205 0
M  V30 4975 H 486.956 1.48423 0.561816 0
M  V30 4976 H 486.977 2.00806 3.23199 0
M  V30 4977 H 486.489 3.33701 1.98155 0
M  V30 4978 H 484.59 1.36799 3.46579 0
M  V30 4979 H 484.703 3.25147 3.51875 0
M  V30 4980 H 483.067 1.65624 1.93496 0
M  V30 4981 H 483.85 3.18956 1.26973 0
M  V30 4982 N 486.295 -0.989507 1.22664 0
M  V30 4983 C 487.258 -2.06183 1.00106 0
M  V30 4984 C 488.258 -1.60765 -0.0337726 0
M  V30 4985 O 489.448 -1.72989 0.205072 0
M  V30 4986 C 486.58 -3.37021 0.51279 0
M  V30 4987 H 487.773 -2.27629 1.95256 0
M  V30 4988 H 485.326 -1.16158 1.0458 0
M  V30 4989 H 486.061 -3.21261 -0.442917 0
M  V30 4990 H 485.846 -3.71323 1.25942 0
M  V30 4991 H 487.336 -4.1591 0.375315 0
M  V30 4992 N 487.773 -1.03688 -1.18687 0
M  V30 4993 C 489.001 -0.757918 -1.92518 0
M  V30 4994 C 489.416 0.684398 -1.75959 0
M  V30 4995 O 488.773 1.46617 -1.08673 0
M  V30 4996 C 488.824 -1.10985 -3.44042 0
M  V30 4997 O 488.545 -2.49554 -3.60076 0
M  V30 4998 C 490.046 -0.854844 -4.3498 0
M  V30 4999 H 487.266 -0.276699 -0.611293 0
M  V30 5000 H 489.81 -1.38352 -1.50595 0
M  V30 5001 H 487.965 -0.529279 -3.83767 0
M  V30 5002 H 488.379 -2.6291 -4.53849 0
M  V30 5003 H 489.853 -1.15098 -5.39867 0
M  V30 5004 H 490.33 0.210507 -4.38695 0
M  V30 5005 H 490.936 -1.41853 -4.00946 0
M  V30 5006 N 489.251 1.34841 -0.815825 0
M  V30 5007 C 490.214 2.27959 -0.238185 0
M  V30 5008 C 491.214 1.49983 0.579816 0
M  V30 5009 O 492.404 1.69617 0.396953 0
M  V30 5010 C 489.536 3.34314 0.666876 0
M  V30 5011 H 490.729 2.80558 -1.05958 0
M  V30 5012 H 488.282 1.44852 -0.587156 0
M  V30 5013 H 489.017 2.86916 1.5116 0
M  V30 5014 H 488.802 3.92014 0.0819106 0
M  V30 5015 H 490.292 4.0379 1.06506 0
M  V30 5016 N 490.729 0.570148 1.46925 0
M  V30 5017 C 491.975 0.0510284 2.02736 0
M  V30 5018 C 492.308 -1.3006 1.44215 0
M  V30 5019 O 491.583 -1.84932 0.602521 0
M  V30 5020 C 491.866 -0.028215 3.60089 0
M  V30 5021 C 491.719 1.35142 4.29018 0
M  V30 5022 C 493.038 -0.735181 4.33916 0
M  V30 5023 H 490.157 0.0200178 0.736728 0
M  V30 5024 H 492.799 0.73493 1.75211 0
M  V30 5025 H 490.949 -0.610648 3.83671 0
M  V30 5026 H 492.621 1.97806 4.16738 0
M  V30 5027 H 490.864 1.9226 3.88868 0
M  V30 5028 H 491.535 1.24857 5.37694 0
M  V30 5029 H 494.011 -0.240519 4.15404 0
M  V30 5030 H 492.887 -0.759622 5.43618 0
M  V30 5031 H 493.148 -1.79397 4.04066 0
M  V30 5032 N 492.207 -1.54576 0.307264 0
M  V30 5033 C 493.117 -2.27435 -0.57536 0
M  V30 5034 C 494.133 -1.31183 -1.14311 0
M  V30 5035 O 495.309 -1.64175 -1.16656 0
M  V30 5036 C 492.374 -3.00566 -1.72803 0
M  V30 5037 C 491.435 -4.12369 -1.19373 0
M  V30 5038 C 490.668 -4.82003 -2.29147 0
M  V30 5039 O 490.891 -4.51038 -3.49171 0
M  V30 5040 O 489.825 -5.69271 -1.95485 0
M  V30 5041 H 493.651 -3.03696 0.0158558 0
M  V30 5042 H 491.236 -1.49219 0.0735064 0
M  V30 5043 H 493.118 -3.46416 -2.39946 0
M  V30 5044 H 491.793 -2.27195 -2.30574 0
M  V30 5045 H 490.7 -3.70905 -0.487851 0
M  V30 5046 H 492.033 -4.87736 -0.661376 0
M  V30 5047 N 493.685 -0.035106 -1.57561 0
M  V30 5048 C 494.931 0.64318 -1.92331 0
M  V30 5049 C 495.264 1.71434 -0.912368 0
M  V30 5050 O 494.539 1.94395 0.0640303 0
M  V30 5051 C 494.822 1.25411 -3.37556 0
M  V30 5052 C 494.675 0.192109 -4.4939 0
M  V30 5053 C 495.994 2.17041 -3.82859 0
M  V30 5054 H 493.113 0.232341 -0.699419 0
M  V30 5055 H 495.755 -0.0935889 -1.89769 0
M  V30 5056 H 493.905 1.88205 -3.39869 0
M  V30 5057 H 495.577 -0.438849 -4.59208 0
M  V30 5058 H 493.82 -0.481725 -4.31117 0
M  V30 5059 H 494.491 0.659292 -5.48049 0
M  V30 5060 H 496.967 1.64228 -3.8232 0
M  V30 5061 H 495.843 2.56738 -4.85157 0
M  V30 5062 H 496.104 3.06401 -3.18702 0
M  V30 5063 N 495.163 1.55791 0.238111 0
M  V30 5064 C 496.388 1.8244 0.986432 0
M  V30 5065 C 496.813 0.613314 1.7782 0
M  V30 5066 O 496.171 -0.437767 1.75935 0
M  V30 5067 C 496.219 3.06917 1.893 0
M  V30 5068 O 495.323 2.84449 2.98601 0
M  V30 5069 H 494.664 0.601975 0.280218 0
M  V30 5070 H 497.194 2.02987 0.256437 0
M  V30 5071 H 497.204 3.36583 2.30598 0
M  V30 5072 H 495.879 3.947 1.31091 0
M  V30 5073 H 494.456 2.65972 2.61368 0
M  V30 5074 N 496.642 -0.504142 1.49319 0
M  V30 5075 C 497.605 -1.5883 1.65244 0
M  V30 5076 C 498.605 -1.52009 0.524386 0
M  V30 5077 O 499.795 -1.55218 0.79077 0
M  V30 5078 C 496.927 -2.98481 1.64687 0
M  V30 5079 H 498.12 -1.4604 2.61939 0
M  V30 5080 H 495.673 -0.728144 1.38303 0
M  V30 5081 H 496.408 -3.16751 0.695644 0
M  V30 5082 H 496.193 -3.0484 2.46607 0
M  V30 5083 H 497.683 -3.77256 1.79075 0
M  V30 5084 O 498.159 -1.47868 -0.649398 0
M  V30 5085 H 498.85 -1.43327 -1.30297 0
M  V30 END ATOM
M  V30 BEGIN BOND
M  V30 END BOND
M  V30 END CTAB
M  END
$$$$
