drugbank_target|Q9ZIV5 Malonamidase E2 (DB02153; DB02175; DB02649)
 OpenBabel12092120243D

  0  0  0     0  0            999 V3000
M  V30 BEGIN CTAB
M  V30 COUNTS 6154 6218 0 0 0
M  V30 BEGIN ATOM
M  V30 1 H -0.908 1.98254 -0.117106 0
M  V30 2 N 0 1.576 0 0
M  V30 3 C 0.933 2.03868 1.02534 0
M  V30 4 C 1.911 0.928543 1.3348 0
M  V30 5 O 3.095 1.19667 1.45644 0
M  V30 6 C 0.222 2.43627 2.35294 0
M  V30 7 C -0.732 3.65373 2.2001 0
M  V30 8 S 0.101 5.13292 1.52614 0
M  V30 9 C 1.257 5.56322 2.86805 0
M  V30 10 H 1.49 2.90518 0.631377 0
M  V30 11 H -0.977 1.52953 0.210867 0
M  V30 12 H 0.981 2.67203 3.11629 0
M  V30 13 H -0.358 1.57376 2.7183 0
M  V30 14 H -1.165 3.90944 3.18086 0
M  V30 15 H -1.563 3.418 1.51819 0
M  V30 16 H 0.729 5.58782 3.83104 0
M  V30 17 H 1.672 6.56266 2.65933 0
M  V30 18 H 2.08 4.83886 2.90714 0
M  V30 19 N 1.4781 -0.272755 1.55222 0
M  V30 20 C 2.7271 -1.00211 1.75045 0
M  V30 21 C 3.0401 -1.87441 0.559046 0
M  V30 22 O 4.2461 -2.63856 0.639698 0
M  V30 23 C 2.7021 -1.83165 3.09804 0
M  V30 24 C 2.3101 -1.008 4.36513 0
M  V30 25 C 4.0541 -2.55529 3.38977 0
M  V30 26 C 1.9611 -1.83194 5.62311 0
M  V30 27 H 0.8911 -0.377878 0.652476 0
M  V30 28 H 3.5421 -0.257776 1.8168 0
M  V30 29 H 1.9241 -2.61694 2.97207 0
M  V30 30 H 3.0981 -0.266855 4.60027 0
M  V30 31 H 1.4131 -0.398897 4.14485 0
M  V30 32 H 4.0101 -3.17578 4.30172 0
M  V30 33 H 4.3531 -3.25825 2.59121 0
M  V30 34 H 4.8861 -1.84029 3.52673 0
M  V30 35 H 1.6251 -1.17318 6.44916 0
M  V30 36 H 1.1451 -2.54905 5.4294 0
M  V30 37 H 2.8241 -2.40552 6.00619 0
M  V30 38 N 2.9562 -1.48159 -0.537278 0
M  V30 39 C 4.1812 -1.59707 -1.32319 0
M  V30 40 C 4.6062 -0.254859 -1.86365 0
M  V30 41 O 3.9642 0.772378 -1.64024 0
M  V30 42 C 4.0122 -2.6412 -2.45505 0
M  V30 43 O 3.1162 -2.20774 -3.48328 0
M  V30 44 H 2.4572 -0.535791 -0.392204 0
M  V30 45 H 4.9872 -1.94092 -0.647268 0
M  V30 46 H 4.9972 -2.85166 -2.91795 0
M  V30 47 H 3.6722 -3.61567 -2.05528 0
M  V30 48 H 2.2492 -2.09911 -3.08207 0
M  V30 49 N 4.4343 0.785586 -1.36625 0
M  V30 50 C 5.3643 1.91259 -1.33949 0
M  V30 51 C 6.3453 1.68795 -0.210325 0
M  V30 52 O 7.5303 1.89854 -0.408561 0
M  V30 53 C 4.6603 3.28339 -1.13186 0
M  V30 54 C 3.6143 3.65335 -2.22967 0
M  V30 55 C 2.9403 5.00806 -1.87342 0
M  V30 56 C 4.2403 3.7352 -3.65075 0
M  V30 57 H 5.9343 1.93755 -2.28253 0
M  V30 58 H 3.4803 0.930788 -1.09874 0
M  V30 59 H 5.4333 4.06804 -1.09948 0
M  V30 60 H 4.1573 3.2624 -0.153332 0
M  V30 61 H 2.8163 2.89169 -2.25337 0
M  V30 62 H 2.4643 4.95233 -0.880545 0
M  V30 63 H 2.1643 5.26529 -2.60846 0
M  V30 64 H 3.6883 5.81687 -1.85667 0
M  V30 65 H 5.1023 4.42168 -3.64911 0
M  V30 66 H 3.4993 4.10731 -4.37516 0
M  V30 67 H 4.5693 2.74527 -3.99703 0
M  V30 68 N 5.9124 1.20967 1.01018 0
M  V30 69 C 6.8754 0.965918 2.07853 0
M  V30 70 C 7.8754 -0.0610545 1.60684 0
M  V30 71 O 9.0654 0.175681 1.73312 0
M  V30 72 C 6.1974 0.455513 3.37843 0
M  V30 73 H 7.3904 1.91365 2.3091 0
M  V30 74 H 4.9434 1.02594 1.17916 0
M  V30 75 H 5.6784 -0.497381 3.20463 0
M  V30 76 H 5.4634 1.19622 3.73407 0
M  V30 77 H 6.9534 0.304667 4.16487 0
M  V30 78 N 7.3905 -1.2043 1.01659 0
M  V30 79 C 8.6675 -1.8548 0.621004 0
M  V30 80 C 9.0475 -1.9091 -0.900919 0
M  V30 81 O 8.3955 -1.41694 -1.79263 0
M  V30 82 C 8.6055 -3.25119 1.2688 0
M  V30 83 C 9.9535 -4.01403 1.38423 0
M  V30 84 O 10.9775 -3.34473 1.22501 0
M  V30 85 O 9.8365 -5.21265 1.64151 0
M  V30 86 H 6.9305 -0.798761 0.214266 0
M  V30 87 H 9.4765 -1.28019 1.11396 0
M  V30 88 H 8.2485 -3.15932 2.30873 0
M  V30 89 H 7.8715 -3.90212 0.762917 0
M  V30 90 N 8.8686 -0.792821 -1.36206 0
M  V30 91 C 9.7986 -0.207853 -2.32573 0
M  V30 92 C 10.7796 0.659055 -1.56813 0
M  V30 93 O 11.9646 0.592176 -1.84951 0
M  V30 94 C 9.0946 0.655449 -3.41059 0
M  V30 95 C 8.0486 -0.111842 -4.27854 0
M  V30 96 C 7.3746 0.872274 -5.27537 0
M  V30 97 C 8.6746 -1.30299 -5.05786 0
M  V30 98 H 10.3686 -1.01294 -2.81744 0
M  V30 99 H 7.9146 -0.48854 -1.3546 0
M  V30 100 H 9.8676 1.07464 -4.07467 0
M  V30 101 H 8.5916 1.49328 -2.90463 0
M  V30 102 H 7.2506 -0.512053 -3.63006 0
M  V30 103 H 6.8986 1.70523 -4.73214 0
M  V30 104 H 6.5986 0.363291 -5.86476 0
M  V30 105 H 8.1226 1.28996 -5.96818 0
M  V30 106 H 9.5366 -0.959379 -5.65216 0
M  V30 107 H 7.9336 -1.7455 -5.74154 0
M  V30 108 H 9.0036 -2.09663 -4.37229 0
M  V30 109 N 10.3467 1.47872 -0.545128 0
M  V30 110 C 11.2787 2.27869 0.246621 0
M  V30 111 C 12.2917 1.36282 0.890561 0
M  V30 112 O 13.4807 1.61207 0.766449 0
M  V30 113 C 10.5807 3.10159 1.36582 0
M  V30 114 C 9.7537 4.29627 0.820954 0
M  V30 115 C 8.8127 4.93607 1.82314 0
M  V30 116 O 7.8387 5.52366 1.37406 0
M  V30 117 N 9.0407 4.87211 3.15603 0
M  V30 118 H 11.8057 2.96459 -0.439539 0
M  V30 119 H 9.3667 1.57367 -0.380421 0
M  V30 120 H 11.3587 3.49829 2.03474 0
M  V30 121 H 9.9287 2.43891 1.9554 0
M  V30 122 H 9.1487 3.94192 -0.0244032 0
M  V30 123 H 10.4367 5.06928 0.436063 0
M  V30 124 H 9.8347 4.40651 3.54744 0
M  V30 125 H 8.3917 5.30937 3.78087 0
M  V30 126 N 11.8248 0.280983 1.55075 0
M  V30 127 C 13.2408 -0.0729964 1.59433 0
M  V30 128 C 13.4408 -1.5411 1.29817 0
M  V30 129 O 12.4968 -2.29086 1.06187 0
M  V30 130 C 13.8098 0.306921 2.9913 0
M  V30 131 C 15.3578 0.254023 3.11968 0
M  V30 132 C 15.8328 0.608467 4.5394 0
M  V30 133 N 17.3238 0.560241 4.59799 0
M  V30 134 C 18.0588 0.80722 5.6769 0
M  V30 135 N 17.5548 1.11912 6.83701 0
M  V30 136 N 19.3478 0.735623 5.57266 0
M  V30 137 H 11.4988 1.238 1.7259 0
M  V30 138 H 13.7618 0.500547 0.805082 0
M  V30 139 H 13.4678 1.32816 3.25657 0
M  V30 140 H 13.3418 -0.349363 3.75579 0
M  V30 141 H 15.7288 -0.75794 2.852 0
M  V30 142 H 15.8098 0.944649 2.37718 0
M  V30 143 H 15.4538 1.61814 4.81434 0
M  V30 144 H 15.3838 -0.104013 5.26497 0
M  V30 145 H 17.8748 0.329288 3.76463 0
M  V30 146 H 18.1878 1.29409 7.61888 0
M  V30 147 H 16.5328 1.15695 6.85303 0
M  V30 148 H 19.7238 0.491752 4.6551 0
M  V30 149 H 19.8968 0.931482 6.4127 0
M  V30 150 N 13.3029 -1.57598 0.00835791 0
M  V30 151 C 14.7189 -1.55764 -0.347822 0
M  V30 152 C 14.9189 -1.01186 -1.74252 0
M  V30 153 O 13.9749 -0.649371 -2.44007 0
M  V30 154 C 15.2879 -2.99927 -0.215407 0
M  V30 155 C 16.8359 -3.11656 -0.289725 0
M  V30 156 C 17.3109 -4.57621 -0.18634 0
M  V30 157 N 18.8019 -4.62557 -0.243978 0
M  V30 158 C 19.5369 -5.73094 -0.18745 0
M  V30 159 N 19.0329 -6.92753 -0.0810331 0
M  V30 160 N 20.8259 -5.61588 -0.239925 0
M  V30 161 H 12.9769 -1.91411 0.92062 0
M  V30 162 H 15.2399 -0.879562 0.353659 0
M  V30 163 H 14.9459 -3.43729 0.744512 0
M  V30 164 H 14.8199 -3.63865 -0.994097 0
M  V30 165 H 17.2069 -2.67779 -1.24009 0
M  V30 166 H 17.2879 -2.5048 0.51898 0
M  V30 167 H 16.9319 -5.02174 0.760519 0
M  V30 168 H 16.8619 -5.16752 -1.01364 0
M  V30 169 H 19.3529 -3.76481 -0.327217 0
M  V30 170 H 19.6659 -7.72787 -0.0440241 0
M  V30 171 H 18.0109 -6.94984 -0.0465419 0
M  V30 172 H 21.2019 -4.66996 -0.321317 0
M  V30 173 H 21.3749 -6.47714 -0.192407 0
M  V30 174 N 14.781 0.264519 -1.55364 0
M  V30 175 C 16.03 0.992812 -1.75574 0
M  V30 176 C 16.343 1.87142 -0.568979 0
M  V30 177 O 17.549 2.63513 -0.653682 0
M  V30 178 C 16.005 1.81519 -3.10771 0
M  V30 179 C 15.613 0.984839 -4.37041 0
M  V30 180 C 17.357 2.53727 -3.40327 0
M  V30 181 C 15.264 1.80209 -5.63275 0
M  V30 182 H 14.194 0.374412 -0.65447 0
M  V30 183 H 16.845 0.248138 -1.81815 0
M  V30 184 H 15.227 2.60115 -2.98591 0
M  V30 185 H 16.401 0.242455 -4.60162 0
M  V30 186 H 14.716 0.37691 -4.14691 0
M  V30 187 H 17.313 3.15292 -4.3185 0
M  V30 188 H 17.656 3.24447 -2.60845 0
M  V30 189 H 18.189 1.82156 -3.53644 0
M  V30 190 H 14.928 1.13896 -6.45529 0
M  V30 191 H 14.448 2.52022 -5.44284 0
M  V30 192 H 16.127 2.37364 -6.01887 0
M  V30 193 N 16.2591 1.48442 0.529413 0
M  V30 194 C 17.1691 1.6569 1.66084 0
M  V30 195 C 18.1851 0.539432 1.65427 0
M  V30 196 O 19.3611 0.810572 1.84368 0
M  V30 197 C 16.4261 1.69315 3.02545 0
M  V30 198 C 15.4871 2.92694 3.14052 0
M  V30 199 C 14.7201 2.96137 4.44003 0
M  V30 200 O 14.9431 2.07973 5.31134 0
M  V30 201 O 13.8771 3.88312 4.59888 0
M  V30 202 H 17.7031 2.61483 1.54469 0
M  V30 203 H 15.2881 1.3185 0.702567 0
M  V30 204 H 17.1701 1.74217 3.83701 0
M  V30 205 H 15.8451 0.766966 3.14483 0
M  V30 206 H 14.7521 2.93324 2.32189 0
M  V30 207 H 16.0851 3.84699 3.0703 0
M  V30 208 N 17.7372 -0.778329 1.37039 0
M  V30 209 C 18.9652 -1.56734 1.35063 0
M  V30 210 C 19.3802 -1.88686 -0.0655597 0
M  V30 211 O 18.7372 -1.5096 -1.02554 0
M  V30 212 C 18.7882 -2.88163 2.18276 0
M  V30 213 O 18.5092 -2.57583 3.54376 0
M  V30 214 C 20.0102 -3.82422 2.24206 0
M  V30 215 H 17.2302 -0.485778 0.462883 0
M  V30 216 H 19.7742 -0.965185 1.8029 0
M  V30 217 H 17.9292 -3.44818 1.76576 0
M  V30 218 H 18.3432 -3.41699 3.97922 0
M  V30 219 H 19.8172 -4.71667 2.86765 0
M  V30 220 H 20.2942 -4.21078 1.24861 0
M  V30 221 H 20.9002 -3.31697 2.6619 0
M  V30 222 N 19.2153 -1.21501 -1.00376 0
M  V30 223 C 20.4633 -1.03095 -1.73827 0
M  V30 224 C 20.7843 0.436341 -1.90055 0
M  V30 225 O 20.0543 1.31466 -1.45236 0
M  V30 226 H 18.6343 -0.378487 -0.644016 0
M  V30 227 H 21.2963 -1.52831 -1.20949 0
M  V30 228 H 20.3923 -1.49991 -2.73695 0
M  V30 229 N 20.6934 1.19889 -1.02296 0
M  V30 230 C 21.6034 2.26571 -0.608508 0
M  V30 231 C 22.6194 1.70299 0.356964 0
M  V30 232 O 23.7954 2.00235 0.216326 0
M  V30 233 C 20.8604 3.46677 0.0402814 0
M  V30 234 C 19.9214 4.18153 -0.97194 0
M  V30 235 C 19.1544 5.32525 -0.354016 0
M  V30 236 O 19.3774 5.64112 0.844604 0
M  V30 237 O 18.3114 5.92242 -1.07391 0
M  V30 238 H 22.1374 2.64251 -1.49684 0
M  V30 239 H 19.7224 1.26629 -0.792809 0
M  V30 240 H 21.6044 4.19475 0.402324 0
M  V30 241 H 20.2794 3.10858 0.902707 0
M  V30 242 H 19.1864 3.47499 -1.38546 0
M  V30 243 H 20.5194 4.57927 -1.80454 0
M  V30 244 N 22.1715 0.800033 1.35784 0
M  V30 245 C 23.1015 0.220184 2.3246 0
M  V30 246 C 24.0825 -0.65073 1.57161 0
M  V30 247 O 25.2675 -0.582359 1.85263 0
M  V30 248 C 22.3975 -0.637353 3.41402 0
M  V30 249 C 21.3515 0.134531 4.27789 0
M  V30 250 C 20.6775 -0.844285 5.27992 0
M  V30 251 C 21.9775 1.32979 5.05088 0
M  V30 252 H 23.6715 1.02787 2.81203 0
M  V30 253 H 21.2175 0.495717 1.35199 0
M  V30 254 H 23.1705 -1.05302 4.08031 0
M  V30 255 H 21.8945 -1.47785 2.91251 0
M  V30 256 H 20.5535 0.531296 3.6273 0
M  V30 257 H 20.2015 -1.68011 4.74111 0
M  V30 258 H 19.9015 -0.332184 5.8666 0
M  V30 259 H 21.4255 -1.2583 5.97494 0
M  V30 260 H 22.8395 0.98934 5.64699 0
M  V30 261 H 21.2365 1.77593 5.7322 0
M  V30 262 H 22.3065 2.11978 4.36111 0
M  V30 263 N 23.6496 -1.47581 0.552962 0
M  V30 264 C 24.8746 -2.07378 0.0300593 0
M  V30 265 C 25.2996 -1.40355 -1.25229 0
M  V30 266 O 24.6576 -0.477099 -1.7491 0
M  V30 267 C 24.7056 -3.60274 -0.153231 0
M  V30 268 O 23.8096 -3.94041 -1.21678 0
M  V30 269 H 23.1506 -0.662158 0.0494182 0
M  V30 270 H 25.6806 -1.89662 0.767434 0
M  V30 271 H 25.6906 -4.0633 -0.368761 0
M  V30 272 H 24.3656 -4.08455 0.783397 0
M  V30 273 H 22.9426 -3.59735 -0.982079 0
M  V30 274 N 25.1277 -0.289203 -1.54924 0
M  V30 275 C 26.5387 0.205791 -1.85562 0
M  V30 276 C 26.8897 1.54351 -1.2112 0
M  V30 277 O 26.0147 2.10435 -0.504601 0
M  V30 278 C 26.6097 0.380177 -3.3666 0
M  V30 279 C 25.1687 0.819395 -3.67373 0
M  V30 280 C 24.3157 -0.079159 -2.77187 0
M  V30 281 H 27.2667 -0.510577 -1.50262 0
M  V30 282 H 27.2877 1.21659 -3.60526 0
M  V30 283 H 26.7997 -0.593589 -3.83534 0
M  V30 284 H 24.9007 1.80413 -3.26009 0
M  V30 285 H 25.0137 0.646957 -4.74712 0
M  V30 286 H 23.3777 0.439565 -2.50878 0
M  V30 287 H 24.1607 -1.04906 -3.26878 0
M  V30 288 N 26.6058 1.57591 -0.0167156 0
M  V30 289 C 27.5538 2.10604 0.987353 0
M  V30 290 C 28.5478 1.02977 1.34507 0
M  V30 291 O 29.7538 1.21425 1.32875 0
M  V30 292 H 26.1288 0.672695 0.336134 0
M  V30 293 H 28.0998 2.93925 0.514817 0
M  V30 294 C 26.8488 2.6382 2.26483 0
M  V30 295 H 26.1718 3.46278 1.99829 0
M  V30 296 H 27.6118 3.04573 2.94977 0
M  V30 297 C 26.0708 1.55992 2.9861 0
M  V30 298 O 26.6008 0.952521 3.90243 0
M  V30 299 N 24.8068 1.28335 2.60727 0
M  V30 300 H 24.3538 1.77914 1.86291 0
M  V30 301 H 24.3118 0.564115 3.09298 0
M  V30 302 N 28.0839 -0.256276 1.55502 0
M  V30 303 C 29.0469 -1.30047 1.88734 0
M  V30 304 C 30.0469 -1.4154 0.763086 0
M  V30 305 O 31.2369 -1.40403 1.03115 0
M  V30 306 C 28.3689 -2.67953 2.10747 0
M  V30 307 H 29.5619 -1.01802 2.82093 0
M  V30 308 H 27.1149 -0.495134 1.4825 0
M  V30 309 H 27.8499 -3.01351 1.19825 0
M  V30 310 H 27.6349 -2.60993 2.92617 0
M  V30 311 H 29.1249 -3.43368 2.37673 0
M  V30 312 N 29.562 -1.4872 -0.521534 0
M  V30 313 C 30.525 -1.63379 -1.60748 0
M  V30 314 C 31.525 -0.50661 -1.52611 0
M  V30 315 O 32.715 -0.772601 -1.5613 0
M  V30 316 C 29.847 -1.61192 -3.00383 0
M  V30 317 H 31.04 -2.60217 -1.49087 0
M  V30 318 H 28.593 -1.37444 -0.744235 0
M  V30 319 H 29.328 -0.65863 -3.17541 0
M  V30 320 H 29.113 -2.43032 -3.07698 0
M  V30 321 H 30.603 -1.7466 -3.7932 0
M  V30 322 N 31.0401 0.771051 -1.3745 0
M  V30 323 C 32.2891 1.52491 -1.3202 0
M  V30 324 C 32.6021 1.9538 0.0927347 0
M  V30 325 O 33.8081 2.70159 0.269503 0
M  V30 326 C 32.2641 2.75366 -2.31736 0
M  V30 327 C 31.8721 2.39573 -3.78562 0
M  V30 328 C 33.6161 3.53307 -2.35318 0
M  V30 329 C 31.5231 3.58954 -4.70007 0
M  V30 330 H 30.4531 0.572506 -0.490666 0
M  V30 331 H 33.1041 0.844474 -1.62914 0
M  V30 332 H 31.4861 3.45303 -1.93861 0
M  V30 333 H 32.6601 1.77415 -4.25277 0
M  V30 334 H 30.9751 1.74805 -3.77932 0
M  V30 335 H 33.5721 4.42039 -3.00842 0
M  V30 336 H 33.9151 3.93217 -1.36698 0
M  V30 337 H 34.4481 2.90367 -2.71904 0
M  V30 338 H 31.1871 3.24125 -5.69757 0
M  V30 339 H 30.7071 4.20214 -4.27996 0
M  V30 340 H 32.3861 4.25758 -4.87175 0
M  V30 341 N 32.5182 1.22032 0.997298 0
M  V30 342 C 33.4812 0.987909 2.06816 0
M  V30 343 C 34.4812 -0.0440084 1.6074 0
M  V30 344 O 35.6712 0.194053 1.73116 0
M  V30 345 C 32.8032 0.49132 3.37341 0
M  V30 346 H 33.9962 1.93803 2.28868 0
M  V30 347 H 31.5492 1.03838 1.16822 0
M  V30 348 H 32.2842 -0.463364 3.20973 0
M  V30 349 H 32.0692 1.23575 3.72118 0
M  V30 350 H 33.5592 0.348824 4.16141 0
M  V30 351 N 33.9963 -1.19345 1.0293 0
M  V30 352 C 34.9283 -2.22036 0.56857 0
M  V30 353 C 35.9413 -1.58865 -0.355779 0
M  V30 354 O 37.1303 -1.77851 -0.152103 0
M  V30 355 C 34.2303 -3.38363 -0.190752 0
M  V30 356 C 33.4033 -4.31118 0.738643 0
M  V30 357 C 32.4623 -5.26194 0.0246497 0
M  V30 358 O 31.4883 -5.65461 0.651354 0
M  V30 359 N 32.6903 -5.66971 -1.24594 0
M  V30 360 H 35.4553 -2.6219 1.45177 0
M  V30 361 H 33.0163 -1.34015 0.908381 0
M  V30 362 H 35.0083 -3.98981 -0.677961 0
M  V30 363 H 33.5783 -2.96994 -0.975366 0
M  V30 364 H 32.7983 -3.68276 1.40593 0
M  V30 365 H 34.0863 -4.90001 1.37029 0
M  V30 366 H 33.4843 -5.37104 -1.77583 0
M  V30 367 H 32.0413 -6.2984 -1.67764 0
M  V30 368 N 35.4744 -0.807222 -1.35358 0
M  V30 369 C 36.6994 -0.399309 -2.0352 0
M  V30 370 C 37.1244 0.981986 -1.60433 0
M  V30 371 O 36.4824 1.63601 -0.781299 0
M  V30 372 C 36.5304 -0.491552 -3.57234 0
M  V30 373 O 35.6344 0.494754 -4.09421 0
M  V30 374 H 34.9754 -0.166682 -0.642739 0
M  V30 375 H 37.5054 -1.09328 -1.72941 0
M  V30 376 H 37.5154 -0.361588 -4.06395 0
M  V30 377 H 36.1904 -1.49907 -3.87944 0
M  V30 378 H 34.7674 0.324977 -3.71481 0
M  V30 379 N 36.9525 1.47285 -0.560781 0
M  V30 380 C 37.9025 2.27073 0.205384 0
M  V30 381 C 38.8865 1.34569 0.882044 0
M  V30 382 O 40.0785 1.58899 0.77976 0
M  V30 383 C 37.2075 3.20414 1.23247 0
M  V30 384 C 36.2935 4.20399 0.559041 0
M  V30 385 N 36.6845 5.04423 -0.372927 0
M  V30 386 C 34.9825 4.38536 0.812522 0
M  V30 387 C 35.6835 5.76655 -0.764446 0
M  V30 388 N 34.6595 5.43471 -0.11848 0
M  V30 389 H 38.4615 2.89422 -0.511117 0
M  V30 390 H 35.9755 1.57868 -0.380975 0
M  V30 391 H 37.9725 3.76262 1.79534 0
M  V30 392 H 36.6325 2.59623 1.95002 0
M  V30 393 H 37.6435 5.1248 -0.747287 0
M  V30 394 H 34.3205 3.88913 1.51832 0
M  V30 395 H 35.7105 6.54238 -1.53045 0
M  V30 396 N 38.4306 0.297415 1.54768 0
M  V30 397 C 39.3936 -0.567375 2.22066 0
M  V30 398 C 40.3936 -1.06409 1.20556 0
M  V30 399 O 41.5836 -0.960691 1.45315 0
M  V30 400 C 38.7156 -1.78517 2.90421 0
M  V30 401 H 39.9086 0.0205534 2.99893 0
M  V30 402 H 37.4616 0.0482163 1.56226 0
M  V30 403 H 38.1966 -2.41303 2.16664 0
M  V30 404 H 37.9816 -1.43669 3.64831 0
M  V30 405 H 39.4716 -2.39964 3.41771 0
M  V30 406 N 39.9087 -1.5758 0.0250728 0
M  V30 407 C 40.8717 -2.08896 -0.943139 0
M  V30 408 C 41.8717 -1.00321 -1.25668 0
M  V30 409 O 43.0617 -1.26495 -1.19769 0
M  V30 410 C 40.1937 -2.55143 -2.26086 0
M  V30 411 H 41.3867 -2.95723 -0.498775 0
M  V30 412 H 38.9397 -1.54703 -0.222888 0
M  V30 413 H 39.6747 -1.71633 -2.75159 0
M  V30 414 H 39.4597 -3.34461 -2.04641 0
M  V30 415 H 40.9497 -2.95083 -2.95492 0
M  V30 416 N 41.3868 0.248026 -1.55636 0
M  V30 417 C 42.6358 0.974134 -1.76617 0
M  V30 418 C 42.9488 1.86528 -0.588796 0
M  V30 419 O 44.1548 2.62805 -0.681594 0
M  V30 420 C 42.6108 1.78213 -3.12679 0
M  V30 421 C 42.2188 0.93843 -4.38061 0
M  V30 422 C 43.9628 2.50104 -3.42999 0
M  V30 423 C 41.8698 1.74225 -5.65155 0
M  V30 424 H 40.7998 0.36745 -0.658405 0
M  V30 425 H 43.4508 0.22884 -1.82067 0
M  V30 426 H 41.8328 2.56933 -3.01333 0
M  V30 427 H 43.0068 0.193635 -4.60393 0
M  V30 428 H 41.3218 0.332905 -4.15067 0
M  V30 429 H 43.9188 3.10694 -4.3517 0
M  V30 430 H 44.2618 3.21662 -2.64271 0
M  V30 431 H 44.7948 1.78395 -3.55556 0
M  V30 432 H 41.5338 1.07043 -6.46701 0
M  V30 433 H 41.0538 2.46235 -5.46926 0
M  V30 434 H 42.7328 2.30967 -6.0437 0
M  V30 435 N 42.8649 1.48995 0.513639 0
M  V30 436 C 43.7749 1.67443 1.64317 0
M  V30 437 C 44.7909 0.556947 1.64846 0
M  V30 438 O 45.9669 0.830082 1.83498 0
M  V30 439 C 43.0319 1.72515 3.00732 0
M  V30 440 C 42.0929 2.96009 3.1093 0
M  V30 441 C 41.3259 3.00829 4.40837 0
M  V30 442 O 41.5489 2.13594 5.28898 0
M  V30 443 O 40.4829 3.93168 4.55744 0
M  V30 444 H 44.3089 2.63106 1.51687 0
M  V30 445 H 41.8939 1.32588 0.688543 0
M  V30 446 H 43.7759 1.78277 3.81831 0
M  V30 447 H 42.4509 0.800278 3.13651 0
M  V30 448 H 41.3579 2.9577 2.29065 0
M  V30 449 H 42.6909 3.87934 3.02933 0
M  V30 450 N 44.343 -0.763751 1.37857 0
M  V30 451 C 45.306 -1.85889 1.34081 0
M  V30 452 C 46.306 -1.58949 0.243277 0
M  V30 453 O 47.496 -1.66882 0.499589 0
M  V30 454 C 44.628 -3.23176 1.08489 0
M  V30 455 H 45.821 -1.90648 2.31502 0
M  V30 456 H 43.374 -0.964367 1.23003 0
M  V30 457 H 44.109 -3.24091 0.116318 0
M  V30 458 H 43.894 -3.44124 1.8794 0
M  V30 459 H 45.384 -4.03254 1.08517 0
M  V30 460 N 45.8211 -1.22559 -0.990812 0
M  V30 461 C 47.2371 -0.985996 -1.255 0
M  V30 462 C 47.4371 0.319173 -1.98956 0
M  V30 463 O 46.4931 1.04127 -2.3003 0
M  V30 464 C 47.8061 -2.18607 -2.06474 0
M  V30 465 C 49.3541 -2.22985 -2.19651 0
M  V30 466 C 49.8291 -3.4255 -3.04012 0
M  V30 467 N 51.3201 -3.42725 -3.11599 0
M  V30 468 C 52.0551 -4.31892 -3.7717 0
M  V30 469 N 51.5511 -5.31279 -4.44651 0
M  V30 470 N 53.3441 -4.19662 -3.73952 0
M  V30 471 H 45.4951 -2.06469 -0.49841 0
M  V30 472 H 47.7581 -0.904853 -0.282747 0
M  V30 473 H 47.4641 -3.13267 -1.59865 0
M  V30 474 H 47.3381 -2.18838 -3.07229 0
M  V30 475 H 49.7251 -1.28871 -2.65474 0
M  V30 476 H 49.8061 -2.26791 -1.18319 0
M  V30 477 H 49.4501 -4.36965 -2.58889 0
M  V30 478 H 49.3801 -3.35984 -4.0549 0
M  V30 479 H 51.8711 -2.70807 -2.63575 0
M  V30 480 H 52.1841 -5.95593 -4.92431 0
M  V30 481 H 50.5291 -5.3519 -4.43392 0
M  V30 482 H 53.7201 -3.41268 -3.20396 0
M  V30 483 H 53.8931 -4.89358 -4.24774 0
M  V30 484 N 47.2992 1.18797 -1.03562 0
M  V30 485 C 48.2092 2.25913 -0.632505 0
M  V30 486 C 49.2252 1.70668 0.338882 0
M  V30 487 O 50.4012 2.00453 0.195076 0
M  V30 488 C 47.4662 3.467 0.00350942 0
M  V30 489 C 46.5272 4.17098 -1.01624 0
M  V30 490 C 45.7602 5.32119 -0.410478 0
M  V30 491 O 45.9832 5.64976 0.784725 0
M  V30 492 O 44.9172 5.9107 -1.13667 0
M  V30 493 H 48.7432 2.62648 -1.52478 0
M  V30 494 H 46.3282 1.25781 -0.806195 0
M  V30 495 H 48.2102 4.19878 0.35781 0
M  V30 496 H 46.8852 3.11798 0.869686 0
M  V30 497 H 45.7922 3.4601 -1.42224 0
M  V30 498 H 47.1252 4.55987 -1.85301 0
M  V30 499 N 48.7773 0.814389 1.34928 0
M  V30 500 C 49.7243 0.22822 2.29669 0
M  V30 501 C 50.6943 -0.642164 1.53184 0
M  V30 502 O 51.8793 -0.585605 1.81591 0
M  V30 503 C 49.0193 -0.61089 3.3965 0
M  V30 504 C 48.1323 0.280792 4.31086 0
M  V30 505 C 47.2673 -0.567067 5.28165 0
M  V30 506 C 46.3063 0.324531 6.11239 0
M  V30 507 N 45.4433 -0.483756 7.00431 0
M  V30 508 H 50.2833 1.04153 2.79206 0
M  V30 509 H 47.8203 0.525133 1.37407 0
M  V30 510 H 49.7783 -1.11263 4.0209 0
M  V30 511 H 48.4083 -1.38939 2.91369 0
M  V30 512 H 47.4603 0.900688 3.69583 0
M  V30 513 H 48.7723 0.966723 4.89342 0
M  V30 514 H 47.9263 -1.13363 5.96015 0
M  V30 515 H 46.6653 -1.28654 4.70425 0
M  V30 516 H 45.6703 0.903298 5.42329 0
M  V30 517 H 46.8953 1.04198 6.71059 0
M  V30 518 H 44.8413 -1.18706 6.45171 0
M  V30 519 H 44.7583 0.143965 7.55863 0
M  V30 520 H 46.0263 -1.03334 7.7262 0
M  V30 521 N 50.2554 -1.46986 0.568584 0
M  V30 522 C 51.1654 -2.33942 -0.17555 0
M  V30 523 C 52.1814 -1.48891 -0.90041 0
M  V30 524 O 53.3574 -1.81794 -0.86676 0
M  V30 525 C 50.4224 -3.25811 -1.18524 0
M  V30 526 C 49.4834 -4.26757 -0.466582 0
M  V30 527 C 48.7164 -5.14236 -1.42817 0
M  V30 528 O 48.9394 -5.04379 -2.66379 0
M  V30 529 O 47.8734 -5.94412 -0.946453 0
M  V30 530 H 51.6994 -2.98896 0.538036 0
M  V30 531 H 49.2844 -1.4573 0.329097 0
M  V30 532 H 51.1664 -3.82527 -1.76779 0
M  V30 533 H 49.8414 -2.63471 -1.88055 0
M  V30 534 H 48.7484 -3.73769 0.157451 0
M  V30 535 H 50.0814 -4.91843 0.187485 0
M  V30 536 N 51.7335 -0.305618 -1.54608 0
M  V30 537 C 52.9795 0.302746 -2.00528 0
M  V30 538 C 53.3125 1.53184 -1.19367 0
M  V30 539 O 52.5875 1.92598 -0.271321 0
M  V30 540 C 52.8705 0.654756 -3.54097 0
M  V30 541 C 52.7235 -0.583793 -4.45995 0
M  V30 542 C 54.0425 1.47947 -4.14487 0
M  V30 543 H 51.1615 0.108564 -0.72896 0
M  V30 544 H 53.8035 -0.418634 -1.85331 0
M  V30 545 H 51.9535 1.26935 -3.67178 0
M  V30 546 H 53.6255 -1.22224 -4.44814 0
M  V30 547 H 51.8685 -1.21615 -4.16404 0
M  V30 548 H 52.5395 -0.293287 -5.5122 0
M  V30 549 H 55.0155 0.96013 -4.04871 0
M  V30 550 H 53.8915 1.69454 -5.22088 0
M  V30 551 H 54.1525 2.47011 -3.66658 0
M  V30 552 N 53.2116 1.57565 -0.0334293 0
M  V30 553 C 54.1616 2.06978 0.956237 0
M  V30 554 C 55.1456 0.971193 1.28283 0
M  V30 555 O 56.3376 1.23471 1.26822 0
M  V30 556 C 53.4666 2.60393 2.23719 0
M  V30 557 C 52.5526 3.7719 1.93877 0
M  V30 558 N 52.9436 4.87639 1.34321 0
M  V30 559 C 51.2416 3.85758 2.23845 0
M  V30 560 C 51.9426 5.68825 1.21709 0
M  V30 561 N 50.9186 5.1587 1.71404 0
M  V30 562 H 54.7206 2.89773 0.490815 0
M  V30 563 H 52.2346 1.61492 0.171478 0
M  V30 564 H 54.2316 2.94088 2.95496 0
M  V30 565 H 52.8916 1.79031 2.70884 0
M  V30 566 H 53.9026 5.07803 1.01767 0
M  V30 567 H 50.5796 3.1531 2.73653 0
M  V30 568 H 51.9696 6.67631 0.75621 0
M  V30 569 N 54.6897 -0.239769 1.55765 0
M  V30 570 C 55.6527 -1.28038 1.90103 0
M  V30 571 C 56.6527 -1.40723 0.778055 0
M  V30 572 O 57.8427 -1.39301 1.04599 0
M  V30 573 C 54.9747 -2.65702 2.13577 0
M  V30 574 H 56.1677 -0.988048 2.83157 0
M  V30 575 H 53.7207 -0.479382 1.48767 0
M  V30 576 H 54.4557 -3.00063 1.23015 0
M  V30 577 H 54.2407 -2.57875 2.95369 0
M  V30 578 H 55.7307 -3.40828 2.41301 0
M  V30 579 N 56.1678 -1.49265 -0.50573 0
M  V30 580 C 57.4148 -1.58513 -1.26015 0
M  V30 581 C 57.7428 -0.26972 -1.92621 0
M  V30 582 O 56.9978 0.741997 -1.81088 0
M  V30 583 C 57.2968 -2.69008 -2.35308 0
M  V30 584 C 56.9628 -4.10662 -1.86192 0
M  V30 585 C 55.6248 -4.49212 -1.72516 0
M  V30 586 C 57.9768 -4.99336 -1.49375 0
M  V30 587 C 55.3048 -5.74214 -1.20394 0
M  V30 588 C 57.6568 -6.24852 -0.987072 0
M  V30 589 C 56.3208 -6.62236 -0.836669 0
M  V30 590 H 55.5908 -0.580041 -0.461122 0
M  V30 591 H 58.2378 -1.83078 -0.561665 0
M  V30 592 H 56.5428 -2.38396 -3.10926 0
M  V30 593 H 58.2398 -2.73373 -2.93374 0
M  V30 594 H 54.8298 -3.8023 -1.97795 0
M  V30 595 H 59.0138 -4.70212 -1.5879 0
M  V30 596 H 54.2698 -6.01883 -1.07458 0
M  V30 597 H 58.4438 -6.92944 -0.692983 0
M  V30 598 H 56.0708 -7.58979 -0.430607 0
M  V30 599 N 57.6459 0.756429 -1.3826 0
M  V30 600 C 58.8919 1.51772 -1.34511 0
M  V30 601 C 59.2249 1.94089 0.0656691 0
M  V30 602 O 58.4999 1.65221 1.02626 0
M  V30 603 C 58.7829 2.77226 -2.29821 0
M  V30 604 C 58.6359 2.41065 -3.79747 0
M  V30 605 C 59.9549 3.79236 -2.23312 0
M  V30 606 H 57.0739 0.550578 -0.489931 0
M  V30 607 H 59.7159 0.866607 -1.69086 0
M  V30 608 H 57.8659 3.32784 -2.00467 0
M  V30 609 H 59.5379 1.91303 -4.19763 0
M  V30 610 H 57.7809 1.7356 -3.97567 0
M  V30 611 H 58.4519 3.3081 -4.41892 0
M  V30 612 H 60.9279 3.3321 -2.49219 0
M  V30 613 H 59.8039 4.64714 -2.92116 0
M  V30 614 H 60.0649 4.24615 -1.23102 0
M  V30 615 N 59.124 1.23083 0.984299 0
M  V30 616 C 60.54 0.992637 1.24975 0
M  V30 617 C 60.74 -0.308618 1.99123 0
M  V30 618 O 59.796 -1.02905 2.30579 0
M  V30 619 C 61.109 2.19698 2.05312 0
M  V30 620 C 62.657 2.24147 2.18465 0
M  V30 621 C 63.132 3.44157 3.02192 0
M  V30 622 N 64.623 3.44372 3.09777 0
M  V30 623 C 65.358 4.33886 3.74874 0
M  V30 624 N 64.854 5.3363 4.41827 0
M  V30 625 N 66.647 4.21639 3.71721 0
M  V30 626 H 58.798 2.06731 0.487453 0
M  V30 627 H 61.061 0.906339 0.277944 0
M  V30 628 H 60.767 3.1411 1.58201 0
M  V30 629 H 60.641 2.20465 3.06064 0
M  V30 630 H 63.028 1.30277 2.64786 0
M  V30 631 H 63.109 2.27415 1.17115 0
M  V30 632 H 62.753 4.38332 2.56568 0
M  V30 633 H 62.683 3.3813 4.03702 0
M  V30 634 H 65.174 2.72201 2.62135 0
M  V30 635 H 65.487 5.98196 4.89266 0
M  V30 636 H 63.832 5.37534 4.40548 0
M  V30 637 H 67.023 3.42962 3.18582 0
M  V30 638 H 67.196 4.91604 4.22173 0
M  V30 639 N 60.6021 -1.18246 1.0419 0
M  V30 640 C 61.5521 -2.19843 0.604392 0
M  V30 641 C 62.5361 -1.56962 -0.353814 0
M  V30 642 O 63.7281 -1.76156 -0.17267 0
M  V30 643 C 60.8571 -3.43287 -0.0298975 0
M  V30 644 C 59.9431 -4.13288 0.951531 0
M  V30 645 N 60.3341 -4.59271 2.11906 0
M  V30 646 C 58.6321 -4.39165 0.7778 0
M  V30 647 C 59.3331 -5.13173 2.73912 0
M  V30 648 N 58.3091 -5.04763 2.01779 0
M  V30 649 H 62.1111 -2.53089 1.4941 0
M  V30 650 H 59.6251 -1.34465 0.910658 0
M  V30 651 H 61.6221 -4.15334 -0.361037 0
M  V30 652 H 60.2821 -3.11537 -0.915127 0
M  V30 653 H 61.2931 -4.5368 2.49789 0
M  V30 654 H 57.9701 -4.17461 -0.0572331 0
M  V30 655 H 59.3601 -5.58947 3.72864 0
M  V30 656 N 62.0802 -0.821533 -1.34494 0
M  V30 657 C 63.3572 -0.33159 -1.92769 0
M  V30 658 C 63.7372 1.18088 -1.74981 0
M  V30 659 O 63.0852 1.98733 -1.12772 0
M  V30 660 C 63.2952 -0.759398 -3.40638 0
M  V30 661 C 64.6432 -0.757433 -4.1779 0
M  V30 662 O 65.6672 -0.70189 -3.49216 0
M  V30 663 O 64.5262 -0.829361 -5.4017 0
M  V30 664 H 61.6202 -0.0902502 -0.822061 0
M  V30 665 H 64.1662 -0.906231 -1.43477 0
M  V30 666 H 62.9382 -1.8012 -3.47379 0
M  V30 667 H 62.5612 -0.160378 -3.97276 0
M  V30 668 N 63.5583 1.46682 -0.576371 0
M  V30 669 C 64.5053 2.30241 0.160499 0
M  V30 670 C 65.4753 1.40233 0.890162 0
M  V30 671 O 66.6603 1.69186 0.882084 0
M  V30 672 C 63.8003 3.24578 1.1723 0
M  V30 673 C 62.9133 4.29684 0.446736 0
M  V30 674 C 62.0483 5.11154 1.44551 0
M  V30 675 C 61.0873 6.08015 0.70599 0
M  V30 676 N 60.2243 6.82376 1.65251 0
M  V30 677 H 65.0643 2.92727 -0.558127 0
M  V30 678 H 62.6013 1.44272 -0.287056 0
M  V30 679 H 64.5593 3.77711 1.77172 0
M  V30 680 H 63.1893 2.63916 1.85872 0
M  V30 681 H 62.2413 3.79458 -0.267594 0
M  V30 682 H 63.5533 4.98626 -0.131686 0
M  V30 683 H 62.7073 5.68533 2.11791 0
M  V30 684 H 61.4463 4.42158 2.05786 0
M  V30 685 H 60.4513 5.49796 0.0197725 0
M  V30 686 H 61.6763 6.79028 0.09912 0
M  V30 687 H 59.6223 6.16094 2.25308 0
M  V30 688 H 59.5393 7.47556 1.12673 0
M  V30 689 H 60.8073 7.44316 2.31546 0
M  V30 690 N 65.0364 0.313813 1.54444 0
M  V30 691 C 66.2614 -0.296681 2.05267 0
M  V30 692 C 66.6864 -1.45757 1.18897 0
M  V30 693 O 66.0444 -1.80239 0.195886 0
M  V30 694 C 66.0924 -0.71831 3.53373 0
M  V30 695 O 65.1964 -1.82175 3.69981 0
M  V30 696 H 64.5374 -0.0554061 0.661684 0
M  V30 697 H 67.0674 0.459387 1.99376 0
M  V30 698 H 67.0774 -1.00364 3.95463 0
M  V30 699 H 65.7524 0.130821 4.15694 0
M  V30 700 H 64.3294 -1.53598 3.39797 0
M  V30 701 N 66.5145 -1.57545 0.0417849 0
M  V30 702 C 67.4775 -2.09885 -0.92093 0
M  V30 703 C 68.4775 -1.01648 -1.24596 0
M  V30 704 O 69.6675 -1.27759 -1.1842 0
M  V30 705 C 66.7995 -2.57527 -2.23367 0
M  V30 706 H 67.9925 -2.96236 -0.467382 0
M  V30 707 H 65.5455 -1.5493 -0.206467 0
M  V30 708 H 66.2805 -1.74542 -2.73323 0
M  V30 709 H 66.0655 -3.36613 -2.01083 0
M  V30 710 H 67.5555 -2.98201 -2.92346 0
M  V30 711 N 67.9926 0.231505 -1.5589 0
M  V30 712 C 69.4086 0.580748 -1.48659 0
M  V30 713 C 69.6086 1.87617 -0.73498 0
M  V30 714 O 68.6646 2.51046 -0.270586 0
M  V30 715 C 69.9776 0.669202 -2.93159 0
M  V30 716 C 71.5256 0.760499 -3.03621 0
M  V30 717 C 72.0006 0.880383 -4.49459 0
M  V30 718 N 73.4916 0.944861 -4.53461 0
M  V30 719 C 74.2266 1.05716 -5.63571 0
M  V30 720 N 73.7226 1.13403 -6.83456 0
M  V30 721 N 75.5156 1.09152 -5.514 0
M  V30 722 H 67.6666 -0.618695 -2.03189 0
M  V30 723 H 69.9296 -0.215728 -0.923128 0
M  V30 724 H 69.6356 -0.212904 -3.51055 0
M  V30 725 H 69.5096 1.5361 -3.44505 0
M  V30 726 H 71.8966 1.63305 -2.45796 0
M  V30 727 H 71.9776 -0.131864 -2.5546 0
M  V30 728 H 71.6216 0.0123284 -5.07899 0
M  V30 729 H 71.5516 1.78802 -4.95316 0
M  V30 730 H 74.0426 0.896176 -3.6712 0
M  V30 731 H 74.3556 1.21921 -7.63122 0
M  V30 732 H 72.7006 1.10333 -6.86186 0
M  V30 733 H 75.8916 1.02805 -4.56671 0
M  V30 734 H 76.0646 1.17558 -6.37247 0
M  V30 735 N 69.4707 1.49531 0.497807 0
M  V30 736 C 70.4337 1.65916 1.58128 0
M  V30 737 C 71.4337 0.530825 1.51786 0
M  V30 738 O 72.6237 0.797342 1.54881 0
M  V30 739 C 69.7557 1.65951 2.9778 0
M  V30 740 H 70.9487 2.62556 1.44929 0
M  V30 741 H 68.5017 1.38611 0.722275 0
M  V30 742 H 69.2367 0.709065 3.16453 0
M  V30 743 H 69.0217 2.47897 3.03792 0
M  V30 744 H 70.5117 1.80673 3.76493 0
M  V30 745 N 70.9488 -0.749086 1.3866 0
M  V30 746 C 71.8808 -1.87273 1.32142 0
M  V30 747 C 72.8938 -1.61127 0.232787 0
M  V30 748 O 74.0828 -1.71623 0.49069 0
M  V30 749 C 71.1828 -3.23005 1.02571 0
M  V30 750 C 70.3558 -3.7662 2.22433 0
M  V30 751 C 69.4148 -4.90879 1.89537 0
M  V30 752 O 68.4408 -5.05276 2.62078 0
M  V30 753 N 69.6428 -5.74198 0.853031 0
M  V30 754 H 72.4078 -1.93373 2.28969 0
M  V30 755 H 69.9688 -0.929216 1.32579 0
M  V30 756 H 71.9608 -3.96992 0.786085 0
M  V30 757 H 70.5308 -3.12262 0.145249 0
M  V30 758 H 69.7508 -2.94147 2.62434 0
M  V30 759 H 71.0388 -4.09173 3.02415 0
M  V30 760 H 70.4368 -5.6514 0.25155 0
M  V30 761 H 68.9938 -6.48313 0.67329 0
M  V30 762 N 72.4269 -1.23603 -0.977757 0
M  V30 763 C 73.3899 -1.02069 -2.05218 0
M  V30 764 C 74.3899 0.0184305 -1.60789 0
M  V30 765 O 75.5799 -0.221569 -1.72785 0
M  V30 766 C 72.7119 -0.544926 -3.36517 0
M  V30 767 H 73.9049 -1.9742 -2.25755 0
M  V30 768 H 71.4579 -1.05684 -1.15155 0
M  V30 769 H 72.1929 0.412241 -3.21669 0
M  V30 770 H 71.9779 -1.2948 -3.70105 0
M  V30 771 H 73.4679 -0.414985 -4.15533 0
M  V30 772 N 73.905 1.17692 -1.04816 0
M  V30 773 C 75.13 1.92327 -0.776207 0
M  V30 774 C 75.555 1.76082 0.661581 0
M  V30 775 O 74.913 1.076 1.45917 0
M  V30 776 C 74.961 3.41539 -1.15687 0
M  V30 777 O 74.065 4.11402 -0.286775 0
M  V30 778 H 73.406 0.599735 -0.284981 0
M  V30 779 H 75.936 1.49201 -1.4 0
M  V30 780 H 75.946 3.92269 -1.12202 0
M  V30 781 H 74.621 3.52684 -2.20425 0
M  V30 782 H 73.198 3.70939 -0.381903 0
M  V30 783 N 75.3831 0.828654 1.34056 0
M  V30 784 C 76.6311 0.41863 1.97717 0
M  V30 785 C 76.9521 -1.02314 1.66002 0
M  V30 786 O 76.2221 -1.71119 0.953683 0
M  V30 787 H 74.8021 0.151809 0.731412 0
M  V30 788 H 77.4641 1.05936 1.63596 0
M  V30 789 H 76.5601 0.542318 3.07352 0
M  V30 790 N 76.8612 -1.46375 0.584142 0
M  V30 791 C 78.2722 -1.86031 0.157959 0
M  V30 792 C 78.6232 -1.48753 -1.27933 0
M  V30 793 O 77.7482 -0.903098 -1.96655 0
M  V30 794 C 78.3432 -3.37642 0.279892 0
M  V30 795 C 76.9022 -3.76289 -0.09143 0
M  V30 796 C 76.0492 -2.7039 0.615178 0
M  V30 797 H 79.0002 -1.37509 0.792274 0
M  V30 798 H 79.0212 -3.77275 -0.494364 0
M  V30 799 H 78.5332 -3.64742 1.32607 0
M  V30 800 H 76.6342 -3.54806 -1.13769 0
M  V30 801 H 76.7472 -4.78246 0.285886 0
M  V30 802 H 75.1112 -2.5464 0.0552833 0
M  V30 803 H 75.8942 -3.0033 1.66303 0
M  V30 804 N 78.3393 -0.321999 -1.54275 0
M  V30 805 C 79.2693 0.537411 -2.27231 0
M  V30 806 C 80.2503 1.12064 -1.27968 0
M  V30 807 O 81.4353 1.14606 -1.56777 0
M  V30 808 C 78.5653 1.69919 -3.02894 0
M  V30 809 C 77.5193 1.24534 -4.09482 0
M  V30 810 C 76.8453 2.49394 -4.72977 0
M  V30 811 C 78.1453 0.361335 -5.21049 0
M  V30 812 H 79.8393 -0.0711406 -2.99315 0
M  V30 813 H 77.3853 -0.0356555 -1.43956 0
M  V30 814 H 79.3383 2.30668 -3.52662 0
M  V30 815 H 78.0623 2.33431 -2.28424 0
M  V30 816 H 76.7213 0.660782 -3.60596 0
M  V30 817 H 76.3693 3.11265 -3.95124 0
M  V30 818 H 76.0693 2.19718 -5.44975 0
M  V30 819 H 77.5933 3.10908 -5.25517 0
M  V30 820 H 79.0073 0.875072 -5.66582 0
M  V30 821 H 77.4043 0.157428 -5.99893 0
M  V30 822 H 78.4743 -0.60822 -4.8107 0
M  V30 823 N 79.8174 1.5752 -0.0501392 0
M  V30 824 C 81.2334 1.56631 0.306402 0
M  V30 825 C 81.4334 1.0577 1.71508 0
M  V30 826 O 80.4894 0.713837 2.422 0
M  V30 827 C 81.8024 3.00393 0.135811 0
M  V30 828 C 83.3504 3.12315 0.206993 0
M  V30 829 C 83.8254 4.57954 0.064944 0
M  V30 830 N 85.3164 4.63041 0.121254 0
M  V30 831 C 86.0514 5.73389 0.0354381 0
M  V30 832 N 85.5474 6.92724 -0.102666 0
M  V30 833 N 87.3404 5.62026 0.090946 0
M  V30 834 H 79.4914 1.88903 -0.971046 0
M  V30 835 H 81.7544 0.869876 -0.376855 0
M  V30 836 H 81.4604 3.41635 -0.835384 0
M  V30 837 H 81.3344 3.66373 0.897275 0
M  V30 838 H 83.7214 2.70973 1.16866 0
M  V30 839 H 83.8024 2.49016 -0.585208 0
M  V30 840 H 83.4464 4.99981 -0.893394 0
M  V30 841 H 83.3764 5.19258 0.876277 0
M  V30 842 H 85.8674 3.77216 0.227284 0
M  V30 843 H 86.1804 7.72633 -0.160882 0
M  V30 844 H 84.5254 6.94864 -0.137737 0
M  V30 845 H 87.7164 4.67684 0.197388 0
M  V30 846 H 87.8894 6.47997 0.0206089 0
M  V30 847 N 81.2955 -0.223234 1.56011 0
M  V30 848 C 82.5435 -0.946003 1.78592 0
M  V30 849 C 82.8645 -1.84936 0.618349 0
M  V30 850 O 82.1345 -1.92473 -0.364833 0
M  V30 851 H 80.7145 -0.352298 0.658707 0
M  V30 852 H 83.3765 -0.235494 1.93472 0
M  V30 853 H 82.4725 -1.55381 2.70672 0
M  V30 854 N 82.7736 -1.49793 -0.48987 0
M  V30 855 C 84.0226 -1.59085 -1.23995 0
M  V30 856 C 84.3356 -0.287907 -1.9347 0
M  V30 857 O 85.5416 -0.259506 -2.70257 0
M  V30 858 C 83.9976 -2.80736 -2.252 0
M  V30 859 C 83.6056 -4.17833 -1.61614 0
M  V30 860 C 85.3496 -2.99364 -3.00967 0
M  V30 861 C 83.2566 -5.30693 -2.60996 0
M  V30 862 H 82.1866 -0.592372 -0.466488 0
M  V30 863 H 84.8376 -1.76197 -0.51252 0
M  V30 864 H 83.2196 -2.57142 -3.01154 0
M  V30 865 H 84.3936 -4.51608 -0.915774 0
M  V30 866 H 82.7086 -4.04656 -0.981977 0
M  V30 867 H 85.3056 -3.80851 -3.75308 0
M  V30 868 H 85.6486 -2.10356 -3.59244 0
M  V30 869 H 86.1816 -3.2305 -2.32128 0
M  V30 870 H 82.9206 -6.21796 -2.07485 0
M  V30 871 H 82.4406 -5.01359 -3.2924 0
M  V30 872 H 84.1196 -5.6049 -3.23202 0
M  V30 873 N 84.2517 0.741722 -1.39055 0
M  V30 874 C 85.2147 1.83733 -1.37021 0
M  V30 875 C 86.2147 1.58542 -0.268534 0
M  V30 876 O 87.4047 1.66067 -0.526076 0
M  V30 877 C 84.5367 3.2141 -1.13617 0
M  V30 878 H 85.7297 1.86941 -2.34506 0
M  V30 879 H 83.2827 0.944676 -1.24521 0
M  V30 880 H 84.0177 3.23865 -0.167863 0
M  V30 881 H 83.8027 3.4109 -1.93391 0
M  V30 882 H 85.2927 4.01477 -1.14918 0
M  V30 883 N 85.7298 1.2412 0.971189 0
M  V30 884 C 86.9758 1.08041 1.71625 0
M  V30 885 C 87.3088 -0.380407 1.90438 0
M  V30 886 O 86.5838 -1.28127 1.46334 0
M  V30 887 C 86.8668 1.81682 3.10908 0
M  V30 888 C 86.7198 3.35493 2.99608 0
M  V30 889 C 88.0388 1.58671 4.10501 0
M  V30 890 H 85.1578 0.39388 0.622919 0
M  V30 891 H 87.7998 1.52743 1.13003 0
M  V30 892 H 85.9498 1.43684 3.60953 0
M  V30 893 H 87.6218 3.83068 2.57015 0
M  V30 894 H 85.8648 3.64052 2.35899 0
M  V30 895 H 86.5358 3.82217 3.98264 0
M  V30 896 H 89.0118 1.91719 3.69301 0
M  V30 897 H 87.8878 2.1266 5.06031 0
M  V30 898 H 88.1488 0.524161 4.38982 0
M  V30 899 N 87.2079 -1.17134 1.05439 0
M  V30 900 C 88.4559 -1.87085 0.764429 0
M  V30 901 C 88.7769 -1.81584 -0.710787 0
M  V30 902 O 88.0469 -1.24349 -1.51374 0
M  V30 903 H 86.6269 -0.692627 0.279779 0
M  V30 904 H 89.2889 -1.42087 1.33406 0
M  V30 905 H 88.3849 -2.92759 1.0816 0
M  V30 906 N 88.686 -0.835752 -1.33615 0
M  V30 907 C 89.935 -0.426289 -1.97144 0
M  V30 908 C 90.248 1.01912 -1.66953 0
M  V30 909 O 91.454 1.53311 -2.24072 0
M  V30 910 C 89.91 -0.711321 -3.52801 0
M  V30 911 C 89.518 -2.1712 -3.91871 0
M  V30 912 C 91.262 -0.368654 -4.22896 0
M  V30 913 C 89.169 -2.40044 -5.40493 0
M  V30 914 H 88.099 -0.15567 -0.737755 0
M  V30 915 H 90.75 -1.0239 -1.52278 0
M  V30 916 H 89.132 -0.0433766 -3.95976 0
M  V30 917 H 90.306 -2.87936 -3.59763 0
M  V30 918 H 88.621 -2.47654 -3.34749 0
M  V30 919 H 91.218 -0.517601 -5.32189 0
M  V30 920 H 91.561 0.688078 -4.10574 0
M  V30 921 H 92.094 -0.991702 -3.8524 0
M  V30 922 H 88.833 -3.44271 -5.57815 0
M  V30 923 H 88.353 -1.73785 -5.74072 0
M  V30 924 H 90.032 -2.23042 -6.0734 0
M  V30 925 N 90.1641 1.46063 -0.591896 0
M  V30 926 C 91.1111 2.30399 0.136069 0
M  V30 927 C 92.0811 1.41169 0.875238 0
M  V30 928 O 93.2661 1.70112 0.86409 0
M  V30 929 C 90.4061 3.25804 1.13781 0
M  V30 930 C 89.5191 4.30134 0.401137 0
M  V30 931 C 88.6541 5.12659 1.39121 0
M  V30 932 C 87.6931 6.0873 0.641462 0
M  V30 933 N 86.8301 6.8409 1.58004 0
M  V30 934 H 91.6701 2.92118 -0.589144 0
M  V30 935 H 89.2071 1.43959 -0.302342 0
M  V30 936 H 91.1651 3.79569 1.73156 0
M  V30 937 H 89.7951 2.65872 1.83062 0
M  V30 938 H 88.8471 3.79152 -0.307826 0
M  V30 939 H 90.1591 4.98458 -0.184565 0
M  V30 940 H 89.3131 5.70747 2.05749 0
M  V30 941 H 88.0521 4.44316 2.01084 0
M  V30 942 H 87.0571 5.49786 -0.0385419 0
M  V30 943 H 88.2821 6.79095 0.0270945 0
M  V30 944 H 86.2281 6.18449 2.18761 0
M  V30 945 H 86.1451 7.48709 1.04738 0
M  V30 946 H 87.4131 7.4673 2.23639 0
M  V30 947 N 91.6422 0.330177 1.54103 0
M  V30 948 C 92.9192 -0.325007 1.92881 0
M  V30 949 C 93.2992 -1.6934 1.26045 0
M  V30 950 O 92.6472 -2.24855 0.406526 0
M  V30 951 C 92.8572 -0.410634 3.46576 0
M  V30 952 C 94.2052 -0.667801 4.19316 0
M  V30 953 O 95.2292 -0.49329 3.52768 0
M  V30 954 O 94.0882 -1.00491 5.37181 0
M  V30 955 H 91.1822 -0.186873 0.80561 0
M  V30 956 H 93.7282 0.380376 1.65382 0
M  V30 957 H 92.5002 0.550164 3.87413 0
M  V30 958 H 92.1232 -1.16333 3.802 0
M  V30 959 N 93.1203 -1.57491 0.0584922 0
M  V30 960 C 94.3693 -1.92155 -0.613146 0
M  V30 961 C 94.6823 -0.939334 -1.71569 0
M  V30 962 O 95.8883 -1.17829 -2.44599 0
M  V30 963 C 94.3443 -3.41303 -1.14195 0
M  V30 964 C 93.9523 -4.47944 -0.0711265 0
M  V30 965 C 95.6963 -3.84988 -1.78841 0
M  V30 966 C 93.6033 -5.88212 -0.613225 0
M  V30 967 H 92.5333 -0.717162 -0.232796 0
M  V30 968 H 95.1843 -1.83049 0.12857 0
M  V30 969 H 93.5663 -3.45437 -1.93621 0
M  V30 970 H 94.7403 -4.55408 0.702836 0
M  V30 971 H 93.0553 -4.13644 0.478313 0
M  V30 972 H 95.6523 -4.87159 -2.20408 0
M  V30 973 H 95.9953 -3.21632 -2.64308 0
M  V30 974 H 96.5283 -3.83401 -1.06059 0
M  V30 975 H 93.2673 -6.55183 0.203978 0
M  V30 976 H 92.7873 -5.84294 -1.35501 0
M  V30 977 H 94.4663 -6.37687 -1.09383 0
M  V30 978 N 94.5984 0.214957 -1.56127 0
M  V30 979 C 95.8474 0.936451 -1.78643 0
M  V30 980 C 96.1604 1.85237 -0.628229 0
M  V30 981 O 97.3664 2.613 -0.737186 0
M  V30 982 C 95.8224 1.7154 -3.16389 0
M  V30 983 C 95.4304 0.845299 -4.39953 0
M  V30 984 C 97.1744 2.42772 -3.48227 0
M  V30 985 C 95.0814 1.62198 -5.68723 0
M  V30 986 H 94.0114 0.353401 -0.666051 0
M  V30 987 H 96.6624 0.190169 -1.82512 0
M  V30 988 H 95.0444 2.50484 -3.06715 0
M  V30 989 H 96.2184 0.0959353 -4.607 0
M  V30 990 H 94.5334 0.244789 -4.1568 0
M  V30 991 H 97.1304 3.01394 -4.41663 0
M  V30 992 H 97.4734 3.15984 -2.71035 0
M  V30 993 H 98.0064 1.70813 -3.5926 0
M  V30 994 H 94.7454 0.933011 -6.48826 0
M  V30 995 H 94.2654 2.34579 -5.52026 0
M  V30 996 H 95.9444 2.18095 -6.09133 0
M  V30 997 N 96.0765 1.50051 0.48192 0
M  V30 998 C 97.3535 1.51009 1.2432 0
M  V30 999 C 97.7335 0.248587 2.09631 0
M  V30 1000 O 97.0815 -0.768409 2.15192 0
M  V30 1001 C 97.2915 2.79981 2.08355 0
M  V30 1002 C 98.6395 3.3022 2.66908 0
M  V30 1003 O 99.6635 2.81228 2.18607 0
M  V30 1004 O 98.5225 4.15595 3.54884 0
M  V30 1005 H 95.6165 0.605239 0.563573 0
M  V30 1006 H 98.1625 1.62332 0.494627 0
M  V30 1007 H 96.9345 3.63275 1.45419 0
M  V30 1008 H 96.5575 2.7161 2.90368 0
M  V30 1009 N 97.5546 -0.734337 1.39446 0
M  V30 1010 C 98.7826 -1.52358 1.39981 0
M  V30 1011 C 99.1976 -1.88799 -0.0054975 0
M  V30 1012 O 98.5546 -1.54146 -0.976998 0
M  V30 1013 C 98.6056 -2.81072 2.27333 0
M  V30 1014 O 98.3266 -2.46178 3.62392 0
M  V30 1015 C 99.8276 -3.75096 2.36259 0
M  V30 1016 H 97.0476 -0.470806 0.478103 0
M  V30 1017 H 99.5916 -0.907339 1.83269 0
M  V30 1018 H 97.7466 -3.39026 1.87457 0
M  V30 1019 H 98.1606 -3.28866 4.08592 0
M  V30 1020 H 99.6346 -4.62305 3.01626 0
M  V30 1021 H 100.112 -4.16892 1.38194 0
M  V30 1022 H 100.718 -3.23061 2.76608 0
M  V30 1023 N 99.0327 -1.24633 -0.964593 0
M  V30 1024 C 99.9957 -1.0424 -2.04124 0
M  V30 1025 C 100.996 0.00137563 -1.608 0
M  V30 1026 O 102.186 -0.239883 -1.7254 0
M  V30 1027 C 99.3177 -0.580588 -3.3592 0
M  V30 1028 H 100.511 -1.99803 -2.23649 0
M  V30 1029 H 98.0637 -1.06899 -1.14027 0
M  V30 1030 H 98.7987 0.3781 -3.22088 0
M  V30 1031 H 98.5837 -1.33398 -3.6871 0
M  V30 1032 H 100.074 -0.459034 -4.15069 0
M  V30 1033 N 100.511 1.16574 -1.06058 0
M  V30 1034 C 101.459 2.22941 -0.663343 0
M  V30 1035 C 102.453 1.66358 0.319593 0
M  V30 1036 O 103.659 1.7905 0.184713 0
M  V30 1037 H 100.034 0.725907 -0.196376 0
M  V30 1038 H 102.005 2.53736 -1.57037 0
M  V30 1039 C 100.754 3.47642 -0.0632808 0
M  V30 1040 H 100.077 3.91493 -0.810733 0
M  V30 1041 H 101.517 4.2363 0.177177 0
M  V30 1042 C 99.9758 3.1509 1.19248 0
M  V30 1043 O 100.506 3.30673 2.28075 0
M  V30 1044 N 98.7118 2.6924 1.09353 0
M  V30 1045 H 98.2588 2.5676 0.207912 0
M  V30 1046 H 98.2168 2.47833 1.93458 0
M  V30 1047 N 101.989 0.842826 1.3317 0
M  V30 1048 C 102.922 0.223862 2.27099 0
M  V30 1049 C 103.9 -0.631311 1.49844 0
M  V30 1050 O 105.084 -0.590708 1.79005 0
M  V30 1051 C 102.211 -0.685313 3.31694 0
M  V30 1052 C 101.257 0.094919 4.26394 0
M  V30 1053 S 102.09 1.45546 5.15341 0
M  V30 1054 C 103.246 0.551685 6.23464 0
M  V30 1055 H 103.479 1.02015 2.79249 0
M  V30 1056 H 101.012 0.639797 1.4052 0
M  V30 1057 H 102.97 -1.20426 3.92438 0
M  V30 1058 H 101.631 -1.4553 2.78352 0
M  V30 1059 H 100.824 -0.597059 5.00451 0
M  V30 1060 H 100.426 0.545054 3.70007 0
M  V30 1061 H 102.718 -0.248877 6.77043 0
M  V30 1062 H 103.661 1.26253 6.96754 0
M  V30 1063 H 104.069 0.131275 5.64347 0
M  V30 1064 N 103.467 -1.45747 0.599634 0
M  V30 1065 C 104.878 -1.85853 0.177681 0
M  V30 1066 C 105.229 -1.50102 -1.26348 0
M  V30 1067 O 104.354 -0.923905 -1.95686 0
M  V30 1068 C 104.949 -3.37326 0.315688 0
M  V30 1069 C 103.508 -3.76365 -0.0515144 0
M  V30 1070 C 102.655 -2.69722 0.643822 0
M  V30 1071 H 105.606 -1.36661 0.806814 0
M  V30 1072 H 105.627 -3.77778 -0.454321 0
M  V30 1073 H 105.139 -3.63315 1.36468 0
M  V30 1074 H 103.24 -3.55993 -1.09999 0
M  V30 1075 H 103.353 -4.77916 0.336594 0
M  V30 1076 H 101.717 -2.54567 0.0822881 0
M  V30 1077 H 102.5 -2.98549 1.6948 0
M  V30 1078 N 104.945 -0.338344 -1.53925 0
M  V30 1079 C 106.173 0.261298 -2.05243 0
M  V30 1080 C 106.588 1.44625 -1.21363 0
M  V30 1081 O 105.945 1.80811 -0.247736 0
M  V30 1082 C 105.996 0.681412 -3.5502 0
M  V30 1083 O 105.717 -0.456414 -4.35716 0
M  V30 1084 C 107.218 1.34232 -4.22489 0
M  V30 1085 H 104.438 0.0513685 -0.669031 0
M  V30 1086 H 106.982 -0.488822 -1.98572 0
M  V30 1087 H 105.137 1.38148 -3.61931 0
M  V30 1088 H 105.551 -0.122564 -5.24357 0
M  V30 1089 H 107.025 1.58708 -5.28693 0
M  V30 1090 H 107.502 2.29426 -3.74514 0
M  V30 1091 H 108.108 0.684424 -4.19757 0
M  V30 1092 N 106.423 1.57458 -0.0668435 0
M  V30 1093 C 107.333 2.15937 0.916975 0
M  V30 1094 C 108.349 1.12123 1.33058 0
M  V30 1095 O 109.525 1.44366 1.40429 0
M  V30 1096 C 106.59 2.70547 2.16807 0
M  V30 1097 C 105.651 3.89215 1.81135 0
M  V30 1098 C 104.884 4.41211 3.0028 0
M  V30 1099 O 105.107 3.92225 4.14144 0
M  V30 1100 O 104.041 5.32605 2.80384 0
M  V30 1101 H 107.867 3.00354 0.449561 0
M  V30 1102 H 105.452 1.48584 0.155949 0
M  V30 1103 H 107.334 3.0557 2.90181 0
M  V30 1104 H 106.009 1.89192 2.62656 0
M  V30 1105 H 104.916 3.59054 1.05028 0
M  V30 1106 H 106.249 4.71848 1.40073 0
M  V30 1107 N 107.901 -0.206675 1.56239 0
M  V30 1108 C 108.834 -1.28383 1.88661 0
M  V30 1109 C 109.812 -1.44504 0.745481 0
M  V30 1110 O 110.996 -1.60079 0.995336 0
M  V30 1111 C 108.123 -2.65211 2.10667 0
M  V30 1112 C 107.169 -2.66025 3.33366 0
M  V30 1113 S 108.002 -2.18609 4.88846 0
M  V30 1114 C 109.158 -3.57283 5.13906 0
M  V30 1115 H 109.391 -1.00691 2.7973 0
M  V30 1116 H 106.924 -0.409627 1.48867 0
M  V30 1117 H 108.882 -3.43979 2.24029 0
M  V30 1118 H 107.543 -2.90121 1.20369 0
M  V30 1119 H 106.736 -3.66607 3.45855 0
M  V30 1120 H 106.338 -1.95331 3.18938 0
M  V30 1121 H 108.63 -4.53074 5.03717 0
M  V30 1122 H 109.573 -3.49699 6.15724 0
M  V30 1123 H 109.981 -3.51659 4.41583 0
M  V30 1124 N 109.379 -1.50304 -0.473955 0
M  V30 1125 C 110.627 -1.60832 -1.22382 0
M  V30 1126 C 110.948 -0.30939 -1.9253 0
M  V30 1127 O 110.218 0.67296 -1.83978 0
M  V30 1128 H 108.798 -0.592652 -0.454723 0
M  V30 1129 H 111.46 -1.87068 -0.546968 0
M  V30 1130 H 110.556 -2.41803 -1.97327 0
M  V30 1131 N 110.857 0.726932 -1.39834 0
M  V30 1132 C 112.082 1.52121 -1.40976 0
M  V30 1133 C 112.507 1.88098 -0.00826029 0
M  V30 1134 O 111.865 1.52479 0.980807 0
M  V30 1135 C 111.913 2.78021 -2.29644 0
M  V30 1136 O 111.017 3.74272 -1.73188 0
M  V30 1137 H 110.358 0.45908 -0.479731 0
M  V30 1138 H 112.888 0.896207 -1.83927 0
M  V30 1139 H 112.898 3.26671 -2.44438 0
M  V30 1140 H 111.573 2.51169 -3.31492 0
M  V30 1141 H 110.15 3.33073 -1.6768 0
M  V30 1142 N 112.336 1.25143 0.95797 0
M  V30 1143 C 113.246 1.06968 2.08794 0
M  V30 1144 C 114.262 0.00773911 1.73998 0
M  V30 1145 O 115.438 0.207972 2.00323 0
M  V30 1146 C 112.503 0.68691 3.39827 0
M  V30 1147 C 111.564 1.82641 3.88511 0
M  V30 1148 C 110.797 1.46181 5.1329 0
M  V30 1149 O 111.02 0.355971 5.69288 0
M  V30 1150 O 109.954 2.29085 5.566 0
M  V30 1151 H 113.78 2.01723 2.27027 0
M  V30 1152 H 111.365 1.04051 1.07209 0
M  V30 1153 H 113.247 0.485417 4.18595 0
M  V30 1154 H 111.922 -0.231417 3.22872 0
M  V30 1155 H 110.829 2.08274 3.10762 0
M  V30 1156 H 112.162 2.72386 4.09959 0
M  V30 1157 N 113.814 -1.1601 1.06675 0
M  V30 1158 C 115.063 -1.85973 0.780818 0
M  V30 1159 C 115.376 -1.82819 -0.695444 0
M  V30 1160 O 116.582 -2.484 -1.09589 0
M  V30 1161 C 115.038 -3.33757 1.34665 0
M  V30 1162 C 114.646 -3.45374 2.85343 0
M  V30 1163 C 116.39 -4.0895 1.13843 0
M  V30 1164 C 114.297 -4.87266 3.35151 0
M  V30 1165 H 113.227 -0.696661 0.288407 0
M  V30 1166 H 115.878 -1.30903 1.28595 0
M  V30 1167 H 114.26 -3.88456 0.769274 0
M  V30 1168 H 115.434 -3.00816 3.49065 0
M  V30 1169 H 113.749 -2.83619 3.04876 0
M  V30 1170 H 116.346 -5.13654 1.4854 0
M  V30 1171 H 116.689 -4.16229 0.0770282 0
M  V30 1172 H 117.222 -3.605 1.68179 0
M  V30 1173 H 113.961 -4.85168 4.40786 0
M  V30 1174 H 113.481 -5.32433 2.76179 0
M  V30 1175 H 115.16 -5.56097 3.30704 0
M  V30 1176 N 115.292 -0.849877 -1.32721 0
M  V30 1177 C 116.522 -0.46408 -2.0132 0
M  V30 1178 C 116.93 0.94246 -1.64056 0
M  V30 1179 O 116.273 1.6257 -0.855379 0
M  V30 1180 C 116.335 -0.517887 -3.5575 0
M  V30 1181 C 115.999 -1.88248 -4.16427 0
M  V30 1182 C 116.996 -2.84726 -4.35002 0
M  V30 1183 C 114.681 -2.17832 -4.52609 0
M  V30 1184 C 116.675 -4.08945 -4.8892 0
M  V30 1185 C 114.362 -3.42304 -5.06232 0
M  V30 1186 C 115.36 -4.37677 -5.24335 0
M  V30 1187 O 115.048 -5.59946 -5.76815 0
M  V30 1188 H 114.78 -0.181327 -0.651227 0
M  V30 1189 H 117.334 -1.14713 -1.70382 0
M  V30 1190 H 115.564 0.221997 -3.86062 0
M  V30 1191 H 117.253 -0.148366 -4.05629 0
M  V30 1192 H 118.019 -2.63174 -4.07388 0
M  V30 1193 H 113.898 -1.44385 -4.37806 0
M  V30 1194 H 117.442 -4.83396 -5.02966 0
M  V30 1195 H 113.339 -3.63709 -5.33278 0
M  V30 1196 H 114.107 -5.61838 -5.95214 0
M  V30 1197 N 116.77 1.45427 -0.607355 0
M  V30 1198 C 118.186 1.57283 -0.270985 0
M  V30 1199 C 118.386 1.59875 1.22647 0
M  V30 1200 O 117.442 1.52893 2.00948 0
M  V30 1201 C 118.755 2.85566 -0.941952 0
M  V30 1202 C 120.303 2.9924 -0.917849 0
M  V30 1203 C 120.778 4.30293 -1.56882 0
M  V30 1204 N 122.269 4.37051 -1.5343 0
M  V30 1205 C 123.004 5.37123 -2.00715 0
M  V30 1206 N 122.5 6.43734 -2.56084 0
M  V30 1207 N 124.293 5.28479 -1.91484 0
M  V30 1208 H 116.444 1.41988 -1.57966 0
M  V30 1209 H 118.707 0.67885 -0.661715 0
M  V30 1210 H 118.413 2.8955 -1.99633 0
M  V30 1211 H 118.287 3.74322 -0.465096 0
M  V30 1212 H 120.674 2.94822 0.127984 0
M  V30 1213 H 120.755 2.11895 -1.43297 0
M  V30 1214 H 120.399 4.35469 -2.61398 0
M  V30 1215 H 120.329 5.16454 -1.02873 0
M  V30 1216 H 122.82 3.60615 -1.12982 0
M  V30 1217 H 123.133 7.16341 -2.89958 0
M  V30 1218 H 121.478 6.44485 -2.60122 0
M  V30 1219 H 124.669 4.44098 -1.47967 0
M  V30 1220 H 124.842 6.0632 -2.28648 0
M  V30 1221 N 118.248 0.346503 1.53744 0
M  V30 1222 C 119.496 -0.248612 2.00565 0
M  V30 1223 C 119.817 -1.5083 1.23593 0
M  V30 1224 O 119.087 -1.92858 0.343912 0
M  V30 1225 H 117.667 -0.0948564 0.740953 0
M  V30 1226 H 120.329 0.468341 1.89189 0
M  V30 1227 H 119.425 -0.488994 3.08245 0
M  V30 1228 N 119.726 -1.57421 0.075193 0
M  V30 1229 C 120.972 -1.94716 -0.587998 0
M  V30 1230 C 121.327 -0.955205 -1.67014 0
M  V30 1231 O 120.62 0.0219842 -1.91587 0
M  V30 1232 C 120.814 -3.36428 -1.20626 0
M  V30 1233 C 120.643 -4.49317 -0.185541 0
M  V30 1234 C 119.413 -5.04772 0.23099 0
M  V30 1235 C 121.611 -5.11036 0.57854 0
M  V30 1236 N 119.593 -6.01204 1.24206 0
M  V30 1237 C 120.964 -6.02998 1.44199 0
M  V30 1238 C 123.019 -4.93844 0.634237 0
M  V30 1239 C 121.722 -6.79614 2.3562 0
M  V30 1240 C 123.748 -5.71106 1.53597 0
M  V30 1241 C 123.11 -6.6272 2.38709 0
M  V30 1242 H 119.209 -0.759536 -0.186089 0
M  V30 1243 H 121.793 -1.94097 0.153128 0
M  V30 1244 H 119.964 -3.37778 -1.9173 0
M  V30 1245 H 121.696 -3.60951 -1.8302 0
M  V30 1246 H 118.451 -4.73353 -0.152807 0
M  V30 1247 H 118.875 -6.54119 1.74521 0
M  V30 1248 H 123.517 -4.22799 -0.00960004 0
M  V30 1249 H 121.235 -7.49934 3.01038 0
M  V30 1250 H 124.821 -5.59824 1.58394 0
M  V30 1251 H 123.701 -7.2146 3.07352 0
M  V30 1252 N 121.204 0.198386 -1.56346 0
M  V30 1253 C 122.136 1.26987 -1.90806 0
M  V30 1254 C 123.149 1.41877 -0.798419 0
M  V30 1255 O 124.338 1.42362 -1.07682 0
M  V30 1256 C 121.438 2.64246 -2.12196 0
M  V30 1257 C 120.611 2.71007 -3.43328 0
M  V30 1258 C 119.67 3.89439 -3.5387 0
M  V30 1259 O 118.696 3.76695 -4.26719 0
M  V30 1260 N 119.898 5.04752 -2.86715 0
M  V30 1261 H 122.663 0.977433 -2.83313 0
M  V30 1262 H 120.224 0.388322 -1.57174 0
M  V30 1263 H 122.216 3.41896 -2.1654 0
M  V30 1264 H 120.786 2.85992 -1.26204 0
M  V30 1265 H 120.006 1.79657 -3.50881 0
M  V30 1266 H 121.294 2.72512 -4.29668 0
M  V30 1267 H 120.692 5.18004 -2.2735 0
M  V30 1268 H 119.249 5.8036 -2.96691 0
M  V30 1269 N 122.682 1.50554 0.465978 0
M  V30 1270 C 124.093 1.54599 1.04671 0
M  V30 1271 C 124.444 0.352488 1.93008 0
M  V30 1272 O 123.569 -0.534044 2.09707 0
M  V30 1273 C 124.164 2.80166 1.90505 0
M  V30 1274 C 122.723 2.86876 2.43678 0
M  V30 1275 C 121.87 2.48947 1.22151 0
M  V30 1276 H 124.821 1.56744 0.248384 0
M  V30 1277 H 124.842 2.62311 2.75633 0
M  V30 1278 H 124.354 3.67013 1.26186 0
M  V30 1279 H 122.455 2.04393 3.11536 0
M  V30 1280 H 122.568 3.89885 2.78436 0
M  V30 1281 H 120.932 2.01498 1.5579 0
M  V30 1282 H 121.715 3.38107 0.594866 0
M  V30 1283 N 124.16 -0.719506 1.40217 0
M  V30 1284 C 125.576 -1.02707 1.22161 0
M  V30 1285 C 125.776 -2.0128 0.0940557 0
M  V30 1286 O 124.832 -2.46452 -0.549318 0
M  V30 1287 C 126.145 -1.57454 2.56181 0
M  V30 1288 C 127.693 -1.69458 2.63159 0
M  V30 1289 C 128.168 -2.27611 3.97438 0
M  V30 1290 N 129.659 -2.35002 3.99159 0
M  V30 1291 C 130.394 -2.80972 4.99842 0
M  V30 1292 N 129.89 -3.26723 6.10921 0
M  V30 1293 N 131.683 -2.80321 4.87213 0
M  V30 1294 H 123.834 -0.0660492 2.12297 0
M  V30 1295 H 126.097 -0.0919077 0.943534 0
M  V30 1296 H 125.803 -0.924873 3.39321 0
M  V30 1297 H 125.677 -2.56036 2.76993 0
M  V30 1298 H 128.064 -2.33543 1.80393 0
M  V30 1299 H 128.145 -0.694867 2.46181 0
M  V30 1300 H 127.789 -1.6415 4.80643 0
M  V30 1301 H 127.719 -3.2829 4.11744 0
M  V30 1302 H 130.21 -2.02685 3.18947 0
M  V30 1303 H 130.523 -3.60355 6.8364 0
M  V30 1304 H 128.868 -3.24692 6.14492 0
M  V30 1305 H 132.059 -2.43912 3.9953 0
M  V30 1306 H 132.232 -3.15831 5.65822 0
M  V30 1307 N 125.638 -1.25649 -0.95132 0
M  V30 1308 C 126.863 -1.13443 -1.73624 0
M  V30 1309 C 127.288 0.307565 -1.85568 0
M  V30 1310 O 126.646 1.22282 -1.33854 0
M  V30 1311 C 126.694 -1.79723 -3.12621 0
M  V30 1312 O 125.798 -1.07912 -3.98031 0
M  V30 1313 H 125.139 -0.395872 -0.533086 0
M  V30 1314 H 127.669 -1.66276 -1.1922 0
M  V30 1315 H 127.679 -1.86141 -3.63064 0
M  V30 1316 H 126.354 -2.84633 -3.03244 0
M  V30 1317 H 124.931 -1.09398 -3.56492 0
M  V30 1318 N 127.117 1.15442 -1.07289 0
M  V30 1319 C 128.394 1.82306 -0.708792 0
M  V30 1320 C 128.774 1.94991 0.808807 0
M  V30 1321 O 128.122 1.50085 1.72298 0
M  V30 1322 C 128.332 3.18695 -1.42247 0
M  V30 1323 C 129.68 3.94341 -1.57417 0
M  V30 1324 O 130.704 3.28247 -1.38319 0
M  V30 1325 O 129.563 5.12839 -1.88834 0
M  V30 1326 H 126.657 0.787628 -0.252132 0
M  V30 1327 H 129.203 1.22559 -1.17377 0
M  V30 1328 H 127.975 3.04557 -2.45684 0
M  V30 1329 H 127.598 3.86128 -0.948223 0
M  V30 1330 N 128.595 0.856903 1.32268 0
M  V30 1331 C 129.558 0.308171 2.27119 0
M  V30 1332 C 130.558 -0.533421 1.51695 0
M  V30 1333 O 131.748 -0.344607 1.70757 0
M  V30 1334 C 128.88 -0.563757 3.36206 0
M  V30 1335 H 130.073 1.14535 2.77167 0
M  V30 1336 H 127.626 0.631421 1.42978 0
M  V30 1337 H 128.361 -1.42266 2.91429 0
M  V30 1338 H 128.146 0.0386749 3.92081 0
M  V30 1339 H 129.636 -0.940386 4.06874 0
M  V30 1340 N 130.073 -1.45103 0.615059 0
M  V30 1341 C 131.484 -1.85654 0.197383 0
M  V30 1342 C 131.835 -1.51433 -1.24749 0
M  V30 1343 O 130.96 -0.944608 -1.94695 0
M  V30 1344 C 131.555 -3.36972 0.351448 0
M  V30 1345 C 130.114 -3.76398 -0.011593 0
M  V30 1346 C 129.261 -2.69024 0.672394 0
M  V30 1347 H 132.212 -1.35797 0.821263 0
M  V30 1348 H 132.233 -3.78239 -0.414227 0
M  V30 1349 H 131.745 -3.61847 1.40314 0
M  V30 1350 H 129.846 -3.5714 -1.06217 0
M  V30 1351 H 129.959 -4.77532 0.387265 0
M  V30 1352 H 128.323 -2.54465 0.109284 0
M  V30 1353 H 129.106 -2.96735 1.72636 0
M  V30 1354 N 131.551 -0.354651 -1.53558 0
M  V30 1355 C 132.797 0.238797 -2.01389 0
M  V30 1356 C 133.13 1.49309 -1.2418 0
M  V30 1357 O 132.405 1.91638 -0.332457 0
M  V30 1358 C 132.688 0.541771 -3.56001 0
M  V30 1359 C 132.541 -0.725388 -4.43912 0
M  V30 1360 C 133.86 1.34685 -4.18984 0
M  V30 1361 H 130.979 0.0853177 -0.732045 0
M  V30 1362 H 133.621 -0.477384 -1.83905 0
M  V30 1363 H 131.771 1.15189 -3.71031 0
M  V30 1364 H 133.443 -1.36313 -4.407 0
M  V30 1365 H 131.686 -1.34801 -4.12324 0
M  V30 1366 H 132.357 -0.468505 -5.50008 0
M  V30 1367 H 134.833 0.830837 -4.07721 0
M  V30 1368 H 133.709 1.52759 -5.27215 0
M  V30 1369 H 133.97 2.35221 -3.74331 0
M  V30 1370 N 133.029 1.57378 -0.0835403 0
M  V30 1371 C 134.275 1.94217 0.583733 0
M  V30 1372 C 134.608 0.964653 1.68547 0
M  V30 1373 O 133.883 -0.00422258 1.945 0
M  V30 1374 C 134.166 3.41253 1.14972 0
M  V30 1375 C 134.019 4.49768 0.0538277 0
M  V30 1376 C 135.338 3.89352 2.05166 0
M  V30 1377 H 132.457 0.706233 0.210724 0
M  V30 1378 H 135.099 1.89392 -0.1519 0
M  V30 1379 H 133.249 3.45496 1.77665 0
M  V30 1380 H 134.921 4.57641 -0.579851 0
M  V30 1381 H 133.164 4.29432 -0.614068 0
M  V30 1382 H 133.835 5.49817 0.490452 0
M  V30 1383 H 136.311 3.87189 1.52393 0
M  V30 1384 H 135.187 4.92822 2.41698 0
M  V30 1385 H 135.448 3.27973 2.96456 0
M  V30 1386 N 134.507 -0.190092 1.56449 0
M  V30 1387 C 135.44 -1.26375 1.90012 0
M  V30 1388 C 136.418 -1.43705 0.760765 0
M  V30 1389 O 137.602 -1.59014 1.01226 0
M  V30 1390 C 134.729 -2.62962 2.13468 0
M  V30 1391 C 133.775 -2.62474 3.36169 0
M  V30 1392 S 134.608 -2.13412 4.91137 0
M  V30 1393 C 135.764 -3.51812 5.17667 0
M  V30 1394 H 135.997 -0.977181 2.80782 0
M  V30 1395 H 133.53 -0.393814 1.49293 0
M  V30 1396 H 135.488 -3.41583 2.27664 0
M  V30 1397 H 134.149 -2.88828 1.23439 0
M  V30 1398 H 133.342 -3.62918 3.49723 0
M  V30 1399 H 132.944 -1.91937 3.20992 0
M  V30 1400 H 135.236 -4.47706 5.08494 0
M  V30 1401 H 136.179 -3.43148 6.19399 0
M  V30 1402 H 136.587 -3.46956 4.45288 0
M  V30 1403 N 135.985 -1.50799 -0.457987 0
M  V30 1404 C 136.918 -1.65273 -1.57353 0
M  V30 1405 C 137.896 -0.500578 -1.54703 0
M  V30 1406 O 139.08 -0.721781 -1.74134 0
M  V30 1407 C 136.207 -1.64737 -2.95938 0
M  V30 1408 C 135.253 -2.8567 -3.16693 0
M  V30 1409 S 136.086 -4.46791 -2.95191 0
M  V30 1410 C 137.242 -4.48968 -4.36095 0
M  V30 1411 H 137.475 -2.59633 -1.44838 0
M  V30 1412 H 135.008 -1.40225 -0.64625 0
M  V30 1413 H 136.966 -1.65112 -3.7583 0
M  V30 1414 H 135.627 -0.715899 -3.05833 0
M  V30 1415 H 134.82 -2.81637 -4.17967 0
M  V30 1416 H 134.422 -2.8293 -2.44594 0
M  V30 1417 H 136.714 -4.23337 -5.28954 0
M  V30 1418 H 137.657 -5.50664 -4.45168 0
M  V30 1419 H 138.065 -3.78522 -4.18786 0
M  V30 1420 N 137.463 0.71206 -1.40597 0
M  V30 1421 C 138.393 1.83889 -1.43899 0
M  V30 1422 C 139.374 1.67442 -0.299504 0
M  V30 1423 O 140.559 1.87421 -0.508624 0
M  V30 1424 C 137.689 3.21877 -1.30431 0
M  V30 1425 C 136.643 3.53002 -2.42019 0
M  V30 1426 C 135.969 4.90172 -2.13626 0
M  V30 1427 C 137.269 3.53643 -3.84362 0
M  V30 1428 H 138.963 1.81383 -2.38203 0
M  V30 1429 H 136.509 0.871237 -1.14654 0
M  V30 1430 H 138.462 4.00404 -1.31357 0
M  V30 1431 H 137.186 3.24968 -0.326049 0
M  V30 1432 H 135.845 2.76818 -2.40349 0
M  V30 1433 H 135.493 4.89869 -1.14182 0
M  V30 1434 H 135.193 5.11962 -2.88389 0
M  V30 1435 H 136.717 5.71028 -2.1624 0
M  V30 1436 H 138.131 4.22203 -3.87837 0
M  V30 1437 H 136.528 3.86961 -4.58673 0
M  V30 1438 H 137.598 2.52954 -4.13693 0
M  V30 1439 N 138.941 1.26152 0.944643 0
M  V30 1440 C 139.888 1.07408 2.04285 0
M  V30 1441 C 140.858 -0.0198413 1.66088 0
M  V30 1442 O 142.043 0.139264 1.90291 0
M  V30 1443 C 139.183 0.70945 3.37729 0
M  V30 1444 C 138.296 1.87926 3.88983 0
M  V30 1445 C 137.431 1.45807 5.10797 0
M  V30 1446 C 136.47 2.5964 5.54305 0
M  V30 1447 N 135.607 2.18226 6.67324 0
M  V30 1448 H 140.447 2.01389 2.1965 0
M  V30 1449 H 137.984 1.00275 1.07626 0
M  V30 1450 H 139.942 0.478948 4.14442 0
M  V30 1451 H 138.572 -0.193389 3.2222 0
M  V30 1452 H 137.624 2.22279 3.08701 0
M  V30 1453 H 138.936 2.73377 4.17213 0
M  V30 1454 H 138.09 1.18781 5.94959 0
M  V30 1455 H 136.829 0.574414 4.84305 0
M  V30 1456 H 135.834 2.87399 4.68702 0
M  V30 1457 H 137.059 3.48599 5.828 0
M  V30 1458 H 135.005 1.3229 6.42523 0
M  V30 1459 H 134.922 2.97221 6.95123 0
M  V30 1460 H 136.19 1.94403 7.54869 0
M  V30 1461 N 140.419 -1.14872 1.07899 0
M  V30 1462 C 141.835 -1.37776 0.805606 0
M  V30 1463 C 142.035 -1.92743 -0.587555 0
M  V30 1464 O 141.091 -2.13678 -1.34528 0
M  V30 1465 C 142.404 -2.34361 1.88402 0
M  V30 1466 C 143.952 -2.48012 1.90942 0
M  V30 1467 C 144.427 -3.47893 2.97883 0
M  V30 1468 N 145.918 -3.55433 2.97021 0
M  V30 1469 C 146.653 -4.32553 3.76412 0
M  V30 1470 N 146.149 -5.12959 4.65666 0
M  V30 1471 N 147.942 -4.27697 3.64735 0
M  V30 1472 H 140.093 -0.775365 1.97742 0
M  V30 1473 H 142.356 -0.403521 0.857831 0
M  V30 1474 H 142.062 -2.01098 2.88535 0
M  V30 1475 H 141.936 -3.34206 1.74889 0
M  V30 1476 H 144.323 -2.8057 0.914579 0
M  V30 1477 H 144.404 -1.48147 2.08534 0
M  V30 1478 H 144.048 -3.16069 3.97571 0
M  V30 1479 H 143.978 -4.47527 2.77538 0
M  V30 1480 H 146.469 -2.98048 2.32326 0
M  V30 1481 H 146.782 -5.69065 5.22862 0
M  V30 1482 H 145.127 -5.12245 4.69712 0
M  V30 1483 H 148.318 -3.63949 2.94378 0
M  V30 1484 H 148.491 -4.8755 4.26848 0
M  V30 1485 N 141.898 -0.863906 -1.31812 0
M  V30 1486 C 142.861 -0.320212 -2.26952 0
M  V30 1487 C 143.861 0.525369 -1.51975 0
M  V30 1488 O 145.051 0.335547 -1.70938 0
M  V30 1489 C 142.183 0.545919 -3.365 0
M  V30 1490 H 143.376 -1.16004 -2.76556 0
M  V30 1491 H 140.929 -0.638995 -1.42641 0
M  V30 1492 H 141.664 1.40718 -2.92179 0
M  V30 1493 H 141.449 -0.0594674 -3.92055 0
M  V30 1494 H 142.939 0.918796 -4.07367 0
M  V30 1495 N 143.376 1.44774 -0.622745 0
M  V30 1496 C 144.624 2.01721 -0.123655 0
M  V30 1497 C 144.945 1.49172 1.25589 0
M  V30 1498 O 144.215 0.691974 1.83272 0
M  V30 1499 H 142.795 0.745777 -0.0427225 0
M  V30 1500 H 145.457 1.77382 -0.807559 0
M  V30 1501 H 144.553 3.11984 -0.0849534 0
M  V30 1502 N 144.854 0.36279 1.53368 0
M  V30 1503 C 145.817 -0.472679 2.24273 0
M  V30 1504 C 146.817 -1.012 1.24961 0
M  V30 1505 O 148.007 -0.898194 1.49259 0
M  V30 1506 C 145.139 -1.66039 2.97731 0
M  V30 1507 H 146.332 0.14773 2.99536 0
M  V30 1508 H 143.885 0.114434 1.55881 0
M  V30 1509 H 144.62 -2.31896 2.26704 0
M  V30 1510 H 144.405 -1.28066 3.70596 0
M  V30 1511 H 145.895 -2.25252 3.51641 0
M  V30 1512 N 146.332 -1.57332 0.0918853 0
M  V30 1513 C 147.56 -1.98574 -0.581048 0
M  V30 1514 C 147.975 -0.970903 -1.61923 0
M  V30 1515 O 147.332 0.0399054 -1.82456 0
M  V30 1516 C 147.383 -3.39872 -1.23164 0
M  V30 1517 O 147.104 -4.37469 -0.234989 0
M  V30 1518 C 148.605 -3.96099 -1.99049 0
M  V30 1519 H 145.825 -0.65261 -0.156018 0
M  V30 1520 H 148.369 -2.0379 0.170225 0
M  V30 1521 H 146.524 -3.35679 -1.93386 0
M  V30 1522 H 146.938 -5.19751 -0.70418 0
M  V30 1523 H 148.412 -4.97127 -2.39934 0
M  V30 1524 H 148.889 -3.3374 -2.85507 0
M  V30 1525 H 149.495 -4.03755 -1.3365 0
M  V30 1526 N 147.81 0.181792 -1.56548 0
M  V30 1527 C 149.059 0.898348 -1.8059 0
M  V30 1528 C 149.372 1.83862 -0.667379 0
M  V30 1529 O 150.578 2.59678 -0.792446 0
M  V30 1530 C 149.034 1.64791 -3.19956 0
M  V30 1531 C 148.642 0.751789 -4.41647 0
M  V30 1532 C 150.386 2.35331 -3.53298 0
M  V30 1533 C 148.293 1.50098 -5.72035 0
M  V30 1534 H 147.223 0.339194 -0.673397 0
M  V30 1535 H 149.874 0.151413 -1.82874 0
M  V30 1536 H 148.256 2.43921 -3.11959 0
M  V30 1537 H 149.43 -0.0018076 -4.608 0
M  V30 1538 H 147.745 0.156562 -4.16106 0
M  V30 1539 H 150.342 2.91958 -4.47956 0
M  V30 1540 H 150.685 3.10164 -2.77676 0
M  V30 1541 H 151.218 1.63154 -3.62803 0
M  V30 1542 H 147.957 0.795175 -6.50659 0
M  V30 1543 H 147.477 2.22817 -5.56878 0
M  V30 1544 H 149.156 2.05125 -6.13622 0
M  V30 1545 N 149.288 1.51039 0.449983 0
M  V30 1546 C 150.537 1.62317 1.19733 0
M  V30 1547 C 150.85 0.339101 1.92638 0
M  V30 1548 O 152.056 0.331069 2.69474 0
M  V30 1549 C 150.512 2.86608 2.17678 0
M  V30 1550 C 150.12 4.21972 1.50479 0
M  V30 1551 C 151.864 3.07239 2.92924 0
M  V30 1552 C 149.771 5.37426 2.46834 0
M  V30 1553 H 148.701 0.604532 0.450619 0
M  V30 1554 H 151.352 1.77494 0.465625 0
M  V30 1555 H 149.734 2.65037 2.94231 0
M  V30 1556 H 150.908 4.53878 0.795716 0
M  V30 1557 H 149.223 4.07117 0.874344 0
M  V30 1558 H 151.82 3.90668 3.65079 0
M  V30 1559 H 152.163 2.19807 3.5354 0
M  V30 1560 H 152.696 3.29091 2.23481 0
M  V30 1561 H 149.435 6.27079 1.90926 0
M  V30 1562 H 148.955 5.09912 3.15832 0
M  V30 1563 H 150.634 5.68862 3.08228 0
M  V30 1564 N 150.766 -0.704594 1.40972 0
M  V30 1565 C 152.014 -1.46169 1.39568 0
M  V30 1566 C 152.335 -1.95 0.00253745 0
M  V30 1567 O 151.605 -1.71095 -0.954114 0
M  V30 1568 H 150.185 -0.542326 0.513704 0
M  V30 1569 H 152.847 -0.834553 1.76128 0
M  V30 1570 H 151.943 -2.32922 2.07735 0
M  V30 1571 N 152.244 -1.26651 -0.937939 0
M  V30 1572 C 153.191 -1.0849 -2.03712 0
M  V30 1573 C 154.161 0.011033 -1.66096 0
M  V30 1574 O 155.346 -0.149353 -1.90215 0
M  V30 1575 C 152.486 -0.72735 -3.37348 0
M  V30 1576 C 151.599 -1.89986 -3.87981 0
M  V30 1577 C 150.734 -1.48513 -5.10017 0
M  V30 1578 C 149.773 -2.62575 -5.5292 0
M  V30 1579 N 148.91 -2.21762 -6.66158 0
M  V30 1580 H 153.75 -2.02551 -2.18579 0
M  V30 1581 H 151.287 -1.00844 -1.07093 0
M  V30 1582 H 153.245 -0.50092 -4.14182 0
M  V30 1583 H 151.875 0.176298 -3.22318 0
M  V30 1584 H 150.927 -2.23913 -3.07518 0
M  V30 1585 H 152.239 -2.75586 -4.15757 0
M  V30 1586 H 151.393 -1.21934 -5.94321 0
M  V30 1587 H 150.132 -0.60009 -4.83994 0
M  V30 1588 H 149.137 -2.8988 -4.67172 0
M  V30 1589 H 150.362 -3.51685 -5.80943 0
M  V30 1590 H 148.308 -1.35696 -6.41812 0
M  V30 1591 H 148.225 -3.00903 -6.93537 0
M  V30 1592 H 149.493 -1.98403 -7.53828 0
M  V30 1593 N 153.722 1.14298 -1.08507 0
M  V30 1594 C 154.95 1.89219 -0.836876 0
M  V30 1595 C 155.365 1.78638 0.611054 0
M  V30 1596 O 154.722 1.14643 1.41998 0
M  V30 1597 C 154.773 3.39158 -1.25116 0
M  V30 1598 O 154.494 3.49449 -2.64229 0
M  V30 1599 C 155.995 4.31073 -1.03398 0
M  V30 1600 H 153.215 0.599328 -0.301739 0
M  V30 1601 H 155.759 1.44746 -1.44461 0
M  V30 1602 H 153.914 3.81251 -0.687514 0
M  V30 1603 H 154.328 4.42589 -2.81452 0
M  V30 1604 H 155.802 5.34646 -1.37323 0
M  V30 1605 H 156.279 4.3919 0.0289259 0
M  V30 1606 H 156.885 3.94738 -1.58311 0
M  V30 1607 N 155.201 0.870884 1.31352 0
M  V30 1608 C 156.429 0.49677 2.00848 0
M  V30 1609 C 156.844 -0.910998 1.65367 0
M  V30 1610 O 156.201 -1.59696 0.883374 0
M  V30 1611 C 156.252 0.645308 3.55694 0
M  V30 1612 O 155.973 1.99764 3.89905 0
M  V30 1613 C 157.474 0.272326 4.42463 0
M  V30 1614 H 154.694 0.193462 0.642506 0
M  V30 1615 H 157.238 1.1723 1.67563 0
M  V30 1616 H 155.393 0.0173176 3.87396 0
M  V30 1617 H 155.807 2.00607 4.84621 0
M  V30 1618 H 157.281 0.427208 5.50344 0
M  V30 1619 H 157.758 -0.788587 4.32062 0
M  V30 1620 H 158.364 0.876054 4.1618 0
M  V30 1621 N 156.679 -1.44442 0.630414 0
M  V30 1622 C 157.907 -2.06414 0.141671 0
M  V30 1623 C 158.322 -1.47105 -1.18345 0
M  V30 1624 O 157.679 -0.593662 -1.72574 0
M  V30 1625 C 157.73 -3.61494 0.0199784 0
M  V30 1626 O 157.451 -4.18594 1.29269 0
M  V30 1627 C 158.952 -4.40499 -0.497544 0
M  V30 1628 H 156.172 -0.666292 0.0793452 0
M  V30 1629 H 158.716 -1.85323 0.864614 0
M  V30 1630 H 156.871 -3.8185 -0.653402 0
M  V30 1631 H 157.285 -5.12026 1.13707 0
M  V30 1632 H 158.759 -5.49433 -0.531708 0
M  V30 1633 H 159.236 -4.11895 -1.52445 0
M  V30 1634 H 159.842 -4.25061 0.142562 0
M  V30 1635 N 158.157 -0.370918 -1.53173 0
M  V30 1636 C 159.385 0.217704 -2.05751 0
M  V30 1637 C 159.8 1.42018 -1.24404 0
M  V30 1638 O 159.157 1.80245 -0.286033 0
M  V30 1639 C 159.208 0.605954 -3.56385 0
M  V30 1640 O 158.929 -0.548734 -4.3465 0
M  V30 1641 C 160.43 1.2524 -4.25241 0
M  V30 1642 H 157.65 0.0371659 -0.66997 0
M  V30 1643 H 160.194 -0.530832 -1.9749 0
M  V30 1644 H 158.349 1.3044 -3.6478 0
M  V30 1645 H 158.763 -0.23376 -5.23979 0
M  V30 1646 H 160.237 1.47458 -5.3194 0
M  V30 1647 H 160.714 2.2143 -3.79296 0
M  V30 1648 H 161.32 0.595233 -4.21114 0
M  V30 1649 N 159.635 1.57281 -0.100228 0
M  V30 1650 C 160.598 2.13158 0.842398 0
M  V30 1651 C 161.598 1.06202 1.20738 0
M  V30 1652 O 162.788 1.32066 1.13597 0
M  V30 1653 C 159.92 2.65639 2.13655 0
M  V30 1654 H 161.113 2.97766 0.357114 0
M  V30 1655 H 158.666 1.5559 0.148823 0
M  V30 1656 H 159.401 1.84566 2.66657 0
M  V30 1657 H 159.186 3.43844 1.88451 0
M  V30 1658 H 160.676 3.08846 2.81077 0
M  V30 1659 N 161.113 -0.173488 1.56642 0
M  V30 1660 C 162.36 -0.890465 1.81871 0
M  V30 1661 C 162.688 -1.82339 0.67696 0
M  V30 1662 O 161.943 -1.92795 -0.335926 0
M  V30 1663 C 162.242 -1.72069 3.13252 0
M  V30 1664 C 161.908 -0.936878 4.41059 0
M  V30 1665 C 160.57 -0.720545 4.75775 0
M  V30 1666 C 162.922 -0.386919 5.19762 0
M  V30 1667 C 160.25 0.0568829 5.86672 0
M  V30 1668 C 162.602 0.37741 6.31473 0
M  V30 1669 C 161.266 0.604563 6.64757 0
M  V30 1670 H 160.536 -0.325844 0.665512 0
M  V30 1671 H 163.183 -0.155527 1.90867 0
M  V30 1672 H 161.488 -2.52496 2.99588 0
M  V30 1673 H 163.185 -2.27844 3.29982 0
M  V30 1674 H 159.775 -1.11553 4.13828 0
M  V30 1675 H 163.959 -0.541398 4.93338 0
M  V30 1676 H 159.215 0.242635 6.10918 0
M  V30 1677 H 163.389 0.810825 6.91664 0
M  V30 1678 H 161.016 1.20885 7.50527 0
M  V30 1679 N 162.591 -1.51276 -0.441967 0
M  V30 1680 C 163.554 -1.7167 -1.51862 0
M  V30 1681 C 164.554 -0.586793 -1.49711 0
M  V30 1682 O 165.744 -0.854276 -1.51815 0
M  V30 1683 C 162.876 -1.76889 -2.91416 0
M  V30 1684 H 164.069 -2.67754 -1.35084 0
M  V30 1685 H 161.622 -1.41196 -0.670333 0
M  V30 1686 H 162.357 -0.826026 -3.13604 0
M  V30 1687 H 162.142 -2.59001 -2.94382 0
M  V30 1688 H 163.632 -1.94522 -3.69528 0
M  V30 1689 N 164.069 0.697108 -1.41344 0
M  V30 1690 C 165.294 1.49096 -1.44171 0
M  V30 1691 C 165.719 1.88038 -0.0481568 0
M  V30 1692 O 165.077 1.54525 0.948243 0
M  V30 1693 C 165.125 2.73088 -2.3549 0
M  V30 1694 O 164.229 3.70514 -1.81088 0
M  V30 1695 H 163.57 0.448801 -0.489361 0
M  V30 1696 H 166.1 0.856992 -1.85787 0
M  V30 1697 H 166.11 3.21413 -2.51312 0
M  V30 1698 H 164.785 2.44081 -3.36745 0
M  V30 1699 H 163.362 3.29441 -1.74708 0
M  V30 1700 N 165.547 1.27147 0.931209 0
M  V30 1701 C 166.963 1.04475 1.20653 0
M  V30 1702 C 167.163 -0.223885 2.00252 0
M  V30 1703 O 166.219 -0.930332 2.34736 0
M  V30 1704 C 167.532 2.28209 1.95809 0
M  V30 1705 C 169.08 2.33211 2.08762 0
M  V30 1706 C 169.555 3.56665 2.87323 0
M  V30 1707 N 171.046 3.57201 2.94892 0
M  V30 1708 C 171.781 4.49395 3.56134 0
M  V30 1709 N 171.277 5.51889 4.18796 0
M  V30 1710 N 173.07 4.37026 3.53504 0
M  V30 1711 H 165.221 2.08612 0.399333 0
M  V30 1712 H 167.484 0.917312 0.239253 0
M  V30 1713 H 167.19 3.20538 1.44736 0
M  V30 1714 H 167.064 2.33247 2.96438 0
M  V30 1715 H 169.451 1.41391 2.59023 0
M  V30 1716 H 169.532 2.32178 1.07364 0
M  V30 1717 H 169.176 4.4882 2.37746 0
M  V30 1718 H 169.106 3.54948 3.88998 0
M  V30 1719 H 171.597 2.83074 2.50354 0
M  V30 1720 H 171.91 6.18409 4.63454 0
M  V30 1721 H 170.255 5.55735 4.17353 0
M  V30 1722 H 173.446 3.56166 3.03749 0
M  V30 1723 H 173.619 5.09067 4.00942 0
M  V30 1724 N 167.025 -1.13721 1.09112 0
M  V30 1725 C 168.302 -1.81155 0.737706 0
M  V30 1726 C 168.682 -1.96253 -0.777683 0
M  V30 1727 O 168.03 -1.52807 -1.69889 0
M  V30 1728 C 168.24 -3.16392 1.47299 0
M  V30 1729 C 169.588 -3.91787 1.63671 0
M  V30 1730 O 170.612 -3.26005 1.43524 0
M  V30 1731 O 169.471 -5.0977 1.96969 0
M  V30 1732 H 166.565 -0.783518 0.26463 0
M  V30 1733 H 169.111 -1.20676 1.19312 0
M  V30 1734 H 167.883 -3.0061 2.50498 0
M  V30 1735 H 167.506 -3.8457 1.00953 0
M  V30 1736 N 168.503 -0.877838 -1.30888 0
M  V30 1737 C 169.914 -0.544193 -1.78593 0
M  V30 1738 C 170.265 0.939301 -1.72254 0
M  V30 1739 O 169.39 1.7337 -1.29505 0
M  V30 1740 C 169.985 -0.98105 -3.24285 0
M  V30 1741 C 168.544 -0.698935 -3.69854 0
M  V30 1742 C 167.691 -1.168 -2.51502 0
M  V30 1743 H 170.642 -1.06278 -1.17859 0
M  V30 1744 H 170.663 -0.307009 -3.79259 0
M  V30 1745 H 170.175 -2.06079 -3.28866 0
M  V30 1746 H 168.276 0.369112 -3.70767 0
M  V30 1747 H 168.389 -1.28148 -4.61644 0
M  V30 1748 H 166.753 -0.587535 -2.47831 0
M  V30 1749 H 167.536 -2.25533 -2.58824 0
M  V30 1750 N 169.982 1.44106 -0.638065 0
M  V30 1751 C 171.21 2.06336 -0.152615 0
M  V30 1752 C 171.625 1.47731 1.17563 0
M  V30 1753 O 170.982 0.602806 1.72257 0
M  V30 1754 C 171.033 3.61479 -0.0391491 0
M  V30 1755 O 170.754 4.17903 -1.31487 0
M  V30 1756 C 172.255 4.40757 0.474176 0
M  V30 1757 H 169.475 0.665862 -0.0828776 0
M  V30 1758 H 172.019 1.84862 -0.87443 0
M  V30 1759 H 170.174 3.82191 0.633142 0
M  V30 1760 H 170.588 5.11416 -1.16421 0
M  V30 1761 H 172.062 5.49707 0.502562 0
M  V30 1762 H 172.539 4.12697 1.50258 0
M  V30 1763 H 173.145 4.24979 -0.165102 0
M  V30 1764 N 171.46 0.379036 1.52974 0
M  V30 1765 C 172.423 -0.448865 2.24762 0
M  V30 1766 C 173.423 -0.998689 1.26027 0
M  V30 1767 O 174.613 -0.882313 1.50203 0
M  V30 1768 C 171.745 -1.62872 2.99476 0
M  V30 1769 H 172.938 0.179491 2.99362 0
M  V30 1770 H 170.491 0.13096 1.5575 0
M  V30 1771 H 171.226 -2.29479 2.29151 0
M  V30 1772 H 171.011 -1.24128 3.71934 0
M  V30 1773 H 172.501 -2.2151 3.5401 0
M  V30 1774 N 172.938 -1.57226 0.108567 0
M  V30 1775 C 174.166 -1.99179 -0.559954 0
M  V30 1776 C 174.581 -0.988022 -1.60884 0
M  V30 1777 O 173.938 0.0205512 -1.82488 0
M  V30 1778 C 173.989 -3.41159 -1.19552 0
M  V30 1779 O 173.71 -4.37694 -0.188577 0
M  V30 1780 C 175.211 -3.98188 -1.94837 0
M  V30 1781 H 172.431 -0.654228 -0.149088 0
M  V30 1782 H 174.975 -2.03598 0.19183 0
M  V30 1783 H 173.13 -3.37711 -1.89815 0
M  V30 1784 H 173.544 -5.20469 -0.649014 0
M  V30 1785 H 175.018 -4.99644 -2.34648 0
M  V30 1786 H 175.495 -3.3675 -2.81951 0
M  V30 1787 H 176.101 -4.0515 -1.2936 0
M  V30 1788 N 174.416 0.165178 -1.56732 0
M  V30 1789 C 175.346 1.20651 -1.99914 0
M  V30 1790 C 176.327 1.45827 -0.875705 0
M  V30 1791 O 177.512 1.57057 -1.14223 0
M  V30 1792 C 174.642 2.54401 -2.36427 0
M  V30 1793 C 173.596 2.43782 -3.51787 0
M  V30 1794 C 172.922 3.82078 -3.7406 0
M  V30 1795 C 174.222 1.93732 -4.85041 0
M  V30 1796 H 175.916 0.847534 -2.87154 0
M  V30 1797 H 173.462 0.40625 -1.38151 0
M  V30 1798 H 175.415 3.27458 -2.65234 0
M  V30 1799 H 174.139 2.92098 -1.46103 0
M  V30 1800 H 172.798 1.73178 -3.23117 0
M  V30 1801 H 172.446 4.17179 -2.81017 0
M  V30 1802 H 172.146 3.7584 -4.51684 0
M  V30 1803 H 173.67 4.56712 -4.05274 0
M  V30 1804 H 175.084 2.56569 -5.12684 0
M  V30 1805 H 173.481 1.98428 -5.66345 0
M  V30 1806 H 174.551 0.891962 -4.76626 0
M  V30 1807 N 175.894 1.51508 0.433938 0
M  V30 1808 C 176.842 1.73646 1.54757 0
M  V30 1809 C 177.836 0.602854 1.5831 0
M  V30 1810 O 179.042 0.784318 1.62014 0
M  V30 1811 H 175.417 0.548718 0.51421 0
M  V30 1812 H 177.388 2.66991 1.33261 0
M  V30 1813 C 176.137 1.88172 2.92381 0
M  V30 1814 H 175.46 2.74808 2.90381 0
M  V30 1815 H 176.9 2.07672 3.6966 0
M  V30 1816 C 175.359 0.64239 3.30719 0
M  V30 1817 O 175.889 -0.201362 4.01195 0
M  V30 1818 N 174.095 0.485489 2.86516 0
M  V30 1819 H 173.642 1.17318 2.29334 0
M  V30 1820 H 173.6 -0.342482 3.12529 0
M  V30 1821 N 177.372 -0.689602 1.41712 0
M  V30 1822 C 178.783 -1.26973 1.36875 0
M  V30 1823 C 179.134 -1.96124 0.054748 0
M  V30 1824 O 178.259 -1.99141 -0.84687 0
M  V30 1825 C 178.854 -2.30912 2.47922 0
M  V30 1826 C 177.413 -2.84486 2.46464 0
M  V30 1827 C 176.56 -1.58603 2.27465 0
M  V30 1828 H 179.511 -0.48396 1.51141 0
M  V30 1829 H 179.532 -3.12331 2.17323 0
M  V30 1830 H 179.044 -1.80554 3.43543 0
M  V30 1831 H 177.145 -3.39005 1.54617 0
M  V30 1832 H 177.258 -3.34511 3.42986 0
M  V30 1833 H 175.622 -1.84632 1.75451 0
M  V30 1834 H 176.405 -1.10233 3.25121 0
M  V30 1835 N 178.85 -1.27639 -0.924453 0
M  V30 1836 C 179.8 -1.07295 -2.01176 0
M  V30 1837 C 180.784 5.77352e-05 -1.609 0
M  V30 1838 O 181.976 -0.218855 -1.75642 0
M  V30 1839 C 179.105 -0.725592 -3.35544 0
M  V30 1840 C 178.191 -1.83691 -3.82254 0
M  V30 1841 N 178.582 -3.07697 -4.01443 0
M  V30 1842 C 176.88 -1.72433 -4.11319 0
M  V30 1843 C 177.581 -3.80037 -4.40394 0
M  V30 1844 N 176.557 -3.0782 -4.48049 0
M  V30 1845 H 180.359 -2.01399 -2.14046 0
M  V30 1846 H 177.873 -1.18401 -1.11153 0
M  V30 1847 H 179.87 -0.560959 -4.13109 0
M  V30 1848 H 178.53 0.207782 -3.24034 0
M  V30 1849 H 179.541 -3.43424 -3.8766 0
M  V30 1850 H 176.218 -0.862005 -4.08504 0
M  V30 1851 H 177.608 -4.86632 -4.63291 0
M  V30 1852 N 180.328 1.1314 -1.09713 0
M  V30 1853 C 181.276 2.20717 -0.733934 0
M  V30 1854 C 182.27 1.6729 0.266506 0
M  V30 1855 O 183.476 1.79547 0.127656 0
M  V30 1856 H 179.851 0.719292 -0.21937 0
M  V30 1857 H 181.822 2.48611 -1.6503 0
M  V30 1858 C 180.571 3.47265 -0.173849 0
M  V30 1859 H 179.894 3.88716 -0.934873 0
M  V30 1860 H 181.334 4.23979 0.0423126 0
M  V30 1861 C 179.793 3.18724 1.09164 0
M  V30 1862 O 180.323 3.37762 2.17439 0
M  V30 1863 N 178.529 2.72583 1.00732 0
M  V30 1864 H 178.076 2.57291 0.126121 0
M  V30 1865 H 178.034 2.53862 1.85476 0
M  V30 1866 N 181.806 0.884767 1.30421 0
M  V30 1867 C 183.034 0.518044 2.0031 0
M  V30 1868 C 183.449 -0.893408 1.66324 0
M  V30 1869 O 182.806 -1.5875 0.900262 0
M  V30 1870 C 182.857 0.682997 3.54989 0
M  V30 1871 O 182.578 2.03888 3.87764 0
M  V30 1872 C 184.079 0.31924 4.42149 0
M  V30 1873 H 181.299 0.200265 0.640418 0
M  V30 1874 H 183.843 1.19001 1.6631 0
M  V30 1875 H 181.998 0.0584052 3.87356 0
M  V30 1876 H 182.412 2.05735 4.82466 0
M  V30 1877 H 183.886 0.485555 5.4986 0
M  V30 1878 H 184.363 -0.742717 4.32875 0
M  V30 1879 H 184.969 0.920147 4.15227 0
M  V30 1880 N 183.284 -1.43765 0.645699 0
M  V30 1881 C 184.532 -2.01499 0.155731 0
M  V30 1882 C 184.853 -1.51151 -1.232 0
M  V30 1883 O 184.123 -0.721044 -1.82148 0
M  V30 1884 H 182.703 -0.745003 0.0545817 0
M  V30 1885 H 185.365 -1.76075 0.835677 0
M  V30 1886 H 184.461 -3.1181 0.134577 0
M  V30 1887 N 184.763 -0.387143 -1.52771 0
M  V30 1888 C 185.713 0.465942 -2.23188 0
M  V30 1889 C 186.697 1.03138 -1.23496 0
M  V30 1890 O 187.889 0.957845 -1.48843 0
M  V30 1891 C 185.018 1.59384 -3.04059 0
M  V30 1892 C 184.104 1.04024 -4.11144 0
M  V30 1893 N 184.495 0.211416 -5.05358 0
M  V30 1894 C 182.793 1.31295 -4.26237 0
M  V30 1895 C 183.494 -0.0941698 -5.81624 0
M  V30 1896 N 182.47 0.509207 -5.4121 0
M  V30 1897 H 186.272 -0.173856 -2.93385 0
M  V30 1898 H 183.786 -0.19633 -1.61209 0
M  V30 1899 H 185.783 2.21738 -3.53041 0
M  V30 1900 H 184.443 2.23648 -2.35397 0
M  V30 1901 H 185.454 -0.151151 -5.17679 0
M  V30 1902 H 182.131 1.95679 -3.68803 0
M  V30 1903 H 183.521 -0.765572 -6.67524 0
M  V30 1904 N 186.241 1.57166 -0.116904 0
M  V30 1905 C 187.466 1.999 0.55271 0
M  V30 1906 C 187.891 0.996039 1.59564 0
M  V30 1907 O 187.249 -0.032556 1.81271 0
M  V30 1908 C 187.297 3.4152 1.15742 0
M  V30 1909 O 186.401 3.44106 2.27299 0
M  V30 1910 H 185.742 0.649447 0.138258 0
M  V30 1911 H 188.272 2.03573 -0.204759 0
M  V30 1912 H 188.282 3.79684 1.49346 0
M  V30 1913 H 186.957 4.14034 0.393493 0
M  V30 1914 H 185.534 3.17759 1.9515 0
M  V30 1915 N 187.719 -0.156864 1.56817 0
M  V30 1916 C 189.13 -0.717916 1.72345 0
M  V30 1917 C 189.481 -1.82124 0.729747 0
M  V30 1918 O 188.606 -2.16141 -0.105781 0
M  V30 1919 C 189.201 -1.30904 3.12489 0
M  V30 1920 C 187.76 -1.81676 3.29653 0
M  V30 1921 C 186.907 -0.701349 2.68284 0
M  V30 1922 H 189.858 0.0686989 1.58551 0
M  V30 1923 H 189.879 -2.17882 3.11942 0
M  V30 1924 H 189.391 -0.505796 3.8479 0
M  V30 1925 H 187.492 -2.64598 2.62333 0
M  V30 1926 H 187.605 -1.95226 4.3752 0
M  V30 1927 H 185.969 -1.12548 2.28484 0
M  V30 1928 H 186.752 0.0902846 3.43181 0
M  V30 1929 N 189.197 -1.51736 -0.425897 0
M  V30 1930 C 190.445 -1.64644 -1.17204 0
M  V30 1931 C 190.766 -0.370486 -1.91448 0
M  V30 1932 O 190.036 0.614088 -1.86026 0
M  V30 1933 H 188.616 -0.606819 -0.435638 0
M  V30 1934 H 191.278 -1.88713 -0.487177 0
M  V30 1935 H 190.374 -2.47958 -1.89534 0
M  V30 1936 N 190.675 0.682077 -1.42076 0
M  V30 1937 C 191.923 1.4393 -1.41876 0
M  V30 1938 C 192.244 1.94971 -0.0335599 0
M  V30 1939 O 191.514 1.72591 0.926773 0
M  V30 1940 H 190.094 0.534085 -0.522267 0
M  V30 1941 H 192.756 0.806427 -1.77434 0
M  V30 1942 H 191.852 2.29588 -2.11414 0
M  V30 1943 N 192.153 1.28127 0.917671 0
M  V30 1944 C 193.378 1.18007 1.70555 0
M  V30 1945 C 193.803 -0.258257 1.86319 0
M  V30 1946 O 193.161 -1.1869 1.37049 0
M  V30 1947 C 193.209 1.87948 3.07746 0
M  V30 1948 O 192.313 1.18427 3.9503 0
M  V30 1949 H 191.654 0.409867 0.522403 0
M  V30 1950 H 194.184 1.69379 1.1477 0
M  V30 1951 H 194.194 1.95701 3.58001 0
M  V30 1952 H 192.869 2.92573 2.95591 0
M  V30 1953 H 191.446 1.18811 3.53466 0
M  V30 1954 N 193.631 -1.12557 1.10312 0
M  V30 1955 C 194.856 -1.88405 0.867085 0
M  V30 1956 C 195.281 -1.79038 -0.576817 0
M  V30 1957 O 194.639 -1.14439 -1.40618 0
M  V30 1958 C 194.687 -3.3563 1.31851 0
M  V30 1959 O 193.791 -4.09565 0.482734 0
M  V30 1960 H 193.132 -0.585455 0.313271 0
M  V30 1961 H 195.662 -1.42352 1.4696 0
M  V30 1962 H 195.672 -3.86469 1.3079 0
M  V30 1963 H 194.347 -3.41765 2.37001 0
M  V30 1964 H 192.924 -3.68695 0.558448 0
M  V30 1965 N 195.109 -0.891671 -1.2995 0
M  V30 1966 C 196.334 -0.527932 -2.00568 0
M  V30 1967 C 196.759 0.877969 -1.66353 0
M  V30 1968 O 196.117 1.58301 -0.883762 0
M  V30 1969 C 196.165 -0.717745 -3.53385 0
M  V30 1970 O 195.269 0.233376 -4.11739 0
M  V30 1971 H 194.61 -0.20722 -0.630837 0
M  V30 1972 H 197.14 -1.20105 -1.65638 0
M  V30 1973 H 197.15 -0.619307 -4.03272 0
M  V30 1974 H 195.825 -1.74276 -3.77625 0
M  V30 1975 H 194.402 0.0880706 -3.72796 0
M  V30 1976 N 196.587 1.43421 -0.653314 0
M  V30 1977 C 197.835 2.01414 -0.166415 0
M  V30 1978 C 198.156 1.51803 1.22397 0
M  V30 1979 O 197.426 0.730693 1.81763 0
M  V30 1980 H 196.006 0.744703 -0.0585319 0
M  V30 1981 H 198.668 1.75629 -0.845003 0
M  V30 1982 H 197.764 3.11734 -0.151111 0
M  V30 1983 N 198.065 0.39524 1.52563 0
M  V30 1984 C 199.29 -0.187456 2.06551 0
M  V30 1985 C 199.715 -1.39249 1.26457 0
M  V30 1986 O 199.073 -1.78947 0.291151 0
M  V30 1987 C 199.121 -0.529985 3.56684 0
M  V30 1988 O 198.225 -1.62307 3.79118 0
M  V30 1989 H 197.566 -0.0202537 0.663691 0
M  V30 1990 H 200.096 0.564426 1.96661 0
M  V30 1991 H 200.106 -0.792598 4.00227 0
M  V30 1992 H 198.781 0.350987 4.14416 0
M  V30 1993 H 197.358 -1.3537 3.47461 0
M  V30 1994 N 199.544 -1.57102 0.125237 0
M  V30 1995 C 200.507 -2.14471 -0.80838 0
M  V30 1996 C 201.507 -1.0811 -1.19033 0
M  V30 1997 O 202.697 -1.33856 -1.11482 0
M  V30 1998 C 199.829 -2.69005 -2.09402 0
M  V30 1999 H 201.022 -2.98297 -0.309696 0
M  V30 2000 H 198.575 -1.55807 -0.124051 0
M  V30 2001 H 199.31 -1.88785 -2.63687 0
M  V30 2002 H 199.095 -3.46799 -1.82957 0
M  V30 2003 H 200.585 -3.13278 -2.76128 0
M  V30 2004 N 201.022 0.148545 -1.56898 0
M  V30 2005 C 201.985 1.16736 -1.97244 0
M  V30 2006 C 202.985 1.35947 -0.858777 0
M  V30 2007 O 204.175 1.32966 -1.12542 0
M  V30 2008 C 201.307 2.52798 -2.28705 0
M  V30 2009 H 202.5 0.821279 -2.88435 0
M  V30 2010 H 200.053 0.391831 -1.51309 0
M  V30 2011 H 200.788 2.92381 -1.403 0
M  V30 2012 H 200.573 2.40216 -3.09901 0
M  V30 2013 H 202.063 3.26179 -2.60762 0
M  V30 2014 N 202.5 1.5196 0.417844 0
M  V30 2015 C 203.463 1.74065 1.49111 0
M  V30 2016 C 204.463 0.610537 1.48758 0
M  V30 2017 O 205.653 0.87832 1.50437 0
M  V30 2018 C 202.785 1.81502 2.88565 0
M  V30 2019 H 203.978 2.69869 1.30807 0
M  V30 2020 H 201.531 1.42244 0.647785 0
M  V30 2021 H 202.266 0.875813 3.1225 0
M  V30 2022 H 202.051 2.63651 2.90225 0
M  V30 2023 H 203.541 2.00376 3.66387 0
M  V30 2024 N 203.978 -0.674533 1.42435 0
M  V30 2025 C 205.224 -1.43671 1.43131 0
M  V30 2026 C 205.557 -1.94142 0.0476021 0
M  V30 2027 O 204.832 -1.70924 -0.928188 0
M  V30 2028 C 205.115 -2.63355 2.45594 0
M  V30 2029 C 204.968 -2.18514 3.93156 0
M  V30 2030 C 206.287 -3.65571 2.45043 0
M  V30 2031 H 203.406 -0.521077 0.521198 0
M  V30 2032 H 206.048 -0.766551 1.7385 0
M  V30 2033 H 204.198 -3.2053 2.19528 0
M  V30 2034 H 205.87 -1.66504 4.30202 0
M  V30 2035 H 204.113 -1.50086 4.07009 0
M  V30 2036 H 204.784 -3.04484 4.60428 0
M  V30 2037 H 207.26 -3.18113 2.68223 0
M  V30 2038 H 206.136 -4.46893 3.18713 0
M  V30 2039 H 206.397 -4.16716 1.47649 0
M  V30 2040 N 205.456 -1.28612 -0.910864 0
M  V30 2041 C 206.704 -1.15705 -1.65701 0
M  V30 2042 C 207.025 0.29416 -1.92769 0
M  V30 2043 O 206.295 1.20331 -1.54588 0
M  V30 2044 H 204.875 -0.425216 -0.614167 0
M  V30 2045 H 207.537 -1.61381 -1.0928 0
M  V30 2046 H 206.633 -1.6988 -2.61815 0
M  V30 2047 N 206.934 1.1197 -1.10907 0
M  V30 2048 C 207.897 2.16031 -0.765707 0
M  V30 2049 C 208.897 1.59393 0.212235 0
M  V30 2050 O 210.087 1.74196 -0.0115441 0
M  V30 2051 C 207.219 3.40632 -0.135053 0
M  V30 2052 H 208.412 2.47919 -1.68748 0
M  V30 2053 H 205.965 1.27061 -0.910226 0
M  V30 2054 H 206.7 3.14348 0.797218 0
M  V30 2055 H 206.485 3.8302 -0.838937 0
M  V30 2056 H 207.975 4.17505 0.0892469 0
M  V30 2057 N 208.412 0.89855 1.29475 0
M  V30 2058 C 209.66 0.522847 1.9522 0
M  V30 2059 C 209.981 -0.93371 1.71192 0
M  V30 2060 O 209.251 -1.65823 1.04305 0
M  V30 2061 H 207.831 0.190366 0.722336 0
M  V30 2062 H 210.493 1.14459 1.5775 0
M  V30 2063 H 209.589 0.704476 3.04045 0
M  V30 2064 N 209.89 -1.43072 0.660911 0
M  V30 2065 C 210.823 -2.28074 -0.0758862 0
M  V30 2066 C 211.801 -1.40271 -0.822362 0
M  V30 2067 O 212.985 -1.69713 -0.820352 0
M  V30 2068 C 210.112 -3.19843 -1.11437 0
M  V30 2069 C 209.158 -4.23957 -0.465069 0
M  V30 2070 S 209.991 -5.29978 0.767078 0
M  V30 2071 C 211.147 -6.25314 -0.270682 0
M  V30 2072 H 211.38 -2.90216 0.645139 0
M  V30 2073 H 208.913 -1.47697 0.449995 0
M  V30 2074 H 210.871 -3.73257 -1.70849 0
M  V30 2075 H 209.532 -2.56863 -1.80776 0
M  V30 2076 H 208.725 -4.88299 -1.24819 0
M  V30 2077 H 208.327 -3.73959 0.0551242 0
M  V30 2078 H 210.619 -6.67932 -1.13459 0
M  V30 2079 H 211.562 -7.07293 0.337916 0
M  V30 2080 H 211.97 -5.61195 -0.609937 0
M  V30 2081 N 211.368 -0.403325 -1.52352 0
M  V30 2082 C 212.617 0.175668 -2.00934 0
M  V30 2083 C 212.93 1.46718 -1.29356 0
M  V30 2084 O 214.136 2.12708 -1.68724 0
M  V30 2085 C 212.592 0.363612 -3.58058 0
M  V30 2086 C 212.2 -0.915472 -4.38547 0
M  V30 2087 C 213.944 0.89821 -4.14888 0
M  V30 2088 C 211.851 -0.695035 -5.87302 0
M  V30 2089 H 210.781 0.0694234 -0.750797 0
M  V30 2090 H 213.432 -0.527879 -1.75743 0
M  V30 2091 H 211.814 1.12935 -3.79555 0
M  V30 2092 H 212.988 -1.68691 -4.28812 0
M  V30 2093 H 211.303 -1.37606 -3.93006 0
M  V30 2094 H 213.9 1.07907 -5.23699 0
M  V30 2095 H 214.243 1.87126 -3.71873 0
M  V30 2096 H 214.776 0.191681 -3.97338 0
M  V30 2097 H 211.515 -1.63948 -6.34666 0
M  V30 2098 H 211.035 0.0372116 -5.99788 0
M  V30 2099 H 212.714 -0.33497 -6.46132 0
M  V30 2100 N 212.846 1.57033 -0.133567 0
M  V30 2101 C 214.257 1.82593 0.389464 0
M  V30 2102 C 214.608 1.05156 1.6564 0
M  V30 2103 O 213.733 0.292644 2.14412 0
M  V30 2104 C 214.328 3.31204 0.713377 0
M  V30 2105 C 212.887 3.57393 1.18098 0
M  V30 2106 C 212.034 2.76598 0.197126 0
M  V30 2107 H 214.985 1.54598 -0.358481 0
M  V30 2108 H 215.006 3.46627 1.56939 0
M  V30 2109 H 214.518 3.87537 -0.2089 0
M  V30 2110 H 212.619 3.06433 2.11966 0
M  V30 2111 H 212.732 4.65915 1.11624 0
M  V30 2112 H 211.096 2.45257 0.687088 0
M  V30 2113 H 211.879 3.35697 -0.718504 0
M  V30 2114 N 214.325 -0.140222 1.56975 0
M  V30 2115 C 215.255 -1.17456 2.01808 0
M  V30 2116 C 216.236 -1.44415 0.898794 0
M  V30 2117 O 217.421 -1.5522 1.16707 0
M  V30 2118 C 214.551 -2.50607 2.40444 0
M  V30 2119 C 213.505 -2.38155 3.55621 0
M  V30 2120 C 212.831 -3.76078 3.80091 0
M  V30 2121 C 214.131 -1.85991 4.88062 0
M  V30 2122 H 215.825 -0.801743 2.88466 0
M  V30 2123 H 213.371 -0.38422 1.38779 0
M  V30 2124 H 215.324 -3.23197 2.7041 0
M  V30 2125 H 214.048 -2.89737 1.50732 0
M  V30 2126 H 212.707 -1.68016 3.25832 0
M  V30 2127 H 212.355 -4.12656 2.87618 0
M  V30 2128 H 212.055 -3.68606 4.57606 0
M  V30 2129 H 213.579 -4.50206 4.12488 0
M  V30 2130 H 214.993 -2.4838 5.16701 0
M  V30 2131 H 213.39 -1.89393 5.6943 0
M  V30 2132 H 214.46 -0.816023 4.77984 0
M  V30 2133 N 215.803 -1.52179 -0.40978 0
M  V30 2134 C 216.766 -1.74853 -1.48186 0
M  V30 2135 C 217.766 -0.618417 -1.48433 0
M  V30 2136 O 218.956 -0.886286 -1.49969 0
M  V30 2137 C 216.088 -1.8303 -2.87598 0
M  V30 2138 H 217.281 -2.70559 -1.29374 0
M  V30 2139 H 214.834 -1.42586 -0.640233 0
M  V30 2140 H 215.569 -0.89236 -3.11781 0
M  V30 2141 H 215.354 -2.65187 -2.88822 0
M  V30 2142 H 216.844 -2.02316 -3.65319 0
M  V30 2143 N 217.281 0.66697 -1.42791 0
M  V30 2144 C 218.211 1.79218 -1.49677 0
M  V30 2145 C 219.192 1.66405 -0.352623 0
M  V30 2146 O 220.377 1.85708 -0.567993 0
M  V30 2147 C 217.507 3.17565 -1.40605 0
M  V30 2148 C 216.461 3.45124 -2.53127 0
M  V30 2149 C 215.787 4.83127 -2.29112 0
M  V30 2150 C 217.087 3.41236 -3.95418 0
M  V30 2151 H 218.781 1.73713 -2.43853 0
M  V30 2152 H 216.327 0.83432 -1.17367 0
M  V30 2153 H 218.28 3.96022 -1.44029 0
M  V30 2154 H 217.004 3.23767 -0.429271 0
M  V30 2155 H 215.663 2.69031 -2.49034 0
M  V30 2156 H 215.311 4.85988 -1.29709 0
M  V30 2157 H 215.011 5.02528 -3.04531 0
M  V30 2158 H 216.535 5.63859 -2.34297 0
M  V30 2159 H 217.949 4.09651 -4.01073 0
M  V30 2160 H 216.346 3.72173 -4.70752 0
M  V30 2161 H 217.416 2.39665 -4.21532 0
M  V30 2162 N 218.759 1.29093 0.90403 0
M  V30 2163 C 220.007 1.16583 1.65085 0
M  V30 2164 C 220.328 -0.283933 1.92922 0
M  V30 2165 O 219.598 -1.19509 1.55224 0
M  V30 2166 H 218.178 0.428467 0.611903 0
M  V30 2167 H 220.84 1.61959 1.08422 0
M  V30 2168 H 219.936 1.71266 2.6091 0
M  V30 2169 N 220.237 -1.11381 1.11499 0
M  V30 2170 C 221.465 -1.86934 0.88675 0
M  V30 2171 C 221.88 -1.80195 -0.563476 0
M  V30 2172 O 221.237 -1.18367 -1.38908 0
M  V30 2173 C 221.288 -3.35722 1.34064 0
M  V30 2174 O 221.009 -3.4232 2.73401 0
M  V30 2175 C 222.51 -4.2818 1.14791 0
M  V30 2176 H 219.73 -0.591117 0.317523 0
M  V30 2177 H 222.274 -1.40865 1.48248 0
M  V30 2178 H 220.429 -3.79294 0.788355 0
M  V30 2179 H 220.843 -4.34971 2.93087 0
M  V30 2180 H 222.317 -5.30817 1.5145 0
M  V30 2181 H 222.794 -4.39113 0.0875279 0
M  V30 2182 H 223.4 -3.90402 1.68721 0
M  V30 2183 N 221.715 -0.905404 -1.28997 0
M  V30 2184 C 222.647 -0.344748 -2.26592 0
M  V30 2185 C 223.66 0.512135 -1.54535 0
M  V30 2186 O 224.849 0.328368 -1.75454 0
M  V30 2187 C 221.949 0.526587 -3.34784 0
M  V30 2188 C 221.122 -0.305871 -4.36329 0
M  V30 2189 C 220.181 0.499209 -5.23827 0
M  V30 2190 O 219.207 -0.0853004 -5.69136 0
M  V30 2191 N 220.409 1.80408 -5.51755 0
M  V30 2192 H 223.174 -1.18359 -2.75338 0
M  V30 2193 H 220.735 -0.770481 -1.42391 0
M  V30 2194 H 222.727 1.07171 -3.90252 0
M  V30 2195 H 221.297 1.26613 -2.85811 0
M  V30 2196 H 220.517 -1.0324 -3.80441 0
M  V30 2197 H 221.805 -0.875773 -5.01206 0
M  V30 2198 H 221.203 2.3016 -5.16762 0
M  V30 2199 H 219.76 2.29621 -6.10014 0
M  V30 2200 N 223.193 1.4272 -0.668489 0
M  V30 2201 C 224.421 2.05966 -0.196348 0
M  V30 2202 C 224.836 1.50191 1.14403 0
M  V30 2203 O 224.193 0.639208 1.7094 0
M  V30 2204 C 224.244 3.61314 -0.115815 0
M  V30 2205 O 223.965 4.1502 -1.40322 0
M  V30 2206 C 225.466 4.41663 0.380579 0
M  V30 2207 H 222.686 0.663954 -0.0969829 0
M  V30 2208 H 225.23 1.82966 -0.913446 0
M  V30 2209 H 223.385 3.83448 0.551931 0
M  V30 2210 H 223.799 5.08832 -1.27243 0
M  V30 2211 H 225.273 5.5065 0.385848 0
M  V30 2212 H 225.75 4.15792 1.41471 0
M  V30 2213 H 226.356 4.24534 -0.255209 0
M  V30 2214 N 224.671 0.411399 1.52136 0
M  V30 2215 C 225.919 -0.163322 2.01439 0
M  V30 2216 C 226.24 -1.45453 1.29879 0
M  V30 2217 O 225.51 -1.91225 0.4254 0
M  V30 2218 H 224.09 -0.0633447 0.744309 0
M  V30 2219 H 226.752 0.548161 1.87033 0
M  V30 2220 H 225.848 -0.357817 3.10042 0
M  V30 2221 N 226.149 -1.5696 0.141893 0
M  V30 2222 C 227.397 -1.95573 -0.509484 0
M  V30 2223 C 227.718 -1.02746 -1.65736 0
M  V30 2224 O 226.988 -0.0880311 -1.95702 0
M  V30 2225 H 225.568 -0.722115 -0.191205 0
M  V30 2226 H 228.23 -1.93697 0.216196 0
M  V30 2227 H 227.326 -2.99171 -0.889 0
M  V30 2228 N 227.627 0.131896 -1.57047 0
M  V30 2229 C 228.852 0.860418 -1.8871 0
M  V30 2230 C 229.277 1.73251 -0.73251 0
M  V30 2231 O 228.635 1.785 0.317429 0
M  V30 2232 C 228.683 1.68047 -3.19049 0
M  V30 2233 O 227.787 2.7862 -3.04047 0
M  V30 2234 H 227.128 0.238743 -0.619595 0
M  V30 2235 H 229.658 0.118169 -2.04258 0
M  V30 2236 H 229.668 2.07238 -3.51449 0
M  V30 2237 H 228.343 1.04018 -4.02682 0
M  V30 2238 H 226.92 2.42726 -2.83088 0
M  V30 2239 N 229.106 1.52395 0.401703 0
M  V30 2240 C 230.352 1.67065 1.14966 0
M  V30 2241 C 230.685 0.403052 1.89971 0
M  V30 2242 O 229.96 -0.598774 1.85054 0
M  V30 2243 C 230.243 2.8975 2.13815 0
M  V30 2244 C 230.096 4.26578 1.42658 0
M  V30 2245 C 231.415 3.07965 3.14397 0
M  V30 2246 H 228.534 0.607968 0.416587 0
M  V30 2247 H 231.176 1.84965 0.434511 0
M  V30 2248 H 229.326 2.74619 2.74803 0
M  V30 2249 H 230.998 4.53451 0.847329 0
M  V30 2250 H 229.241 4.27639 0.72849 0
M  V30 2251 H 229.912 5.08483 2.14823 0
M  V30 2252 H 232.388 3.22043 2.63491 0
M  V30 2253 H 231.264 3.95308 3.80819 0
M  V30 2254 H 231.525 2.21611 3.82545 0
M  V30 2255 N 230.584 -0.659388 1.43143 0
M  V30 2256 C 231.833 -1.41518 1.43721 0
M  V30 2257 C 232.146 -1.95499 0.0628176 0
M  V30 2258 O 233.352 -2.71446 -0.0539683 0
M  V30 2259 C 231.808 -2.5608 2.52885 0
M  V30 2260 C 231.416 -2.08733 3.96402 0
M  V30 2261 C 233.16 -3.3349 2.62649 0
M  V30 2262 C 231.067 -3.20469 4.97045 0
M  V30 2263 H 229.997 -0.531705 0.534608 0
M  V30 2264 H 232.648 -0.712343 1.69109 0
M  V30 2265 H 231.03 -3.28805 2.20688 0
M  V30 2266 H 232.204 -1.43059 4.3803 0
M  V30 2267 H 230.519 -1.44219 3.90627 0
M  V30 2268 H 233.116 -4.16734 3.35017 0
M  V30 2269 H 233.459 -3.8111 1.67513 0
M  V30 2270 H 233.992 -2.67842 2.94118 0
M  V30 2271 H 230.731 -2.77824 5.93712 0
M  V30 2272 H 230.251 -3.84874 4.60034 0
M  V30 2273 H 231.93 -3.85698 5.19467 0
M  V30 2274 N 232.062 -1.29571 -0.897171 0
M  V30 2275 C 233.478 -1.07637 -1.17841 0
M  V30 2276 C 233.678 0.170713 -2.00776 0
M  V30 2277 O 232.734 0.867768 -2.3712 0
M  V30 2278 C 234.047 -2.3332 -1.8969 0
M  V30 2279 C 235.595 -2.38664 -2.02505 0
M  V30 2280 C 236.07 -3.64157 -2.77765 0
M  V30 2281 N 237.561 -3.64894 -2.85318 0
M  V30 2282 C 238.296 -4.58679 -3.44094 0
M  V30 2283 N 237.792 -5.62799 -4.04017 0
M  V30 2284 N 239.585 -4.46245 -3.41793 0
M  V30 2285 H 231.736 -2.09598 -0.343883 0
M  V30 2286 H 233.999 -0.923333 -0.214848 0
M  V30 2287 H 233.705 -3.24262 -1.36187 0
M  V30 2288 H 233.579 -2.41025 -2.9015 0
M  V30 2289 H 235.966 -1.48208 -2.55183 0
M  V30 2290 H 236.047 -2.34943 -1.01171 0
M  V30 2291 H 235.691 -4.54965 -2.25763 0
M  V30 2292 H 235.621 -3.65137 -3.7945 0
M  V30 2293 H 238.112 -2.89613 -2.42761 0
M  V30 2294 H 238.425 -6.3048 -4.46895 0
M  V30 2295 H 236.77 -5.66605 -4.02472 0
M  V30 2296 H 239.961 -3.64094 -2.94199 0
M  V30 2297 H 240.134 -5.19518 -3.87304 0
M  V30 2298 N 233.54 1.10788 -1.12088 0
M  V30 2299 C 234.951 1.64181 -0.88891 0
M  V30 2300 C 235.302 1.87508 0.577498 0
M  V30 2301 O 234.427 1.61434 1.44112 0
M  V30 2302 C 235.022 2.98257 -1.60712 0
M  V30 2303 C 233.581 3.4853 -1.42139 0
M  V30 2304 C 232.728 2.23208 -1.6454 0
M  V30 2305 H 235.679 0.943368 -1.27618 0
M  V30 2306 H 235.7 3.65552 -1.05604 0
M  V30 2307 H 235.212 2.81246 -2.67436 0
M  V30 2308 H 233.313 3.70692 -0.376552 0
M  V30 2309 H 233.426 4.26882 -2.17505 0
M  V30 2310 H 231.79 2.31169 -1.06925 0
M  V30 2311 H 232.573 2.08733 -2.72554 0
M  V30 2312 N 235.018 0.912232 1.28515 0
M  V30 2313 C 235.981 0.404223 2.25607 0
M  V30 2314 C 236.981 -0.468602 1.53821 0
M  V30 2315 O 238.171 -0.271873 1.72065 0
M  V30 2316 C 235.303 -0.420653 3.38295 0
M  V30 2317 H 236.496 1.26188 2.7206 0
M  V30 2318 H 234.049 0.691495 1.40171 0
M  V30 2319 H 234.784 -1.29777 2.97201 0
M  V30 2320 H 234.569 0.204935 3.91564 0
M  V30 2321 H 236.059 -0.766971 4.10496 0
M  V30 2322 N 236.496 -1.42363 0.676048 0
M  V30 2323 C 237.459 -2.29199 0.00766941 0
M  V30 2324 C 238.459 -1.43389 -0.727745 0
M  V30 2325 O 239.649 -1.64764 -0.56556 0
M  V30 2326 C 236.781 -3.2591 -0.999785 0
M  V30 2327 H 237.974 -2.89794 0.771988 0
M  V30 2328 H 235.527 -1.50024 0.438468 0
M  V30 2329 H 236.262 -2.70256 -1.79255 0
M  V30 2330 H 236.047 -3.89202 -0.475829 0
M  V30 2331 H 237.537 -3.91028 -1.46583 0
M  V30 2332 N 237.974 -0.419461 -1.51915 0
M  V30 2333 C 239.204 0.151915 -2.06041 0
M  V30 2334 C 239.612 1.38539 -1.28855 0
M  V30 2335 O 238.955 1.80592 -0.336463 0
M  V30 2336 C 239.017 0.557119 -3.55157 0
M  V30 2337 C 238.681 -0.567054 -4.53468 0
M  V30 2338 C 239.678 -1.43379 -4.99738 0
M  V30 2339 C 237.363 -0.742693 -4.96779 0
M  V30 2340 C 239.357 -2.46102 -5.87973 0
M  V30 2341 C 237.044 -1.77322 -5.84808 0
M  V30 2342 C 238.042 -2.63078 -6.30301 0
M  V30 2343 O 237.73 -3.64364 -7.16585 0
M  V30 2344 H 237.462 0.0193293 -0.675724 0
M  V30 2345 H 240.016 -0.592073 -1.96682 0
M  V30 2346 H 238.246 1.35355 -3.62238 0
M  V30 2347 H 239.935 1.05759 -3.9188 0
M  V30 2348 H 240.701 -1.30954 -4.66986 0
M  V30 2349 H 236.58 -0.0848307 -4.60922 0
M  V30 2350 H 240.124 -3.13071 -6.23404 0
M  V30 2351 H 236.021 -1.89773 -6.16974 0
M  V30 2352 H 236.789 -3.60731 -7.34721 0
M  V30 2353 N 239.452 1.56882 -0.150215 0
M  V30 2354 C 240.692 1.98119 0.502804 0
M  V30 2355 C 241.056 1.03327 1.61826 0
M  V30 2356 O 242.257 1.33621 2.33236 0
M  V30 2357 C 240.528 3.43329 0.992988 0
M  V30 2358 S 242.087 4.0659 1.65015 0
M  V30 2359 H 238.905 0.692189 0.162467 0
M  V30 2360 H 241.507 1.93988 -0.242689 0
M  V30 2361 H 240.211 4.10046 0.170436 0
M  V30 2362 H 239.742 3.5118 1.77303 0
M  V30 2363 H 241.757 3.99906 2.93752 0
M  V30 2364 N 240.93 -0.123565 1.57115 0
M  V30 2365 C 242.178 -0.83051 1.84247 0
M  V30 2366 C 242.499 -1.80629 0.73471 0
M  V30 2367 O 241.769 -1.94403 -0.241688 0
M  V30 2368 H 240.349 -0.309694 0.679778 0
M  V30 2369 H 243.011 -0.111976 1.94578 0
M  V30 2370 H 242.107 -1.37852 2.80006 0
M  V30 2371 N 242.408 -1.52605 -0.393616 0
M  V30 2372 C 243.636 -1.71294 -1.16043 0
M  V30 2373 C 244.051 -0.429259 -1.83855 0
M  V30 2374 O 243.408 0.595921 -1.72496 0
M  V30 2375 C 243.459 -2.8593 -2.21193 0
M  V30 2376 O 243.18 -4.09329 -1.56146 0
M  V30 2377 C 244.681 -3.16259 -3.10636 0
M  V30 2378 H 241.901 -0.573641 -0.348104 0
M  V30 2379 H 244.445 -1.99234 -0.461092 0
M  V30 2380 H 242.6 -2.60465 -2.86769 0
M  V30 2381 H 243.014 -4.73323 -2.25978 0
M  V30 2382 H 244.488 -3.99946 -3.80456 0
M  V30 2383 H 244.965 -2.3045 -3.73884 0
M  V30 2384 H 245.571 -3.43547 -2.50711 0
M  V30 2385 N 243.887 0.651787 -1.4349 0
M  V30 2386 C 244.85 1.74647 -1.48429 0
M  V30 2387 C 245.85 1.56513 -0.368817 0
M  V30 2388 O 247.04 1.62385 -0.630623 0
M  V30 2389 C 244.172 3.13533 -1.33827 0
M  V30 2390 H 245.365 1.71649 -2.4592 0
M  V30 2391 H 242.918 0.863573 -1.30277 0
M  V30 2392 H 243.653 3.22142 -0.37349 0
M  V30 2393 H 243.438 3.28101 -2.14691 0
M  V30 2394 H 244.928 3.93356 -1.40218 0
M  V30 2395 N 245.365 1.30045 0.890287 0
M  V30 2396 C 246.328 1.15963 1.977 0
M  V30 2397 C 247.328 0.0923777 1.60534 0
M  V30 2398 O 248.518 0.340071 1.70848 0
M  V30 2399 C 245.65 0.775451 3.31963 0
M  V30 2400 H 246.843 2.12502 2.11619 0
M  V30 2401 H 244.396 1.13366 1.07601 0
M  V30 2402 H 245.131 -0.189671 3.23745 0
M  V30 2403 H 244.916 1.54668 3.60306 0
M  V30 2404 H 246.406 0.700251 4.11687 0
M  V30 2405 N 246.843 -1.10192 1.12674 0
M  V30 2406 C 248.092 -1.81573 0.8783 0
M  V30 2407 C 248.405 -1.86249 -0.597557 0
M  V30 2408 O 249.611 -2.5386 -0.962681 0
M  V30 2409 C 248.067 -3.26149 1.52167 0
M  V30 2410 C 247.675 -3.29763 3.03249 0
M  V30 2411 C 249.419 -4.0234 1.3536 0
M  V30 2412 C 247.326 -4.68815 3.60508 0
M  V30 2413 H 246.256 -0.680394 0.324931 0
M  V30 2414 H 248.907 -1.23902 1.35353 0
M  V30 2415 H 247.289 -3.83832 0.974104 0
M  V30 2416 H 248.463 -2.8189 3.6452 0
M  V30 2417 H 246.778 -2.67059 3.19481 0
M  V30 2418 H 249.375 -5.05058 1.75559 0
M  V30 2419 H 249.718 -4.15235 0.297554 0
M  V30 2420 H 250.251 -3.51079 1.87052 0
M  V30 2421 H 246.99 -4.61121 4.65884 0
M  V30 2422 H 246.51 -5.17045 3.04014 0
M  V30 2423 H 248.189 -5.37785 3.59717 0
M  V30 2424 N 248.321 -0.919034 -1.28029 0
M  V30 2425 C 249.268 -0.410005 -2.27129 0
M  V30 2426 C 250.238 0.518405 -1.57803 0
M  V30 2427 O 251.423 0.439451 -1.8567 0
M  V30 2428 C 248.563 0.339054 -3.4343 0
M  V30 2429 C 247.676 -0.622468 -4.27492 0
M  V30 2430 C 246.811 0.145567 -5.31001 0
M  V30 2431 C 245.85 -0.809226 -6.06727 0
M  V30 2432 N 244.987 -0.0743728 -7.02061 0
M  V30 2433 H 249.827 -1.26011 -2.70047 0
M  V30 2434 H 247.364 -0.632663 -1.328 0
M  V30 2435 H 249.322 0.789586 -4.0966 0
M  V30 2436 H 247.952 1.15346 -3.01488 0
M  V30 2437 H 247.004 -1.19153 -3.61257 0
M  V30 2438 H 248.316 -1.35252 -4.80113 0
M  V30 2439 H 247.47 0.656417 -6.03139 0
M  V30 2440 H 246.209 0.908643 -4.79161 0
M  V30 2441 H 245.214 -1.3314 -5.33436 0
M  V30 2442 H 246.439 -1.57194 -6.60656 0
M  V30 2443 H 244.385 0.670616 -6.52563 0
M  V30 2444 H 244.302 -0.744157 -7.52329 0
M  V30 2445 H 245.57 0.416109 -7.78389 0
M  V30 2446 N 249.799 1.42003 -0.683588 0
M  V30 2447 C 251.21 1.84501 -0.285736 0
M  V30 2448 C 251.561 1.57213 1.17382 0
M  V30 2449 O 250.686 1.03642 1.89966 0
M  V30 2450 C 251.281 3.34912 -0.511821 0
M  V30 2451 C 249.84 3.76025 -0.168005 0
M  V30 2452 C 248.987 2.6551 -0.799983 0
M  V30 2453 H 251.938 1.31724 -0.885119 0
M  V30 2454 H 251.959 3.79784 0.233292 0
M  V30 2455 H 251.471 3.54741 -1.57418 0
M  V30 2456 H 249.572 3.61801 0.890567 0
M  V30 2457 H 249.685 4.75141 -0.614661 0
M  V30 2458 H 248.049 2.53654 -0.230568 0
M  V30 2459 H 248.832 2.8816 -1.86597 0
M  V30 2460 N 251.277 0.427512 1.51691 0
M  V30 2461 C 252.502 -0.143601 2.06902 0
M  V30 2462 C 252.927 -1.36536 1.29382 0
M  V30 2463 O 252.285 -1.78289 0.329043 0
M  V30 2464 C 252.333 -0.454207 3.57728 0
M  V30 2465 O 251.437 -1.54228 3.82475 0
M  V30 2466 H 250.778 -0.00617128 0.663971 0
M  V30 2467 H 253.308 0.606014 1.95419 0
M  V30 2468 H 253.318 -0.707525 4.01818 0
M  V30 2469 H 251.993 0.438812 4.13579 0
M  V30 2470 H 250.57 -1.2797 3.50254 0
M  V30 2471 N 252.755 -1.56801 0.158532 0
M  V30 2472 C 254.002 -1.9649 -0.489679 0
M  V30 2473 C 254.33 -1.04394 -1.6411 0
M  V30 2474 O 253.585 -0.0754401 -1.95555 0
M  V30 2475 C 253.884 -3.4235 -1.02623 0
M  V30 2476 C 253.55 -4.50899 0.00794526 0
M  V30 2477 C 252.212 -4.80312 0.292207 0
M  V30 2478 C 254.564 -5.16333 0.710584 0
M  V30 2479 C 251.892 -5.72461 1.28472 0
M  V30 2480 C 254.244 -6.09553 1.69199 0
M  V30 2481 C 252.908 -6.37339 1.98383 0
M  V30 2482 H 252.178 -0.719009 -0.179186 0
M  V30 2483 H 254.825 -1.8989 0.247798 0
M  V30 2484 H 253.13 -3.45838 -1.84128 0
M  V30 2485 H 254.827 -3.70393 -1.53656 0
M  V30 2486 H 251.417 -4.28015 -0.22379 0
M  V30 2487 H 255.601 -4.93732 0.504174 0
M  V30 2488 H 250.857 -5.92278 1.51714 0
M  V30 2489 H 255.031 -6.59327 2.24189 0
M  V30 2490 H 252.658 -7.08546 2.7544 0
M  V30 2491 N 254.233 0.115231 -1.57178 0
M  V30 2492 C 255.649 0.468877 -1.52557 0
M  V30 2493 C 255.849 1.81649 -0.872125 0
M  V30 2494 O 254.905 2.48347 -0.45606 0
M  V30 2495 C 256.218 0.4499 -2.97315 0
M  V30 2496 C 257.766 0.533185 -3.08425 0
M  V30 2497 C 258.241 0.54456 -4.54751 0
M  V30 2498 N 259.732 0.605892 -4.5922 0
M  V30 2499 C 260.467 0.636203 -5.6986 0
M  V30 2500 N 259.963 0.623931 -6.89985 0
M  V30 2501 N 261.756 0.679496 -5.57978 0
M  V30 2502 H 253.907 -0.767712 -1.9804 0
M  V30 2503 H 256.17 -0.283609 -0.904583 0
M  V30 2504 H 255.876 -0.472721 -3.48509 0
M  V30 2505 H 255.75 1.27632 -3.5495 0
M  V30 2506 H 258.137 1.44623 -2.57232 0
M  V30 2507 H 258.218 -0.320995 -2.53778 0
M  V30 2508 H 257.862 -0.364452 -5.06591 0
M  V30 2509 H 257.792 1.41568 -5.07214 0
M  V30 2510 H 260.283 0.621386 -3.72756 0
M  V30 2511 H 260.596 0.649787 -7.70063 0
M  V30 2512 H 258.941 0.591296 -6.9248 0
M  V30 2513 H 262.132 0.686472 -4.63039 0
M  V30 2514 H 262.305 0.69965 -6.44212 0
M  V30 2515 N 255.711 1.52812 0.385517 0
M  V30 2516 C 256.644 1.72592 1.49289 0
M  V30 2517 C 257.622 0.573819 1.52138 0
M  V30 2518 O 258.806 0.80404 1.70492 0
M  V30 2519 C 255.933 1.78669 2.87741 0
M  V30 2520 C 254.979 3.00455 3.02703 0
M  V30 2521 S 255.812 4.60366 2.73538 0
M  V30 2522 C 256.968 4.69263 4.14177 0
M  V30 2523 H 257.201 2.66248 1.32285 0
M  V30 2524 H 254.734 1.43148 0.578611 0
M  V30 2525 H 256.692 1.82855 3.67524 0
M  V30 2526 H 255.353 0.861 3.02069 0
M  V30 2527 H 254.546 3.01258 4.04054 0
M  V30 2528 H 254.148 2.94278 2.30817 0
M  V30 2529 H 256.44 4.48092 5.08153 0
M  V30 2530 H 257.383 5.71276 4.18388 0
M  V30 2531 H 257.791 3.98072 4.00249 0
M  V30 2532 N 257.189 -0.644168 1.43834 0
M  V30 2533 C 258.119 -1.76814 1.52509 0
M  V30 2534 C 259.1 -1.65823 0.379052 0
M  V30 2535 O 260.285 -1.84781 0.597466 0
M  V30 2536 C 257.415 -3.15288 1.4564 0
M  V30 2537 C 256.369 -3.41053 2.58586 0
M  V30 2538 C 255.695 -4.79421 2.36769 0
M  V30 2539 C 256.995 -3.34902 4.00797 0
M  V30 2540 H 258.689 -1.69812 2.46586 0
M  V30 2541 H 256.235 -0.815542 1.1868 0
M  V30 2542 H 258.188 -3.93681 1.50311 0
M  V30 2543 H 256.912 -3.23043 0.480725 0
M  V30 2544 H 255.571 -2.65035 2.53282 0
M  V30 2545 H 255.219 -4.83863 1.37424 0
M  V30 2546 H 254.919 -4.9762 3.12487 0
M  V30 2547 H 256.443 -5.6006 2.43238 0
M  V30 2548 H 257.857 -4.03218 4.07539 0
M  V30 2549 H 256.254 -3.64637 4.76613 0
M  V30 2550 H 257.324 -2.32928 4.25291 0
M  V30 2551 N 258.668 -1.30515 -0.883378 0
M  V30 2552 C 260.079 -1.17509 -1.45081 0
M  V30 2553 C 260.43 0.223605 -1.94922 0
M  V30 2554 O 259.555 1.12041 -1.85137 0
M  V30 2555 C 260.15 -2.12715 -2.63701 0
M  V30 2556 C 258.709 -2.03682 -3.16529 0
M  V30 2557 C 257.856 -2.02706 -1.89224 0
M  V30 2558 H 260.807 -1.42762 -0.693165 0
M  V30 2559 H 260.828 -1.70891 -3.39965 0
M  V30 2560 H 260.34 -3.14505 -2.27395 0
M  V30 2561 H 258.441 -1.05039 -3.57488 0
M  V30 2562 H 258.554 -2.92146 -3.7972 0
M  V30 2563 H 256.918 -1.4753 -2.07622 0
M  V30 2564 H 257.701 -3.06229 -1.55174 0
M  V30 2565 N 260.146 1.09593 -1.13257 0
M  V30 2566 C 261.374 1.855 -0.916378 0
M  V30 2567 C 261.789 1.81069 0.534738 0
M  V30 2568 O 261.146 1.20562 1.37007 0
M  V30 2569 C 261.197 3.33546 -1.39388 0
M  V30 2570 O 260.918 3.37927 -2.78813 0
M  V30 2571 C 262.419 4.26299 -1.21588 0
M  V30 2572 H 259.639 0.585991 -0.326887 0
M  V30 2573 H 262.183 1.38488 -1.5047 0
M  V30 2574 H 260.338 3.77992 -0.848597 0
M  V30 2575 H 260.752 4.30254 -2.9997 0
M  V30 2576 H 262.226 5.28341 -1.59876 0
M  V30 2577 H 262.703 4.38918 -0.157376 0
M  V30 2578 H 263.309 3.87668 -1.7491 0
M  V30 2579 N 261.624 0.925811 1.2754 0
M  V30 2580 C 262.87 0.566092 1.94739 0
M  V30 2581 C 263.203 -0.890057 1.72603 0
M  V30 2582 O 262.478 -1.63467 1.05399 0
M  V30 2583 C 262.761 0.89054 3.48915 0
M  V30 2584 C 262.614 2.4003 3.80402 0
M  V30 2585 C 263.933 0.395101 4.38323 0
M  V30 2586 H 261.052 0.20714 0.707292 0
M  V30 2587 H 263.694 1.15725 1.50691 0
M  V30 2588 H 261.844 0.387452 3.86563 0
M  V30 2589 H 263.516 2.97494 3.52555 0
M  V30 2590 H 261.759 2.85028 3.2702 0
M  V30 2591 H 262.43 2.57785 4.8811 0
M  V30 2592 H 264.906 0.826241 4.07814 0
M  V30 2593 H 263.782 0.651086 5.45025 0
M  V30 2594 H 264.043 -0.704798 4.36446 0
M  V30 2595 N 263.102 -1.41638 0.69111 0
M  V30 2596 C 264.35 -2.00902 0.219758 0
M  V30 2597 C 264.671 -1.54994 -1.18329 0
M  V30 2598 O 263.941 -0.778628 -1.79762 0
M  V30 2599 H 262.521 -0.74289 0.0782558 0
M  V30 2600 H 265.183 -1.73327 0.891271 0
M  V30 2601 H 264.279 -3.11224 0.233708 0
M  V30 2602 N 264.58 -0.43555 -1.51462 0
M  V30 2603 C 265.826 0.131709 -2.02372 0
M  V30 2604 C 266.159 1.42516 -1.3192 0
M  V30 2605 O 265.434 1.89606 -0.433573 0
M  V30 2606 C 265.717 0.352301 -3.58373 0
M  V30 2607 C 265.57 -0.959676 -4.39443 0
M  V30 2608 C 266.889 1.12286 -4.25535 0
M  V30 2609 H 264.008 0.0463936 -0.735538 0
M  V30 2610 H 266.65 -0.574197 -1.81116 0
M  V30 2611 H 264.8 0.9536 -3.76615 0
M  V30 2612 H 266.472 -1.59482 -4.32855 0
M  V30 2613 H 264.715 -1.56468 -4.04599 0
M  V30 2614 H 265.386 -0.759394 -5.46752 0
M  V30 2615 H 267.862 0.613545 -4.11552 0
M  V30 2616 H 266.738 1.24598 -5.34571 0
M  V30 2617 H 266.999 2.15048 -3.86273 0
M  V30 2618 N 266.058 1.56714 -0.166846 0
M  V30 2619 C 267.005 2.17746 0.765193 0
M  V30 2620 C 267.975 1.11614 1.23011 0
M  V30 2621 O 269.16 1.39745 1.29908 0
M  V30 2622 C 266.3 2.81882 1.9909 0
M  V30 2623 C 265.413 4.02462 1.56997 0
M  V30 2624 C 264.548 4.54537 2.749 0
M  V30 2625 C 263.587 5.67538 2.29275 0
M  V30 2626 N 262.724 6.14142 3.40255 0
M  V30 2627 H 267.564 2.97048 0.237952 0
M  V30 2628 H 265.101 1.4672 0.105725 0
M  V30 2629 H 267.059 3.17221 2.70974 0
M  V30 2630 H 265.689 2.05191 2.49192 0
M  V30 2631 H 264.741 3.72973 0.748037 0
M  V30 2632 H 266.053 4.84273 1.19503 0
M  V30 2633 H 265.207 4.92035 3.54946 0
M  V30 2634 H 263.946 3.71774 3.1565 0
M  V30 2635 H 262.951 5.29597 1.47674 0
M  V30 2636 H 264.176 6.52099 1.89588 0
M  V30 2637 H 262.122 5.3431 3.8059 0
M  V30 2638 H 262.039 6.9093 3.06841 0
M  V30 2639 H 263.307 6.56289 4.206 0
M  V30 2640 N 267.536 -0.106894 1.57237 0
M  V30 2641 C 268.776 -0.818277 1.87306 0
M  V30 2642 C 269.14 -1.76474 0.756371 0
M  V30 2643 O 270.341 -2.5186 0.939155 0
M  V30 2644 C 268.612 -1.53806 3.22612 0
M  V30 2645 S 270.171 -2.28935 3.74345 0
M  V30 2646 H 266.989 -0.272862 0.656557 0
M  V30 2647 H 269.591 -0.075988 1.95352 0
M  V30 2648 H 268.295 -0.834951 4.01817 0
M  V30 2649 H 267.826 -2.32049 3.17674 0
M  V30 2650 H 269.841 -3.54871 3.46815 0
M  V30 2651 N 269.014 -1.53014 -0.377408 0
M  V30 2652 C 270.244 -1.72265 -1.14054 0
M  V30 2653 C 270.652 -0.44601 -1.83868 0
M  V30 2654 O 269.995 0.590095 -1.73964 0
M  V30 2655 C 270.057 -2.82492 -2.22348 0
M  V30 2656 C 269.721 -4.23233 -1.72402 0
M  V30 2657 C 270.718 -5.05992 -1.19448 0
M  V30 2658 C 268.403 -4.696 -1.78273 0
M  V30 2659 C 270.397 -6.33203 -0.730268 0
M  V30 2660 C 268.084 -5.96792 -1.31464 0
M  V30 2661 C 269.082 -6.78424 -0.789297 0
M  V30 2662 O 268.77 -8.0323 -0.328077 0
M  V30 2663 H 268.502 -0.579873 -0.347453 0
M  V30 2664 H 271.056 -2.00502 -0.445882 0
M  V30 2665 H 269.286 -2.49702 -2.95272 0
M  V30 2666 H 270.975 -2.90034 -2.83963 0
M  V30 2667 H 271.741 -4.71349 -1.14259 0
M  V30 2668 H 267.62 -4.06142 -2.18106 0
M  V30 2669 H 271.164 -6.96868 -0.319542 0
M  V30 2670 H 267.061 -6.30937 -1.36342 0
M  V30 2671 H 267.829 -8.1727 -0.448493 0
M  V30 2672 N 270.492 0.636531 -1.44174 0
M  V30 2673 C 271.717 1.42847 -1.50364 0
M  V30 2674 C 272.142 1.87665 -0.127867 0
M  V30 2675 O 271.5 1.58408 0.88185 0
M  V30 2676 C 271.548 2.62854 -2.4686 0
M  V30 2677 O 270.652 3.62501 -1.9664 0
M  V30 2678 H 269.993 0.427642 -0.507955 0
M  V30 2679 H 272.523 0.777422 -1.89255 0
M  V30 2680 H 272.533 3.10465 -2.64718 0
M  V30 2681 H 271.208 2.29578 -3.46795 0
M  V30 2682 H 269.785 3.21735 -1.88523 0
M  V30 2683 N 271.97 1.30982 0.876444 0
M  V30 2684 C 273.216 1.21484 1.63136 0
M  V30 2685 C 273.571 -0.226339 1.91064 0
M  V30 2686 O 272.864 -1.15788 1.52656 0
M  V30 2687 C 273.058 1.98572 2.9716 0
M  V30 2688 C 272.887 3.50039 2.82317 0
M  V30 2689 C 271.657 4.19393 2.81847 0
M  V30 2690 C 273.855 4.45111 2.57644 0
M  V30 2691 N 271.837 5.57061 2.57985 0
M  V30 2692 C 273.208 5.70402 2.42986 0
M  V30 2693 C 275.263 4.3461 2.42937 0
M  V30 2694 C 273.966 6.8638 2.15115 0
M  V30 2695 C 275.992 5.50365 2.16454 0
M  V30 2696 C 275.354 6.74642 2.02578 0
M  V30 2697 H 271.453 0.499632 0.601575 0
M  V30 2698 H 274.037 1.65094 1.03209 0
M  V30 2699 H 272.208 1.5734 3.55104 0
M  V30 2700 H 273.94 1.81146 3.61895 0
M  V30 2701 H 270.695 3.71303 2.93991 0
M  V30 2702 H 271.119 6.29529 2.49043 0
M  V30 2703 H 275.761 3.39199 2.52396 0
M  V30 2704 H 273.479 7.81824 2.04394 0
M  V30 2705 H 277.065 5.44154 2.05884 0
M  V30 2706 H 275.945 7.62699 1.82374 0
M  V30 2707 N 273.449 -1.08991 1.13837 0
M  V30 2708 C 274.412 -2.13925 0.822715 0
M  V30 2709 C 275.412 -1.599 -0.1699 0
M  V30 2710 O 276.602 -1.74104 0.0577251 0
M  V30 2711 C 273.734 -3.40155 0.225318 0
M  V30 2712 H 274.927 -2.43358 1.75262 0
M  V30 2713 H 272.48 -1.24603 0.943594 0
M  V30 2714 H 273.215 -3.16352 -0.713594 0
M  V30 2715 H 273 -3.80661 0.940193 0
M  V30 2716 H 274.49 -4.17594 0.0214784 0
M  V30 2717 N 274.927 -0.932562 -1.27047 0
M  V30 2718 C 275.857 -0.452902 -2.29066 0
M  V30 2719 C 276.838 0.489338 -1.62909 0
M  V30 2720 O 278.023 0.393046 -1.90181 0
M  V30 2721 C 275.153 0.290698 -3.46081 0
M  V30 2722 C 274.107 -0.564168 -4.24265 0
M  V30 2723 C 273.433 0.308886 -5.33807 0
M  V30 2724 C 274.733 -1.83112 -4.89149 0
M  V30 2725 H 276.427 -1.30552 -2.69437 0
M  V30 2726 H 273.973 -0.629201 -1.29526 0
M  V30 2727 H 275.926 0.637233 -4.16554 0
M  V30 2728 H 274.65 1.17738 -3.0464 0
M  V30 2729 H 273.309 -0.893477 -3.55545 0
M  V30 2730 H 272.957 1.19467 -4.88607 0
M  V30 2731 H 272.657 -0.259633 -5.87026 0
M  V30 2732 H 274.181 0.650884 -6.07121 0
M  V30 2733 H 275.595 -1.55236 -5.51883 0
M  V30 2734 H 273.992 -2.34353 -5.52448 0
M  V30 2735 H 275.062 -2.54772 -4.12576 0
M  V30 2736 N 276.405 1.4127 -0.698611 0
M  V30 2737 C 277.682 1.94955 -0.158762 0
M  V30 2738 C 278.062 1.63781 1.33188 0
M  V30 2739 O 277.41 0.946423 2.07979 0
M  V30 2740 C 277.62 3.46044 -0.453309 0
M  V30 2741 C 278.968 4.22872 -0.382707 0
M  V30 2742 O 279.992 3.54076 -0.388396 0
M  V30 2743 O 278.851 5.45407 -0.345463 0
M  V30 2744 H 275.945 0.82683 -0.0167505 0
M  V30 2745 H 278.491 1.50971 -0.77498 0
M  V30 2746 H 277.263 3.62028 -1.48498 0
M  V30 2747 H 276.886 3.97128 0.19373 0
M  V30 2748 N 277.883 0.443576 1.51229 0
M  V30 2749 C 279.111 -0.11929 2.06556 0
M  V30 2750 C 279.526 -1.35921 1.31038 0
M  V30 2751 O 278.883 -1.78675 0.371704 0
M  V30 2752 C 278.934 -0.435228 3.5887 0
M  V30 2753 O 278.655 0.755486 4.31537 0
M  V30 2754 C 280.156 -1.04808 4.30732 0
M  V30 2755 H 277.376 -0.0051584 0.67098 0
M  V30 2756 H 279.92 0.624453 1.94733 0
M  V30 2757 H 278.075 -1.12887 3.70588 0
M  V30 2758 H 278.489 0.483491 5.22267 0
M  V30 2759 H 279.963 -1.2191 5.3837 0
M  V30 2760 H 280.44 -2.03081 3.89429 0
M  V30 2761 H 281.046 -0.393637 4.23474 0
M  V30 2762 N 279.361 -1.56624 0.175154 0
M  V30 2763 C 280.607 -1.9729 -0.469506 0
M  V30 2764 C 280.94 -1.06128 -1.62636 0
M  V30 2765 O 280.215 -0.109183 -1.94193 0
M  V30 2766 C 280.498 -3.47375 -0.948804 0
M  V30 2767 C 280.351 -4.49317 0.208491 0
M  V30 2768 C 281.67 -4.00652 -1.82116 0
M  V30 2769 H 278.789 -0.717317 -0.16919 0
M  V30 2770 H 281.431 -1.88184 0.262062 0
M  V30 2771 H 279.581 -3.55267 -1.57219 0
M  V30 2772 H 281.253 -4.53482 0.845682 0
M  V30 2773 H 279.496 -4.25121 0.863395 0
M  V30 2774 H 280.167 -5.51741 -0.169059 0
M  V30 2775 H 282.643 -3.95416 -1.2956 0
M  V30 2776 H 281.519 -5.06075 -2.12554 0
M  V30 2777 H 281.78 -3.44699 -2.7683 0
M  V30 2778 N 280.839 0.0985539 -1.57292 0
M  V30 2779 C 282.087 0.801092 -1.85545 0
M  V30 2780 C 282.408 1.79438 -0.763353 0
M  V30 2781 O 281.678 1.94763 0.21073 0
M  V30 2782 H 280.258 0.29884 -0.684619 0
M  V30 2783 H 282.92 0.0810064 -1.94732 0
M  V30 2784 H 282.016 1.3338 -2.82163 0
M  V30 2785 N 282.317 1.53212 0.369288 0
M  V30 2786 C 283.247 1.82365 1.45826 0
M  V30 2787 C 284.228 0.676907 1.56051 0
M  V30 2788 O 285.413 0.926401 1.70679 0
M  V30 2789 C 282.543 2.01023 2.83208 0
M  V30 2790 C 281.497 3.1678 2.8781 0
M  V30 2791 C 280.823 3.20724 4.27832 0
M  V30 2792 C 282.123 4.55447 2.55667 0
M  V30 2793 H 283.817 2.73559 1.21678 0
M  V30 2794 H 281.363 1.3163 0.583911 0
M  V30 2795 H 283.316 2.20001 3.59413 0
M  V30 2796 H 282.04 1.06536 3.08736 0
M  V30 2797 H 280.699 2.97616 2.14056 0
M  V30 2798 H 280.347 2.23882 4.50429 0
M  V30 2799 H 280.047 3.98496 4.31827 0
M  V30 2800 H 281.571 3.41881 5.05915 0
M  V30 2801 H 282.985 4.74611 3.21586 0
M  V30 2802 H 281.382 5.35432 2.70984 0
M  V30 2803 H 282.452 4.60812 1.5093 0
M  V30 2804 N 283.795 -0.628877 1.44509 0
M  V30 2805 C 285.042 -1.38839 1.47411 0
M  V30 2806 C 285.37 -1.94202 0.10757 0
M  V30 2807 O 284.625 -1.74243 -0.890947 0
M  V30 2808 C 284.924 -2.56995 2.48371 0
M  V30 2809 C 284.59 -2.19908 3.93639 0
M  V30 2810 C 283.252 -2.09506 4.33198 0
M  V30 2811 C 285.604 -1.9064 4.85083 0
M  V30 2812 C 282.932 -1.68028 5.62124 0
M  V30 2813 C 285.284 -1.50655 6.14399 0
M  V30 2814 C 283.948 -1.38796 6.5291 0
M  V30 2815 H 283.218 -0.508048 0.539414 0
M  V30 2816 H 285.865 -0.712913 1.77735 0
M  V30 2817 H 284.17 -3.29786 2.11538 0
M  V30 2818 H 285.867 -3.15223 2.47861 0
M  V30 2819 H 282.457 -2.28922 3.62343 0
M  V30 2820 H 286.641 -1.97585 4.55273 0
M  V30 2821 H 281.897 -1.57452 5.90778 0
M  V30 2822 H 286.071 -1.27048 6.84713 0
M  V30 2823 H 283.698 -1.06429 7.52713 0
M  V30 2824 N 285.273 -1.31445 -0.869486 0
M  V30 2825 C 286.521 -1.20918 -1.61936 0
M  V30 2826 C 286.842 0.232683 -1.93607 0
M  V30 2827 O 286.112 1.15352 -1.58338 0
M  V30 2828 H 284.692 -0.44454 -0.600328 0
M  V30 2829 H 287.354 -1.64776 -1.0409 0
M  V30 2830 H 286.45 -1.78124 -2.56278 0
M  V30 2831 N 286.751 1.08385 -1.14413 0
M  V30 2832 C 287.714 2.13486 -0.834048 0
M  V30 2833 C 288.714 1.59988 0.161418 0
M  V30 2834 O 289.904 1.74071 -0.0669575 0
M  V30 2835 C 287.036 3.4003 -0.243354 0
M  V30 2836 H 288.229 2.42425 -1.7655 0
M  V30 2837 H 285.782 1.24101 -0.950189 0
M  V30 2838 H 286.517 3.16726 0.696807 0
M  V30 2839 H 286.302 3.80157 -0.960367 0
M  V30 2840 H 287.792 4.17577 -0.0436242 0
M  V30 2841 N 288.23 0.939286 1.26551 0
M  V30 2842 C 289.646 0.641304 1.46149 0
M  V30 2843 C 289.846 -0.805964 1.84679 0
M  V30 2844 O 288.902 -1.58278 1.96734 0
M  V30 2845 C 290.215 1.6011 2.54529 0
M  V30 2846 C 291.763 1.6106 2.68382 0
M  V30 2847 C 292.238 2.55765 3.79932 0
M  V30 2848 N 293.729 2.5404 3.87322 0
M  V30 2849 C 294.464 3.24004 4.73085 0
M  V30 2850 N 293.96 4.03388 5.63249 0
M  V30 2851 N 295.753 3.12965 4.66914 0
M  V30 2852 H 287.904 1.87478 0.998285 0
M  V30 2853 H 290.167 0.805559 0.499779 0
M  V30 2854 H 289.873 2.63412 2.33039 0
M  V30 2855 H 289.747 1.35171 3.52149 0
M  V30 2856 H 292.134 0.584835 2.89247 0
M  V30 2857 H 292.215 1.90053 1.71212 0
M  V30 2858 H 291.859 3.58458 3.5982 0
M  V30 2859 H 291.789 2.24063 4.76554 0
M  V30 2860 H 294.28 1.96396 3.22858 0
M  V30 2861 H 294.593 4.5373 6.25579 0
M  V30 2862 H 292.938 4.07489 5.63008 0
M  V30 2863 H 296.129 2.50432 3.95476 0
M  V30 2864 H 296.302 3.67759 5.33533 0
M  V30 2865 N 289.708 -1.40897 0.706093 0
M  V30 2866 C 290.671 -2.29131 0.0562841 0
M  V30 2867 C 291.671 -1.44901 -0.697166 0
M  V30 2868 O 292.861 -1.65926 -0.530484 0
M  V30 2869 C 289.993 -3.27957 -0.93043 0
M  V30 2870 H 291.186 -2.88091 0.833284 0
M  V30 2871 H 288.739 -1.4906 0.470192 0
M  V30 2872 H 289.474 -2.73997 -1.73482 0
M  V30 2873 H 289.259 -3.90124 -0.393166 0
M  V30 2874 H 290.749 -3.94049 -1.38256 0
M  V30 2875 N 291.186 -0.45159 -1.50991 0
M  V30 2876 C 292.096 0.358431 -2.31846 0
M  V30 2877 C 293.112 1.01438 -1.41373 0
M  V30 2878 O 294.288 1.00663 -1.74439 0
M  V30 2879 C 291.353 1.43704 -3.15515 0
M  V30 2880 C 290.414 0.799742 -4.21785 0
M  V30 2881 C 289.647 1.82696 -5.01456 0
M  V30 2882 O 289.87 3.05105 -4.81941 0
M  V30 2883 O 288.804 1.40958 -5.85162 0
M  V30 2884 H 292.63 -0.302032 -3.02194 0
M  V30 2885 H 290.215 -0.213825 -1.47862 0
M  V30 2886 H 292.097 2.06227 -3.67489 0
M  V30 2887 H 290.772 2.08133 -2.47916 0
M  V30 2888 H 289.679 0.136084 -3.73852 0
M  V30 2889 H 291.012 0.198718 -4.91799 0
M  V30 2890 N 292.664 1.56529 -0.183458 0
M  V30 2891 C 293.941 1.88959 0.50536 0
M  V30 2892 C 294.321 1.09523 1.80466 0
M  V30 2893 O 293.669 0.19278 2.27685 0
M  V30 2894 C 293.879 3.41162 0.73547 0
M  V30 2895 C 295.227 4.11155 1.06005 0
M  V30 2896 O 296.251 3.46548 0.823594 0
M  V30 2897 O 295.11 5.25318 1.50675 0
M  V30 2898 H 292.204 0.78441 0.261973 0
M  V30 2899 H 294.75 1.68231 -0.222802 0
M  V30 2900 H 293.522 3.90874 -0.182561 0
M  V30 2901 H 293.145 3.67543 1.51651 0
M  V30 2902 N 294.142 -0.090211 1.57342 0
M  V30 2903 C 295.072 -1.10976 2.05443 0
M  V30 2904 C 296.053 -1.41482 0.944284 0
M  V30 2905 O 297.238 -1.51428 1.21586 0
M  V30 2906 C 294.368 -2.42831 2.48295 0
M  V30 2907 C 293.322 -2.26721 3.63018 0
M  V30 2908 C 292.648 -3.63796 3.91863 0
M  V30 2909 C 293.948 -1.7037 4.93732 0
M  V30 2910 H 295.642 -0.709564 2.9087 0
M  V30 2911 H 293.188 -0.339874 1.39932 0
M  V30 2912 H 295.141 -3.14431 2.80555 0
M  V30 2913 H 293.865 -2.84795 1.59873 0
M  V30 2914 H 292.524 -1.57565 3.31012 0
M  V30 2915 H 292.172 -4.03297 3.00601 0
M  V30 2916 H 291.872 -3.53861 4.69101 0
M  V30 2917 H 293.396 -4.36855 4.26603 0
M  V30 2918 H 294.81 -2.31816 5.24342 0
M  V30 2919 H 293.207 -1.71181 5.75167 0
M  V30 2920 H 294.277 -0.663542 4.80339 0
M  V30 2921 N 295.62 -1.53406 -0.361157 0
M  V30 2922 C 296.583 -1.79479 -1.42548 0
M  V30 2923 C 297.583 -0.665327 -1.4639 0
M  V30 2924 O 298.773 -0.933549 -1.47073 0
M  V30 2925 C 295.905 -1.92087 -2.8163 0
M  V30 2926 H 297.098 -2.74538 -1.20701 0
M  V30 2927 H 294.651 -1.4455 -0.594546 0
M  V30 2928 H 295.386 -0.991099 -3.08784 0
M  V30 2929 H 295.171 -2.74241 -2.80239 0
M  V30 2930 H 296.661 -2.13836 -3.58697 0
M  V30 2931 N 297.098 0.621204 -1.44841 0
M  V30 2932 C 298.514 0.94048 -1.28946 0
M  V30 2933 C 298.714 2.00154 -0.23249 0
M  V30 2934 O 297.77 2.49651 0.378237 0
M  V30 2935 C 299.083 1.39433 -2.66419 0
M  V30 2936 C 300.631 1.50927 -2.74208 0
M  V30 2937 C 301.106 1.99692 -4.12174 0
M  V30 2938 N 302.597 2.06947 -4.144 0
M  V30 2939 C 303.332 2.45871 -5.1801 0
M  V30 2940 N 302.828 2.83862 -6.31977 0
M  V30 2941 N 304.621 2.46092 -5.05366 0
M  V30 2942 H 296.772 -0.0803548 -2.12248 0
M  V30 2943 H 299.035 0.0266913 -0.947624 0
M  V30 2944 H 298.741 0.688925 -3.44887 0
M  V30 2945 H 298.615 2.36347 -2.93973 0
M  V30 2946 H 301.002 2.20561 -1.96053 0
M  V30 2947 H 301.083 0.523627 -2.50383 0
M  V30 2948 H 300.727 1.30649 -4.90809 0
M  V30 2949 H 300.657 2.99146 -4.33381 0
M  V30 2950 H 303.148 1.80232 -3.32152 0
M  V30 2951 H 303.461 3.12405 -7.0684 0
M  V30 2952 H 301.806 2.8159 -6.35399 0
M  V30 2953 H 304.997 2.1581 -4.15384 0
M  V30 2954 H 305.17 2.76102 -5.86235 0
M  V30 2955 N 298.576 1.31904 0.862503 0
M  V30 2956 C 299.824 1.21776 1.61292 0
M  V30 2957 C 300.145 -0.222413 1.93727 0
M  V30 2958 O 299.415 -1.1451 1.58947 0
M  V30 2959 H 297.995 0.447717 0.597962 0
M  V30 2960 H 300.657 1.65326 1.03215 0
M  V30 2961 H 299.753 1.7948 2.5533 0
M  V30 2962 N 300.054 -1.07777 1.14986 0
M  V30 2963 C 300.984 -2.16865 0.865557 0
M  V30 2964 C 301.965 -1.69123 -0.182083 0
M  V30 2965 O 303.15 -1.94164 -0.0373815 0
M  V30 2966 C 300.28 -3.45539 0.349313 0
M  V30 2967 C 299.234 -4.06708 1.33313 0
M  V30 2968 C 298.56 -5.30411 0.675918 0
M  V30 2969 C 299.86 -4.47241 2.69764 0
M  V30 2970 H 301.554 -2.40905 1.77778 0
M  V30 2971 H 299.1 -1.15781 0.856203 0
M  V30 2972 H 301.053 -4.21174 0.137983 0
M  V30 2973 H 299.777 -3.21072 -0.598362 0
M  V30 2974 H 298.436 -3.33112 1.53075 0
M  V30 2975 H 298.084 -5.02232 -0.277767 0
M  V30 2976 H 297.784 -5.72293 1.33244 0
M  V30 2977 H 299.308 -6.08755 0.474262 0
M  V30 2978 H 300.722 -5.14025 2.53873 0
M  V30 2979 H 299.119 -5.00062 3.3175 0
M  V30 2980 H 300.189 -3.58818 3.26156 0
M  V30 2981 N 301.532 -0.945985 -1.26051 0
M  V30 2982 C 302.462 -0.477172 -2.28572 0
M  V30 2983 C 303.443 0.472032 -1.63419 0
M  V30 2984 O 304.628 0.372853 -1.90587 0
M  V30 2985 C 301.758 0.253975 -3.4637 0
M  V30 2986 C 300.712 -0.609135 -4.23643 0
M  V30 2987 C 300.038 0.252252 -5.34105 0
M  V30 2988 C 301.338 -1.8829 -4.8718 0
M  V30 2989 H 303.032 -1.33402 -2.68038 0
M  V30 2990 H 300.578 -0.642904 -1.28852 0
M  V30 2991 H 302.531 0.593016 -4.17207 0
M  V30 2992 H 301.255 1.145 -3.05871 0
M  V30 2993 H 299.914 -0.931138 -3.54578 0
M  V30 2994 H 299.562 1.14278 -4.89846 0
M  V30 2995 H 299.262 -0.32188 -5.86718 0
M  V30 2996 H 300.786 0.586454 -6.07777 0
M  V30 2997 H 302.2 -1.61081 -5.50205 0
M  V30 2998 H 300.597 -2.40199 -5.49931 0
M  V30 2999 H 301.667 -2.59134 -4.09851 0
M  V30 3000 N 303.011 1.40521 -0.713556 0
M  V30 3001 C 303.974 2.29098 -0.0684347 0
M  V30 3002 C 304.974 1.45268 0.689472 0
M  V30 3003 O 306.164 1.66205 0.521677 0
M  V30 3004 C 303.296 3.28446 0.913024 0
M  V30 3005 H 304.489 2.87645 -0.84855 0
M  V30 3006 H 302.042 1.48809 -0.47809 0
M  V30 3007 H 302.777 2.74913 1.72027 0
M  V30 3008 H 302.562 3.90327 0.372472 0
M  V30 3009 H 304.052 3.94777 1.36165 0
M  V30 3010 N 304.489 0.459591 1.5075 0
M  V30 3011 C 305.422 -0.386257 2.24907 0
M  V30 3012 C 306.4 -1.006 1.27744 0
M  V30 3013 O 307.584 -1.04416 1.56938 0
M  V30 3014 C 304.711 -1.54021 3.01654 0
M  V30 3015 C 303.757 -1.03898 4.13651 0
M  V30 3016 S 304.59 0.0370501 5.35487 0
M  V30 3017 C 305.746 -1.12105 6.15779 0
M  V30 3018 H 305.979 0.243272 2.96303 0
M  V30 3019 H 303.512 0.244339 1.52454 0
M  V30 3020 H 305.47 -2.20163 3.46466 0
M  V30 3021 H 304.131 -2.14121 2.29806 0
M  V30 3022 H 303.324 -1.90254 4.66711 0
M  V30 3023 H 302.926 -0.45545 3.71216 0
M  V30 3024 H 305.218 -2.03501 6.46215 0
M  V30 3025 H 306.161 -0.62995 7.05292 0
M  V30 3026 H 306.569 -1.36967 5.47631 0
M  V30 3027 N 305.967 -1.56429 0.191757 0
M  V30 3028 C 307.195 -2.01867 -0.453586 0
M  V30 3029 C 307.61 -1.07191 -1.5542 0
M  V30 3030 O 306.967 -0.0762108 -1.82341 0
M  V30 3031 C 307.018 -3.47017 -1.013 0
M  V30 3032 O 306.739 -4.38078 0.0437005 0
M  V30 3033 C 308.24 -4.07956 -1.73456 0
M  V30 3034 H 305.46 -0.661211 -0.114199 0
M  V30 3035 H 308.004 -2.02295 0.299483 0
M  V30 3036 H 306.159 -3.47298 -1.71647 0
M  V30 3037 H 306.573 -5.23178 -0.372212 0
M  V30 3038 H 308.047 -5.1138 -2.07833 0
M  V30 3039 H 308.524 -3.51222 -2.63704 0
M  V30 3040 H 309.13 -4.11437 -1.07702 0
M  V30 3041 N 307.445 0.0818655 -1.57387 0
M  V30 3042 C 308.693 0.781368 -1.86384 0
M  V30 3043 C 309.014 1.78618 -0.782342 0
M  V30 3044 O 308.284 1.94976 0.190061 0
M  V30 3045 H 306.864 0.291562 -0.687751 0
M  V30 3046 H 309.526 0.060348 -1.94807 0
M  V30 3047 H 308.622 1.3038 -2.83562 0
M  V30 3048 N 308.923 1.53595 0.353017 0
M  V30 3049 C 310.339 1.43648 0.695516 0
M  V30 3050 C 310.539 0.585617 1.92802 0
M  V30 3051 O 309.595 0.0729223 2.52395 0
M  V30 3052 C 310.908 2.8701 0.896991 0
M  V30 3053 C 312.456 2.96723 0.996209 0
M  V30 3054 C 312.931 4.41173 1.23007 0
M  V30 3055 N 314.422 4.44657 1.29749 0
M  V30 3056 C 315.157 5.53547 1.49577 0
M  V30 3057 N 314.653 6.72461 1.66639 0
M  V30 3058 N 316.446 5.41145 1.52048 0
M  V30 3059 H 308.597 2.07415 -0.457481 0
M  V30 3060 H 310.86 0.9372 -0.142687 0
M  V30 3061 H 310.566 3.51644 0.0629938 0
M  V30 3062 H 310.44 3.31401 1.80148 0
M  V30 3063 H 312.827 2.32235 1.82074 0
M  V30 3064 H 312.908 2.55707 0.0688331 0
M  V30 3065 H 312.552 5.06238 0.410505 0
M  V30 3066 H 312.482 4.79772 2.17086 0
M  V30 3067 H 314.973 3.58963 1.18126 0
M  V30 3068 H 315.286 7.51214 1.81378 0
M  V30 3069 H 313.631 6.75423 1.63794 0
M  V30 3070 H 316.822 4.47205 1.38294 0
M  V30 3071 H 316.995 6.26068 1.67159 0
M  V30 3072 N 310.401 -0.613514 1.45168 0
M  V30 3073 C 311.626 -1.40437 1.52618 0
M  V30 3074 C 312.051 -1.87438 0.157707 0
M  V30 3075 O 311.409 -1.59791 -0.856537 0
M  V30 3076 C 311.457 -2.58894 2.51011 0
M  V30 3077 O 310.561 -3.59326 2.02382 0
M  V30 3078 H 309.902 -0.419506 0.514695 0
M  V30 3079 H 312.432 -0.747215 1.90467 0
M  V30 3080 H 312.442 -3.06214 2.69624 0
M  V30 3081 H 311.117 -2.24032 3.50403 0
M  V30 3082 H 309.694 -3.18695 1.93618 0
M  V30 3083 N 311.879 -1.3236 -0.855495 0
M  V30 3084 C 312.789 -1.23221 -1.99634 0
M  V30 3085 C 313.805 -0.145983 -1.73387 0
M  V30 3086 O 314.981 -0.366502 -1.98037 0
M  V30 3087 C 312.046 -0.954782 -3.33294 0
M  V30 3088 C 311.107 -2.12937 -3.72769 0
M  V30 3089 C 310.34 -1.86508 -5.00051 0
M  V30 3090 O 310.563 -0.807231 -5.64659 0
M  V30 3091 O 309.497 -2.72591 -5.36636 0
M  V30 3092 H 313.323 -2.19126 -2.1028 0
M  V30 3093 H 310.908 -1.12241 -0.986018 0
M  V30 3094 H 312.79 -0.816519 -4.13414 0
M  V30 3095 H 311.465 -0.0258854 -3.2369 0
M  V30 3096 H 310.372 -2.3231 -2.93228 0
M  V30 3097 H 311.705 -3.04102 -3.87018 0
M  V30 3098 N 313.357 1.07166 -1.15556 0
M  V30 3099 C 314.604 1.79798 -0.931604 0
M  V30 3100 C 314.932 1.8682 0.54115 0
M  V30 3101 O 314.187 1.34942 1.41736 0
M  V30 3102 C 314.486 3.24707 -1.49332 0
M  V30 3103 C 314.152 3.37781 -2.98688 0
M  V30 3104 C 312.814 3.41057 -3.39461 0
M  V30 3105 C 315.166 3.40424 -3.94665 0
M  V30 3106 C 312.494 3.4458 -4.74849 0
M  V30 3107 C 314.846 3.45485 -5.29927 0
M  V30 3108 C 313.51 3.47039 -5.70193 0
M  V30 3109 H 312.78 0.657928 -0.340898 0
M  V30 3110 H 315.427 1.26091 -1.44129 0
M  V30 3111 H 313.732 3.81208 -0.904859 0
M  V30 3112 H 315.429 3.79486 -1.29582 0
M  V30 3113 H 312.019 3.35932 -2.66172 0
M  V30 3114 H 316.203 3.37113 -3.64237 0
M  V30 3115 H 311.459 3.44083 -5.05388 0
M  V30 3116 H 315.633 3.46476 -6.04092 0
M  V30 3117 H 313.26 3.49522 -6.75084 0
M  V30 3118 N 314.835 0.952656 1.25548 0
M  V30 3119 C 316.06 0.623025 1.97821 0
M  V30 3120 C 316.485 -0.7976 1.70352 0
M  V30 3121 O 315.843 -1.53905 0.958283 0
M  V30 3122 C 315.891 0.885532 3.49558 0
M  V30 3123 O 314.995 -0.0366641 4.12384 0
M  V30 3124 H 314.336 0.237082 0.620232 0
M  V30 3125 H 316.866 1.27871 1.59719 0
M  V30 3126 H 316.876 0.811009 3.99858 0
M  V30 3127 H 315.551 1.92094 3.6888 0
M  V30 3128 H 314.128 0.0898954 3.72792 0
M  V30 3129 N 316.313 -1.40141 0.720998 0
M  V30 3130 C 317.561 -2.0039 0.262323 0
M  V30 3131 C 317.882 -1.57469 -1.15015 0
M  V30 3132 O 317.152 -0.816582 -1.78069 0
M  V30 3133 H 315.732 -0.741063 0.093996 0
M  V30 3134 H 318.394 -1.71398 0.927835 0
M  V30 3135 H 317.49 -3.10658 0.299671 0
M  V30 3136 N 317.792 -0.46758 -1.50504 0
M  V30 3137 C 319.041 0.0902868 -2.01498 0
M  V30 3138 C 319.354 1.411 -1.35463 0
M  V30 3139 O 320.56 2.0536 -1.77594 0
M  V30 3140 C 319.016 0.21142 -3.59278 0
M  V30 3141 C 318.624 -1.10065 -4.34269 0
M  V30 3142 C 320.368 0.721433 -4.18325 0
M  V30 3143 C 318.275 -0.943505 -5.83825 0
M  V30 3144 H 317.205 0.037517 -0.753066 0
M  V30 3145 H 319.856 -0.601943 -1.73346 0
M  V30 3146 H 318.238 0.967352 -3.84003 0
M  V30 3147 H 319.412 -1.86726 -4.21272 0
M  V30 3148 H 317.727 -1.5415 -3.86816 0
M  V30 3149 H 320.324 0.85598 -5.27804 0
M  V30 3150 H 320.667 1.71186 -3.79475 0
M  V30 3151 H 321.2 0.0229843 -3.97793 0
M  V30 3152 H 317.939 -1.90719 -6.27141 0
M  V30 3153 H 317.459 -0.217213 -5.99407 0
M  V30 3154 H 319.138 -0.608715 -6.4413 0
M  V30 3155 N 319.27 1.56325 -0.20005 0
M  V30 3156 C 320.516 1.98012 0.438059 0
M  V30 3157 C 320.849 1.08702 1.60927 0
M  V30 3158 O 320.124 0.140064 1.93995 0
M  V30 3159 C 320.407 3.48841 0.893419 0
M  V30 3160 C 320.26 4.48928 -0.279947 0
M  V30 3161 C 321.579 4.03498 1.75719 0
M  V30 3162 H 318.698 0.719918 0.157757 0
M  V30 3163 H 321.34 1.87743 -0.291968 0
M  V30 3164 H 319.49 3.57723 1.51547 0
M  V30 3165 H 321.162 4.52079 -0.91772 0
M  V30 3166 H 319.405 4.23694 -0.930919 0
M  V30 3167 H 320.076 5.5194 0.0812601 0
M  V30 3168 H 322.552 3.97427 1.23253 0
M  V30 3169 H 321.428 5.09393 2.04476 0
M  V30 3170 H 321.689 3.4906 2.71311 0
M  V30 3171 N 320.748 -0.0735177 1.57428 0
M  V30 3172 C 322.159 -0.625551 1.75908 0
M  V30 3173 C 322.51 -1.78 0.825261 0
M  V30 3174 O 321.635 -2.16398 0.00893964 0
M  V30 3175 C 322.23 -1.14155 3.18989 0
M  V30 3176 C 320.789 -1.63946 3.38819 0
M  V30 3177 C 319.936 -0.558151 2.71625 0
M  V30 3178 H 322.887 0.152647 1.57964 0
M  V30 3179 H 322.908 -2.0104 3.23053 0
M  V30 3180 H 322.42 -0.301116 3.8693 0
M  V30 3181 H 320.521 -2.50321 2.7599 0
M  V30 3182 H 320.634 -1.71759 4.47253 0
M  V30 3183 H 318.998 -1.00278 2.34129 0
M  V30 3184 H 319.781 0.272071 3.4222 0
M  V30 3185 N 322.226 -1.5378 -0.344866 0
M  V30 3186 C 323.189 -1.80981 -1.40637 0
M  V30 3187 C 324.189 -0.680816 -1.45676 0
M  V30 3188 O 325.379 -0.949095 -1.46075 0
M  V30 3189 C 322.511 -1.95063 -2.79577 0
M  V30 3190 H 323.704 -2.75803 -1.17783 0
M  V30 3191 H 321.257 -1.45173 -0.579181 0
M  V30 3192 H 321.992 -1.02379 -3.07716 0
M  V30 3193 H 321.777 -2.77198 -2.77315 0
M  V30 3194 H 323.267 -2.17629 -3.56409 0
M  V30 3195 N 323.704 0.605807 -1.45491 0
M  V30 3196 C 324.651 1.7164 -1.54299 0
M  V30 3197 C 325.621 1.61486 -0.388761 0
M  V30 3198 O 326.806 1.81039 -0.602445 0
M  V30 3199 C 323.946 3.09953 -1.51734 0
M  V30 3200 C 323.059 3.309 -2.77721 0
M  V30 3201 C 322.194 4.59329 -2.66816 0
M  V30 3202 C 321.233 4.7354 -3.87848 0
M  V30 3203 N 320.37 5.9327 -3.75467 0
M  V30 3204 H 325.21 1.63449 -2.49176 0
M  V30 3205 H 322.747 0.796957 -1.23641 0
M  V30 3206 H 324.705 3.89977 -1.48235 0
M  V30 3207 H 323.335 3.17098 -0.604068 0
M  V30 3208 H 322.387 2.44639 -2.913 0
M  V30 3209 H 323.699 3.37274 -3.67488 0
M  V30 3210 H 322.853 5.4755 -2.61292 0
M  V30 3211 H 321.592 4.55355 -1.74651 0
M  V30 3212 H 320.597 3.83741 -3.93729 0
M  V30 3213 H 321.822 4.79309 -4.81082 0
M  V30 3214 H 319.768 5.90338 -2.86072 0
M  V30 3215 H 319.685 6.00811 -4.5887 0
M  V30 3216 H 320.953 6.83984 -3.73879 0
M  V30 3217 N 325.182 1.32811 0.848464 0
M  V30 3218 C 326.145 1.22194 1.9391 0
M  V30 3219 C 327.145 0.143404 1.60159 0
M  V30 3220 O 328.335 0.394253 1.6968 0
M  V30 3221 C 325.467 0.88067 3.29328 0
M  V30 3222 H 326.66 2.19127 2.04752 0
M  V30 3223 H 324.213 1.16731 1.0394 0
M  V30 3224 H 324.948 -0.0865776 3.24184 0
M  V30 3225 H 324.733 1.66052 3.55203 0
M  V30 3226 H 326.223 0.830871 4.09251 0
M  V30 3227 N 326.66 -1.06551 1.16123 0
M  V30 3228 C 328.071 -1.60768 0.949232 0
M  V30 3229 C 328.422 -1.89523 -0.507508 0
M  V30 3230 O 327.547 -1.66671 -1.38021 0
M  V30 3231 C 328.142 -2.92086 1.71671 0
M  V30 3232 C 326.701 -3.43015 1.54977 0
M  V30 3233 C 325.848 -2.16947 1.72711 0
M  V30 3234 H 328.799 -0.895354 1.31031 0
M  V30 3235 H 328.82 -3.6138 1.19099 0
M  V30 3236 H 328.332 -2.71127 2.7769 0
M  V30 3237 H 326.433 -3.69039 0.513873 0
M  V30 3238 H 326.546 -4.18516 2.33198 0
M  V30 3239 H 324.91 -2.27041 1.15431 0
M  V30 3240 H 325.693 -1.98473 2.80113 0
M  V30 3241 N 328.138 -0.959301 -1.25041 0
M  V30 3242 C 329.554 -0.664474 -1.4511 0
M  V30 3243 C 329.754 0.776481 -1.85938 0
M  V30 3244 O 328.81 1.55128 -1.99227 0
M  V30 3245 C 330.123 -1.64139 -2.5195 0
M  V30 3246 C 331.671 -1.65309 -2.65786 0
M  V30 3247 C 332.146 -2.61777 -3.75815 0
M  V30 3248 N 333.637 -2.60169 -3.83231 0
M  V30 3249 C 334.372 -3.31489 -4.6787 0
M  V30 3250 N 333.868 -4.12298 -5.56761 0
M  V30 3251 N 335.661 -3.20354 -4.61876 0
M  V30 3252 H 327.812 -1.89043 -0.968332 0
M  V30 3253 H 330.075 -0.813408 -0.4869 0
M  V30 3254 H 329.781 -2.67086 -2.28819 0
M  V30 3255 H 329.655 -1.40756 -3.49954 0
M  V30 3256 H 332.042 -0.630778 -2.8828 0
M  V30 3257 H 332.123 -1.92753 -1.68167 0
M  V30 3258 H 331.767 -3.64137 -3.54071 0
M  V30 3259 H 331.697 -2.31616 -4.72929 0
M  V30 3260 H 334.188 -2.01507 -3.19692 0
M  V30 3261 H 334.501 -4.63625 -6.18281 0
M  V30 3262 H 332.846 -4.16395 -5.56454 0
M  V30 3263 H 336.037 -2.56692 -3.91442 0
M  V30 3264 H 336.21 -3.76201 -5.27614 0
M  V30 3265 N 329.616 1.39756 -0.72842 0
M  V30 3266 C 330.865 1.99879 -0.270407 0
M  V30 3267 C 331.178 1.58449 1.14688 0
M  V30 3268 O 332.384 2.11362 1.70407 0
M  V30 3269 C 330.84 3.57292 -0.43252 0
M  V30 3270 C 330.448 4.07688 -1.85727 0
M  V30 3271 C 332.192 4.24485 -0.0359507 0
M  V30 3272 C 330.099 5.5765 -1.96928 0
M  V30 3273 H 329.029 0.747689 -0.0973472 0
M  V30 3274 H 331.68 1.59837 -0.901355 0
M  V30 3275 H 330.062 3.95097 0.267219 0
M  V30 3276 H 331.236 3.81231 -2.58843 0
M  V30 3277 H 329.551 3.53135 -2.20646 0
M  V30 3278 H 332.148 5.34609 -0.0987484 0
M  V30 3279 H 332.491 4.03915 1.00787 0
M  V30 3280 H 333.024 3.9183 -0.686604 0
M  V30 3281 H 329.763 5.8309 -2.99476 0
M  V30 3282 H 329.283 5.8593 -1.28241 0
M  V30 3283 H 330.962 6.22957 -1.74737 0
M  V30 3284 N 331.094 0.475555 1.50254 0
M  V30 3285 C 332.342 -0.077738 2.0195 0
M  V30 3286 C 332.663 -1.39813 1.35931 0
M  V30 3287 O 331.933 -1.89249 0.506123 0
M  V30 3288 H 330.513 -0.031719 0.746326 0
M  V30 3289 H 333.175 0.626995 1.84539 0
M  V30 3290 H 332.271 -0.225995 3.11281 0
M  V30 3291 N 332.573 -1.56217 0.208337 0
M  V30 3292 C 333.819 -1.98242 -0.427552 0
M  V30 3293 C 334.152 -1.09554 -1.60348 0
M  V30 3294 O 333.427 -0.15035 -1.93918 0
M  V30 3295 C 333.71 -3.4931 -0.874907 0
M  V30 3296 C 333.563 -4.48773 0.303751 0
M  V30 3297 C 334.882 -4.04424 -1.73577 0
M  V30 3298 H 332.001 -0.720744 -0.153936 0
M  V30 3299 H 334.643 -1.87586 0.30192 0
M  V30 3300 H 332.793 -3.58522 -1.49648 0
M  V30 3301 H 334.465 -4.51586 0.941682 0
M  V30 3302 H 332.708 -4.23194 0.953375 0
M  V30 3303 H 333.379 -5.51976 -0.0519883 0
M  V30 3304 H 335.855 -3.98075 -1.21143 0
M  V30 3305 H 334.731 -5.1047 -2.01771 0
M  V30 3306 H 334.992 -3.50494 -2.69456 0
M  V30 3307 N 334.051 0.0651679 -1.57465 0
M  V30 3308 C 335.297 0.764193 -1.87851 0
M  V30 3309 C 335.63 1.76889 -0.801495 0
M  V30 3310 O 334.905 1.93594 0.187528 0
M  V30 3311 C 335.188 1.46625 -3.28897 0
M  V30 3312 C 335.041 0.477515 -4.47258 0
M  V30 3313 C 336.36 2.4095 -3.68281 0
M  V30 3314 H 333.479 0.276351 -0.683227 0
M  V30 3315 H 336.121 0.0272868 -1.8998 0
M  V30 3316 H 334.271 2.09438 -3.27212 0
M  V30 3317 H 335.943 -0.145922 -4.61069 0
M  V30 3318 H 334.186 -0.206576 -4.33308 0
M  V30 3319 H 334.857 1.0065 -5.42746 0
M  V30 3320 H 337.333 1.88209 -3.71102 0
M  V30 3321 H 336.209 2.87072 -4.67847 0
M  V30 3322 H 336.47 3.26049 -2.98571 0
M  V30 3323 N 335.529 1.53961 0.336706 0
M  V30 3324 C 336.945 1.44378 0.680241 0
M  V30 3325 C 337.145 0.606034 1.9217 0
M  V30 3326 O 336.201 0.099688 2.52303 0
M  V30 3327 C 337.514 2.87945 0.8665 0
M  V30 3328 C 339.062 2.97763 0.964682 0
M  V30 3329 C 339.537 4.42453 1.18321 0
M  V30 3330 N 341.028 4.46008 1.25025 0
M  V30 3331 C 341.763 5.55102 1.43697 0
M  V30 3332 N 341.259 6.7419 1.59498 0
M  V30 3333 N 343.052 5.42727 1.463 0
M  V30 3334 H 335.203 2.06918 -0.479455 0
M  V30 3335 H 337.466 0.935634 -0.152619 0
M  V30 3336 H 337.172 3.51691 0.0256937 0
M  V30 3337 H 337.046 3.33293 1.76623 0
M  V30 3338 H 339.433 2.34153 1.796 0
M  V30 3339 H 339.514 2.55766 0.041708 0
M  V30 3340 H 339.158 5.06645 0.356788 0
M  V30 3341 H 339.088 4.82048 2.11985 0
M  V30 3342 H 341.579 3.60196 1.14312 0
M  V30 3343 H 341.892 7.53095 1.734 0
M  V30 3344 H 340.237 6.77123 1.56621 0
M  V30 3345 H 343.428 4.48647 1.33543 0
M  V30 3346 H 343.601 6.27806 1.6051 0
M  V30 3347 N 337.007 -0.598083 1.45811 0
M  V30 3348 C 337.939 -1.72231 1.51225 0
M  V30 3349 C 338.952 -1.57757 0.402059 0
M  V30 3350 O 340.141 -1.65464 0.669624 0
M  V30 3351 C 337.241 -3.10331 1.3619 0
M  V30 3352 C 336.414 -3.50955 2.61054 0
M  V30 3353 C 335.473 -4.68055 2.40439 0
M  V30 3354 O 334.499 -4.74691 3.14097 0
M  V30 3355 N 335.701 -5.61941 1.45612 0
M  V30 3356 H 338.466 -1.68046 2.48154 0
M  V30 3357 H 336.027 -0.783637 1.41671 0
M  V30 3358 H 338.019 -3.86439 1.20195 0
M  V30 3359 H 336.589 -3.0897 0.475015 0
M  V30 3360 H 335.809 -2.64711 2.92099 0
M  V30 3361 H 337.097 -3.74858 3.44034 0
M  V30 3362 H 336.495 -5.59301 0.848431 0
M  V30 3363 H 335.052 -6.37542 1.35585 0
M  V30 3364 N 338.485 -1.33259 -0.841409 0
M  V30 3365 C 339.395 -1.25332 -1.98316 0
M  V30 3366 C 340.411 -0.164364 -1.73222 0
M  V30 3367 O 341.587 -0.387486 -1.97637 0
M  V30 3368 C 338.652 -0.990078 -3.32262 0
M  V30 3369 C 337.713 -2.16879 -3.70489 0
M  V30 3370 C 336.946 -1.91801 -4.98044 0
M  V30 3371 O 337.169 -0.867075 -5.63771 0
M  V30 3372 O 336.103 -2.78267 -5.33714 0
M  V30 3373 H 339.929 -2.21344 -2.07944 0
M  V30 3374 H 337.514 -1.1328 -0.974058 0
M  V30 3375 H 339.396 -0.860321 -4.12524 0
M  V30 3376 H 338.071 -0.0602155 -3.23644 0
M  V30 3377 H 336.978 -2.35407 -2.90748 0
M  V30 3378 H 338.311 -3.0819 -3.8377 0
M  V30 3379 N 339.963 1.05934 -1.16686 0
M  V30 3380 C 341.21 1.788 -0.950622 0
M  V30 3381 C 341.538 1.87384 0.521305 0
M  V30 3382 O 340.793 1.36438 1.40297 0
M  V30 3383 C 341.092 3.23105 -1.52767 0
M  V30 3384 C 340.758 3.34594 -3.02254 0
M  V30 3385 C 339.42 3.37437 -3.43059 0
M  V30 3386 C 341.772 3.36219 -3.98254 0
M  V30 3387 C 339.1 3.39525 -4.78477 0
M  V30 3388 C 341.452 3.39845 -5.33562 0
M  V30 3389 C 340.116 3.40971 -5.73842 0
M  V30 3390 H 339.386 0.654275 -0.347857 0
M  V30 3391 H 342.033 1.24555 -1.45459 0
M  V30 3392 H 340.338 3.80227 -0.94524 0
M  V30 3393 H 342.035 3.7809 -1.336 0
M  V30 3394 H 338.625 3.3309 -2.6972 0
M  V30 3395 H 342.809 3.33231 -3.67792 0
M  V30 3396 H 338.065 3.38703 -5.09009 0
M  V30 3397 H 342.239 3.4005 -6.07733 0
M  V30 3398 H 339.866 3.42342 -6.78753 0
M  V30 3399 N 341.441 0.965919 1.2453 0
M  V30 3400 C 342.404 0.499547 2.2369 0
M  V30 3401 C 343.404 -0.40294 1.5567 0
M  V30 3402 O 344.594 -0.19865 1.73064 0
M  V30 3403 C 341.726 -0.276792 3.39774 0
M  V30 3404 H 342.919 1.37613 2.66463 0
M  V30 3405 H 340.472 0.750324 1.37112 0
M  V30 3406 H 341.207 -1.17055 3.02438 0
M  V30 3407 H 340.992 0.370826 3.90343 0
M  V30 3408 H 342.482 -0.592175 4.1338 0
M  V30 3409 N 342.919 -1.39368 0.735821 0
M  V30 3410 C 344.167 -2.00101 0.283562 0
M  V30 3411 C 344.488 -1.5868 -1.13338 0
M  V30 3412 O 343.758 -0.835423 -1.77193 0
M  V30 3413 H 342.338 -0.740024 0.101851 0
M  V30 3414 H 345 -1.70404 0.945962 0
M  V30 3415 H 344.096 -3.10323 0.332604 0
M  V30 3416 N 344.397 -0.483516 -1.5 0
M  V30 3417 C 345.36 0.292965 -2.2732 0
M  V30 3418 C 346.36 0.909499 -1.32608 0
M  V30 3419 O 347.55 0.776745 -1.55924 0
M  V30 3420 C 344.682 1.41854 -3.09984 0
M  V30 3421 H 345.875 -0.385289 -2.97415 0
M  V30 3422 H 343.428 -0.237942 -1.54478 0
M  V30 3423 H 344.163 2.13148 -2.44414 0
M  V30 3424 H 343.948 0.982114 -3.79601 0
M  V30 3425 H 345.438 1.96597 -3.68429 0
M  V30 3426 N 345.875 1.56104 -0.216619 0
M  V30 3427 C 347.121 1.98466 0.417033 0
M  V30 3428 C 347.454 1.10403 1.59765 0
M  V30 3429 O 346.729 0.160632 1.93836 0
M  V30 3430 C 347.012 3.49769 0.85637 0
M  V30 3431 C 346.865 4.48606 -0.327546 0
M  V30 3432 C 348.184 4.05339 1.7143 0
M  V30 3433 H 345.303 0.721551 0.150112 0
M  V30 3434 H 347.945 1.87423 -0.311864 0
M  V30 3435 H 346.095 3.5931 1.47745 0
M  V30 3436 H 347.767 4.5108 -0.965618 0
M  V30 3437 H 346.01 4.22682 -0.975805 0
M  V30 3438 H 346.681 5.51995 0.0227149 0
M  V30 3439 H 349.157 3.98712 1.19031 0
M  V30 3440 H 348.033 5.11533 1.99061 0
M  V30 3441 H 348.294 3.51918 2.67593 0
M  V30 3442 N 347.353 -0.0568162 1.57498 0
M  V30 3443 C 348.263 -1.08346 2.08083 0
M  V30 3444 C 349.279 -1.41439 1.01346 0
M  V30 3445 O 350.455 -1.51316 1.32912 0
M  V30 3446 C 347.52 -2.37352 2.52715 0
M  V30 3447 C 346.581 -2.11093 3.73816 0
M  V30 3448 C 345.814 -3.33949 4.1631 0
M  V30 3449 O 346.037 -4.43622 3.58547 0
M  V30 3450 O 344.971 -3.21279 5.08983 0
M  V30 3451 H 348.797 -0.683667 2.95905 0
M  V30 3452 H 346.382 -0.271965 1.46904 0
M  V30 3453 H 348.264 -3.13246 2.81877 0
M  V30 3454 H 346.939 -2.76681 1.68016 0
M  V30 3455 H 345.846 -1.32856 3.49714 0
M  V30 3456 H 347.179 -1.76637 4.59413 0
M  V30 3457 N 348.832 -1.54138 -0.328536 0
M  V30 3458 C 350.243 -1.63395 -0.903272 0
M  V30 3459 C 350.594 -0.524828 -1.8905 0
M  V30 3460 O 349.719 0.343068 -2.13663 0
M  V30 3461 C 350.314 -2.9618 -1.64507 0
M  V30 3462 C 348.873 -3.0765 -2.1686 0
M  V30 3463 C 348.02 -2.58933 -0.992416 0
M  V30 3464 H 350.971 -1.58344 -0.106253 0
M  V30 3465 H 350.992 -2.86061 -2.50897 0
M  V30 3466 H 350.504 -3.76884 -0.926302 0
M  V30 3467 H 348.605 -2.31611 -2.91868 0
M  V30 3468 H 348.718 -4.1337 -2.42202 0
M  V30 3469 H 347.082 -2.14706 -1.37016 0
M  V30 3470 H 347.865 -3.42089 -0.288041 0
M  V30 3471 N 350.31 0.590341 -1.46126 0
M  V30 3472 C 351.273 1.68194 -1.55703 0
M  V30 3473 C 352.273 1.54808 -0.434868 0
M  V30 3474 O 353.463 1.59564 -0.698928 0
M  V30 3475 C 350.595 3.07575 -1.47005 0
M  V30 3476 H 351.788 1.61064 -2.52979 0
M  V30 3477 H 349.341 0.807541 -1.33823 0
M  V30 3478 H 350.076 3.20268 -0.509785 0
M  V30 3479 H 349.861 3.187 -2.28414 0
M  V30 3480 H 351.351 3.87055 -1.56776 0
M  V30 3481 N 351.788 1.33704 0.83433 0
M  V30 3482 C 352.751 1.24244 1.92603 0
M  V30 3483 C 353.751 0.160383 1.59998 0
M  V30 3484 O 354.941 0.412228 1.69252 0
M  V30 3485 C 352.073 0.91555 3.28376 0
M  V30 3486 H 353.266 2.21287 2.02416 0
M  V30 3487 H 350.819 1.17827 1.02696 0
M  V30 3488 H 351.554 -0.0521886 3.24258 0
M  V30 3489 H 351.339 1.69811 3.53422 0
M  V30 3490 H 352.829 0.874231 4.08347 0
M  V30 3491 N 353.266 -1.05314 1.17247 0
M  V30 3492 C 354.176 -2.16538 0.90268 0
M  V30 3493 C 355.192 -1.73523 -0.128707 0
M  V30 3494 O 356.368 -2.01337 0.0502701 0
M  V30 3495 C 353.433 -3.44167 0.418356 0
M  V30 3496 C 352.494 -4.01635 1.51618 0
M  V30 3497 C 351.727 -5.23171 1.05487 0
M  V30 3498 O 351.95 -5.70327 -0.0914715 0
M  V30 3499 O 350.884 -5.72848 1.8474 0
M  V30 3500 H 354.71 -2.42145 1.83302 0
M  V30 3501 H 352.295 -1.15037 0.953246 0
M  V30 3502 H 354.177 -4.21112 0.155726 0
M  V30 3503 H 352.852 -3.20063 -0.48385 0
M  V30 3504 H 351.759 -3.26135 1.83268 0
M  V30 3505 H 353.092 -4.30053 2.39405 0
M  V30 3506 N 354.744 -0.972509 -1.24016 0
M  V30 3507 C 355.676 -0.464375 -2.24446 0
M  V30 3508 C 356.689 0.4295 -1.57032 0
M  V30 3509 O 357.878 0.234902 -1.76948 0
M  V30 3510 C 354.978 0.348385 -3.37105 0
M  V30 3511 C 354.151 -0.53673 -4.34094 0
M  V30 3512 C 353.21 0.220838 -5.25736 0
M  V30 3513 O 352.236 -0.386867 -5.67884 0
M  V30 3514 N 353.438 1.50907 -5.60542 0
M  V30 3515 H 356.203 -1.32788 -2.68677 0
M  V30 3516 H 353.764 -0.844877 -1.38107 0
M  V30 3517 H 355.756 0.863341 -3.95384 0
M  V30 3518 H 354.326 1.11285 -2.92121 0
M  V30 3519 H 353.546 -1.23261 -3.74433 0
M  V30 3520 H 354.834 -1.14022 -4.95859 0
M  V30 3521 H 354.232 2.02444 -5.28236 0
M  V30 3522 H 352.789 1.96962 -6.21329 0
M  V30 3523 N 356.222 1.38976 -0.743202 0
M  V30 3524 C 357.47 1.99948 -0.29417 0
M  V30 3525 C 357.791 1.59279 1.12495 0
M  V30 3526 O 357.061 0.844808 1.76748 0
M  V30 3527 H 355.641 0.739473 -0.105774 0
M  V30 3528 H 358.303 1.699 -0.954986 0
M  V30 3529 H 357.399 3.10142 -0.349056 0
M  V30 3530 N 357.7 0.491464 1.49741 0
M  V30 3531 C 358.63 -0.28154 2.31796 0
M  V30 3532 C 359.611 -0.971473 1.3963 0
M  V30 3533 O 360.796 -0.964719 1.68543 0
M  V30 3534 C 357.926 -1.35203 3.19902 0
M  V30 3535 C 356.88 -0.782529 4.20786 0
M  V30 3536 C 356.206 -1.95283 4.97764 0
M  V30 3537 C 357.506 0.21999 5.21837 0
M  V30 3538 H 359.2 0.403355 2.96671 0
M  V30 3539 H 356.746 0.195425 1.42668 0
M  V30 3540 H 358.699 -1.90045 3.76113 0
M  V30 3541 H 357.423 -2.06598 2.52953 0
M  V30 3542 H 356.082 -0.255928 3.65706 0
M  V30 3543 H 355.73 -2.65423 4.2727 0
M  V30 3544 H 355.43 -1.57789 5.66018 0
M  V30 3545 H 356.954 -2.50577 5.56816 0
M  V30 3546 H 358.368 -0.23996 5.72798 0
M  V30 3547 H 356.765 0.51026 5.97927 0
M  V30 3548 H 357.835 1.13911 4.7133 0
M  V30 3549 N 359.178 -1.55987 0.224894 0
M  V30 3550 C 360.11 -2.17722 -0.716224 0
M  V30 3551 C 361.123 -1.14723 -1.15509 0
M  V30 3552 O 362.312 -1.41688 -1.08567 0
M  V30 3553 C 359.412 -2.74873 -1.98238 0
M  V30 3554 C 358.585 -4.03074 -1.69853 0
M  V30 3555 C 357.644 -4.44757 -2.81208 0
M  V30 3556 O 356.67 -5.11587 -2.49534 0
M  V30 3557 N 357.872 -4.10716 -4.10235 0
M  V30 3558 H 360.637 -2.99109 -0.188123 0
M  V30 3559 H 358.198 -1.6184 0.0440123 0
M  V30 3560 H 360.19 -2.99727 -2.7193 0
M  V30 3561 H 358.76 -1.9777 -2.42086 0
M  V30 3562 H 357.98 -3.86041 -0.797875 0
M  V30 3563 H 359.268 -4.86701 -1.48324 0
M  V30 3564 H 358.666 -3.57019 -4.38809 0
M  V30 3565 H 357.223 -4.40455 -4.80461 0
M  V30 3566 N 360.656 0.0484629 -1.57525 0
M  V30 3567 C 361.619 1.03956 -2.04269 0
M  V30 3568 C 362.619 1.30211 -0.943496 0
M  V30 3569 O 363.809 1.25539 -1.20771 0
M  V30 3570 C 360.941 2.37742 -2.44319 0
M  V30 3571 H 362.134 0.636182 -2.93075 0
M  V30 3572 H 359.687 0.294811 -1.53494 0
M  V30 3573 H 360.422 2.82866 -1.5861 0
M  V30 3574 H 360.207 2.20021 -3.24551 0
M  V30 3575 H 361.697 3.08936 -2.80978 0
M  V30 3576 N 362.134 1.5431 0.320358 0
M  V30 3577 C 363.097 1.83195 1.3774 0
M  V30 3578 C 364.097 0.703906 1.44575 0
M  V30 3579 O 365.287 0.972214 1.44546 0
M  V30 3580 C 362.419 1.99487 2.76438 0
M  V30 3581 H 363.612 2.77642 1.1338 0
M  V30 3582 H 361.165 1.46076 0.556012 0
M  V30 3583 H 361.9 1.07262 3.06048 0
M  V30 3584 H 361.685 2.81575 2.7287 0
M  V30 3585 H 363.175 2.23271 3.52902 0
M  V30 3586 N 363.613 -0.582584 1.46437 0
M  V30 3587 C 364.862 -1.337 1.5102 0
M  V30 3588 C 365.175 -1.94891 0.166359 0
M  V30 3589 O 366.381 -2.71351 0.0899954 0
M  V30 3590 C 364.837 -2.42315 2.66104 0
M  V30 3591 C 364.445 -1.87427 4.06909 0
M  V30 3592 C 366.189 -3.19099 2.79958 0
M  V30 3593 C 364.096 -2.93672 5.13333 0
M  V30 3594 H 363.026 -0.502619 0.562041 0
M  V30 3595 H 365.677 -0.621701 1.72647 0
M  V30 3596 H 364.059 -3.16645 2.37807 0
M  V30 3597 H 365.233 -1.19639 4.44998 0
M  V30 3598 H 363.548 -1.2331 3.97723 0
M  V30 3599 H 366.145 -3.9839 3.56636 0
M  V30 3600 H 366.488 -3.71695 1.87479 0
M  V30 3601 H 367.021 -2.51875 3.07902 0
M  V30 3602 H 363.76 -2.45962 6.07604 0
M  V30 3603 H 363.28 -3.59948 4.79789 0
M  V30 3604 H 364.959 -3.5762 5.39182 0
M  V30 3605 N 365.091 -1.34144 -0.827227 0
M  V30 3606 C 366.038 -1.25364 -1.93785 0
M  V30 3607 C 367.008 -0.129774 -1.65592 0
M  V30 3608 O 368.193 -0.310024 -1.88264 0
M  V30 3609 C 365.333 -1.01064 -3.2997 0
M  V30 3610 C 364.446 -2.22185 -3.70484 0
M  V30 3611 C 363.581 -1.91203 -4.95595 0
M  V30 3612 C 362.62 -3.08491 -5.28677 0
M  V30 3613 N 361.757 -2.77421 -6.44967 0
M  V30 3614 H 366.597 -2.20347 -2.00627 0
M  V30 3615 H 364.134 -1.09558 -0.981608 0
M  V30 3616 H 366.092 -0.850139 -4.08446 0
M  V30 3617 H 364.722 -0.0975026 -3.22653 0
M  V30 3618 H 363.774 -2.4917 -2.87434 0
M  V30 3619 H 365.086 -3.0983 -3.90905 0
M  V30 3620 H 364.24 -1.71864 -5.81848 0
M  V30 3621 H 362.979 -1.00812 -4.77167 0
M  V30 3622 H 361.984 -3.28431 -4.40923 0
M  V30 3623 H 363.209 -3.99655 -5.49047 0
M  V30 3624 H 361.155 -1.89601 -6.28003 0
M  V30 3625 H 361.072 -3.58598 -6.6554 0
M  V30 3626 H 362.34 -2.61577 -7.34301 0
M  V30 3627 N 366.569 1.04691 -1.17803 0
M  V30 3628 C 367.532 2.10724 -0.901545 0
M  V30 3629 C 368.532 1.6042 0.110437 0
M  V30 3630 O 369.722 1.7377 -0.122303 0
M  V30 3631 C 366.854 3.39084 -0.351409 0
M  V30 3632 H 368.047 2.36686 -1.84174 0
M  V30 3633 H 365.6 1.21015 -0.98919 0
M  V30 3634 H 366.335 3.18782 0.59569 0
M  V30 3635 H 366.12 3.76909 -1.08083 0
M  V30 3636 H 367.61 4.17227 -0.176451 0
M  V30 3637 N 368.047 0.979072 1.23499 0
M  V30 3638 C 369.01 0.523244 2.23147 0
M  V30 3639 C 370.01 -0.386406 1.56088 0
M  V30 3640 O 371.2 -0.180283 1.73265 0
M  V30 3641 C 368.332 -0.240739 3.40049 0
M  V30 3642 H 369.525 1.40432 2.64989 0
M  V30 3643 H 367.078 0.764824 1.36309 0
M  V30 3644 H 367.813 -1.13841 3.03662 0
M  V30 3645 H 367.598 0.412207 3.89927 0
M  V30 3646 H 369.088 -0.548297 4.13985 0
M  V30 3647 N 369.525 -1.3858 0.750561 0
M  V30 3648 C 370.435 -2.34278 0.122825 0
M  V30 3649 C 371.451 -1.59116 -0.704131 0
M  V30 3650 O 372.627 -1.91326 -0.628987 0
M  V30 3651 C 369.692 -3.38221 -0.762086 0
M  V30 3652 C 368.753 -4.29227 0.078896 0
M  V30 3653 C 367.986 -5.28205 -0.763874 0
M  V30 3654 O 368.209 -5.34112 -2.00201 0
M  V30 3655 O 367.143 -6.01618 -0.18428 0
M  V30 3656 H 370.969 -2.89649 0.913088 0
M  V30 3657 H 368.554 -1.40374 0.511417 0
M  V30 3658 H 370.436 -4.01872 -1.26793 0
M  V30 3659 H 369.111 -2.85211 -1.5309 0
M  V30 3660 H 368.018 -3.68747 0.630621 0
M  V30 3661 H 369.351 -4.85484 0.810289 0
M  V30 3662 N 371.003 -0.499398 -1.49478 0
M  V30 3663 C 372.419 -0.155261 -1.58843 0
M  V30 3664 C 372.619 1.34008 -1.50479 0
M  V30 3665 O 371.675 2.11589 -1.37791 0
M  V30 3666 C 372.988 -0.730636 -2.91689 0
M  V30 3667 C 374.536 -0.696599 -3.0515 0
M  V30 3668 C 375.011 -1.25001 -4.40612 0
M  V30 3669 N 376.502 -1.21064 -4.47099 0
M  V30 3670 C 377.237 -1.60905 -5.50361 0
M  V30 3671 N 376.733 -2.08331 -6.60735 0
M  V30 3672 N 378.526 -1.52331 -5.41065 0
M  V30 3673 H 370.677 -1.47162 -1.53158 0
M  V30 3674 H 372.94 -0.610309 -0.725415 0
M  V30 3675 H 372.646 -1.77928 -3.03372 0
M  V30 3676 H 372.52 -0.190161 -3.7672 0
M  V30 3677 H 374.907 0.343204 -2.93097 0
M  V30 3678 H 374.988 -1.2742 -2.21806 0
M  V30 3679 H 374.632 -2.28859 -4.53416 0
M  V30 3680 H 374.562 -0.64836 -5.22593 0
M  V30 3681 H 377.053 -0.863128 -3.67911 0
M  V30 3682 H 377.366 -2.36805 -7.35624 0
M  V30 3683 H 375.711 -2.12304 -6.6178 0
M  V30 3684 H 378.902 -1.151 -4.53729 0
M  V30 3685 H 379.075 -1.83704 -6.21415 0
M  V30 3686 N 372.481 1.55866 -0.233164 0
M  V30 3687 C 373.444 2.1953 0.658715 0
M  V30 3688 C 374.444 1.16053 1.11303 0
M  V30 3689 O 375.634 1.41218 1.01996 0
M  V30 3690 C 372.766 2.82791 1.90373 0
M  V30 3691 H 373.959 2.99721 0.10347 0
M  V30 3692 H 371.512 1.56291 0.0164245 0
M  V30 3693 H 372.247 2.06501 2.50056 0
M  V30 3694 H 372.032 3.58578 1.58632 0
M  V30 3695 H 373.522 3.31556 2.53891 0
M  V30 3696 N 373.959 -0.0401083 1.57549 0
M  V30 3697 C 375.207 -0.731677 1.8839 0
M  V30 3698 C 375.528 -1.76481 0.829425 0
M  V30 3699 O 374.798 -1.95411 -0.1383 0
M  V30 3700 H 373.378 -0.273225 0.695239 0
M  V30 3701 H 376.04 -0.00867725 1.94898 0
M  V30 3702 H 375.136 -1.22816 2.86919 0
M  V30 3703 N 375.437 -1.54477 -0.31217 0
M  V30 3704 C 376.4 -1.83923 -1.36766 0
M  V30 3705 C 377.4 -0.711563 -1.44199 0
M  V30 3706 O 378.59 -0.979866 -1.44029 0
M  V30 3707 C 375.722 -2.0095 -2.75376 0
M  V30 3708 H 376.915 -2.78239 -1.11906 0
M  V30 3709 H 374.468 -1.46369 -0.548257 0
M  V30 3710 H 375.203 -1.08883 -3.05475 0
M  V30 3711 H 374.988 -2.83018 -2.71373 0
M  V30 3712 H 376.478 -2.2514 -3.51713 0
M  V30 3713 N 376.915 0.57481 -1.46744 0
M  V30 3714 C 378.14 1.36341 -1.56288 0
M  V30 3715 C 378.565 1.86954 -0.207347 0
M  V30 3716 O 377.923 1.62006 0.813871 0
M  V30 3717 C 377.971 2.52147 -2.57787 0
M  V30 3718 O 377.075 3.53834 -2.11838 0
M  V30 3719 H 376.416 0.405713 -0.525636 0
M  V30 3720 H 378.946 0.696453 -1.92382 0
M  V30 3721 H 378.956 2.98958 -2.77648 0
M  V30 3722 H 377.631 2.14663 -3.5622 0
M  V30 3723 H 376.208 3.1345 -2.01999 0
M  V30 3724 N 378.394 1.34581 0.820102 0
M  V30 3725 C 379.64 1.27285 1.57881 0
M  V30 3726 C 379.973 -0.156137 1.93571 0
M  V30 3727 O 379.248 -1.10222 1.60254 0
M  V30 3728 C 379.531 2.16639 2.87645 0
M  V30 3729 C 379.384 3.68088 2.58517 0
M  V30 3730 C 380.703 2.05378 3.8924 0
M  V30 3731 H 377.822 0.463714 0.572833 0
M  V30 3732 H 380.464 1.64859 0.944539 0
M  V30 3733 H 378.614 1.84725 3.41773 0
M  V30 3734 H 380.286 4.10382 2.10676 0
M  V30 3735 H 378.529 3.89038 1.91917 0
M  V30 3736 H 379.2 4.2598 3.51063 0
M  V30 3737 H 381.676 2.33404 3.44473 0
M  V30 3738 H 380.552 2.7012 4.77835 0
M  V30 3739 H 380.813 1.0316 4.29896 0
M  V30 3740 N 379.872 -1.04064 1.18357 0
M  V30 3741 C 380.804 -2.12114 0.868358 0
M  V30 3742 C 381.817 -1.62247 -0.134045 0
M  V30 3743 O 383.006 -1.78253 0.0937933 0
M  V30 3744 C 380.106 -3.37773 0.276132 0
M  V30 3745 C 379.279 -4.16874 1.3242 0
M  V30 3746 C 378.338 -5.20861 0.747662 0
M  V30 3747 O 377.364 -5.51141 1.42239 0
M  V30 3748 N 378.566 -5.78715 -0.454823 0
M  V30 3749 H 381.331 -2.39748 1.79836 0
M  V30 3750 H 378.892 -1.20258 1.08396 0
M  V30 3751 H 380.884 -4.04513 -0.123133 0
M  V30 3752 H 379.454 -3.07581 -0.557895 0
M  V30 3753 H 378.674 -3.45456 1.89878 0
M  V30 3754 H 379.962 -4.66516 2.03078 0
M  V30 3755 H 379.36 -5.56415 -1.02073 0
M  V30 3756 H 377.917 -6.46921 -0.79601 0
M  V30 3757 N 381.35 -0.985608 -1.22978 0
M  V30 3758 C 382.313 -0.535071 -2.22867 0
M  V30 3759 C 383.313 0.378123 -1.56291 0
M  V30 3760 O 384.503 0.171092 -1.73358 0
M  V30 3761 C 381.635 0.222702 -3.40172 0
M  V30 3762 H 382.828 -1.41835 -2.6424 0
M  V30 3763 H 380.381 -0.772042 -1.35901 0
M  V30 3764 H 381.116 1.12229 -3.04262 0
M  V30 3765 H 380.901 -0.43288 -3.89703 0
M  V30 3766 H 382.391 0.526335 -4.1427 0
M  V30 3767 N 382.828 1.3818 -0.7579 0
M  V30 3768 C 384.077 1.99261 -0.312744 0
M  V30 3769 C 384.39 1.60846 1.11301 0
M  V30 3770 O 385.596 2.14929 1.65885 0
M  V30 3771 C 384.052 3.56294 -0.50821 0
M  V30 3772 C 383.66 4.03657 -1.94333 0
M  V30 3773 C 385.404 4.24313 -0.125982 0
M  V30 3774 C 383.311 5.53347 -2.08712 0
M  V30 3775 H 382.241 0.745456 -0.113185 0
M  V30 3776 H 384.892 1.57889 -0.935056 0
M  V30 3777 H 383.274 3.95575 0.183353 0
M  V30 3778 H 384.448 3.75655 -2.66871 0
M  V30 3779 H 382.763 3.48376 -2.28086 0
M  V30 3780 H 385.36 5.34279 -0.212125 0
M  V30 3781 H 385.703 4.05962 0.921964 0
M  V30 3782 H 386.236 3.90285 -0.769563 0
M  V30 3783 H 382.975 5.76607 -3.11777 0
M  V30 3784 H 382.495 5.83078 -1.4064 0
M  V30 3785 H 384.174 6.19111 -1.87912 0
M  V30 3786 N 384.306 0.507319 1.49211 0
M  V30 3787 C 385.583 -0.0982702 1.95353 0
M  V30 3788 C 385.963 -1.53516 1.449 0
M  V30 3789 O 385.311 -2.18594 0.66551 0
M  V30 3790 C 385.521 -0.00440283 3.49 0
M  V30 3791 C 386.869 -0.175147 4.24239 0
M  V30 3792 O 387.893 -0.0792891 3.56112 0
M  V30 3793 O 386.752 -0.37276 5.45227 0
M  V30 3794 H 383.846 -0.0918236 0.821887 0
M  V30 3795 H 386.392 0.570307 1.5983 0
M  V30 3796 H 385.164 0.997402 3.78375 0
M  V30 3797 H 384.787 -0.712845 3.91158 0
M  V30 3798 N 385.784 -1.5574 0.241426 0
M  V30 3799 C 386.714 -2.24133 -0.654722 0
M  V30 3800 C 387.695 -1.21974 -1.1856 0
M  V30 3801 O 388.88 -1.50612 -1.22595 0
M  V30 3802 C 386.01 -2.93659 -1.85423 0
M  V30 3803 C 384.964 -4.0246 -1.45636 0
M  V30 3804 C 384.29 -4.59383 -2.73626 0
M  V30 3805 C 385.59 -5.18468 -0.631506 0
M  V30 3806 H 387.284 -2.99281 -0.0844353 0
M  V30 3807 H 384.83 -1.43947 -0.0391707 0
M  V30 3808 H 386.783 -3.40203 -2.48676 0
M  V30 3809 H 385.507 -2.15991 -2.44981 0
M  V30 3810 H 384.166 -3.56676 -0.847202 0
M  V30 3811 H 383.814 -3.78422 -3.3137 0
M  V30 3812 H 383.514 -5.32826 -2.4773 0
M  V30 3813 H 385.038 -5.08658 -3.37786 0
M  V30 3814 H 386.452 -5.61272 -1.1682 0
M  V30 3815 H 384.849 -5.98266 -0.468831 0
M  V30 3816 H 385.919 -4.8358 0.357506 0
M  V30 3817 N 387.262 0.0317525 -1.57568 0
M  V30 3818 C 388.673 0.578692 -1.77505 0
M  V30 3819 C 389.024 1.75749 -0.872164 0
M  V30 3820 O 388.149 2.16298 -0.0663106 0
M  V30 3821 C 388.744 1.05658 -3.21904 0
M  V30 3822 C 387.303 1.54906 -3.43047 0
M  V30 3823 C 386.45 0.485939 -2.73009 0
M  V30 3824 H 389.401 -0.194475 -1.57504 0
M  V30 3825 H 389.422 1.92404 -3.28269 0
M  V30 3826 H 388.934 0.198422 -3.87592 0
M  V30 3827 H 387.035 2.42915 -2.82529 0
M  V30 3828 H 387.148 1.59841 -4.5165 0
M  V30 3829 H 385.512 0.940354 -2.36705 0
M  V30 3830 H 386.295 -0.362709 -3.41379 0
M  V30 3831 N 388.74 1.54641 0.303973 0
M  V30 3832 C 389.65 1.88439 1.39743 0
M  V30 3833 C 390.666 0.778239 1.55626 0
M  V30 3834 O 391.842 1.07442 1.70347 0
M  V30 3835 C 388.907 2.12212 2.74166 0
M  V30 3836 C 387.968 3.35936 2.67293 0
M  V30 3837 C 387.201 3.58566 3.95305 0
M  V30 3838 O 387.424 2.84263 4.9452 0
M  V30 3839 O 386.358 4.52078 3.97378 0
M  V30 3840 H 390.184 2.81458 1.14083 0
M  V30 3841 H 387.769 1.40793 0.499768 0
M  V30 3842 H 389.651 2.29067 3.53704 0
M  V30 3843 H 388.326 1.22379 2.99675 0
M  V30 3844 H 387.233 3.24448 1.86237 0
M  V30 3845 H 388.566 4.2589 2.46736 0
M  V30 3846 N 390.218 -0.567019 1.47046 0
M  V30 3847 C 391.181 -1.65696 1.58359 0
M  V30 3848 C 392.181 -1.54097 0.459441 0
M  V30 3849 O 393.371 -1.58432 0.724225 0
M  V30 3850 C 390.503 -3.05197 1.51879 0
M  V30 3851 H 391.696 -1.57019 2.5551 0
M  V30 3852 H 389.249 -0.786148 1.3509 0
M  V30 3853 H 389.984 -3.19417 0.560673 0
M  V30 3854 H 389.769 -3.15025 2.33455 0
M  V30 3855 H 391.259 -3.84511 1.62913 0
M  V30 3856 N 391.696 -1.35014 -0.812953 0
M  V30 3857 C 392.942 -1.2812 -1.57204 0
M  V30 3858 C 393.275 0.145869 -1.93651 0
M  V30 3859 O 392.55 1.0937 -1.60836 0
M  V30 3860 C 392.833 -2.18162 -2.86492 0
M  V30 3861 C 392.686 -3.69454 -2.56561 0
M  V30 3862 C 394.005 -2.07439 -3.88145 0
M  V30 3863 H 391.124 -0.466746 -0.570366 0
M  V30 3864 H 393.766 -1.65357 -0.935783 0
M  V30 3865 H 391.916 -1.86535 -3.40789 0
M  V30 3866 H 393.588 -4.11493 -2.08497 0
M  V30 3867 H 391.831 -3.9005 -1.89851 0
M  V30 3868 H 392.502 -4.27835 -3.48799 0
M  V30 3869 H 394.978 -2.35228 -3.4323 0
M  V30 3870 H 393.854 -2.7265 -4.76396 0
M  V30 3871 H 394.115 -1.05439 -4.29343 0
M  V30 3872 N 393.175 1.03435 -1.18907 0
M  V30 3873 C 394.125 2.09924 -0.889706 0
M  V30 3874 C 395.109 1.60261 0.143216 0
M  V30 3875 O 396.301 1.76892 -0.0617122 0
M  V30 3876 C 393.43 3.40669 -0.424168 0
M  V30 3877 C 392.516 3.97082 -1.48952 0
M  V30 3878 N 392.907 4.27227 -2.70759 0
M  V30 3879 C 391.205 4.25029 -1.35152 0
M  V30 3880 C 391.906 4.7246 -3.39347 0
M  V30 3881 N 390.882 4.7366 -2.66735 0
M  V30 3882 H 394.684 2.31116 -1.81555 0
M  V30 3883 H 392.198 1.21246 -1.08042 0
M  V30 3884 H 394.195 4.16461 -0.191176 0
M  V30 3885 H 392.855 3.20901 0.495263 0
M  V30 3886 H 393.866 4.16678 -3.0757 0
M  V30 3887 H 390.543 4.14554 -0.495126 0
M  V30 3888 H 391.933 5.04751 -4.43481 0
M  V30 3889 N 394.653 0.992116 1.22453 0
M  V30 3890 C 395.563 0.55065 2.28046 0
M  V30 3891 C 396.579 -0.400189 1.69335 0
M  V30 3892 O 397.755 -0.267215 1.99619 0
M  V30 3893 C 394.82 -0.128496 3.46462 0
M  V30 3894 C 393.881 0.865208 4.20491 0
M  V30 3895 C 393.114 0.218377 5.33253 0
M  V30 3896 O 393.337 -0.987894 5.6178 0
M  V30 3897 O 392.271 0.922845 5.94783 0
M  V30 3898 H 396.097 1.4291 2.67975 0
M  V30 3899 H 393.682 0.760326 1.28606 0
M  V30 3900 H 395.564 -0.508947 4.18315 0
M  V30 3901 H 394.239 -0.981526 3.0846 0
M  V30 3902 H 393.146 1.29658 3.50913 0
M  V30 3903 H 394.479 1.68741 4.62371 0
M  V30 3904 N 396.131 -1.37776 0.765217 0
M  V30 3905 C 397.094 -2.28686 0.153416 0
M  V30 3906 C 398.094 -1.47727 -0.635081 0
M  V30 3907 O 399.284 -1.68027 -0.459632 0
M  V30 3908 C 396.416 -3.31608 -0.790495 0
M  V30 3909 H 397.609 -2.84297 0.954723 0
M  V30 3910 H 395.162 -1.46932 0.53299 0
M  V30 3911 H 395.897 -2.81109 -1.61705 0
M  V30 3912 H 395.682 -3.9144 -0.227348 0
M  V30 3913 H 397.172 -3.99559 -1.21419 0
M  V30 3914 N 397.609 -0.515225 -1.4894 0
M  V30 3915 C 398.855 0.016187 -2.03394 0
M  V30 3916 C 399.21 1.33377 -1.38666 0
M  V30 3917 O 398.503 1.84461 -0.518141 0
M  V30 3918 C 398.697 0.210595 -3.56779 0
M  V30 3919 C 398.526 -1.08659 -4.36375 0
M  V30 3920 C 397.296 -1.64237 -4.77864 0
M  V30 3921 C 399.494 -1.9935 -4.74093 0
M  V30 3922 N 397.476 -2.88398 -5.41941 0
M  V30 3923 C 398.847 -3.08088 -5.38035 0
M  V30 3924 C 400.902 -1.99856 -4.56029 0
M  V30 3925 C 399.605 -4.17377 -5.85823 0
M  V30 3926 C 401.631 -3.08129 -5.04787 0
M  V30 3927 C 400.993 -4.15586 -5.68742 0
M  V30 3928 H 397.092 -0.0352107 -0.781207 0
M  V30 3929 H 399.676 -0.693237 -1.8194 0
M  V30 3930 H 397.847 0.889088 -3.78087 0
M  V30 3931 H 399.579 0.740287 -3.97872 0
M  V30 3932 H 396.334 -1.18566 -4.58518 0
M  V30 3933 H 396.758 -3.51572 -5.78555 0
M  V30 3934 H 401.4 -1.18079 -4.05977 0
M  V30 3935 H 399.118 -4.99943 -6.34888 0
M  V30 3936 H 402.704 -3.09557 -4.92611 0
M  V30 3937 H 401.584 -4.97987 -6.05787 0
M  V30 3938 N 399.087 1.5561 -0.249682 0
M  V30 3939 C 400.503 1.59254 0.105103 0
M  V30 3940 C 400.703 1.26685 1.56694 0
M  V30 3941 O 399.759 1.0155 2.31179 0
M  V30 3942 C 401.072 2.99687 -0.246592 0
M  V30 3943 C 402.62 3.12416 -0.191118 0
M  V30 3944 C 403.095 4.55074 -0.516885 0
M  V30 3945 N 404.586 4.60835 -0.467489 0
M  V30 3946 C 405.321 5.69201 -0.69268 0
M  V30 3947 N 404.817 6.85817 -0.981146 0
M  V30 3948 N 406.61 5.58635 -0.623198 0
M  V30 3949 H 398.761 1.75049 -1.20298 0
M  V30 3950 H 401.024 0.815003 -0.484225 0
M  V30 3951 H 400.73 3.28267 -1.26228 0
M  V30 3952 H 400.604 3.74798 0.424962 0
M  V30 3953 H 402.991 2.83615 0.815247 0
M  V30 3954 H 403.072 2.39573 -0.896563 0
M  V30 3955 H 402.716 4.84596 -1.52082 0
M  V30 3956 H 402.646 5.26181 0.210068 0
M  V30 3957 H 405.137 3.7705 -0.253373 0
M  V30 3958 H 405.45 7.64341 -1.14032 0
M  V30 3959 H 403.795 6.87494 -1.01865 0
M  V30 3960 H 406.986 4.66406 -0.397863 0
M  V30 3961 H 407.159 6.43017 -0.802093 0
M  V30 3962 N 400.565 -0.0233959 1.57583 0
M  V30 3963 C 401.814 -0.712133 1.8871 0
M  V30 3964 C 402.127 -1.76217 0.848944 0
M  V30 3965 O 403.333 -2.50389 1.04964 0
M  V30 3966 C 401.789 -1.3177 3.3491 0
M  V30 3967 C 401.397 -0.303715 4.46969 0
M  V30 3968 C 403.141 -1.98598 3.75179 0
M  V30 3969 C 401.048 -0.917945 5.84233 0
M  V30 3970 H 399.978 -0.269735 0.704101 0
M  V30 3971 H 402.629 0.0333114 1.8347 0
M  V30 3972 H 401.011 -2.11304 3.34913 0
M  V30 3973 H 402.185 0.465325 4.58445 0
M  V30 3974 H 400.5 0.2628 4.1557 0
M  V30 3975 H 403.097 -2.45416 4.75053 0
M  V30 3976 H 403.44 -2.80659 3.07468 0
M  V30 3977 H 403.973 -1.25831 3.77374 0
M  V30 3978 H 400.712 -0.136633 6.55358 0
M  V30 3979 H 400.232 -1.65669 5.76467 0
M  V30 3980 H 401.911 -1.4236 6.31144 0
M  V30 3981 N 402.043 -1.548 -0.295768 0
M  V30 3982 C 402.993 -1.82497 -1.3667 0
M  V30 3983 C 403.977 -0.682434 -1.45711 0
M  V30 3984 O 405.169 -0.943207 -1.49775 0
M  V30 3985 C 402.298 -2.08036 -2.73086 0
M  V30 3986 C 401.384 -3.28488 -2.68247 0
M  V30 3987 N 401.775 -4.48924 -2.33025 0
M  V30 3988 C 400.073 -3.3062 -2.99343 0
M  V30 3989 C 400.774 -5.30956 -2.37613 0
M  V30 3990 N 399.75 -4.68805 -2.75178 0
M  V30 3991 H 403.552 -2.73175 -1.0841 0
M  V30 3992 H 401.066 -1.5437 -0.504361 0
M  V30 3993 H 403.063 -2.26027 -3.5031 0
M  V30 3994 H 401.723 -1.18629 -3.02254 0
M  V30 3995 H 402.734 -4.75432 -2.05389 0
M  V30 3996 H 399.411 -2.51336 -3.33371 0
M  V30 3997 H 400.801 -6.37199 -2.13135 0
M  V30 3998 N 403.521 0.559213 -1.47345 0
M  V30 3999 C 404.932 1.14134 -1.47751 0
M  V30 4000 C 405.283 1.94834 -0.231103 0
M  V30 4001 O 404.408 2.05957 0.664137 0
M  V30 4002 C 405.003 2.07653 -2.67705 0
M  V30 4003 C 403.562 2.61141 -2.71076 0
M  V30 4004 C 402.709 1.3748 -2.40821 0
M  V30 4005 H 405.66 0.345917 -1.54884 0
M  V30 4006 H 405.681 2.91497 -2.44561 0
M  V30 4007 H 405.193 1.4889 -3.58404 0
M  V30 4008 H 403.294 3.23707 -1.84511 0
M  V30 4009 H 403.407 3.02272 -3.7171 0
M  V30 4010 H 401.771 1.68086 -1.91362 0
M  V30 4011 H 402.554 0.805135 -3.33725 0
M  V30 4012 N 404.999 1.35443 0.805782 0
M  V30 4013 C 406.248 1.28097 1.55801 0
M  V30 4014 C 406.561 -0.142428 1.95081 0
M  V30 4015 O 407.767 -0.33817 2.69386 0
M  V30 4016 C 406.223 2.24653 2.81174 0
M  V30 4017 C 405.831 3.72342 2.49129 0
M  V30 4018 C 407.575 2.2625 3.59181 0
M  V30 4019 C 405.482 4.60719 3.70799 0
M  V30 4020 H 404.412 0.475937 0.584808 0
M  V30 4021 H 407.063 1.60712 0.885661 0
M  V30 4022 H 405.445 1.85011 3.50124 0
M  V30 4023 H 406.619 4.20624 1.88181 0
M  V30 4024 H 404.934 3.73361 1.84366 0
M  V30 4025 H 407.531 2.89495 4.49552 0
M  V30 4026 H 407.874 1.26647 3.96568 0
M  V30 4027 H 408.407 2.64426 2.97193 0
M  V30 4028 H 405.146 5.61324 3.3852 0
M  V30 4029 H 404.666 4.17163 4.3097 0
M  V30 4030 H 406.345 4.76182 4.38018 0
M  V30 4031 N 406.477 -1.02803 1.19454 0
M  V30 4032 C 407.726 -1.7562 0.991996 0
M  V30 4033 C 408.039 -1.89672 -0.477901 0
M  V30 4034 O 409.245 -2.59468 -0.799287 0
M  V30 4035 C 407.701 -3.15812 1.72601 0
M  V30 4036 C 407.309 -3.0981 3.23607 0
M  V30 4037 C 409.053 -3.92918 1.60674 0
M  V30 4038 C 406.96 -4.44939 3.89594 0
M  V30 4039 H 405.89 -0.658352 0.367543 0
M  V30 4040 H 408.541 -1.15044 1.42959 0
M  V30 4041 H 406.923 -3.7686 1.21624 0
M  V30 4042 H 408.097 -2.58138 3.81709 0
M  V30 4043 H 406.412 -2.46201 3.35819 0
M  V30 4044 H 409.009 -4.9287 2.07323 0
M  V30 4045 H 409.352 -4.12502 0.561025 0
M  V30 4046 H 409.885 -3.38472 2.09001 0
M  V30 4047 H 406.624 -4.30559 4.94267 0
M  V30 4048 H 406.144 -4.96664 3.36281 0
M  V30 4049 H 407.823 -5.1382 3.93189 0
M  V30 4050 N 407.956 -0.998596 -1.21925 0
M  V30 4051 C 408.888 -0.511879 -2.23411 0
M  V30 4052 C 409.901 0.396094 -1.57908 0
M  V30 4053 O 411.09 0.197316 -1.77406 0
M  V30 4054 C 408.19 0.276802 -3.37768 0
M  V30 4055 C 407.363 -0.628687 -4.32858 0
M  V30 4056 C 406.422 0.109272 -5.26087 0
M  V30 4057 O 405.448 -0.507237 -5.66935 0
M  V30 4058 N 406.65 1.38983 -5.63617 0
M  V30 4059 H 409.415 -1.38457 -2.658 0
M  V30 4060 H 406.976 -0.873981 -1.36283 0
M  V30 4061 H 408.968 0.77928 -3.97126 0
M  V30 4062 H 407.538 1.05063 -2.94415 0
M  V30 4063 H 406.758 -1.31175 -3.71735 0
M  V30 4064 H 408.046 -1.24514 -4.93329 0
M  V30 4065 H 407.444 1.91194 -5.32411 0
M  V30 4066 H 406.001 1.83739 -6.25367 0
M  V30 4067 N 409.434 1.37368 -0.772513 0
M  V30 4068 C 410.711 1.93839 -0.26188 0
M  V30 4069 C 411.091 1.7061 1.24319 0
M  V30 4070 O 410.439 1.05534 2.02669 0
M  V30 4071 C 410.649 3.43154 -0.636102 0
M  V30 4072 C 411.997 4.20249 -0.606324 0
M  V30 4073 O 413.021 3.5152 -0.575538 0
M  V30 4074 O 411.88 5.42809 -0.634086 0
M  V30 4075 H 408.974 0.82478 -0.0605555 0
M  V30 4076 H 411.52 1.4665 -0.853917 0
M  V30 4077 H 410.292 3.53647 -1.6748 0
M  V30 4078 H 409.915 3.97596 -0.0170516 0
M  V30 4079 N 410.912 0.523116 1.48665 0
M  V30 4080 C 412.159 -0.0134763 2.02496 0
M  V30 4081 C 412.487 -1.3493 1.40086 0
M  V30 4082 O 411.742 -1.88286 0.533567 0
M  V30 4083 C 412.041 -0.191671 3.56886 0
M  V30 4084 C 411.707 1.06893 4.38046 0
M  V30 4085 C 410.369 1.41443 4.59943 0
M  V30 4086 C 412.721 1.90584 4.85106 0
M  V30 4087 C 410.049 2.59594 5.26144 0
M  V30 4088 C 412.401 3.07907 5.52609 0
M  V30 4089 C 411.065 3.42811 5.72745 0
M  V30 4090 H 410.335 -0.00493133 0.740984 0
M  V30 4091 H 412.982 0.687751 1.78724 0
M  V30 4092 H 411.287 -0.97561 3.79459 0
M  V30 4093 H 412.984 -0.621659 3.96152 0
M  V30 4094 H 409.574 0.789848 4.21259 0
M  V30 4095 H 413.758 1.65203 4.67997 0
M  V30 4096 H 409.014 2.86847 5.39934 0
M  V30 4097 H 413.188 3.73066 5.88043 0
M  V30 4098 H 410.815 4.34462 6.23816 0
M  V30 4099 N 412.39 -1.55475 0.257931 0
M  V30 4100 C 413.3 -2.2549 -0.647425 0
M  V30 4101 C 414.316 -1.2748 -1.18427 0
M  V30 4102 O 415.492 -1.6038 -1.2182 0
M  V30 4103 C 412.557 -2.94916 -1.82278 0
M  V30 4104 C 411.618 -4.08363 -1.32432 0
M  V30 4105 C 410.851 -4.74469 -2.44366 0
M  V30 4106 O 411.074 -4.39701 -3.63344 0
M  V30 4107 O 410.008 -5.62763 -2.13497 0
M  V30 4108 H 413.834 -3.03593 -0.0807707 0
M  V30 4109 H 411.419 -1.49377 0.0259962 0
M  V30 4110 H 413.301 -3.38606 -2.50846 0
M  V30 4111 H 411.976 -2.19744 -2.37685 0
M  V30 4112 H 410.883 -3.69166 -0.605605 0
M  V30 4113 H 412.216 -4.85385 -0.816211 0
M  V30 4114 N 413.868 0.0150385 -1.57593 0
M  V30 4115 C 414.831 0.995996 -2.06428 0
M  V30 4116 C 415.831 1.2818 -0.970903 0
M  V30 4117 O 417.021 1.22949 -1.23406 0
M  V30 4118 C 414.153 2.32506 -2.49307 0
M  V30 4119 H 415.346 0.573873 -2.94358 0
M  V30 4120 H 412.899 0.262186 -1.54085 0
M  V30 4121 H 413.634 2.79438 -1.64575 0
M  V30 4122 H 413.419 2.13087 -3.29145 0
M  V30 4123 H 414.909 3.02906 -2.87468 0
M  V30 4124 N 415.346 1.54954 0.287554 0
M  V30 4125 C 416.296 1.8322 1.357 0
M  V30 4126 C 417.28 0.690152 1.45347 0
M  V30 4127 O 418.472 0.951137 1.49273 0
M  V30 4128 C 415.601 2.09481 2.71979 0
M  V30 4129 C 414.687 3.29906 2.66502 0
M  V30 4130 N 415.078 4.50154 2.30641 0
M  V30 4131 C 413.376 3.32203 2.97585 0
M  V30 4132 C 414.077 5.32209 2.34794 0
M  V30 4133 N 413.053 4.70258 2.72688 0
M  V30 4134 H 416.855 2.73746 1.0696 0
M  V30 4135 H 414.369 1.54635 0.496167 0
M  V30 4136 H 416.366 2.27882 3.49107 0
M  V30 4137 H 415.026 1.2023 3.0162 0
M  V30 4138 H 416.037 4.76515 2.02865 0
M  V30 4139 H 412.714 2.53101 3.32034 0
M  V30 4140 H 414.104 6.38321 2.09753 0
M  V30 4141 N 416.824 -0.551391 1.4764 0
M  V30 4142 C 418.24 -0.877887 1.33287 0
M  V30 4143 C 418.44 -1.98817 0.327721 0
M  V30 4144 O 417.496 -2.51171 -0.258695 0
M  V30 4145 C 418.809 -1.26563 2.72768 0
M  V30 4146 C 420.357 -1.37673 2.81097 0
M  V30 4147 C 420.832 -1.79799 4.21232 0
M  V30 4148 N 422.323 -1.8694 4.23802 0
M  V30 4149 C 423.058 -2.20876 5.29151 0
M  V30 4150 N 422.554 -2.53386 6.448 0
M  V30 4151 N 424.347 -2.217 5.16532 0
M  V30 4152 H 416.498 0.18153 2.11623 0
M  V30 4153 H 418.761 0.0185514 0.947818 0
M  V30 4154 H 418.467 -0.523591 3.47781 0
M  V30 4155 H 418.341 -2.22052 3.04915 0
M  V30 4156 H 420.728 -2.10956 2.06353 0
M  V30 4157 H 420.809 -0.40357 2.52596 0
M  V30 4158 H 420.453 -1.07083 4.96483 0
M  V30 4159 H 420.383 -2.78128 4.4716 0
M  V30 4160 H 422.874 -1.64179 3.40373 0
M  V30 4161 H 423.187 -2.78325 7.20941 0
M  V30 4162 H 421.532 -2.50953 6.48111 0
M  V30 4163 H 424.723 -1.95745 4.25207 0
M  V30 4164 H 424.896 -2.47818 5.98741 0
M  V30 4165 N 418.302 -1.35869 -0.798587 0
M  V30 4166 C 419.265 -1.29307 -1.89242 0
M  V30 4167 C 420.265 -0.202747 -1.59517 0
M  V30 4168 O 421.455 -0.456957 -1.681 0
M  V30 4169 C 418.587 -1.00229 -3.25833 0
M  V30 4170 H 419.78 -2.26576 -1.96478 0
M  V30 4171 H 417.333 -1.20509 -0.995358 0
M  V30 4172 H 418.068 -0.033801 -3.24282 0
M  V30 4173 H 417.853 -1.79121 -3.48795 0
M  V30 4174 H 419.343 -0.98219 -4.05885 0
M  V30 4175 N 419.78 1.02168 -1.19998 0
M  V30 4176 C 420.71 2.12488 -0.96804 0
M  V30 4177 C 421.691 1.69799 0.101185 0
M  V30 4178 O 422.876 1.94121 -0.0552993 0
M  V30 4179 C 420.006 3.43479 -0.513776 0
M  V30 4180 C 418.96 3.99884 -1.52566 0
M  V30 4181 C 418.286 5.26582 -0.928214 0
M  V30 4182 C 419.586 4.33861 -2.90795 0
M  V30 4183 H 421.28 2.32149 -1.89069 0
M  V30 4184 H 418.826 1.11564 -0.910468 0
M  V30 4185 H 420.779 4.20036 -0.338774 0
M  V30 4186 H 419.503 3.23561 0.444493 0
M  V30 4187 H 418.162 3.25429 -1.68794 0
M  V30 4188 H 417.81 5.02986 0.0378289 0
M  V30 4189 H 417.51 5.65284 -1.60397 0
M  V30 4190 H 419.034 6.05799 -0.764167 0
M  V30 4191 H 420.448 5.01327 -2.78109 0
M  V30 4192 H 418.845 4.83664 -3.55231 0
M  V30 4193 H 419.915 3.42848 -3.42904 0
M  V30 4194 N 421.258 1.00505 1.21394 0
M  V30 4195 C 422.221 0.570459 2.21987 0
M  V30 4196 C 423.221 -0.353211 1.56873 0
M  V30 4197 O 424.411 -0.14349 1.73608 0
M  V30 4198 C 421.543 -0.168555 3.40483 0
M  V30 4199 H 422.736 1.46021 2.6195 0
M  V30 4200 H 420.289 0.793565 1.34656 0
M  V30 4201 H 421.024 -1.07374 3.06009 0
M  V30 4202 H 420.809 0.494823 3.88965 0
M  V30 4203 H 422.299 -0.460362 4.15055 0
M  V30 4204 N 422.737 -1.36956 0.779787 0
M  V30 4205 C 423.983 -2.00237 0.357324 0
M  V30 4206 C 424.338 -1.60787 -1.05666 0
M  V30 4207 O 423.631 -0.847836 -1.71821 0
M  V30 4208 C 423.825 -3.54585 0.447686 0
M  V30 4209 C 423.654 -4.09025 1.86891 0
M  V30 4210 C 422.424 -4.39612 2.49138 0
M  V30 4211 C 424.622 -4.29461 2.82963 0
M  V30 4212 N 422.604 -4.79816 3.82949 0
M  V30 4213 C 423.975 -4.72363 4.01588 0
M  V30 4214 C 426.03 -4.1161 2.80145 0
M  V30 4215 C 424.733 -4.99284 5.17791 0
M  V30 4216 C 426.759 -4.39672 3.95528 0
M  V30 4217 C 426.121 -4.82822 5.12896 0
M  V30 4218 H 422.22 -0.76148 0.177968 0
M  V30 4219 H 424.804 -1.6613 1.01533 0
M  V30 4220 H 422.975 -3.87982 -0.180184 0
M  V30 4221 H 424.707 -4.047 0.0023955 0
M  V30 4222 H 421.462 -4.28975 2.00693 0
M  V30 4223 H 421.886 -5.04216 4.51769 0
M  V30 4224 H 426.528 -3.77415 1.90572 0
M  V30 4225 H 424.246 -5.32365 6.07958 0
M  V30 4226 H 427.832 -4.27441 3.94697 0
M  V30 4227 H 426.712 -5.04118 6.00695 0
M  V30 4228 N 424.215 -0.530993 -1.48385 0
M  V30 4229 C 425.125 0.23503 -2.3342 0
M  V30 4230 C 426.141 0.93801 -1.46552 0
M  V30 4231 O 427.317 0.912745 -1.7953 0
M  V30 4232 C 424.382 1.26778 -3.22689 0
M  V30 4233 C 423.443 0.575038 -4.25431 0
M  V30 4234 C 422.676 1.55858 -5.10435 0
M  V30 4235 O 422.899 2.79129 -4.97437 0
M  V30 4236 O 421.833 1.09742 -5.91811 0
M  V30 4237 H 425.659 -0.461794 -3.00169 0
M  V30 4238 H 423.244 -0.291903 -1.46521 0
M  V30 4239 H 425.126 1.86457 -3.77904 0
M  V30 4240 H 423.801 1.94699 -2.586 0
M  V30 4241 H 422.708 -0.0622782 -3.74048 0
M  V30 4242 H 424.041 -0.062253 -4.92161 0
M  V30 4243 N 425.693 1.55336 -0.266172 0
M  V30 4244 C 426.94 1.99397 0.353158 0
M  V30 4245 C 427.268 1.15451 1.56529 0
M  V30 4246 O 426.523 0.209974 1.9457 0
M  V30 4247 C 426.822 3.48606 0.787957 0
M  V30 4248 C 426.488 4.49773 -0.318541 0
M  V30 4249 C 425.15 4.77158 -0.62239 0
M  V30 4250 C 427.502 5.10212 -1.06459 0
M  V30 4251 C 424.83 5.62251 -1.67602 0
M  V30 4252 C 427.182 5.96449 -2.10788 0
M  V30 4253 C 425.846 6.22158 -2.41817 0
M  V30 4254 H 425.116 0.729644 0.12923 0
M  V30 4255 H 427.763 1.87732 -0.37802 0
M  V30 4256 H 426.068 3.57701 1.59866 0
M  V30 4257 H 427.765 3.80098 1.27775 0
M  V30 4258 H 424.355 4.2854 -0.0715925 0
M  V30 4259 H 428.539 4.89086 -0.843098 0
M  V30 4260 H 423.795 5.80419 -1.92155 0
M  V30 4261 H 427.969 6.42317 -2.69076 0
M  V30 4262 H 425.596 6.87888 -3.23596 0
M  V30 4263 N 427.171 -0.0066808 1.57599 0
M  V30 4264 C 428.396 -0.707738 1.94951 0
M  V30 4265 C 428.821 -1.66882 0.867868 0
M  V30 4266 O 428.179 -1.80457 -0.17458 0
M  V30 4267 C 428.227 -1.42162 3.31394 0
M  V30 4268 O 427.331 -2.53578 3.25226 0
M  V30 4269 H 426.672 -0.188752 0.636607 0
M  V30 4270 H 429.202 0.0445193 2.04552 0
M  V30 4271 H 429.212 -1.78655 3.66806 0
M  V30 4272 H 427.887 -0.716903 4.09675 0
M  V30 4273 H 426.464 -2.19463 3.01481 0
M  V30 4274 N 428.649 -1.55105 -0.279332 0
M  V30 4275 C 429.559 -1.90638 -1.36727 0
M  V30 4276 C 430.575 -0.802899 -1.54368 0
M  V30 4277 O 431.751 -1.10138 -1.68616 0
M  V30 4278 C 428.816 -2.16547 -2.70755 0
M  V30 4279 C 427.877 -3.40146 -2.61915 0
M  V30 4280 C 427.11 -3.6481 -3.8955 0
M  V30 4281 O 427.333 -2.92095 -4.89935 0
M  V30 4282 O 426.267 -4.58343 -3.90135 0
M  V30 4283 H 430.093 -2.83237 -1.09591 0
M  V30 4284 H 427.678 -1.4157 -0.477306 0
M  V30 4285 H 429.56 -2.34665 -3.50014 0
M  V30 4286 H 428.235 -1.27131 -2.9769 0
M  V30 4287 H 427.142 -3.2737 -1.81052 0
M  V30 4288 H 428.475 -4.29761 -2.3993 0
M  V30 4289 N 430.127 0.543554 -1.4793 0
M  V30 4290 C 431.077 1.64527 -1.57844 0
M  V30 4291 C 432.061 1.54869 -0.436408 0
M  V30 4292 O 433.253 1.63119 -0.687101 0
M  V30 4293 C 430.382 3.03281 -1.6086 0
M  V30 4294 C 429.468 3.18093 -2.80495 0
M  V30 4295 N 429.859 3.02923 -4.05057 0
M  V30 4296 C 428.157 3.49121 -2.77543 0
M  V30 4297 C 428.858 3.20791 -4.85251 0
M  V30 4298 N 427.834 3.47749 -4.17818 0
M  V30 4299 H 431.636 1.51388 -2.5191 0
M  V30 4300 H 429.15 0.748671 -1.44113 0
M  V30 4301 H 431.147 3.82403 -1.66054 0
M  V30 4302 H 429.807 3.17521 -0.678996 0
M  V30 4303 H 430.818 2.79966 -4.35705 0
M  V30 4304 H 427.495 3.69804 -1.93781 0
M  V30 4305 H 428.885 3.13915 -5.9406 0
M  V30 4306 N 431.605 1.3629 0.791371 0
M  V30 4307 C 432.555 1.26988 1.89362 0
M  V30 4308 C 433.539 0.161795 1.60084 0
M  V30 4309 O 434.731 0.394426 1.72549 0
M  V30 4310 C 431.86 1.05944 3.26544 0
M  V30 4311 C 430.946 2.21211 3.61838 0
M  V30 4312 N 431.337 3.46518 3.68455 0
M  V30 4313 C 429.635 2.12933 3.91887 0
M  V30 4314 C 430.336 4.2241 3.99931 0
M  V30 4315 N 429.312 3.51329 4.14812 0
M  V30 4316 H 433.114 2.21908 1.92702 0
M  V30 4317 H 430.628 1.28982 0.986787 0
M  V30 4318 H 432.625 0.973666 4.05371 0
M  V30 4319 H 431.285 0.119223 3.24481 0
M  V30 4320 H 432.296 3.80677 3.51148 0
M  V30 4321 H 428.973 1.26855 3.97761 0
M  V30 4322 H 430.363 5.30767 4.1199 0
M  V30 4323 N 433.083 -1.0153 1.20538 0
M  V30 4324 C 434.36 -1.72327 0.925343 0
M  V30 4325 C 434.74 -2.03383 -0.565547 0
M  V30 4326 O 434.088 -1.69934 -1.52757 0
M  V30 4327 C 434.298 -2.9902 1.79967 0
M  V30 4328 C 435.646 -3.72258 2.04228 0
M  V30 4329 O 436.67 -3.08979 1.77231 0
M  V30 4330 O 435.529 -4.86053 2.4983 0
M  V30 4331 H 432.623 -0.751099 0.346092 0
M  V30 4332 H 435.169 -1.07366 1.31417 0
M  V30 4333 H 433.941 -2.72402 2.80915 0
M  V30 4334 H 433.564 -3.71721 1.41099 0
M  V30 4335 N 434.561 -1.01147 -1.20859 0
M  V30 4336 C 435.471 -0.58686 -2.27141 0
M  V30 4337 C 436.487 0.373198 -1.69951 0
M  V30 4338 O 437.663 0.235423 -2.00019 0
M  V30 4339 C 434.728 0.0733602 -3.46622 0
M  V30 4340 C 433.789 -0.931995 -4.19061 0
M  V30 4341 C 433.022 -0.303186 -5.32838 0
M  V30 4342 O 433.245 0.898395 -5.63281 0
M  V30 4343 O 432.179 -1.01735 -5.9324 0
M  V30 4344 H 436.005 -1.47155 -2.65667 0
M  V30 4345 H 433.59 -0.780689 -1.2738 0
M  V30 4346 H 435.472 0.442333 -4.19072 0
M  V30 4347 H 434.147 0.932329 -3.09983 0
M  V30 4348 H 433.054 -1.35224 -3.48805 0
M  V30 4349 H 434.387 -1.76076 -4.59628 0
M  V30 4350 N 436.039 1.36541 -0.78704 0
M  V30 4351 C 437.288 1.98552 -0.35494 0
M  V30 4352 C 437.601 1.63171 1.07864 0
M  V30 4353 O 438.807 2.18399 1.61289 0
M  V30 4354 C 437.263 3.55136 -0.583671 0
M  V30 4355 C 436.871 3.99444 -2.02851 0
M  V30 4356 C 438.615 4.2395 -0.215957 0
M  V30 4357 C 436.522 5.48796 -2.20403 0
M  V30 4358 H 435.452 0.742888 -0.128972 0
M  V30 4359 H 438.103 1.5587 -0.968337 0
M  V30 4360 H 436.485 3.95875 0.0994046 0
M  V30 4361 H 437.659 3.6991 -2.74779 0
M  V30 4362 H 435.974 3.43459 -2.35425 0
M  V30 4363 H 438.571 5.33709 -0.325405 0
M  V30 4364 H 438.914 4.07827 0.835646 0
M  V30 4365 H 439.447 3.88565 -0.852175 0
M  V30 4366 H 436.186 5.69864 -3.23937 0
M  V30 4367 H 435.706 5.79964 -1.52977 0
M  V30 4368 H 437.385 6.14986 -2.01002 0
M  V30 4369 N 437.518 0.538854 1.48102 0
M  V30 4370 C 438.481 -0.208395 2.28251 0
M  V30 4371 C 439.481 -0.859656 1.35892 0
M  V30 4372 O 440.671 -0.71834 1.58699 0
M  V30 4373 C 437.803 -1.30252 3.15035 0
M  V30 4374 H 438.996 0.495407 2.9578 0
M  V30 4375 H 436.549 0.295112 1.53489 0
M  V30 4376 H 437.284 -2.0393 2.52157 0
M  V30 4377 H 437.069 -0.840551 3.82985 0
M  V30 4378 H 438.559 -1.82787 3.75471 0
M  V30 4379 N 438.996 -1.55193 0.274407 0
M  V30 4380 C 440.407 -1.85358 -0.223488 0
M  V30 4381 C 440.758 -1.19642 -1.555 0
M  V30 4382 O 439.883 -0.484498 -2.10907 0
M  V30 4383 C 440.478 -3.36282 -0.412285 0
M  V30 4384 C 439.037 -3.66574 -0.854413 0
M  V30 4385 C 438.184 -2.7725 0.0527056 0
M  V30 4386 H 441.135 -1.50743 0.496215 0
M  V30 4387 H 441.156 -3.59349 -1.25094 0
M  V30 4388 H 440.668 -3.84083 0.556965 0
M  V30 4389 H 438.769 -3.24273 -1.83516 0
M  V30 4390 H 438.882 -4.74073 -0.692226 0
M  V30 4391 H 437.246 -2.50447 -0.463484 0
M  V30 4392 H 438.029 -3.27865 1.01783 0
M  V30 4393 N 440.474 -0.00167713 -1.576 0
M  V30 4394 C 441.407 1.02317 -2.03977 0
M  V30 4395 C 442.385 1.33381 -0.929963 0
M  V30 4396 O 443.569 1.45517 -1.19822 0
M  V30 4397 C 440.696 2.35035 -2.43878 0
M  V30 4398 C 439.742 2.19621 -3.65607 0
M  V30 4399 S 440.575 1.52068 -5.13455 0
M  V30 4400 C 441.731 2.86212 -5.56627 0
M  V30 4401 H 441.964 0.628285 -2.90585 0
M  V30 4402 H 439.497 0.209239 -1.52976 0
M  V30 4403 H 441.455 3.11345 -2.67534 0
M  V30 4404 H 440.116 2.71663 -1.57665 0
M  V30 4405 H 439.309 3.1767 -3.91282 0
M  V30 4406 H 438.911 1.51455 -3.41961 0
M  V30 4407 H 441.203 3.82509 -5.59189 0
M  V30 4408 H 442.146 2.65235 -6.56549 0
M  V30 4409 H 442.554 2.90199 -4.84195 0
M  V30 4410 N 441.952 1.55251 0.271103 0
M  V30 4411 C 442.882 1.9127 1.33933 0
M  V30 4412 C 443.863 0.77478 1.5143 0
M  V30 4413 O 445.048 1.03307 1.64442 0
M  V30 4414 C 442.178 2.18627 2.69851 0
M  V30 4415 C 441.132 3.34442 2.67081 0
M  V30 4416 C 440.458 3.47284 4.06569 0
M  V30 4417 C 441.758 4.70784 2.26185 0
M  V30 4418 H 443.452 2.80744 1.04035 0
M  V30 4419 H 440.998 1.35077 0.499017 0
M  V30 4420 H 442.951 2.42413 3.44694 0
M  V30 4421 H 441.675 1.25955 3.01335 0
M  V30 4422 H 440.334 3.10627 1.94695 0
M  V30 4423 H 439.982 2.52074 4.35279 0
M  V30 4424 H 439.682 4.25152 4.0561 0
M  V30 4425 H 441.206 3.73363 4.83148 0
M  V30 4426 H 442.62 4.94102 2.90751 0
M  V30 4427 H 441.017 5.51582 2.36384 0
M  V30 4428 H 442.087 4.69478 1.21319 0
M  V30 4429 N 443.43 -0.535701 1.48216 0
M  V30 4430 C 444.846 -0.863701 1.3421 0
M  V30 4431 C 445.046 -1.98458 0.34879 0
M  V30 4432 O 444.102 -2.51432 -0.23204 0
M  V30 4433 C 445.415 -1.23662 2.74095 0
M  V30 4434 C 446.963 -1.34683 2.82541 0
M  V30 4435 C 447.438 -1.75322 4.23115 0
M  V30 4436 N 448.929 -1.82434 4.2576 0
M  V30 4437 C 449.664 -2.15252 5.31464 0
M  V30 4438 N 449.16 -2.46533 6.47452 0
M  V30 4439 N 450.953 -2.16209 5.18855 0
M  V30 4440 H 443.104 0.203965 2.11418 0
M  V30 4441 H 445.367 0.0286033 0.947568 0
M  V30 4442 H 445.073 -0.486674 3.48316 0
M  V30 4443 H 444.947 -2.18805 3.07253 0
M  V30 4444 H 447.334 -2.08756 2.08579 0
M  V30 4445 H 447.415 -0.376756 2.5301 0
M  V30 4446 H 447.059 -1.01812 4.97591 0
M  V30 4447 H 446.989 -2.7337 4.50085 0
M  V30 4448 H 449.48 -1.6056 3.42095 0
M  V30 4449 H 449.793 -2.70662 7.23852 0
M  V30 4450 H 448.138 -2.44065 6.50736 0
M  V30 4451 H 451.329 -1.91224 4.2726 0
M  V30 4452 H 451.502 -2.41453 6.01335 0
M  V30 4453 N 444.908 -1.36708 -0.784132 0
M  V30 4454 C 445.871 -1.31307 -1.87859 0
M  V30 4455 C 446.871 -0.219654 -1.59293 0
M  V30 4456 O 448.061 -0.47476 -1.67606 0
M  V30 4457 C 445.193 -1.03679 -3.24751 0
M  V30 4458 H 446.386 -2.28647 -1.94064 0
M  V30 4459 H 443.939 -1.21558 -0.98252 0
M  V30 4460 H 444.674 -0.0681936 -3.24228 0
M  V30 4461 H 444.459 -1.82811 -3.46876 0
M  V30 4462 H 445.949 -1.02518 -4.04821 0
M  V30 4463 N 446.386 1.0089 -1.21074 0
M  V30 4464 C 447.611 1.78727 -1.05221 0
M  V30 4465 C 448.036 1.83932 0.393795 0
M  V30 4466 O 447.394 1.28004 1.28393 0
M  V30 4467 C 447.442 3.20665 -1.64944 0
M  V30 4468 O 446.546 4.02632 -0.892273 0
M  V30 4469 H 445.887 0.550973 -0.370574 0
M  V30 4470 H 448.417 1.26847 -1.60534 0
M  V30 4471 H 448.427 3.71352 -1.69002 0
M  V30 4472 H 447.102 3.16191 -2.70177 0
M  V30 4473 H 445.679 3.61207 -0.926492 0
M  V30 4474 N 447.864 1.01787 1.20321 0
M  V30 4475 C 448.794 0.609625 2.25401 0
M  V30 4476 C 449.775 -0.375951 1.65893 0
M  V30 4477 O 450.96 -0.261101 1.92437 0
M  V30 4478 C 448.09 -0.0515995 3.47262 0
M  V30 4479 C 447.044 0.855095 4.19371 0
M  V30 4480 C 446.37 0.0595757 5.34667 0
M  V30 4481 C 447.67 2.16374 4.75373 0
M  V30 4482 H 449.364 1.48803 2.59804 0
M  V30 4483 H 446.91 0.716934 1.24884 0
M  V30 4484 H 448.863 -0.348764 4.19954 0
M  V30 4485 H 447.587 -0.964726 3.12027 0
M  V30 4486 H 446.246 1.13628 3.48546 0
M  V30 4487 H 445.894 -0.85524 4.95676 0
M  V30 4488 H 445.594 0.663406 5.83843 0
M  V30 4489 H 447.118 -0.231105 6.10162 0
M  V30 4490 H 448.532 1.92885 5.39878 0
M  V30 4491 H 446.929 2.71853 5.34991 0
M  V30 4492 H 447.999 2.82589 3.94045 0
M  V30 4493 N 449.342 -1.36122 0.79427 0
M  V30 4494 C 450.619 -1.93398 0.292685 0
M  V30 4495 C 450.999 -1.72567 -1.21589 0
M  V30 4496 O 450.347 -1.08745 -2.00965 0
M  V30 4497 C 450.557 -3.42099 0.690614 0
M  V30 4498 C 451.905 -4.19231 0.673105 0
M  V30 4499 O 452.929 -3.50559 0.631389 0
M  V30 4500 O 451.788 -5.41732 0.720362 0
M  V30 4501 H 448.882 -0.823712 0.0736693 0
M  V30 4502 H 451.428 -1.45273 0.87714 0
M  V30 4503 H 450.2 -3.50938 1.73085 0
M  V30 4504 H 449.823 -3.97519 0.0803036 0
M  V30 4505 N 450.82 -0.546701 -1.47814 0
M  V30 4506 C 451.783 0.196287 -2.28358 0
M  V30 4507 C 452.783 0.852437 -1.36346 0
M  V30 4508 O 453.973 0.709913 -1.59078 0
M  V30 4509 C 451.105 1.28579 -3.15722 0
M  V30 4510 H 452.298 -0.511086 -2.95513 0
M  V30 4511 H 449.851 -0.303248 -1.5333 0
M  V30 4512 H 450.586 2.0259 -2.53235 0
M  V30 4513 H 450.371 0.820229 -3.83425 0
M  V30 4514 H 451.861 1.80793 -3.76435 0
M  V30 4515 N 452.299 1.55045 -0.282633 0
M  V30 4516 C 453.527 2.04168 0.33512 0
M  V30 4517 C 453.942 1.16071 1.48906 0
M  V30 4518 O 453.299 0.182391 1.81586 0
M  V30 4519 C 453.35 3.52332 0.808957 0
M  V30 4520 O 453.071 4.37078 -0.299038 0
M  V30 4521 C 454.572 4.17375 1.49375 0
M  V30 4522 H 451.792 0.666744 0.0754543 0
M  V30 4523 H 454.336 2.00205 -0.416918 0
M  V30 4524 H 452.491 3.56715 1.51106 0
M  V30 4525 H 452.905 5.24458 0.0665514 0
M  V30 4526 H 454.379 5.22627 1.77664 0
M  V30 4527 H 454.856 3.65999 2.42778 0
M  V30 4528 H 455.462 4.17016 0.835305 0
M  V30 4529 N 453.777 0.010035 1.57597 0
M  V30 4530 C 455.023 -0.673697 1.91283 0
M  V30 4531 C 455.356 -1.72863 0.884979 0
M  V30 4532 O 454.631 -1.94268 -0.0949487 0
M  V30 4533 C 454.914 -1.30766 3.35518 0
M  V30 4534 C 454.767 -0.263578 4.49027 0
M  V30 4535 C 456.086 -2.23105 3.79358 0
M  V30 4536 H 453.205 -0.243439 0.695634 0
M  V30 4537 H 455.847 0.0633864 1.89894 0
M  V30 4538 H 453.997 -1.93588 3.36832 0
M  V30 4539 H 455.669 0.365738 4.59848 0
M  V30 4540 H 453.912 0.413077 4.31829 0
M  V30 4541 H 454.583 -0.746398 5.4693 0
M  V30 4542 H 457.059 -1.70289 3.79659 0
M  V30 4543 H 455.935 -2.64424 4.81011 0
M  V30 4544 H 456.196 -3.11433 3.13787 0
M  V30 4545 N 455.255 -1.55392 -0.262866 0
M  V30 4546 C 456.503 -1.76127 -0.991147 0
M  V30 4547 C 456.824 -0.571083 -1.8645 0
M  V30 4548 O 456.094 0.413698 -1.91482 0
M  V30 4549 H 454.674 -0.649528 -0.368948 0
M  V30 4550 H 457.336 -1.9281 -0.284655 0
M  V30 4551 H 456.432 -2.6663 -1.62219 0
M  V30 4552 N 456.733 0.527833 -1.48498 0
M  V30 4553 C 457.663 1.64136 -1.66077 0
M  V30 4554 C 458.644 1.62286 -0.509625 0
M  V30 4555 O 459.829 1.79449 -0.742413 0
M  V30 4556 C 456.959 3.02717 -1.70234 0
M  V30 4557 C 455.913 3.19426 -2.8487 0
M  V30 4558 C 455.239 4.5909 -2.74118 0
M  V30 4559 C 456.539 3.01993 -4.26142 0
M  V30 4560 H 458.233 1.4968 -2.593 0
M  V30 4561 H 455.779 0.718654 -1.24785 0
M  V30 4562 H 457.732 3.80491 -1.8112 0
M  V30 4563 H 456.456 3.18201 -0.735911 0
M  V30 4564 H 455.115 2.4407 -2.73542 0
M  V30 4565 H 454.763 4.71413 -1.7544 0
M  V30 4566 H 454.463 4.71214 -3.51042 0
M  V30 4567 H 455.987 5.3896 -2.86974 0
M  V30 4568 H 457.401 3.69558 -4.38292 0
M  V30 4569 H 455.798 3.2561 -5.04082 0
M  V30 4570 H 456.868 1.98396 -4.42456 0
M  V30 4571 N 458.211 1.37122 0.776871 0
M  V30 4572 C 459.439 1.3523 1.5659 0
M  V30 4573 C 459.854 -0.0635518 1.88693 0
M  V30 4574 O 459.211 -1.02394 1.51069 0
M  V30 4575 C 459.262 2.18583 2.8793 0
M  V30 4576 O 458.983 3.5465 2.57206 0
M  V30 4577 C 460.484 2.24612 3.82183 0
M  V30 4578 H 457.704 0.4634 0.485285 0
M  V30 4579 H 460.248 1.80392 0.963266 0
M  V30 4580 H 458.403 1.76943 3.4463 0
M  V30 4581 H 458.817 3.98286 3.41275 0
M  V30 4582 H 460.291 2.87267 4.71361 0
M  V30 4583 H 460.768 1.25309 4.20944 0
M  V30 4584 H 461.374 2.66543 3.31414 0
M  V30 4585 N 459.689 -1.00246 1.21608 0
M  V30 4586 C 461.1 -1.55511 1.03312 0
M  V30 4587 C 461.451 -1.91946 -0.406332 0
M  V30 4588 O 460.576 -1.73753 -1.28992 0
M  V30 4589 C 461.171 -2.82576 1.86913 0
M  V30 4590 C 459.73 -3.34318 1.72941 0
M  V30 4591 C 458.877 -2.07487 1.83968 0
M  V30 4592 H 461.828 -0.824638 1.35593 0
M  V30 4593 H 461.849 -3.54559 1.38087 0
M  V30 4594 H 461.361 -2.56026 2.91672 0
M  V30 4595 H 459.462 -3.65797 0.70877 0
M  V30 4596 H 459.575 -4.05566 2.55055 0
M  V30 4597 H 457.939 -2.20603 1.27304 0
M  V30 4598 H 458.722 -1.83346 2.9024 0
M  V30 4599 N 461.167 -1.02423 -1.1978 0
M  V30 4600 C 462.114 -0.601023 -2.22837 0
M  V30 4601 C 463.084 0.382801 -1.61629 0
M  V30 4602 O 464.269 0.280514 -1.88727 0
M  V30 4603 C 461.409 0.0467755 -3.45068 0
M  V30 4604 C 460.522 -0.98253 -4.20678 0
M  V30 4605 C 459.657 -0.304982 -5.30324 0
M  V30 4606 C 458.696 -1.32052 -5.97686 0
M  V30 4607 N 457.833 -0.669105 -6.98904 0
M  V30 4608 H 462.673 -1.48444 -2.58396 0
M  V30 4609 H 460.21 -0.742936 -1.2696 0
M  V30 4610 H 462.168 0.439556 -4.14878 0
M  V30 4611 H 460.798 0.893796 -3.10179 0
M  V30 4612 H 459.85 -1.49341 -3.49859 0
M  V30 4613 H 461.162 -1.75455 -4.66923 0
M  V30 4614 H 460.316 0.142893 -6.06532 0
M  V30 4615 H 459.055 0.499283 -4.85138 0
M  V30 4616 H 458.06 -1.7787 -5.20233 0
M  V30 4617 H 459.285 -2.1262 -6.44957 0
M  V30 4618 H 457.231 0.115152 -6.55899 0
M  V30 4619 H 457.148 -1.37908 -7.43315 0
M  V30 4620 H 458.416 -0.245076 -7.79115 0
M  V30 4621 N 462.645 1.35699 -0.801477 0
M  V30 4622 C 463.555 2.33661 -0.209691 0
M  V30 4623 C 464.571 1.6162 0.644591 0
M  V30 4624 O 465.747 1.93529 0.557545 0
M  V30 4625 C 462.812 3.40816 0.636033 0
M  V30 4626 C 461.873 4.28639 -0.238147 0
M  V30 4627 C 461.106 5.30676 0.567307 0
M  V30 4628 O 461.329 5.41174 1.8024 0
M  V30 4629 O 460.263 6.01887 -0.0391336 0
M  V30 4630 H 464.089 2.8606 -1.01996 0
M  V30 4631 H 461.674 1.38379 -0.563164 0
M  V30 4632 H 463.556 4.06301 1.11791 0
M  V30 4633 H 462.231 2.90696 1.42399 0
M  V30 4634 H 461.138 3.66152 -0.767044 0
M  V30 4635 H 462.471 4.82143 -0.989915 0
M  V30 4636 N 464.123 0.554532 1.47522 0
M  V30 4637 C 465.353 0.0342074 2.06572 0
M  V30 4638 C 465.761 -1.26375 1.40805 0
M  V30 4639 O 465.104 -1.7683 0.49769 0
M  V30 4640 C 465.166 -0.235096 3.5873 0
M  V30 4641 C 464.83 0.973024 4.46521 0
M  V30 4642 C 465.827 1.8779 4.848 0
M  V30 4643 C 463.512 1.18694 4.88075 0
M  V30 4644 C 465.506 2.98039 5.63428 0
M  V30 4645 C 463.193 2.29254 5.66468 0
M  V30 4646 C 464.191 3.18757 6.04055 0
M  V30 4647 O 463.879 4.27401 6.8087 0
M  V30 4648 H 463.611 0.041587 0.67472 0
M  V30 4649 H 466.165 0.766748 1.90552 0
M  V30 4650 H 464.395 -1.02191 3.72953 0
M  V30 4651 H 466.084 -0.700477 3.9981 0
M  V30 4652 H 466.85 1.72467 4.53299 0
M  V30 4653 H 462.729 0.49947 4.58286 0
M  V30 4654 H 466.273 3.67926 5.92685 0
M  V30 4655 H 462.17 2.4455 5.97382 0
M  V30 4656 H 462.938 4.25415 6.9926 0
M  V30 4657 N 465.601 -1.54893 0.290851 0
M  V30 4658 C 466.878 -1.91991 -0.373989 0
M  V30 4659 C 467.258 -1.21694 -1.72493 0
M  V30 4660 O 466.606 -0.34917 -2.25816 0
M  V30 4661 C 466.816 -3.45419 -0.498703 0
M  V30 4662 C 468.164 -4.1748 -0.774298 0
M  V30 4663 O 469.188 -3.51398 -0.582908 0
M  V30 4664 O 468.047 -5.3445 -1.14129 0
M  V30 4665 H 465.141 -0.800593 -0.207315 0
M  V30 4666 H 467.687 -1.66297 0.338164 0
M  V30 4667 H 466.459 -3.88688 0.451392 0
M  V30 4668 H 466.082 -3.77117 -1.25972 0
M  V30 4669 N 467.08 -0.0183926 -1.57589 0
M  V30 4670 C 467.99 0.982943 -2.13015 0
M  V30 4671 C 469.006 1.36443 -1.07979 0
M  V30 4672 O 470.182 1.44802 -1.3998 0
M  V30 4673 C 467.247 2.25024 -2.63752 0
M  V30 4674 C 466.308 1.93018 -3.83461 0
M  V30 4675 C 465.541 3.13706 -4.31769 0
M  V30 4676 O 465.764 4.2601 -3.79305 0
M  V30 4677 O 464.698 2.96629 -5.23732 0
M  V30 4678 H 468.524 0.541709 -2.9883 0
M  V30 4679 H 466.109 0.201565 -1.48034 0
M  V30 4680 H 467.991 2.99441 -2.96502 0
M  V30 4681 H 466.666 2.68349 -1.81026 0
M  V30 4682 H 465.573 1.16019 -3.55655 0
M  V30 4683 H 466.906 1.54516 -4.67317 0
M  V30 4684 N 468.558 1.5553 0.254621 0
M  V30 4685 C 469.521 1.88872 1.29846 0
M  V30 4686 C 470.521 0.764591 1.41459 0
M  V30 4687 O 471.711 1.03265 1.40293 0
M  V30 4688 C 468.843 2.11032 2.67728 0
M  V30 4689 H 470.036 2.82201 1.01502 0
M  V30 4690 H 467.589 1.48303 0.493556 0
M  V30 4691 H 468.324 1.20146 3.01223 0
M  V30 4692 H 468.109 2.92895 2.60682 0
M  V30 4693 H 469.599 2.38038 3.43115 0
M  V30 4694 N 470.036 -0.519951 1.48776 0
M  V30 4695 C 471.452 -0.849418 1.35119 0
M  V30 4696 C 471.652 -1.98077 0.36982 0
M  V30 4697 O 470.708 -2.51664 -0.205359 0
M  V30 4698 C 472.021 -1.20748 2.75391 0
M  V30 4699 C 473.569 -1.31679 2.83954 0
M  V30 4700 C 474.044 -1.70824 4.24951 0
M  V30 4701 N 475.535 -1.77908 4.27672 0
M  V30 4702 C 476.27 -2.09603 5.33717 0
M  V30 4703 N 475.766 -2.39652 6.5003 0
M  V30 4704 N 477.559 -2.10694 5.21119 0
M  V30 4705 H 469.71 0.226377 2.1119 0
M  V30 4706 H 471.973 0.0386519 0.947212 0
M  V30 4707 H 471.679 -0.449703 3.48813 0
M  V30 4708 H 471.553 -2.15534 3.09556 0
M  V30 4709 H 473.94 -2.06532 2.10781 0
M  V30 4710 H 474.021 -0.3499 2.53396 0
M  V30 4711 H 473.665 -0.965282 4.98643 0
M  V30 4712 H 473.595 -2.6858 4.52959 0
M  V30 4713 H 476.086 -1.56923 3.43779 0
M  V30 4714 H 476.399 -2.6297 7.26682 0
M  V30 4715 H 474.744 -2.37149 6.53288 0
M  V30 4716 H 477.935 -1.86682 4.29264 0
M  V30 4717 H 478.108 -2.35062 6.03863 0
M  V30 4718 N 471.514 -1.37532 -0.769588 0
M  V30 4719 C 472.93 -1.18379 -1.07045 0
M  V30 4720 C 473.13 -0.0214312 -2.01489 0
M  V30 4721 O 472.186 0.637809 -2.44312 0
M  V30 4722 C 473.499 -2.50338 -1.66588 0
M  V30 4723 C 475.047 -2.56879 -1.78835 0
M  V30 4724 C 475.522 -3.88974 -2.41792 0
M  V30 4725 N 477.013 -3.90428 -2.4924 0
M  V30 4726 C 477.748 -4.89388 -2.98809 0
M  V30 4727 N 477.244 -5.98745 -3.48535 0
M  V30 4728 N 479.037 -4.76791 -2.97703 0
M  V30 4729 H 471.188 -2.11921 -0.142541 0
M  V30 4730 H 473.451 -0.939608 -0.125863 0
M  V30 4731 H 473.157 -3.35767 -1.0466 0
M  V30 4732 H 473.031 -2.67583 -2.65856 0
M  V30 4733 H 475.418 -1.71856 -2.39895 0
M  V30 4734 H 475.499 -2.43516 -0.783166 0
M  V30 4735 H 475.143 -4.74412 -1.81371 0
M  V30 4736 H 475.073 -3.99641 -3.4292 0
M  V30 4737 H 477.564 -3.11433 -2.14052 0
M  V30 4738 H 477.877 -6.70205 -3.84767 0
M  V30 4739 H 476.222 -6.02387 -3.46634 0
M  V30 4740 H 479.413 -3.90478 -2.58157 0
M  V30 4741 H 479.586 -5.54069 -3.36024 0
M  V30 4742 N 472.992 0.995999 -1.22138 0
M  V30 4743 C 474.241 1.72928 -1.03821 0
M  V30 4744 C 474.554 1.90872 0.427444 0
M  V30 4745 O 475.76 2.61496 0.730212 0
M  V30 4746 C 474.216 3.11124 -1.80913 0
M  V30 4747 C 473.824 3.01122 -3.31707 0
M  V30 4748 C 475.568 3.8852 -1.71035 0
M  V30 4749 C 473.475 4.34453 -4.01253 0
M  V30 4750 H 472.405 0.648376 -0.384869 0
M  V30 4751 H 475.056 1.11213 -1.45959 0
M  V30 4752 H 473.438 3.73503 -1.31573 0
M  V30 4753 H 474.612 2.47926 -3.88419 0
M  V30 4754 H 472.927 2.3721 -3.42228 0
M  V30 4755 H 475.524 4.872 -2.20318 0
M  V30 4756 H 475.867 4.1087 -0.670196 0
M  V30 4757 H 476.4 3.32812 -2.17902 0
M  V30 4758 H 473.139 4.17303 -5.05508 0
M  V30 4759 H 472.659 4.87574 -3.49331 0
M  V30 4760 H 474.338 5.03215 -4.06674 0
M  V30 4761 N 474.47 1.03057 1.19235 0
M  V30 4762 C 475.718 0.726581 1.88587 0
M  V30 4763 C 476.039 -0.747227 1.80115 0
M  V30 4764 O 475.309 -1.53849 1.21274 0
M  V30 4765 H 473.889 0.265768 0.698124 0
M  V30 4766 H 476.551 1.30516 1.44746 0
M  V30 4767 H 475.647 1.0224 2.94879 0
M  V30 4768 N 475.948 -1.35272 0.808662 0
M  V30 4769 C 477.364 -1.51806 0.492653 0
M  V30 4770 C 477.564 -1.7574 -0.985778 0
M  V30 4771 O 476.62 -1.80003 -1.77074 0
M  V30 4772 C 477.933 -2.69202 1.33981 0
M  V30 4773 C 479.481 -2.8308 1.33547 0
M  V30 4774 C 479.956 -4.03502 2.16679 0
M  V30 4775 N 481.447 -4.10684 2.14227 0
M  V30 4776 C 482.182 -5.02984 2.75308 0
M  V30 4777 N 481.678 -6.00603 3.45323 0
M  V30 4778 N 483.471 -4.95746 2.64938 0
M  V30 4779 H 475.622 -1.17993 1.76611 0
M  V30 4780 H 477.885 -0.577476 0.751814 0
M  V30 4781 H 477.591 -2.581 2.38909 0
M  V30 4782 H 477.465 -3.63854 0.994491 0
M  V30 4783 H 479.852 -2.93631 0.294036 0
M  V30 4784 H 479.933 -1.89278 1.72068 0
M  V30 4785 H 479.577 -3.93711 3.20864 0
M  V30 4786 H 479.507 -4.96489 1.75517 0
M  V30 4787 H 481.998 -3.40802 1.63285 0
M  V30 4788 H 482.311 -6.67633 3.89212 0
M  V30 4789 H 480.656 -6.0077 3.49428 0
M  V30 4790 H 483.847 -4.18439 2.09825 0
M  V30 4791 H 484.02 -5.67487 3.12829 0
M  V30 4792 N 477.426 -0.562348 -1.47226 0
M  V30 4793 C 478.842 -0.222492 -1.58042 0
M  V30 4794 C 479.042 1.27505 -1.56028 0
M  V30 4795 O 478.098 2.05555 -1.46641 0
M  V30 4796 C 479.411 -0.853694 -2.88327 0
M  V30 4797 C 480.959 -0.825397 -3.01921 0
M  V30 4798 C 481.434 -1.43576 -4.34914 0
M  V30 4799 N 482.925 -1.39918 -4.41562 0
M  V30 4800 C 483.66 -1.84103 -5.43041 0
M  V30 4801 N 483.156 -2.36167 -6.51304 0
M  V30 4802 N 484.949 -1.75142 -5.34118 0
M  V30 4803 H 477.1 -1.53525 -1.46778 0
M  V30 4804 H 479.363 -0.640527 -0.698877 0
M  V30 4805 H 479.069 -1.90635 -2.95552 0
M  V30 4806 H 478.943 -0.34977 -3.75575 0
M  V30 4807 H 481.33 0.218583 -2.94289 0
M  V30 4808 H 481.411 -1.36713 -2.16202 0
M  V30 4809 H 481.055 -2.47884 -4.43301 0
M  V30 4810 H 480.985 -0.869427 -5.19373 0
M  V30 4811 H 483.476 -1.0184 -3.63919 0
M  V30 4812 H 483.789 -2.67793 -7.24919 0
M  V30 4813 H 482.134 -2.40181 -6.52179 0
M  V30 4814 H 485.325 -1.34241 -4.48439 0
M  V30 4815 H 485.498 -2.09895 -6.13065 0
M  V30 4816 N 478.904 1.54736 -0.299062 0
M  V30 4817 C 480.152 1.99706 0.31017 0
M  V30 4818 C 480.473 1.18896 1.54559 0
M  V30 4819 O 479.743 0.284445 1.93824 0
M  V30 4820 H 478.323 0.737686 0.117596 0
M  V30 4821 H 480.985 1.9054 -0.409943 0
M  V30 4822 H 480.081 3.06596 0.58355 0
M  V30 4823 N 480.382 0.0267497 1.57577 0
M  V30 4824 C 481.798 -0.32962 1.56159 0
M  V30 4825 C 481.998 -1.73059 1.03213 0
M  V30 4826 O 481.054 -2.43233 0.677804 0
M  V30 4827 C 482.367 -0.18039 3.00158 0
M  V30 4828 C 483.915 -0.253334 3.11973 0
M  V30 4829 C 484.39 -0.132921 4.57807 0
M  V30 4830 N 485.881 -0.189979 4.6281 0
M  V30 4831 C 486.616 -0.120554 5.73273 0
M  V30 4832 N 486.112 -0.000180315 6.928 0
M  V30 4833 N 487.905 -0.174369 5.61829 0
M  V30 4834 H 480.056 0.942896 1.90324 0
M  V30 4835 H 482.319 0.3639 0.875375 0
M  V30 4836 H 482.025 0.784576 3.42837 0
M  V30 4837 H 481.899 -0.951565 3.65 0
M  V30 4838 H 484.286 -1.20876 2.69208 0
M  V30 4839 H 484.367 0.548177 2.49857 0
M  V30 4840 H 484.011 0.819073 5.01252 0
M  V30 4841 H 483.941 -0.953264 5.179 0
M  V30 4842 H 486.432 -0.283257 3.76837 0
M  V30 4843 H 486.745 0.0461666 7.72786 0
M  V30 4844 H 485.09 0.034569 6.94991 0
M  V30 4845 H 488.281 -0.266794 4.67339 0
M  V30 4846 H 488.454 -0.116802 6.47895 0
M  V30 4847 N 481.861 -1.55662 -0.24637 0
M  V30 4848 C 483.277 -1.48098 -0.594907 0
M  V30 4849 C 483.477 -0.717044 -1.8831 0
M  V30 4850 O 482.533 -0.246618 -2.51293 0
M  V30 4851 C 483.846 -2.92507 -0.697146 0
M  V30 4852 C 485.394 -3.02881 -0.789436 0
M  V30 4853 C 485.869 -4.48598 -0.923232 0
M  V30 4854 N 487.36 -4.52538 -0.988088 0
M  V30 4855 C 488.095 -5.62536 -1.11089 0
M  V30 4856 N 487.591 -6.82342 -1.19919 0
M  V30 4857 N 489.384 -5.50334 -1.14408 0
M  V30 4858 H 481.535 -2.0377 0.599278 0
M  V30 4859 H 483.798 -0.925145 0.20691 0
M  V30 4860 H 483.504 -3.51242 0.179396 0
M  V30 4861 H 483.378 -3.43024 -1.5689 0
M  V30 4862 H 485.765 -2.44226 -1.65643 0
M  V30 4863 H 485.846 -2.55574 0.107482 0
M  V30 4864 H 485.49 -5.07864 -0.0607927 0
M  V30 4865 H 485.42 -4.93587 -1.8352 0
M  V30 4866 H 487.911 -3.66248 -0.931167 0
M  V30 4867 H 488.224 -7.61924 -1.29197 0
M  V30 4868 H 486.569 -6.85102 -1.16876 0
M  V30 4869 H 489.76 -4.5567 -1.07158 0
M  V30 4870 H 489.933 -6.36096 -1.23634 0
M  V30 4871 N 483.339 0.512053 -1.4905 0
M  V30 4872 C 484.249 1.64139 -1.67617 0
M  V30 4873 C 485.265 1.64786 -0.558701 0
M  V30 4874 O 486.441 1.8341 -0.832034 0
M  V30 4875 C 483.506 3.00548 -1.72835 0
M  V30 4876 C 482.567 3.10615 -2.96339 0
M  V30 4877 C 481.8 4.40517 -3.01298 0
M  V30 4878 O 482.023 5.28671 -2.14157 0
M  V30 4879 O 480.957 4.55325 -3.93653 0
M  V30 4880 H 484.783 1.51407 -2.63267 0
M  V30 4881 H 482.368 0.687131 -1.32661 0
M  V30 4882 H 484.25 3.81641 -1.78683 0
M  V30 4883 H 482.925 3.13566 -0.803616 0
M  V30 4884 H 481.832 2.2875 -2.96014 0
M  V30 4885 H 483.165 3.0252 -3.88256 0
M  V30 4886 N 484.817 1.37938 0.762283 0
M  V30 4887 C 485.747 1.37176 1.88958 0
M  V30 4888 C 486.728 0.238945 1.68413 0
M  V30 4889 O 487.913 0.440726 1.89133 0
M  V30 4890 C 485.043 1.18742 3.2637 0
M  V30 4891 C 483.997 2.29136 3.61498 0
M  V30 4892 C 483.323 1.95816 4.97554 0
M  V30 4893 C 484.623 3.71363 3.6727 0
M  V30 4894 H 486.317 2.31509 1.89853 0
M  V30 4895 H 483.863 1.11438 0.912005 0
M  V30 4896 H 485.816 1.16837 4.04879 0
M  V30 4897 H 484.54 0.208683 3.25933 0
M  V30 4898 H 483.199 2.30213 2.85303 0
M  V30 4899 H 482.847 0.964475 4.93667 0
M  V30 4900 H 482.547 2.69745 5.22026 0
M  V30 4901 H 484.071 1.95513 5.78452 0
M  V30 4902 H 485.485 3.72364 4.35911 0
M  V30 4903 H 483.882 4.44425 4.03245 0
M  V30 4904 H 484.952 4.04305 2.67704 0
M  V30 4905 N 486.295 -0.989507 1.22664 0
M  V30 4906 C 487.543 -1.72612 1.05117 0
M  V30 4907 C 487.864 -1.90552 -0.414131 0
M  V30 4908 O 487.134 -1.4676 -1.29762 0
M  V30 4909 H 485.714 -0.639555 0.385977 0
M  V30 4910 H 488.376 -1.19158 1.54232 0
M  V30 4911 H 487.472 -2.71926 1.53175 0
M  V30 4912 N 487.773 -1.03688 -1.18687 0
M  V30 4913 C 488.683 -0.634908 -2.25845 0
M  V30 4914 C 489.699 0.337065 -1.70704 0
M  V30 4915 O 490.875 0.192943 -2.00474 0
M  V30 4916 C 487.94 -0.000180054 -3.467 0
M  V30 4917 C 487.001 -1.02067 -4.1699 0
M  V30 4918 C 486.234 -0.41614 -5.32075 0
M  V30 4919 O 486.457 0.778712 -5.65059 0
M  V30 4920 O 485.391 -1.14296 -5.90948 0
M  V30 4921 H 489.217 -1.52757 -2.62486 0
M  V30 4922 H 486.802 -0.807533 -1.25695 0
M  V30 4923 H 488.684 0.353342 -4.19916 0
M  V30 4924 H 487.359 0.866367 -3.11891 0
M  V30 4925 H 486.266 -1.42592 -3.45859 0
M  V30 4926 H 487.599 -1.85786 -4.5579 0
M  V30 4927 N 489.251 1.34841 -0.815825 0
M  V30 4928 C 490.497 1.98793 -0.401129 0
M  V30 4929 C 490.83 1.64548 1.03139 0
M  V30 4930 O 490.105 0.913487 1.71714 0
M  V30 4931 C 490.388 3.55143 -0.595409 0
M  V30 4932 C 490.241 3.99155 -2.07352 0
M  V30 4933 C 491.56 4.40092 -0.0268823 0
M  V30 4934 H 488.679 0.722146 -0.14722 0
M  V30 4935 H 491.321 1.59847 -1.02707 0
M  V30 4936 H 489.471 3.8845 -0.0625779 0
M  V30 4937 H 491.143 3.76216 -2.66945 0
M  V30 4938 H 489.386 3.49726 -2.56659 0
M  V30 4939 H 490.057 5.07971 -2.1603 0
M  V30 4940 H 492.533 4.13298 -0.482042 0
M  V30 4941 H 491.409 5.48562 -0.19267 0
M  V30 4942 H 491.67 4.29016 1.06759 0
M  V30 4943 N 490.729 0.570148 1.46925 0
M  V30 4944 C 491.976 0.0509529 2.02436 0
M  V30 4945 C 492.304 -1.30405 1.44308 0
M  V30 4946 O 491.559 -1.86493 0.593198 0
M  V30 4947 C 491.858 -0.0780336 3.57315 0
M  V30 4948 C 491.524 1.20775 4.34424 0
M  V30 4949 C 490.186 1.56004 4.5521 0
M  V30 4950 C 492.538 2.0592 4.78797 0
M  V30 4951 C 489.866 2.76201 5.17619 0
M  V30 4952 C 492.218 3.25332 5.42533 0
M  V30 4953 C 490.882 3.60859 5.61549 0
M  V30 4954 H 490.152 0.018645 0.740765 0
M  V30 4955 H 492.799 0.744262 1.76445 0
M  V30 4956 H 491.104 -0.854394 3.82371 0
M  V30 4957 H 492.801 -0.495312 3.97929 0
M  V30 4958 H 489.391 0.923469 4.18533 0
M  V30 4959 H 493.575 1.80008 4.62505 0
M  V30 4960 H 488.831 3.0388 5.30535 0
M  V30 4961 H 493.005 3.91586 5.75876 0
M  V30 4962 H 490.632 4.54088 6.09678 0
M  V30 4963 N 492.207 -1.54576 0.307264 0
M  V30 4964 C 493.117 -2.27435 -0.57536 0
M  V30 4965 C 494.133 -1.31183 -1.14311 0
M  V30 4966 O 495.309 -1.64175 -1.16656 0
M  V30 4967 C 492.374 -3.00566 -1.72803 0
M  V30 4968 C 491.435 -4.12369 -1.19373 0
M  V30 4969 C 490.668 -4.82003 -2.29147 0
M  V30 4970 O 490.891 -4.51038 -3.49171 0
M  V30 4971 O 489.825 -5.69271 -1.95485 0
M  V30 4972 H 493.651 -3.03696 0.0158558 0
M  V30 4973 H 491.236 -1.49219 0.0735064 0
M  V30 4974 H 493.118 -3.46416 -2.39946 0
M  V30 4975 H 491.793 -2.27195 -2.30574 0
M  V30 4976 H 490.7 -3.70905 -0.487851 0
M  V30 4977 H 492.033 -4.87736 -0.661376 0
M  V30 4978 N 493.685 -0.035106 -1.57561 0
M  V30 4979 C 494.933 0.64096 -1.91667 0
M  V30 4980 C 495.254 1.72323 -0.912681 0
M  V30 4981 O 494.524 1.95849 0.0449089 0
M  V30 4982 H 493.104 0.239743 -0.707483 0
M  V30 4983 H 495.766 -0.084321 -1.94718 0
M  V30 4984 H 494.862 1.08987 -2.92452 0
M  V30 4985 N 495.163 1.55791 0.238111 0
M  V30 4986 C 496.409 1.78297 0.966337 0
M  V30 4987 C 496.742 0.601903 1.84637 0
M  V30 4988 O 496.017 -0.399499 1.90353 0
M  V30 4989 C 496.3 3.10758 1.81939 0
M  V30 4990 C 496.153 4.39283 0.966958 0
M  V30 4991 C 497.472 3.39519 2.80027 0
M  V30 4992 H 494.591 0.648654 0.349882 0
M  V30 4993 H 497.233 1.88525 0.236253 0
M  V30 4994 H 495.383 3.02168 2.44185 0
M  V30 4995 H 497.055 4.59873 0.362514 0
M  V30 4996 H 495.298 4.32948 0.271669 0
M  V30 4997 H 495.969 5.28368 1.59784 0
M  V30 4998 H 498.445 3.48128 2.27917 0
M  V30 4999 H 497.321 4.33402 3.36829 0
M  V30 5000 H 497.582 2.60864 3.56934 0
M  V30 5001 N 496.642 -0.504142 1.49319 0
M  V30 5002 C 497.919 -1.26548 1.49147 0
M  V30 5003 C 498.299 -2.09977 0.21744 0
M  V30 5004 O 497.647 -2.14028 -0.800269 0
M  V30 5005 C 497.857 -2.12489 2.76857 0
M  V30 5006 C 499.205 -2.7178 3.26222 0
M  V30 5007 O 500.229 -2.22758 2.77952 0
M  V30 5008 O 499.088 -3.61015 4.10281 0
M  V30 5009 H 496.182 -0.572495 0.596806 0
M  V30 5010 H 498.728 -0.51867 1.61579 0
M  V30 5011 H 497.5 -1.50796 3.61077 0
M  V30 5012 H 497.123 -2.94368 2.6727 0
M  V30 5013 N 498.12 -1.38341 -0.754957 0
M  V30 5014 C 499.366 -1.34672 -1.51628 0
M  V30 5015 C 499.699 0.0636036 -1.94096 0
M  V30 5016 O 498.974 1.0245 -1.6533 0
M  V30 5017 C 499.257 -2.30116 -2.76981 0
M  V30 5018 C 499.11 -3.80003 -2.4066 0
M  V30 5019 C 500.429 -2.23715 -3.78998 0
M  V30 5020 H 497.548 -0.490517 -0.550056 0
M  V30 5021 H 500.19 -1.69178 -0.864807 0
M  V30 5022 H 498.34 -2.00821 -3.3257 0
M  V30 5023 H 500.012 -4.19966 -1.90856 0
M  V30 5024 H 498.255 -3.97751 -1.73137 0
M  V30 5025 H 498.926 -4.42244 -3.30339 0
M  V30 5026 H 501.402 -2.49574 -3.32945 0
M  V30 5027 H 500.278 -2.9261 -4.64403 0
M  V30 5028 H 500.539 -1.23554 -4.24484 0
M  V30 5029 N 499.598 0.982988 -1.23187 0
M  V30 5030 C 500.528 2.09301 -1.03515 0
M  V30 5031 C 501.509 1.70035 0.0471136 0
M  V30 5032 O 502.694 1.93847 -0.117029 0
M  V30 5033 C 499.824 3.4167 -0.622791 0
M  V30 5034 C 498.778 3.94828 -1.65211 0
M  V30 5035 C 498.104 5.23362 -1.09527 0
M  V30 5036 C 499.404 4.2439 -3.04451 0
M  V30 5037 H 501.098 2.26016 -1.96359 0
M  V30 5038 H 498.644 1.08611 -0.945501 0
M  V30 5039 H 500.597 4.18746 -0.472233 0
M  V30 5040 H 499.321 3.24811 0.341329 0
M  V30 5041 H 497.98 3.19895 -1.79061 0
M  V30 5042 H 497.628 5.02852 -0.122211 0
M  V30 5043 H 497.328 5.59895 -1.783 0
M  V30 5044 H 498.852 6.03062 -0.956511 0
M  V30 5045 H 500.266 4.92225 -2.93917 0
M  V30 5046 H 498.663 4.72118 -3.70438 0
M  V30 5047 H 499.733 3.31765 -3.53638 0
M  V30 5048 N 501.076 1.04316 1.18135 0
M  V30 5049 C 502.006 0.657299 2.24058 0
M  V30 5050 C 502.987 -0.340678 1.66654 0
M  V30 5051 O 504.172 -0.220223 1.92947 0
M  V30 5052 C 501.302 0.0220715 3.47293 0
M  V30 5053 C 500.256 0.943857 4.17463 0
M  V30 5054 C 499.582 0.172973 5.3442 0
M  V30 5055 C 500.882 2.26409 4.70677 0
M  V30 5056 H 502.576 1.5428 2.56589 0
M  V30 5057 H 500.122 0.743263 1.23335 0
M  V30 5058 H 502.075 -0.259607 4.206 0
M  V30 5059 H 500.799 -0.898323 3.14003 0
M  V30 5060 H 499.458 1.20996 3.46057 0
M  V30 5061 H 499.106 -0.749907 4.97379 0
M  V30 5062 H 498.806 0.787098 5.82304 0
M  V30 5063 H 500.33 -0.101628 6.10515 0
M  V30 5064 H 501.744 2.04294 5.35665 0
M  V30 5065 H 500.141 2.8314 5.29105 0
M  V30 5066 H 501.211 2.90883 3.87962 0
M  V30 5067 N 502.554 -1.34406 0.822964 0
M  V30 5068 C 503.782 -2.02508 0.424039 0
M  V30 5069 C 504.197 -1.61975 -0.970022 0
M  V30 5070 O 503.554 -0.825228 -1.62777 0
M  V30 5071 C 503.605 -3.57789 0.516657 0
M  V30 5072 O 503.326 -3.96853 1.85577 0
M  V30 5073 C 504.827 -4.43157 0.112637 0
M  V30 5074 H 502.047 -0.649063 0.170173 0
M  V30 5075 H 504.591 -1.7168 1.11113 0
M  V30 5076 H 502.746 -3.87207 -0.122353 0
M  V30 5077 H 503.16 -4.91538 1.83005 0
M  V30 5078 H 504.634 -5.51527 0.228526 0
M  V30 5079 H 505.111 -4.28939 -0.943837 0
M  V30 5080 H 505.717 -4.19067 0.725449 0
M  V30 5081 N 504.032 -0.577932 -1.46621 0
M  V30 5082 C 505.262 -0.0670668 -2.06491 0
M  V30 5083 C 505.67 1.24119 -1.42798 0
M  V30 5084 O 505.013 1.76016 -0.525759 0
M  V30 5085 C 505.075 0.177995 -3.59059 0
M  V30 5086 C 504.739 -1.04394 -4.44917 0
M  V30 5087 C 505.736 -1.95479 -4.81751 0
M  V30 5088 C 503.421 -1.26444 -4.86125 0
M  V30 5089 C 505.415 -3.06965 -5.58615 0
M  V30 5090 C 503.102 -2.38237 -5.62749 0
M  V30 5091 C 504.1 -3.28327 -5.98908 0
M  V30 5092 O 503.788 -4.38179 -6.73984 0
M  V30 5093 H 503.52 -0.0523159 -0.673973 0
M  V30 5094 H 506.074 -0.796966 -1.89308 0
M  V30 5095 H 504.304 0.962451 -3.74531 0
M  V30 5096 H 505.993 0.636782 -4.00874 0
M  V30 5097 H 506.759 -1.79657 -4.50498 0
M  V30 5098 H 502.638 -0.572316 -4.57434 0
M  V30 5099 H 506.182 -3.77309 -5.86757 0
M  V30 5100 H 502.079 -2.54023 -5.93416 0
M  V30 5101 H 502.847 -4.36486 -6.92403 0
M  V30 5102 N 505.51 1.54411 -0.315457 0
M  V30 5103 C 506.735 2.05299 0.294496 0
M  V30 5104 C 507.16 1.19052 1.4563 0
M  V30 5105 O 506.518 0.197804 1.80218 0
M  V30 5106 C 506.566 3.5345 0.714549 0
M  V30 5107 O 505.67 3.70175 1.81781 0
M  V30 5108 H 505.011 0.661743 0.0547019 0
M  V30 5109 H 507.541 1.99327 -0.461508 0
M  V30 5110 H 507.551 3.9557 0.999426 0
M  V30 5111 H 506.226 4.1568 -0.135244 0
M  V30 5112 H 504.803 3.3996 1.53236 0
M  V30 5113 N 506.988 0.0434614 1.5754 0
M  V30 5114 C 507.951 -0.918696 2.09982 0
M  V30 5115 C 508.951 -1.24488 1.01781 0
M  V30 5116 O 510.141 -1.18284 1.27885 0
M  V30 5117 C 507.273 -2.23093 2.57764 0
M  V30 5118 H 508.466 -0.464229 2.96285 0
M  V30 5119 H 506.019 -0.204818 1.54952 0
M  V30 5120 H 506.754 -2.73137 1.74832 0
M  V30 5121 H 506.539 -2.00724 3.36827 0
M  V30 5122 H 508.029 -2.92028 2.98512 0
M  V30 5123 N 508.466 -1.55915 -0.229846 0
M  V30 5124 C 509.877 -1.68809 -0.797531 0
M  V30 5125 C 510.228 -0.643995 -1.8533 0
M  V30 5126 O 509.353 0.206492 -2.15413 0
M  V30 5127 C 509.948 -3.06043 -1.45338 0
M  V30 5128 C 508.507 -3.20819 -1.96856 0
M  V30 5129 C 507.654 -2.6472 -0.825736 0
M  V30 5130 H 510.605 -1.58699 -0.00533733 0
M  V30 5131 H 510.626 -3.01438 -2.32196 0
M  V30 5132 H 510.138 -3.82012 -0.684743 0
M  V30 5133 H 508.239 -2.49704 -2.76548 0
M  V30 5134 H 508.352 -4.27937 -2.15423 0
M  V30 5135 H 506.716 -2.22985 -1.23084 0
M  V30 5136 H 507.499 -3.43229 -0.0699019 0
M  V30 5137 N 509.944 0.496216 -1.49584 0
M  V30 5138 C 511.192 1.24756 -1.58998 0
M  V30 5139 C 511.513 1.92968 -0.280775 0
M  V30 5140 O 510.783 1.82959 0.700198 0
M  V30 5141 H 509.363 0.463471 -0.585836 0
M  V30 5142 H 512.025 0.574678 -1.86235 0
M  V30 5143 H 511.121 2.00895 -2.38847 0
M  V30 5144 N 511.423 1.38739 0.74761 0
M  V30 5145 C 512.651 1.38521 1.53686 0
M  V30 5146 C 513.066 -0.0235129 1.88785 0
M  V30 5147 O 512.423 -0.991662 1.53207 0
M  V30 5148 C 512.474 2.24641 2.83229 0
M  V30 5149 O 512.195 3.60026 2.49625 0
M  V30 5150 C 513.696 2.32669 3.77333 0
M  V30 5151 H 510.916 0.473589 0.475347 0
M  V30 5152 H 513.46 1.82395 0.924786 0
M  V30 5153 H 511.615 1.84213 3.40799 0
M  V30 5154 H 512.029 4.05435 3.3275 0
M  V30 5155 H 513.503 2.97201 4.65162 0
M  V30 5156 H 513.98 1.3421 4.18192 0
M  V30 5157 H 514.586 2.73512 3.25685 0
M  V30 5158 N 512.901 -0.976442 1.23707 0
M  V30 5159 C 513.864 -2.0511 1.02287 0
M  V30 5160 C 514.864 -1.60791 -0.0167195 0
M  V30 5161 O 516.054 -1.72761 0.223408 0
M  V30 5162 C 513.186 -3.36458 0.548507 0
M  V30 5163 H 514.379 -2.25545 1.9766 0
M  V30 5164 H 511.932 -1.15042 1.05806 0
M  V30 5165 H 512.667 -3.21713 -0.408818 0
M  V30 5166 H 512.452 -3.69967 1.29874 0
M  V30 5167 H 513.942 -4.15489 0.419406 0
M  V30 5168 N 514.379 -1.04941 -1.1758 0
M  V30 5169 C 515.79 -0.784501 -1.69418 0
M  V30 5170 C 516.141 0.693625 -1.8353 0
M  V30 5171 O 515.266 1.53925 -1.52106 0
M  V30 5172 C 515.861 -1.41746 -3.07723 0
M  V30 5173 C 514.42 -1.20066 -3.56737 0
M  V30 5174 C 513.567 -1.5026 -2.33061 0
M  V30 5175 H 516.518 -1.21469 -1.02133 0
M  V30 5176 H 516.539 -0.825381 -3.7144 0
M  V30 5177 H 516.051 -2.49325 -2.9742 0
M  V30 5178 H 514.152 -0.144006 -3.72322 0
M  V30 5179 H 514.265 -1.90384 -4.39648 0
M  V30 5180 H 512.629 -0.922598 -2.37403 0
M  V30 5181 H 513.412 -2.58967 -2.25368 0
M  V30 5182 N 515.857 1.33968 -0.830081 0
M  V30 5183 C 516.82 2.27694 -0.26235 0
M  V30 5184 C 517.82 1.50589 0.563876 0
M  V30 5185 O 519.01 1.70028 0.378941 0
M  V30 5186 C 516.142 3.35002 0.63138 0
M  V30 5187 H 517.335 2.79419 -1.08928 0
M  V30 5188 H 514.888 1.44221 -0.602486 0
M  V30 5189 H 515.623 2.88504 1.48109 0
M  V30 5190 H 515.408 3.92079 0.0403276 0
M  V30 5191 H 516.898 4.04897 1.02217 0
M  V30 5192 N 517.335 0.585699 1.46312 0
M  V30 5193 C 518.282 -0.145835 2.30339 0
M  V30 5194 C 519.252 -0.881215 1.40797 0
M  V30 5195 O 520.437 -0.871293 1.69744 0
M  V30 5196 C 517.577 -1.15161 3.25318 0
M  V30 5197 C 516.69 -0.419367 4.2996 0
M  V30 5198 C 515.825 -1.41293 5.12064 0
M  V30 5199 C 514.864 -0.667261 6.08452 0
M  V30 5200 N 514.001 -1.60903 6.83414 0
M  V30 5201 H 518.841 0.576755 2.92365 0
M  V30 5202 H 516.378 0.296237 1.44086 0
M  V30 5203 H 518.336 -1.74763 3.78832 0
M  V30 5204 H 516.966 -1.84188 2.65094 0
M  V30 5205 H 516.018 0.291751 3.7928 0
M  V30 5206 H 517.33 0.163433 4.98532 0
M  V30 5207 H 516.484 -2.08167 5.6987 0
M  V30 5208 H 515.223 -2.02966 4.43459 0
M  V30 5209 H 514.228 0.0152356 5.49798 0
M  V30 5210 H 515.453 -0.0558817 6.79077 0
M  V30 5211 H 513.399 -2.21381 6.17516 0
M  V30 5212 H 513.316 -1.07911 7.48259 0
M  V30 5213 H 514.584 -2.26802 7.45775 0
M  V30 5214 N 518.813 -1.54241 0.323641 0
M  V30 5215 C 519.776 -2.22997 -0.529602 0
M  V30 5216 C 520.776 -1.22345 -1.04347 0
M  V30 5217 O 521.966 -1.46924 -0.935889 0
M  V30 5218 C 519.098 -2.93409 -1.73562 0
M  V30 5219 H 520.291 -2.99815 0.0714518 0
M  V30 5220 H 517.844 -1.56121 0.0747258 0
M  V30 5221 H 518.579 -2.20729 -2.37591 0
M  V30 5222 H 518.364 -3.67217 -1.37456 0
M  V30 5223 H 519.854 -3.45794 -2.34128 0
M  V30 5224 N 520.291 -0.0518155 -1.57515 0
M  V30 5225 C 521.221 0.920283 -2.146 0
M  V30 5226 C 522.202 1.32406 -1.06783 0
M  V30 5227 O 523.387 1.39866 -1.34726 0
M  V30 5228 C 520.517 2.1949 -2.6915 0
M  V30 5229 C 519.471 1.93116 -3.81956 0
M  V30 5230 C 518.797 3.27037 -4.23026 0
M  V30 5231 C 520.097 1.25225 -5.07066 0
M  V30 5232 H 521.791 0.444801 -2.96077 0
M  V30 5233 H 519.337 0.212508 -1.42423 0
M  V30 5234 H 521.29 2.87894 -3.07725 0
M  V30 5235 H 520.014 2.69244 -1.84865 0
M  V30 5236 H 518.673 1.27123 -3.43854 0
M  V30 5237 H 518.321 3.74595 -3.3569 0
M  V30 5238 H 518.021 3.10189 -4.99056 0
M  V30 5239 H 519.545 3.96673 -4.64202 0
M  V30 5240 H 520.959 1.83666 -5.43083 0
M  V30 5241 H 519.356 1.18702 -5.88243 0
M  V30 5242 H 520.426 0.228382 -4.84362 0
M  V30 5243 N 521.769 1.56035 0.221574 0
M  V30 5244 C 522.732 1.91584 1.2581 0
M  V30 5245 C 523.732 0.794425 1.39805 0
M  V30 5246 O 524.922 1.06217 1.38071 0
M  V30 5247 C 522.054 2.16663 2.63192 0
M  V30 5248 H 523.247 2.8429 0.954935 0
M  V30 5249 H 520.8 1.49316 0.461988 0
M  V30 5250 H 521.535 1.26508 2.98607 0
M  V30 5251 H 521.32 2.98358 2.5441 0
M  V30 5252 H 522.81 2.45262 3.37988 0
M  V30 5253 N 523.247 -0.488276 1.49845 0
M  V30 5254 C 524.472 -1.26997 1.63971 0
M  V30 5255 C 524.897 -1.85427 0.315994 0
M  V30 5256 O 524.255 -1.66475 -0.718032 0
M  V30 5257 C 524.303 -2.36689 2.72049 0
M  V30 5258 O 523.407 -3.40882 2.32107 0
M  V30 5259 H 522.748 -0.374376 0.548396 0
M  V30 5260 H 525.278 -0.583104 1.96115 0
M  V30 5261 H 525.288 -2.82262 2.94605 0
M  V30 5262 H 523.963 -1.93529 3.68129 0
M  V30 5263 H 522.54 -3.01139 2.19931 0
M  V30 5264 N 524.725 -1.39134 -0.740242 0
M  V30 5265 C 525.953 -1.39334 -1.5295 0
M  V30 5266 C 526.368 0.0135008 -1.88795 0
M  V30 5267 O 525.725 0.983524 -1.5373 0
M  V30 5268 C 525.776 -2.2614 -2.82034 0
M  V30 5269 O 525.497 -3.61345 -2.47712 0
M  V30 5270 C 526.998 -2.34666 -3.76094 0
M  V30 5271 H 524.218 -0.476103 -0.472828 0
M  V30 5272 H 526.762 -1.82883 -0.9151 0
M  V30 5273 H 524.917 -1.86018 -3.39818 0
M  V30 5274 H 525.331 -4.07194 -3.30595 0
M  V30 5275 H 526.805 -2.99663 -4.63579 0
M  V30 5276 H 527.282 -1.36426 -4.17474 0
M  V30 5277 H 527.888 -2.75236 -3.2423 0
M  V30 5278 N 526.204 0.969867 -1.24223 0
M  V30 5279 C 527.452 1.70918 -1.0785 0
M  V30 5280 C 527.773 1.91186 0.383763 0
M  V30 5281 O 527.043 1.48806 1.27411 0
M  V30 5282 H 525.623 0.633334 -0.396103 0
M  V30 5283 H 528.285 1.16689 -1.56108 0
M  V30 5284 H 527.381 2.69455 -1.57482 0
M  V30 5285 N 527.682 1.05563 1.17022 0
M  V30 5286 C 528.959 0.68165 1.83338 0
M  V30 5287 C 529.339 -0.837665 1.93769 0
M  V30 5288 O 528.687 -1.74507 1.47511 0
M  V30 5289 C 528.897 1.375 3.20772 0
M  V30 5290 C 530.245 1.51545 3.96635 0
M  V30 5291 O 531.269 1.33431 3.30264 0
M  V30 5292 O 530.128 1.812 5.15586 0
M  V30 5293 H 527.222 0.240412 0.791285 0
M  V30 5294 H 529.768 1.15545 1.24288 0
M  V30 5295 H 528.54 2.41135 3.08171 0
M  V30 5296 H 528.163 0.890798 3.87493 0
M  V30 5297 N 529.16 -1.33526 0.837174 0
M  V30 5298 C 530.571 -1.80182 0.489017 0
M  V30 5299 C 530.922 -1.69285 -0.991826 0
M  V30 5300 O 530.047 -1.24113 -1.77271 0
M  V30 5301 C 530.642 -3.27149 0.880866 0
M  V30 5302 C 529.201 -3.71828 0.584872 0
M  V30 5303 C 528.348 -2.54974 1.09011 0
M  V30 5304 H 531.299 -1.21071 1.02603 0
M  V30 5305 H 531.32 -3.80024 0.190239 0
M  V30 5306 H 530.832 -3.35048 1.95869 0
M  V30 5307 H 528.933 -3.69457 -0.48295 0
M  V30 5308 H 529.046 -4.65366 1.13892 0
M  V30 5309 H 527.41 -2.4952 0.511047 0
M  V30 5310 H 528.193 -2.65637 2.17467 0
M  V30 5311 N 530.638 -0.59345 -1.46 0
M  V30 5312 C 532.054 -0.255965 -1.57534 0
M  V30 5313 C 532.254 1.24167 -1.58697 0
M  V30 5314 O 531.31 2.02398 -1.50968 0
M  V30 5315 C 532.623 -0.91466 -2.86451 0
M  V30 5316 C 534.171 -0.889253 -3.00102 0
M  V30 5317 C 534.646 -1.52769 -4.3177 0
M  V30 5318 N 536.137 -1.49253 -4.38495 0
M  V30 5319 C 536.872 -1.9558 -5.39014 0
M  V30 5320 N 536.368 -2.49929 -6.46148 0
M  V30 5321 N 538.161 -1.86432 -5.30282 0
M  V30 5322 H 530.312 -1.56604 -1.43489 0
M  V30 5323 H 532.575 -0.655207 -0.685133 0
M  V30 5324 H 532.281 -1.96861 -2.91442 0
M  V30 5325 H 532.155 -0.429356 -3.74748 0
M  V30 5326 H 534.542 0.156111 -2.94687 0
M  V30 5327 H 534.623 -1.41268 -2.13253 0
M  V30 5328 H 534.267 -2.57231 -4.37944 0
M  V30 5329 H 534.197 -0.979398 -5.17412 0
M  V30 5330 H 536.688 -1.09536 -3.61677 0
M  V30 5331 H 537.001 -2.83109 -7.19075 0
M  V30 5332 H 535.346 -2.53961 -6.46938 0
M  V30 5333 H 538.537 -1.43722 -4.4549 0
M  V30 5334 H 538.71 -2.22852 -6.08474 0
M  V30 5335 N 532.116 1.54067 -0.331816 0
M  V30 5336 C 533.346 2.04833 0.269605 0
M  V30 5337 C 533.754 1.20714 1.45687 0
M  V30 5338 O 533.097 0.232539 1.82222 0
M  V30 5339 C 533.159 3.51386 0.759499 0
M  V30 5340 C 532.823 4.55971 -0.306557 0
M  V30 5341 C 533.82 5.07126 -1.14538 0
M  V30 5342 C 531.505 5.00216 -0.457116 0
M  V30 5343 C 533.499 6.01096 -2.12042 0
M  V30 5344 C 531.186 5.93999 -1.43556 0
M  V30 5345 C 532.184 6.44326 -2.26568 0
M  V30 5346 O 531.872 7.36267 -3.22749 0
M  V30 5347 H 531.604 0.673509 0.0579763 0
M  V30 5348 H 534.158 1.99748 -0.478521 0
M  V30 5349 H 532.388 3.53896 1.55867 0
M  V30 5350 H 534.077 3.85184 1.28017 0
M  V30 5351 H 534.843 4.73716 -1.04009 0
M  V30 5352 H 530.722 4.60652 0.179142 0
M  V30 5353 H 534.266 6.40302 -2.76873 0
M  V30 5354 H 530.163 6.26825 -1.54146 0
M  V30 5355 H 530.931 7.54165 -3.18083 0
M  V30 5356 N 533.594 0.0601682 1.57485 0
M  V30 5357 C 534.542 -0.928899 2.13247 0
M  V30 5358 C 535.536 -1.31616 1.06647 0
M  V30 5359 O 536.742 -1.29476 1.25043 0
M  V30 5360 H 533.117 -0.317455 0.681708 0
M  V30 5361 H 535.088 -0.433566 2.95233 0
M  V30 5362 C 533.837 -2.19121 2.69965 0
M  V30 5363 H 533.16 -1.90204 3.51657 0
M  V30 5364 H 534.6 -2.86465 3.12592 0
M  V30 5365 C 533.059 -2.94195 1.64168 0
M  V30 5366 O 533.589 -3.87468 1.05978 0
M  V30 5367 N 531.795 -2.57089 1.35476 0
M  V30 5368 H 531.342 -1.81314 1.82984 0
M  V30 5369 H 531.3 -3.07624 0.649196 0
M  V30 5370 N 535.072 -1.5615 -0.213296 0
M  V30 5371 C 536.488 -1.49327 -0.56336 0
M  V30 5372 C 536.688 -0.756826 -1.86747 0
M  V30 5373 O 535.744 -0.299866 -2.50713 0
M  V30 5374 C 537.057 -2.9392 -0.634944 0
M  V30 5375 C 538.605 -3.04487 -0.725013 0
M  V30 5376 C 539.08 -4.50456 -0.82787 0
M  V30 5377 N 540.571 -4.54533 -0.891876 0
M  V30 5378 C 541.306 -5.64766 -0.991315 0
M  V30 5379 N 540.802 -6.84733 -1.05419 0
M  V30 5380 N 542.595 -5.52637 -1.02709 0
M  V30 5381 H 534.746 -2.02453 0.642366 0
M  V30 5382 H 537.009 -0.920548 0.226487 0
M  V30 5383 H 536.715 -3.50783 0.253859 0
M  V30 5384 H 536.589 -3.46274 -1.49579 0
M  V30 5385 H 538.976 -2.47685 -1.60425 0
M  V30 5386 H 539.057 -2.55289 0.161669 0
M  V30 5387 H 538.701 -5.07878 0.0469464 0
M  V30 5388 H 538.631 -4.97369 -1.73009 0
M  V30 5389 H 541.122 -3.68141 -0.85327 0
M  V30 5390 H 541.435 -7.64493 -1.13007 0
M  V30 5391 H 539.78 -6.87427 -1.02318 0
M  V30 5392 H 542.971 -4.5784 -0.974687 0
M  V30 5393 H 543.144 -6.38576 -1.10113 0
M  V30 5394 N 536.55 0.480323 -1.50102 0
M  V30 5395 C 537.48 1.58769 -1.71215 0
M  V30 5396 C 538.461 1.60583 -0.560997 0
M  V30 5397 O 539.646 1.76996 -0.799127 0
M  V30 5398 C 536.776 2.97148 -1.79778 0
M  V30 5399 C 535.73 3.10201 -2.94888 0
M  V30 5400 C 535.056 4.50137 -2.88584 0
M  V30 5401 C 536.356 2.88283 -4.35534 0
M  V30 5402 H 538.05 1.41354 -2.6393 0
M  V30 5403 H 535.596 0.678591 -1.27008 0
M  V30 5404 H 537.549 3.74536 -1.93133 0
M  V30 5405 H 536.273 3.15699 -0.836772 0
M  V30 5406 H 534.932 2.35244 -2.81169 0
M  V30 5407 H 534.58 4.65593 -1.90349 0
M  V30 5408 H 534.28 4.59808 -3.65856 0
M  V30 5409 H 535.804 5.29558 -3.03976 0
M  V30 5410 H 537.218 3.55427 -4.49827 0
M  V30 5411 H 535.615 3.09408 -5.14186 0
M  V30 5412 H 536.685 1.84219 -4.48544 0
M  V30 5413 N 538.028 1.39524 0.732853 0
M  V30 5414 C 539.274 1.38072 1.49358 0
M  V30 5415 C 539.629 -0.0227943 1.92386 0
M  V30 5416 O 538.922 -0.98976 1.64056 0
M  V30 5417 C 539.116 2.28916 2.74468 0
M  V30 5418 C 538.945 3.7796 2.43673 0
M  V30 5419 C 537.715 4.46874 2.35863 0
M  V30 5420 C 539.913 4.69886 2.09074 0
M  V30 5421 N 537.895 5.81242 1.97561 0
M  V30 5422 C 539.266 5.9292 1.81234 0
M  V30 5423 C 541.321 4.57887 1.95561 0
M  V30 5424 C 540.024 7.05297 1.41242 0
M  V30 5425 C 542.05 5.70187 1.56972 0
M  V30 5426 C 541.412 6.92297 1.30018 0
M  V30 5427 H 537.511 0.56051 0.5453 0
M  V30 5428 H 540.095 1.75093 0.85151 0
M  V30 5429 H 538.266 1.9405 3.36451 0
M  V30 5430 H 539.998 2.18441 3.40684 0
M  V30 5431 H 536.753 4.00341 2.5303 0
M  V30 5432 H 537.177 6.52356 1.80997 0
M  V30 5433 H 541.819 3.64014 2.15067 0
M  V30 5434 H 539.537 7.99069 1.20476 0
M  V30 5435 H 543.123 5.62892 1.47119 0
M  V30 5436 H 542.003 7.7772 1.00605 0
M  V30 5437 N 539.506 -0.963266 1.24736 0
M  V30 5438 C 540.734 -1.74166 1.11686 0
M  V30 5439 C 541.149 -1.8589 -0.330187 0
M  V30 5440 O 540.506 -1.35042 -1.2276 0
M  V30 5441 C 540.557 -3.15989 1.75595 0
M  V30 5442 O 540.278 -3.04847 3.14642 0
M  V30 5443 C 541.779 -4.10145 1.68213 0
M  V30 5444 H 538.999 -0.546031 0.389989 0
M  V30 5445 H 541.543 -1.20907 1.64929 0
M  V30 5446 H 539.698 -3.66219 1.26343 0
M  V30 5447 H 540.112 -3.9425 3.4593 0
M  V30 5448 H 541.586 -5.07299 2.17604 0
M  V30 5449 H 542.063 -4.3445 0.644208 0
M  V30 5450 H 542.669 -3.65827 2.16912 0
M  V30 5451 N 540.985 -1.06182 -1.16461 0
M  V30 5452 C 541.915 -0.692861 -2.22984 0
M  V30 5453 C 542.896 0.314122 -1.67174 0
M  V30 5454 O 544.081 0.189499 -1.93273 0
M  V30 5455 C 541.211 -0.07732 -3.47214 0
M  V30 5456 C 540.165 -1.01015 -4.15909 0
M  V30 5457 C 539.491 -0.257973 -5.34077 0
M  V30 5458 C 540.791 -2.33868 -4.67015 0
M  V30 5459 H 542.485 -1.58343 -2.54102 0
M  V30 5460 H 540.031 -0.76279 -1.22137 0
M  V30 5461 H 541.984 0.19266 -4.20959 0
M  V30 5462 H 540.708 0.848254 -3.15392 0
M  V30 5463 H 539.367 -1.26486 -3.44088 0
M  V30 5464 H 539.015 0.670684 -4.98509 0
M  V30 5465 H 538.715 -0.879638 -5.80979 0
M  V30 5466 H 540.239 0.00448788 -6.106 0
M  V30 5467 H 541.653 -2.1279 -5.32347 0
M  V30 5468 H 540.05 -2.91522 -5.24533 0
M  V30 5469 H 541.12 -2.97019 -3.83286 0
M  V30 5470 N 542.463 1.3308 -0.844243 0
M  V30 5471 C 543.396 2.27075 -0.226279 0
M  V30 5472 C 544.374 1.49911 0.629716 0
M  V30 5473 O 545.558 1.79068 0.588803 0
M  V30 5474 C 542.685 3.31767 0.681782 0
M  V30 5475 C 541.731 4.26384 -0.0994565 0
M  V30 5476 S 542.564 5.15186 -1.46094 0
M  V30 5477 C 543.72 6.23405 -0.558319 0
M  V30 5478 H 543.953 2.79141 -1.02312 0
M  V30 5479 H 541.486 1.40452 -0.641292 0
M  V30 5480 H 543.444 3.92566 1.20008 0
M  V30 5481 H 542.105 2.78507 1.45234 0
M  V30 5482 H 541.298 5.00514 0.591733 0
M  V30 5483 H 540.9 3.69949 -0.548991 0
M  V30 5484 H 543.192 6.77069 0.241672 0
M  V30 5485 H 544.135 6.96619 -1.26995 0
M  V30 5486 H 544.543 5.64333 -0.13728 0
M  V30 5487 N 543.941 0.601185 1.45683 0
M  V30 5488 C 545.189 0.0936957 2.01883 0
M  V30 5489 C 545.51 -1.2779 1.47291 0
M  V30 5490 O 544.78 -1.84279 0.664691 0
M  V30 5491 H 543.36 0.0316466 0.746329 0
M  V30 5492 H 546.022 0.781137 1.78562 0
M  V30 5493 H 545.118 0.0386297 3.12076 0
M  V30 5494 N 545.419 -1.53889 0.339982 0
M  V30 5495 C 546.367 -2.26391 -0.533822 0
M  V30 5496 C 547.361 -1.28404 -1.10493 0
M  V30 5497 O 548.567 -1.46124 -1.05108 0
M  V30 5498 H 544.942 -0.727385 -0.190828 0
M  V30 5499 H 546.913 -2.98233 0.0997484 0
M  V30 5500 C 545.662 -3.04707 -1.67479 0
M  V30 5501 H 544.985 -3.79934 -1.2446 0
M  V30 5502 H 546.425 -3.58657 -2.26144 0
M  V30 5503 C 544.884 -2.13989 -2.60212 0
M  V30 5504 O 545.414 -1.73361 -3.62366 0
M  V30 5505 N 543.62 -1.79141 -2.28816 0
M  V30 5506 H 543.167 -2.12378 -1.45785 0
M  V30 5507 H 543.125 -1.18725 -2.91121 0
M  V30 5508 N 546.897 -0.0685191 -1.57451 0
M  V30 5509 C 548.308 0.464634 -1.80826 0
M  V30 5510 C 548.659 1.69847 -0.982169 0
M  V30 5511 O 547.784 2.15439 -0.203734 0
M  V30 5512 C 548.379 0.849721 -3.27971 0
M  V30 5513 C 546.938 1.32776 -3.52204 0
M  V30 5514 C 546.085 0.311332 -2.75547 0
M  V30 5515 H 549.036 -0.294248 -1.55948 0
M  V30 5516 H 549.057 1.71138 -3.39841 0
M  V30 5517 H 548.569 -0.0484736 -3.8807 0
M  V30 5518 H 546.67 2.24456 -2.97406 0
M  V30 5519 H 546.783 1.30794 -4.60901 0
M  V30 5520 H 545.147 0.787915 -2.42206 0
M  V30 5521 H 545.93 -0.579078 -3.38381 0
M  V30 5522 N 548.375 1.56261 0.205012 0
M  V30 5523 C 549.615 1.81823 0.933806 0
M  V30 5524 C 549.979 0.644534 1.80858 0
M  V30 5525 O 551.18 0.779819 2.5724 0
M  V30 5526 C 549.451 3.12362 1.7368 0
M  V30 5527 S 551.01 3.59296 2.51897 0
M  V30 5528 H 547.828 0.638209 0.313386 0
M  V30 5529 H 550.43 1.94495 0.198001 0
M  V30 5530 H 549.134 3.95809 1.08459 0
M  V30 5531 H 548.665 3.02542 2.5146 0
M  V30 5532 H 550.68 3.23945 3.75864 0
M  V30 5533 N 549.853 -0.472356 1.50355 0
M  V30 5534 C 551.099 -1.22634 1.6152 0
M  V30 5535 C 551.432 -1.91645 0.313995 0
M  V30 5536 O 550.707 -1.82059 -0.684446 0
M  V30 5537 C 550.99 -2.27099 2.7946 0
M  V30 5538 C 550.843 -1.62402 4.19459 0
M  V30 5539 C 552.162 -3.28421 2.92964 0
M  V30 5540 H 549.281 -0.444494 0.587873 0
M  V30 5541 H 551.923 -0.520321 1.82737 0
M  V30 5542 H 550.073 -2.87314 2.61501 0
M  V30 5543 H 551.745 -1.05793 4.49005 0
M  V30 5544 H 549.988 -0.927184 4.23776 0
M  V30 5545 H 550.659 -2.38309 4.97909 0
M  V30 5546 H 553.135 -2.78227 3.09401 0
M  V30 5547 H 552.011 -3.98845 3.77113 0
M  V30 5548 H 552.272 -3.92467 2.03525 0
M  V30 5549 N 551.331 -1.39911 -0.725443 0
M  V30 5550 C 552.279 -1.39552 -1.86086 0
M  V30 5551 C 553.273 -0.277334 -1.67114 0
M  V30 5552 O 554.479 -0.447865 -1.74339 0
M  V30 5553 H 550.854 -0.435993 -0.612711 0
M  V30 5554 H 552.825 -2.35305 -1.83505 0
M  V30 5555 C 551.574 -1.26529 -3.2386 0
M  V30 5556 H 550.897 -2.11845 -3.3906 0
M  V30 5557 H 552.337 -1.30336 -4.03471 0
M  V30 5558 C 550.796 0.0254168 -3.3689 0
M  V30 5559 O 551.326 0.992048 -3.89257 0
M  V30 5560 N 549.532 0.0916528 -2.90455 0
M  V30 5561 H 549.079 -0.695675 -2.48028 0
M  V30 5562 H 549.037 0.954745 -2.99553 0
M  V30 5563 N 552.809 0.956637 -1.25245 0
M  V30 5564 C 554.055 1.70352 -1.10036 0
M  V30 5565 C 554.388 1.90869 0.358156 0
M  V30 5566 O 553.663 1.47819 1.26411 0
M  V30 5567 C 553.946 3.08766 -1.85298 0
M  V30 5568 C 553.799 2.95672 -3.38966 0
M  V30 5569 C 555.118 4.08622 -1.63451 0
M  V30 5570 H 552.237 0.618279 -0.401123 0
M  V30 5571 H 554.879 1.11212 -1.54051 0
M  V30 5572 H 553.029 3.59252 -1.47887 0
M  V30 5573 H 554.701 2.52527 -3.86041 0
M  V30 5574 H 552.944 2.31634 -3.6678 0
M  V30 5575 H 553.615 3.93776 -3.86839 0
M  V30 5576 H 556.091 3.67038 -1.96015 0
M  V30 5577 H 554.967 5.03514 -2.18551 0
M  V30 5578 H 555.228 4.3834 -0.575357 0
M  V30 5579 N 554.287 1.06798 1.15896 0
M  V30 5580 C 555.698 0.811355 1.68149 0
M  V30 5581 C 556.049 -0.664339 1.8461 0
M  V30 5582 O 555.174 -1.51485 1.54535 0
M  V30 5583 C 555.769 1.46624 3.05429 0
M  V30 5584 C 554.328 1.25726 3.54781 0
M  V30 5585 C 553.475 1.53949 2.3064 0
M  V30 5586 H 556.426 1.23078 1.00187 0
M  V30 5587 H 556.447 0.88437 3.7008 0
M  V30 5588 H 555.959 2.54025 2.93416 0
M  V30 5589 H 554.06 0.20322 3.72045 0
M  V30 5590 H 554.173 1.97354 4.36564 0
M  V30 5591 H 552.537 0.96025 2.35905 0
M  V30 5592 H 553.32 2.6252 2.2122 0
M  V30 5593 N 555.766 -1.3263 0.851289 0
M  V30 5594 C 557.012 -1.9766 0.453694 0
M  V30 5595 C 557.345 -1.67225 -0.987396 0
M  V30 5596 O 556.62 -0.958693 -1.69232 0
M  V30 5597 C 556.903 -3.5344 0.68936 0
M  V30 5598 C 556.756 -3.93517 2.17862 0
M  V30 5599 C 558.075 -4.39866 0.143555 0
M  V30 5600 H 555.194 -0.717989 0.166314 0
M  V30 5601 H 557.836 -1.57068 1.06909 0
M  V30 5602 H 555.986 -3.88147 0.165546 0
M  V30 5603 H 557.658 -3.69006 2.76826 0
M  V30 5604 H 555.901 -3.42798 2.65841 0
M  V30 5605 H 556.572 -5.02065 2.29422 0
M  V30 5606 H 559.048 -4.11875 0.591451 0
M  V30 5607 H 557.924 -5.47858 0.338043 0
M  V30 5608 H 558.185 -4.31696 -0.953466 0
M  V30 5609 N 557.244 -0.608902 -1.45362 0
M  V30 5610 C 558.174 0.0964526 -2.33301 0
M  V30 5611 C 559.155 0.857444 -1.46908 0
M  V30 5612 O 560.34 0.827735 -1.75676 0
M  V30 5613 C 557.47 1.09354 -3.29635 0
M  V30 5614 C 556.424 0.445676 -4.25673 0
M  V30 5615 C 555.75 1.5511 -5.11708 0
M  V30 5616 C 557.05 -0.633972 -5.18438 0
M  V30 5617 H 558.744 -0.637829 -2.92527 0
M  V30 5618 H 556.29 -0.308178 -1.40664 0
M  V30 5619 H 558.243 1.59556 -3.90025 0
M  V30 5620 H 556.967 1.85843 -2.6857 0
M  V30 5621 H 555.626 -0.0354897 -3.66583 0
M  V30 5622 H 555.274 2.30631 -4.4701 0
M  V30 5623 H 554.974 1.12311 -5.76767 0
M  V30 5624 H 556.498 2.05537 -5.74967 0
M  V30 5625 H 557.912 -0.215974 -5.72893 0
M  V30 5626 H 556.309 -0.983789 -5.91981 0
M  V30 5627 H 557.379 -1.51005 -4.60788 0
M  V30 5628 N 558.722 1.53707 -0.348139 0
M  V30 5629 C 559.669 2.25173 0.506518 0
M  V30 5630 C 560.639 1.25174 1.09182 0
M  V30 5631 O 561.824 1.53917 1.12757 0
M  V30 5632 C 558.964 3.03141 1.64923 0
M  V30 5633 C 558.077 4.18002 1.0908 0
M  V30 5634 C 557.212 4.83447 2.20119 0
M  V30 5635 C 556.251 5.90369 1.61651 0
M  V30 5636 N 555.388 6.49575 2.66451 0
M  V30 5637 H 560.228 2.97799 -0.109452 0
M  V30 5638 H 557.765 1.46953 -0.0657866 0
M  V30 5639 H 559.723 3.46607 2.32205 0
M  V30 5640 H 558.353 2.32803 2.23612 0
M  V30 5641 H 557.405 3.79145 0.308783 0
M  V30 5642 H 558.717 4.94892 0.623178 0
M  V30 5643 H 557.871 5.30008 2.95257 0
M  V30 5644 H 556.61 4.05991 2.70227 0
M  V30 5645 H 555.615 5.43186 0.850209 0
M  V30 5646 H 556.84 6.69735 1.1239 0
M  V30 5647 H 554.786 5.74981 3.15805 0
M  V30 5648 H 554.703 7.21952 2.24325 0
M  V30 5649 H 555.971 7.00789 3.41344 0
M  V30 5650 N 560.2 0.0768682 1.57412 0
M  V30 5651 C 561.446 -0.591961 1.93968 0
M  V30 5652 C 561.779 -1.68954 0.9575 0
M  V30 5653 O 561.054 -1.94496 -0.0124675 0
M  V30 5654 C 561.337 -1.16418 3.40762 0
M  V30 5655 C 561.19 -0.0728933 4.49741 0
M  V30 5656 C 562.509 -2.06814 3.88479 0
M  V30 5657 H 559.628 -0.213716 0.705333 0
M  V30 5658 H 562.27 0.14387 1.89455 0
M  V30 5659 H 560.42 -1.79128 3.4474 0
M  V30 5660 H 562.092 0.560446 4.57883 0
M  V30 5661 H 560.335 0.595859 4.29688 0
M  V30 5662 H 561.006 -0.513755 5.49604 0
M  V30 5663 H 563.482 -1.54033 3.8654 0
M  V30 5664 H 562.358 -2.43785 4.91793 0
M  V30 5665 H 562.619 -2.97844 3.26713 0
M  V30 5666 N 561.678 -1.56367 -0.196722 0
M  V30 5667 C 562.926 -1.80172 -0.915554 0
M  V30 5668 C 563.247 -0.649649 -1.8386 0
M  V30 5669 O 562.517 0.332111 -1.93064 0
M  V30 5670 H 561.097 -0.664592 -0.341067 0
M  V30 5671 H 563.759 -1.93844 -0.202622 0
M  V30 5672 H 562.855 -2.7327 -1.50764 0
M  V30 5673 N 563.156 0.464375 -1.50603 0
M  V30 5674 C 564.404 1.21356 -1.61608 0
M  V30 5675 C 564.725 1.92329 -0.321643 0
M  V30 5676 O 563.995 1.84403 0.661232 0
M  V30 5677 H 562.575 0.45094 -0.595535 0
M  V30 5678 H 565.237 0.535046 -1.87412 0
M  V30 5679 H 564.333 1.95783 -2.43054 0
M  V30 5680 N 564.634 1.40294 0.718013 0
M  V30 5681 C 565.564 1.43118 1.84498 0
M  V30 5682 C 566.545 0.292403 1.67568 0
M  V30 5683 O 567.73 0.500675 1.87635 0
M  V30 5684 C 564.86 1.29065 3.22427 0
M  V30 5685 C 563.814 2.40521 3.54025 0
M  V30 5686 C 563.14 2.11546 4.91073 0
M  V30 5687 C 564.44 3.82859 3.55269 0
M  V30 5688 H 566.134 2.37432 1.82391 0
M  V30 5689 H 563.68 1.14283 0.87609 0
M  V30 5690 H 565.633 1.29658 4.00957 0
M  V30 5691 H 564.357 0.312271 3.25104 0
M  V30 5692 H 563.016 2.39173 2.77834 0
M  V30 5693 H 562.664 1.12104 4.90348 0
M  V30 5694 H 562.364 2.86216 5.1318 0
M  V30 5695 H 563.888 2.13817 5.71939 0
M  V30 5696 H 565.302 3.86044 4.23843 0
M  V30 5697 H 563.699 4.57029 3.88902 0
M  V30 5698 H 564.769 4.12617 2.54706 0
M  V30 5699 N 566.112 -0.949982 1.2575 0
M  V30 5700 C 567.523 -1.50989 1.09815 0
M  V30 5701 C 567.874 -1.93497 -0.324556 0
M  V30 5702 O 566.999 -1.79068 -1.21506 0
M  V30 5703 C 567.594 -2.74394 1.98729 0
M  V30 5704 C 566.153 -3.26682 1.86965 0
M  V30 5705 C 565.3 -1.99498 1.92603 0
M  V30 5706 H 568.251 -0.766387 1.38968 0
M  V30 5707 H 568.272 -3.48383 1.53001 0
M  V30 5708 H 567.784 -2.43425 3.02268 0
M  V30 5709 H 565.885 -3.62461 0.863279 0
M  V30 5710 H 565.998 -3.94383 2.72027 0
M  V30 5711 H 564.362 -2.15005 1.36546 0
M  V30 5712 H 565.145 -1.70871 2.97755 0
M  V30 5713 N 567.59 -1.07411 -1.15328 0
M  V30 5714 C 568.839 -0.792643 -1.85473 0
M  V30 5715 C 569.152 0.683789 -1.83259 0
M  V30 5716 O 570.358 1.08005 -2.49093 0
M  V30 5717 C 568.814 -1.36787 -3.32892 0
M  V30 5718 C 568.422 -2.87536 -3.43551 0
M  V30 5719 C 570.166 -1.16444 -4.08217 0
M  V30 5720 C 568.073 -3.38247 -4.85122 0
M  V30 5721 H 567.003 -0.292838 -0.694811 0
M  V30 5722 H 569.654 -1.29426 -1.30082 0
M  V30 5723 H 568.036 -0.793993 -3.87958 0
M  V30 5724 H 569.21 -3.50973 -2.98588 0
M  V30 5725 H 567.525 -3.06676 -2.81672 0
M  V30 5726 H 570.122 -1.51808 -5.12697 0
M  V30 5727 H 570.465 -0.10353 -4.16171 0
M  V30 5728 H 570.998 -1.70472 -3.59422 0
M  V30 5729 H 567.737 -4.43866 -4.82351 0
M  V30 5730 H 567.257 -2.79564 -5.30664 0
M  V30 5731 H 568.936 -3.34238 -5.5398 0
M  V30 5732 N 569.068 1.32177 -0.85831 0
M  V30 5733 C 570.316 1.96735 -0.462568 0
M  V30 5734 C 570.637 1.6824 0.985911 0
M  V30 5735 O 569.907 0.991564 1.68952 0
M  V30 5736 H 568.487 0.727849 -0.168064 0
M  V30 5737 H 571.149 1.61195 -1.09554 0
M  V30 5738 H 570.245 3.06068 -0.610647 0
M  V30 5739 N 570.547 0.616602 1.45037 0
M  V30 5740 C 571.793 0.115501 2.02471 0
M  V30 5741 C 572.126 -1.25406 1.4828 0
M  V30 5742 O 571.401 -1.82922 0.661051 0
M  V30 5743 C 571.684 0.0863588 3.59996 0
M  V30 5744 C 571.537 1.48723 4.24501 0
M  V30 5745 C 572.856 -0.596762 4.36035 0
M  V30 5746 H 569.975 0.0434461 0.735718 0
M  V30 5747 H 572.617 0.7903 1.72784 0
M  V30 5748 H 570.767 -0.488277 3.85419 0
M  V30 5749 H 572.439 2.10964 4.10234 0
M  V30 5750 H 570.682 2.04534 3.82555 0
M  V30 5751 H 571.353 1.419 5.3345 0
M  V30 5752 H 573.829 -0.10824 4.15959 0
M  V30 5753 H 572.705 -0.586289 5.4576 0
M  V30 5754 H 572.966 -1.66451 4.09569 0
M  V30 5755 N 572.025 -1.5352 0.356285 0
M  V30 5756 C 572.957 -2.23009 -0.529127 0
M  V30 5757 C 573.97 -1.241 -1.05371 0
M  V30 5758 O 575.159 -1.50379 -0.961679 0
M  V30 5759 C 572.259 -2.90685 -1.74229 0
M  V30 5760 C 571.432 -4.16019 -1.35081 0
M  V30 5761 C 570.491 -4.66989 -2.42502 0
M  V30 5762 O 569.517 -5.30895 -2.05279 0
M  V30 5763 N 570.719 -4.44006 -3.7395 0
M  V30 5764 H 573.484 -2.99627 0.0660501 0
M  V30 5765 H 571.045 -1.60885 0.181014 0
M  V30 5766 H 573.037 -3.21695 -2.4555 0
M  V30 5767 H 571.607 -2.17575 -2.24454 0
M  V30 5768 H 570.827 -3.91414 -0.467833 0
M  V30 5769 H 572.115 -4.9752 -1.06542 0
M  V30 5770 H 571.513 -3.92924 -4.06973 0
M  V30 5771 H 570.07 -4.7959 -4.41403 0
M  V30 5772 N 573.503 -0.0852151 -1.57369 0
M  V30 5773 C 574.749 0.581666 -1.94279 0
M  V30 5774 C 575.082 1.68444 -0.966446 0
M  V30 5775 O 574.357 1.945 0.00215277 0
M  V30 5776 C 574.64 1.14609 -3.41375 0
M  V30 5777 C 574.493 0.0490414 -4.49773 0
M  V30 5778 C 575.812 2.04751 -3.8957 0
M  V30 5779 H 572.931 0.209972 -0.706456 0
M  V30 5780 H 575.573 -0.153915 -1.89376 0
M  V30 5781 H 573.723 1.77297 -3.45685 0
M  V30 5782 H 575.395 -0.584721 -4.57579 0
M  V30 5783 H 573.638 -0.618638 -4.29366 0
M  V30 5784 H 574.309 0.484601 -5.49869 0
M  V30 5785 H 576.785 1.51981 -3.87351 0
M  V30 5786 H 575.661 2.41173 -4.93079 0
M  V30 5787 H 575.922 2.96107 -3.28288 0
M  V30 5788 N 574.981 1.5647 0.188427 0
M  V30 5789 C 576.23 1.80207 0.905995 0
M  V30 5790 C 576.543 0.659579 1.84144 0
M  V30 5791 O 577.749 0.781431 2.60011 0
M  V30 5792 C 576.205 3.19255 1.66145 0
M  V30 5793 C 575.813 4.41324 0.770504 0
M  V30 5794 C 577.557 3.52298 2.36826 0
M  V30 5795 C 575.464 5.71394 1.52521 0
M  V30 5796 H 574.394 0.671953 0.342045 0
M  V30 5797 H 577.045 1.82808 0.159164 0
M  V30 5798 H 575.427 3.10922 2.45242 0
M  V30 5799 H 576.601 4.60797 0.0177261 0
M  V30 5800 H 574.916 4.16035 0.174199 0
M  V30 5801 H 577.513 4.46715 2.93854 0
M  V30 5802 H 577.856 2.76359 3.11338 0
M  V30 5803 H 578.389 3.62108 1.6469 0
M  V30 5804 H 575.128 6.50316 0.82275 0
M  V30 5805 H 574.648 5.55928 2.25175 0
M  V30 5806 H 576.327 6.12747 2.07725 0
M  V30 5807 N 576.459 -0.456382 1.50847 0
M  V30 5808 C 577.422 -1.53493 1.70213 0
M  V30 5809 C 578.422 -1.50264 0.572481 0
M  V30 5810 O 579.612 -1.52623 0.839751 0
M  V30 5811 C 576.744 -2.93091 1.741 0
M  V30 5812 H 577.937 -1.37633 2.66453 0
M  V30 5813 H 575.49 -0.683776 1.4055 0
M  V30 5814 H 576.225 -3.14378 0.796063 0
M  V30 5815 H 576.01 -2.9684 2.5618 0
M  V30 5816 H 577.5 -3.71368 1.90987 0
M  V30 5817 N 577.937 -1.40673 -0.710563 0
M  V30 5818 C 579.353 -1.22813 -1.01928 0
M  V30 5819 C 579.553 -0.10687 -2.01216 0
M  V30 5820 O 578.609 0.533614 -2.46797 0
M  V30 5821 C 579.922 -2.57178 -1.5582 0
M  V30 5822 C 581.47 -2.64233 -1.67779 0
M  V30 5823 C 581.945 -3.98879 -2.25076 0
M  V30 5824 N 583.436 -4.00647 -2.32456 0
M  V30 5825 C 584.171 -5.01621 -2.77784 0
M  V30 5826 N 583.667 -6.12989 -3.22826 0
M  V30 5827 N 585.46 -4.88988 -2.77213 0
M  V30 5828 H 577.611 -2.12335 -0.05253 0
M  V30 5829 H 579.874 -0.9441 -0.085898 0
M  V30 5830 H 579.58 -3.39903 -0.903249 0
M  V30 5831 H 579.454 -2.78618 -2.54267 0
M  V30 5832 H 581.841 -1.81876 -2.3239 0
M  V30 5833 H 581.922 -2.46619 -0.679178 0
M  V30 5834 H 581.566 -4.81678 -1.61086 0
M  V30 5835 H 581.496 -4.13826 -3.25661 0
M  V30 5836 H 583.987 -3.20231 -2.0065 0
M  V30 5837 H 584.3 -6.85921 -3.55995 0
M  V30 5838 H 582.645 -6.16547 -3.20773 0
M  V30 5839 H 585.836 -4.01075 -2.41363 0
M  V30 5840 H 586.009 -5.67822 -3.12221 0
M  V30 5841 N 579.415 0.9433 -1.26252 0
M  V30 5842 C 580.662 1.68925 -1.11672 0
M  V30 5843 C 580.99 1.91499 0.340329 0
M  V30 5844 O 580.245 1.49189 1.26653 0
M  V30 5845 C 580.544 3.07073 -1.82868 0
M  V30 5846 C 580.21 3.04262 -3.32769 0
M  V30 5847 C 578.872 3.03203 -3.7366 0
M  V30 5848 C 581.224 2.96729 -4.28487 0
M  V30 5849 C 578.552 2.92373 -5.0866 0
M  V30 5850 C 580.904 2.87442 -5.63525 0
M  V30 5851 C 579.568 2.84724 -6.03729 0
M  V30 5852 H 578.838 0.618141 -0.408635 0
M  V30 5853 H 581.485 1.10124 -1.56668 0
M  V30 5854 H 579.79 3.69486 -1.30335 0
M  V30 5855 H 581.487 3.63635 -1.69029 0
M  V30 5856 H 578.077 3.05865 -3.00241 0
M  V30 5857 H 582.261 2.96658 -3.97879 0
M  V30 5858 H 577.517 2.88645 -5.38975 0
M  V30 5859 H 581.691 2.80576 -6.37377 0
M  V30 5860 H 579.318 2.76089 -7.08293 0
M  V30 5861 N 580.893 1.08022 1.14757 0
M  V30 5862 C 582.141 0.805913 1.85336 0
M  V30 5863 C 582.462 -0.670162 1.83122 0
M  V30 5864 O 581.732 -1.48567 1.2769 0
M  V30 5865 H 580.312 0.295138 0.686223 0
M  V30 5866 H 582.974 1.36538 1.3908 0
M  V30 5867 H 582.07 1.14655 2.90277 0
M  V30 5868 N 582.371 -1.3172 0.865308 0
M  V30 5869 C 583.319 -2.30569 0.306674 0
M  V30 5870 C 584.313 -1.59317 -0.575724 0
M  V30 5871 O 585.519 -1.73961 -0.462343 0
M  V30 5872 H 581.894 -0.747681 0.0804834 0
M  V30 5873 H 583.865 -2.75165 1.15441 0
M  V30 5874 C 582.614 -3.44358 -0.480952 0
M  V30 5875 H 581.937 -3.99354 0.18876 0
M  V30 5876 H 583.377 -4.15652 -0.837241 0
M  V30 5877 C 581.836 -2.92574 -1.67039 0
M  V30 5878 O 582.366 -2.90954 -2.76964 0
M  V30 5879 N 580.572 -2.48835 -1.50097 0
M  V30 5880 H 580.119 -2.50353 -0.606738 0
M  V30 5881 H 580.077 -2.14543 -2.29823 0
M  V30 5882 N 583.85 -0.624285 -1.44708 0
M  V30 5883 C 585.127 -0.0572781 -1.95516 0
M  V30 5884 C 585.507 1.41516 -1.56641 0
M  V30 5885 O 584.855 2.12614 -0.837111 0
M  V30 5886 C 585.065 -0.272944 -3.47931 0
M  V30 5887 C 586.413 -0.162529 -4.24289 0
M  V30 5888 O 587.437 -0.203946 -3.55616 0
M  V30 5889 O 586.296 -0.0616847 -5.46465 0
M  V30 5890 H 583.389 0.0262219 -0.826584 0
M  V30 5891 H 585.936 -0.695512 -1.54793 0
M  V30 5892 H 584.707 -1.29492 -3.69253 0
M  V30 5893 H 584.331 0.399756 -3.95585 0
M  V30 5894 N 585.328 1.53329 -0.364422 0
M  V30 5895 C 586.291 2.24323 0.470292 0
M  V30 5896 C 587.291 1.25068 1.01067 0
M  V30 5897 O 588.481 1.49354 0.896605 0
M  V30 5898 C 585.613 2.97908 1.65722 0
M  V30 5899 H 586.806 2.9952 -0.150917 0
M  V30 5900 H 584.359 1.55868 -0.116092 0
M  V30 5901 H 585.094 2.2695 2.31655 0
M  V30 5902 H 584.879 3.70732 1.27671 0
M  V30 5903 H 586.369 3.5188 2.24878 0
M  V30 5904 N 586.806 0.0935595 1.57322 0
M  V30 5905 C 587.756 -0.876521 2.10478 0
M  V30 5906 C 588.74 -1.24482 1.01946 0
M  V30 5907 O 589.932 -1.22016 1.28223 0
M  V30 5908 C 587.061 -2.13615 2.68745 0
M  V30 5909 C 586.147 -1.79335 3.84317 0
M  V30 5910 N 586.538 -1.15606 4.92411 0
M  V30 5911 C 584.836 -2.08954 3.94023 0
M  V30 5912 C 585.537 -0.999036 5.73057 0
M  V30 5913 N 584.513 -1.51585 5.22037 0
M  V30 5914 H 588.315 -0.379829 2.91435 0
M  V30 5915 H 585.829 -0.109699 1.62029 0
M  V30 5916 H 587.826 -2.84053 3.05155 0
M  V30 5917 H 586.486 -2.63851 1.89242 0
M  V30 5918 H 587.497 -0.823063 5.11318 0
M  V30 5919 H 584.174 -2.61416 3.25527 0
M  V30 5920 H 585.564 -0.500772 6.70031 0
M  V30 5921 N 588.284 -1.56567 -0.180126 0
M  V30 5922 C 589.247 -1.94852 -1.20686 0
M  V30 5923 C 590.247 -0.831212 -1.3765 0
M  V30 5924 O 591.437 -1.09841 -1.35206 0
M  V30 5925 C 588.569 -2.23565 -2.57355 0
M  V30 5926 H 589.762 -2.86722 -0.879225 0
M  V30 5927 H 587.315 -1.50489 -0.422237 0
M  V30 5928 H 588.05 -1.34381 -2.95148 0
M  V30 5929 H 587.835 -3.04999 -2.46411 0
M  V30 5930 H 589.325 -2.54137 -3.31367 0
M  V30 5931 N 589.762 0.448376 -1.51087 0
M  V30 5932 C 590.692 1.55102 -1.74544 0
M  V30 5933 C 591.673 1.59357 -0.594932 0
M  V30 5934 O 592.858 1.75261 -0.836491 0
M  V30 5935 C 589.988 2.93268 -1.86041 0
M  V30 5936 C 588.942 3.03877 -3.01402 0
M  V30 5937 C 588.268 4.43914 -2.98068 0
M  V30 5938 C 589.568 2.7898 -4.41551 0
M  V30 5939 H 591.262 1.35724 -2.66869 0
M  V30 5940 H 588.808 0.651498 -1.28419 0
M  V30 5941 H 590.761 3.70356 -2.01034 0
M  V30 5942 H 589.485 3.13853 -0.903548 0
M  V30 5943 H 588.144 2.29227 -2.86096 0
M  V30 5944 H 587.792 4.6145 -2.00182 0
M  V30 5945 H 587.492 4.51944 -3.75527 0
M  V30 5946 H 589.016 5.22991 -3.1514 0
M  V30 5947 H 590.43 3.45805 -4.57265 0
M  V30 5948 H 588.827 2.98431 -5.20633 0
M  V30 5949 H 589.897 1.74663 -4.5235 0
M  V30 5950 N 591.24 1.41047 0.703093 0
M  V30 5951 C 592.203 1.42036 1.79884 0
M  V30 5952 C 593.203 0.312153 1.57741 0
M  V30 5953 O 594.393 0.571672 1.64553 0
M  V30 5954 C 591.525 1.22437 3.18154 0
M  V30 5955 H 592.718 2.39572 1.80403 0
M  V30 5956 H 590.271 1.27079 0.909977 0
M  V30 5957 H 591.006 0.257112 3.23279 0
M  V30 5958 H 590.791 2.02723 3.35627 0
M  V30 5959 H 592.281 1.25946 3.98155 0
M  V30 5960 N 592.718 -0.936591 1.26751 0
M  V30 5961 C 593.946 -1.71758 1.15355 0
M  V30 5962 C 594.361 -1.86549 -0.290683 0
M  V30 5963 O 593.718 -1.37616 -1.19868 0
M  V30 5964 C 593.769 -3.12193 1.82258 0
M  V30 5965 O 593.49 -2.98105 3.21038 0
M  V30 5966 C 594.991 -4.06485 1.76875 0
M  V30 5967 H 592.211 -0.537636 0.401483 0
M  V30 5968 H 594.755 -1.17382 1.67457 0
M  V30 5969 H 592.91 -3.63456 1.34083 0
M  V30 5970 H 593.324 -3.86824 3.54214 0
M  V30 5971 H 594.798 -5.02569 2.28316 0
M  V30 5972 H 595.275 -4.32986 0.736216 0
M  V30 5973 H 595.881 -3.61144 2.24623 0
M  V30 5974 N 594.196 -1.08629 -1.14182 0
M  V30 5975 C 595.159 -0.722027 -2.1753 0
M  V30 5976 C 596.159 0.244305 -1.58933 0
M  V30 5977 O 597.349 0.0235545 -1.74184 0
M  V30 5978 C 594.481 -0.0663966 -3.40835 0
M  V30 5979 H 595.674 -1.63719 -2.51269 0
M  V30 5980 H 593.227 -0.884442 -1.28869 0
M  V30 5981 H 593.962 0.860389 -3.12678 0
M  V30 5982 H 593.747 -0.761598 -3.84632 0
M  V30 5983 H 595.237 0.173346 -4.1724 0
M  V30 5984 N 595.674 1.31259 -0.872281 0
M  V30 5985 C 596.92 1.973 -0.494414 0
M  V30 5986 C 597.275 1.67684 0.94339 0
M  V30 5987 O 596.568 0.964186 1.65572 0
M  V30 5988 C 596.762 3.50659 -0.690889 0
M  V30 5989 C 596.591 3.95179 -2.14624 0
M  V30 5990 C 595.361 4.21405 -2.7883 0
M  V30 5991 C 597.559 4.08948 -3.11875 0
M  V30 5992 N 595.541 4.52295 -4.15093 0
M  V30 5993 C 596.912 4.43576 -4.33174 0
M  V30 5994 C 598.967 3.91334 -3.07835 0
M  V30 5995 C 597.67 4.62429 -5.50956 0
M  V30 5996 C 599.696 4.11381 -4.24876 0
M  V30 5997 C 599.058 4.46343 -5.44938 0
M  V30 5998 H 595.157 0.747411 -0.230002 0
M  V30 5999 H 597.741 1.58741 -1.12736 0
M  V30 6000 H 595.912 3.88301 -0.0875162 0
M  V30 6001 H 597.644 4.03722 -0.281179 0
M  V30 6002 H 594.399 4.14131 -2.29767 0
M  V30 6003 H 594.823 4.71897 -4.8543 0
M  V30 6004 H 599.465 3.6339 -2.16119 0
M  V30 6005 H 597.183 4.8922 -6.43187 0
M  V30 6006 H 600.769 3.99235 -4.23205 0
M  V30 6007 H 599.649 4.6154 -6.33996 0
M  V30 6008 N 597.152 0.631951 1.44375 0
M  V30 6009 C 598.399 0.136767 2.02038 0
M  V30 6010 C 598.727 -1.24168 1.49709 0
M  V30 6011 O 597.982 -1.83809 0.671763 0
M  V30 6012 C 598.281 0.0735861 3.57324 0
M  V30 6013 C 597.947 1.39092 4.28911 0
M  V30 6014 C 596.609 1.75171 4.48184 0
M  V30 6015 C 598.961 2.26042 4.69632 0
M  V30 6016 C 596.289 2.97907 5.05439 0
M  V30 6017 C 598.641 3.4805 5.28246 0
M  V30 6018 C 597.305 3.84351 5.45738 0
M  V30 6019 H 596.575 0.0500466 0.739308 0
M  V30 6020 H 599.222 0.818429 1.7313 0
M  V30 6021 H 597.527 -0.691449 3.8565 0
M  V30 6022 H 599.224 -0.326091 3.99672 0
M  V30 6023 H 595.814 1.10015 4.1424 0
M  V30 6024 H 599.998 1.99463 4.54454 0
M  V30 6025 H 595.254 3.26108 5.17169 0
M  V30 6026 H 599.428 4.15658 5.5875 0
M  V30 6027 H 597.055 4.79538 5.8987 0
M  V30 6028 N 598.631 -1.53133 0.372548 0
M  V30 6029 C 599.561 -2.28876 -0.462412 0
M  V30 6030 C 600.542 -1.31583 -1.07796 0
M  V30 6031 O 601.727 -1.60461 -1.09389 0
M  V30 6032 C 598.857 -3.08317 -1.59868 0
M  V30 6033 C 597.811 -4.13355 -1.11003 0
M  V30 6034 C 597.137 -4.8092 -2.33708 0
M  V30 6035 C 598.437 -5.21955 -0.18983 0
M  V30 6036 H 600.131 -2.9892 0.169511 0
M  V30 6037 H 597.677 -1.43761 0.0829658 0
M  V30 6038 H 599.63 -3.60055 -2.18949 0
M  V30 6039 H 598.354 -2.35976 -2.25794 0
M  V30 6040 H 597.013 -3.62573 -0.541869 0
M  V30 6041 H 596.661 -4.05144 -2.98106 0
M  V30 6042 H 596.361 -5.51904 -2.01682 0
M  V30 6043 H 597.885 -5.35455 -2.93462 0
M  V30 6044 H 599.299 -5.69153 -0.688319 0
M  V30 6045 H 597.696 -6.00087 0.0398887 0
M  V30 6046 H 598.766 -4.78811 0.766057 0
M  V30 6047 N 600.109 -0.101901 -1.5727 0
M  V30 6048 C 601.019 0.868647 -2.17926 0
M  V30 6049 C 602.035 1.30527 -1.1506 0
M  V30 6050 O 603.211 1.37178 -1.47459 0
M  V30 6051 C 600.276 2.10727 -2.75309 0
M  V30 6052 C 599.337 1.7242 -3.93154 0
M  V30 6053 C 598.57 2.90377 -4.47791 0
M  V30 6054 O 598.793 4.05305 -4.01353 0
M  V30 6055 O 597.727 2.6845 -5.38719 0
M  V30 6056 H 601.553 0.382544 -3.01281 0
M  V30 6057 H 599.138 0.122812 -1.48894 0
M  V30 6058 H 601.02 2.83303 -3.11958 0
M  V30 6059 H 599.695 2.58376 -1.94996 0
M  V30 6060 H 598.602 0.970039 -3.61305 0
M  V30 6061 H 599.935 1.29528 -4.74851 0
M  V30 6062 N 601.587 1.56661 0.17182 0
M  V30 6063 C 602.864 1.72838 0.915778 0
M  V30 6064 C 603.244 0.66316 2.00413 0
M  V30 6065 O 602.592 -0.322123 2.26218 0
M  V30 6066 C 602.802 3.16019 1.48097 0
M  V30 6067 C 604.15 3.76962 1.95408 0
M  V30 6068 O 605.174 3.19294 1.57892 0
M  V30 6069 O 604.033 4.78219 2.64516 0
M  V30 6070 H 601.127 0.705797 0.431021 0
M  V30 6071 H 603.673 1.68947 0.159689 0
M  V30 6072 H 602.445 3.85031 0.697618 0
M  V30 6073 H 602.068 3.24234 2.30126 0
M  V30 6074 N 603.065 -0.440357 1.51323 0
M  V30 6075 C 604.028 -1.51679 1.71832 0
M  V30 6076 C 605.028 -1.49648 0.588386 0
M  V30 6077 O 606.218 -1.51724 0.855891 0
M  V30 6078 C 603.35 -2.91228 1.77199 0
M  V30 6079 H 604.543 -1.34799 2.67898 0
M  V30 6080 H 602.096 -0.66883 1.41267 0
M  V30 6081 H 602.831 -3.13516 0.829363 0
M  V30 6082 H 602.616 -2.94107 2.59314 0
M  V30 6083 H 604.106 -3.69321 1.94915 0
M  V30 6084 N 604.543 -1.41418 -0.695603 0
M  V30 6085 C 605.473 -1.46035 -1.82197 0
M  V30 6086 C 606.454 -0.319025 -1.67082 0
M  V30 6087 O 607.639 -0.530462 -1.86815 0
M  V30 6088 C 604.769 -1.34179 -3.20333 0
M  V30 6089 C 603.723 -2.46123 -3.50154 0
M  V30 6090 C 603.049 -2.19332 -4.87645 0
M  V30 6091 C 604.349 -3.88463 -3.49133 0
M  V30 6092 H 606.043 -2.40303 -1.78591 0
M  V30 6093 H 603.589 -1.15663 -0.857797 0
M  V30 6094 H 605.542 -1.36021 -3.98844 0
M  V30 6095 H 604.266 -0.363952 -3.24566 0
M  V30 6096 H 602.925 -2.43563 -2.73994 0
M  V30 6097 H 602.573 -1.19891 -4.88503 0
M  V30 6098 H 602.273 -2.94344 -5.08562 0
M  V30 6099 H 603.797 -2.22889 -5.68465 0
M  V30 6100 H 605.211 -3.92738 -4.17648 0
M  V30 6101 H 603.608 -4.63158 -3.81582 0
M  V30 6102 H 604.678 -4.16617 -2.48109 0
M  V30 6103 N 606.021 0.929856 -1.27246 0
M  V30 6104 C 606.984 2.01172 -1.09829 0
M  V30 6105 C 607.984 1.60743 -0.0429687 0
M  V30 6106 O 609.174 1.71813 -0.287373 0
M  V30 6107 C 606.306 3.34191 -0.673003 0
M  V30 6108 H 607.499 2.18054 -2.05895 0
M  V30 6109 H 605.052 1.11036 -1.10003 0
M  V30 6110 H 605.787 3.23009 0.289134 0
M  V30 6111 H 605.572 3.64892 -1.43515 0
M  V30 6112 H 607.062 4.13646 -0.573323 0
M  V30 6113 N 607.499 1.09233 1.13605 0
M  V30 6114 C 608.446 0.729921 2.18954 0
M  V30 6115 C 609.416 -0.287916 1.63586 0
M  V30 6116 O 610.601 -0.170003 1.90041 0
M  V30 6117 C 607.741 0.154489 3.44754 0
M  V30 6118 C 606.854 1.22613 4.14234 0
M  V30 6119 C 605.989 0.613657 5.27644 0
M  V30 6120 C 605.028 1.66674 5.8897 0
M  V30 6121 N 604.165 1.07545 6.93814 0
M  V30 6122 H 609.005 1.63257 2.49302 0
M  V30 6123 H 606.542 0.815693 1.22413 0
M  V30 6124 H 608.5 -0.196923 4.16735 0
M  V30 6125 H 607.13 -0.711433 3.14863 0
M  V30 6126 H 606.182 1.69485 3.40557 0
M  V30 6127 H 607.494 2.0238 4.55899 0
M  V30 6128 H 606.648 0.210976 6.06333 0
M  V30 6129 H 605.387 -0.215584 4.87223 0
M  V30 6130 H 604.392 2.07899 5.08978 0
M  V30 6131 H 605.617 2.49861 6.31464 0
M  V30 6132 H 603.563 0.267451 6.55455 0
M  V30 6133 H 603.48 1.81011 7.3401 0
M  V30 6134 H 604.748 0.698906 7.7636 0
M  V30 6135 N 608.977 -1.30795 0.87923 0
M  V30 6136 C 610.202 -2.01063 0.508769 0
M  V30 6137 C 610.627 -1.65508 -0.893803 0
M  V30 6138 O 609.985 -0.868616 -1.59138 0
M  V30 6139 C 610.033 -3.54054 0.683991 0
M  V30 6140 O 609.137 -4.11498 -0.272654 0
M  V30 6141 H 608.478 -0.632786 0.201191 0
M  V30 6142 H 611.008 -1.66776 1.18519 0
M  V30 6143 H 611.018 -4.03845 0.580798 0
M  V30 6144 H 609.693 -3.79271 1.70665 0
M  V30 6145 H 608.27 -3.72695 -0.12364 0
M  V30 6146 N 610.455 -0.639598 -1.44038 0
M  V30 6147 C 611.703 -0.147188 -2.01563 0
M  V30 6148 C 612.024 1.2384 -1.50628 0
M  V30 6149 O 611.294 1.82452 -0.713316 0
M  V30 6150 H 609.874 -0.0514231 -0.745228 0
M  V30 6151 H 612.536 -0.828205 -1.76428 0
M  V30 6152 H 611.632 -0.121358 -3.11864 0
M  V30 6153 O 611.972 1.52802 -0.522856 0
M  V30 6154 H 612.663 1.93697 -0.0110221 0
M  V30 END ATOM
M  V30 BEGIN BOND
M  V30 END BOND
M  V30 END CTAB
M  END
$$$$
