drugbank_target|Q9ZLT0 Glutamate racemase (DB08698)
 OpenBabel12092120523D

  0  0  0     0  0            999 V3000
M  V30 BEGIN CTAB
M  V30 COUNTS 4067 4115 0 0 0
M  V30 BEGIN ATOM
M  V30 1 H -0.908 1.98254 -0.117106 0
M  V30 2 N 0 1.576 0 0
M  V30 3 C 0.933 2.03868 1.02534 0
M  V30 4 C 1.911 0.928543 1.3348 0
M  V30 5 O 3.095 1.19667 1.45644 0
M  V30 6 C 0.222 2.43627 2.35294 0
M  V30 7 C -0.732 3.65373 2.2001 0
M  V30 8 S 0.101 5.13292 1.52614 0
M  V30 9 C 1.257 5.56322 2.86805 0
M  V30 10 H 1.49 2.90518 0.631377 0
M  V30 11 H -0.977 1.52953 0.210867 0
M  V30 12 H 0.981 2.67203 3.11629 0
M  V30 13 H -0.358 1.57376 2.7183 0
M  V30 14 H -1.165 3.90944 3.18086 0
M  V30 15 H -1.563 3.418 1.51819 0
M  V30 16 H 0.729 5.58782 3.83104 0
M  V30 17 H 1.672 6.56266 2.65933 0
M  V30 18 H 2.08 4.83886 2.90714 0
M  V30 19 N 1.4781 -0.272755 1.55222 0
M  V30 20 C 2.4251 -1.33716 1.88119 0
M  V30 21 C 3.3951 -1.49066 0.73271 0
M  V30 22 O 4.5801 -1.63469 0.984002 0
M  V30 23 C 1.7201 -2.69238 2.15882 0
M  V30 24 C 0.8331 -2.62108 3.43399 0
M  V30 25 C -0.0319 -3.89811 3.60861 0
M  V30 26 C -0.9929 -3.77193 4.8207 0
M  V30 27 N -1.8559 -4.9673 4.96189 0
M  V30 28 H 2.9841 -1.04962 2.78903 0
M  V30 29 H 0.5211 -0.507088 1.38083 0
M  V30 30 H 2.4791 -3.48089 2.29978 0
M  V30 31 H 1.1091 -2.96194 1.28331 0
M  V30 32 H 0.1611 -1.74967 3.37773 0
M  V30 33 H 1.4731 -2.48685 4.32386 0
M  V30 34 H 0.6271 -4.77103 3.74777 0
M  V30 35 H -0.6339 -4.06102 2.7006 0
M  V30 36 H -1.6289 -2.88284 4.68159 0
M  V30 37 H -0.4039 -3.62421 5.74307 0
M  V30 38 H -2.4579 -5.13431 4.08319 0
M  V30 39 H -2.5409 -4.85839 5.79221 0
M  V30 40 H -1.2729 -5.85594 5.1449 0
M  V30 41 N 2.9562 -1.48159 -0.537278 0
M  V30 42 C 4.2052 -1.5506 -1.28993 0
M  V30 43 C 4.5182 -0.226211 -1.94288 0
M  V30 44 O 5.7242 -0.173395 -2.70946 0
M  V30 45 C 4.1802 -2.73429 -2.34018 0
M  V30 46 C 3.7882 -4.1248 -1.74825 0
M  V30 47 C 5.5322 -2.89638 -3.10339 0
M  V30 48 C 3.4392 -5.22121 -2.77747 0
M  V30 49 H 2.3692 -0.577231 -0.485098 0
M  V30 50 H 5.0202 -1.74478 -0.568317 0
M  V30 51 H 3.4022 -2.47431 -3.09182 0
M  V30 52 H 4.5762 -4.48466 -1.05899 0
M  V30 53 H 2.8912 -4.01327 -1.11022 0
M  V30 54 H 5.4882 -3.68718 -3.87235 0
M  V30 55 H 5.8312 -1.9882 -3.65754 0
M  V30 56 H 6.3642 -3.15502 -2.42288 0
M  V30 57 H 3.1032 -6.1488 -2.27161 0
M  V30 58 H 2.6232 -4.90631 -3.45024 0
M  V30 59 H 4.3022 -5.49924 -3.4087 0
M  V30 60 N 4.4343 0.785586 -1.36625 0
M  V30 61 C 5.6823 1.54057 -1.30808 0
M  V30 62 C 6.0033 1.94683 0.111157 0
M  V30 63 O 5.2733 1.65241 1.05224 0
M  V30 64 H 3.8533 0.571354 -0.481211 0
M  V30 65 H 6.5153 0.935821 -1.70963 0
M  V30 66 H 5.6113 2.44637 -1.93801 0
M  V30 67 N 5.9124 1.20967 1.01018 0
M  V30 68 C 7.1584 1.02526 1.74975 0
M  V30 69 C 7.4914 -0.4408 1.89131 0
M  V30 70 O 6.7664 -1.32718 1.42184 0
M  V30 71 C 7.0494 1.71699 3.1653 0
M  V30 72 C 6.9024 3.25791 3.10129 0
M  V30 73 C 8.2214 1.45531 4.15342 0
M  V30 74 H 5.3404 0.373863 0.635134 0
M  V30 75 H 7.9824 1.49071 1.17805 0
M  V30 76 H 6.1324 1.32128 3.65341 0
M  V30 77 H 7.8044 3.74697 2.69072 0
M  V30 78 H 6.0474 3.56363 2.47362 0
M  V30 79 H 6.7184 3.69353 4.10222 0
M  V30 80 H 9.1944 1.79872 3.75213 0
M  V30 81 H 8.0704 1.96453 5.1254 0
M  V30 82 H 8.3314 0.384237 4.40427 0
M  V30 83 N 7.3905 -1.2043 1.01659 0
M  V30 84 C 8.6375 -1.89797 0.705917 0
M  V30 85 C 8.9655 -1.78848 -0.764439 0
M  V30 86 O 8.2205 -1.16694 -1.57102 0
M  V30 87 C 8.5195 -3.40464 1.08714 0
M  V30 88 C 8.1855 -3.71614 2.5537 0
M  V30 89 C 6.8475 -3.79826 2.95441 0
M  V30 90 C 9.1995 -3.85915 3.50313 0
M  V30 91 C 6.5275 -3.99797 4.29394 0
M  V30 92 C 8.8795 -4.07396 4.83954 0
M  V30 93 C 7.5435 -4.13837 5.23732 0
M  V30 94 H 6.8135 -0.694518 0.258313 0
M  V30 95 H 9.4605 -1.42691 1.27717 0
M  V30 96 H 7.7655 -3.89385 0.434309 0
M  V30 97 H 9.4625 -3.92433 0.824461 0
M  V30 98 H 6.0525 -3.65822 2.23321 0
M  V30 99 H 10.2365 -3.78926 3.20513 0
M  V30 100 H 5.4925 -4.03018 4.59768 0
M  V30 101 H 9.6665 -4.17404 5.57447 0
M  V30 102 H 7.2935 -4.29064 6.27541 0
M  V30 103 N 8.8686 -0.792821 -1.36206 0
M  V30 104 C 10.1456 -0.290627 -1.93429 0
M  V30 105 C 10.5256 1.21773 -1.72437 0
M  V30 106 O 9.8736 2.0108 -1.08531 0
M  V30 107 C 10.0836 -0.686973 -3.42172 0
M  V30 108 C 11.4316 -0.668643 -4.19302 0
M  V30 109 O 12.4556 -0.627658 -3.50626 0
M  V30 110 O 11.3146 -0.714597 -5.41808 0
M  V30 111 H 8.4086 -0.0727927 -0.82379 0
M  V30 112 H 10.9546 -0.875593 -1.45367 0
M  V30 113 H 9.7266 -1.72711 -3.51122 0
M  V30 114 H 9.3496 -0.0760733 -3.97527 0
M  V30 115 N 10.3467 1.47872 -0.545128 0
M  V30 116 C 11.5717 2.07391 -0.0190611 0
M  V30 117 C 11.9967 1.39688 1.25971 0
M  V30 118 O 11.3547 0.467816 1.7516 0
M  V30 119 C 11.4027 3.60188 0.172335 0
M  V30 120 O 10.5067 3.9339 1.23766 0
M  V30 121 H 9.8477 0.662411 -0.0459059 0
M  V30 122 H 12.3777 1.90066 -0.757365 0
M  V30 123 H 12.3877 4.06129 0.390305 0
M  V30 124 H 11.0627 4.08865 -0.761725 0
M  V30 125 H 9.6397 3.5921 1.00114 0
M  V30 126 N 11.8248 0.280983 1.55075 0
M  V30 127 C 13.0728 -0.333455 1.9933 0
M  V30 128 C 13.3938 -1.55937 1.17085 0
M  V30 129 O 12.6638 -1.94143 0.261805 0
M  V30 130 H 11.2438 -0.126197 0.736263 0
M  V30 131 H 13.9058 0.387678 1.91005 0
M  V30 132 H 13.0018 -0.619292 3.05894 0
M  V30 133 N 13.3029 -1.57598 0.00835791 0
M  V30 134 C 14.5489 -1.91211 -0.675732 0
M  V30 135 C 14.8819 -0.883139 -1.72958 0
M  V30 136 O 14.1569 0.097016 -1.94258 0
M  V30 137 C 14.4399 -3.35379 -1.31123 0
M  V30 138 C 14.2929 -4.48999 -0.268356 0
M  V30 139 C 15.6119 -3.7912 -2.23508 0
M  V30 140 H 12.7309 -0.695374 -0.244179 0
M  V30 141 H 15.3729 -1.89901 0.0613655 0
M  V30 142 H 13.5229 -3.36626 -1.93946 0
M  V30 143 H 15.1949 -4.59887 0.360844 0
M  V30 144 H 13.4379 -4.31873 0.408482 0
M  V30 145 H 14.1089 -5.46851 -0.752218 0
M  V30 146 H 16.5849 -3.79477 -1.70693 0
M  V30 147 H 15.4609 -4.80729 -2.64936 0
M  V30 148 H 15.7219 -3.13455 -3.11766 0
M  V30 149 N 14.781 0.264519 -1.55364 0
M  V30 150 C 16.029 0.993021 -1.76021 0
M  V30 151 C 16.35 1.86511 -0.569099 0
M  V30 152 O 15.62 1.91438 0.415735 0
M  V30 153 H 14.2 0.369639 -0.649135 0
M  V30 154 H 16.862 0.286707 -1.9278 0
M  V30 155 H 15.958 1.62502 -2.66457 0
M  V30 156 N 16.2591 1.48442 0.529413 0
M  V30 157 C 17.5071 1.56179 1.28267 0
M  V30 158 C 17.8281 0.237721 1.93546 0
M  V30 159 O 17.0981 -0.740779 1.81354 0
M  V30 160 H 15.6781 0.575367 0.476405 0
M  V30 161 H 18.3401 1.84909 0.61602 0
M  V30 162 H 17.4361 2.34312 2.06165 0
M  V30 163 N 17.7372 -0.778329 1.37039 0
M  V30 164 C 18.9842 -1.53665 1.31884 0
M  V30 165 C 19.3122 -1.9425 -0.0986303 0
M  V30 166 O 18.5672 -1.63832 -1.07041 0
M  V30 167 C 18.8662 -2.81845 2.19768 0
M  V30 168 C 18.5322 -2.60345 3.68146 0
M  V30 169 C 17.1942 -2.5419 4.08584 0
M  V30 170 C 19.5462 -2.40923 4.62175 0
M  V30 171 C 16.8742 -2.26594 5.41177 0
M  V30 172 C 19.2262 -2.14852 5.94997 0
M  V30 173 C 17.8902 -2.07137 6.34547 0
M  V30 174 H 17.1602 -0.562299 0.482598 0
M  V30 175 H 19.8072 -0.897069 1.69189 0
M  V30 176 H 18.1122 -3.50328 1.75436 0
M  V30 177 H 19.8092 -3.39692 2.13097 0
M  V30 178 H 16.3992 -2.65996 3.36072 0
M  V30 179 H 20.5832 -2.44673 4.31797 0
M  V30 180 H 15.8392 -2.19111 5.70789 0
M  V30 181 H 20.0132 -1.98822 6.67415 0
M  V30 182 H 17.6402 -1.85518 7.37216 0
M  V30 183 N 19.2153 -1.21501 -1.00376 0
M  V30 184 C 20.4403 -1.05977 -1.78279 0
M  V30 185 C 20.8653 0.385994 -1.84097 0
M  V30 186 O 20.2233 1.27849 -1.28547 0
M  V30 187 C 20.2713 -1.66302 -3.19963 0
M  V30 188 O 19.3753 -0.909333 -4.0225 0
M  V30 189 H 18.7163 -0.372906 -0.549397 0
M  V30 190 H 21.2463 -1.6107 -1.26165 0
M  V30 191 H 21.2563 -1.70574 -3.70632 0
M  V30 192 H 19.9313 -2.71515 -3.15043 0
M  V30 193 H 18.5083 -0.941795 -3.60811 0
M  V30 194 N 20.6934 1.19889 -1.02296 0
M  V30 195 C 21.9394 1.89701 -0.717033 0
M  V30 196 C 22.2724 1.7905 0.751989 0
M  V30 197 O 21.5474 1.17891 1.547 0
M  V30 198 C 21.8304 3.40858 -1.16136 0
M  V30 199 C 21.6834 3.60411 -2.69117 0
M  V30 200 C 23.0024 4.33876 -0.737549 0
M  V30 201 H 20.1214 0.688874 -0.261957 0
M  V30 202 H 22.7634 1.41154 -1.27183 0
M  V30 203 H 20.9134 3.82335 -0.689342 0
M  V30 204 H 22.5854 3.28145 -3.2422 0
M  V30 205 H 20.8284 3.03665 -3.0979 0
M  V30 206 H 21.4994 4.66396 -2.95261 0
M  V30 207 H 23.9754 4.00081 -1.14344 0
M  V30 208 H 22.8514 5.38242 -1.0764 0
M  V30 209 H 23.1124 4.40628 0.360436 0
M  V30 210 N 22.1715 0.800033 1.35784 0
M  V30 211 C 23.1015 0.220184 2.3246 0
M  V30 212 C 24.0825 -0.65073 1.57161 0
M  V30 213 O 25.2675 -0.582359 1.85263 0
M  V30 214 C 22.3975 -0.637353 3.41402 0
M  V30 215 C 21.3515 0.134531 4.27789 0
M  V30 216 C 20.6775 -0.844285 5.27992 0
M  V30 217 C 21.9775 1.32979 5.05088 0
M  V30 218 H 23.6715 1.02787 2.81203 0
M  V30 219 H 21.2175 0.495717 1.35199 0
M  V30 220 H 23.1705 -1.05302 4.08031 0
M  V30 221 H 21.8945 -1.47785 2.91251 0
M  V30 222 H 20.5535 0.531296 3.6273 0
M  V30 223 H 20.2015 -1.68011 4.74111 0
M  V30 224 H 19.9015 -0.332184 5.8666 0
M  V30 225 H 21.4255 -1.2583 5.97494 0
M  V30 226 H 22.8395 0.98934 5.64699 0
M  V30 227 H 21.2365 1.77593 5.7322 0
M  V30 228 H 22.3065 2.11978 4.36111 0
M  V30 229 N 23.6496 -1.47581 0.552962 0
M  V30 230 C 24.5966 -2.29957 -0.197108 0
M  V30 231 C 25.5666 -1.38799 -0.912359 0
M  V30 232 O 26.7516 -1.67761 -0.908888 0
M  V30 233 C 23.8916 -3.22672 -1.22379 0
M  V30 234 C 23.0046 -4.28919 -0.515038 0
M  V30 235 C 22.1396 -5.0879 -1.52664 0
M  V30 236 C 21.1786 -6.06815 -0.802631 0
M  V30 237 N 20.3156 -6.7966 -1.76086 0
M  V30 238 H 25.1556 -2.93578 0.511486 0
M  V30 239 H 22.6926 -1.4471 0.264067 0
M  V30 240 H 24.6506 -3.74845 -1.83159 0
M  V30 241 H 23.2806 -2.60925 -1.90047 0
M  V30 242 H 22.3326 -3.79835 0.207192 0
M  V30 243 H 23.6446 -4.98773 0.0523425 0
M  V30 244 H 22.7986 -5.65091 -2.20809 0
M  V30 245 H 21.5376 -4.38828 -2.12794 0
M  V30 246 H 20.5426 -5.49695 -0.107238 0
M  V30 247 H 21.7676 -6.78784 -0.207135 0
M  V30 248 H 19.7136 -6.12432 -2.35081 0
M  V30 249 H 19.6306 -7.45669 -1.24552 0
M  V30 250 H 20.8986 -7.40538 -2.43359 0
M  V30 251 N 25.1277 -0.289203 -1.54924 0
M  V30 252 C 26.3527 0.329299 -2.04769 0
M  V30 253 C 26.7777 1.4763 -1.16564 0
M  V30 254 O 26.1357 1.80527 -0.167186 0
M  V30 255 C 26.1837 0.774438 -3.52186 0
M  V30 256 O 25.2877 1.88038 -3.67036 0
M  V30 257 H 24.6287 0.0659259 -0.660719 0
M  V30 258 H 27.1587 -0.42761 -2.00082 0
M  V30 259 H 27.1687 1.06642 -3.93816 0
M  V30 260 H 25.8437 -0.0646707 -4.1585 0
M  V30 261 H 24.4207 1.58985 -3.3731 0
M  V30 262 N 26.6058 1.57591 -0.0167156 0
M  V30 263 C 27.5358 2.12496 0.967858 0
M  V30 264 C 28.5168 1.03807 1.34752 0
M  V30 265 O 29.7018 1.31577 1.42833 0
M  V30 266 C 26.8318 2.64194 2.25431 0
M  V30 267 C 25.7858 3.77559 2.01576 0
M  V30 268 C 25.1118 4.15636 3.36379 0
M  V30 269 C 26.4118 5.04151 1.36489 0
M  V30 270 H 28.1058 2.95013 0.510643 0
M  V30 271 H 25.6518 1.41915 0.244181 0
M  V30 272 H 27.6048 3.01236 2.94678 0
M  V30 273 H 26.3288 1.78821 2.73296 0
M  V30 274 H 24.9878 3.40937 1.34751 0
M  V30 275 H 24.6358 3.27263 3.81979 0
M  V30 276 H 24.3358 4.92022 3.21229 0
M  V30 277 H 25.8598 4.5525 4.06915 0
M  V30 278 H 27.2738 5.38857 1.95718 0
M  V30 279 H 25.6708 5.85453 1.31776 0
M  V30 280 H 26.7408 4.83733 0.336219 0
M  V30 281 N 28.0839 -0.256276 1.55502 0
M  V30 282 C 29.0139 -1.32102 1.92539 0
M  V30 283 C 29.9949 -1.50684 0.789194 0
M  V30 284 O 31.1799 -1.63449 1.04872 0
M  V30 285 C 28.3099 -2.67752 2.21192 0
M  V30 286 C 27.2639 -2.63878 3.36975 0
M  V30 287 C 26.5899 -4.03236 3.51147 0
M  V30 288 C 27.8899 -2.21682 4.72921 0
M  V30 289 H 29.5839 -1.01351 2.81724 0
M  V30 290 H 27.1299 -0.486105 1.35547 0
M  V30 291 H 29.0829 -3.42365 2.45691 0
M  V30 292 H 27.8069 -3.0012 1.28824 0
M  V30 293 H 26.4659 -1.91722 3.12471 0
M  V30 294 H 26.1139 -4.32854 2.56216 0
M  V30 295 H 25.8139 -4.01535 4.29003 0
M  V30 296 H 27.3379 -4.79563 3.77957 0
M  V30 297 H 28.7519 -2.86023 4.96854 0
M  V30 298 H 27.1489 -2.3111 5.53812 0
M  V30 299 H 28.2189 -1.16833 4.70615 0
M  V30 300 N 29.562 -1.4872 -0.521534 0
M  V30 301 C 30.509 -1.63871 -1.62527 0
M  V30 302 C 31.479 -0.480559 -1.58996 0
M  V30 303 O 32.664 -0.705085 -1.77294 0
M  V30 304 C 29.804 -1.69227 -3.00759 0
M  V30 305 C 28.917 -2.96207 -3.14461 0
M  V30 306 C 28.052 -2.92671 -4.43303 0
M  V30 307 C 27.091 -4.14318 -4.50563 0
M  V30 308 N 26.228 -4.0881 -5.70805 0
M  V30 309 H 31.068 -2.58123 -1.48918 0
M  V30 310 H 28.605 -1.28 -0.724878 0
M  V30 311 H 30.563 -1.70314 -3.80853 0
M  V30 312 H 29.193 -0.784586 -3.1312 0
M  V30 313 H 28.245 -3.04826 -2.27564 0
M  V30 314 H 29.557 -3.86192 -3.15686 0
M  V30 315 H 28.711 -2.92206 -5.31696 0
M  V30 316 H 27.45 -2.00429 -4.44612 0
M  V30 317 H 26.455 -4.15049 -3.60575 0
M  V30 318 H 27.68 -5.07729 -4.50986 0
M  V30 319 H 25.626 -3.19394 -5.72995 0
M  V30 320 H 25.543 -4.92509 -5.7356 0
M  V30 321 H 26.811 -4.12418 -6.61462 0
M  V30 322 N 31.0401 0.771051 -1.3745 0
M  V30 323 C 32.0031 1.86598 -1.33093 0
M  V30 324 C 33.0031 1.59076 -0.234845 0
M  V30 325 O 34.1931 1.67145 -0.490732 0
M  V30 326 C 31.3251 3.23747 -1.06773 0
M  V30 327 H 32.5181 1.91873 -2.30488 0
M  V30 328 H 30.0711 0.970876 -1.2249 0
M  V30 329 H 30.8061 3.24148 -0.099129 0
M  V30 330 H 30.5911 3.45115 -1.86112 0
M  V30 331 H 32.0811 4.03824 -1.06377 0
M  V30 332 N 32.5182 1.22032 0.997298 0
M  V30 333 C 33.9342 0.979326 1.26021 0
M  V30 334 C 34.1342 -0.32972 1.98784 0
M  V30 335 O 33.1902 -1.05345 2.29475 0
M  V30 336 C 34.5032 2.17509 2.07631 0
M  V30 337 C 36.0512 2.21817 2.2083 0
M  V30 338 C 36.5262 3.40933 3.05825 0
M  V30 339 N 38.0172 3.41067 3.13412 0
M  V30 340 C 38.7522 4.29885 3.79455 0
M  V30 341 N 38.2482 5.28914 4.47462 0
M  V30 342 N 40.0412 4.17673 3.76173 0
M  V30 343 H 32.1922 2.06202 0.509352 0
M  V30 344 H 34.4552 0.90334 0.287541 0
M  V30 345 H 34.1612 3.12415 1.61524 0
M  V30 346 H 34.0352 2.17206 3.08385 0
M  V30 347 H 36.4222 1.27462 2.66153 0
M  V30 348 H 36.5032 2.2616 1.1952 0
M  V30 349 H 36.1472 4.35586 2.61203 0
M  V30 350 H 36.0772 3.33829 4.07266 0
M  V30 351 H 38.5682 2.69406 2.65007 0
M  V30 352 H 38.8812 5.92973 4.95583 0
M  V30 353 H 37.2262 5.32831 4.46224 0
M  V30 354 H 40.4172 3.39564 3.22202 0
M  V30 355 H 40.5902 4.87098 4.27363 0
M  V30 356 N 33.9963 -1.19345 1.0293 0
M  V30 357 C 34.9263 -2.2481 0.631105 0
M  V30 358 C 35.9073 -1.66245 -0.360104 0
M  V30 359 O 37.0923 -1.92677 -0.242726 0
M  V30 360 C 34.2223 -3.47295 -0.0184607 0
M  V30 361 C 33.1763 -4.18536 0.895073 0
M  V30 362 C 32.5023 -5.34586 0.110592 0
M  V30 363 C 33.8023 -4.73287 2.209 0
M  V30 364 H 35.4963 -2.58372 1.51275 0
M  V30 365 H 33.0423 -1.24194 0.728818 0
M  V30 366 H 34.9953 -4.20268 -0.308675 0
M  V30 367 H 33.7193 -3.12933 -0.934907 0
M  V30 368 H 32.3783 -3.47446 1.16949 0
M  V30 369 H 32.0263 -4.96469 -0.807902 0
M  V30 370 H 31.7263 -5.83183 0.719087 0
M  V30 371 H 33.2503 -6.10355 -0.172871 0
M  V30 372 H 34.6643 -5.38013 1.98028 0
M  V30 373 H 33.0613 -5.32373 2.76946 0
M  V30 374 H 34.1313 -3.91331 2.86336 0
M  V30 375 N 35.4744 -0.807222 -1.35358 0
M  V30 376 C 36.7214 -0.387888 -1.9875 0
M  V30 377 C 37.0494 1.04509 -1.64037 0
M  V30 378 O 36.3044 1.73986 -0.895946 0
M  V30 379 C 36.6034 -0.519036 -3.53611 0
M  V30 380 C 36.2694 -1.91542 -4.08194 0
M  V30 381 C 34.9314 -2.29745 -4.22813 0
M  V30 382 C 37.2834 -2.82896 -4.37744 0
M  V30 383 C 34.6114 -3.58668 -4.643 0
M  V30 384 C 36.9634 -4.11265 -4.8067 0
M  V30 385 C 35.6274 -4.49466 -4.93494 0
M  V30 386 H 34.8974 -0.141938 -0.727279 0
M  V30 387 H 37.5444 -1.02814 -1.6156 0
M  V30 388 H 35.8494 0.204658 -3.91265 0
M  V30 389 H 37.5464 -0.175345 -4.00616 0
M  V30 390 H 34.1364 -1.60862 -3.97268 0
M  V30 391 H 38.3204 -2.54629 -4.26002 0
M  V30 392 H 33.5764 -3.88113 -4.72418 0
M  V30 393 H 37.7504 -4.82153 -5.02496 0
M  V30 394 H 35.3774 -5.49418 -5.25399 0
M  V30 395 N 36.9525 1.47285 -0.560781 0
M  V30 396 C 38.2295 1.9558 0.0277798 0
M  V30 397 C 38.6095 1.5034 1.48192 0
M  V30 398 O 37.9575 0.743882 2.16052 0
M  V30 399 C 38.1675 3.48789 -0.121418 0
M  V30 400 C 39.5155 4.24594 0.0220912 0
M  V30 401 O 40.5395 3.56166 -0.0491439 0
M  V30 402 O 39.3985 5.46217 0.175958 0
M  V30 403 H 36.4925 0.824663 0.0621342 0
M  V30 404 H 39.0385 1.5767 -0.627556 0
M  V30 405 H 37.8105 3.74533 -1.13316 0
M  V30 406 H 37.4335 3.93473 0.571366 0
M  V30 407 N 38.4306 0.297415 1.54768 0
M  V30 408 C 39.3406 -0.58983 2.27064 0
M  V30 409 C 40.3566 -1.15144 1.30453 0
M  V30 410 O 41.5326 -1.17699 1.63428 0
M  V30 411 C 38.5976 -1.74714 2.9946 0
M  V30 412 C 37.6586 -1.21997 4.11601 0
M  V30 413 C 36.8916 -2.32212 4.80535 0
M  V30 414 O 37.1146 -3.52036 4.48806 0
M  V30 415 O 36.0486 -1.99106 5.68014 0
M  V30 416 H 39.8746 -0.00348199 3.037 0
M  V30 417 H 37.4596 0.0640035 1.49263 0
M  V30 418 H 39.3416 -2.42147 3.44881 0
M  V30 419 H 38.0166 -2.32016 2.25722 0
M  V30 420 H 36.9236 -0.511458 3.70587 0
M  V30 421 H 38.2566 -0.692419 4.87305 0
M  V30 422 N 39.9087 -1.5758 0.0250728 0
M  V30 423 C 41.1577 -1.90811 -0.653767 0
M  V30 424 C 41.4707 -0.90273 -1.73523 0
M  V30 425 O 42.6767 -1.12614 -2.47043 0
M  V30 426 C 41.1327 -3.38804 -1.21409 0
M  V30 427 C 40.7407 -4.47692 -0.166126 0
M  V30 428 C 42.4847 -3.81108 -1.86967 0
M  V30 429 C 40.3917 -5.86779 -0.737856 0
M  V30 430 H 39.3217 -0.712063 -0.247956 0
M  V30 431 H 41.9727 -1.83281 0.0897137 0
M  V30 432 H 40.3547 -3.41252 -2.00905 0
M  V30 433 H 41.5287 -4.56797 0.606079 0
M  V30 434 H 39.8437 -4.14565 0.390466 0
M  V30 435 H 42.4407 -4.82375 -2.30692 0
M  V30 436 H 42.7837 -3.15953 -2.71071 0
M  V30 437 H 43.3167 -3.81065 -1.14167 0
M  V30 438 H 40.0557 -6.55468 0.0649577 0
M  V30 439 H 39.5757 -5.81288 -1.47864 0
M  V30 440 H 41.2547 -6.35223 -1.22884 0
M  V30 441 N 41.3868 0.248026 -1.55636 0
M  V30 442 C 42.6358 0.974134 -1.76617 0
M  V30 443 C 42.9488 1.86528 -0.588796 0
M  V30 444 O 44.1548 2.62805 -0.681594 0
M  V30 445 C 42.6108 1.78213 -3.12679 0
M  V30 446 C 42.2188 0.93843 -4.38061 0
M  V30 447 C 43.9628 2.50104 -3.42999 0
M  V30 448 C 41.8698 1.74225 -5.65155 0
M  V30 449 H 40.7998 0.36745 -0.658405 0
M  V30 450 H 43.4508 0.22884 -1.82067 0
M  V30 451 H 41.8328 2.56933 -3.01333 0
M  V30 452 H 43.0068 0.193635 -4.60393 0
M  V30 453 H 41.3218 0.332905 -4.15067 0
M  V30 454 H 43.9188 3.10694 -4.3517 0
M  V30 455 H 44.2618 3.21662 -2.64271 0
M  V30 456 H 44.7948 1.78395 -3.55556 0
M  V30 457 H 41.5338 1.07043 -6.46701 0
M  V30 458 H 41.0538 2.46235 -5.46926 0
M  V30 459 H 42.7328 2.30967 -6.0437 0
M  V30 460 N 42.8649 1.48995 0.513639 0
M  V30 461 C 44.0949 1.61297 1.291 0
M  V30 462 C 44.5029 0.278656 1.87137 0
M  V30 463 O 43.8459 -0.744325 1.67945 0
M  V30 464 C 43.9079 2.61326 2.46879 0
M  V30 465 C 43.5719 4.05993 2.09807 0
M  V30 466 C 44.5689 4.93183 1.64519 0
M  V30 467 C 42.2539 4.51642 2.19829 0
M  V30 468 C 44.2479 6.24056 1.2974 0
M  V30 469 C 41.9349 5.82532 1.84662 0
M  V30 470 C 42.9329 6.68562 1.3969 0
M  V30 471 O 42.6209 7.97014 1.04992 0
M  V30 472 H 42.3529 0.546236 0.39825 0
M  V30 473 H 44.9069 1.95673 0.62459 0
M  V30 474 H 43.1369 2.22104 3.16554 0
M  V30 475 H 44.8259 2.6329 3.08923 0
M  V30 476 H 45.5919 4.59147 1.56233 0
M  V30 477 H 41.4709 3.84855 2.53786 0
M  V30 478 H 45.0149 6.91161 0.945659 0
M  V30 479 H 40.9119 6.16099 1.92594 0
M  V30 480 H 41.6799 8.09913 1.18249 0
M  V30 481 N 44.343 -0.763751 1.37857 0
M  V30 482 C 45.573 -1.55067 1.3652 0
M  V30 483 C 45.981 -1.89135 -0.0494227 0
M  V30 484 O 45.324 -1.52529 -1.02375 0
M  V30 485 C 45.386 -2.8838 2.14656 0
M  V30 486 C 45.05 -2.76905 3.63555 0
M  V30 487 C 46.047 -2.4739 4.57268 0
M  V30 488 C 43.732 -2.94676 4.06781 0
M  V30 489 C 45.726 -2.35786 5.92186 0
M  V30 490 C 43.413 -2.82692 5.41782 0
M  V30 491 C 44.411 -2.53289 6.34298 0
M  V30 492 O 44.099 -2.41345 7.66817 0
M  V30 493 H 43.831 -0.486776 0.469069 0
M  V30 494 H 46.385 -0.953812 1.81911 0
M  V30 495 H 44.615 -3.50217 1.63967 0
M  V30 496 H 46.304 -3.49828 2.05852 0
M  V30 497 H 47.07 -2.33339 4.2518 0
M  V30 498 H 42.949 -3.16563 3.35126 0
M  V30 499 H 46.493 -2.12757 6.64365 0
M  V30 500 H 42.39 -2.96314 5.7347 0
M  V30 501 H 43.158 -2.56634 7.77226 0
M  V30 502 N 45.8211 -1.22559 -0.990812 0
M  V30 503 C 47.0691 -1.04933 -1.72724 0
M  V30 504 C 47.3901 0.416158 -1.90508 0
M  V30 505 O 46.6601 1.29918 -1.46622 0
M  V30 506 H 45.2401 -0.385296 -0.639965 0
M  V30 507 H 47.9021 -1.54105 -1.19322 0
M  V30 508 H 46.9981 -1.52886 -2.72089 0
M  V30 509 N 47.2992 1.18797 -1.03562 0
M  V30 510 C 48.5762 1.84469 -0.650434 0
M  V30 511 C 48.9562 1.92319 0.870433 0
M  V30 512 O 48.3042 1.44528 1.76986 0
M  V30 513 C 48.5142 3.2306 -1.32036 0
M  V30 514 C 49.8622 3.9915 -1.44792 0
M  V30 515 O 50.8862 3.32481 -1.27806 0
M  V30 516 O 49.7452 5.18587 -1.72423 0
M  V30 517 H 46.8392 0.795251 -0.226946 0
M  V30 518 H 49.3852 1.26231 -1.13419 0
M  V30 519 H 48.1572 3.1222 -2.3587 0
M  V30 520 H 47.7802 3.88949 -0.8249 0
M  V30 521 N 48.7773 0.814389 1.34928 0
M  V30 522 C 50.0023 0.410097 2.03305 0
M  V30 523 C 50.4273 -0.973464 1.60951 0
M  V30 524 O 49.7853 -1.63185 0.789964 0
M  V30 525 C 49.8333 0.51049 3.56968 0
M  V30 526 O 48.9373 -0.473035 4.09678 0
M  V30 527 H 48.2783 0.170088 0.641846 0
M  V30 528 H 50.8083 1.10244 1.72358 0
M  V30 529 H 50.8183 0.383135 4.06197 0
M  V30 530 H 49.4933 1.51963 3.87144 0
M  V30 531 H 48.0703 -0.305272 3.71648 0
M  V30 532 N 50.2554 -1.46986 0.568584 0
M  V30 533 C 51.2184 -2.28624 -0.162366 0
M  V30 534 C 52.2184 -1.37596 -0.832103 0
M  V30 535 O 53.4084 -1.60115 -0.68622 0
M  V30 536 C 50.5404 -3.17596 -1.23878 0
M  V30 537 H 51.7334 -2.94722 0.554899 0
M  V30 538 H 49.2864 -1.52863 0.325976 0
M  V30 539 H 50.0214 -2.56214 -1.98808 0
M  V30 540 H 49.8064 -3.846 -0.763219 0
M  V30 541 H 51.2964 -3.79078 -1.75185 0
M  V30 542 N 51.7335 -0.305618 -1.54608 0
M  V30 543 C 53.1495 0.0476228 -1.59529 0
M  V30 544 C 53.3495 1.52025 -1.32252 0
M  V30 545 O 52.4055 2.27368 -1.09818 0
M  V30 546 C 53.7185 -0.354471 -2.98603 0
M  V30 547 C 55.2665 -0.303622 -3.11524 0
M  V30 548 C 55.7415 -0.680608 -4.52915 0
M  V30 549 N 57.2325 -0.63332 -4.5885 0
M  V30 550 C 57.9675 -0.897432 -5.66334 0
M  V30 551 N 57.4635 -1.22775 -6.81834 0
M  V30 552 N 59.2565 -0.824186 -5.56025 0
M  V30 553 H 51.4075 -1.2653 -1.70599 0
M  V30 554 H 53.6705 -0.513291 -0.797017 0
M  V30 555 H 53.3765 -1.3798 -3.23503 0
M  V30 556 H 53.2505 0.289568 -3.76087 0
M  V30 557 H 55.6375 0.712472 -2.8637 0
M  V30 558 H 55.7185 -0.982348 -2.36185 0
M  V30 559 H 55.3625 -1.69453 -4.78799 0
M  V30 560 H 55.2925 0.0202385 -5.26596 0
M  V30 561 H 57.7835 -0.389138 -3.75891 0
M  V30 562 H 58.0965 -1.41513 -7.59733 0
M  V30 563 H 56.4415 -1.26583 -6.83375 0
M  V30 564 H 59.6325 -0.565748 -4.64669 0
M  V30 565 H 59.8055 -1.03338 -6.39707 0
M  V30 566 N 53.2116 1.57565 -0.0334293 0
M  V30 567 C 54.4576 1.92262 0.645226 0
M  V30 568 C 54.7906 0.910543 1.71531 0
M  V30 569 O 54.0656 -0.066099 1.94388 0
M  V30 570 C 54.3486 3.37422 1.2577 0
M  V30 571 C 54.2016 4.49369 0.196891 0
M  V30 572 C 55.5206 3.82628 2.17449 0
M  V30 573 H 52.6396 0.699171 0.233085 0
M  V30 574 H 55.2816 1.89779 -0.0915694 0
M  V30 575 H 53.4316 3.39669 1.88566 0
M  V30 576 H 55.1036 4.59254 -0.433962 0
M  V30 577 H 53.3466 4.31168 -0.477137 0
M  V30 578 H 54.0176 5.47978 0.665124 0
M  V30 579 H 56.4936 3.82145 1.64634 0
M  V30 580 H 55.3696 4.84883 2.57254 0
M  V30 581 H 55.6306 3.18376 3.0674 0
M  V30 582 N 54.6897 -0.239769 1.55765 0
M  V30 583 C 56.1007 -0.808263 1.68297 0
M  V30 584 C 56.4517 -1.85736 0.632181 0
M  V30 585 O 55.5767 -2.15277 -0.220204 0
M  V30 586 C 56.1717 -1.47284 3.05111 0
M  V30 587 C 54.7307 -1.98895 3.19559 0
M  V30 588 C 53.8777 -0.842575 2.64189 0
M  V30 589 H 56.8287 -0.0154422 1.58692 0
M  V30 590 H 56.8497 -2.34111 2.99954 0
M  V30 591 H 56.3617 -0.709053 3.81568 0
M  V30 592 H 54.4627 -2.78132 2.47938 0
M  V30 593 H 54.5757 -2.18143 4.26556 0
M  V30 594 H 52.9397 -1.24501 2.22197 0
M  V30 595 H 53.7227 -0.0917552 3.43177 0
M  V30 596 N 56.1678 -1.49265 -0.50573 0
M  V30 597 C 57.3978 -1.61979 -1.28243 0
M  V30 598 C 57.8058 -0.288576 -1.86986 0
M  V30 599 O 57.1488 0.735408 -1.68337 0
M  V30 600 C 57.2108 -2.62632 -2.45489 0
M  V30 601 C 56.8748 -4.071 -2.07651 0
M  V30 602 C 57.8718 -4.94049 -1.61901 0
M  V30 603 C 55.5568 -4.52801 -2.17431 0
M  V30 604 C 57.5508 -6.24736 -1.26428 0
M  V30 605 C 55.2378 -5.83503 -1.8157 0
M  V30 606 C 56.2358 -6.69294 -1.36142 0
M  V30 607 O 55.9238 -7.9756 -1.00764 0
M  V30 608 H 55.6558 -0.54834 -0.395347 0
M  V30 609 H 58.2098 -1.96002 -0.614204 0
M  V30 610 H 56.4398 -2.2378 -3.15372 0
M  V30 611 H 58.1288 -2.64925 -3.07522 0
M  V30 612 H 58.8948 -4.5997 -1.53795 0
M  V30 613 H 54.7738 -3.86196 -2.51742 0
M  V30 614 H 58.3178 -6.91652 -0.908992 0
M  V30 615 H 54.2148 -6.17112 -1.89324 0
M  V30 616 H 54.9828 -8.10529 -1.13952 0
M  V30 617 N 57.6459 0.756429 -1.3826 0
M  V30 618 C 58.8939 1.51248 -1.34047 0
M  V30 619 C 59.2149 1.94875 0.0698372 0
M  V30 620 O 58.4849 1.67436 1.01696 0
M  V30 621 H 57.0649 0.561018 -0.493222 0
M  V30 622 H 59.7269 0.899347 -1.7291 0
M  V30 623 H 58.8229 2.40472 -1.98947 0
M  V30 624 N 59.124 1.23083 0.984299 0
M  V30 625 C 60.352 1.08714 1.76037 0
M  V30 626 C 60.767 -0.361691 1.85303 0
M  V30 627 O 60.124 -1.25034 1.32939 0
M  V30 628 C 60.175 1.70206 3.18923 0
M  V30 629 O 59.896 3.09423 3.10144 0
M  V30 630 C 61.397 1.61227 4.12941 0
M  V30 631 H 58.617 0.380664 0.552572 0
M  V30 632 H 61.161 1.62853 1.23689 0
M  V30 633 H 59.316 1.20109 3.6831 0
M  V30 634 H 59.73 3.39188 4.00065 0
M  V30 635 H 61.204 2.08962 5.10919 0
M  V30 636 H 61.681 0.570375 4.35481 0
M  V30 637 H 62.287 2.10671 3.69456 0
M  V30 638 N 60.6021 -1.18246 1.0419 0
M  V30 639 C 61.5491 -2.2192 0.634037 0
M  V30 640 C 62.5191 -1.62179 -0.358765 0
M  V30 641 O 63.7041 -1.89122 -0.252466 0
M  V30 642 C 60.8441 -3.451 0.00445535 0
M  V30 643 C 59.9571 -4.19174 1.04487 0
M  V30 644 C 59.0921 -5.29813 0.383676 0
M  V30 645 C 58.1311 -5.9566 1.4091 0
M  V30 646 N 57.2681 -6.97834 0.772784 0
M  V30 647 H 62.1081 -2.56164 1.52263 0
M  V30 648 H 59.6451 -1.25843 0.761701 0
M  V30 649 H 61.6031 -4.15485 -0.377919 0
M  V30 650 H 60.2331 -3.11472 -0.847652 0
M  V30 651 H 59.2851 -3.47604 1.54518 0
M  V30 652 H 60.5971 -4.64267 1.82368 0
M  V30 653 H 59.7511 -6.06677 -0.0528366 0
M  V30 654 H 58.4901 -4.85825 -0.427208 0
M  V30 655 H 57.4951 -5.17535 1.85574 0
M  V30 656 H 58.7201 -6.4173 2.22171 0
M  V30 657 H 56.6661 -6.55998 -0.0177708 0
M  V30 658 H 56.5831 -7.41186 1.48928 0
M  V30 659 H 57.8511 -7.78665 0.36071 0
M  V30 660 N 62.0802 -0.821533 -1.34494 0
M  V30 661 C 63.3572 -0.33159 -1.92769 0
M  V30 662 C 63.7372 1.18088 -1.74981 0
M  V30 663 O 63.0852 1.98733 -1.12772 0
M  V30 664 C 63.2952 -0.759398 -3.40638 0
M  V30 665 C 64.6432 -0.757433 -4.1779 0
M  V30 666 O 65.6672 -0.70189 -3.49216 0
M  V30 667 O 64.5262 -0.829361 -5.4017 0
M  V30 668 H 61.6202 -0.0902502 -0.822061 0
M  V30 669 H 64.1662 -0.906231 -1.43477 0
M  V30 670 H 62.9382 -1.8012 -3.47379 0
M  V30 671 H 62.5612 -0.160378 -3.97276 0
M  V30 672 N 63.5583 1.46682 -0.576371 0
M  V30 673 C 64.9693 1.86112 -0.148091 0
M  V30 674 C 65.3203 1.48073 1.2872 0
M  V30 675 O 64.4453 0.892656 1.97131 0
M  V30 676 C 65.0403 3.37786 -0.261982 0
M  V30 677 C 63.5993 3.76235 0.111384 0
M  V30 678 C 62.7463 2.70713 -0.60083 0
M  V30 679 H 65.6973 1.37927 -0.78497 0
M  V30 680 H 65.7183 3.77007 0.514364 0
M  V30 681 H 65.2303 3.6544 -1.30671 0
M  V30 682 H 63.3313 3.54198 1.15649 0
M  V30 683 H 63.4443 4.78391 -0.26052 0
M  V30 684 H 61.8083 2.54666 -0.0417783 0
M  V30 685 H 62.5913 3.01208 -1.64708 0
M  V30 686 N 65.0364 0.313813 1.54444 0
M  V30 687 C 66.2644 -0.293918 2.04802 0
M  V30 688 C 66.6794 -1.46537 1.19047 0
M  V30 689 O 66.0364 -1.81182 0.218939 0
M  V30 690 C 66.0874 -0.737806 3.53891 0
M  V30 691 O 65.8084 0.387038 4.36387 0
M  V30 692 C 67.3094 -1.40936 4.203 0
M  V30 693 H 64.5294 -0.0620057 0.668129 0
M  V30 694 H 67.0734 0.457169 1.99324 0
M  V30 695 H 65.2284 -1.43889 3.59687 0
M  V30 696 H 65.6424 0.0391274 5.24485 0
M  V30 697 H 67.1164 -1.67099 5.26101 0
M  V30 698 H 67.5934 -2.35355 3.70816 0
M  V30 699 H 68.1994 -0.751117 4.18615 0
M  V30 700 N 66.5145 -1.57545 0.0417849 0
M  V30 701 C 67.7425 -1.96624 -0.643928 0
M  V30 702 C 68.1575 -0.918897 -1.64929 0
M  V30 703 O 67.5145 0.0979323 -1.82237 0
M  V30 704 C 67.5655 -3.35781 -1.33914 0
M  V30 705 O 67.2865 -4.365 -0.374048 0
M  V30 706 C 68.7875 -3.89566 -2.1155 0
M  V30 707 H 66.0075 -0.647316 -0.176702 0
M  V30 708 H 68.5515 -2.04229 0.105304 0
M  V30 709 H 66.7065 -3.29357 -2.03968 0
M  V30 710 H 67.1205 -5.17248 -0.869179 0
M  V30 711 H 68.5945 -4.89242 -2.55628 0
M  V30 712 H 69.0715 -3.24488 -2.9598 0
M  V30 713 H 69.6775 -3.99298 -1.46427 0
M  V30 714 N 67.9926 0.231505 -1.5589 0
M  V30 715 C 69.2416 0.955346 -1.7764 0
M  V30 716 C 69.5546 1.85893 -0.608546 0
M  V30 717 O 70.7606 2.62067 -0.70943 0
M  V30 718 C 69.2166 1.74886 -3.14552 0
M  V30 719 C 68.8246 0.891915 -4.39032 0
M  V30 720 C 70.5686 2.46452 -3.45633 0
M  V30 721 C 68.4756 1.68221 -5.66971 0
M  V30 722 H 67.4056 0.360446 -0.662265 0
M  V30 723 H 70.0566 0.209516 -1.823 0
M  V30 724 H 68.4386 2.53723 -3.04041 0
M  V30 725 H 69.6126 0.144793 -4.60572 0
M  V30 726 H 67.9276 0.288863 -4.15397 0
M  V30 727 H 70.5246 3.06061 -4.38441 0
M  V30 728 H 70.8676 3.18841 -2.67668 0
M  V30 729 H 71.4006 1.74613 -3.57428 0
M  V30 730 H 68.1396 1.00178 -6.478 0
M  V30 731 H 67.6596 2.4042 -5.49507 0
M  V30 732 H 69.3386 2.24544 -6.06786 0
M  V30 733 N 69.4707 1.49531 0.497807 0
M  V30 734 C 70.4177 1.66436 1.59899 0
M  V30 735 C 71.3877 0.505793 1.58212 0
M  V30 736 O 72.5727 0.733202 1.7615 0
M  V30 737 C 69.7127 1.7399 2.98029 0
M  V30 738 C 68.8257 3.01172 3.09708 0
M  V30 739 C 67.9607 2.99686 4.38591 0
M  V30 740 C 66.9997 4.21434 4.43914 0
M  V30 741 N 66.1367 4.1784 5.64229 0
M  V30 742 H 70.9767 2.60459 1.44793 0
M  V30 743 H 68.5137 1.29137 0.704423 0
M  V30 744 H 70.4717 1.76352 3.78095 0
M  V30 745 H 69.1017 0.834301 3.11832 0
M  V30 746 H 68.1537 3.08408 2.22685 0
M  V30 747 H 69.4657 3.91165 3.09502 0
M  V30 748 H 68.6197 3.00628 5.2698 0
M  V30 749 H 67.3587 2.07477 4.41367 0
M  V30 750 H 66.3637 4.20733 3.53926 0
M  V30 751 H 67.5887 5.14839 4.42851 0
M  V30 752 H 65.5347 3.28469 5.67841 0
M  V30 753 H 65.4517 5.01571 5.65652 0
M  V30 754 H 66.7197 4.22889 6.54817 0
M  V30 755 N 70.9488 -0.749086 1.3866 0
M  V30 756 C 71.8808 -1.87273 1.32142 0
M  V30 757 C 72.8938 -1.61127 0.232787 0
M  V30 758 O 74.0828 -1.71623 0.49069 0
M  V30 759 C 71.1828 -3.23005 1.02571 0
M  V30 760 C 70.3558 -3.7662 2.22433 0
M  V30 761 C 69.4148 -4.90879 1.89537 0
M  V30 762 O 68.4408 -5.05276 2.62078 0
M  V30 763 N 69.6428 -5.74198 0.853031 0
M  V30 764 H 72.4078 -1.93373 2.28969 0
M  V30 765 H 69.9688 -0.929216 1.32579 0
M  V30 766 H 71.9608 -3.96992 0.786085 0
M  V30 767 H 70.5308 -3.12262 0.145249 0
M  V30 768 H 69.7508 -2.94147 2.62434 0
M  V30 769 H 71.0388 -4.09173 3.02415 0
M  V30 770 H 70.4368 -5.6514 0.25155 0
M  V30 771 H 68.9938 -6.48313 0.67329 0
M  V30 772 N 72.4269 -1.23603 -0.977757 0
M  V30 773 C 73.6739 -1.06971 -1.71941 0
M  V30 774 C 74.0019 0.393009 -1.90488 0
M  V30 775 O 73.2569 1.30719 -1.4564 0
M  V30 776 C 73.5559 -1.7433 -3.11999 0
M  V30 777 C 73.2219 -3.24252 -3.13323 0
M  V30 778 C 71.8839 -3.65156 -3.13392 0
M  V30 779 C 74.2359 -4.20141 -3.08433 0
M  V30 780 C 71.5639 -5.00403 -3.0629 0
M  V30 781 C 73.9159 -5.55384 -3.02873 0
M  V30 782 C 72.5799 -5.95647 -3.01265 0
M  V30 783 H 71.8499 -0.391433 -0.629175 0
M  V30 784 H 74.4969 -1.53572 -1.14403 0
M  V30 785 H 72.8019 -1.20096 -3.7294 0
M  V30 786 H 74.4989 -1.58936 -3.68158 0
M  V30 787 H 71.0889 -2.91692 -3.14029 0
M  V30 788 H 75.2729 -3.89547 -3.07517 0
M  V30 789 H 70.5289 -5.3081 -3.03399 0
M  V30 790 H 74.7029 -6.29398 -2.98046 0
M  V30 791 H 72.3299 -7.0041 -2.95516 0
M  V30 792 N 73.905 1.17692 -1.04816 0
M  V30 793 C 75.153 1.87488 -0.754497 0
M  V30 794 C 75.474 1.81205 0.720407 0
M  V30 795 O 74.744 1.23544 1.52032 0
M  V30 796 H 73.324 0.694101 -0.276102 0
M  V30 797 H 75.986 1.42793 -1.32651 0
M  V30 798 H 75.082 2.93328 -1.06606 0
M  V30 799 N 75.3831 0.828654 1.34056 0
M  V30 800 C 76.3131 0.269443 2.3194 0
M  V30 801 C 77.2941 -0.617247 1.58506 0
M  V30 802 O 78.4791 -0.542931 1.86456 0
M  V30 803 C 75.6091 -0.564793 3.42677 0
M  V30 804 C 74.5631 0.225241 4.27407 0
M  V30 805 C 73.8891 -0.7321 5.29664 0
M  V30 806 C 75.1891 1.43663 5.02154 0
M  V30 807 H 76.8831 1.08728 2.7896 0
M  V30 808 H 74.4291 0.524283 1.34117 0
M  V30 809 H 76.3821 -0.966233 4.10173 0
M  V30 810 H 75.1061 -1.41574 2.9432 0
M  V30 811 H 73.7651 0.608117 3.61521 0
M  V30 812 H 73.4131 -1.57916 4.77568 0
M  V30 813 H 73.1131 -0.20767 5.87233 0
M  V30 814 H 74.6371 -1.13128 6.00029 0
M  V30 815 H 76.0511 1.1089 5.62473 0
M  V30 816 H 74.4481 1.89711 5.69324 0
M  V30 817 H 75.5181 2.21181 4.31517 0
M  V30 818 N 76.8612 -1.46375 0.584142 0
M  V30 819 C 77.7712 -2.34115 -0.150728 0
M  V30 820 C 78.7872 -1.49838 -0.884567 0
M  V30 821 O 79.9632 -1.82704 -0.847429 0
M  V30 822 C 77.0282 -3.2705 -1.15062 0
M  V30 823 C 76.0892 -4.27228 -0.421293 0
M  V30 824 C 75.3222 -5.15722 -1.37355 0
M  V30 825 O 75.5452 -5.07176 -2.61014 0
M  V30 826 O 74.4792 -5.95383 -0.883355 0
M  V30 827 H 78.3052 -2.98309 0.569708 0
M  V30 828 H 75.8902 -1.45373 0.344535 0
M  V30 829 H 77.7722 -3.84381 -1.72712 0
M  V30 830 H 76.4472 -2.65451 -1.8525 0
M  V30 831 H 75.3542 -3.7358 0.197085 0
M  V30 832 H 76.6872 -4.91616 0.239641 0
M  V30 833 N 78.3393 -0.321999 -1.54275 0
M  V30 834 C 79.3023 0.531975 -2.22941 0
M  V30 835 C 80.3023 1.04478 -1.22234 0
M  V30 836 O 81.4923 0.937452 -1.46825 0
M  V30 837 C 78.6243 1.73874 -2.93224 0
M  V30 838 H 79.8173 -0.0682612 -2.99822 0
M  V30 839 H 77.3703 -0.0730644 -1.56129 0
M  V30 840 H 78.1053 2.37825 -2.20476 0
M  V30 841 H 77.8903 1.37847 -3.6707 0
M  V30 842 H 79.3803 2.34496 -3.45545 0
M  V30 843 N 79.8174 1.5752 -0.0501392 0
M  V30 844 C 80.7474 2.14502 0.922566 0
M  V30 845 C 81.7284 1.06642 1.3252 0
M  V30 846 O 82.9134 1.34577 1.4001 0
M  V30 847 C 80.0434 2.68916 2.19776 0
M  V30 848 C 78.9974 3.8175 1.93523 0
M  V30 849 C 78.3234 4.22677 3.27487 0
M  V30 850 C 79.6234 5.06932 1.25765 0
M  V30 851 H 81.3174 2.9603 0.447952 0
M  V30 852 H 78.8634 1.42401 0.214024 0
M  V30 853 H 80.8164 3.07419 2.88222 0
M  V30 854 H 79.5404 1.84578 2.69441 0
M  V30 855 H 78.1994 3.43718 1.27489 0
M  V30 856 H 77.8474 3.35291 3.74952 0
M  V30 857 H 77.5474 4.98725 3.1072 0
M  V30 858 H 79.0714 4.63779 3.97166 0
M  V30 859 H 80.4854 5.42888 1.84244 0
M  V30 860 H 78.8824 5.88116 1.19328 0
M  V30 861 H 79.9524 4.84337 0.233536 0
M  V30 862 N 81.2955 -0.223234 1.56011 0
M  V30 863 C 82.5725 -0.972108 1.69733 0
M  V30 864 C 82.9525 -2.02485 0.59691 0
M  V30 865 O 82.3005 -2.25037 -0.396324 0
M  V30 866 C 82.5105 -1.58407 3.10979 0
M  V30 867 C 83.8585 -2.07696 3.70334 0
M  V30 868 O 84.8825 -1.68304 3.1393 0
M  V30 869 O 83.7415 -2.80096 4.69264 0
M  V30 870 H 80.8355 -0.453993 0.691245 0
M  V30 871 H 83.3815 -0.215149 1.68331 0
M  V30 872 H 82.1535 -0.823831 3.82529 0
M  V30 873 H 81.7765 -2.40661 3.16493 0
M  V30 874 N 82.7736 -1.49793 -0.48987 0
M  V30 875 C 84.0206 -1.59841 -1.24327 0
M  V30 876 C 84.3486 -0.290135 -1.92324 0
M  V30 877 O 83.6036 0.722749 -1.81865 0
M  V30 878 C 83.9026 -2.71488 -2.32441 0
M  V30 879 C 83.5686 -4.12614 -1.81826 0
M  V30 880 C 82.2306 -4.51017 -1.67742 0
M  V30 881 C 84.5826 -5.00892 -1.4407 0
M  V30 882 C 81.9106 -5.75459 -1.14297 0
M  V30 883 C 84.2626 -6.25863 -0.920742 0
M  V30 884 C 82.9266 -6.63086 -0.766383 0
M  V30 885 H 82.1966 -0.584899 -0.454944 0
M  V30 886 H 84.8436 -1.83663 -0.542215 0
M  V30 887 H 83.1486 -2.4168 -3.0838 0
M  V30 888 H 84.8456 -2.76469 -2.90458 0
M  V30 889 H 81.4356 -3.82307 -1.93751 0
M  V30 890 H 85.6196 -4.7187 -1.53794 0
M  V30 891 H 80.8756 -6.02989 -1.01068 0
M  V30 892 H 85.0496 -6.9364 -0.619448 0
M  V30 893 H 82.6766 -7.59393 -0.350083 0
M  V30 894 N 84.2517 0.741722 -1.39055 0
M  V30 895 C 85.4987 1.50114 -1.35912 0
M  V30 896 C 85.8267 1.94443 0.0470937 0
M  V30 897 O 85.0817 1.66612 1.02659 0
M  V30 898 C 85.3807 2.7592 -2.27163 0
M  V30 899 C 85.0467 2.50493 -3.74919 0
M  V30 900 C 83.7087 2.43267 -4.1518 0
M  V30 901 C 86.0607 2.28585 -4.684 0
M  V30 902 C 83.3887 2.12166 -5.46994 0
M  V30 903 C 85.7407 1.99002 -6.00484 0
M  V30 904 C 84.4047 1.90241 -6.39816 0
M  V30 905 H 83.6747 0.549306 -0.497336 0
M  V30 906 H 86.3217 0.851896 -1.71508 0
M  V30 907 H 84.6267 3.45553 -1.84663 0
M  V30 908 H 86.3237 3.33923 -2.22028 0
M  V30 909 H 82.9137 2.56992 -3.43006 0
M  V30 910 H 87.0977 2.33139 -4.38132 0
M  V30 911 H 82.3537 2.03901 -5.76398 0
M  V30 912 H 86.5277 1.81057 -6.72452 0
M  V30 913 H 84.1547 1.65907 -7.41875 0
M  V30 914 N 85.7298 1.2412 0.971189 0
M  V30 915 C 86.6768 1.0305 2.06517 0
M  V30 916 C 87.6468 -0.0550666 1.66009 0
M  V30 917 O 88.8318 0.0988688 1.90544 0
M  V30 918 C 85.9718 0.637653 3.39158 0
M  V30 919 C 85.0848 1.79633 3.92882 0
M  V30 920 C 84.2198 1.34939 5.13775 0
M  V30 921 C 83.2588 2.47823 5.59687 0
M  V30 922 N 82.3958 2.04022 6.71803 0
M  V30 923 H 87.2358 1.96685 2.23873 0
M  V30 924 H 84.7728 0.979694 1.09729 0
M  V30 925 H 86.7308 0.390931 4.15364 0
M  V30 926 H 85.3608 -0.261693 3.21737 0
M  V30 927 H 84.4128 2.15681 3.13346 0
M  V30 928 H 85.7248 2.64466 4.22918 0
M  V30 929 H 84.8788 1.06134 5.97345 0
M  V30 930 H 83.6178 0.471557 4.85415 0
M  V30 931 H 82.6228 2.77392 4.74693 0
M  V30 932 H 83.8478 3.36158 5.90063 0
M  V30 933 H 81.7938 1.18632 6.45184 0
M  V30 934 H 81.7108 2.82409 7.01271 0
M  V30 935 H 82.9788 1.78347 7.58823 0
M  V30 936 N 87.2079 -1.17134 1.05439 0
M  V30 937 C 88.6189 -1.69084 0.791676 0
M  V30 938 C 88.9699 -1.83822 -0.685839 0
M  V30 939 O 88.0949 -1.52757 -1.53278 0
M  V30 940 C 88.6899 -3.07119 1.4305 0
M  V30 941 C 87.2489 -3.56225 1.21577 0
M  V30 942 C 86.3959 -2.32421 1.51247 0
M  V30 943 H 89.3469 -1.01617 1.219 0
M  V30 944 H 89.3679 -3.71087 0.84112 0
M  V30 945 H 88.8799 -2.9636 2.50584 0
M  V30 946 H 86.9809 -3.72257 0.159787 0
M  V30 947 H 87.0939 -4.38837 1.92246 0
M  V30 948 H 85.4579 -2.3701 0.932653 0
M  V30 949 H 86.2409 -2.24268 2.5992 0
M  V30 950 N 88.686 -0.835752 -1.33615 0
M  V30 951 C 89.636 -0.238856 -2.26745 0
M  V30 952 C 90.62 0.604343 -1.49119 0
M  V30 953 O 91.812 0.456822 -1.71003 0
M  V30 954 C 88.941 0.587725 -3.38232 0
M  V30 955 C 88.027 -0.266811 -4.2326 0
M  V30 956 N 88.418 -1.34403 -4.87616 0
M  V30 957 C 86.716 -0.0533131 -4.45968 0
M  V30 958 C 87.417 -1.86819 -5.50884 0
M  V30 959 N 86.393 -1.17013 -5.30857 0
M  V30 960 H 90.195 -1.06266 -2.74016 0
M  V30 961 H 87.709 -0.679881 -1.47483 0
M  V30 962 H 89.706 1.03161 -4.03935 0
M  V30 963 H 88.366 1.40954 -2.9251 0
M  V30 964 H 89.377 -1.7269 -4.88261 0
M  V30 965 H 86.054 0.735312 -4.10974 0
M  V30 966 H 87.444 -2.7701 -6.1214 0
M  V30 967 N 90.1641 1.46063 -0.591896 0
M  V30 968 C 91.0741 2.34192 0.13831 0
M  V30 969 C 92.0901 1.50305 0.876608 0
M  V30 970 O 93.2661 1.8315 0.837728 0
M  V30 971 C 90.3311 3.27656 1.13326 0
M  V30 972 C 89.3921 4.27445 0.39863 0
M  V30 973 C 88.6251 5.16443 1.34618 0
M  V30 974 O 88.8481 5.08553 2.58321 0
M  V30 975 O 87.7821 5.95843 0.851768 0
M  V30 976 H 91.6081 2.98002 -0.58552 0
M  V30 977 H 89.1931 1.45188 -0.352239 0
M  V30 978 H 91.0751 3.85291 1.70671 0
M  V30 979 H 89.7501 2.6643 1.83839 0
M  V30 980 H 88.6571 3.73471 -0.216895 0
M  V30 981 H 89.9901 4.91482 -0.265709 0
M  V30 982 N 91.6422 0.330177 1.54103 0
M  V30 983 C 92.8912 -0.271336 1.99867 0
M  V30 984 C 93.2042 -1.52723 1.22209 0
M  V30 985 O 94.4102 -2.20515 1.58383 0
M  V30 986 C 92.8662 -0.534032 3.55916 0
M  V30 987 C 92.4742 0.705193 4.42415 0
M  V30 988 C 94.2182 -1.09514 4.1013 0
M  V30 989 C 92.1252 0.414035 5.89949 0
M  V30 990 H 91.0552 -0.105166 0.74663 0
M  V30 991 H 93.7062 0.443429 1.78062 0
M  V30 992 H 92.0882 -1.30915 3.73734 0
M  V30 993 H 93.2622 1.4804 4.36372 0
M  V30 994 H 91.5772 1.18698 3.99124 0
M  V30 995 H 94.1742 -1.3277 5.17954 0
M  V30 996 H 94.5172 -2.04656 3.62521 0
M  V30 997 H 95.0502 -0.381038 3.95971 0
M  V30 998 H 91.7892 1.33481 6.41766 0
M  V30 999 H 91.3092 -0.323336 5.98928 0
M  V30 1000 H 92.9882 0.0263105 6.46995 0
M  V30 1001 N 93.1203 -1.57491 0.0584922 0
M  V30 1002 C 94.0303 -2.15448 -0.928414 0
M  V30 1003 C 95.0463 -1.11416 -1.3365 0
M  V30 1004 O 96.2223 -1.4362 -1.41193 0
M  V30 1005 C 93.2873 -2.69393 -2.18239 0
M  V30 1006 C 92.3483 -3.88249 -1.83196 0
M  V30 1007 C 91.5813 -4.39613 -3.02616 0
M  V30 1008 O 91.8043 -3.90023 -4.16219 0
M  V30 1009 O 90.7383 -5.31111 -2.83204 0
M  V30 1010 H 94.5643 -3.00112 -0.465483 0
M  V30 1011 H 92.1493 -1.48499 -0.163826 0
M  V30 1012 H 94.0313 -3.04026 -2.91798 0
M  V30 1013 H 92.7063 -1.87796 -2.63656 0
M  V30 1014 H 91.6133 -3.58492 -1.06931 0
M  V30 1015 H 92.9463 -4.71098 -1.42573 0
M  V30 1016 N 94.5984 0.214957 -1.56127 0
M  V30 1017 C 95.5284 1.2695 -1.95974 0
M  V30 1018 C 96.5094 1.48539 -0.828868 0
M  V30 1019 O 97.6944 1.60611 -1.09168 0
M  V30 1020 C 94.8244 2.61794 -2.28214 0
M  V30 1021 C 93.7784 2.54851 -3.43853 0
M  V30 1022 C 93.1044 3.93785 -3.61715 0
M  V30 1023 C 94.4044 2.09065 -4.78632 0
M  V30 1024 H 96.0984 0.93846 -2.84312 0
M  V30 1025 H 93.6444 0.449996 -1.36788 0
M  V30 1026 H 95.5974 3.35731 -2.54682 0
M  V30 1027 H 94.3214 2.96599 -1.36736 0
M  V30 1028 H 92.9804 1.8337 -3.17444 0
M  V30 1029 H 92.6284 4.25908 -2.67602 0
M  V30 1030 H 92.3284 3.90019 -4.39498 0
M  V30 1031 H 93.8524 4.69374 -3.90539 0
M  V30 1032 H 95.2664 2.7275 -5.04262 0
M  V30 1033 H 93.6634 2.16346 -5.59745 0
M  V30 1034 H 94.7334 1.04315 -4.73547 0
M  V30 1035 N 96.0765 1.50051 0.48192 0
M  V30 1036 C 97.0065 1.71046 1.58951 0
M  V30 1037 C 97.9875 0.559288 1.60642 0
M  V30 1038 O 99.1725 0.797243 1.77081 0
M  V30 1039 C 96.3025 1.79462 2.97339 0
M  V30 1040 C 95.2565 2.94558 3.10515 0
M  V30 1041 C 94.5825 2.88105 4.50444 0
M  V30 1042 C 95.8825 4.35227 2.88747 0
M  V30 1043 H 97.5765 2.6378 1.41635 0
M  V30 1044 H 95.1225 1.26936 0.679942 0
M  V30 1045 H 97.0755 1.92734 3.74742 0
M  V30 1046 H 95.7995 0.833412 3.15788 0
M  V30 1047 H 94.4585 2.80918 2.35543 0
M  V30 1048 H 94.1065 1.89853 4.65795 0
M  V30 1049 H 93.8065 3.65366 4.60197 0
M  V30 1050 H 95.3305 3.03412 5.29881 0
M  V30 1051 H 96.7445 4.49449 3.55905 0
M  V30 1052 H 95.1415 5.13856 3.09955 0
M  V30 1053 H 96.2115 4.48347 1.84696 0
M  V30 1054 N 97.5546 -0.734337 1.39446 0
M  V30 1055 C 98.8036 -1.48937 1.36017 0
M  V30 1056 C 99.1166 -1.95557 -0.0409005 0
M  V30 1057 O 100.323 -2.70779 -0.19778 0
M  V30 1058 C 98.7786 -2.69125 2.38955 0
M  V30 1059 C 98.3866 -2.29452 3.8478 0
M  V30 1060 C 100.131 -3.46944 2.44603 0
M  V30 1061 C 98.0376 -3.46366 4.79358 0
M  V30 1062 H 96.9676 -0.559296 0.505672 0
M  V30 1063 H 99.6186 -0.800983 1.65095 0
M  V30 1064 H 98.0006 -3.40041 2.02948 0
M  V30 1065 H 99.1746 -1.66077 4.29831 0
M  V30 1066 H 97.4896 -1.64723 3.82433 0
M  V30 1067 H 100.087 -4.33907 3.12456 0
M  V30 1068 H 100.43 -3.89454 1.47076 0
M  V30 1069 H 100.963 -2.83056 2.79507 0
M  V30 1070 H 97.7016 -3.08905 5.78151 0
M  V30 1071 H 97.2216 -4.08719 4.38986 0
M  V30 1072 H 98.9006 -4.12691 4.98292 0
M  V30 1073 N 99.0327 -1.24633 -0.964593 0
M  V30 1074 C 100.279 -1.08949 -1.71049 0
M  V30 1075 C 100.612 0.370302 -1.90637 0
M  V30 1076 O 99.8867 1.27349 -1.47011 0
M  V30 1077 C 100.17 -1.83329 -3.0994 0
M  V30 1078 C 100.023 -3.37077 -2.97824 0
M  V30 1079 C 101.342 -1.60846 -4.09654 0
M  V30 1080 H 98.4607 -0.397178 -0.620821 0
M  V30 1081 H 101.103 -1.5334 -1.12191 0
M  V30 1082 H 99.2527 -1.45597 -3.60186 0
M  V30 1083 H 100.925 -3.84425 -2.5498 0
M  V30 1084 H 99.1677 -3.65298 -2.33965 0
M  V30 1085 H 99.8387 -3.84324 -3.96231 0
M  V30 1086 H 102.315 -1.93674 -3.68279 0
M  V30 1087 H 101.191 -2.1534 -5.04896 0
M  V30 1088 H 101.452 -0.547434 -4.38698 0
M  V30 1089 N 100.511 1.16574 -1.06058 0
M  V30 1090 C 101.474 2.19085 -0.673392 0
M  V30 1091 C 102.474 1.5835 0.279648 0
M  V30 1092 O 103.664 1.74088 0.0623488 0
M  V30 1093 C 100.796 3.40899 0.00954234 0
M  V30 1094 H 101.989 2.54853 -1.58081 0
M  V30 1095 H 99.5418 1.30808 -0.855516 0
M  V30 1096 H 100.277 3.10684 0.929826 0
M  V30 1097 H 100.062 3.86233 -0.67573 0
M  V30 1098 H 101.552 4.1675 0.266245 0
M  V30 1099 N 101.989 0.842826 1.3317 0
M  V30 1100 C 103.229 0.446574 1.99462 0
M  V30 1101 C 103.593 -0.976818 1.65295 0
M  V30 1102 O 104.794 -1.477 2.24584 0
M  V30 1103 C 103.065 0.665353 3.51152 0
M  V30 1104 S 104.624 0.364911 4.3728 0
M  V30 1105 H 101.442 0.167803 0.690915 0
M  V30 1106 H 104.044 1.09297 1.62094 0
M  V30 1107 H 102.748 1.7006 3.73507 0
M  V30 1108 H 102.279 0.00494568 3.934 0
M  V30 1109 H 104.294 -0.813761 4.89482 0
M  V30 1110 N 103.467 -1.45747 0.599634 0
M  V30 1111 C 104.415 -2.322 -0.136426 0
M  V30 1112 C 105.409 -1.45497 -0.867583 0
M  V30 1113 O 106.615 -1.62027 -0.78405 0
M  V30 1114 H 102.99 -0.749368 -0.0628588 0
M  V30 1115 H 104.961 -2.92072 0.611281 0
M  V30 1116 C 103.71 -3.28974 -1.12567 0
M  V30 1117 H 103.033 -3.9568 -0.572484 0
M  V30 1118 H 104.473 -3.92212 -1.61077 0
M  V30 1119 C 102.932 -2.55561 -2.19523 0
M  V30 1120 O 103.462 -2.33111 -3.27143 0
M  V30 1121 N 101.668 -2.15832 -1.94589 0
M  V30 1122 H 101.215 -2.3429 -1.07078 0
M  V30 1123 H 101.173 -1.67034 -2.66359 0
M  V30 1124 N 104.945 -0.338344 -1.53925 0
M  V30 1125 C 106.173 0.261298 -2.05243 0
M  V30 1126 C 106.588 1.44625 -1.21363 0
M  V30 1127 O 105.945 1.80811 -0.247736 0
M  V30 1128 C 105.996 0.681412 -3.5502 0
M  V30 1129 O 105.717 -0.456414 -4.35716 0
M  V30 1130 C 107.218 1.34232 -4.22489 0
M  V30 1131 H 104.438 0.0513685 -0.669031 0
M  V30 1132 H 106.982 -0.488822 -1.98572 0
M  V30 1133 H 105.137 1.38148 -3.61931 0
M  V30 1134 H 105.551 -0.122564 -5.24357 0
M  V30 1135 H 107.025 1.58708 -5.28693 0
M  V30 1136 H 107.502 2.29426 -3.74514 0
M  V30 1137 H 108.108 0.684424 -4.19757 0
M  V30 1138 N 106.423 1.57458 -0.0668435 0
M  V30 1139 C 107.386 2.11323 0.887422 0
M  V30 1140 C 108.386 1.03618 1.22964 0
M  V30 1141 O 109.576 1.29626 1.16373 0
M  V30 1142 C 106.708 2.61048 2.19242 0
M  V30 1143 H 107.901 2.96942 0.420194 0
M  V30 1144 H 105.454 1.55239 0.181793 0
M  V30 1145 H 106.189 1.78868 2.70512 0
M  V30 1146 H 105.974 3.39769 1.95702 0
M  V30 1147 H 107.464 3.02814 2.87565 0
M  V30 1148 N 107.901 -0.206675 1.56239 0
M  V30 1149 C 109.126 -0.949474 1.8439 0
M  V30 1150 C 109.551 -1.76549 0.649016 0
M  V30 1151 O 108.909 -1.76782 -0.402231 0
M  V30 1152 C 108.957 -1.83078 3.10668 0
M  V30 1153 O 108.061 -2.9281 2.90407 0
M  V30 1154 H 107.402 -0.268033 0.607499 0
M  V30 1155 H 109.932 -0.215488 2.03462 0
M  V30 1156 H 109.942 -2.2377 3.41161 0
M  V30 1157 H 108.617 -1.23112 3.97261 0
M  V30 1158 H 107.194 -2.55956 2.71184 0
M  V30 1159 N 109.379 -1.50304 -0.473955 0
M  V30 1160 C 110.342 -1.6841 -1.55469 0
M  V30 1161 C 111.342 -0.554905 -1.50922 0
M  V30 1162 O 112.532 -0.821882 -1.53593 0
M  V30 1163 C 109.664 -1.70667 -2.95102 0
M  V30 1164 H 110.857 -2.64828 -1.40733 0
M  V30 1165 H 108.41 -1.39742 -0.700132 0
M  V30 1166 H 109.145 -0.75932 -3.15285 0
M  V30 1167 H 108.93 -2.52698 -2.9981 0
M  V30 1168 H 110.42 -1.8664 -3.73571 0
M  V30 1169 N 110.857 0.726932 -1.39834 0
M  V30 1170 C 111.787 1.85405 -1.41941 0
M  V30 1171 C 112.768 1.67751 -0.281728 0
M  V30 1172 O 113.953 1.8795 -0.488717 0
M  V30 1173 C 111.083 3.23243 -1.2701 0
M  V30 1174 C 110.037 3.55549 -2.38262 0
M  V30 1175 C 109.363 4.9241 -2.08415 0
M  V30 1176 C 110.663 3.577 -3.80589 0
M  V30 1177 H 112.357 1.83899 -2.36266 0
M  V30 1178 H 109.903 0.883349 -1.13723 0
M  V30 1179 H 111.856 4.01775 -1.27103 0
M  V30 1180 H 110.58 3.25296 -0.291564 0
M  V30 1181 H 109.239 2.79351 -2.37399 0
M  V30 1182 H 108.887 4.91052 -1.0898 0
M  V30 1183 H 108.587 5.14992 -2.82943 0
M  V30 1184 H 110.111 5.73289 -2.10171 0
M  V30 1185 H 111.525 4.26293 -3.83337 0
M  V30 1186 H 109.922 3.91804 -4.54543 0
M  V30 1187 H 110.992 2.57328 -4.10987 0
M  V30 1188 N 112.336 1.25143 0.95797 0
M  V30 1189 C 113.299 1.05321 2.03569 0
M  V30 1190 C 114.299 0.007152 1.60798 0
M  V30 1191 O 115.489 0.24903 1.72411 0
M  V30 1192 C 112.621 0.598394 3.35607 0
M  V30 1193 H 113.814 2.00986 2.22586 0
M  V30 1194 H 111.367 1.07502 1.13459 0
M  V30 1195 H 112.102 -0.361014 3.22284 0
M  V30 1196 H 111.887 1.35351 3.67998 0
M  V30 1197 H 113.377 0.48104 4.1482 0
M  V30 1198 N 113.814 -1.1601 1.06675 0
M  V30 1199 C 114.744 -2.22688 0.702307 0
M  V30 1200 C 115.725 -1.67306 -0.307032 0
M  V30 1201 O 116.91 -1.93352 -0.181305 0
M  V30 1202 C 114.04 -3.47178 0.092038 0
M  V30 1203 C 112.994 -4.15477 1.02777 0
M  V30 1204 C 112.32 -5.33963 0.28061 0
M  V30 1205 C 113.62 -4.66019 2.35846 0
M  V30 1206 H 115.314 -2.53429 1.59419 0
M  V30 1207 H 112.86 -1.21813 0.767961 0
M  V30 1208 H 114.813 -4.21037 -0.174814 0
M  V30 1209 H 113.537 -3.15749 -0.834877 0
M  V30 1210 H 112.196 -3.43549 1.27944 0
M  V30 1211 H 111.844 -4.98788 -0.649545 0
M  V30 1212 H 111.544 -5.806 0.904258 0
M  V30 1213 H 113.068 -6.10596 0.021396 0
M  V30 1214 H 114.482 -5.3144 2.15045 0
M  V30 1215 H 112.879 -5.23293 2.93743 0
M  V30 1216 H 113.949 -3.82023 2.98641 0
M  V30 1217 N 115.292 -0.849877 -1.32721 0
M  V30 1218 C 116.202 -0.293791 -2.32753 0
M  V30 1219 C 117.218 0.585906 -1.63839 0
M  V30 1220 O 118.394 0.487413 -1.95413 0
M  V30 1221 C 115.459 0.512752 -3.42887 0
M  V30 1222 C 114.52 -0.39252 -4.27502 0
M  V30 1223 C 113.753 0.375625 -5.32377 0
M  V30 1224 O 113.976 1.60613 -5.4732 0
M  V30 1225 O 112.91 -0.256094 -6.01355 0
M  V30 1226 H 116.736 -1.12242 -2.82197 0
M  V30 1227 H 114.321 -0.612685 -1.36259 0
M  V30 1228 H 116.203 0.970704 -4.10067 0
M  V30 1229 H 114.878 1.31826 -2.95641 0
M  V30 1230 H 113.785 -0.898547 -3.63149 0
M  V30 1231 H 115.118 -1.16309 -4.7826 0
M  V30 1232 N 116.77 1.45427 -0.607355 0
M  V30 1233 C 117.68 2.34325 0.113463 0
M  V30 1234 C 118.696 1.51226 0.860617 0
M  V30 1235 O 119.872 1.84029 0.818255 0
M  V30 1236 C 116.937 3.28839 1.09844 0
M  V30 1237 C 115.998 4.27844 0.353271 0
M  V30 1238 C 115.231 5.17842 1.29133 0
M  V30 1239 O 115.454 5.11264 2.52913 0
M  V30 1240 O 114.388 5.96713 0.788523 0
M  V30 1241 H 118.214 2.97364 -0.617094 0
M  V30 1242 H 115.799 1.44807 -0.367619 0
M  V30 1243 H 117.681 3.8708 1.66575 0
M  V30 1244 H 116.356 2.68365 1.81003 0
M  V30 1245 H 115.263 3.7322 -0.256494 0
M  V30 1246 H 116.596 4.91173 -0.317822 0
M  V30 1247 N 118.248 0.346503 1.53744 0
M  V30 1248 C 119.181 -0.552023 2.21423 0
M  V30 1249 C 120.159 -1.09798 1.19929 0
M  V30 1250 O 121.343 -1.1577 1.4876 0
M  V30 1251 C 118.47 -1.75972 2.89398 0
M  V30 1252 C 117.516 -1.34295 4.04805 0
M  V30 1253 S 118.349 -0.360263 5.34287 0
M  V30 1254 C 119.505 -1.57473 6.05767 0
M  V30 1255 H 119.738 0.0228119 2.97291 0
M  V30 1256 H 117.271 0.130579 1.53847 0
M  V30 1257 H 119.229 -2.45256 3.2918 0
M  V30 1258 H 117.89 -2.30578 2.1329 0
M  V30 1259 H 117.083 -2.24349 4.51313 0
M  V30 1260 H 116.685 -0.729555 3.66815 0
M  V30 1261 H 118.977 -2.50875 6.29339 0
M  V30 1262 H 119.92 -1.15138 6.98676 0
M  V30 1263 H 120.328 -1.77212 5.35963 0
M  V30 1264 N 119.726 -1.57421 0.075193 0
M  V30 1265 C 120.658 -2.09904 -0.920483 0
M  V30 1266 C 121.671 -1.03191 -1.25918 0
M  V30 1267 O 122.86 -1.30695 -1.21577 0
M  V30 1268 C 119.96 -2.54726 -2.23534 0
M  V30 1269 C 119.133 -3.8505 -2.07498 0
M  V30 1270 C 118.192 -4.15929 -3.22319 0
M  V30 1271 O 117.218 -4.85474 -2.9716 0
M  V30 1272 N 118.42 -3.69745 -4.47514 0
M  V30 1273 H 121.185 -2.95954 -0.472359 0
M  V30 1274 H 118.746 -1.61523 -0.110444 0
M  V30 1275 H 120.738 -2.72443 -2.9926 0
M  V30 1276 H 119.308 -1.73795 -2.59835 0
M  V30 1277 H 118.528 -3.76679 -1.16219 0
M  V30 1278 H 119.816 -4.70348 -1.94038 0
M  V30 1279 H 119.214 -3.13569 -4.7084 0
M  V30 1280 H 117.771 -3.92655 -5.20255 0
M  V30 1281 N 121.204 0.198386 -1.56346 0
M  V30 1282 C 122.151 1.24589 -1.94284 0
M  V30 1283 C 123.121 1.454 -0.802997 0
M  V30 1284 O 124.306 1.58588 -1.06087 0
M  V30 1285 C 121.446 2.58631 -2.28482 0
M  V30 1286 C 120.559 2.45426 -3.55514 0
M  V30 1287 C 119.694 3.7215 -3.79049 0
M  V30 1288 C 118.733 3.53763 -4.99518 0
M  V30 1289 N 117.87 4.72491 -5.19323 0
M  V30 1290 H 122.71 0.915356 -2.83593 0
M  V30 1291 H 120.247 0.440629 -1.40346 0
M  V30 1292 H 122.205 3.3672 -2.46324 0
M  V30 1293 H 120.835 2.89734 -1.42317 0
M  V30 1294 H 119.887 1.58652 -3.45737 0
M  V30 1295 H 121.199 2.27772 -4.43758 0
M  V30 1296 H 120.353 4.58679 -3.97113 0
M  V30 1297 H 119.092 3.92754 -2.89129 0
M  V30 1298 H 118.097 2.65619 -4.8138 0
M  V30 1299 H 119.322 3.34607 -5.90944 0
M  V30 1300 H 117.268 4.93365 -4.3235 0
M  V30 1301 H 117.185 4.5765 -6.01741 0
M  V30 1302 H 118.453 5.6038 -5.41843 0
M  V30 1303 N 122.682 1.50554 0.465978 0
M  V30 1304 C 123.912 1.65323 1.23903 0
M  V30 1305 C 124.32 0.338051 1.86155 0
M  V30 1306 O 123.663 -0.690518 1.70228 0
M  V30 1307 C 123.725 2.69048 2.3844 0
M  V30 1308 C 123.389 4.12462 1.96784 0
M  V30 1309 C 124.386 4.98168 1.48745 0
M  V30 1310 C 122.071 4.58407 2.05349 0
M  V30 1311 C 124.065 6.27868 1.0982 0
M  V30 1312 C 121.752 5.88112 1.66035 0
M  V30 1313 C 122.75 6.72668 1.18349 0
M  V30 1314 O 122.438 7.99951 0.795825 0
M  V30 1315 H 122.17 0.558629 0.38067 0
M  V30 1316 H 124.724 1.97561 0.562022 0
M  V30 1317 H 122.954 2.32062 3.09328 0
M  V30 1318 H 124.643 2.72985 3.0039 0
M  V30 1319 H 125.409 4.63885 1.41546 0
M  V30 1320 H 121.288 3.92735 2.41414 0
M  V30 1321 H 124.832 6.93819 0.725293 0
M  V30 1322 H 120.729 6.21914 1.72895 0
M  V30 1323 H 121.497 8.13265 0.924222 0
M  V30 1324 N 124.16 -0.719506 1.40217 0
M  V30 1325 C 125.385 -1.51371 1.4178 0
M  V30 1326 C 125.81 -1.88091 0.0182355 0
M  V30 1327 O 125.168 -1.52997 -0.972707 0
M  V30 1328 C 125.216 -2.768 2.31115 0
M  V30 1329 O 124.32 -3.73349 1.7517 0
M  V30 1330 H 123.661 -0.456529 0.482159 0
M  V30 1331 H 126.191 -0.88644 1.844 0
M  V30 1332 H 126.201 -3.25371 2.46167 0
M  V30 1333 H 124.876 -2.49407 3.3282 0
M  V30 1334 H 123.453 -3.32179 1.69444 0
M  V30 1335 N 125.638 -1.25649 -0.95132 0
M  V30 1336 C 126.585 -1.06323 -2.04851 0
M  V30 1337 C 127.555 0.0286491 -1.66075 0
M  V30 1338 O 128.74 -0.12917 -1.90362 0
M  V30 1339 C 125.88 -0.691529 -3.381 0
M  V30 1340 C 124.993 -1.85861 -3.89974 0
M  V30 1341 C 124.128 -1.43096 -5.11563 0
M  V30 1342 C 123.167 -2.56696 -5.55674 0
M  V30 1343 N 122.304 -2.14684 -6.68472 0
M  V30 1344 H 127.144 -2.00222 -2.20715 0
M  V30 1345 H 124.681 -0.997027 -1.08156 0
M  V30 1346 H 126.639 -0.456963 -4.1469 0
M  V30 1347 H 125.269 0.210474 -3.22113 0
M  V30 1348 H 124.321 -2.20639 -3.09875 0
M  V30 1349 H 125.633 -2.71161 -4.18657 0
M  V30 1350 H 124.787 -1.15624 -5.9558 0
M  V30 1351 H 123.526 -0.548722 -4.84603 0
M  V30 1352 H 122.531 -2.84909 -4.7022 0
M  V30 1353 H 123.756 -3.45503 -5.8464 0
M  V30 1354 H 121.702 -1.28881 -6.43215 0
M  V30 1355 H 121.619 -2.9353 -6.96689 0
M  V30 1356 H 122.887 -1.90397 -7.5589 0
M  V30 1357 N 127.117 1.15442 -1.07289 0
M  V30 1358 C 128.366 1.85557 -0.790669 0
M  V30 1359 C 128.679 1.83186 0.685739 0
M  V30 1360 O 129.885 2.48977 1.0827 0
M  V30 1361 C 128.341 3.33038 -1.36433 0
M  V30 1362 C 127.949 3.43856 -2.8717 0
M  V30 1363 C 129.693 4.0834 -1.1601 0
M  V30 1364 C 127.6 4.85482 -3.3773 0
M  V30 1365 H 126.53 0.695122 -0.292098 0
M  V30 1366 H 129.181 1.30219 -1.29287 0
M  V30 1367 H 127.563 3.88043 -0.789864 0
M  V30 1368 H 128.737 2.98961 -3.50655 0
M  V30 1369 H 127.052 2.81998 -3.06376 0
M  V30 1370 H 129.649 5.12859 -1.51262 0
M  V30 1371 H 129.992 4.16182 -0.0991007 0
M  V30 1372 H 130.525 3.59603 -1.70089 0
M  V30 1373 H 127.264 4.82823 -4.43353 0
M  V30 1374 H 126.784 5.30961 -2.78999 0
M  V30 1375 H 128.463 5.54335 -3.33648 0
M  V30 1376 N 128.595 0.856903 1.32268 0
M  V30 1377 C 130.006 0.515711 1.79436 0
M  V30 1378 C 130.357 -0.966586 1.70738 0
M  V30 1379 O 129.482 -1.75409 1.26731 0
M  V30 1380 C 130.077 0.929335 3.25805 0
M  V30 1381 C 128.636 0.640006 3.70919 0
M  V30 1382 C 127.783 1.12784 2.53328 0
M  V30 1383 H 130.734 1.04389 1.19535 0
M  V30 1384 H 130.755 0.246633 3.797 0
M  V30 1385 H 130.267 2.00821 3.32103 0
M  V30 1386 H 128.368 -0.428051 3.70133 0
M  V30 1387 H 128.481 1.20788 4.63624 0
M  V30 1388 H 126.845 0.548033 2.48734 0
M  V30 1389 H 127.628 2.21387 2.62379 0
M  V30 1390 N 130.073 -1.45103 0.615059 0
M  V30 1391 C 131.322 -2.01396 0.110718 0
M  V30 1392 C 131.635 -1.48834 -1.26916 0
M  V30 1393 O 132.841 -1.97152 -1.86664 0
M  V30 1394 C 131.297 -3.59599 0.14723 0
M  V30 1395 C 130.905 -4.21158 1.52743 0
M  V30 1396 C 132.649 -4.23428 -0.30148 0
M  V30 1397 C 130.556 -5.71535 1.51992 0
M  V30 1398 H 129.486 -0.753061 0.0376241 0
M  V30 1399 H 132.137 -1.66494 0.77149 0
M  V30 1400 H 130.519 -3.91724 -0.580339 0
M  V30 1401 H 131.693 -4.00594 2.2773 0
M  V30 1402 H 130.008 -3.69552 1.91886 0
M  V30 1403 H 132.605 -5.33703 -0.326392 0
M  V30 1404 H 132.948 -3.94629 -1.32565 0
M  V30 1405 H 133.481 -3.96047 0.373065 0
M  V30 1406 H 130.22 -6.05044 2.52193 0
M  V30 1407 H 129.74 -5.94268 0.81274 0
M  V30 1408 H 131.419 -6.34873 1.24681 0
M  V30 1409 N 131.551 -0.354651 -1.53558 0
M  V30 1410 C 132.797 0.238797 -2.01389 0
M  V30 1411 C 133.13 1.49309 -1.2418 0
M  V30 1412 O 132.405 1.91638 -0.332457 0
M  V30 1413 C 132.688 0.541771 -3.56001 0
M  V30 1414 C 132.541 -0.725388 -4.43912 0
M  V30 1415 C 133.86 1.34685 -4.18984 0
M  V30 1416 H 130.979 0.0853177 -0.732045 0
M  V30 1417 H 133.621 -0.477384 -1.83905 0
M  V30 1418 H 131.771 1.15189 -3.71031 0
M  V30 1419 H 133.443 -1.36313 -4.407 0
M  V30 1420 H 131.686 -1.34801 -4.12324 0
M  V30 1421 H 132.357 -0.468505 -5.50008 0
M  V30 1422 H 134.833 0.830837 -4.07721 0
M  V30 1423 H 133.709 1.52759 -5.27215 0
M  V30 1424 H 133.97 2.35221 -3.74331 0
M  V30 1425 N 133.029 1.57378 -0.0835403 0
M  V30 1426 C 134.277 1.93547 0.581718 0
M  V30 1427 C 134.598 0.96524 1.69435 0
M  V30 1428 O 133.868 0.0153369 1.95894 0
M  V30 1429 H 132.448 0.714521 0.217874 0
M  V30 1430 H 135.11 1.94366 -0.144158 0
M  V30 1431 H 134.206 2.95665 0.999423 0
M  V30 1432 N 134.507 -0.190092 1.56449 0
M  V30 1433 C 135.753 -0.911052 1.81184 0
M  V30 1434 C 136.086 -1.82699 0.658396 0
M  V30 1435 O 135.361 -1.91491 -0.340775 0
M  V30 1436 C 135.644 -1.72297 3.16205 0
M  V30 1437 C 135.497 -0.831419 4.42049 0
M  V30 1438 C 136.816 -2.69454 3.47969 0
M  V30 1439 H 133.935 -0.32977 0.659106 0
M  V30 1440 H 136.577 -0.178169 1.89163 0
M  V30 1441 H 134.727 -2.34778 3.09534 0
M  V30 1442 H 136.399 -0.220929 4.60771 0
M  V30 1443 H 134.642 -0.138406 4.33579 0
M  V30 1444 H 135.313 -1.43461 5.33032 0
M  V30 1445 H 137.789 -2.17104 3.54972 0
M  V30 1446 H 136.665 -3.23342 4.43555 0
M  V30 1447 H 136.926 -3.48744 2.71717 0
M  V30 1448 N 135.985 -1.50799 -0.457987 0
M  V30 1449 C 137.234 -1.6168 -1.20593 0
M  V30 1450 C 137.547 -0.32888 -1.92815 0
M  V30 1451 O 138.753 -0.316773 -2.69646 0
M  V30 1452 C 137.209 -2.8545 -2.19195 0
M  V30 1453 C 136.817 -4.21168 -1.52715 0
M  V30 1454 C 138.561 -3.05681 -2.94549 0
M  V30 1455 C 136.468 -5.3611 -2.4968 0
M  V30 1456 H 135.398 -0.602134 -0.453818 0
M  V30 1457 H 138.049 -1.77245 -0.475031 0
M  V30 1458 H 136.431 -2.63472 -2.95632 0
M  V30 1459 H 137.605 -4.53449 -0.819775 0
M  V30 1460 H 135.92 -4.06648 -0.895922 0
M  V30 1461 H 138.517 -3.88727 -3.67145 0
M  V30 1462 H 138.86 -2.17929 -3.54701 0
M  V30 1463 H 139.393 -3.27901 -2.25223 0
M  V30 1464 H 136.132 -6.26057 -1.94249 0
M  V30 1465 H 135.652 -5.0823 -3.18532 0
M  V30 1466 H 137.331 -5.6722 -3.11241 0
M  V30 1467 N 137.463 0.71206 -1.40597 0
M  V30 1468 C 138.373 1.8562 -1.43466 0
M  V30 1469 C 139.389 1.70902 -0.326902 0
M  V30 1470 O 140.565 1.93105 -0.572043 0
M  V30 1471 C 137.63 3.21451 -1.29884 0
M  V30 1472 C 136.691 3.48398 -2.50833 0
M  V30 1473 C 135.924 4.77749 -2.3789 0
M  V30 1474 O 136.147 5.53089 -1.39459 0
M  V30 1475 O 135.081 5.05111 -3.27333 0
M  V30 1476 H 138.907 1.86155 -2.39958 0
M  V30 1477 H 136.492 0.86295 -1.21957 0
M  V30 1478 H 138.374 4.02579 -1.24531 0
M  V30 1479 H 137.049 3.21636 -0.364997 0
M  V30 1480 H 135.956 2.67265 -2.61763 0
M  V30 1481 H 137.289 3.53014 -3.4299 0
M  V30 1482 N 138.941 1.26152 0.944643 0
M  V30 1483 C 140.352 1.10454 1.50522 0
M  V30 1484 C 140.703 -0.31635 1.93633 0
M  V30 1485 O 139.828 -1.20746 1.79581 0
M  V30 1486 C 140.423 1.99891 2.73549 0
M  V30 1487 C 138.982 1.88348 3.25886 0
M  V30 1488 C 138.129 1.93447 1.9868 0
M  V30 1489 H 141.08 1.39292 0.760489 0
M  V30 1490 H 141.101 1.54477 3.47732 0
M  V30 1491 H 140.613 3.03297 2.42141 0
M  V30 1492 H 138.714 0.878636 3.62092 0
M  V30 1493 H 138.827 2.73696 3.93227 0
M  V30 1494 H 137.191 1.37456 2.14425 0
M  V30 1495 H 137.974 2.98476 1.69607 0
M  V30 1496 N 140.419 -1.14872 1.07899 0
M  V30 1497 C 141.644 -1.90202 0.826926 0
M  V30 1498 C 142.069 -1.77774 -0.614664 0
M  V30 1499 O 141.427 -1.11431 -1.43013 0
M  V30 1500 C 141.475 -3.38352 1.24702 0
M  V30 1501 O 140.579 -4.10497 0.39575 0
M  V30 1502 H 139.92 -0.591968 0.300782 0
M  V30 1503 H 142.45 -1.45437 1.43907 0
M  V30 1504 H 142.46 -3.89156 1.22563 0
M  V30 1505 H 141.135 -3.46715 2.29698 0
M  V30 1506 H 139.712 -3.69796 0.480117 0
M  V30 1507 N 141.898 -0.863906 -1.31812 0
M  V30 1508 C 143.147 -0.46801 -1.96195 0
M  V30 1509 C 143.46 0.983474 -1.69077 0
M  V30 1510 O 144.666 1.48523 -2.27273 0
M  V30 1511 C 143.122 -0.785995 -3.51212 0
M  V30 1512 C 142.73 -2.25383 -3.87178 0
M  V30 1513 C 144.474 -0.458274 -4.22019 0
M  V30 1514 C 142.381 -2.51455 -5.3528 0
M  V30 1515 H 141.311 -0.171283 -0.734287 0
M  V30 1516 H 143.962 -1.05597 -1.50072 0
M  V30 1517 H 142.344 -0.127359 -3.95795 0
M  V30 1518 H 143.518 -2.95502 -3.53575 0
M  V30 1519 H 141.833 -2.54698 -3.2942 0
M  V30 1520 H 144.43 -0.630369 -5.30971 0
M  V30 1521 H 144.773 0.600834 -4.11941 0
M  V30 1522 H 145.306 -1.07319 -3.8305 0
M  V30 1523 H 142.045 -3.56025 -5.50387 0
M  V30 1524 H 141.565 -1.85923 -5.70257 0
M  V30 1525 H 143.244 -2.35874 -6.02472 0
M  V30 1526 N 143.376 1.44774 -0.622745 0
M  V30 1527 C 144.306 2.33382 0.0741861 0
M  V30 1528 C 145.287 1.47719 0.843387 0
M  V30 1529 O 146.472 1.76458 0.810934 0
M  V30 1530 C 143.602 3.30663 1.06204 0
M  V30 1531 C 142.556 4.26079 0.405037 0
M  V30 1532 C 141.882 5.13165 1.5022 0
M  V30 1533 C 143.182 5.1781 -0.683414 0
M  V30 1534 H 144.876 2.91905 -0.665713 0
M  V30 1535 H 142.422 1.40363 -0.321587 0
M  V30 1536 H 144.375 3.9153 1.55827 0
M  V30 1537 H 143.099 2.70331 1.83272 0
M  V30 1538 H 141.758 3.66532 -0.0704683 0
M  V30 1539 H 141.406 4.49191 2.26355 0
M  V30 1540 H 141.106 5.77812 1.06803 0
M  V30 1541 H 142.63 5.76902 2.00041 0
M  V30 1542 H 144.044 5.72661 -0.270631 0
M  V30 1543 H 142.441 5.91015 -1.04023 0
M  V30 1544 H 143.511 4.59326 -1.55395 0
M  V30 1545 N 144.854 0.36279 1.53368 0
M  V30 1546 C 145.817 -0.472679 2.24273 0
M  V30 1547 C 146.817 -1.012 1.24961 0
M  V30 1548 O 148.007 -0.898194 1.49259 0
M  V30 1549 C 145.139 -1.66039 2.97731 0
M  V30 1550 H 146.332 0.14773 2.99536 0
M  V30 1551 H 143.885 0.114434 1.55881 0
M  V30 1552 H 144.62 -2.31896 2.26704 0
M  V30 1553 H 144.405 -1.28066 3.70596 0
M  V30 1554 H 145.895 -2.25252 3.51641 0
M  V30 1555 N 146.332 -1.57332 0.0918853 0
M  V30 1556 C 147.581 -1.93412 -0.572249 0
M  V30 1557 C 147.894 -0.975515 -1.69538 0
M  V30 1558 O 149.1 -1.22991 -2.42045 0
M  V30 1559 C 147.556 -3.43648 -1.0693 0
M  V30 1560 C 147.164 -4.47994 0.0239049 0
M  V30 1561 C 148.908 -3.88695 -1.70635 0
M  V30 1562 C 146.815 -5.89381 -0.488319 0
M  V30 1563 H 145.745 -0.721939 -0.217532 0
M  V30 1564 H 148.396 -1.82735 0.167369 0
M  V30 1565 H 146.778 -3.49466 -1.8625 0
M  V30 1566 H 147.952 -4.53815 0.799277 0
M  V30 1567 H 146.267 -4.12536 0.565946 0
M  V30 1568 H 148.864 -4.91725 -2.10025 0
M  V30 1569 H 149.207 -3.27166 -2.57426 0
M  V30 1570 H 149.74 -3.85564 -0.979023 0
M  V30 1571 H 146.479 -6.54602 0.342906 0
M  V30 1572 H 145.999 -5.87037 -1.23077 0
M  V30 1573 H 147.678 -6.39863 -0.958317 0
M  V30 1574 N 147.81 0.181792 -1.56548 0
M  V30 1575 C 148.757 1.22521 -1.95595 0
M  V30 1576 C 149.727 1.4454 -0.818373 0
M  V30 1577 O 150.912 1.57454 -1.07763 0
M  V30 1578 C 148.052 2.56193 -2.31212 0
M  V30 1579 C 147.165 2.41641 -3.58097 0
M  V30 1580 C 146.3 3.68108 -3.82975 0
M  V30 1581 C 145.339 3.48445 -5.03242 0
M  V30 1582 N 144.476 4.66956 -5.24306 0
M  V30 1583 H 149.316 0.885226 -2.84548 0
M  V30 1584 H 146.853 0.425718 -1.40805 0
M  V30 1585 H 148.811 3.34088 -2.49882 0
M  V30 1586 H 147.441 2.88208 -1.45382 0
M  V30 1587 H 146.493 1.54976 -3.474 0
M  V30 1588 H 147.805 2.23052 -4.46149 0
M  V30 1589 H 146.959 4.54441 -4.01956 0
M  V30 1590 H 145.698 3.89666 -2.93278 0
M  V30 1591 H 144.703 2.60499 -4.8417 0
M  V30 1592 H 145.928 3.2832 -5.9446 0
M  V30 1593 H 143.874 4.88752 -4.37559 0
M  V30 1594 H 143.791 4.51242 -6.06561 0
M  V30 1595 H 145.059 5.54602 -5.47756 0
M  V30 1596 N 149.288 1.51039 0.449983 0
M  V30 1597 C 150.704 1.38934 0.785462 0
M  V30 1598 C 150.904 0.461817 1.96136 0
M  V30 1599 O 149.96 -0.0877389 2.52348 0
M  V30 1600 C 151.273 2.80724 1.0777 0
M  V30 1601 C 152.821 2.89787 1.1829 0
M  V30 1602 C 153.296 4.32457 1.50815 0
M  V30 1603 N 154.787 4.35505 1.57764 0
M  V30 1604 C 155.522 5.42914 1.84477 0
M  V30 1605 N 155.018 6.60502 2.09068 0
M  V30 1606 N 156.811 5.3038 1.86155 0
M  V30 1607 H 148.962 2.09904 -0.324647 0
M  V30 1608 H 151.225 0.944378 -0.0827957 0
M  V30 1609 H 150.931 3.50531 0.286498 0
M  V30 1610 H 150.805 3.19273 2.00859 0
M  V30 1611 H 153.192 2.20186 1.96474 0
M  V30 1612 H 153.273 2.54752 0.231314 0
M  V30 1613 H 152.917 5.02603 0.731622 0
M  V30 1614 H 152.847 4.64995 2.47158 0
M  V30 1615 H 155.338 3.50724 1.40715 0
M  V30 1616 H 155.651 7.38158 2.28785 0
M  V30 1617 H 153.996 6.63639 2.06416 0
M  V30 1618 H 157.187 4.37505 1.66454 0
M  V30 1619 H 157.36 6.1417 2.06637 0
M  V30 1620 N 150.766 -0.704594 1.40972 0
M  V30 1621 C 151.698 -1.82974 1.38033 0
M  V30 1622 C 152.711 -1.60305 0.283931 0
M  V30 1623 O 153.9 -1.69975 0.545042 0
M  V30 1624 C 151 -3.19578 1.12795 0
M  V30 1625 C 150.173 -3.69352 2.34302 0
M  V30 1626 C 149.232 -4.84601 2.05058 0
M  V30 1627 O 148.258 -4.96682 2.7802 0
M  V30 1628 N 149.46 -5.71194 1.03528 0
M  V30 1629 H 152.225 -1.85991 2.35005 0
M  V30 1630 H 149.786 -0.886567 1.35468 0
M  V30 1631 H 151.778 -3.9429 0.911987 0
M  V30 1632 H 150.348 -3.11642 0.24452 0
M  V30 1633 H 149.568 -2.85649 2.71659 0
M  V30 1634 H 150.856 -3.99345 3.1528 0
M  V30 1635 H 150.254 -5.64054 0.431217 0
M  V30 1636 H 148.811 -6.45843 0.879205 0
M  V30 1637 N 152.244 -1.26651 -0.937939 0
M  V30 1638 C 153.49 -1.12553 -1.687 0
M  V30 1639 C 153.823 0.329782 -1.91379 0
M  V30 1640 O 153.098 1.24202 -1.4968 0
M  V30 1641 C 153.381 -1.89862 -3.05981 0
M  V30 1642 C 153.234 -3.43318 -2.90607 0
M  V30 1643 C 154.553 -1.69499 -4.0615 0
M  V30 1644 H 151.672 -0.410257 -0.612257 0
M  V30 1645 H 154.314 -1.55685 -1.08913 0
M  V30 1646 H 152.464 -1.53204 -3.57017 0
M  V30 1647 H 154.136 -3.89747 -2.46769 0
M  V30 1648 H 152.379 -3.70179 -2.26164 0
M  V30 1649 H 153.05 -3.92642 -3.8799 0
M  V30 1650 H 155.526 -2.01442 -3.64088 0
M  V30 1651 H 154.402 -2.26002 -5.00214 0
M  V30 1652 H 154.663 -0.640365 -4.37438 0
M  V30 1653 N 153.722 1.14298 -1.08507 0
M  V30 1654 C 154.632 2.23027 -0.727753 0
M  V30 1655 C 155.648 1.71952 0.26619 0
M  V30 1656 O 156.824 2.011 0.109882 0
M  V30 1657 C 153.889 3.46403 -0.143541 0
M  V30 1658 C 152.95 4.12413 -1.19223 0
M  V30 1659 C 152.183 5.29899 -0.635798 0
M  V30 1660 O 152.406 5.67796 0.544393 0
M  V30 1661 O 151.34 5.85717 -1.38634 0
M  V30 1662 H 155.166 2.55945 -1.63481 0
M  V30 1663 H 152.751 1.22248 -0.858817 0
M  V30 1664 H 154.633 4.21018 0.179404 0
M  V30 1665 H 153.308 3.15206 0.736659 0
M  V30 1666 H 152.215 3.39667 -1.56772 0
M  V30 1667 H 153.548 4.47718 -2.04474 0
M  V30 1668 N 155.201 0.870884 1.31352 0
M  V30 1669 C 156.478 0.402907 1.91405 0
M  V30 1670 C 156.858 -1.11512 1.79244 0
M  V30 1671 O 156.206 -1.94411 1.2007 0
M  V30 1672 C 156.416 0.885301 3.37585 0
M  V30 1673 C 157.764 0.911971 4.14691 0
M  V30 1674 O 158.788 0.831016 3.46371 0
M  V30 1675 O 157.647 1.02927 5.3672 0
M  V30 1676 H 154.741 0.120698 0.818145 0
M  V30 1677 H 157.287 0.958857 1.40014 0
M  V30 1678 H 156.059 1.92889 3.40455 0
M  V30 1679 H 155.682 0.307714 3.96407 0
M  V30 1680 N 156.679 -1.44442 0.630414 0
M  V30 1681 C 157.626 -2.30678 -0.0749355 0
M  V30 1682 C 158.596 -1.4344 -0.837502 0
M  V30 1683 O 159.781 -1.72343 -0.818684 0
M  V30 1684 C 156.921 -3.28706 -1.05103 0
M  V30 1685 C 156.034 -4.31046 -0.286954 0
M  V30 1686 C 155.169 -5.16167 -1.2548 0
M  V30 1687 C 154.208 -6.10216 -0.479843 0
M  V30 1688 N 153.345 -6.88039 -1.39811 0
M  V30 1689 H 158.185 -2.90454 0.666386 0
M  V30 1690 H 155.722 -1.43107 0.340404 0
M  V30 1691 H 157.68 -3.84027 -1.63031 0
M  V30 1692 H 156.31 -2.70632 -1.75949 0
M  V30 1693 H 155.362 -3.78203 0.408243 0
M  V30 1694 H 156.674 -4.97794 0.316657 0
M  V30 1695 H 155.828 -5.76002 -1.90544 0
M  V30 1696 H 154.567 -4.49491 -1.89233 0
M  V30 1697 H 153.572 -5.49491 0.184295 0
M  V30 1698 H 154.797 -6.78928 0.152965 0
M  V30 1699 H 152.743 -6.24032 -2.02287 0
M  V30 1700 H 152.66 -7.51223 -0.848508 0
M  V30 1701 H 153.928 -7.52397 -2.03762 0
M  V30 1702 N 158.157 -0.370918 -1.53173 0
M  V30 1703 C 159.105 0.488101 -2.27421 0
M  V30 1704 C 160.099 1.07884 -1.30604 0
M  V30 1705 O 161.305 1.02143 -1.48212 0
M  V30 1706 H 157.68 0.176134 -0.731082 0
M  V30 1707 H 159.651 -0.159815 -2.97972 0
M  V30 1708 C 158.4 1.61306 -3.08019 0
M  V30 1709 H 157.723 1.1678 -3.82364 0
M  V30 1710 H 159.163 2.18872 -3.63141 0
M  V30 1711 C 157.622 2.55848 -2.19188 0
M  V30 1712 O 158.152 3.58799 -1.80626 0
M  V30 1713 N 156.358 2.2516 -1.83715 0
M  V30 1714 H 155.905 1.41476 -2.15273 0
M  V30 1715 H 155.863 2.8867 -1.24567 0
M  V30 1716 N 159.635 1.57281 -0.100228 0
M  V30 1717 C 160.598 2.13158 0.842398 0
M  V30 1718 C 161.598 1.06202 1.20738 0
M  V30 1719 O 162.788 1.32066 1.13597 0
M  V30 1720 C 159.92 2.65639 2.13655 0
M  V30 1721 H 161.113 2.97766 0.357114 0
M  V30 1722 H 158.666 1.5559 0.148823 0
M  V30 1723 H 159.401 1.84566 2.66657 0
M  V30 1724 H 159.186 3.43844 1.88451 0
M  V30 1725 H 160.676 3.08846 2.81077 0
M  V30 1726 N 161.113 -0.173488 1.56642 0
M  V30 1727 C 162.524 -0.736155 1.71574 0
M  V30 1728 C 162.875 -1.82888 0.710389 0
M  V30 1729 O 162 -2.16017 -0.1287 0
M  V30 1730 C 162.595 -1.34211 3.11083 0
M  V30 1731 C 161.154 -1.85162 3.27707 0
M  V30 1732 C 160.301 -0.729765 2.67525 0
M  V30 1733 H 163.252 0.0518786 1.58615 0
M  V30 1734 H 163.273 -2.21178 3.09613 0
M  V30 1735 H 162.785 -0.546579 3.84232 0
M  V30 1736 H 160.886 -2.67366 2.59512 0
M  V30 1737 H 160.999 -1.99855 4.35425 0
M  V30 1738 H 159.363 -1.14965 2.27278 0
M  V30 1739 H 160.146 0.0538806 3.43258 0
M  V30 1740 N 162.591 -1.51276 -0.441967 0
M  V30 1741 C 163.84 -1.6295 -1.18871 0
M  V30 1742 C 164.153 -0.349312 -1.92456 0
M  V30 1743 O 165.359 -0.345355 -2.69295 0
M  V30 1744 C 163.815 -2.87759 -2.16155 0
M  V30 1745 C 163.423 -4.22764 -1.48239 0
M  V30 1746 C 165.167 -3.08788 -2.91291 0
M  V30 1747 C 163.074 -5.38728 -2.4398 0
M  V30 1748 H 162.004 -0.606913 -0.447406 0
M  V30 1749 H 164.655 -1.77739 -0.456205 0
M  V30 1750 H 163.037 -2.66593 -2.92821 0
M  V30 1751 H 164.211 -4.54293 -0.771635 0
M  V30 1752 H 162.526 -4.07575 -0.852741 0
M  V30 1753 H 165.123 -3.92599 -3.63002 0
M  V30 1754 H 165.466 -2.21679 -3.5237 0
M  V30 1755 H 165.999 -3.30272 -2.21733 0
M  V30 1756 H 162.738 -6.28082 -1.87598 0
M  V30 1757 H 162.258 -5.1158 -3.13123 0
M  V30 1758 H 163.937 -5.70489 -3.05207 0
M  V30 1759 N 164.069 0.697108 -1.41344 0
M  V30 1760 C 164.999 1.82353 -1.45841 0
M  V30 1761 C 165.98 1.67115 -0.317247 0
M  V30 1762 O 167.165 1.86871 -0.528474 0
M  V30 1763 C 164.295 3.20476 -1.33838 0
M  V30 1764 C 163.249 3.50415 -2.4575 0
M  V30 1765 C 162.575 4.87878 -2.18813 0
M  V30 1766 C 163.875 3.49546 -3.88091 0
M  V30 1767 H 165.569 1.78846 -2.40113 0
M  V30 1768 H 163.115 0.859028 -1.15571 0
M  V30 1769 H 165.068 3.98988 -1.35596 0
M  V30 1770 H 163.792 3.24604 -0.360498 0
M  V30 1771 H 162.451 2.74253 -2.43271 0
M  V30 1772 H 162.099 4.8863 -1.19371 0
M  V30 1773 H 161.799 5.08875 -2.93803 0
M  V30 1774 H 163.323 5.68702 -2.22284 0
M  V30 1775 H 164.737 4.18066 -3.92293 0
M  V30 1776 H 163.134 3.82075 -4.62751 0
M  V30 1777 H 164.204 2.48552 -4.16353 0
M  V30 1778 N 165.547 1.27147 0.931209 0
M  V30 1779 C 166.793 1.13446 1.68101 0
M  V30 1780 C 167.126 -0.319628 1.91552 0
M  V30 1781 O 166.401 -1.23407 1.50336 0
M  V30 1782 C 166.684 1.91482 3.0497 0
M  V30 1783 C 166.537 3.44855 2.88782 0
M  V30 1784 C 167.856 1.71651 4.05246 0
M  V30 1785 H 164.975 0.413498 0.610072 0
M  V30 1786 H 167.617 1.56261 1.08086 0
M  V30 1787 H 165.767 1.55095 3.56199 0
M  V30 1788 H 167.439 3.9105 2.44698 0
M  V30 1789 H 165.682 3.71373 2.24198 0
M  V30 1790 H 166.353 3.94694 3.85902 0
M  V30 1791 H 168.829 2.0337 3.63015 0
M  V30 1792 H 167.705 2.28651 4.99009 0
M  V30 1793 H 167.966 0.663555 4.37092 0
M  V30 1794 N 167.025 -1.13721 1.09112 0
M  V30 1795 C 167.955 -2.21148 0.749385 0
M  V30 1796 C 168.936 -1.6792 -0.271475 0
M  V30 1797 O 170.121 -1.93693 -0.140251 0
M  V30 1798 C 167.251 -3.46905 0.165659 0
M  V30 1799 C 166.205 -4.13203 1.11567 0
M  V30 1800 C 165.531 -5.33248 0.393809 0
M  V30 1801 C 166.831 -4.60912 2.45678 0
M  V30 1802 H 168.525 -2.4999 1.64758 0
M  V30 1803 H 166.071 -1.20156 0.793626 0
M  V30 1804 H 168.024 -4.21313 -0.085466 0
M  V30 1805 H 166.748 -3.17449 -0.767714 0
M  V30 1806 H 165.407 -3.40758 1.35202 0
M  V30 1807 H 165.055 -5.00054 -0.543599 0
M  V30 1808 H 164.755 -5.78552 1.02721 0
M  V30 1809 H 166.279 -6.10413 0.150908 0
M  V30 1810 H 167.693 -5.26759 2.26269 0
M  V30 1811 H 166.09 -5.16944 3.04776 0
M  V30 1812 H 167.16 -3.75603 3.06677 0
M  V30 1813 N 168.503 -0.877838 -1.30888 0
M  V30 1814 C 169.751 -0.491723 -1.96027 0
M  V30 1815 C 170.072 0.960827 -1.69685 0
M  V30 1816 O 169.342 1.67462 -1.01654 0
M  V30 1817 H 167.922 -0.17885 -0.725273 0
M  V30 1818 H 170.584 -1.11935 -1.59551 0
M  V30 1819 H 169.68 -0.656016 -3.05128 0
M  V30 1820 N 169.982 1.44106 -0.638065 0
M  V30 1821 C 171.21 2.06336 -0.152615 0
M  V30 1822 C 171.625 1.47731 1.17563 0
M  V30 1823 O 170.982 0.602806 1.72257 0
M  V30 1824 C 171.033 3.61479 -0.0391491 0
M  V30 1825 O 170.754 4.17903 -1.31487 0
M  V30 1826 C 172.255 4.40757 0.474176 0
M  V30 1827 H 169.475 0.665862 -0.0828776 0
M  V30 1828 H 172.019 1.84862 -0.87443 0
M  V30 1829 H 170.174 3.82191 0.633142 0
M  V30 1830 H 170.588 5.11416 -1.16421 0
M  V30 1831 H 172.062 5.49707 0.502562 0
M  V30 1832 H 172.539 4.12697 1.50258 0
M  V30 1833 H 173.145 4.24979 -0.165102 0
M  V30 1834 N 171.46 0.379036 1.52974 0
M  V30 1835 C 172.407 -0.461048 2.26148 0
M  V30 1836 C 173.377 -1.06637 1.27349 0
M  V30 1837 O 174.562 -1.09633 1.56157 0
M  V30 1838 C 171.702 -1.58782 3.06402 0
M  V30 1839 C 170.815 -1.00636 4.20115 0
M  V30 1840 C 169.95 -2.10334 4.87784 0
M  V30 1841 C 168.989 -1.49724 5.93506 0
M  V30 1842 N 168.126 -2.5331 6.54812 0
M  V30 1843 H 172.966 0.169429 2.97518 0
M  V30 1844 H 170.503 0.0953806 1.4679 0
M  V30 1845 H 172.461 -2.25174 3.51215 0
M  V30 1846 H 171.091 -2.18876 2.37261 0
M  V30 1847 H 170.143 -0.232332 3.7969 0
M  V30 1848 H 171.455 -0.523343 4.96047 0
M  V30 1849 H 170.609 -2.84519 5.35849 0
M  V30 1850 H 169.348 -2.61992 4.11353 0
M  V30 1851 H 168.353 -0.740598 5.44789 0
M  V30 1852 H 169.578 -0.988732 6.71864 0
M  V30 1853 H 167.524 -3.04156 5.81227 0
M  V30 1854 H 167.441 -2.09734 7.26325 0
M  V30 1855 H 168.709 -3.27155 7.07524 0
M  V30 1856 N 172.938 -1.57226 0.108567 0
M  V30 1857 C 173.901 -2.13602 -0.831082 0
M  V30 1858 C 174.901 -1.06841 -1.20173 0
M  V30 1859 O 176.091 -1.32666 -1.12895 0
M  V30 1860 C 173.223 -2.66769 -2.12243 0
M  V30 1861 H 174.416 -2.97951 -0.341317 0
M  V30 1862 H 171.969 -1.55667 -0.14057 0
M  V30 1863 H 172.704 -1.85977 -2.65675 0
M  V30 1864 H 172.489 -3.44839 -1.86625 0
M  V30 1865 H 173.979 -3.10332 -2.79435 0
M  V30 1866 N 174.416 0.165178 -1.56732 0
M  V30 1867 C 175.644 0.896218 -1.86482 0
M  V30 1868 C 176.059 1.75555 -0.694675 0
M  V30 1869 O 175.416 1.79379 0.33607 0
M  V30 1870 C 175.467 1.76792 -3.1532 0
M  V30 1871 O 175.188 0.943239 -4.27825 0
M  V30 1872 C 176.689 2.6081 -3.58459 0
M  V30 1873 H 173.909 0.260064 -0.618553 0
M  V30 1874 H 176.453 0.163428 -2.03846 0
M  V30 1875 H 174.608 2.45398 -2.99764 0
M  V30 1876 H 175.022 1.53998 -5.01383 0
M  V30 1877 H 176.496 3.17579 -4.51495 0
M  V30 1878 H 176.973 3.35977 -2.82872 0
M  V30 1879 H 177.579 1.97526 -3.76648 0
M  V30 1880 N 175.894 1.51508 0.433938 0
M  V30 1881 C 177.143 1.63578 1.18005 0
M  V30 1882 C 177.456 0.359514 1.92268 0
M  V30 1883 O 178.662 0.359632 2.69108 0
M  V30 1884 C 177.118 2.88901 2.14626 0
M  V30 1885 C 176.726 4.23544 1.45995 0
M  V30 1886 C 178.47 3.10328 2.89649 0
M  V30 1887 C 176.377 5.40014 2.4112 0
M  V30 1888 H 175.307 0.609277 0.444182 0
M  V30 1889 H 177.958 1.77978 0.446773 0
M  V30 1890 H 176.34 2.68142 2.91403 0
M  V30 1891 H 177.514 4.54696 0.747532 0
M  V30 1892 H 175.829 4.08021 0.831115 0
M  V30 1893 H 178.426 3.94518 3.60915 0
M  V30 1894 H 178.769 2.23544 3.51189 0
M  V30 1895 H 179.302 3.31443 2.19978 0
M  V30 1896 H 176.041 6.29068 1.84264 0
M  V30 1897 H 175.561 5.13233 3.10406 0
M  V30 1898 H 177.24 5.72099 3.02177 0
M  V30 1899 N 177.372 -0.689602 1.41712 0
M  V30 1900 C 178.304 -1.815 1.39966 0
M  V30 1901 C 179.317 -1.59995 0.300917 0
M  V30 1902 O 180.506 -1.69387 0.563039 0
M  V30 1903 C 177.606 -3.18364 1.16179 0
M  V30 1904 C 176.779 -3.66847 2.38206 0
M  V30 1905 C 175.838 -4.82398 2.10186 0
M  V30 1906 O 174.864 -4.93706 2.83272 0
M  V30 1907 N 176.066 -5.70064 1.0958 0
M  V30 1908 H 178.831 -1.83488 2.36965 0
M  V30 1909 H 176.392 -0.872149 1.36401 0
M  V30 1910 H 178.384 -3.93301 0.953756 0
M  V30 1911 H 176.954 -3.11365 0.27756 0
M  V30 1912 H 176.174 -2.82751 2.74673 0
M  V30 1913 H 177.462 -3.95978 3.19498 0
M  V30 1914 H 176.86 -5.63565 0.491019 0
M  V30 1915 H 175.417 -6.44874 0.947656 0
M  V30 1916 N 178.85 -1.27639 -0.924453 0
M  V30 1917 C 180.075 -1.17101 -1.71179 0
M  V30 1918 C 180.5 0.268134 -1.86179 0
M  V30 1919 O 179.858 1.19415 -1.36418 0
M  V30 1920 C 179.906 -1.86313 -3.08739 0
M  V30 1921 O 179.01 -1.16331 -3.95652 0
M  V30 1922 H 178.351 -0.407091 -0.524569 0
M  V30 1923 H 180.881 -1.68767 -1.15666 0
M  V30 1924 H 180.891 -1.938 -3.59034 0
M  V30 1925 H 179.566 -2.91001 -2.97138 0
M  V30 1926 H 178.143 -1.16935 -3.54091 0
M  V30 1927 N 180.328 1.1314 -1.09713 0
M  V30 1928 C 181.276 2.20717 -0.733934 0
M  V30 1929 C 182.27 1.6729 0.266506 0
M  V30 1930 O 183.476 1.79547 0.127656 0
M  V30 1931 H 179.851 0.719292 -0.21937 0
M  V30 1932 H 181.822 2.48611 -1.6503 0
M  V30 1933 C 180.571 3.47265 -0.173849 0
M  V30 1934 H 179.894 3.88716 -0.934873 0
M  V30 1935 H 181.334 4.23979 0.0423126 0
M  V30 1936 C 179.793 3.18724 1.09164 0
M  V30 1937 O 180.323 3.37762 2.17439 0
M  V30 1938 N 178.529 2.72583 1.00732 0
M  V30 1939 H 178.076 2.57291 0.126121 0
M  V30 1940 H 178.034 2.53862 1.85476 0
M  V30 1941 N 181.806 0.884767 1.30421 0
M  V30 1942 C 182.769 0.356277 2.26414 0
M  V30 1943 C 183.769 -0.501124 1.52792 0
M  V30 1944 O 184.959 -0.30831 1.7145 0
M  V30 1945 C 182.091 -0.492316 3.37326 0
M  V30 1946 H 183.284 1.20389 2.74675 0
M  V30 1947 H 180.837 0.661607 1.41607 0
M  V30 1948 H 181.572 -1.36052 2.94381 0
M  V30 1949 H 181.357 0.121832 3.91911 0
M  V30 1950 H 182.847 -0.853871 4.08777 0
M  V30 1951 N 183.284 -1.43765 0.645699 0
M  V30 1952 C 184.514 -2.05953 0.163318 0
M  V30 1953 C 184.922 -1.48432 -1.17322 0
M  V30 1954 O 184.265 -0.607295 -1.73371 0
M  V30 1955 C 184.327 -3.59499 -0.0103065 0
M  V30 1956 C 183.991 -4.39563 1.25035 0
M  V30 1957 C 184.988 -4.72108 2.17739 0
M  V30 1958 C 182.673 -4.79697 1.48983 0
M  V30 1959 C 184.667 -5.43688 3.3269 0
M  V30 1960 C 182.354 -5.51023 2.64229 0
M  V30 1961 C 183.352 -5.8294 3.55908 0
M  V30 1962 O 183.04 -6.5281 4.69142 0
M  V30 1963 H 182.772 -0.670798 0.0836986 0
M  V30 1964 H 185.326 -1.85384 0.884407 0
M  V30 1965 H 183.556 -3.78613 -0.78669 0
M  V30 1966 H 185.245 -4.03408 -0.449087 0
M  V30 1967 H 186.011 -4.41627 2.00476 0
M  V30 1968 H 181.89 -4.54266 0.785078 0
M  V30 1969 H 185.434 -5.68517 4.04269 0
M  V30 1970 H 181.331 -5.8092 2.81429 0
M  V30 1971 H 182.099 -6.71288 4.6831 0
M  V30 1972 N 184.763 -0.387143 -1.52771 0
M  V30 1973 C 186.04 0.253197 -1.93954 0
M  V30 1974 C 186.42 1.64545 -1.32243 0
M  V30 1975 O 185.768 2.23191 -0.489699 0
M  V30 1976 C 185.978 0.281722 -3.47861 0
M  V30 1977 C 187.326 0.511715 -4.21505 0
M  V30 1978 O 188.35 0.362023 -3.54356 0
M  V30 1979 O 187.209 0.804847 -5.40541 0
M  V30 1980 H 184.303 0.156845 -0.811991 0
M  V30 1981 H 186.849 -0.441494 -1.63856 0
M  V30 1982 H 185.621 -0.693571 -3.85104 0
M  V30 1983 H 185.244 1.02142 -3.84256 0
M  V30 1984 N 186.241 1.57166 -0.116904 0
M  V30 1985 C 187.189 2.16457 0.851418 0
M  V30 1986 C 188.183 1.11323 1.27686 0
M  V30 1987 O 189.389 1.2963 1.24884 0
M  V30 1988 H 185.764 0.69271 0.292672 0
M  V30 1989 H 187.735 2.96605 0.32685 0
M  V30 1990 C 186.484 2.77689 2.09246 0
M  V30 1991 H 185.807 3.58285 1.77402 0
M  V30 1992 H 187.247 3.22716 2.7501 0
M  V30 1993 C 185.706 1.74667 2.88085 0
M  V30 1994 O 186.236 1.19877 3.83396 0
M  V30 1995 N 184.442 1.44656 2.52038 0
M  V30 1996 H 183.989 1.89402 1.74599 0
M  V30 1997 H 183.947 0.759675 3.05084 0
M  V30 1998 N 187.719 -0.156864 1.56817 0
M  V30 1999 C 188.682 -1.17781 1.96622 0
M  V30 2000 C 189.682 -1.36401 0.851555 0
M  V30 2001 O 190.872 -1.33561 1.11836 0
M  V30 2002 C 188.004 -2.54008 2.27361 0
M  V30 2003 H 189.197 -0.836564 2.87996 0
M  V30 2004 H 186.75 -0.39985 1.51099 0
M  V30 2005 H 187.485 -2.9312 1.38748 0
M  V30 2006 H 187.27 -2.41856 3.08623 0
M  V30 2007 H 188.76 -3.27558 2.59029 0
M  V30 2008 N 189.197 -1.51736 -0.425897 0
M  V30 2009 C 190.127 -1.76827 -1.52494 0
M  V30 2010 C 191.108 -0.618524 -1.58456 0
M  V30 2011 O 192.293 -0.862416 -1.74 0
M  V30 2012 C 189.423 -1.90374 -2.90474 0
M  V30 2013 C 188.377 -3.0588 -2.99369 0
M  V30 2014 C 187.703 -3.04625 -4.3944 0
M  V30 2015 C 189.003 -4.45644 -2.72394 0
M  V30 2016 H 190.697 -2.68855 -1.31748 0
M  V30 2017 H 188.243 -1.29372 -0.632362 0
M  V30 2018 H 190.196 -2.0651 -3.6733 0
M  V30 2019 H 188.92 -0.95004 -3.12477 0
M  V30 2020 H 187.579 -2.89467 -2.24954 0
M  V30 2021 H 187.227 -2.0701 -4.58428 0
M  V30 2022 H 186.927 -3.82195 -4.46319 0
M  V30 2023 H 188.451 -3.22869 -5.18255 0
M  V30 2024 H 189.865 -4.62348 -3.38979 0
M  V30 2025 H 188.262 -5.25006 -2.9067 0
M  V30 2026 H 189.332 -4.54893 -1.67929 0
M  V30 2027 N 190.675 0.682077 -1.42076 0
M  V30 2028 C 191.622 1.79578 -1.44984 0
M  V30 2029 C 192.592 1.6332 -0.302614 0
M  V30 2030 O 193.777 1.83978 -0.505633 0
M  V30 2031 C 190.917 3.1756 -1.35091 0
M  V30 2032 C 190.03 3.45156 -2.59791 0
M  V30 2033 C 189.165 4.72826 -2.42093 0
M  V30 2034 C 188.204 4.93433 -3.62202 0
M  V30 2035 N 187.341 6.12338 -3.43491 0
M  V30 2036 H 192.181 1.76427 -2.40161 0
M  V30 2037 H 189.718 0.861376 -1.19242 0
M  V30 2038 H 191.676 3.97287 -1.27354 0
M  V30 2039 H 190.306 3.19854 -0.435133 0
M  V30 2040 H 189.358 2.59736 -2.77923 0
M  V30 2041 H 190.67 3.5628 -3.49094 0
M  V30 2042 H 189.824 5.60631 -2.319 0
M  V30 2043 H 188.563 4.63973 -1.50268 0
M  V30 2044 H 187.568 4.04073 -3.72834 0
M  V30 2045 H 188.793 5.04136 -4.54998 0
M  V30 2046 H 186.739 6.04672 -2.54377 0
M  V30 2047 H 186.656 6.2429 -4.26377 0
M  V30 2048 H 187.924 7.02841 -3.37097 0
M  V30 2049 N 192.153 1.28127 0.917671 0
M  V30 2050 C 193.085 1.07517 2.02417 0
M  V30 2051 C 194.098 0.0281099 1.62776 0
M  V30 2052 O 195.287 0.270748 1.76435 0
M  V30 2053 C 192.387 0.610957 3.33347 0
M  V30 2054 C 191.56 1.73255 4.01624 0
M  V30 2055 C 190.619 1.26238 5.10833 0
M  V30 2056 O 189.645 1.96389 5.34247 0
M  V30 2057 N 190.847 0.123448 5.80369 0
M  V30 2058 H 193.612 2.02806 2.20658 0
M  V30 2059 H 191.173 1.19827 1.08871 0
M  V30 2060 H 193.165 0.280101 4.0373 0
M  V30 2061 H 191.735 -0.24898 3.11607 0
M  V30 2062 H 190.955 2.23319 3.24842 0
M  V30 2063 H 192.243 2.48503 4.43986 0
M  V30 2064 H 191.641 -0.461847 5.63812 0
M  V30 2065 H 190.198 -0.148158 6.51632 0
M  V30 2066 N 193.631 -1.12557 1.10312 0
M  V30 2067 C 194.563 -2.17971 0.708625 0
M  V30 2068 C 195.576 -1.60806 -0.254027 0
M  V30 2069 O 196.765 -1.78458 -0.0386891 0
M  V30 2070 C 193.865 -3.38891 0.0248198 0
M  V30 2071 C 193.038 -4.25548 1.01132 0
M  V30 2072 C 192.097 -5.24972 0.35924 0
M  V30 2073 O 191.123 -5.60174 1.00965 0
M  V30 2074 N 192.325 -5.73747 -0.882847 0
M  V30 2075 H 195.09 -2.52427 1.61557 0
M  V30 2076 H 192.651 -1.27967 0.991771 0
M  V30 2077 H 194.643 -4.02485 -0.422852 0
M  V30 2078 H 193.213 -3.02596 -0.784514 0
M  V30 2079 H 192.433 -3.58589 1.6373 0
M  V30 2080 H 193.721 -4.80294 1.67914 0
M  V30 2081 H 193.119 -5.4731 -1.43065 0
M  V30 2082 H 191.676 -6.39234 -1.27369 0
M  V30 2083 N 195.109 -0.891671 -1.2995 0
M  V30 2084 C 196.357 -0.512486 -1.95494 0
M  V30 2085 C 196.678 0.942776 -1.70695 0
M  V30 2086 O 195.948 1.66374 -1.03424 0
M  V30 2087 H 194.528 -0.186533 -0.723336 0
M  V30 2088 H 197.19 -1.13621 -1.58355 0
M  V30 2089 H 196.286 -0.688342 -3.04415 0
M  V30 2090 N 196.587 1.43421 -0.653314 0
M  V30 2091 C 197.817 2.05864 -0.174238 0
M  V30 2092 C 198.225 1.49052 1.16534 0
M  V30 2093 O 197.568 0.616481 1.73047 0
M  V30 2094 C 197.63 3.59499 -0.00875873 0
M  V30 2095 C 197.294 4.38893 -1.27364 0
M  V30 2096 C 198.291 4.70947 -2.20239 0
M  V30 2097 C 195.976 4.789 -1.51525 0
M  V30 2098 C 197.97 5.41916 -3.35568 0
M  V30 2099 C 195.657 5.49614 -2.67147 0
M  V30 2100 C 196.655 5.81044 -3.58994 0
M  V30 2101 O 196.343 6.50313 -4.72597 0
M  V30 2102 H 196.075 0.670345 -0.0872549 0
M  V30 2103 H 198.629 1.84913 -0.894226 0
M  V30 2104 H 196.859 3.79025 0.7666 0
M  V30 2105 H 198.548 4.0364 0.427687 0
M  V30 2106 H 199.314 4.40558 -2.02815 0
M  V30 2107 H 195.193 4.53843 -0.809158 0
M  V30 2108 H 198.737 5.66365 -4.07279 0
M  V30 2109 H 194.634 5.79419 -2.84505 0
M  V30 2110 H 195.402 6.68795 -4.71864 0
M  V30 2111 N 198.065 0.39524 1.52563 0
M  V30 2112 C 198.995 -0.428384 2.29537 0
M  V30 2113 C 199.976 -1.05831 1.33169 0
M  V30 2114 O 201.161 -1.06995 1.62067 0
M  V30 2115 C 198.291 -1.55274 3.10656 0
M  V30 2116 C 197.245 -1.04855 4.14957 0
M  V30 2117 C 196.571 -2.26543 4.84337 0
M  V30 2118 C 197.871 -0.112324 5.22179 0
M  V30 2119 H 199.565 0.213867 2.98635 0
M  V30 2120 H 197.111 0.104298 1.43622 0
M  V30 2121 H 199.064 -2.1358 3.63265 0
M  V30 2122 H 197.788 -2.22266 2.39302 0
M  V30 2123 H 196.447 -0.487985 3.63338 0
M  V30 2124 H 196.095 -2.92059 4.09525 0
M  V30 2125 H 195.795 -1.93466 5.54837 0
M  V30 2126 H 197.319 -2.85481 5.39753 0
M  V30 2127 H 198.733 -0.603752 5.70112 0
M  V30 2128 H 197.13 0.128968 5.99961 0
M  V30 2129 H 198.2 0.837052 4.77621 0
M  V30 2130 N 199.544 -1.57102 0.125237 0
M  V30 2131 C 200.492 -2.16905 -0.839927 0
M  V30 2132 C 201.486 -1.11998 -1.27094 0
M  V30 2133 O 202.692 -1.3029 -1.24195 0
M  V30 2134 H 199.067 -0.694252 -0.288995 0
M  V30 2135 H 201.038 -2.96774 -0.311115 0
M  V30 2136 C 199.787 -2.78795 -2.07771 0
M  V30 2137 H 199.11 -3.59221 -1.755 0
M  V30 2138 H 200.55 -3.2417 -2.73295 0
M  V30 2139 C 199.009 -1.76193 -2.87155 0
M  V30 2140 O 199.539 -1.21909 -3.82755 0
M  V30 2141 N 197.745 -1.45991 -2.51267 0
M  V30 2142 H 197.292 -1.90325 -1.73592 0
M  V30 2143 H 197.25 -0.775844 -3.04677 0
M  V30 2144 N 201.022 0.148545 -1.56898 0
M  V30 2145 C 202.271 0.85984 -1.82454 0
M  V30 2146 C 202.584 1.82406 -0.706229 0
M  V30 2147 O 203.79 2.57938 -0.847349 0
M  V30 2148 C 202.246 1.57967 -3.2338 0
M  V30 2149 C 201.854 0.65794 -4.43142 0
M  V30 2150 C 203.598 2.27784 -3.58211 0
M  V30 2151 C 201.505 1.3793 -5.75091 0
M  V30 2152 H 200.435 0.324834 -0.68044 0
M  V30 2153 H 203.086 0.112588 -1.83154 0
M  V30 2154 H 201.468 2.37249 -3.17063 0
M  V30 2155 H 202.642 -0.0995497 -4.60692 0
M  V30 2156 H 200.957 0.0682643 -4.16344 0
M  V30 2157 H 203.554 2.8239 -4.54048 0
M  V30 2158 H 203.897 3.04204 -2.84193 0
M  V30 2159 H 204.43 1.55421 -3.66182 0
M  V30 2160 H 201.169 0.656982 -6.52199 0
M  V30 2161 H 200.689 2.10954 -5.61479 0
M  V30 2162 H 202.368 1.92063 -6.17835 0
M  V30 2163 N 202.5 1.5196 0.417844 0
M  V30 2164 C 203.725 1.69717 1.1921 0
M  V30 2165 C 204.15 0.402148 1.83751 0
M  V30 2166 O 203.508 -0.639593 1.69643 0
M  V30 2167 C 203.556 2.82794 2.2374 0
M  V30 2168 O 202.66 2.47756 3.29683 0
M  V30 2169 H 202.001 0.565263 0.348387 0
M  V30 2170 H 204.531 1.98621 0.490985 0
M  V30 2171 H 204.541 3.07452 2.68212 0
M  V30 2172 H 203.216 3.76756 1.76146 0
M  V30 2173 H 201.793 2.33739 2.90552 0
M  V30 2174 N 203.978 -0.674533 1.42435 0
M  V30 2175 C 204.928 -1.7807 1.4239 0
M  V30 2176 C 205.912 -1.58169 0.295202 0
M  V30 2177 O 207.104 -1.68643 0.537449 0
M  V30 2178 C 204.233 -3.16532 1.32901 0
M  V30 2179 C 203.319 -3.42055 2.50717 0
M  V30 2180 N 203.71 -3.38162 3.76139 0
M  V30 2181 C 202.008 -3.72692 2.44983 0
M  V30 2182 C 202.709 -3.63177 4.54398 0
M  V30 2183 N 201.685 -3.83954 3.84812 0
M  V30 2184 H 205.487 -1.73454 2.37257 0
M  V30 2185 H 203.001 -0.875381 1.36788 0
M  V30 2186 H 204.998 -3.958 1.30951 0
M  V30 2187 H 203.658 -3.22345 0.390363 0
M  V30 2188 H 204.669 -3.18057 4.0873 0
M  V30 2189 H 201.346 -3.85749 1.59699 0
M  V30 2190 H 202.736 -3.66125 5.63384 0
M  V30 2191 N 205.456 -1.28612 -0.910864 0
M  V30 2192 C 206.386 -1.15326 -2.03032 0
M  V30 2193 C 207.367 -0.0502924 -1.70026 0
M  V30 2194 O 208.552 -0.227797 -1.92859 0
M  V30 2195 C 205.682 -0.817343 -3.37545 0
M  V30 2196 C 204.636 -1.8754 -3.84724 0
M  V30 2197 C 203.962 -1.39305 -5.16235 0
M  V30 2198 C 205.262 -3.28244 -4.06267 0
M  V30 2199 H 206.956 -2.08975 -2.14406 0
M  V30 2200 H 204.502 -1.00612 -1.03021 0
M  V30 2201 H 206.455 -0.711151 -4.15356 0
M  V30 2202 H 205.179 0.154846 -3.26233 0
M  V30 2203 H 203.838 -1.97079 -3.09121 0
M  V30 2204 H 203.486 -0.409846 -5.01328 0
M  V30 2205 H 203.186 -2.10057 -5.48771 0
M  V30 2206 H 204.71 -1.30014 -5.96598 0
M  V30 2207 H 206.124 -3.21611 -4.74594 0
M  V30 2208 H 204.521 -3.96855 -4.5014 0
M  V30 2209 H 205.591 -3.72048 -3.10979 0
M  V30 2210 N 206.934 1.1197 -1.10907 0
M  V30 2211 C 207.897 2.16031 -0.765707 0
M  V30 2212 C 208.897 1.59393 0.212235 0
M  V30 2213 O 210.087 1.74196 -0.0115441 0
M  V30 2214 C 207.219 3.40632 -0.135053 0
M  V30 2215 H 208.412 2.47919 -1.68748 0
M  V30 2216 H 205.965 1.27061 -0.910226 0
M  V30 2217 H 206.7 3.14348 0.797218 0
M  V30 2218 H 206.485 3.8302 -0.838937 0
M  V30 2219 H 207.975 4.17505 0.0892469 0
M  V30 2220 N 208.412 0.89855 1.29475 0
M  V30 2221 C 209.64 0.539261 1.99749 0
M  V30 2222 C 210.055 -0.875716 1.67262 0
M  V30 2223 O 209.412 -1.57786 0.917049 0
M  V30 2224 C 209.463 0.72061 3.54245 0
M  V30 2225 O 209.184 2.07989 3.8558 0
M  V30 2226 C 210.685 0.366118 4.41786 0
M  V30 2227 H 207.905 0.207047 0.638258 0
M  V30 2228 H 210.449 1.20758 1.65039 0
M  V30 2229 H 208.604 0.0994862 3.87272 0
M  V30 2230 H 209.018 2.10841 4.80257 0
M  V30 2231 H 210.492 0.543848 5.49314 0
M  V30 2232 H 210.969 -0.696763 4.33638 0
M  V30 2233 H 211.575 0.964135 4.14228 0
M  V30 2234 N 209.89 -1.43072 0.660911 0
M  V30 2235 C 211.115 -2.06584 0.183805 0
M  V30 2236 C 211.54 -1.49257 -1.14472 0
M  V30 2237 O 210.898 -0.605528 -1.70889 0
M  V30 2238 C 210.946 -3.60418 0.114434 0
M  V30 2239 O 210.05 -4.01981 -0.921137 0
M  V30 2240 H 209.391 -0.656669 0.0983994 0
M  V30 2241 H 211.921 -1.83447 0.906006 0
M  V30 2242 H 211.931 -4.07946 -0.0663394 0
M  V30 2243 H 210.606 -4.01519 1.08422 0
M  V30 2244 H 209.183 -3.66029 -0.71253 0
M  V30 2245 N 211.368 -0.403325 -1.52352 0
M  V30 2246 C 212.298 0.416205 -2.29761 0
M  V30 2247 C 213.279 1.05123 -1.33728 0
M  V30 2248 O 214.464 1.06134 -1.62632 0
M  V30 2249 C 211.594 1.53624 -3.11475 0
M  V30 2250 C 210.548 1.02653 -4.15507 0
M  V30 2251 C 209.874 2.23971 -4.85532 0
M  V30 2252 C 211.174 0.08463 -5.22231 0
M  V30 2253 H 212.868 -0.229701 -2.98518 0
M  V30 2254 H 210.414 -0.111913 -1.43564 0
M  V30 2255 H 212.367 2.1165 -3.64393 0
M  V30 2256 H 211.091 2.20994 -2.40477 0
M  V30 2257 H 209.75 0.46871 -3.63591 0
M  V30 2258 H 209.398 2.89883 -4.11068 0
M  V30 2259 H 209.098 1.90521 -5.55856 0
M  V30 2260 H 210.622 2.82614 -5.41259 0
M  V30 2261 H 212.036 0.573509 -5.70424 0
M  V30 2262 H 210.433 -0.160783 -5.99885 0
M  V30 2263 H 211.503 -0.86237 -4.7717 0
M  V30 2264 N 212.846 1.57033 -0.133567 0
M  V30 2265 C 214.093 1.95686 0.520877 0
M  V30 2266 C 214.421 1.0177 1.6575 0
M  V30 2267 O 213.676 0.0443195 1.9565 0
M  V30 2268 C 213.975 3.40674 1.08057 0
M  V30 2269 C 213.641 4.50855 0.0637899 0
M  V30 2270 C 212.303 4.80716 -0.215757 0
M  V30 2271 C 214.655 5.17398 -0.62835 0
M  V30 2272 C 211.983 5.74433 -1.19348 0
M  V30 2273 C 214.335 6.12167 -1.5948 0
M  V30 2274 C 212.999 6.40414 -1.88218 0
M  V30 2275 H 212.269 0.716067 0.190602 0
M  V30 2276 H 214.916 1.9026 -0.217556 0
M  V30 2277 H 213.221 3.42865 1.89606 0
M  V30 2278 H 214.918 3.67902 1.59529 0
M  V30 2279 H 211.508 4.27605 0.291855 0
M  V30 2280 H 215.692 4.94472 -0.425562 0
M  V30 2281 H 210.948 5.94616 -1.42272 0
M  V30 2282 H 215.122 6.6281 -2.13671 0
M  V30 2283 H 212.749 7.12838 -2.64133 0
M  V30 2284 N 214.325 -0.140222 1.56975 0
M  V30 2285 C 215.571 -0.852949 1.83991 0
M  V30 2286 C 215.904 -1.80512 0.716187 0
M  V30 2287 O 215.179 -1.92479 -0.279681 0
M  V30 2288 C 215.462 -1.6215 3.21527 0
M  V30 2289 C 215.315 -0.690363 4.4447 0
M  V30 2290 C 216.634 -2.58247 3.56366 0
M  V30 2291 H 213.753 -0.308634 0.669264 0
M  V30 2292 H 216.395 -0.117898 1.89634 0
M  V30 2293 H 214.545 -2.24812 3.16847 0
M  V30 2294 H 216.217 -0.0742264 4.6124 0
M  V30 2295 H 214.46 -0.000396433 4.338 0
M  V30 2296 H 215.131 -1.2643 5.37326 0
M  V30 2297 H 217.607 -2.05701 3.61699 0
M  V30 2298 H 216.483 -3.09067 4.53617 0
M  V30 2299 H 216.744 -3.39923 2.82674 0
M  V30 2300 N 215.803 -1.52179 -0.40978 0
M  V30 2301 C 217.214 -1.58377 -0.988615 0
M  V30 2302 C 217.565 -0.423879 -1.91566 0
M  V30 2303 O 216.69 0.455844 -2.11544 0
M  V30 2304 C 217.285 -2.87044 -1.79976 0
M  V30 2305 C 215.844 -2.95722 -2.32863 0
M  V30 2306 C 214.991 -2.53309 -1.12828 0
M  V30 2307 H 217.942 -1.57558 -0.190039 0
M  V30 2308 H 217.963 -2.7236 -2.65707 0
M  V30 2309 H 217.475 -3.71444 -1.12478 0
M  V30 2310 H 215.576 -2.15814 -3.03735 0
M  V30 2311 H 215.689 -3.99951 -2.63773 0
M  V30 2312 H 214.053 -2.07142 -1.48204 0
M  V30 2313 H 214.836 -3.40082 -0.46897 0
M  V30 2314 N 217.281 0.66697 -1.42791 0
M  V30 2315 C 218.211 1.79218 -1.49677 0
M  V30 2316 C 219.192 1.66405 -0.352623 0
M  V30 2317 O 220.377 1.85708 -0.567993 0
M  V30 2318 C 217.507 3.17565 -1.40605 0
M  V30 2319 C 216.461 3.45124 -2.53127 0
M  V30 2320 C 215.787 4.83127 -2.29112 0
M  V30 2321 C 217.087 3.41236 -3.95418 0
M  V30 2322 H 218.781 1.73713 -2.43853 0
M  V30 2323 H 216.327 0.83432 -1.17367 0
M  V30 2324 H 218.28 3.96022 -1.44029 0
M  V30 2325 H 217.004 3.23767 -0.429271 0
M  V30 2326 H 215.663 2.69031 -2.49034 0
M  V30 2327 H 215.311 4.85988 -1.29709 0
M  V30 2328 H 215.011 5.02528 -3.04531 0
M  V30 2329 H 216.535 5.63859 -2.34297 0
M  V30 2330 H 217.949 4.09651 -4.01073 0
M  V30 2331 H 216.346 3.72173 -4.70752 0
M  V30 2332 H 217.416 2.39665 -4.21532 0
M  V30 2333 N 218.759 1.29093 0.90403 0
M  V30 2334 C 220.008 1.16187 1.64874 0
M  V30 2335 C 220.321 -0.286742 1.93487 0
M  V30 2336 O 221.527 -0.537062 2.66135 0
M  V30 2337 C 219.983 2.03177 2.97064 0
M  V30 2338 C 219.591 3.52836 2.76062 0
M  V30 2339 C 221.335 1.98984 3.74974 0
M  V30 2340 C 219.242 4.31945 4.03952 0
M  V30 2341 H 218.172 0.431246 0.618501 0
M  V30 2342 H 220.823 1.53699 1.00243 0
M  V30 2343 H 219.205 1.5853 3.62883 0
M  V30 2344 H 220.379 4.05507 2.18863 0
M  V30 2345 H 218.694 3.58656 2.11553 0
M  V30 2346 H 221.291 2.55351 4.69787 0
M  V30 2347 H 221.634 0.968815 4.0487 0
M  V30 2348 H 222.167 2.41652 3.15989 0
M  V30 2349 H 218.906 5.34667 3.79225 0
M  V30 2350 H 218.426 3.84045 4.60727 0
M  V30 2351 H 220.105 4.42379 4.72133 0
M  V30 2352 N 220.237 -1.11381 1.11499 0
M  V30 2353 C 221.147 -2.21019 0.786628 0
M  V30 2354 C 222.163 -1.72597 -0.220507 0
M  V30 2355 O 223.339 -2.01321 -0.0565251 0
M  V30 2356 C 220.404 -3.459 0.235333 0
M  V30 2357 C 219.465 -4.09107 1.30115 0
M  V30 2358 C 218.698 -5.28027 0.776068 0
M  V30 2359 O 218.921 -5.6904 -0.393661 0
M  V30 2360 O 217.855 -5.81835 1.54114 0
M  V30 2361 H 221.681 -2.51521 1.70209 0
M  V30 2362 H 219.266 -1.19928 0.890928 0
M  V30 2363 H 221.148 -4.21346 -0.067715 0
M  V30 2364 H 219.823 -3.17049 -0.652828 0
M  V30 2365 H 218.73 -3.35391 1.65722 0
M  V30 2366 H 220.063 -4.42139 2.16273 0
M  V30 2367 N 221.715 -0.905404 -1.28997 0
M  V30 2368 C 222.625 -0.392246 -2.31298 0
M  V30 2369 C 223.641 0.515889 -1.66176 0
M  V30 2370 O 224.817 0.404093 -1.97304 0
M  V30 2371 C 221.882 0.36686 -3.44754 0
M  V30 2372 C 220.943 -0.573485 -4.25452 0
M  V30 2373 C 220.176 0.149488 -5.33491 0
M  V30 2374 O 220.399 1.37255 -5.5364 0
M  V30 2375 O 219.333 -0.510919 -5.99728 0
M  V30 2376 H 223.159 -1.2411 -2.77183 0
M  V30 2377 H 220.744 -0.669926 -1.33538 0
M  V30 2378 H 222.626 0.795907 -4.13816 0
M  V30 2379 H 221.301 1.19169 -3.00966 0
M  V30 2380 H 220.208 -1.05176 -3.59011 0
M  V30 2381 H 221.541 -1.36489 -4.72897 0
M  V30 2382 N 223.193 1.4272 -0.668489 0
M  V30 2383 C 224.418 2.06484 -0.194758 0
M  V30 2384 C 224.843 1.49862 1.13679 0
M  V30 2385 O 224.201 0.614582 1.70565 0
M  V30 2386 C 224.249 3.60353 -0.133546 0
M  V30 2387 O 223.353 4.02464 0.899806 0
M  V30 2388 H 222.694 0.656137 -0.10188 0
M  V30 2389 H 225.224 1.82964 -0.915722 0
M  V30 2390 H 225.234 4.07976 0.0447041 0
M  V30 2391 H 223.909 4.00938 -1.1055 0
M  V30 2392 H 222.486 3.66402 0.693109 0
M  V30 2393 N 224.671 0.411399 1.52136 0
M  V30 2394 C 225.92 -0.165009 2.01024 0
M  V30 2395 C 226.233 -1.4603 1.30133 0
M  V30 2396 O 227.439 -2.1181 1.69849 0
M  V30 2397 C 225.895 -0.344618 3.58246 0
M  V30 2398 C 225.503 0.938716 4.38055 0
M  V30 2399 C 227.247 -0.876195 4.15359 0
M  V30 2400 C 225.154 0.726172 5.86925 0
M  V30 2401 H 224.084 -0.0654407 0.751155 0
M  V30 2402 H 226.735 0.537192 1.75461 0
M  V30 2403 H 225.117 -1.10921 3.80148 0
M  V30 2404 H 226.291 1.70963 4.27912 0
M  V30 2405 H 224.606 1.39688 3.92271 0
M  V30 2406 H 227.203 -1.05128 5.24263 0
M  V30 2407 H 227.546 -1.85152 3.7286 0
M  V30 2408 H 228.079 -0.170607 3.97434 0
M  V30 2409 H 224.818 1.67312 6.33788 0
M  V30 2410 H 224.338 -0.00540283 5.998 0
M  V30 2411 H 226.017 0.369231 6.45946 0
M  V30 2412 N 226.149 -1.5696 0.141893 0
M  V30 2413 C 227.079 -2.19516 -0.795936 0
M  V30 2414 C 228.06 -1.14187 -1.26077 0
M  V30 2415 O 229.245 -1.42511 -1.31925 0
M  V30 2416 C 226.375 -2.81272 -2.03723 0
M  V30 2417 C 225.329 -3.92384 -1.70936 0
M  V30 2418 C 224.655 -4.41052 -3.02287 0
M  V30 2419 C 225.955 -5.13403 -0.959954 0
M  V30 2420 H 227.649 -2.98138 -0.274596 0
M  V30 2421 H 225.195 -1.43406 -0.130636 0
M  V30 2422 H 227.148 -3.237 -2.69808 0
M  V30 2423 H 225.872 -1.99973 -2.58221 0
M  V30 2424 H 224.531 -3.50566 -1.07232 0
M  V30 2425 H 224.179 -3.56582 -3.54765 0
M  V30 2426 H 223.879 -5.15993 -2.81114 0
M  V30 2427 H 225.403 -4.86146 -3.69451 0
M  V30 2428 H 226.817 -5.52706 -1.52279 0
M  V30 2429 H 225.214 -5.94073 -0.848357 0
M  V30 2430 H 226.284 -4.84875 0.0492434 0
M  V30 2431 N 227.627 0.131896 -1.57047 0
M  V30 2432 C 228.537 1.1815 -2.02676 0
M  V30 2433 C 229.553 1.46113 -0.944824 0
M  V30 2434 O 230.729 1.57485 -1.25541 0
M  V30 2435 C 227.794 2.49139 -2.41103 0
M  V30 2436 C 226.855 2.28688 -3.63318 0
M  V30 2437 C 226.088 3.53431 -3.99903 0
M  V30 2438 O 226.311 4.60223 -3.36973 0
M  V30 2439 O 225.245 3.45198 -4.93074 0
M  V30 2440 H 229.071 0.824069 -2.92306 0
M  V30 2441 H 226.656 0.341745 -1.45439 0
M  V30 2442 H 228.538 3.26338 -2.66611 0
M  V30 2443 H 227.213 2.84382 -1.54624 0
M  V30 2444 H 226.12 1.4939 -3.42977 0
M  V30 2445 H 227.453 1.98355 -4.50462 0
M  V30 2446 N 229.106 1.52395 0.401703 0
M  V30 2447 C 230.354 1.66488 1.14569 0
M  V30 2448 C 230.675 0.400897 1.90835 0
M  V30 2449 O 229.945 -0.584415 1.8698 0
M  V30 2450 H 228.525 0.613672 0.425929 0
M  V30 2451 H 231.187 1.89464 0.457093 0
M  V30 2452 H 230.283 2.50942 1.85566 0
M  V30 2453 N 230.584 -0.659388 1.43143 0
M  V30 2454 C 231.494 -1.80167 1.50256 0
M  V30 2455 C 232.51 -1.69571 0.390106 0
M  V30 2456 O 233.686 -1.90849 0.643319 0
M  V30 2457 C 230.751 -3.16409 1.41725 0
M  V30 2458 C 229.812 -3.38848 2.63591 0
M  V30 2459 C 229.045 -4.68591 2.55458 0
M  V30 2460 O 229.268 -5.47532 1.59891 0
M  V30 2461 O 228.202 -4.92614 3.45854 0
M  V30 2462 H 232.028 -1.77121 2.46702 0
M  V30 2463 H 229.613 -0.817092 1.25076 0
M  V30 2464 H 231.495 -3.9768 1.39387 0
M  V30 2465 H 230.17 -3.20059 0.484118 0
M  V30 2466 H 229.077 -2.57366 2.71502 0
M  V30 2467 H 230.41 -3.4004 3.55856 0
M  V30 2468 N 232.062 -1.29571 -0.897171 0
M  V30 2469 C 232.992 -1.17473 -2.01798 0
M  V30 2470 C 233.973 -0.068323 -1.69963 0
M  V30 2471 O 235.158 -0.248239 -1.92607 0
M  V30 2472 C 232.288 -0.853099 -3.36659 0
M  V30 2473 C 231.242 -1.9161 -3.82713 0
M  V30 2474 C 230.568 -1.44773 -5.14728 0
M  V30 2475 C 231.868 -3.32535 -4.02763 0
M  V30 2476 H 233.562 -2.11237 -2.12177 0
M  V30 2477 H 231.108 -1.01699 -1.01948 0
M  V30 2478 H 233.061 -0.755165 -4.14578 0
M  V30 2479 H 231.785 0.120236 -3.26379 0
M  V30 2480 H 230.444 -2.00346 -3.07013 0
M  V30 2481 H 230.092 -0.462995 -5.00865 0
M  V30 2482 H 229.792 -2.15865 -5.46513 0
M  V30 2483 H 231.316 -1.36334 -5.95185 0
M  V30 2484 H 232.73 -3.26626 -4.71156 0
M  V30 2485 H 231.127 -4.01607 -4.45905 0
M  V30 2486 H 232.197 -3.75326 -3.07016 0
M  V30 2487 N 233.54 1.10788 -1.12088 0
M  V30 2488 C 234.47 2.19083 -0.807755 0
M  V30 2489 C 235.451 1.6858 0.226859 0
M  V30 2490 O 236.636 1.93997 0.0888475 0
M  V30 2491 C 233.766 3.46344 -0.257576 0
M  V30 2492 C 232.72 4.101 -1.22483 0
M  V30 2493 C 232.046 5.32016 -0.535052 0
M  V30 2494 C 233.346 4.54236 -2.57811 0
M  V30 2495 H 235.04 2.45534 -1.71328 0
M  V30 2496 H 232.586 1.1801 -0.825205 0
M  V30 2497 H 234.539 4.21392 -0.0262679 0
M  V30 2498 H 233.263 3.19373 0.683278 0
M  V30 2499 H 231.922 3.37054 -1.44189 0
M  V30 2500 H 231.57 5.01319 0.410827 0
M  V30 2501 H 231.27 5.75625 -1.18024 0
M  V30 2502 H 232.794 6.09799 -0.312695 0
M  V30 2503 H 234.208 5.20575 -2.40155 0
M  V30 2504 H 232.605 5.08682 -3.18375 0
M  V30 2505 H 233.675 3.6734 -3.16528 0
M  V30 2506 N 235.018 0.912232 1.28515 0
M  V30 2507 C 235.928 0.404506 2.31086 0
M  V30 2508 C 236.944 -0.50707 1.66448 0
M  V30 2509 O 238.12 -0.393624 1.97516 0
M  V30 2510 C 235.185 -0.348572 3.44943 0
M  V30 2511 C 234.246 0.59604 4.25142 0
M  V30 2512 C 233.479 -0.121194 5.33562 0
M  V30 2513 O 233.702 -1.34317 5.5436 0
M  V30 2514 O 232.636 0.542716 5.99448 0
M  V30 2515 H 236.462 1.25579 2.76521 0
M  V30 2516 H 234.047 0.676998 1.33181 0
M  V30 2517 H 235.929 -0.77395 4.14232 0
M  V30 2518 H 234.604 -1.17571 3.01594 0
M  V30 2519 H 233.511 1.07079 3.58448 0
M  V30 2520 H 234.844 1.38995 4.72167 0
M  V30 2521 N 236.496 -1.42363 0.676048 0
M  V30 2522 C 237.724 -2.05859 0.207268 0
M  V30 2523 C 238.139 -1.50796 -1.13605 0
M  V30 2524 O 237.496 -0.648265 -1.70598 0
M  V30 2525 C 237.547 -3.61248 0.134975 0
M  V30 2526 O 237.268 -4.1427 1.42521 0
M  V30 2527 C 238.769 -4.41859 -0.357151 0
M  V30 2528 H 235.989 -0.663431 0.100503 0
M  V30 2529 H 238.533 -1.82479 0.923136 0
M  V30 2530 H 236.688 -3.83735 -0.531588 0
M  V30 2531 H 237.102 -5.0815 1.29939 0
M  V30 2532 H 238.576 -5.50847 -0.356641 0
M  V30 2533 H 239.053 -4.16536 -1.39264 0
M  V30 2534 H 239.659 -4.24392 0.27772 0
M  V30 2535 N 237.974 -0.419461 -1.51915 0
M  V30 2536 C 239.214 0.152336 -2.03832 0
M  V30 2537 C 239.578 1.41501 -1.29775 0
M  V30 2538 O 240.779 2.06591 -1.7197 0
M  V30 2539 C 239.05 0.383812 -3.55333 0
M  V30 2540 S 240.609 0.921577 -4.29013 0
M  V30 2541 H 237.427 0.0402193 -0.709862 0
M  V30 2542 H 240.029 -0.574758 -1.8686 0
M  V30 2543 H 238.733 -0.541794 -4.06808 0
M  V30 2544 H 238.264 1.13849 -3.76566 0
M  V30 2545 H 240.279 2.20108 -4.4471 0
M  V30 2546 N 239.452 1.56882 -0.150215 0
M  V30 2547 C 240.385 2.12712 0.826358 0
M  V30 2548 C 241.363 1.05154 1.24022 0
M  V30 2549 O 242.547 1.33004 1.33575 0
M  V30 2550 C 239.674 2.64945 2.11002 0
M  V30 2551 C 238.72 3.8468 1.84183 0
M  V30 2552 S 239.553 5.25502 1.02995 0
M  V30 2553 C 240.709 5.81125 2.32474 0
M  V30 2554 H 240.942 2.95214 0.351598 0
M  V30 2555 H 238.475 1.54267 0.0641211 0
M  V30 2556 H 240.433 2.95689 2.84742 0
M  V30 2557 H 239.094 1.82568 2.55593 0
M  V30 2558 H 238.287 4.19482 2.79375 0
M  V30 2559 H 237.889 3.54714 1.1855 0
M  V30 2560 H 240.181 5.92753 3.281 0
M  V30 2561 H 241.124 6.78625 2.02171 0
M  V30 2562 H 241.532 5.09392 2.43269 0
M  V30 2563 N 240.93 -0.123565 1.57115 0
M  V30 2564 C 241.88 -1.1575 1.96433 0
M  V30 2565 C 242.864 -1.37313 0.838686 0
M  V30 2566 O 244.056 -1.38482 1.10235 0
M  V30 2567 C 241.185 -2.48526 2.36833 0
M  V30 2568 C 240.271 -2.30457 3.5602 0
M  V30 2569 N 240.662 -1.8219 4.71848 0
M  V30 2570 C 238.96 -2.61129 3.61563 0
M  V30 2571 C 239.661 -1.77721 5.53886 0
M  V30 2572 N 238.637 -2.21899 4.96248 0
M  V30 2573 H 242.439 -0.776797 2.83449 0
M  V30 2574 H 239.953 -0.331364 1.58983 0
M  V30 2575 H 241.95 -3.233 2.63216 0
M  V30 2576 H 240.61 -2.87358 1.5118 0
M  V30 2577 H 241.621 -1.51805 4.95152 0
M  V30 2578 H 238.298 -3.03678 2.86507 0
M  V30 2579 H 239.688 -1.41697 6.56789 0
M  V30 2580 N 242.408 -1.52605 -0.393616 0
M  V30 2581 C 243.638 -1.71046 -1.15874 0
M  V30 2582 C 244.046 -0.426483 -1.84331 0
M  V30 2583 O 243.389 0.608513 -1.73329 0
M  V30 2584 C 243.451 -2.80118 -2.25332 0
M  V30 2585 C 243.115 -4.21381 -1.76881 0
M  V30 2586 C 244.112 -5.04697 -1.24808 0
M  V30 2587 C 241.797 -4.67683 -1.83244 0
M  V30 2588 C 243.791 -6.32393 -0.797387 0
M  V30 2589 C 241.478 -5.95364 -1.37787 0
M  V30 2590 C 242.476 -6.77549 -0.861208 0
M  V30 2591 O 242.164 -8.02837 -0.413252 0
M  V30 2592 H 241.896 -0.576155 -0.353583 0
M  V30 2593 H 244.45 -2.00018 -0.467123 0
M  V30 2594 H 242.68 -2.46557 -2.97904 0
M  V30 2595 H 244.369 -2.87006 -2.87023 0
M  V30 2596 H 245.135 -4.70111 -1.19252 0
M  V30 2597 H 241.014 -4.03805 -2.22401 0
M  V30 2598 H 244.558 -6.9649 -0.393437 0
M  V30 2599 H 240.455 -6.29455 -1.43026 0
M  V30 2600 H 241.223 -8.16749 -0.53515 0
M  V30 2601 N 243.887 0.651787 -1.4349 0
M  V30 2602 C 245.117 1.43728 -1.48411 0
M  V30 2603 C 245.525 1.8893 -0.10103 0
M  V30 2604 O 244.868 1.60182 0.899307 0
M  V30 2605 C 244.93 2.70411 -2.36893 0
M  V30 2606 C 244.594 2.4714 -3.8441 0
M  V30 2607 C 245.591 2.10271 -4.75481 0
M  V30 2608 C 243.276 2.6142 -4.28912 0
M  V30 2609 C 245.27 1.87982 -6.0905 0
M  V30 2610 C 242.957 2.38746 -5.62533 0
M  V30 2611 C 243.955 2.02083 -6.5242 0
M  V30 2612 O 243.643 1.79647 -7.8357 0
M  V30 2613 H 243.375 0.447962 -0.506267 0
M  V30 2614 H 245.929 0.80624 -1.88915 0
M  V30 2615 H 244.159 3.36079 -1.91278 0
M  V30 2616 H 245.848 3.32364 -2.33 0
M  V30 2617 H 246.614 1.98814 -4.42378 0
M  V30 2618 H 242.493 2.88931 -3.59222 0
M  V30 2619 H 246.037 1.5929 -6.7917 0
M  V30 2620 H 241.934 2.49806 -5.95203 0
M  V30 2621 H 242.702 1.9406 -7.95162 0
M  V30 2622 N 245.365 1.30045 0.890287 0
M  V30 2623 C 246.612 1.18561 1.64163 0
M  V30 2624 C 246.94 -0.260852 1.92743 0
M  V30 2625 O 246.195 -1.20376 1.54299 0
M  V30 2626 C 246.494 1.95409 2.99249 0
M  V30 2627 C 246.16 3.45066 2.90242 0
M  V30 2628 C 244.822 3.85878 2.87492 0
M  V30 2629 C 247.174 4.4039 2.78758 0
M  V30 2630 C 244.502 5.20314 2.7109 0
M  V30 2631 C 246.854 5.74928 2.63894 0
M  V30 2632 C 245.518 6.14986 2.59516 0
M  V30 2633 H 244.788 0.433846 0.600715 0
M  V30 2634 H 247.435 1.61088 1.03552 0
M  V30 2635 H 245.74 1.45501 3.63781 0
M  V30 2636 H 247.437 1.8392 3.56334 0
M  V30 2637 H 244.027 3.12631 2.93189 0
M  V30 2638 H 248.211 4.09806 2.79952 0
M  V30 2639 H 243.467 5.50449 2.66112 0
M  V30 2640 H 247.641 6.48434 2.53981 0
M  V30 2641 H 245.268 7.19104 2.46565 0
M  V30 2642 N 246.843 -1.10192 1.12674 0
M  V30 2643 C 248.071 -1.85983 0.906527 0
M  V30 2644 C 248.486 -1.80783 -0.544333 0
M  V30 2645 O 247.843 -1.19834 -1.37645 0
M  V30 2646 C 247.894 -3.34281 1.37618 0
M  V30 2647 O 247.615 -3.39401 2.77017 0
M  V30 2648 C 249.116 -4.26938 1.19325 0
M  V30 2649 H 246.336 -0.587716 0.323775 0
M  V30 2650 H 248.88 -1.39284 1.49734 0
M  V30 2651 H 247.035 -3.78436 0.828539 0
M  V30 2652 H 247.449 -4.31838 2.97684 0
M  V30 2653 H 248.923 -5.29181 1.57071 0
M  V30 2654 H 249.4 -4.38995 0.134097 0
M  V30 2655 H 250.006 -3.8859 1.72852 0
M  V30 2656 N 248.321 -0.919034 -1.28029 0
M  V30 2657 C 249.732 -0.600735 -1.76771 0
M  V30 2658 C 250.083 0.884024 -1.75156 0
M  V30 2659 O 249.208 1.69163 -1.34956 0
M  V30 2660 C 249.803 -1.08372 -3.21 0
M  V30 2661 C 248.362 -0.816248 -3.67443 0
M  V30 2662 C 247.509 -1.24742 -2.47658 0
M  V30 2663 H 250.46 -1.09974 -1.14418 0
M  V30 2664 H 250.481 -0.427512 -3.78091 0
M  V30 2665 H 249.993 -2.16437 -3.22144 0
M  V30 2666 H 248.094 0.250968 -3.71754 0
M  V30 2667 H 248.207 -1.4277 -4.57333 0
M  V30 2668 H 246.571 -0.666083 -2.45836 0
M  V30 2669 H 247.354 -2.33653 -2.51518 0
M  V30 2670 N 249.799 1.42003 -0.683588 0
M  V30 2671 C 250.729 2.33487 -0.024866 0
M  V30 2672 C 251.71 1.51163 0.779975 0
M  V30 2673 O 252.895 1.79739 0.735362 0
M  V30 2674 C 250.025 3.3487 0.920836 0
M  V30 2675 C 248.979 4.27414 0.223958 0
M  V30 2676 C 248.305 5.19074 1.2832 0
M  V30 2677 C 249.605 5.14445 -0.90242 0
M  V30 2678 H 251.299 2.88819 -0.788921 0
M  V30 2679 H 248.845 1.38873 -0.38083 0
M  V30 2680 H 250.798 3.97787 1.39081 0
M  V30 2681 H 249.522 2.77861 1.71642 0
M  V30 2682 H 248.181 3.65904 -0.225864 0
M  V30 2683 H 247.829 4.58387 2.071 0
M  V30 2684 H 247.529 5.81822 0.821995 0
M  V30 2685 H 249.053 5.84867 1.75392 0
M  V30 2686 H 250.467 5.70998 -0.513272 0
M  V30 2687 H 248.864 5.86072 -1.28997 0
M  V30 2688 H 249.934 4.52322 -1.74737 0
M  V30 2689 N 251.277 0.427512 1.51691 0
M  V30 2690 C 252.187 -0.39527 2.31246 0
M  V30 2691 C 253.203 -1.03674 1.39742 0
M  V30 2692 O 254.379 -1.03425 1.72816 0
M  V30 2693 C 251.444 -1.48706 3.13189 0
M  V30 2694 C 250.505 -0.866743 4.20459 0
M  V30 2695 C 249.738 -1.90651 4.98486 0
M  V30 2696 O 249.961 -3.12733 4.77026 0
M  V30 2697 O 248.895 -1.5025 5.82845 0
M  V30 2698 H 252.721 0.253918 3.02637 0
M  V30 2699 H 250.306 0.190274 1.48183 0
M  V30 2700 H 252.188 -2.12047 3.64162 0
M  V30 2701 H 250.863 -2.12051 2.44573 0
M  V30 2702 H 249.77 -0.195544 3.73589 0
M  V30 2703 H 251.103 -0.276934 4.9142 0
M  V30 2704 N 252.755 -1.56801 0.158532 0
M  V30 2705 C 254.004 -1.95665 -0.489702 0
M  V30 2706 C 254.317 -1.04654 -1.65248 0
M  V30 2707 O 255.523 -1.33146 -2.3661 0
M  V30 2708 C 253.979 -3.47874 -0.922582 0
M  V30 2709 C 253.587 -4.47489 0.213893 0
M  V30 2710 C 255.331 -3.95583 -1.53996 0
M  V30 2711 C 253.238 -5.90921 -0.237903 0
M  V30 2712 H 252.168 -0.730516 -0.186716 0
M  V30 2713 H 254.819 -1.81861 0.244722 0
M  V30 2714 H 253.201 -3.57051 -1.71261 0
M  V30 2715 H 254.375 -4.50017 0.991036 0
M  V30 2716 H 252.69 -4.09764 0.740407 0
M  V30 2717 H 255.287 -5.0019 -1.8898 0
M  V30 2718 H 255.63 -3.37789 -2.43319 0
M  V30 2719 H 256.163 -3.8937 -0.814611 0
M  V30 2720 H 252.902 -6.52559 0.620236 0
M  V30 2721 H 252.422 -5.91729 -0.980676 0
M  V30 2722 H 254.101 -6.43352 -0.686067 0
M  V30 2723 N 254.233 0.115231 -1.57178 0
M  V30 2724 C 255.163 1.1423 -2.03651 0
M  V30 2725 C 256.144 1.42967 -0.921655 0
M  V30 2726 O 257.329 1.53343 -1.19162 0
M  V30 2727 C 254.459 2.4675 -2.44401 0
M  V30 2728 C 253.413 2.32467 -3.59365 0
M  V30 2729 C 252.739 3.69984 -3.86026 0
M  V30 2730 C 254.039 1.78203 -4.90959 0
M  V30 2731 H 255.733 0.755749 -2.89705 0
M  V30 2732 H 253.279 0.362093 -1.39373 0
M  V30 2733 H 255.232 3.18854 -2.75517 0
M  V30 2734 H 253.956 2.87302 -1.55322 0
M  V30 2735 H 252.615 1.62811 -3.28463 0
M  V30 2736 H 252.263 4.08028 -2.94147 0
M  V30 2737 H 251.963 3.61279 -4.63412 0
M  V30 2738 H 253.487 4.43587 -4.19599 0
M  V30 2739 H 254.901 2.40128 -5.20587 0
M  V30 2740 H 253.298 1.8031 -5.72371 0
M  V30 2741 H 254.368 0.739876 -4.79222 0
M  V30 2742 N 255.711 1.52812 0.385517 0
M  V30 2743 C 257.122 1.5993 0.963293 0
M  V30 2744 C 257.473 0.454302 1.90868 0
M  V30 2745 O 256.598 -0.422132 2.12243 0
M  V30 2746 C 257.193 2.89871 1.75387 0
M  V30 2747 C 255.752 2.99389 2.28129 0
M  V30 2748 C 254.899 2.55071 1.08783 0
M  V30 2749 H 257.85 1.5784 0.164948 0
M  V30 2750 H 257.871 2.76553 2.61341 0
M  V30 2751 H 257.383 3.73186 1.06554 0
M  V30 2752 H 255.484 2.20619 3.00263 0
M  V30 2753 H 255.597 4.04096 2.57377 0
M  V30 2754 H 253.961 2.09473 1.4489 0
M  V30 2755 H 254.744 3.40785 0.414807 0
M  V30 2756 N 257.189 -0.644168 1.43834 0
M  V30 2757 C 258.099 -1.78563 1.52159 0
M  V30 2758 C 259.115 -1.69147 0.408069 0
M  V30 2759 O 260.291 -1.90156 0.663524 0
M  V30 2760 C 257.356 -3.14888 1.45073 0
M  V30 2761 C 256.417 -3.36034 2.6717 0
M  V30 2762 C 255.65 -4.65855 2.60413 0
M  V30 2763 O 255.873 -5.45805 1.65689 0
M  V30 2764 O 254.807 -4.88918 3.5106 0
M  V30 2765 H 258.633 -1.74494 2.48567 0
M  V30 2766 H 256.218 -0.80378 1.25935 0
M  V30 2767 H 258.1 -3.96179 1.43597 0
M  V30 2768 H 256.775 -3.19528 0.518037 0
M  V30 2769 H 255.682 -2.54472 2.74217 0
M  V30 2770 H 257.015 -3.36247 3.59442 0
M  V30 2771 N 258.668 -1.30515 -0.883378 0
M  V30 2772 C 259.914 -1.19607 -1.63774 0
M  V30 2773 C 260.247 0.248314 -1.92606 0
M  V30 2774 O 259.522 1.17742 -1.54813 0
M  V30 2775 C 259.805 -2.02669 -2.97653 0
M  V30 2776 C 259.658 -3.55335 -2.75784 0
M  V30 2777 C 260.977 -1.86573 -3.98596 0
M  V30 2778 H 258.096 -0.435856 -0.594305 0
M  V30 2779 H 260.738 -1.60165 -1.02212 0
M  V30 2780 H 258.888 -1.68208 -3.50197 0
M  V30 2781 H 260.56 -3.99863 -2.30016 0
M  V30 2782 H 258.803 -3.79438 -2.1026 0
M  V30 2783 H 259.474 -4.08745 -3.70988 0
M  V30 2784 H 261.95 -2.16703 -3.55217 0
M  V30 2785 H 260.826 -2.47014 -4.90179 0
M  V30 2786 H 261.087 -0.825321 -4.34328 0
M  V30 2787 N 260.146 1.09593 -1.13257 0
M  V30 2788 C 261.395 1.81105 -0.887917 0
M  V30 2789 C 261.708 1.86563 0.587672 0
M  V30 2790 O 262.914 2.54367 0.949204 0
M  V30 2791 C 261.37 3.25338 -1.53895 0
M  V30 2792 C 260.978 3.28151 -3.04994 0
M  V30 2793 C 262.722 4.01617 -1.37492 0
M  V30 2794 C 260.629 4.66897 -3.6299 0
M  V30 2795 H 259.559 0.678661 -0.328534 0
M  V30 2796 H 262.21 1.23183 -1.36008 0
M  V30 2797 H 260.592 3.8331 -0.994446 0
M  V30 2798 H 261.766 2.79953 -3.66009 0
M  V30 2799 H 260.081 2.65361 -3.20893 0
M  V30 2800 H 262.678 5.04119 -1.78235 0
M  V30 2801 H 263.021 4.15072 -0.31957 0
M  V30 2802 H 263.554 3.50082 -1.88912 0
M  V30 2803 H 260.293 4.58643 -4.68323 0
M  V30 2804 H 259.813 5.15426 -3.06752 0
M  V30 2805 H 261.492 5.3587 -3.62563 0
M  V30 2806 N 261.624 0.925811 1.2754 0
M  V30 2807 C 262.873 0.561084 1.93739 0
M  V30 2808 C 263.186 -0.901685 1.73577 0
M  V30 2809 O 264.392 -1.37511 2.34101 0
M  V30 2810 C 262.848 0.952668 3.47062 0
M  V30 2811 C 262.456 2.43599 3.75983 0
M  V30 2812 C 264.2 0.659103 4.19352 0
M  V30 2813 C 262.107 2.76707 5.22673 0
M  V30 2814 H 261.037 0.206122 0.725279 0
M  V30 2815 H 263.688 1.12637 1.44863 0
M  V30 2816 H 262.07 0.316053 3.94737 0
M  V30 2817 H 263.244 3.12035 3.39073 0
M  V30 2818 H 261.559 2.70125 3.16893 0
M  V30 2819 H 264.156 0.882985 5.27359 0
M  V30 2820 H 264.499 -0.403607 4.14339 0
M  V30 2821 H 265.032 1.25473 3.77494 0
M  V30 2822 H 261.771 3.8188 5.32774 0
M  V30 2823 H 261.291 2.12919 5.60737 0
M  V30 2824 H 262.97 2.6435 5.90532 0
M  V30 2825 N 263.102 -1.41638 0.69111 0
M  V30 2826 C 264.032 -2.3347 0.037248 0
M  V30 2827 C 265.013 -1.51575 -0.771947 0
M  V30 2828 O 266.198 -1.80126 -0.72582 0
M  V30 2829 C 263.328 -3.35354 -0.903064 0
M  V30 2830 C 262.282 -4.27526 -0.201288 0
M  V30 2831 C 261.608 -5.19747 -1.25565 0
M  V30 2832 C 262.908 -5.13959 0.929689 0
M  V30 2833 H 264.602 -2.88397 0.804227 0
M  V30 2834 H 262.148 -1.38669 0.388189 0
M  V30 2835 H 264.101 -3.98519 -1.36969 0
M  V30 2836 H 262.825 -2.78767 -1.70166 0
M  V30 2837 H 261.484 -3.65779 0.245265 0
M  V30 2838 H 261.132 -4.59479 -2.04666 0
M  V30 2839 H 260.832 -5.8225 -0.791128 0
M  V30 2840 H 262.356 -5.85789 -1.72288 0
M  V30 2841 H 263.77 -5.70718 0.543546 0
M  V30 2842 H 262.167 -5.85379 1.32103 0
M  V30 2843 H 263.237 -4.51389 1.77133 0
M  V30 2844 N 264.58 -0.43555 -1.51462 0
M  V30 2845 C 265.828 0.131254 -2.01673 0
M  V30 2846 C 266.149 1.43368 -1.32177 0
M  V30 2847 O 265.419 1.90524 -0.455769 0
M  V30 2848 H 263.999 0.0514954 -0.745223 0
M  V30 2849 H 266.661 -0.577847 -1.86137 0
M  V30 2850 H 265.757 0.308446 -3.10572 0
M  V30 2851 N 266.058 1.56714 -0.166846 0
M  V30 2852 C 267.298 1.98641 0.481763 0
M  V30 2853 C 267.662 1.05038 1.6072 0
M  V30 2854 O 268.863 1.36087 2.31805 0
M  V30 2855 C 267.134 3.44362 0.956517 0
M  V30 2856 S 268.693 4.08317 1.60694 0
M  V30 2857 H 265.511 0.693873 0.155116 0
M  V30 2858 H 268.113 1.93719 -0.263251 0
M  V30 2859 H 266.817 4.10204 0.126936 0
M  V30 2860 H 266.348 3.53041 1.73568 0
M  V30 2861 H 268.363 4.02999 2.89494 0
M  V30 2862 N 267.536 -0.106894 1.57237 0
M  V30 2863 C 268.764 -0.826389 1.8968 0
M  V30 2864 C 269.179 -1.72856 0.759353 0
M  V30 2865 O 268.536 -1.80503 -0.269263 0
M  V30 2866 C 268.587 -1.64967 3.21665 0
M  V30 2867 O 268.308 -0.783804 4.31031 0
M  V30 2868 C 269.809 -2.47326 3.67892 0
M  V30 2869 H 267.029 -0.236927 0.627779 0
M  V30 2870 H 269.573 -0.0876593 2.04312 0
M  V30 2871 H 267.728 -2.34103 3.08666 0
M  V30 2872 H 268.142 -1.35284 5.06753 0
M  V30 2873 H 269.616 -3.00604 4.6297 0
M  V30 2874 H 270.093 -3.25247 2.95146 0
M  V30 2875 H 270.699 -1.83411 3.83719 0
M  V30 2876 N 269.014 -1.53014 -0.377408 0
M  V30 2877 C 269.964 -1.74996 -1.46152 0
M  V30 2878 C 270.948 -0.604236 -1.49123 0
M  V30 2879 O 272.14 -0.862489 -1.54564 0
M  V30 2880 C 269.269 -1.93267 -2.8373 0
M  V30 2881 C 268.355 -3.13807 -2.85283 0
M  V30 2882 N 268.746 -4.35941 -2.56493 0
M  V30 2883 C 267.044 -3.14288 -3.16448 0
M  V30 2884 C 267.745 -5.17615 -2.65424 0
M  V30 2885 N 266.721 -4.53559 -2.99641 0
M  V30 2886 H 270.523 -2.67044 -1.22738 0
M  V30 2887 H 268.037 -1.51479 -0.585479 0
M  V30 2888 H 270.034 -2.0714 -3.61799 0
M  V30 2889 H 268.694 -1.0244 -3.08117 0
M  V30 2890 H 269.705 -4.63876 -2.30302 0
M  V30 2891 H 266.382 -2.33312 -3.46225 0
M  V30 2892 H 267.772 -6.25006 -2.46612 0
M  V30 2893 N 270.492 0.636531 -1.44174 0
M  V30 2894 C 271.739 1.39619 -1.46672 0
M  V30 2895 C 272.067 1.94257 -0.0972691 0
M  V30 2896 O 271.322 1.73768 0.900175 0
M  V30 2897 C 271.621 2.58309 -2.47005 0
M  V30 2898 C 271.287 2.21992 -3.92467 0
M  V30 2899 C 269.949 2.118 -4.32081 0
M  V30 2900 C 272.301 1.9321 -4.84065 0
M  V30 2901 C 269.629 1.71007 -5.61225 0
M  V30 2902 C 271.981 1.53911 -6.13591 0
M  V30 2903 C 270.645 1.42257 -6.52165 0
M  V30 2904 H 269.915 0.510902 -0.536712 0
M  V30 2905 H 272.562 0.722328 -1.77355 0
M  V30 2906 H 270.867 3.30903 -2.09786 0
M  V30 2907 H 272.564 3.16533 -2.46186 0
M  V30 2908 H 269.154 2.30841 -3.61124 0
M  V30 2909 H 273.338 1.99997 -4.54219 0
M  V30 2910 H 268.594 1.60583 -5.89935 0
M  V30 2911 H 272.768 1.30677 -6.8403 0
M  V30 2912 H 270.395 1.10419 -7.52138 0
M  V30 2913 N 271.97 1.30982 0.876444 0
M  V30 2914 C 273.381 1.18277 1.44456 0
M  V30 2915 C 273.732 -0.213265 1.95037 0
M  V30 2916 O 272.857 -1.11057 1.85729 0
M  V30 2917 C 273.452 2.1411 2.62569 0
M  V30 2918 C 272.011 2.05358 3.15444 0
M  V30 2919 C 271.158 2.03706 1.88146 0
M  V30 2920 H 274.109 1.43127 0.685584 0
M  V30 2921 H 274.13 1.72692 3.39054 0
M  V30 2922 H 273.642 3.15706 2.25724 0
M  V30 2923 H 271.743 1.06934 3.56926 0
M  V30 2924 H 271.856 2.94156 3.78166 0
M  V30 2925 H 270.22 1.48629 2.06837 0
M  V30 2926 H 271.003 3.07047 1.53547 0
M  V30 2927 N 273.449 -1.08991 1.13837 0
M  V30 2928 C 274.379 -2.17771 0.842507 0
M  V30 2929 C 275.36 -1.6892 -0.20001 0
M  V30 2930 O 276.545 -1.94113 -0.0579731 0
M  V30 2931 C 273.675 -3.4589 0.312644 0
M  V30 2932 C 272.629 -4.08099 1.28992 0
M  V30 2933 C 271.955 -5.31098 0.619623 0
M  V30 2934 C 273.255 -4.50077 2.65005 0
M  V30 2935 H 274.949 -2.42777 1.75213 0
M  V30 2936 H 272.495 -1.16682 0.843875 0
M  V30 2937 H 274.448 -4.21297 0.0933043 0
M  V30 2938 H 273.172 -3.20419 -0.632382 0
M  V30 2939 H 271.831 -3.34717 1.49533 0
M  V30 2940 H 271.479 -5.0191 -0.33102 0
M  V30 2941 H 271.179 -5.73674 1.27167 0
M  V30 2942 H 272.703 -6.09224 0.409669 0
M  V30 2943 H 274.117 -5.16688 2.48407 0
M  V30 2944 H 272.514 -5.03553 3.26427 0
M  V30 2945 H 273.584 -3.62257 3.22332 0
M  V30 2946 N 274.927 -0.932562 -1.27047 0
M  V30 2947 C 276.176 -0.571351 -1.93439 0
M  V30 2948 C 276.489 0.892467 -1.74053 0
M  V30 2949 O 277.695 1.36267 -2.34826 0
M  V30 2950 C 276.151 -0.97106 -3.46552 0
M  V30 2951 C 275.759 -2.4559 -3.74686 0
M  V30 2952 C 277.503 -0.681333 -4.18997 0
M  V30 2953 C 275.41 -2.79475 -5.21198 0
M  V30 2954 H 274.34 -0.209966 -0.724176 0
M  V30 2955 H 276.991 -1.13403 -1.44263 0
M  V30 2956 H 275.373 -0.336983 -3.94564 0
M  V30 2957 H 276.547 -3.13829 -3.37414 0
M  V30 2958 H 274.862 -2.71802 -3.15456 0
M  V30 2959 H 277.459 -0.910939 -5.26883 0
M  V30 2960 H 277.802 0.381628 -4.14547 0
M  V30 2961 H 278.335 -1.27473 -3.76823 0
M  V30 2962 H 275.074 -3.847 -5.30741 0
M  V30 2963 H 274.594 -2.1589 -5.596 0
M  V30 2964 H 276.273 -2.67478 -5.89122 0
M  V30 2965 N 276.405 1.4127 -0.698611 0
M  V30 2966 C 277.368 2.29158 -0.044132 0
M  V30 2967 C 278.368 1.44529 0.704841 0
M  V30 2968 O 279.558 1.65643 0.539276 0
M  V30 2969 C 276.69 3.27459 0.947809 0
M  V30 2970 H 277.883 2.88529 -0.817994 0
M  V30 2971 H 275.436 1.49307 -0.46228 0
M  V30 2972 H 276.171 2.73073 1.74933 0
M  V30 2973 H 275.956 3.8991 0.41385 0
M  V30 2974 H 277.446 3.93311 1.40344 0
M  V30 2975 N 277.883 0.443576 1.51229 0
M  V30 2976 C 278.815 -0.400608 2.25672 0
M  V30 2977 C 279.828 -0.980945 1.29928 0
M  V30 2978 O 281.017 -0.874024 1.55638 0
M  V30 2979 C 278.117 -1.57304 3.00181 0
M  V30 2980 C 277.29 -1.11046 4.23069 0
M  V30 2981 C 276.349 -2.15374 4.80105 0
M  V30 2982 O 275.375 -1.74554 5.41774 0
M  V30 2983 N 276.577 -3.47922 4.64683 0
M  V30 2984 H 279.342 0.23745 2.98758 0
M  V30 2985 H 276.903 0.272809 1.59585 0
M  V30 2986 H 278.895 -2.26733 3.35223 0
M  V30 2987 H 277.465 -2.11632 2.30066 0
M  V30 2988 H 276.685 -0.243019 3.9345 0
M  V30 2989 H 277.973 -0.778888 5.02803 0
M  V30 2990 H 277.371 -3.83815 4.15575 0
M  V30 2991 H 275.928 -4.13228 5.0407 0
M  V30 2992 N 279.361 -1.56624 0.175154 0
M  V30 2993 C 280.308 -2.18149 -0.753634 0
M  V30 2994 C 281.278 -1.12265 -1.22417 0
M  V30 2995 O 282.463 -1.40432 -1.29165 0
M  V30 2996 C 279.603 -2.82933 -1.97592 0
M  V30 2997 C 278.716 -4.03289 -1.5486 0
M  V30 2998 C 277.851 -4.55988 -2.72485 0
M  V30 2999 C 276.89 -5.68746 -2.26262 0
M  V30 3000 N 276.027 -6.15938 -3.36994 0
M  V30 3001 H 280.867 -2.9717 -0.222195 0
M  V30 3002 H 278.404 -1.46774 -0.0979422 0
M  V30 3003 H 280.362 -3.18653 -2.69288 0
M  V30 3004 H 278.992 -2.06509 -2.481 0
M  V30 3005 H 278.044 -3.73364 -0.728246 0
M  V30 3006 H 279.356 -4.849 -1.16933 0
M  V30 3007 H 278.51 -4.9391 -3.52332 0
M  V30 3008 H 277.249 -3.73443 -3.13674 0
M  V30 3009 H 276.254 -5.30372 -1.44863 0
M  V30 3010 H 277.479 -6.53095 -1.86127 0
M  V30 3011 H 275.425 -5.36321 -3.77751 0
M  V30 3012 H 275.342 -6.92548 -3.03172 0
M  V30 3013 H 276.61 -6.58511 -4.17114 0
M  V30 3014 N 280.839 0.0985539 -1.57292 0
M  V30 3015 C 282.088 0.801358 -1.85098 0
M  V30 3016 C 282.401 1.80066 -0.763902 0
M  V30 3017 O 283.607 2.55112 -0.928981 0
M  V30 3018 C 282.063 1.47599 -3.28242 0
M  V30 3019 C 281.671 0.516624 -4.45011 0
M  V30 3020 C 283.415 2.16272 -3.65276 0
M  V30 3021 C 281.322 1.19564 -5.79188 0
M  V30 3022 H 280.252 0.303022 -0.69043 0
M  V30 3023 H 282.903 0.0542623 -1.8342 0
M  V30 3024 H 281.285 2.27042 -3.2445 0
M  V30 3025 H 282.459 -0.246065 -4.60143 0
M  V30 3026 H 280.774 -0.064227 -4.1635 0
M  V30 3027 H 283.371 2.67802 -4.62803 0
M  V30 3028 H 283.714 2.95009 -2.93727 0
M  V30 3029 H 284.247 1.43693 -3.70941 0
M  V30 3030 H 280.986 0.449157 -6.53959 0
M  V30 3031 H 280.506 1.92984 -5.67906 0
M  V30 3032 H 282.185 1.7231 -6.23633 0
M  V30 3033 N 282.317 1.53212 0.369288 0
M  V30 3034 C 283.227 1.82342 1.47609 0
M  V30 3035 C 284.243 0.711532 1.58787 0
M  V30 3036 O 285.419 1.0012 1.74751 0
M  V30 3037 C 282.484 2.00393 2.8292 0
M  V30 3038 C 281.545 3.24297 2.81301 0
M  V30 3039 C 280.778 3.41478 4.10157 0
M  V30 3040 O 281.001 2.63033 5.06132 0
M  V30 3041 O 279.935 4.34817 4.16194 0
M  V30 3042 H 283.761 2.76366 1.25918 0
M  V30 3043 H 281.346 1.38547 0.559034 0
M  V30 3044 H 283.228 2.13859 3.63101 0
M  V30 3045 H 281.903 1.09559 3.04596 0
M  V30 3046 H 280.81 3.16257 1.99831 0
M  V30 3047 H 282.143 4.15041 2.64578 0
M  V30 3048 N 283.795 -0.628877 1.44509 0
M  V30 3049 C 285.043 -1.38565 1.4712 0
M  V30 3050 C 285.364 -1.94712 0.105899 0
M  V30 3051 O 284.634 -1.75912 -0.862079 0
M  V30 3052 H 283.214 -0.514333 0.541729 0
M  V30 3053 H 285.876 -0.740018 1.80305 0
M  V30 3054 H 284.972 -2.21583 2.19789 0
M  V30 3055 N 285.273 -1.31445 -0.869486 0
M  V30 3056 C 286.503 -1.23942 -1.65294 0
M  V30 3057 C 286.911 0.197561 -1.88166 0
M  V30 3058 O 286.254 1.14019 -1.44033 0
M  V30 3059 C 286.316 -1.91385 -3.04322 0
M  V30 3060 C 285.98 -3.40726 -3.04557 0
M  V30 3061 C 286.977 -4.36464 -2.82481 0
M  V30 3062 C 284.662 -3.82425 -3.25663 0
M  V30 3063 C 286.656 -5.71876 -2.8149 0
M  V30 3064 C 284.343 -5.1795 -3.243 0
M  V30 3065 C 285.341 -6.12486 -3.02241 0
M  V30 3066 O 285.029 -7.45534 -3.00724 0
M  V30 3067 H 284.761 -0.429459 -0.522054 0
M  V30 3068 H 287.315 -1.73873 -1.0935 0
M  V30 3069 H 285.545 -1.36004 -3.61994 0
M  V30 3070 H 287.234 -1.77791 -3.64891 0
M  V30 3071 H 288 -4.05576 -2.65956 0
M  V30 3072 H 283.879 -3.09274 -3.41863 0
M  V30 3073 H 287.423 -6.45638 -2.64191 0
M  V30 3074 H 283.32 -5.48473 -3.40365 0
M  V30 3075 H 284.088 -7.54713 -3.16782 0
M  V30 3076 N 286.751 1.08385 -1.14413 0
M  V30 3077 C 287.998 1.80776 -0.912482 0
M  V30 3078 C 288.326 1.86236 0.560934 0
M  V30 3079 O 287.581 1.33431 1.43159 0
M  V30 3080 C 287.88 3.26273 -1.45879 0
M  V30 3081 C 287.546 3.4093 -2.95089 0
M  V30 3082 C 286.208 3.44638 -3.35824 0
M  V30 3083 C 288.56 3.44591 -3.91033 0
M  V30 3084 C 285.888 3.49597 -4.71167 0
M  V30 3085 C 288.24 3.51086 -5.26233 0
M  V30 3086 C 286.904 3.53067 -5.6648 0
M  V30 3087 H 286.174 0.661507 -0.333901 0
M  V30 3088 H 288.821 1.27613 -1.42784 0
M  V30 3089 H 287.126 3.82146 -0.864376 0
M  V30 3090 H 288.823 3.80839 -1.2555 0
M  V30 3091 H 285.413 3.38736 -2.62594 0
M  V30 3092 H 289.597 3.40957 -3.60641 0
M  V30 3093 H 284.853 3.49424 -5.0171 0
M  V30 3094 H 289.027 3.52864 -6.00383 0
M  V30 3095 H 286.654 3.56662 -6.71339 0
M  V30 3096 N 288.23 0.939286 1.26551 0
M  V30 3097 C 289.163 0.391702 2.24813 0
M  V30 3098 C 290.141 -0.518421 1.54114 0
M  V30 3099 O 291.325 -0.456299 1.82894 0
M  V30 3100 C 288.452 -0.437382 3.35864 0
M  V30 3101 C 287.498 0.410946 4.24516 0
M  V30 3102 S 288.331 1.83372 5.03125 0
M  V30 3103 C 289.487 1.01264 6.17654 0
M  V30 3104 H 289.72 1.22448 2.70913 0
M  V30 3105 H 287.253 0.742269 1.35387 0
M  V30 3106 H 289.211 -0.909837 4.0029 0
M  V30 3107 H 287.872 -1.24482 2.8838 0
M  V30 3108 H 287.065 -0.224191 5.03501 0
M  V30 3109 H 286.667 0.818014 3.64945 0
M  V30 3110 H 288.959 0.254023 6.77024 0
M  V30 3111 H 289.902 1.77589 6.85469 0
M  V30 3112 H 290.31 0.549532 5.61819 0
M  V30 3113 N 289.708 -1.40897 0.706093 0
M  V30 3114 C 290.956 -2.00657 0.241054 0
M  V30 3115 C 291.277 -1.56241 -1.16678 0
M  V30 3116 O 290.547 -0.79765 -1.78926 0
M  V30 3117 H 289.127 -0.742018 0.0861308 0
M  V30 3118 H 291.789 -1.72372 0.909604 0
M  V30 3119 H 290.885 -3.10958 0.266705 0
M  V30 3120 N 291.186 -0.45159 -1.50991 0
M  V30 3121 C 292.136 0.370861 -2.24964 0
M  V30 3122 C 293.12 0.978074 -1.2776 0
M  V30 3123 O 294.312 0.893854 -1.52772 0
M  V30 3124 C 291.441 1.46344 -3.10545 0
M  V30 3125 C 290.527 0.864924 -4.15187 0
M  V30 3126 N 290.918 -0.00311354 -5.058 0
M  V30 3127 C 289.216 1.13099 -4.31422 0
M  V30 3128 C 289.917 -0.340772 -5.80701 0
M  V30 3129 N 288.893 0.279203 -5.42883 0
M  V30 3130 H 292.695 -0.298134 -2.92384 0
M  V30 3131 H 290.209 -0.264528 -1.60231 0
M  V30 3132 H 292.206 2.06565 -3.62128 0
M  V30 3133 H 290.866 2.13463 -2.4467 0
M  V30 3134 H 291.877 -0.37058 -5.16572 0
M  V30 3135 H 288.554 1.79861 -3.76771 0
M  V30 3136 H 289.944 -1.048 -6.63677 0
M  V30 3137 N 292.664 1.56529 -0.183458 0
M  V30 3138 C 293.911 1.97244 0.458357 0
M  V30 3139 C 294.239 1.06992 1.62428 0
M  V30 3140 O 293.494 0.106542 1.9541 0
M  V30 3141 C 293.793 3.43939 0.971637 0
M  V30 3142 C 293.459 4.5083 -0.0796784 0
M  V30 3143 C 292.121 4.79786 -0.368584 0
M  V30 3144 C 294.473 5.15138 -0.792638 0
M  V30 3145 C 291.801 5.70345 -1.37563 0
M  V30 3146 C 294.153 6.06784 -1.78875 0
M  V30 3147 C 292.817 6.34102 -2.08497 0
M  V30 3148 H 292.087 0.721768 0.167725 0
M  V30 3149 H 294.734 1.89472 -0.277976 0
M  V30 3150 H 293.039 3.48724 1.78602 0
M  V30 3151 H 294.736 3.72791 1.47744 0
M  V30 3152 H 291.326 4.28317 0.155668 0
M  V30 3153 H 295.51 4.92868 -0.582659 0
M  V30 3154 H 290.766 5.89789 -1.61118 0
M  V30 3155 H 294.94 6.55677 -2.3465 0
M  V30 3156 H 292.567 7.04074 -2.86678 0
M  V30 3157 N 294.142 -0.090211 1.57342 0
M  V30 3158 C 295.105 -1.09335 2.01441 0
M  V30 3159 C 296.105 -1.32666 0.908641 0
M  V30 3160 O 297.295 -1.28697 1.174 0
M  V30 3161 C 294.427 -2.44136 2.3793 0
M  V30 3162 H 295.62 -0.713662 2.91285 0
M  V30 3163 H 293.173 -0.335404 1.52659 0
M  V30 3164 H 293.908 -2.86972 1.51055 0
M  V30 3165 H 293.693 -2.28548 3.18603 0
M  V30 3166 H 295.183 -3.16277 2.72688 0
M  V30 3167 N 295.62 -1.53406 -0.361157 0
M  V30 3168 C 296.55 -1.83136 -1.44857 0
M  V30 3169 C 297.531 -0.685174 -1.5569 0
M  V30 3170 O 298.716 -0.93544 -1.70186 0
M  V30 3171 C 295.846 -2.02522 -2.82138 0
M  V30 3172 C 294.8 -3.18302 -2.86126 0
M  V30 3173 C 294.126 -3.22989 -4.26125 0
M  V30 3174 C 295.426 -4.56796 -2.53248 0
M  V30 3175 H 297.12 -2.74201 -1.20226 0
M  V30 3176 H 294.666 -1.31938 -0.576922 0
M  V30 3177 H 296.619 -2.21904 -3.58241 0
M  V30 3178 H 295.343 -1.08172 -3.08166 0
M  V30 3179 H 294.002 -2.98747 -2.12475 0
M  V30 3180 H 293.65 -2.26267 -4.49235 0
M  V30 3181 H 293.35 -4.00781 -4.29708 0
M  V30 3182 H 294.874 -3.44559 -5.04094 0
M  V30 3183 H 296.288 -4.7631 -3.19064 0
M  V30 3184 H 294.685 -5.36862 -2.68141 0
M  V30 3185 H 295.755 -4.61606 -1.48484 0
M  V30 3186 N 297.098 0.621204 -1.44841 0
M  V30 3187 C 298.509 1.20298 -1.42777 0
M  V30 3188 C 298.86 1.95639 -0.148259 0
M  V30 3189 O 297.985 2.02955 0.750892 0
M  V30 3190 C 298.58 2.1882 -2.58657 0
M  V30 3191 C 297.139 2.72403 -2.59756 0
M  V30 3192 C 296.286 1.4757 -2.34773 0
M  V30 3193 H 299.237 0.411297 -1.53278 0
M  V30 3194 H 299.258 3.01607 -2.31977 0
M  V30 3195 H 298.77 1.63957 -3.51766 0
M  V30 3196 H 296.871 3.31242 -1.70615 0
M  V30 3197 H 296.984 3.17765 -3.58556 0
M  V30 3198 H 295.348 1.76051 -1.8406 0
M  V30 3199 H 296.131 0.945954 -3.3001 0
M  V30 3200 N 298.576 1.31904 0.862503 0
M  V30 3201 C 299.804 1.24998 1.64873 0
M  V30 3202 C 300.219 -0.183425 1.87907 0
M  V30 3203 O 299.576 -1.11794 1.44251 0
M  V30 3204 C 299.627 1.99829 3.01248 0
M  V30 3205 O 299.348 3.37575 2.79239 0
M  V30 3206 C 300.849 1.99852 3.95694 0
M  V30 3207 H 298.069 0.431599 0.513773 0
M  V30 3208 H 300.613 1.73901 1.07604 0
M  V30 3209 H 298.768 1.54668 3.55185 0
M  V30 3210 H 299.182 3.75776 3.65914 0
M  V30 3211 H 300.656 2.56709 4.88676 0
M  V30 3212 H 301.133 0.982852 4.28062 0
M  V30 3213 H 301.739 2.44926 3.47694 0
M  V30 3214 N 300.054 -1.07777 1.14986 0
M  V30 3215 C 301.465 -1.61766 0.932127 0
M  V30 3216 C 301.816 -1.88974 -0.527581 0
M  V30 3217 O 300.941 -1.65198 -1.39781 0
M  V30 3218 C 301.536 -2.93891 1.68563 0
M  V30 3219 C 300.095 -3.44639 1.5133 0
M  V30 3220 C 299.242 -2.18767 1.704 0
M  V30 3221 H 302.193 -0.909201 1.30074 0
M  V30 3222 H 302.214 -3.62623 1.15259 0
M  V30 3223 H 301.726 -2.74057 2.74799 0
M  V30 3224 H 299.827 -3.69564 0.474702 0
M  V30 3225 H 299.94 -4.20966 2.28746 0
M  V30 3226 H 298.304 -2.28253 1.13016 0
M  V30 3227 H 299.087 -2.01433 2.77992 0
M  V30 3228 N 301.532 -0.945985 -1.26051 0
M  V30 3229 C 302.943 -0.638096 -1.75457 0
M  V30 3230 C 303.294 0.846672 -1.76991 0
M  V30 3231 O 302.419 1.66262 -1.38513 0
M  V30 3232 C 303.014 -1.15157 -3.18629 0
M  V30 3233 C 301.573 -0.894004 -3.65629 0
M  V30 3234 C 300.72 -1.29967 -2.44957 0
M  V30 3235 H 303.671 -1.12376 -1.1206 0
M  V30 3236 H 303.692 -0.507615 -3.77099 0
M  V30 3237 H 303.204 -2.23222 -3.1748 0
M  V30 3238 H 301.305 0.172057 -3.72203 0
M  V30 3239 H 301.418 -1.52439 -4.54202 0
M  V30 3240 H 299.782 -0.718078 -2.44368 0
M  V30 3241 H 300.565 -2.38935 -2.46505 0
M  V30 3242 N 303.011 1.40521 -0.713556 0
M  V30 3243 C 303.941 2.33381 -0.0743864 0
M  V30 3244 C 304.922 1.52784 0.747735 0
M  V30 3245 O 306.107 1.81258 0.697071 0
M  V30 3246 C 303.237 3.36748 0.849598 0
M  V30 3247 C 302.191 4.27793 0.133247 0
M  V30 3248 C 301.517 5.21679 1.17281 0
M  V30 3249 C 302.817 5.12415 -1.01134 0
M  V30 3250 H 304.511 2.87081 -0.850007 0
M  V30 3251 H 302.057 1.38034 -0.410201 0
M  V30 3252 H 304.01 4.00648 1.30612 0
M  V30 3253 H 302.734 2.81439 1.65709 0
M  V30 3254 H 301.393 3.65342 -0.303426 0
M  V30 3255 H 301.041 4.62677 1.9733 0
M  V30 3256 H 300.741 5.83435 0.698397 0
M  V30 3257 H 302.265 5.88456 1.62947 0
M  V30 3258 H 303.679 5.69781 -0.634274 0
M  V30 3259 H 302.076 5.83203 -1.41399 0
M  V30 3260 H 303.146 4.48514 -1.84292 0
M  V30 3261 N 304.489 0.459591 1.5075 0
M  V30 3262 C 305.419 -0.330644 2.31147 0
M  V30 3263 C 306.4 -1.00087 1.37538 0
M  V30 3264 O 307.585 -1.00025 1.66459 0
M  V30 3265 C 304.715 -1.41958 3.16962 0
M  V30 3266 C 303.669 -0.871608 4.19031 0
M  V30 3267 C 302.995 -2.05797 4.9351 0
M  V30 3268 C 304.295 0.109251 5.22186 0
M  V30 3269 H 305.989 0.340336 2.97459 0
M  V30 3270 H 303.535 0.165119 1.4305 0
M  V30 3271 H 305.488 -1.9798 3.71997 0
M  V30 3272 H 304.212 -2.11917 2.48513 0
M  V30 3273 H 302.871 -0.333442 3.6508 0
M  V30 3274 H 302.519 -2.74427 4.21544 0
M  V30 3275 H 302.219 -1.6976 5.62544 0
M  V30 3276 H 303.743 -2.62331 5.51375 0
M  V30 3277 H 305.157 -0.361405 5.7216 0
M  V30 3278 H 303.554 0.383316 5.98875 0
M  V30 3279 H 304.624 1.03887 4.73641 0
M  V30 3280 N 305.967 -1.56429 0.191757 0
M  V30 3281 C 307.216 -1.9666 -0.448088 0
M  V30 3282 C 307.529 -1.08136 -1.62991 0
M  V30 3283 O 308.735 -1.38135 -2.33733 0
M  V30 3284 C 307.191 -3.49753 -0.848585 0
M  V30 3285 C 306.799 -4.46935 0.308764 0
M  V30 3286 C 308.543 -3.9876 -1.4557 0
M  V30 3287 C 306.45 -5.91293 -0.112506 0
M  V30 3288 H 305.38 -0.734312 -0.171179 0
M  V30 3289 H 308.031 -1.81301 0.283242 0
M  V30 3290 H 306.413 -3.60604 -1.63649 0
M  V30 3291 H 307.587 -4.47813 1.08627 0
M  V30 3292 H 305.902 -4.08102 0.827158 0
M  V30 3293 H 308.499 -5.04086 -1.78328 0
M  V30 3294 H 308.842 -3.42875 -2.36099 0
M  V30 3295 H 309.375 -3.9101 -0.731836 0
M  V30 3296 H 306.114 -6.51097 0.758514 0
M  V30 3297 H 305.634 -5.93676 -0.854941 0
M  V30 3298 H 307.313 -6.44663 -0.549448 0
M  V30 3299 N 307.445 0.0818655 -1.57387 0
M  V30 3300 C 308.395 1.10501 -1.99433 0
M  V30 3301 C 309.379 1.35041 -0.874798 0
M  V30 3302 O 310.571 1.35511 -1.13868 0
M  V30 3303 C 307.7 2.42159 -2.43339 0
M  V30 3304 C 306.786 2.20937 -3.62005 0
M  V30 3305 N 307.177 1.69616 -4.76512 0
M  V30 3306 C 305.475 2.51451 -3.68359 0
M  V30 3307 C 306.176 1.62973 -5.58404 0
M  V30 3308 N 305.152 2.08664 -5.01956 0
M  V30 3309 H 308.954 0.701373 -2.85408 0
M  V30 3310 H 306.468 0.289096 -1.59806 0
M  V30 3311 H 308.465 3.16208 -2.71695 0
M  V30 3312 H 307.125 2.83249 -1.58746 0
M  V30 3313 H 308.136 1.38624 -4.99003 0
M  V30 3314 H 304.813 2.95975 -2.94457 0
M  V30 3315 H 306.203 1.24233 -6.60315 0
M  V30 3316 N 308.923 1.53595 0.353017 0
M  V30 3317 C 310.148 1.7462 1.11904 0
M  V30 3318 C 310.573 0.479721 1.8188 0
M  V30 3319 O 309.931 -0.567066 1.72204 0
M  V30 3320 C 309.979 2.92029 2.11545 0
M  V30 3321 O 309.083 2.61516 3.18878 0
M  V30 3322 H 308.424 0.579531 0.324099 0
M  V30 3323 H 310.954 2.00525 0.406301 0
M  V30 3324 H 310.964 3.18551 2.5493 0
M  V30 3325 H 309.639 3.83888 1.60008 0
M  V30 3326 H 308.216 2.45852 2.80377 0
M  V30 3327 N 310.401 -0.613514 1.45168 0
M  V30 3328 C 311.649 -1.36997 1.48581 0
M  V30 3329 C 311.97 -1.94589 0.126545 0
M  V30 3330 O 311.24 -1.76816 -0.843372 0
M  V30 3331 H 309.82 -0.508558 0.547154 0
M  V30 3332 H 312.482 -0.720853 1.81079 0
M  V30 3333 H 311.578 -2.1924 2.22127 0
M  V30 3334 N 311.879 -1.3236 -0.855495 0
M  V30 3335 C 313.156 -1.13491 -1.59309 0
M  V30 3336 C 313.536 0.30503 -2.08885 0
M  V30 3337 O 312.884 1.30151 -1.87811 0
M  V30 3338 C 313.094 -2.16176 -2.73987 0
M  V30 3339 C 314.442 -2.49463 -3.43589 0
M  V30 3340 O 315.466 -2.14715 -2.84211 0
M  V30 3341 O 314.325 -3.09027 -4.50738 0
M  V30 3342 H 311.419 -0.437887 -0.701559 0
M  V30 3343 H 313.965 -1.43887 -0.899696 0
M  V30 3344 H 312.737 -3.1297 -2.34873 0
M  V30 3345 H 312.36 -1.86769 -3.51003 0
M  V30 3346 N 313.357 1.07166 -1.15556 0
M  V30 3347 C 314.32 2.12589 -0.856644 0
M  V30 3348 C 315.32 1.6015 0.14444 0
M  V30 3349 O 316.51 1.7399 -0.0854163 0
M  V30 3350 C 313.642 3.39753 -0.279405 0
M  V30 3351 H 314.835 2.40539 -1.79112 0
M  V30 3352 H 312.388 1.23086 -0.963298 0
M  V30 3353 H 313.123 3.17447 0.663174 0
M  V30 3354 H 312.908 3.79117 -1.00063 0
M  V30 3355 H 314.398 4.17507 -0.0879113 0
M  V30 3356 N 314.835 0.952656 1.25548 0
M  V30 3357 C 316.084 0.602053 1.92505 0
M  V30 3358 C 316.397 -0.864663 1.75451 0
M  V30 3359 O 317.603 -1.32514 2.36965 0
M  V30 3360 C 316.059 1.02607 3.44963 0
M  V30 3361 C 315.667 2.51519 3.70732 0
M  V30 3362 C 317.411 0.747905 4.1786 0
M  V30 3363 C 315.318 2.87732 5.16686 0
M  V30 3364 H 314.248 0.22146 0.720744 0
M  V30 3365 H 316.899 1.15684 1.42441 0
M  V30 3366 H 315.281 0.399712 3.93978 0
M  V30 3367 H 316.455 3.19157 3.32378 0
M  V30 3368 H 314.77 2.76786 3.11092 0
M  V30 3369 H 317.367 0.994647 5.25367 0
M  V30 3370 H 317.71 -0.315629 4.15102 0
M  V30 3371 H 318.243 1.33452 3.74747 0
M  V30 3372 H 314.982 3.93095 5.24554 0
M  V30 3373 H 314.502 2.24765 5.56094 0
M  V30 3374 H 316.181 2.76817 5.84792 0
M  V30 3375 N 316.313 -1.40141 0.720998 0
M  V30 3376 C 317.559 -2.01084 0.263231 0
M  V30 3377 C 317.892 -1.57052 -1.14229 0
M  V30 3378 O 317.167 -0.793027 -1.77599 0
M  V30 3379 C 317.45 -3.58401 0.349344 0
M  V30 3380 C 317.303 -4.12491 1.79363 0
M  V30 3381 C 318.622 -4.39231 -0.276351 0
M  V30 3382 H 315.741 -0.730572 0.0971228 0
M  V30 3383 H 318.383 -1.66543 0.914518 0
M  V30 3384 H 316.533 -3.87958 -0.205165 0
M  V30 3385 H 318.205 -3.93711 2.40394 0
M  V30 3386 H 316.448 -3.66576 2.31958 0
M  V30 3387 H 317.119 -5.21646 1.80524 0
M  V30 3388 H 319.595 -4.15637 0.196184 0
M  V30 3389 H 318.471 -5.48586 -0.185681 0
M  V30 3390 H 318.732 -4.20643 -1.36059 0
M  V30 3391 N 317.792 -0.46758 -1.50504 0
M  V30 3392 C 318.702 0.33382 -2.32213 0
M  V30 3393 C 319.718 0.999323 -1.42441 0
M  V30 3394 O 320.894 0.988068 -1.75497 0
M  V30 3395 C 317.959 1.4035 -3.17022 0
M  V30 3396 C 317.02 0.754961 -4.2261 0
M  V30 3397 C 316.253 1.77367 -5.03365 0
M  V30 3398 O 316.476 2.99976 -4.8515 0
M  V30 3399 O 315.41 1.34744 -5.86624 0
M  V30 3400 H 319.236 -0.334067 -3.01857 0
M  V30 3401 H 316.821 -0.229496 -1.47627 0
M  V30 3402 H 318.703 2.02318 -3.69656 0
M  V30 3403 H 317.378 2.05492 -2.5011 0
M  V30 3404 H 316.285 0.0964244 -3.73976 0
M  V30 3405 H 317.618 0.146545 -4.91982 0
M  V30 3406 N 319.27 1.56325 -0.20005 0
M  V30 3407 C 320.5 2.01811 0.442232 0
M  V30 3408 C 320.908 1.07932 1.55394 0
M  V30 3409 O 320.251 0.0772685 1.83537 0
M  V30 3410 C 320.313 3.43685 1.05457 0
M  V30 3411 C 319.977 4.56928 0.0809833 0
M  V30 3412 C 320.974 5.15009 -0.711471 0
M  V30 3413 C 318.659 5.0229 -0.0315364 0
M  V30 3414 C 320.653 6.16904 -1.60336 0
M  V30 3415 C 318.34 6.04028 -0.926981 0
M  V30 3416 C 319.338 6.6121 -1.71146 0
M  V30 3417 O 319.026 7.60971 -2.59189 0
M  V30 3418 H 318.758 0.666173 0.114848 0
M  V30 3419 H 321.312 2.03085 -0.307511 0
M  V30 3420 H 319.542 3.39413 1.85299 0
M  V30 3421 H 321.231 3.72948 1.60201 0
M  V30 3422 H 321.997 4.80827 -0.634873 0
M  V30 3423 H 317.876 4.57476 0.568902 0
M  V30 3424 H 321.42 6.61464 -2.21611 0
M  V30 3425 H 317.317 6.37634 -1.00468 0
M  V30 3426 H 318.085 7.7841 -2.53023 0
M  V30 3427 N 320.748 -0.0735177 1.57428 0
M  V30 3428 C 321.678 -1.0879 2.06608 0
M  V30 3429 C 322.659 -1.40473 0.959237 0
M  V30 3430 O 323.844 -1.5013 1.23185 0
M  V30 3431 C 320.974 -2.40183 2.50857 0
M  V30 3432 C 319.928 -2.22858 3.65402 0
M  V30 3433 C 319.254 -3.59619 3.957 0
M  V30 3434 C 320.554 -1.65123 4.95511 0
M  V30 3435 H 322.248 -0.678673 2.91607 0
M  V30 3436 H 319.794 -0.325013 1.40284 0
M  V30 3437 H 321.747 -3.11437 2.83874 0
M  V30 3438 H 320.471 -2.83083 1.62885 0
M  V30 3439 H 319.13 -1.54045 3.32664 0
M  V30 3440 H 318.778 -4.00086 3.04861 0
M  V30 3441 H 318.478 -3.48866 4.72828 0
M  V30 3442 H 320.002 -4.32306 4.31212 0
M  V30 3443 H 321.416 -2.26241 5.26771 0
M  V30 3444 H 319.813 -1.65071 5.7695 0
M  V30 3445 H 320.883 -0.612559 4.81015 0
M  V30 3446 N 322.226 -1.5378 -0.344866 0
M  V30 3447 C 323.158 -1.77988 -1.44406 0
M  V30 3448 C 324.171 -0.661138 -1.48771 0
M  V30 3449 O 325.36 -0.937842 -1.51877 0
M  V30 3450 C 322.46 -1.86345 -2.8307 0
M  V30 3451 C 321.633 -3.16256 -3.0216 0
M  V30 3452 C 320.692 -3.15588 -4.21059 0
M  V30 3453 O 319.718 -3.89314 -4.15239 0
M  V30 3454 N 320.92 -2.37864 -5.29529 0
M  V30 3455 H 323.685 -2.72839 -1.24012 0
M  V30 3456 H 321.246 -1.52814 -0.534737 0
M  V30 3457 H 323.238 -1.83351 -3.60783 0
M  V30 3458 H 321.808 -0.986858 -2.96614 0
M  V30 3459 H 321.028 -3.32385 -2.11929 0
M  V30 3460 H 322.316 -4.0207 -3.11797 0
M  V30 3461 H 321.714 -1.77514 -5.37127 0
M  V30 3462 H 320.271 -2.40668 -6.05741 0
M  V30 3463 N 323.704 0.605807 -1.45491 0
M  V30 3464 C 324.636 1.73031 -1.5031 0
M  V30 3465 C 325.649 1.57968 -0.393687 0
M  V30 3466 O 326.838 1.65817 -0.660839 0
M  V30 3467 C 323.938 3.11049 -1.34543 0
M  V30 3468 C 323.111 3.52334 -2.59189 0
M  V30 3469 C 322.17 4.69323 -2.37954 0
M  V30 3470 O 321.196 4.7635 -3.11575 0
M  V30 3471 N 322.398 5.62705 -1.4263 0
M  V30 3472 H 325.163 1.6936 -2.4726 0
M  V30 3473 H 322.724 0.79114 -1.41254 0
M  V30 3474 H 324.716 3.87071 -1.18144 0
M  V30 3475 H 323.286 3.09217 -0.458623 0
M  V30 3476 H 322.506 2.66256 -2.90691 0
M  V30 3477 H 323.794 3.76677 -3.42041 0
M  V30 3478 H 323.192 5.59744 -0.818758 0
M  V30 3479 H 321.749 6.38252 -1.32202 0
M  V30 3480 N 325.182 1.32811 0.848464 0
M  V30 3481 C 326.129 1.22265 1.95755 0
M  V30 3482 C 327.099 0.103413 1.65778 0
M  V30 3483 O 328.284 0.280033 1.88734 0
M  V30 3484 C 325.424 0.958014 3.31536 0
M  V30 3485 C 324.537 2.16262 3.73971 0
M  V30 3486 C 323.672 1.83295 4.98575 0
M  V30 3487 C 322.711 3.00041 5.33518 0
M  V30 3488 N 321.848 2.67125 6.49299 0
M  V30 3489 H 326.688 2.17128 2.04107 0
M  V30 3490 H 324.225 1.07982 0.998913 0
M  V30 3491 H 326.183 0.785052 4.09747 0
M  V30 3492 H 324.813 0.046159 3.22767 0
M  V30 3493 H 323.865 2.44565 2.91362 0
M  V30 3494 H 325.177 3.03572 3.95785 0
M  V30 3495 H 324.331 1.62586 5.84509 0
M  V30 3496 H 323.07 0.932078 4.7871 0
M  V30 3497 H 322.075 3.21374 4.46093 0
M  V30 3498 H 323.3 3.90869 5.55336 0
M  V30 3499 H 321.246 1.79586 6.3094 0
M  V30 3500 H 321.163 3.47965 6.71161 0
M  V30 3501 H 322.431 2.49861 7.3837 0
M  V30 3502 N 326.66 -1.06551 1.16123 0
M  V30 3503 C 327.89 -1.8274 0.963838 0
M  V30 3504 C 328.298 -1.82712 -0.491228 0
M  V30 3505 O 327.641 -1.24294 -1.35265 0
M  V30 3506 C 327.703 -3.3065 1.41106 0
M  V30 3507 C 327.367 -3.54384 2.88549 0
M  V30 3508 C 328.364 -3.4765 3.86569 0
M  V30 3509 C 326.049 -3.81789 3.26408 0
M  V30 3510 C 328.043 -3.67982 5.2045 0
M  V30 3511 C 325.73 -4.01772 4.60459 0
M  V30 3512 C 326.728 -3.94866 5.57288 0
M  V30 3513 O 326.416 -4.14306 6.88916 0
M  V30 3514 H 326.148 -0.583136 0.341948 0
M  V30 3515 H 328.702 -1.35351 1.54497 0
M  V30 3516 H 326.932 -3.78887 0.773394 0
M  V30 3517 H 328.621 -3.88324 1.1815 0
M  V30 3518 H 329.387 -3.2647 3.58667 0
M  V30 3519 H 325.266 -3.86276 2.51619 0
M  V30 3520 H 328.81 -3.62507 5.96015 0
M  V30 3521 H 324.707 -4.2244 4.88072 0
M  V30 3522 H 325.475 -4.31609 6.95454 0
M  V30 3523 N 328.138 -0.959301 -1.25041 0
M  V30 3524 C 329.101 -0.487677 -2.23952 0
M  V30 3525 C 330.101 0.41119 -1.55454 0
M  V30 3526 O 331.291 0.207825 -1.72956 0
M  V30 3527 C 328.423 0.294807 -3.39623 0
M  V30 3528 H 329.616 -1.36198 -2.67189 0
M  V30 3529 H 327.169 -0.743042 -1.37508 0
M  V30 3530 H 327.904 1.18658 -3.01813 0
M  V30 3531 H 327.689 -0.35012 -3.90534 0
M  V30 3532 H 329.179 0.614089 -4.1306 0
M  V30 3533 N 329.616 1.39756 -0.72842 0
M  V30 3534 C 330.546 2.33289 -0.0991354 0
M  V30 3535 C 331.527 1.53568 0.731489 0
M  V30 3536 O 332.712 1.81987 0.677807 0
M  V30 3537 C 329.842 3.3763 0.813834 0
M  V30 3538 C 328.796 4.2791 0.0878663 0
M  V30 3539 C 328.122 5.22894 1.11741 0
M  V30 3540 C 329.422 5.11314 -1.06563 0
M  V30 3541 H 331.116 2.86163 -0.880408 0
M  V30 3542 H 328.662 1.37591 -0.424819 0
M  V30 3543 H 330.615 4.0201 1.26355 0
M  V30 3544 H 329.339 2.83181 1.62715 0
M  V30 3545 H 327.998 3.65 -0.342159 0
M  V30 3546 H 327.646 4.64744 1.92412 0
M  V30 3547 H 327.346 5.84143 0.636477 0
M  V30 3548 H 328.87 5.90151 1.56697 0
M  V30 3549 H 330.284 5.69076 -0.694671 0
M  V30 3550 H 328.681 5.81671 -1.47577 0
M  V30 3551 H 329.751 4.46534 -1.89038 0
M  V30 3552 N 331.094 0.475555 1.50254 0
M  V30 3553 C 332.041 -0.316293 2.28622 0
M  V30 3554 C 333.011 -0.983227 1.33873 0
M  V30 3555 O 334.196 -0.994805 1.62814 0
M  V30 3556 C 331.336 -1.38975 3.1588 0
M  V30 3557 C 330.449 -0.737146 4.25664 0
M  V30 3558 C 329.584 -1.78887 5.00173 0
M  V30 3559 C 328.623 -1.11676 6.01826 0
M  V30 3560 N 327.76 -2.11154 6.69596 0
M  V30 3561 H 332.6 0.358297 2.95838 0
M  V30 3562 H 330.137 0.188541 1.45887 0
M  V30 3563 H 332.095 -2.02383 3.64825 0
M  V30 3564 H 330.725 -2.03344 2.50701 0
M  V30 3565 H 329.777 0.0096065 3.80399 0
M  V30 3566 H 331.089 -0.206816 4.98371 0
M  V30 3567 H 330.243 -2.49865 5.52859 0
M  V30 3568 H 328.982 -2.35302 4.27182 0
M  V30 3569 H 327.987 -0.392633 5.48396 0
M  V30 3570 H 329.212 -0.55945 6.76792 0
M  V30 3571 H 327.158 -2.66577 5.99394 0
M  V30 3572 H 327.075 -1.63118 7.38193 0
M  V30 3573 H 328.343 -2.81497 7.26897 0
M  V30 3574 N 332.573 -1.56217 0.208337 0
M  V30 3575 C 333.521 -2.21053 -0.723769 0
M  V30 3576 C 334.515 -1.18578 -1.20978 0
M  V30 3577 O 335.721 -1.36691 -1.17114 0
M  V30 3578 H 332.096 -0.708595 -0.251788 0
M  V30 3579 H 334.067 -2.98006 -0.153365 0
M  V30 3580 C 332.816 -2.89417 -1.927 0
M  V30 3581 H 332.139 -3.68019 -1.56212 0
M  V30 3582 H 333.579 -3.38201 -2.55727 0
M  V30 3583 C 332.038 -1.91166 -2.77411 0
M  V30 3584 O 332.568 -1.42026 -3.75754 0
M  V30 3585 N 330.774 -1.59105 -2.43175 0
M  V30 3586 H 330.321 -1.99259 -1.63259 0
M  V30 3587 H 330.279 -0.936255 -3.00136 0
M  V30 3588 N 334.051 0.0651679 -1.57465 0
M  V30 3589 C 334.999 1.09542 -2.05191 0
M  V30 3590 C 335.993 1.39675 -0.958509 0
M  V30 3591 O 337.199 1.39003 -1.14359 0
M  V30 3592 H 333.574 0.370623 -0.654326 0
M  V30 3593 H 335.545 0.666802 -2.90854 0
M  V30 3594 C 334.294 2.39881 -2.51699 0
M  V30 3595 H 333.617 2.17547 -3.3543 0
M  V30 3596 H 335.057 3.104 -2.88839 0
M  V30 3597 C 333.516 3.0631 -1.40271 0
M  V30 3598 O 334.046 3.94664 -0.748523 0
M  V30 3599 N 332.252 2.67041 -1.14618 0
M  V30 3600 H 331.799 1.95281 -1.67997 0
M  V30 3601 H 331.757 3.1181 -0.402688 0
M  V30 3602 N 335.529 1.53961 0.336706 0
M  V30 3603 C 336.492 1.81724 1.39675 0
M  V30 3604 C 337.492 0.688532 1.45313 0
M  V30 3605 O 338.682 0.956829 1.45569 0
M  V30 3606 C 335.814 1.96543 2.78538 0
M  V30 3607 H 337.007 2.76424 1.16318 0
M  V30 3608 H 334.56 1.45478 0.571474 0
M  V30 3609 H 335.295 1.0401 3.07168 0
M  V30 3610 H 335.08 2.78665 2.75841 0
M  V30 3611 H 336.57 2.19516 3.5525 0
M  V30 3612 N 337.007 -0.598083 1.45811 0
M  V30 3613 C 338.247 -1.36802 1.5187 0
M  V30 3614 C 338.611 -1.9133 0.160224 0
M  V30 3615 O 339.812 -2.6863 0.0955302 0
M  V30 3616 C 338.083 -2.47835 2.57513 0
M  V30 3617 S 339.642 -3.35458 2.82866 0
M  V30 3618 H 336.46 -0.466278 0.536755 0
M  V30 3619 H 339.062 -0.689152 1.82951 0
M  V30 3620 H 337.766 -2.06141 3.54872 0
M  V30 3621 H 337.297 -3.20512 2.28114 0
M  V30 3622 H 339.312 -4.46251 2.16967 0
M  V30 3623 N 338.485 -1.33259 -0.841409 0
M  V30 3624 C 339.713 -1.27605 -1.62864 0
M  V30 3625 C 340.128 0.153507 -1.88175 0
M  V30 3626 O 339.485 1.09485 -1.46011 0
M  V30 3627 C 339.536 -2.04596 -2.98031 0
M  V30 3628 O 339.257 -3.41975 -2.73834 0
M  V30 3629 C 340.758 -2.06122 -3.92465 0
M  V30 3630 H 337.978 -0.439718 -0.506842 0
M  V30 3631 H 340.522 -1.75591 -1.04824 0
M  V30 3632 H 338.677 -1.60299 -3.5268 0
M  V30 3633 H 339.091 -3.81549 -3.59889 0
M  V30 3634 H 340.565 -2.64451 -4.84531 0
M  V30 3635 H 341.042 -1.05083 -4.26444 0
M  V30 3636 H 341.648 -2.50427 -3.43753 0
M  V30 3637 N 339.963 1.05934 -1.16686 0
M  V30 3638 C 341.21 1.788 -0.950622 0
M  V30 3639 C 341.538 1.87384 0.521305 0
M  V30 3640 O 340.793 1.36438 1.40297 0
M  V30 3641 C 341.092 3.23105 -1.52767 0
M  V30 3642 C 340.758 3.34594 -3.02254 0
M  V30 3643 C 339.42 3.37437 -3.43059 0
M  V30 3644 C 341.772 3.36219 -3.98254 0
M  V30 3645 C 339.1 3.39525 -4.78477 0
M  V30 3646 C 341.452 3.39845 -5.33562 0
M  V30 3647 C 340.116 3.40971 -5.73842 0
M  V30 3648 H 339.386 0.654275 -0.347857 0
M  V30 3649 H 342.033 1.24555 -1.45459 0
M  V30 3650 H 340.338 3.80227 -0.94524 0
M  V30 3651 H 342.035 3.7809 -1.336 0
M  V30 3652 H 338.625 3.3309 -2.6972 0
M  V30 3653 H 342.809 3.33231 -3.67792 0
M  V30 3654 H 338.065 3.38703 -5.09009 0
M  V30 3655 H 342.239 3.4005 -6.07733 0
M  V30 3656 H 339.866 3.42342 -6.78753 0
M  V30 3657 N 341.441 0.965919 1.2453 0
M  V30 3658 C 342.852 0.665929 1.7442 0
M  V30 3659 C 343.203 -0.818407 1.78316 0
M  V30 3660 O 342.328 -1.64037 1.41141 0
M  V30 3661 C 342.923 1.20211 3.16757 0
M  V30 3662 C 341.482 0.952059 3.6416 0
M  V30 3663 C 340.629 1.33848 2.42858 0
M  V30 3664 H 343.58 1.14144 1.10258 0
M  V30 3665 H 343.601 0.567544 3.76244 0
M  V30 3666 H 343.113 2.28244 3.13889 0
M  V30 3667 H 341.214 -0.112821 3.72429 0
M  V30 3668 H 341.327 1.59645 4.51719 0
M  V30 3669 H 339.691 0.756864 2.43195 0
M  V30 3670 H 340.474 2.42827 2.42673 0
M  V30 3671 N 342.919 -1.39368 0.735821 0
M  V30 3672 C 343.866 -2.30599 0.0963825 0
M  V30 3673 C 344.836 -1.49257 -0.728794 0
M  V30 3674 O 346.021 -1.77941 -0.688588 0
M  V30 3675 C 343.161 -3.35596 -0.804305 0
M  V30 3676 C 342.274 -4.31987 0.0335761 0
M  V30 3677 C 341.409 -5.24053 -0.868461 0
M  V30 3678 C 340.448 -6.12095 -0.0258776 0
M  V30 3679 N 339.585 -6.96514 -0.883893 0
M  V30 3680 H 344.425 -2.8471 0.880002 0
M  V30 3681 H 341.962 -1.40188 0.445619 0
M  V30 3682 H 343.92 -3.95062 -1.34096 0
M  V30 3683 H 342.55 -2.82938 -1.55389 0
M  V30 3684 H 341.602 -3.74133 0.68766 0
M  V30 3685 H 342.914 -4.94074 0.685036 0
M  V30 3686 H 342.068 -5.88549 -1.47293 0
M  V30 3687 H 340.807 -4.62289 -1.5537 0
M  V30 3688 H 339.812 -5.4661 0.591386 0
M  V30 3689 H 341.037 -6.75923 0.656156 0
M  V30 3690 H 338.983 -6.37318 -1.55441 0
M  V30 3691 H 338.9 -7.55448 -0.288931 0
M  V30 3692 H 340.168 -7.65439 -1.4739 0
M  V30 3693 N 344.397 -0.483516 -1.5 0
M  V30 3694 C 345.643 0.0672592 -2.02688 0
M  V30 3695 C 345.976 1.38247 -1.36387 0
M  V30 3696 O 345.251 1.88131 -0.493675 0
M  V30 3697 C 345.534 0.238109 -3.59312 0
M  V30 3698 C 345.387 -1.099 -4.36168 0
M  V30 3699 C 346.706 0.986916 -4.28892 0
M  V30 3700 H 343.825 0.0229696 -0.736642 0
M  V30 3701 H 346.467 -0.631527 -1.79197 0
M  V30 3702 H 344.617 0.8333 -3.79458 0
M  V30 3703 H 346.289 -1.73172 -4.27562 0
M  V30 3704 H 344.532 -1.69261 -3.99416 0
M  V30 3705 H 345.203 -0.932954 -5.44059 0
M  V30 3706 H 347.679 0.482302 -4.13295 0
M  V30 3707 H 346.555 1.07527 -5.38265 0
M  V30 3708 H 346.816 2.0265 -3.92919 0
M  V30 3709 N 345.875 1.56104 -0.216619 0
M  V30 3710 C 346.785 2.23694 0.706982 0
M  V30 3711 C 347.801 1.24295 1.21765 0
M  V30 3712 O 348.977 1.57094 1.2603 0
M  V30 3713 C 346.042 2.8998 1.90033 0
M  V30 3714 C 345.103 4.04708 1.43213 0
M  V30 3715 C 344.336 4.67824 2.56859 0
M  V30 3716 O 344.559 4.29913 3.74874 0
M  V30 3717 O 343.493 5.56905 2.28343 0
M  V30 3718 H 347.319 3.03272 0.161235 0
M  V30 3719 H 344.904 1.49394 0.0136177 0
M  V30 3720 H 346.786 3.31837 2.59735 0
M  V30 3721 H 345.461 2.13365 2.43428 0
M  V30 3722 H 344.368 3.6743 0.70327 0
M  V30 3723 H 345.701 4.83051 0.944615 0
M  V30 3724 N 347.353 -0.0568162 1.57498 0
M  V30 3725 C 348.6 -0.753104 1.87975 0
M  V30 3726 C 348.928 -1.76815 0.81035 0
M  V30 3727 O 348.183 -1.94756 -0.19199 0
M  V30 3728 C 348.482 -1.48359 3.25153 0
M  V30 3729 C 348.148 -0.60713 4.46794 0
M  V30 3730 C 346.81 -0.365642 4.79809 0
M  V30 3731 C 349.162 -0.000305978 5.212 0
M  V30 3732 C 346.49 0.491905 5.84634 0
M  V30 3733 C 348.842 0.844781 6.26934 0
M  V30 3734 C 347.506 1.096 6.58441 0
M  V30 3735 H 346.776 -0.27558 0.687849 0
M  V30 3736 H 349.423 -0.0135173 1.91495 0
M  V30 3737 H 347.728 -2.29577 3.17492 0
M  V30 3738 H 349.425 -2.02739 3.45974 0
M  V30 3739 H 346.015 -0.805487 4.20963 0
M  V30 3740 H 350.199 -0.173961 4.95995 0
M  V30 3741 H 345.455 0.695131 6.07436 0
M  V30 3742 H 349.629 1.32165 6.83744 0
M  V30 3743 H 347.256 1.76224 7.39492 0
M  V30 3744 N 348.832 -1.54138 -0.328536 0
M  V30 3745 C 349.782 -1.79557 -1.4051 0
M  V30 3746 C 350.766 -0.651373 -1.47126 0
M  V30 3747 O 351.958 -0.911226 -1.51742 0
M  V30 3748 C 349.087 -2.02196 -2.77438 0
M  V30 3749 C 348.173 -3.22724 -2.75155 0
M  V30 3750 N 348.564 -4.43881 -2.42494 0
M  V30 3751 C 346.862 -3.24196 -3.06289 0
M  V30 3752 C 347.563 -5.25797 -2.48822 0
M  V30 3753 N 346.539 -4.62862 -2.8506 0
M  V30 3754 H 350.341 -2.70814 -1.1418 0
M  V30 3755 H 347.855 -1.53265 -0.536991 0
M  V30 3756 H 349.852 -2.18546 -3.55026 0
M  V30 3757 H 348.512 -1.12191 -3.04702 0
M  V30 3758 H 349.523 -4.70969 -2.15428 0
M  V30 3759 H 346.2 -2.44208 -3.38627 0
M  V30 3760 H 347.59 -6.32535 -2.26603 0
M  V30 3761 N 350.31 0.590341 -1.46126 0
M  V30 3762 C 351.273 1.68194 -1.55703 0
M  V30 3763 C 352.273 1.54808 -0.434868 0
M  V30 3764 O 353.463 1.59564 -0.698928 0
M  V30 3765 C 350.595 3.07575 -1.47005 0
M  V30 3766 H 351.788 1.61064 -2.52979 0
M  V30 3767 H 349.341 0.807541 -1.33823 0
M  V30 3768 H 350.076 3.20268 -0.509785 0
M  V30 3769 H 349.861 3.187 -2.28414 0
M  V30 3770 H 351.351 3.87055 -1.56776 0
M  V30 3771 N 351.788 1.33704 0.83433 0
M  V30 3772 C 353.013 1.28615 1.62705 0
M  V30 3773 C 353.438 -0.139242 1.87584 0
M  V30 3774 O 352.796 -1.09734 1.4432 0
M  V30 3775 C 352.844 2.07139 2.95171 0
M  V30 3776 O 351.948 1.4331 3.86699 0
M  V30 3777 H 351.289 0.44226 0.49528 0
M  V30 3778 H 353.819 1.76335 1.03766 0
M  V30 3779 H 353.829 2.18073 3.44831 0
M  V30 3780 H 352.504 3.10779 2.76386 0
M  V30 3781 H 351.081 1.4105 3.45195 0
M  V30 3782 N 353.266 -1.05314 1.17247 0
M  V30 3783 C 354.514 -1.77941 0.958194 0
M  V30 3784 C 354.835 -1.88089 -0.514556 0
M  V30 3785 O 354.105 -1.39676 -1.37359 0
M  V30 3786 H 352.685 -0.659116 0.351533 0
M  V30 3787 H 355.347 -1.27166 1.47699 0
M  V30 3788 H 354.443 -2.79663 1.38546 0
M  V30 3789 N 354.744 -0.972509 -1.24016 0
M  V30 3790 C 356.021 -0.553733 -1.87598 0
M  V30 3791 C 356.401 0.969158 -1.87538 0
M  V30 3792 O 355.749 1.84255 -1.35139 0
M  V30 3793 C 355.959 -1.15076 -3.29482 0
M  V30 3794 C 357.307 -1.23862 -4.06132 0
M  V30 3795 O 358.331 -1.10363 -3.38672 0
M  V30 3796 O 357.19 -1.45252 -5.26844 0
M  V30 3797 H 354.284 -0.185331 -0.805966 0
M  V30 3798 H 356.83 -1.06709 -1.31952 0
M  V30 3799 H 355.602 -2.19333 -3.2405 0
M  V30 3800 H 355.225 -0.621746 -3.92709 0
M  V30 3801 N 356.222 1.38976 -0.743202 0
M  V30 3802 C 357.468 2.0064 -0.295189 0
M  V30 3803 C 357.801 1.5885 1.11716 0
M  V30 3804 O 357.076 0.821181 1.76315 0
M  V30 3805 C 357.359 3.578 -0.406318 0
M  V30 3806 C 357.212 4.09586 -1.85903 0
M  V30 3807 C 358.531 4.39616 0.206439 0
M  V30 3808 H 355.65 0.728935 -0.108733 0
M  V30 3809 H 358.292 1.65067 -0.940897 0
M  V30 3810 H 356.442 3.88235 0.143419 0
M  V30 3811 H 358.114 3.89837 -2.46627 0
M  V30 3812 H 356.357 3.6284 -2.3776 0
M  V30 3813 H 357.028 5.18708 -1.888 0
M  V30 3814 H 359.504 4.15273 -0.262283 0
M  V30 3815 H 358.38 5.48812 0.0983819 0
M  V30 3816 H 358.641 4.22754 1.2935 0
M  V30 3817 N 357.7 0.491464 1.49741 0
M  V30 3818 C 358.949 -0.0582189 2.01616 0
M  V30 3819 C 359.262 -1.38927 1.3769 0
M  V30 3820 O 360.468 -2.02509 1.80838 0
M  V30 3821 C 358.924 -0.154235 3.59569 0
M  V30 3822 C 358.532 1.1696 4.32463 0
M  V30 3823 C 360.276 -0.65479 4.1942 0
M  V30 3824 C 358.183 1.03627 5.8225 0
M  V30 3825 H 357.113 -0.0255317 0.753568 0
M  V30 3826 H 359.764 0.629445 1.72367 0
M  V30 3827 H 358.146 -0.906138 3.85493 0
M  V30 3828 H 359.32 1.93405 4.18248 0
M  V30 3829 H 357.635 1.60285 3.84315 0
M  V30 3830 H 360.232 -0.771903 5.29099 0
M  V30 3831 H 360.575 -1.65127 3.8215 0
M  V30 3832 H 361.108 0.040304 3.9778 0
M  V30 3833 H 357.847 2.00672 6.24028 0
M  V30 3834 H 357.367 0.312546 5.98985 0
M  V30 3835 H 359.046 0.711114 6.4308 0
M  V30 3836 N 359.178 -1.55987 0.224894 0
M  V30 3837 C 360.424 -1.99433 -0.39973 0
M  V30 3838 C 360.779 -1.11004 -1.57149 0
M  V30 3839 O 360.072 -0.160725 -1.90925 0
M  V30 3840 C 360.266 -3.46394 -0.880106 0
M  V30 3841 C 360.095 -4.4904 0.243565 0
M  V30 3842 C 358.865 -5.00272 0.711056 0
M  V30 3843 C 361.063 -5.03195 1.06299 0
M  V30 3844 N 359.045 -5.86628 1.80944 0
M  V30 3845 C 360.416 -5.86508 2.01017 0
M  V30 3846 C 362.471 -4.8555 1.10205 0
M  V30 3847 C 361.174 -6.54062 2.99324 0
M  V30 3848 C 363.2 -5.53866 2.07332 0
M  V30 3849 C 362.562 -6.3695 3.00789 0
M  V30 3850 H 358.661 -0.773815 -0.112847 0
M  V30 3851 H 361.245 -1.91754 0.337432 0
M  V30 3852 H 359.416 -3.54515 -1.58662 0
M  V30 3853 H 361.148 -3.76752 -1.47783 0
M  V30 3854 H 357.903 -4.72655 0.29906 0
M  V30 3855 H 358.327 -6.34507 2.36073 0
M  V30 3856 H 362.969 -4.20966 0.39343 0
M  V30 3857 H 360.687 -7.17827 3.71147 0
M  V30 3858 H 364.273 -5.42178 2.11032 0
M  V30 3859 H 363.153 -6.8888 3.74718 0
M  V30 3860 N 360.656 0.0484629 -1.57525 0
M  V30 3861 C 361.586 1.0549 -2.08313 0
M  V30 3862 C 362.567 1.38929 -0.981463 0
M  V30 3863 O 363.752 1.48151 -1.25558 0
M  V30 3864 C 360.882 2.36162 -2.54646 0
M  V30 3865 C 359.836 2.17016 -3.68901 0
M  V30 3866 C 359.162 3.53278 -4.01371 0
M  V30 3867 C 360.462 1.57219 -4.98076 0
M  V30 3868 H 362.156 0.632195 -2.92649 0
M  V30 3869 H 359.702 0.302654 -1.40784 0
M  V30 3870 H 361.655 3.06882 -2.88793 0
M  V30 3871 H 360.379 2.80456 -1.67368 0
M  V30 3872 H 359.038 1.48733 -3.35073 0
M  V30 3873 H 358.686 3.95185 -3.11188 0
M  V30 3874 H 358.386 3.41299 -4.78318 0
M  V30 3875 H 359.91 4.25391 -4.38035 0
M  V30 3876 H 361.324 2.17832 -5.30304 0
M  V30 3877 H 359.721 1.55871 -5.79503 0
M  V30 3878 H 360.791 0.535956 -4.81929 0
M  V30 3879 N 362.134 1.5431 0.320358 0
M  V30 3880 C 363.044 1.86946 1.41734 0
M  V30 3881 C 364.06 0.761689 1.56443 0
M  V30 3882 O 365.236 1.05629 1.71477 0
M  V30 3883 C 362.301 2.09293 2.76401 0
M  V30 3884 C 361.362 3.33082 2.70841 0
M  V30 3885 C 360.595 3.54353 3.99086 0
M  V30 3886 O 360.818 2.79002 4.97508 0
M  V30 3887 O 359.752 4.47838 4.0215 0
M  V30 3888 H 363.578 2.80232 1.17062 0
M  V30 3889 H 361.163 1.40255 0.514673 0
M  V30 3890 H 363.045 2.25303 3.56113 0
M  V30 3891 H 361.72 1.19194 3.00956 0
M  V30 3892 H 360.627 3.22454 1.89668 0
M  V30 3893 H 361.96 4.23249 2.5124 0
M  V30 3894 N 363.613 -0.582584 1.46437 0
M  V30 3895 C 365.029 -0.905962 1.31394 0
M  V30 3896 C 365.229 -1.99468 0.285476 0
M  V30 3897 O 364.285 -2.50566 -0.311914 0
M  V30 3898 C 365.598 -1.3232 2.70022 0
M  V30 3899 C 367.146 -1.43604 2.78113 0
M  V30 3900 C 367.621 -1.88694 4.17323 0
M  V30 3901 N 369.112 -1.95887 4.19741 0
M  V30 3902 C 369.847 -2.32051 5.24347 0
M  V30 3903 N 369.343 -2.67006 6.39281 0
M  V30 3904 N 371.136 -2.32606 5.11713 0
M  V30 3905 H 363.287 0.1366 2.1196 0
M  V30 3906 H 365.55 -0.00155736 0.947999 0
M  V30 3907 H 365.256 -0.597242 3.46592 0
M  V30 3908 H 365.13 -2.28469 3.00136 0
M  V30 3909 H 367.517 -2.15286 2.01832 0
M  V30 3910 H 367.598 -0.457059 2.51684 0
M  V30 3911 H 367.242 -1.1759 4.941 0
M  V30 3912 H 367.172 -2.8755 4.4116 0
M  V30 3913 H 369.663 -1.71362 3.36814 0
M  V30 3914 H 369.976 -2.93554 7.14875 0
M  V30 3915 H 368.321 -2.64644 6.42642 0
M  V30 3916 H 371.512 -2.04721 4.2096 0
M  V30 3917 H 371.685 -2.60462 5.93349 0
M  V30 3918 N 365.091 -1.34144 -0.827227 0
M  V30 3919 C 366.023 -1.21206 -1.9453 0
M  V30 3920 C 367.036 -0.140176 -1.62195 0
M  V30 3921 O 368.225 -0.391647 -1.7415 0
M  V30 3922 C 365.325 -0.839141 -3.28347 0
M  V30 3923 C 364.498 -2.0051 -3.88734 0
M  V30 3924 C 363.557 -1.61128 -5.00923 0
M  V30 3925 O 362.583 -2.32726 -5.19449 0
M  V30 3926 N 363.785 -0.522958 -5.7814 0
M  V30 3927 H 366.55 -2.17525 -2.06162 0
M  V30 3928 H 364.111 -1.27043 -1.00358 0
M  V30 3929 H 366.103 -0.557556 -4.00841 0
M  V30 3930 H 364.673 0.0337293 -3.12582 0
M  V30 3931 H 363.893 -2.45166 -3.08686 0
M  V30 3932 H 365.181 -2.78498 -4.25812 0
M  V30 3933 H 364.579 0.0723518 -5.65654 0
M  V30 3934 H 363.136 -0.301089 -6.51104 0
M  V30 3935 N 366.569 1.04691 -1.17803 0
M  V30 3936 C 367.532 2.10724 -0.901545 0
M  V30 3937 C 368.532 1.6042 0.110437 0
M  V30 3938 O 369.722 1.7377 -0.122303 0
M  V30 3939 C 366.854 3.39084 -0.351409 0
M  V30 3940 H 368.047 2.36686 -1.84174 0
M  V30 3941 H 365.6 1.21015 -0.98919 0
M  V30 3942 H 366.335 3.18782 0.59569 0
M  V30 3943 H 366.12 3.76909 -1.08083 0
M  V30 3944 H 367.61 4.17227 -0.176451 0
M  V30 3945 N 368.047 0.979072 1.23499 0
M  V30 3946 C 368.994 0.517904 2.24914 0
M  V30 3947 C 369.964 -0.442525 1.60097 0
M  V30 3948 O 371.149 -0.350365 1.87556 0
M  V30 3949 C 368.289 -0.174813 3.44657 0
M  V30 3950 C 367.402 0.825721 4.24035 0
M  V30 3951 C 366.537 0.107946 5.3109 0
M  V30 3952 C 365.576 1.09778 6.02175 0
M  V30 3953 N 364.713 0.40925 7.00906 0
M  V30 3954 H 369.553 1.38751 2.63727 0
M  V30 3955 H 367.09 0.695303 1.2963 0
M  V30 3956 H 369.048 -0.593233 4.12961 0
M  V30 3957 H 367.678 -1.0083 3.06648 0
M  V30 3958 H 366.73 1.36253 3.55161 0
M  V30 3959 H 368.042 1.58005 4.73113 0
M  V30 3960 H 367.196 -0.367904 6.05583 0
M  V30 3961 H 365.935 -0.678994 4.8295 0
M  V30 3962 H 364.94 1.5844 5.26476 0
M  V30 3963 H 366.165 1.88536 6.52404 0
M  V30 3964 H 364.111 -0.358506 6.5502 0
M  V30 3965 H 364.028 1.10226 7.47921 0
M  V30 3966 H 365.296 -0.0442557 7.79487 0
M  V30 3967 N 369.525 -1.3858 0.750561 0
M  V30 3968 C 370.435 -2.34278 0.122825 0
M  V30 3969 C 371.451 -1.59116 -0.704131 0
M  V30 3970 O 372.627 -1.91326 -0.628987 0
M  V30 3971 C 369.692 -3.38221 -0.762086 0
M  V30 3972 C 368.753 -4.29227 0.078896 0
M  V30 3973 C 367.986 -5.28205 -0.763874 0
M  V30 3974 O 368.209 -5.34112 -2.00201 0
M  V30 3975 O 367.143 -6.01618 -0.18428 0
M  V30 3976 H 370.969 -2.89649 0.913088 0
M  V30 3977 H 368.554 -1.40374 0.511417 0
M  V30 3978 H 370.436 -4.01872 -1.26793 0
M  V30 3979 H 369.111 -2.85211 -1.5309 0
M  V30 3980 H 368.018 -3.68747 0.630621 0
M  V30 3981 H 369.351 -4.85484 0.810289 0
M  V30 3982 N 371.003 -0.499398 -1.49478 0
M  V30 3983 C 372.249 0.0377587 -2.03365 0
M  V30 3984 C 372.604 1.3484 -1.37244 0
M  V30 3985 O 371.897 1.85 -0.498547 0
M  V30 3986 C 372.091 0.248424 -3.56536 0
M  V30 3987 C 371.92 -1.04025 -4.37503 0
M  V30 3988 C 370.69 -1.59159 -4.79579 0
M  V30 3989 C 372.888 -1.9431 -4.76181 0
M  V30 3990 N 370.87 -2.82634 -5.44969 0
M  V30 3991 C 372.241 -3.02364 -5.41272 0
M  V30 3992 C 374.296 -1.95008 -4.58123 0
M  V30 3993 C 372.999 -4.1114 -5.90217 0
M  V30 3994 C 375.025 -3.02758 -5.08027 0
M  V30 3995 C 374.387 -4.09531 -5.73118 0
M  V30 3996 H 370.486 -0.026923 -0.781536 0
M  V30 3997 H 373.07 -0.673901 -1.82665 0
M  V30 3998 H 371.241 0.929139 -3.77123 0
M  V30 3999 H 372.973 0.782445 -3.97064 0
M  V30 4000 H 369.728 -1.13696 -4.5975 0
M  V30 4001 H 370.152 -3.45416 -5.82252 0
M  V30 4002 H 374.794 -1.13766 -4.07207 0
M  V30 4003 H 372.512 -4.93181 -6.40155 0
M  V30 4004 H 376.098 -3.04315 -4.95866 0
M  V30 4005 H 374.978 -4.91534 -6.11035 0
M  V30 4006 N 372.481 1.55866 -0.233164 0
M  V30 4007 C 373.411 2.23783 0.666599 0
M  V30 4008 C 374.392 1.21343 1.19205 0
M  V30 4009 O 375.577 1.4996 1.23392 0
M  V30 4010 C 372.707 2.92671 1.86978 0
M  V30 4011 C 371.661 4.01682 1.47768 0
M  V30 4012 C 370.987 4.57926 2.76058 0
M  V30 4013 C 372.287 5.18126 0.658993 0
M  V30 4014 H 373.981 2.99232 0.100306 0
M  V30 4015 H 371.527 1.43924 0.046804 0
M  V30 4016 H 373.48 3.3888 2.50476 0
M  V30 4017 H 372.204 2.14688 2.46123 0
M  V30 4018 H 370.863 3.56222 0.866106 0
M  V30 4019 H 370.511 3.76659 3.33372 0
M  V30 4020 H 370.211 5.31505 2.50552 0
M  V30 4021 H 371.735 5.06859 3.40479 0
M  V30 4022 H 373.149 5.60644 1.19795 0
M  V30 4023 H 371.546 5.98009 0.500552 0
M  V30 4024 H 372.616 4.83763 -0.331856 0
M  V30 4025 N 373.959 -0.0401083 1.57549 0
M  V30 4026 C 374.906 -1.04413 2.05831 0
M  V30 4027 C 375.876 -1.36585 0.945184 0
M  V30 4028 O 377.061 -1.47112 1.21502 0
M  V30 4029 C 374.201 -2.34336 2.53339 0
M  V30 4030 C 373.314 -2.08419 3.78398 0
M  V30 4031 C 372.449 -3.32133 4.14561 0
M  V30 4032 C 371.488 -3.01721 5.3257 0
M  V30 4033 N 370.625 -4.17855 5.64218 0
M  V30 4034 H 375.465 -0.625442 2.91363 0
M  V30 4035 H 373.002 -0.297218 1.44066 0
M  V30 4036 H 374.96 -3.10234 2.78946 0
M  V30 4037 H 373.59 -2.73948 1.7074 0
M  V30 4038 H 372.642 -1.23069 3.59942 0
M  V30 4039 H 373.954 -1.81978 4.64419 0
M  V30 4040 H 373.108 -4.16406 4.41238 0
M  V30 4041 H 371.847 -3.61678 3.2717 0
M  V30 4042 H 370.852 -2.15849 5.05657 0
M  V30 4043 H 372.077 -2.73466 6.21605 0
M  V30 4044 H 370.023 -4.47372 4.79786 0
M  V30 4045 H 369.94 -3.94798 6.44725 0
M  V30 4046 H 371.208 -5.03033 5.95465 0
M  V30 4047 N 375.437 -1.54477 -0.31217 0
M  V30 4048 C 376.367 -1.87652 -1.38957 0
M  V30 4049 C 377.348 -0.734358 -1.53431 0
M  V30 4050 O 378.533 -0.98911 -1.67123 0
M  V30 4051 C 375.663 -2.11396 -2.75552 0
M  V30 4052 C 374.617 -3.27243 -2.75855 0
M  V30 4053 C 373.943 -3.36382 -4.15633 0
M  V30 4054 C 375.243 -4.64622 -2.38587 0
M  V30 4055 H 376.937 -2.77887 -1.11442 0
M  V30 4056 H 374.483 -1.33707 -0.534655 0
M  V30 4057 H 376.436 -2.33189 -3.51 0
M  V30 4058 H 375.16 -1.17921 -3.04569 0
M  V30 4059 H 373.819 -3.05356 -2.02863 0
M  V30 4060 H 373.467 -2.40445 -4.41809 0
M  V30 4061 H 373.167 -4.14249 -4.1674 0
M  V30 4062 H 374.691 -3.60422 -4.92877 0
M  V30 4063 H 376.105 -4.86219 -3.03749 0
M  V30 4064 H 374.502 -5.45121 -2.50925 0
M  V30 4065 H 375.572 -4.66097 -1.33723 0
M  V30 4066 O 376.954 0.458097 -1.54867 0
M  V30 4067 H 377.645 1.11218 -1.58588 0
M  V30 END ATOM
M  V30 BEGIN BOND
M  V30 END BOND
M  V30 END CTAB
M  END
$$$$
