drugbank_target|Q9ZNA2 Recombination protein RecR (DB03366)
 OpenBabel12092120273D

  0  0  0     0  0            999 V3000
M  V30 BEGIN CTAB
M  V30 COUNTS 3352 3384 0 0 0
M  V30 BEGIN ATOM
M  V30 1 H -0.908 1.98254 -0.117106 0
M  V30 2 N 0 1.576 0 0
M  V30 3 C 0.933 2.03868 1.02534 0
M  V30 4 C 1.911 0.928543 1.3348 0
M  V30 5 O 3.095 1.19667 1.45644 0
M  V30 6 C 0.222 2.43627 2.35294 0
M  V30 7 C -0.732 3.65373 2.2001 0
M  V30 8 S 0.101 5.13292 1.52614 0
M  V30 9 C 1.257 5.56322 2.86805 0
M  V30 10 H 1.49 2.90518 0.631377 0
M  V30 11 H -0.977 1.52953 0.210867 0
M  V30 12 H 0.981 2.67203 3.11629 0
M  V30 13 H -0.358 1.57376 2.7183 0
M  V30 14 H -1.165 3.90944 3.18086 0
M  V30 15 H -1.563 3.418 1.51819 0
M  V30 16 H 0.729 5.58782 3.83104 0
M  V30 17 H 1.672 6.56266 2.65933 0
M  V30 18 H 2.08 4.83886 2.90714 0
M  V30 19 N 1.4781 -0.272755 1.55222 0
M  V30 20 C 2.4251 -1.33716 1.88119 0
M  V30 21 C 3.3951 -1.49066 0.73271 0
M  V30 22 O 4.5801 -1.63469 0.984002 0
M  V30 23 C 1.7201 -2.69238 2.15882 0
M  V30 24 C 0.8331 -2.62108 3.43399 0
M  V30 25 C -0.0319 -3.89811 3.60861 0
M  V30 26 C -0.9929 -3.77193 4.8207 0
M  V30 27 N -1.8559 -4.9673 4.96189 0
M  V30 28 H 2.9841 -1.04962 2.78903 0
M  V30 29 H 0.5211 -0.507088 1.38083 0
M  V30 30 H 2.4791 -3.48089 2.29978 0
M  V30 31 H 1.1091 -2.96194 1.28331 0
M  V30 32 H 0.1611 -1.74967 3.37773 0
M  V30 33 H 1.4731 -2.48685 4.32386 0
M  V30 34 H 0.6271 -4.77103 3.74777 0
M  V30 35 H -0.6339 -4.06102 2.7006 0
M  V30 36 H -1.6289 -2.88284 4.68159 0
M  V30 37 H -0.4039 -3.62421 5.74307 0
M  V30 38 H -2.4579 -5.13431 4.08319 0
M  V30 39 H -2.5409 -4.85839 5.79221 0
M  V30 40 H -1.2729 -5.85594 5.1449 0
M  V30 41 N 2.9562 -1.48159 -0.537278 0
M  V30 42 C 4.1862 -1.59223 -1.3165 0
M  V30 43 C 4.5942 -0.248849 -1.87556 0
M  V30 44 O 3.9372 0.770949 -1.6674 0
M  V30 45 C 3.9992 -2.57365 -2.51005 0
M  V30 46 C 3.6632 -4.02603 -2.16239 0
M  V30 47 C 4.6602 -4.90503 -1.72344 0
M  V30 48 C 2.3452 -4.48088 -2.26986 0
M  V30 49 C 4.3392 -6.21913 -1.39651 0
M  V30 50 C 2.0262 -5.7952 -1.93906 0
M  V30 51 C 3.0242 -6.66255 -1.50309 0
M  V30 52 O 2.7122 -7.95243 -1.17659 0
M  V30 53 H 2.4442 -0.539831 -0.406889 0
M  V30 54 H 4.9982 -1.94655 -0.655641 0
M  V30 55 H 3.2282 -2.1704 -3.20048 0
M  V30 56 H 4.9172 -2.58342 -3.13072 0
M  V30 57 H 5.6832 -4.56604 -1.63517 0
M  V30 58 H 1.5622 -3.80769 -2.59877 0
M  V30 59 H 5.1062 -6.89569 -1.0555 0
M  V30 60 H 1.0032 -6.12957 -2.02371 0
M  V30 61 H 1.7712 -8.0793 -1.31119 0
M  V30 62 N 4.4343 0.785586 -1.36625 0
M  V30 63 C 5.8453 1.36101 -1.27803 0
M  V30 64 C 6.1963 1.96035 0.0804875 0
M  V30 65 O 5.3213 1.92834 0.982042 0
M  V30 66 C 5.9163 2.47442 -2.31426 0
M  V30 67 C 4.4753 3.00789 -2.26281 0
M  V30 68 C 3.6223 1.73896 -2.15999 0
M  V30 69 H 6.5733 0.586928 -1.47448 0
M  V30 70 H 6.5943 3.2656 -1.95291 0
M  V30 71 H 6.1063 2.03791 -3.30289 0
M  V30 72 H 4.2073 3.48851 -1.30896 0
M  V30 73 H 4.3203 3.57343 -3.19128 0
M  V30 74 H 2.6843 1.9628 -1.62316 0
M  V30 75 H 3.4673 1.32368 -3.16755 0
M  V30 76 N 5.9124 1.20967 1.01018 0
M  V30 77 C 7.3234 1.02319 1.56165 0
M  V30 78 C 7.6744 -0.418546 1.91684 0
M  V30 79 O 6.7994 -1.30096 1.72928 0
M  V30 80 C 7.3944 1.85109 2.8376 0
M  V30 81 C 5.9534 1.70809 3.35412 0
M  V30 82 C 5.1004 1.82643 2.08655 0
M  V30 83 H 8.0514 1.35065 0.833255 0
M  V30 84 H 8.0724 1.35827 3.55431 0
M  V30 85 H 7.5844 2.90035 2.57878 0
M  V30 86 H 5.6854 0.685464 3.66241 0
M  V30 87 H 5.7984 2.52467 4.07182 0
M  V30 88 H 4.1624 1.25896 2.21409 0
M  V30 89 H 4.9454 2.89066 1.85191 0
M  V30 90 N 7.3905 -1.2043 1.01659 0
M  V30 91 C 8.6155 -1.94318 0.724942 0
M  V30 92 C 9.0405 -1.74266 -0.708034 0
M  V30 93 O 8.3985 -1.03694 -1.48719 0
M  V30 94 C 8.4465 -3.44486 1.06591 0
M  V30 95 O 7.5505 -4.12017 0.177599 0
M  V30 96 H 6.8915 -0.60708 0.26898 0
M  V30 97 H 9.4215 -1.52861 1.35995 0
M  V30 98 H 9.4315 -3.95106 1.01762 0
M  V30 99 H 8.1065 -3.58404 2.10997 0
M  V30 100 H 6.6835 -3.71821 0.283421 0
M  V30 101 N 8.8686 -0.792821 -1.36206 0
M  V30 102 C 9.7986 -0.207853 -2.32573 0
M  V30 103 C 10.7796 0.659055 -1.56813 0
M  V30 104 O 11.9646 0.592176 -1.84951 0
M  V30 105 C 9.0946 0.655449 -3.41059 0
M  V30 106 C 8.0486 -0.111842 -4.27854 0
M  V30 107 C 7.3746 0.872274 -5.27537 0
M  V30 108 C 8.6746 -1.30299 -5.05786 0
M  V30 109 H 10.3686 -1.01294 -2.81744 0
M  V30 110 H 7.9146 -0.48854 -1.3546 0
M  V30 111 H 9.8676 1.07464 -4.07467 0
M  V30 112 H 8.5916 1.49328 -2.90463 0
M  V30 113 H 7.2506 -0.512053 -3.63006 0
M  V30 114 H 6.8986 1.70523 -4.73214 0
M  V30 115 H 6.5986 0.363291 -5.86476 0
M  V30 116 H 8.1226 1.28996 -5.96818 0
M  V30 117 H 9.5366 -0.959379 -5.65216 0
M  V30 118 H 7.9336 -1.7455 -5.74154 0
M  V30 119 H 9.0036 -2.09663 -4.37229 0
M  V30 120 N 10.3467 1.47872 -0.545128 0
M  V30 121 C 11.5927 2.02793 -0.0166104 0
M  V30 122 C 11.9257 1.41987 1.32489 0
M  V30 123 O 11.2007 0.571045 1.85928 0
M  V30 124 C 11.4837 3.59989 0.0893294 0
M  V30 125 C 11.3367 4.3125 -1.27841 0
M  V30 126 C 12.6557 4.32606 0.808724 0
M  V30 127 H 9.7747 0.736962 -0.00751035 0
M  V30 128 H 12.4167 1.76433 -0.705085 0
M  V30 129 H 10.5667 3.82579 0.675681 0
M  V30 130 H 12.2387 4.20035 -1.90704 0
M  V30 131 H 10.4817 3.92076 -1.85632 0
M  V30 132 H 11.1527 5.39736 -1.15713 0
M  V30 133 H 13.6287 4.14936 0.310992 0
M  V30 134 H 12.5047 5.42251 0.851782 0
M  V30 135 H 12.7657 4.00963 1.86229 0
M  V30 136 N 11.8248 0.280983 1.55075 0
M  V30 137 C 13.0498 -0.340154 2.04592 0
M  V30 138 C 13.4748 -1.48246 1.15779 0
M  V30 139 O 12.8328 -1.80614 0.15761 0
M  V30 140 C 12.8808 -0.793104 3.5177 0
M  V30 141 O 11.9848 -1.89981 3.66034 0
M  V30 142 H 11.3258 -0.0694289 0.66036 0
M  V30 143 H 13.8558 0.416993 2.00306 0
M  V30 144 H 13.8658 -1.08729 3.93245 0
M  V30 145 H 12.5408 0.0426163 4.15878 0
M  V30 146 H 11.1178 -1.60771 3.36463 0
M  V30 147 N 13.3029 -1.57598 0.00835791 0
M  V30 148 C 14.2329 -2.1198 -0.979113 0
M  V30 149 C 15.2139 -1.03091 -1.35301 0
M  V30 150 O 16.3989 -1.30818 -1.43528 0
M  V30 151 C 13.5289 -2.62995 -2.26828 0
M  V30 152 C 12.4829 -3.76485 -2.03576 0
M  V30 153 C 11.8089 -4.13846 -3.38579 0
M  V30 154 C 13.1089 -5.0342 -1.39161 0
M  V30 155 H 14.8029 -2.94738 -0.526281 0
M  V30 156 H 12.3489 -1.41783 -0.251704 0
M  V30 157 H 14.3019 -2.99669 -2.96271 0
M  V30 158 H 13.0259 -1.7737 -2.7424 0
M  V30 159 H 11.6849 -3.40217 -1.36557 0
M  V30 160 H 11.3329 -3.25232 -3.83709 0
M  V30 161 H 11.0329 -4.90312 -3.23834 0
M  V30 162 H 12.5569 -4.53086 -4.09323 0
M  V30 163 H 13.9709 -5.37812 -1.98573 0
M  V30 164 H 12.3679 -5.84746 -1.34878 0
M  V30 165 H 13.4379 -4.83548 -0.361868 0
M  V30 166 N 14.781 0.264519 -1.55364 0
M  V30 167 C 16.03 0.992812 -1.75574 0
M  V30 168 C 16.343 1.87142 -0.568979 0
M  V30 169 O 17.549 2.63513 -0.653682 0
M  V30 170 C 16.005 1.81519 -3.10771 0
M  V30 171 C 15.613 0.984839 -4.37041 0
M  V30 172 C 17.357 2.53727 -3.40327 0
M  V30 173 C 15.264 1.80209 -5.63275 0
M  V30 174 H 14.194 0.374412 -0.65447 0
M  V30 175 H 16.845 0.248138 -1.81815 0
M  V30 176 H 15.227 2.60115 -2.98591 0
M  V30 177 H 16.401 0.242455 -4.60162 0
M  V30 178 H 14.716 0.37691 -4.14691 0
M  V30 179 H 17.313 3.15292 -4.3185 0
M  V30 180 H 17.656 3.24447 -2.60845 0
M  V30 181 H 18.189 1.82156 -3.53644 0
M  V30 182 H 14.928 1.13896 -6.45529 0
M  V30 183 H 14.448 2.52022 -5.44284 0
M  V30 184 H 16.127 2.37364 -6.01887 0
M  V30 185 N 16.2591 1.48442 0.529413 0
M  V30 186 C 17.6751 1.34575 0.858004 0
M  V30 187 C 17.8751 0.3572 1.98309 0
M  V30 188 O 16.9311 -0.221379 2.51528 0
M  V30 189 C 18.2441 2.74617 1.22499 0
M  V30 190 C 19.7921 2.83109 1.33484 0
M  V30 191 C 20.2671 4.23854 1.73526 0
M  V30 192 N 21.7581 4.2653 1.80628 0
M  V30 193 C 22.4931 5.32372 2.12997 0
M  V30 194 N 21.9891 6.48491 2.43786 0
M  V30 195 N 23.7821 5.19766 2.14008 0
M  V30 196 H 15.9331 2.1133 -0.212925 0
M  V30 197 H 18.1961 0.947439 -0.0326199 0
M  V30 198 H 17.9021 3.4852 0.471905 0
M  V30 199 H 17.7761 3.08177 2.17501 0
M  V30 200 H 20.1631 2.09462 2.0787 0
M  V30 201 H 20.2441 2.53168 0.366027 0
M  V30 202 H 19.8881 4.98018 0.997013 0
M  V30 203 H 19.8181 4.5124 2.71459 0
M  V30 204 H 22.3091 3.42772 1.59108 0
M  V30 205 H 22.6221 7.24993 2.67592 0
M  V30 206 H 20.9671 6.51765 2.41304 0
M  V30 207 H 24.1581 4.28066 1.89412 0
M  V30 208 H 24.3311 6.02354 2.38902 0
M  V30 209 N 17.7372 -0.778329 1.37039 0
M  V30 210 C 18.6472 -1.92253 1.34446 0
M  V30 211 C 19.6632 -1.72267 0.244991 0
M  V30 212 O 20.8392 -1.95615 0.479258 0
M  V30 213 C 17.9042 -3.27282 1.144 0
M  V30 214 C 16.9652 -3.59969 2.33925 0
M  V30 215 C 16.1982 -4.88555 2.14825 0
M  V30 216 O 16.4212 -5.59113 1.12912 0
M  V30 217 O 15.3552 -5.20153 3.02861 0
M  V30 218 H 19.1812 -1.97392 2.30803 0
M  V30 219 H 16.7662 -0.920154 1.17701 0
M  V30 220 H 18.6482 -4.08062 1.05182 0
M  V30 221 H 17.3232 -3.23011 0.211124 0
M  V30 222 H 16.2302 -2.7945 2.48714 0
M  V30 223 H 17.5632 -3.68976 3.25757 0
M  V30 224 N 19.2153 -1.21501 -1.00376 0
M  V30 225 C 20.1453 -0.999478 -2.11028 0
M  V30 226 C 21.1263 0.0759671 -1.6993 0
M  V30 227 O 22.3113 -0.0841106 -1.94018 0
M  V30 228 C 19.4413 -0.564709 -3.42678 0
M  V30 229 C 18.3953 -1.58486 -3.97576 0
M  V30 230 C 17.7213 -1.00628 -5.25146 0
M  V30 231 C 19.0213 -2.97204 -4.29496 0
M  V30 232 H 20.7153 -1.92495 -2.29317 0
M  V30 233 H 18.2613 -0.92693 -1.102 0
M  V30 234 H 20.2143 -0.401091 -4.19487 0
M  V30 235 H 18.9383 0.396411 -3.24185 0
M  V30 236 H 17.5973 -1.73606 -3.22888 0
M  V30 237 H 17.2453 -0.0368439 -5.02987 0
M  V30 238 H 16.9453 -1.68771 -5.62841 0
M  V30 239 H 18.4693 -0.854015 -6.04598 0
M  V30 240 H 19.8833 -2.8552 -4.97143 0
M  V30 241 H 18.2803 -3.62372 -4.78338 0
M  V30 242 H 19.3503 -3.47956 -3.3772 0
M  V30 243 N 20.6934 1.19889 -1.02296 0
M  V30 244 C 21.9184 1.9393 -0.735237 0
M  V30 245 C 22.3434 1.74639 0.698782 0
M  V30 246 O 21.7014 1.04481 1.48167 0
M  V30 247 C 21.7494 3.43916 -1.08417 0
M  V30 248 O 20.8534 4.11917 -0.199446 0
M  V30 249 H 20.1944 0.605645 -0.272196 0
M  V30 250 H 22.7244 1.52137 -1.36804 0
M  V30 251 H 22.7344 3.9456 -1.03856 0
M  V30 252 H 21.4094 3.5728 -2.12894 0
M  V30 253 H 19.9864 3.71666 -0.303136 0
M  V30 254 N 22.1715 0.800033 1.35784 0
M  V30 255 C 23.5875 0.482977 1.52117 0
M  V30 256 C 23.7875 -0.996948 1.75109 0
M  V30 257 O 22.8435 -1.78216 1.78872 0
M  V30 258 C 24.1565 1.32264 2.70049 0
M  V30 259 C 25.7045 1.31742 2.83924 0
M  V30 260 C 26.1795 2.14106 4.04874 0
M  V30 261 N 27.6705 2.11607 4.12039 0
M  V30 262 C 28.4055 2.72099 5.04727 0
M  V30 263 N 27.9015 3.41492 6.02789 0
M  V30 264 N 29.6945 2.61776 4.97423 0
M  V30 265 H 21.8455 1.75856 1.19115 0
M  V30 266 H 24.1085 0.748122 0.582252 0
M  V30 267 H 23.8145 2.37261 2.59616 0
M  V30 268 H 23.6885 0.971303 3.6448 0
M  V30 269 H 26.0755 0.275333 2.93813 0
M  V30 270 H 26.1565 1.70859 1.9037 0
M  V30 271 H 25.8005 3.18351 3.95746 0
M  V30 272 H 25.7305 1.72353 4.97596 0
M  V30 273 H 28.2215 1.61112 3.41835 0
M  V30 274 H 28.5345 3.84953 6.70098 0
M  V30 275 H 26.8795 3.45596 6.02983 0
M  V30 276 H 30.0705 2.07157 4.19766 0
M  V30 277 H 30.2435 3.0921 5.69468 0
M  V30 278 N 23.6496 -1.47581 0.552962 0
M  V30 279 C 24.5796 -2.32762 -0.185451 0
M  V30 280 C 25.5606 -1.43527 -0.912905 0
M  V30 281 O 26.7456 -1.72388 -0.894201 0
M  V30 282 C 23.8756 -3.25219 -1.21859 0
M  V30 283 C 22.8296 -4.23661 -0.607864 0
M  V30 284 C 22.1556 -5.05413 -1.74533 0
M  V30 285 C 23.4556 -5.20481 0.435582 0
M  V30 286 H 25.1496 -2.94749 0.525684 0
M  V30 287 H 22.6956 -1.41738 0.254251 0
M  V30 288 H 24.6486 -3.8365 -1.7433 0
M  V30 289 H 23.3726 -2.61279 -1.95961 0
M  V30 290 H 22.0316 -3.66451 -0.104489 0
M  V30 291 H 21.6796 -4.3788 -2.47529 0
M  V30 292 H 21.3796 -5.72059 -1.34249 0
M  V30 293 H 22.9036 -5.66701 -2.27338 0
M  V30 294 H 24.3176 -5.733 -0.00290157 0
M  V30 295 H 22.7146 -5.95305 0.757067 0
M  V30 296 H 23.7846 -4.66217 1.33303 0
M  V30 297 N 25.1277 -0.289203 -1.54924 0
M  V30 298 C 26.5387 0.205791 -1.85562 0
M  V30 299 C 26.8897 1.54351 -1.2112 0
M  V30 300 O 26.0147 2.10435 -0.504601 0
M  V30 301 C 26.6097 0.380177 -3.3666 0
M  V30 302 C 25.1687 0.819395 -3.67373 0
M  V30 303 C 24.3157 -0.079159 -2.77187 0
M  V30 304 H 27.2667 -0.510577 -1.50262 0
M  V30 305 H 27.2877 1.21659 -3.60526 0
M  V30 306 H 26.7997 -0.593589 -3.83534 0
M  V30 307 H 24.9007 1.80413 -3.26009 0
M  V30 308 H 25.0137 0.646957 -4.74712 0
M  V30 309 H 23.3777 0.439565 -2.50878 0
M  V30 310 H 24.1607 -1.04906 -3.26878 0
M  V30 311 N 26.6058 1.57591 -0.0167156 0
M  V30 312 C 27.8538 1.90906 0.663285 0
M  V30 313 C 28.1748 0.892509 1.73376 0
M  V30 314 O 27.4448 -0.0677623 1.95783 0
M  V30 315 H 26.0248 0.704637 0.247983 0
M  V30 316 H 28.6868 1.94803 -0.0615909 0
M  V30 317 H 27.7828 2.9116 1.12393 0
M  V30 318 N 28.0839 -0.256276 1.55502 0
M  V30 319 C 29.3329 -0.983486 1.76098 0
M  V30 320 C 29.6459 -1.86837 0.578896 0
M  V30 321 O 30.8519 -2.63163 0.667648 0
M  V30 322 C 29.3079 -1.79868 3.1173 0
M  V30 323 C 28.9159 -0.961648 4.37557 0
M  V30 324 C 30.6599 -2.51919 3.41668 0
M  V30 325 C 28.5669 -1.77219 5.64223 0
M  V30 326 H 27.4969 -0.370936 0.656447 0
M  V30 327 H 30.1479 -0.238492 1.81944 0
M  V30 328 H 28.5299 -2.58527 2.99966 0
M  V30 329 H 29.7039 -0.218048 4.60284 0
M  V30 330 H 28.0189 -0.354913 4.14885 0
M  V30 331 H 30.6159 -3.12998 4.33516 0
M  V30 332 H 30.9589 -3.23059 2.62562 0
M  V30 333 H 31.4919 -1.80278 3.54605 0
M  V30 334 H 28.2309 -1.10471 6.46124 0
M  V30 335 H 27.7509 -2.49132 5.45613 0
M  V30 336 H 29.4299 -2.34169 6.03137 0
M  V30 337 N 29.562 -1.4872 -0.521534 0
M  V30 338 C 30.81 -1.56857 -1.27437 0
M  V30 339 C 31.131 -0.247982 -1.93417 0
M  V30 340 O 30.401 0.731151 -1.81744 0
M  V30 341 H 28.981 -0.577885 -0.473347 0
M  V30 342 H 31.643 -1.85233 -0.606205 0
M  V30 343 H 30.739 -2.35402 -2.0492 0
M  V30 344 N 31.0401 0.771051 -1.3745 0
M  V30 345 C 32.4511 1.34737 -1.29239 0
M  V30 346 C 32.8021 1.96109 0.0596908 0
M  V30 347 O 31.9271 1.93865 0.961534 0
M  V30 348 C 32.5221 2.44973 -2.34037 0
M  V30 349 C 31.0811 2.98372 -2.29458 0
M  V30 350 C 30.2281 1.71595 -2.17831 0
M  V30 351 H 33.1791 0.571256 -1.48062 0
M  V30 352 H 33.2001 3.24471 -1.98744 0
M  V30 353 H 32.7121 2.00276 -3.32432 0
M  V30 354 H 30.8131 3.47443 -1.34589 0
M  V30 355 H 30.9261 3.53939 -3.229 0
M  V30 356 H 29.2901 1.94547 -1.64388 0
M  V30 357 H 30.0731 1.29001 -3.18141 0
M  V30 358 N 32.5182 1.22032 0.997298 0
M  V30 359 C 33.4652 0.986467 2.08656 0
M  V30 360 C 34.4352 -0.0902671 1.65855 0
M  V30 361 O 35.6202 0.0584294 1.90711 0
M  V30 362 C 32.7602 0.565569 3.40434 0
M  V30 363 C 31.8732 1.71259 3.96604 0
M  V30 364 C 31.0082 1.24011 5.16522 0
M  V30 365 C 30.0472 2.35896 5.64818 0
M  V30 366 N 29.1842 1.89726 6.7598 0
M  V30 367 H 34.0242 1.91892 2.27994 0
M  V30 368 H 31.5612 0.956199 1.11782 0
M  V30 369 H 33.5192 0.302738 4.161 0
M  V30 370 H 32.1492 -0.329879 3.2111 0
M  V30 371 H 31.2012 2.08986 3.17851 0
M  V30 372 H 32.5132 2.55436 4.28432 0
M  V30 373 H 31.6672 0.934395 5.99461 0
M  V30 374 H 30.4062 0.368487 4.86306 0
M  V30 375 H 29.4112 2.67261 4.8047 0
M  V30 376 H 30.6362 3.23567 5.97061 0
M  V30 377 H 28.5822 1.0492 6.47555 0
M  V30 378 H 28.4992 2.67471 7.07103 0
M  V30 379 H 29.7672 1.62211 7.62435 0
M  V30 380 N 33.9963 -1.19345 1.0293 0
M  V30 381 C 35.2213 -1.93538 0.745511 0
M  V30 382 C 35.6463 -1.75007 -0.689511 0
M  V30 383 O 35.0043 -1.05265 -1.47611 0
M  V30 384 C 35.0523 -3.43336 1.10239 0
M  V30 385 O 34.1563 -4.11806 0.221289 0
M  V30 386 H 33.4973 -0.604193 0.275404 0
M  V30 387 H 36.0273 -1.5141 1.37609 0
M  V30 388 H 36.0373 -3.94004 1.05947 0
M  V30 389 H 34.7123 -3.56146 2.14786 0
M  V30 390 H 33.2893 -3.715 0.322842 0
M  V30 391 N 35.4744 -0.807222 -1.35358 0
M  V30 392 C 36.4374 -0.223665 -2.28106 0
M  V30 393 C 37.4374 0.589354 -1.4961 0
M  V30 394 O 38.6274 0.407745 -1.69361 0
M  V30 395 C 35.7594 0.688149 -3.33882 0
M  V30 396 H 36.9524 -1.04169 -2.81227 0
M  V30 397 H 34.5054 -0.577921 -1.45223 0
M  V30 398 H 35.2404 1.52984 -2.85948 0
M  V30 399 H 35.0254 0.10687 -3.91954 0
M  V30 400 H 36.5154 1.09075 -4.03104 0
M  V30 401 N 36.9525 1.47285 -0.560781 0
M  V30 402 C 37.8845 2.28118 0.222438 0
M  V30 403 C 38.8975 1.37219 0.876056 0
M  V30 404 O 40.0865 1.62011 0.749307 0
M  V30 405 C 37.1865 3.1159 1.33285 0
M  V30 406 C 36.3595 4.30473 0.77534 0
M  V30 407 C 35.4185 4.95513 1.77069 0
M  V30 408 O 34.4445 5.53792 1.31539 0
M  V30 409 N 35.6465 4.90531 3.10418 0
M  V30 410 H 38.4115 2.95976 -0.470958 0
M  V30 411 H 35.9725 1.56955 -0.39709 0
M  V30 412 H 37.9645 3.51967 1.99752 0
M  V30 413 H 36.5345 2.45951 1.92943 0
M  V30 414 H 35.7545 3.94144 -0.0662113 0
M  V30 415 H 37.0425 5.07362 0.382272 0
M  V30 416 H 36.4405 4.44389 3.5005 0
M  V30 417 H 34.9975 5.34917 3.72434 0
M  V30 418 N 38.4306 0.297415 1.54768 0
M  V30 419 C 39.8466 -0.0560823 1.59501 0
M  V30 420 C 40.0466 -1.52725 1.31444 0
M  V30 421 O 39.1026 -2.27947 1.08611 0
M  V30 422 C 40.4156 0.338631 2.98787 0
M  V30 423 C 41.9636 0.287097 3.11681 0
M  V30 424 C 42.4386 0.656579 4.53269 0
M  V30 425 N 43.9296 0.608977 4.59179 0
M  V30 426 C 44.6646 0.867385 5.66802 0
M  V30 427 N 44.1606 1.19157 6.82476 0
M  V30 428 N 45.9536 0.794687 5.56454 0
M  V30 429 H 38.1046 1.25624 1.71267 0
M  V30 430 H 40.3676 0.509057 0.799728 0
M  V30 431 H 40.0736 1.36263 3.2423 0
M  V30 432 H 39.9476 -0.309508 3.75928 0
M  V30 433 H 42.3346 -0.727649 2.85988 0
M  V30 434 H 42.4156 0.969809 2.36703 0
M  V30 435 H 42.0596 1.66912 4.7969 0
M  V30 436 H 41.9896 -0.0481649 5.26578 0
M  V30 437 H 44.4806 0.369198 3.76092 0
M  V30 438 H 44.7936 1.37482 7.60473 0
M  V30 439 H 43.1386 1.22958 6.84037 0
M  V30 440 H 46.3296 0.541098 4.64962 0
M  V30 441 H 46.5026 0.999445 6.40246 0
M  V30 442 N 39.9087 -1.5758 0.0250728 0
M  V30 443 C 40.8387 -2.13007 -0.956575 0
M  V30 444 C 41.8197 -1.0452 -1.342 0
M  V30 445 O 43.0047 -1.32332 -1.42133 0
M  V30 446 C 40.1347 -2.65386 -2.24026 0
M  V30 447 C 39.0887 -3.78623 -1.99571 0
M  V30 448 C 38.4147 -4.17414 -3.3417 0
M  V30 449 C 39.7147 -5.04867 -1.33814 0
M  V30 450 H 41.4087 -2.9528 -0.494991 0
M  V30 451 H 38.9547 -1.42042 -0.236651 0
M  V30 452 H 40.9077 -3.02794 -2.93076 0
M  V30 453 H 39.6317 -1.80268 -2.72343 0
M  V30 454 H 38.2907 -3.41646 -1.32941 0
M  V30 455 H 37.9387 -3.29284 -3.80238 0
M  V30 456 H 37.6387 -4.93719 -3.18615 0
M  V30 457 H 39.1627 -4.57402 -4.04495 0
M  V30 458 H 40.5767 -5.39888 -1.92857 0
M  V30 459 H 38.9737 -5.86144 -1.28669 0
M  V30 460 H 40.0437 -4.83904 -0.310561 0
M  V30 461 N 41.3868 0.248026 -1.55636 0
M  V30 462 C 42.3498 1.29044 -1.89421 0
M  V30 463 C 43.3498 1.41134 -0.770581 0
M  V30 464 O 44.5398 1.39854 -1.03858 0
M  V30 465 C 41.6718 2.66831 -2.12165 0
M  V30 466 H 42.8648 1.00305 -2.82629 0
M  V30 467 H 40.4178 0.487265 -1.48511 0
M  V30 468 H 41.1528 3.00711 -1.21422 0
M  V30 469 H 40.9378 2.59438 -2.93997 0
M  V30 470 H 42.4278 3.42103 -2.3949 0
M  V30 471 N 42.8649 1.48995 0.513639 0
M  V30 472 C 44.1119 1.57843 1.26854 0
M  V30 473 C 44.4399 0.259501 1.92761 0
M  V30 474 O 43.6949 -0.75159 1.80692 0
M  V30 475 C 43.9939 2.67756 2.36731 0
M  V30 476 C 43.6599 4.09669 1.88368 0
M  V30 477 C 42.3219 4.48291 1.74896 0
M  V30 478 C 44.6739 4.98537 1.52021 0
M  V30 479 C 42.0019 5.73568 1.23438 0
M  V30 480 C 44.3539 6.24319 1.0202 0
M  V30 481 C 43.0179 6.61783 0.871778 0
M  V30 482 H 42.2879 0.577587 0.464192 0
M  V30 483 H 44.9349 1.82778 0.571366 0
M  V30 484 H 43.2399 2.36743 3.12185 0
M  V30 485 H 44.9369 2.71813 2.9482 0
M  V30 486 H 41.5269 3.79176 1.99808 0
M  V30 487 H 45.7109 4.69363 1.61281 0
M  V30 488 H 40.9669 6.01304 1.10648 0
M  V30 489 H 45.1409 6.92566 0.729722 0
M  V30 490 H 42.7679 7.5874 0.470852 0
M  V30 491 N 44.343 -0.763751 1.37857 0
M  V30 492 C 45.293 -1.86765 1.30777 0
M  V30 493 C 46.277 -1.59726 0.194015 0
M  V30 494 O 47.469 -1.7172 0.42911 0
M  V30 495 C 44.598 -3.24343 1.12502 0
M  V30 496 C 43.684 -3.57307 2.28456 0
M  V30 497 N 44.075 -3.61398 3.53871 0
M  V30 498 C 42.373 -3.87517 2.20786 0
M  V30 499 C 43.074 -3.91339 4.30382 0
M  V30 500 N 42.05 -4.07649 3.59615 0
M  V30 501 H 45.852 -1.88191 2.25746 0
M  V30 502 H 43.366 -0.9606 1.30944 0
M  V30 503 H 45.363 -4.03327 1.05514 0
M  V30 504 H 44.023 -3.24175 0.184574 0
M  V30 505 H 45.034 -3.43407 3.87675 0
M  V30 506 H 41.711 -3.95125 1.34844 0
M  V30 507 H 43.101 -4.01213 5.3896 0
M  V30 508 N 45.8211 -1.22559 -0.990812 0
M  V30 509 C 46.7511 -1.0218 -2.09956 0
M  V30 510 C 47.7321 0.0579394 -1.70001 0
M  V30 511 O 48.9171 -0.104684 -1.93918 0
M  V30 512 C 46.0471 -0.601023 -3.4206 0
M  V30 513 C 45.0011 -1.62694 -3.95872 0
M  V30 514 C 44.3271 -1.06193 -5.24049 0
M  V30 515 C 45.6271 -3.01743 -4.2632 0
M  V30 516 H 47.3211 -1.94916 -2.27262 0
M  V30 517 H 44.8671 -0.938566 -1.09211 0
M  V30 518 H 46.8201 -0.445561 -4.19038 0
M  V30 519 H 45.5441 0.362005 -3.24588 0
M  V30 520 H 44.2031 -1.77021 -3.21028 0
M  V30 521 H 43.8511 -0.0901903 -5.02919 0
M  V30 522 H 43.5511 -1.74732 -5.61019 0
M  V30 523 H 45.0751 -0.918092 -6.03658 0
M  V30 524 H 46.4891 -2.90777 -4.94087 0
M  V30 525 H 44.8861 -3.67425 -4.74467 0
M  V30 526 H 45.9561 -3.51518 -3.34011 0
M  V30 527 N 47.2992 1.18797 -1.03562 0
M  V30 528 C 48.5462 1.8865 -0.736023 0
M  V30 529 C 48.8742 1.80041 0.735889 0
M  V30 530 O 48.1292 1.19179 1.55225 0
M  V30 531 C 48.4282 3.38692 -1.14117 0
M  V30 532 C 48.0942 3.67504 -2.6125 0
M  V30 533 C 46.7562 3.75078 -3.01447 0
M  V30 534 C 49.1082 3.80293 -3.56408 0
M  V30 535 C 46.4362 3.92915 -4.35701 0
M  V30 536 C 48.7882 3.99645 -4.90374 0
M  V30 537 C 47.4522 4.05453 -5.30249 0
M  V30 538 H 46.7222 0.690321 -0.26933 0
M  V30 539 H 49.3692 1.40641 -1.29971 0
M  V30 540 H 47.6742 3.88645 -0.496202 0
M  V30 541 H 49.3712 3.91072 -0.886789 0
M  V30 542 H 45.9612 3.62223 -2.29113 0
M  V30 543 H 50.1452 3.73779 -3.26501 0
M  V30 544 H 45.4012 3.95653 -4.66121 0
M  V30 545 H 49.5752 4.08482 -5.64017 0
M  V30 546 H 47.2022 4.19027 -6.34288 0
M  V30 547 N 48.7773 0.814389 1.34928 0
M  V30 548 C 49.6873 0.231978 2.3345 0
M  V30 549 C 50.7033 -0.629139 1.62228 0
M  V30 550 O 51.8793 -0.539052 1.94052 0
M  V30 551 C 48.9443 -0.603482 3.41407 0
M  V30 552 C 48.0053 0.279037 4.28392 0
M  V30 553 C 47.2383 -0.516643 5.31193 0
M  V30 554 O 47.4613 -1.75068 5.4287 0
M  V30 555 O 46.3953 0.0965652 6.01823 0
M  V30 556 H 50.2213 1.04721 2.85074 0
M  V30 557 H 47.8063 0.576343 1.37836 0
M  V30 558 H 49.6883 -1.07908 4.0735 0
M  V30 559 H 48.3633 -1.39618 2.92042 0
M  V30 560 H 47.2703 0.801948 3.65403 0
M  V30 561 H 48.6033 1.03588 4.81176 0
M  V30 562 N 50.2554 -1.46986 0.568584 0
M  V30 563 C 51.1874 -2.28233 -0.210337 0
M  V30 564 C 52.2004 -1.37682 -0.868767 0
M  V30 565 O 53.3894 -1.62406 -0.740705 0
M  V30 566 C 50.4894 -3.12293 -1.3163 0
M  V30 567 C 49.6624 -4.30878 -0.7525 0
M  V30 568 C 48.7214 -4.96445 -1.74439 0
M  V30 569 O 47.7474 -5.54482 -1.286 0
M  V30 570 N 48.9494 -4.92171 -3.07812 0
M  V30 571 H 51.7144 -2.95723 0.486648 0
M  V30 572 H 49.2754 -1.56742 0.405409 0
M  V30 573 H 51.2674 -3.53022 -1.97883 0
M  V30 574 H 49.8374 -2.46971 -1.91636 0
M  V30 575 H 49.0574 -3.94104 0.0871128 0
M  V30 576 H 50.3454 -5.07558 -0.35536 0
M  V30 577 H 49.7434 -4.46239 -3.47688 0
M  V30 578 H 48.3004 -5.36884 -3.69592 0
M  V30 579 N 51.7335 -0.305618 -1.54608 0
M  V30 580 C 53.1445 0.186098 -1.8577 0
M  V30 581 C 53.4955 1.53058 -1.22751 0
M  V30 582 O 52.6205 2.09888 -0.526893 0
M  V30 583 C 53.2155 0.344449 -3.37044 0
M  V30 584 C 51.7745 0.780384 -3.68221 0
M  V30 585 C 50.9215 -0.108554 -2.77087 0
M  V30 586 H 53.8725 -0.526485 -1.49712 0
M  V30 587 H 53.8935 1.17828 -3.61796 0
M  V30 588 H 53.4055 -0.634235 -3.82883 0
M  V30 589 H 51.5065 1.76945 -3.27904 0
M  V30 590 H 51.6195 0.596572 -4.75371 0
M  V30 591 H 49.9835 0.412931 -2.5133 0
M  V30 592 H 50.7665 -1.08368 -3.25747 0
M  V30 593 N 53.2116 1.57565 -0.0334293 0
M  V30 594 C 54.6276 1.56297 0.322997 0
M  V30 595 C 54.8276 1.03945 1.7262 0
M  V30 596 O 53.8836 0.688109 2.42943 0
M  V30 597 C 55.1966 3.00232 0.167664 0
M  V30 598 C 56.7446 3.12078 0.240107 0
M  V30 599 C 57.2196 4.57859 0.113513 0
M  V30 600 N 58.7106 4.62887 0.170359 0
M  V30 601 C 59.4456 5.73319 0.0962517 0
M  V30 602 N 58.9416 6.92794 -0.0291881 0
M  V30 603 N 60.7346 5.61898 0.150551 0
M  V30 604 H 52.8856 1.89923 -0.950956 0
M  V30 605 H 55.1486 0.873824 -0.367608 0
M  V30 606 H 54.8546 3.42501 -0.799102 0
M  V30 607 H 54.7286 3.654 0.936083 0
M  V30 608 H 57.1156 2.69718 1.19733 0
M  V30 609 H 57.1966 2.49623 -0.558763 0
M  V30 610 H 56.8406 5.009 -0.840314 0
M  V30 611 H 56.7706 5.18299 0.931302 0
M  V30 612 H 59.2616 3.76954 0.26728 0
M  V30 613 H 59.5746 7.7276 -0.0789252 0
M  V30 614 H 57.9196 6.94971 -0.0640299 0
M  V30 615 H 61.1106 4.67448 0.246981 0
M  V30 616 H 61.2836 6.47938 0.0893365 0
M  V30 617 N 54.6897 -0.239769 1.55765 0
M  V30 618 C 55.5997 -1.31831 1.94056 0
M  V30 619 C 56.6157 -1.52275 0.841925 0
M  V30 620 O 57.7917 -1.65759 1.14394 0
M  V30 621 C 54.8567 -2.65156 2.23368 0
M  V30 622 C 53.9177 -2.53173 3.46701 0
M  V30 623 C 53.1507 -3.8014 3.74606 0
M  V30 624 O 53.3737 -4.82343 3.04469 0
M  V30 625 O 52.3077 -3.78344 4.68123 0
M  V30 626 H 56.1337 -1.02347 2.85935 0
M  V30 627 H 53.7187 -0.441123 1.42739 0
M  V30 628 H 55.6007 -3.43929 2.43497 0
M  V30 629 H 54.2757 -2.94358 1.34666 0
M  V30 630 H 53.1827 -1.72662 3.31871 0
M  V30 631 H 54.5157 -2.28915 4.35728 0
M  V30 632 N 56.1678 -1.49265 -0.50573 0
M  V30 633 C 57.4448 -1.49012 -1.26707 0
M  V30 634 C 57.8248 -0.215205 -2.1 0
M  V30 635 O 57.1728 0.802547 -2.13943 0
M  V30 636 C 57.3828 -2.7663 -2.12783 0
M  V30 637 C 58.7308 -3.25932 -2.72127 0
M  V30 638 O 59.7548 -2.77715 -2.23054 0
M  V30 639 O 58.6138 -4.09897 -3.61451 0
M  V30 640 H 55.7078 -0.596197 -0.57313 0
M  V30 641 H 58.2538 -1.61524 -0.52039 0
M  V30 642 H 57.0258 -3.60916 -1.5118 0
M  V30 643 H 56.6488 -2.66956 -2.94653 0
M  V30 644 N 57.6459 0.756429 -1.3826 0
M  V30 645 C 58.8949 1.51082 -1.3363 0
M  V30 646 C 59.2079 1.95467 0.0720068 0
M  V30 647 O 60.4139 2.7043 0.240834 0
M  V30 648 C 58.8699 2.72893 -2.34644 0
M  V30 649 C 58.4779 2.35544 -3.81081 0
M  V30 650 C 60.2219 3.50791 -2.39052 0
M  V30 651 C 58.1289 3.53948 -4.73787 0
M  V30 652 H 57.0589 0.56727 -0.49671 0
M  V30 653 H 59.7099 0.827147 -1.638 0
M  V30 654 H 58.0919 3.43227 -1.97513 0
M  V30 655 H 59.2659 1.72894 -4.27135 0
M  V30 656 H 57.5809 1.70786 -3.79764 0
M  V30 657 H 60.1779 4.38823 -3.05513 0
M  V30 658 H 60.5209 3.91745 -1.40861 0
M  V30 659 H 61.0539 2.87467 -2.74968 0
M  V30 660 H 57.7929 3.18064 -5.73163 0
M  V30 661 H 57.3129 4.15651 -4.32428 0
M  V30 662 H 58.9919 4.20566 -4.91663 0
M  V30 663 N 59.124 1.23083 0.984299 0
M  V30 664 C 60.034 1.02515 2.11016 0
M  V30 665 C 61.05 -0.0291702 1.73976 0
M  V30 666 O 62.226 0.165434 2.00719 0
M  V30 667 C 59.291 0.614673 3.41208 0
M  V30 668 C 58.352 1.74359 3.92297 0
M  V30 669 C 57.585 1.35261 5.16275 0
M  V30 670 O 57.808 0.235136 5.69915 0
M  V30 671 O 56.742 2.17227 5.61334 0
M  V30 672 H 60.568 1.96862 2.31255 0
M  V30 673 H 58.153 1.01753 1.09392 0
M  V30 674 H 60.035 0.396518 4.1953 0
M  V30 675 H 58.71 -0.299851 3.22308 0
M  V30 676 H 57.617 2.01635 3.1511 0
M  V30 677 H 58.95 2.63629 4.15645 0
M  V30 678 N 60.6021 -1.18246 1.0419 0
M  V30 679 C 62.0181 -1.40269 0.761366 0
M  V30 680 C 62.2181 -1.90777 -0.648578 0
M  V30 681 O 61.2741 -2.0929 -1.41258 0
M  V30 682 C 62.5871 -2.40237 1.8085 0
M  V30 683 C 64.1351 -2.53961 1.82955 0
M  V30 684 C 64.6101 -3.57194 2.86664 0
M  V30 685 N 66.1011 -3.64702 2.85563 0
M  V30 686 C 66.8361 -4.44309 3.6246 0
M  V30 687 N 66.3321 -5.27514 4.49111 0
M  V30 688 N 68.1251 -4.39084 3.50944 0
M  V30 689 H 60.2761 -0.837882 1.95175 0
M  V30 690 H 62.5391 -0.430608 0.84456 0
M  V30 691 H 62.2451 -2.10176 2.81991 0
M  V30 692 H 62.1191 -3.39601 1.64168 0
M  V30 693 H 64.5061 -2.83338 0.824855 0
M  V30 694 H 64.5871 -1.54706 2.03715 0
M  V30 695 H 64.2311 -3.28558 3.87314 0
M  V30 696 H 64.1611 -4.5613 2.6316 0
M  V30 697 H 66.6521 -3.05289 2.22727 0
M  V30 698 H 66.9651 -5.85411 5.04493 0
M  V30 699 H 65.3101 -5.2693 4.53178 0
M  V30 700 H 68.5011 -3.7313 2.82651 0
M  V30 701 H 68.6741 -5.00883 4.11121 0
M  V30 702 N 62.0802 -0.821533 -1.34494 0
M  V30 703 C 63.0102 -0.257138 -2.3208 0
M  V30 704 C 63.9912 0.625645 -1.58176 0
M  V30 705 O 65.1762 0.552811 -1.86166 0
M  V30 706 C 62.3062 0.582958 -3.42372 0
M  V30 707 C 61.2602 -0.202571 -4.2752 0
M  V30 708 C 60.5862 0.760179 -5.29269 0
M  V30 709 C 61.8862 -1.40998 -5.02908 0
M  V30 710 H 63.5802 -1.07247 -2.79532 0
M  V30 711 H 61.1262 -0.517163 -1.34393 0
M  V30 712 H 63.0792 0.987972 -4.09655 0
M  V30 713 H 61.8032 1.43133 -2.93565 0
M  V30 714 H 60.4622 -0.588936 -3.61838 0
M  V30 715 H 60.1102 1.60447 -4.76724 0
M  V30 716 H 59.8102 0.238809 -5.87115 0
M  V30 717 H 61.3342 1.16308 -5.9942 0
M  V30 718 H 62.7482 -1.07905 -5.63054 0
M  V30 719 H 61.1452 -1.86689 -5.70322 0
M  V30 720 H 62.2152 -2.1889 -4.32684 0
M  V30 721 N 63.5583 1.46682 -0.576371 0
M  V30 722 C 64.5213 2.28707 0.150239 0
M  V30 723 C 65.5213 1.38035 0.824794 0
M  V30 724 O 66.7113 1.60476 0.677719 0
M  V30 725 C 63.8433 3.18248 1.22192 0
M  V30 726 H 65.0363 2.94423 -0.570521 0
M  V30 727 H 62.5893 1.52688 -0.334078 0
M  V30 728 H 63.3243 2.57265 1.97447 0
M  V30 729 H 63.1093 3.85 0.742812 0
M  V30 730 H 64.5993 3.80001 1.73172 0
M  V30 731 N 65.0364 0.313813 1.54444 0
M  V30 732 C 66.2614 -0.296681 2.05267 0
M  V30 733 C 66.6864 -1.45757 1.18897 0
M  V30 734 O 66.0444 -1.80239 0.195886 0
M  V30 735 C 66.0924 -0.71831 3.53373 0
M  V30 736 O 65.1964 -1.82175 3.69981 0
M  V30 737 H 64.5374 -0.0554061 0.661684 0
M  V30 738 H 67.0674 0.459387 1.99376 0
M  V30 739 H 67.0774 -1.00364 3.95463 0
M  V30 740 H 65.7524 0.130821 4.15694 0
M  V30 741 H 64.3294 -1.53598 3.39797 0
M  V30 742 N 66.5145 -1.57545 0.0417849 0
M  V30 743 C 67.4775 -2.09885 -0.92093 0
M  V30 744 C 68.4775 -1.01648 -1.24596 0
M  V30 745 O 69.6675 -1.27759 -1.1842 0
M  V30 746 C 66.7995 -2.57527 -2.23367 0
M  V30 747 H 67.9925 -2.96236 -0.467382 0
M  V30 748 H 65.5455 -1.5493 -0.206467 0
M  V30 749 H 66.2805 -1.74542 -2.73323 0
M  V30 750 H 66.0655 -3.36613 -2.01083 0
M  V30 751 H 67.5555 -2.98201 -2.92346 0
M  V30 752 N 67.9926 0.231505 -1.5589 0
M  V30 753 C 68.9226 1.29022 -1.94617 0
M  V30 754 C 69.9036 1.4941 -0.813067 0
M  V30 755 O 71.0886 1.6176 -1.07459 0
M  V30 756 C 68.2186 2.64199 -2.25424 0
M  V30 757 C 67.1726 2.58484 -3.41131 0
M  V30 758 C 66.4986 3.97599 -3.57518 0
M  V30 759 C 67.7986 2.1413 -4.76388 0
M  V30 760 H 69.4926 0.968563 -2.83301 0
M  V30 761 H 67.0386 0.464479 -1.36303 0
M  V30 762 H 68.9916 3.38413 -2.51107 0
M  V30 763 H 67.7156 2.98032 -1.33583 0
M  V30 764 H 66.3746 1.86727 -3.15481 0
M  V30 765 H 66.0226 4.28723 -2.6307 0
M  V30 766 H 65.7226 3.94659 -4.35337 0
M  V30 767 H 67.2466 4.7349 -3.85538 0
M  V30 768 H 68.6606 2.78083 -5.01341 0
M  V30 769 H 67.0576 2.2227 -5.57419 0
M  V30 770 H 68.1276 1.09331 -4.72414 0
M  V30 771 N 69.4707 1.49531 0.497807 0
M  V30 772 C 70.4007 1.6935 1.60757 0
M  V30 773 C 71.3817 0.542218 1.61227 0
M  V30 774 O 72.5667 0.778417 1.77917 0
M  V30 775 C 69.6967 1.76298 2.99226 0
M  V30 776 C 68.6507 2.91248 3.13622 0
M  V30 777 C 67.9767 2.83312 4.53474 0
M  V30 778 C 69.2767 4.3214 2.93346 0
M  V30 779 H 70.9707 2.62263 1.44425 0
M  V30 780 H 68.5167 1.26208 0.693367 0
M  V30 781 H 70.4697 1.88749 3.76765 0
M  V30 782 H 69.1937 0.799871 3.16654 0
M  V30 783 H 67.8527 2.78404 2.38509 0
M  V30 784 H 67.5007 1.84902 4.67782 0
M  V30 785 H 67.2007 3.60465 4.64046 0
M  V30 786 H 68.7247 2.97775 5.33069 0
M  V30 787 H 70.1387 4.45649 3.60652 0
M  V30 788 H 68.5357 5.1054 3.15387 0
M  V30 789 H 69.6057 4.46363 1.89441 0
M  V30 790 N 70.9488 -0.749086 1.3866 0
M  V30 791 C 71.8588 -1.89358 1.38494 0
M  V30 792 C 72.8748 -1.71708 0.281476 0
M  V30 793 O 74.0508 -1.94554 0.520643 0
M  V30 794 C 71.1158 -3.24782 1.21316 0
M  V30 795 C 70.1768 -3.54926 2.41508 0
M  V30 796 C 69.4098 -4.83888 2.2514 0
M  V30 797 O 69.6328 -5.56592 1.24746 0
M  V30 798 O 68.5668 -5.13612 3.13826 0
M  V30 799 H 72.3928 -1.92452 2.34938 0
M  V30 800 H 69.9778 -0.894981 1.19626 0
M  V30 801 H 71.8598 -4.05739 1.13814 0
M  V30 802 H 70.5348 -3.2249 0.279592 0
M  V30 803 H 69.4418 -2.74112 2.54585 0
M  V30 804 H 70.7748 -3.61983 3.3351 0
M  V30 805 N 72.4269 -1.23603 -0.977757 0
M  V30 806 C 73.3899 -1.02069 -2.05218 0
M  V30 807 C 74.3899 0.0184305 -1.60789 0
M  V30 808 O 75.5799 -0.221569 -1.72785 0
M  V30 809 C 72.7119 -0.544926 -3.36517 0
M  V30 810 H 73.9049 -1.9742 -2.25755 0
M  V30 811 H 71.4579 -1.05684 -1.15155 0
M  V30 812 H 72.1929 0.412241 -3.21669 0
M  V30 813 H 71.9779 -1.2948 -3.70105 0
M  V30 814 H 73.4679 -0.414985 -4.15533 0
M  V30 815 N 73.905 1.17692 -1.04816 0
M  V30 816 C 74.852 2.21581 -0.645797 0
M  V30 817 C 75.822 1.62367 0.350159 0
M  V30 818 O 77.007 1.89254 0.242433 0
M  V30 819 C 74.147 3.45092 -0.0227568 0
M  V30 820 C 73.26 4.18613 -1.06709 0
M  V30 821 C 72.395 5.29602 -0.411767 0
M  V30 822 C 71.434 5.94904 -1.44067 0
M  V30 823 N 70.571 6.97414 -0.809781 0
M  V30 824 H 75.411 2.55353 -1.5362 0
M  V30 825 H 72.948 1.25438 -0.768364 0
M  V30 826 H 74.906 4.15679 0.35588 0
M  V30 827 H 73.536 3.11917 0.831122 0
M  V30 828 H 72.588 3.46779 -1.5636 0
M  V30 829 H 73.9 4.63293 -1.84827 0
M  V30 830 H 73.054 6.06696 0.0206623 0
M  V30 831 H 71.793 4.86045 0.401438 0
M  V30 832 H 70.798 5.16544 -1.88316 0
M  V30 833 H 72.023 6.40542 -2.25571 0
M  V30 834 H 69.969 6.55998 -0.0170186 0
M  V30 835 H 69.886 7.40386 -1.52856 0
M  V30 836 H 71.154 7.78463 -0.401999 0
M  V30 837 N 75.3831 0.828654 1.34056 0
M  V30 838 C 76.7991 0.515135 1.51058 0
M  V30 839 C 76.9991 -0.959581 1.77184 0
M  V30 840 O 76.0551 -1.74382 1.82612 0
M  V30 841 C 77.3681 1.37963 2.67183 0
M  V30 842 C 78.9161 1.37735 2.81066 0
M  V30 843 C 79.3911 2.22645 4.00241 0
M  V30 844 N 80.8821 2.203 4.07458 0
M  V30 845 C 81.6171 2.82744 4.98842 0
M  V30 846 N 81.1131 3.54201 5.9541 0
M  V30 847 N 82.9061 2.72268 4.91759 0
M  V30 848 H 75.0571 1.78343 1.15358 0
M  V30 849 H 77.3201 0.760304 0.566252 0
M  V30 850 H 77.0261 2.42714 2.54525 0
M  V30 851 H 76.9001 1.0484 3.62338 0
M  V30 852 H 79.2871 0.337593 2.93163 0
M  V30 853 H 79.3681 1.74859 1.86703 0
M  V30 854 H 79.0121 3.26674 3.88905 0
M  V30 855 H 78.9421 1.82869 4.93829 0
M  V30 856 H 81.4331 1.68327 3.38341 0
M  V30 857 H 81.7461 3.9908 6.61782 0
M  V30 858 H 80.0911 3.58308 5.95517 0
M  V30 859 H 83.2821 2.16014 4.15278 0
M  V30 860 H 83.4551 3.21219 5.62781 0
M  V30 861 N 76.8612 -1.46375 0.584142 0
M  V30 862 C 78.1382 -1.956 0.0033388 0
M  V30 863 C 78.5182 -1.52679 -1.45782 0
M  V30 864 O 77.8662 -0.77816 -2.14842 0
M  V30 865 C 78.0762 -3.48551 0.176891 0
M  V30 866 C 79.4242 -4.24576 0.0454609 0
M  V30 867 O 80.4482 -3.56043 0.105801 0
M  V30 868 O 79.3072 -5.46427 -0.0890376 0
M  V30 869 H 76.4012 -0.825547 -0.0490066 0
M  V30 870 H 78.9472 -1.56652 0.65256 0
M  V30 871 H 77.7192 -3.72683 1.1926 0
M  V30 872 H 77.3422 -3.94332 -0.508695 0
M  V30 873 N 78.3393 -0.321999 -1.54275 0
M  V30 874 C 79.2693 0.537411 -2.27231 0
M  V30 875 C 80.2503 1.12064 -1.27968 0
M  V30 876 O 81.4353 1.14606 -1.56777 0
M  V30 877 C 78.5653 1.69919 -3.02894 0
M  V30 878 C 77.5193 1.24534 -4.09482 0
M  V30 879 C 76.8453 2.49394 -4.72977 0
M  V30 880 C 78.1453 0.361335 -5.21049 0
M  V30 881 H 79.8393 -0.0711406 -2.99315 0
M  V30 882 H 77.3853 -0.0356555 -1.43956 0
M  V30 883 H 79.3383 2.30668 -3.52662 0
M  V30 884 H 78.0623 2.33431 -2.28424 0
M  V30 885 H 76.7213 0.660782 -3.60596 0
M  V30 886 H 76.3693 3.11265 -3.95124 0
M  V30 887 H 76.0693 2.19718 -5.44975 0
M  V30 888 H 77.5933 3.10908 -5.25517 0
M  V30 889 H 79.0073 0.875072 -5.66582 0
M  V30 890 H 77.4043 0.157428 -5.99893 0
M  V30 891 H 78.4743 -0.60822 -4.8107 0
M  V30 892 N 79.8174 1.5752 -0.0501392 0
M  V30 893 C 80.7674 2.07981 0.934231 0
M  V30 894 C 81.7514 0.984745 1.27246 0
M  V30 895 O 82.9434 1.24809 1.25506 0
M  V30 896 C 80.0724 2.62751 2.20945 0
M  V30 897 C 79.1584 3.79225 1.89865 0
M  V30 898 N 79.5494 4.89036 1.29142 0
M  V30 899 C 77.8474 3.88111 2.19741 0
M  V30 900 C 78.5484 5.70084 1.15669 0
M  V30 901 N 77.5244 5.17659 1.65923 0
M  V30 902 H 81.3264 2.90277 0.460053 0
M  V30 903 H 78.8404 1.61665 0.15434 0
M  V30 904 H 80.8374 2.97205 2.9236 0
M  V30 905 H 79.4974 1.81894 2.6897 0
M  V30 906 H 80.5084 5.08854 0.963756 0
M  V30 907 H 77.1854 3.18194 2.70293 0
M  V30 908 H 78.5754 6.68395 0.685356 0
M  V30 909 N 81.2955 -0.223234 1.56011 0
M  V30 910 C 82.5415 -0.949279 1.79211 0
M  V30 911 C 82.8745 -1.84054 0.619494 0
M  V30 912 O 82.1495 -1.90726 -0.381317 0
M  V30 913 C 82.4325 -1.78965 3.12479 0
M  V30 914 C 82.2855 -0.924997 4.40186 0
M  V30 915 C 83.6045 -2.76774 3.42175 0
M  V30 916 H 80.7235 -0.343676 0.651963 0
M  V30 917 H 83.3655 -0.218253 1.88742 0
M  V30 918 H 81.5155 -2.41291 3.04485 0
M  V30 919 H 83.1875 -0.318615 4.60198 0
M  V30 920 H 81.4305 -0.230344 4.33188 0
M  V30 921 H 82.1015 -1.54735 5.29869 0
M  V30 922 H 84.5775 -2.24584 3.50287 0
M  V30 923 H 83.4535 -3.32678 4.36597 0
M  V30 924 H 83.7145 -3.54429 2.64258 0
M  V30 925 N 82.7736 -1.49793 -0.48987 0
M  V30 926 C 84.0136 -1.61466 -1.25332 0
M  V30 927 C 84.3776 -0.299688 -1.89647 0
M  V30 928 O 85.5786 -0.291687 -2.67213 0
M  V30 929 C 83.8496 -2.74944 -2.28343 0
M  V30 930 S 85.4086 -3.06637 -3.13878 0
M  V30 931 H 82.2266 -0.569411 -0.425784 0
M  V30 932 H 84.8286 -1.875 -0.553541 0
M  V30 933 H 83.5326 -3.68994 -1.79643 0
M  V30 934 H 83.0636 -2.50938 -3.02975 0
M  V30 935 H 85.0786 -2.49015 -4.29192 0
M  V30 936 N 84.2517 0.741722 -1.39055 0
M  V30 937 C 85.6627 1.31966 -1.32068 0
M  V30 938 C 86.0137 1.96192 0.0180797 0
M  V30 939 O 85.1387 1.95861 0.920196 0
M  V30 940 C 85.7337 2.39954 -2.39181 0
M  V30 941 C 84.2927 2.93438 -2.35735 0
M  V30 942 C 83.4397 1.66936 -2.21422 0
M  V30 943 H 86.3907 0.539721 -1.4924 0
M  V30 944 H 86.4117 3.20182 -2.05581 0
M  V30 945 H 85.9237 1.9318 -3.36605 0
M  V30 946 H 84.0247 3.4451 -1.41929 0
M  V30 947 H 84.1377 3.4701 -3.30335 0
M  V30 948 H 82.5017 1.91016 -1.68478 0
M  V30 949 H 83.2847 1.22224 -3.20806 0
M  V30 950 N 85.7298 1.2412 0.971189 0
M  V30 951 C 86.9788 1.07284 1.70801 0
M  V30 952 C 87.2918 -0.388902 1.91695 0
M  V30 953 O 88.4978 -0.677379 2.62914 0
M  V30 954 C 86.9538 1.87145 3.07416 0
M  V30 955 C 86.5618 3.37707 2.94377 0
M  V30 956 C 88.3058 1.78828 3.84995 0
M  V30 957 C 86.2128 4.09925 4.26281 0
M  V30 958 H 85.1428 0.397854 0.64049 0
M  V30 959 H 87.7938 1.4817 1.0825 0
M  V30 960 H 86.1758 1.39071 3.70777 0
M  V30 961 H 87.3498 3.93335 2.4005 0
M  V30 962 H 85.6648 3.46938 2.30267 0
M  V30 963 H 88.2618 2.30089 4.82662 0
M  V30 964 H 88.6048 0.75284 4.09436 0
M  V30 965 H 89.1378 2.24563 3.28354 0
M  V30 966 H 85.8768 5.13813 4.07033 0
M  V30 967 H 85.3968 3.59083 4.80437 0
M  V30 968 H 87.0758 4.1673 4.94919 0
M  V30 969 N 87.2079 -1.17134 1.05439 0
M  V30 970 C 88.4479 -1.89137 0.77502 0
M  V30 971 C 88.8119 -1.79345 -0.685526 0
M  V30 972 O 90.0129 -2.46188 -1.0791 0
M  V30 973 C 88.2839 -3.35003 1.2453 0
M  V30 974 S 89.8429 -4.24952 1.09367 0
M  V30 975 H 86.6609 -0.652949 0.281387 0
M  V30 976 H 89.2629 -1.4145 1.34953 0
M  V30 977 H 87.9669 -3.39666 2.30338 0
M  V30 978 H 87.4979 -3.87736 0.665166 0
M  V30 979 H 89.5129 -4.96196 0.0193397 0
M  V30 980 N 88.686 -0.835752 -1.33615 0
M  V30 981 C 89.933 -0.429959 -1.97883 0
M  V30 982 C 90.261 1.01006 -1.66217 0
M  V30 983 O 89.516 1.72047 -0.93265 0
M  V30 984 C 89.815 -0.593925 -3.52431 0
M  V30 985 C 89.481 -2.00158 -4.04039 0
M  V30 986 C 88.143 -2.38662 -4.17844 0
M  V30 987 C 90.495 -2.92117 -4.31644 0
M  V30 988 C 87.823 -3.68435 -4.56588 0
M  V30 989 C 90.175 -4.21368 -4.71838 0
M  V30 990 C 88.839 -4.59833 -4.83849 0
M  V30 991 H 88.109 -0.157333 -0.724104 0
M  V30 992 H 90.756 -1.06217 -1.59343 0
M  V30 993 H 89.061 0.121619 -3.91611 0
M  V30 994 H 90.758 -0.260282 -4.00154 0
M  V30 995 H 87.348 -1.69252 -3.93766 0
M  V30 996 H 91.532 -2.63608 -4.20505 0
M  V30 997 H 86.788 -3.98046 -4.64079 0
M  V30 998 H 90.962 -4.92703 -4.92155 0
M  V30 999 H 88.589 -5.60438 -5.13627 0
M  V30 1000 N 90.1641 1.46063 -0.591896 0
M  V30 1001 C 91.1121 2.32124 0.148739 0
M  V30 1002 C 92.1061 1.45035 0.875286 0
M  V30 1003 O 93.3121 1.61609 0.792632 0
M  V30 1004 H 89.6871 0.749024 0.066832 0
M  V30 1005 H 91.6581 2.92392 -0.595783 0
M  V30 1006 C 90.4071 3.28373 1.1431 0
M  V30 1007 H 89.7301 3.95371 0.59346 0
M  V30 1008 H 91.1701 3.91352 1.63155 0
M  V30 1009 C 89.6291 2.54393 2.20875 0
M  V30 1010 O 90.1591 2.31373 3.28374 0
M  V30 1011 N 88.3651 2.14797 1.95731 0
M  V30 1012 H 87.9121 2.33719 1.08319 0
M  V30 1013 H 87.8701 1.65619 2.67241 0
M  V30 1014 N 91.6422 0.330177 1.54103 0
M  V30 1015 C 92.8912 -0.271336 1.99867 0
M  V30 1016 C 93.2042 -1.52723 1.22209 0
M  V30 1017 O 94.4102 -2.20515 1.58383 0
M  V30 1018 C 92.8662 -0.534032 3.55916 0
M  V30 1019 C 92.4742 0.705193 4.42415 0
M  V30 1020 C 94.2182 -1.09514 4.1013 0
M  V30 1021 C 92.1252 0.414035 5.89949 0
M  V30 1022 H 91.0552 -0.105166 0.74663 0
M  V30 1023 H 93.7062 0.443429 1.78062 0
M  V30 1024 H 92.0882 -1.30915 3.73734 0
M  V30 1025 H 93.2622 1.4804 4.36372 0
M  V30 1026 H 91.5772 1.18698 3.99124 0
M  V30 1027 H 94.1742 -1.3277 5.17954 0
M  V30 1028 H 94.5172 -2.04656 3.62521 0
M  V30 1029 H 95.0502 -0.381038 3.95971 0
M  V30 1030 H 91.7892 1.33481 6.41766 0
M  V30 1031 H 91.3092 -0.323336 5.98928 0
M  V30 1032 H 92.9882 0.0263105 6.46995 0
M  V30 1033 N 93.1203 -1.57491 0.0584922 0
M  V30 1034 C 94.3483 -1.97296 -0.623037 0
M  V30 1035 C 94.7633 -0.936338 -1.63946 0
M  V30 1036 O 94.1203 0.0785981 -1.82331 0
M  V30 1037 C 94.1713 -3.37183 -1.30345 0
M  V30 1038 O 93.8923 -4.36872 -0.32773 0
M  V30 1039 C 95.3933 -3.91788 -2.07406 0
M  V30 1040 H 92.6133 -0.649153 -0.169826 0
M  V30 1041 H 95.1573 -2.04106 0.12696 0
M  V30 1042 H 93.3123 -3.31502 -2.00463 0
M  V30 1043 H 93.7263 -5.18141 -0.814269 0
M  V30 1044 H 95.2003 -4.91926 -2.50425 0
M  V30 1045 H 95.6773 -3.27609 -2.92521 0
M  V30 1046 H 96.2833 -4.00829 -1.42184 0
M  V30 1047 N 94.5984 0.214957 -1.56127 0
M  V30 1048 C 95.8754 0.963093 -1.70247 0
M  V30 1049 C 96.2554 2.02166 -0.60764 0
M  V30 1050 O 95.6034 2.25244 0.384385 0
M  V30 1051 C 95.8134 1.56756 -3.11815 0
M  V30 1052 C 97.1614 2.0573 -3.7143 0
M  V30 1053 O 98.1854 1.66637 -3.14818 0
M  V30 1054 O 97.0444 2.77603 -4.70743 0
M  V30 1055 H 94.1384 0.450321 -0.693643 0
M  V30 1056 H 96.6844 0.206219 -1.68442 0
M  V30 1057 H 95.4564 0.803533 -3.82961 0
M  V30 1058 H 95.0794 2.3898 -3.17765 0
M  V30 1059 N 96.0765 1.50051 0.48192 0
M  V30 1060 C 97.0395 1.67584 1.5636 0
M  V30 1061 C 98.0395 0.546894 1.51214 0
M  V30 1062 O 99.2295 0.813725 1.54026 0
M  V30 1063 C 96.3615 1.691 2.96003 0
M  V30 1064 H 97.5545 2.64078 1.42136 0
M  V30 1065 H 95.1075 1.39369 0.707533 0
M  V30 1066 H 95.8425 0.742589 3.15684 0
M  V30 1067 H 95.6275 2.51105 3.01146 0
M  V30 1068 H 97.1175 1.84656 3.74556 0
M  V30 1069 N 97.5546 -0.734337 1.39446 0
M  V30 1070 C 98.4646 -1.87879 1.40495 0
M  V30 1071 C 99.4806 -1.714 0.299672 0
M  V30 1072 O 100.657 -1.93991 0.541249 0
M  V30 1073 C 97.7216 -3.23477 1.24754 0
M  V30 1074 C 96.7826 -3.52344 2.45259 0
M  V30 1075 C 96.0156 -4.81473 2.30259 0
M  V30 1076 O 96.2386 -5.55237 1.30643 0
M  V30 1077 O 95.1726 -5.10254 3.19256 0
M  V30 1078 H 98.9986 -1.89949 2.36966 0
M  V30 1079 H 96.5836 -0.882243 1.20569 0
M  V30 1080 H 98.4656 -4.04509 1.18111 0
M  V30 1081 H 97.1406 -3.22176 0.313781 0
M  V30 1082 H 96.0476 -2.71396 2.57478 0
M  V30 1083 H 97.3806 -3.58426 3.37331 0
M  V30 1084 N 99.0327 -1.24633 -0.964593 0
M  V30 1085 C 99.9797 -1.04144 -2.05968 0
M  V30 1086 C 100.95 0.046262 -1.66036 0
M  V30 1087 O 102.135 -0.108972 -1.90489 0
M  V30 1088 C 99.2747 -0.65563 -3.38815 0
M  V30 1089 C 98.3877 -1.81714 -3.91923 0
M  V30 1090 C 97.5227 -1.37662 -5.13052 0
M  V30 1091 C 96.5617 -2.50788 -5.58365 0
M  V30 1092 N 95.6987 -2.07582 -6.70712 0
M  V30 1093 H 100.539 -1.9787 -2.22827 0
M  V30 1094 H 98.0757 -0.9855 -1.09208 0
M  V30 1095 H 100.034 -0.412954 -4.15151 0
M  V30 1096 H 98.6637 0.244627 -3.21872 0
M  V30 1097 H 97.7157 -2.1734 -3.12198 0
M  V30 1098 H 99.0277 -2.66705 -4.21509 0
M  V30 1099 H 98.1817 -1.093 -5.96773 0
M  V30 1100 H 96.9207 -0.497293 -4.85158 0
M  V30 1101 H 95.9257 -2.79906 -4.73215 0
M  V30 1102 H 97.1507 -3.39283 -5.88272 0
M  V30 1103 H 95.0967 -1.22051 -6.44546 0
M  V30 1104 H 95.0137 -2.86125 -6.99763 0
M  V30 1105 H 96.2817 -1.82369 -7.57867 0
M  V30 1106 N 100.511 1.16574 -1.06058 0
M  V30 1107 C 101.751 1.88723 -0.78504 0
M  V30 1108 C 102.115 1.79706 0.676006 0
M  V30 1109 O 103.316 2.46757 1.06603 0
M  V30 1110 C 101.587 3.34338 -1.26304 0
M  V30 1111 S 103.146 4.24366 -1.1162 0
M  V30 1112 H 99.9638 0.651448 -0.284846 0
M  V30 1113 H 102.566 1.40732 -1.35701 0
M  V30 1114 H 101.27 3.38439 -2.32136 0
M  V30 1115 H 100.801 3.87378 -0.685719 0
M  V30 1116 H 102.816 4.96179 -0.0456539 0
M  V30 1117 N 101.989 0.842826 1.3317 0
M  V30 1118 C 103.266 0.362216 1.92217 0
M  V30 1119 C 103.646 -1.15289 1.76838 0
M  V30 1120 O 102.994 -1.96914 1.15919 0
M  V30 1121 C 103.204 0.813495 3.39387 0
M  V30 1122 C 104.552 0.823804 4.16532 0
M  V30 1123 O 105.576 0.757358 3.48055 0
M  V30 1124 O 104.435 0.915193 5.38782 0
M  V30 1125 H 101.529 0.103317 0.820521 0
M  V30 1126 H 104.075 0.928942 1.42017 0
M  V30 1127 H 102.847 1.85624 3.4447 0
M  V30 1128 H 102.47 0.223561 3.96971 0
M  V30 1129 N 103.467 -1.45747 0.599634 0
M  V30 1130 C 104.713 -2.02592 0.0918643 0
M  V30 1131 C 105.046 -1.46806 -1.27128 0
M  V30 1132 O 104.321 -0.639658 -1.83681 0
M  V30 1133 C 104.604 -3.60073 0.0443398 0
M  V30 1134 C 104.457 -4.26208 1.43759 0
M  V30 1135 C 105.776 -4.35309 -0.647608 0
M  V30 1136 H 102.895 -0.736175 0.034857 0
M  V30 1137 H 105.537 -1.73694 0.770081 0
M  V30 1138 H 103.687 -3.84823 -0.533224 0
M  V30 1139 H 105.359 -4.12668 2.06162 0
M  V30 1140 H 103.602 -3.84916 2.00056 0
M  V30 1141 H 104.273 -5.35069 1.35665 0
M  V30 1142 H 106.749 -4.15805 -0.156776 0
M  V30 1143 H 105.625 -5.45038 -0.649942 0
M  V30 1144 H 105.886 -4.07598 -1.71219 0
M  V30 1145 N 104.945 -0.338344 -1.53925 0
M  V30 1146 C 106.185 0.260168 -2.02737 0
M  V30 1147 C 106.549 1.48181 -1.22092 0
M  V30 1148 O 107.75 2.15416 -1.60777 0
M  V30 1149 C 106.021 0.571627 -3.52799 0
M  V30 1150 S 107.58 1.14769 -4.23525 0
M  V30 1151 H 104.398 0.077791 -0.706732 0
M  V30 1152 H 107 -0.474899 -1.89644 0
M  V30 1153 H 105.704 -0.325392 -4.09108 0
M  V30 1154 H 105.235 1.3365 -3.70002 0
M  V30 1155 H 107.25 2.43372 -4.32417 0
M  V30 1156 N 106.423 1.57458 -0.0668435 0
M  V30 1157 C 107.386 2.11323 0.887422 0
M  V30 1158 C 108.386 1.03618 1.22964 0
M  V30 1159 O 109.576 1.29626 1.16373 0
M  V30 1160 C 106.708 2.61048 2.19242 0
M  V30 1161 H 107.901 2.96942 0.420194 0
M  V30 1162 H 105.454 1.55239 0.181793 0
M  V30 1163 H 106.189 1.78868 2.70512 0
M  V30 1164 H 105.974 3.39769 1.95702 0
M  V30 1165 H 107.464 3.02814 2.87565 0
M  V30 1166 N 107.901 -0.206675 1.56239 0
M  V30 1167 C 109.178 -0.954051 1.70755 0
M  V30 1168 C 109.558 -2.01841 0.618353 0
M  V30 1169 O 108.906 -2.25444 -0.372434 0
M  V30 1170 C 109.116 -1.551 3.12642 0
M  V30 1171 C 110.464 -2.03757 3.72516 0
M  V30 1172 O 111.488 -1.64965 3.15698 0
M  V30 1173 O 110.347 -2.75103 4.72208 0
M  V30 1174 H 107.441 -0.446636 0.696021 0
M  V30 1175 H 109.987 -0.197283 1.68549 0
M  V30 1176 H 108.759 -0.783212 3.83382 0
M  V30 1177 H 108.382 -2.37291 3.19028 0
M  V30 1178 N 109.379 -1.50304 -0.473955 0
M  V30 1179 C 110.79 -1.54042 -1.0549 0
M  V30 1180 C 111.141 -0.342248 -1.93192 0
M  V30 1181 O 110.266 0.545157 -2.09421 0
M  V30 1182 C 110.861 -2.79152 -1.91989 0
M  V30 1183 C 109.42 -2.8558 -2.45196 0
M  V30 1184 C 108.567 -2.48295 -1.2347 0
M  V30 1185 H 111.518 -1.5661 -0.256693 0
M  V30 1186 H 111.539 -2.60845 -2.7702 0
M  V30 1187 H 111.051 -3.66339 -1.28131 0
M  V30 1188 H 109.152 -2.02738 -3.12615 0
M  V30 1189 H 109.265 -3.88403 -2.80499 0
M  V30 1190 H 107.629 -2.00669 -1.56856 0
M  V30 1191 H 108.412 -3.37787 -0.612789 0
M  V30 1192 N 110.857 0.726932 -1.39834 0
M  V30 1193 C 112.082 1.52121 -1.40976 0
M  V30 1194 C 112.507 1.88098 -0.00826029 0
M  V30 1195 O 111.865 1.52479 0.980807 0
M  V30 1196 C 111.913 2.78021 -2.29644 0
M  V30 1197 O 111.017 3.74272 -1.73188 0
M  V30 1198 H 110.358 0.45908 -0.479731 0
M  V30 1199 H 112.888 0.896207 -1.83927 0
M  V30 1200 H 112.898 3.26671 -2.44438 0
M  V30 1201 H 111.573 2.51169 -3.31492 0
M  V30 1202 H 110.15 3.33073 -1.6768 0
M  V30 1203 N 112.336 1.25143 0.95797 0
M  V30 1204 C 113.752 1.01892 1.22842 0
M  V30 1205 C 113.952 -0.266311 1.99732 0
M  V30 1206 O 113.008 -0.979913 2.3271 0
M  V30 1207 C 114.321 2.24004 2.00606 0
M  V30 1208 C 115.869 2.28731 2.13662 0
M  V30 1209 C 116.344 3.5049 2.94823 0
M  V30 1210 N 117.835 3.50866 3.02403 0
M  V30 1211 C 118.57 4.4174 3.65586 0
M  V30 1212 N 118.066 5.42882 4.30408 0
M  V30 1213 N 119.859 4.29429 3.62694 0
M  V30 1214 H 112.01 2.07718 0.443493 0
M  V30 1215 H 114.273 0.912031 0.258657 0
M  V30 1216 H 113.979 3.17395 1.51503 0
M  V30 1217 H 113.853 2.26907 3.01319 0
M  V30 1218 H 116.24 1.35865 2.61963 0
M  V30 1219 H 116.321 2.29848 1.12265 0
M  V30 1220 H 115.965 4.43676 2.47213 0
M  V30 1221 H 115.895 3.46617 3.96439 0
M  V30 1222 H 118.386 2.777 2.56302 0
M  V30 1223 H 118.699 6.0844 4.76467 0
M  V30 1224 H 117.044 5.46758 4.29047 0
M  V30 1225 H 120.235 3.49643 3.11236 0
M  V30 1226 H 120.408 5.00448 4.1165 0
M  V30 1227 N 113.814 -1.1601 1.06675 0
M  V30 1228 C 115.091 -1.82679 0.699114 0
M  V30 1229 C 115.471 -1.94559 -0.819137 0
M  V30 1230 O 114.819 -1.49169 -1.73092 0
M  V30 1231 C 115.029 -3.19445 1.40555 0
M  V30 1232 C 116.377 -3.95171 1.55323 0
M  V30 1233 O 117.401 -3.28976 1.36577 0
M  V30 1234 O 116.26 -5.13833 1.86112 0
M  V30 1235 H 113.354 -0.788954 0.247951 0
M  V30 1236 H 115.9 -1.23179 1.16726 0
M  V30 1237 H 114.672 -3.05856 2.44065 0
M  V30 1238 H 114.295 -3.86625 0.927733 0
M  V30 1239 N 115.292 -0.849877 -1.32721 0
M  V30 1240 C 116.224 -0.248332 -2.27851 0
M  V30 1241 C 117.237 0.577218 -1.52224 0
M  V30 1242 O 118.426 0.402489 -1.73903 0
M  V30 1243 C 115.526 0.668107 -3.32249 0
M  V30 1244 C 114.699 -0.120534 -4.37234 0
M  V30 1245 C 113.758 0.720932 -5.21238 0
M  V30 1246 O 112.784 0.156166 -5.68986 0
M  V30 1247 N 113.986 2.03647 -5.43607 0
M  V30 1248 H 116.751 -1.06575 -2.80111 0
M  V30 1249 H 114.312 -0.709395 -1.45531 0
M  V30 1250 H 116.304 1.23627 -3.85355 0
M  V30 1251 H 114.874 1.38621 -2.80184 0
M  V30 1252 H 114.094 -0.870108 -3.84477 0
M  V30 1253 H 115.382 -0.662406 -5.0447 0
M  V30 1254 H 114.78 2.51871 -5.06535 0
M  V30 1255 H 113.337 2.55287 -5.99727 0
M  V30 1256 N 116.77 1.45427 -0.607355 0
M  V30 1257 C 118.186 1.57283 -0.270985 0
M  V30 1258 C 118.386 1.59875 1.22647 0
M  V30 1259 O 117.442 1.52893 2.00948 0
M  V30 1260 C 118.755 2.85566 -0.941952 0
M  V30 1261 C 120.303 2.9924 -0.917849 0
M  V30 1262 C 120.778 4.30293 -1.56882 0
M  V30 1263 N 122.269 4.37051 -1.5343 0
M  V30 1264 C 123.004 5.37123 -2.00715 0
M  V30 1265 N 122.5 6.43734 -2.56084 0
M  V30 1266 N 124.293 5.28479 -1.91484 0
M  V30 1267 H 116.444 1.41988 -1.57966 0
M  V30 1268 H 118.707 0.67885 -0.661715 0
M  V30 1269 H 118.413 2.8955 -1.99633 0
M  V30 1270 H 118.287 3.74322 -0.465096 0
M  V30 1271 H 120.674 2.94822 0.127984 0
M  V30 1272 H 120.755 2.11895 -1.43297 0
M  V30 1273 H 120.399 4.35469 -2.61398 0
M  V30 1274 H 120.329 5.16454 -1.02873 0
M  V30 1275 H 122.82 3.60615 -1.12982 0
M  V30 1276 H 123.133 7.16341 -2.89958 0
M  V30 1277 H 121.478 6.44485 -2.60122 0
M  V30 1278 H 124.669 4.44098 -1.47967 0
M  V30 1279 H 124.842 6.0632 -2.28648 0
M  V30 1280 N 118.248 0.346503 1.53744 0
M  V30 1281 C 119.476 -0.25041 2.05379 0
M  V30 1282 C 119.891 -1.43979 1.22129 0
M  V30 1283 O 119.248 -1.80677 0.257321 0
M  V30 1284 C 119.299 -0.662575 3.55376 0
M  V30 1285 O 119.02 0.479515 4.35468 0
M  V30 1286 C 120.521 -1.31989 4.23195 0
M  V30 1287 H 117.741 -0.0478198 0.669294 0
M  V30 1288 H 120.285 0.499346 1.9831 0
M  V30 1289 H 118.44 -1.36227 3.62658 0
M  V30 1290 H 118.854 0.15037 5.24284 0
M  V30 1291 H 120.328 -1.55902 5.29527 0
M  V30 1292 H 120.805 -2.27436 3.75725 0
M  V30 1293 H 121.411 -0.662154 4.20114 0
M  V30 1294 N 119.726 -1.57421 0.075193 0
M  V30 1295 C 120.975 -1.92794 -0.592731 0
M  V30 1296 C 121.288 -0.957478 -1.70563 0
M  V30 1297 O 122.494 -1.20417 -2.43335 0
M  V30 1298 C 120.95 -3.42495 -1.10569 0
M  V30 1299 C 120.558 -4.47994 -0.0236121 0
M  V30 1300 C 122.302 -3.86864 -1.74748 0
M  V30 1301 C 120.209 -5.88829 -0.550803 0
M  V30 1302 H 119.139 -0.719591 -0.225177 0
M  V30 1303 H 121.79 -1.82902 0.147978 0
M  V30 1304 H 120.172 -3.47471 -1.89947 0
M  V30 1305 H 121.346 -4.54637 0.751099 0
M  V30 1306 H 119.661 -4.13113 0.522159 0
M  V30 1307 H 122.258 -4.8947 -2.15229 0
M  V30 1308 H 122.601 -3.24417 -2.60882 0
M  V30 1309 H 123.134 -3.84504 -1.01986 0
M  V30 1310 H 119.873 -6.54929 0.273457 0
M  V30 1311 H 119.393 -5.85698 -1.29296 0
M  V30 1312 H 121.072 -6.38811 -1.02613 0
M  V30 1313 N 121.204 0.198386 -1.56346 0
M  V30 1314 C 122.444 0.92609 -1.82217 0
M  V30 1315 C 122.808 1.80584 -0.652195 0
M  V30 1316 O 124.009 2.56907 -0.790716 0
M  V30 1317 C 122.28 1.72354 -3.13096 0
M  V30 1318 S 123.839 2.50371 -3.6036 0
M  V30 1319 H 120.657 0.310677 -0.639532 0
M  V30 1320 H 123.259 0.189755 -1.94577 0
M  V30 1321 H 121.963 1.0678 -3.96265 0
M  V30 1322 H 121.494 2.50175 -3.03605 0
M  V30 1323 H 123.509 3.74488 -3.25535 0
M  V30 1324 N 122.682 1.50554 0.465978 0
M  V30 1325 C 123.928 1.62038 1.21949 0
M  V30 1326 C 124.261 0.322116 1.9151 0
M  V30 1327 O 123.536 -0.676723 1.82348 0
M  V30 1328 C 123.819 2.80421 2.25912 0
M  V30 1329 C 123.672 4.20144 1.60622 0
M  V30 1330 C 124.991 2.94354 3.27176 0
M  V30 1331 H 122.11 0.589752 0.441998 0
M  V30 1332 H 124.752 1.82956 0.51257 0
M  V30 1333 H 122.902 2.62717 2.86203 0
M  V30 1334 H 124.574 4.49449 1.03889 0
M  V30 1335 H 122.817 4.24165 0.909211 0
M  V30 1336 H 123.488 4.98914 2.36196 0
M  V30 1337 H 125.964 3.10578 2.76913 0
M  V30 1338 H 124.84 3.788 3.97242 0
M  V30 1339 H 125.101 2.05186 3.916 0
M  V30 1340 N 124.16 -0.719506 1.40217 0
M  V30 1341 C 125.406 -1.48152 1.38488 0
M  V30 1342 C 125.739 -1.94195 -0.0141867 0
M  V30 1343 O 125.014 -1.67884 -0.982096 0
M  V30 1344 C 125.297 -2.71035 2.37091 0
M  V30 1345 C 125.15 -2.30912 3.86005 0
M  V30 1346 C 126.469 -3.73182 2.33288 0
M  V30 1347 H 123.588 -0.537395 0.504357 0
M  V30 1348 H 126.23 -0.821472 1.71324 0
M  V30 1349 H 124.38 -3.27352 2.0922 0
M  V30 1350 H 126.052 -1.80107 4.24687 0
M  V30 1351 H 124.295 -1.62958 4.02029 0
M  V30 1352 H 124.966 -3.18978 4.50508 0
M  V30 1353 H 127.442 -3.26485 2.57966 0
M  V30 1354 H 126.318 -4.56806 3.04334 0
M  V30 1355 H 126.579 -4.21202 1.34317 0
M  V30 1356 N 125.638 -1.25649 -0.95132 0
M  V30 1357 C 126.548 -1.08073 -2.08224 0
M  V30 1358 C 127.564 -0.0169666 -1.73992 0
M  V30 1359 O 128.74 -0.218593 -2.0021 0
M  V30 1360 C 125.805 -0.704922 -3.39458 0
M  V30 1361 C 124.866 -1.84699 -3.87537 0
M  V30 1362 C 124.099 -1.48902 -5.12508 0
M  V30 1363 O 124.322 -0.386156 -5.69091 0
M  V30 1364 O 123.256 -2.32033 -5.55378 0
M  V30 1365 H 127.082 -2.02924 -2.25954 0
M  V30 1366 H 124.667 -1.04618 -1.06656 0
M  V30 1367 H 126.549 -0.507609 -4.18332 0
M  V30 1368 H 125.224 0.214291 -3.2299 0
M  V30 1369 H 124.131 -2.09919 -3.09653 0
M  V30 1370 H 125.464 -2.74557 -4.08509 0
M  V30 1371 N 127.117 1.15442 -1.07289 0
M  V30 1372 C 128.027 2.23786 -0.704057 0
M  V30 1373 C 129.043 1.7166 0.284413 0
M  V30 1374 O 130.219 2.00972 0.131205 0
M  V30 1375 C 127.284 3.46535 -0.106792 0
M  V30 1376 C 126.345 4.13654 -1.14842 0
M  V30 1377 C 125.578 5.30544 -0.57956 0
M  V30 1378 O 125.801 5.67187 0.604585 0
M  V30 1379 O 124.735 5.87154 -1.32414 0
M  V30 1380 H 128.561 2.57664 -1.60757 0
M  V30 1381 H 126.146 1.23152 -0.845803 0
M  V30 1382 H 128.028 4.20804 0.224048 0
M  V30 1383 H 126.703 3.14407 0.770049 0
M  V30 1384 H 125.61 3.4131 -1.5316 0
M  V30 1385 H 126.943 4.49861 -1.99714 0
M  V30 1386 N 128.595 0.856903 1.32268 0
M  V30 1387 C 130.006 0.515711 1.79436 0
M  V30 1388 C 130.357 -0.966586 1.70738 0
M  V30 1389 O 129.482 -1.75409 1.26731 0
M  V30 1390 C 130.077 0.929335 3.25805 0
M  V30 1391 C 128.636 0.640006 3.70919 0
M  V30 1392 C 127.783 1.12784 2.53328 0
M  V30 1393 H 130.734 1.04389 1.19535 0
M  V30 1394 H 130.755 0.246633 3.797 0
M  V30 1395 H 130.267 2.00821 3.32103 0
M  V30 1396 H 128.368 -0.428051 3.70133 0
M  V30 1397 H 128.481 1.20788 4.63624 0
M  V30 1398 H 126.845 0.548033 2.48734 0
M  V30 1399 H 127.628 2.21387 2.62379 0
M  V30 1400 N 130.073 -1.45103 0.615059 0
M  V30 1401 C 131.321 -2.01784 0.112955 0
M  V30 1402 C 131.642 -1.48504 -1.26378 0
M  V30 1403 O 130.912 -0.682245 -1.83636 0
M  V30 1404 H 129.492 -0.745993 0.0387668 0
M  V30 1405 H 132.154 -1.77808 0.798141 0
M  V30 1406 H 131.25 -3.12025 0.0684069 0
M  V30 1407 N 131.551 -0.354651 -1.53558 0
M  V30 1408 C 132.828 0.294281 -1.93374 0
M  V30 1409 C 133.208 1.67313 -1.28723 0
M  V30 1410 O 132.556 2.24179 -0.442247 0
M  V30 1411 C 132.766 0.355445 -3.47185 0
M  V30 1412 C 134.114 0.601007 -4.20325 0
M  V30 1413 O 135.138 0.437106 -3.53508 0
M  V30 1414 O 133.997 0.919322 -5.38712 0
M  V30 1415 H 131.091 0.174033 -0.808481 0
M  V30 1416 H 133.637 -0.406638 -1.64756 0
M  V30 1417 H 132.409 -0.611729 -3.86489 0
M  V30 1418 H 132.032 1.1027 -3.82003 0
M  V30 1419 N 133.029 1.57378 -0.0835403 0
M  V30 1420 C 134.275 1.94217 0.583733 0
M  V30 1421 C 134.608 0.964653 1.68547 0
M  V30 1422 O 133.883 -0.00422258 1.945 0
M  V30 1423 C 134.166 3.41253 1.14972 0
M  V30 1424 C 134.019 4.49768 0.0538277 0
M  V30 1425 C 135.338 3.89352 2.05166 0
M  V30 1426 H 132.457 0.706233 0.210724 0
M  V30 1427 H 135.099 1.89392 -0.1519 0
M  V30 1428 H 133.249 3.45496 1.77665 0
M  V30 1429 H 134.921 4.57641 -0.579851 0
M  V30 1430 H 133.164 4.29432 -0.614068 0
M  V30 1431 H 133.835 5.49817 0.490452 0
M  V30 1432 H 136.311 3.87189 1.52393 0
M  V30 1433 H 135.187 4.92822 2.41698 0
M  V30 1434 H 135.448 3.27973 2.96456 0
M  V30 1435 N 134.507 -0.190092 1.56449 0
M  V30 1436 C 135.756 -0.907912 1.80111 0
M  V30 1437 C 136.069 -1.84214 0.657619 0
M  V30 1438 O 137.275 -2.60094 0.778663 0
M  V30 1439 C 135.731 -1.66485 3.19078 0
M  V30 1440 C 135.339 -0.7752 4.41242 0
M  V30 1441 C 137.083 -2.37201 3.52045 0
M  V30 1442 C 134.99 -1.53129 5.71231 0
M  V30 1443 H 133.92 -0.34276 0.671589 0
M  V30 1444 H 136.571 -0.161109 1.82791 0
M  V30 1445 H 134.953 -2.45572 3.10661 0
M  V30 1446 H 136.127 -0.0226298 4.60794 0
M  V30 1447 H 134.442 -0.178627 4.16017 0
M  V30 1448 H 137.039 -2.94329 4.46402 0
M  V30 1449 H 137.382 -3.11632 2.76028 0
M  V30 1450 H 137.915 -1.65075 3.61932 0
M  V30 1451 H 134.654 -0.82967 6.50228 0
M  V30 1452 H 134.174 -2.25767 5.55688 0
M  V30 1453 H 135.853 -2.08377 6.12526 0
M  V30 1454 N 135.985 -1.50799 -0.457987 0
M  V30 1455 C 136.948 -1.7005 -1.53674 0
M  V30 1456 C 137.948 -0.570881 -1.50325 0
M  V30 1457 O 139.138 -0.838126 -1.52712 0
M  V30 1458 C 136.27 -1.73788 -2.93276 0
M  V30 1459 H 137.463 -2.66306 -1.37917 0
M  V30 1460 H 135.016 -1.40477 -0.685271 0
M  V30 1461 H 135.751 -0.792717 -3.14462 0
M  V30 1462 H 135.536 -2.55864 -2.97113 0
M  V30 1463 H 137.026 -1.90591 -3.71571 0
M  V30 1464 N 137.463 0.71206 -1.40597 0
M  V30 1465 C 138.393 1.83889 -1.43899 0
M  V30 1466 C 139.374 1.67442 -0.299504 0
M  V30 1467 O 140.559 1.87421 -0.508624 0
M  V30 1468 C 137.689 3.21877 -1.30431 0
M  V30 1469 C 136.643 3.53002 -2.42019 0
M  V30 1470 C 135.969 4.90172 -2.13626 0
M  V30 1471 C 137.269 3.53643 -3.84362 0
M  V30 1472 H 138.963 1.81383 -2.38203 0
M  V30 1473 H 136.509 0.871237 -1.14654 0
M  V30 1474 H 138.462 4.00404 -1.31357 0
M  V30 1475 H 137.186 3.24968 -0.326049 0
M  V30 1476 H 135.845 2.76818 -2.40349 0
M  V30 1477 H 135.493 4.89869 -1.14182 0
M  V30 1478 H 135.193 5.11962 -2.88389 0
M  V30 1479 H 136.717 5.71028 -2.1624 0
M  V30 1480 H 138.131 4.22203 -3.87837 0
M  V30 1481 H 136.528 3.86961 -4.58673 0
M  V30 1482 H 137.598 2.52954 -4.13693 0
M  V30 1483 N 138.941 1.26152 0.944643 0
M  V30 1484 C 139.851 1.09176 2.07648 0
M  V30 1485 C 140.867 0.0261935 1.7398 0
M  V30 1486 O 142.043 0.229208 2.00091 0
M  V30 1487 C 139.108 0.722915 3.39079 0
M  V30 1488 C 138.169 1.86752 3.86552 0
M  V30 1489 C 137.402 1.51617 5.11711 0
M  V30 1490 O 137.625 0.416331 5.68879 0
M  V30 1491 O 136.559 2.34975 5.54139 0
M  V30 1492 H 140.385 2.0412 2.24875 0
M  V30 1493 H 137.97 1.05182 1.061 0
M  V30 1494 H 139.852 0.529787 4.18056 0
M  V30 1495 H 138.527 -0.197159 3.23099 0
M  V30 1496 H 137.434 2.11558 3.08535 0
M  V30 1497 H 138.767 2.76719 4.07047 0
M  V30 1498 N 140.419 -1.14872 1.07899 0
M  V30 1499 C 141.835 -1.37776 0.805606 0
M  V30 1500 C 142.035 -1.92743 -0.587555 0
M  V30 1501 O 141.091 -2.13678 -1.34528 0
M  V30 1502 C 142.404 -2.34361 1.88402 0
M  V30 1503 C 143.952 -2.48012 1.90942 0
M  V30 1504 C 144.427 -3.47893 2.97883 0
M  V30 1505 N 145.918 -3.55433 2.97021 0
M  V30 1506 C 146.653 -4.32553 3.76412 0
M  V30 1507 N 146.149 -5.12959 4.65666 0
M  V30 1508 N 147.942 -4.27697 3.64735 0
M  V30 1509 H 140.093 -0.775365 1.97742 0
M  V30 1510 H 142.356 -0.403521 0.857831 0
M  V30 1511 H 142.062 -2.01098 2.88535 0
M  V30 1512 H 141.936 -3.34206 1.74889 0
M  V30 1513 H 144.323 -2.8057 0.914579 0
M  V30 1514 H 144.404 -1.48147 2.08534 0
M  V30 1515 H 144.048 -3.16069 3.97571 0
M  V30 1516 H 143.978 -4.47527 2.77538 0
M  V30 1517 H 146.469 -2.98048 2.32326 0
M  V30 1518 H 146.782 -5.69065 5.22862 0
M  V30 1519 H 145.127 -5.12245 4.69712 0
M  V30 1520 H 148.318 -3.63949 2.94378 0
M  V30 1521 H 148.491 -4.8755 4.26848 0
M  V30 1522 N 141.898 -0.863906 -1.31812 0
M  V30 1523 C 143.123 -0.48527 -2.01643 0
M  V30 1524 C 143.548 0.913058 -1.64453 0
M  V30 1525 O 142.906 1.6014 -0.849985 0
M  V30 1526 C 142.954 -0.642625 -3.54828 0
M  V30 1527 O 142.058 0.320659 -4.11151 0
M  V30 1528 H 141.399 -0.193793 -0.635091 0
M  V30 1529 H 143.929 -1.16565 -1.68148 0
M  V30 1530 H 143.939 -0.533628 -4.04495 0
M  V30 1531 H 142.614 -1.66227 -3.81237 0
M  V30 1532 H 141.191 0.167126 -3.72525 0
M  V30 1533 N 143.376 1.44774 -0.622745 0
M  V30 1534 C 144.624 2.01721 -0.123655 0
M  V30 1535 C 144.945 1.49172 1.25589 0
M  V30 1536 O 144.215 0.691974 1.83272 0
M  V30 1537 H 142.795 0.745777 -0.0427225 0
M  V30 1538 H 145.457 1.77382 -0.807559 0
M  V30 1539 H 144.553 3.11984 -0.0849534 0
M  V30 1540 N 144.854 0.36279 1.53368 0
M  V30 1541 C 145.764 -0.492994 2.29362 0
M  V30 1542 C 146.78 -1.09507 1.35219 0
M  V30 1543 O 147.956 -1.10662 1.68273 0
M  V30 1544 C 145.021 -1.61855 3.066 0
M  V30 1545 C 144.082 -1.04429 4.16405 0
M  V30 1546 C 143.315 -2.11621 4.89951 0
M  V30 1547 O 143.538 -3.32684 4.63333 0
M  V30 1548 O 142.472 -1.74835 5.75948 0
M  V30 1549 H 146.298 0.125331 3.03441 0
M  V30 1550 H 143.883 0.127253 1.48857 0
M  V30 1551 H 145.765 -2.27302 3.54841 0
M  V30 1552 H 144.44 -2.22233 2.3536 0
M  V30 1553 H 143.347 -0.353819 3.72423 0
M  V30 1554 H 144.68 -0.485113 4.89804 0
M  V30 1555 N 146.332 -1.57332 0.0918853 0
M  V30 1556 C 147.562 -1.98286 -0.580205 0
M  V30 1557 C 147.97 -0.969713 -1.6246 0
M  V30 1558 O 147.313 0.0493501 -1.83634 0
M  V30 1559 C 147.375 -3.35603 -1.28882 0
M  V30 1560 C 147.039 -4.55285 -0.395559 0
M  V30 1561 C 148.036 -5.18687 0.355002 0
M  V30 1562 C 145.721 -5.01314 -0.314556 0
M  V30 1563 C 147.715 -6.26484 1.17458 0
M  V30 1564 C 145.402 -6.08979 0.508677 0
M  V30 1565 C 146.4 -6.71429 1.2519 0
M  V30 1566 O 146.088 -7.77018 2.06151 0
M  V30 1567 H 145.82 -0.656678 -0.160466 0
M  V30 1568 H 148.374 -2.04721 0.16688 0
M  V30 1569 H 146.604 -3.25842 -2.08241 0
M  V30 1570 H 148.293 -3.61026 -1.85512 0
M  V30 1571 H 149.059 -4.84058 0.302134 0
M  V30 1572 H 144.938 -4.5247 -0.882697 0
M  V30 1573 H 148.482 -6.75159 1.75518 0
M  V30 1574 H 144.379 -6.4304 0.563037 0
M  V30 1575 H 145.147 -7.93991 1.98799 0
M  V30 1576 N 147.81 0.181792 -1.56548 0
M  V30 1577 C 149.226 0.53316 -1.50431 0
M  V30 1578 C 149.426 1.85184 -0.794297 0
M  V30 1579 O 148.482 2.50058 -0.350318 0
M  V30 1580 C 149.795 0.575597 -2.9514 0
M  V30 1581 C 151.343 0.663519 -3.05886 0
M  V30 1582 C 151.818 0.736946 -4.52032 0
M  V30 1583 N 153.309 0.800118 -4.56237 0
M  V30 1584 C 154.044 0.877327 -5.66649 0
M  V30 1585 N 153.54 0.916016 -6.86718 0
M  V30 1586 N 155.333 0.915542 -5.54594 0
M  V30 1587 H 147.484 -0.683025 -2.01118 0
M  V30 1588 H 149.747 -0.244988 -0.915797 0
M  V30 1589 H 149.453 -0.324482 -3.502 0
M  V30 1590 H 149.327 1.42572 -3.49218 0
M  V30 1591 H 151.714 1.55403 -2.50867 0
M  V30 1592 H 151.795 -0.21307 -2.54911 0
M  V30 1593 H 151.439 -0.149262 -5.07681 0
M  V30 1594 H 151.369 1.62953 -5.00753 0
M  V30 1595 H 153.86 0.778926 -3.69785 0
M  V30 1596 H 154.173 0.975813 -7.66614 0
M  V30 1597 H 152.518 0.884469 -6.89349 0
M  V30 1598 H 155.709 0.882245 -4.59711 0
M  V30 1599 H 155.882 0.972253 -6.40665 0
M  V30 1600 N 149.288 1.51039 0.449983 0
M  V30 1601 C 150.536 1.62759 1.19808 0
M  V30 1602 C 150.857 0.339981 1.92013 0
M  V30 1603 O 150.127 -0.643606 1.85026 0
M  V30 1604 H 148.707 0.599811 0.445237 0
M  V30 1605 H 151.369 1.87914 0.517138 0
M  V30 1606 H 150.465 2.44911 1.93455 0
M  V30 1607 N 150.766 -0.704594 1.40972 0
M  V30 1608 C 151.696 -1.83124 1.44872 0
M  V30 1609 C 152.677 -1.67281 0.30838 0
M  V30 1610 O 153.862 -1.87149 0.518556 0
M  V30 1611 C 150.992 -3.21181 1.32136 0
M  V30 1612 C 149.946 -3.51714 2.43888 0
M  V30 1613 C 149.272 -4.89032 2.16222 0
M  V30 1614 C 150.572 -3.516 3.86232 0
M  V30 1615 H 152.266 -1.80117 2.39161 0
M  V30 1616 H 149.812 -0.865145 1.15114 0
M  V30 1617 H 151.765 -3.99702 1.33479 0
M  V30 1618 H 150.489 -3.24791 0.343279 0
M  V30 1619 H 149.148 -2.75539 2.41813 0
M  V30 1620 H 148.796 -4.89256 1.16778 0
M  V30 1621 H 148.496 -5.10426 2.911 0
M  V30 1622 H 150.02 -5.69873 2.19265 0
M  V30 1623 H 151.434 -4.2014 3.9007 0
M  V30 1624 H 149.831 -3.84523 4.60719 0
M  V30 1625 H 150.901 -2.50757 4.15029 0
M  V30 1626 N 152.244 -1.26651 -0.937939 0
M  V30 1627 C 153.474 -1.15006 -1.71631 0
M  V30 1628 C 153.882 0.297026 -1.86854 0
M  V30 1629 O 153.225 1.21493 -1.37786 0
M  V30 1630 C 153.287 -1.74984 -3.14039 0
M  V30 1631 C 152.951 -3.24103 -3.2219 0
M  V30 1632 C 153.948 -4.20877 -3.05219 0
M  V30 1633 C 151.633 -3.64625 -3.45476 0
M  V30 1634 C 153.627 -5.56151 -3.11408 0
M  V30 1635 C 151.314 -5.00032 -3.513 0
M  V30 1636 C 152.312 -5.95604 -3.34282 0
M  V30 1637 O 152 -7.28545 -3.3982 0
M  V30 1638 H 151.732 -0.401183 -0.544085 0
M  V30 1639 H 154.286 -1.67832 -1.18413 0
M  V30 1640 H 152.516 -1.16624 -3.68695 0
M  V30 1641 H 154.205 -1.58199 -3.73802 0
M  V30 1642 H 154.971 -3.90908 -2.87081 0
M  V30 1643 H 150.85 -2.90718 -3.57777 0
M  V30 1644 H 154.394 -6.30727 -2.98043 0
M  V30 1645 H 150.291 -5.29659 -3.68959 0
M  V30 1646 H 151.059 -7.3686 -3.56343 0
M  V30 1647 N 153.722 1.14298 -1.08507 0
M  V30 1648 C 154.672 2.17449 -0.685569 0
M  V30 1649 C 155.656 1.58167 0.295315 0
M  V30 1650 O 156.848 1.76675 0.107172 0
M  V30 1651 C 153.977 3.43161 -0.0975318 0
M  V30 1652 C 153.063 4.09471 -1.10426 0
M  V30 1653 N 153.454 4.51089 -2.28806 0
M  V30 1654 C 151.752 4.35976 -0.940258 0
M  V30 1655 C 152.453 5.02654 -2.9277 0
M  V30 1656 N 151.429 4.96927 -2.20374 0
M  V30 1657 H 155.231 2.47369 -1.587 0
M  V30 1658 H 152.745 1.30992 -0.959936 0
M  V30 1659 H 154.742 4.16388 0.20664 0
M  V30 1660 H 153.402 3.14719 0.798872 0
M  V30 1661 H 154.413 4.44097 -2.66455 0
M  V30 1662 H 151.09 4.17386 -0.0977441 0
M  V30 1663 H 152.48 5.44723 -3.93352 0
M  V30 1664 N 155.201 0.870884 1.31352 0
M  V30 1665 C 156.447 0.482987 1.96965 0
M  V30 1666 C 156.78 -0.962462 1.68672 0
M  V30 1667 O 156.055 -1.6779 0.98371 0
M  V30 1668 C 156.338 0.741752 3.52378 0
M  V30 1669 C 156.191 2.2368 3.9024 0
M  V30 1670 C 157.51 0.208838 4.39604 0
M  V30 1671 H 154.629 0.176955 0.715441 0
M  V30 1672 H 157.271 1.09229 1.55464 0
M  V30 1673 H 155.421 0.223149 3.87859 0
M  V30 1674 H 157.093 2.82273 3.64856 0
M  V30 1675 H 155.336 2.70901 3.38814 0
M  V30 1676 H 156.007 2.3685 4.98604 0
M  V30 1677 H 158.483 0.652529 4.10952 0
M  V30 1678 H 157.359 0.419336 5.47296 0
M  V30 1679 H 157.62 -0.889275 4.33064 0
M  V30 1680 N 156.679 -1.44442 0.630414 0
M  V30 1681 C 157.609 -2.33418 -0.0618083 0
M  V30 1682 C 158.59 -1.48165 -0.835541 0
M  V30 1683 O 159.775 -1.76886 -0.801564 0
M  V30 1684 C 156.905 -3.31222 -1.04449 0
M  V30 1685 C 155.859 -4.26288 -0.382436 0
M  V30 1686 C 155.185 -5.13954 -1.47497 0
M  V30 1687 C 156.485 -5.1744 0.710865 0
M  V30 1688 H 158.179 -2.91548 0.681184 0
M  V30 1689 H 155.725 -1.40191 0.329026 0
M  V30 1690 H 157.678 -3.92351 -1.53748 0
M  V30 1691 H 156.402 -2.71299 -1.81836 0
M  V30 1692 H 155.061 -3.6649 0.0899054 0
M  V30 1693 H 154.709 -4.50385 -2.2397 0
M  V30 1694 H 154.409 -5.7837 -1.03737 0
M  V30 1695 H 155.933 -5.77955 -1.96979 0
M  V30 1696 H 157.347 -5.72509 0.300996 0
M  V30 1697 H 155.744 -5.90455 1.07156 0
M  V30 1698 H 156.814 -4.58496 1.57829 0
M  V30 1699 N 158.157 -0.370918 -1.53173 0
M  V30 1700 C 159.107 0.489588 -2.22681 0
M  V30 1701 C 160.091 1.04442 -1.22395 0
M  V30 1702 O 161.283 0.973578 -1.47819 0
M  V30 1703 C 158.412 1.626 -3.02351 0
M  V30 1704 C 157.498 1.08379 -4.10018 0
M  V30 1705 N 157.889 0.265004 -5.05105 0
M  V30 1706 C 156.187 1.35809 -4.2482 0
M  V30 1707 C 156.888 -0.0324755 -5.81691 0
M  V30 1708 N 155.864 0.566581 -5.40639 0
M  V30 1709 H 159.666 -0.142729 -2.93553 0
M  V30 1710 H 157.18 -0.179221 -1.61408 0
M  V30 1711 H 159.177 2.2547 -3.50669 0
M  V30 1712 H 157.837 2.26132 -2.33011 0
M  V30 1713 H 158.848 -0.0962352 -5.17811 0
M  V30 1714 H 155.525 1.9958 -3.66707 0
M  V30 1715 H 156.915 -0.69473 -6.68299 0
M  V30 1716 N 159.635 1.57281 -0.100228 0
M  V30 1717 C 160.883 1.94153 0.561157 0
M  V30 1718 C 161.204 0.983157 1.68401 0
M  V30 1719 O 160.474 0.0361132 1.95867 0
M  V30 1720 H 159.054 0.716791 0.210283 0
M  V30 1721 H 161.716 1.94202 -0.164765 0
M  V30 1722 H 160.812 2.96709 0.968008 0
M  V30 1723 N 161.113 -0.173488 1.56642 0
M  V30 1724 C 162.359 -0.891784 1.8214 0
M  V30 1725 C 162.692 -1.8199 0.677736 0
M  V30 1726 O 161.967 -1.91842 -0.320446 0
M  V30 1727 C 162.25 -1.68933 3.18015 0
M  V30 1728 C 162.103 -0.784487 4.42906 0
M  V30 1729 C 163.422 -2.65748 3.50808 0
M  V30 1730 H 160.541 -0.322761 0.662567 0
M  V30 1731 H 163.183 -0.158095 1.89341 0
M  V30 1732 H 161.333 -2.31482 3.12007 0
M  V30 1733 H 163.005 -0.172046 4.60979 0
M  V30 1734 H 161.248 -0.0924117 4.33702 0
M  V30 1735 H 161.919 -1.37799 5.34524 0
M  V30 1736 H 164.395 -2.13327 3.57255 0
M  V30 1737 H 163.271 -3.18619 4.4696 0
M  V30 1738 H 163.532 -3.45842 2.75401 0
M  V30 1739 N 162.591 -1.51276 -0.441967 0
M  V30 1740 C 163.521 -1.752 -1.54361 0
M  V30 1741 C 164.502 -0.601682 -1.59103 0
M  V30 1742 O 165.687 -0.843913 -1.74905 0
M  V30 1743 C 162.817 -1.87282 -2.92477 0
M  V30 1744 C 161.771 -3.02687 -3.02596 0
M  V30 1745 C 161.097 -2.99947 -4.42647 0
M  V30 1746 C 162.397 -4.4273 -2.77106 0
M  V30 1747 H 164.091 -2.67442 -1.34592 0
M  V30 1748 H 161.637 -1.28694 -0.646048 0
M  V30 1749 H 163.59 -2.02602 -3.695 0
M  V30 1750 H 162.314 -0.916844 -3.13467 0
M  V30 1751 H 160.973 -2.87065 -2.28012 0
M  V30 1752 H 160.621 -2.02136 -4.60597 0
M  V30 1753 H 160.321 -3.77439 -4.50348 0
M  V30 1754 H 161.845 -3.17354 -5.2165 0
M  V30 1755 H 163.259 -4.58727 -3.43864 0
M  V30 1756 H 161.656 -5.21893 -2.96222 0
M  V30 1757 H 162.726 -4.53087 -1.72744 0
M  V30 1758 N 164.069 0.697108 -1.41344 0
M  V30 1759 C 165.294 1.49096 -1.44171 0
M  V30 1760 C 165.719 1.88038 -0.0481568 0
M  V30 1761 O 165.077 1.54525 0.948243 0
M  V30 1762 C 165.125 2.73088 -2.3549 0
M  V30 1763 O 164.229 3.70514 -1.81088 0
M  V30 1764 H 163.57 0.448801 -0.489361 0
M  V30 1765 H 166.1 0.856992 -1.85787 0
M  V30 1766 H 166.11 3.21413 -2.51312 0
M  V30 1767 H 164.785 2.44081 -3.36745 0
M  V30 1768 H 163.362 3.29441 -1.74708 0
M  V30 1769 N 165.547 1.27147 0.931209 0
M  V30 1770 C 166.958 1.12044 1.49342 0
M  V30 1771 C 167.309 -0.295795 1.93957 0
M  V30 1772 O 166.434 -1.18835 1.80852 0
M  V30 1773 C 167.029 2.02781 2.71414 0
M  V30 1774 C 165.588 1.91794 3.2387 0
M  V30 1775 C 164.735 1.95543 1.96617 0
M  V30 1776 H 167.686 1.40091 0.745672 0
M  V30 1777 H 167.707 1.58156 3.46074 0
M  V30 1778 H 167.219 3.05848 2.38911 0
M  V30 1779 H 165.32 0.916992 3.6114 0
M  V30 1780 H 165.433 2.77852 3.90302 0
M  V30 1781 H 163.797 1.39722 2.12955 0
M  V30 1782 H 164.58 3.00259 1.66432 0
M  V30 1783 N 167.025 -1.13721 1.09112 0
M  V30 1784 C 167.958 -2.18094 0.67158 0
M  V30 1785 C 168.936 -1.59414 -0.320299 0
M  V30 1786 O 170.12 -1.87183 -0.222444 0
M  V30 1787 C 167.247 -3.38698 -0.0111189 0
M  V30 1788 C 166.293 -4.15966 0.942055 0
M  V30 1789 S 167.126 -4.7604 2.45246 0
M  V30 1790 C 168.282 -5.99994 1.78208 0
M  V30 1791 H 168.515 -2.53344 1.55577 0
M  V30 1792 H 166.048 -1.24967 0.906789 0
M  V30 1793 H 168.006 -4.08559 -0.398716 0
M  V30 1794 H 166.667 -3.01756 -0.871905 0
M  V30 1795 H 165.86 -5.02318 0.411396 0
M  V30 1796 H 165.462 -3.51745 1.2709 0
M  V30 1797 H 167.754 -6.68441 1.10424 0
M  V30 1798 H 168.697 -6.57662 2.62463 0
M  V30 1799 H 169.105 -5.50432 1.25238 0
M  V30 1800 N 168.503 -0.877838 -1.30888 0
M  V30 1801 C 169.451 -0.328662 -2.30266 0
M  V30 1802 C 170.445 0.560496 -1.59859 0
M  V30 1803 O 171.651 0.445722 -1.74394 0
M  V30 1804 H 168.026 -0.0876142 -0.746879 0
M  V30 1805 H 169.997 -1.18061 -2.74051 0
M  V30 1806 C 168.746 0.448071 -3.44801 0
M  V30 1807 H 168.069 -0.226859 -3.99156 0
M  V30 1808 H 169.509 0.797541 -4.16432 0
M  V30 1809 C 167.968 1.64239 -2.94155 0
M  V30 1810 O 168.498 2.74175 -2.93583 0
M  V30 1811 N 166.704 1.47716 -2.50256 0
M  V30 1812 H 166.251 0.582821 -2.5092 0
M  V30 1813 H 166.209 2.27765 -2.16727 0
M  V30 1814 N 169.982 1.44106 -0.638065 0
M  V30 1815 C 171.23 2.01579 -0.145043 0
M  V30 1816 C 171.551 1.50496 1.24 0
M  V30 1817 O 170.821 0.711374 1.82527 0
M  V30 1818 H 169.401 0.745282 -0.05063 0
M  V30 1819 H 172.063 1.76516 -0.826327 0
M  V30 1820 H 171.159 3.11877 -0.118039 0
M  V30 1821 N 171.46 0.379036 1.52974 0
M  V30 1822 C 172.706 -0.206727 2.01744 0
M  V30 1823 C 173.039 -1.47314 1.26539 0
M  V30 1824 O 172.314 -1.91084 0.362903 0
M  V30 1825 C 172.597 -0.485066 3.56818 0
M  V30 1826 C 172.45 0.795919 4.42702 0
M  V30 1827 C 173.769 -1.28003 4.21074 0
M  V30 1828 H 170.888 -0.0736607 0.73331 0
M  V30 1829 H 173.53 0.506581 1.83122 0
M  V30 1830 H 171.68 -1.09272 3.72816 0
M  V30 1831 H 173.352 1.43307 4.38476 0
M  V30 1832 H 171.595 1.41344 4.10127 0
M  V30 1833 H 172.266 0.555947 5.49193 0
M  V30 1834 H 174.742 -0.765867 4.08991 0
M  V30 1835 H 173.618 -1.44352 5.29579 0
M  V30 1836 H 173.879 -2.29236 3.78026 0
M  V30 1837 N 172.938 -1.57226 0.108567 0
M  V30 1838 C 174.186 -1.94448 -0.550853 0
M  V30 1839 C 174.507 -0.992074 -1.67878 0
M  V30 1840 O 173.777 -0.0465 -1.95845 0
M  V30 1841 H 172.357 -0.717897 -0.206479 0
M  V30 1842 H 175.019 -1.94112 0.175062 0
M  V30 1843 H 174.115 -2.97218 -0.952259 0
M  V30 1844 N 174.416 0.165178 -1.56732 0
M  V30 1845 C 175.827 0.727046 -1.71962 0
M  V30 1846 C 176.178 1.82508 -0.720078 0
M  V30 1847 O 175.303 2.16082 0.117242 0
M  V30 1848 C 175.898 1.32559 -3.11791 0
M  V30 1849 C 174.457 1.83422 -3.28684 0
M  V30 1850 C 173.604 0.715567 -2.67908 0
M  V30 1851 H 176.555 -0.0602896 -1.58585 0
M  V30 1852 H 176.576 2.19533 -3.10782 0
M  V30 1853 H 176.088 0.526195 -3.84516 0
M  V30 1854 H 174.189 2.65986 -2.60926 0
M  V30 1855 H 174.302 1.97543 -4.36478 0
M  V30 1856 H 172.666 1.13758 -2.27884 0
M  V30 1857 H 173.449 -0.0720836 -3.43224 0
M  V30 1858 N 175.894 1.51508 0.433938 0
M  V30 1859 C 177.171 1.54888 1.19453 0
M  V30 1860 C 177.551 0.315154 2.08734 0
M  V30 1861 O 176.899 -0.699558 2.17528 0
M  V30 1862 C 177.109 2.86467 1.99342 0
M  V30 1863 C 178.457 3.38545 2.56267 0
M  V30 1864 O 179.481 2.88041 2.0955 0
M  V30 1865 O 178.34 4.26675 3.41483 0
M  V30 1866 H 175.434 0.622863 0.544032 0
M  V30 1867 H 177.98 1.63823 0.442732 0
M  V30 1868 H 176.752 3.67718 1.33788 0
M  V30 1869 H 176.375 2.8071 2.8158 0
M  V30 1870 N 177.372 -0.689602 1.41712 0
M  V30 1871 C 178.319 -1.80345 1.44029 0
M  V30 1872 C 179.289 -1.63478 0.293948 0
M  V30 1873 O 180.474 -1.84244 0.495869 0
M  V30 1874 C 177.614 -3.18272 1.33405 0
M  V30 1875 C 176.727 -3.46529 2.57956 0
M  V30 1876 C 175.862 -4.74103 2.39582 0
M  V30 1877 C 174.901 -4.95347 3.5958 0
M  V30 1878 N 174.038 -6.14151 3.40239 0
M  V30 1879 H 178.878 -1.77698 2.39222 0
M  V30 1880 H 176.415 -0.867688 1.18784 0
M  V30 1881 H 178.373 -3.97956 1.25246 0
M  V30 1882 H 177.003 -3.2008 0.418164 0
M  V30 1883 H 176.055 -2.61207 2.76542 0
M  V30 1884 H 177.367 -3.58126 3.47199 0
M  V30 1885 H 176.521 -5.61853 2.28924 0
M  V30 1886 H 175.26 -4.64763 1.47805 0
M  V30 1887 H 174.265 -4.06044 3.70686 0
M  V30 1888 H 175.49 -5.06542 4.52318 0
M  V30 1889 H 173.436 -6.06013 2.51167 0
M  V30 1890 H 173.353 -6.26543 4.23061 0
M  V30 1891 H 174.621 -7.04619 3.33365 0
M  V30 1892 N 178.85 -1.27639 -0.924453 0
M  V30 1893 C 179.78 -1.13166 -2.04244 0
M  V30 1894 C 180.761 -0.032256 -1.70069 0
M  V30 1895 O 181.946 -0.207328 -1.9309 0
M  V30 1896 C 179.076 -0.781496 -3.38393 0
M  V30 1897 C 178.03 -1.83449 -3.86692 0
M  V30 1898 C 177.356 -1.33822 -5.17683 0
M  V30 1899 C 178.656 -3.23917 -4.09726 0
M  V30 1900 H 180.35 -2.06689 -2.1661 0
M  V30 1901 H 177.896 -0.995136 -1.04082 0
M  V30 1902 H 179.849 -0.667057 -4.16087 0
M  V30 1903 H 178.573 0.189439 -3.2605 0
M  V30 1904 H 177.232 -1.93789 -3.11193 0
M  V30 1905 H 176.88 -0.35665 -5.01734 0
M  V30 1906 H 176.58 -2.04224 -5.50968 0
M  V30 1907 H 178.104 -1.23679 -5.97943 0
M  V30 1908 H 179.518 -3.16559 -4.77978 0
M  V30 1909 H 177.915 -3.92059 -4.54324 0
M  V30 1910 H 178.985 -3.68729 -3.14908 0
M  V30 1911 N 180.328 1.1314 -1.09713 0
M  V30 1912 C 181.278 2.16709 -0.708593 0
M  V30 1913 C 182.262 1.58471 0.278523 0
M  V30 1914 O 183.454 1.76779 0.088427 0
M  V30 1915 C 180.583 3.43039 -0.133923 0
M  V30 1916 C 179.669 4.08277 -1.14763 0
M  V30 1917 N 180.06 4.48637 -2.33577 0
M  V30 1918 C 178.358 4.34954 -0.986446 0
M  V30 1919 C 179.059 4.9952 -2.98085 0
M  V30 1920 N 178.035 4.94561 -2.25632 0
M  V30 1921 H 181.837 2.45672 -1.61315 0
M  V30 1922 H 179.351 1.29967 -0.973775 0
M  V30 1923 H 181.348 4.16583 0.162465 0
M  V30 1924 H 180.008 3.15549 0.765447 0
M  V30 1925 H 181.019 4.41246 -2.7115 0
M  V30 1926 H 177.696 4.17258 -0.142008 0
M  V30 1927 H 179.086 5.40521 -3.99108 0
M  V30 1928 N 181.806 0.884767 1.30421 0
M  V30 1929 C 183.055 0.499164 1.95426 0
M  V30 1930 C 183.368 -0.95645 1.70621 0
M  V30 1931 O 184.574 -1.44889 2.29607 0
M  V30 1932 C 183.03 0.84177 3.49917 0
M  V30 1933 C 182.638 2.31514 3.83543 0
M  V30 1934 C 184.382 0.525355 4.21237 0
M  V30 1935 C 182.289 2.59939 5.31212 0
M  V30 1936 H 181.219 0.182944 0.73147 0
M  V30 1937 H 183.87 1.07971 1.48373 0
M  V30 1938 H 182.252 0.190311 3.95542 0
M  V30 1939 H 183.426 3.0109 3.48829 0
M  V30 1940 H 181.741 2.59907 3.25326 0
M  V30 1941 H 184.338 0.714762 5.29901 0
M  V30 1942 H 184.681 -0.535222 4.12845 0
M  V30 1943 H 185.214 1.134 3.81294 0
M  V30 1944 H 181.953 3.64736 5.44654 0
M  V30 1945 H 181.473 1.94972 5.67227 0
M  V30 1946 H 183.152 2.45429 5.98643 0
M  V30 1947 N 183.284 -1.43765 0.645699 0
M  V30 1948 C 184.231 -2.30745 -0.0504648 0
M  V30 1949 C 185.201 -1.4432 -0.822241 0
M  V30 1950 O 186.386 -1.73202 -0.800358 0
M  V30 1951 C 183.526 -3.29802 -1.0161 0
M  V30 1952 C 182.639 -4.31326 -0.241219 0
M  V30 1953 C 181.774 -5.17469 -1.19998 0
M  V30 1954 C 180.813 -6.10691 -0.415094 0
M  V30 1955 N 179.95 -6.89483 -1.32506 0
M  V30 1956 H 184.79 -2.8973 0.697155 0
M  V30 1957 H 182.327 -1.42738 0.355563 0
M  V30 1958 H 184.285 -3.85734 -1.58949 0
M  V30 1959 H 182.915 -2.72483 -1.73069 0
M  V30 1960 H 181.967 -3.77749 0.448334 0
M  V30 1961 H 183.279 -4.9743 0.369437 0
M  V30 1962 H 182.433 -5.7799 -1.84424 0
M  V30 1963 H 181.172 -4.51473 -1.84455 0
M  V30 1964 H 180.177 -5.49265 0.242565 0
M  V30 1965 H 181.402 -6.78727 0.224966 0
M  V30 1966 H 179.348 -6.26142 -1.95657 0
M  V30 1967 H 179.265 -7.52081 -0.768783 0
M  V30 1968 H 180.533 -7.54516 -1.9577 0
M  V30 1969 N 184.763 -0.387143 -1.52771 0
M  V30 1970 C 186.174 0.0873634 -1.86495 0
M  V30 1971 C 186.525 1.46336 -1.30691 0
M  V30 1972 O 185.65 2.068 -0.637409 0
M  V30 1973 C 186.245 0.165305 -3.38396 0
M  V30 1974 C 184.804 0.584101 -3.7184 0
M  V30 1975 C 183.951 -0.255279 -2.76122 0
M  V30 1976 H 186.902 -0.605104 -1.46711 0
M  V30 1977 H 186.923 0.984848 -3.67534 0
M  V30 1978 H 186.435 -0.836301 -3.78982 0
M  V30 1979 H 184.536 1.59315 -3.36823 0
M  V30 1980 H 184.649 0.343749 -4.77865 0
M  V30 1981 H 183.013 0.279126 -2.53166 0
M  V30 1982 H 183.796 -1.25482 -3.19545 0
M  V30 1983 N 186.241 1.57166 -0.116904 0
M  V30 1984 C 187.171 2.18222 0.830759 0
M  V30 1985 C 188.152 1.12167 1.27877 0
M  V30 1986 O 189.337 1.40394 1.34176 0
M  V30 1987 C 186.467 2.77996 2.08172 0
M  V30 1988 C 185.421 3.89614 1.77157 0
M  V30 1989 C 184.747 4.36187 3.09265 0
M  V30 1990 C 186.047 5.1181 1.04151 0
M  V30 1991 H 187.741 2.97664 0.321992 0
M  V30 1992 H 185.287 1.4318 0.153434 0
M  V30 1993 H 187.24 3.19366 2.74924 0
M  V30 1994 H 185.964 1.9584 2.6137 0
M  V30 1995 H 184.623 3.48816 1.12796 0
M  V30 1996 H 184.271 3.50893 3.60393 0
M  V30 1997 H 183.971 5.11455 2.89288 0
M  V30 1998 H 185.495 4.80207 3.77139 0
M  V30 1999 H 186.909 5.50214 1.61052 0
M  V30 2000 H 185.306 5.92648 0.942762 0
M  V30 2001 H 186.376 4.84892 0.0279022 0
M  V30 2002 N 187.719 -0.156864 1.56817 0
M  V30 2003 C 188.649 -1.19589 2.00551 0
M  V30 2004 C 189.63 -1.4536 0.883426 0
M  V30 2005 O 190.815 -1.56449 1.15054 0
M  V30 2006 C 187.945 -2.53143 2.37773 0
M  V30 2007 C 186.899 -2.41913 3.53075 0
M  V30 2008 C 186.225 -3.80088 3.76081 0
M  V30 2009 C 187.525 -1.91157 4.86062 0
M  V30 2010 H 189.219 -0.832293 2.87599 0
M  V30 2011 H 186.765 -0.398918 1.38364 0
M  V30 2012 H 188.718 -3.26047 2.66967 0
M  V30 2013 H 187.442 -2.91319 1.4765 0
M  V30 2014 H 186.101 -1.71462 3.24031 0
M  V30 2015 H 185.749 -4.15683 2.83225 0
M  V30 2016 H 185.449 -3.73439 4.53671 0
M  V30 2017 H 186.973 -4.54556 4.0769 0
M  V30 2018 H 188.387 -2.53846 5.14038 0
M  V30 2019 H 186.784 -1.95422 5.67389 0
M  V30 2020 H 187.854 -0.866673 4.77092 0
M  V30 2021 N 189.197 -1.51736 -0.425897 0
M  V30 2022 C 190.608 -1.5732 -1.00536 0
M  V30 2023 C 190.959 -0.403537 -1.92005 0
M  V30 2024 O 190.084 0.478256 -2.11049 0
M  V30 2025 C 190.679 -2.85119 -1.8301 0
M  V30 2026 C 189.238 -2.93236 -2.35987 0
M  V30 2027 C 188.385 -2.52098 -1.15508 0
M  V30 2028 H 191.336 -1.57348 -0.206739 0
M  V30 2029 H 191.357 -2.69526 -2.68581 0
M  V30 2030 H 190.869 -3.7023 -1.16411 0
M  V30 2031 H 188.97 -2.12581 -3.06007 0
M  V30 2032 H 189.083 -3.9713 -2.68001 0
M  V30 2033 H 187.447 -2.05558 -1.50393 0
M  V30 2034 H 188.23 -3.39565 -0.505014 0
M  V30 2035 N 190.675 0.682077 -1.42076 0
M  V30 2036 C 192.091 0.994324 -1.24841 0
M  V30 2037 C 192.291 2.0096 -0.147389 0
M  V30 2038 O 191.347 2.47822 0.483782 0
M  V30 2039 C 192.66 1.50607 -2.60265 0
M  V30 2040 C 194.208 1.62421 -2.6756 0
M  V30 2041 C 194.683 2.16994 -4.03333 0
M  V30 2042 N 196.174 2.24337 -4.0525 0
M  V30 2043 C 196.909 2.67621 -5.07116 0
M  V30 2044 N 196.405 3.1041 -6.19368 0
M  V30 2045 N 198.198 2.67305 -4.94474 0
M  V30 2046 H 190.349 0.00973908 -2.12398 0
M  V30 2047 H 192.612 0.0668593 -0.945639 0
M  V30 2048 H 192.318 0.834583 -3.41654 0
M  V30 2049 H 192.192 2.48602 -2.83684 0
M  V30 2050 H 194.579 2.28678 -1.86521 0
M  V30 2051 H 194.66 0.629352 -2.47937 0
M  V30 2052 H 194.304 1.51349 -4.84826 0
M  V30 2053 H 194.234 3.17258 -4.20304 0
M  V30 2054 H 196.725 1.94158 -3.24209 0
M  V30 2055 H 197.038 3.42103 -6.92954 0
M  V30 2056 H 195.383 3.08286 -6.22884 0
M  V30 2057 H 198.574 2.33233 -4.05857 0
M  V30 2058 H 198.747 3.00718 -5.73997 0
M  V30 2059 N 192.153 1.28127 0.917671 0
M  V30 2060 C 193.399 1.15223 1.66888 0
M  V30 2061 C 193.732 -0.299293 1.9188 0
M  V30 2062 O 193.007 -1.21805 1.51637 0
M  V30 2063 C 193.29 1.94706 3.02922 0
M  V30 2064 C 193.143 3.47898 2.85109 0
M  V30 2065 C 194.462 1.75939 4.03402 0
M  V30 2066 H 191.581 0.419946 0.605652 0
M  V30 2067 H 194.223 1.57398 1.06423 0
M  V30 2068 H 192.373 1.58864 3.54534 0
M  V30 2069 H 194.045 3.93624 2.40537 0
M  V30 2070 H 192.288 3.7373 2.20246 0
M  V30 2071 H 192.959 3.98765 3.81694 0
M  V30 2072 H 195.435 2.07209 3.60837 0
M  V30 2073 H 194.311 2.33931 4.96556 0
M  V30 2074 H 194.572 0.709877 4.36364 0
M  V30 2075 N 193.631 -1.12557 1.10312 0
M  V30 2076 C 194.879 -1.83675 0.843091 0
M  V30 2077 C 195.2 -1.84435 -0.633131 0
M  V30 2078 O 194.47 -1.30657 -1.45964 0
M  V30 2079 H 193.05 -0.680138 0.308904 0
M  V30 2080 H 195.712 -1.36301 1.39313 0
M  V30 2081 H 194.808 -2.87908 1.2048 0
M  V30 2082 N 195.109 -0.891671 -1.2995 0
M  V30 2083 C 196.041 -0.320695 -2.26945 0
M  V30 2084 C 197.054 0.528497 -1.53983 0
M  V30 2085 O 198.243 0.346959 -1.75096 0
M  V30 2086 C 195.343 0.562066 -3.34207 0
M  V30 2087 C 194.516 -0.259576 -4.36629 0
M  V30 2088 C 193.575 0.554739 -5.23268 0
M  V30 2089 O 192.601 -0.0249311 -5.69195 0
M  V30 2090 N 193.803 1.8625 -5.4981 0
M  V30 2091 H 196.568 -1.15432 -2.76578 0
M  V30 2092 H 194.129 -0.755336 -1.432 0
M  V30 2093 H 196.121 1.11304 -3.89093 0
M  V30 2094 H 194.691 1.29637 -2.84452 0
M  V30 2095 H 193.911 -0.991986 -3.81514 0
M  V30 2096 H 195.199 -0.822564 -5.02107 0
M  V30 2097 H 194.597 2.35628 -5.14292 0
M  V30 2098 H 193.154 2.36078 -6.07545 0
M  V30 2099 N 196.587 1.43421 -0.653314 0
M  V30 2100 C 197.835 2.01414 -0.166415 0
M  V30 2101 C 198.156 1.51803 1.22397 0
M  V30 2102 O 197.426 0.730693 1.81763 0
M  V30 2103 H 196.006 0.744703 -0.0585319 0
M  V30 2104 H 198.668 1.75629 -0.845003 0
M  V30 2105 H 197.764 3.11734 -0.151111 0
M  V30 2106 N 198.065 0.39524 1.52563 0
M  V30 2107 C 198.998 -0.4813 2.23067 0
M  V30 2108 C 199.976 -1.05927 1.23362 0
M  V30 2109 O 201.16 -1.10979 1.52368 0
M  V30 2110 C 198.287 -1.66676 2.9485 0
M  V30 2111 C 197.333 -1.21348 4.08873 0
M  V30 2112 S 198.166 -0.190102 5.35162 0
M  V30 2113 C 199.322 -1.38121 6.1047 0
M  V30 2114 H 199.555 0.117381 2.97068 0
M  V30 2115 H 197.088 0.179458 1.53354 0
M  V30 2116 H 199.046 -2.3466 3.36816 0
M  V30 2117 H 197.707 -2.23676 2.20518 0
M  V30 2118 H 196.9 -2.09877 4.58222 0
M  V30 2119 H 196.502 -0.612486 3.68951 0
M  V30 2120 H 198.794 -2.30726 6.37002 0
M  V30 2121 H 199.737 -0.928521 7.01986 0
M  V30 2122 H 200.145 -1.60071 5.41329 0
M  V30 2123 N 199.544 -1.57102 0.125237 0
M  V30 2124 C 200.454 -2.19191 -0.8362 0
M  V30 2125 C 201.47 -1.16985 -1.28805 0
M  V30 2126 O 202.646 -1.49479 -1.34974 0
M  V30 2127 C 199.711 -2.78407 -2.06617 0
M  V30 2128 C 198.772 -3.9567 -1.66565 0
M  V30 2129 C 198.005 -4.52052 -2.83698 0
M  V30 2130 O 198.228 -4.07326 -3.99302 0
M  V30 2131 O 197.162 -5.42645 -2.60423 0
M  V30 2132 H 200.988 -3.01816 -0.337776 0
M  V30 2133 H 198.573 -1.4906 -0.100695 0
M  V30 2134 H 200.455 -3.16129 -2.7864 0
M  V30 2135 H 199.13 -1.9881 -2.55453 0
M  V30 2136 H 198.037 -3.62705 -0.916296 0
M  V30 2137 H 199.37 -4.76722 -1.22464 0
M  V30 2138 N 201.022 0.148545 -1.56898 0
M  V30 2139 C 202.268 0.862694 -1.83536 0
M  V30 2140 C 202.601 1.80889 -0.706604 0
M  V30 2141 O 201.876 1.92328 0.289885 0
M  V30 2142 C 202.159 1.63853 -3.20662 0
M  V30 2143 C 202.012 0.713925 -4.44098 0
M  V30 2144 C 203.331 2.60133 -3.54991 0
M  V30 2145 H 200.45 0.312179 -0.667618 0
M  V30 2146 H 203.092 0.127953 -1.89569 0
M  V30 2147 H 201.242 2.26489 -3.1565 0
M  V30 2148 H 202.914 0.098686 -4.61194 0
M  V30 2149 H 201.157 0.0234019 -4.33794 0
M  V30 2150 H 201.828 1.29278 -5.36648 0
M  V30 2151 H 204.304 2.07616 -3.60603 0
M  V30 2152 H 203.18 3.11468 -4.51972 0
M  V30 2153 H 203.441 3.41417 -2.80868 0
M  V30 2154 N 202.5 1.5196 0.417844 0
M  V30 2155 C 203.749 1.6482 1.16264 0
M  V30 2156 C 204.062 0.379886 1.91876 0
M  V30 2157 O 205.268 0.388154 2.68711 0
M  V30 2158 C 203.724 2.91161 2.1155 0
M  V30 2159 C 203.332 4.25068 1.41495 0
M  V30 2160 C 205.076 3.13383 2.86341 0
M  V30 2161 C 202.983 5.42541 2.35379 0
M  V30 2162 H 201.913 0.613954 0.437694 0
M  V30 2163 H 204.564 1.78442 0.427871 0
M  V30 2164 H 202.946 2.71218 2.88543 0
M  V30 2165 H 204.12 4.55463 0.699263 0
M  V30 2166 H 202.435 4.0888 0.787792 0
M  V30 2167 H 205.032 3.98324 3.5671 0
M  V30 2168 H 205.375 2.27256 3.48798 0
M  V30 2169 H 205.908 3.33757 2.1645 0
M  V30 2170 H 202.647 6.30987 1.77582 0
M  V30 2171 H 202.167 5.16497 3.04945 0
M  V30 2172 H 203.846 5.75272 2.96093 0
M  V30 2173 N 203.978 -0.674533 1.42435 0
M  V30 2174 C 204.908 -1.80009 1.48724 0
M  V30 2175 C 205.889 -1.6659 0.343793 0
M  V30 2176 O 207.074 -1.86007 0.558137 0
M  V30 2177 C 204.204 -3.18306 1.38919 0
M  V30 2178 C 203.158 -3.46461 2.51294 0
M  V30 2179 C 202.484 -4.84335 2.26547 0
M  V30 2180 C 203.784 -3.43328 3.93603 0
M  V30 2181 H 205.478 -1.75004 2.42928 0
M  V30 2182 H 203.024 -0.840533 1.16923 0
M  V30 2183 H 204.977 -3.9678 1.41927 0
M  V30 2184 H 203.701 -3.2399 0.412094 0
M  V30 2185 H 202.36 -2.70348 2.47604 0
M  V30 2186 H 202.008 -4.86669 1.2713 0
M  V30 2187 H 201.708 -5.04136 3.01861 0
M  V30 2188 H 203.232 -5.65094 2.31304 0
M  V30 2189 H 204.646 -4.11772 3.98894 0
M  V30 2190 H 203.043 -3.74664 4.68771 0
M  V30 2191 H 204.113 -2.41897 4.20255 0
M  V30 2192 N 205.456 -1.28612 -0.910864 0
M  V30 2193 C 206.419 -1.12803 -1.9952 0
M  V30 2194 C 207.419 -0.0668264 -1.60661 0
M  V30 2195 O 208.609 -0.312847 -1.71368 0
M  V30 2196 C 205.741 -0.72254 -3.33155 0
M  V30 2197 H 206.934 -2.09109 -2.14973 0
M  V30 2198 H 204.487 -1.11639 -1.09391 0
M  V30 2199 H 205.222 0.241152 -3.23402 0
M  V30 2200 H 205.007 -1.48916 -3.62721 0
M  V30 2201 H 206.497 -0.634666 -4.12749 0
M  V30 2202 N 206.934 1.1197 -1.10907 0
M  V30 2203 C 208.162 1.87402 -0.876824 0
M  V30 2204 C 208.577 1.79894 0.573025 0
M  V30 2205 O 207.934 1.17629 1.39534 0
M  V30 2206 C 207.985 3.36428 -1.32282 0
M  V30 2207 O 207.706 3.43765 -2.71582 0
M  V30 2208 C 209.207 4.28783 -1.12518 0
M  V30 2209 H 206.427 0.592793 -0.314384 0
M  V30 2210 H 208.971 1.41649 -1.47499 0
M  V30 2211 H 207.126 3.79706 -0.768229 0
M  V30 2212 H 207.54 4.3652 -2.90776 0
M  V30 2213 H 209.014 5.31613 -1.48633 0
M  V30 2214 H 209.491 4.39153 -0.0642394 0
M  V30 2215 H 210.097 3.91291 -1.66648 0
M  V30 2216 N 208.412 0.89855 1.29475 0
M  V30 2217 C 209.66 0.522847 1.9522 0
M  V30 2218 C 209.981 -0.93371 1.71192 0
M  V30 2219 O 209.251 -1.65823 1.04305 0
M  V30 2220 H 207.831 0.190366 0.722336 0
M  V30 2221 H 210.493 1.14459 1.5775 0
M  V30 2222 H 209.589 0.704476 3.04045 0
M  V30 2223 N 209.89 -1.43072 0.660911 0
M  V30 2224 C 211.118 -2.06067 0.185422 0
M  V30 2225 C 211.533 -1.49582 -1.15198 0
M  V30 2226 O 210.89 -0.630134 -1.71276 0
M  V30 2227 C 210.941 -3.61371 0.0966523 0
M  V30 2228 O 210.662 -4.15758 1.38119 0
M  V30 2229 C 212.163 -4.41455 -0.403996 0
M  V30 2230 H 209.383 -0.664459 0.0934604 0
M  V30 2231 H 211.927 -1.83447 0.90373 0
M  V30 2232 H 210.082 -3.8315 -0.572259 0
M  V30 2233 H 210.496 -5.09499 1.24542 0
M  V30 2234 H 211.97 -5.50437 -0.415045 0
M  V30 2235 H 212.447 -4.15036 -1.43674 0
M  V30 2236 H 213.053 -4.24663 0.232691 0
M  V30 2237 N 211.368 -0.403325 -1.52352 0
M  V30 2238 C 212.596 0.174012 -2.06167 0
M  V30 2239 C 213.011 1.39347 -1.27388 0
M  V30 2240 O 212.368 1.79597 -0.324201 0
M  V30 2241 C 212.419 0.530223 -3.5759 0
M  V30 2242 O 212.14 -0.640806 -4.33388 0
M  V30 2243 C 213.641 1.16192 -4.27802 0
M  V30 2244 H 210.861 0.0229464 -0.670608 0
M  V30 2245 H 213.405 -0.572604 -1.9632 0
M  V30 2246 H 211.56 1.22673 -3.67464 0
M  V30 2247 H 211.974 -0.344851 -5.23365 0
M  V30 2248 H 213.448 1.36141 -5.34948 0
M  V30 2249 H 213.925 2.13335 -3.83907 0
M  V30 2250 H 214.531 0.505775 -4.22282 0
M  V30 2251 N 212.846 1.57033 -0.133567 0
M  V30 2252 C 214.092 1.95976 0.521649 0
M  V30 2253 C 214.425 1.01779 1.65393 0
M  V30 2254 O 213.7 0.0576581 1.94415 0
M  V30 2255 C 213.983 3.44738 1.04057 0
M  V30 2256 C 213.836 4.49711 -0.0892897 0
M  V30 2257 C 215.155 3.95682 1.92675 0
M  V30 2258 H 212.274 0.712579 0.188149 0
M  V30 2259 H 214.916 1.88813 -0.212076 0
M  V30 2260 H 213.066 3.50973 1.66583 0
M  V30 2261 H 214.738 4.55565 -0.725152 0
M  V30 2262 H 212.981 4.27261 -0.750378 0
M  V30 2263 H 213.652 5.51099 0.315284 0
M  V30 2264 H 216.128 3.91841 1.39998 0
M  V30 2265 H 215.004 5.00262 2.25897 0
M  V30 2266 H 215.265 3.37239 2.85872 0
M  V30 2267 N 214.325 -0.140222 1.56975 0
M  V30 2268 C 215.235 -1.19223 2.02047 0
M  V30 2269 C 216.251 -1.46612 0.937062 0
M  V30 2270 O 217.427 -1.58148 1.24704 0
M  V30 2271 C 214.492 -2.50414 2.39778 0
M  V30 2272 C 213.553 -2.30612 3.621 0
M  V30 2273 C 212.786 -3.55547 3.98023 0
M  V30 2274 O 213.009 -4.62004 3.34528 0
M  V30 2275 O 211.943 -3.47808 4.91237 0
M  V30 2276 H 215.769 -0.839559 2.91865 0
M  V30 2277 H 213.354 -0.349453 1.45256 0
M  V30 2278 H 215.236 -3.27747 2.64877 0
M  V30 2279 H 213.911 -2.85198 1.53114 0
M  V30 2280 H 212.818 -1.51207 3.4218 0
M  V30 2281 H 214.151 -2.00741 4.49404 0
M  V30 2282 N 215.803 -1.52179 -0.40978 0
M  V30 2283 C 217.051 -1.65878 -1.15451 0
M  V30 2284 C 217.372 -0.390771 -1.91044 0
M  V30 2285 O 216.642 0.594323 -1.86667 0
M  V30 2286 H 215.222 -0.611405 -0.429177 0
M  V30 2287 H 217.884 -1.89219 -0.467134 0
M  V30 2288 H 216.98 -2.49954 -1.86894 0
M  V30 2289 N 217.281 0.66697 -1.42791 0
M  V30 2290 C 218.558 1.4234 -1.34159 0
M  V30 2291 C 218.938 2.11093 0.0172729 0
M  V30 2292 O 218.286 2.03808 1.03318 0
M  V30 2293 C 218.496 2.41942 -2.51526 0
M  V30 2294 C 219.844 3.06353 -2.93995 0
M  V30 2295 O 220.868 2.52269 -2.51473 0
M  V30 2296 O 219.727 4.04376 -3.67617 0
M  V30 2297 H 216.821 0.635277 -0.529483 0
M  V30 2298 H 219.367 0.695034 -1.54814 0
M  V30 2299 H 218.139 1.89991 -3.42081 0
M  V30 2300 H 217.762 3.22249 -2.32898 0
M  V30 2301 N 218.759 1.29093 0.90403 0
M  V30 2302 C 219.722 1.1386 1.98919 0
M  V30 2303 C 220.722 0.0753457 1.60623 0
M  V30 2304 O 221.912 0.321931 1.71199 0
M  V30 2305 C 219.044 0.740198 3.32767 0
M  V30 2306 H 220.237 2.10246 2.13861 0
M  V30 2307 H 217.79 1.12218 1.08797 0
M  V30 2308 H 218.525 -0.223997 3.23525 0
M  V30 2309 H 218.31 1.50838 3.61926 0
M  V30 2310 H 219.8 0.656546 4.12407 0
M  V30 2311 N 220.237 -1.11381 1.11499 0
M  V30 2312 C 221.465 -1.86934 0.88675 0
M  V30 2313 C 221.88 -1.80195 -0.563476 0
M  V30 2314 O 221.237 -1.18367 -1.38908 0
M  V30 2315 C 221.288 -3.35722 1.34064 0
M  V30 2316 O 221.009 -3.4232 2.73401 0
M  V30 2317 C 222.51 -4.2818 1.14791 0
M  V30 2318 H 219.73 -0.591117 0.317523 0
M  V30 2319 H 222.274 -1.40865 1.48248 0
M  V30 2320 H 220.429 -3.79294 0.788355 0
M  V30 2321 H 220.843 -4.34971 2.93087 0
M  V30 2322 H 222.317 -5.30817 1.5145 0
M  V30 2323 H 222.794 -4.39113 0.0875279 0
M  V30 2324 H 223.4 -3.90402 1.68721 0
M  V30 2325 N 221.715 -0.905404 -1.28997 0
M  V30 2326 C 222.678 -0.392253 -2.25819 0
M  V30 2327 C 223.678 0.476753 -1.5357 0
M  V30 2328 O 224.868 0.280994 -1.71919 0
M  V30 2329 C 222 0.438588 -3.38067 0
M  V30 2330 H 223.193 -1.24743 -2.72725 0
M  V30 2331 H 220.746 -0.684051 -1.40536 0
M  V30 2332 H 221.481 1.31352 -2.96508 0
M  V30 2333 H 221.266 -0.184167 -3.91667 0
M  V30 2334 H 222.756 0.78873 -4.10084 0
M  V30 2335 N 223.193 1.4272 -0.668489 0
M  V30 2336 C 224.123 2.335 -0.000100175 0
M  V30 2337 C 225.104 1.50328 0.795964 0
M  V30 2338 O 226.289 1.78949 0.754385 0
M  V30 2339 C 223.419 3.33874 0.956302 0
M  V30 2340 C 222.373 4.27152 0.269278 0
M  V30 2341 C 221.699 5.17684 1.33818 0
M  V30 2342 C 222.999 5.15373 -0.847805 0
M  V30 2343 H 224.693 2.89639 -0.758244 0
M  V30 2344 H 222.239 1.39269 -0.366079 0
M  V30 2345 H 224.192 3.9629 1.43292 0
M  V30 2346 H 222.916 2.76025 1.74579 0
M  V30 2347 H 221.575 3.66123 -0.187042 0
M  V30 2348 H 221.223 4.56165 2.1195 0
M  V30 2349 H 220.923 5.80918 0.883659 0
M  V30 2350 H 222.447 5.82974 1.81586 0
M  V30 2351 H 223.861 5.7151 -0.452681 0
M  V30 2352 H 222.258 5.87407 -1.22773 0
M  V30 2353 H 223.328 4.5415 -1.69929 0
M  V30 2354 N 224.671 0.411399 1.52136 0
M  V30 2355 C 225.901 -0.16284 2.05957 0
M  V30 2356 C 226.309 -1.3922 1.28119 0
M  V30 2357 O 225.652 -1.80768 0.326881 0
M  V30 2358 C 225.714 -0.575946 3.54856 0
M  V30 2359 C 225.378 0.542998 4.53763 0
M  V30 2360 C 226.375 1.40726 5.00492 0
M  V30 2361 C 224.06 0.716337 4.97166 0
M  V30 2362 C 226.054 2.4298 5.8927 0
M  V30 2363 C 223.741 1.74218 5.8574 0
M  V30 2364 C 224.739 2.59731 6.31687 0
M  V30 2365 O 224.427 3.60558 7.18507 0
M  V30 2366 H 224.159 -0.0229125 0.675612 0
M  V30 2367 H 226.713 0.581634 1.96993 0
M  V30 2368 H 224.943 -1.37274 3.61515 0
M  V30 2369 H 226.632 -1.07836 3.91313 0
M  V30 2370 H 227.398 1.28476 4.67674 0
M  V30 2371 H 223.277 0.0603857 4.6096 0
M  V30 2372 H 226.821 3.0976 6.25055 0
M  V30 2373 H 222.718 1.86498 6.17971 0
M  V30 2374 H 223.486 3.56829 7.36624 0
M  V30 2375 N 226.149 -1.5696 0.141893 0
M  V30 2376 C 227.079 -2.19516 -0.795936 0
M  V30 2377 C 228.06 -1.14187 -1.26077 0
M  V30 2378 O 229.245 -1.42511 -1.31925 0
M  V30 2379 C 226.375 -2.81272 -2.03723 0
M  V30 2380 C 225.329 -3.92384 -1.70936 0
M  V30 2381 C 224.655 -4.41052 -3.02287 0
M  V30 2382 C 225.955 -5.13403 -0.959954 0
M  V30 2383 H 227.649 -2.98138 -0.274596 0
M  V30 2384 H 225.195 -1.43406 -0.130636 0
M  V30 2385 H 227.148 -3.237 -2.69808 0
M  V30 2386 H 225.872 -1.99973 -2.58221 0
M  V30 2387 H 224.531 -3.50566 -1.07232 0
M  V30 2388 H 224.179 -3.56582 -3.54765 0
M  V30 2389 H 223.879 -5.15993 -2.81114 0
M  V30 2390 H 225.403 -4.86146 -3.69451 0
M  V30 2391 H 226.817 -5.52706 -1.52279 0
M  V30 2392 H 225.214 -5.94073 -0.848357 0
M  V30 2393 H 226.284 -4.84875 0.0492434 0
M  V30 2394 N 227.627 0.131896 -1.57047 0
M  V30 2395 C 228.559 1.1878 -1.9602 0
M  V30 2396 C 229.572 1.38363 -0.857875 0
M  V30 2397 O 230.761 1.37666 -1.13623 0
M  V30 2398 C 227.861 2.55008 -2.23213 0
M  V30 2399 C 227.034 2.56201 -3.54513 0
M  V30 2400 C 226.093 3.7408 -3.70069 0
M  V30 2401 O 225.119 3.58258 -4.42312 0
M  V30 2402 N 226.321 4.92137 -3.07866 0
M  V30 2403 H 229.086 0.85639 -2.87204 0
M  V30 2404 H 226.647 0.321309 -1.5868 0
M  V30 2405 H 228.639 3.32404 -2.30846 0
M  V30 2406 H 227.209 2.80382 -1.3822 0
M  V30 2407 H 226.429 1.64613 -3.58185 0
M  V30 2408 H 227.717 2.54043 -4.4084 0
M  V30 2409 H 227.115 5.07895 -2.49116 0
M  V30 2410 H 225.672 5.67254 -3.21039 0
M  V30 2411 N 229.106 1.52395 0.401703 0
M  V30 2412 C 230.522 1.41363 0.740864 0
M  V30 2413 C 230.722 0.523982 1.94568 0
M  V30 2414 O 229.778 -0.00741204 2.52499 0
M  V30 2415 C 231.091 2.84011 0.987847 0
M  V30 2416 C 232.639 2.93404 1.09011 0
M  V30 2417 C 233.114 4.37036 1.3698 0
M  V30 2418 N 234.605 4.40304 1.43829 0
M  V30 2419 C 235.34 5.48508 1.67112 0
M  V30 2420 N 234.836 6.66819 1.87949 0
M  V30 2421 N 236.629 5.36034 1.69187 0
M  V30 2422 H 228.78 2.08765 -0.391262 0
M  V30 2423 H 231.043 0.941265 -0.112798 0
M  V30 2424 H 230.749 3.51265 0.174835 0
M  V30 2425 H 230.623 3.25502 1.906 0
M  V30 2426 H 233.01 2.26325 1.8937 0
M  V30 2427 H 233.091 2.55359 0.15015 0
M  V30 2428 H 232.735 5.04676 0.571353 0
M  V30 2429 H 232.665 4.72623 2.3224 0
M  V30 2430 H 235.156 3.55024 1.29486 0
M  V30 2431 H 235.469 7.45063 2.05185 0
M  V30 2432 H 233.814 6.6987 1.85199 0
M  V30 2433 H 237.005 4.42579 1.52451 0
M  V30 2434 H 237.178 6.20434 1.86993 0
M  V30 2435 N 230.584 -0.659388 1.43143 0
M  V30 2436 C 231.514 -1.78422 1.50625 0
M  V30 2437 C 232.495 -1.66216 0.361443 0
M  V30 2438 O 233.68 -1.85404 0.577834 0
M  V30 2439 C 230.81 -3.16815 1.42287 0
M  V30 2440 C 229.764 -3.43777 2.54954 0
M  V30 2441 C 229.09 -4.81905 2.31671 0
M  V30 2442 C 230.39 -3.39134 3.97222 0
M  V30 2443 H 232.084 -1.72417 2.44771 0
M  V30 2444 H 229.63 -0.828084 1.17808 0
M  V30 2445 H 231.583 -3.95253 1.46127 0
M  V30 2446 H 230.307 -3.23534 0.446435 0
M  V30 2447 H 228.966 -2.67707 2.50457 0
M  V30 2448 H 228.614 -4.85294 1.32284 0
M  V30 2449 H 228.314 -5.00906 3.07192 0
M  V30 2450 H 229.838 -5.62609 2.37284 0
M  V30 2451 H 231.252 -4.07518 4.03239 0
M  V30 2452 H 229.649 -3.69671 4.72719 0
M  V30 2453 H 230.719 -2.37426 4.22797 0
M  V30 2454 N 232.062 -1.29571 -0.897171 0
M  V30 2455 C 232.992 -1.17473 -2.01798 0
M  V30 2456 C 233.973 -0.068323 -1.69963 0
M  V30 2457 O 235.158 -0.248239 -1.92607 0
M  V30 2458 C 232.288 -0.853099 -3.36659 0
M  V30 2459 C 231.242 -1.9161 -3.82713 0
M  V30 2460 C 230.568 -1.44773 -5.14728 0
M  V30 2461 C 231.868 -3.32535 -4.02763 0
M  V30 2462 H 233.562 -2.11237 -2.12177 0
M  V30 2463 H 231.108 -1.01699 -1.01948 0
M  V30 2464 H 233.061 -0.755165 -4.14578 0
M  V30 2465 H 231.785 0.120236 -3.26379 0
M  V30 2466 H 230.444 -2.00346 -3.07013 0
M  V30 2467 H 230.092 -0.462995 -5.00865 0
M  V30 2468 H 229.792 -2.15865 -5.46513 0
M  V30 2469 H 231.316 -1.36334 -5.95185 0
M  V30 2470 H 232.73 -3.26626 -4.71156 0
M  V30 2471 H 231.127 -4.01607 -4.45905 0
M  V30 2472 H 232.197 -3.75326 -3.07016 0
M  V30 2473 N 233.54 1.10788 -1.12088 0
M  V30 2474 C 234.45 2.20599 -0.798338 0
M  V30 2475 C 235.466 1.72712 0.21135 0
M  V30 2476 O 236.642 2.01348 0.0458477 0
M  V30 2477 C 233.707 3.45771 -0.253674 0
M  V30 2478 C 232.768 4.08411 -1.32283 0
M  V30 2479 C 232.001 5.27608 -0.80406 0
M  V30 2480 O 232.224 5.69241 0.363478 0
M  V30 2481 O 231.158 5.8101 -1.57198 0
M  V30 2482 H 234.984 2.50614 -1.7154 0
M  V30 2483 H 232.569 1.19454 -0.897275 0
M  V30 2484 H 234.451 4.21376 0.0453691 0
M  V30 2485 H 233.126 3.1739 0.636005 0
M  V30 2486 H 232.033 3.34507 -1.67499 0
M  V30 2487 H 233.366 4.40986 -2.18614 0
M  V30 2488 N 235.018 0.912232 1.28515 0
M  V30 2489 C 236.429 0.591352 1.77087 0
M  V30 2490 C 236.78 -0.8933 1.74684 0
M  V30 2491 O 235.905 -1.69876 1.34056 0
M  V30 2492 C 236.5 1.06668 3.2157 0
M  V30 2493 C 235.059 0.79675 3.67871 0
M  V30 2494 C 234.206 1.23427 2.48316 0
M  V30 2495 H 237.157 1.09365 1.15 0
M  V30 2496 H 237.178 0.407455 3.78312 0
M  V30 2497 H 236.69 2.14726 3.23287 0
M  V30 2498 H 234.791 -0.270679 3.71616 0
M  V30 2499 H 234.904 1.40343 4.58084 0
M  V30 2500 H 233.268 0.653036 2.46186 0
M  V30 2501 H 234.051 2.32316 2.52753 0
M  V30 2502 N 236.496 -1.42363 0.676048 0
M  V30 2503 C 237.426 -2.33497 0.0124832 0
M  V30 2504 C 238.407 -1.50748 -0.787981 0
M  V30 2505 O 239.592 -1.79346 -0.744884 0
M  V30 2506 C 236.722 -3.34377 -0.938582 0
M  V30 2507 C 235.676 -4.27289 -0.246622 0
M  V30 2508 C 235.002 -5.18386 -1.31071 0
M  V30 2509 C 236.302 -5.14916 0.875125 0
M  V30 2510 H 237.996 -2.89233 0.773593 0
M  V30 2511 H 235.542 -1.39073 0.37346 0
M  V30 2512 H 237.495 -3.97044 -1.41188 0
M  V30 2513 H 236.219 -2.76947 -1.73113 0
M  V30 2514 H 234.878 -3.66018 0.206456 0
M  V30 2515 H 234.526 -4.57282 -2.09528 0
M  V30 2516 H 234.226 -5.81378 -0.852839 0
M  V30 2517 H 235.75 -5.83929 -1.78492 0
M  V30 2518 H 237.164 -5.71262 0.482983 0
M  V30 2519 H 235.561 -5.86747 1.25887 0
M  V30 2520 H 236.631 -4.53242 1.72335 0
M  V30 2521 N 237.974 -0.419461 -1.51915 0
M  V30 2522 C 239.222 0.152637 -2.01523 0
M  V30 2523 C 239.543 1.44762 -1.30649 0
M  V30 2524 O 238.813 1.90997 -0.435535 0
M  V30 2525 H 237.393 0.0593966 -0.744635 0
M  V30 2526 H 240.055 -0.558073 -1.86739 0
M  V30 2527 H 239.151 0.341369 -3.10227 0
M  V30 2528 N 239.452 1.56882 -0.150215 0
M  V30 2529 C 240.415 2.1573 0.774157 0
M  V30 2530 C 241.415 1.0999 1.17298 0
M  V30 2531 O 242.605 1.35613 1.09338 0
M  V30 2532 C 239.737 2.72302 2.05096 0
M  V30 2533 H 240.93 2.98752 0.262201 0
M  V30 2534 H 238.483 1.55985 0.099248 0
M  V30 2535 H 239.218 1.92956 2.6065 0
M  V30 2536 H 239.003 3.49665 1.77416 0
M  V30 2537 H 240.493 3.17632 2.71109 0
M  V30 2538 N 240.93 -0.123565 1.57115 0
M  V30 2539 C 241.893 -1.13583 1.99076 0
M  V30 2540 C 242.893 -1.34564 0.880296 0
M  V30 2541 O 244.083 -1.31158 1.14644 0
M  V30 2542 C 241.215 -2.49128 2.32698 0
M  V30 2543 H 242.408 -0.775287 2.89706 0
M  V30 2544 H 239.961 -0.36771 1.51913 0
M  V30 2545 H 240.696 -2.90111 1.44934 0
M  V30 2546 H 240.481 -2.35255 3.13684 0
M  V30 2547 H 241.971 -3.2199 2.65918 0
M  V30 2548 N 242.408 -1.52605 -0.393616 0
M  V30 2549 C 243.657 -1.66649 -1.13627 0
M  V30 2550 C 243.97 -0.410364 -1.91247 0
M  V30 2551 O 245.176 -0.430854 -2.68059 0
M  V30 2552 C 243.632 -2.9449 -2.06891 0
M  V30 2553 C 243.24 -4.27266 -1.34714 0
M  V30 2554 C 244.984 -3.17899 -2.81319 0
M  V30 2555 C 242.891 -5.46217 -2.26717 0
M  V30 2556 H 241.821 -0.62084 -0.427871 0
M  V30 2557 H 244.472 -1.791 -0.399428 0
M  V30 2558 H 242.854 -2.75774 -2.84191 0
M  V30 2559 H 244.028 -4.56518 -0.626714 0
M  V30 2560 H 242.343 -4.10081 -0.722643 0
M  V30 2561 H 244.94 -4.03949 -3.50328 0
M  V30 2562 H 245.283 -2.32777 -3.45139 0
M  V30 2563 H 245.816 -3.37159 -2.11113 0
M  V30 2564 H 242.555 -6.33733 -1.67521 0
M  V30 2565 H 242.075 -5.21283 -2.96689 0
M  V30 2566 H 243.754 -5.7991 -2.86903 0
M  V30 2567 N 243.887 0.651787 -1.4349 0
M  V30 2568 C 245.112 1.44434 -1.48841 0
M  V30 2569 C 245.537 1.8779 -0.107955 0
M  V30 2570 O 244.895 1.57464 0.898602 0
M  V30 2571 C 244.943 2.65458 -2.44059 0
M  V30 2572 O 244.047 3.64566 -1.92784 0
M  V30 2573 H 243.388 0.433005 -0.503391 0
M  V30 2574 H 245.918 0.797451 -1.88419 0
M  V30 2575 H 245.928 3.13255 -2.6141 0
M  V30 2576 H 244.603 2.33244 -3.4434 0
M  V30 2577 H 243.18 3.23716 -1.851 0
M  V30 2578 N 245.365 1.30045 0.890287 0
M  V30 2579 C 246.781 1.08261 1.17268 0
M  V30 2580 C 246.981 -0.160063 2.00863 0
M  V30 2581 O 246.037 -0.855181 2.37577 0
M  V30 2582 C 247.35 2.34323 1.8845 0
M  V30 2583 C 248.898 2.39735 2.01237 0
M  V30 2584 C 249.373 3.65625 2.7583 0
M  V30 2585 N 250.864 3.66402 2.83379 0
M  V30 2586 C 251.599 4.60498 3.41657 0
M  V30 2587 N 251.095 5.64933 4.01026 0
M  V30 2588 N 252.888 4.48051 3.39421 0
M  V30 2589 H 245.039 2.09777 0.332762 0
M  V30 2590 H 247.302 0.92446 0.209948 0
M  V30 2591 H 247.008 3.2498 1.34465 0
M  V30 2592 H 246.882 2.4256 2.88867 0
M  V30 2593 H 249.269 1.4956 2.54393 0
M  V30 2594 H 249.35 2.35476 0.999232 0
M  V30 2595 H 248.994 4.56156 2.23347 0
M  V30 2596 H 248.924 3.67144 3.77509 0
M  V30 2597 H 251.415 2.90896 2.41222 0
M  V30 2598 H 251.728 6.32841 4.43545 0
M  V30 2599 H 250.073 5.68732 3.99461 0
M  V30 2600 H 253.264 3.65649 2.92264 0
M  V30 2601 H 253.437 5.21565 3.84544 0
M  V30 2602 N 246.843 -1.10192 1.12674 0
M  V30 2603 C 248.092 -1.81573 0.8783 0
M  V30 2604 C 248.405 -1.86249 -0.597557 0
M  V30 2605 O 249.611 -2.5386 -0.962681 0
M  V30 2606 C 248.067 -3.26149 1.52167 0
M  V30 2607 C 247.675 -3.29763 3.03249 0
M  V30 2608 C 249.419 -4.0234 1.3536 0
M  V30 2609 C 247.326 -4.68815 3.60508 0
M  V30 2610 H 246.256 -0.680394 0.324931 0
M  V30 2611 H 248.907 -1.23902 1.35353 0
M  V30 2612 H 247.289 -3.83832 0.974104 0
M  V30 2613 H 248.463 -2.8189 3.6452 0
M  V30 2614 H 246.778 -2.67059 3.19481 0
M  V30 2615 H 249.375 -5.05058 1.75559 0
M  V30 2616 H 249.718 -4.15235 0.297554 0
M  V30 2617 H 250.251 -3.51079 1.87052 0
M  V30 2618 H 246.99 -4.61121 4.65884 0
M  V30 2619 H 246.51 -5.17045 3.04014 0
M  V30 2620 H 248.189 -5.37785 3.59717 0
M  V30 2621 N 248.321 -0.919034 -1.28029 0
M  V30 2622 C 249.284 -0.416182 -2.2539 0
M  V30 2623 C 250.284 0.460438 -1.54067 0
M  V30 2624 O 251.474 0.262744 -1.72207 0
M  V30 2625 C 248.606 0.402707 -3.38513 0
M  V30 2626 H 249.799 -1.27629 -2.71387 0
M  V30 2627 H 247.352 -0.698919 -1.39803 0
M  V30 2628 H 248.087 1.282 -2.97885 0
M  V30 2629 H 247.872 -0.225698 -3.9145 0
M  V30 2630 H 249.362 0.745191 -4.10897 0
M  V30 2631 N 249.799 1.42003 -0.683588 0
M  V30 2632 C 251.029 2.05448 -0.217866 0
M  V30 2633 C 251.437 1.51491 1.13346 0
M  V30 2634 O 250.78 0.653048 1.717 0
M  V30 2635 C 250.842 3.59399 -0.0850118 0
M  V30 2636 C 250.506 4.36093 -1.36645 0
M  V30 2637 C 251.503 4.66169 -2.30179 0
M  V30 2638 C 249.188 4.75578 -1.61649 0
M  V30 2639 C 251.182 5.34676 -3.46988 0
M  V30 2640 C 248.869 5.43824 -2.78745 0
M  V30 2641 C 249.867 5.73299 -3.71238 0
M  V30 2642 O 249.555 6.40142 -4.86285 0
M  V30 2643 H 249.287 0.668344 -0.101454 0
M  V30 2644 H 251.841 1.82974 -0.933248 0
M  V30 2645 H 250.071 3.80566 0.686031 0
M  V30 2646 H 251.76 4.04457 0.341973 0
M  V30 2647 H 252.526 4.36156 -2.12115 0
M  V30 2648 H 248.405 4.52025 -0.905243 0
M  V30 2649 H 251.949 5.57599 -4.19201 0
M  V30 2650 H 247.846 5.73254 -2.96732 0
M  V30 2651 H 248.614 6.58636 -4.85944 0
M  V30 2652 N 251.277 0.427512 1.51691 0
M  V30 2653 C 252.525 -0.141948 2.01601 0
M  V30 2654 C 252.846 -1.44067 1.31414 0
M  V30 2655 O 252.116 -1.90763 0.445658 0
M  V30 2656 H 250.696 -0.0554468 0.744939 0
M  V30 2657 H 253.358 0.567968 1.86441 0
M  V30 2658 H 252.454 -0.324913 3.10404 0
M  V30 2659 N 252.755 -1.56801 0.158532 0
M  V30 2660 C 254.001 -1.96781 -0.490405 0
M  V30 2661 C 254.334 -1.04397 -1.63753 0
M  V30 2662 O 253.609 -0.0885805 -1.94298 0
M  V30 2663 C 253.892 -3.4635 -0.985594 0
M  V30 2664 C 253.745 -4.49512 0.160824 0
M  V30 2665 C 255.064 -3.98697 -1.86355 0
M  V30 2666 H 252.183 -0.715482 -0.176788 0
M  V30 2667 H 254.825 -1.88451 0.242088 0
M  V30 2668 H 252.975 -3.53579 -1.60978 0
M  V30 2669 H 254.647 -4.54353 0.797537 0
M  V30 2670 H 252.89 -4.26013 0.818256 0
M  V30 2671 H 253.561 -5.51531 -0.227569 0
M  V30 2672 H 256.037 -3.94019 -1.33746 0
M  V30 2673 H 254.913 -5.03792 -2.17909 0
M  V30 2674 H 255.174 -3.41744 -2.8047 0
M  V30 2675 N 254.233 0.115231 -1.57178 0
M  V30 2676 C 255.644 0.67197 -1.74188 0
M  V30 2677 C 255.995 1.80125 -0.777777 0
M  V30 2678 O 255.12 2.16346 0.0484376 0
M  V30 2679 C 255.715 1.22573 -3.1585 0
M  V30 2680 C 254.274 1.72872 -3.34353 0
M  V30 2681 C 253.421 0.629972 -2.70049 0
M  V30 2682 H 256.372 -0.110712 -1.58313 0
M  V30 2683 H 256.393 2.09535 -3.17609 0
M  V30 2684 H 255.905 0.403598 -3.85996 0
M  V30 2685 H 254.006 2.5755 -2.69256 0
M  V30 2686 H 254.119 1.83557 -4.42542 0
M  V30 2687 H 252.483 1.0645 -2.31388 0
M  V30 2688 H 253.266 -0.181241 -3.42821 0
M  V30 2689 N 255.711 1.52812 0.385517 0
M  V30 2690 C 256.957 1.68275 1.13188 0
M  V30 2691 C 257.29 0.423179 1.89533 0
M  V30 2692 O 256.565 -0.579113 1.85679 0
M  V30 2693 C 256.848 2.92001 2.1073 0
M  V30 2694 C 256.701 4.28067 1.38125 0
M  V30 2695 C 258.02 3.11283 3.11113 0
M  V30 2696 H 255.139 0.612352 0.410115 0
M  V30 2697 H 257.781 1.85415 0.414869 0
M  V30 2698 H 255.931 2.77519 2.71874 0
M  V30 2699 H 257.603 4.54324 0.799187 0
M  V30 2700 H 255.846 4.28388 0.683092 0
M  V30 2701 H 256.517 5.10733 2.09417 0
M  V30 2702 H 258.993 3.2482 2.6006 0
M  V30 2703 H 257.869 3.99325 3.76605 0
M  V30 2704 H 258.13 2.25656 3.80173 0
M  V30 2705 N 257.189 -0.644168 1.43834 0
M  V30 2706 C 258.437 -1.40117 1.45642 0
M  V30 2707 C 258.758 -1.94814 0.0852413 0
M  V30 2708 O 258.028 -1.74988 -0.880688 0
M  V30 2709 H 256.608 -0.52005 0.536243 0
M  V30 2710 H 259.27 -0.7591 1.7951 0
M  V30 2711 H 258.366 -2.23902 2.17427 0
M  V30 2712 N 258.668 -1.30515 -0.883378 0
M  V30 2713 C 259.916 -1.19194 -1.63209 0
M  V30 2714 C 260.237 0.253205 -1.93349 0
M  V30 2715 O 259.507 1.17025 -1.57105 0
M  V30 2716 H 258.087 -0.438148 -0.605009 0
M  V30 2717 H 260.749 -1.63663 -1.05832 0
M  V30 2718 H 259.845 -1.75396 -2.58153 0
M  V30 2719 N 260.146 1.09593 -1.13257 0
M  V30 2720 C 261.371 1.8604 -0.916732 0
M  V30 2721 C 261.796 1.80504 0.529146 0
M  V30 2722 O 261.154 1.18127 1.37534 0
M  V30 2723 C 261.202 3.32017 -1.40703 0
M  V30 2724 O 260.306 4.08141 -0.591153 0
M  V30 2725 H 259.647 0.576943 -0.328683 0
M  V30 2726 H 262.177 1.38405 -1.50682 0
M  V30 2727 H 262.187 3.82865 -1.4099 0
M  V30 2728 H 260.862 3.35361 -2.45979 0
M  V30 2729 H 259.439 3.67084 -0.656005 0
M  V30 2730 N 261.624 0.925811 1.2754 0
M  V30 2731 C 262.554 0.440748 2.29303 0
M  V30 2732 C 263.535 -0.497971 1.62648 0
M  V30 2733 O 264.72 -0.403126 1.8997 0
M  V30 2734 C 261.85 -0.309048 3.45922 0
M  V30 2735 C 260.804 0.54166 4.24559 0
M  V30 2736 C 260.13 -0.337191 5.33636 0
M  V30 2737 C 261.43 1.80516 4.90114 0
M  V30 2738 H 263.124 1.29121 2.70126 0
M  V30 2739 H 260.67 0.622323 1.29858 0
M  V30 2740 H 262.623 -0.659315 4.1621 0
M  V30 2741 H 261.347 -1.19352 3.04011 0
M  V30 2742 H 260.006 0.874609 3.56014 0
M  V30 2743 H 259.654 -1.22056 4.87966 0
M  V30 2744 H 259.354 0.228497 5.87156 0
M  V30 2745 H 260.878 -0.683072 6.06767 0
M  V30 2746 H 262.292 1.52307 5.52698 0
M  V30 2747 H 260.689 2.3142 5.53683 0
M  V30 2748 H 261.759 2.52581 4.13921 0
M  V30 2749 N 263.102 -1.41638 0.69111 0
M  V30 2750 C 264.012 -2.34588 0.0233487 0
M  V30 2751 C 265.028 -1.55987 -0.770984 0
M  V30 2752 O 266.204 -1.88486 -0.709569 0
M  V30 2753 C 263.269 -3.34684 -0.904851 0
M  V30 2754 C 262.33 -4.29176 -0.103225 0
M  V30 2755 C 261.563 -5.2449 -0.987216 0
M  V30 2756 O 261.786 -5.2514 -2.22674 0
M  V30 2757 O 260.72 -6.00295 -0.439281 0
M  V30 2758 H 264.546 -2.93261 0.789416 0
M  V30 2759 H 262.131 -1.42417 0.45142 0
M  V30 2760 H 264.013 -3.96133 -1.43724 0
M  V30 2761 H 262.688 -2.78461 -1.65049 0
M  V30 2762 H 261.595 -3.71089 0.473655 0
M  V30 2763 H 262.928 -4.88484 0.60365 0
M  V30 2764 N 264.58 -0.43555 -1.51462 0
M  V30 2765 C 265.81 0.130053 -2.0619 0
M  V30 2766 C 266.218 1.37164 -1.30317 0
M  V30 2767 O 265.561 1.80225 -0.355598 0
M  V30 2768 C 265.623 0.519418 -3.55728 0
M  V30 2769 C 265.287 -0.615119 -4.52841 0
M  V30 2770 C 266.284 -1.48671 -4.9819 0
M  V30 2771 C 263.969 -0.795341 -4.95963 0
M  V30 2772 C 265.963 -2.52324 -5.8533 0
M  V30 2773 C 263.65 -1.83514 -5.82894 0
M  V30 2774 C 264.648 -2.69748 -6.27475 0
M  V30 2775 O 264.336 -3.71944 -7.1268 0
M  V30 2776 H 264.068 0.0121612 -0.675891 0
M  V30 2777 H 266.622 -0.6129 -1.96043 0
M  V30 2778 H 264.852 1.31505 -3.63653 0
M  V30 2779 H 266.541 1.01597 -3.92979 0
M  V30 2780 H 267.307 -1.359 -4.65571 0
M  V30 2781 H 263.186 -0.133713 -4.60806 0
M  V30 2782 H 266.73 -3.19665 -6.20048 0
M  V30 2783 H 262.627 -1.96306 -6.14926 0
M  V30 2784 H 263.395 -3.68503 -7.30854 0
M  V30 2785 N 266.058 1.56714 -0.166846 0
M  V30 2786 C 267.286 2.0112 0.485644 0
M  V30 2787 C 267.701 1.04705 1.57106 0
M  V30 2788 O 267.058 0.0471923 1.82439 0
M  V30 2789 C 267.109 3.45361 1.06808 0
M  V30 2790 O 266.83 4.38092 0.0259995 0
M  V30 2791 C 268.331 4.05145 1.79924 0
M  V30 2792 H 265.551 0.65931 0.124704 0
M  V30 2793 H 268.095 2.02746 -0.267262 0
M  V30 2794 H 266.25 3.44524 1.7715 0
M  V30 2795 H 266.664 5.22519 0.455398 0
M  V30 2796 H 268.138 5.08009 2.15942 0
M  V30 2797 H 268.615 3.46982 2.69258 0
M  V30 2798 H 269.221 4.09672 1.14234 0
M  V30 2799 N 267.536 -0.106894 1.57237 0
M  V30 2800 C 268.813 -0.843526 1.76477 0
M  V30 2801 C 269.193 -1.97499 0.745464 0
M  V30 2802 O 268.541 -2.27357 -0.228306 0
M  V30 2803 C 268.751 -1.34903 3.21873 0
M  V30 2804 C 270.099 -1.79654 3.8472 0
M  V30 2805 O 271.123 -1.44554 3.2555 0
M  V30 2806 O 269.982 -2.44515 4.88748 0
M  V30 2807 H 267.076 -0.401468 0.723016 0
M  V30 2808 H 269.622 -0.0896927 1.69463 0
M  V30 2809 H 268.394 -0.53781 3.87586 0
M  V30 2810 H 268.017 -2.16522 3.33473 0
M  V30 2811 N 269.014 -1.53014 -0.377408 0
M  V30 2812 C 269.924 -1.81557 -1.48574 0
M  V30 2813 C 270.94 -0.703102 -1.59162 0
M  V30 2814 O 272.116 -0.99192 -1.75279 0
M  V30 2815 C 269.181 -1.9889 -2.83978 0
M  V30 2816 C 268.242 -3.22801 -2.83016 0
M  V30 2817 C 267.475 -3.39298 -4.11962 0
M  V30 2818 O 267.698 -2.60345 -5.0752 0
M  V30 2819 O 266.632 -4.32604 -4.18494 0
M  V30 2820 H 270.458 -2.75695 -1.27382 0
M  V30 2821 H 268.043 -1.38248 -0.566373 0
M  V30 2822 H 269.925 -2.11931 -3.6423 0
M  V30 2823 H 268.6 -1.07942 -3.05172 0
M  V30 2824 H 267.507 -3.15193 -2.01505 0
M  V30 2825 H 268.84 -4.13632 -2.66775 0
M  V30 2826 N 270.492 0.636531 -1.44174 0
M  V30 2827 C 271.738 1.39826 -1.4689 0
M  V30 2828 C 272.071 1.93947 -0.0990585 0
M  V30 2829 O 271.346 1.73325 0.882544 0
M  V30 2830 C 271.629 2.56751 -2.5249 0
M  V30 2831 C 271.482 2.08014 -3.98811 0
M  V30 2832 C 272.801 3.58946 -2.54649 0
M  V30 2833 H 269.92 0.507075 -0.53483 0
M  V30 2834 H 272.562 0.720188 -1.75822 0
M  V30 2835 H 270.712 3.14597 -2.2795 0
M  V30 2836 H 272.384 1.5504 -4.34466 0
M  V30 2837 H 270.627 1.39242 -4.10846 0
M  V30 2838 H 271.298 2.92169 -4.68339 0
M  V30 2839 H 273.774 3.1089 -2.76563 0
M  V30 2840 H 272.65 4.38286 -3.3045 0
M  V30 2841 H 272.911 4.12655 -1.58646 0
M  V30 2842 N 271.97 1.30982 0.876444 0
M  V30 2843 C 273.198 1.23242 1.6619 0
M  V30 2844 C 273.613 -0.203345 1.87702 0
M  V30 2845 O 272.97 -1.13317 1.43057 0
M  V30 2846 C 273.021 1.96623 3.03351 0
M  V30 2847 O 272.742 3.34594 2.82804 0
M  V30 2848 C 274.243 1.95644 3.97792 0
M  V30 2849 H 271.463 0.426126 0.518322 0
M  V30 2850 H 274.007 1.7275 1.09442 0
M  V30 2851 H 272.162 1.50892 3.56806 0
M  V30 2852 H 272.576 3.71873 3.69879 0
M  V30 2853 H 274.05 2.51511 4.91372 0
M  V30 2854 H 274.527 0.937395 4.2908 0
M  V30 2855 H 275.133 2.41225 3.50272 0
M  V30 2856 N 273.449 -1.08991 1.13837 0
M  V30 2857 C 274.379 -2.17771 0.842507 0
M  V30 2858 C 275.36 -1.6892 -0.20001 0
M  V30 2859 O 276.545 -1.94113 -0.0579731 0
M  V30 2860 C 273.675 -3.4589 0.312644 0
M  V30 2861 C 272.629 -4.08099 1.28992 0
M  V30 2862 C 271.955 -5.31098 0.619623 0
M  V30 2863 C 273.255 -4.50077 2.65005 0
M  V30 2864 H 274.949 -2.42777 1.75213 0
M  V30 2865 H 272.495 -1.16682 0.843875 0
M  V30 2866 H 274.448 -4.21297 0.0933043 0
M  V30 2867 H 273.172 -3.20419 -0.632382 0
M  V30 2868 H 271.831 -3.34717 1.49533 0
M  V30 2869 H 271.479 -5.0191 -0.33102 0
M  V30 2870 H 271.179 -5.73674 1.27167 0
M  V30 2871 H 272.703 -6.09224 0.409669 0
M  V30 2872 H 274.117 -5.16688 2.48407 0
M  V30 2873 H 272.514 -5.03553 3.26427 0
M  V30 2874 H 273.584 -3.62257 3.22332 0
M  V30 2875 N 274.927 -0.932562 -1.27047 0
M  V30 2876 C 276.175 -0.574422 -1.93765 0
M  V30 2877 C 276.496 0.887993 -1.73608 0
M  V30 2878 O 275.766 1.62999 -1.08665 0
M  V30 2879 H 274.346 -0.209451 -0.717035 0
M  V30 2880 H 277.008 -1.18601 -1.5466 0
M  V30 2881 H 276.104 -0.784841 -3.02071 0
M  V30 2882 N 276.405 1.4127 -0.698611 0
M  V30 2883 C 277.821 1.55241 -0.370462 0
M  V30 2884 C 278.021 1.67351 1.12231 0
M  V30 2885 O 277.077 1.65363 1.90818 0
M  V30 2886 C 278.39 2.78997 -1.12165 0
M  V30 2887 C 279.938 2.92797 -1.1063 0
M  V30 2888 C 280.413 4.19445 -1.8393 0
M  V30 2889 N 281.904 4.26409 -1.80914 0
M  V30 2890 C 282.639 5.23271 -2.34467 0
M  V30 2891 N 282.135 6.26145 -2.96504 0
M  V30 2892 N 283.928 5.15232 -2.24706 0
M  V30 2893 H 276.079 1.31654 -1.66676 0
M  V30 2894 H 278.342 0.635393 -0.703548 0
M  V30 2895 H 278.048 2.76268 -2.17644 0
M  V30 2896 H 277.922 3.70606 -0.702209 0
M  V30 2897 H 280.309 2.95039 -0.0597713 0
M  V30 2898 H 280.39 2.02353 -1.56483 0
M  V30 2899 H 280.034 4.17964 -2.88563 0
M  V30 2900 H 279.964 5.08866 -1.35509 0
M  V30 2901 H 282.455 3.527 -1.35687 0
M  V30 2902 H 282.768 6.96451 -3.34927 0
M  V30 2903 H 281.113 6.26638 -3.00583 0
M  V30 2904 H 284.304 4.33789 -1.7591 0
M  V30 2905 H 284.477 5.90552 -2.66745 0
M  V30 2906 N 277.883 0.443576 1.51229 0
M  V30 2907 C 278.846 -0.353132 2.26463 0
M  V30 2908 C 279.846 -0.944338 1.3015 0
M  V30 2909 O 281.036 -0.817813 1.5381 0
M  V30 2910 C 278.168 -1.50023 3.06114 0
M  V30 2911 H 279.361 0.3063 2.98332 0
M  V30 2912 H 276.914 0.196902 1.55055 0
M  V30 2913 H 277.649 -2.19553 2.38677 0
M  V30 2914 H 277.434 -1.08241 3.76864 0
M  V30 2915 H 278.924 -2.06296 3.63087 0
M  V30 2916 N 279.361 -1.56624 0.175154 0
M  V30 2917 C 280.291 -2.21155 -0.749195 0
M  V30 2918 C 281.272 -1.16836 -1.23626 0
M  V30 2919 O 282.457 -1.45277 -1.28873 0
M  V30 2920 C 279.587 -2.8553 -1.97711 0
M  V30 2921 C 278.541 -3.95921 -1.62575 0
M  V30 2922 C 277.867 -4.47365 -2.92864 0
M  V30 2923 C 279.167 -5.15323 -0.850838 0
M  V30 2924 H 280.861 -2.98653 -0.211295 0
M  V30 2925 H 278.407 -1.43651 -0.100188 0
M  V30 2926 H 280.36 -3.2935 -2.62881 0
M  V30 2927 H 279.084 -2.05406 -2.53921 0
M  V30 2928 H 277.743 -3.52762 -0.997719 0
M  V30 2929 H 277.391 -3.64027 -3.47122 0
M  V30 2930 H 277.091 -5.21839 -2.70106 0
M  V30 2931 H 278.615 -4.93873 -3.59056 0
M  V30 2932 H 280.029 -5.55812 -1.40521 0
M  V30 2933 H 278.426 -5.95739 -0.722154 0
M  V30 2934 H 279.496 -4.84661 0.152082 0
M  V30 2935 N 280.839 0.0985539 -1.57292 0
M  V30 2936 C 282.067 0.816318 -1.90115 0
M  V30 2937 C 282.482 1.72451 -0.768509 0
M  V30 2938 O 281.839 1.80643 0.259687 0
M  V30 2939 C 281.89 1.63259 -3.22535 0
M  V30 2940 O 281.611 0.760934 -4.31441 0
M  V30 2941 C 283.112 2.45372 -3.69199 0
M  V30 2942 H 280.332 0.233595 -0.629027 0
M  V30 2943 H 282.876 0.0768229 -2.04356 0
M  V30 2944 H 281.031 2.32463 -3.09903 0
M  V30 2945 H 281.445 1.32595 -5.07463 0
M  V30 2946 H 282.919 2.98144 -4.64558 0
M  V30 2947 H 283.396 3.23677 -2.96867 0
M  V30 2948 H 284.002 1.81373 -3.84687 0
M  V30 2949 N 282.317 1.53212 0.369288 0
M  V30 2950 C 283.565 1.68881 1.11012 0
M  V30 2951 C 283.886 0.441285 1.89941 0
M  V30 2952 O 283.156 -0.544623 1.88177 0
M  V30 2953 H 281.736 0.622569 0.412816 0
M  V30 2954 H 284.398 1.90391 0.416802 0
M  V30 2955 H 283.494 2.54822 1.80201 0
M  V30 2956 N 283.795 -0.628877 1.44509 0
M  V30 2957 C 285.211 -0.947305 1.28446 0
M  V30 2958 C 285.411 -2.00275 0.221872 0
M  V30 2959 O 284.467 -2.49447 -0.391471 0
M  V30 2960 C 285.78 -1.40843 2.65676 0
M  V30 2961 C 287.328 -1.52379 2.73404 0
M  V30 2962 C 287.803 -2.01875 4.11109 0
M  V30 2963 N 289.294 -2.09142 4.13296 0
M  V30 2964 C 290.029 -2.48615 5.16699 0
M  V30 2965 N 289.525 -2.87209 6.30462 0
M  V30 2966 N 291.318 -2.48768 5.04054 0
M  V30 2967 H 283.469 0.0690977 2.12288 0
M  V30 2968 H 285.732 -0.0317164 0.947469 0
M  V30 2969 H 285.438 -0.707206 3.44516 0
M  V30 2970 H 285.312 -2.37902 2.92716 0
M  V30 2971 H 287.699 -2.21598 1.9488 0
M  V30 2972 H 287.78 -0.536898 2.50102 0
M  V30 2973 H 287.424 -1.3325 4.90109 0
M  V30 2974 H 287.354 -3.0144 4.31789 0
M  V30 2975 H 289.845 -1.81991 3.31191 0
M  V30 2976 H 290.158 -3.16149 7.05174 0
M  V30 2977 H 288.503 -2.84955 6.33897 0
M  V30 2978 H 291.694 -2.18009 4.14234 0
M  V30 2979 H 291.867 -2.79207 5.84763 0
M  V30 2980 N 285.273 -1.31445 -0.869486 0
M  V30 2981 C 286.205 -1.14955 -1.98287 0
M  V30 2982 C 287.218 -0.0885037 -1.62559 0
M  V30 2983 O 288.407 -0.336044 -1.75308 0
M  V30 2984 C 285.507 -0.734255 -3.3085 0
M  V30 2985 C 284.68 -1.88042 -3.94917 0
M  V30 2986 C 283.739 -1.4511 -5.05796 0
M  V30 2987 O 282.765 -2.16082 -5.2659 0
M  V30 2988 N 283.967 -0.338763 -5.79511 0
M  V30 2989 H 286.732 -2.10856 -2.12979 0
M  V30 2990 H 284.293 -1.23786 -1.04349 0
M  V30 2991 H 286.285 -0.42975 -4.02412 0
M  V30 2992 H 284.855 0.133158 -3.12316 0
M  V30 2993 H 284.075 -2.35222 -3.1633 0
M  V30 2994 H 285.363 -2.6481 -4.34457 0
M  V30 2995 H 284.761 0.252274 -5.65137 0
M  V30 2996 H 283.318 -0.0937925 -6.51733 0
M  V30 2997 N 286.751 1.08385 -1.14413 0
M  V30 2998 C 287.979 1.84517 -0.936001 0
M  V30 2999 C 288.394 1.81626 0.515503 0
M  V30 3000 O 287.751 1.22008 1.35721 0
M  V30 3001 C 287.802 3.32049 -1.42918 0
M  V30 3002 O 287.523 3.34951 -2.82381 0
M  V30 3003 C 289.024 4.24986 -1.26103 0
M  V30 3004 H 286.244 0.582491 -0.333084 0
M  V30 3005 H 288.788 1.36885 -1.5193 0
M  V30 3006 H 286.943 3.7707 -0.888641 0
M  V30 3007 H 287.357 4.27048 -3.04517 0
M  V30 3008 H 288.831 5.26615 -1.6547 0
M  V30 3009 H 289.308 4.38726 -0.20392 0
M  V30 3010 H 289.914 3.85791 -1.79012 0
M  V30 3011 N 288.23 0.939286 1.26551 0
M  V30 3012 C 289.476 0.586715 1.94128 0
M  V30 3013 C 289.809 -0.8717 1.73537 0
M  V30 3014 O 289.084 -1.62339 1.07127 0
M  V30 3015 C 289.367 0.927497 3.4795 0
M  V30 3016 C 289.22 2.44052 3.77834 0
M  V30 3017 C 290.539 0.441569 4.37879 0
M  V30 3018 H 287.658 0.21463 0.705055 0
M  V30 3019 H 290.3 1.17316 1.49455 0
M  V30 3020 H 288.45 0.428431 3.8613 0
M  V30 3021 H 290.122 3.01216 3.4938 0
M  V30 3022 H 288.365 2.8848 3.23978 0
M  V30 3023 H 289.036 2.62947 4.85348 0
M  V30 3024 H 291.512 0.869448 4.06915 0
M  V30 3025 H 290.388 0.708856 5.44304 0
M  V30 3026 H 290.649 -0.658467 4.37169 0
M  V30 3027 N 289.708 -1.40897 0.706093 0
M  V30 3028 C 290.933 -2.05895 0.249435 0
M  V30 3029 C 291.358 -1.52823 -1.09666 0
M  V30 3030 O 290.716 -0.659589 -1.68876 0
M  V30 3031 C 290.764 -3.59872 0.22904 0
M  V30 3032 O 289.868 -4.04708 -0.792784 0
M  V30 3033 H 289.209 -0.653206 0.119241 0
M  V30 3034 H 291.739 -1.80471 0.96391 0
M  V30 3035 H 291.749 -4.07951 0.0634791 0
M  V30 3036 H 290.424 -3.97866 1.21141 0
M  V30 3037 H 289.001 -3.68111 -0.59572 0
M  V30 3038 N 291.186 -0.45159 -1.50991 0
M  V30 3039 C 292.133 0.352625 -2.2809 0
M  V30 3040 C 293.103 1.0044 -1.32291 0
M  V30 3041 O 294.288 1.02058 -1.6121 0
M  V30 3042 C 291.428 1.43983 -3.13629 0
M  V30 3043 C 290.541 0.804772 -4.24438 0
M  V30 3044 C 289.676 1.86822 -4.97263 0
M  V30 3045 C 288.715 1.21236 -5.99973 0
M  V30 3046 N 287.852 2.2178 -6.66152 0
M  V30 3047 H 292.692 -0.311186 -2.96371 0
M  V30 3048 H 290.229 -0.165308 -1.46168 0
M  V30 3049 H 292.187 2.08161 -3.61559 0
M  V30 3050 H 290.817 2.07307 -2.47434 0
M  V30 3051 H 289.869 0.0509129 -3.80366 0
M  V30 3052 H 291.181 0.286076 -4.97979 0
M  V30 3053 H 290.335 2.58628 -5.48813 0
M  V30 3054 H 289.074 2.42068 -4.23385 0
M  V30 3055 H 288.079 0.479828 -5.47702 0
M  V30 3056 H 289.304 0.667051 -6.75816 0
M  V30 3057 H 287.25 2.76079 -5.95077 0
M  V30 3058 H 287.167 1.74841 -7.35504 0
M  V30 3059 H 288.435 2.93026 -7.22327 0
M  V30 3060 N 292.664 1.56529 -0.183458 0
M  V30 3061 C 294.075 1.83739 0.331177 0
M  V30 3062 C 294.426 1.10373 1.62211 0
M  V30 3063 O 293.551 0.36071 2.13373 0
M  V30 3064 C 294.146 3.33306 0.607646 0
M  V30 3065 C 292.705 3.60969 1.06668 0
M  V30 3066 C 291.852 2.77086 0.109029 0
M  V30 3067 H 294.803 1.53379 -0.407484 0
M  V30 3068 H 294.824 3.51444 1.45832 0
M  V30 3069 H 294.336 3.86677 -0.332086 0
M  V30 3070 H 292.437 3.13021 2.0211 0
M  V30 3071 H 292.55 4.69231 0.967447 0
M  V30 3072 H 290.914 2.47319 0.608714 0
M  V30 3073 H 291.697 3.33241 -0.82494 0
M  V30 3074 N 294.142 -0.090211 1.57342 0
M  V30 3075 C 295.074 -1.13541 1.99101 0
M  V30 3076 C 296.087 -1.3604 0.894258 0
M  V30 3077 O 297.276 -1.34606 1.17233 0
M  V30 3078 C 294.376 -2.49001 2.29895 0
M  V30 3079 C 293.549 -2.46712 3.61182 0
M  V30 3080 C 292.608 -3.64136 3.79857 0
M  V30 3081 O 291.634 -3.46405 4.51655 0
M  V30 3082 N 292.836 -4.83802 3.20806 0
M  V30 3083 H 295.601 -0.779942 2.89373 0
M  V30 3084 H 293.162 -0.279125 1.59476 0
M  V30 3085 H 295.154 -3.26166 2.39578 0
M  V30 3086 H 293.724 -2.76619 1.45605 0
M  V30 3087 H 292.944 -1.55058 3.62423 0
M  V30 3088 H 294.232 -2.42265 4.4742 0
M  V30 3089 H 293.63 -5.01112 2.62494 0
M  V30 3090 H 292.187 -5.58543 3.35966 0
M  V30 3091 N 295.62 -1.53406 -0.361157 0
M  V30 3092 C 297.031 -1.61442 -0.937728 0
M  V30 3093 C 297.382 -0.48461 -1.90121 0
M  V30 3094 O 296.507 0.388312 -2.12888 0
M  V30 3095 C 297.102 -2.92624 -1.70753 0
M  V30 3096 C 295.661 -3.02981 -2.23337 0
M  V30 3097 C 294.808 -2.5677 -1.04712 0
M  V30 3098 H 297.759 -1.58083 -0.139816 0
M  V30 3099 H 297.78 -2.80675 -2.56908 0
M  V30 3100 H 297.292 -3.74834 -1.00604 0
M  V30 3101 H 295.393 -2.25368 -2.96715 0
M  V30 3102 H 295.506 -4.0814 -2.50916 0
M  V30 3103 H 293.87 -2.11752 -1.41539 0
M  V30 3104 H 294.653 -3.41402 -0.360539 0
M  V30 3105 N 297.098 0.621204 -1.44841 0
M  V30 3106 C 298.509 1.20298 -1.42777 0
M  V30 3107 C 298.86 1.95639 -0.148259 0
M  V30 3108 O 297.985 2.02955 0.750892 0
M  V30 3109 C 298.58 2.1882 -2.58657 0
M  V30 3110 C 297.139 2.72403 -2.59756 0
M  V30 3111 C 296.286 1.4757 -2.34773 0
M  V30 3112 H 299.237 0.411297 -1.53278 0
M  V30 3113 H 299.258 3.01607 -2.31977 0
M  V30 3114 H 298.77 1.63957 -3.51766 0
M  V30 3115 H 296.871 3.31242 -1.70615 0
M  V30 3116 H 296.984 3.17765 -3.58556 0
M  V30 3117 H 295.348 1.76051 -1.8406 0
M  V30 3118 H 296.131 0.945954 -3.3001 0
M  V30 3119 N 298.576 1.31904 0.862503 0
M  V30 3120 C 299.508 1.16005 1.97675 0
M  V30 3121 C 300.521 0.0971234 1.6251 0
M  V30 3122 O 301.71 0.345337 1.75128 0
M  V30 3123 C 298.81 0.751791 3.30456 0
M  V30 3124 C 297.983 1.90133 3.93914 0
M  V30 3125 C 297.042 1.4779 5.05019 0
M  V30 3126 O 296.068 2.18872 5.25437 0
M  V30 3127 N 297.27 0.369491 5.79323 0
M  V30 3128 H 300.035 2.11982 2.11857 0
M  V30 3129 H 297.596 1.24337 1.03691 0
M  V30 3130 H 299.588 0.451084 4.02178 0
M  V30 3131 H 298.158 -0.116593 3.12382 0
M  V30 3132 H 297.378 2.36896 3.15078 0
M  V30 3133 H 298.666 2.67111 4.33047 0
M  V30 3134 H 298.064 -0.222299 5.65263 0
M  V30 3135 H 296.621 0.128354 6.51674 0
M  V30 3136 N 300.054 -1.07777 1.14986 0
M  V30 3137 C 301.47 -1.32373 0.891596 0
M  V30 3138 C 301.67 -1.9609 -0.463788 0
M  V30 3139 O 300.726 -2.21801 -1.20667 0
M  V30 3140 C 302.039 -2.21905 2.02925 0
M  V30 3141 C 303.587 -2.35367 2.06329 0
M  V30 3142 C 304.062 -3.28245 3.19405 0
M  V30 3143 N 305.553 -3.35824 3.19024 0
M  V30 3144 C 306.288 -4.07739 4.03158 0
M  V30 3145 N 305.784 -4.82306 4.97346 0
M  V30 3146 N 307.577 -4.03635 3.91197 0
M  V30 3147 H 299.728 -0.648039 2.02273 0
M  V30 3148 H 301.991 -0.348149 0.881757 0
M  V30 3149 H 301.697 -1.82342 3.0074 0
M  V30 3150 H 301.571 -3.22407 1.95789 0
M  V30 3151 H 303.958 -2.74186 1.09116 0
M  V30 3152 H 304.039 -1.34585 2.17533 0
M  V30 3153 H 303.683 -2.90146 4.16867 0
M  V30 3154 H 303.613 -4.28971 3.05437 0
M  V30 3155 H 306.104 -2.8267 2.50811 0
M  V30 3156 H 306.417 -5.34661 5.57994 0
M  V30 3157 H 304.762 -4.81337 5.01338 0
M  V30 3158 H 307.953 -3.44491 3.16928 0
M  V30 3159 H 308.126 -4.59417 4.5699 0
M  V30 3160 N 301.532 -0.945985 -1.26051 0
M  V30 3161 C 302.943 -0.638096 -1.75457 0
M  V30 3162 C 303.294 0.846672 -1.76991 0
M  V30 3163 O 302.419 1.66262 -1.38513 0
M  V30 3164 C 303.014 -1.15157 -3.18629 0
M  V30 3165 C 301.573 -0.894004 -3.65629 0
M  V30 3166 C 300.72 -1.29967 -2.44957 0
M  V30 3167 H 303.671 -1.12376 -1.1206 0
M  V30 3168 H 303.692 -0.507615 -3.77099 0
M  V30 3169 H 303.204 -2.23222 -3.1748 0
M  V30 3170 H 301.305 0.172057 -3.72203 0
M  V30 3171 H 301.418 -1.52439 -4.54202 0
M  V30 3172 H 299.782 -0.718078 -2.44368 0
M  V30 3173 H 300.565 -2.38935 -2.46505 0
M  V30 3174 N 303.011 1.40521 -0.713556 0
M  V30 3175 C 304.259 2.00527 -0.251692 0
M  V30 3176 C 304.58 1.56857 1.15848 0
M  V30 3177 O 303.85 0.807127 1.785 0
M  V30 3178 H 302.43 0.741551 -0.0900646 0
M  V30 3179 H 305.092 1.71887 -0.918733 0
M  V30 3180 H 304.188 3.10813 -0.283192 0
M  V30 3181 N 304.489 0.459591 1.5075 0
M  V30 3182 C 305.766 -0.160371 1.94941 0
M  V30 3183 C 306.146 -1.58048 1.39943 0
M  V30 3184 O 305.494 -2.206 0.595629 0
M  V30 3185 C 305.704 -0.115432 3.48809 0
M  V30 3186 C 307.052 -0.310026 4.23467 0
M  V30 3187 O 308.076 -0.192543 3.55679 0
M  V30 3188 O 306.935 -0.546031 5.43765 0
M  V30 3189 H 304.029 -0.117925 0.818549 0
M  V30 3190 H 306.575 0.519169 1.61563 0
M  V30 3191 H 305.347 0.87652 3.81357 0
M  V30 3192 H 304.97 -0.836928 3.88692 0
M  V30 3193 N 305.967 -1.56429 0.191757 0
M  V30 3194 C 306.877 -2.22541 -0.742481 0
M  V30 3195 C 307.893 -1.22342 -1.23727 0
M  V30 3196 O 309.069 -1.55069 -1.28513 0
M  V30 3197 C 306.134 -2.8692 -1.94623 0
M  V30 3198 C 305.195 -4.02378 -1.49633 0
M  V30 3199 C 304.428 -4.63678 -2.6427 0
M  V30 3200 O 304.651 -4.23895 -3.81666 0
M  V30 3201 O 303.585 -5.53202 -2.37174 0
M  V30 3202 H 307.411 -3.02977 -0.209462 0
M  V30 3203 H 304.996 -1.49353 -0.0373832 0
M  V30 3204 H 306.878 -3.27663 -2.64982 0
M  V30 3205 H 305.553 -2.09466 -2.46791 0
M  V30 3206 H 304.46 -3.66265 -0.761636 0
M  V30 3207 H 305.793 -4.81487 -1.02134 0
M  V30 3208 N 307.445 0.0818655 -1.57387 0
M  V30 3209 C 308.722 0.815343 -1.77796 0
M  V30 3210 C 309.102 1.96289 -0.77679 0
M  V30 3211 O 308.45 2.27691 0.192106 0
M  V30 3212 C 308.66 1.29765 -3.23978 0
M  V30 3213 C 310.008 1.7351 -3.8753 0
M  V30 3214 O 311.032 1.39356 -3.27808 0
M  V30 3215 O 309.891 2.36708 -4.92576 0
M  V30 3216 H 306.985 0.389914 -0.729312 0
M  V30 3217 H 309.531 0.0627213 -1.69584 0
M  V30 3218 H 308.303 0.47608 -3.88393 0
M  V30 3219 H 307.926 2.11189 -3.36875 0
M  V30 3220 N 308.923 1.53595 0.353017 0
M  V30 3221 C 310.171 1.70049 1.09215 0
M  V30 3222 C 310.492 0.461406 1.89463 0
M  V30 3223 O 309.762 -0.524633 1.88744 0
M  V30 3224 H 308.342 0.626912 0.40619 0
M  V30 3225 H 311.004 1.90822 0.396585 0
M  V30 3226 H 310.1 2.56718 1.77488 0
M  V30 3227 N 310.401 -0.613514 1.45168 0
M  V30 3228 C 311.364 -1.7065 1.53007 0
M  V30 3229 C 312.364 -1.5548 0.410184 0
M  V30 3230 O 313.554 -1.60656 0.673455 0
M  V30 3231 C 310.686 -3.09875 1.42093 0
M  V30 3232 H 311.879 -1.65068 2.50385 0
M  V30 3233 H 309.432 -0.828728 1.32521 0
M  V30 3234 H 310.167 -3.21039 0.458769 0
M  V30 3235 H 309.952 -3.22293 2.23315 0
M  V30 3236 H 311.442 -3.895 1.50598 0
M  V30 3237 N 311.879 -1.3236 -0.855495 0
M  V30 3238 C 313.156 -1.13491 -1.59309 0
M  V30 3239 C 313.536 0.30503 -2.08885 0
M  V30 3240 O 312.884 1.30151 -1.87811 0
M  V30 3241 C 313.094 -2.16176 -2.73987 0
M  V30 3242 C 314.442 -2.49463 -3.43589 0
M  V30 3243 O 315.466 -2.14715 -2.84211 0
M  V30 3244 O 314.325 -3.09027 -4.50738 0
M  V30 3245 H 311.419 -0.437887 -0.701559 0
M  V30 3246 H 313.965 -1.43887 -0.899696 0
M  V30 3247 H 312.737 -3.1297 -2.34873 0
M  V30 3248 H 312.36 -1.86769 -3.51003 0
M  V30 3249 N 313.357 1.07166 -1.15556 0
M  V30 3250 C 314.605 1.79443 -0.929764 0
M  V30 3251 C 314.926 1.87246 0.544414 0
M  V30 3252 O 314.196 1.37473 1.39564 0
M  V30 3253 H 312.776 0.664625 -0.341003 0
M  V30 3254 H 315.438 1.29499 -1.45657 0
M  V30 3255 H 314.534 2.81832 -1.34079 0
M  V30 3256 N 314.835 0.952656 1.25548 0
M  V30 3257 C 315.798 0.475794 2.24207 0
M  V30 3258 C 316.798 -0.419428 1.55234 0
M  V30 3259 O 317.988 -0.216994 1.72843 0
M  V30 3260 C 315.12 -0.312814 3.39462 0
M  V30 3261 H 316.313 1.34779 2.67908 0
M  V30 3262 H 313.866 0.735739 1.37901 0
M  V30 3263 H 314.601 -1.20257 3.01179 0
M  V30 3264 H 314.386 0.329404 3.90714 0
M  V30 3265 H 315.876 -0.635986 4.12729 0
M  V30 3266 N 316.313 -1.40141 0.720998 0
M  V30 3267 C 317.276 -2.29058 0.0805834 0
M  V30 3268 C 318.276 -1.45632 -0.681758 0
M  V30 3269 O 319.466 -1.6648 -0.512856 0
M  V30 3270 C 316.598 -3.28925 -0.895593 0
M  V30 3271 H 317.791 -2.87191 0.863793 0
M  V30 3272 H 315.344 -1.48553 0.485975 0
M  V30 3273 H 316.079 -2.75822 -1.70566 0
M  V30 3274 H 315.864 -3.90519 -0.351766 0
M  V30 3275 H 317.354 -3.95494 -1.34069 0
M  V30 3276 N 317.792 -0.46758 -1.50504 0
M  V30 3277 C 319.038 0.0887532 -2.02606 0
M  V30 3278 C 319.371 1.39686 -1.34913 0
M  V30 3279 O 318.646 1.88644 -0.473694 0
M  V30 3280 C 318.929 0.276206 -3.59039 0
M  V30 3281 C 318.782 -1.05267 -4.37309 0
M  V30 3282 C 320.101 1.03235 -4.27821 0
M  V30 3283 H 317.22 0.0307814 -0.736357 0
M  V30 3284 H 319.862 -0.612485 -1.79857 0
M  V30 3285 H 318.012 0.8735 -3.78553 0
M  V30 3286 H 319.684 -1.68628 -4.29374 0
M  V30 3287 H 317.927 -1.65015 -4.01189 0
M  V30 3288 H 318.598 -0.875197 -5.45018 0
M  V30 3289 H 321.074 0.526111 -4.12761 0
M  V30 3290 H 319.95 1.1323 -5.37094 0
M  V30 3291 H 320.211 2.06806 -3.90748 0
M  V30 3292 N 319.27 1.56325 -0.20005 0
M  V30 3293 C 320.681 1.8408 0.31167 0
M  V30 3294 C 321.032 1.12087 1.61031 0
M  V30 3295 O 320.157 0.38332 2.12978 0
M  V30 3296 C 320.752 3.33932 0.57226 0
M  V30 3297 C 319.311 3.6208 1.02834 0
M  V30 3298 C 318.458 2.77186 0.079634 0
M  V30 3299 H 321.409 1.52939 -0.423729 0
M  V30 3300 H 321.43 3.52971 1.42096 0
M  V30 3301 H 320.942 3.86303 -0.37308 0
M  V30 3302 H 319.043 3.15147 1.98778 0
M  V30 3303 H 319.156 4.7023 0.917624 0
M  V30 3304 H 317.52 2.47951 0.582448 0
M  V30 3305 H 318.303 3.32347 -0.860238 0
M  V30 3306 N 320.748 -0.0735177 1.57428 0
M  V30 3307 C 321.711 -1.07192 2.02589 0
M  V30 3308 C 322.711 -1.31695 0.922661 0
M  V30 3309 O 323.901 -1.27445 1.18758 0
M  V30 3310 C 321.033 -2.41599 2.40506 0
M  V30 3311 H 322.226 -0.682727 2.92025 0
M  V30 3312 H 319.779 -0.319193 1.53006 0
M  V30 3313 H 320.514 -2.85354 1.5409 0
M  V30 3314 H 320.299 -2.25156 3.21009 0
M  V30 3315 H 321.789 -3.13367 2.76027 0
M  V30 3316 N 322.226 -1.5378 -0.344866 0
M  V30 3317 C 323.451 -1.75211 -1.10977 0
M  V30 3318 C 323.876 -0.48936 -1.81623 0
M  V30 3319 O 323.234 0.557925 -1.72502 0
M  V30 3320 C 323.282 -2.93147 -2.09993 0
M  V30 3321 O 322.386 -2.63203 -3.17487 0
M  V30 3322 H 321.727 -0.581241 -0.321021 0
M  V30 3323 H 324.257 -2.00738 -0.395661 0
M  V30 3324 H 324.267 -3.19898 -2.53237 0
M  V30 3325 H 322.942 -3.84731 -1.5797 0
M  V30 3326 H 321.519 -2.47336 -2.79069 0
M  V30 3327 N 323.704 0.605807 -1.45491 0
M  V30 3328 C 325.12 0.926751 -1.29936 0
M  V30 3329 C 325.32 1.99896 -0.253706 0
M  V30 3330 O 324.376 2.50038 0.351737 0
M  V30 3331 C 325.689 1.36599 -2.67883 0
M  V30 3332 C 327.237 1.4801 -2.75793 0
M  V30 3333 C 327.712 1.95309 -4.14268 0
M  V30 3334 N 329.203 2.0254 -4.16571 0
M  V30 3335 C 329.938 2.40363 -5.20589 0
M  V30 3336 N 329.434 2.77143 -6.34952 0
M  V30 3337 N 331.227 2.40718 -5.07948 0
M  V30 3338 H 323.378 -0.102862 -2.12151 0
M  V30 3339 H 325.641 0.016639 -0.947854 0
M  V30 3340 H 325.347 0.652306 -3.45598 0
M  V30 3341 H 325.221 2.33215 -2.96463 0
M  V30 3342 H 327.608 2.1847 -1.98381 0
M  V30 3343 H 327.689 0.497041 -2.50925 0
M  V30 3344 H 327.333 1.25436 -4.92167 0
M  V30 3345 H 327.263 2.94532 -4.3653 0
M  V30 3346 H 329.754 1.76699 -3.34045 0
M  V30 3347 H 330.067 3.0489 -7.10114 0
M  V30 3348 H 328.412 2.74834 -6.3835 0
M  V30 3349 H 331.603 2.11392 -4.1765 0
M  V30 3350 H 331.776 2.69869 -5.89131 0
M  V30 3351 O 325.221 1.43044 0.749719 0
M  V30 3352 H 325.912 1.3401 1.3986 0
M  V30 END ATOM
M  V30 BEGIN BOND
M  V30 END BOND
M  V30 END CTAB
M  END
$$$$
