drugbank_target|T1RTG8 Serine repeat antigen 5 (DB11638)
 OpenBabel12092121103D

  0  0  0     0  0            999 V3000
M  V30 BEGIN CTAB
M  V30 COUNTS 5427 5481 0 0 0
M  V30 BEGIN ATOM
M  V30 1 H -0.908 1.98254 -0.117106 0
M  V30 2 N 0 1.576 0 0
M  V30 3 C 1.228 1.94848 0.695833 0
M  V30 4 C 1.643 0.874846 1.67308 0
M  V30 5 O 1 -0.146215 1.81913 0
M  V30 6 C 1.051 3.32113 1.4277 0
M  V30 7 O 0.772 4.35355 0.489647 0
M  V30 8 C 2.273 3.8382 2.21804 0
M  V30 9 H -0.507 0.642403 0.193802 0
M  V30 10 H 2.037 2.04436 -0.0511197 0
M  V30 11 H 0.192 3.23833 2.12628 0
M  V30 12 H 0.606 5.14762 1.00601 0
M  V30 13 H 2.08 4.82293 2.6851 0
M  V30 14 H 2.557 3.16527 3.04479 0
M  V30 15 H 3.163 3.95276 1.56962 0
M  V30 16 N 1.4781 -0.272755 1.55222 0
M  V30 17 C 2.3881 -1.35918 1.91216 0
M  V30 18 C 3.4041 -1.54026 0.809436 0
M  V30 19 O 4.5801 -1.68148 1.10852 0
M  V30 20 C 1.6451 -2.69834 2.17693 0
M  V30 21 C 0.7061 -2.6047 3.41253 0
M  V30 22 C -0.0609 -3.88 3.66458 0
M  V30 23 O 0.1621 -4.88693 2.94169 0
M  V30 24 O -0.9039 -3.88189 4.59992 0
M  V30 25 H 2.9221 -1.0839 2.83699 0
M  V30 26 H 0.5071 -0.471301 1.41771 0
M  V30 27 H 2.3891 -3.49017 2.36147 0
M  V30 28 H 1.0641 -2.97148 1.28392 0
M  V30 29 H -0.0289 -1.79663 3.28134 0
M  V30 30 H 1.3041 -2.38106 4.30774 0
M  V30 31 N 2.9562 -1.48159 -0.537278 0
M  V30 32 C 4.2332 -1.46291 -1.29839 0
M  V30 33 C 4.6132 -0.170613 -2.10409 0
M  V30 34 O 3.9612 0.847746 -2.12192 0
M  V30 35 C 4.1712 -2.72055 -2.18603 0
M  V30 36 C 5.5192 -3.20087 -2.7898 0
M  V30 37 O 6.5432 -2.72921 -2.28894 0
M  V30 38 O 5.4022 -4.02138 -3.70064 0
M  V30 39 H 2.4962 -0.583906 -0.585647 0
M  V30 40 H 5.0422 -1.60384 -0.554534 0
M  V30 41 H 3.8142 -3.57628 -1.58801 0
M  V30 42 H 3.4372 -2.60646 -3.00249 0
M  V30 43 N 4.4343 0.785586 -1.36625 0
M  V30 44 C 5.7113 1.53198 -1.21613 0
M  V30 45 C 6.0913 2.10187 0.196113 0
M  V30 46 O 5.4393 1.94318 1.20219 0
M  V30 47 C 5.6493 2.62388 -2.30116 0
M  V30 48 C 6.9973 3.30167 -2.66974 0
M  V30 49 O 8.0213 2.72674 -2.29188 0
M  V30 50 O 6.8803 4.34077 -3.32023 0
M  V30 51 H 3.9743 0.677865 -0.473738 0
M  V30 52 H 6.5203 0.823739 -1.48367 0
M  V30 53 H 5.2923 2.18299 -3.24748 0
M  V30 54 H 4.9153 3.40827 -2.0475 0
M  V30 55 N 5.9124 1.20967 1.01018 0
M  V30 56 C 7.1894 0.93264 1.71934 0
M  V30 57 C 7.5694 -0.55692 2.03621 0
M  V30 58 O 6.9174 -1.52035 1.7058 0
M  V30 59 C 7.1274 1.81233 2.98254 0
M  V30 60 C 8.4754 2.05804 3.71389 0
M  V30 61 O 9.4994 1.78539 3.08225 0
M  V30 62 O 8.3584 2.51888 4.84989 0
M  V30 63 H 5.4524 0.349272 0.749625 0
M  V30 64 H 7.9984 1.31871 1.06808 0
M  V30 65 H 6.7704 2.82067 2.71208 0
M  V30 66 H 6.3934 1.42674 3.7112 0
M  V30 67 N 7.3905 -1.2043 1.01659 0
M  V30 68 C 8.3005 -2.2689 0.596484 0
M  V30 69 C 9.3165 -1.70107 -0.36599 0
M  V30 70 O 10.4925 -2.00117 -0.226942 0
M  V30 71 C 7.5575 -3.4665 -0.0586659 0
M  V30 72 C 6.6185 -4.18662 0.949751 0
M  V30 73 C 5.8515 -5.32705 0.32577 0
M  V30 74 O 6.0745 -5.63656 -0.874509 0
M  V30 75 O 5.0085 -5.92803 1.04249 0
M  V30 76 H 8.8345 -2.65041 1.4828 0
M  V30 77 H 6.4195 -1.27048 0.786082 0
M  V30 78 H 8.3015 -4.19256 -0.424564 0
M  V30 79 H 6.9765 -3.10375 -0.91918 0
M  V30 80 H 5.8835 -3.48229 1.36702 0
M  V30 81 H 7.2165 -4.58878 1.78023 0
M  V30 82 N 8.8686 -0.792821 -1.36206 0
M  V30 83 C 10.1456 -0.290627 -1.93429 0
M  V30 84 C 10.5256 1.21773 -1.72437 0
M  V30 85 O 9.8736 2.0108 -1.08531 0
M  V30 86 C 10.0836 -0.686973 -3.42172 0
M  V30 87 C 11.4316 -0.668643 -4.19302 0
M  V30 88 O 12.4556 -0.627658 -3.50626 0
M  V30 89 O 11.3146 -0.714597 -5.41808 0
M  V30 90 H 8.4086 -0.0727927 -0.82379 0
M  V30 91 H 10.9546 -0.875593 -1.45367 0
M  V30 92 H 9.7266 -1.72711 -3.51122 0
M  V30 93 H 9.3496 -0.0760733 -3.97527 0
M  V30 94 N 10.3467 1.47872 -0.545128 0
M  V30 95 C 11.6237 1.9554 0.0485222 0
M  V30 96 C 12.0037 1.4876 1.49779 0
M  V30 97 O 11.3517 0.720925 2.16829 0
M  V30 98 C 11.5617 3.48898 -0.084417 0
M  V30 99 C 12.9097 4.24547 0.0671239 0
M  V30 100 O 13.9337 3.56198 -0.0113649 0
M  V30 101 O 12.7927 5.45999 0.233882 0
M  V30 102 H 9.8867 0.823957 0.0708773 0
M  V30 103 H 12.4327 1.58327 -0.610798 0
M  V30 104 H 11.2047 3.75714 -1.09337 0
M  V30 105 H 10.8277 3.92845 0.613066 0
M  V30 106 N 11.8248 0.280983 1.55075 0
M  V30 107 C 13.0548 -0.336804 2.03836 0
M  V30 108 C 13.4628 -1.49577 1.15859 0
M  V30 109 O 12.8058 -1.82888 0.172503 0
M  V30 110 C 12.8678 -0.874616 3.48699 0
M  V30 111 C 12.5318 0.156478 4.56732 0
M  V30 112 C 13.5288 0.978032 5.10618 0
M  V30 113 C 11.2138 0.292409 5.01448 0
M  V30 114 C 13.2078 1.92165 6.07743 0
M  V30 115 C 10.8948 1.23949 5.98398 0
M  V30 116 C 11.8928 2.05261 6.51427 0
M  V30 117 O 11.5808 2.98367 7.4648 0
M  V30 118 H 11.3128 -0.0800885 0.671239 0
M  V30 119 H 13.8668 0.412589 2.01213 0
M  V30 120 H 12.0968 -1.67418 3.4858 0
M  V30 121 H 13.7858 -1.40612 3.80766 0
M  V30 122 H 14.5518 0.883782 4.7688 0
M  V30 123 H 10.4308 -0.330498 4.59814 0
M  V30 124 H 13.9748 2.55672 6.49059 0
M  V30 125 H 9.8718 1.33454 6.31554 0
M  V30 126 H 10.6398 2.93116 7.64215 0
M  V30 127 N 13.3029 -1.57598 0.00835791 0
M  V30 128 C 14.5309 -1.95214 -0.68549 0
M  V30 129 C 14.9459 -0.883706 -1.66841 0
M  V30 130 O 14.3029 0.136565 -1.81988 0
M  V30 131 C 14.3539 -3.32865 -1.41007 0
M  V30 132 O 14.0749 -4.35609 -0.466552 0
M  V30 133 C 15.5759 -3.84991 -2.19765 0
M  V30 134 H 12.7959 -0.643422 -0.190392 0
M  V30 135 H 15.3399 -2.04406 0.0619607 0
M  V30 136 H 13.4949 -3.24956 -2.10908 0
M  V30 137 H 13.9089 -5.15288 -0.978699 0
M  V30 138 H 15.3829 -4.8371 -2.65948 0
M  V30 139 H 15.8599 -3.18137 -3.02796 0
M  V30 140 H 16.4659 -3.96103 -1.54864 0
M  V30 141 N 14.781 0.264519 -1.55364 0
M  V30 142 C 15.691 1.34902 -1.91934 0
M  V30 143 C 16.707 1.53595 -0.817593 0
M  V30 144 O 17.883 1.67558 -1.11742 0
M  V30 145 C 14.948 2.68676 -2.19121 0
M  V30 146 C 14.009 2.58657 -3.4263 0
M  V30 147 C 13.242 3.86051 -3.68511 0
M  V30 148 O 13.465 4.87126 -2.96757 0
M  V30 149 O 12.399 3.85744 -4.62045 0
M  V30 150 H 16.225 1.06883 -2.8427 0
M  V30 151 H 13.81 0.463775 -1.42019 0
M  V30 152 H 15.692 3.47759 -2.37995 0
M  V30 153 H 14.367 2.96463 -1.29966 0
M  V30 154 H 13.274 1.7792 -3.29082 0
M  V30 155 H 14.607 2.35818 -4.32031 0
M  V30 156 N 16.2591 1.48442 0.529413 0
M  V30 157 C 17.4891 1.59919 1.30804 0
M  V30 158 C 17.8971 0.258792 1.87422 0
M  V30 159 O 17.2401 -0.762096 1.67146 0
M  V30 160 C 17.3021 2.58693 2.49636 0
M  V30 161 C 16.9661 4.03745 2.14101 0
M  V30 162 C 17.9631 4.9141 1.6974 0
M  V30 163 C 15.6481 4.49285 2.24607 0
M  V30 164 C 17.6421 6.22645 1.36351 0
M  V30 165 C 15.3291 5.8054 1.9083 0
M  V30 166 C 16.3271 6.67043 1.46773 0
M  V30 167 O 16.0151 7.95856 1.1344 0
M  V30 168 H 15.7471 0.541981 0.404021 0
M  V30 169 H 18.3011 1.95 0.645309 0
M  V30 170 H 16.5311 2.18734 3.18892 0
M  V30 171 H 18.2201 2.59999 3.11698 0
M  V30 172 H 18.9861 4.57465 1.61094 0
M  V30 173 H 14.8651 3.82142 2.57854 0
M  V30 174 H 18.4091 6.90119 1.01891 0
M  V30 175 H 14.3061 6.14022 1.99117 0
M  V30 176 H 15.0741 8.08613 1.26832 0
M  V30 177 N 17.7372 -0.778329 1.37039 0
M  V30 178 C 18.6842 -1.89139 1.32269 0
M  V30 179 C 19.6542 -1.65017 0.189387 0
M  V30 180 O 20.8392 -1.87024 0.377693 0
M  V30 181 C 17.9792 -3.26112 1.12894 0
M  V30 182 C 17.0922 -3.62233 2.35396 0
M  V30 183 C 16.2272 -4.8838 2.08946 0
M  V30 184 C 15.2662 -5.17212 3.2735 0
M  V30 185 N 14.4032 -6.34546 3.00492 0
M  V30 186 H 19.2432 -1.92552 2.27437 0
M  V30 187 H 16.7802 -0.941473 1.13025 0
M  V30 188 H 18.7382 -4.05116 0.996835 0
M  V30 189 H 17.3682 -3.22091 0.213758 0
M  V30 190 H 16.4202 -2.78265 2.5937 0
M  V30 191 H 17.7322 -3.79481 3.23721 0
M  V30 192 H 16.8862 -5.75274 1.92729 0
M  V30 193 H 15.6252 -4.73222 1.17949 0
M  V30 194 H 14.6302 -4.28796 3.44113 0
M  V30 195 H 15.8552 -5.34283 4.19188 0
M  V30 196 H 13.8012 -6.20759 2.12118 0
M  V30 197 H 13.7182 -6.52179 3.82358 0
M  V30 198 H 14.9862 -7.24394 2.87879 0
M  V30 199 N 19.2153 -1.21501 -1.00376 0
M  V30 200 C 20.1453 -0.999478 -2.11028 0
M  V30 201 C 21.1263 0.0759671 -1.6993 0
M  V30 202 O 22.3113 -0.0841106 -1.94018 0
M  V30 203 C 19.4413 -0.564709 -3.42678 0
M  V30 204 C 18.3953 -1.58486 -3.97576 0
M  V30 205 C 17.7213 -1.00628 -5.25146 0
M  V30 206 C 19.0213 -2.97204 -4.29496 0
M  V30 207 H 20.7153 -1.92495 -2.29317 0
M  V30 208 H 18.2613 -0.92693 -1.102 0
M  V30 209 H 20.2143 -0.401091 -4.19487 0
M  V30 210 H 18.9383 0.396411 -3.24185 0
M  V30 211 H 17.5973 -1.73606 -3.22888 0
M  V30 212 H 17.2453 -0.0368439 -5.02987 0
M  V30 213 H 16.9453 -1.68771 -5.62841 0
M  V30 214 H 18.4693 -0.854015 -6.04598 0
M  V30 215 H 19.8833 -2.8552 -4.97143 0
M  V30 216 H 18.2803 -3.62372 -4.78338 0
M  V30 217 H 19.3503 -3.47956 -3.3772 0
M  V30 218 N 20.6934 1.19889 -1.02296 0
M  V30 219 C 21.9214 1.9339 -0.735399 0
M  V30 220 C 22.3364 1.75148 0.704887 0
M  V30 221 O 21.6934 1.06954 1.47875 0
M  V30 222 C 21.7444 3.45313 -1.06962 0
M  V30 223 O 21.4654 3.62964 -2.45334 0
M  V30 224 C 22.9664 4.35948 -0.804021 0
M  V30 225 H 20.1864 0.61448 -0.269546 0
M  V30 226 H 22.7304 1.522 -1.36585 0
M  V30 227 H 20.8854 3.84359 -0.484455 0
M  V30 228 H 21.2994 4.56886 -2.57595 0
M  V30 229 H 22.7734 5.41174 -1.0879 0
M  V30 230 H 23.2504 4.3842 0.261691 0
M  V30 231 H 23.8564 4.02574 -1.37164 0
M  V30 232 N 22.1715 0.800033 1.35784 0
M  V30 233 C 23.0815 0.207204 2.33683 0
M  V30 234 C 24.0975 -0.64631 1.61551 0
M  V30 235 O 25.2735 -0.559604 1.93469 0
M  V30 236 C 22.3385 -0.639659 3.40748 0
M  V30 237 C 21.3995 0.233585 4.28664 0
M  V30 238 C 20.6325 -0.572954 5.30616 0
M  V30 239 O 20.8555 -1.80816 5.40982 0
M  V30 240 O 19.7895 0.0327285 6.01891 0
M  V30 241 H 23.6155 1.01692 2.86169 0
M  V30 242 H 21.2005 0.561691 1.38439 0
M  V30 243 H 23.0825 -1.12223 4.06182 0
M  V30 244 H 21.7575 -1.42708 2.90544 0
M  V30 245 H 20.6645 0.763147 3.66233 0
M  V30 246 H 21.9975 0.984784 4.82248 0
M  V30 247 N 23.6496 -1.47581 0.552962 0
M  V30 248 C 24.8746 -2.07378 0.0300593 0
M  V30 249 C 25.2996 -1.40355 -1.25229 0
M  V30 250 O 24.6576 -0.477099 -1.7491 0
M  V30 251 C 24.7056 -3.60274 -0.153231 0
M  V30 252 O 23.8096 -3.94041 -1.21678 0
M  V30 253 H 23.1506 -0.662158 0.0494182 0
M  V30 254 H 25.6806 -1.89662 0.767434 0
M  V30 255 H 25.6906 -4.0633 -0.368761 0
M  V30 256 H 24.3656 -4.08455 0.783397 0
M  V30 257 H 22.9426 -3.59735 -0.982079 0
M  V30 258 N 25.1277 -0.289203 -1.54924 0
M  V30 259 C 26.3767 0.324231 -1.99077 0
M  V30 260 C 26.6897 1.5591 -1.18117 0
M  V30 261 O 27.8957 2.24637 -1.52481 0
M  V30 262 C 26.3517 0.628209 -3.54375 0
M  V30 263 C 25.9597 -0.587647 -4.44129 0
M  V30 264 C 27.7037 1.20349 -4.07083 0
M  V30 265 C 25.6107 -0.257475 -5.90839 0
M  V30 266 H 24.5407 0.124924 -0.743579 0
M  V30 267 H 27.1917 -0.396063 -1.79175 0
M  V30 268 H 25.5737 1.40778 -3.70132 0
M  V30 269 H 26.7477 -1.36418 -4.40144 0
M  V30 270 H 25.0627 -1.08074 -4.0213 0
M  V30 271 H 27.6597 1.46456 -5.14252 0
M  V30 272 H 28.0027 2.14195 -3.56968 0
M  V30 273 H 28.5357 0.485889 -3.94821 0
M  V30 274 H 25.2747 -1.16419 -6.45079 0
M  V30 275 H 24.7947 0.482018 -5.9786 0
M  V30 276 H 26.4737 0.145238 -6.46837 0
M  V30 277 N 26.6058 1.57591 -0.0167156 0
M  V30 278 C 27.8828 1.82547 0.702564 0
M  V30 279 C 28.2628 0.898018 1.91047 0
M  V30 280 O 27.6108 -0.0493456 2.28447 0
M  V30 281 C 27.8208 3.31459 1.09251 0
M  V30 282 C 29.1688 3.97622 1.48937 0
M  V30 283 O 30.1928 3.35881 1.18584 0
M  V30 284 O 29.0518 5.06415 2.05442 0
M  V30 285 H 26.1458 0.752268 0.343544 0
M  V30 286 H 28.6918 1.69644 -0.0434495 0
M  V30 287 H 27.4638 3.9061 0.23227 0
M  V30 288 H 27.0868 3.49422 1.89709 0
M  V30 289 N 28.0839 -0.256276 1.55502 0
M  V30 290 C 29.0319 -1.33694 1.90338 0
M  V30 291 C 30.0259 -1.50299 0.781441 0
M  V30 292 O 31.2319 -1.51885 0.965966 0
M  V30 293 H 27.6069 -0.447483 0.60437 0
M  V30 294 H 29.5779 -1.01574 2.8058 0
M  V30 295 C 28.3269 -2.68724 2.20642 0
M  V30 296 H 27.6499 -2.56743 3.06469 0
M  V30 297 H 29.0899 -3.43237 2.48926 0
M  V30 298 C 27.5489 -3.21101 1.01959 0
M  V30 299 O 28.0789 -4.0084 0.262762 0
M  V30 300 N 26.2849 -2.79003 0.812746 0
M  V30 301 H 25.8319 -2.14271 1.42989 0
M  V30 302 H 25.7899 -3.14393 0.0203076 0
M  V30 303 N 29.562 -1.4872 -0.521534 0
M  V30 304 C 30.811 -1.56419 -1.27341 0
M  V30 305 C 31.124 -0.246805 -1.94037 0
M  V30 306 O 32.33 -0.202122 -2.70747 0
M  V30 307 C 30.786 -2.75896 -2.31105 0
M  V30 308 C 30.394 -4.14311 -1.70441 0
M  V30 309 C 32.138 -2.92913 -3.07249 0
M  V30 310 C 30.045 -5.25038 -2.72194 0
M  V30 311 H 28.975 -0.582344 -0.478949 0
M  V30 312 H 31.626 -1.75071 -0.549779 0
M  V30 313 H 30.008 -2.50697 -3.06541 0
M  V30 314 H 31.182 -4.49564 -1.01136 0
M  V30 315 H 29.497 -4.02482 -1.06759 0
M  V30 316 H 32.094 -3.72805 -3.83302 0
M  V30 317 H 32.437 -2.02689 -3.63625 0
M  V30 318 H 32.97 -3.18054 -2.38928 0
M  V30 319 H 29.709 -6.17255 -2.20627 0
M  V30 320 H 29.229 -4.94263 -3.39801 0
M  V30 321 H 30.908 -5.53508 -3.35019 0
M  V30 322 N 31.0401 0.771051 -1.3745 0
M  V30 323 C 31.9701 1.89827 -1.3597 0
M  V30 324 C 32.9511 1.68562 -0.228216 0
M  V30 325 O 34.1361 1.8941 -0.428675 0
M  V30 326 C 31.2661 3.2712 -1.16662 0
M  V30 327 C 30.2201 3.6295 -2.2683 0
M  V30 328 C 29.5461 4.98791 -1.92644 0
M  V30 329 C 30.8461 3.69627 -3.69017 0
M  V30 330 H 32.5401 1.91323 -2.30295 0
M  V30 331 H 30.0861 0.919082 -1.10855 0
M  V30 332 H 32.0391 4.05615 -1.14256 0
M  V30 333 H 30.7631 3.26059 -0.187926 0
M  V30 334 H 29.4221 2.86763 -2.28392 0
M  V30 335 H 29.0701 4.94271 -0.933021 0
M  V30 336 H 28.7701 5.23733 -2.66416 0
M  V30 337 H 30.2941 5.79685 -1.91826 0
M  V30 338 H 31.7081 4.38273 -3.69581 0
M  V30 339 H 30.1051 4.06067 -4.41848 0
M  V30 340 H 31.1751 2.70273 -4.02592 0
M  V30 341 N 32.5182 1.22032 0.997298 0
M  V30 342 C 33.7642 1.04376 1.73878 0
M  V30 343 C 34.0972 -0.420716 1.89588 0
M  V30 344 O 33.3722 -1.31202 1.43583 0
M  V30 345 C 33.6552 1.75047 3.14691 0
M  V30 346 C 33.5082 3.29062 3.06656 0
M  V30 347 C 34.8272 1.49928 4.13775 0
M  V30 348 H 31.9462 0.380578 0.631133 0
M  V30 349 H 34.5882 1.50312 1.16217 0
M  V30 350 H 32.7382 1.35996 3.63919 0
M  V30 351 H 34.4102 3.7753 2.65083 0
M  V30 352 H 32.6532 3.58967 2.43568 0
M  V30 353 H 33.3242 3.73683 4.06282 0
M  V30 354 H 35.8002 1.83842 3.73285 0
M  V30 355 H 34.6762 2.01878 5.10428 0
M  V30 356 H 34.9372 0.430929 4.39995 0
M  V30 357 N 33.9963 -1.19345 1.0293 0
M  V30 358 C 34.9433 -2.2258 0.610464 0
M  V30 359 C 35.9133 -1.6179 -0.375946 0
M  V30 360 O 37.0983 -1.88844 -0.272511 0
M  V30 361 C 34.2383 -3.45085 -0.0321473 0
M  V30 362 C 33.3513 -4.20258 1.00035 0
M  V30 363 C 32.4863 -5.3019 0.32746 0
M  V30 364 C 31.5253 -5.97121 1.34584 0
M  V30 365 N 30.6623 -6.98615 0.698726 0
M  V30 366 H 35.5023 -2.57764 1.49538 0
M  V30 367 H 33.0393 -1.26644 0.748311 0
M  V30 368 H 34.9973 -4.15061 -0.421966 0
M  V30 369 H 33.6273 -3.10555 -0.88064 0
M  V30 370 H 32.6793 -3.49223 1.50823 0
M  V30 371 H 33.9913 -4.66175 1.77433 0
M  V30 372 H 33.1453 -6.06587 -0.11718 0
M  V30 373 H 31.8843 -4.85345 -0.478713 0
M  V30 374 H 30.8893 -5.19474 1.80074 0
M  V30 375 H 32.1143 -6.4405 2.15352 0
M  V30 376 H 30.0603 -6.55942 -0.0873471 0
M  V30 377 H 29.9773 -7.42724 1.41058 0
M  V30 378 H 31.2453 -7.79004 0.278102 0
M  V30 379 N 35.4744 -0.807222 -1.35358 0
M  V30 380 C 36.4074 -0.163572 -2.27613 0
M  V30 381 C 37.3854 0.670817 -1.48118 0
M  V30 382 O 38.5694 0.63796 -1.77376 0
M  V30 383 C 35.6964 0.773015 -3.29761 0
M  V30 384 C 34.7424 0.0181653 -4.26496 0
M  V30 385 S 35.5754 -1.31831 -5.19019 0
M  V30 386 C 36.7314 -0.38619 -6.24707 0
M  V30 387 H 36.9644 -0.945757 -2.81856 0
M  V30 388 H 34.4974 -0.602315 -1.42167 0
M  V30 389 H 36.4554 1.30788 -3.89108 0
M  V30 390 H 35.1164 1.52859 -2.74396 0
M  V30 391 H 34.3094 0.729534 -4.98692 0
M  V30 392 H 33.9114 -0.446761 -3.71322 0
M  V30 393 H 36.2034 0.428295 -6.76145 0
M  V30 394 H 37.1464 -1.07736 -6.99856 0
M  V30 395 H 37.5544 0.018398 -5.64497 0
M  V30 396 N 36.9525 1.47285 -0.560781 0
M  V30 397 C 38.1995 2.02464 -0.038062 0
M  V30 398 C 38.5275 1.43474 1.31322 0
M  V30 399 O 37.7825 0.581311 1.86867 0
M  V30 400 C 38.0815 3.57258 0.100784 0
M  V30 401 C 37.7475 4.35184 -1.18007 0
M  V30 402 C 36.4095 4.56194 -1.53103 0
M  V30 403 C 38.7615 4.80098 -2.02867 0
M  V30 404 C 36.0895 5.19367 -2.729 0
M  V30 405 C 38.4415 5.44593 -3.21871 0
M  V30 406 C 37.1055 5.63835 -3.57276 0
M  V30 407 H 36.3755 0.740869 -0.0139279 0
M  V30 408 H 39.0225 1.76916 -0.733012 0
M  V30 409 H 37.3275 3.81819 0.878724 0
M  V30 410 H 39.0245 3.97606 0.520639 0
M  V30 411 H 35.6145 4.19113 -0.8968 0
M  V30 412 H 39.7985 4.63642 -1.7706 0
M  V30 413 H 35.0545 5.32459 -3.00496 0
M  V30 414 H 39.2285 5.78358 -3.87911 0
M  V30 415 H 36.8555 6.12557 -4.50197 0
M  V30 416 N 38.4306 0.297415 1.54768 0
M  V30 417 C 39.3776 -0.580276 2.23386 0
M  V30 418 C 40.3476 -1.13238 1.21517 0
M  V30 419 O 41.5326 -1.17757 1.50126 0
M  V30 420 C 38.6726 -1.74801 2.97555 0
M  V30 421 C 37.7856 -1.22764 4.1419 0
M  V30 422 C 36.9206 -2.35895 4.75949 0
M  V30 423 C 35.9596 -1.80974 5.84735 0
M  V30 424 N 35.0966 -2.87664 6.40464 0
M  V30 425 H 39.9366 0.0114833 2.97998 0
M  V30 426 H 37.4736 0.0174361 1.4709 0
M  V30 427 H 39.4316 -2.43475 3.38786 0
M  V30 428 H 38.0616 -2.31145 2.25326 0
M  V30 429 H 37.1136 -0.433271 3.77924 0
M  V30 430 H 38.4256 -0.785551 4.92575 0
M  V30 431 H 37.5796 -3.12523 5.20014 0
M  V30 432 H 36.3186 -2.83429 3.96887 0
M  V30 433 H 35.3236 -1.02834 5.40097 0
M  V30 434 H 36.5486 -1.34348 6.65678 0
M  V30 435 H 34.4946 -3.34538 5.64287 0
M  V30 436 H 34.4116 -2.4794 7.14186 0
M  V30 437 H 35.6796 -3.642 6.89187 0
M  V30 438 N 39.9087 -1.5758 0.0250728 0
M  V30 439 C 41.1367 -1.9593 -0.664747 0
M  V30 440 C 41.5517 -0.901352 -1.65895 0
M  V30 441 O 40.9087 0.117255 -1.82123 0
M  V30 442 C 40.9597 -3.34342 -1.37468 0
M  V30 443 O 40.6807 -4.36079 -0.420324 0
M  V30 444 C 42.1817 -3.873 -2.1567 0
M  V30 445 H 39.4017 -0.645405 -0.183557 0
M  V30 446 H 41.9457 -2.04329 0.0836372 0
M  V30 447 H 40.1007 -3.27175 -2.0745 0
M  V30 448 H 40.5147 -5.16297 -0.923991 0
M  V30 449 H 41.9887 -4.86504 -2.60803 0
M  V30 450 H 42.4657 -3.21331 -2.99405 0
M  V30 451 H 43.0717 -3.97723 -1.50654 0
M  V30 452 N 41.3868 0.248026 -1.55636 0
M  V30 453 C 42.3348 1.32683 -1.91045 0
M  V30 454 C 43.3288 1.49883 -0.789401 0
M  V30 455 O 44.5348 1.51371 -0.974007 0
M  V30 456 H 40.9098 0.444272 -0.606734 0
M  V30 457 H 42.8808 1.00085 -2.81115 0
M  V30 458 C 41.6298 2.6755 -2.22064 0
M  V30 459 H 40.9528 2.55114 -3.07826 0
M  V30 460 H 42.3928 3.41912 -2.50743 0
M  V30 461 C 40.8518 3.20556 -1.0366 0
M  V30 462 O 41.3818 4.00695 -0.284016 0
M  V30 463 N 39.5878 2.78568 -0.82753 0
M  V30 464 H 39.1348 2.1351 -1.44123 0
M  V30 465 H 39.0928 3.14378 -0.0369803 0
M  V30 466 N 42.8649 1.48995 0.513639 0
M  V30 467 C 43.7749 1.67443 1.64317 0
M  V30 468 C 44.7909 0.556947 1.64846 0
M  V30 469 O 45.9669 0.830082 1.83498 0
M  V30 470 C 43.0319 1.72515 3.00732 0
M  V30 471 C 42.0929 2.96009 3.1093 0
M  V30 472 C 41.3259 3.00829 4.40837 0
M  V30 473 O 41.5489 2.13594 5.28898 0
M  V30 474 O 40.4829 3.93168 4.55744 0
M  V30 475 H 44.3089 2.63106 1.51687 0
M  V30 476 H 41.8939 1.32588 0.688543 0
M  V30 477 H 43.7759 1.78277 3.81831 0
M  V30 478 H 42.4509 0.800278 3.13651 0
M  V30 479 H 41.3579 2.9577 2.29065 0
M  V30 480 H 42.6909 3.87934 3.02933 0
M  V30 481 N 44.343 -0.763751 1.37857 0
M  V30 482 C 45.291 -1.89864 1.34367 0
M  V30 483 C 46.285 -1.67816 0.231143 0
M  V30 484 O 47.491 -1.75508 0.399617 0
M  V30 485 H 43.866 -0.624501 0.41893 0
M  V30 486 H 45.837 -1.89925 2.30155 0
M  V30 487 C 44.586 -3.27227 1.1755 0
M  V30 488 H 43.909 -3.44773 2.02414 0
M  V30 489 H 45.349 -4.06911 1.1916 0
M  V30 490 C 43.808 -3.36692 -0.118311 0
M  V30 491 O 44.338 -3.86374 -1.09902 0
M  V30 492 N 42.544 -2.90092 -0.171717 0
M  V30 493 H 42.091 -2.49853 0.627012 0
M  V30 494 H 42.049 -2.96806 -1.03699 0
M  V30 495 N 45.8211 -1.22559 -0.990812 0
M  V30 496 C 46.7691 -0.994798 -2.10253 0
M  V30 497 C 47.7631 0.0627798 -1.69284 0
M  V30 498 O 48.9691 -0.0898392 -1.79776 0
M  V30 499 H 45.3441 -0.304527 -0.687581 0
M  V30 500 H 47.3151 -1.93812 -2.26891 0
M  V30 501 C 46.0641 -0.591439 -3.42633 0
M  V30 502 H 45.3871 -1.3969 -3.74602 0
M  V30 503 H 46.8271 -0.469385 -4.21394 0
M  V30 504 C 45.2861 0.699232 -3.29564 0
M  V30 505 O 45.8161 1.75112 -3.61523 0
M  V30 506 N 44.0221 0.671182 -2.82743 0
M  V30 507 H 43.5691 -0.185136 -2.56934 0
M  V30 508 H 43.5271 1.53502 -2.7438 0
M  V30 509 N 47.2992 1.18797 -1.03562 0
M  V30 510 C 48.5762 1.84469 -0.650434 0
M  V30 511 C 48.9562 1.92319 0.870433 0
M  V30 512 O 48.3042 1.44528 1.76986 0
M  V30 513 C 48.5142 3.2306 -1.32036 0
M  V30 514 C 49.8622 3.9915 -1.44792 0
M  V30 515 O 50.8862 3.32481 -1.27806 0
M  V30 516 O 49.7452 5.18587 -1.72423 0
M  V30 517 H 46.8392 0.795251 -0.226946 0
M  V30 518 H 49.3852 1.26231 -1.13419 0
M  V30 519 H 48.1572 3.1222 -2.3587 0
M  V30 520 H 47.7802 3.88949 -0.8249 0
M  V30 521 N 48.7773 0.814389 1.34928 0
M  V30 522 C 49.7243 0.22822 2.29669 0
M  V30 523 C 50.6943 -0.642164 1.53184 0
M  V30 524 O 51.8793 -0.585605 1.81591 0
M  V30 525 C 49.0193 -0.61089 3.3965 0
M  V30 526 C 48.1323 0.280792 4.31086 0
M  V30 527 C 47.2673 -0.567067 5.28165 0
M  V30 528 C 46.3063 0.324531 6.11239 0
M  V30 529 N 45.4433 -0.483756 7.00431 0
M  V30 530 H 50.2833 1.04153 2.79206 0
M  V30 531 H 47.8203 0.525133 1.37407 0
M  V30 532 H 49.7783 -1.11263 4.0209 0
M  V30 533 H 48.4083 -1.38939 2.91369 0
M  V30 534 H 47.4603 0.900688 3.69583 0
M  V30 535 H 48.7723 0.966723 4.89342 0
M  V30 536 H 47.9263 -1.13363 5.96015 0
M  V30 537 H 46.6653 -1.28654 4.70425 0
M  V30 538 H 45.6703 0.903298 5.42329 0
M  V30 539 H 46.8953 1.04198 6.71059 0
M  V30 540 H 44.8413 -1.18706 6.45171 0
M  V30 541 H 44.7583 0.143965 7.55863 0
M  V30 542 H 46.0263 -1.03334 7.7262 0
M  V30 543 N 50.2554 -1.46986 0.568584 0
M  V30 544 C 51.4804 -2.07335 0.0520528 0
M  V30 545 C 51.9054 -1.41675 -1.23733 0
M  V30 546 O 51.2634 -0.495623 -1.74394 0
M  V30 547 C 51.3114 -3.60417 -0.11501 0
M  V30 548 O 50.4154 -3.95309 -1.17492 0
M  V30 549 H 49.7564 -0.661597 0.0564385 0
M  V30 550 H 52.2864 -1.88837 0.787507 0
M  V30 551 H 52.2964 -4.06698 -0.325644 0
M  V30 552 H 50.9714 -4.07601 0.826675 0
M  V30 553 H 49.5484 -3.60757 -0.943869 0
M  V30 554 N 51.7335 -0.305618 -1.54608 0
M  V30 555 C 52.6435 0.57778 -2.27374 0
M  V30 556 C 53.6595 1.14451 -1.31061 0
M  V30 557 O 54.8355 1.16831 -1.6405 0
M  V30 558 C 51.9005 1.73123 -3.00382 0
M  V30 559 C 50.9615 1.19812 -4.12242 0
M  V30 560 C 50.1945 2.2966 -4.81759 0
M  V30 561 O 50.4175 3.49651 -4.50666 0
M  V30 562 O 49.3515 1.96091 -5.69062 0
M  V30 563 H 53.1775 -0.012624 -3.03697 0
M  V30 564 H 50.7625 -0.0719184 -1.49227 0
M  V30 565 H 52.6445 2.40315 -3.4616 0
M  V30 566 H 51.3195 2.30815 -2.26949 0
M  V30 567 H 50.2265 0.491798 -3.70853 0
M  V30 568 H 51.5595 0.666566 -4.87666 0
M  V30 569 N 53.2116 1.57565 -0.0334293 0
M  V30 570 C 54.1416 2.13511 0.945265 0
M  V30 571 C 55.1226 1.05231 1.33643 0
M  V30 572 O 56.3076 1.33084 1.41429 0
M  V30 573 C 53.4376 2.6657 2.22616 0
M  V30 574 C 52.3916 3.79676 1.97561 0
M  V30 575 C 51.7176 4.1918 3.31952 0
M  V30 576 C 53.0176 5.0557 1.31135 0
M  V30 577 H 54.7116 2.95538 0.479325 0
M  V30 578 H 52.2576 1.42166 0.229115 0
M  V30 579 H 54.2106 3.04344 2.91466 0
M  V30 580 H 52.9346 1.8171 2.71384 0
M  V30 581 H 51.5936 3.42347 1.31127 0
M  V30 582 H 51.2416 3.31296 3.78487 0
M  V30 583 H 50.9416 4.95402 3.15992 0
M  V30 584 H 52.4656 4.59541 4.02063 0
M  V30 585 H 53.8796 5.40903 1.89992 0
M  V30 586 H 52.2766 5.86818 1.25559 0
M  V30 587 H 53.3466 4.84062 0.284894 0
M  V30 588 N 54.6897 -0.239769 1.55765 0
M  V30 589 C 55.9387 -0.964754 1.77131 0
M  V30 590 C 56.2517 -1.86213 0.59868 0
M  V30 591 O 57.4577 -2.6244 0.695522 0
M  V30 592 C 55.9137 -1.76552 3.1362 0
M  V30 593 C 55.5217 -0.915185 4.38553 0
M  V30 594 C 57.2657 -2.48281 3.44321 0
M  V30 595 C 55.1727 -1.71225 5.66071 0
M  V30 596 H 54.1027 -0.363953 0.660344 0
M  V30 597 H 56.7537 -0.219181 1.82186 0
M  V30 598 H 55.1357 -2.55331 3.02691 0
M  V30 599 H 56.3097 -0.169217 4.60489 0
M  V30 600 H 54.6247 -0.310889 4.15238 0
M  V30 601 H 57.2217 -3.08382 4.36812 0
M  V30 602 H 57.5647 -3.20256 2.65973 0
M  V30 603 H 58.0977 -1.76507 3.56497 0
M  V30 604 H 54.8367 -1.03612 6.4726 0
M  V30 605 H 54.3567 -2.43331 5.48224 0
M  V30 606 H 56.0357 -2.27758 6.05587 0
M  V30 607 N 56.1678 -1.49265 -0.50573 0
M  V30 608 C 57.1148 -1.65585 -1.6078 0
M  V30 609 C 58.0848 -0.497396 -1.58478 0
M  V30 610 O 59.2698 -0.72385 -1.76536 0
M  V30 611 C 56.4098 -1.72408 -2.98948 0
M  V30 612 C 55.5228 -2.99525 -3.11301 0
M  V30 613 C 54.6578 -2.97356 -4.40174 0
M  V30 614 C 53.6968 -4.19074 -4.46143 0
M  V30 615 N 52.8338 -4.14841 -5.66437 0
M  V30 616 H 57.6738 -2.59688 -1.46172 0
M  V30 617 H 55.2108 -1.28761 -0.711261 0
M  V30 618 H 57.1688 -1.74344 -3.79025 0
M  V30 619 H 55.7988 -0.817753 -3.1227 0
M  V30 620 H 54.8508 -3.07222 -2.24318 0
M  V30 621 H 56.1628 -3.89518 -3.11572 0
M  V30 622 H 55.3168 -2.97829 -5.28567 0
M  V30 623 H 54.0558 -2.05133 -4.42461 0
M  V30 624 H 53.0608 -4.1885 -3.56153 0
M  V30 625 H 54.2858 -5.12483 -4.45575 0
M  V30 626 H 52.2318 -3.25453 -5.69575 0
M  V30 627 H 52.1488 -4.98564 -5.68304 0
M  V30 628 H 53.4168 -4.1941 -6.57051 0
M  V30 629 N 57.6459 0.756429 -1.3826 0
M  V30 630 C 58.5759 1.88374 -1.37976 0
M  V30 631 C 59.5569 1.68311 -0.246082 0
M  V30 632 O 60.7419 1.88944 -0.44874 0
M  V30 633 C 57.8719 3.25864 -1.20125 0
M  V30 634 C 56.8259 3.60523 -2.30666 0
M  V30 635 C 56.1519 4.9672 -1.97923 0
M  V30 636 C 57.4519 3.65692 -3.72916 0
M  V30 637 H 59.1459 1.88869 -2.32312 0
M  V30 638 H 56.6919 0.907272 -1.11824 0
M  V30 639 H 58.6449 4.0438 -1.18552 0
M  V30 640 H 57.3689 3.25841 -0.222498 0
M  V30 641 H 56.0279 2.84324 -2.3142 0
M  V30 642 H 55.6759 4.93253 -0.985393 0
M  V30 643 H 55.3759 5.20878 -2.71955 0
M  V30 644 H 56.8999 5.77618 -1.97964 0
M  V30 645 H 58.3139 4.34328 -3.74208 0
M  V30 646 H 56.7109 4.01358 -4.4613 0
M  V30 647 H 57.7809 2.65987 -4.05436 0
M  V30 648 N 59.124 1.23083 0.984299 0
M  V30 649 C 60.034 1.02515 2.11016 0
M  V30 650 C 61.05 -0.0291702 1.73976 0
M  V30 651 O 62.226 0.165434 2.00719 0
M  V30 652 C 59.291 0.614673 3.41208 0
M  V30 653 C 58.352 1.74359 3.92297 0
M  V30 654 C 57.585 1.35261 5.16275 0
M  V30 655 O 57.808 0.235136 5.69915 0
M  V30 656 O 56.742 2.17227 5.61334 0
M  V30 657 H 60.568 1.96862 2.31255 0
M  V30 658 H 58.153 1.01753 1.09392 0
M  V30 659 H 60.035 0.396518 4.1953 0
M  V30 660 H 58.71 -0.299851 3.22308 0
M  V30 661 H 57.617 2.01635 3.1511 0
M  V30 662 H 58.95 2.63629 4.15645 0
M  V30 663 N 60.6021 -1.18246 1.0419 0
M  V30 664 C 61.5121 -2.25574 0.644476 0
M  V30 665 C 62.5281 -1.70845 -0.329826 0
M  V30 666 O 63.7041 -2.00554 -0.184443 0
M  V30 667 C 60.7691 -3.46697 0.014877 0
M  V30 668 C 59.8301 -4.16554 1.03834 0
M  V30 669 C 59.0631 -5.31894 0.438692 0
M  V30 670 O 59.2861 -5.65385 -0.754752 0
M  V30 671 O 58.2201 -5.90459 1.168 0
M  V30 672 H 62.0461 -2.61836 1.53869 0
M  V30 673 H 59.6311 -1.25352 0.812854 0
M  V30 674 H 61.5131 -4.20062 -0.335538 0
M  V30 675 H 60.1881 -3.12255 -0.853138 0
M  V30 676 H 59.0951 -3.45251 1.44057 0
M  V30 677 H 60.4281 -4.54998 1.87716 0
M  V30 678 N 62.0802 -0.821533 -1.34494 0
M  V30 679 C 63.3262 -0.409552 -1.98622 0
M  V30 680 C 63.6592 1.0244 -1.64984 0
M  V30 681 O 62.9342 1.71325 -0.920758 0
M  V30 682 C 63.2172 -0.610458 -3.54888 0
M  V30 683 C 63.0702 -2.09043 -3.98273 0
M  V30 684 C 64.3892 -0.0455379 -4.40076 0
M  V30 685 H 61.5082 -0.15028 -0.721516 0
M  V30 686 H 64.1502 -1.03384 -1.59411 0
M  V30 687 H 62.3002 -0.079044 -3.8842 0
M  V30 688 H 63.9722 -2.68537 -3.75081 0
M  V30 689 H 62.2152 -2.58139 -3.48635 0
M  V30 690 H 62.8862 -2.18182 -5.07051 0
M  V30 691 H 65.3622 -0.499557 -4.1309 0
M  V30 692 H 64.2382 -0.215922 -5.48475 0
M  V30 693 H 64.4992 1.04939 -4.29465 0
M  V30 694 N 63.5583 1.46682 -0.576371 0
M  V30 695 C 64.8353 1.95599 0.00703437 0
M  V30 696 C 65.2153 1.51904 1.46589 0
M  V30 697 O 64.5633 0.766755 2.15251 0
M  V30 698 C 64.7733 3.4864 -0.158404 0
M  V30 699 C 66.1213 4.24594 -0.0229439 0
M  V30 700 O 67.1453 3.56094 -0.0869173 0
M  V30 701 O 66.0043 5.46373 0.118015 0
M  V30 702 H 63.0983 0.825275 0.053384 0
M  V30 703 H 65.6443 1.56996 -0.644244 0
M  V30 704 H 64.4163 3.7331 -1.17282 0
M  V30 705 H 64.0393 3.94057 0.5296 0
M  V30 706 N 65.0364 0.313813 1.54444 0
M  V30 707 C 66.3134 -0.345447 1.92525 0
M  V30 708 C 66.6934 -1.70667 1.24242 0
M  V30 709 O 66.0414 -2.25273 0.382654 0
M  V30 710 C 66.2514 -0.44737 3.46121 0
M  V30 711 C 67.5994 -0.712238 4.18584 0
M  V30 712 O 68.6234 -0.530678 3.52225 0
M  V30 713 O 67.4824 -1.06183 5.36085 0
M  V30 714 H 64.5764 -0.195407 0.803583 0
M  V30 715 H 67.1224 0.362813 1.65776 0
M  V30 716 H 65.8944 0.509043 3.87975 0
M  V30 717 H 65.5174 -1.20359 3.78945 0
M  V30 718 N 66.5145 -1.57545 0.0417849 0
M  V30 719 C 67.7395 -1.97035 -0.647455 0
M  V30 720 C 68.1645 -0.918775 -1.64135 0
M  V30 721 O 67.5225 0.119006 -1.80909 0
M  V30 722 C 67.5705 -3.35609 -1.31905 0
M  V30 723 O 66.6745 -3.3287 -2.43457 0
M  V30 724 H 66.0155 -0.64211 -0.169086 0
M  V30 725 H 68.5455 -2.04318 0.107399 0
M  V30 726 H 68.5555 -3.72126 -1.67291 0
M  V30 727 H 67.2305 -4.11685 -0.590586 0
M  V30 728 H 65.8075 -3.08087 -2.10088 0
M  V30 729 N 67.9926 0.231505 -1.5589 0
M  V30 730 C 68.9226 1.29022 -1.94617 0
M  V30 731 C 69.9036 1.4941 -0.813067 0
M  V30 732 O 71.0886 1.6176 -1.07459 0
M  V30 733 C 68.2186 2.64199 -2.25424 0
M  V30 734 C 67.1726 2.58484 -3.41131 0
M  V30 735 C 66.4986 3.97599 -3.57518 0
M  V30 736 C 67.7986 2.1413 -4.76388 0
M  V30 737 H 69.4926 0.968563 -2.83301 0
M  V30 738 H 67.0386 0.464479 -1.36303 0
M  V30 739 H 68.9916 3.38413 -2.51107 0
M  V30 740 H 67.7156 2.98032 -1.33583 0
M  V30 741 H 66.3746 1.86727 -3.15481 0
M  V30 742 H 66.0226 4.28723 -2.6307 0
M  V30 743 H 65.7226 3.94659 -4.35337 0
M  V30 744 H 67.2466 4.7349 -3.85538 0
M  V30 745 H 68.6606 2.78083 -5.01341 0
M  V30 746 H 67.0576 2.2227 -5.57419 0
M  V30 747 H 68.1276 1.09331 -4.72414 0
M  V30 748 N 69.4707 1.49531 0.497807 0
M  V30 749 C 70.4177 1.66436 1.59899 0
M  V30 750 C 71.3877 0.505793 1.58212 0
M  V30 751 O 72.5727 0.733202 1.7615 0
M  V30 752 C 69.7127 1.7399 2.98029 0
M  V30 753 C 68.8257 3.01172 3.09708 0
M  V30 754 C 67.9607 2.99686 4.38591 0
M  V30 755 C 66.9997 4.21434 4.43914 0
M  V30 756 N 66.1367 4.1784 5.64229 0
M  V30 757 H 70.9767 2.60459 1.44793 0
M  V30 758 H 68.5137 1.29137 0.704423 0
M  V30 759 H 70.4717 1.76352 3.78095 0
M  V30 760 H 69.1017 0.834301 3.11832 0
M  V30 761 H 68.1537 3.08408 2.22685 0
M  V30 762 H 69.4657 3.91165 3.09502 0
M  V30 763 H 68.6197 3.00628 5.2698 0
M  V30 764 H 67.3587 2.07477 4.41367 0
M  V30 765 H 66.3637 4.20733 3.53926 0
M  V30 766 H 67.5887 5.14839 4.42851 0
M  V30 767 H 65.5347 3.28469 5.67841 0
M  V30 768 H 65.4517 5.01571 5.65652 0
M  V30 769 H 66.7197 4.22889 6.54817 0
M  V30 770 N 70.9488 -0.749086 1.3866 0
M  V30 771 C 71.8788 -1.8764 1.38973 0
M  V30 772 C 72.8598 -1.68178 0.255004 0
M  V30 773 O 74.0448 -1.88704 0.458754 0
M  V30 774 C 71.1748 -3.25222 1.21851 0
M  V30 775 C 70.1288 -3.59295 2.32575 0
M  V30 776 C 69.4548 -4.95663 2.00555 0
M  V30 777 C 70.7548 -3.63709 3.7485 0
M  V30 778 H 72.4488 -1.87635 2.3331 0
M  V30 779 H 69.9948 -0.901329 1.12303 0
M  V30 780 H 71.9478 -4.03746 1.20695 0
M  V30 781 H 70.6718 -3.25719 0.239775 0
M  V30 782 H 69.3308 -2.83093 2.32925 0
M  V30 783 H 68.9788 -4.92724 1.01154 0
M  V30 784 H 68.6788 -5.19429 2.74714 0
M  V30 785 H 70.2028 -5.7656 2.01024 0
M  V30 786 H 71.6168 -4.32338 3.76506 0
M  V30 787 H 70.0138 -3.98986 4.48252 0
M  V30 788 H 71.0838 -2.63834 4.06841 0
M  V30 789 N 72.4269 -1.23603 -0.977757 0
M  V30 790 C 73.3369 -1.03632 -2.1047 0
M  V30 791 C 74.3529 0.0199435 -1.73989 0
M  V30 792 O 75.5289 -0.176076 -2.00629 0
M  V30 793 C 72.5939 -0.63276 -3.40877 0
M  V30 794 C 71.6549 -1.76437 -3.91367 0
M  V30 795 C 70.8879 -1.37997 -5.15551 0
M  V30 796 O 71.1109 -0.265357 -5.69782 0
M  V30 797 O 70.0449 -2.20201 -5.60174 0
M  V30 798 H 73.8709 -1.98086 -2.30208 0
M  V30 799 H 71.4559 -1.02332 -1.08851 0
M  V30 800 H 73.3379 -0.418761 -4.19314 0
M  V30 801 H 72.0129 0.282754 -3.22463 0
M  V30 802 H 70.9199 -2.03304 -3.14036 0
M  V30 803 H 72.2529 -2.6583 -4.14241 0
M  V30 804 N 73.905 1.17692 -1.04816 0
M  V30 805 C 74.835 2.23777 -0.666791 0
M  V30 806 C 75.816 1.66796 0.33361 0
M  V30 807 O 77.001 1.93039 0.212042 0
M  V30 808 C 74.131 3.47281 -0.0367933 0
M  V30 809 C 73.085 4.17059 -0.961546 0
M  V30 810 C 72.411 5.34342 -0.195626 0
M  V30 811 C 73.711 4.69713 -2.28402 0
M  V30 812 H 75.405 2.55933 -1.55367 0
M  V30 813 H 72.951 1.23019 -0.748484 0
M  V30 814 H 74.904 4.20706 0.241775 0
M  V30 815 H 73.628 3.14381 0.885004 0
M  V30 816 H 72.287 3.45541 -1.22462 0
M  V30 817 H 71.935 4.97692 0.728816 0
M  V30 818 H 71.635 5.81966 -0.811775 0
M  V30 819 H 73.159 6.10553 0.0757473 0
M  V30 820 H 74.573 5.34794 -2.06563 0
M  V30 821 H 72.97 5.279 -2.8538 0
M  V30 822 H 74.04 3.86726 -2.92525 0
M  V30 823 N 75.3831 0.828654 1.34056 0
M  V30 824 C 76.3161 0.199763 2.27324 0
M  V30 825 C 77.2941 -0.647168 1.49166 0
M  V30 826 O 78.4781 -0.609661 1.78369 0
M  V30 827 C 75.6051 -0.720455 3.30949 0
M  V30 828 C 74.6511 0.0496888 4.26471 0
M  V30 829 S 75.4841 1.40072 5.16856 0
M  V30 830 C 76.6401 0.485527 6.24014 0
M  V30 831 H 76.8731 0.990478 2.80316 0
M  V30 832 H 74.4061 0.624857 1.41191 0
M  V30 833 H 76.3641 -1.24581 3.91139 0
M  V30 834 H 75.0251 -1.48474 2.76793 0
M  V30 835 H 74.2181 -0.650104 4.9979 0
M  V30 836 H 73.8201 0.505779 3.70564 0
M  V30 837 H 76.1121 -0.320672 6.76741 0
M  V30 838 H 77.0551 1.18856 6.98054 0
M  V30 839 H 77.4631 0.0714109 5.64455 0
M  V30 840 N 76.8612 -1.46375 0.584142 0
M  V30 841 C 77.8092 -2.32042 -0.161047 0
M  V30 842 C 78.8032 -1.44569 -0.882966 0
M  V30 843 O 80.0092 -1.61186 -0.801191 0
M  V30 844 H 76.3842 -0.748659 -0.0708033 0
M  V30 845 H 78.3552 -2.92704 0.580269 0
M  V30 846 C 77.1042 -3.27762 -1.1605 0
M  V30 847 H 76.4272 -3.95051 -0.614419 0
M  V30 848 H 77.8672 -3.90481 -1.65228 0
M  V30 849 C 76.3262 -2.53218 -2.22221 0
M  V30 850 O 76.8562 -2.29628 -3.29597 0
M  V30 851 N 75.0622 -2.13756 -1.96868 0
M  V30 852 H 74.6092 -2.33142 -1.09557 0
M  V30 853 H 74.5672 -1.642 -2.68115 0
M  V30 854 N 78.3393 -0.321999 -1.54275 0
M  V30 855 C 79.5693 0.282642 -2.04658 0
M  V30 856 C 79.9773 1.46453 -1.19784 0
M  V30 857 O 79.3203 1.82367 -0.220932 0
M  V30 858 C 79.3823 0.781857 -3.50895 0
M  V30 859 C 79.0463 -0.277517 -4.56157 0
M  V30 860 C 80.0433 -1.11307 -5.07845 0
M  V30 861 C 77.7283 -0.425256 -5.00497 0
M  V30 862 C 79.7223 -2.08211 -6.02434 0
M  V30 863 C 77.4093 -1.39771 -5.94901 0
M  V30 864 C 78.4073 -2.2246 -6.45756 0
M  V30 865 O 78.0953 -3.18054 -7.38307 0
M  V30 866 H 77.8273 0.0622636 -0.673126 0
M  V30 867 H 80.3813 -0.465792 -2.00049 0
M  V30 868 H 78.6113 1.58118 -3.52896 0
M  V30 869 H 80.3003 1.30467 -3.84361 0
M  V30 870 H 81.0663 -1.00991 -4.74369 0
M  V30 871 H 76.9453 0.20847 -4.60528 0
M  V30 872 H 80.4893 -2.72791 -6.42052 0
M  V30 873 H 76.3863 -1.50152 -6.27794 0
M  V30 874 H 77.1543 -3.13275 -7.56175 0
M  V30 875 N 79.8174 1.5752 -0.0501392 0
M  V30 876 C 81.0574 1.94521 0.627783 0
M  V30 877 C 81.4214 0.928265 1.68069 0
M  V30 878 O 82.6224 1.18517 2.41261 0
M  V30 879 C 80.8934 3.36319 1.20932 0
M  V30 880 S 82.4524 3.95272 1.90539 0
M  V30 881 H 79.2704 0.680456 0.206158 0
M  V30 882 H 81.8724 1.95139 -0.118829 0
M  V30 883 H 80.5764 4.08132 0.430865 0
M  V30 884 H 80.1074 3.39193 1.99277 0
M  V30 885 H 82.1224 3.80415 3.18589 0
M  V30 886 N 81.2955 -0.223234 1.56011 0
M  V30 887 C 82.5205 -0.968978 1.83373 0
M  V30 888 C 82.9455 -1.77227 0.630254 0
M  V30 889 O 82.3035 -1.76345 -0.420959 0
M  V30 890 C 82.3515 -1.86363 3.08709 0
M  V30 891 O 81.4555 -2.95873 2.87285 0
M  V30 892 H 80.7965 -0.274461 0.604622 0
M  V30 893 H 83.3265 -0.237056 2.03222 0
M  V30 894 H 83.3365 -2.27376 3.38768 0
M  V30 895 H 82.0115 -1.27319 3.95933 0
M  V30 896 H 80.5885 -2.58818 2.68454 0
M  V30 897 N 82.7736 -1.49793 -0.48987 0
M  V30 898 C 83.7036 -1.70201 -1.59856 0
M  V30 899 C 84.6846 -0.55076 -1.60937 0
M  V30 900 O 85.8696 -0.787841 -1.77501 0
M  V30 901 C 82.9996 -1.77882 -2.98287 0
M  V30 902 C 81.9536 -2.92907 -3.12073 0
M  V30 903 C 81.2796 -2.85712 -4.51965 0
M  V30 904 C 82.5796 -4.3369 -2.91051 0
M  V30 905 H 84.2736 -2.63025 -1.43032 0
M  V30 906 H 81.8196 -1.26574 -0.686664 0
M  V30 907 H 83.7726 -1.90744 -3.75759 0
M  V30 908 H 82.4966 -0.816653 -3.16225 0
M  V30 909 H 81.1556 -2.79665 -2.37029 0
M  V30 910 H 80.8036 -1.8738 -4.66795 0
M  V30 911 H 80.5036 -3.62921 -4.62128 0
M  V30 912 H 82.0276 -3.00598 -5.31482 0
M  V30 913 H 83.4416 -4.47555 -3.58284 0
M  V30 914 H 81.8386 -5.12205 -3.12675 0
M  V30 915 H 82.9086 -4.47362 -1.87071 0
M  V30 916 N 84.2517 0.741722 -1.39055 0
M  V30 917 C 85.1817 1.869 -1.39966 0
M  V30 918 C 86.1627 1.6804 -0.26392 0
M  V30 919 O 87.3477 1.88458 -0.468755 0
M  V30 920 C 84.4777 3.24572 -1.23574 0
M  V30 921 C 83.4317 3.58056 -2.34477 0
M  V30 922 C 82.7577 4.94593 -2.0318 0
M  V30 923 C 84.0577 3.61716 -3.76774 0
M  V30 924 H 85.7517 1.86395 -2.34302 0
M  V30 925 H 83.2977 0.895361 -1.1278 0
M  V30 926 H 85.2507 4.031 -1.22834 0
M  V30 927 H 83.9747 3.25587 -0.257045 0
M  V30 928 H 82.6337 2.81854 -2.34423 0
M  V30 929 H 82.2817 4.92181 -1.03765 0
M  V30 930 H 81.9817 5.17964 -2.77465 0
M  V30 931 H 83.5057 5.75486 -2.04079 0
M  V30 932 H 84.9197 4.30335 -3.78794 0
M  V30 933 H 83.3167 3.96603 -4.50362 0
M  V30 934 H 84.3867 2.61672 -4.08235 0
M  V30 935 N 85.7298 1.2412 0.971189 0
M  V30 936 C 86.6768 1.0305 2.06517 0
M  V30 937 C 87.6468 -0.0550666 1.66009 0
M  V30 938 O 88.8318 0.0988688 1.90544 0
M  V30 939 C 85.9718 0.637653 3.39158 0
M  V30 940 C 85.0848 1.79633 3.92882 0
M  V30 941 C 84.2198 1.34939 5.13775 0
M  V30 942 C 83.2588 2.47823 5.59687 0
M  V30 943 N 82.3958 2.04022 6.71803 0
M  V30 944 H 87.2358 1.96685 2.23873 0
M  V30 945 H 84.7728 0.979694 1.09729 0
M  V30 946 H 86.7308 0.390931 4.15364 0
M  V30 947 H 85.3608 -0.261693 3.21737 0
M  V30 948 H 84.4128 2.15681 3.13346 0
M  V30 949 H 85.7248 2.64466 4.22918 0
M  V30 950 H 84.8788 1.06134 5.97345 0
M  V30 951 H 83.6178 0.471557 4.85415 0
M  V30 952 H 82.6228 2.77392 4.74693 0
M  V30 953 H 83.8478 3.36158 5.90063 0
M  V30 954 H 81.7938 1.18632 6.45184 0
M  V30 955 H 81.7108 2.82409 7.01271 0
M  V30 956 H 82.9788 1.78347 7.58823 0
M  V30 957 N 87.2079 -1.17134 1.05439 0
M  V30 958 C 88.4849 -1.83411 0.679699 0
M  V30 959 C 88.8649 -1.9368 -0.839726 0
M  V30 960 O 88.2129 -1.47325 -1.74664 0
M  V30 961 C 88.4229 -3.20918 1.37159 0
M  V30 962 C 89.7709 -3.96796 1.51123 0
M  V30 963 O 90.7949 -3.30406 1.3308 0
M  V30 964 O 89.6539 -5.15778 1.80651 0
M  V30 965 H 86.7479 -0.79154 0.239569 0
M  V30 966 H 89.2939 -1.24411 1.15413 0
M  V30 967 H 88.0659 -3.08428 2.40807 0
M  V30 968 H 87.6889 -3.87587 0.886674 0
M  V30 969 N 88.686 -0.835752 -1.33615 0
M  V30 970 C 89.932 -0.430596 -1.98176 0
M  V30 971 C 90.265 1.00684 -1.66061 0
M  V30 972 O 89.54 1.70339 -0.938877 0
M  V30 973 C 89.823 -0.648065 -3.5422 0
M  V30 974 C 89.676 -2.13255 -3.96033 0
M  V30 975 C 90.995 -0.0922113 -4.40003 0
M  V30 976 H 88.114 -0.157924 -0.719881 0
M  V30 977 H 90.756 -1.05069 -1.58305 0
M  V30 978 H 88.906 -0.120237 -3.88314 0
M  V30 979 H 90.578 -2.725 -3.72211 0
M  V30 980 H 88.821 -2.61823 -3.45878 0
M  V30 981 H 89.492 -2.23547 -5.04708 0
M  V30 982 H 91.968 -0.543343 -4.12537 0
M  V30 983 H 90.844 -0.274083 -5.48215 0
M  V30 984 H 91.105 1.00378 -4.30554 0
M  V30 985 N 90.1641 1.46063 -0.591896 0
M  V30 986 C 91.4411 1.95595 -0.0137119 0
M  V30 987 C 91.8211 1.5345 1.4497 0
M  V30 988 O 91.1691 0.789543 2.14426 0
M  V30 989 C 91.3791 3.48453 -0.195373 0
M  V30 990 C 92.7271 4.24546 -0.0679765 0
M  V30 991 O 93.7511 3.55982 -0.124681 0
M  V30 992 O 92.6101 5.46467 0.0600579 0
M  V30 993 H 89.7041 0.825795 0.0446279 0
M  V30 994 H 92.2501 1.56303 -0.660859 0
M  V30 995 H 91.0221 3.72045 -1.21235 0
M  V30 996 H 90.6451 3.94597 0.487775 0
M  V30 997 N 91.6422 0.330177 1.54103 0
M  V30 998 C 92.8702 -0.272179 2.05102 0
M  V30 999 C 93.2852 -1.45267 1.20595 0
M  V30 1000 O 92.6422 -1.8094 0.238144 0
M  V30 1001 C 92.6932 -0.70023 3.54653 0
M  V30 1002 O 92.4142 0.433301 4.35952 0
M  V30 1003 C 93.9152 -1.3647 4.21771 0
M  V30 1004 H 91.1352 -0.0549159 0.668749 0
M  V30 1005 H 93.6792 0.478285 1.98828 0
M  V30 1006 H 91.8342 -1.40066 3.61193 0
M  V30 1007 H 92.2482 0.0947539 5.24414 0
M  V30 1008 H 93.7222 -1.61509 5.27843 0
M  V30 1009 H 94.1992 -2.31409 3.73292 0
M  V30 1010 H 94.8052 -0.706675 4.19388 0
M  V30 1011 N 93.1203 -1.57491 0.0584922 0
M  V30 1012 C 94.3483 -1.97296 -0.623037 0
M  V30 1013 C 94.7633 -0.936338 -1.63946 0
M  V30 1014 O 94.1203 0.0785981 -1.82331 0
M  V30 1015 C 94.1713 -3.37183 -1.30345 0
M  V30 1016 O 93.8923 -4.36872 -0.32773 0
M  V30 1017 C 95.3933 -3.91788 -2.07406 0
M  V30 1018 H 92.6133 -0.649153 -0.169826 0
M  V30 1019 H 95.1573 -2.04106 0.12696 0
M  V30 1020 H 93.3123 -3.31502 -2.00463 0
M  V30 1021 H 93.7263 -5.18141 -0.814269 0
M  V30 1022 H 95.2003 -4.91926 -2.50425 0
M  V30 1023 H 95.6773 -3.27609 -2.92521 0
M  V30 1024 H 96.2833 -4.00829 -1.42184 0
M  V30 1025 N 94.5984 0.214957 -1.56127 0
M  V30 1026 C 95.8464 0.936518 -1.79091 0
M  V30 1027 C 96.1674 1.84606 -0.628148 0
M  V30 1028 O 95.4374 1.92664 0.35462 0
M  V30 1029 H 94.0174 0.3488 -0.660566 0
M  V30 1030 H 96.6794 0.22523 -1.93594 0
M  V30 1031 H 95.7754 1.53943 -2.71492 0
M  V30 1032 N 96.0765 1.50051 0.48192 0
M  V30 1033 C 97.3045 1.64237 1.25832 0
M  V30 1034 C 97.7195 0.321336 1.86045 0
M  V30 1035 O 97.0765 -0.695478 1.68729 0
M  V30 1036 C 97.1275 2.72548 2.37487 0
M  V30 1037 O 96.8485 3.99529 1.79745 0
M  V30 1038 C 98.3495 2.9761 3.28547 0
M  V30 1039 H 95.5695 0.55237 0.380957 0
M  V30 1040 H 98.1135 1.96207 0.576467 0
M  V30 1041 H 96.2685 2.43303 3.01467 0
M  V30 1042 H 96.6825 4.59342 2.5319 0
M  V30 1043 H 98.1565 3.77084 4.03127 0
M  V30 1044 H 98.6335 2.0826 3.86684 0
M  V30 1045 H 99.2395 3.28345 2.70314 0
M  V30 1046 N 97.5546 -0.734337 1.39446 0
M  V30 1047 C 98.4846 -1.86155 1.40955 0
M  V30 1048 C 99.4656 -1.67898 0.272827 0
M  V30 1049 O 100.651 -1.88207 0.478743 0
M  V30 1050 C 97.7806 -3.23912 1.25294 0
M  V30 1051 C 96.7346 -3.56808 2.36373 0
M  V30 1052 C 96.0606 -4.93508 2.058 0
M  V30 1053 C 97.3606 -3.59713 3.78687 0
M  V30 1054 H 99.0546 -1.8515 2.35287 0
M  V30 1055 H 96.6006 -0.889367 1.13253 0
M  V30 1056 H 98.5536 -4.02443 1.2497 0
M  V30 1057 H 97.2776 -3.25446 0.274308 0
M  V30 1058 H 95.9366 -2.80606 2.35914 0
M  V30 1059 H 95.5846 -4.91623 1.06374 0
M  V30 1060 H 95.2846 -5.16486 2.80208 0
M  V30 1061 H 96.8086 -5.74396 2.07128 0
M  V30 1062 H 98.2226 -4.2832 3.81071 0
M  V30 1063 H 96.6196 -3.94209 4.52459 0
M  V30 1064 H 97.6896 -2.59504 4.09617 0
M  V30 1065 N 99.0327 -1.24633 -0.964593 0
M  V30 1066 C 99.9827 -1.00841 -2.04487 0
M  V30 1067 C 100.967 0.0512468 -1.60818 0
M  V30 1068 O 102.159 -0.162865 -1.76249 0
M  V30 1069 C 99.2877 -0.618474 -3.37683 0
M  V30 1070 C 98.3737 -1.71437 -3.87905 0
M  V30 1071 N 98.7647 -2.9477 -4.11029 0
M  V30 1072 C 97.0627 -1.5926 -4.16596 0
M  V30 1073 C 97.7637 -3.65834 -4.52261 0
M  V30 1074 N 96.7397 -2.9341 -4.57615 0
M  V30 1075 H 100.542 -1.94487 -2.20345 0
M  V30 1076 H 98.0557 -1.14805 -1.14863 0
M  V30 1077 H 100.053 -0.429247 -4.14684 0
M  V30 1078 H 98.7127 0.310766 -3.23209 0
M  V30 1079 H 99.7237 -3.30917 -3.9839 0
M  V30 1080 H 96.4007 -0.731606 -4.1104 0
M  V30 1081 H 97.7907 -4.71646 -4.78539 0
M  V30 1082 N 100.511 1.16574 -1.06058 0
M  V30 1083 C 101.459 2.22941 -0.663343 0
M  V30 1084 C 102.453 1.66358 0.319593 0
M  V30 1085 O 103.659 1.7905 0.184713 0
M  V30 1086 H 100.034 0.725907 -0.196376 0
M  V30 1087 H 102.005 2.53736 -1.57037 0
M  V30 1088 C 100.754 3.47642 -0.0632808 0
M  V30 1089 H 100.077 3.91493 -0.810733 0
M  V30 1090 H 101.517 4.2363 0.177177 0
M  V30 1091 C 99.9758 3.1509 1.19248 0
M  V30 1092 O 100.506 3.30673 2.28075 0
M  V30 1093 N 98.7118 2.6924 1.09353 0
M  V30 1094 H 98.2588 2.5676 0.207912 0
M  V30 1095 H 98.2168 2.47833 1.93458 0
M  V30 1096 N 101.989 0.842826 1.3317 0
M  V30 1097 C 103.219 0.453397 2.01564 0
M  V30 1098 C 103.627 -0.951147 1.63554 0
M  V30 1099 O 102.97 -1.63021 0.846746 0
M  V30 1100 C 103.032 0.499013 3.5602 0
M  V30 1101 C 102.696 1.86037 4.1742 0
M  V30 1102 C 103.693 2.82416 4.36506 0
M  V30 1103 C 101.378 2.15428 4.53757 0
M  V30 1104 C 103.372 4.06346 4.91082 0
M  V30 1105 C 101.059 3.39615 5.0804 0
M  V30 1106 C 102.057 4.3489 5.26649 0
M  V30 1107 O 101.745 5.5688 5.79776 0
M  V30 1108 H 101.477 0.177871 0.652179 0
M  V30 1109 H 104.031 1.13808 1.70988 0
M  V30 1110 H 102.261 -0.242467 3.85939 0
M  V30 1111 H 103.95 0.126852 4.05702 0
M  V30 1112 H 104.716 2.6101 4.08777 0
M  V30 1113 H 100.595 1.42061 4.38565 0
M  V30 1114 H 104.139 4.80722 5.05522 0
M  V30 1115 H 100.036 3.60876 5.352 0
M  V30 1116 H 100.804 5.58674 5.98185 0
M  V30 1117 N 103.467 -1.45747 0.599634 0
M  V30 1118 C 104.715 -2.01893 0.0915472 0
M  V30 1119 C 105.036 -1.47155 -1.27946 0
M  V30 1120 O 104.306 -0.66273 -1.84349 0
M  V30 1121 H 102.886 -0.746363 0.0308524 0
M  V30 1122 H 105.548 -1.78645 0.779237 0
M  V30 1123 H 104.644 -3.1208 0.0353086 0
M  V30 1124 N 104.945 -0.338344 -1.53925 0
M  V30 1125 C 105.878 0.563758 -2.21127 0
M  V30 1126 C 106.856 1.10433 -1.19345 0
M  V30 1127 O 108.04 1.16557 -1.48144 0
M  V30 1128 C 105.167 1.77505 -2.88461 0
M  V30 1129 C 104.213 1.3644 -4.04087 0
M  V30 1130 S 105.046 0.388593 -5.34088 0
M  V30 1131 C 106.202 1.60683 -6.04923 0
M  V30 1132 H 106.435 -0.00704546 -2.97299 0
M  V30 1133 H 103.968 -0.122418 -1.53914 0
M  V30 1134 H 105.926 2.46999 -3.27875 0
M  V30 1135 H 104.587 2.31706 -2.12064 0
M  V30 1136 H 103.78 2.26739 -4.50117 0
M  V30 1137 H 103.382 0.748998 -3.66423 0
M  V30 1138 H 105.674 2.54209 -6.28 0
M  V30 1139 H 106.617 1.18842 -6.98056 0
M  V30 1140 H 107.025 1.80052 -5.35015 0
M  V30 1141 N 106.423 1.57458 -0.0668435 0
M  V30 1142 C 107.671 1.92919 0.602214 0
M  V30 1143 C 107.992 0.947215 1.70449 0
M  V30 1144 O 107.262 -0.00544117 1.95899 0
M  V30 1145 H 105.842 0.71217 0.22544 0
M  V30 1146 H 108.504 1.94508 -0.123535 0
M  V30 1147 H 107.6 2.94589 1.03073 0
M  V30 1148 N 107.901 -0.206675 1.56239 0
M  V30 1149 C 108.849 -1.27571 1.94495 0
M  V30 1150 C 109.843 -1.47737 0.828862 0
M  V30 1151 O 111.049 -1.48735 1.0138 0
M  V30 1152 H 107.424 -0.428029 0.6183 0
M  V30 1153 H 109.395 -0.925961 2.8367 0
M  V30 1154 C 108.144 -2.61568 2.29079 0
M  V30 1155 H 107.467 -2.46863 3.14482 0
M  V30 1156 H 108.907 -3.35144 2.5972 0
M  V30 1157 C 107.366 -3.17695 1.12123 0
M  V30 1158 O 107.896 -3.99801 0.390153 0
M  V30 1159 N 106.102 -2.76276 0.901097 0
M  V30 1160 H 105.649 -2.09613 1.49733 0
M  V30 1161 H 105.607 -3.1417 0.120319 0
M  V30 1162 N 109.379 -1.50304 -0.473955 0
M  V30 1163 C 110.289 -1.7174 -1.5982 0
M  V30 1164 C 111.305 -0.600457 -1.63311 0
M  V30 1165 O 112.481 -0.878441 -1.81233 0
M  V30 1166 C 109.546 -1.80427 -2.96052 0
M  V30 1167 C 108.607 -3.04148 -3.02972 0
M  V30 1168 C 107.84 -3.12411 -4.32706 0
M  V30 1169 O 108.063 -2.27542 -5.23049 0
M  V30 1170 O 106.997 -4.05113 -4.45159 0
M  V30 1171 H 110.823 -2.67035 -1.44657 0
M  V30 1172 H 108.408 -1.34366 -0.653148 0
M  V30 1173 H 110.29 -1.88338 -3.7697 0
M  V30 1174 H 108.965 -0.883156 -3.11419 0
M  V30 1175 H 107.872 -3.0174 -2.21142 0
M  V30 1176 H 109.205 -3.95829 -2.92541 0
M  V30 1177 N 110.857 0.726932 -1.39834 0
M  V30 1178 C 111.79 1.8501 -1.33592 0
M  V30 1179 C 112.768 1.61262 -0.208191 0
M  V30 1180 O 113.952 1.84422 -0.389981 0
M  V30 1181 C 111.079 3.21143 -1.07633 0
M  V30 1182 C 110.125 3.63737 -2.22705 0
M  V30 1183 S 110.958 3.72167 -3.85035 0
M  V30 1184 C 112.114 5.11077 -3.61318 0
M  V30 1185 H 112.347 1.90022 -2.28646 0
M  V30 1186 H 109.88 0.892595 -1.25985 0
M  V30 1187 H 111.838 3.99747 -0.933415 0
M  V30 1188 H 110.499 3.13776 -0.142526 0
M  V30 1189 H 109.692 4.62551 -2.00155 0
M  V30 1190 H 109.294 2.9236 -2.33242 0
M  V30 1191 H 111.586 5.97656 -3.19083 0
M  V30 1192 H 112.529 5.38658 -4.59623 0
M  V30 1193 H 112.937 4.81135 -2.95245 0
M  V30 1194 N 112.336 1.25143 0.95797 0
M  V30 1195 C 113.613 1.00472 1.67823 0
M  V30 1196 C 113.993 -0.470056 2.058 0
M  V30 1197 O 113.341 -1.44663 1.76875 0
M  V30 1198 C 113.551 1.9372 2.90299 0
M  V30 1199 C 114.899 2.21371 3.62326 0
M  V30 1200 O 115.923 1.91451 3.00375 0
M  V30 1201 O 114.782 2.72231 4.7387 0
M  V30 1202 H 111.876 0.380752 0.734137 0
M  V30 1203 H 114.422 1.36283 1.01119 0
M  V30 1204 H 113.194 2.93316 2.59001 0
M  V30 1205 H 112.817 1.58286 3.64735 0
M  V30 1206 N 113.814 -1.1601 1.06675 0
M  V30 1207 C 115.063 -1.85973 0.780818 0
M  V30 1208 C 115.376 -1.82819 -0.695444 0
M  V30 1209 O 116.582 -2.484 -1.09589 0
M  V30 1210 C 115.038 -3.33757 1.34665 0
M  V30 1211 C 114.646 -3.45374 2.85343 0
M  V30 1212 C 116.39 -4.0895 1.13843 0
M  V30 1213 C 114.297 -4.87266 3.35151 0
M  V30 1214 H 113.227 -0.696661 0.288407 0
M  V30 1215 H 115.878 -1.30903 1.28595 0
M  V30 1216 H 114.26 -3.88456 0.769274 0
M  V30 1217 H 115.434 -3.00816 3.49065 0
M  V30 1218 H 113.749 -2.83619 3.04876 0
M  V30 1219 H 116.346 -5.13654 1.4854 0
M  V30 1220 H 116.689 -4.16229 0.0770282 0
M  V30 1221 H 117.222 -3.605 1.68179 0
M  V30 1222 H 113.961 -4.85168 4.40786 0
M  V30 1223 H 113.481 -5.32433 2.76179 0
M  V30 1224 H 115.16 -5.56097 3.30704 0
M  V30 1225 N 115.292 -0.849877 -1.32721 0
M  V30 1226 C 116.539 -0.450923 -1.97416 0
M  V30 1227 C 116.867 0.992376 -1.67279 0
M  V30 1228 O 116.122 1.71048 -0.950845 0
M  V30 1229 C 116.421 -0.631272 -3.51781 0
M  V30 1230 C 116.087 -2.04432 -4.01894 0
M  V30 1231 C 114.749 -2.4308 -4.1529 0
M  V30 1232 C 117.101 -2.96679 -4.28522 0
M  V30 1233 C 114.429 -3.73257 -4.52654 0
M  V30 1234 C 116.781 -4.26349 -4.67343 0
M  V30 1235 C 115.445 -4.64939 -4.78945 0
M  V30 1236 H 114.715 -0.165004 -0.722395 0
M  V30 1237 H 117.362 -1.07901 -1.58207 0
M  V30 1238 H 115.667 0.0800767 -3.91718 0
M  V30 1239 H 117.364 -0.302709 -3.99856 0
M  V30 1240 H 113.954 -1.73419 -3.91949 0
M  V30 1241 H 118.138 -2.68054 -4.17685 0
M  V30 1242 H 113.394 -4.02946 -4.59831 0
M  V30 1243 H 117.568 -4.97895 -4.86902 0
M  V30 1244 H 115.195 -5.65855 -5.07654 0
M  V30 1245 N 116.77 1.45427 -0.607355 0
M  V30 1246 C 117.718 2.32269 0.12411 0
M  V30 1247 C 118.712 1.45955 0.859854 0
M  V30 1248 O 119.918 1.6244 0.775447 0
M  V30 1249 H 116.293 0.749691 0.0588839 0
M  V30 1250 H 118.264 2.91743 -0.626762 0
M  V30 1251 C 117.013 3.29567 1.1082 0
M  V30 1252 H 116.336 3.95978 0.551492 0
M  V30 1253 H 117.776 3.93061 1.58995 0
M  V30 1254 C 116.235 2.56722 2.18164 0
M  V30 1255 O 116.765 2.34842 3.25902 0
M  V30 1256 N 114.971 2.16861 1.93442 0
M  V30 1257 H 114.518 2.34855 1.05834 0
M  V30 1258 H 114.476 1.68444 2.65469 0
M  V30 1259 N 118.248 0.346503 1.53744 0
M  V30 1260 C 119.196 -0.52422 2.26616 0
M  V30 1261 C 120.19 -1.09948 1.28871 0
M  V30 1262 O 121.396 -1.04488 1.46568 0
M  V30 1263 H 117.771 -0.187743 0.728187 0
M  V30 1264 H 119.742 0.11239 2.98188 0
M  V30 1265 C 118.491 -1.66186 3.05414 0
M  V30 1266 H 117.814 -1.22848 3.80458 0
M  V30 1267 H 119.254 -2.24622 3.59612 0
M  V30 1268 C 117.713 -2.59302 2.1509 0
M  V30 1269 O 118.243 -3.61628 1.74895 0
M  V30 1270 N 116.449 -2.28055 1.8011 0
M  V30 1271 H 115.996 -1.44883 2.12994 0
M  V30 1272 H 115.954 -2.90615 1.19958 0
M  V30 1273 N 119.726 -1.57421 0.075193 0
M  V30 1274 C 120.656 -2.15942 -0.888324 0
M  V30 1275 C 121.637 -1.08737 -1.30806 0
M  V30 1276 O 122.822 -1.36787 -1.37851 0
M  V30 1277 C 119.952 -2.72379 -2.1547 0
M  V30 1278 C 118.906 -3.8478 -1.87425 0
M  V30 1279 C 118.232 -4.27834 -3.20721 0
M  V30 1280 C 119.532 -5.08869 -1.17684 0
M  V30 1281 H 121.226 -2.96705 -0.400799 0
M  V30 1282 H 118.772 -1.42723 -0.191342 0
M  V30 1283 H 120.725 -3.11965 -2.83295 0
M  V30 1284 H 119.449 -1.88841 -2.6647 0
M  V30 1285 H 118.108 -3.45703 -1.22004 0
M  V30 1286 H 117.756 -3.41214 -3.6957 0
M  V30 1287 H 117.456 -5.03605 -3.02746 0
M  V30 1288 H 118.98 -4.70039 -3.89738 0
M  V30 1289 H 120.394 -5.4575 -1.75584 0
M  V30 1290 H 118.791 -5.8994 -1.09956 0
M  V30 1291 H 119.861 -4.84648 -0.156453 0
M  V30 1292 N 121.204 0.198386 -1.56346 0
M  V30 1293 C 122.151 1.24589 -1.94284 0
M  V30 1294 C 123.121 1.454 -0.802997 0
M  V30 1295 O 124.306 1.58588 -1.06087 0
M  V30 1296 C 121.446 2.58631 -2.28482 0
M  V30 1297 C 120.559 2.45426 -3.55514 0
M  V30 1298 C 119.694 3.7215 -3.79049 0
M  V30 1299 C 118.733 3.53763 -4.99518 0
M  V30 1300 N 117.87 4.72491 -5.19323 0
M  V30 1301 H 122.71 0.915356 -2.83593 0
M  V30 1302 H 120.247 0.440629 -1.40346 0
M  V30 1303 H 122.205 3.3672 -2.46324 0
M  V30 1304 H 120.835 2.89734 -1.42317 0
M  V30 1305 H 119.887 1.58652 -3.45737 0
M  V30 1306 H 121.199 2.27772 -4.43758 0
M  V30 1307 H 120.353 4.58679 -3.97113 0
M  V30 1308 H 119.092 3.92754 -2.89129 0
M  V30 1309 H 118.097 2.65619 -4.8138 0
M  V30 1310 H 119.322 3.34607 -5.90944 0
M  V30 1311 H 117.268 4.93365 -4.3235 0
M  V30 1312 H 117.185 4.5765 -6.01741 0
M  V30 1313 H 118.453 5.6038 -5.41843 0
M  V30 1314 N 122.682 1.50554 0.465978 0
M  V30 1315 C 124.098 1.38093 0.800154 0
M  V30 1316 C 124.298 0.440988 1.96615 0
M  V30 1317 O 123.354 -0.114499 2.5224 0
M  V30 1318 C 124.667 2.79565 1.10742 0
M  V30 1319 C 126.215 2.88516 1.21357 0
M  V30 1320 C 126.69 4.30833 1.55393 0
M  V30 1321 N 128.181 4.33807 1.62375 0
M  V30 1322 C 128.916 5.40927 1.90225 0
M  V30 1323 N 128.412 6.58247 2.16062 0
M  V30 1324 N 130.205 5.28376 1.9177 0
M  V30 1325 H 122.356 2.10237 -0.302366 0
M  V30 1326 H 124.619 0.945203 -0.0727746 0
M  V30 1327 H 124.325 3.50208 0.323661 0
M  V30 1328 H 124.199 3.17125 2.04234 0
M  V30 1329 H 126.586 2.1809 1.98799 0
M  V30 1330 H 126.667 2.54492 0.258321 0
M  V30 1331 H 126.311 5.01799 0.784889 0
M  V30 1332 H 126.241 4.62347 2.52076 0
M  V30 1333 H 128.732 3.49212 1.44427 0
M  V30 1334 H 129.045 7.3569 2.36601 0
M  V30 1335 H 127.39 6.61413 2.13444 0
M  V30 1336 H 130.581 4.35715 1.71085 0
M  V30 1337 H 130.754 6.11944 2.13139 0
M  V30 1338 N 124.16 -0.719506 1.40217 0
M  V30 1339 C 125.09 -1.8465 1.42922 0
M  V30 1340 C 126.071 -1.67599 0.29062 0
M  V30 1341 O 127.256 -1.87688 0.498677 0
M  V30 1342 C 124.386 -3.22565 1.28722 0
M  V30 1343 C 123.34 -3.54281 2.40144 0
M  V30 1344 C 122.666 -4.91298 2.11023 0
M  V30 1345 C 123.966 -3.55676 3.82481 0
M  V30 1346 H 125.66 -1.82644 2.37237 0
M  V30 1347 H 123.206 -0.877305 1.1419 0
M  V30 1348 H 125.159 -4.01095 1.29232 0
M  V30 1349 H 123.883 -3.25137 0.308811 0
M  V30 1350 H 122.542 -2.78088 2.38877 0
M  V30 1351 H 122.19 -4.90468 1.11582 0
M  V30 1352 H 121.89 -5.13485 2.8567 0
M  V30 1353 H 123.414 -5.72166 2.13209 0
M  V30 1354 H 124.828 -4.24254 3.85592 0
M  V30 1355 H 123.225 -3.89388 4.56614 0
M  V30 1356 H 124.295 -2.55144 4.12346 0
M  V30 1357 N 125.638 -1.25649 -0.95132 0
M  V30 1358 C 126.568 -1.08808 -2.06599 0
M  V30 1359 C 127.549 0.00382547 -1.701 0
M  V30 1360 O 128.734 -0.166325 -1.93486 0
M  V30 1361 C 125.864 -0.709542 -3.39975 0
M  V30 1362 C 124.818 -1.75206 -3.90496 0
M  V30 1363 C 124.144 -1.22811 -5.20405 0
M  V30 1364 C 125.444 -3.15153 -4.16504 0
M  V30 1365 H 127.138 -2.02048 -2.20946 0
M  V30 1366 H 124.684 -0.972835 -1.06169 0
M  V30 1367 H 126.637 -0.578649 -4.17408 0
M  V30 1368 H 125.361 0.258556 -3.25575 0
M  V30 1369 H 124.02 -1.87145 -3.15234 0
M  V30 1370 H 123.668 -0.250145 -5.02378 0
M  V30 1371 H 123.368 -1.92492 -5.55176 0
M  V30 1372 H 124.892 -1.10968 -6.00432 0
M  V30 1373 H 126.306 -3.06349 -4.84586 0
M  V30 1374 H 124.703 -3.82333 -4.62538 0
M  V30 1375 H 125.773 -3.61966 -3.22658 0
M  V30 1376 N 127.117 1.15442 -1.07289 0
M  V30 1377 C 128.366 1.85557 -0.790669 0
M  V30 1378 C 128.679 1.83186 0.685739 0
M  V30 1379 O 129.885 2.48977 1.0827 0
M  V30 1380 C 128.341 3.33038 -1.36433 0
M  V30 1381 C 127.949 3.43856 -2.8717 0
M  V30 1382 C 129.693 4.0834 -1.1601 0
M  V30 1383 C 127.6 4.85482 -3.3773 0
M  V30 1384 H 126.53 0.695122 -0.292098 0
M  V30 1385 H 129.181 1.30219 -1.29287 0
M  V30 1386 H 127.563 3.88043 -0.789864 0
M  V30 1387 H 128.737 2.98961 -3.50655 0
M  V30 1388 H 127.052 2.81998 -3.06376 0
M  V30 1389 H 129.649 5.12859 -1.51262 0
M  V30 1390 H 129.992 4.16182 -0.0991007 0
M  V30 1391 H 130.525 3.59603 -1.70089 0
M  V30 1392 H 127.264 4.82823 -4.43353 0
M  V30 1393 H 126.784 5.30961 -2.78999 0
M  V30 1394 H 128.463 5.54335 -3.33648 0
M  V30 1395 N 128.595 0.856903 1.32268 0
M  V30 1396 C 129.825 0.47475 2.01071 0
M  V30 1397 C 130.233 -0.933746 1.64553 0
M  V30 1398 O 129.576 -1.62114 0.863989 0
M  V30 1399 C 129.638 0.536746 3.55471 0
M  V30 1400 C 129.302 1.90453 4.15423 0
M  V30 1401 C 130.299 2.87029 4.33486 0
M  V30 1402 C 127.984 2.20229 4.51447 0
M  V30 1403 C 129.978 4.11532 4.86744 0
M  V30 1404 C 127.665 3.44984 5.0441 0
M  V30 1405 C 128.663 4.40452 5.22007 0
M  V30 1406 O 128.351 5.62998 5.73837 0
M  V30 1407 H 128.083 0.184778 0.650256 0
M  V30 1408 H 130.637 1.15615 1.69771 0
M  V30 1409 H 128.867 -0.20152 3.86175 0
M  V30 1410 H 130.556 0.169875 4.05544 0
M  V30 1411 H 131.322 2.6533 4.05986 0
M  V30 1412 H 127.201 1.46705 4.37034 0
M  V30 1413 H 130.745 4.86056 5.00395 0
M  V30 1414 H 126.642 3.66532 5.31342 0
M  V30 1415 H 127.41 5.64987 5.92226 0
M  V30 1416 N 130.073 -1.45103 0.615059 0
M  V30 1417 C 131.023 -2.27679 -0.120966 0
M  V30 1418 C 132.007 -1.3775 -0.831491 0
M  V30 1419 O 133.199 -1.61683 -0.720249 0
M  V30 1420 C 130.328 -3.24767 -1.1127 0
M  V30 1421 C 129.414 -4.22184 -0.402627 0
M  V30 1422 N 129.805 -5.02692 0.559884 0
M  V30 1423 C 128.103 -4.4125 -0.649202 0
M  V30 1424 C 128.804 -5.73421 0.977942 0
M  V30 1425 N 127.78 -5.42657 0.320104 0
M  V30 1426 H 131.582 -2.87325 0.618181 0
M  V30 1427 H 129.096 -1.56345 0.439304 0
M  V30 1428 H 131.093 -3.82666 -1.65446 0
M  V30 1429 H 129.753 -2.66682 -1.85232 0
M  V30 1430 H 130.764 -5.09354 0.936976 0
M  V30 1431 H 127.441 -3.9428 -1.37293 0
M  V30 1432 H 128.831 -6.48107 1.77222 0
M  V30 1433 N 131.551 -0.354651 -1.53558 0
M  V30 1434 C 132.776 0.242153 -2.05981 0
M  V30 1435 C 133.201 1.42553 -1.2272 0
M  V30 1436 O 132.559 1.79656 -0.243604 0
M  V30 1437 C 132.607 0.624367 -3.55154 0
M  V30 1438 O 131.711 1.72301 -3.74681 0
M  V30 1439 H 131.052 0.0378432 -0.662921 0
M  V30 1440 H 133.582 -0.512087 -1.98088 0
M  V30 1441 H 133.592 0.898433 -3.97985 0
M  V30 1442 H 132.267 -0.240989 -4.15201 0
M  V30 1443 H 130.844 1.44535 -3.4375 0
M  V30 1444 N 133.029 1.57378 -0.0835403 0
M  V30 1445 C 133.939 2.16897 0.894021 0
M  V30 1446 C 134.955 1.13528 1.31861 0
M  V30 1447 O 136.131 1.45848 1.3889 0
M  V30 1448 C 133.196 2.72831 2.13925 0
M  V30 1449 C 132.257 3.91115 1.76997 0
M  V30 1450 C 131.49 4.44371 2.95584 0
M  V30 1451 O 131.713 3.96596 4.09961 0
M  V30 1452 O 130.647 5.35549 2.74719 0
M  V30 1453 H 134.473 3.00814 0.417679 0
M  V30 1454 H 132.058 1.48741 0.140181 0
M  V30 1455 H 133.94 3.0863 2.86924 0
M  V30 1456 H 132.615 1.91967 2.60635 0
M  V30 1457 H 131.522 3.60148 1.01214 0
M  V30 1458 H 132.855 4.73307 1.3506 0
M  V30 1459 N 134.507 -0.190092 1.56449 0
M  V30 1460 C 135.417 -1.25591 1.98152 0
M  V30 1461 C 136.433 -1.49519 0.889944 0
M  V30 1462 O 137.609 -1.62036 1.19609 0
M  V30 1463 C 134.674 -2.57916 2.3169 0
M  V30 1464 C 133.735 -2.42015 3.5458 0
M  V30 1465 C 132.968 -3.6803 3.8651 0
M  V30 1466 O 133.191 -4.72413 3.1966 0
M  V30 1467 O 132.125 -3.6326 4.79923 0
M  V30 1468 H 135.951 -0.931988 2.89046 0
M  V30 1469 H 133.536 -0.395488 1.4407 0
M  V30 1470 H 135.418 -3.36008 2.54316 0
M  V30 1471 H 134.093 -2.89925 1.43963 0
M  V30 1472 H 133 -1.62017 3.37196 0
M  V30 1473 H 134.333 -2.14937 4.4279 0
M  V30 1474 N 135.985 -1.50799 -0.457987 0
M  V30 1475 C 136.933 -1.71162 -1.575 0
M  V30 1476 C 137.927 -0.577592 -1.59249 0
M  V30 1477 O 139.133 -0.758443 -1.63241 0
M  V30 1478 H 135.508 -0.540468 -0.522875 0
M  V30 1479 H 137.479 -2.64837 -1.37492 0
M  V30 1480 C 136.228 -1.83496 -2.95338 0
M  V30 1481 H 135.551 -2.70153 -2.94716 0
M  V30 1482 H 136.991 -2.01765 -3.72917 0
M  V30 1483 C 135.45 -0.589694 -3.31699 0
M  V30 1484 O 135.98 0.265163 -4.00824 0
M  V30 1485 N 134.186 -0.439845 -2.87252 0
M  V30 1486 H 133.733 -1.13655 -2.31172 0
M  V30 1487 H 133.691 0.392159 -3.11945 0
M  V30 1488 N 137.463 0.71206 -1.40597 0
M  V30 1489 C 138.712 1.46754 -1.38369 0
M  V30 1490 C 139.025 1.95598 0.0097839 0
M  V30 1491 O 140.231 2.71059 0.154677 0
M  V30 1492 C 138.687 2.65289 -2.43207 0
M  V30 1493 C 138.295 2.23301 -3.88382 0
M  V30 1494 C 140.039 3.43008 -2.50091 0
M  V30 1495 C 137.946 3.38696 -4.84808 0
M  V30 1496 H 136.876 0.55118 -0.514506 0
M  V30 1497 H 139.527 0.774616 -1.66349 0
M  V30 1498 H 137.909 3.36769 -2.08332 0
M  V30 1499 H 139.083 1.59218 -4.32419 0
M  V30 1500 H 137.398 1.58618 -3.85006 0
M  V30 1501 H 139.995 4.28881 -3.1932 0
M  V30 1502 H 140.338 3.87065 -1.53253 0
M  V30 1503 H 140.871 2.78574 -2.83974 0
M  V30 1504 H 137.61 2.99668 -5.82992 0
M  V30 1505 H 137.13 4.01683 -4.45433 0
M  V30 1506 H 138.809 4.04712 -5.04794 0
M  V30 1507 N 138.941 1.26152 0.944643 0
M  V30 1508 C 139.889 1.07215 2.06417 0
M  V30 1509 C 140.883 9.2007e-05 1.694 0
M  V30 1510 O 142.089 0.1565 1.79318 0
M  V30 1511 H 138.464 0.329837 0.675805 0
M  V30 1512 H 140.435 2.02099 2.19541 0
M  V30 1513 C 139.184 0.718197 3.40202 0
M  V30 1514 H 138.507 1.53497 3.69159 0
M  V30 1515 H 139.947 0.625459 4.19361 0
M  V30 1516 C 138.406 -0.576435 3.31932 0
M  V30 1517 O 138.936 -1.61574 3.67773 0
M  V30 1518 N 137.142 -0.565781 2.85039 0
M  V30 1519 H 136.689 0.280367 2.5607 0
M  V30 1520 H 136.647 -1.43213 2.79888 0
M  V30 1521 N 140.419 -1.14872 1.07899 0
M  V30 1522 C 141.647 -1.89661 0.82683 0
M  V30 1523 C 142.062 -1.78312 -0.620519 0
M  V30 1524 O 141.419 -1.13888 -1.42604 0
M  V30 1525 C 141.47 -3.39817 1.23316 0
M  V30 1526 O 141.191 -3.50845 2.62372 0
M  V30 1527 C 142.692 -4.31615 1.0111 0
M  V30 1528 H 139.912 -0.60092 0.298557 0
M  V30 1529 H 142.456 -1.4551 1.43691 0
M  V30 1530 H 140.611 -3.8161 0.667286 0
M  V30 1531 H 141.025 -4.44076 2.79101 0
M  V30 1532 H 142.499 -5.35367 1.34486 0
M  V30 1533 H 142.976 -4.39169 -0.0522168 0
M  V30 1534 H 143.582 -3.95572 1.56215 0
M  V30 1535 N 141.898 -0.863906 -1.31812 0
M  V30 1536 C 142.828 -0.330843 -2.31144 0
M  V30 1537 C 143.809 0.575005 -1.60087 0
M  V30 1538 O 144.994 0.493304 -1.8783 0
M  V30 1539 C 142.124 0.47374 -3.44054 0
M  V30 1540 C 141.078 -0.338481 -4.26659 0
M  V30 1541 C 140.404 0.591412 -5.31419 0
M  V30 1542 C 141.704 -1.56926 -4.98168 0
M  V30 1543 H 143.398 -1.16086 -2.75979 0
M  V30 1544 H 140.944 -0.559657 -1.32679 0
M  V30 1545 H 142.897 0.857143 -4.12591 0
M  V30 1546 H 141.621 1.33721 -2.9797 0
M  V30 1547 H 140.28 -0.703754 -3.59782 0
M  V30 1548 H 139.928 1.45199 -4.81587 0
M  V30 1549 H 139.628 0.0519022 -5.87577 0
M  V30 1550 H 141.152 0.97179 -6.02817 0
M  V30 1551 H 142.566 -1.25764 -5.59336 0
M  V30 1552 H 140.963 -2.04739 -5.64094 0
M  V30 1553 H 142.033 -2.32544 -4.25501 0
M  V30 1554 N 143.376 1.44774 -0.622745 0
M  V30 1555 C 144.323 2.30635 0.0871679 0
M  V30 1556 C 145.293 1.42994 0.845097 0
M  V30 1557 O 146.478 1.71907 0.827812 0
M  V30 1558 C 143.618 3.28144 1.06844 0
M  V30 1559 C 142.731 4.30888 0.309809 0
M  V30 1560 C 141.866 5.15494 1.28215 0
M  V30 1561 C 140.905 6.09953 0.512198 0
M  V30 1562 N 140.042 6.87287 1.43458 0
M  V30 1563 H 144.882 2.90803 -0.650974 0
M  V30 1564 H 142.419 1.43286 -0.33281 0
M  V30 1565 H 144.377 3.83157 1.65066 0
M  V30 1566 H 143.007 2.69695 1.77382 0
M  V30 1567 H 142.059 3.78414 -0.388181 0
M  V30 1568 H 143.371 4.97955 -0.290254 0
M  V30 1569 H 142.525 5.74983 1.93596 0
M  V30 1570 H 141.264 4.48481 1.91614 0
M  V30 1571 H 140.269 5.49581 -0.155151 0
M  V30 1572 H 141.494 6.78999 -0.116958 0
M  V30 1573 H 139.44 6.2295 2.05594 0
M  V30 1574 H 139.357 7.50763 0.888335 0
M  V30 1575 H 140.625 7.51306 2.07749 0
M  V30 1576 N 144.854 0.36279 1.53368 0
M  V30 1577 C 145.802 -0.500155 2.27159 0
M  V30 1578 C 146.796 -1.08575 1.3003 0
M  V30 1579 O 148.002 -1.02927 1.47668 0
M  V30 1580 H 144.377 -0.180009 0.730138 0
M  V30 1581 H 146.348 0.14401 2.98052 0
M  V30 1582 C 145.097 -1.62937 3.07159 0
M  V30 1583 H 144.42 -1.18806 3.8174 0
M  V30 1584 H 145.86 -2.20795 3.61975 0
M  V30 1585 C 144.319 -2.57007 2.17829 0
M  V30 1586 O 144.849 -3.59752 1.78721 0
M  V30 1587 N 143.055 -2.26131 1.82518 0
M  V30 1588 H 142.602 -1.42616 2.14519 0
M  V30 1589 H 142.56 -2.89327 1.23034 0
M  V30 1590 N 146.332 -1.57332 0.0918853 0
M  V30 1591 C 147.279 -2.13847 -0.868211 0
M  V30 1592 C 148.249 -1.05618 -1.28196 0
M  V30 1593 O 149.434 -1.33387 -1.36427 0
M  V30 1594 C 146.574 -2.72062 -2.12312 0
M  V30 1595 C 145.687 -3.94514 -1.7602 0
M  V30 1596 C 144.822 -4.40903 -2.96273 0
M  V30 1597 C 143.861 -5.55953 -2.56092 0
M  V30 1598 N 142.998 -5.97209 -3.69169 0
M  V30 1599 H 147.838 -2.95575 -0.379406 0
M  V30 1600 H 145.375 -1.46048 -0.175606 0
M  V30 1601 H 147.333 -3.03931 -2.858 0
M  V30 1602 H 145.963 -1.93068 -2.58698 0
M  V30 1603 H 145.015 -3.68979 -0.925135 0
M  V30 1604 H 146.327 -4.7802 -1.42472 0
M  V30 1605 H 145.481 -4.74539 -3.78018 0
M  V30 1606 H 144.22 -3.56291 -3.33029 0
M  V30 1607 H 143.225 -5.21948 -1.72773 0
M  V30 1608 H 144.45 -6.42311 -2.20484 0
M  V30 1609 H 142.396 -5.15543 -4.05649 0
M  V30 1610 H 142.313 -6.75504 -3.39456 0
M  V30 1611 H 143.581 -6.35475 -4.51434 0
M  V30 1612 N 147.81 0.181792 -1.56548 0
M  V30 1613 C 149.057 0.900097 -1.81396 0
M  V30 1614 C 149.385 1.82695 -0.667281 0
M  V30 1615 O 148.64 1.92614 0.346146 0
M  V30 1616 C 148.939 1.73728 -3.12335 0
M  V30 1617 C 148.605 0.960255 -4.40556 0
M  V30 1618 C 147.267 0.745766 -4.75386 0
M  V30 1619 C 149.619 0.414477 -5.19549 0
M  V30 1620 C 146.947 -0.0257694 -5.86694 0
M  V30 1621 C 149.299 -0.343916 -6.31664 0
M  V30 1622 C 147.963 -0.569301 -6.65068 0
M  V30 1623 H 147.233 0.329369 -0.663775 0
M  V30 1624 H 149.88 0.165647 -1.90782 0
M  V30 1625 H 148.185 2.54081 -2.98245 0
M  V30 1626 H 149.882 2.29591 -3.28769 0
M  V30 1627 H 146.472 1.13746 -4.13231 0
M  V30 1628 H 150.656 0.567554 -4.93044 0
M  V30 1629 H 145.912 -0.210233 -6.11038 0
M  V30 1630 H 150.086 -0.774133 -6.92084 0
M  V30 1631 H 147.713 -1.16903 -7.51158 0
M  V30 1632 N 149.288 1.51039 0.449983 0
M  V30 1633 C 150.704 1.38934 0.785462 0
M  V30 1634 C 150.904 0.461817 1.96136 0
M  V30 1635 O 149.96 -0.0877389 2.52348 0
M  V30 1636 C 151.273 2.80724 1.0777 0
M  V30 1637 C 152.821 2.89787 1.1829 0
M  V30 1638 C 153.296 4.32457 1.50815 0
M  V30 1639 N 154.787 4.35505 1.57764 0
M  V30 1640 C 155.522 5.42914 1.84477 0
M  V30 1641 N 155.018 6.60502 2.09068 0
M  V30 1642 N 156.811 5.3038 1.86155 0
M  V30 1643 H 148.962 2.09904 -0.324647 0
M  V30 1644 H 151.225 0.944378 -0.0827957 0
M  V30 1645 H 150.931 3.50531 0.286498 0
M  V30 1646 H 150.805 3.19273 2.00859 0
M  V30 1647 H 153.192 2.20186 1.96474 0
M  V30 1648 H 153.273 2.54752 0.231314 0
M  V30 1649 H 152.917 5.02603 0.731622 0
M  V30 1650 H 152.847 4.64995 2.47158 0
M  V30 1651 H 155.338 3.50724 1.40715 0
M  V30 1652 H 155.651 7.38158 2.28785 0
M  V30 1653 H 153.996 6.63639 2.06416 0
M  V30 1654 H 157.187 4.37505 1.66454 0
M  V30 1655 H 157.36 6.1417 2.06637 0
M  V30 1656 N 150.766 -0.704594 1.40972 0
M  V30 1657 C 151.714 -1.83994 1.42299 0
M  V30 1658 C 152.708 -1.66684 0.302111 0
M  V30 1659 O 153.914 -1.73655 0.473697 0
M  V30 1660 H 150.289 -0.606171 0.44504 0
M  V30 1661 H 152.26 -1.79992 2.38003 0
M  V30 1662 C 151.009 -3.21946 1.31323 0
M  V30 1663 H 150.332 -3.35878 2.16855 0
M  V30 1664 H 151.772 -4.01491 1.36311 0
M  V30 1665 C 150.231 -3.36891 0.0245977 0
M  V30 1666 O 150.761 -3.90687 -0.934153 0
M  V30 1667 N 148.967 -2.90559 -0.0485243 0
M  V30 1668 H 148.514 -2.46968 0.732419 0
M  V30 1669 H 148.472 -3.00937 -0.910171 0
M  V30 1670 N 152.244 -1.26651 -0.937939 0
M  V30 1671 C 153.207 -1.08546 -2.01867 0
M  V30 1672 C 154.207 -0.0327327 -1.60767 0
M  V30 1673 O 155.397 -0.276427 -1.71993 0
M  V30 1674 C 152.529 -0.651711 -3.34613 0
M  V30 1675 H 153.722 -2.04502 -2.1936 0
M  V30 1676 H 151.275 -1.09294 -1.11734 0
M  V30 1677 H 152.01 0.309696 -3.22818 0
M  V30 1678 H 151.795 -1.41189 -3.65798 0
M  V30 1679 H 153.285 -0.546973 -4.14002 0
M  V30 1680 N 153.722 1.14298 -1.08507 0
M  V30 1681 C 154.685 2.17607 -0.719711 0
M  V30 1682 C 155.685 1.58907 0.245997 0
M  V30 1683 O 156.875 1.74181 0.0254081 0
M  V30 1684 C 154.007 3.40842 -0.0627695 0
M  V30 1685 H 155.2 2.51443 -1.63452 0
M  V30 1686 H 152.753 1.28963 -0.88307 0
M  V30 1687 H 153.488 3.12587 0.863716 0
M  V30 1688 H 153.273 3.84713 -0.757504 0
M  V30 1689 H 154.763 4.17221 0.177786 0
M  V30 1690 N 155.201 0.870884 1.31352 0
M  V30 1691 C 156.447 0.482987 1.96965 0
M  V30 1692 C 156.78 -0.962462 1.68672 0
M  V30 1693 O 156.055 -1.6779 0.98371 0
M  V30 1694 C 156.338 0.741752 3.52378 0
M  V30 1695 C 156.191 2.2368 3.9024 0
M  V30 1696 C 157.51 0.208838 4.39604 0
M  V30 1697 H 154.629 0.176955 0.715441 0
M  V30 1698 H 157.271 1.09229 1.55464 0
M  V30 1699 H 155.421 0.223149 3.87859 0
M  V30 1700 H 157.093 2.82273 3.64856 0
M  V30 1701 H 155.336 2.70901 3.38814 0
M  V30 1702 H 156.007 2.3685 4.98604 0
M  V30 1703 H 158.483 0.652529 4.10952 0
M  V30 1704 H 157.359 0.419336 5.47296 0
M  V30 1705 H 157.62 -0.889275 4.33064 0
M  V30 1706 N 156.679 -1.44442 0.630414 0
M  V30 1707 C 157.919 -2.03934 0.137919 0
M  V30 1708 C 158.283 -1.48509 -1.21692 0
M  V30 1709 O 159.484 -1.99499 -1.80149 0
M  V30 1710 C 157.755 -3.57187 0.123373 0
M  V30 1711 S 159.314 -4.37741 -0.304604 0
M  V30 1712 H 156.132 -0.708401 0.0607353 0
M  V30 1713 H 158.734 -1.76835 0.833643 0
M  V30 1714 H 157.438 -3.95032 1.11256 0
M  V30 1715 H 156.969 -3.88895 -0.59362 0
M  V30 1716 H 158.984 -4.71403 -1.54897 0
M  V30 1717 N 158.157 -0.370918 -1.53173 0
M  V30 1718 C 159.087 0.464847 -2.28826 0
M  V30 1719 C 160.068 1.07936 -1.31468 0
M  V30 1720 O 161.253 1.0956 -1.60344 0
M  V30 1721 C 158.383 1.60196 -3.08147 0
M  V30 1722 C 157.337 1.11443 -4.13237 0
M  V30 1723 C 156.663 2.3422 -4.80672 0
M  V30 1724 C 157.963 0.195384 -5.21934 0
M  V30 1725 H 159.657 -0.166329 -2.98938 0
M  V30 1726 H 157.203 -0.0814359 -1.4377 0
M  V30 1727 H 159.156 2.19332 -3.59822 0
M  V30 1728 H 157.88 2.26045 -2.35735 0
M  V30 1729 H 156.539 0.545727 -3.62515 0
M  V30 1730 H 156.187 2.98537 -4.04827 0
M  V30 1731 H 155.887 2.02269 -5.51689 0
M  V30 1732 H 157.411 2.94032 -5.35143 0
M  V30 1733 H 158.825 0.694375 -5.69079 0
M  V30 1734 H 157.222 -0.0335027 -6.00091 0
M  V30 1735 H 158.292 -0.760961 -4.78892 0
M  V30 1736 N 159.635 1.57281 -0.100228 0
M  V30 1737 C 160.582 2.14305 0.856858 0
M  V30 1738 C 161.552 1.06296 1.27634 0
M  V30 1739 O 162.737 1.34109 1.35718 0
M  V30 1740 C 159.877 2.73184 2.10866 0
M  V30 1741 C 158.99 3.95442 1.73925 0
M  V30 1742 C 158.125 4.42468 2.93931 0
M  V30 1743 C 157.164 5.57303 2.5314 0
M  V30 1744 N 156.301 5.99158 3.65997 0
M  V30 1745 H 161.141 2.95772 0.363726 0
M  V30 1746 H 158.678 1.46139 0.167858 0
M  V30 1747 H 160.636 3.05442 2.84185 0
M  V30 1748 H 159.266 1.94437 2.57671 0
M  V30 1749 H 158.318 3.69464 0.905554 0
M  V30 1750 H 159.63 4.78769 1.39935 0
M  V30 1751 H 158.784 4.76537 3.75496 0
M  V30 1752 H 157.523 3.58052 3.31134 0
M  V30 1753 H 156.528 5.22857 1.70003 0
M  V30 1754 H 157.753 6.43471 2.17075 0
M  V30 1755 H 155.699 5.17687 4.02909 0
M  V30 1756 H 155.616 6.77295 3.35869 0
M  V30 1757 H 156.884 6.3786 4.48057 0
M  V30 1758 N 161.113 -0.173488 1.56642 0
M  V30 1759 C 162.061 -1.23417 1.97157 0
M  V30 1760 C 163.055 -1.45946 0.860013 0
M  V30 1761 O 164.261 -1.46551 1.04512 0
M  V30 1762 H 160.636 -0.414818 0.62724 0
M  V30 1763 H 162.607 -0.865582 2.8557 0
M  V30 1764 C 161.356 -2.5665 2.34576 0
M  V30 1765 H 160.679 -2.40137 3.19647 0
M  V30 1766 H 162.119 -3.2956 2.6677 0
M  V30 1767 C 160.578 -3.15245 1.18836 0
M  V30 1768 O 161.108 -3.98883 0.474869 0
M  V30 1769 N 159.314 -2.74303 0.959497 0
M  V30 1770 H 158.861 -2.0639 1.54146 0
M  V30 1771 H 158.819 -3.13844 0.186932 0
M  V30 1772 N 162.591 -1.51276 -0.441967 0
M  V30 1773 C 163.837 -1.63958 -1.19355 0
M  V30 1774 C 164.17 -0.352543 -1.90973 0
M  V30 1775 O 163.445 0.647627 -1.83401 0
M  V30 1776 C 163.728 -2.83979 -2.21422 0
M  V30 1777 C 163.581 -4.22646 -1.53918 0
M  V30 1778 C 164.9 -2.99521 -3.22451 0
M  V30 1779 H 162.019 -0.596709 -0.432559 0
M  V30 1780 H 164.661 -1.83748 -0.483398 0
M  V30 1781 H 162.811 -2.67237 -2.81987 0
M  V30 1782 H 164.483 -4.51045 -0.967256 0
M  V30 1783 H 162.726 -4.25558 -0.841615 0
M  V30 1784 H 163.397 -5.02609 -2.28229 0
M  V30 1785 H 165.873 -3.14944 -2.71937 0
M  V30 1786 H 164.749 -3.85072 -3.91166 0
M  V30 1787 H 165.01 -2.11391 -3.88287 0
M  V30 1788 N 164.069 0.697108 -1.41344 0
M  V30 1789 C 165.346 1.45154 -1.31109 0
M  V30 1790 C 165.726 2.11009 0.0620449 0
M  V30 1791 O 165.074 2.01571 1.07618 0
M  V30 1792 C 165.284 2.47223 -2.46337 0
M  V30 1793 C 166.632 3.1252 -2.87431 0
M  V30 1794 O 167.656 2.57547 -2.46065 0
M  V30 1795 O 166.515 4.12083 -3.58957 0
M  V30 1796 H 163.609 0.646365 -0.515889 0
M  V30 1797 H 166.155 0.727716 -1.53305 0
M  V30 1798 H 164.927 1.97204 -3.37974 0
M  V30 1799 H 164.55 3.27116 -2.2601 0
M  V30 1800 N 165.547 1.27147 0.931209 0
M  V30 1801 C 166.824 1.0401 1.65654 0
M  V30 1802 C 167.204 -0.426297 2.06751 0
M  V30 1803 O 166.552 -1.40879 1.79904 0
M  V30 1804 C 166.762 1.99834 2.86125 0
M  V30 1805 C 168.11 2.29007 3.57549 0
M  V30 1806 O 169.134 1.97779 2.96246 0
M  V30 1807 O 167.993 2.82222 4.67989 0
M  V30 1808 H 165.087 0.396239 0.725895 0
M  V30 1809 H 167.633 1.38397 0.982056 0
M  V30 1810 H 166.405 2.98744 2.52721 0
M  V30 1811 H 166.028 1.65987 3.61295 0
M  V30 1812 N 167.025 -1.13721 1.09112 0
M  V30 1813 C 168.271 -1.85413 0.836283 0
M  V30 1814 C 168.626 -1.8175 -0.631249 0
M  V30 1815 O 167.919 -1.24238 -1.45861 0
M  V30 1816 C 168.113 -3.32861 1.30146 0
M  V30 1817 C 167.942 -3.50882 2.81268 0
M  V30 1818 C 166.712 -3.65312 3.49106 0
M  V30 1819 C 168.91 -3.47196 3.7942 0
M  V30 1820 N 166.892 -3.71563 4.88686 0
M  V30 1821 C 168.263 -3.59777 5.04936 0
M  V30 1822 C 170.318 -3.30577 3.72321 0
M  V30 1823 C 169.021 -3.57455 6.24194 0
M  V30 1824 C 171.047 -3.29562 4.91063 0
M  V30 1825 C 170.409 -3.42691 6.15421 0
M  V30 1826 H 166.508 -0.694812 0.358832 0
M  V30 1827 H 169.092 -1.36246 1.39087 0
M  V30 1828 H 167.263 -3.80602 0.774361 0
M  V30 1829 H 168.995 -3.92346 0.99229 0
M  V30 1830 H 165.75 -3.6685 2.9953 0
M  V30 1831 H 166.174 -3.78387 5.61384 0
M  V30 1832 H 170.816 -3.19332 2.77105 0
M  V30 1833 H 168.534 -3.67475 7.19714 0
M  V30 1834 H 172.12 -3.17905 4.87266 0
M  V30 1835 H 171 -3.41862 7.05762 0
M  V30 1836 N 168.503 -0.877838 -1.30888 0
M  V30 1837 C 169.752 -0.488793 -1.95688 0
M  V30 1838 C 170.065 0.965485 -1.70111 0
M  V30 1839 O 171.271 1.46104 -2.28836 0
M  V30 1840 C 169.727 -0.823201 -3.50359 0
M  V30 1841 C 169.335 -2.29477 -3.84765 0
M  V30 1842 C 171.079 -0.503009 -4.21509 0
M  V30 1843 C 168.986 -2.57118 -5.32583 0
M  V30 1844 H 167.916 -0.179062 -0.732429 0
M  V30 1845 H 170.567 -1.07183 -1.48943 0
M  V30 1846 H 168.949 -0.169331 -3.95638 0
M  V30 1847 H 170.123 -2.99236 -3.5042 0
M  V30 1848 H 168.438 -2.58178 -3.267 0
M  V30 1849 H 171.035 -0.68665 -5.30273 0
M  V30 1850 H 171.378 0.557109 -4.12555 0
M  V30 1851 H 171.911 -1.11376 -3.8189 0
M  V30 1852 H 168.65 -3.61843 -5.4658 0
M  V30 1853 H 168.17 -1.91961 -5.68253 0
M  V30 1854 H 169.849 -2.42251 -5.99936 0
M  V30 1855 N 169.982 1.44106 -0.638065 0
M  V30 1856 C 171.228 2.02277 -0.145546 0
M  V30 1857 C 171.561 1.50125 1.23191 0
M  V30 1858 O 170.836 0.688133 1.8192 0
M  V30 1859 C 171.119 3.59829 -0.139791 0
M  V30 1860 C 170.972 4.22247 -1.55008 0
M  V30 1861 C 172.291 4.36873 0.531966 0
M  V30 1862 H 169.41 0.734992 -0.0543632 0
M  V30 1863 H 172.052 1.71592 -0.815863 0
M  V30 1864 H 170.202 3.86102 0.431007 0
M  V30 1865 H 171.874 4.07057 -2.1703 0
M  V30 1866 H 170.117 3.79476 -2.10191 0
M  V30 1867 H 170.788 5.31284 -1.49804 0
M  V30 1868 H 173.264 4.16074 0.0464781 0
M  V30 1869 H 172.14 5.4657 0.505206 0
M  V30 1870 H 172.401 4.11995 1.60352 0
M  V30 1871 N 171.46 0.379036 1.52974 0
M  V30 1872 C 172.408 -0.476033 2.27677 0
M  V30 1873 C 173.402 -1.0719 1.31174 0
M  V30 1874 O 174.608 -1.01355 1.48752 0
M  V30 1875 H 170.983 -0.172255 0.732006 0
M  V30 1876 H 172.954 0.175615 2.97883 0
M  V30 1877 C 171.703 -1.5967 3.0887 0
M  V30 1878 H 171.026 -1.1475 3.82978 0
M  V30 1879 H 172.466 -2.16943 3.64296 0
M  V30 1880 C 170.925 -2.54682 2.20542 0
M  V30 1881 O 171.455 -3.57836 1.82527 0
M  V30 1882 N 169.661 -2.24183 1.84907 0
M  V30 1883 H 169.208 -1.40333 2.1602 0
M  V30 1884 H 169.166 -2.88006 1.26096 0
M  V30 1885 N 172.938 -1.57226 0.108567 0
M  V30 1886 C 173.885 -2.14756 -0.845481 0
M  V30 1887 C 174.855 -1.06971 -1.27068 0
M  V30 1888 O 176.04 -1.34827 -1.35005 0
M  V30 1889 C 173.18 -2.74298 -2.09415 0
M  V30 1890 C 172.293 -3.96358 -1.71826 0
M  V30 1891 C 171.428 -4.44021 -2.9158 0
M  V30 1892 C 170.467 -5.58637 -2.50181 0
M  V30 1893 N 169.604 -6.01091 -3.62814 0
M  V30 1894 H 174.444 -2.95961 -0.348035 0
M  V30 1895 H 171.981 -1.46226 -0.160106 0
M  V30 1896 H 173.939 -3.06945 -2.82561 0
M  V30 1897 H 172.569 -1.95801 -2.56636 0
M  V30 1898 H 171.621 -3.69939 -0.885947 0
M  V30 1899 H 172.933 -4.79504 -1.37394 0
M  V30 1900 H 172.087 -4.78522 -3.72963 0
M  V30 1901 H 170.826 -3.59803 -3.29231 0
M  V30 1902 H 169.831 -5.23751 -1.67228 0
M  V30 1903 H 171.056 -6.44613 -2.13659 0
M  V30 1904 H 169.002 -5.19817 -4.00158 0
M  V30 1905 H 168.919 -6.79066 -3.32273 0
M  V30 1906 H 170.187 -6.40227 -4.44668 0
M  V30 1907 N 174.416 0.165178 -1.56732 0
M  V30 1908 C 175.832 0.517174 -1.50988 0
M  V30 1909 C 176.032 1.84331 -0.813894 0
M  V30 1910 O 175.088 2.49672 -0.37682 0
M  V30 1911 C 176.401 0.544261 -2.95733 0
M  V30 1912 C 177.949 0.631039 -3.06573 0
M  V30 1913 C 178.424 0.68896 -4.52788 0
M  V30 1914 N 179.915 0.751683 -4.5706 0
M  V30 1915 C 180.65 0.817177 -5.67547 0
M  V30 1916 N 180.146 0.843129 -6.8765 0
M  V30 1917 N 181.939 0.856668 -5.55534 0
M  V30 1918 H 174.09 -0.704318 -2.00382 0
M  V30 1919 H 176.353 -0.254687 -0.913148 0
M  V30 1920 H 176.059 -0.361607 -3.49836 0
M  V30 1921 H 175.933 1.3886 -3.5071 0
M  V30 1922 H 178.32 1.52733 -2.52501 0
M  V30 1923 H 178.401 -0.240095 -2.54671 0
M  V30 1924 H 178.045 -0.2031 -5.07494 0
M  V30 1925 H 177.975 1.57633 -5.02454 0
M  V30 1926 H 180.466 0.739661 -3.70591 0
M  V30 1927 H 180.779 0.894448 -7.67606 0
M  V30 1928 H 179.124 0.811304 -6.90248 0
M  V30 1929 H 182.315 0.833437 -4.60621 0
M  V30 1930 H 182.488 0.904247 -6.4166 0
M  V30 1931 N 175.894 1.51508 0.433938 0
M  V30 1932 C 177.142 1.6402 1.18075 0
M  V30 1933 C 177.463 0.360328 1.91642 0
M  V30 1934 O 176.733 -0.623945 1.85698 0
M  V30 1935 H 175.313 0.6045 0.43885 0
M  V30 1936 H 177.975 1.88452 0.497178 0
M  V30 1937 H 177.071 2.46949 1.90847 0
M  V30 1938 N 177.372 -0.689602 1.41712 0
M  V30 1939 C 178.302 -1.81577 1.46806 0
M  V30 1940 C 179.283 -1.66945 0.326105 0
M  V30 1941 O 180.468 -1.86588 0.538377 0
M  V30 1942 C 177.598 -3.19762 1.35535 0
M  V30 1943 C 176.552 -3.49107 2.47605 0
M  V30 1944 C 175.878 -4.86711 2.21397 0
M  V30 1945 C 177.178 -3.47483 3.89939 0
M  V30 1946 H 178.872 -1.7757 2.41058 0
M  V30 1947 H 176.418 -0.852887 1.16025 0
M  V30 1948 H 178.371 -3.98263 1.3771 0
M  V30 1949 H 177.095 -3.24409 0.377708 0
M  V30 1950 H 175.754 -2.72959 2.44722 0
M  V30 1951 H 175.402 -4.8799 1.21961 0
M  V30 1952 H 175.102 -5.0731 2.96497 0
M  V30 1953 H 176.626 -5.67515 2.25297 0
M  V30 1954 H 178.04 -4.1598 3.94505 0
M  V30 1955 H 176.437 -3.79615 4.64771 0
M  V30 1956 H 177.507 -2.46341 4.17665 0
M  V30 1957 N 178.85 -1.27639 -0.924453 0
M  V30 1958 C 180.096 -1.14336 -1.67497 0
M  V30 1959 C 180.429 0.309465 -1.91718 0
M  V30 1960 O 179.704 1.22608 -1.50989 0
M  V30 1961 C 179.987 -1.93096 -3.0395 0
M  V30 1962 C 179.84 -3.46381 -2.8695 0
M  V30 1963 C 181.159 -1.73798 -4.0433 0
M  V30 1964 H 178.278 -0.416728 -0.607871 0
M  V30 1965 H 180.92 -1.56832 -1.07256 0
M  V30 1966 H 179.07 -1.56982 -3.55372 0
M  V30 1967 H 180.742 -3.92343 -2.42621 0
M  V30 1968 H 178.985 -3.72557 -2.22225 0
M  V30 1969 H 179.656 -3.96735 -3.83804 0
M  V30 1970 H 182.132 -2.05293 -3.61931 0
M  V30 1971 H 181.008 -2.31294 -4.97789 0
M  V30 1972 H 181.269 -0.686725 -4.36734 0
M  V30 1973 N 180.328 1.1314 -1.09713 0
M  V30 1974 C 181.258 2.20748 -0.761102 0
M  V30 1975 C 182.239 1.68061 0.262566 0
M  V30 1976 O 183.424 1.93765 0.129977 0
M  V30 1977 C 180.554 3.46812 -0.184054 0
M  V30 1978 C 179.508 4.12606 -1.13757 0
M  V30 1979 C 178.834 5.33031 -0.422083 0
M  V30 1980 C 180.134 4.59603 -2.48118 0
M  V30 1981 H 181.828 2.49113 -1.66082 0
M  V30 1982 H 179.374 1.19734 -0.799987 0
M  V30 1983 H 181.327 4.21353 0.0631215 0
M  V30 1984 H 180.051 3.17851 0.750868 0
M  V30 1985 H 178.71 3.40036 -1.37007 0
M  V30 1986 H 178.358 5.00335 0.517072 0
M  V30 1987 H 178.058 5.77999 -1.05788 0
M  V30 1988 H 179.582 6.10325 -0.183277 0
M  V30 1989 H 180.996 5.25552 -2.29059 0
M  V30 1990 H 179.393 5.15321 -3.07514 0
M  V30 1991 H 180.463 3.73971 -3.08665 0
M  V30 1992 N 181.806 0.884767 1.30421 0
M  V30 1993 C 183.217 0.553656 1.78302 0
M  V30 1994 C 183.568 -0.930153 1.7275 0
M  V30 1995 O 182.693 -1.72681 1.30423 0
M  V30 1996 C 183.288 0.998234 3.2376 0
M  V30 1997 C 181.847 0.71854 3.69478 0
M  V30 1998 C 180.994 1.18132 2.50879 0
M  V30 1999 H 183.945 1.06901 1.17294 0
M  V30 2000 H 183.966 0.327118 3.79091 0
M  V30 2001 H 183.478 2.0782 3.27769 0
M  V30 2002 H 181.579 -0.349444 3.70958 0
M  V30 2003 H 181.692 1.30595 4.60958 0
M  V30 2004 H 180.056 0.600669 2.47516 0
M  V30 2005 H 180.839 2.26902 2.57624 0
M  V30 2006 N 183.284 -1.43765 0.645699 0
M  V30 2007 C 184.194 -2.34544 -0.0512957 0
M  V30 2008 C 185.21 -1.53455 -0.82022 0
M  V30 2009 O 186.386 -1.86133 -0.769176 0
M  V30 2010 C 183.451 -3.31636 -1.01087 0
M  V30 2011 C 182.512 -4.2863 -0.239712 0
M  V30 2012 C 181.745 -5.21084 -1.15358 0
M  V30 2013 O 181.968 -5.1779 -2.39269 0
M  V30 2014 O 180.902 -5.98593 -0.630038 0
M  V30 2015 H 184.728 -2.95624 0.695718 0
M  V30 2016 H 182.313 -1.43781 0.405882 0
M  V30 2017 H 184.195 -3.9136 -1.56254 0
M  V30 2018 H 182.87 -2.73069 -1.73824 0
M  V30 2019 H 181.777 -3.72408 0.355356 0
M  V30 2020 H 183.11 -4.90157 0.447936 0
M  V30 2021 N 184.763 -0.387143 -1.52771 0
M  V30 2022 C 185.693 0.440551 -2.29306 0
M  V30 2023 C 186.674 1.06535 -1.32606 0
M  V30 2024 O 187.859 1.07853 -1.61497 0
M  V30 2025 C 184.989 1.56919 -3.09829 0
M  V30 2026 C 183.943 1.07054 -4.14395 0
M  V30 2027 C 183.269 2.29109 -4.83129 0
M  V30 2028 C 184.569 0.140015 -5.22112 0
M  V30 2029 H 186.263 -0.198026 -2.98744 0
M  V30 2030 H 183.809 -0.09668 -1.43675 0
M  V30 2031 H 185.762 2.15503 -3.62128 0
M  V30 2032 H 184.486 2.23532 -2.3812 0
M  V30 2033 H 183.145 0.507247 -3.63074 0
M  V30 2034 H 182.793 2.94227 -4.0797 0
M  V30 2035 H 182.493 1.96406 -5.53804 0
M  V30 2036 H 184.017 2.88339 -5.38231 0
M  V30 2037 H 185.431 0.633978 -5.69784 0
M  V30 2038 H 183.828 -0.0971485 -6.00021 0
M  V30 2039 H 184.898 -0.811711 -4.78058 0
M  V30 2040 N 186.241 1.57166 -0.116904 0
M  V30 2041 C 187.189 2.16457 0.851418 0
M  V30 2042 C 188.183 1.11323 1.27686 0
M  V30 2043 O 189.389 1.2963 1.24884 0
M  V30 2044 H 185.764 0.69271 0.292672 0
M  V30 2045 H 187.735 2.96605 0.32685 0
M  V30 2046 C 186.484 2.77689 2.09246 0
M  V30 2047 H 185.807 3.58285 1.77402 0
M  V30 2048 H 187.247 3.22716 2.7501 0
M  V30 2049 C 185.706 1.74667 2.88085 0
M  V30 2050 O 186.236 1.19877 3.83396 0
M  V30 2051 N 184.442 1.44656 2.52038 0
M  V30 2052 H 183.989 1.89402 1.74599 0
M  V30 2053 H 183.947 0.759675 3.05084 0
M  V30 2054 N 187.719 -0.156864 1.56817 0
M  V30 2055 C 188.949 -0.885031 1.86684 0
M  V30 2056 C 189.357 -1.75696 0.701954 0
M  V30 2057 O 188.7 -1.80569 -0.337732 0
M  V30 2058 C 188.762 -1.80092 3.11138 0
M  V30 2059 C 188.426 -1.10714 4.43386 0
M  V30 2060 C 189.423 -0.465714 5.1781 0
M  V30 2061 C 187.108 -1.09959 4.90117 0
M  V30 2062 C 189.102 0.174002 6.37162 0
M  V30 2063 C 186.789 -0.456055 6.09396 0
M  V30 2064 C 187.787 0.179622 6.82764 0
M  V30 2065 O 187.475 0.812975 7.99779 0
M  V30 2066 H 187.207 -0.261813 0.623242 0
M  V30 2067 H 189.761 -0.157383 2.04796 0
M  V30 2068 H 187.991 -2.56926 2.89009 0
M  V30 2069 H 189.68 -2.40018 3.27332 0
M  V30 2070 H 190.446 -0.463427 4.82781 0
M  V30 2071 H 186.325 -1.58378 4.3294 0
M  V30 2072 H 189.869 0.670765 6.94368 0
M  V30 2073 H 185.766 -0.455975 6.43888 0
M  V30 2074 H 186.534 0.71366 8.15383 0
M  V30 2075 N 189.197 -1.51736 -0.425897 0
M  V30 2076 C 190.474 -1.55519 -1.1863 0
M  V30 2077 C 190.854 -0.326219 -2.08564 0
M  V30 2078 O 190.202 0.688012 -2.17896 0
M  V30 2079 C 190.412 -2.87521 -1.9782 0
M  V30 2080 C 191.76 -3.39899 -2.54468 0
M  V30 2081 O 192.784 -2.89148 -2.08019 0
M  V30 2082 O 191.643 -4.2848 -3.39215 0
M  V30 2083 H 188.737 -0.625739 -0.540721 0
M  V30 2084 H 191.283 -1.64055 -0.434038 0
M  V30 2085 H 190.055 -3.68422 -1.31836 0
M  V30 2086 H 189.678 -2.822 -2.80088 0
M  V30 2087 N 190.675 0.682077 -1.42076 0
M  V30 2088 C 191.605 1.80796 -1.47767 0
M  V30 2089 C 192.586 1.6677 -0.334954 0
M  V30 2090 O 193.771 1.863 -0.548264 0
M  V30 2091 C 190.901 3.19038 -1.37229 0
M  V30 2092 C 189.855 3.47789 -2.49453 0
M  V30 2093 C 189.181 4.8553 -2.23975 0
M  V30 2094 C 190.481 3.45411 -3.91776 0
M  V30 2095 H 192.175 1.7629 -2.41997 0
M  V30 2096 H 189.721 0.846721 -1.16476 0
M  V30 2097 H 191.674 3.97528 -1.39821 0
M  V30 2098 H 190.398 3.24204 -0.394907 0
M  V30 2099 H 189.057 2.71657 -2.46166 0
M  V30 2100 H 188.705 4.87337 -1.24547 0
M  V30 2101 H 188.405 5.0573 -2.99184 0
M  V30 2102 H 189.929 5.66312 -2.28304 0
M  V30 2103 H 191.343 4.13882 -3.96705 0
M  V30 2104 H 189.74 3.77145 -4.66778 0
M  V30 2105 H 190.81 2.44122 -4.18966 0
M  V30 2106 N 192.153 1.28127 0.917671 0
M  V30 2107 C 193.063 1.13556 2.05286 0
M  V30 2108 C 194.079 0.0630914 1.73886 0
M  V30 2109 O 195.255 0.271598 1.9956 0
M  V30 2110 C 192.32 0.794676 3.3747 0
M  V30 2111 C 191.381 1.94909 3.82504 0
M  V30 2112 C 190.614 1.62437 5.0838 0
M  V30 2113 O 190.837 0.536905 5.67867 0
M  V30 2114 O 189.771 2.46677 5.4903 0
M  V30 2115 H 193.597 2.08844 2.20495 0
M  V30 2116 H 191.182 1.07409 1.03845 0
M  V30 2117 H 193.064 0.618344 4.16839 0
M  V30 2118 H 191.739 -0.128581 3.23445 0
M  V30 2119 H 190.646 2.18055 3.03978 0
M  V30 2120 H 191.979 2.85291 4.01086 0
M  V30 2121 N 193.631 -1.12557 1.10312 0
M  V30 2122 C 194.861 -1.87592 0.865617 0
M  V30 2123 C 195.269 -1.79851 -0.587389 0
M  V30 2124 O 194.612 -1.16949 -1.41664 0
M  V30 2125 C 194.674 -3.37665 1.23381 0
M  V30 2126 C 194.338 -3.69181 2.69359 0
M  V30 2127 C 195.335 -3.67652 3.67597 0
M  V30 2128 C 193.02 -3.98555 3.05711 0
M  V30 2129 C 195.014 -3.95053 5.00212 0
M  V30 2130 C 192.701 -4.25616 4.38514 0
M  V30 2131 C 193.699 -4.23851 5.35574 0
M  V30 2132 O 193.387 -4.50242 6.65986 0
M  V30 2133 H 193.119 -0.600442 0.310557 0
M  V30 2134 H 195.673 -1.4335 1.47105 0
M  V30 2135 H 193.903 -3.82454 0.571467 0
M  V30 2136 H 195.592 -3.94041 0.973994 0
M  V30 2137 H 196.358 -3.45024 3.40857 0
M  V30 2138 H 192.237 -3.99071 2.30789 0
M  V30 2139 H 195.781 -3.93591 5.75962 0
M  V30 2140 H 191.678 -4.47718 4.64994 0
M  V30 2141 H 192.446 -4.67867 6.71597 0
M  V30 2142 N 195.109 -0.891671 -1.2995 0
M  V30 2143 C 196.356 -0.513501 -1.95881 0
M  V30 2144 C 196.684 0.938655 -1.70351 0
M  V30 2145 O 195.939 1.67936 -1.00478 0
M  V30 2146 C 196.238 -0.742868 -3.49594 0
M  V30 2147 C 195.904 -2.17114 -3.95186 0
M  V30 2148 C 194.566 -2.56169 -4.07346 0
M  V30 2149 C 196.918 -3.10162 -4.18866 0
M  V30 2150 C 194.246 -3.87469 -4.4055 0
M  V30 2151 C 196.598 -4.41001 -4.53542 0
M  V30 2152 C 195.262 -4.79941 -4.63911 0
M  V30 2153 H 194.532 -0.187903 -0.71678 0
M  V30 2154 H 197.179 -1.1288 -1.54694 0
M  V30 2155 H 195.484 -0.044586 -3.91775 0
M  V30 2156 H 197.181 -0.429767 -3.9869 0
M  V30 2157 H 193.771 -1.85801 -3.86233 0
M  V30 2158 H 197.955 -2.81206 -4.08946 0
M  V30 2159 H 193.211 -4.17371 -4.46779 0
M  V30 2160 H 197.385 -5.13133 -4.70815 0
M  V30 2161 H 195.012 -5.81719 -4.89395 0
M  V30 2162 N 196.587 1.43421 -0.653314 0
M  V30 2163 C 197.535 2.32546 0.0501531 0
M  V30 2164 C 198.529 1.48617 0.812985 0
M  V30 2165 O 199.735 1.64825 0.723375 0
M  V30 2166 H 196.11 0.751185 0.0350032 0
M  V30 2167 H 198.081 2.89602 -0.719261 0
M  V30 2168 C 196.83 3.32925 1.00279 0
M  V30 2169 H 196.153 3.97532 0.425236 0
M  V30 2170 H 197.593 3.9792 1.46409 0
M  V30 2171 C 196.052 2.63532 2.09886 0
M  V30 2172 O 196.582 2.45092 3.18265 0
M  V30 2173 N 194.788 2.22905 1.86445 0
M  V30 2174 H 194.335 2.38103 0.98309 0
M  V30 2175 H 194.293 1.76805 2.59976 0
M  V30 2176 N 198.065 0.39524 1.52563 0
M  V30 2177 C 198.975 -0.444232 2.30356 0
M  V30 2178 C 199.991 -1.06615 1.37511 0
M  V30 2179 O 201.167 -1.07067 1.70583 0
M  V30 2180 C 198.232 -1.55315 3.09964 0
M  V30 2181 C 197.293 -0.955734 4.18526 0
M  V30 2182 C 196.526 -2.01181 4.9433 0
M  V30 2183 O 196.749 -3.22781 4.70285 0
M  V30 2184 O 195.683 -1.62579 5.79527 0
M  V30 2185 H 199.509 0.189667 3.03107 0
M  V30 2186 H 197.094 0.1588 1.48554 0
M  V30 2187 H 198.976 -2.19724 3.59582 0
M  V30 2188 H 197.651 -2.17191 2.4002 0
M  V30 2189 H 196.558 -0.274743 3.7309 0
M  V30 2190 H 197.891 -0.381109 4.90722 0
M  V30 2191 N 199.544 -1.57102 0.125237 0
M  V30 2192 C 200.494 -2.12202 -0.833936 0
M  V30 2193 C 201.478 -1.04433 -1.22403 0
M  V30 2194 O 202.67 -1.30655 -1.19408 0
M  V30 2195 C 199.799 -2.72994 -2.08157 0
M  V30 2196 C 198.885 -3.87852 -1.71556 0
M  V30 2197 N 199.276 -4.9464 -1.05662 0
M  V30 2198 C 197.574 -3.98153 -2.00973 0
M  V30 2199 C 198.275 -5.74953 -0.883376 0
M  V30 2200 N 197.251 -5.24985 -1.41036 0
M  V30 2201 H 201.053 -2.92141 -0.321035 0
M  V30 2202 H 198.567 -1.62217 -0.0770315 0
M  V30 2203 H 200.564 -3.10816 -2.77847 0
M  V30 2204 H 199.224 -1.9452 -2.59985 0
M  V30 2205 H 200.235 -5.12872 -0.719878 0
M  V30 2206 H 196.912 -3.30728 -2.54804 0
M  V30 2207 H 198.302 -6.70904 -0.365675 0
M  V30 2208 N 201.022 0.148545 -1.56898 0
M  V30 2209 C 201.952 1.18524 -2.01182 0
M  V30 2210 C 202.933 1.4489 -0.891123 0
M  V30 2211 O 204.118 1.55836 -1.15882 0
M  V30 2212 C 201.248 2.51879 -2.39112 0
M  V30 2213 C 200.202 2.40038 -3.54353 0
M  V30 2214 C 199.528 3.78089 -3.78091 0
M  V30 2215 C 200.828 1.88577 -4.87069 0
M  V30 2216 H 202.522 0.817029 -2.88036 0
M  V30 2217 H 200.068 0.391575 -1.38574 0
M  V30 2218 H 202.021 3.24627 -2.68692 0
M  V30 2219 H 200.745 2.90532 -1.49193 0
M  V30 2220 H 199.404 1.69742 -3.24936 0
M  V30 2221 H 199.052 4.14175 -2.85426 0
M  V30 2222 H 198.752 3.71028 -4.55645 0
M  V30 2223 H 200.276 4.52387 -4.10095 0
M  V30 2224 H 201.69 2.51117 -5.15377 0
M  V30 2225 H 200.087 1.9241 -5.68417 0
M  V30 2226 H 201.157 0.84136 -4.77545 0
M  V30 2227 N 202.5 1.5196 0.417844 0
M  V30 2228 C 203.73 1.69181 1.18581 0
M  V30 2229 C 204.138 0.397104 1.84986 0
M  V30 2230 O 203.481 -0.636011 1.72339 0
M  V30 2231 C 203.543 2.76497 2.29759 0
M  V30 2232 C 203.207 4.18514 1.83563 0
M  V30 2233 C 204.204 5.02648 1.32821 0
M  V30 2234 C 201.889 4.64708 1.90661 0
M  V30 2235 C 203.883 6.31044 0.897894 0
M  V30 2236 C 201.57 5.93096 1.47241 0
M  V30 2237 C 202.568 6.76093 0.968891 0
M  V30 2238 O 202.256 8.02078 0.540924 0
M  V30 2239 H 201.988 0.570457 0.362705 0
M  V30 2240 H 204.542 1.99249 0.498885 0
M  V30 2241 H 202.772 2.41786 3.01789 0
M  V30 2242 H 204.461 2.82403 2.91553 0
M  V30 2243 H 205.227 4.68154 1.26716 0
M  V30 2244 H 201.106 4.00216 2.28797 0
M  V30 2245 H 204.65 6.95776 0.504192 0
M  V30 2246 H 200.547 6.271 1.53022 0
M  V30 2247 H 201.315 8.15794 0.66502 0
M  V30 2248 N 203.978 -0.674533 1.42435 0
M  V30 2249 C 204.926 -1.80934 1.46169 0
M  V30 2250 C 205.92 -1.66006 0.3374 0
M  V30 2251 O 207.126 -1.72611 0.510425 0
M  V30 2252 H 203.501 -0.596594 0.457798 0
M  V30 2253 H 205.472 -1.74903 2.41767 0
M  V30 2254 C 204.221 -3.19088 1.38123 0
M  V30 2255 H 203.544 -3.31203 2.23931 0
M  V30 2256 H 204.984 -3.9851 1.44797 0
M  V30 2257 C 203.443 -3.36763 0.0960517 0
M  V30 2258 O 203.973 -3.92581 -0.851073 0
M  V30 2259 N 202.179 -2.90597 0.0131186 0
M  V30 2260 H 201.726 -2.45359 0.784639 0
M  V30 2261 H 201.684 -3.028 -0.846133 0
M  V30 2262 N 205.456 -1.28612 -0.910864 0
M  V30 2263 C 206.733 -1.06632 -1.63979 0
M  V30 2264 C 207.113 0.393351 -2.07403 0
M  V30 2265 O 206.461 1.37999 -1.82122 0
M  V30 2266 C 206.671 -2.0436 -2.8291 0
M  V30 2267 C 208.019 -2.34666 -3.5386 0
M  V30 2268 O 209.043 -2.02467 -2.93062 0
M  V30 2269 O 207.902 -2.89631 -4.63439 0
M  V30 2270 H 204.996 -0.407737 -0.7195 0
M  V30 2271 H 207.542 -1.39942 -0.959914 0
M  V30 2272 H 206.314 -3.02727 -2.47936 0
M  V30 2273 H 205.937 -1.71714 -3.58609 0
M  V30 2274 N 206.934 1.1197 -1.10907 0
M  V30 2275 C 207.881 2.17846 -0.762345 0
M  V30 2276 C 208.851 1.63995 0.263599 0
M  V30 2277 O 210.036 1.90273 0.141773 0
M  V30 2278 C 207.176 3.44487 -0.205651 0
M  V30 2279 C 206.289 4.12369 -1.28748 0
M  V30 2280 C 205.424 5.26674 -0.691919 0
M  V30 2281 C 204.463 5.86431 -1.75399 0
M  V30 2282 N 203.6 6.92142 -1.17833 0
M  V30 2283 H 208.44 2.46851 -1.6694 0
M  V30 2284 H 205.977 1.21188 -0.833776 0
M  V30 2285 H 207.935 4.16981 0.135037 0
M  V30 2286 H 206.565 3.15884 0.664613 0
M  V30 2287 H 205.617 3.38003 -1.74522 0
M  V30 2288 H 206.929 4.52844 -2.09125 0
M  V30 2289 H 206.083 6.05953 -0.300963 0
M  V30 2290 H 204.822 4.8749 0.143232 0
M  V30 2291 H 203.827 5.05835 -2.15432 0
M  V30 2292 H 205.052 6.27685 -2.59208 0
M  V30 2293 H 202.998 6.54985 -0.364725 0
M  V30 2294 H 202.915 7.31242 -1.91887 0
M  V30 2295 H 204.183 7.75237 -0.81408 0
M  V30 2296 N 208.412 0.89855 1.29475 0
M  V30 2297 C 209.36 0.365253 2.29714 0
M  V30 2298 C 210.354 -0.534993 1.6073 0
M  V30 2299 O 211.56 -0.417921 1.75081 0
M  V30 2300 H 207.935 0.0994853 0.74539 0
M  V30 2301 H 209.906 1.22406 2.72138 0
M  V30 2302 C 208.655 -0.393159 3.4547 0
M  V30 2303 H 207.978 0.290332 3.98744 0
M  V30 2304 H 209.418 -0.731189 4.17648 0
M  V30 2305 C 207.877 -1.59539 2.9673 0
M  V30 2306 O 208.407 -2.69469 2.97908 0
M  V30 2307 N 206.613 -1.43716 2.52575 0
M  V30 2308 H 206.16 -0.542828 2.51816 0
M  V30 2309 H 206.118 -2.24288 2.20323 0
M  V30 2310 N 209.89 -1.43072 0.660911 0
M  V30 2311 C 211.115 -2.06584 0.183805 0
M  V30 2312 C 211.54 -1.49257 -1.14472 0
M  V30 2313 O 210.898 -0.605528 -1.70889 0
M  V30 2314 C 210.946 -3.60418 0.114434 0
M  V30 2315 O 210.05 -4.01981 -0.921137 0
M  V30 2316 H 209.391 -0.656669 0.0983994 0
M  V30 2317 H 211.921 -1.83447 0.906006 0
M  V30 2318 H 211.931 -4.07946 -0.0663394 0
M  V30 2319 H 210.606 -4.01519 1.08422 0
M  V30 2320 H 209.183 -3.66029 -0.71253 0
M  V30 2321 N 211.368 -0.403325 -1.52352 0
M  V30 2322 C 212.779 0.0675782 -1.86578 0
M  V30 2323 C 213.13 1.44941 -1.32236 0
M  V30 2324 O 212.255 2.06112 -0.659307 0
M  V30 2325 C 212.85 0.129404 -3.38553 0
M  V30 2326 C 211.409 0.544629 -3.72439 0
M  V30 2327 C 210.556 -0.284551 -2.75836 0
M  V30 2328 H 213.507 -0.620631 -1.46061 0
M  V30 2329 H 213.528 0.94581 -3.68558 0
M  V30 2330 H 213.04 -0.87645 -3.78074 0
M  V30 2331 H 211.141 1.55734 -3.38493 0
M  V30 2332 H 211.254 0.293046 -4.78203 0
M  V30 2333 H 209.618 0.252258 -2.53448 0
M  V30 2334 H 210.401 -1.28865 -3.18196 0
M  V30 2335 N 212.846 1.57033 -0.133567 0
M  V30 2336 C 213.756 2.19632 0.824564 0
M  V30 2337 C 214.772 1.17666 1.28182 0
M  V30 2338 O 215.948 1.50193 1.3418 0
M  V30 2339 C 213.013 2.79499 2.05137 0
M  V30 2340 C 212.074 3.96548 1.64464 0
M  V30 2341 C 211.307 4.5355 2.81297 0
M  V30 2342 O 211.53 4.09438 3.97136 0
M  V30 2343 O 210.464 5.44018 2.57542 0
M  V30 2344 H 214.29 3.01991 0.321766 0
M  V30 2345 H 211.875 1.49112 0.0927889 0
M  V30 2346 H 213.757 3.17602 2.7696 0
M  V30 2347 H 212.432 2.00162 2.54395 0
M  V30 2348 H 211.339 3.63186 0.897048 0
M  V30 2349 H 212.672 4.77364 1.19934 0
M  V30 2350 N 214.325 -0.140222 1.56975 0
M  V30 2351 C 215.602 -0.880769 1.74648 0
M  V30 2352 C 215.982 -1.99036 0.703404 0
M  V30 2353 O 215.33 -2.26821 -0.27648 0
M  V30 2354 C 215.54 -1.417 3.18939 0
M  V30 2355 C 216.888 -1.87774 3.80823 0
M  V30 2356 O 217.912 -1.51427 3.2241 0
M  V30 2357 O 216.771 -2.54827 4.83452 0
M  V30 2358 H 213.865 -0.416713 0.714338 0
M  V30 2359 H 216.411 -0.125618 1.69234 0
M  V30 2360 H 215.183 -0.619902 3.86359 0
M  V30 2361 H 214.806 -2.23546 3.28805 0
M  V30 2362 N 215.803 -1.52179 -0.40978 0
M  V30 2363 C 216.75 -1.75475 -1.49924 0
M  V30 2364 C 217.72 -0.597175 -1.54994 0
M  V30 2365 O 218.905 -0.834655 -1.71575 0
M  V30 2366 C 216.045 -1.9107 -2.87378 0
M  V30 2367 C 215.158 -3.18717 -2.91622 0
M  V30 2368 C 214.293 -3.24747 -4.20372 0
M  V30 2369 C 213.332 -4.46598 -4.18588 0
M  V30 2370 N 212.469 -4.50025 -5.38908 0
M  V30 2371 H 217.309 -2.68458 -1.29361 0
M  V30 2372 H 214.846 -1.33024 -0.627934 0
M  V30 2373 H 216.804 -1.98096 -3.6717 0
M  V30 2374 H 215.434 -1.01469 -3.06437 0
M  V30 2375 H 214.486 -3.20866 -2.04326 0
M  V30 2376 H 215.798 -4.08544 -2.86169 0
M  V30 2377 H 214.952 -3.30841 -5.08556 0
M  V30 2378 H 213.691 -2.32857 -4.28519 0
M  V30 2379 H 212.696 -4.40652 -3.28794 0
M  V30 2380 H 213.921 -5.39783 -4.12081 0
M  V30 2381 H 211.867 -3.61017 -5.47725 0
M  V30 2382 H 211.784 -5.33697 -5.35447 0
M  V30 2383 H 213.052 -4.60347 -6.29048 0
M  V30 2384 N 217.281 0.66697 -1.42791 0
M  V30 2385 C 218.558 1.4234 -1.34159 0
M  V30 2386 C 218.938 2.11093 0.0172729 0
M  V30 2387 O 218.286 2.03808 1.03318 0
M  V30 2388 C 218.496 2.41942 -2.51526 0
M  V30 2389 C 219.844 3.06353 -2.93995 0
M  V30 2390 O 220.868 2.52269 -2.51473 0
M  V30 2391 O 219.727 4.04376 -3.67617 0
M  V30 2392 H 216.821 0.635277 -0.529483 0
M  V30 2393 H 219.367 0.695034 -1.54814 0
M  V30 2394 H 218.139 1.89991 -3.42081 0
M  V30 2395 H 217.762 3.22249 -2.32898 0
M  V30 2396 N 218.759 1.29093 0.90403 0
M  V30 2397 C 219.707 1.13727 2.02901 0
M  V30 2398 C 220.701 0.0539853 1.69314 0
M  V30 2399 O 221.907 0.213469 1.7873 0
M  V30 2400 H 218.282 0.35117 0.664969 0
M  V30 2401 H 220.253 2.08982 2.13001 0
M  V30 2402 C 219.002 0.826066 3.37745 0
M  V30 2403 H 218.325 1.65164 3.64089 0
M  V30 2404 H 219.765 0.758559 4.17159 0
M  V30 2405 C 218.224 -0.470541 3.33598 0
M  V30 2406 O 218.754 -1.49792 3.72727 0
M  V30 2407 N 216.96 -0.474812 2.86695 0
M  V30 2408 H 216.507 0.361692 2.55048 0
M  V30 2409 H 216.465 -1.34236 2.84303 0
M  V30 2410 N 220.237 -1.11381 1.11499 0
M  V30 2411 C 221.184 -2.17439 0.773887 0
M  V30 2412 C 222.154 -1.64132 -0.254899 0
M  V30 2413 O 223.339 -1.90345 -0.13168 0
M  V30 2414 C 220.479 -3.44373 0.223917 0
M  V30 2415 C 219.592 -4.1168 1.30934 0
M  V30 2416 C 218.727 -5.263 0.71984 0
M  V30 2417 C 217.766 -5.85493 1.78507 0
M  V30 2418 N 216.903 -6.91507 1.21502 0
M  V30 2419 H 221.743 -2.45962 1.68246 0
M  V30 2420 H 219.28 -1.20744 0.840191 0
M  V30 2421 H 221.238 -4.17047 -0.112921 0
M  V30 2422 H 219.868 -3.16232 -0.647851 0
M  V30 2423 H 218.92 -3.37073 1.76312 0
M  V30 2424 H 220.232 -4.51729 2.11524 0
M  V30 2425 H 219.386 -6.05785 0.333094 0
M  V30 2426 H 218.125 -4.87559 -0.117377 0
M  V30 2427 H 217.13 -5.04686 2.18111 0
M  V30 2428 H 218.355 -6.26301 2.62533 0
M  V30 2429 H 216.301 -6.54783 0.399455 0
M  V30 2430 H 216.218 -7.30214 1.95763 0
M  V30 2431 H 217.486 -7.74795 0.855181 0
M  V30 2432 N 221.715 -0.905404 -1.28997 0
M  V30 2433 C 222.963 -0.533192 -1.9494 0
M  V30 2434 C 223.284 0.924618 -1.71685 0
M  V30 2435 O 222.554 1.65268 -1.05183 0
M  V30 2436 H 221.134 -0.194194 -0.721317 0
M  V30 2437 H 223.796 -1.15294 -1.57141 0
M  V30 2438 H 222.892 -0.72059 -3.03667 0
M  V30 2439 N 223.193 1.4272 -0.668489 0
M  V30 2440 C 224.14 2.30796 0.0137489 0
M  V30 2441 C 225.11 1.4561 0.799177 0
M  V30 2442 O 226.295 1.74453 0.772702 0
M  V30 2443 C 223.435 3.31377 0.963507 0
M  V30 2444 C 222.548 4.31655 0.172569 0
M  V30 2445 C 221.683 5.19312 1.1175 0
M  V30 2446 C 220.722 6.11274 0.317886 0
M  V30 2447 N 219.859 6.91504 1.2152 0
M  V30 2448 H 224.699 2.88585 -0.743161 0
M  V30 2449 H 222.236 1.42154 -0.378226 0
M  V30 2450 H 224.194 3.88214 1.52792 0
M  V30 2451 H 222.824 2.75202 1.68712 0
M  V30 2452 H 221.876 3.76988 -0.508374 0
M  V30 2453 H 223.188 4.96779 -0.448527 0
M  V30 2454 H 222.342 5.80851 1.75206 0
M  V30 2455 H 221.081 4.5435 1.77249 0
M  V30 2456 H 220.086 5.48809 -0.329918 0
M  V30 2457 H 221.311 6.78283 -0.332917 0
M  V30 2458 H 219.257 6.29176 1.85671 0
M  V30 2459 H 219.174 7.53209 0.649036 0
M  V30 2460 H 220.442 7.57535 1.83742 0
M  V30 2461 N 224.671 0.411399 1.52136 0
M  V30 2462 C 225.919 -0.163322 2.01439 0
M  V30 2463 C 226.24 -1.45453 1.29879 0
M  V30 2464 O 225.51 -1.91225 0.4254 0
M  V30 2465 H 224.09 -0.0633447 0.744309 0
M  V30 2466 H 226.752 0.548161 1.87033 0
M  V30 2467 H 225.848 -0.357817 3.10042 0
M  V30 2468 N 226.149 -1.5696 0.141893 0
M  V30 2469 C 227.395 -1.9625 -0.511248 0
M  V30 2470 C 227.728 -1.02654 -1.64851 0
M  V30 2471 O 227.003 -0.0679676 -1.94381 0
M  V30 2472 C 227.286 -3.45285 -1.02227 0
M  V30 2473 C 227.139 -4.49658 0.113138 0
M  V30 2474 C 228.458 -3.96698 -1.90574 0
M  V30 2475 H 225.577 -0.713567 -0.184367 0
M  V30 2476 H 228.219 -1.88698 0.222087 0
M  V30 2477 H 226.369 -3.51852 -1.64719 0
M  V30 2478 H 228.041 -4.55174 0.749302 0
M  V30 2479 H 226.284 -4.26857 0.773026 0
M  V30 2480 H 226.955 -5.51258 -0.286053 0
M  V30 2481 H 229.431 -3.92578 -1.37918 0
M  V30 2482 H 228.307 -5.01453 -2.2324 0
M  V30 2483 H 228.568 -3.3875 -2.84079 0
M  V30 2484 N 227.627 0.131896 -1.57047 0
M  V30 2485 C 228.873 0.843179 -1.84441 0
M  V30 2486 C 229.206 1.80129 -0.725749 0
M  V30 2487 O 228.481 1.92624 0.269469 0
M  V30 2488 C 228.764 1.60442 -3.22382 0
M  V30 2489 C 228.617 0.666782 -4.4483 0
M  V30 2490 C 229.936 2.56354 -3.5773 0
M  V30 2491 H 227.055 0.305081 -0.670891 0
M  V30 2492 H 229.697 0.107839 -1.89694 0
M  V30 2493 H 227.847 2.23128 -3.18035 0
M  V30 2494 H 229.519 0.0497646 -4.61273 0
M  V30 2495 H 227.762 -0.022609 -4.33794 0
M  V30 2496 H 228.433 1.23579 -5.37989 0
M  V30 2497 H 230.909 2.0378 -3.62785 0
M  V30 2498 H 229.785 3.06657 -4.5525 0
M  V30 2499 H 230.046 3.38419 -2.84473 0
M  V30 2500 N 229.106 1.52395 0.401703 0
M  V30 2501 C 230.056 1.72649 1.48917 0
M  V30 2502 C 231.04 0.580436 1.50066 0
M  V30 2503 O 232.232 0.83779 1.55917 0
M  V30 2504 C 229.361 1.88729 2.86769 0
M  V30 2505 C 228.447 3.09228 2.90239 0
M  V30 2506 N 228.838 4.31805 2.63396 0
M  V30 2507 C 227.136 3.09214 3.21408 0
M  V30 2508 C 227.837 5.13326 2.73625 0
M  V30 2509 N 226.813 4.48735 3.06819 0
M  V30 2510 H 230.615 2.65058 1.26971 0
M  V30 2511 H 228.129 1.50528 0.609504 0
M  V30 2512 H 230.126 2.01358 3.65049 0
M  V30 2513 H 228.786 0.975252 3.09708 0
M  V30 2514 H 229.797 4.60154 2.37653 0
M  V30 2515 H 226.474 2.27774 3.49893 0
M  V30 2516 H 227.864 6.21003 2.56524 0
M  V30 2517 N 230.584 -0.659388 1.43143 0
M  V30 2518 C 231.83 -1.42145 1.44647 0
M  V30 2519 C 232.163 -1.9408 0.0681907 0
M  V30 2520 O 231.438 -1.71899 -0.910007 0
M  V30 2521 C 231.721 -2.60735 2.48373 0
M  V30 2522 C 231.574 -2.14332 3.95451 0
M  V30 2523 C 232.893 -3.62951 2.48906 0
M  V30 2524 H 230.012 -0.51552 0.526696 0
M  V30 2525 H 232.654 -0.748069 1.74654 0
M  V30 2526 H 230.804 -3.18184 2.22916 0
M  V30 2527 H 232.476 -1.61932 4.31944 0
M  V30 2528 H 230.719 -1.4576 4.08578 0
M  V30 2529 H 231.39 -2.99583 4.63631 0
M  V30 2530 H 233.866 -3.1525 2.71582 0
M  V30 2531 H 232.742 -4.43487 3.23435 0
M  V30 2532 H 233.003 -4.15126 1.52061 0
M  V30 2533 N 232.062 -1.29571 -0.897171 0
M  V30 2534 C 233.339 -1.08365 -1.62839 0
M  V30 2535 C 233.719 0.371331 -2.07808 0
M  V30 2536 O 233.067 1.3606 -1.83576 0
M  V30 2537 C 233.277 -2.0735 -2.80726 0
M  V30 2538 C 234.625 -2.38406 -3.51351 0
M  V30 2539 O 235.649 -2.05564 -2.90898 0
M  V30 2540 O 234.508 -2.9453 -4.60341 0
M  V30 2541 H 231.602 -0.415345 -0.715134 0
M  V30 2542 H 234.148 -1.40952 -0.945018 0
M  V30 2543 H 232.92 -3.05339 -2.44711 0
M  V30 2544 H 232.543 -1.75507 -3.56767 0
M  V30 2545 N 233.54 1.10788 -1.12088 0
M  V30 2546 C 234.768 1.86461 -0.896651 0
M  V30 2547 C 235.183 1.80492 0.553912 0
M  V30 2548 O 234.54 1.19102 1.38278 0
M  V30 2549 C 234.591 3.35006 -1.35843 0
M  V30 2550 O 234.312 3.40866 -2.75213 0
M  V30 2551 C 235.813 4.27565 -1.1706 0
M  V30 2552 H 233.033 0.589425 -0.320654 0
M  V30 2553 H 235.577 1.40076 -1.48993 0
M  V30 2554 H 233.732 3.7887 -0.808458 0
M  V30 2555 H 234.146 4.33411 -2.9539 0
M  V30 2556 H 235.62 5.30007 -1.54263 0
M  V30 2557 H 236.097 4.3906 -0.110814 0
M  V30 2558 H 236.703 3.89501 -1.70789 0
M  V30 2559 N 235.018 0.912232 1.28515 0
M  V30 2560 C 236.246 0.560416 1.99166 0
M  V30 2561 C 236.661 -0.857927 1.68182 0
M  V30 2562 O 236.018 -1.56805 0.933733 0
M  V30 2563 C 236.069 0.758142 3.53461 0
M  V30 2564 O 235.79 2.12067 3.83352 0
M  V30 2565 C 237.291 0.412954 4.41372 0
M  V30 2566 H 234.511 0.213805 0.636026 0
M  V30 2567 H 237.055 1.22502 1.63749 0
M  V30 2568 H 235.21 0.140556 3.87145 0
M  V30 2569 H 235.624 2.15923 4.77993 0
M  V30 2570 H 237.098 0.60208 5.48707 0
M  V30 2571 H 237.575 -0.65073 4.34353 0
M  V30 2572 H 238.181 1.00802 4.13182 0
M  V30 2573 N 236.496 -1.42363 0.676048 0
M  V30 2574 C 237.426 -2.33497 0.0124832 0
M  V30 2575 C 238.407 -1.50748 -0.787981 0
M  V30 2576 O 239.592 -1.79346 -0.744884 0
M  V30 2577 C 236.722 -3.34377 -0.938582 0
M  V30 2578 C 235.676 -4.27289 -0.246622 0
M  V30 2579 C 235.002 -5.18386 -1.31071 0
M  V30 2580 C 236.302 -5.14916 0.875125 0
M  V30 2581 H 237.996 -2.89233 0.773593 0
M  V30 2582 H 235.542 -1.39073 0.37346 0
M  V30 2583 H 237.495 -3.97044 -1.41188 0
M  V30 2584 H 236.219 -2.76947 -1.73113 0
M  V30 2585 H 234.878 -3.66018 0.206456 0
M  V30 2586 H 234.526 -4.57282 -2.09528 0
M  V30 2587 H 234.226 -5.81378 -0.852839 0
M  V30 2588 H 235.75 -5.83929 -1.78492 0
M  V30 2589 H 237.164 -5.71262 0.482983 0
M  V30 2590 H 235.561 -5.86747 1.25887 0
M  V30 2591 H 236.631 -4.53242 1.72335 0
M  V30 2592 N 237.974 -0.419461 -1.51915 0
M  V30 2593 C 238.884 0.407528 -2.31033 0
M  V30 2594 C 239.9 1.04413 -1.3919 0
M  V30 2595 O 241.076 1.0434 -1.72265 0
M  V30 2596 C 238.141 1.50365 -3.12396 0
M  V30 2597 C 237.202 0.889029 -4.19994 0
M  V30 2598 C 236.435 1.93291 -4.97468 0
M  V30 2599 O 236.658 3.15259 -4.75361 0
M  V30 2600 O 235.592 1.53339 -5.8204 0
M  V30 2601 H 239.418 -0.237865 -3.02767 0
M  V30 2602 H 237.003 -0.182413 -1.48282 0
M  V30 2603 H 238.885 2.13975 -3.63032 0
M  V30 2604 H 237.56 2.13345 -2.43445 0
M  V30 2605 H 236.467 0.215353 -3.7348 0
M  V30 2606 H 237.8 0.302991 -4.91267 0
M  V30 2607 N 239.452 1.56882 -0.150215 0
M  V30 2608 C 240.399 2.16922 0.788244 0
M  V30 2609 C 241.369 1.10303 1.24187 0
M  V30 2610 O 242.554 1.38359 1.31383 0
M  V30 2611 C 239.694 2.79754 2.02068 0
M  V30 2612 C 238.807 4.00775 1.61257 0
M  V30 2613 C 237.942 4.51595 2.79705 0
M  V30 2614 C 236.981 5.65074 2.35282 0
M  V30 2615 N 236.118 6.10499 3.4675 0
M  V30 2616 H 240.958 2.96779 0.269444 0
M  V30 2617 H 238.495 1.46599 0.12128 0
M  V30 2618 H 240.453 3.14329 2.74323 0
M  V30 2619 H 239.083 2.02536 2.51354 0
M  V30 2620 H 238.135 3.72158 0.787553 0
M  V30 2621 H 239.447 4.82978 1.24633 0
M  V30 2622 H 238.601 4.88242 3.60145 0
M  V30 2623 H 237.34 3.68406 3.19576 0
M  V30 2624 H 236.345 5.28 1.53283 0
M  V30 2625 H 237.57 6.50052 1.96493 0
M  V30 2626 H 235.516 5.30243 3.86236 0
M  V30 2627 H 235.433 6.87637 3.14152 0
M  V30 2628 H 236.701 6.51791 4.27537 0
M  V30 2629 N 240.93 -0.123565 1.57115 0
M  V30 2630 C 241.84 -1.17074 2.033 0
M  V30 2631 C 242.856 -1.4561 0.952559 0
M  V30 2632 O 244.032 -1.56817 1.26374 0
M  V30 2633 C 241.097 -2.47857 2.42421 0
M  V30 2634 C 240.158 -2.26758 3.64526 0
M  V30 2635 C 239.391 -3.51305 4.01771 0
M  V30 2636 O 239.614 -4.5843 3.39409 0
M  V30 2637 O 238.548 -3.42578 4.94898 0
M  V30 2638 H 242.374 -0.808555 2.92739 0
M  V30 2639 H 239.959 -0.334027 1.45618 0
M  V30 2640 H 241.841 -3.2492 2.68338 0
M  V30 2641 H 240.516 -2.83558 1.5613 0
M  V30 2642 H 239.423 -1.47569 3.43765 0
M  V30 2643 H 240.756 -1.95963 4.51508 0
M  V30 2644 N 242.408 -1.52605 -0.393616 0
M  V30 2645 C 243.685 -1.58001 -1.15304 0
M  V30 2646 C 244.065 -0.370385 -2.07825 0
M  V30 2647 O 243.413 0.641638 -2.19306 0
M  V30 2648 C 243.623 -2.91652 -1.91677 0
M  V30 2649 C 244.971 -3.4522 -2.47201 0
M  V30 2650 O 245.995 -2.93495 -2.01839 0
M  V30 2651 O 244.854 -4.35579 -3.3005 0
M  V30 2652 H 241.948 -0.637068 -0.527327 0
M  V30 2653 H 244.494 -1.64939 -0.399141 0
M  V30 2654 H 243.266 -3.71136 -1.23992 0
M  V30 2655 H 242.889 -2.88077 -2.74039 0
M  V30 2656 N 243.887 0.651787 -1.4349 0
M  V30 2657 C 245.115 1.43937 -1.48626 0
M  V30 2658 C 245.53 1.8851 -0.104587 0
M  V30 2659 O 244.887 1.5958 0.885464 0
M  V30 2660 C 244.938 2.6734 -2.43334 0
M  V30 2661 O 244.659 2.24631 -3.76128 0
M  V30 2662 C 246.16 3.60683 -2.57726 0
M  V30 2663 H 243.38 0.44213 -0.504739 0
M  V30 2664 H 245.924 0.798944 -1.88248 0
M  V30 2665 H 244.079 3.2752 -2.06904 0
M  V30 2666 H 244.493 3.04485 -4.2707 0
M  V30 2667 H 245.967 4.43933 -3.28067 0
M  V30 2668 H 246.444 4.08126 -1.62265 0
M  V30 2669 H 247.05 3.06384 -2.94973 0
M  V30 2670 N 245.365 1.30045 0.890287 0
M  V30 2671 C 246.295 1.18541 2.01172 0
M  V30 2672 C 247.276 0.0773356 1.69924 0
M  V30 2673 O 248.461 0.25845 1.92473 0
M  V30 2674 C 245.591 0.870941 3.36202 0
M  V30 2675 C 244.545 1.93637 3.81692 0
M  V30 2676 C 243.871 1.475 5.13953 0
M  V30 2677 C 245.171 3.34666 4.00994 0
M  V30 2678 H 246.865 2.12359 2.11054 0
M  V30 2679 H 244.411 1.02238 1.01407 0
M  V30 2680 H 246.364 0.777141 4.14172 0
M  V30 2681 H 245.088 -0.102926 3.26438 0
M  V30 2682 H 243.747 2.01972 3.05946 0
M  V30 2683 H 243.395 0.489551 5.00612 0
M  V30 2684 H 243.095 2.1876 5.4536 0
M  V30 2685 H 244.619 1.39489 5.94454 0
M  V30 2686 H 246.033 3.2912 4.69417 0
M  V30 2687 H 244.43 4.03966 4.43769 0
M  V30 2688 H 245.5 3.76949 3.05021 0
M  V30 2689 N 246.843 -1.10192 1.12674 0
M  V30 2690 C 248.068 -1.86523 0.906853 0
M  V30 2691 C 248.493 -1.80221 -0.538711 0
M  V30 2692 O 247.851 -1.17396 -1.38158 0
M  V30 2693 C 247.899 -3.32758 1.3894 0
M  V30 2694 O 247.003 -4.08449 0.5695 0
M  V30 2695 H 246.344 -0.578678 0.325619 0
M  V30 2696 H 248.874 -1.39203 1.49946 0
M  V30 2697 H 248.884 -3.83608 1.38958 0
M  V30 2698 H 247.559 -3.36661 2.44197 0
M  V30 2699 H 246.136 -3.67427 0.636528 0
M  V30 2700 N 248.321 -0.919034 -1.28029 0
M  V30 2701 C 249.551 -0.570143 -1.98577 0
M  V30 2702 C 249.959 0.854172 -1.68821 0
M  V30 2703 O 249.302 1.57807 -0.940351 0
M  V30 2704 C 249.364 -0.705734 -3.52505 0
M  V30 2705 C 249.028 -2.10057 -4.05863 0
M  V30 2706 C 250.025 -3.07385 -4.19298 0
M  V30 2707 C 247.71 -2.41517 -4.40426 0
M  V30 2708 C 249.704 -4.34287 -4.66555 0
M  V30 2709 C 247.391 -3.68657 -4.87376 0
M  V30 2710 C 248.389 -4.64856 -5.00398 0
M  V30 2711 O 248.077 -5.89735 -5.46322 0
M  V30 2712 H 247.809 -0.215592 -0.6407 0
M  V30 2713 H 250.363 -1.23583 -1.64062 0
M  V30 2714 H 248.593 0.0170414 -3.86696 0
M  V30 2715 H 250.282 -0.363172 -4.04272 0
M  V30 2716 H 251.048 -2.84398 -3.92865 0
M  V30 2717 H 246.927 -1.67389 -4.29537 0
M  V30 2718 H 250.471 -5.09377 -4.76635 0
M  V30 2719 H 246.368 -3.91466 -5.13249 0
M  V30 2720 H 247.136 -5.92599 -5.64596 0
M  V30 2721 N 249.799 1.42003 -0.683588 0
M  V30 2722 C 251.076 1.95112 -0.138075 0
M  V30 2723 C 251.456 1.62359 1.34918 0
M  V30 2724 O 250.804 0.924311 2.08971 0
M  V30 2725 C 251.014 3.46505 -0.416581 0
M  V30 2726 C 252.362 4.23254 -0.337834 0
M  V30 2727 O 253.386 3.54468 -0.35082 0
M  V30 2728 O 252.245 5.45743 -0.287596 0
M  V30 2729 H 249.339 0.826961 -0.00797996 0
M  V30 2730 H 251.885 1.51784 -0.758924 0
M  V30 2731 H 250.657 3.63582 -1.4465 0
M  V30 2732 H 250.28 3.969 0.235839 0
M  V30 2733 N 251.277 0.427512 1.51691 0
M  V30 2734 C 252.225 -0.403359 2.29076 0
M  V30 2735 C 253.219 -1.02962 1.34518 0
M  V30 2736 O 254.425 -0.965715 1.51901 0
M  V30 2737 H 250.8 -0.148879 0.737115 0
M  V30 2738 H 252.771 0.270295 2.97173 0
M  V30 2739 C 251.52 -1.49763 3.13794 0
M  V30 2740 H 250.843 -1.02508 3.86435 0
M  V30 2741 H 252.283 -2.05244 3.71014 0
M  V30 2742 C 250.742 -2.47536 2.28533 0
M  V30 2743 O 251.272 -3.51848 1.93819 0
M  V30 2744 N 249.478 -2.18187 1.91945 0
M  V30 2745 H 249.025 -1.33389 2.20375 0
M  V30 2746 H 248.983 -2.83848 1.35195 0
M  V30 2747 N 252.755 -1.56801 0.158532 0
M  V30 2748 C 253.98 -2.01295 -0.499516 0
M  V30 2749 C 254.405 -1.03799 -1.56867 0
M  V30 2750 O 253.763 -0.0155162 -1.81293 0
M  V30 2751 C 253.811 -3.44469 -1.06647 0
M  V30 2752 O 252.915 -3.50012 -2.18095 0
M  V30 2753 H 252.256 -0.652884 -0.12099 0
M  V30 2754 H 254.786 -2.02958 0.258661 0
M  V30 2755 H 254.796 -3.8351 -1.39227 0
M  V30 2756 H 253.471 -4.14932 -0.283581 0
M  V30 2757 H 252.048 -3.22822 -1.86656 0
M  V30 2758 N 254.233 0.115231 -1.57178 0
M  V30 2759 C 255.51 0.852873 -1.76027 0
M  V30 2760 C 255.89 1.97892 -0.73498 0
M  V30 2761 O 255.238 2.27232 0.24036 0
M  V30 2762 C 255.448 1.36608 -3.21153 0
M  V30 2763 C 256.796 1.81692 -3.83762 0
M  V30 2764 O 257.82 1.46278 -3.24779 0
M  V30 2765 O 256.679 2.47104 -4.87444 0
M  V30 2766 H 253.773 0.405296 -0.720877 0
M  V30 2767 H 256.319 0.0986785 -1.69413 0
M  V30 2768 H 255.091 0.558357 -3.87296 0
M  V30 2769 H 254.714 2.18287 -3.3232 0
M  V30 2770 N 255.711 1.52812 0.385517 0
M  V30 2771 C 256.659 1.78482 1.49155 0
M  V30 2772 C 257.653 0.652914 1.56312 0
M  V30 2773 O 258.859 0.835464 1.59436 0
M  V30 2774 H 255.234 0.5648 0.496493 0
M  V30 2775 H 257.205 2.71095 1.24699 0
M  V30 2776 C 255.954 1.97378 2.86247 0
M  V30 2777 H 255.277 2.83907 2.81491 0
M  V30 2778 H 256.717 2.19327 3.62866 0
M  V30 2779 C 255.176 0.74728 3.28508 0
M  V30 2780 O 255.706 -0.0736232 4.01633 0
M  V30 2781 N 253.912 0.576396 2.84826 0
M  V30 2782 H 253.459 1.24555 2.25486 0
M  V30 2783 H 253.417 -0.24288 3.1346 0
M  V30 2784 N 257.189 -0.644168 1.43834 0
M  V30 2785 C 258.122 -1.76906 1.44151 0
M  V30 2786 C 259.1 -1.59774 0.301857 0
M  V30 2787 O 260.284 -1.81834 0.496841 0
M  V30 2788 C 257.411 -3.14321 1.26174 0
M  V30 2789 C 256.457 -3.50134 2.43533 0
M  V30 2790 S 257.29 -3.49085 4.06079 0
M  V30 2791 C 258.446 -4.89142 3.90501 0
M  V30 2792 H 258.679 -1.76368 2.39336 0
M  V30 2793 H 256.212 -0.817624 1.30974 0
M  V30 2794 H 258.17 -3.93625 1.16489 0
M  V30 2795 H 256.831 -3.12412 0.325224 0
M  V30 2796 H 256.024 -4.50095 2.26783 0
M  V30 2797 H 255.626 -2.78264 2.4989 0
M  V30 2798 H 257.918 -5.78036 3.53385 0
M  V30 2799 H 258.861 -5.10945 4.90246 0
M  V30 2800 H 259.269 -4.63102 3.22795 0
M  V30 2801 N 258.668 -1.30515 -0.883378 0
M  V30 2802 C 259.915 -1.1943 -1.63532 0
M  V30 2803 C 260.243 0.250627 -1.92878 0
M  V30 2804 O 259.498 1.19556 -1.54935 0
M  V30 2805 C 259.797 -1.96994 -2.98209 0
M  V30 2806 C 259.463 -3.466 -2.88408 0
M  V30 2807 C 258.125 -3.87397 -2.85442 0
M  V30 2808 C 260.477 -4.41863 -2.76418 0
M  V30 2809 C 257.805 -5.21745 -2.68327 0
M  V30 2810 C 260.157 -5.7632 -2.60841 0
M  V30 2811 C 258.821 -6.16354 -2.56251 0
M  V30 2812 H 258.091 -0.437025 -0.598406 0
M  V30 2813 H 260.738 -1.61635 -1.02696 0
M  V30 2814 H 259.043 -1.47429 -3.63004 0
M  V30 2815 H 260.74 -1.85808 -3.55354 0
M  V30 2816 H 257.33 -3.14182 -2.91527 0
M  V30 2817 H 261.514 -4.11285 -2.77775 0
M  V30 2818 H 256.77 -5.51853 -2.63189 0
M  V30 2819 H 260.944 -6.49772 -2.50538 0
M  V30 2820 H 258.571 -7.20401 -2.42748 0
M  V30 2821 N 260.146 1.09593 -1.13257 0
M  V30 2822 C 261.386 1.83349 -0.903472 0
M  V30 2823 C 261.75 1.83641 0.560351 0
M  V30 2824 O 262.951 2.53037 0.906947 0
M  V30 2825 C 261.222 3.25629 -1.47311 0
M  V30 2826 S 262.781 4.16408 -1.38382 0
M  V30 2827 H 259.599 0.632014 -0.325699 0
M  V30 2828 H 262.201 1.31817 -1.44376 0
M  V30 2829 H 260.905 3.22991 -2.53189 0
M  V30 2830 H 260.436 3.82233 -0.930689 0
M  V30 2831 H 262.451 4.94884 -0.361113 0
M  V30 2832 N 261.624 0.925811 1.2754 0
M  V30 2833 C 262.572 0.413897 2.28888 0
M  V30 2834 C 263.566 -0.500779 1.61829 0
M  V30 2835 O 264.772 -0.38069 1.75928 0
M  V30 2836 H 261.147 0.115274 0.743112 0
M  V30 2837 H 263.118 1.28151 2.69481 0
M  V30 2838 C 261.867 -0.319792 3.46226 0
M  V30 2839 H 261.19 0.374846 3.98039 0
M  V30 2840 H 262.63 -0.642435 4.19105 0
M  V30 2841 C 261.089 -1.53209 3.00048 0
M  V30 2842 O 261.619 -2.6309 3.03557 0
M  V30 2843 N 259.825 -1.38326 2.55566 0
M  V30 2844 H 259.372 -0.489292 2.5291 0
M  V30 2845 H 259.33 -2.19564 2.25031 0
M  V30 2846 N 263.102 -1.41638 0.69111 0
M  V30 2847 C 264.049 -2.30789 0.0229705 0
M  V30 2848 C 265.019 -1.46863 -0.775911 0
M  V30 2849 O 266.204 -1.75661 -0.74485 0
M  V30 2850 C 263.344 -3.32868 -0.910666 0
M  V30 2851 C 262.457 -4.31875 -0.103874 0
M  V30 2852 C 261.592 -5.21024 -1.03475 0
M  V30 2853 C 260.631 -6.11702 -0.220598 0
M  V30 2854 N 259.768 -6.93349 -1.10504 0
M  V30 2855 H 264.608 -2.87366 0.788978 0
M  V30 2856 H 262.145 -1.41535 0.400794 0
M  V30 2857 H 264.103 -3.90596 -1.46597 0
M  V30 2858 H 262.733 -2.77851 -1.64312 0
M  V30 2859 H 261.785 -3.76131 0.568285 0
M  V30 2860 H 263.097 -4.96003 0.527504 0
M  V30 2861 H 262.251 -5.83565 -1.65943 0
M  V30 2862 H 260.99 -4.57112 -1.69999 0
M  V30 2863 H 259.995 -5.48215 0.417187 0
M  V30 2864 H 261.22 -6.77668 0.440784 0
M  V30 2865 H 259.166 -6.3205 -1.75638 0
M  V30 2866 H 259.083 -7.54146 -0.529125 0
M  V30 2867 H 260.351 -7.60362 -1.71667 0
M  V30 2868 N 264.58 -0.43555 -1.51462 0
M  V30 2869 C 265.49 0.383001 -2.31453 0
M  V30 2870 C 266.506 1.02931 -1.4029 0
M  V30 2871 O 267.682 1.02507 -1.73362 0
M  V30 2872 C 264.747 1.47043 -3.13973 0
M  V30 2873 C 263.808 0.844433 -4.20913 0
M  V30 2874 C 263.041 1.88004 -4.9949 0
M  V30 2875 O 263.264 3.10199 -4.78678 0
M  V30 2876 O 262.198 1.47157 -5.83634 0
M  V30 2877 H 266.024 -0.269964 -3.02498 0
M  V30 2878 H 263.609 -0.19813 -1.4808 0
M  V30 2879 H 265.491 2.10113 -3.65281 0
M  V30 2880 H 264.166 2.10751 -2.45695 0
M  V30 2881 H 263.073 0.175729 -3.73687 0
M  V30 2882 H 264.406 0.250869 -4.9156 0
M  V30 2883 N 266.058 1.56714 -0.166846 0
M  V30 2884 C 267.288 2.00828 0.48494 0
M  V30 2885 C 267.696 1.04612 1.57648 0
M  V30 2886 O 267.039 0.0383201 1.8366 0
M  V30 2887 C 267.101 3.4137 1.12723 0
M  V30 2888 C 266.765 4.56654 0.177886 0
M  V30 2889 C 267.762 5.16402 -0.60207 0
M  V30 2890 C 265.447 5.02244 0.0750139 0
M  V30 2891 C 267.441 6.20167 -1.47215 0
M  V30 2892 C 265.128 6.05859 -0.798649 0
M  V30 2893 C 266.126 6.64691 -1.57082 0
M  V30 2894 O 265.814 7.66297 -2.42989 0
M  V30 2895 H 265.546 0.663587 0.128953 0
M  V30 2896 H 268.1 2.03692 -0.264365 0
M  V30 2897 H 266.33 3.35406 1.92457 0
M  V30 2898 H 268.019 3.69466 1.68076 0
M  V30 2899 H 268.785 4.82065 -0.53274 0
M  V30 2900 H 264.664 4.56167 0.665812 0
M  V30 2901 H 268.208 6.66016 -2.07531 0
M  V30 2902 H 264.105 6.39621 -0.869199 0
M  V30 2903 H 264.873 7.83601 -2.36455 0
M  V30 2904 N 267.536 -0.106894 1.57237 0
M  V30 2905 C 268.776 -0.818277 1.87306 0
M  V30 2906 C 269.14 -1.76474 0.756371 0
M  V30 2907 O 270.341 -2.5186 0.939155 0
M  V30 2908 C 268.612 -1.53806 3.22612 0
M  V30 2909 S 270.171 -2.28935 3.74345 0
M  V30 2910 H 266.989 -0.272862 0.656557 0
M  V30 2911 H 269.591 -0.075988 1.95352 0
M  V30 2912 H 268.295 -0.834951 4.01817 0
M  V30 2913 H 267.826 -2.32049 3.17674 0
M  V30 2914 H 269.841 -3.54871 3.46815 0
M  V30 2915 N 269.014 -1.53014 -0.377408 0
M  V30 2916 C 269.962 -1.7927 -1.48206 0
M  V30 2917 C 270.956 -0.661195 -1.55963 0
M  V30 2918 O 272.162 -0.843908 -1.58991 0
M  V30 2919 H 268.537 -0.567425 -0.493491 0
M  V30 2920 H 270.508 -2.71753 -1.2326 0
M  V30 2921 C 269.257 -1.98894 -2.85196 0
M  V30 2922 H 268.58 -2.85395 -2.79981 0
M  V30 2923 H 270.02 -2.21249 -3.61698 0
M  V30 2924 C 268.479 -0.764691 -3.28107 0
M  V30 2925 O 269.009 0.0523226 -4.01666 0
M  V30 2926 N 267.215 -0.591493 -2.84517 0
M  V30 2927 H 266.762 -1.25749 -2.24822 0
M  V30 2928 H 266.72 0.226253 -3.13585 0
M  V30 2929 N 270.492 0.636531 -1.44174 0
M  V30 2930 C 271.908 0.954104 -1.27941 0
M  V30 2931 C 272.108 2.0039 -0.211248 0
M  V30 2932 O 271.164 2.49236 0.404695 0
M  V30 2933 C 272.477 1.4225 -2.64925 0
M  V30 2934 C 274.025 1.53827 -2.72592 0
M  V30 2935 C 274.5 2.04053 -4.10032 0
M  V30 2936 N 275.991 2.11331 -4.12182 0
M  V30 2937 C 276.726 2.51352 -5.15374 0
M  V30 2938 N 276.222 2.90549 -6.2893 0
M  V30 2939 N 278.015 2.51438 -5.02728 0
M  V30 2940 H 270.166 -0.0578386 -2.12321 0
M  V30 2941 H 272.429 0.0367406 -0.947288 0
M  V30 2942 H 272.135 0.725466 -3.44136 0
M  V30 2943 H 272.009 2.39451 -2.9145 0
M  V30 2944 H 274.396 2.22628 -1.93702 0
M  V30 2945 H 274.477 0.550154 -2.49814 0
M  V30 2946 H 274.121 1.35848 -4.89395 0
M  V30 2947 H 274.051 3.03726 -4.30184 0
M  V30 2948 H 276.542 1.83745 -3.30222 0
M  V30 2949 H 276.855 3.19884 -7.03487 0
M  V30 2950 H 275.2 2.88313 -6.32377 0
M  V30 2951 H 278.391 2.20203 -4.13072 0
M  V30 2952 H 278.564 2.82304 -5.83274 0
M  V30 2953 N 271.97 1.30982 0.876444 0
M  V30 2954 C 272.9 1.20668 1.99903 0
M  V30 2955 C 273.881 0.095354 1.69833 0
M  V30 2956 O 275.066 0.27885 1.92188 0
M  V30 2957 C 272.196 0.90655 3.3526 0
M  V30 2958 C 271.15 1.97675 3.79617 0
M  V30 2959 C 270.476 1.52943 5.1236 0
M  V30 2960 C 271.776 3.389 3.97422 0
M  V30 2961 H 273.47 2.14586 2.0879 0
M  V30 2962 H 271.016 1.03308 1.00317 0
M  V30 2963 H 272.969 0.821025 4.13324 0
M  V30 2964 H 271.693 -0.0682969 3.26529 0
M  V30 2965 H 270.352 2.05205 3.03787 0
M  V30 2966 H 270 0.54262 5.00065 0
M  V30 2967 H 269.7 2.24532 5.43009 0
M  V30 2968 H 271.224 1.45786 5.92941 0
M  V30 2969 H 272.638 3.34081 4.659 0
M  V30 2970 H 271.035 4.0865 4.3946 0
M  V30 2971 H 272.105 3.80163 3.01006 0
M  V30 2972 N 273.449 -1.08991 1.13837 0
M  V30 2973 C 274.396 -2.15748 0.819835 0
M  V30 2974 C 275.366 -1.64636 -0.220026 0
M  V30 2975 O 276.551 -1.90582 -0.0912757 0
M  V30 2976 C 273.691 -3.4382 0.296913 0
M  V30 2977 C 272.804 -4.0881 1.39636 0
M  V30 2978 C 271.939 -5.24655 0.831314 0
M  V30 2979 C 270.978 -5.81575 1.90886 0
M  V30 2980 N 270.115 -6.88774 1.36142 0
M  V30 2981 H 274.955 -2.42338 1.73426 0
M  V30 2982 H 272.492 -1.18935 0.865613 0
M  V30 2983 H 274.45 -4.17193 -0.0244339 0
M  V30 2984 H 273.08 -3.17535 -0.580628 0
M  V30 2985 H 272.132 -3.33258 1.83422 0
M  V30 2986 H 273.444 -4.47141 2.21058 0
M  V30 2987 H 272.598 -6.04942 0.461515 0
M  V30 2988 H 271.337 -4.87698 -0.013932 0
M  V30 2989 H 270.342 -4.99946 2.28767 0
M  V30 2990 H 271.567 -6.20592 2.75758 0
M  V30 2991 H 269.513 -6.53788 0.538254 0
M  V30 2992 H 269.43 -7.25898 2.11208 0
M  V30 2993 H 270.698 -7.72806 1.01933 0
M  V30 2994 N 274.927 -0.932562 -1.27047 0
M  V30 2995 C 276.204 -0.49377 -1.89265 0
M  V30 2996 C 276.584 1.02833 -1.8436 0
M  V30 2997 O 275.932 1.88461 -1.29209 0
M  V30 2998 C 276.142 -1.04536 -3.32976 0
M  V30 2999 C 277.49 -1.10879 -4.09867 0
M  V30 3000 O 278.514 -0.995327 -3.42011 0
M  V30 3001 O 277.373 -1.28417 -5.31198 0
M  V30 3002 H 274.467 -0.159596 -0.811454 0
M  V30 3003 H 277.013 -1.02457 -1.3528 0
M  V30 3004 H 275.785 -2.08913 -3.30864 0
M  V30 3005 H 275.408 -0.496494 -3.94488 0
M  V30 3006 N 276.405 1.4127 -0.698611 0
M  V30 3007 C 277.315 2.34573 -0.0357891 0
M  V30 3008 C 278.331 1.56393 0.762701 0
M  V30 3009 O 279.507 1.8886 0.699564 0
M  V30 3010 C 276.572 3.35159 0.887089 0
M  V30 3011 C 275.633 4.29225 0.0804634 0
M  V30 3012 C 274.866 5.25006 0.959387 0
M  V30 3013 O 275.089 5.26314 2.19886 0
M  V30 3014 O 274.023 6.00519 0.407439 0
M  V30 3015 H 277.849 2.92838 -0.804957 0
M  V30 3016 H 275.434 1.42175 -0.458966 0
M  V30 3017 H 277.316 3.9689 1.41621 0
M  V30 3018 H 275.991 2.79333 1.6357 0
M  V30 3019 H 274.898 3.70833 -0.493328 0
M  V30 3020 H 276.231 4.88157 -0.629547 0
M  V30 3021 N 277.883 0.443576 1.51229 0
M  V30 3022 C 278.831 -0.37904 2.29491 0
M  V30 3023 C 279.825 -1.0153 1.35603 0
M  V30 3024 O 281.031 -0.94955 1.52917 0
M  V30 3025 H 277.406 -0.141053 0.738653 0
M  V30 3026 H 279.377 0.301799 2.9687 0
M  V30 3027 C 278.126 -1.46426 3.15364 0
M  V30 3028 H 277.449 -0.984037 3.87501 0
M  V30 3029 H 278.889 -2.01297 3.7317 0
M  V30 3030 C 277.348 -2.45099 2.31146 0
M  V30 3031 O 277.878 -3.49773 1.9754 0
M  V30 3032 N 276.084 -2.16139 1.94249 0
M  V30 3033 H 275.631 -1.31044 2.21777 0
M  V30 3034 H 275.589 -2.82398 1.38198 0
M  V30 3035 N 279.361 -1.56624 0.175154 0
M  V30 3036 C 280.309 -2.19468 -0.770495 0
M  V30 3037 C 281.303 -1.15985 -1.23466 0
M  V30 3038 O 282.509 -1.34176 -1.19987 0
M  V30 3039 H 278.884 -0.703095 -0.266761 0
M  V30 3040 H 280.855 -2.97613 -0.216542 0
M  V30 3041 C 279.604 -2.85264 -1.98796 0
M  V30 3042 H 278.927 -3.64623 -1.63983 0
M  V30 3043 H 280.367 -3.327 -2.62843 0
M  V30 3044 C 278.826 -1.85239 -2.81404 0
M  V30 3045 O 279.356 -1.34024 -3.78682 0
M  V30 3046 N 277.562 -1.53911 -2.46495 0
M  V30 3047 H 277.109 -1.95751 -1.67449 0
M  V30 3048 H 277.067 -0.872382 -3.02054 0
M  V30 3049 N 280.839 0.0985539 -1.57292 0
M  V30 3050 C 282.079 0.808332 -1.87737 0
M  V30 3051 C 282.443 1.7607 -0.76572 0
M  V30 3052 O 283.644 2.51358 -0.952499 0
M  V30 3053 C 281.915 1.52093 -3.23423 0
M  V30 3054 S 283.474 2.26947 -3.75554 0
M  V30 3055 H 280.292 0.269377 -0.657995 0
M  V30 3056 H 282.894 0.0656269 -1.9539 0
M  V30 3057 H 281.598 0.81363 -4.02254 0
M  V30 3058 H 281.129 2.30361 -3.189 0
M  V30 3059 H 283.144 3.53027 -3.48692 0
M  V30 3060 N 282.317 1.53212 0.369288 0
M  V30 3061 C 283.566 1.68436 1.10961 0
M  V30 3062 C 283.879 0.440738 1.9057 0
M  V30 3063 O 285.085 0.473446 2.6734 0
M  V30 3064 C 283.541 2.97744 2.0218 0
M  V30 3065 C 283.149 4.29355 1.279 0
M  V30 3066 C 284.893 3.22334 2.76226 0
M  V30 3067 C 282.8 5.49755 2.17999 0
M  V30 3068 H 281.73 0.627568 0.41794 0
M  V30 3069 H 284.381 1.79713 0.370884 0
M  V30 3070 H 282.763 2.8026 2.79768 0
M  V30 3071 H 283.937 4.57458 0.554007 0
M  V30 3072 H 282.252 4.11179 0.657311 0
M  V30 3073 H 284.849 4.09471 3.43857 0
M  V30 3074 H 285.192 2.38238 3.41392 0
M  V30 3075 H 285.725 3.40475 2.05723 0
M  V30 3076 H 282.464 6.36318 1.57417 0
M  V30 3077 H 281.984 5.25937 2.88359 0
M  V30 3078 H 283.663 5.84401 2.77641 0
M  V30 3079 N 283.795 -0.628877 1.44509 0
M  V30 3080 C 285.02 -1.42048 1.5112 0
M  V30 3081 C 285.445 -1.87594 0.137818 0
M  V30 3082 O 284.803 -1.58873 -0.873437 0
M  V30 3083 C 284.851 -2.61541 2.48251 0
M  V30 3084 O 283.955 -3.61453 1.98559 0
M  V30 3085 H 283.296 -0.424942 0.510216 0
M  V30 3086 H 285.826 -0.767374 1.89664 0
M  V30 3087 H 285.836 -3.09057 2.66361 0
M  V30 3088 H 284.511 -2.27736 3.48007 0
M  V30 3089 H 283.088 -3.20731 1.90227 0
M  V30 3090 N 285.273 -1.31445 -0.869486 0
M  V30 3091 C 286.221 -1.19067 -1.99814 0
M  V30 3092 C 287.215 -0.0988569 -1.69111 0
M  V30 3093 O 288.421 -0.260781 -1.78101 0
M  V30 3094 H 284.796 -0.368677 -0.655425 0
M  V30 3095 H 286.767 -2.14555 -2.07385 0
M  V30 3096 C 285.516 -0.915323 -3.35436 0
M  V30 3097 H 284.839 -1.74759 -3.59582 0
M  V30 3098 H 286.279 -0.868895 -4.15001 0
M  V30 3099 C 284.738 0.381928 -3.34728 0
M  V30 3100 O 285.268 1.39857 -3.76567 0
M  V30 3101 N 283.474 0.398633 -2.87853 0
M  V30 3102 H 283.021 -0.429186 -2.54 0
M  V30 3103 H 282.979 1.26651 -2.87762 0
M  V30 3104 N 286.751 1.08385 -1.14413 0
M  V30 3105 C 287.681 2.17321 -0.854044 0
M  V30 3106 C 288.662 1.69024 0.191049 0
M  V30 3107 O 289.847 1.94141 0.0476779 0
M  V30 3108 C 286.977 3.45719 -0.330983 0
M  V30 3109 C 285.931 4.07409 -1.31155 0
M  V30 3110 C 285.257 5.30762 -0.64778 0
M  V30 3111 C 286.557 4.48665 -2.67388 0
M  V30 3112 H 288.251 2.41845 -1.76498 0
M  V30 3113 H 285.797 1.16233 -0.850051 0
M  V30 3114 H 287.75 4.21241 -0.115645 0
M  V30 3115 H 286.474 3.2075 0.615381 0
M  V30 3116 H 285.133 3.33919 -1.51306 0
M  V30 3117 H 284.781 5.02078 0.304398 0
M  V30 3118 H 284.481 5.72992 -1.30207 0
M  V30 3119 H 286.005 6.08998 -0.441972 0
M  V30 3120 H 287.419 5.15364 -2.51143 0
M  V30 3121 H 285.816 5.01814 -3.29093 0
M  V30 3122 H 286.886 3.60543 -3.24248 0
M  V30 3123 N 288.23 0.939286 1.26551 0
M  V30 3124 C 289.162 0.404704 2.25599 0
M  V30 3125 C 290.175 -0.470983 1.55838 0
M  V30 3126 O 291.364 -0.281734 1.76263 0
M  V30 3127 C 288.464 -0.43764 3.36062 0
M  V30 3128 C 287.637 0.421449 4.35365 0
M  V30 3129 C 286.696 -0.36015 5.24966 0
M  V30 3130 O 285.722 0.236167 5.6871 0
M  V30 3131 N 286.924 -1.65715 5.56344 0
M  V30 3132 H 289.689 1.25618 2.72103 0
M  V30 3133 H 287.25 0.807963 1.40298 0
M  V30 3134 H 289.242 -0.967866 3.92956 0
M  V30 3135 H 287.812 -1.18991 2.89067 0
M  V30 3136 H 287.032 1.1329 3.7757 0
M  V30 3137 H 288.32 1.00835 4.98708 0
M  V30 3138 H 287.718 -2.16378 5.22682 0
M  V30 3139 H 286.275 -2.13366 6.15888 0
M  V30 3140 N 289.708 -1.40897 0.706093 0
M  V30 3141 C 290.954 -2.01352 0.241889 0
M  V30 3142 C 291.287 -1.55832 -1.15888 0
M  V30 3143 O 290.562 -0.774145 -1.7843 0
M  V30 3144 C 290.845 -3.58752 0.311311 0
M  V30 3145 C 290.698 -4.1437 1.74978 0
M  V30 3146 C 292.017 -4.38914 -0.322922 0
M  V30 3147 H 289.136 -0.731562 0.0893687 0
M  V30 3148 H 291.778 -1.67504 0.896802 0
M  V30 3149 H 289.928 -3.87718 -0.246302 0
M  V30 3150 H 291.6 -3.96239 2.36205 0
M  V30 3151 H 289.843 -3.69016 2.28057 0
M  V30 3152 H 290.514 -5.23532 1.74981 0
M  V30 3153 H 292.99 -4.15822 0.152089 0
M  V30 3154 H 291.866 -5.48358 -0.243855 0
M  V30 3155 H 292.127 -4.19176 -1.40513 0
M  V30 3156 N 291.186 -0.45159 -1.50991 0
M  V30 3157 C 292.096 0.358431 -2.31846 0
M  V30 3158 C 293.112 1.01438 -1.41373 0
M  V30 3159 O 294.288 1.00663 -1.74439 0
M  V30 3160 C 291.353 1.43704 -3.15515 0
M  V30 3161 C 290.414 0.799742 -4.21785 0
M  V30 3162 C 289.647 1.82696 -5.01456 0
M  V30 3163 O 289.87 3.05105 -4.81941 0
M  V30 3164 O 288.804 1.40958 -5.85162 0
M  V30 3165 H 292.63 -0.302032 -3.02194 0
M  V30 3166 H 290.215 -0.213825 -1.47862 0
M  V30 3167 H 292.097 2.06227 -3.67489 0
M  V30 3168 H 290.772 2.08133 -2.47916 0
M  V30 3169 H 289.679 0.136084 -3.73852 0
M  V30 3170 H 291.012 0.198718 -4.91799 0
M  V30 3171 N 292.664 1.56529 -0.183458 0
M  V30 3172 C 293.941 1.88959 0.50536 0
M  V30 3173 C 294.321 1.09523 1.80466 0
M  V30 3174 O 293.669 0.19278 2.27685 0
M  V30 3175 C 293.879 3.41162 0.73547 0
M  V30 3176 C 295.227 4.11155 1.06005 0
M  V30 3177 O 296.251 3.46548 0.823594 0
M  V30 3178 O 295.11 5.25318 1.50675 0
M  V30 3179 H 292.204 0.78441 0.261973 0
M  V30 3180 H 294.75 1.68231 -0.222802 0
M  V30 3181 H 293.522 3.90874 -0.182561 0
M  V30 3182 H 293.145 3.67543 1.51651 0
M  V30 3183 N 294.142 -0.090211 1.57342 0
M  V30 3184 C 295.074 -1.13541 1.99101 0
M  V30 3185 C 296.087 -1.3604 0.894258 0
M  V30 3186 O 297.276 -1.34606 1.17233 0
M  V30 3187 C 294.376 -2.49001 2.29895 0
M  V30 3188 C 293.549 -2.46712 3.61182 0
M  V30 3189 C 292.608 -3.64136 3.79857 0
M  V30 3190 O 291.634 -3.46405 4.51655 0
M  V30 3191 N 292.836 -4.83802 3.20806 0
M  V30 3192 H 295.601 -0.779942 2.89373 0
M  V30 3193 H 293.162 -0.279125 1.59476 0
M  V30 3194 H 295.154 -3.26166 2.39578 0
M  V30 3195 H 293.724 -2.76619 1.45605 0
M  V30 3196 H 292.944 -1.55058 3.62423 0
M  V30 3197 H 294.232 -2.42265 4.4742 0
M  V30 3198 H 293.63 -5.01112 2.62494 0
M  V30 3199 H 292.187 -5.58543 3.35966 0
M  V30 3200 N 295.62 -1.53406 -0.361157 0
M  V30 3201 C 296.868 -1.69467 -1.10115 0
M  V30 3202 C 297.189 -0.451352 -1.89705 0
M  V30 3203 O 296.459 0.534636 -1.88463 0
M  V30 3204 H 295.039 -0.624749 -0.409508 0
M  V30 3205 H 297.701 -1.90609 -0.406699 0
M  V30 3206 H 296.797 -2.55774 -1.78847 0
M  V30 3207 N 297.098 0.621204 -1.44841 0
M  V30 3208 C 298.046 1.75385 -1.52784 0
M  V30 3209 C 299.04 1.64639 -0.398779 0
M  V30 3210 O 300.246 1.70598 -0.574137 0
M  V30 3211 H 296.621 0.579193 -0.479625 0
M  V30 3212 H 298.592 1.6581 -2.48092 0
M  V30 3213 C 297.341 3.13742 -1.4987 0
M  V30 3214 H 296.664 3.22663 -2.36069 0
M  V30 3215 H 298.104 3.92861 -1.59487 0
M  V30 3216 C 296.563 3.36175 -0.220973 0
M  V30 3217 O 297.093 3.95469 0.704782 0
M  V30 3218 N 295.299 2.90348 -0.120963 0
M  V30 3219 H 294.846 2.42278 -0.875162 0
M  V30 3220 H 294.804 3.05732 0.733168 0
M  V30 3221 N 298.576 1.31904 0.862503 0
M  V30 3222 C 299.816 1.23324 1.63004 0
M  V30 3223 C 300.18 -0.203724 1.90916 0
M  V30 3224 O 301.381 -0.413132 2.65606 0
M  V30 3225 C 299.652 2.06116 2.91978 0
M  V30 3226 S 301.211 2.14478 3.82812 0
M  V30 3227 H 298.029 0.439117 0.559193 0
M  V30 3228 H 300.631 1.66658 1.02202 0
M  V30 3229 H 299.335 3.09593 2.69407 0
M  V30 3230 H 298.866 1.6353 3.57801 0
M  V30 3231 H 300.881 1.28855 4.79177 0
M  V30 3232 N 300.054 -1.07777 1.14986 0
M  V30 3233 C 301.331 -1.7699 0.832695 0
M  V30 3234 C 301.711 -2.001 -0.672561 0
M  V30 3235 O 301.059 -1.61598 -1.6155 0
M  V30 3236 C 301.269 -3.08139 1.63863 0
M  V30 3237 C 302.617 -3.8256 1.84208 0
M  V30 3238 O 303.641 -3.17939 1.60603 0
M  V30 3239 O 302.5 -4.98612 2.23714 0
M  V30 3240 H 299.594 -0.768389 0.305791 0
M  V30 3241 H 302.14 -1.14182 1.25541 0
M  V30 3242 H 300.912 -2.86909 2.6608 0
M  V30 3243 H 300.535 -3.78678 1.21197 0
M  V30 3244 N 301.532 -0.945985 -1.26051 0
M  V30 3245 C 302.76 -0.613025 -1.9761 0
M  V30 3246 C 303.175 0.813035 -1.70397 0
M  V30 3247 O 302.532 1.54274 -0.974979 0
M  V30 3248 C 302.583 -0.85159 -3.51326 0
M  V30 3249 O 302.304 -2.22157 -3.77595 0
M  V30 3250 C 303.805 -0.529831 -4.40122 0
M  V30 3251 H 301.025 -0.230593 -0.630133 0
M  V30 3252 H 303.569 -1.268 -1.60443 0
M  V30 3253 H 301.724 -0.243151 -3.86636 0
M  V30 3254 H 302.138 -2.2852 -4.721 0
M  V30 3255 H 303.612 -0.747348 -5.46917 0
M  V30 3256 H 304.089 0.535341 -4.35925 0
M  V30 3257 H 304.695 -1.11721 -4.10364 0
M  V30 3258 N 303.011 1.40521 -0.713556 0
M  V30 3259 C 304.236 2.05759 -0.26035 0
M  V30 3260 C 304.661 1.53403 1.08854 0
M  V30 3261 O 304.019 0.668535 1.68524 0
M  V30 3262 C 304.067 3.59745 -0.248122 0
M  V30 3263 O 303.171 4.05123 0.77131 0
M  V30 3264 H 302.512 0.652564 -0.122703 0
M  V30 3265 H 305.042 1.79958 -0.973467 0
M  V30 3266 H 305.052 4.07911 -0.0851129 0
M  V30 3267 H 303.727 3.97218 -1.2325 0
M  V30 3268 H 302.304 3.68422 0.57619 0
M  V30 3269 N 304.489 0.459591 1.5075 0
M  V30 3270 C 305.735 -0.091664 2.03193 0
M  V30 3271 C 306.09 -1.38432 1.3362 0
M  V30 3272 O 305.383 -1.86257 0.449322 0
M  V30 3273 C 305.577 -0.342866 3.55752 0
M  V30 3274 C 305.406 0.923888 4.40107 0
M  V30 3275 C 304.176 1.46388 4.83631 0
M  V30 3276 C 306.374 1.81617 4.81165 0
M  V30 3277 N 304.356 2.68086 5.52271 0
M  V30 3278 C 305.727 2.87907 5.49099 0
M  V30 3279 C 307.782 1.82793 4.63132 0
M  V30 3280 C 306.485 3.95347 6.0091 0
M  V30 3281 C 308.511 2.89182 5.15876 0
M  V30 3282 C 307.873 3.94191 5.83774 0
M  V30 3283 H 303.972 0.00619247 0.781975 0
M  V30 3284 H 306.556 0.625233 1.84388 0
M  V30 3285 H 304.727 -1.0288 3.74527 0
M  V30 3286 H 306.459 -0.887445 3.9485 0
M  V30 3287 H 303.214 1.01466 4.62603 0
M  V30 3288 H 303.638 3.29857 5.91205 0
M  V30 3289 H 308.28 1.0293 4.1008 0
M  V30 3290 H 305.998 4.76035 6.53006 0
M  V30 3291 H 309.584 2.91061 5.0376 0
M  V30 3292 H 308.464 4.75161 6.23853 0
M  V30 3293 N 305.967 -1.56429 0.191757 0
M  V30 3294 C 307.216 -1.9666 -0.448088 0
M  V30 3295 C 307.529 -1.08136 -1.62991 0
M  V30 3296 O 308.735 -1.38135 -2.33733 0
M  V30 3297 C 307.191 -3.49753 -0.848585 0
M  V30 3298 C 306.799 -4.46935 0.308764 0
M  V30 3299 C 308.543 -3.9876 -1.4557 0
M  V30 3300 C 306.45 -5.91293 -0.112506 0
M  V30 3301 H 305.38 -0.734312 -0.171179 0
M  V30 3302 H 308.031 -1.81301 0.283242 0
M  V30 3303 H 306.413 -3.60604 -1.63649 0
M  V30 3304 H 307.587 -4.47813 1.08627 0
M  V30 3305 H 305.902 -4.08102 0.827158 0
M  V30 3306 H 308.499 -5.04086 -1.78328 0
M  V30 3307 H 308.842 -3.42875 -2.36099 0
M  V30 3308 H 309.375 -3.9101 -0.731836 0
M  V30 3309 H 306.114 -6.51097 0.758514 0
M  V30 3310 H 305.634 -5.93676 -0.854941 0
M  V30 3311 H 307.313 -6.44663 -0.549448 0
M  V30 3312 N 307.445 0.0818655 -1.57387 0
M  V30 3313 C 308.692 0.782914 -1.86753 0
M  V30 3314 C 309.02 1.78082 -0.782118 0
M  V30 3315 O 308.275 1.94426 0.22295 0
M  V30 3316 C 308.574 1.53513 -3.22752 0
M  V30 3317 C 308.24 0.678134 -4.45771 0
M  V30 3318 C 306.902 0.441929 -4.79166 0
M  V30 3319 C 309.254 0.0832243 -5.21134 0
M  V30 3320 C 306.582 -0.398833 -5.85343 0
M  V30 3321 C 308.934 -0.744935 -6.28199 0
M  V30 3322 C 307.598 -0.991107 -6.60101 0
M  V30 3323 H 306.868 0.286489 -0.683378 0
M  V30 3324 H 309.515 0.0439808 -1.91449 0
M  V30 3325 H 307.82 2.34599 -3.138 0
M  V30 3326 H 309.517 2.08218 -3.42705 0
M  V30 3327 H 306.107 0.872357 -4.19628 0
M  V30 3328 H 310.291 0.252847 -4.95655 0
M  V30 3329 H 305.547 -0.598405 -6.08465 0
M  V30 3330 H 309.721 -1.21271 -6.8576 0
M  V30 3331 H 307.348 -1.64437 -7.42202 0
M  V30 3332 N 308.923 1.53595 0.353017 0
M  V30 3333 C 309.886 1.80232 1.41594 0
M  V30 3334 C 310.886 0.673081 1.46035 0
M  V30 3335 O 312.076 0.941335 1.46576 0
M  V30 3336 C 309.208 1.93578 2.80607 0
M  V30 3337 H 310.401 2.75174 1.19244 0
M  V30 3338 H 307.954 1.44864 0.586872 0
M  V30 3339 H 308.689 1.00746 3.08254 0
M  V30 3340 H 308.474 2.75724 2.78781 0
M  V30 3341 H 309.964 2.15735 3.57558 0
M  V30 3342 N 310.401 -0.613514 1.45168 0
M  V30 3343 C 311.626 -1.40437 1.52618 0
M  V30 3344 C 312.051 -1.87438 0.157707 0
M  V30 3345 O 311.409 -1.59791 -0.856537 0
M  V30 3346 C 311.457 -2.58894 2.51011 0
M  V30 3347 O 310.561 -3.59326 2.02382 0
M  V30 3348 H 309.902 -0.419506 0.514695 0
M  V30 3349 H 312.432 -0.747215 1.90467 0
M  V30 3350 H 312.442 -3.06214 2.69624 0
M  V30 3351 H 311.117 -2.24032 3.50403 0
M  V30 3352 H 309.694 -3.18695 1.93618 0
M  V30 3353 N 311.879 -1.3236 -0.855495 0
M  V30 3354 C 312.826 -1.21225 -1.964 0
M  V30 3355 C 313.796 -0.0946204 -1.6583 0
M  V30 3356 O 314.981 -0.27002 -1.8888 0
M  V30 3357 C 312.121 -0.940419 -3.32039 0
M  V30 3358 C 311.234 -2.14276 -3.75113 0
M  V30 3359 C 310.369 -1.80648 -4.9954 0
M  V30 3360 C 309.408 -2.97208 -5.35102 0
M  V30 3361 N 308.545 -2.63678 -6.50706 0
M  V30 3362 H 313.385 -2.16042 -2.05255 0
M  V30 3363 H 310.922 -1.07451 -1.00463 0
M  V30 3364 H 312.88 -0.763311 -4.10158 0
M  V30 3365 H 311.51 -0.0290413 -3.22787 0
M  V30 3366 H 310.562 -2.43017 -2.92655 0
M  V30 3367 H 311.874 -3.01468 -3.97389 0
M  V30 3368 H 311.028 -1.59484 -5.85363 0
M  V30 3369 H 309.767 -0.906678 -4.79198 0
M  V30 3370 H 308.772 -3.19004 -4.47791 0
M  V30 3371 H 309.997 -3.87918 -5.57401 0
M  V30 3372 H 307.943 -1.76238 -6.31883 0
M  V30 3373 H 307.86 -3.444 -6.72997 0
M  V30 3374 H 309.128 -2.45942 -7.39684 0
M  V30 3375 N 313.357 1.07166 -1.15556 0
M  V30 3376 C 314.587 1.83248 -0.954133 0
M  V30 3377 C 314.995 1.82449 0.500911 0
M  V30 3378 O 314.338 1.23575 1.35923 0
M  V30 3379 C 314.4 3.31393 -1.39351 0
M  V30 3380 C 314.064 3.5591 -2.86666 0
M  V30 3381 C 315.061 3.49695 -3.8472 0
M  V30 3382 C 312.746 3.83515 -3.24379 0
M  V30 3383 C 314.74 3.70737 -5.18491 0
M  V30 3384 C 312.427 4.04209 -4.58321 0
M  V30 3385 C 313.425 3.97815 -5.55186 0
M  V30 3386 O 313.113 4.17954 -6.86709 0
M  V30 3387 H 312.845 0.584941 -0.338851 0
M  V30 3388 H 315.399 1.36169 -1.53777 0
M  V30 3389 H 313.629 3.79292 -0.75329 0
M  V30 3390 H 315.318 3.88945 -1.16089 0
M  V30 3391 H 316.084 3.28368 -3.56931 0
M  V30 3392 H 311.963 3.87605 -2.49567 0
M  V30 3393 H 315.507 3.65663 -5.94085 0
M  V30 3394 H 311.404 4.25023 -4.85825 0
M  V30 3395 H 312.172 4.35291 -6.93155 0
M  V30 3396 N 314.835 0.952656 1.25548 0
M  V30 3397 C 315.785 0.442033 2.23674 0
M  V30 3398 C 316.769 -0.467632 1.53955 0
M  V30 3399 O 317.961 -0.301006 1.74422 0
M  V30 3400 C 315.09 -0.280816 3.4215 0
M  V30 3401 C 314.176 0.646803 4.19139 0
M  V30 3402 N 314.567 1.77759 4.73535 0
M  V30 3403 C 312.865 0.454617 4.43677 0
M  V30 3404 C 313.566 2.35658 5.31827 0
M  V30 3405 N 312.542 1.64333 5.18166 0
M  V30 3406 H 316.344 1.30505 2.63336 0
M  V30 3407 H 313.858 0.809904 1.40763 0
M  V30 3408 H 315.855 -0.663747 4.11582 0
M  V30 3409 H 314.515 -1.14046 3.04012 0
M  V30 3410 H 315.526 2.15949 4.7073 0
M  V30 3411 H 312.203 -0.362312 4.15925 0
M  V30 3412 H 313.593 3.30998 5.84713 0
M  V30 3413 N 316.313 -1.40141 0.720998 0
M  V30 3414 C 317.243 -2.33339 0.0867621 0
M  V30 3415 C 318.224 -1.53178 -0.739622 0
M  V30 3416 O 319.409 -1.81625 -0.687449 0
M  V30 3417 C 316.539 -3.37194 -0.831728 0
M  V30 3418 C 315.493 -4.27857 -0.110558 0
M  V30 3419 C 314.819 -5.22294 -1.14513 0
M  V30 3420 C 316.119 -5.11872 1.0385 0
M  V30 3421 H 317.813 -2.86626 0.865219 0
M  V30 3422 H 315.359 -1.37814 0.417516 0
M  V30 3423 H 317.312 -4.01335 -1.28485 0
M  V30 3424 H 316.036 -2.82314 -1.64214 0
M  V30 3425 H 314.695 -3.65176 0.322797 0
M  V30 3426 H 314.343 -4.63717 -1.94874 0
M  V30 3427 H 314.043 -5.83797 -0.667446 0
M  V30 3428 H 315.567 -5.89312 -1.59824 0
M  V30 3429 H 316.981 -5.69436 0.664482 0
M  V30 3430 H 315.378 -5.82445 1.4449 0
M  V30 3431 H 316.448 -4.4753 1.86668 0
M  V30 3432 N 317.792 -0.46758 -1.50504 0
M  V30 3433 C 318.702 0.33382 -2.32213 0
M  V30 3434 C 319.718 0.999323 -1.42441 0
M  V30 3435 O 320.894 0.988068 -1.75497 0
M  V30 3436 C 317.959 1.4035 -3.17022 0
M  V30 3437 C 317.02 0.754961 -4.2261 0
M  V30 3438 C 316.253 1.77367 -5.03365 0
M  V30 3439 O 316.476 2.99976 -4.8515 0
M  V30 3440 O 315.41 1.34744 -5.86624 0
M  V30 3441 H 319.236 -0.334067 -3.01857 0
M  V30 3442 H 316.821 -0.229496 -1.47627 0
M  V30 3443 H 318.703 2.02318 -3.69656 0
M  V30 3444 H 317.378 2.05492 -2.5011 0
M  V30 3445 H 316.285 0.0964244 -3.73976 0
M  V30 3446 H 317.618 0.146545 -4.91982 0
M  V30 3447 N 319.27 1.56325 -0.20005 0
M  V30 3448 C 320.498 2.02105 0.442874 0
M  V30 3449 C 320.913 1.08014 1.5485 0
M  V30 3450 O 320.27 0.0858797 1.82298 0
M  V30 3451 C 320.321 3.47549 0.994583 0
M  V30 3452 O 320.042 4.38049 -0.0669322 0
M  V30 3453 C 321.543 4.0887 1.7129 0
M  V30 3454 H 318.763 0.661807 0.110691 0
M  V30 3455 H 321.307 2.02134 -0.310207 0
M  V30 3456 H 319.462 3.48204 1.69803 0
M  V30 3457 H 319.876 5.23368 0.344462 0
M  V30 3458 H 321.35 5.12475 2.05118 0
M  V30 3459 H 321.827 3.52615 2.61838 0
M  V30 3460 H 322.433 4.12002 1.05518 0
M  V30 3461 N 320.748 -0.0735177 1.57428 0
M  V30 3462 C 321.997 -0.771809 1.86349 0
M  V30 3463 C 322.31 -1.78828 0.792452 0
M  V30 3464 O 323.516 -2.53602 0.96945 0
M  V30 3465 C 321.972 -1.42358 3.30548 0
M  V30 3466 C 321.58 -0.445761 4.45777 0
M  V30 3467 C 323.324 -2.10434 3.6867 0
M  V30 3468 C 321.231 -1.10335 5.81016 0
M  V30 3469 H 320.161 -0.291999 0.695164 0
M  V30 3470 H 322.812 -0.0250749 1.83483 0
M  V30 3471 H 321.194 -2.21852 3.28021 0
M  V30 3472 H 322.368 0.319239 4.59693 0
M  V30 3473 H 320.683 0.130457 4.16196 0
M  V30 3474 H 323.28 -2.60405 4.67004 0
M  V30 3475 H 323.623 -2.90298 2.98383 0
M  V30 3476 H 324.156 -1.37773 3.7318 0
M  V30 3477 H 320.895 -0.345061 6.54591 0
M  V30 3478 H 320.415 -1.83925 5.70904 0
M  V30 3479 H 322.094 -1.62367 6.26295 0
M  V30 3480 N 322.226 -1.5378 -0.344866 0
M  V30 3481 C 323.642 -1.44015 -0.687888 0
M  V30 3482 C 323.842 -0.595834 -1.92489 0
M  V30 3483 O 322.898 -0.0863064 -2.52352 0
M  V30 3484 C 324.211 -2.87481 -0.881758 0
M  V30 3485 C 325.759 -2.97247 -0.980459 0
M  V30 3486 C 326.234 -4.41819 -1.20665 0
M  V30 3487 N 327.725 -4.45339 -1.27389 0
M  V30 3488 C 328.46 -5.54333 -1.46639 0
M  V30 3489 N 327.956 -6.73335 -1.63071 0
M  V30 3490 N 329.749 -5.41944 -1.49176 0
M  V30 3491 H 321.9 -2.07169 0.468475 0
M  V30 3492 H 324.163 -0.93643 0.147655 0
M  V30 3493 H 323.869 -3.51672 -0.0443444 0
M  V30 3494 H 323.743 -3.32352 -1.78388 0
M  V30 3495 H 326.13 -2.33197 -1.8084 0
M  V30 3496 H 326.211 -2.5574 -0.0552713 0
M  V30 3497 H 325.855 -5.06449 -0.383652 0
M  V30 3498 H 325.785 -4.80917 -2.14539 0
M  V30 3499 H 328.276 -3.59585 -1.1622 0
M  V30 3500 H 328.589 -7.52165 -1.77391 0
M  V30 3501 H 326.934 -6.76282 -1.60209 0
M  V30 3502 H 330.125 -4.47932 -1.3592 0
M  V30 3503 H 330.298 -6.26946 -1.63837 0
M  V30 3504 N 323.704 0.605807 -1.45491 0
M  V30 3505 C 324.944 1.37606 -1.51142 0
M  V30 3506 C 325.308 1.91413 -0.150075 0
M  V30 3507 O 326.509 2.68677 -0.0812828 0
M  V30 3508 C 324.78 2.49197 -2.56195 0
M  V30 3509 S 326.339 3.36953 -2.81083 0
M  V30 3510 H 323.157 0.469118 -0.534275 0
M  V30 3511 H 325.759 0.698845 -1.82583 0
M  V30 3512 H 324.463 2.0802 -3.53773 0
M  V30 3513 H 323.994 3.21717 -2.26411 0
M  V30 3514 H 326.009 4.47395 -2.14598 0
M  V30 3515 N 325.182 1.32811 0.848464 0
M  V30 3516 C 326.115 1.16601 1.96162 0
M  V30 3517 C 327.093 0.0638855 1.62474 0
M  V30 3518 O 328.277 0.224348 1.8716 0
M  V30 3519 C 325.404 0.786333 3.29446 0
M  V30 3520 C 324.45 1.89459 3.8211 0
M  V30 3521 S 325.283 3.50395 4.04949 0
M  V30 3522 C 326.439 3.14413 5.41198 0
M  V30 3523 H 326.672 2.10832 2.09612 0
M  V30 3524 H 324.205 1.17543 1.00115 0
M  V30 3525 H 326.163 0.574044 4.06466 0
M  V30 3526 H 324.824 -0.137218 3.138 0
M  V30 3527 H 324.017 1.58207 4.78526 0
M  V30 3528 H 323.619 2.06304 3.11953 0
M  V30 3529 H 325.911 2.64642 6.23675 0
M  V30 3530 H 326.854 4.09874 5.77416 0
M  V30 3531 H 327.262 2.51266 5.05495 0
M  V30 3532 N 326.66 -1.06551 1.16123 0
M  V30 3533 C 327.607 -2.13961 0.865414 0
M  V30 3534 C 328.577 -1.65066 -0.185055 0
M  V30 3535 O 329.762 -1.90732 -0.05083 0
M  V30 3536 C 326.902 -3.43113 0.369776 0
M  V30 3537 C 326.015 -4.05756 1.48276 0
M  V30 3538 C 325.15 -5.22773 0.942414 0
M  V30 3539 C 324.189 -5.77395 2.03179 0
M  V30 3540 N 323.326 -6.85731 1.50721 0
M  V30 3541 H 328.166 -2.38605 1.78527 0
M  V30 3542 H 325.703 -1.17072 0.890646 0
M  V30 3543 H 327.661 -4.17151 0.0640643 0
M  V30 3544 H 326.291 -3.18695 -0.513143 0
M  V30 3545 H 325.343 -3.29292 1.9045 0
M  V30 3546 H 326.655 -4.42351 2.30493 0
M  V30 3547 H 325.809 -6.03827 0.589729 0
M  V30 3548 H 324.548 -4.87618 0.0895191 0
M  V30 3549 H 323.553 -4.94981 2.3932 0
M  V30 3550 H 324.778 -6.14603 2.8886 0
M  V30 3551 H 322.724 -6.52499 0.676811 0
M  V30 3552 H 322.641 -7.21254 2.26557 0
M  V30 3553 H 323.909 -7.7047 1.18303 0
M  V30 3554 N 328.138 -0.959301 -1.25041 0
M  V30 3555 C 329.386 -0.615393 -1.92503 0
M  V30 3556 C 329.707 0.850969 -1.75452 0
M  V30 3557 O 328.977 1.60658 -1.12098 0
M  V30 3558 H 327.557 -0.224613 -0.712431 0
M  V30 3559 H 330.219 -1.21855 -1.5211 0
M  V30 3560 H 329.315 -0.848738 -3.00338 0
M  V30 3561 N 329.616 1.39756 -0.72842 0
M  V30 3562 C 330.846 2.04651 -0.283117 0
M  V30 3563 C 331.254 1.5502 1.08469 0
M  V30 3564 O 330.597 0.707343 1.69536 0
M  V30 3565 C 330.659 3.58947 -0.199309 0
M  V30 3566 C 330.323 4.31525 -1.5045 0
M  V30 3567 C 331.32 4.5861 -2.44894 0
M  V30 3568 C 329.005 4.70195 -1.76698 0
M  V30 3569 C 330.999 5.23366 -3.63822 0
M  V30 3570 C 328.686 5.3468 -2.95906 0
M  V30 3571 C 329.684 5.61198 -3.89289 0
M  V30 3572 O 329.372 6.24347 -5.06404 0
M  V30 3573 H 329.104 0.664777 -0.122666 0
M  V30 3574 H 331.658 1.79913 -0.990987 0
M  V30 3575 H 329.888 3.82556 0.56461 0
M  V30 3576 H 331.577 4.0534 0.213125 0
M  V30 3577 H 332.343 4.29187 -2.25883 0
M  V30 3578 H 328.222 4.48916 -1.04859 0
M  V30 3579 H 331.766 5.4398 -4.36728 0
M  V30 3580 H 327.663 5.63524 -3.14819 0
M  V30 3581 H 328.431 6.42842 -5.06652 0
M  V30 3582 N 331.094 0.475555 1.50254 0
M  V30 3583 C 332.004 -0.321501 2.32387 0
M  V30 3584 C 333.02 -0.991755 1.42969 0
M  V30 3585 O 334.196 -0.978747 1.76018 0
M  V30 3586 C 331.261 -1.38667 3.17762 0
M  V30 3587 C 330.322 -0.732538 4.23004 0
M  V30 3588 C 329.555 -1.74695 5.04299 0
M  V30 3589 O 329.778 -2.97399 4.86734 0
M  V30 3590 O 328.712 -1.31631 5.8733 0
M  V30 3591 H 332.538 0.350071 3.01676 0
M  V30 3592 H 330.123 0.237321 1.47503 0
M  V30 3593 H 332.005 -2.00354 3.70724 0
M  V30 3594 H 330.68 -2.04163 2.51196 0
M  V30 3595 H 329.587 -0.0765902 3.74022 0
M  V30 3596 H 330.92 -0.120452 4.92053 0
M  V30 3597 N 332.573 -1.56217 0.208337 0
M  V30 3598 C 333.984 -1.84243 -0.301904 0
M  V30 3599 C 334.335 -1.12939 -1.60434 0
M  V30 3600 O 333.46 -0.39461 -2.12772 0
M  V30 3601 C 334.055 -3.34231 -0.554543 0
M  V30 3602 C 332.614 -3.62621 -1.00912 0
M  V30 3603 C 331.761 -2.77224 -0.064933 0
M  V30 3604 H 334.712 -1.52712 0.431833 0
M  V30 3605 H 334.733 -3.5372 -1.40223 0
M  V30 3606 H 334.245 -3.86099 0.393561 0
M  V30 3607 H 332.346 -3.16197 -1.97104 0
M  V30 3608 H 332.459 -4.7071 -0.892674 0
M  V30 3609 H 330.823 -2.48256 -0.56929 0
M  V30 3610 H 331.606 -3.31887 0.877851 0
M  V30 3611 N 334.051 0.0651679 -1.57465 0
M  V30 3612 C 335.279 0.775808 -1.91804 0
M  V30 3613 C 335.694 1.70782 -0.804916 0
M  V30 3614 O 335.051 1.81153 0.221311 0
M  V30 3615 C 335.102 1.56381 -3.25925 0
M  V30 3616 O 334.823 0.669248 -4.32958 0
M  V30 3617 C 336.324 2.37485 -3.7432 0
M  V30 3618 H 333.544 0.2202 -0.63384 0
M  V30 3619 H 336.088 0.0334587 -2.04473 0
M  V30 3620 H 334.243 2.25837 -3.14764 0
M  V30 3621 H 334.657 1.21801 -5.10162 0
M  V30 3622 H 336.131 2.88223 -4.70778 0
M  V30 3623 H 336.608 3.17307 -3.03666 0
M  V30 3624 H 337.214 1.73173 -3.88447 0
M  V30 3625 N 335.529 1.53961 0.336706 0
M  V30 3626 C 336.476 1.82428 1.41381 0
M  V30 3627 C 337.446 0.670444 1.51968 0
M  V30 3628 O 338.631 0.915565 1.67398 0
M  V30 3629 C 335.771 2.04564 2.77934 0
M  V30 3630 C 334.884 3.32267 2.76084 0
M  V30 3631 C 334.019 3.44434 4.04399 0
M  V30 3632 C 333.058 4.66061 3.96804 0
M  V30 3633 N 332.195 4.75224 5.16823 0
M  V30 3634 H 337.035 2.74324 1.16405 0
M  V30 3635 H 334.572 1.35869 0.563752 0
M  V30 3636 H 336.53 2.15388 3.57301 0
M  V30 3637 H 335.16 1.15974 3.01247 0
M  V30 3638 H 334.212 3.3025 1.88784 0
M  V30 3639 H 335.524 4.21733 2.66351 0
M  V30 3640 H 334.678 3.54728 4.92192 0
M  V30 3641 H 333.417 2.53037 4.16921 0
M  V30 3642 H 332.422 4.55838 3.07396 0
M  V30 3643 H 333.647 5.58829 3.85858 0
M  V30 3644 H 331.593 3.86739 5.29876 0
M  V30 3645 H 331.51 5.58636 5.09374 0
M  V30 3646 H 332.778 4.89835 6.06367 0
M  V30 3647 N 337.007 -0.598083 1.45811 0
M  V30 3648 C 338.256 -1.35295 1.49594 0
M  V30 3649 C 338.569 -1.95057 0.145679 0
M  V30 3650 O 339.775 -2.71431 0.0612099 0
M  V30 3651 C 338.231 -2.45124 2.63519 0
M  V30 3652 C 337.839 -1.91732 4.04899 0
M  V30 3653 C 339.583 -3.2205 2.76558 0
M  V30 3654 C 337.49 -2.991 5.1019 0
M  V30 3655 H 336.42 -0.508552 0.556679 0
M  V30 3656 H 339.071 -0.639977 1.71978 0
M  V30 3657 H 337.453 -3.19149 2.34435 0
M  V30 3658 H 338.627 -1.24352 4.43704 0
M  V30 3659 H 336.942 -1.27522 3.96393 0
M  V30 3660 H 339.539 -4.0215 3.52391 0
M  V30 3661 H 339.882 -3.73663 1.83526 0
M  V30 3662 H 340.415 -2.55127 3.05213 0
M  V30 3663 H 337.154 -2.52393 6.04961 0
M  V30 3664 H 336.674 -3.65017 4.75944 0
M  V30 3665 H 338.353 -3.63318 5.35359 0
M  V30 3666 N 338.485 -1.33259 -0.841409 0
M  V30 3667 C 339.71 -1.2775 -1.63385 0
M  V30 3668 C 340.135 0.149188 -1.87507 0
M  V30 3669 O 339.493 1.10498 -1.43736 0
M  V30 3670 C 339.541 -2.05571 -2.96265 0
M  V30 3671 O 338.645 -1.41257 -3.87453 0
M  V30 3672 H 337.986 -0.439627 -0.497618 0
M  V30 3673 H 340.516 -1.75782 -1.04699 0
M  V30 3674 H 340.526 -2.16241 -3.45982 0
M  V30 3675 H 339.201 -3.09309 -2.7803 0
M  V30 3676 H 337.778 -1.39217 -3.45938 0
M  V30 3677 N 339.963 1.05934 -1.16686 0
M  V30 3678 C 340.926 2.11669 -0.879144 0
M  V30 3679 C 341.926 1.60294 0.127445 0
M  V30 3680 O 343.116 1.7389 -0.103865 0
M  V30 3681 C 340.248 3.39438 -0.315425 0
M  V30 3682 H 341.441 2.38626 -1.81653 0
M  V30 3683 H 338.994 1.22058 -0.976299 0
M  V30 3684 H 339.729 3.18132 0.629468 0
M  V30 3685 H 339.514 3.78034 -1.04079 0
M  V30 3686 H 341.004 4.17391 -0.132189 0
M  V30 3687 N 341.441 0.965919 1.2453 0
M  V30 3688 C 342.371 0.513476 2.27784 0
M  V30 3689 C 343.352 -0.445974 1.6415 0
M  V30 3690 O 344.537 -0.342485 1.91156 0
M  V30 3691 C 341.667 -0.198839 3.4673 0
M  V30 3692 C 340.621 0.676456 4.2262 0
M  V30 3693 C 339.947 -0.167248 5.34438 0
M  V30 3694 C 341.247 1.96017 4.84123 0
M  V30 3695 H 342.941 1.3765 2.65881 0
M  V30 3696 H 340.487 0.663321 1.27813 0
M  V30 3697 H 342.44 -0.526567 4.18097 0
M  V30 3698 H 341.164 -1.0962 3.07654 0
M  V30 3699 H 339.823 0.98743 3.53052 0
M  V30 3700 H 339.471 -1.0647 4.91603 0
M  V30 3701 H 339.171 0.415181 5.86131 0
M  V30 3702 H 340.695 -0.489688 6.08633 0
M  V30 3703 H 342.109 1.69814 5.47573 0
M  V30 3704 H 340.506 2.48918 5.4604 0
M  V30 3705 H 341.576 2.65622 4.05676 0
M  V30 3706 N 342.919 -1.39368 0.735821 0
M  V30 3707 C 344.149 -2.04498 0.293967 0
M  V30 3708 C 344.557 -1.55593 -1.07645 0
M  V30 3709 O 343.9 -0.716324 -1.69158 0
M  V30 3710 C 343.962 -3.58836 0.218342 0
M  V30 3711 C 343.626 -4.30721 1.52736 0
M  V30 3712 C 344.623 -4.57305 2.47322 0
M  V30 3713 C 342.308 -4.69251 1.79189 0
M  V30 3714 C 344.302 -5.21429 3.66593 0
M  V30 3715 C 341.989 -5.33104 2.98737 0
M  V30 3716 C 342.987 -5.59125 3.9226 0
M  V30 3717 O 342.675 -6.21653 5.09708 0
M  V30 3718 H 342.407 -0.664118 0.126189 0
M  V30 3719 H 344.961 -1.79385 1.00051 0
M  V30 3720 H 343.191 -3.8285 -0.544314 0
M  V30 3721 H 344.88 -4.05447 -0.191626 0
M  V30 3722 H 345.646 -4.27983 2.28156 0
M  V30 3723 H 341.525 -4.48354 1.07239 0
M  V30 3724 H 345.069 -5.41656 4.39607 0
M  V30 3725 H 340.966 -5.61846 3.17803 0
M  V30 3726 H 341.734 -6.40146 5.10054 0
M  V30 3727 N 344.397 -0.483516 -1.5 0
M  V30 3728 C 345.643 0.0672592 -2.02688 0
M  V30 3729 C 345.976 1.38247 -1.36387 0
M  V30 3730 O 345.251 1.88131 -0.493675 0
M  V30 3731 C 345.534 0.238109 -3.59312 0
M  V30 3732 C 345.387 -1.099 -4.36168 0
M  V30 3733 C 346.706 0.986916 -4.28892 0
M  V30 3734 H 343.825 0.0229696 -0.736642 0
M  V30 3735 H 346.467 -0.631527 -1.79197 0
M  V30 3736 H 344.617 0.8333 -3.79458 0
M  V30 3737 H 346.289 -1.73172 -4.27562 0
M  V30 3738 H 344.532 -1.69261 -3.99416 0
M  V30 3739 H 345.203 -0.932954 -5.44059 0
M  V30 3740 H 347.679 0.482302 -4.13295 0
M  V30 3741 H 346.555 1.07527 -5.38265 0
M  V30 3742 H 346.816 2.0265 -3.92919 0
M  V30 3743 N 345.875 1.56104 -0.216619 0
M  V30 3744 C 346.838 2.18819 0.681962 0
M  V30 3745 C 347.838 1.14866 1.12528 0
M  V30 3746 O 349.028 1.40128 1.03488 0
M  V30 3747 C 346.16 2.80756 1.93362 0
M  V30 3748 H 347.353 2.99595 0.135254 0
M  V30 3749 H 344.906 1.56265 0.0330003 0
M  V30 3750 H 345.641 2.03837 2.52232 0
M  V30 3751 H 345.426 3.56876 1.62426 0
M  V30 3752 H 346.916 3.28844 2.57393 0
M  V30 3753 N 347.353 -0.0568162 1.57498 0
M  V30 3754 C 348.301 -1.08452 2.05769 0
M  V30 3755 C 349.295 -1.39164 0.965903 0
M  V30 3756 O 350.501 -1.38395 1.15095 0
M  V30 3757 H 346.876 -0.367148 0.656282 0
M  V30 3758 H 348.847 -0.651368 2.91204 0
M  V30 3759 C 347.596 -2.38543 2.52968 0
M  V30 3760 H 346.919 -2.15765 3.36579 0
M  V30 3761 H 348.359 -3.08863 2.90481 0
M  V30 3762 C 346.818 -3.05562 1.41893 0
M  V30 3763 O 347.348 -3.94262 0.769442 0
M  V30 3764 N 345.554 -2.6643 1.16032 0
M  V30 3765 H 345.101 -1.94387 1.6903 0
M  V30 3766 H 345.059 -3.11593 0.419219 0
M  V30 3767 N 348.832 -1.54138 -0.328536 0
M  V30 3768 C 350.072 -1.73827 -1.07534 0
M  V30 3769 C 350.436 -0.498777 -1.85408 0
M  V30 3770 O 351.637 -0.572937 -2.62623 0
M  V30 3771 C 349.908 -2.97573 -1.97952 0
M  V30 3772 S 351.467 -3.38143 -2.79652 0
M  V30 3773 H 348.285 -0.611287 -0.36311 0
M  V30 3774 H 350.887 -1.92306 -0.351931 0
M  V30 3775 H 349.591 -3.85939 -1.39569 0
M  V30 3776 H 349.122 -2.81603 -2.74706 0
M  V30 3777 H 351.137 -2.93052 -4.00418 0
M  V30 3778 N 350.31 0.590341 -1.46126 0
M  V30 3779 C 351.54 1.37304 -1.54373 0
M  V30 3780 C 351.948 1.88332 -0.181071 0
M  V30 3781 O 351.291 1.63852 0.830559 0
M  V30 3782 C 351.353 2.6012 -2.48149 0
M  V30 3783 C 351.017 2.30613 -3.94546 0
M  V30 3784 C 352.014 1.89915 -4.83971 0
M  V30 3785 C 349.699 2.42993 -4.39613 0
M  V30 3786 C 351.693 1.61981 -6.16475 0
M  V30 3787 C 349.38 2.14672 -5.72153 0
M  V30 3788 C 350.378 1.7423 -6.60404 0
M  V30 3789 O 350.066 1.46251 -7.90485 0
M  V30 3790 H 349.798 0.426086 -0.524811 0
M  V30 3791 H 352.352 0.72539 -1.92165 0
M  V30 3792 H 350.582 3.27664 -2.05361 0
M  V30 3793 H 352.271 3.22182 -2.46887 0
M  V30 3794 H 353.037 1.79872 -4.50412 0
M  V30 3795 H 348.916 2.73435 -3.71153 0
M  V30 3796 H 352.46 1.30341 -6.85315 0
M  V30 3797 H 348.357 2.24337 -6.05263 0
M  V30 3798 H 349.125 1.6016 -8.02677 0
M  V30 3799 N 351.788 1.33704 0.83433 0
M  V30 3800 C 352.735 1.24335 1.94447 0
M  V30 3801 C 353.705 0.120991 1.65659 0
M  V30 3802 O 354.89 0.300035 1.88426 0
M  V30 3803 C 352.03 0.993124 3.30501 0
M  V30 3804 C 351.143 2.20217 3.71657 0
M  V30 3805 C 350.278 1.88572 4.96602 0
M  V30 3806 C 349.317 3.05683 5.30306 0
M  V30 3807 N 348.454 2.73997 6.46429 0
M  V30 3808 H 353.294 2.1928 2.01792 0
M  V30 3809 H 350.831 1.09035 0.987404 0
M  V30 3810 H 352.789 0.828467 4.08892 0
M  V30 3811 H 351.419 0.0803902 3.227 0
M  V30 3812 H 350.471 2.47642 2.88752 0
M  V30 3813 H 351.783 3.07752 3.92543 0
M  V30 3814 H 350.937 1.68776 5.82752 0
M  V30 3815 H 349.676 0.982799 4.77695 0
M  V30 3816 H 348.681 3.26088 4.42659 0
M  V30 3817 H 349.906 3.96737 5.51159 0
M  V30 3818 H 347.852 1.86268 6.28999 0
M  V30 3819 H 347.769 3.55064 6.67432 0
M  V30 3820 H 349.037 2.57679 7.35678 0
M  V30 3821 N 353.266 -1.05314 1.17247 0
M  V30 3822 C 354.514 -1.77941 0.958194 0
M  V30 3823 C 354.835 -1.88089 -0.514556 0
M  V30 3824 O 354.105 -1.39676 -1.37359 0
M  V30 3825 H 352.685 -0.659116 0.351533 0
M  V30 3826 H 355.347 -1.27166 1.47699 0
M  V30 3827 H 354.443 -2.79663 1.38546 0
M  V30 3828 N 354.744 -0.972509 -1.24016 0
M  V30 3829 C 355.654 -0.5143 -2.28893 0
M  V30 3830 C 356.67 0.427078 -1.68677 0
M  V30 3831 O 357.846 0.298939 -1.99169 0
M  V30 3832 C 354.911 0.183598 -3.46214 0
M  V30 3833 C 353.972 -0.798202 -4.21814 0
M  V30 3834 C 353.205 -0.133514 -5.33533 0
M  V30 3835 O 353.428 1.07714 -5.60137 0
M  V30 3836 O 352.362 -0.828103 -5.96176 0
M  V30 3837 H 356.188 -1.38629 -2.70214 0
M  V30 3838 H 353.773 -0.739769 -1.29799 0
M  V30 3839 H 355.655 0.575433 -4.17453 0
M  V30 3840 H 354.33 1.03048 -3.0686 0
M  V30 3841 H 353.237 -1.24059 -3.52931 0
M  V30 3842 H 354.57 -1.61364 -4.64997 0
M  V30 3843 N 356.222 1.38976 -0.743202 0
M  V30 3844 C 357.172 2.27843 -0.084513 0
M  V30 3845 C 358.156 1.44677 0.704094 0
M  V30 3846 O 359.348 1.67511 0.571755 0
M  V30 3847 C 356.477 3.33466 0.815781 0
M  V30 3848 C 355.563 4.24095 0.0208844 0
M  V30 3849 N 355.954 4.95609 -1.0102 0
M  V30 3850 C 354.252 4.45303 0.249293 0
M  V30 3851 C 354.953 5.62287 -1.49024 0
M  V30 3852 N 353.929 5.37571 -0.807377 0
M  V30 3853 H 357.731 2.80593 -0.87436 0
M  V30 3854 H 355.245 1.51755 -0.578283 0
M  V30 3855 H 357.242 3.96008 1.30321 0
M  V30 3856 H 355.902 2.82276 1.6047 0
M  V30 3857 H 356.913 4.98849 -1.39176 0
M  V30 3858 H 353.59 4.0504 1.01237 0
M  V30 3859 H 354.98 6.29519 -2.34853 0
M  V30 3860 N 357.7 0.491464 1.49741 0
M  V30 3861 C 358.647 -0.292027 2.28945 0
M  V30 3862 C 359.617 -0.968973 1.34908 0
M  V30 3863 O 360.802 -0.97748 1.6386 0
M  V30 3864 C 357.942 -1.35617 3.17336 0
M  V30 3865 C 357.055 -0.691957 4.26422 0
M  V30 3866 C 356.19 -1.73572 5.02042 0
M  V30 3867 C 355.229 -1.05286 6.02977 0
M  V30 3868 N 354.366 -2.0404 6.71798 0
M  V30 3869 H 359.206 0.389654 2.95442 0
M  V30 3870 H 356.743 0.204003 1.45679 0
M  V30 3871 H 358.701 -1.98502 3.66951 0
M  V30 3872 H 357.331 -2.00674 2.52844 0
M  V30 3873 H 356.383 0.0499523 3.80367 0
M  V30 3874 H 357.695 -0.153946 4.98562 0
M  V30 3875 H 356.849 -2.43987 5.55478 0
M  V30 3876 H 355.588 -2.30757 4.29654 0
M  V30 3877 H 354.593 -0.334446 5.48782 0
M  V30 3878 H 355.818 -0.487636 6.77347 0
M  V30 3879 H 353.764 -2.60205 6.02187 0
M  V30 3880 H 353.681 -1.55279 7.39881 0
M  V30 3881 H 354.949 -2.73772 7.29842 0
M  V30 3882 N 359.178 -1.55987 0.224894 0
M  V30 3883 C 360.455 -1.90232 -0.455083 0
M  V30 3884 C 360.835 -1.14269 -1.77499 0
M  V30 3885 O 360.183 -0.253079 -2.27094 0
M  V30 3886 C 360.393 -3.42993 -0.644758 0
M  V30 3887 C 361.741 -4.13821 -0.950669 0
M  V30 3888 O 362.765 -3.4861 -0.731423 0
M  V30 3889 O 361.624 -5.29128 -1.36695 0
M  V30 3890 H 358.718 -0.79108 -0.241084 0
M  V30 3891 H 361.264 -1.67581 0.267327 0
M  V30 3892 H 360.036 -3.90252 0.28613 0
M  V30 3893 H 359.659 -3.71434 -1.41853 0
M  V30 3894 N 360.656 0.0484629 -1.57525 0
M  V30 3895 C 362.072 0.40375 -1.54409 0
M  V30 3896 C 362.272 1.77786 -0.948384 0
M  V30 3897 O 361.328 2.46189 -0.560983 0
M  V30 3898 C 362.641 0.323394 -2.98956 0
M  V30 3899 C 364.189 0.401892 -3.10409 0
M  V30 3900 C 364.664 0.351195 -4.56652 0
M  V30 3901 N 366.155 0.410576 -4.61377 0
M  V30 3902 C 366.89 0.393933 -5.72045 0
M  V30 3903 N 366.386 0.330724 -6.9201 0
M  V30 3904 N 368.179 0.442227 -5.60358 0
M  V30 3905 H 360.33 -0.851016 -1.94606 0
M  V30 3906 H 362.593 -0.321721 -0.89174 0
M  V30 3907 H 362.299 -0.62011 -3.4619 0
M  V30 3908 H 362.173 1.12463 -3.60044 0
M  V30 3909 H 364.56 1.33582 -2.63134 0
M  V30 3910 H 364.641 -0.428342 -2.52188 0
M  V30 3911 H 364.285 -0.578987 -5.04589 0
M  V30 3912 H 364.215 1.19928 -5.12762 0
M  V30 3913 H 366.706 0.462729 -3.75056 0
M  V30 3914 H 367.019 0.322592 -7.72126 0
M  V30 3915 H 365.364 0.29706 -6.94365 0
M  V30 3916 H 368.555 0.489464 -4.65534 0
M  V30 3917 H 368.728 0.425788 -6.466 0
M  V30 3918 N 362.134 1.5431 0.320358 0
M  V30 3919 C 363.374 1.74395 1.0661 0
M  V30 3920 C 363.738 0.508602 1.85141 0
M  V30 3921 O 364.939 0.586856 2.62316 0
M  V30 3922 C 363.21 2.98619 1.96371 0
M  V30 3923 S 364.769 3.39621 2.77854 0
M  V30 3924 H 361.587 0.613204 0.359863 0
M  V30 3925 H 364.189 1.9249 0.341727 0
M  V30 3926 H 362.893 3.86673 1.3752 0
M  V30 3927 H 362.424 2.83055 2.73209 0
M  V30 3928 H 364.439 2.95172 3.98858 0
M  V30 3929 N 363.613 -0.582584 1.46437 0
M  V30 3930 C 364.89 -1.34276 1.4223 0
M  V30 3931 C 365.27 -2.10835 0.10583 0
M  V30 3932 O 364.618 -2.09485 -0.912596 0
M  V30 3933 C 364.828 -2.26865 2.65204 0
M  V30 3934 C 366.176 -2.88691 3.11356 0
M  V30 3935 O 367.2 -2.37178 2.65753 0
M  V30 3936 O 366.059 -3.82255 3.90568 0
M  V30 3937 H 363.153 -0.603326 0.565621 0
M  V30 3938 H 365.699 -0.603591 1.58603 0
M  V30 3939 H 364.471 -1.69724 3.52576 0
M  V30 3940 H 364.094 -3.08122 2.5129 0
M  V30 3941 N 365.091 -1.34144 -0.827227 0
M  V30 3942 C 366.001 -1.27428 -1.96975 0
M  V30 3943 C 367.017 -0.182728 -1.73038 0
M  V30 3944 O 368.193 -0.408426 -1.97215 0
M  V30 3945 C 365.258 -1.02526 -3.31194 0
M  V30 3946 C 364.319 -2.20796 -3.68168 0
M  V30 3947 C 363.552 -1.97073 -4.95982 0
M  V30 3948 O 363.775 -0.926822 -5.6282 0
M  V30 3949 O 362.709 -2.83912 -5.30733 0
M  V30 3950 H 366.535 -2.23537 -2.05584 0
M  V30 3951 H 364.12 -1.14307 -0.961989 0
M  V30 3952 H 366.002 -0.904026 -4.11589 0
M  V30 3953 H 364.677 -0.0945389 -3.23562 0
M  V30 3954 H 363.584 -2.38477 -2.88235 0
M  V30 3955 H 364.917 -3.12243 -3.8048 0
M  V30 3956 N 366.569 1.04691 -1.17803 0
M  V30 3957 C 367.817 1.7743 -0.967617 0
M  V30 3958 C 368.138 1.88359 0.504574 0
M  V30 3959 O 367.408 1.40402 1.36617 0
M  V30 3960 H 365.988 0.657242 -0.355024 0
M  V30 3961 H 368.65 1.2638 -1.48371 0
M  V30 3962 H 367.746 2.78924 -1.40027 0
M  V30 3963 N 368.047 0.979072 1.23499 0
M  V30 3964 C 369.272 0.664845 1.96455 0
M  V30 3965 C 369.697 -0.761287 1.72006 0
M  V30 3966 O 369.055 -1.51837 0.990713 0
M  V30 3967 C 369.103 0.959479 3.47601 0
M  V30 3968 O 368.207 0.0508168 4.12369 0
M  V30 3969 H 367.548 0.250185 0.615064 0
M  V30 3970 H 370.078 1.31231 1.5697 0
M  V30 3971 H 370.088 0.895642 3.98048 0
M  V30 3972 H 368.763 1.99876 3.64723 0
M  V30 3973 H 367.34 0.16895 3.72517 0
M  V30 3974 N 369.525 -1.3858 0.750561 0
M  V30 3975 C 370.75 -2.04997 0.314812 0
M  V30 3976 C 371.175 -1.56235 -1.04749 0
M  V30 3977 O 370.533 -0.712981 -1.66692 0
M  V30 3978 C 370.581 -3.58961 0.343415 0
M  V30 3979 O 369.685 -4.07025 -0.663628 0
M  V30 3980 H 369.026 -0.649081 0.139962 0
M  V30 3981 H 371.556 -1.77313 1.02084 0
M  V30 3982 H 371.566 -4.07542 0.193233 0
M  V30 3983 H 370.241 -3.93811 1.33738 0
M  V30 3984 H 368.818 -3.6982 -0.478307 0
M  V30 3985 N 371.003 -0.499398 -1.49478 0
M  V30 3986 C 372.414 -0.051215 -1.8663 0
M  V30 3987 C 372.765 1.36238 -1.41186 0
M  V30 3988 O 371.89 2.01502 -0.789051 0
M  V30 3989 C 372.485 -0.0861651 -3.3869 0
M  V30 3990 C 371.044 0.30667 -3.75149 0
M  V30 3991 C 370.191 -0.459397 -2.73468 0
M  V30 3992 H 373.142 -0.712264 -1.41818 0
M  V30 3993 H 373.163 0.709507 -3.73826 0
M  V30 3994 H 372.675 -1.11512 -3.71735 0
M  V30 3995 H 370.776 1.33892 -3.47712 0
M  V30 3996 H 370.889 -0.0116669 -4.79099 0
M  V30 3997 H 369.253 0.0905645 -2.54539 0
M  V30 3998 H 370.036 -1.4884 -3.09357 0
M  V30 3999 N 372.481 1.55866 -0.233164 0
M  V30 4000 C 373.414 2.16794 0.712442 0
M  V30 4001 C 374.392 1.1158 1.18273 0
M  V30 4002 O 375.576 1.39897 1.26337 0
M  V30 4003 C 372.703 2.75757 1.96661 0
M  V30 4004 C 371.749 3.93902 1.63533 0
M  V30 4005 S 372.582 5.30223 0.74995 0
M  V30 4006 C 373.738 5.92631 2.01343 0
M  V30 4007 H 373.971 2.96662 0.194617 0
M  V30 4008 H 371.504 1.5439 -0.0177425 0
M  V30 4009 H 373.462 3.10367 2.68668 0
M  V30 4010 H 372.123 1.9586 2.45556 0
M  V30 4011 H 371.316 4.33702 2.56747 0
M  V30 4012 H 370.918 3.60499 0.995804 0
M  V30 4013 H 373.21 6.09312 2.96219 0
M  V30 4014 H 374.153 6.88388 1.65915 0
M  V30 4015 H 374.561 5.21571 2.15925 0
M  V30 4016 N 373.959 -0.0401083 1.57549 0
M  V30 4017 C 374.869 -1.06133 2.0922 0
M  V30 4018 C 375.885 -1.40356 1.0284 0
M  V30 4019 O 377.061 -1.49897 1.34509 0
M  V30 4020 C 374.126 -2.34658 2.55218 0
M  V30 4021 C 373.187 -2.07117 3.76033 0
M  V30 4022 C 372.42 -3.29514 4.19829 0
M  V30 4023 O 372.643 -4.39794 3.63232 0
M  V30 4024 O 371.577 -3.15863 5.12362 0
M  V30 4025 H 375.403 -0.652244 2.96613 0
M  V30 4026 H 372.988 -0.256368 1.47184 0
M  V30 4027 H 374.87 -3.10239 2.85184 0
M  V30 4028 H 373.545 -2.74883 1.70941 0
M  V30 4029 H 372.452 -1.29139 3.51104 0
M  V30 4030 H 373.785 -1.71754 4.61261 0
M  V30 4031 N 375.437 -1.54477 -0.31217 0
M  V30 4032 C 376.684 -1.73227 -1.04875 0
M  V30 4033 C 377.012 -0.512042 -1.87639 0
M  V30 4034 O 376.267 0.506131 -1.89042 0
M  V30 4035 C 376.566 -2.967 -1.99258 0
M  V30 4036 C 376.232 -4.30974 -1.32559 0
M  V30 4037 C 374.894 -4.67477 -1.141 0
M  V30 4038 C 377.246 -5.14258 -0.847835 0
M  V30 4039 C 374.574 -5.84852 -0.465326 0
M  V30 4040 C 376.926 -6.32327 -0.185931 0
M  V30 4041 C 375.59 -6.67499 0.0107077 0
M  V30 4042 H 374.86 -0.633881 -0.383765 0
M  V30 4043 H 377.507 -1.88727 -0.324731 0
M  V30 4044 H 375.812 -2.75935 -2.7815 0
M  V30 4045 H 377.509 -3.08401 -2.563 0
M  V30 4046 H 374.099 -4.02262 -1.4793 0
M  V30 4047 H 378.283 -4.86565 -0.978192 0
M  V30 4048 H 373.539 -6.10654 -0.301883 0
M  V30 4049 H 377.713 -6.96135 0.192211 0
M  V30 4050 H 375.34 -7.58306 0.536287 0
M  V30 4051 N 376.915 0.57481 -1.46744 0
M  V30 4052 C 377.845 1.69337 -1.60771 0
M  V30 4053 C 378.826 1.63825 -0.457736 0
M  V30 4054 O 380.011 1.8172 -0.684947 0
M  V30 4055 C 377.141 3.0798 -1.60517 0
M  V30 4056 C 376.095 3.28327 -2.74564 0
M  V30 4057 C 375.421 4.67578 -2.59373 0
M  V30 4058 C 376.721 3.15398 -4.16319 0
M  V30 4059 H 378.415 1.57853 -2.54407 0
M  V30 4060 H 375.961 0.75799 -1.22436 0
M  V30 4061 H 377.914 3.86061 -1.68923 0
M  V30 4062 H 376.638 3.20381 -0.634305 0
M  V30 4063 H 375.297 2.52649 -2.65639 0
M  V30 4064 H 374.945 4.76755 -1.60353 0
M  V30 4065 H 374.645 4.82144 -3.35873 0
M  V30 4066 H 376.169 5.47817 -2.69682 0
M  V30 4067 H 377.583 3.83315 -4.26313 0
M  V30 4068 H 375.98 3.41482 -4.93468 0
M  V30 4069 H 377.05 2.12372 -4.3592 0
M  V30 4070 N 378.394 1.34581 0.820102 0
M  V30 4071 C 379.326 1.22236 1.93884 0
M  V30 4072 C 380.339 0.148776 1.62119 0
M  V30 4073 O 381.528 0.400877 1.7394 0
M  V30 4074 C 378.628 0.856542 3.27897 0
M  V30 4075 C 377.801 2.02569 3.87666 0
M  V30 4076 C 376.86 1.63782 5.00062 0
M  V30 4077 O 375.886 2.35477 5.18208 0
M  V30 4078 N 377.088 0.553611 5.77854 0
M  V30 4079 H 379.853 2.18615 2.05006 0
M  V30 4080 H 377.414 1.27573 0.99683 0
M  V30 4081 H 379.406 0.578806 4.0054 0
M  V30 4082 H 377.976 -0.0171518 3.12595 0
M  V30 4083 H 377.196 2.468 3.07382 0
M  V30 4084 H 378.484 2.80752 4.24329 0
M  V30 4085 H 377.882 -0.0423528 5.65684 0
M  V30 4086 H 376.439 0.335614 6.50935 0
M  V30 4087 N 379.872 -1.04064 1.18357 0
M  V30 4088 C 381.121 -1.76662 0.973313 0
M  V30 4089 C 381.434 -1.89154 -0.497991 0
M  V30 4090 O 382.64 -2.58606 -0.826762 0
M  V30 4091 C 381.096 -3.17624 1.69242 0
M  V30 4092 C 380.704 -3.13225 3.20303 0
M  V30 4093 C 382.448 -3.946 1.56497 0
M  V30 4094 C 380.355 -4.49046 3.84853 0
M  V30 4095 H 379.285 -0.662214 0.36054 0
M  V30 4096 H 381.936 -1.16553 1.41731 0
M  V30 4097 H 380.318 -3.78129 1.1762 0
M  V30 4098 H 381.492 -2.62172 3.78949 0
M  V30 4099 H 379.807 -2.49749 3.33189 0
M  V30 4100 H 382.404 -4.95042 2.02084 0
M  V30 4101 H 382.747 -4.13074 0.517243 0
M  V30 4102 H 383.28 -3.4067 2.05399 0
M  V30 4103 H 380.019 -4.35777 4.89672 0
M  V30 4104 H 379.539 -5.00203 3.30994 0
M  V30 4105 H 381.218 -5.17961 3.87718 0
M  V30 4106 N 381.35 -0.985608 -1.22978 0
M  V30 4107 C 382.599 -0.652881 -1.90841 0
M  V30 4108 C 382.912 0.817842 -1.77681 0
M  V30 4109 O 384.118 1.26185 -2.40395 0
M  V30 4110 C 382.574 -1.11717 -3.42122 0
M  V30 4111 C 382.182 -2.6126 -3.63933 0
M  V30 4112 C 383.926 -0.85843 -4.1573 0
M  V30 4113 C 381.833 -3.0133 -5.08876 0
M  V30 4114 H 380.763 -0.240491 -0.714619 0
M  V30 4115 H 383.414 -1.1942 -1.39324 0
M  V30 4116 H 381.796 -0.504027 -3.92779 0
M  V30 4117 H 382.97 -3.27858 -3.23799 0
M  V30 4118 H 381.285 -2.84937 -3.03644 0
M  V30 4119 H 383.882 -1.13359 -5.22546 0
M  V30 4120 H 384.225 0.205461 -4.15793 0
M  V30 4121 H 384.758 -1.43341 -3.71077 0
M  V30 4122 H 381.497 -4.06864 -5.13947 0
M  V30 4123 H 381.017 -2.3943 -5.49939 0
M  V30 4124 H 382.696 -2.92224 -5.77247 0
M  V30 4125 N 382.828 1.3818 -0.7579 0
M  V30 4126 C 383.738 2.3421 -0.135247 0
M  V30 4127 C 384.754 1.59487 0.695683 0
M  V30 4128 O 385.93 1.91657 0.618832 0
M  V30 4129 C 382.995 3.3862 0.744139 0
M  V30 4130 C 382.056 4.2918 -0.101658 0
M  V30 4131 C 381.289 5.28603 0.735851 0
M  V30 4132 O 381.512 5.35166 1.97366 0
M  V30 4133 O 380.446 6.01707 0.152372 0
M  V30 4134 H 384.272 2.8916 -0.928436 0
M  V30 4135 H 381.857 1.40101 -0.518855 0
M  V30 4136 H 383.739 4.02539 1.2466 0
M  V30 4137 H 382.414 2.86019 1.51575 0
M  V30 4138 H 381.321 3.68407 -0.650167 0
M  V30 4139 H 382.654 4.85048 -0.836024 0
M  V30 4140 N 384.306 0.507319 1.49211 0
M  V30 4141 C 385.583 -0.0982702 1.95353 0
M  V30 4142 C 385.963 -1.53516 1.449 0
M  V30 4143 O 385.311 -2.18594 0.66551 0
M  V30 4144 C 385.521 -0.00440283 3.49 0
M  V30 4145 C 386.869 -0.175147 4.24239 0
M  V30 4146 O 387.893 -0.0792891 3.56112 0
M  V30 4147 O 386.752 -0.37276 5.45227 0
M  V30 4148 H 383.846 -0.0918236 0.821887 0
M  V30 4149 H 386.392 0.570307 1.5983 0
M  V30 4150 H 385.164 0.997402 3.78375 0
M  V30 4151 H 384.787 -0.712845 3.91158 0
M  V30 4152 N 385.784 -1.5574 0.241426 0
M  V30 4153 C 387.014 -2.02913 -0.38857 0
M  V30 4154 C 387.422 -1.12014 -1.52478 0
M  V30 4155 O 386.765 -0.125903 -1.83268 0
M  V30 4156 C 386.827 -3.4636 -0.963075 0
M  V30 4157 C 386.491 -4.56982 0.0401916 0
M  V30 4158 C 387.488 -5.12941 0.847766 0
M  V30 4159 C 385.173 -5.0203 0.164699 0
M  V30 4160 C 387.167 -6.12437 1.76636 0
M  V30 4161 C 384.854 -6.01358 1.0868 0
M  V30 4162 C 385.852 -6.5644 1.88616 0
M  V30 4163 O 385.54 -7.53831 2.79273 0
M  V30 4164 H 385.272 -0.668983 -0.0971452 0
M  V30 4165 H 387.826 -2.02198 0.361248 0
M  V30 4166 H 386.056 -3.44206 -1.76235 0
M  V30 4167 H 387.745 -3.77065 -1.50257 0
M  V30 4168 H 388.511 -4.78974 0.762133 0
M  V30 4169 H 384.39 -4.58824 -0.447411 0
M  V30 4170 H 387.934 -6.55355 2.39071 0
M  V30 4171 H 383.831 -6.34746 1.17338 0
M  V30 4172 H 384.599 -7.71428 2.73572 0
M  V30 4173 N 387.262 0.0317525 -1.57568 0
M  V30 4174 C 388.51 0.721676 -1.88776 0
M  V30 4175 C 388.831 1.76039 -0.838772 0
M  V30 4176 O 388.101 1.95482 0.127935 0
M  V30 4177 H 386.681 0.269534 -0.696678 0
M  V30 4178 H 389.343 -0.00165879 -1.949 0
M  V30 4179 H 388.439 1.21293 -2.87566 0
M  V30 4180 N 388.74 1.54641 0.303973 0
M  V30 4181 C 389.987 1.7378 1.03955 0
M  V30 4182 C 390.315 0.521986 1.87365 0
M  V30 4183 O 389.57 -0.496099 1.89308 0
M  V30 4184 C 389.869 2.97753 1.97681 0
M  V30 4185 C 389.535 4.31671 1.30271 0
M  V30 4186 C 388.197 4.68075 1.11619 0
M  V30 4187 C 390.549 5.147 0.82055 0
M  V30 4188 C 387.877 5.8509 0.434304 0
M  V30 4189 C 390.229 6.32416 0.152395 0
M  V30 4190 C 388.893 6.67484 -0.0461067 0
M  V30 4191 H 388.163 0.635908 0.380398 0
M  V30 4192 H 390.81 1.88896 0.314718 0
M  V30 4193 H 389.115 2.77406 2.76682 0
M  V30 4194 H 390.812 3.09756 2.54661 0
M  V30 4195 H 387.402 4.03041 1.45795 0
M  V30 4196 H 391.586 4.87077 0.952374 0
M  V30 4197 H 386.842 6.10806 0.269495 0
M  V30 4198 H 391.016 6.96023 -0.229126 0
M  V30 4199 H 388.643 7.58011 -0.576494 0
M  V30 4200 N 390.218 -0.567019 1.47046 0
M  V30 4201 C 391.148 -1.68482 1.61667 0
M  V30 4202 C 392.129 -1.6358 0.466418 0
M  V30 4203 O 393.314 -1.81354 0.694574 0
M  V30 4204 C 390.444 -3.07124 1.62148 0
M  V30 4205 C 389.398 -3.26867 2.76301 0
M  V30 4206 C 388.724 -4.66196 2.61849 0
M  V30 4207 C 390.024 -3.13186 4.17986 0
M  V30 4208 H 391.718 -1.56502 2.5524 0
M  V30 4209 H 389.264 -0.751486 1.22836 0
M  V30 4210 H 391.217 -3.8516 1.70968 0
M  V30 4211 H 389.941 -3.2004 0.651287 0
M  V30 4212 H 388.6 -2.51237 2.66975 0
M  V30 4213 H 388.248 -4.75898 1.62879 0
M  V30 4214 H 387.948 -4.80356 3.38425 0
M  V30 4215 H 389.472 -5.46379 2.72584 0
M  V30 4216 H 390.886 -3.81049 4.2834 0
M  V30 4217 H 389.283 -3.3886 4.95272 0
M  V30 4218 H 390.353 -2.10057 4.3704 0
M  V30 4219 N 391.696 -1.35014 -0.812953 0
M  V30 4220 C 393.107 -1.25035 -1.38648 0
M  V30 4221 C 393.458 0.119967 -1.95833 0
M  V30 4222 O 392.583 1.02069 -1.90816 0
M  V30 4223 C 393.178 -2.26394 -2.52054 0
M  V30 4224 C 391.737 -2.20175 -3.05287 0
M  V30 4225 C 390.884 -2.12451 -1.78213 0
M  V30 4226 H 393.835 -1.46235 -0.616516 0
M  V30 4227 H 393.856 -1.88672 -3.30429 0
M  V30 4228 H 393.368 -3.26116 -2.10404 0
M  V30 4229 H 391.469 -1.23841 -3.51417 0
M  V30 4230 H 391.582 -3.11863 -3.63701 0
M  V30 4231 H 389.946 -1.58328 -1.9951 0
M  V30 4232 H 390.729 -3.14024 -1.38723 0
M  V30 4233 N 393.175 1.03435 -1.18907 0
M  V30 4234 C 394.138 2.09756 -0.923844 0
M  V30 4235 C 395.138 1.60528 0.093416 0
M  V30 4236 O 396.328 1.73631 -0.140727 0
M  V30 4237 C 393.46 3.38692 -0.387354 0
M  V30 4238 H 394.653 2.34719 -1.86674 0
M  V30 4239 H 392.206 1.19959 -1.00197 0
M  V30 4240 H 392.941 3.19396 0.561845 0
M  V30 4241 H 392.726 3.75742 -1.12074 0
M  V30 4242 H 394.216 4.17016 -0.220694 0
M  V30 4243 N 394.653 0.992116 1.22453 0
M  V30 4244 C 395.563 0.55065 2.28046 0
M  V30 4245 C 396.579 -0.400189 1.69335 0
M  V30 4246 O 397.755 -0.267215 1.99619 0
M  V30 4247 C 394.82 -0.128496 3.46462 0
M  V30 4248 C 393.881 0.865208 4.20491 0
M  V30 4249 C 393.114 0.218377 5.33253 0
M  V30 4250 O 393.337 -0.987894 5.6178 0
M  V30 4251 O 392.271 0.922845 5.94783 0
M  V30 4252 H 396.097 1.4291 2.67975 0
M  V30 4253 H 393.682 0.760326 1.28606 0
M  V30 4254 H 395.564 -0.508947 4.18315 0
M  V30 4255 H 394.239 -0.981526 3.0846 0
M  V30 4256 H 393.146 1.29658 3.50913 0
M  V30 4257 H 394.479 1.68741 4.62371 0
M  V30 4258 N 396.131 -1.37776 0.765217 0
M  V30 4259 C 397.356 -2.04651 0.336537 0
M  V30 4260 C 397.781 -1.57337 -1.03086 0
M  V30 4261 O 397.139 -0.730621 -1.65927 0
M  V30 4262 C 397.187 -3.58577 0.381468 0
M  V30 4263 O 396.291 -4.07706 -0.62042 0
M  V30 4264 H 395.632 -0.64756 0.146838 0
M  V30 4265 H 398.162 -1.76221 1.03959 0
M  V30 4266 H 398.172 -4.07314 0.236448 0
M  V30 4267 H 396.847 -3.9237 1.37907 0
M  V30 4268 H 395.424 -3.70306 -0.439056 0
M  V30 4269 N 397.609 -0.515225 -1.4894 0
M  V30 4270 C 398.557 0.269115 -2.31038 0
M  V30 4271 C 399.551 0.949443 -1.40292 0
M  V30 4272 O 400.757 0.87551 -1.57273 0
M  V30 4273 H 397.132 0.10565 -0.744542 0
M  V30 4274 H 399.103 -0.443096 -2.95092 0
M  V30 4275 C 397.852 1.31213 -3.21991 0
M  V30 4276 H 397.175 0.798034 -3.91754 0
M  V30 4277 H 398.615 1.83263 -3.82349 0
M  V30 4278 C 397.074 2.33791 -2.42576 0
M  V30 4279 O 397.604 3.3995 -2.14003 0
M  V30 4280 N 395.81 2.06625 -2.0434 0
M  V30 4281 H 395.357 1.20314 -2.27777 0
M  V30 4282 H 395.315 2.75483 -1.51514 0
M  V30 4283 N 399.087 1.5561 -0.249682 0
M  V30 4284 C 400.317 2.03116 0.377803 0
M  V30 4285 C 400.725 1.12822 1.51881 0
M  V30 4286 O 400.068 0.13562 1.83199 0
M  V30 4287 C 400.13 3.46866 0.944693 0
M  V30 4288 C 399.794 4.56955 -0.0644259 0
M  V30 4289 C 400.791 5.12485 -0.874957 0
M  V30 4290 C 398.476 5.01936 -0.19132 0
M  V30 4291 C 400.47 6.11491 -1.79881 0
M  V30 4292 C 398.157 6.00773 -1.11868 0
M  V30 4293 C 399.155 6.5543 -1.92095 0
M  V30 4294 O 398.843 7.5234 -2.83267 0
M  V30 4295 H 398.575 0.669489 0.0935961 0
M  V30 4296 H 401.129 2.02004 -0.371966 0
M  V30 4297 H 399.359 3.45136 1.74407 0
M  V30 4298 H 401.048 3.77856 1.48255 0
M  V30 4299 H 401.814 4.78564 -0.787523 0
M  V30 4300 H 397.693 4.59055 0.423072 0
M  V30 4301 H 401.237 6.54078 -2.42543 0
M  V30 4302 H 397.134 6.34114 -1.20703 0
M  V30 4303 H 397.902 7.69966 -2.7766 0
M  V30 4304 N 400.565 -0.0233959 1.57583 0
M  V30 4305 C 401.976 -0.56927 1.77809 0
M  V30 4306 C 402.327 -1.75284 0.881472 0
M  V30 4307 O 401.452 -2.1626 0.0777805 0
M  V30 4308 C 402.047 -1.03949 3.22459 0
M  V30 4309 C 400.606 -1.53084 3.43864 0
M  V30 4310 C 399.753 -0.471454 2.73263 0
M  V30 4311 H 402.704 0.202825 1.57399 0
M  V30 4312 H 402.725 -1.90661 3.29285 0
M  V30 4313 H 402.237 -0.177865 3.87692 0
M  V30 4314 H 400.338 -2.41414 2.83814 0
M  V30 4315 H 400.451 -1.57443 4.52491 0
M  V30 4316 H 398.815 -0.927788 2.37201 0
M  V30 4317 H 399.598 0.380808 3.41181 0
M  V30 4318 N 402.043 -1.548 -0.295768 0
M  V30 4319 C 403.273 -1.78069 -1.04762 0
M  V30 4320 C 403.681 -0.542847 -1.81245 0
M  V30 4321 O 403.024 0.497051 -1.76848 0
M  V30 4322 C 403.086 -2.93881 -2.07061 0
M  V30 4323 C 402.75 -4.31777 -1.49725 0
M  V30 4324 C 403.747 -5.11613 -0.924581 0
M  V30 4325 C 401.432 -4.78389 -1.5313 0
M  V30 4326 C 403.426 -6.36184 -0.393594 0
M  V30 4327 C 401.113 -6.02921 -0.996447 0
M  V30 4328 C 402.111 -6.81654 -0.428569 0
M  V30 4329 O 401.799 -8.0384 0.0981593 0
M  V30 4330 H 401.531 -0.597475 -0.316226 0
M  V30 4331 H 404.085 -2.02584 -0.338973 0
M  V30 4332 H 402.315 -2.65003 -2.81621 0
M  V30 4333 H 404.004 -3.04679 -2.6819 0
M  V30 4334 H 404.77 -4.76743 -0.891136 0
M  V30 4335 H 400.649 -4.17132 -1.9627 0
M  V30 4336 H 404.193 -6.97582 0.0503014 0
M  V30 4337 H 400.09 -6.37277 -1.02706 0
M  V30 4338 H 400.858 -8.18499 -0.0146455 0
M  V30 4339 N 403.521 0.559213 -1.47345 0
M  V30 4340 C 404.469 1.68747 -1.60085 0
M  V30 4341 C 405.463 1.628 -0.46825 0
M  V30 4342 O 406.669 1.68009 -0.645977 0
M  V30 4343 H 403.044 0.558329 -0.503759 0
M  V30 4344 H 405.015 1.55138 -2.54902 0
M  V30 4345 C 403.764 3.07103 -1.63042 0
M  V30 4346 H 403.087 3.12361 -2.49541 0
M  V30 4347 H 404.527 3.85743 -1.76006 0
M  V30 4348 C 402.986 3.34935 -0.363357 0
M  V30 4349 O 403.516 3.98102 0.536416 0
M  V30 4350 N 401.722 2.89574 -0.244 0
M  V30 4351 H 401.269 2.38348 -0.977133 0
M  V30 4352 H 401.227 3.08566 0.602836 0
M  V30 4353 N 404.999 1.35443 0.805782 0
M  V30 4354 C 406.229 1.31687 1.59192 0
M  V30 4355 C 406.637 -0.10756 1.88894 0
M  V30 4356 O 405.98 -1.07017 1.49309 0
M  V30 4357 C 406.042 2.05686 2.94845 0
M  V30 4358 C 405.706 3.54868 2.87954 0
M  V30 4359 C 406.703 4.49444 2.61335 0
M  V30 4360 C 404.388 3.97528 3.07046 0
M  V30 4361 C 406.382 5.84655 2.53885 0
M  V30 4362 C 404.069 5.32833 2.99219 0
M  V30 4363 C 405.067 6.26209 2.72674 0
M  V30 4364 O 404.755 7.59032 2.64811 0
M  V30 4365 H 404.487 0.453878 0.50097 0
M  V30 4366 H 407.041 1.78892 1.0093 0
M  V30 4367 H 405.271 1.5312 3.55093 0
M  V30 4368 H 406.96 1.94998 3.55993 0
M  V30 4369 H 407.726 4.17804 2.46303 0
M  V30 4370 H 403.605 3.25233 3.26718 0
M  V30 4371 H 407.149 6.57508 2.33086 0
M  V30 4372 H 403.046 5.64087 3.13809 0
M  V30 4373 H 403.814 7.68967 2.80413 0
M  V30 4374 N 406.477 -1.02803 1.19454 0
M  V30 4375 C 407.723 -1.76478 0.999171 0
M  V30 4376 C 408.056 -1.88456 -0.468828 0
M  V30 4377 O 407.331 -1.40198 -1.34814 0
M  V30 4378 C 407.614 -3.19044 1.66981 0
M  V30 4379 C 407.467 -3.14932 3.21151 0
M  V30 4380 C 408.786 -4.17456 1.39349 0
M  V30 4381 H 405.905 -0.640614 0.364393 0
M  V30 4382 H 408.547 -1.20005 1.47305 0
M  V30 4383 H 406.697 -3.67263 1.2669 0
M  V30 4384 H 408.369 -2.74605 3.70661 0
M  V30 4385 H 406.612 -2.52625 3.52652 0
M  V30 4386 H 407.283 -4.1566 3.63223 0
M  V30 4387 H 409.759 -3.77842 1.74283 0
M  V30 4388 H 408.635 -5.154 1.88823 0
M  V30 4389 H 408.896 -4.40949 0.318813 0
M  V30 4390 N 407.956 -0.998596 -1.21925 0
M  V30 4391 C 408.903 -0.553621 -2.24062 0
M  V30 4392 C 409.873 0.416999 -1.6078 0
M  V30 4393 O 411.058 0.320482 -1.88089 0
M  V30 4394 C 408.198 0.119959 -3.44891 0
M  V30 4395 C 407.311 -0.893077 -4.22668 0
M  V30 4396 C 406.446 -0.192424 -5.30851 0
M  V30 4397 C 405.485 -1.19344 -6.00353 0
M  V30 4398 N 404.622 -0.520707 -7.00166 0
M  V30 4399 H 409.462 -1.4293 -2.61486 0
M  V30 4400 H 406.999 -0.715838 -1.28507 0
M  V30 4401 H 408.957 0.527459 -4.13852 0
M  V30 4402 H 407.587 0.959389 -3.08214 0
M  V30 4403 H 406.639 -1.41886 -3.52948 0
M  V30 4404 H 407.951 -1.65512 -4.70539 0
M  V30 4405 H 407.105 0.271515 -6.06092 0
M  V30 4406 H 405.844 0.602075 -4.83969 0
M  V30 4407 H 404.849 -1.66795 -5.23889 0
M  V30 4408 H 406.074 -1.98891 -6.49322 0
M  V30 4409 H 404.02 0.254252 -6.55507 0
M  V30 4410 H 403.937 -1.2211 -7.46073 0
M  V30 4411 H 405.205 -0.0797596 -7.79459 0
M  V30 4412 N 409.434 1.37368 -0.772513 0
M  V30 4413 C 410.68 1.99969 -0.337681 0
M  V30 4414 C 411.013 1.61184 1.08321 0
M  V30 4415 O 410.288 0.858395 1.74533 0
M  V30 4416 C 410.571 3.56858 -0.482121 0
M  V30 4417 C 410.424 4.0555 -1.94549 0
M  V30 4418 C 411.743 4.39955 0.113143 0
M  V30 4419 H 408.862 0.726464 -0.124171 0
M  V30 4420 H 411.504 1.63034 -0.975699 0
M  V30 4421 H 409.654 3.88452 0.0610361 0
M  V30 4422 H 411.326 3.84518 -2.54841 0
M  V30 4423 H 409.569 3.57715 -2.45403 0
M  V30 4424 H 410.24 5.14587 -1.9976 0
M  V30 4425 H 412.716 4.14623 -0.35031 0
M  V30 4426 H 411.592 5.48897 -0.0180514 0
M  V30 4427 H 411.853 4.25403 1.20354 0
M  V30 4428 N 410.912 0.523116 1.48665 0
M  V30 4429 C 412.16 -0.0134497 2.02096 0
M  V30 4430 C 412.481 -1.35418 1.40311 0
M  V30 4431 O 411.751 -1.87543 0.566074 0
M  V30 4432 H 410.331 -0.00795915 0.746958 0
M  V30 4433 H 412.993 0.685388 1.82451 0
M  V30 4434 H 412.089 -0.126849 3.11842 0
M  V30 4435 N 412.39 -1.55475 0.257931 0
M  V30 4436 C 413.3 -2.2549 -0.647425 0
M  V30 4437 C 414.316 -1.2748 -1.18427 0
M  V30 4438 O 415.492 -1.6038 -1.2182 0
M  V30 4439 C 412.557 -2.94916 -1.82278 0
M  V30 4440 C 411.618 -4.08363 -1.32432 0
M  V30 4441 C 410.851 -4.74469 -2.44366 0
M  V30 4442 O 411.074 -4.39701 -3.63344 0
M  V30 4443 O 410.008 -5.62763 -2.13497 0
M  V30 4444 H 413.834 -3.03593 -0.0807707 0
M  V30 4445 H 411.419 -1.49377 0.0259962 0
M  V30 4446 H 413.301 -3.38606 -2.50846 0
M  V30 4447 H 411.976 -2.19744 -2.37685 0
M  V30 4448 H 410.883 -3.69166 -0.605605 0
M  V30 4449 H 412.216 -4.85385 -0.816211 0
M  V30 4450 N 413.868 0.0150385 -1.57593 0
M  V30 4451 C 414.8 1.03912 -2.04291 0
M  V30 4452 C 415.813 1.31618 -0.958146 0
M  V30 4453 O 417.002 1.28859 -1.23522 0
M  V30 4454 C 414.102 2.37749 -2.41514 0
M  V30 4455 C 413.275 2.29198 -3.72541 0
M  V30 4456 C 412.334 3.45598 -3.96797 0
M  V30 4457 O 411.36 3.24461 -4.67668 0
M  V30 4458 N 412.562 4.67945 -3.43523 0
M  V30 4459 H 415.327 0.64099 -2.92765 0
M  V30 4460 H 412.888 0.20272 -1.60626 0
M  V30 4461 H 414.88 3.14364 -2.54867 0
M  V30 4462 H 413.45 2.69357 -1.58637 0
M  V30 4463 H 412.67 1.3759 -3.69408 0
M  V30 4464 H 413.958 2.20642 -4.5847 0
M  V30 4465 H 413.356 4.88017 -2.86104 0
M  V30 4466 H 411.913 5.41878 -3.62232 0
M  V30 4467 N 415.346 1.54954 0.287554 0
M  V30 4468 C 416.586 1.76617 1.02887 0
M  V30 4469 C 416.95 0.547759 1.84021 0
M  V30 4470 O 418.151 0.642365 2.61012 0
M  V30 4471 C 416.422 3.02717 1.89993 0
M  V30 4472 S 417.981 3.45438 2.70588 0
M  V30 4473 H 414.799 0.6207 0.346775 0
M  V30 4474 H 417.401 1.93172 0.30082 0
M  V30 4475 H 416.105 3.89503 1.29287 0
M  V30 4476 H 415.636 2.88787 2.67144 0
M  V30 4477 H 417.651 3.03566 3.92508 0
M  V30 4478 N 416.824 -0.551391 1.4764 0
M  V30 4479 C 418.235 -1.13349 1.48354 0
M  V30 4480 C 418.586 -1.94709 0.241432 0
M  V30 4481 O 417.711 -2.06306 -0.653205 0
M  V30 4482 C 418.306 -2.0623 2.68802 0
M  V30 4483 C 416.865 -2.597 2.72457 0
M  V30 4484 C 416.012 -1.36201 2.41546 0
M  V30 4485 H 418.963 -0.337698 1.55065 0
M  V30 4486 H 418.984 -2.90196 2.46103 0
M  V30 4487 H 418.496 -1.46987 3.59188 0
M  V30 4488 H 416.597 -3.22724 1.86225 0
M  V30 4489 H 416.71 -3.00296 3.73308 0
M  V30 4490 H 415.074 -1.67068 1.9225 0
M  V30 4491 H 415.857 -0.787425 3.34147 0
M  V30 4492 N 418.302 -1.35869 -0.798587 0
M  V30 4493 C 419.249 -1.29446 -1.91082 0
M  V30 4494 C 420.219 -0.16487 -1.6528 0
M  V30 4495 O 421.404 -0.349888 -1.87564 0
M  V30 4496 C 418.544 -1.0804 -3.27752 0
M  V30 4497 C 417.657 -2.29993 -3.65687 0
M  V30 4498 C 416.792 -2.01673 -4.91428 0
M  V30 4499 C 415.831 -3.19636 -5.22015 0
M  V30 4500 N 414.968 -2.91039 -6.38937 0
M  V30 4501 H 419.808 -2.24553 -1.95907 0
M  V30 4502 H 417.345 -1.11615 -0.958148 0
M  V30 4503 H 419.303 -0.936586 -4.06551 0
M  V30 4504 H 417.933 -0.16592 -3.22373 0
M  V30 4505 H 416.985 -2.55211 -2.82085 0
M  V30 4506 H 418.297 -3.18052 -3.84245 0
M  V30 4507 H 417.451 -1.84168 -5.78072 0
M  V30 4508 H 416.19 -1.10911 -4.74921 0
M  V30 4509 H 415.195 -3.37709 -4.33858 0
M  V30 4510 H 416.42 -4.11211 -5.40447 0
M  V30 4511 H 414.366 -2.0288 -6.2384 0
M  V30 4512 H 414.283 -3.72635 -6.57784 0
M  V30 4513 H 415.551 -2.77093 -7.28587 0
M  V30 4514 N 419.78 1.02168 -1.19998 0
M  V30 4515 C 421.026 1.75945 -1.00852 0
M  V30 4516 C 421.359 1.88702 0.458828 0
M  V30 4517 O 420.634 1.40911 1.34069 0
M  V30 4518 C 420.917 3.18154 -1.68671 0
M  V30 4519 C 420.77 3.13224 -3.22817 0
M  V30 4520 C 422.089 4.16711 -1.41561 0
M  V30 4521 H 419.208 0.638673 -0.367785 0
M  V30 4522 H 421.85 1.19222 -1.4794 0
M  V30 4523 H 420 3.66586 -1.28636 0
M  V30 4524 H 421.672 2.72635 -3.72112 0
M  V30 4525 H 419.915 2.50751 -3.53986 0
M  V30 4526 H 420.586 4.13728 -3.65422 0
M  V30 4527 H 423.062 3.76913 -1.76284 0
M  V30 4528 H 421.938 5.14391 -1.91553 0
M  V30 4529 H 422.199 4.40774 -0.342193 0
M  V30 4530 N 421.258 1.00505 1.21394 0
M  V30 4531 C 422.168 0.574806 2.27449 0
M  V30 4532 C 423.184 -0.382206 1.6975 0
M  V30 4533 O 424.36 -0.246027 1.99892 0
M  V30 4534 C 421.425 -0.0917414 3.46579 0
M  V30 4535 C 420.486 0.909758 4.1955 0
M  V30 4536 C 419.719 0.274924 5.32991 0
M  V30 4537 O 419.942 -0.928254 5.62796 0
M  V30 4538 O 418.876 0.985877 5.93771 0
M  V30 4539 H 422.702 1.45744 2.66444 0
M  V30 4540 H 420.287 0.773923 1.27792 0
M  V30 4541 H 422.169 -0.464551 4.18832 0
M  V30 4542 H 420.844 -0.948755 3.09484 0
M  V30 4543 H 419.751 1.33372 3.49518 0
M  V30 4544 H 421.084 1.73636 4.60555 0
M  V30 4545 N 422.737 -1.36956 0.779787 0
M  V30 4546 C 424.014 -1.93697 0.272156 0
M  V30 4547 C 424.394 -1.71267 -1.23413 0
M  V30 4548 O 423.742 -1.06607 -2.02107 0
M  V30 4549 C 423.952 -3.42812 0.654291 0
M  V30 4550 C 425.3 -4.19921 0.628602 0
M  V30 4551 O 426.324 -3.51209 0.594172 0
M  V30 4552 O 425.183 -5.42465 0.662864 0
M  V30 4553 H 422.277 -0.824447 0.0649286 0
M  V30 4554 H 424.823 -1.46196 0.861682 0
M  V30 4555 H 423.595 -3.52754 1.69353 0
M  V30 4556 H 423.218 -3.97582 0.0381369 0
M  V30 4557 N 424.215 -0.530993 -1.48385 0
M  V30 4558 C 425.165 0.251092 -2.26613 0
M  V30 4559 C 426.149 0.908977 -1.32765 0
M  V30 4560 O 427.341 0.811616 -1.57295 0
M  V30 4561 C 424.47 1.29677 -3.17866 0
M  V30 4562 C 423.556 0.643627 -4.19188 0
M  V30 4563 N 423.947 -0.271223 -5.05072 0
M  V30 4564 C 422.245 0.900711 -4.3681 0
M  V30 4565 C 422.946 -0.648109 -5.78078 0
M  V30 4566 N 421.922 -0.00895987 -5.43599 0
M  V30 4567 H 425.724 -0.452702 -2.90393 0
M  V30 4568 H 423.238 -0.349091 -1.58604 0
M  V30 4569 H 425.235 1.87079 -3.72568 0
M  V30 4570 H 423.895 2.00193 -2.55642 0
M  V30 4571 H 424.906 -0.643883 -5.13882 0
M  V30 4572 H 421.583 1.59636 -3.85775 0
M  V30 4573 H 422.973 -1.39833 -6.57188 0
M  V30 4574 N 425.693 1.55336 -0.266172 0
M  V30 4575 C 426.939 2.00423 0.346714 0
M  V30 4576 C 427.294 1.15132 1.54151 0
M  V30 4577 O 426.587 0.211289 1.90431 0
M  V30 4578 C 426.781 3.48606 0.787957 0
M  V30 4579 C 426.61 4.48236 -0.362535 0
M  V30 4580 C 425.38 4.98211 -0.843445 0
M  V30 4581 C 427.578 5.00199 -1.19603 0
M  V30 4582 N 425.56 5.81625 -1.96434 0
M  V30 4583 C 426.931 5.80973 -2.16497 0
M  V30 4584 C 428.986 4.82458 -1.2304 0
M  V30 4585 C 427.689 6.45896 -3.1656 0
M  V30 4586 C 429.715 5.48174 -2.21944 0
M  V30 4587 C 429.077 6.28751 -3.17571 0
M  V30 4588 H 425.176 0.776535 0.0922914 0
M  V30 4589 H 427.76 1.90792 -0.388154 0
M  V30 4590 H 425.931 3.58597 1.49207 0
M  V30 4591 H 427.663 3.80538 1.37742 0
M  V30 4592 H 424.418 4.71696 -0.424271 0
M  V30 4593 H 424.842 6.28025 -2.52813 0
M  V30 4594 H 429.484 4.19774 -0.504903 0
M  V30 4595 H 427.202 7.07734 -3.90048 0
M  V30 4596 H 430.788 5.36392 -2.25333 0
M  V30 4597 H 429.668 6.78703 -3.92851 0
M  V30 4598 N 427.171 -0.0066808 1.57599 0
M  V30 4599 C 428.104 -1.03397 2.03431 0
M  V30 4600 C 429.082 -1.33872 0.922877 0
M  V30 4601 O 430.266 -1.4615 1.19048 0
M  V30 4602 C 427.393 -2.36325 2.42628 0
M  V30 4603 C 426.439 -2.21557 3.64438 0
M  V30 4604 S 427.272 -1.54789 5.12641 0
M  V30 4605 C 428.428 -2.8916 5.55101 0
M  V30 4606 H 428.661 -0.643687 2.90248 0
M  V30 4607 H 426.194 -0.217349 1.52863 0
M  V30 4608 H 428.152 -3.12759 2.65879 0
M  V30 4609 H 426.813 -2.72495 1.56222 0
M  V30 4610 H 426.006 -3.1974 3.89592 0
M  V30 4611 H 425.608 -1.53267 3.41153 0
M  V30 4612 H 427.9 -3.8547 5.57153 0
M  V30 4613 H 428.843 -2.68713 6.55133 0
M  V30 4614 H 429.251 -2.92762 4.82649 0
M  V30 4615 N 428.649 -1.55105 -0.279332 0
M  V30 4616 C 429.597 -1.88333 -1.36505 0
M  V30 4617 C 430.591 -0.759043 -1.51443 0
M  V30 4618 O 431.797 -0.943312 -1.53302 0
M  V30 4619 H 428.172 -0.59766 -0.456406 0
M  V30 4620 H 430.143 -2.79041 -1.05728 0
M  V30 4621 C 428.892 -2.16628 -2.7197 0
M  V30 4622 H 428.215 -3.02624 -2.61264 0
M  V30 4623 H 429.655 -2.43803 -3.46895 0
M  V30 4624 C 428.114 -0.971807 -3.22579 0
M  V30 4625 O 428.644 -0.203228 -4.01186 0
M  V30 4626 N 426.85 -0.771238 -2.80179 0
M  V30 4627 H 426.397 -1.39792 -2.1637 0
M  V30 4628 H 426.355 0.0263667 -3.14389 0
M  V30 4629 N 430.127 0.543554 -1.4793 0
M  V30 4630 C 431.057 1.65888 -1.64327 0
M  V30 4631 C 432.038 1.62818 -0.492383 0
M  V30 4632 O 433.223 1.80226 -0.723338 0
M  V30 4633 C 430.353 3.04506 -1.67013 0
M  V30 4634 C 429.307 3.2243 -2.81466 0
M  V30 4635 C 428.633 4.61972 -2.69233 0
M  V30 4636 C 429.933 3.06496 -4.22915 0
M  V30 4637 H 431.627 1.52421 -2.57698 0
M  V30 4638 H 429.173 0.731849 -1.24016 0
M  V30 4639 H 431.126 3.82391 -1.77074 0
M  V30 4640 H 429.85 3.18964 -0.70212 0
M  V30 4641 H 428.509 2.46957 -2.70938 0
M  V30 4642 H 428.157 4.73247 -1.7043 0
M  V30 4643 H 427.857 4.74911 -3.46025 0
M  V30 4644 H 429.381 5.41974 -2.81242 0
M  V30 4645 H 430.795 3.74186 -4.34348 0
M  V30 4646 H 429.192 3.30938 -5.006 0
M  V30 4647 H 430.262 2.03077 -4.40327 0
M  V30 4648 N 431.605 1.3629 0.791371 0
M  V30 4649 C 432.851 1.31613 1.5508 0
M  V30 4650 C 433.206 -0.104372 1.92117 0
M  V30 4651 O 432.499 -1.05845 1.5971 0
M  V30 4652 C 432.693 2.17068 2.8393 0
M  V30 4653 C 432.522 3.67285 2.59484 0
M  V30 4654 C 431.292 4.36469 2.54604 0
M  V30 4655 C 433.49 4.60595 2.28816 0
M  V30 4656 N 431.472 5.7234 2.22036 0
M  V30 4657 C 432.843 5.847 2.06218 0
M  V30 4658 C 434.898 4.4918 2.14806 0
M  V30 4659 C 433.601 6.98671 1.71028 0
M  V30 4660 C 435.627 5.63017 1.81014 0
M  V30 4661 C 434.989 6.86159 1.59263 0
M  V30 4662 H 431.088 0.536878 0.568582 0
M  V30 4663 H 433.672 1.71323 0.925007 0
M  V30 4664 H 431.843 1.79605 3.44378 0
M  V30 4665 H 433.575 2.03795 3.49642 0
M  V30 4666 H 430.33 3.89249 2.69782 0
M  V30 4667 H 430.754 6.44093 2.08503 0
M  V30 4668 H 435.396 3.54564 2.30313 0
M  V30 4669 H 433.114 7.9324 1.54259 0
M  V30 4670 H 436.7 5.56146 1.70861 0
M  V30 4671 H 435.58 7.72753 1.335 0
M  V30 4672 N 433.083 -1.0153 1.20538 0
M  V30 4673 C 434.36 -1.72327 0.925343 0
M  V30 4674 C 434.74 -2.03383 -0.565547 0
M  V30 4675 O 434.088 -1.69934 -1.52757 0
M  V30 4676 C 434.298 -2.9902 1.79967 0
M  V30 4677 C 435.646 -3.72258 2.04228 0
M  V30 4678 O 436.67 -3.08979 1.77231 0
M  V30 4679 O 435.529 -4.86053 2.4983 0
M  V30 4680 H 432.623 -0.751099 0.346092 0
M  V30 4681 H 435.169 -1.07366 1.31417 0
M  V30 4682 H 433.941 -2.72402 2.80915 0
M  V30 4683 H 433.564 -3.71721 1.41099 0
M  V30 4684 N 434.561 -1.01147 -1.20859 0
M  V30 4685 C 435.509 -0.57059 -2.25493 0
M  V30 4686 C 436.503 0.388109 -1.64894 0
M  V30 4687 O 437.709 0.258592 -1.78133 0
M  V30 4688 H 434.084 -0.166191 -0.733406 0
M  V30 4689 H 436.055 -1.46411 -2.60012 0
M  V30 4690 C 434.804 0.0805241 -3.47607 0
M  V30 4691 H 434.127 -0.648156 -3.94511 0
M  V30 4692 H 435.567 0.352197 -4.22535 0
M  V30 4693 C 434.026 1.32175 -3.09889 0
M  V30 4694 O 434.556 2.41553 -3.20959 0
M  V30 4695 N 432.762 1.20392 -2.64488 0
M  V30 4696 H 432.309 0.313905 -2.5568 0
M  V30 4697 H 432.267 2.03541 -2.39621 0
M  V30 4698 N 436.039 1.36541 -0.78704 0
M  V30 4699 C 437.287 1.98911 -0.357633 0
M  V30 4700 C 437.608 1.62778 1.07371 0
M  V30 4701 O 436.878 0.900612 1.73971 0
M  V30 4702 H 435.458 0.735734 -0.129246 0
M  V30 4703 H 438.12 1.66776 -1.00855 0
M  V30 4704 H 437.216 3.08874 -0.447549 0
M  V30 4705 N 437.518 0.538854 1.48102 0
M  V30 4706 C 438.465 -0.219042 2.29758 0
M  V30 4707 C 439.435 -0.925562 1.37922 0
M  V30 4708 O 440.62 -0.924855 1.66886 0
M  V30 4709 C 437.76 -1.25452 3.2149 0
M  V30 4710 C 436.873 -0.555943 4.28408 0
M  V30 4711 C 436.008 -1.57512 5.0731 0
M  V30 4712 C 435.047 -0.860498 6.06021 0
M  V30 4713 N 434.184 -1.82564 6.77949 0
M  V30 4714 H 439.024 0.483449 2.94052 0
M  V30 4715 H 436.561 0.250247 1.44956 0
M  V30 4716 H 438.519 -1.86727 3.7308 0
M  V30 4717 H 437.149 -1.92528 2.591 0
M  V30 4718 H 436.201 0.170938 3.80016 0
M  V30 4719 H 437.513 0.00474616 4.988 0
M  V30 4720 H 436.667 -2.26191 5.62959 0
M  V30 4721 H 435.406 -2.16972 4.36778 0
M  V30 4722 H 434.411 -0.159686 5.49568 0
M  V30 4723 H 435.636 -0.271897 6.78555 0
M  V30 4724 H 433.582 -2.40915 6.10161 0
M  V30 4725 H 433.499 -1.31662 7.44447 0
M  V30 4726 H 434.767 -2.50414 7.38182 0
M  V30 4727 N 438.996 -1.55193 0.274407 0
M  V30 4728 C 440.245 -1.98758 -0.343213 0
M  V30 4729 C 440.558 -1.16624 -1.5703 0
M  V30 4730 O 441.764 -1.5033 -2.26082 0
M  V30 4731 C 440.22 -3.53759 -0.661996 0
M  V30 4732 C 439.828 -4.4467 0.54524 0
M  V30 4733 C 441.572 -4.05916 -1.24228 0
M  V30 4734 C 439.479 -5.91058 0.201084 0
M  V30 4735 H 438.409 -0.742353 -0.132014 0
M  V30 4736 H 441.06 -1.79545 0.378948 0
M  V30 4737 H 439.442 -3.68772 -1.44304 0
M  V30 4738 H 440.616 -4.41426 1.32212 0
M  V30 4739 H 438.931 -4.03143 1.04232 0
M  V30 4740 H 441.528 -5.12831 -1.51357 0
M  V30 4741 H 441.871 -3.54908 -2.17592 0
M  V30 4742 H 442.404 -3.9434 -0.523542 0
M  V30 4743 H 439.143 -6.46161 1.10258 0
M  V30 4744 H 438.663 -5.97373 -0.539045 0
M  V30 4745 H 440.342 -6.46669 -0.206954 0
M  V30 4746 N 440.474 -0.00167713 -1.576 0
M  V30 4747 C 441.404 0.988091 -2.11563 0
M  V30 4748 C 442.385 1.35736 -1.02517 0
M  V30 4749 O 443.57 1.44082 -1.30208 0
M  V30 4750 C 440.7 2.27941 -2.62031 0
M  V30 4751 C 439.654 2.0517 -3.75619 0
M  V30 4752 C 438.98 3.4033 -4.12407 0
M  V30 4753 C 440.28 1.41294 -5.02825 0
M  V30 4754 H 441.974 0.538771 -2.94513 0
M  V30 4755 H 439.52 0.257712 -1.41675 0
M  V30 4756 H 441.473 2.97539 -2.9841 0
M  V30 4757 H 440.197 2.74989 -1.76205 0
M  V30 4758 H 438.856 1.37998 -3.39635 0
M  V30 4759 H 438.504 3.85085 -3.23603 0
M  V30 4760 H 438.204 3.25909 -4.88935 0
M  V30 4761 H 439.728 4.1124 -4.51347 0
M  V30 4762 H 441.142 2.00851 -5.36965 0
M  V30 4763 H 439.539 1.37356 -5.84169 0
M  V30 4764 H 440.609 0.382362 -4.8339 0
M  V30 4765 N 441.952 1.55251 0.271103 0
M  V30 4766 C 442.902 1.84649 1.33749 0
M  V30 4767 C 443.886 0.705529 1.44607 0
M  V30 4768 O 445.078 0.966916 1.48256 0
M  V30 4769 C 442.207 2.12354 2.69742 0
M  V30 4770 C 441.293 3.32714 2.62988 0
M  V30 4771 N 441.684 4.52575 2.25853 0
M  V30 4772 C 439.982 3.35341 2.94045 0
M  V30 4773 C 440.683 5.34669 2.29136 0
M  V30 4774 N 439.659 4.73123 2.67685 0
M  V30 4775 H 443.461 2.74865 1.0405 0
M  V30 4776 H 440.975 1.55152 0.479738 0
M  V30 4777 H 442.972 2.31572 3.4667 0
M  V30 4778 H 441.632 1.23422 3.00328 0
M  V30 4779 H 442.643 4.78639 1.978 0
M  V30 4780 H 439.32 2.56608 3.2933 0
M  V30 4781 H 440.71 6.40509 2.02971 0
M  V30 4782 N 443.43 -0.535701 1.48216 0
M  V30 4783 C 444.378 -1.66179 1.62749 0
M  V30 4784 C 445.372 -1.62034 0.49409 0
M  V30 4785 O 446.578 -1.6696 0.672624 0
M  V30 4786 H 442.953 -0.550244 0.512578 0
M  V30 4787 H 444.924 -1.51063 2.57337 0
M  V30 4788 C 443.673 -3.04471 1.67907 0
M  V30 4789 H 442.996 -3.08351 2.54479 0
M  V30 4790 H 444.436 -3.82894 1.82121 0
M  V30 4791 C 442.895 -3.34314 0.416596 0
M  V30 4792 O 443.425 -3.98905 -0.473014 0
M  V30 4793 N 441.631 -2.89149 0.290038 0
M  V30 4794 H 441.178 -2.36764 1.01493 0
M  V30 4795 H 441.136 -3.09486 -0.55367 0
M  V30 4796 N 444.908 -1.36708 -0.784132 0
M  V30 4797 C 445.855 -1.31466 -1.89698 0
M  V30 4798 C 446.825 -0.18239 -1.65096 0
M  V30 4799 O 448.01 -0.369762 -1.87183 0
M  V30 4800 C 445.15 -1.1151 -3.26588 0
M  V30 4801 C 444.263 -2.33859 -3.63227 0
M  V30 4802 C 443.398 -2.06873 -4.89262 0
M  V30 4803 C 442.437 -3.25154 -5.18595 0
M  V30 4804 N 441.574 -2.978 -6.35814 0
M  V30 4805 H 446.414 -2.26619 -1.93515 0
M  V30 4806 H 443.951 -1.12625 -0.946256 0
M  V30 4807 H 445.909 -0.979653 -4.05535 0
M  V30 4808 H 444.539 -0.200103 -3.22179 0
M  V30 4809 H 443.591 -2.58188 -2.79362 0
M  V30 4810 H 444.903 -3.22109 -3.8085 0
M  V30 4811 H 444.057 -1.90289 -5.76086 0
M  V30 4812 H 442.796 -1.15942 -4.73718 0
M  V30 4813 H 441.801 -3.42292 -4.30251 0
M  V30 4814 H 443.026 -4.1692 -5.36055 0
M  V30 4815 H 440.972 -2.09485 -6.21653 0
M  V30 4816 H 440.889 -3.7959 -6.53794 0
M  V30 4817 H 442.157 -2.84805 -7.25607 0
M  V30 4818 N 446.386 1.0089 -1.21074 0
M  V30 4819 C 447.334 2.11707 -0.963476 0
M  V30 4820 C 448.328 1.69172 0.0879032 0
M  V30 4821 O 449.534 1.79889 -0.0631415 0
M  V30 4822 H 445.909 0.692026 -0.294287 0
M  V30 4823 H 447.88 2.29743 -1.90422 0
M  V30 4824 C 446.629 3.43473 -0.540509 0
M  V30 4825 H 445.952 3.76634 -1.34114 0
M  V30 4826 H 447.392 4.22044 -0.406777 0
M  V30 4827 C 445.851 3.2849 0.748079 0
M  V30 4828 O 446.381 3.58883 1.8046 0
M  V30 4829 N 444.587 2.81715 0.713081 0
M  V30 4830 H 444.134 2.5718 -0.146973 0
M  V30 4831 H 444.092 2.72071 1.57558 0
M  V30 4832 N 447.864 1.01787 1.20321 0
M  V30 4833 C 448.774 0.598898 2.26827 0
M  V30 4834 C 449.79 -0.36418 1.70146 0
M  V30 4835 O 450.966 -0.224812 2.00141 0
M  V30 4836 C 448.031 -0.0549769 3.46656 0
M  V30 4837 C 447.092 0.954205 4.18561 0
M  V30 4838 C 446.325 0.331439 5.3267 0
M  V30 4839 O 446.548 -0.86851 5.63749 0
M  V30 4840 O 445.482 1.0488 5.92692 0
M  V30 4841 H 449.308 1.48562 2.64883 0
M  V30 4842 H 446.893 0.787434 1.26964 0
M  V30 4843 H 448.775 -0.420102 4.19301 0
M  V30 4844 H 447.45 -0.915876 3.10473 0
M  V30 4845 H 446.357 1.37072 3.48083 0
M  V30 4846 H 447.69 1.78511 4.58688 0
M  V30 4847 N 449.342 -1.36122 0.79427 0
M  V30 4848 C 450.753 -1.81646 0.431446 0
M  V30 4849 C 451.104 -1.66043 -1.04518 0
M  V30 4850 O 450.229 -1.1841 -1.8113 0
M  V30 4851 C 450.824 -3.29785 0.776341 0
M  V30 4852 C 449.383 -3.73501 0.466282 0
M  V30 4853 C 448.53 -2.58313 1.00844 0
M  V30 4854 H 451.481 -1.24274 0.986995 0
M  V30 4855 H 451.502 -3.80437 0.0692413 0
M  V30 4856 H 451.014 -3.4111 1.8511 0
M  V30 4857 H 449.115 -3.67733 -0.600245 0
M  V30 4858 H 449.228 -4.68754 0.990288 0
M  V30 4859 H 447.592 -2.5102 0.431406 0
M  V30 4860 H 448.375 -2.72421 2.08906 0
M  V30 4861 N 450.82 -0.546701 -1.47814 0
M  V30 4862 C 451.768 0.220048 -2.31557 0
M  V30 4863 C 452.762 0.919472 -1.42275 0
M  V30 4864 O 453.968 0.841953 -1.59095 0
M  V30 4865 H 450.343 0.0898334 -0.746615 0
M  V30 4866 H 452.314 -0.505589 -2.94086 0
M  V30 4867 C 451.063 1.24353 -3.24702 0
M  V30 4868 H 450.386 0.714758 -3.93359 0
M  V30 4869 H 451.826 1.75112 -3.8615 0
M  V30 4870 C 450.285 2.28593 -2.47481 0
M  V30 4871 O 450.815 3.35334 -2.21165 0
M  V30 4872 N 449.021 2.02244 -2.08676 0
M  V30 4873 H 448.568 1.15455 -2.30278 0
M  V30 4874 H 448.526 2.72207 -1.57323 0
M  V30 4875 N 452.299 1.55045 -0.282633 0
M  V30 4876 C 453.524 2.04628 0.337977 0
M  V30 4877 C 453.949 1.15937 1.48123 0
M  V30 4878 O 453.307 0.159532 1.80597 0
M  V30 4879 C 453.355 3.51854 0.78936 0
M  V30 4880 O 452.459 3.66236 1.89592 0
M  V30 4881 H 451.8 0.660434 0.0687261 0
M  V30 4882 H 454.33 2.00261 -0.419124 0
M  V30 4883 H 454.34 3.93361 1.08311 0
M  V30 4884 H 453.015 4.15873 -0.0470419 0
M  V30 4885 H 451.592 3.36633 1.60413 0
M  V30 4886 N 453.777 0.010035 1.57597 0
M  V30 4887 C 454.707 -0.976857 2.12084 0
M  V30 4888 C 455.688 -1.35191 1.03235 0
M  V30 4889 O 456.873 -1.43389 1.3097 0
M  V30 4890 C 454.003 -2.26548 2.63236 0
M  V30 4891 C 452.957 -2.03175 3.76701 0
M  V30 4892 C 452.283 -3.38138 4.14206 0
M  V30 4893 C 453.583 -1.38625 5.03568 0
M  V30 4894 H 455.277 -0.523145 2.94794 0
M  V30 4895 H 452.823 -0.250195 1.4181 0
M  V30 4896 H 454.776 -2.95952 2.99984 0
M  V30 4897 H 453.5 -2.74051 1.77661 0
M  V30 4898 H 452.159 -1.36195 3.40362 0
M  V30 4899 H 451.807 -3.83363 3.25641 0
M  V30 4900 H 451.507 -3.23312 4.90656 0
M  V30 4901 H 453.031 -4.08841 4.53521 0
M  V30 4902 H 454.445 -1.98 5.38023 0
M  V30 4903 H 452.842 -1.34256 5.84889 0
M  V30 4904 H 453.912 -0.356722 4.83586 0
M  V30 4905 N 455.255 -1.55392 -0.262866 0
M  V30 4906 C 456.532 -1.67204 -1.01499 0
M  V30 4907 C 456.912 -0.545186 -2.03939 0
M  V30 4908 O 456.26 0.453467 -2.23955 0
M  V30 4909 C 456.47 -3.06847 -1.6627 0
M  V30 4910 C 457.818 -3.64928 -2.17054 0
M  V30 4911 O 458.842 -3.09545 -1.76239 0
M  V30 4912 O 457.701 -4.61984 -2.91947 0
M  V30 4913 H 454.795 -0.679467 -0.471438 0
M  V30 4914 H 457.341 -1.67729 -0.257918 0
M  V30 4915 H 456.113 -3.80309 -0.920915 0
M  V30 4916 H 455.736 -3.10266 -2.48638 0
M  V30 4917 N 456.733 0.527833 -1.48498 0
M  V30 4918 C 457.981 1.28101 -1.56316 0
M  V30 4919 C 458.302 1.9352 -0.239781 0
M  V30 4920 O 457.572 1.81433 0.738849 0
M  V30 4921 H 456.152 0.475793 -0.575873 0
M  V30 4922 H 458.814 0.614052 -1.84974 0
M  V30 4923 H 457.91 2.05916 -2.34532 0
M  V30 4924 N 458.211 1.37122 0.776871 0
M  V30 4925 C 459.158 1.3247 1.88998 0
M  V30 4926 C 460.128 0.191143 1.64997 0
M  V30 4927 O 461.313 0.379683 1.86984 0
M  V30 4928 C 458.453 1.13241 3.25992 0
M  V30 4929 C 457.566 2.35782 3.61982 0
M  V30 4930 C 456.701 2.09465 4.88158 0
M  V30 4931 C 455.74 3.279 5.16864 0
M  V30 4932 N 454.877 3.01167 6.34226 0
M  V30 4933 H 459.717 2.27642 1.9231 0
M  V30 4934 H 457.254 1.13125 0.94027 0
M  V30 4935 H 459.212 1.00115 4.0501 0
M  V30 4936 H 457.842 0.217186 3.22069 0
M  V30 4937 H 456.894 2.59666 2.77989 0
M  V30 4938 H 458.206 3.24125 3.79137 0
M  V30 4939 H 457.36 1.93341 5.75069 0
M  V30 4940 H 456.099 1.18452 4.73097 0
M  V30 4941 H 455.104 3.44569 4.2843 0
M  V30 4942 H 456.329 4.19757 5.33836 0
M  V30 4943 H 454.275 2.12779 6.20533 0
M  V30 4944 H 454.192 3.83052 6.51772 0
M  V30 4945 H 455.46 2.88649 7.24087 0
M  V30 4946 N 459.689 -1.00246 1.21608 0
M  V30 4947 C 460.937 -1.73717 1.0328 0
M  V30 4948 C 461.258 -1.90102 -0.434318 0
M  V30 4949 O 460.528 -1.45376 -1.31311 0
M  V30 4950 H 459.108 -0.643613 0.379172 0
M  V30 4951 H 461.77 -1.20787 1.52959 0
M  V30 4952 H 460.866 -2.73535 1.50283 0
M  V30 4953 N 461.167 -1.02423 -1.1978 0
M  V30 4954 C 462.397 -0.736387 -1.93031 0
M  V30 4955 C 462.805 0.708023 -1.75453 0
M  V30 4956 O 462.148 1.4927 -1.07071 0
M  V30 4957 C 462.21 -1.00194 -3.45255 0
M  V30 4958 C 461.874 -2.43698 -3.86601 0
M  V30 4959 C 462.871 -3.41814 -3.91738 0
M  V30 4960 C 460.556 -2.77975 -4.18372 0
M  V30 4961 C 462.55 -4.72265 -4.28071 0
M  V30 4962 C 460.237 -4.08636 -4.54378 0
M  V30 4963 C 461.235 -5.05592 -4.59201 0
M  V30 4964 O 460.923 -6.33914 -4.94376 0
M  V30 4965 H 460.655 -0.269116 -0.620123 0
M  V30 4966 H 463.209 -1.37043 -1.52998 0
M  V30 4967 H 461.439 -0.310747 -3.85449 0
M  V30 4968 H 463.128 -0.704488 -3.9974 0
M  V30 4969 H 463.894 -3.16671 -3.67348 0
M  V30 4970 H 459.773 -2.0319 -4.13805 0
M  V30 4971 H 463.317 -5.4794 -4.3175 0
M  V30 4972 H 459.214 -4.33556 -4.78226 0
M  V30 4973 H 459.982 -6.38317 -5.12341 0
M  V30 4974 N 462.645 1.35699 -0.801477 0
M  V30 4975 C 463.873 2.03157 -0.391768 0
M  V30 4976 C 464.288 1.60412 0.995668 0
M  V30 4977 O 463.645 0.799228 1.64069 0
M  V30 4978 C 463.696 3.58566 -0.459671 0
M  V30 4979 O 463.417 3.99756 -1.7924 0
M  V30 4980 C 464.918 4.4328 -0.0421205 0
M  V30 4981 H 462.138 0.651688 -0.159825 0
M  V30 4982 H 464.682 1.73426 -1.08368 0
M  V30 4983 H 462.837 3.86963 0.183939 0
M  V30 4984 H 463.251 4.94387 -1.75162 0
M  V30 4985 H 464.725 5.51821 -0.140754 0
M  V30 4986 H 465.202 4.27383 1.01196 0
M  V30 4987 H 465.808 4.20168 -0.658687 0
M  V30 4988 N 464.123 0.554532 1.47522 0
M  V30 4989 C 465.086 -0.184174 2.28459 0
M  V30 4990 C 466.086 -0.845195 1.36796 0
M  V30 4991 O 467.276 -0.701467 1.59452 0
M  V30 4992 C 464.408 -1.26903 3.16399 0
M  V30 4993 H 465.601 0.526751 2.95238 0
M  V30 4994 H 463.154 0.311375 1.53167 0
M  V30 4995 H 463.889 -2.01244 2.54306 0
M  V30 4996 H 463.674 -0.799883 3.83854 0
M  V30 4997 H 465.164 -1.78794 3.77389 0
M  V30 4998 N 465.601 -1.54893 0.290851 0
M  V30 4999 C 466.831 -2.04047 -0.323818 0
M  V30 5000 C 467.239 -1.16809 -1.48837 0
M  V30 5001 O 466.582 -0.184145 -1.82775 0
M  V30 5002 C 466.644 -3.49248 -0.852395 0
M  V30 5003 C 466.308 -4.56623 0.185557 0
M  V30 5004 C 467.305 -5.09985 1.01053 0
M  V30 5005 C 464.99 -5.01252 0.324332 0
M  V30 5006 C 466.984 -6.06507 1.96031 0
M  V30 5007 C 464.671 -5.97596 1.27757 0
M  V30 5008 C 465.669 -6.50107 2.09405 0
M  V30 5009 O 465.357 -7.44565 3.03114 0
M  V30 5010 H 465.089 -0.671735 -0.0758129 0
M  V30 5011 H 467.643 -2.00947 0.425393 0
M  V30 5012 H 465.873 -3.49639 -1.65195 0
M  V30 5013 H 467.562 -3.81654 -1.38185 0
M  V30 5014 H 468.328 -4.76307 0.914129 0
M  V30 5015 H 464.207 -4.60015 -0.301213 0
M  V30 5016 H 467.751 -6.47418 2.598 0
M  V30 5017 H 463.648 -6.30691 1.37473 0
M  V30 5018 H 464.416 -7.62334 2.97976 0
M  V30 5019 N 467.08 -0.0183926 -1.57589 0
M  V30 5020 C 467.99 0.982943 -2.13015 0
M  V30 5021 C 469.006 1.36443 -1.07979 0
M  V30 5022 O 470.182 1.44802 -1.3998 0
M  V30 5023 C 467.247 2.25024 -2.63752 0
M  V30 5024 C 466.308 1.93018 -3.83461 0
M  V30 5025 C 465.541 3.13706 -4.31769 0
M  V30 5026 O 465.764 4.2601 -3.79305 0
M  V30 5027 O 464.698 2.96629 -5.23732 0
M  V30 5028 H 468.524 0.541709 -2.9883 0
M  V30 5029 H 466.109 0.201565 -1.48034 0
M  V30 5030 H 467.991 2.99441 -2.96502 0
M  V30 5031 H 466.666 2.68349 -1.81026 0
M  V30 5032 H 465.573 1.16019 -3.55655 0
M  V30 5033 H 466.906 1.54516 -4.67317 0
M  V30 5034 N 468.558 1.5553 0.254621 0
M  V30 5035 C 469.783 1.81383 1.00573 0
M  V30 5036 C 470.208 0.594419 1.78461 0
M  V30 5037 O 469.566 -0.456403 1.75461 0
M  V30 5038 C 469.614 3.04892 1.92545 0
M  V30 5039 O 468.718 2.81266 3.01601 0
M  V30 5040 H 468.059 0.598969 0.286587 0
M  V30 5041 H 470.589 2.02703 0.277952 0
M  V30 5042 H 470.599 3.34119 2.34155 0
M  V30 5043 H 469.274 3.93287 1.3527 0
M  V30 5044 H 467.851 2.63185 2.64174 0
M  V30 5045 N 470.036 -0.519951 1.48776 0
M  V30 5046 C 470.946 -1.65025 1.66745 0
M  V30 5047 C 471.962 -1.6508 0.549954 0
M  V30 5048 O 473.138 -1.83848 0.822295 0
M  V30 5049 C 470.203 -3.0146 1.71238 0
M  V30 5050 C 469.264 -3.12182 2.94688 0
M  V30 5051 C 468.497 -4.42109 2.98958 0
M  V30 5052 O 468.72 -5.29799 2.1135 0
M  V30 5053 O 467.654 -4.57406 3.91233 0
M  V30 5054 H 471.48 -1.52801 2.62461 0
M  V30 5055 H 469.065 -0.694157 1.32294 0
M  V30 5056 H 470.947 -3.82584 1.76657 0
M  V30 5057 H 469.622 -3.13988 0.786975 0
M  V30 5058 H 468.529 -2.30316 2.94797 0
M  V30 5059 H 469.862 -3.04574 3.86646 0
M  V30 5060 N 471.514 -1.37532 -0.769588 0
M  V30 5061 C 472.93 -1.18379 -1.07045 0
M  V30 5062 C 473.13 -0.0214312 -2.01489 0
M  V30 5063 O 472.186 0.637809 -2.44312 0
M  V30 5064 C 473.499 -2.50338 -1.66588 0
M  V30 5065 C 475.047 -2.56879 -1.78835 0
M  V30 5066 C 475.522 -3.88974 -2.41792 0
M  V30 5067 N 477.013 -3.90428 -2.4924 0
M  V30 5068 C 477.748 -4.89388 -2.98809 0
M  V30 5069 N 477.244 -5.98745 -3.48535 0
M  V30 5070 N 479.037 -4.76791 -2.97703 0
M  V30 5071 H 471.188 -2.11921 -0.142541 0
M  V30 5072 H 473.451 -0.939608 -0.125863 0
M  V30 5073 H 473.157 -3.35767 -1.0466 0
M  V30 5074 H 473.031 -2.67583 -2.65856 0
M  V30 5075 H 475.418 -1.71856 -2.39895 0
M  V30 5076 H 475.499 -2.43516 -0.783166 0
M  V30 5077 H 475.143 -4.74412 -1.81371 0
M  V30 5078 H 475.073 -3.99641 -3.4292 0
M  V30 5079 H 477.564 -3.11433 -2.14052 0
M  V30 5080 H 477.877 -6.70205 -3.84767 0
M  V30 5081 H 476.222 -6.02387 -3.46634 0
M  V30 5082 H 479.413 -3.90478 -2.58157 0
M  V30 5083 H 479.586 -5.54069 -3.36024 0
M  V30 5084 N 472.992 0.995999 -1.22138 0
M  V30 5085 C 474.239 1.7351 -1.04406 0
M  V30 5086 C 474.567 1.89884 0.421244 0
M  V30 5087 O 473.822 1.43683 1.32867 0
M  V30 5088 C 474.121 3.14553 -1.6968 0
M  V30 5089 C 473.787 3.18102 -3.19565 0
M  V30 5090 C 472.449 3.18778 -3.60464 0
M  V30 5091 C 474.801 3.14636 -4.15516 0
M  V30 5092 C 472.129 3.13684 -4.95801 0
M  V30 5093 C 474.481 3.11084 -5.50826 0
M  V30 5094 C 473.145 3.10074 -5.91109 0
M  V30 5095 H 472.415 0.634916 -0.38205 0
M  V30 5096 H 475.062 1.1667 -1.51857 0
M  V30 5097 H 473.367 3.74682 -1.14546 0
M  V30 5098 H 475.064 3.70477 -1.53454 0
M  V30 5099 H 471.654 3.18324 -2.86998 0
M  V30 5100 H 475.838 3.13266 -3.84939 0
M  V30 5101 H 471.094 3.11245 -5.26247 0
M  V30 5102 H 475.268 3.07357 -6.24904 0
M  V30 5103 H 472.895 3.05882 -6.95946 0
M  V30 5104 N 474.47 1.03057 1.19235 0
M  V30 5105 C 475.42 0.583386 2.2041 0
M  V30 5106 C 476.404 -0.368776 1.56617 0
M  V30 5107 O 477.596 -0.189471 1.75983 0
M  V30 5108 C 474.725 -0.0626534 3.43243 0
M  V30 5109 C 473.811 0.91205 4.14177 0
M  V30 5110 N 474.202 2.07514 4.61272 0
M  V30 5111 C 472.5 0.735859 4.39888 0
M  V30 5112 C 473.201 2.69003 5.15764 0
M  V30 5113 N 472.177 1.96954 5.06666 0
M  V30 5114 H 475.979 1.46988 2.54503 0
M  V30 5115 H 473.493 0.897785 1.35328 0
M  V30 5116 H 475.49 -0.400653 4.1497 0
M  V30 5117 H 474.15 -0.944813 3.1065 0
M  V30 5118 H 475.161 2.45448 4.56043 0
M  V30 5119 H 471.838 -0.0970656 4.17387 0
M  V30 5120 H 473.228 3.67514 5.6248 0
M  V30 5121 N 475.948 -1.35272 0.808662 0
M  V30 5122 C 477.225 -1.93077 0.313181 0
M  V30 5123 C 477.605 -1.73847 -1.19752 0
M  V30 5124 O 476.953 -1.1087 -1.998 0
M  V30 5125 C 477.163 -3.41347 0.726859 0
M  V30 5126 C 478.511 -4.18493 0.717532 0
M  V30 5127 O 479.535 -3.4987 0.668535 0
M  V30 5128 O 478.394 -5.40937 0.777779 0
M  V30 5129 H 475.488 -0.822885 0.0824018 0
M  V30 5130 H 478.034 -1.44335 0.892499 0
M  V30 5131 H 476.806 -3.49082 1.76797 0
M  V30 5132 H 476.429 -3.97411 0.122461 0
M  V30 5133 N 477.426 -0.562348 -1.47226 0
M  V30 5134 C 478.374 0.195476 -2.31777 0
M  V30 5135 C 479.368 0.90433 -1.43242 0
M  V30 5136 O 480.574 0.825031 -1.59979 0
M  V30 5137 H 476.949 0.0819095 -0.747526 0
M  V30 5138 H 478.92 -0.536753 -2.93533 0
M  V30 5139 C 477.669 1.20902 -3.26003 0
M  V30 5140 H 476.992 0.672997 -3.94095 0
M  V30 5141 H 478.432 1.71006 -3.87986 0
M  V30 5142 C 476.891 2.25955 -2.49891 0
M  V30 5143 O 477.421 3.32969 -2.2471 0
M  V30 5144 N 475.627 2.00019 -2.1081 0
M  V30 5145 H 475.174 1.13006 -2.31489 0
M  V30 5146 H 475.132 2.70523 -1.60201 0
M  V30 5147 N 478.904 1.54736 -0.299062 0
M  V30 5148 C 479.837 2.1962 0.619851 0
M  V30 5149 C 480.815 1.16496 1.13434 0
M  V30 5150 O 481.999 1.4513 1.2029 0
M  V30 5151 C 479.126 2.8385 1.84788 0
M  V30 5152 C 478.172 4.00484 1.46679 0
M  V30 5153 S 479.005 5.32926 0.524389 0
M  V30 5154 C 480.161 6.00638 1.76026 0
M  V30 5155 H 480.394 2.97221 0.0686177 0
M  V30 5156 H 477.927 1.54176 -0.0832085 0
M  V30 5157 H 479.885 3.21483 2.55263 0
M  V30 5158 H 478.546 2.06099 2.37028 0
M  V30 5159 H 477.739 4.44201 2.38121 0
M  V30 5160 H 477.341 3.64398 0.842008 0
M  V30 5161 H 479.633 6.21327 2.70109 0
M  V30 5162 H 480.576 6.94805 1.36569 0
M  V30 5163 H 480.984 5.3026 1.93609 0
M  V30 5164 N 480.382 0.0267497 1.57577 0
M  V30 5165 C 481.659 -0.690926 1.82991 0
M  V30 5166 C 482.039 -1.90471 0.910164 0
M  V30 5167 O 481.387 -2.28474 -0.0347985 0
M  V30 5168 C 481.597 -1.07139 3.32148 0
M  V30 5169 C 482.945 -1.46402 3.98562 0
M  V30 5170 O 483.969 -1.16443 3.36629 0
M  V30 5171 O 482.828 -2.02214 5.07712 0
M  V30 5172 H 479.922 -0.338747 0.75444 0
M  V30 5173 H 482.468 0.0542506 1.69613 0
M  V30 5174 H 481.24 -0.207394 3.9075 0
M  V30 5175 H 480.863 -1.87481 3.50623 0
M  V30 5176 N 481.861 -1.55662 -0.24637 0
M  V30 5177 C 482.824 -1.89558 -1.28842 0
M  V30 5178 C 483.824 -0.772082 -1.41052 0
M  V30 5179 O 485.014 -1.04007 -1.39743 0
M  V30 5180 C 482.146 -2.12449 -2.66605 0
M  V30 5181 H 483.339 -2.82735 -1.00004 0
M  V30 5182 H 480.892 -1.48562 -0.485684 0
M  V30 5183 H 481.627 -1.21742 -3.00582 0
M  V30 5184 H 481.412 -2.94273 -2.59125 0
M  V30 5185 H 482.902 -2.39854 -3.41847 0
M  V30 5186 N 483.339 0.512053 -1.4905 0
M  V30 5187 C 484.586 1.26686 -1.57978 0
M  V30 5188 C 484.914 1.92733 -0.261553 0
M  V30 5189 O 484.169 1.80772 0.749667 0
M  V30 5190 C 484.468 2.36446 -2.68008 0
M  V30 5191 C 484.134 1.87932 -4.09869 0
M  V30 5192 C 482.796 1.74419 -4.48477 0
M  V30 5193 C 485.148 1.5149 -4.98698 0
M  V30 5194 C 482.476 1.22827 -5.73699 0
M  V30 5195 C 484.828 1.01355 -6.24428 0
M  V30 5196 C 483.492 0.864735 -6.61875 0
M  V30 5197 H 482.762 0.463577 -0.578081 0
M  V30 5198 H 485.409 0.569421 -1.82838 0
M  V30 5199 H 483.714 3.11933 -2.37076 0
M  V30 5200 H 485.411 2.9453 -2.72127 0
M  V30 5201 H 482.001 1.99405 -3.79389 0
M  V30 5202 H 486.185 1.60782 -4.69535 0
M  V30 5203 H 481.441 1.10008 -6.01422 0
M  V30 5204 H 485.615 0.722351 -6.92644 0
M  V30 5205 H 483.242 0.462777 -7.5879 0
M  V30 5206 N 484.817 1.37938 0.762283 0
M  V30 5207 C 486.063 1.33866 1.52341 0
M  V30 5208 C 486.396 -0.0738961 1.94059 0
M  V30 5209 O 485.671 -1.03326 1.64785 0
M  V30 5210 C 485.954 2.28644 2.78197 0
M  V30 5211 C 485.807 3.78722 2.42672 0
M  V30 5212 C 487.126 2.21702 3.80179 0
M  V30 5213 H 484.245 0.487593 0.55265 0
M  V30 5214 H 486.887 1.68717 0.873767 0
M  V30 5215 H 485.037 1.99055 3.33631 0
M  V30 5216 H 486.709 4.18948 1.93081 0
M  V30 5217 H 484.952 3.96827 1.75244 0
M  V30 5218 H 485.623 4.40486 3.3268 0
M  V30 5219 H 488.099 2.47805 3.34263 0
M  V30 5220 H 486.975 2.90143 4.65949 0
M  V30 5221 H 487.236 1.21301 4.25133 0
M  V30 5222 N 486.295 -0.989507 1.22664 0
M  V30 5223 C 487.242 -2.08024 0.999733 0
M  V30 5224 C 488.212 -1.65909 -0.0797047 0
M  V30 5225 O 489.397 -1.90669 0.0705715 0
M  V30 5226 C 486.537 -3.40067 0.587234 0
M  V30 5227 C 485.65 -3.95505 1.73781 0
M  V30 5228 C 484.785 -5.15722 1.27297 0
M  V30 5229 C 483.824 -5.63305 2.39488 0
M  V30 5230 N 482.961 -6.74758 1.94026 0
M  V30 5231 H 487.801 -2.26768 1.9334 0
M  V30 5232 H 485.338 -1.11171 0.963297 0
M  V30 5233 H 487.296 -4.15899 0.329227 0
M  V30 5234 H 485.926 -3.21314 -0.309426 0
M  V30 5235 H 484.978 -3.16513 2.11006 0
M  V30 5236 H 486.29 -4.26797 2.58158 0
M  V30 5237 H 485.444 -5.98854 0.972546 0
M  V30 5238 H 484.183 -4.86061 0.399445 0
M  V30 5239 H 483.188 -4.78759 2.70315 0
M  V30 5240 H 484.413 -5.94988 3.27362 0
M  V30 5241 H 482.359 -6.46874 1.09041 0
M  V30 5242 H 482.276 -7.05386 2.71968 0
M  V30 5243 H 483.544 -7.61387 1.67062 0
M  V30 5244 N 487.773 -1.03688 -1.18687 0
M  V30 5245 C 489.022 -0.733235 -1.879 0
M  V30 5246 C 489.335 0.741745 -1.8099 0
M  V30 5247 O 490.541 1.15875 -2.4553 0
M  V30 5248 C 488.997 -1.26127 -3.37076 0
M  V30 5249 C 488.605 -2.76461 -3.52524 0
M  V30 5250 C 490.349 -1.03398 -4.11715 0
M  V30 5251 C 488.256 -3.22642 -4.95637 0
M  V30 5252 H 487.186 -0.270584 -0.703776 0
M  V30 5253 H 489.837 -1.25222 -1.34133 0
M  V30 5254 H 488.219 -0.670165 -3.90288 0
M  V30 5255 H 489.393 -3.41296 -3.09602 0
M  V30 5256 H 487.708 -2.97559 -2.91286 0
M  V30 5257 H 490.305 -1.3542 -5.17267 0
M  V30 5258 H 490.648 0.0289246 -4.1629 0
M  V30 5259 H 491.181 -1.5895 -3.64664 0
M  V30 5260 H 487.92 -4.28296 -4.96228 0
M  V30 5261 H 487.44 -2.62539 -5.39289 0
M  V30 5262 H 489.119 -3.16444 -5.64333 0
M  V30 5263 N 489.251 1.34841 -0.815825 0
M  V30 5264 C 490.5 1.97755 -0.396976 0
M  V30 5265 C 490.813 1.65422 1.04379 0
M  V30 5266 O 492.019 2.21771 1.5662 0
M  V30 5267 C 490.475 3.53818 -0.658869 0
M  V30 5268 C 490.083 3.95051 -2.11278 0
M  V30 5269 C 491.827 4.23397 -0.305834 0
M  V30 5270 C 489.734 5.43997 -2.31994 0
M  V30 5271 H 488.664 0.739985 -0.1447 0
M  V30 5272 H 491.315 1.53781 -1.00118 0
M  V30 5273 H 489.697 3.95997 0.0154112 0
M  V30 5274 H 490.871 3.63998 -2.82564 0
M  V30 5275 H 489.186 3.38388 -2.42657 0
M  V30 5276 H 491.783 5.32899 -0.43854 0
M  V30 5277 H 492.126 4.09508 0.748952 0
M  V30 5278 H 492.659 3.8667 -0.934403 0
M  V30 5279 H 489.398 5.62865 -3.35952 0
M  V30 5280 H 488.918 5.76589 -1.65244 0
M  V30 5281 H 490.597 6.10584 -2.14001 0
M  V30 5282 N 490.729 0.570148 1.46925 0
M  V30 5283 C 491.676 -0.170257 2.30171 0
M  V30 5284 C 492.646 -0.896099 1.39855 0
M  V30 5285 O 493.831 -0.889248 1.68811 0
M  V30 5286 C 490.971 -1.18605 3.24079 0
M  V30 5287 C 490.084 -0.464947 4.29491 0
M  V30 5288 C 489.219 -1.46716 5.10537 0
M  V30 5289 C 488.258 -0.731758 6.0771 0
M  V30 5290 N 487.395 -1.68142 6.81669 0
M  V30 5291 H 492.235 0.545713 2.92961 0
M  V30 5292 H 489.772 0.280938 1.44392 0
M  V30 5293 H 491.73 -1.78771 3.76957 0
M  V30 5294 H 490.36 -1.86989 2.63125 0
M  V30 5295 H 489.412 0.251506 3.79568 0
M  V30 5296 H 490.724 0.110548 4.98677 0
M  V30 5297 H 489.878 -2.14199 5.6763 0
M  V30 5298 H 488.617 -2.07658 4.41282 0
M  V30 5299 H 487.622 -0.0430787 5.49783 0
M  V30 5300 H 488.847 -0.127904 6.7898 0
M  V30 5301 H 486.793 -2.27918 6.15134 0
M  V30 5302 H 486.71 -1.15841 7.47072 0
M  V30 5303 H 487.978 -2.347 7.43328 0
M  V30 5304 N 492.207 -1.54576 0.307264 0
M  V30 5305 C 493.435 -2.04675 -0.302597 0
M  V30 5306 C 493.85 -1.18425 -1.47041 0
M  V30 5307 O 493.207 -0.211257 -1.81273 0
M  V30 5308 C 493.258 -3.53575 -0.752801 0
M  V30 5309 O 492.979 -4.36547 0.368536 0
M  V30 5310 C 494.48 -4.19699 -1.42717 0
M  V30 5311 H 491.7 -0.66786 -0.0648374 0
M  V30 5312 H 494.244 -1.99516 0.448716 0
M  V30 5313 H 492.399 -3.59074 -1.45412 0
M  V30 5314 H 492.813 -5.24497 0.0168937 0
M  V30 5315 H 494.287 -5.25388 -1.69327 0
M  V30 5316 H 494.764 -3.69815 -2.36925 0
M  V30 5317 H 495.37 -4.18293 -0.768856 0
M  V30 5318 N 493.685 -0.035106 -1.57561 0
M  V30 5319 C 494.595 0.960295 -2.14046 0
M  V30 5320 C 495.611 1.3529 -1.0942 0
M  V30 5321 O 496.787 1.43309 -1.41508 0
M  V30 5322 C 493.852 2.22214 -2.66124 0
M  V30 5323 C 492.913 1.8894 -3.85487 0
M  V30 5324 C 492.146 3.09109 -4.35072 0
M  V30 5325 O 492.369 4.21963 -3.83802 0
M  V30 5326 O 491.303 2.91058 -5.26848 0
M  V30 5327 H 495.129 0.509983 -2.99387 0
M  V30 5328 H 492.714 0.185853 -1.48239 0
M  V30 5329 H 494.596 2.96279 -2.99661 0
M  V30 5330 H 493.271 2.66414 -1.83862 0
M  V30 5331 H 492.178 1.12241 -3.56865 0
M  V30 5332 H 493.511 1.49551 -4.6893 0
M  V30 5333 N 495.163 1.55791 0.238111 0
M  V30 5334 C 496.409 1.78297 0.966337 0
M  V30 5335 C 496.742 0.601903 1.84637 0
M  V30 5336 O 496.017 -0.399499 1.90353 0
M  V30 5337 C 496.3 3.10758 1.81939 0
M  V30 5338 C 496.153 4.39283 0.966958 0
M  V30 5339 C 497.472 3.39519 2.80027 0
M  V30 5340 H 494.591 0.648654 0.349882 0
M  V30 5341 H 497.233 1.88525 0.236253 0
M  V30 5342 H 495.383 3.02168 2.44185 0
M  V30 5343 H 497.055 4.59873 0.362514 0
M  V30 5344 H 495.298 4.32948 0.271669 0
M  V30 5345 H 495.969 5.28368 1.59784 0
M  V30 5346 H 498.445 3.48128 2.27917 0
M  V30 5347 H 497.321 4.33402 3.36829 0
M  V30 5348 H 497.582 2.60864 3.56934 0
M  V30 5349 N 496.642 -0.504142 1.49319 0
M  V30 5350 C 497.575 -1.62361 1.60356 0
M  V30 5351 C 498.553 -1.56169 0.45277 0
M  V30 5352 O 499.737 -1.76271 0.667892 0
M  V30 5353 C 496.864 -3.00864 1.55559 0
M  V30 5354 C 495.91 -3.25328 2.75797 0
M  V30 5355 S 496.743 -3.08791 4.37503 0
M  V30 5356 C 497.899 -4.49695 4.35345 0
M  V30 5357 H 498.132 -1.52753 2.55056 0
M  V30 5358 H 495.665 -0.689065 1.38171 0
M  V30 5359 H 497.623 -3.8073 1.53477 0
M  V30 5360 H 496.284 -3.0789 0.621515 0
M  V30 5361 H 495.477 -4.2643 2.68651 0
M  V30 5362 H 495.079 -2.53179 2.75275 0
M  V30 5363 H 497.371 -5.41721 4.06871 0
M  V30 5364 H 498.314 -4.61891 5.36714 0
M  V30 5365 H 498.722 -4.30227 3.65465 0
M  V30 5366 N 498.12 -1.38341 -0.754957 0
M  V30 5367 C 499.068 -1.35573 -1.89005 0
M  V30 5368 C 500.062 -0.241824 -1.67665 0
M  V30 5369 O 501.268 -0.410785 -1.7525 0
M  V30 5370 H 497.643 -0.422898 -0.621821 0
M  V30 5371 H 499.614 -2.31359 -1.88455 0
M  V30 5372 C 498.363 -1.19631 -3.26471 0
M  V30 5373 H 497.686 -2.04605 -3.43477 0
M  V30 5374 H 499.126 -1.21748 -4.06144 0
M  V30 5375 C 497.585 0.0968705 -3.36761 0
M  V30 5376 O 498.115 1.07439 -3.87066 0
M  V30 5377 N 496.321 0.153242 -2.90196 0
M  V30 5378 H 495.868 -0.642908 -2.49448 0
M  V30 5379 H 495.826 1.01807 -2.9746 0
M  V30 5380 N 499.598 0.982988 -1.23187 0
M  V30 5381 C 500.545 2.07491 -1.01075 0
M  V30 5382 C 501.515 1.65949 0.070905 0
M  V30 5383 O 502.7 1.90629 -0.0806822 0
M  V30 5384 C 499.84 3.39751 -0.605261 0
M  V30 5385 C 498.953 3.94578 -1.75876 0
M  V30 5386 C 498.088 5.15039 -1.3003 0
M  V30 5387 C 497.127 5.62027 -2.42472 0
M  V30 5388 N 496.264 6.73719 -1.97602 0
M  V30 5389 H 501.104 2.25739 -1.9454 0
M  V30 5390 H 498.641 1.10659 -0.969179 0
M  V30 5391 H 500.599 4.15719 -0.351279 0
M  V30 5392 H 499.229 3.21473 0.292382 0
M  V30 5393 H 498.281 3.1539 -2.12681 0
M  V30 5394 H 499.593 4.25422 -2.60418 0
M  V30 5395 H 498.747 5.9833 -1.00429 0
M  V30 5396 H 497.486 4.85843 -0.425216 0
M  V30 5397 H 496.491 4.77318 -2.7285 0
M  V30 5398 H 497.716 5.93244 -3.30512 0
M  V30 5399 H 495.662 6.46287 -1.1247 0
M  V30 5400 H 495.579 7.03934 -2.75705 0
M  V30 5401 H 496.847 7.6049 -1.71098 0
M  V30 5402 N 501.076 1.04316 1.18135 0
M  V30 5403 C 502.492 0.762858 1.40188 0
M  V30 5404 C 502.692 -0.646547 1.90846 0
M  V30 5405 O 501.748 -1.41036 2.0944 0
M  V30 5406 C 503.061 1.81106 2.40044 0
M  V30 5407 C 504.609 1.83226 2.53766 0
M  V30 5408 C 505.084 2.87044 3.56889 0
M  V30 5409 N 506.575 2.85951 3.64398 0
M  V30 5410 C 507.31 3.62932 4.43923 0
M  V30 5411 N 506.806 4.49672 5.27036 0
M  V30 5412 N 508.599 3.51411 4.38711 0
M  V30 5413 H 500.75 1.95264 0.835805 0
M  V30 5414 H 503.013 0.845017 0.429709 0
M  V30 5415 H 502.719 2.82214 2.09876 0
M  V30 5416 H 502.593 1.64529 3.39426 0
M  V30 5417 H 504.98 0.827869 2.8325 0
M  V30 5418 H 505.061 2.03879 1.54489 0
M  V30 5419 H 504.705 3.87663 3.28145 0
M  V30 5420 H 504.635 2.63645 4.5585 0
M  V30 5421 H 507.126 2.23051 3.05052 0
M  V30 5422 H 507.439 5.05116 5.84874 0
M  V30 5423 H 505.784 4.53738 5.26447 0
M  V30 5424 H 508.975 2.83047 3.72829 0
M  V30 5425 H 509.148 4.11654 5.00445 0
M  V30 5426 O 502.593 -1.30005 0.958179 0
M  V30 5427 H 503.284 -1.84399 0.593022 0
M  V30 END ATOM
M  V30 BEGIN BOND
M  V30 END BOND
M  V30 END CTAB
M  END
$$$$
