drugbank_target|Q09428 ATP-binding cassette sub-family C member 8 (DB00171; DB00222; DB00672; DB00731; DB00912; DB01067; DB01120; DB01124; DB01251; DB01252; DB01382)
 OpenBabel12092119273D

  0  0  0     0  0            999 V3000
M  V30 BEGIN CTAB
M  V30 COUNTS 25209 25473 0 0 0
M  V30 BEGIN ATOM
M  V30 1 H -0.908 1.98254 -0.117106 0
M  V30 2 N 0 1.576 0 0
M  V30 3 C 0.933 2.03868 1.02534 0
M  V30 4 C 1.911 0.928543 1.3348 0
M  V30 5 O 3.095 1.19667 1.45644 0
M  V30 6 C 0.222 2.43627 2.35294 0
M  V30 7 C -0.732 3.65373 2.2001 0
M  V30 8 S 0.101 5.13292 1.52614 0
M  V30 9 C 1.257 5.56322 2.86805 0
M  V30 10 H 1.49 2.90518 0.631377 0
M  V30 11 H -0.977 1.52953 0.210867 0
M  V30 12 H 0.981 2.67203 3.11629 0
M  V30 13 H -0.358 1.57376 2.7183 0
M  V30 14 H -1.165 3.90944 3.18086 0
M  V30 15 H -1.563 3.418 1.51819 0
M  V30 16 H 0.729 5.58782 3.83104 0
M  V30 17 H 1.672 6.56266 2.65933 0
M  V30 18 H 2.08 4.83886 2.90714 0
M  V30 19 N 1.4781 -0.272755 1.55222 0
M  V30 20 C 2.8891 -0.84378 1.66545 0
M  V30 21 C 3.2401 -1.87035 0.592641 0
M  V30 22 O 2.3651 -2.14761 -0.265818 0
M  V30 23 C 2.9601 -1.53723 3.01918 0
M  V30 24 C 1.5191 -2.05628 3.15268 0
M  V30 25 C 0.6661 -0.898424 2.62343 0
M  V30 26 H 3.6171 -0.0490998 1.58624 0
M  V30 27 H 3.6381 -2.40421 2.94921 0
M  V30 28 H 3.1501 -0.78983 3.79978 0
M  V30 29 H 1.2511 -2.83329 2.41983 0
M  V30 30 H 1.3641 -2.27142 4.21833 0
M  V30 31 H -0.2719 -1.29186 2.19506 0
M  V30 32 H 0.5111 -0.164528 3.42906 0
M  V30 33 N 2.9562 -1.48159 -0.537278 0
M  V30 34 C 3.8862 -1.65029 -1.6519 0
M  V30 35 C 4.8672 -0.499281 -1.62607 0
M  V30 36 O 6.0522 -0.730972 -1.79918 0
M  V30 37 C 3.1822 -1.68303 -3.03795 0
M  V30 38 C 2.1362 -2.8283 -3.21234 0
M  V30 39 C 1.4622 -2.71189 -4.60826 0
M  V30 40 C 2.7622 -4.24211 -3.04701 0
M  V30 41 H 4.4562 -2.58341 -1.51328 0
M  V30 42 H 2.0022 -1.24325 -0.726585 0
M  V30 43 H 3.9552 -1.78693 -3.81637 0
M  V30 44 H 2.6792 -0.715635 -3.18663 0
M  V30 45 H 1.3382 -2.71983 -2.45807 0
M  V30 46 H 0.9862 -1.72435 -4.7252 0
M  V30 47 H 0.6862 -3.48035 -4.7344 0
M  V30 48 H 2.2102 -2.83537 -5.40777 0
M  V30 49 H 3.6242 -4.3593 -3.72341 0
M  V30 50 H 2.0212 -5.01998 -3.28813 0
M  V30 51 H 3.0912 -4.41184 -2.01209 0
M  V30 52 N 4.4343 0.785586 -1.36625 0
M  V30 53 C 5.3973 1.87999 -1.31107 0
M  V30 54 C 6.3973 1.59316 -0.217959 0
M  V30 55 O 7.5873 1.67656 -0.472977 0
M  V30 56 C 4.7193 3.24861 -1.03334 0
M  V30 57 H 5.9123 1.94307 -2.2844 0
M  V30 58 H 3.4653 0.983813 -1.21453 0
M  V30 59 H 4.2003 3.24235 -0.0647432 0
M  V30 60 H 3.9853 3.4707 -1.82441 0
M  V30 61 H 5.4753 4.04929 -1.02088 0
M  V30 62 N 5.9124 1.20967 1.01018 0
M  V30 63 C 7.1594 1.02374 1.74716 0
M  V30 64 C 7.4874 -0.443375 1.89379 0
M  V30 65 O 6.7424 -1.34535 1.42123 0
M  V30 66 C 7.0414 1.65997 3.16512 0
M  V30 67 C 6.7074 3.15831 3.2181 0
M  V30 68 C 5.3694 3.56719 3.22963 0
M  V30 69 C 7.7214 4.11816 3.19464 0
M  V30 70 C 5.0494 4.92107 3.19449 0
M  V30 71 C 7.4014 5.47158 3.17491 0
M  V30 72 C 6.0654 5.87451 3.16951 0
M  V30 73 H 5.3354 0.374614 0.639332 0
M  V30 74 H 7.9824 1.50485 1.18434 0
M  V30 75 H 6.2874 1.10166 3.75993 0
M  V30 76 H 7.9844 1.49119 3.72242 0
M  V30 77 H 4.5744 2.83263 3.21652 0
M  V30 78 H 8.7584 3.81257 3.17737 0
M  V30 79 H 4.0144 5.22579 3.17366 0
M  V30 80 H 8.1884 6.21274 3.14629 0
M  V30 81 H 5.8154 6.92329 3.13983 0
M  V30 82 N 7.3905 -1.2043 1.01659 0
M  V30 83 C 8.6305 -1.91507 0.714456 0
M  V30 84 C 8.9945 -1.77073 -0.742237 0
M  V30 85 O 10.1955 -2.42631 -1.15688 0
M  V30 86 C 8.4665 -3.38795 1.13809 0
M  V30 87 S 10.0255 -4.28216 0.957925 0
M  V30 88 H 6.8435 -0.661571 0.260471 0
M  V30 89 H 9.4455 -1.45671 1.30384 0
M  V30 90 H 8.1495 -3.46822 2.19415 0
M  V30 91 H 7.6805 -3.89656 0.541474 0
M  V30 92 H 9.6955 -4.96007 -0.138531 0
M  V30 93 N 8.8686 -0.792821 -1.36206 0
M  V30 94 C 10.1166 -0.366062 -1.98757 0
M  V30 95 C 10.4376 1.0668 -1.63231 0
M  V30 96 O 9.7076 1.73587 -0.907978 0
M  V30 97 H 8.2876 -0.132364 -0.735179 0
M  V30 98 H 10.9496 -1.01562 -1.66347 0
M  V30 99 H 10.0456 -0.460638 -3.08682 0
M  V30 100 N 10.3467 1.47872 -0.545128 0
M  V30 101 C 11.5717 2.07391 -0.0190611 0
M  V30 102 C 11.9967 1.39688 1.25971 0
M  V30 103 O 11.3547 0.467816 1.7516 0
M  V30 104 C 11.4027 3.60188 0.172335 0
M  V30 105 O 10.5067 3.9339 1.23766 0
M  V30 106 H 9.8477 0.662411 -0.0459059 0
M  V30 107 H 12.3777 1.90066 -0.757365 0
M  V30 108 H 12.3877 4.06129 0.390305 0
M  V30 109 H 11.0627 4.08865 -0.761725 0
M  V30 110 H 9.6397 3.5921 1.00114 0
M  V30 111 N 11.8248 0.280983 1.55075 0
M  V30 112 C 12.7348 -0.61388 2.26426 0
M  V30 113 C 13.7508 -1.16521 1.29224 0
M  V30 114 O 14.9268 -1.19426 1.62171 0
M  V30 115 C 11.9918 -1.7788 2.9759 0
M  V30 116 C 11.0528 -1.26355 4.10284 0
M  V30 117 C 10.2858 -2.37295 4.78045 0
M  V30 118 O 10.5088 -3.56777 4.45047 0
M  V30 119 O 9.4428 -2.05119 5.65871 0
M  V30 120 H 13.2688 -0.0356932 3.03679 0
M  V30 121 H 10.8538 0.0481686 1.49322 0
M  V30 122 H 12.7358 -2.45791 3.42293 0
M  V30 123 H 11.4108 -2.34397 2.23249 0
M  V30 124 H 10.3178 -0.550735 3.70024 0
M  V30 125 H 11.6508 -0.744065 4.86543 0
M  V30 126 N 13.3029 -1.57598 0.00835791 0
M  V30 127 C 14.2509 -2.10078 -0.998508 0
M  V30 128 C 15.2449 -1.02262 -1.35051 0
M  V30 129 O 16.4509 -1.20719 -1.33518 0
M  V30 130 H 12.8259 -0.670903 -0.339696 0
M  V30 131 H 14.7969 -2.93648 -0.530398 0
M  V30 132 C 13.5459 -2.62615 -2.27879 0
M  V30 133 H 12.8689 -3.45213 -2.01662 0
M  V30 134 H 14.3089 -3.03004 -2.96588 0
M  V30 135 C 12.7679 -1.54407 -2.99433 0
M  V30 136 O 13.2979 -0.931812 -3.90743 0
M  V30 137 N 11.5039 -1.2695 -2.61404 0
M  V30 138 H 11.0509 -1.76924 -1.87232 0
M  V30 139 H 11.0089 -0.547704 -3.09593 0
M  V30 140 N 14.781 0.264519 -1.55364 0
M  V30 141 C 15.731 1.32966 -1.85214 0
M  V30 142 C 16.715 1.44306 -0.711653 0
M  V30 143 O 17.907 1.47844 -0.973192 0
M  V30 144 C 15.036 2.68839 -2.13495 0
M  V30 145 C 14.122 2.61575 -3.33825 0
M  V30 146 N 14.513 2.23933 -4.53528 0
M  V30 147 C 12.811 2.92621 -3.36584 0
M  V30 148 C 13.512 2.26868 -5.35636 0
M  V30 149 N 12.488 2.65677 -4.74254 0
M  V30 150 H 16.29 1.02884 -2.75304 0
M  V30 151 H 13.804 0.473157 -1.55354 0
M  V30 152 H 15.801 3.45685 -2.33039 0
M  V30 153 H 14.461 2.99802 -1.24694 0
M  V30 154 H 15.472 1.95769 -4.79474 0
M  V30 155 H 12.149 3.2824 -2.58002 0
M  V30 156 H 13.539 2.00254 -6.41364 0
M  V30 157 N 16.2591 1.48442 0.529413 0
M  V30 158 C 17.4841 1.60406 1.31471 0
M  V30 159 C 17.9091 0.264738 1.86228 0
M  V30 160 O 17.2671 -0.763668 1.64432 0
M  V30 161 C 17.3151 2.65419 2.44101 0
M  V30 162 O 16.4191 2.22618 3.47153 0
M  V30 163 H 15.7601 0.537863 0.389357 0
M  V30 164 H 18.2901 1.94432 0.636965 0
M  V30 165 H 18.3001 2.86709 2.90279 0
M  V30 166 H 16.9751 3.62652 2.03608 0
M  V30 167 H 15.5521 2.11543 3.0709 0
M  V30 168 N 17.7372 -0.778329 1.37039 0
M  V30 169 C 18.7002 -1.87301 1.32102 0
M  V30 170 C 19.7002 -1.59198 0.226405 0
M  V30 171 O 20.8902 -1.67403 0.481861 0
M  V30 172 C 18.0222 -3.24309 1.05055 0
M  V30 173 H 19.2152 -1.93093 2.29467 0
M  V30 174 H 16.7682 -0.977358 1.21973 0
M  V30 175 H 17.5032 -3.24196 0.0819373 0
M  V30 176 H 17.2882 -3.46098 1.84279 0
M  V30 177 H 18.7782 -4.04382 1.04234 0
M  V30 178 N 19.2153 -1.21501 -1.00376 0
M  V30 179 C 20.1783 -0.976927 -2.07337 0
M  V30 180 C 21.1783 0.0525322 -1.60714 0
M  V30 181 O 22.3683 -0.184869 -1.73216 0
M  V30 182 C 19.5003 -0.473423 -3.37597 0
M  V30 183 H 20.6933 -1.92587 -2.29892 0
M  V30 184 H 18.2463 -1.03217 -1.17371 0
M  V30 185 H 18.9813 0.480379 -3.20722 0
M  V30 186 H 18.7663 -1.216 -3.72768 0
M  V30 187 H 20.2563 -0.32675 -4.1632 0
M  V30 188 N 20.6934 1.19889 -1.02296 0
M  V30 189 C 21.9234 1.93109 -0.734332 0
M  V30 190 C 22.3314 1.75377 0.709889 0
M  V30 191 O 21.6744 1.06912 1.49384 0
M  V30 192 C 21.7364 3.45362 -0.99827 0
M  V30 193 C 21.4004 3.8686 -2.43287 0
M  V30 194 C 22.3974 3.92102 -3.41397 0
M  V30 195 C 20.0824 4.18668 -2.77529 0
M  V30 196 C 22.0764 4.28573 -4.71809 0
M  V30 197 C 19.7634 4.54813 -4.08153 0
M  V30 198 C 20.7614 4.59739 -5.05103 0
M  V30 199 O 20.4494 4.95051 -6.33388 0
M  V30 200 H 20.1814 0.620409 -0.268456 0
M  V30 201 H 22.7354 1.53144 -1.3688 0
M  V30 202 H 20.9654 3.85482 -0.306645 0
M  V30 203 H 22.6544 3.99814 -0.700234 0
M  V30 204 H 23.4204 3.67685 -3.1628 0
M  V30 205 H 19.2994 4.14021 -2.0275 0
M  V30 206 H 22.8434 4.32333 -5.4748 0
M  V30 207 H 18.7404 4.78687 -4.33047 0
M  V30 208 H 19.5084 5.1302 -6.37772 0
M  V30 209 N 22.1715 0.800033 1.35784 0
M  V30 210 C 23.5875 0.482977 1.52117 0
M  V30 211 C 23.7875 -0.996948 1.75109 0
M  V30 212 O 22.8435 -1.78216 1.78872 0
M  V30 213 C 24.1565 1.32264 2.70049 0
M  V30 214 C 25.7045 1.31742 2.83924 0
M  V30 215 C 26.1795 2.14106 4.04874 0
M  V30 216 N 27.6705 2.11607 4.12039 0
M  V30 217 C 28.4055 2.72099 5.04727 0
M  V30 218 N 27.9015 3.41492 6.02789 0
M  V30 219 N 29.6945 2.61776 4.97423 0
M  V30 220 H 21.8455 1.75856 1.19115 0
M  V30 221 H 24.1085 0.748122 0.582252 0
M  V30 222 H 23.8145 2.37261 2.59616 0
M  V30 223 H 23.6885 0.971303 3.6448 0
M  V30 224 H 26.0755 0.275333 2.93813 0
M  V30 225 H 26.1565 1.70859 1.9037 0
M  V30 226 H 25.8005 3.18351 3.95746 0
M  V30 227 H 25.7305 1.72353 4.97596 0
M  V30 228 H 28.2215 1.61112 3.41835 0
M  V30 229 H 28.5345 3.84953 6.70098 0
M  V30 230 H 26.8795 3.45596 6.02983 0
M  V30 231 H 30.0705 2.07157 4.19766 0
M  V30 232 H 30.2435 3.0921 5.69468 0
M  V30 233 N 23.6496 -1.47581 0.552962 0
M  V30 234 C 24.8956 -2.02782 0.0273648 0
M  V30 235 C 25.2286 -1.42687 -1.31734 0
M  V30 236 O 24.5036 -0.580897 -1.85623 0
M  V30 237 C 24.7866 -3.60031 -0.0702371 0
M  V30 238 C 24.6396 -4.30566 1.30126 0
M  V30 239 C 25.9586 -4.33028 -0.785771 0
M  V30 240 H 23.0776 -0.736912 0.0114185 0
M  V30 241 H 25.7196 -1.76056 0.714432 0
M  V30 242 H 23.8696 -3.82932 -0.655382 0
M  V30 243 H 25.5416 -4.19018 1.92929 0
M  V30 244 H 23.7846 -3.91086 1.87709 0
M  V30 245 H 24.4556 -5.39114 1.18573 0
M  V30 246 H 26.9316 -4.15095 -0.288982 0
M  V30 247 H 25.8076 -5.42695 -0.823013 0
M  V30 248 H 26.0686 -4.01945 -1.841 0
M  V30 249 N 25.1277 -0.289203 -1.54924 0
M  V30 250 C 26.4047 0.376032 -1.91951 0
M  V30 251 C 26.7847 1.72622 -1.21511 0
M  V30 252 O 26.1327 2.25853 -0.346767 0
M  V30 253 C 26.3427 0.502378 -3.45365 0
M  V30 254 C 27.6907 0.778741 -4.17398 0
M  V30 255 O 28.7147 0.586647 -3.51336 0
M  V30 256 O 27.5737 1.14698 -5.34328 0
M  V30 257 H 24.6677 0.208167 -0.800372 0
M  V30 258 H 27.2137 -0.336394 -1.66332 0
M  V30 259 H 25.9857 -0.447255 -3.88736 0
M  V30 260 H 25.6087 1.26373 -3.76982 0
M  V30 261 N 26.6058 1.57591 -0.0167156 0
M  V30 262 C 27.5378 2.06343 0.997753 0
M  V30 263 C 28.5508 0.984469 1.29661 0
M  V30 264 O 29.7398 1.26093 1.26344 0
M  V30 265 C 26.8398 2.46255 2.32834 0
M  V30 266 C 26.0128 3.77083 2.21646 0
M  V30 267 C 25.0718 4.0368 3.37534 0
M  V30 268 O 24.0978 4.7411 3.14973 0
M  V30 269 N 25.2998 3.52881 4.60929 0
M  V30 270 H 28.0648 2.93997 0.581875 0
M  V30 271 H 25.6258 1.61002 0.170316 0
M  V30 272 H 27.6178 2.61149 3.09166 0
M  V30 273 H 26.1878 1.64032 2.66106 0
M  V30 274 H 25.4078 3.72106 1.30119 0
M  V30 275 H 26.6958 4.62822 2.11361 0
M  V30 276 H 26.0938 2.95878 4.82154 0
M  V30 277 H 24.6508 3.73076 5.34469 0
M  V30 278 N 28.0839 -0.256276 1.55502 0
M  V30 279 C 29.3319 -0.983672 1.76545 0
M  V30 280 C 29.6529 -1.86206 0.578982 0
M  V30 281 O 28.9229 -1.91656 -0.405577 0
M  V30 282 H 27.5029 -0.366191 0.651086 0
M  V30 283 H 30.1649 -0.276479 1.92929 0
M  V30 284 H 29.2609 -1.61087 2.67315 0
M  V30 285 N 29.562 -1.4872 -0.521534 0
M  V30 286 C 30.808 -1.574 -1.27879 0
M  V30 287 C 31.141 -0.250817 -1.92573 0
M  V30 288 O 30.416 0.743934 -1.79711 0
M  V30 289 C 30.699 -2.71843 -2.36164 0
M  V30 290 C 30.552 -4.13893 -1.76105 0
M  V30 291 C 31.871 -2.82008 -3.37875 0
M  V30 292 H 28.99 -0.572941 -0.463581 0
M  V30 293 H 31.632 -1.80927 -0.580119 0
M  V30 294 H 29.782 -2.51914 -2.95756 0
M  V30 295 H 31.454 -4.45284 -1.20499 0
M  V30 296 H 29.697 -4.20498 -1.06601 0
M  V30 297 H 30.368 -4.89804 -2.5455 0
M  V30 298 H 32.844 -3.00086 -2.88249 0
M  V30 299 H 31.72 -3.63796 -4.11028 0
M  V30 300 H 31.981 -1.90511 -3.98946 0
M  V30 301 N 31.0401 0.771051 -1.3745 0
M  V30 302 C 31.9701 1.89827 -1.3597 0
M  V30 303 C 32.9511 1.68562 -0.228216 0
M  V30 304 O 34.1361 1.8941 -0.428675 0
M  V30 305 C 31.2661 3.2712 -1.16662 0
M  V30 306 C 30.2201 3.6295 -2.2683 0
M  V30 307 C 29.5461 4.98791 -1.92644 0
M  V30 308 C 30.8461 3.69627 -3.69017 0
M  V30 309 H 32.5401 1.91323 -2.30295 0
M  V30 310 H 30.0861 0.919082 -1.10855 0
M  V30 311 H 32.0391 4.05615 -1.14256 0
M  V30 312 H 30.7631 3.26059 -0.187926 0
M  V30 313 H 29.4221 2.86763 -2.28392 0
M  V30 314 H 29.0701 4.94271 -0.933021 0
M  V30 315 H 28.7701 5.23733 -2.66416 0
M  V30 316 H 30.2941 5.79685 -1.91826 0
M  V30 317 H 31.7081 4.38273 -3.69581 0
M  V30 318 H 30.1051 4.06067 -4.41848 0
M  V30 319 H 31.1751 2.70273 -4.02592 0
M  V30 320 N 32.5182 1.22032 0.997298 0
M  V30 321 C 33.4662 0.983634 2.10778 0
M  V30 322 C 34.4602 -0.0717564 1.69248 0
M  V30 323 O 35.6662 0.080304 1.79821 0
M  V30 324 H 32.0412 0.300877 0.689186 0
M  V30 325 H 34.0122 1.92606 2.27916 0
M  V30 326 C 32.7612 0.57326 3.42942 0
M  V30 327 H 32.0842 1.37702 3.75338 0
M  V30 328 H 33.5242 0.447031 4.21637 0
M  V30 329 C 31.9832 -0.7167 3.29188 0
M  V30 330 O 32.5132 -1.77027 3.60589 0
M  V30 331 N 30.7192 -0.686167 2.82383 0
M  V30 332 H 30.2662 0.171507 2.57028 0
M  V30 333 H 30.2242 -1.54955 2.73562 0
M  V30 334 N 33.9963 -1.19345 1.0293 0
M  V30 335 C 34.9443 -2.24621 0.604001 0
M  V30 336 C 35.9383 -1.65452 -0.363587 0
M  V30 337 O 37.1443 -1.78497 -0.23212 0
M  V30 338 H 33.5193 -0.730858 0.177061 0
M  V30 339 H 35.4903 -2.5781 1.50255 0
M  V30 340 C 34.2393 -3.47688 -0.0289127 0
M  V30 341 H 33.5623 -3.93505 0.706651 0
M  V30 342 H 35.0023 -4.23011 -0.289432 0
M  V30 343 C 33.4613 -3.11817 -1.2756 0
M  V30 344 O 33.9913 -3.2451 -2.36762 0
M  V30 345 N 32.1973 -2.66246 -1.16453 0
M  V30 346 H 31.7443 -2.56118 -0.275914 0
M  V30 347 H 31.7023 -2.42617 -1.99961 0
M  V30 348 N 35.4744 -0.807222 -1.35358 0
M  V30 349 C 36.7224 -0.387122 -1.98358 0
M  V30 350 C 37.0434 1.04942 -1.64354 0
M  V30 351 O 36.3134 1.72615 -0.926339 0
M  V30 352 H 34.8934 -0.140154 -0.733734 0
M  V30 353 H 37.5554 -1.0332 -1.6526 0
M  V30 354 H 36.6514 -0.493352 -3.08176 0
M  V30 355 N 36.9525 1.47285 -0.560781 0
M  V30 356 C 38.1925 2.0436 -0.0404627 0
M  V30 357 C 38.5565 1.42534 1.28639 0
M  V30 358 O 39.7575 1.90677 1.89462 0
M  V30 359 C 38.0285 3.57369 0.0471856 0
M  V30 360 S 39.5875 4.3579 0.513109 0
M  V30 361 H 36.4055 0.710492 -0.0268674 0
M  V30 362 H 39.0075 1.80611 -0.748323 0
M  V30 363 H 37.7115 3.9989 -0.922817 0
M  V30 364 H 37.2425 3.8562 0.778491 0
M  V30 365 H 39.2575 4.63476 1.77212 0
M  V30 366 N 38.4306 0.297415 1.54768 0
M  V30 367 C 39.6776 -0.312913 2.00068 0
M  V30 368 C 40.0056 -1.54171 1.18582 0
M  V30 369 O 39.2606 -1.94108 0.249133 0
M  V30 370 C 39.5596 -0.717561 3.50123 0
M  V30 371 C 39.2256 0.409095 4.4904 0
M  V30 372 C 37.8876 0.718399 4.75807 0
M  V30 373 C 40.2396 1.16717 5.07963 0
M  V30 374 C 37.5676 1.78896 5.5876 0
M  V30 375 C 39.9196 2.22762 5.92081 0
M  V30 376 C 38.5836 2.54303 6.1716 0
M  V30 377 H 37.8536 -0.114503 0.7321 0
M  V30 378 H 40.5006 0.415767 1.86932 0
M  V30 379 H 38.8056 -1.52627 3.60849 0
M  V30 380 H 40.5026 -1.20091 3.82595 0
M  V30 381 H 37.0926 0.157918 4.28309 0
M  V30 382 H 41.2766 0.941466 4.87289 0
M  V30 383 H 36.5326 2.0381 5.7643 0
M  V30 384 H 40.7066 2.81962 6.36765 0
M  V30 385 H 38.3336 3.3739 6.81229 0
M  V30 386 N 39.9087 -1.5758 0.0250728 0
M  V30 387 C 41.1547 -1.91917 -0.655413 0
M  V30 388 C 41.4877 -0.901433 -1.72011 0
M  V30 389 O 40.7627 0.0764069 -1.9435 0
M  V30 390 C 41.0457 -3.36751 -1.27558 0
M  V30 391 C 40.8987 -4.49258 -0.220719 0
M  V30 392 C 42.2177 -3.81469 -2.19475 0
M  V30 393 H 39.3367 -0.697925 -0.23679 0
M  V30 394 H 41.9787 -1.89825 0.0815036 0
M  V30 395 H 40.1287 -3.38664 -1.90365 0
M  V30 396 H 41.8007 -4.59478 0.409601 0
M  V30 397 H 40.0437 -4.31415 0.454264 0
M  V30 398 H 40.7147 -5.47618 -0.694175 0
M  V30 399 H 43.1907 -3.81266 -1.66659 0
M  V30 400 H 42.0667 -4.83512 -2.59822 0
M  V30 401 H 42.3277 -3.16744 -3.08424 0
M  V30 402 N 41.3868 0.248026 -1.55636 0
M  V30 403 C 42.6638 0.998988 -1.68165 0
M  V30 404 C 43.0438 2.03409 -0.564621 0
M  V30 405 O 42.3918 2.24378 0.432076 0
M  V30 406 C 42.6018 1.63334 -3.0842 0
M  V30 407 C 43.9498 2.13562 -3.66983 0
M  V30 408 O 44.9738 1.73277 -3.11213 0
M  V30 409 O 43.8328 2.87526 -4.64749 0
M  V30 410 H 40.9268 0.464933 -0.683935 0
M  V30 411 H 43.4728 0.241902 -1.67967 0
M  V30 412 H 42.2448 0.884583 -3.8117 0
M  V30 413 H 41.8678 2.45666 -3.12624 0
M  V30 414 N 42.8649 1.48995 0.513639 0
M  V30 415 C 43.8279 1.64229 1.59879 0
M  V30 416 C 44.8279 0.514696 1.5234 0
M  V30 417 O 46.0179 0.78087 1.55718 0
M  V30 418 C 43.1499 1.62783 2.99524 0
M  V30 419 H 44.3429 2.61004 1.47705 0
M  V30 420 H 41.8959 1.37837 0.736936 0
M  V30 421 H 42.6309 0.675461 3.17188 0
M  V30 422 H 42.4159 2.4466 3.06404 0
M  V30 423 H 43.9059 1.76669 3.78388 0
M  V30 424 N 44.343 -0.763751 1.37857 0
M  V30 425 C 45.273 -1.89103 1.36975 0
M  V30 426 C 46.254 -1.68439 0.237152 0
M  V30 427 O 47.439 -1.8918 0.438713 0
M  V30 428 C 44.569 -3.26496 1.18395 0
M  V30 429 C 43.523 -3.61741 2.28751 0
M  V30 430 C 42.849 -4.97762 1.95286 0
M  V30 431 C 44.149 -3.67665 3.70972 0
M  V30 432 H 45.843 -1.90099 2.31307 0
M  V30 433 H 43.389 -0.91319 1.11341 0
M  V30 434 H 45.342 -4.05003 1.16406 0
M  V30 435 H 44.066 -3.25955 0.205215 0
M  V30 436 H 42.725 -2.85547 2.29909 0
M  V30 437 H 42.373 -4.93769 0.959221 0
M  V30 438 H 42.073 -5.22313 2.69189 0
M  V30 439 H 43.597 -5.7866 1.94898 0
M  V30 440 H 45.011 -4.36307 3.719 0
M  V30 441 H 43.408 -4.03718 4.43995 0
M  V30 442 H 44.478 -2.68134 4.0402 0
M  V30 443 N 45.8211 -1.22559 -0.990812 0
M  V30 444 C 46.7691 -0.994798 -2.10253 0
M  V30 445 C 47.7631 0.0627798 -1.69284 0
M  V30 446 O 48.9691 -0.0898392 -1.79776 0
M  V30 447 H 45.3441 -0.304527 -0.687581 0
M  V30 448 H 47.3151 -1.93812 -2.26891 0
M  V30 449 C 46.0641 -0.591439 -3.42633 0
M  V30 450 H 45.3871 -1.3969 -3.74602 0
M  V30 451 H 46.8271 -0.469385 -4.21394 0
M  V30 452 C 45.2861 0.699232 -3.29564 0
M  V30 453 O 45.8161 1.75112 -3.61523 0
M  V30 454 N 44.0221 0.671182 -2.82743 0
M  V30 455 H 43.5691 -0.185136 -2.56934 0
M  V30 456 H 43.5271 1.53502 -2.7438 0
M  V30 457 N 47.2992 1.18797 -1.03562 0
M  V30 458 C 48.5452 1.8893 -0.737113 0
M  V30 459 C 48.8782 1.79837 0.732956 0
M  V30 460 O 48.1532 1.19525 1.5344 0
M  V30 461 C 48.4362 3.39607 -1.19745 0
M  V30 462 C 48.2892 3.57537 -2.72924 0
M  V30 463 C 49.6082 4.33069 -0.783526 0
M  V30 464 H 46.7272 0.686057 -0.269249 0
M  V30 465 H 49.3692 1.39797 -1.28673 0
M  V30 466 H 47.5192 3.81583 -0.729855 0
M  V30 467 H 49.1912 3.24688 -3.27682 0
M  V30 468 H 47.4342 3.00363 -3.12993 0
M  V30 469 H 48.1052 4.63238 -3.00191 0
M  V30 470 H 50.5812 3.98846 -1.18581 0
M  V30 471 H 49.4572 5.3707 -1.13343 0
M  V30 472 H 49.7182 4.40986 0.313681 0
M  V30 473 N 48.7773 0.814389 1.34928 0
M  V30 474 C 50.0233 0.399013 1.98836 0
M  V30 475 C 50.3563 -1.03314 1.64438 0
M  V30 476 O 49.6313 -1.71811 0.911659 0
M  V30 477 C 49.9143 0.591629 3.55207 0
M  V30 478 C 49.7673 2.06928 3.99376 0
M  V30 479 C 51.0863 0.022199 4.40094 0
M  V30 480 H 48.2053 0.146451 0.722303 0
M  V30 481 H 50.8473 1.02537 1.59957 0
M  V30 482 H 48.9973 0.0584441 3.88456 0
M  V30 483 H 50.6693 2.66544 3.76499 0
M  V30 484 H 48.9123 2.56287 3.49999 0
M  V30 485 H 49.5833 2.1549 5.08201 0
M  V30 486 H 52.0593 0.477643 4.13349 0
M  V30 487 H 50.9353 0.186832 5.48582 0
M  V30 488 H 51.1963 -1.07215 4.28902 0
M  V30 489 N 50.2554 -1.46986 0.568584 0
M  V30 490 C 51.6664 -1.86188 0.138219 0
M  V30 491 C 52.0174 -1.47388 -1.29504 0
M  V30 492 O 51.1424 -0.88219 -1.97602 0
M  V30 493 C 51.7374 -3.3792 0.244065 0
M  V30 494 C 50.2964 -3.76171 -0.131335 0
M  V30 495 C 49.4434 -2.71027 0.586465 0
M  V30 496 H 52.3944 -1.38342 0.777645 0
M  V30 497 H 52.4154 -3.76729 -0.534351 0
M  V30 498 H 51.9274 -3.66128 1.28731 0
M  V30 499 H 50.0284 -3.5358 -1.17526 0
M  V30 500 H 50.1414 -4.78523 0.235146 0
M  V30 501 H 48.5054 -2.54684 0.0282722 0
M  V30 502 H 49.2884 -3.02077 1.63109 0
M  V30 503 N 51.7335 -0.305618 -1.54608 0
M  V30 504 C 52.6835 0.583595 -2.20405 0
M  V30 505 C 53.6675 1.09539 -1.17856 0
M  V30 506 O 54.8595 1.0354 -1.43557 0
M  V30 507 C 51.9885 1.75277 -2.95183 0
M  V30 508 C 51.0745 1.25672 -4.05052 0
M  V30 509 N 51.4655 0.478998 -5.03527 0
M  V30 510 C 49.7635 1.53704 -4.18678 0
M  V30 511 C 50.4645 0.214269 -5.81305 0
M  V30 512 N 49.4405 0.795374 -5.3775 0
M  V30 513 H 53.2425 -0.0180946 -2.93894 0
M  V30 514 H 50.7565 -0.110601 -1.62023 0
M  V30 515 H 52.7535 2.4014 -3.40791 0
M  V30 516 H 51.4135 2.35812 -2.23211 0
M  V30 517 H 52.4245 0.123473 -5.17753 0
M  V30 518 H 49.1015 2.14954 -3.57912 0
M  V30 519 H 50.4915 -0.410656 -6.70644 0
M  V30 520 N 53.2116 1.57565 -0.0334293 0
M  V30 521 C 54.4576 1.92262 0.645226 0
M  V30 522 C 54.7906 0.910543 1.71531 0
M  V30 523 O 54.0656 -0.066099 1.94388 0
M  V30 524 C 54.3486 3.37422 1.2577 0
M  V30 525 C 54.2016 4.49369 0.196891 0
M  V30 526 C 55.5206 3.82628 2.17449 0
M  V30 527 H 52.6396 0.699171 0.233085 0
M  V30 528 H 55.2816 1.89779 -0.0915694 0
M  V30 529 H 53.4316 3.39669 1.88566 0
M  V30 530 H 55.1036 4.59254 -0.433962 0
M  V30 531 H 53.3466 4.31168 -0.477137 0
M  V30 532 H 54.0176 5.47978 0.665124 0
M  V30 533 H 56.4936 3.82145 1.64634 0
M  V30 534 H 55.3696 4.84883 2.57254 0
M  V30 535 H 55.6306 3.18376 3.0674 0
M  V30 536 N 54.6897 -0.239769 1.55765 0
M  V30 537 C 55.9367 -0.966801 1.7793 0
M  V30 538 C 56.2647 -1.85046 0.599015 0
M  V30 539 O 55.5197 -1.91197 -0.417395 0
M  V30 540 C 55.8187 -1.852 3.05672 0
M  V30 541 C 55.4847 -1.1231 4.36689 0
M  V30 542 C 54.1467 -0.921689 4.72291 0
M  V30 543 C 56.4987 -0.607019 5.17653 0
M  V30 544 C 53.8267 -0.191996 5.86386 0
M  V30 545 C 56.1787 0.109241 6.32506 0
M  V30 546 C 54.8427 0.322073 6.66723 0
M  V30 547 H 54.1127 -0.353778 0.651093 0
M  V30 548 H 56.7597 -0.23634 1.90036 0
M  V30 549 H 55.0647 -2.64975 2.8861 0
M  V30 550 H 56.7617 -2.41635 3.20021 0
M  V30 551 H 53.3517 -1.29004 4.08725 0
M  V30 552 H 57.5357 -0.750153 4.90598 0
M  V30 553 H 52.7917 -0.0166949 6.11398 0
M  V30 554 H 56.9657 0.516737 6.9448 0
M  V30 555 H 54.5927 0.88944 7.54979 0
M  V30 556 N 56.1678 -1.49265 -0.50573 0
M  V30 557 C 57.0978 -1.68495 -1.61653 0
M  V30 558 C 58.0788 -0.53366 -1.61512 0
M  V30 559 O 59.2638 -0.76897 -1.78327 0
M  V30 560 C 56.3938 -1.74709 -3.00157 0
M  V30 561 C 55.3478 -2.89581 -3.15162 0
M  V30 562 C 54.6738 -2.80903 -4.5497 0
M  V30 563 C 55.9738 -4.30578 -2.95634 0
M  V30 564 H 57.6678 -2.61493 -1.45814 0
M  V30 565 H 55.2138 -1.25838 -0.70005 0
M  V30 566 H 57.1668 -1.86748 -3.77761 0
M  V30 567 H 55.8908 -0.783067 -3.17074 0
M  V30 568 H 54.5498 -2.77136 -2.39982 0
M  V30 569 H 54.1978 -1.82419 -4.68756 0
M  V30 570 H 53.8978 -3.57999 -4.65951 0
M  V30 571 H 55.4218 -2.94944 -5.34641 0
M  V30 572 H 56.8358 -4.4373 -3.63011 0
M  V30 573 H 55.2328 -5.0886 -3.18091 0
M  V30 574 H 56.3028 -4.45352 -1.91806 0
M  V30 575 N 57.6459 0.756429 -1.3826 0
M  V30 576 C 58.5759 1.88374 -1.37976 0
M  V30 577 C 59.5569 1.68311 -0.246082 0
M  V30 578 O 60.7419 1.88944 -0.44874 0
M  V30 579 C 57.8719 3.25864 -1.20125 0
M  V30 580 C 56.8259 3.60523 -2.30666 0
M  V30 581 C 56.1519 4.9672 -1.97923 0
M  V30 582 C 57.4519 3.65692 -3.72916 0
M  V30 583 H 59.1459 1.88869 -2.32312 0
M  V30 584 H 56.6919 0.907272 -1.11824 0
M  V30 585 H 58.6449 4.0438 -1.18552 0
M  V30 586 H 57.3689 3.25841 -0.222498 0
M  V30 587 H 56.0279 2.84324 -2.3142 0
M  V30 588 H 55.6759 4.93253 -0.985393 0
M  V30 589 H 55.3759 5.20878 -2.71955 0
M  V30 590 H 56.8999 5.77618 -1.97964 0
M  V30 591 H 58.3139 4.34328 -3.74208 0
M  V30 592 H 56.7109 4.01358 -4.4613 0
M  V30 593 H 57.7809 2.65987 -4.05436 0
M  V30 594 N 59.124 1.23083 0.984299 0
M  V30 595 C 60.371 1.06057 1.72505 0
M  V30 596 C 60.699 -0.403105 1.90277 0
M  V30 597 O 59.954 -1.3149 1.44944 0
M  V30 598 C 60.253 1.72673 3.1292 0
M  V30 599 C 59.919 3.22586 3.15038 0
M  V30 600 C 58.581 3.63489 3.15324 0
M  V30 601 C 60.933 4.185 3.10657 0
M  V30 602 C 58.261 4.98772 3.08939 0
M  V30 603 C 60.613 5.53769 3.05814 0
M  V30 604 C 59.277 5.94041 3.04419 0
M  V30 605 H 58.547 0.388091 0.631242 0
M  V30 606 H 61.194 1.52963 1.15215 0
M  V30 607 H 59.499 1.18116 3.73572 0
M  V30 608 H 61.196 1.56982 3.68996 0
M  V30 609 H 57.786 2.90022 3.15571 0
M  V30 610 H 61.97 3.87911 3.09579 0
M  V30 611 H 57.226 5.29193 3.0621 0
M  V30 612 H 61.4 6.27808 3.0138 0
M  V30 613 H 59.027 6.98833 2.99227 0
M  V30 614 N 60.6021 -1.18246 1.0419 0
M  V30 615 C 61.8511 -1.87588 0.741194 0
M  V30 616 C 62.1641 -1.81303 -0.734066 0
M  V30 617 O 63.3701 -2.46019 -1.14834 0
M  V30 618 C 61.8261 -3.36538 1.27555 0
M  V30 619 C 61.4341 -3.51349 2.77953 0
M  V30 620 C 63.1781 -4.11273 1.05143 0
M  V30 621 C 61.0851 -4.94265 3.2474 0
M  V30 622 H 60.0151 -0.702622 0.273565 0
M  V30 623 H 62.6661 -1.33601 1.25789 0
M  V30 624 H 61.0481 -3.9 0.686703 0
M  V30 625 H 62.2221 -3.08153 3.42605 0
M  V30 626 H 60.5371 -2.90022 2.98791 0
M  V30 627 H 63.1341 -5.16689 1.37611 0
M  V30 628 H 63.4771 -4.16298 -0.0112774 0
M  V30 629 H 64.0101 -3.63987 1.60495 0
M  V30 630 H 60.7491 -4.94408 4.30396 0
M  V30 631 H 60.2691 -5.38172 2.64823 0
M  V30 632 H 61.9481 -5.62987 3.18834 0
M  V30 633 N 62.0802 -0.821533 -1.34494 0
M  V30 634 C 63.3082 -0.421884 -2.02553 0
M  V30 635 C 63.7232 0.971745 -1.61872 0
M  V30 636 O 63.0802 1.62864 -0.823496 0
M  V30 637 C 63.1312 -0.51285 -3.57844 0
M  V30 638 O 62.8522 -1.85155 -3.97051 0
M  V30 639 C 64.3532 -0.107921 -4.43169 0
M  V30 640 H 61.5732 -0.169482 -0.649243 0
M  V30 641 H 64.1172 -1.1093 -1.71798 0
M  V30 642 H 62.2722 0.126474 -3.87193 0
M  V30 643 H 62.6862 -1.82482 -4.91732 0
M  V30 644 H 64.1602 -0.222657 -5.51551 0
M  V30 645 H 64.6372 0.948401 -4.28838 0
M  V30 646 H 65.2432 -0.720989 -4.19144 0
M  V30 647 N 63.5583 1.46682 -0.576371 0
M  V30 648 C 64.8053 2.02412 -0.0595339 0
M  V30 649 C 65.1333 1.44859 1.29793 0
M  V30 650 O 64.3883 0.601099 1.8624 0
M  V30 651 C 64.6873 3.57345 0.062886 0
M  V30 652 C 64.3533 4.33908 -1.22616 0
M  V30 653 C 63.0153 4.54544 -1.57933 0
M  V30 654 C 65.3673 4.77919 -2.07948 0
M  V30 655 C 62.6953 5.16444 -2.78393 0
M  V30 656 C 65.0473 5.41149 -3.27629 0
M  V30 657 C 63.7113 5.60014 -3.63236 0
M  V30 658 H 62.9813 0.74068 -0.021785 0
M  V30 659 H 65.6283 1.76128 -0.751735 0
M  V30 660 H 63.9333 3.82729 0.838178 0
M  V30 661 H 65.6303 3.98136 0.478439 0
M  V30 662 H 62.2203 4.18138 -0.941202 0
M  V30 663 H 66.4043 4.61738 -1.81967 0
M  V30 664 H 61.6603 5.29242 -3.06126 0
M  V30 665 H 65.8343 5.74211 -3.94023 0
M  V30 666 H 63.4613 6.07748 -4.56669 0
M  V30 667 N 65.0364 0.313813 1.54444 0
M  V30 668 C 66.4474 -0.176243 1.85866 0
M  V30 669 C 66.7984 -1.52405 1.23561 0
M  V30 670 O 65.9234 -2.09605 0.538016 0
M  V30 671 C 66.5184 -0.32657 3.37222 0
M  V30 672 C 65.0774 -0.760846 3.6863 0
M  V30 673 C 64.2244 0.123247 2.77026 0
M  V30 674 H 67.1754 0.534418 1.49431 0
M  V30 675 H 67.1964 -1.15908 3.62416 0
M  V30 676 H 66.7084 0.654531 3.82541 0
M  V30 677 H 64.8094 -1.75204 3.28838 0
M  V30 678 H 64.9224 -0.571353 4.75681 0
M  V30 679 H 63.2864 -0.399597 2.51546 0
M  V30 680 H 64.0694 1.10094 3.25168 0
M  V30 681 N 66.5145 -1.57545 0.0417849 0
M  V30 682 C 67.7635 -1.91494 -0.633492 0
M  V30 683 C 68.0765 -0.921084 -1.72556 0
M  V30 684 O 69.2825 -1.15228 -2.45835 0
M  V30 685 C 67.7385 -3.40072 -1.17808 0
M  V30 686 C 67.3465 -4.47843 -0.118633 0
M  V30 687 C 69.0905 -3.8307 -1.82915 0
M  V30 688 C 66.9975 -5.87529 -0.675578 0
M  V30 689 H 65.9275 -0.714653 -0.24039 0
M  V30 690 H 68.5785 -1.83175 0.109148 0
M  V30 691 H 66.9605 -3.43364 -1.97274 0
M  V30 692 H 68.1345 -4.56128 0.654494 0
M  V30 693 H 66.4495 -4.14128 0.434414 0
M  V30 694 H 69.0465 -4.84794 -2.25563 0
M  V30 695 H 69.3895 -3.1881 -2.67705 0
M  V30 696 H 69.9225 -3.82255 -1.10119 0
M  V30 697 H 66.6615 -6.55362 0.134475 0
M  V30 698 H 66.1815 -5.82824 -1.4169 0
M  V30 699 H 67.8605 -6.36491 -1.1614 0
M  V30 700 N 67.9926 0.231505 -1.5589 0
M  V30 701 C 68.9226 1.29022 -1.94617 0
M  V30 702 C 69.9036 1.4941 -0.813067 0
M  V30 703 O 71.0886 1.6176 -1.07459 0
M  V30 704 C 68.2186 2.64199 -2.25424 0
M  V30 705 C 67.1726 2.58484 -3.41131 0
M  V30 706 C 66.4986 3.97599 -3.57518 0
M  V30 707 C 67.7986 2.1413 -4.76388 0
M  V30 708 H 69.4926 0.968563 -2.83301 0
M  V30 709 H 67.0386 0.464479 -1.36303 0
M  V30 710 H 68.9916 3.38413 -2.51107 0
M  V30 711 H 67.7156 2.98032 -1.33583 0
M  V30 712 H 66.3746 1.86727 -3.15481 0
M  V30 713 H 66.0226 4.28723 -2.6307 0
M  V30 714 H 65.7226 3.94659 -4.35337 0
M  V30 715 H 67.2466 4.7349 -3.85538 0
M  V30 716 H 68.6606 2.78083 -5.01341 0
M  V30 717 H 67.0576 2.2227 -5.57419 0
M  V30 718 H 68.1276 1.09331 -4.72414 0
M  V30 719 N 69.4707 1.49531 0.497807 0
M  V30 720 C 70.7177 1.59179 1.25173 0
M  V30 721 C 71.0457 0.279932 1.92475 0
M  V30 722 O 70.3007 -0.732383 1.81479 0
M  V30 723 C 70.5997 2.70252 2.33878 0
M  V30 724 C 70.2657 4.11644 1.84012 0
M  V30 725 C 68.9277 4.50121 1.70132 0
M  V30 726 C 71.2797 5.00121 1.46725 0
M  V30 727 C 68.6077 5.74845 1.17348 0
M  V30 728 C 70.9597 6.25366 0.95392 0
M  V30 729 C 69.6237 6.6267 0.801538 0
M  V30 730 H 68.8937 0.582478 0.45804 0
M  V30 731 H 71.5407 1.83373 0.551948 0
M  V30 732 H 69.8457 2.40041 3.09657 0
M  V30 733 H 71.5427 2.74925 2.9192 0
M  V30 734 H 68.1327 3.81274 1.95775 0
M  V30 735 H 72.3167 4.71048 1.56294 0
M  V30 736 H 67.5727 6.02444 1.04264 0
M  V30 737 H 71.7467 6.93301 0.656225 0
M  V30 738 H 69.3737 7.59197 0.390351 0
M  V30 739 N 70.9488 -0.749086 1.3866 0
M  V30 740 C 72.1978 -1.50371 1.3443 0
M  V30 741 C 72.5108 -1.95503 -0.0616397 0
M  V30 742 O 73.7168 -2.70554 -0.226489 0
M  V30 743 C 72.1728 -2.71644 2.36088 0
M  V30 744 C 71.7808 -2.3352 3.82325 0
M  V30 745 C 73.5248 -3.49518 2.40909 0
M  V30 746 C 71.4318 -3.51431 4.75658 0
M  V30 747 H 70.3618 -0.564628 0.499712 0
M  V30 748 H 73.0128 -0.818449 1.64237 0
M  V30 749 H 71.3948 -3.42175 1.9933 0
M  V30 750 H 72.5688 -1.70627 4.28046 0
M  V30 751 H 70.8838 -1.6877 3.80665 0
M  V30 752 H 73.4808 -4.37197 3.07836 0
M  V30 753 H 73.8238 -3.90992 1.42937 0
M  V30 754 H 74.3568 -2.86005 2.76489 0
M  V30 755 H 71.0958 -3.15019 5.74842 0
M  V30 756 H 70.6158 -4.13352 4.34627 0
M  V30 757 H 72.2948 -4.17953 4.93887 0
M  V30 758 N 72.4269 -1.23603 -0.977757 0
M  V30 759 C 73.6749 -1.06759 -1.71601 0
M  V30 760 C 73.9959 0.395929 -1.90938 0
M  V30 761 O 73.2659 1.28356 -1.47992 0
M  V30 762 H 71.8459 -0.392062 -0.635843 0
M  V30 763 H 74.5079 -1.55362 -1.1768 0
M  V30 764 H 73.6039 -1.55763 -2.70452 0
M  V30 765 N 73.905 1.17692 -1.04816 0
M  V30 766 C 75.151 1.88389 -0.766892 0
M  V30 767 C 75.506 1.79282 0.698269 0
M  V30 768 O 74.799 1.18739 1.50372 0
M  V30 769 C 74.993 3.37462 -1.17703 0
M  V30 770 C 74.822 3.6108 -2.68051 0
M  V30 771 C 73.592 3.78018 -3.35307 0
M  V30 772 C 75.79 3.61039 -3.66273 0
M  V30 773 N 73.772 3.89444 -4.74559 0
M  V30 774 C 75.143 3.78269 -4.91235 0
M  V30 775 C 77.198 3.44168 -3.59796 0
M  V30 776 C 75.901 3.80376 -6.10497 0
M  V30 777 C 77.927 3.4756 -4.78493 0
M  V30 778 C 77.289 3.65295 -6.02278 0
M  V30 779 H 73.388 0.707651 -0.332798 0
M  V30 780 H 75.972 1.41314 -1.33934 0
M  V30 781 H 74.143 3.83214 -0.63257 0
M  V30 782 H 75.875 3.95759 -0.845989 0
M  V30 783 H 72.63 3.77714 -2.85708 0
M  V30 784 H 73.054 3.98962 -5.46954 0
M  V30 785 H 77.696 3.29396 -2.65062 0
M  V30 786 H 75.414 3.93933 -7.05579 0
M  V30 787 H 79 3.3577 -4.75131 0
M  V30 788 H 77.88 3.6782 -6.92588 0
M  V30 789 N 75.3831 0.828654 1.34056 0
M  V30 790 C 76.6311 0.41863 1.97717 0
M  V30 791 C 76.9521 -1.02314 1.66002 0
M  V30 792 O 76.2221 -1.71119 0.953683 0
M  V30 793 H 74.8021 0.151809 0.731412 0
M  V30 794 H 77.4641 1.05936 1.63596 0
M  V30 795 H 76.5601 0.542318 3.07352 0
M  V30 796 N 76.8612 -1.46375 0.584142 0
M  V30 797 C 78.0862 -2.07268 0.0740405 0
M  V30 798 C 78.5112 -1.42979 -1.22223 0
M  V30 799 O 77.8692 -0.514092 -1.73859 0
M  V30 800 C 77.9172 -3.60518 -0.0767769 0
M  V30 801 O 77.0212 -3.96533 -1.13292 0
M  V30 802 H 76.3622 -0.660961 0.0634524 0
M  V30 803 H 78.8922 -1.87991 0.807492 0
M  V30 804 H 78.9022 -4.07021 -0.282489 0
M  V30 805 H 77.5772 -4.06702 0.86986 0
M  V30 806 H 76.1542 -3.61738 -0.905553 0
M  V30 807 N 78.3393 -0.321999 -1.54275 0
M  V30 808 C 79.2713 0.578671 -2.21775 0
M  V30 809 C 80.2843 1.08109 -1.21722 0
M  V30 810 O 81.4733 0.994938 -1.482 0
M  V30 811 C 78.5733 1.80661 -2.86731 0
M  V30 812 C 77.7463 1.44314 -4.12907 0
M  V30 813 C 76.8053 2.52845 -4.61472 0
M  V30 814 O 75.8313 2.17054 -5.2619 0
M  V30 815 N 77.0333 3.83748 -4.35566 0
M  V30 816 H 79.7983 0.000709447 -2.997 0
M  V30 817 H 77.3593 -0.145132 -1.61248 0
M  V30 818 H 79.3513 2.52655 -3.16145 0
M  V30 819 H 77.9213 2.29245 -2.12521 0
M  V30 820 H 77.1413 0.554906 -3.90275 0
M  V30 821 H 78.4293 1.17598 -4.95023 0
M  V30 822 H 77.8273 4.15625 -3.83761 0
M  V30 823 H 76.3843 4.51977 -4.69638 0
M  V30 824 N 79.8174 1.5752 -0.0501392 0
M  V30 825 C 81.0424 1.97376 0.636997 0
M  V30 826 C 81.4674 0.927466 1.63645 0
M  V30 827 O 80.8254 -0.10941 1.8097 0
M  V30 828 C 80.8734 3.36304 1.30123 0
M  V30 829 O 79.9774 3.34156 2.41689 0
M  V30 830 H 79.3184 0.642998 0.165679 0
M  V30 831 H 81.8484 2.04258 -0.118233 0
M  V30 832 H 81.8584 3.73008 1.65315 0
M  V30 833 H 80.5334 4.11993 0.568746 0
M  V30 834 H 79.1104 3.09196 2.08451 0
M  V30 835 N 81.2955 -0.223234 1.56011 0
M  V30 836 C 82.5205 -0.968978 1.83373 0
M  V30 837 C 82.9455 -1.77227 0.630254 0
M  V30 838 O 82.3035 -1.76345 -0.420959 0
M  V30 839 C 82.3515 -1.86363 3.08709 0
M  V30 840 O 81.4555 -2.95873 2.87285 0
M  V30 841 H 80.7965 -0.274461 0.604622 0
M  V30 842 H 83.3265 -0.237056 2.03222 0
M  V30 843 H 83.3365 -2.27376 3.38768 0
M  V30 844 H 82.0115 -1.27319 3.95933 0
M  V30 845 H 80.5885 -2.58818 2.68454 0
M  V30 846 N 82.7736 -1.49793 -0.48987 0
M  V30 847 C 83.7206 -1.67281 -1.59014 0
M  V30 848 C 84.6906 -0.514177 -1.57941 0
M  V30 849 O 85.8756 -0.742533 -1.75759 0
M  V30 850 C 83.0156 -1.75569 -2.97102 0
M  V30 851 C 82.1286 -3.0281 -3.08107 0
M  V30 852 C 81.2636 -3.02008 -4.36995 0
M  V30 853 C 80.3026 -4.23782 -4.41673 0
M  V30 854 N 79.4396 -4.20826 -5.62005 0
M  V30 855 H 84.2796 -2.61224 -1.43409 0
M  V30 856 H 81.8166 -1.29508 -0.697565 0
M  V30 857 H 83.7746 -1.78354 -3.77155 0
M  V30 858 H 82.4046 -0.850827 -3.11385 0
M  V30 859 H 81.4566 -3.09584 -2.21047 0
M  V30 860 H 82.7686 -3.92801 -3.07423 0
M  V30 861 H 81.9226 -3.03418 -5.25378 0
M  V30 862 H 80.6616 -2.09815 -4.4026 0
M  V30 863 H 79.6666 -4.22604 -3.5169 0
M  V30 864 H 80.8916 -5.17181 -4.40115 0
M  V30 865 H 78.8376 -3.31476 -5.66091 0
M  V30 866 H 78.7546 -5.04564 -5.62984 0
M  V30 867 H 80.0226 -4.26355 -6.52565 0
M  V30 868 N 84.2517 0.741722 -1.39055 0
M  V30 869 C 85.4977 1.50336 -1.36113 0
M  V30 870 C 85.8307 1.94148 0.0450796 0
M  V30 871 O 85.1057 1.66301 1.00868 0
M  V30 872 C 85.3887 2.74773 -2.32749 0
M  V30 873 C 85.2417 2.37023 -3.82283 0
M  V30 874 C 86.5607 3.76846 -2.27322 0
M  V30 875 H 83.6797 0.545351 -0.495743 0
M  V30 876 H 86.3217 0.848624 -1.69995 0
M  V30 877 H 84.4717 3.30639 -2.03986 0
M  V30 878 H 86.1437 1.8684 -4.21768 0
M  V30 879 H 84.3867 1.69334 -3.99385 0
M  V30 880 H 85.0577 3.26104 -4.45376 0
M  V30 881 H 87.5337 3.30548 -2.5274 0
M  V30 882 H 86.4097 4.6159 -2.97028 0
M  V30 883 H 86.6707 4.23286 -1.27599 0
M  V30 884 N 85.7298 1.2412 0.971189 0
M  V30 885 C 86.6798 0.997551 2.05019 0
M  V30 886 C 87.6638 -0.0597747 1.60789 0
M  V30 887 O 88.8558 0.153516 1.76333 0
M  V30 888 C 85.9848 0.600557 3.38006 0
M  V30 889 C 85.0708 1.69377 3.88809 0
M  V30 890 N 85.4618 2.92586 4.12586 0
M  V30 891 C 83.7598 1.57048 4.17435 0
M  V30 892 C 84.4608 3.63431 4.54195 0
M  V30 893 N 83.4368 2.90979 4.59165 0
M  V30 894 H 87.2388 1.93316 2.21374 0
M  V30 895 H 84.7528 1.14194 1.1547 0
M  V30 896 H 86.7498 0.40725 4.14906 0
M  V30 897 H 85.4098 -0.327903 3.2304 0
M  V30 898 H 86.4208 3.288 4.00139 0
M  V30 899 H 83.0978 0.709798 4.11422 0
M  V30 900 H 84.4878 4.69102 4.81033 0
M  V30 901 N 87.2079 -1.17134 1.05439 0
M  V30 902 C 88.4569 -1.86791 0.761049 0
M  V30 903 C 88.7699 -1.82072 -0.714795 0
M  V30 904 O 89.9759 -2.47223 -1.12218 0
M  V30 905 C 88.4319 -3.35166 1.31117 0
M  V30 906 C 88.0399 -3.48381 2.81664 0
M  V30 907 C 89.7839 -4.10134 1.09499 0
M  V30 908 C 87.6909 -4.90793 3.29964 0
M  V30 909 H 86.6209 -0.699681 0.281002 0
M  V30 910 H 89.2719 -1.3226 1.27199 0
M  V30 911 H 87.6539 -3.8925 0.72803 0
M  V30 912 H 88.8279 -3.04502 3.45855 0
M  V30 913 H 87.1429 -2.86836 3.01851 0
M  V30 914 H 89.7399 -5.152 1.43084 0
M  V30 915 H 90.0829 -4.16287 0.0328772 0
M  V30 916 H 90.6159 -3.62264 1.64346 0
M  V30 917 H 87.3549 -4.89816 4.35616 0
M  V30 918 H 86.8749 -5.35333 2.70516 0
M  V30 919 H 88.5539 -5.59573 3.24787 0
M  V30 920 N 88.686 -0.835752 -1.33615 0
M  V30 921 C 89.636 -0.238856 -2.26745 0
M  V30 922 C 90.62 0.604343 -1.49119 0
M  V30 923 O 91.812 0.456822 -1.71003 0
M  V30 924 C 88.941 0.587725 -3.38232 0
M  V30 925 C 88.027 -0.266811 -4.2326 0
M  V30 926 N 88.418 -1.34403 -4.87616 0
M  V30 927 C 86.716 -0.0533131 -4.45968 0
M  V30 928 C 87.417 -1.86819 -5.50884 0
M  V30 929 N 86.393 -1.17013 -5.30857 0
M  V30 930 H 90.195 -1.06266 -2.74016 0
M  V30 931 H 87.709 -0.679881 -1.47483 0
M  V30 932 H 89.706 1.03161 -4.03935 0
M  V30 933 H 88.366 1.40954 -2.9251 0
M  V30 934 H 89.377 -1.7269 -4.88261 0
M  V30 935 H 86.054 0.735312 -4.10974 0
M  V30 936 H 87.444 -2.7701 -6.1214 0
M  V30 937 N 90.1641 1.46063 -0.591896 0
M  V30 938 C 91.1141 2.27458 0.157172 0
M  V30 939 C 92.0981 1.3641 0.853301 0
M  V30 940 O 93.2901 1.60517 0.74588 0
M  V30 941 C 90.4191 3.22956 1.16423 0
M  V30 942 C 89.5051 4.2149 0.469742 0
M  V30 943 N 89.8961 5.03519 -0.479839 0
M  V30 944 C 88.1941 4.40161 0.719319 0
M  V30 945 C 88.8951 5.74904 -0.886591 0
M  V30 946 N 87.8711 5.43097 -0.233731 0
M  V30 947 H 91.6731 2.88272 -0.572392 0
M  V30 948 H 89.1871 1.57024 -0.414375 0
M  V30 949 H 91.1841 3.79986 1.71513 0
M  V30 950 H 89.8441 2.63701 1.89451 0
M  V30 951 H 90.8551 5.1078 -0.855823 0
M  V30 952 H 87.5321 3.92046 1.43548 0
M  V30 953 H 88.9221 6.50844 -1.66888 0
M  V30 954 N 91.6422 0.330177 1.54103 0
M  V30 955 C 92.8672 -0.274893 2.0557 0
M  V30 956 C 93.2922 -1.44487 1.20437 0
M  V30 957 O 92.6502 -1.80021 0.214991 0
M  V30 958 C 92.6982 -0.68079 3.54115 0
M  V30 959 O 91.8022 -1.7824 3.71893 0
M  V30 960 H 91.1432 -0.0483849 0.662235 0
M  V30 961 H 93.6732 0.480508 1.98878 0
M  V30 962 H 93.6832 -0.961635 3.96505 0
M  V30 963 H 92.3582 0.174903 4.15532 0
M  V30 964 H 90.9352 -1.49985 3.41407 0
M  V30 965 N 93.1203 -1.57491 0.0584922 0
M  V30 966 C 94.3483 -1.97296 -0.623037 0
M  V30 967 C 94.7633 -0.936338 -1.63946 0
M  V30 968 O 94.1203 0.0785981 -1.82331 0
M  V30 969 C 94.1713 -3.37183 -1.30345 0
M  V30 970 O 93.8923 -4.36872 -0.32773 0
M  V30 971 C 95.3933 -3.91788 -2.07406 0
M  V30 972 H 92.6133 -0.649153 -0.169826 0
M  V30 973 H 95.1573 -2.04106 0.12696 0
M  V30 974 H 93.3123 -3.31502 -2.00463 0
M  V30 975 H 93.7263 -5.18141 -0.814269 0
M  V30 976 H 95.2003 -4.91926 -2.50425 0
M  V30 977 H 95.6773 -3.27609 -2.92521 0
M  V30 978 H 96.2833 -4.00829 -1.42184 0
M  V30 979 N 94.5984 0.214957 -1.56127 0
M  V30 980 C 95.8444 0.935325 -1.80619 0
M  V30 981 C 96.1994 1.81706 -0.632507 0
M  V30 982 O 95.4924 1.87931 0.373182 0
M  V30 983 C 95.6864 1.80314 -3.0858 0
M  V30 984 C 95.5154 1.00691 -4.38282 0
M  V30 985 C 94.2854 0.699211 -5.00439 0
M  V30 986 C 96.4834 0.369057 -5.12974 0
M  V30 987 N 94.4654 -0.117734 -6.13787 0
M  V30 988 C 95.8364 -0.310981 -6.1922 0
M  V30 989 C 97.8914 0.282759 -4.97096 0
M  V30 990 C 96.5944 -1.06907 -7.11311 0
M  V30 991 C 98.6204 -0.461881 -5.89594 0
M  V30 992 C 97.9824 -1.13044 -6.9527 0
M  V30 993 H 94.0814 0.322307 -0.71249 0
M  V30 994 H 96.6654 0.205649 -1.93611 0
M  V30 995 H 94.8364 2.50458 -2.96859 0
M  V30 996 H 96.5684 2.46148 -3.21237 0
M  V30 997 H 93.3234 1.01884 -4.62511 0
M  V30 998 H 93.7474 -0.515235 -6.75037 0
M  V30 999 H 98.3894 0.785292 -4.15443 0
M  V30 1000 H 96.1074 -1.5831 -7.92442 0
M  V30 1001 H 99.6934 -0.529746 -5.79383 0
M  V30 1002 H 98.5734 -1.69742 -7.65609 0
M  V30 1003 N 96.0765 1.50051 0.48192 0
M  V30 1004 C 97.0065 1.71046 1.58951 0
M  V30 1005 C 97.9875 0.559288 1.60642 0
M  V30 1006 O 99.1725 0.797243 1.77081 0
M  V30 1007 C 96.3025 1.79462 2.97339 0
M  V30 1008 C 95.2565 2.94558 3.10515 0
M  V30 1009 C 94.5825 2.88105 4.50444 0
M  V30 1010 C 95.8825 4.35227 2.88747 0
M  V30 1011 H 97.5765 2.6378 1.41635 0
M  V30 1012 H 95.1225 1.26936 0.679942 0
M  V30 1013 H 97.0755 1.92734 3.74742 0
M  V30 1014 H 95.7995 0.833412 3.15788 0
M  V30 1015 H 94.4585 2.80918 2.35543 0
M  V30 1016 H 94.1065 1.89853 4.65795 0
M  V30 1017 H 93.8065 3.65366 4.60197 0
M  V30 1018 H 95.3305 3.03412 5.29881 0
M  V30 1019 H 96.7445 4.49449 3.55905 0
M  V30 1020 H 95.1415 5.13856 3.09955 0
M  V30 1021 H 96.2115 4.48347 1.84696 0
M  V30 1022 N 97.5546 -0.734337 1.39446 0
M  V30 1023 C 98.5046 -1.83949 1.34709 0
M  V30 1024 C 99.4886 -1.59279 0.227851 0
M  V30 1025 O 100.681 -1.70771 0.465438 0
M  V30 1026 C 97.8096 -3.21884 1.19356 0
M  V30 1027 C 96.8956 -3.52381 2.35984 0
M  V30 1028 N 97.2866 -3.53811 3.61457 0
M  V30 1029 C 95.5846 -3.82747 2.28956 0
M  V30 1030 C 96.2856 -3.82122 4.38586 0
M  V30 1031 N 95.2616 -3.9993 3.68181 0
M  V30 1032 H 99.0636 -1.83361 2.29687 0
M  V30 1033 H 96.5776 -0.932609 1.32952 0
M  V30 1034 H 98.5746 -4.00998 1.14046 0
M  V30 1035 H 97.2346 -3.23711 0.253295 0
M  V30 1036 H 98.2456 -3.35107 3.94872 0
M  V30 1037 H 94.9226 -3.92175 1.43194 0
M  V30 1038 H 96.3126 -3.89691 5.47349 0
M  V30 1039 N 99.0327 -1.24633 -0.964593 0
M  V30 1040 C 100.28 -1.08788 -1.70796 0
M  V30 1041 C 100.608 0.372783 -1.90894 0
M  V30 1042 O 99.8627 1.29167 -1.47018 0
M  V30 1043 C 100.162 -1.7763 -3.10133 0
M  V30 1044 C 99.8277 -3.27557 -3.09866 0
M  V30 1045 C 98.4897 -3.6846 -3.09501 0
M  V30 1046 C 100.842 -4.23389 -3.03959 0
M  V30 1047 C 98.1697 -5.03624 -3.00965 0
M  V30 1048 C 100.522 -5.58565 -2.96965 0
M  V30 1049 C 99.1857 -5.98809 -2.9493 0
M  V30 1050 H 98.4557 -0.398084 -0.624988 0
M  V30 1051 H 101.103 -1.54777 -1.12767 0
M  V30 1052 H 99.4077 -1.24044 -3.71645 0
M  V30 1053 H 101.105 -1.62832 -3.66451 0
M  V30 1054 H 97.6947 -2.95006 -3.10917 0
M  V30 1055 H 101.879 -3.92787 -3.03368 0
M  V30 1056 H 97.1347 -5.33998 -2.97752 0
M  V30 1057 H 101.309 -6.32523 -2.91354 0
M  V30 1058 H 98.9357 -7.03505 -2.88071 0
M  V30 1059 N 100.511 1.16574 -1.06058 0
M  V30 1060 C 101.922 1.68662 -0.800632 0
M  V30 1061 C 102.273 1.84184 0.67608 0
M  V30 1062 O 101.398 1.53568 1.52466 0
M  V30 1063 C 101.993 3.06356 -1.44676 0
M  V30 1064 C 100.552 3.55575 -1.23465 0
M  V30 1065 C 99.6988 2.31616 -1.52477 0
M  V30 1066 H 102.65 1.00969 -1.22438 0
M  V30 1067 H 102.671 3.70636 -0.860788 0
M  V30 1068 H 102.183 2.95027 -2.52152 0
M  V30 1069 H 100.284 3.72167 -0.179527 0
M  V30 1070 H 100.397 4.37812 -1.94571 0
M  V30 1071 H 98.7608 2.36512 -0.945209 0
M  V30 1072 H 99.5438 2.22887 -2.61106 0
M  V30 1073 N 101.989 0.842826 1.3317 0
M  V30 1074 C 103.237 0.439577 1.97262 0
M  V30 1075 C 103.558 -1.00548 1.67078 0
M  V30 1076 O 102.828 -1.70098 0.971779 0
M  V30 1077 H 101.408 0.159558 0.72976 0
M  V30 1078 H 104.07 1.07665 1.62463 0
M  V30 1079 H 103.166 0.574886 3.0676 0
M  V30 1080 N 103.467 -1.45747 0.599634 0
M  V30 1081 C 104.417 -2.27538 -0.145107 0
M  V30 1082 C 105.401 -1.3686 -0.846055 0
M  V30 1083 O 106.593 -1.6091 -0.737357 0
M  V30 1084 C 103.722 -3.23569 -1.14708 0
M  V30 1085 C 102.808 -4.21734 -0.447383 0
M  V30 1086 N 103.199 -5.03257 0.506535 0
M  V30 1087 C 101.497 -4.40536 -0.695966 0
M  V30 1088 C 102.198 -5.74426 0.917068 0
M  V30 1089 N 101.174 -5.42966 0.26253 0
M  V30 1090 H 104.976 -2.87965 0.587672 0
M  V30 1091 H 102.49 -1.56803 0.422697 0
M  V30 1092 H 104.487 -3.8089 -1.69495 0
M  V30 1093 H 103.147 -2.64702 -1.8805 0
M  V30 1094 H 104.158 -5.10319 0.882899 0
M  V30 1095 H 100.835 -3.92802 -1.41467 0
M  V30 1096 H 102.225 -6.4995 1.70338 0
M  V30 1097 N 104.945 -0.338344 -1.53925 0
M  V30 1098 C 105.893 0.536231 -2.26335 0
M  V30 1099 C 106.887 1.1063 -1.28286 0
M  V30 1100 O 108.093 1.05264 -1.46012 0
M  V30 1101 H 104.468 0.191602 -0.727181 0
M  V30 1102 H 106.439 -0.0965747 -2.98244 0
M  V30 1103 C 105.188 1.67803 -3.04528 0
M  V30 1104 H 104.511 1.24864 -3.79801 0
M  V30 1105 H 105.951 2.26526 -3.58416 0
M  V30 1106 C 104.41 2.60439 -2.13712 0
M  V30 1107 O 104.94 3.6255 -1.72975 0
M  V30 1108 N 103.146 2.29006 -1.78898 0
M  V30 1109 H 102.693 1.46011 -2.12223 0
M  V30 1110 H 102.651 2.91248 -1.18416 0
M  V30 1111 N 106.423 1.57458 -0.0668435 0
M  V30 1112 C 107.353 2.15468 0.899764 0
M  V30 1113 C 108.334 1.08042 1.31381 0
M  V30 1114 O 109.519 1.36054 1.38574 0
M  V30 1115 C 106.649 2.71232 2.16911 0
M  V30 1116 C 105.603 3.83781 1.89463 0
M  V30 1117 C 104.929 4.26127 3.22986 0
M  V30 1118 C 106.229 5.08238 1.20381 0
M  V30 1119 H 107.923 2.96488 0.416529 0
M  V30 1120 H 105.469 1.4262 0.198908 0
M  V30 1121 H 107.422 3.10458 2.84945 0
M  V30 1122 H 106.146 1.87426 2.67468 0
M  V30 1123 H 104.805 3.45051 1.23836 0
M  V30 1124 H 104.453 3.39249 3.71374 0
M  V30 1125 H 104.153 5.01993 3.05413 0
M  V30 1126 H 105.677 4.67966 3.92225 0
M  V30 1127 H 107.091 5.44811 1.78475 0
M  V30 1128 H 105.488 5.89349 1.13083 0
M  V30 1129 H 106.558 4.84558 0.182153 0
M  V30 1130 N 107.901 -0.206675 1.56239 0
M  V30 1131 C 109.317 -0.557025 1.49564 0
M  V30 1132 C 109.517 -1.86424 0.764735 0
M  V30 1133 O 108.573 -2.50584 0.310491 0
M  V30 1134 C 109.886 -0.622478 2.94186 0
M  V30 1135 C 111.434 -0.712099 3.04792 0
M  V30 1136 C 111.909 -0.808767 4.50803 0
M  V30 1137 N 113.4 -0.8726 4.54907 0
M  V30 1138 C 114.135 -0.967365 5.65181 0
M  V30 1139 N 113.631 -1.02515 6.85173 0
M  V30 1140 N 115.424 -1.00366 5.53067 0
M  V30 1141 H 107.575 0.650943 2.02179 0
M  V30 1142 H 109.838 0.230387 0.919579 0
M  V30 1143 H 109.544 0.268727 3.50672 0
M  V30 1144 H 109.418 -1.4811 3.46905 0
M  V30 1145 H 111.805 -1.59374 2.48363 0
M  V30 1146 H 111.886 0.172489 2.55218 0
M  V30 1147 H 111.53 0.0684754 5.07854 0
M  V30 1148 H 111.46 -1.70899 4.98098 0
M  V30 1149 H 113.951 -0.837657 3.68499 0
M  V30 1150 H 114.264 -1.09765 7.64965 0
M  V30 1151 H 112.609 -0.994026 6.87855 0
M  V30 1152 H 115.8 -0.95527 4.58249 0
M  V30 1153 H 115.973 -1.07405 6.39037 0
M  V30 1154 N 109.379 -1.50304 -0.473955 0
M  V30 1155 C 110.625 -1.62358 -1.22521 0
M  V30 1156 C 110.98 -0.318555 -1.89745 0
M  V30 1157 O 110.273 0.683315 -1.79001 0
M  V30 1158 C 110.467 -2.73938 -2.29549 0
M  V30 1159 C 110.296 -4.15165 -1.72825 0
M  V30 1160 C 109.066 -4.81604 -1.52924 0
M  V30 1161 C 111.264 -4.99503 -1.22481 0
M  V30 1162 N 109.246 -6.07056 -0.91413 0
M  V30 1163 C 110.617 -6.15655 -0.732743 0
M  V30 1164 C 112.672 -4.85299 -1.11308 0
M  V30 1165 C 111.375 -7.19164 -0.139976 0
M  V30 1166 C 113.401 -5.88982 -0.534258 0
M  V30 1167 C 112.763 -7.0438 -0.0525562 0
M  V30 1168 H 108.862 -0.648286 -0.437321 0
M  V30 1169 H 111.446 -1.87413 -0.527692 0
M  V30 1170 H 109.617 -2.50611 -2.9673 0
M  V30 1171 H 111.349 -2.75366 -2.96573 0
M  V30 1172 H 108.104 -4.3885 -1.78067 0
M  V30 1173 H 108.528 -6.74108 -0.625071 0
M  V30 1174 H 113.17 -3.96369 -1.47144 0
M  V30 1175 H 110.888 -8.07771 0.230591 0
M  V30 1176 H 114.474 -5.80055 -0.450219 0
M  V30 1177 H 113.354 -7.83238 0.388324 0
M  V30 1178 N 110.857 0.726932 -1.39834 0
M  V30 1179 C 112.106 1.48214 -1.36805 0
M  V30 1180 C 112.419 1.95576 0.0305291 0
M  V30 1181 O 113.625 2.7088 0.183417 0
M  V30 1182 C 112.081 2.67854 -2.40379 0
M  V30 1183 C 111.689 2.27408 -3.85992 0
M  V30 1184 C 113.433 3.45641 -2.46439 0
M  V30 1185 C 111.34 3.43819 -4.81189 0
M  V30 1186 H 110.27 0.556606 -0.508631 0
M  V30 1187 H 112.921 0.792216 -1.65518 0
M  V30 1188 H 111.303 3.3896 -2.04749 0
M  V30 1189 H 112.477 1.63795 -4.30706 0
M  V30 1190 H 110.792 1.62692 -3.83302 0
M  V30 1191 H 113.389 4.32244 -3.14753 0
M  V30 1192 H 113.732 3.88669 -1.49139 0
M  V30 1193 H 114.265 2.8157 -2.81004 0
M  V30 1194 H 111.004 3.05834 -5.79781 0
M  V30 1195 H 110.524 4.06385 -4.41148 0
M  V30 1196 H 112.203 4.10043 -5.00474 0
M  V30 1197 N 112.336 1.25143 0.95797 0
M  V30 1198 C 113.266 1.07711 2.07173 0
M  V30 1199 C 114.247 -0.0128462 1.70095 0
M  V30 1200 O 115.432 0.156061 1.93572 0
M  V30 1201 C 112.562 0.691503 3.40346 0
M  V30 1202 C 111.516 1.73132 3.9142 0
M  V30 1203 C 110.842 1.20049 5.21049 0
M  V30 1204 C 112.142 3.1294 4.1817 0
M  V30 1205 H 113.836 2.00873 2.22014 0
M  V30 1206 H 111.382 0.967191 1.06684 0
M  V30 1207 H 113.335 0.556505 4.17709 0
M  V30 1208 H 112.059 -0.275819 3.25433 0
M  V30 1209 H 110.718 1.8547 3.16222 0
M  V30 1210 H 110.366 0.223499 5.02503 0
M  V30 1211 H 110.066 1.89545 5.56189 0
M  V30 1212 H 111.59 1.07782 6.01012 0
M  V30 1213 H 113.004 3.03775 4.86203 0
M  V30 1214 H 111.401 3.79875 4.64559 0
M  V30 1215 H 112.471 3.6025 3.24573 0
M  V30 1216 N 113.814 -1.1601 1.06675 0
M  V30 1217 C 115.042 -1.90527 0.806667 0
M  V30 1218 C 115.457 -1.77643 -0.639396 0
M  V30 1219 O 114.814 -1.12369 -1.43803 0
M  V30 1220 C 114.865 -3.41106 1.19705 0
M  V30 1221 O 114.586 -3.53608 2.58636 0
M  V30 1222 C 116.087 -4.32663 0.965266 0
M  V30 1223 H 113.307 -0.604053 0.292166 0
M  V30 1224 H 115.851 -1.47026 1.4214 0
M  V30 1225 H 114.006 -3.82296 0.626774 0
M  V30 1226 H 114.42 -4.47011 2.74375 0
M  V30 1227 H 115.894 -5.36763 1.288 0
M  V30 1228 H 116.371 -4.39089 -0.0987936 0
M  V30 1229 H 116.977 -3.97206 1.52011 0
M  V30 1230 N 115.292 -0.849877 -1.32721 0
M  V30 1231 C 116.539 -0.450923 -1.97416 0
M  V30 1232 C 116.867 0.992376 -1.67279 0
M  V30 1233 O 116.122 1.71048 -0.950845 0
M  V30 1234 C 116.421 -0.631272 -3.51781 0
M  V30 1235 C 116.087 -2.04432 -4.01894 0
M  V30 1236 C 114.749 -2.4308 -4.1529 0
M  V30 1237 C 117.101 -2.96679 -4.28522 0
M  V30 1238 C 114.429 -3.73257 -4.52654 0
M  V30 1239 C 116.781 -4.26349 -4.67343 0
M  V30 1240 C 115.445 -4.64939 -4.78945 0
M  V30 1241 H 114.715 -0.165004 -0.722395 0
M  V30 1242 H 117.362 -1.07901 -1.58207 0
M  V30 1243 H 115.667 0.0800767 -3.91718 0
M  V30 1244 H 117.364 -0.302709 -3.99856 0
M  V30 1245 H 113.954 -1.73419 -3.91949 0
M  V30 1246 H 118.138 -2.68054 -4.17685 0
M  V30 1247 H 113.394 -4.02946 -4.59831 0
M  V30 1248 H 117.568 -4.97895 -4.86902 0
M  V30 1249 H 115.195 -5.65855 -5.07654 0
M  V30 1250 N 116.77 1.45427 -0.607355 0
M  V30 1251 C 117.703 2.27635 0.160482 0
M  V30 1252 C 118.681 1.37122 0.873857 0
M  V30 1253 O 119.865 1.66551 0.882775 0
M  V30 1254 C 116.992 3.15486 1.23231 0
M  V30 1255 C 116.038 4.21939 0.622097 0
M  V30 1256 S 116.871 5.32459 -0.569852 0
M  V30 1257 C 118.027 6.23879 0.502577 0
M  V30 1258 H 118.26 2.9241 -0.536983 0
M  V30 1259 H 115.793 1.49265 -0.394868 0
M  V30 1260 H 117.751 3.66659 1.84585 0
M  V30 1261 H 116.412 2.49977 1.90185 0
M  V30 1262 H 115.605 4.8333 1.42856 0
M  V30 1263 H 115.207 3.73906 0.0837063 0
M  V30 1264 H 117.499 6.63261 1.38171 0
M  V30 1265 H 118.442 7.0806 -0.0751759 0
M  V30 1266 H 118.85 5.58545 0.8178 0
M  V30 1267 N 118.248 0.346503 1.53744 0
M  V30 1268 C 119.178 -0.501193 2.28058 0
M  V30 1269 C 120.159 -1.10014 1.29734 0
M  V30 1270 O 121.344 -1.12097 1.58581 0
M  V30 1271 C 118.474 -1.65078 3.05559 0
M  V30 1272 C 117.428 -1.18003 4.11411 0
M  V30 1273 C 116.754 -2.41837 4.76884 0
M  V30 1274 C 118.054 -0.278394 5.21558 0
M  V30 1275 H 119.748 0.11875 2.99164 0
M  V30 1276 H 117.294 0.0585531 1.43881 0
M  V30 1277 H 119.247 -2.25028 3.56287 0
M  V30 1278 H 117.971 -2.29767 2.32109 0
M  V30 1279 H 116.63 -0.603331 3.61601 0
M  V30 1280 H 116.278 -3.0494 4.00026 0
M  V30 1281 H 115.978 -2.1102 5.48402 0
M  V30 1282 H 117.502 -3.02508 5.30397 0
M  V30 1283 H 118.916 -0.784823 5.67903 0
M  V30 1284 H 117.313 -0.0619707 6.00068 0
M  V30 1285 H 118.383 0.684677 4.80042 0
M  V30 1286 N 119.726 -1.57421 0.075193 0
M  V30 1287 C 120.656 -2.15942 -0.888324 0
M  V30 1288 C 121.637 -1.08737 -1.30806 0
M  V30 1289 O 122.822 -1.36787 -1.37851 0
M  V30 1290 C 119.952 -2.72379 -2.1547 0
M  V30 1291 C 118.906 -3.8478 -1.87425 0
M  V30 1292 C 118.232 -4.27834 -3.20721 0
M  V30 1293 C 119.532 -5.08869 -1.17684 0
M  V30 1294 H 121.226 -2.96705 -0.400799 0
M  V30 1295 H 118.772 -1.42723 -0.191342 0
M  V30 1296 H 120.725 -3.11965 -2.83295 0
M  V30 1297 H 119.449 -1.88841 -2.6647 0
M  V30 1298 H 118.108 -3.45703 -1.22004 0
M  V30 1299 H 117.756 -3.41214 -3.6957 0
M  V30 1300 H 117.456 -5.03605 -3.02746 0
M  V30 1301 H 118.98 -4.70039 -3.89738 0
M  V30 1302 H 120.394 -5.4575 -1.75584 0
M  V30 1303 H 118.791 -5.8994 -1.09956 0
M  V30 1304 H 119.861 -4.84648 -0.156453 0
M  V30 1305 N 121.204 0.198386 -1.56346 0
M  V30 1306 C 122.451 0.919286 -1.80431 0
M  V30 1307 C 122.779 1.83393 -0.647866 0
M  V30 1308 O 122.034 1.92236 0.366556 0
M  V30 1309 C 122.333 1.77031 -3.10475 0
M  V30 1310 C 121.999 1.00693 -4.39513 0
M  V30 1311 C 120.661 0.796145 -4.74568 0
M  V30 1312 C 123.013 0.469559 -5.19081 0
M  V30 1313 C 120.341 0.0364588 -5.86689 0
M  V30 1314 C 122.693 -0.2769 -6.31994 0
M  V30 1315 C 121.357 -0.49873 -6.65634 0
M  V30 1316 H 120.627 0.336391 -0.660244 0
M  V30 1317 H 123.274 0.185872 -1.90596 0
M  V30 1318 H 121.579 2.5723 -2.95533 0
M  V30 1319 H 123.276 2.33065 -3.26315 0
M  V30 1320 H 119.866 1.18122 -4.12001 0
M  V30 1321 H 124.05 0.619816 -4.92414 0
M  V30 1322 H 119.306 -0.145412 -6.11227 0
M  V30 1323 H 123.48 -0.700684 -6.92866 0
M  V30 1324 H 121.107 -1.0893 -7.52355 0
M  V30 1325 N 122.682 1.50554 0.465978 0
M  V30 1326 C 123.928 1.62038 1.21949 0
M  V30 1327 C 124.261 0.322116 1.9151 0
M  V30 1328 O 123.536 -0.676723 1.82348 0
M  V30 1329 C 123.819 2.80421 2.25912 0
M  V30 1330 C 123.672 4.20144 1.60622 0
M  V30 1331 C 124.991 2.94354 3.27176 0
M  V30 1332 H 122.11 0.589752 0.441998 0
M  V30 1333 H 124.752 1.82956 0.51257 0
M  V30 1334 H 122.902 2.62717 2.86203 0
M  V30 1335 H 124.574 4.49449 1.03889 0
M  V30 1336 H 122.817 4.24165 0.909211 0
M  V30 1337 H 123.488 4.98914 2.36196 0
M  V30 1338 H 125.964 3.10578 2.76913 0
M  V30 1339 H 124.84 3.788 3.97242 0
M  V30 1340 H 125.101 2.05186 3.916 0
M  V30 1341 N 124.16 -0.719506 1.40217 0
M  V30 1342 C 125.09 -1.8465 1.42922 0
M  V30 1343 C 126.071 -1.67599 0.29062 0
M  V30 1344 O 127.256 -1.87688 0.498677 0
M  V30 1345 C 124.386 -3.22565 1.28722 0
M  V30 1346 C 123.34 -3.54281 2.40144 0
M  V30 1347 C 122.666 -4.91298 2.11023 0
M  V30 1348 C 123.966 -3.55676 3.82481 0
M  V30 1349 H 125.66 -1.82644 2.37237 0
M  V30 1350 H 123.206 -0.877305 1.1419 0
M  V30 1351 H 125.159 -4.01095 1.29232 0
M  V30 1352 H 123.883 -3.25137 0.308811 0
M  V30 1353 H 122.542 -2.78088 2.38877 0
M  V30 1354 H 122.19 -4.90468 1.11582 0
M  V30 1355 H 121.89 -5.13485 2.8567 0
M  V30 1356 H 123.414 -5.72166 2.13209 0
M  V30 1357 H 124.828 -4.24254 3.85592 0
M  V30 1358 H 123.225 -3.89388 4.56614 0
M  V30 1359 H 124.295 -2.55144 4.12346 0
M  V30 1360 N 125.638 -1.25649 -0.95132 0
M  V30 1361 C 126.884 -1.10757 -1.69884 0
M  V30 1362 C 127.217 0.350061 -1.91019 0
M  V30 1363 O 126.492 1.25783 -1.48354 0
M  V30 1364 C 126.775 -1.86606 -3.07978 0
M  V30 1365 C 126.628 -3.40217 -2.94232 0
M  V30 1366 C 127.947 -1.65182 -4.07925 0
M  V30 1367 H 125.066 -0.40374 -0.616574 0
M  V30 1368 H 127.708 -1.54521 -1.10558 0
M  V30 1369 H 125.858 -1.49409 -3.58621 0
M  V30 1370 H 127.53 -3.87108 -2.50889 0
M  V30 1371 H 125.773 -3.67759 -2.30078 0
M  V30 1372 H 126.444 -3.88505 -3.92133 0
M  V30 1373 H 128.92 -1.9757 -3.66204 0
M  V30 1374 H 127.796 -2.20683 -5.02583 0
M  V30 1375 H 128.057 -0.593933 -4.38092 0
M  V30 1376 N 127.117 1.15442 -1.07289 0
M  V30 1377 C 128.357 1.8788 -0.805012 0
M  V30 1378 C 128.721 1.80413 0.656907 0
M  V30 1379 O 129.922 2.47874 1.0398 0
M  V30 1380 C 128.193 3.3298 -1.29843 0
M  V30 1381 S 129.752 4.23158 -1.16114 0
M  V30 1382 H 126.57 0.64839 -0.291739 0
M  V30 1383 H 129.172 1.39285 -1.37186 0
M  V30 1384 H 127.876 3.35958 -2.35712 0
M  V30 1385 H 127.407 3.86629 -0.726767 0
M  V30 1386 H 129.422 4.96103 -0.0982778 0
M  V30 1387 N 128.595 0.856903 1.32268 0
M  V30 1388 C 129.505 0.306131 2.32594 0
M  V30 1389 C 130.521 -0.577209 1.64147 0
M  V30 1390 O 131.697 -0.477043 1.95669 0
M  V30 1391 C 128.762 -0.494561 3.43154 0
M  V30 1392 C 127.823 0.415186 4.27288 0
M  V30 1393 C 127.056 -0.347387 5.32568 0
M  V30 1394 O 127.279 -1.57708 5.48165 0
M  V30 1395 O 126.213 0.287982 6.01211 0
M  V30 1396 H 130.039 1.13737 2.81598 0
M  V30 1397 H 127.624 0.619902 1.35932 0
M  V30 1398 H 129.506 -0.948944 4.10576 0
M  V30 1399 H 128.181 -1.30257 2.96336 0
M  V30 1400 H 127.088 0.917793 3.62667 0
M  V30 1401 H 128.421 1.18844 4.77637 0
M  V30 1402 N 130.073 -1.45103 0.615059 0
M  V30 1403 C 131.322 -2.01396 0.110718 0
M  V30 1404 C 131.635 -1.48834 -1.26916 0
M  V30 1405 O 132.841 -1.97152 -1.86664 0
M  V30 1406 C 131.297 -3.59599 0.14723 0
M  V30 1407 C 130.905 -4.21158 1.52743 0
M  V30 1408 C 132.649 -4.23428 -0.30148 0
M  V30 1409 C 130.556 -5.71535 1.51992 0
M  V30 1410 H 129.486 -0.753061 0.0376241 0
M  V30 1411 H 132.137 -1.66494 0.77149 0
M  V30 1412 H 130.519 -3.91724 -0.580339 0
M  V30 1413 H 131.693 -4.00594 2.2773 0
M  V30 1414 H 130.008 -3.69552 1.91886 0
M  V30 1415 H 132.605 -5.33703 -0.326392 0
M  V30 1416 H 132.948 -3.94629 -1.32565 0
M  V30 1417 H 133.481 -3.96047 0.373065 0
M  V30 1418 H 130.22 -6.05044 2.52193 0
M  V30 1419 H 129.74 -5.94268 0.81274 0
M  V30 1420 H 131.419 -6.34873 1.24681 0
M  V30 1421 N 131.551 -0.354651 -1.53558 0
M  V30 1422 C 132.514 0.484566 -2.24019 0
M  V30 1423 C 133.514 1.01861 -1.24422 0
M  V30 1424 O 134.704 0.906097 -1.4878 0
M  V30 1425 C 131.836 1.67615 -2.96847 0
M  V30 1426 H 133.029 -0.131843 -2.9961 0
M  V30 1427 H 130.582 -0.106165 -1.55939 0
M  V30 1428 H 131.317 2.33095 -2.25471 0
M  V30 1429 H 131.102 1.30029 -3.69912 0
M  V30 1430 H 132.592 2.27114 -3.50441 0
M  V30 1431 N 133.029 1.57378 -0.0835403 0
M  V30 1432 C 133.939 2.16897 0.894021 0
M  V30 1433 C 134.955 1.13528 1.31861 0
M  V30 1434 O 136.131 1.45848 1.3889 0
M  V30 1435 C 133.196 2.72831 2.13925 0
M  V30 1436 C 132.257 3.91115 1.76997 0
M  V30 1437 C 131.49 4.44371 2.95584 0
M  V30 1438 O 131.713 3.96596 4.09961 0
M  V30 1439 O 130.647 5.35549 2.74719 0
M  V30 1440 H 134.473 3.00814 0.417679 0
M  V30 1441 H 132.058 1.48741 0.140181 0
M  V30 1442 H 133.94 3.0863 2.86924 0
M  V30 1443 H 132.615 1.91967 2.60635 0
M  V30 1444 H 131.522 3.60148 1.01214 0
M  V30 1445 H 132.855 4.73307 1.3506 0
M  V30 1446 N 134.507 -0.190092 1.56449 0
M  V30 1447 C 135.755 -0.907908 1.80559 0
M  V30 1448 C 136.076 -1.83583 0.657438 0
M  V30 1449 O 135.346 -1.93203 -0.323924 0
M  V30 1450 H 133.926 -0.338247 0.666032 0
M  V30 1451 H 136.588 -0.194403 1.93928 0
M  V30 1452 H 135.684 -1.49604 2.73907 0
M  V30 1453 N 135.985 -1.50799 -0.457987 0
M  V30 1454 C 137.234 -1.6168 -1.20593 0
M  V30 1455 C 137.547 -0.32888 -1.92815 0
M  V30 1456 O 138.753 -0.316773 -2.69646 0
M  V30 1457 C 137.209 -2.8545 -2.19195 0
M  V30 1458 C 136.817 -4.21168 -1.52715 0
M  V30 1459 C 138.561 -3.05681 -2.94549 0
M  V30 1460 C 136.468 -5.3611 -2.4968 0
M  V30 1461 H 135.398 -0.602134 -0.453818 0
M  V30 1462 H 138.049 -1.77245 -0.475031 0
M  V30 1463 H 136.431 -2.63472 -2.95632 0
M  V30 1464 H 137.605 -4.53449 -0.819775 0
M  V30 1465 H 135.92 -4.06648 -0.895922 0
M  V30 1466 H 138.517 -3.88727 -3.67145 0
M  V30 1467 H 138.86 -2.17929 -3.54701 0
M  V30 1468 H 139.393 -3.27901 -2.25223 0
M  V30 1469 H 136.132 -6.26057 -1.94249 0
M  V30 1470 H 135.652 -5.0823 -3.18532 0
M  V30 1471 H 137.331 -5.6722 -3.11241 0
M  V30 1472 N 137.463 0.71206 -1.40597 0
M  V30 1473 C 138.393 1.83889 -1.43899 0
M  V30 1474 C 139.374 1.67442 -0.299504 0
M  V30 1475 O 140.559 1.87421 -0.508624 0
M  V30 1476 C 137.689 3.21877 -1.30431 0
M  V30 1477 C 136.643 3.53002 -2.42019 0
M  V30 1478 C 135.969 4.90172 -2.13626 0
M  V30 1479 C 137.269 3.53643 -3.84362 0
M  V30 1480 H 138.963 1.81383 -2.38203 0
M  V30 1481 H 136.509 0.871237 -1.14654 0
M  V30 1482 H 138.462 4.00404 -1.31357 0
M  V30 1483 H 137.186 3.24968 -0.326049 0
M  V30 1484 H 135.845 2.76818 -2.40349 0
M  V30 1485 H 135.493 4.89869 -1.14182 0
M  V30 1486 H 135.193 5.11962 -2.88389 0
M  V30 1487 H 136.717 5.71028 -2.1624 0
M  V30 1488 H 138.131 4.22203 -3.87837 0
M  V30 1489 H 136.528 3.86961 -4.58673 0
M  V30 1490 H 137.598 2.52954 -4.13693 0
M  V30 1491 N 138.941 1.26152 0.944643 0
M  V30 1492 C 140.166 1.14363 1.7302 0
M  V30 1493 C 140.591 -0.29772 1.85729 0
M  V30 1494 O 139.949 -1.2157 1.34501 0
M  V30 1495 C 139.997 1.81378 3.11664 0
M  V30 1496 O 139.101 1.10022 3.97453 0
M  V30 1497 H 138.442 0.398694 0.53098 0
M  V30 1498 H 140.972 1.66906 1.18337 0
M  V30 1499 H 140.982 1.88064 3.62072 0
M  V30 1500 H 139.657 2.86237 3.0173 0
M  V30 1501 H 138.234 1.11287 3.55907 0
M  V30 1502 N 140.419 -1.14872 1.07899 0
M  V30 1503 C 141.696 -1.81928 0.71845 0
M  V30 1504 C 142.076 -1.95417 -0.798455 0
M  V30 1505 O 141.424 -1.50997 -1.715 0
M  V30 1506 C 141.634 -3.17937 1.43935 0
M  V30 1507 C 142.982 -3.93501 1.59506 0
M  V30 1508 O 144.006 -3.27509 1.40058 0
M  V30 1509 O 142.865 -5.1183 1.91551 0
M  V30 1510 H 139.959 -0.78628 0.256305 0
M  V30 1511 H 142.505 -1.21934 1.18026 0
M  V30 1512 H 141.277 -3.0325 2.47295 0
M  V30 1513 H 140.9 -3.85619 0.968687 0
M  V30 1514 N 141.898 -0.863906 -1.31812 0
M  V30 1515 C 143.146 -0.470904 -1.96537 0
M  V30 1516 C 143.467 0.978771 -1.68657 0
M  V30 1517 O 142.737 1.6853 -0.998717 0
M  V30 1518 H 141.317 -0.171148 -0.72713 0
M  V30 1519 H 143.979 -1.10236 -1.60729 0
M  V30 1520 H 143.075 -0.623616 -3.05806 0
M  V30 1521 N 143.376 1.44774 -0.622745 0
M  V30 1522 C 144.622 2.0242 -0.124083 0
M  V30 1523 C 144.955 1.4881 1.24777 0
M  V30 1524 O 144.23 0.668799 1.8264 0
M  V30 1525 C 144.513 3.59957 -0.101619 0
M  V30 1526 C 144.366 4.23867 -1.50521 0
M  V30 1527 C 145.685 4.36284 0.578272 0
M  V30 1528 H 142.804 0.735528 -0.0465645 0
M  V30 1529 H 145.446 1.72447 -0.797617 0
M  V30 1530 H 143.596 3.85623 0.471934 0
M  V30 1531 H 145.268 4.09336 -2.12701 0
M  V30 1532 H 143.511 3.81684 -2.06154 0
M  V30 1533 H 144.182 5.32843 -1.4416 0
M  V30 1534 H 146.658 4.16001 0.0906057 0
M  V30 1535 H 145.534 5.46004 0.563149 0
M  V30 1536 H 145.795 4.10271 1.64713 0
M  V30 1537 N 144.854 0.36279 1.53368 0
M  V30 1538 C 146.082 -0.228613 2.05633 0
M  V30 1539 C 146.497 -1.42676 1.23649 0
M  V30 1540 O 145.854 -1.80394 0.27647 0
M  V30 1541 C 145.905 -0.624845 3.56059 0
M  V30 1542 O 145.626 0.525675 4.34935 0
M  V30 1543 C 147.127 -1.27493 4.24571 0
M  V30 1544 H 144.347 -0.0407183 0.669763 0
M  V30 1545 H 146.891 0.520352 1.97769 0
M  V30 1546 H 145.046 -1.32373 3.64083 0
M  V30 1547 H 145.46 0.205969 5.24095 0
M  V30 1548 H 146.934 -1.50277 5.31151 0
M  V30 1549 H 147.411 -2.23439 3.78116 0
M  V30 1550 H 148.017 -0.617558 4.20792 0
M  V30 1551 N 146.332 -1.57332 0.0918853 0
M  V30 1552 C 147.242 -2.17368 -0.882505 0
M  V30 1553 C 148.258 -1.14226 -1.31257 0
M  V30 1554 O 149.434 -1.46582 -1.38115 0
M  V30 1555 C 146.499 -2.73962 -2.12476 0
M  V30 1556 C 145.56 -3.92048 -1.7492 0
M  V30 1557 C 144.793 -4.45933 -2.93223 0
M  V30 1558 O 145.016 -3.98764 -4.07852 0
M  V30 1559 O 143.95 -5.36999 -2.71875 0
M  V30 1560 H 147.776 -3.01031 -0.40172 0
M  V30 1561 H 145.361 -1.48813 -0.132291 0
M  V30 1562 H 147.243 -3.10147 -2.85283 0
M  V30 1563 H 145.918 -1.93347 -2.59613 0
M  V30 1564 H 144.825 -3.6068 -0.993025 0
M  V30 1565 H 146.158 -4.74017 -1.32548 0
M  V30 1566 N 147.81 0.181792 -1.56548 0
M  V30 1567 C 149.035 0.920019 -1.85877 0
M  V30 1568 C 149.46 1.75494 -0.677021 0
M  V30 1569 O 148.818 1.77399 0.374056 0
M  V30 1570 C 148.866 1.78112 -3.13542 0
M  V30 1571 O 147.97 2.88152 -2.95029 0
M  V30 1572 H 147.311 0.258334 -0.611686 0
M  V30 1573 H 149.841 0.183092 -2.03779 0
M  V30 1574 H 149.851 2.18314 -3.44678 0
M  V30 1575 H 148.526 1.16777 -3.99169 0
M  V30 1576 H 147.103 2.51609 -2.75222 0
M  V30 1577 N 149.288 1.51039 0.449983 0
M  V30 1578 C 150.238 1.67824 1.54335 0
M  V30 1579 C 151.222 0.5324 1.51836 0
M  V30 1580 O 152.414 0.787762 1.58503 0
M  V30 1581 C 149.543 1.7951 2.92628 0
M  V30 1582 C 148.629 2.99838 2.9993 0
M  V30 1583 N 149.02 4.23207 2.77001 0
M  V30 1584 C 147.318 2.98832 3.31082 0
M  V30 1585 C 148.019 5.04361 2.89818 0
M  V30 1586 N 146.995 4.38746 3.2094 0
M  V30 1587 H 150.797 2.60884 1.35339 0
M  V30 1588 H 148.311 1.48513 0.657085 0
M  V30 1589 H 150.308 1.89642 3.7127 0
M  V30 1590 H 148.968 0.876227 3.12654 0
M  V30 1591 H 149.979 4.5236 2.52172 0
M  V30 1592 H 146.656 2.16527 3.56963 0
M  V30 1593 H 148.046 6.12528 2.76151 0
M  V30 1594 N 150.766 -0.704594 1.40972 0
M  V30 1595 C 151.716 -1.81051 1.38581 0
M  V30 1596 C 152.7 -1.58759 0.261585 0
M  V30 1597 O 153.892 -1.69745 0.501556 0
M  V30 1598 C 151.021 -3.19279 1.26157 0
M  V30 1599 C 150.107 -3.47296 2.43405 0
M  V30 1600 N 150.498 -3.46064 3.68881 0
M  V30 1601 C 148.796 -3.77804 2.37023 0
M  V30 1602 C 149.497 -3.72733 4.46592 0
M  V30 1603 N 148.473 -3.9203 3.76581 0
M  V30 1604 H 152.275 -1.78448 2.33525 0
M  V30 1605 H 149.789 -0.904198 1.349 0
M  V30 1606 H 151.786 -3.98488 1.22526 0
M  V30 1607 H 150.446 -3.231 0.321902 0
M  V30 1608 H 151.457 -3.26656 4.01891 0
M  V30 1609 H 148.134 -3.8905 1.51481 0
M  V30 1610 H 149.524 -3.77993 5.55492 0
M  V30 1611 N 152.244 -1.26651 -0.937939 0
M  V30 1612 C 153.174 -1.10993 -2.05433 0
M  V30 1613 C 154.155 -0.0142161 -1.70094 0
M  V30 1614 O 155.34 -0.186837 -1.93299 0
M  V30 1615 C 152.47 -0.745561 -3.39203 0
M  V30 1616 C 151.424 -1.79337 -3.88616 0
M  V30 1617 C 150.75 -1.28324 -5.19073 0
M  V30 1618 C 152.05 -3.19553 -4.13138 0
M  V30 1619 H 153.744 -2.0438 -2.1879 0
M  V30 1620 H 151.29 -0.984041 -1.05131 0
M  V30 1621 H 153.243 -0.622888 -4.16771 0
M  V30 1622 H 151.967 0.22401 -3.25831 0
M  V30 1623 H 150.626 -1.90477 -3.13231 0
M  V30 1624 H 150.274 -0.303414 -5.02084 0
M  V30 1625 H 149.974 -1.98369 -5.53103 0
M  V30 1626 H 151.498 -1.1733 -5.99221 0
M  V30 1627 H 152.912 -3.11471 -4.81309 0
M  V30 1628 H 151.309 -3.87218 -4.58457 0
M  V30 1629 H 152.379 -3.65368 -3.18801 0
M  V30 1630 N 153.722 1.14298 -1.08507 0
M  V30 1631 C 154.672 2.17449 -0.685569 0
M  V30 1632 C 155.656 1.58167 0.295315 0
M  V30 1633 O 156.848 1.76675 0.107172 0
M  V30 1634 C 153.977 3.43161 -0.0975318 0
M  V30 1635 C 153.063 4.09471 -1.10426 0
M  V30 1636 N 153.454 4.51089 -2.28806 0
M  V30 1637 C 151.752 4.35976 -0.940258 0
M  V30 1638 C 152.453 5.02654 -2.9277 0
M  V30 1639 N 151.429 4.96927 -2.20374 0
M  V30 1640 H 155.231 2.47369 -1.587 0
M  V30 1641 H 152.745 1.30992 -0.959936 0
M  V30 1642 H 154.742 4.16388 0.20664 0
M  V30 1643 H 153.402 3.14719 0.798872 0
M  V30 1644 H 154.413 4.44097 -2.66455 0
M  V30 1645 H 151.09 4.17386 -0.0977441 0
M  V30 1646 H 152.48 5.44723 -3.93352 0
M  V30 1647 N 155.201 0.870884 1.31352 0
M  V30 1648 C 156.131 0.343096 2.30966 0
M  V30 1649 C 157.112 -0.566507 1.60389 0
M  V30 1650 O 158.297 -0.483336 1.88089 0
M  V30 1651 C 155.427 -0.455487 3.443 0
M  V30 1652 C 154.381 0.361103 4.26474 0
M  V30 1653 C 153.707 -0.563221 5.31725 0
M  V30 1654 C 155.007 1.59566 4.97329 0
M  V30 1655 H 156.701 1.17548 2.75359 0
M  V30 1656 H 154.247 0.566686 1.32381 0
M  V30 1657 H 156.2 -0.83525 4.13039 0
M  V30 1658 H 154.924 -1.32139 2.98675 0
M  V30 1659 H 153.583 0.722825 3.59403 0
M  V30 1660 H 153.231 -1.42643 4.82351 0
M  V30 1661 H 152.931 -0.0207409 5.87596 0
M  V30 1662 H 154.455 -0.939808 6.03324 0
M  V30 1663 H 155.869 1.28728 5.58661 0
M  V30 1664 H 154.266 2.07728 5.63 0
M  V30 1665 H 155.336 2.34798 4.24262 0
M  V30 1666 N 156.679 -1.44442 0.630414 0
M  V30 1667 C 157.909 -2.06115 0.141465 0
M  V30 1668 C 158.317 -1.47179 -1.1889 0
M  V30 1669 O 157.66 -0.588873 -1.74006 0
M  V30 1670 C 157.722 -3.59467 -0.0484355 0
M  V30 1671 C 157.386 -4.40864 1.20366 0
M  V30 1672 C 158.383 -4.74391 2.12719 0
M  V30 1673 C 156.068 -4.8125 1.43887 0
M  V30 1674 C 158.062 -5.47186 3.26904 0
M  V30 1675 C 155.749 -5.53795 2.5837 0
M  V30 1676 C 156.747 -5.86682 3.49705 0
M  V30 1677 O 156.435 -6.57749 4.62191 0
M  V30 1678 H 156.167 -0.671648 0.0765792 0
M  V30 1679 H 158.721 -1.86312 0.864695 0
M  V30 1680 H 156.951 -3.77758 -0.826803 0
M  V30 1681 H 158.64 -4.02909 -0.491849 0
M  V30 1682 H 159.406 -4.43728 1.95781 0
M  V30 1683 H 155.285 -4.55073 0.736853 0
M  V30 1684 H 158.829 -5.72773 3.98217 0
M  V30 1685 H 154.726 -5.83872 2.75251 0
M  V30 1686 H 155.494 -6.76217 4.61164 0
M  V30 1687 N 158.157 -0.370918 -1.53173 0
M  V30 1688 C 159.09 0.516727 -2.22273 0
M  V30 1689 C 160.068 1.07877 -1.21661 0
M  V30 1690 O 161.252 1.13389 -1.50583 0
M  V30 1691 C 158.379 1.71346 -2.92161 0
M  V30 1692 C 157.425 1.27838 -4.0689 0
M  V30 1693 S 158.258 0.275217 -5.34792 0
M  V30 1694 C 159.414 1.47816 -6.08195 0
M  V30 1695 H 159.647 -0.0701054 -2.97217 0
M  V30 1696 H 157.18 -0.155038 -1.5362 0
M  V30 1697 H 159.138 2.39988 -3.3304 0
M  V30 1698 H 157.799 2.27156 -2.16931 0
M  V30 1699 H 156.992 2.17141 -4.54825 0
M  V30 1700 H 156.594 0.671105 -3.6793 0
M  V30 1701 H 158.886 2.40831 -6.33251 0
M  V30 1702 H 159.829 1.04008 -7.0042 0
M  V30 1703 H 160.237 1.68663 -5.38714 0
M  V30 1704 N 159.635 1.57281 -0.100228 0
M  V30 1705 C 161.046 1.81725 0.428107 0
M  V30 1706 C 161.397 1.01619 1.67833 0
M  V30 1707 O 160.522 0.247098 2.14985 0
M  V30 1708 C 161.117 3.29617 0.78347 0
M  V30 1709 C 159.676 3.54808 1.25653 0
M  V30 1710 C 158.823 2.76118 0.255752 0
M  V30 1711 H 161.774 1.55324 -0.325608 0
M  V30 1712 H 161.795 3.4322 1.64256 0
M  V30 1713 H 161.307 3.87893 -0.12665 0
M  V30 1714 H 159.408 3.01868 2.18418 0
M  V30 1715 H 159.521 4.63443 1.21482 0
M  V30 1716 H 157.885 2.43745 0.738956 0
M  V30 1717 H 158.668 3.37145 -0.647136 0
M  V30 1718 N 161.113 -0.173488 1.56642 0
M  V30 1719 C 162.076 -1.19859 1.95362 0
M  V30 1720 C 163.076 -1.37296 0.83704 0
M  V30 1721 O 164.266 -1.34739 1.10413 0
M  V30 1722 C 161.398 -2.56405 2.24654 0
M  V30 1723 H 162.591 -0.867062 2.87092 0
M  V30 1724 H 160.144 -0.415853 1.50666 0
M  V30 1725 H 160.879 -2.94576 1.35631 0
M  V30 1726 H 160.664 -2.45115 3.06041 0
M  V30 1727 H 162.154 -3.30287 2.5554 0
M  V30 1728 N 162.591 -1.51276 -0.441967 0
M  V30 1729 C 163.839 -1.63392 -1.18943 0
M  V30 1730 C 164.16 -0.350159 -1.9183 0
M  V30 1731 O 163.43 0.633784 -1.85364 0
M  V30 1732 H 162.01 -0.602164 -0.442049 0
M  V30 1733 H 164.672 -1.88186 -0.507165 0
M  V30 1734 H 163.768 -2.45934 -1.92154 0
M  V30 1735 N 164.069 0.697108 -1.41344 0
M  V30 1736 C 165.002 1.82134 -1.37486 0
M  V30 1737 C 165.98 1.60784 -0.242351 0
M  V30 1738 O 167.164 1.83553 -0.429012 0
M  V30 1739 C 164.291 3.18788 -1.14421 0
M  V30 1740 C 163.337 3.58932 -2.3037 0
M  V30 1741 S 164.17 3.63916 -3.92843 0
M  V30 1742 C 165.326 5.03298 -3.72078 0
M  V30 1743 H 165.559 1.85129 -2.32625 0
M  V30 1744 H 163.092 0.865671 -1.2785 0
M  V30 1745 H 165.05 3.97677 -1.018 0
M  V30 1746 H 163.711 3.13404 -0.20905 0
M  V30 1747 H 162.904 4.58202 -2.09922 0
M  V30 1748 H 162.506 2.87347 -2.39391 0
M  V30 1749 H 164.798 5.90753 -3.31688 0
M  V30 1750 H 165.741 5.28788 -4.70945 0
M  V30 1751 H 166.149 4.74764 -3.05384 0
M  V30 1752 N 165.547 1.27147 0.931209 0
M  V30 1753 C 166.51 1.09615 2.01289 0
M  V30 1754 C 167.51 0.0412581 1.60747 0
M  V30 1755 O 168.7 0.285545 1.71844 0
M  V30 1756 C 165.832 0.669447 3.34262 0
M  V30 1757 H 167.025 2.05662 2.18273 0
M  V30 1758 H 164.578 1.09885 1.11153 0
M  V30 1759 H 165.313 -0.292572 3.22978 0
M  V30 1760 H 165.098 1.43127 3.65044 0
M  V30 1761 H 166.588 0.568921 4.13706 0
M  V30 1762 N 167.025 -1.13721 1.09112 0
M  V30 1763 C 168.272 -1.84924 0.825192 0
M  V30 1764 C 168.6 -1.83347 -0.649151 0
M  V30 1765 O 167.855 -1.26449 -1.49362 0
M  V30 1766 C 168.154 -3.32861 1.30146 0
M  V30 1767 C 167.82 -3.54621 2.78486 0
M  V30 1768 C 166.482 -3.60268 3.18999 0
M  V30 1769 C 168.834 -3.62855 3.74146 0
M  V30 1770 C 166.162 -3.71679 4.53951 0
M  V30 1771 C 168.514 -3.75793 5.08883 0
M  V30 1772 C 167.178 -3.79692 5.4899 0
M  V30 1773 H 166.448 -0.676684 0.301959 0
M  V30 1774 H 169.095 -1.3428 1.36533 0
M  V30 1775 H 167.4 -3.85835 0.681064 0
M  V30 1776 H 169.097 -3.86395 1.07236 0
M  V30 1777 H 165.687 -3.50879 2.46134 0
M  V30 1778 H 169.871 -3.57775 3.43963 0
M  V30 1779 H 165.127 -3.72963 4.84467 0
M  V30 1780 H 169.301 -3.81107 5.82864 0
M  V30 1781 H 166.928 -3.88287 6.53558 0
M  V30 1782 N 168.503 -0.877838 -1.30888 0
M  V30 1783 C 169.436 -0.283995 -2.26426 0
M  V30 1784 C 170.414 0.591361 -1.51465 0
M  V30 1785 O 171.598 0.54304 -1.80509 0
M  V30 1786 C 168.725 0.597129 -3.33395 0
M  V30 1787 C 167.771 -0.207937 -4.25993 0
M  V30 1788 S 168.604 -1.59158 -5.11301 0
M  V30 1789 C 169.76 -0.716791 -6.21782 0
M  V30 1790 H 169.993 -1.09383 -2.76446 0
M  V30 1791 H 167.526 -0.676828 -1.38775 0
M  V30 1792 H 169.484 1.09978 -3.95493 0
M  V30 1793 H 168.145 1.38099 -2.82113 0
M  V30 1794 H 167.338 0.464163 -5.01858 0
M  V30 1795 H 166.94 -0.642963 -3.68432 0
M  V30 1796 H 169.232 0.0692833 -6.77465 0
M  V30 1797 H 170.175 -1.44682 -6.93161 0
M  V30 1798 H 170.583 -0.280855 -5.63801 0
M  V30 1799 N 169.982 1.44106 -0.638065 0
M  V30 1800 C 170.945 2.29138 0.0531013 0
M  V30 1801 C 171.945 1.41409 0.765506 0
M  V30 1802 O 173.135 1.63206 0.609046 0
M  V30 1803 C 170.267 3.23144 1.08584 0
M  V30 1804 H 171.46 2.91739 -0.694883 0
M  V30 1805 H 169.013 1.51134 -0.398538 0
M  V30 1806 H 169.748 2.65408 1.86357 0
M  V30 1807 H 169.533 3.87804 0.578852 0
M  V30 1808 H 171.023 3.87004 1.56899 0
M  V30 1809 N 171.46 0.379036 1.52974 0
M  V30 1810 C 172.423 -0.448865 2.24762 0
M  V30 1811 C 173.423 -0.998689 1.26027 0
M  V30 1812 O 174.613 -0.882313 1.50203 0
M  V30 1813 C 171.745 -1.62872 2.99476 0
M  V30 1814 H 172.938 0.179491 2.99362 0
M  V30 1815 H 170.491 0.13096 1.5575 0
M  V30 1816 H 171.226 -2.29479 2.29151 0
M  V30 1817 H 171.011 -1.24128 3.71934 0
M  V30 1818 H 172.501 -2.2151 3.5401 0
M  V30 1819 N 172.938 -1.57226 0.108567 0
M  V30 1820 C 174.184 -1.95121 -0.552761 0
M  V30 1821 C 174.517 -0.991345 -1.66991 0
M  V30 1822 O 173.792 -0.0267211 -1.94482 0
M  V30 1823 C 174.075 -3.43039 -1.09528 0
M  V30 1824 C 173.928 -4.49797 0.0177332 0
M  V30 1825 C 175.247 -3.92567 -1.98945 0
M  V30 1826 H 172.366 -0.709496 -0.199461 0
M  V30 1827 H 175.008 -1.89126 0.182011 0
M  V30 1828 H 173.158 -3.48279 -1.72146 0
M  V30 1829 H 174.83 -4.56661 0.652584 0
M  V30 1830 H 173.073 -4.284 0.682309 0
M  V30 1831 H 173.744 -5.50528 -0.402919 0
M  V30 1832 H 176.22 -3.89565 -1.46214 0
M  V30 1833 H 175.096 -4.96605 -2.33827 0
M  V30 1834 H 175.357 -3.32648 -2.91201 0
M  V30 1835 N 174.416 0.165178 -1.56732 0
M  V30 1836 C 175.644 0.896218 -1.86482 0
M  V30 1837 C 176.059 1.75555 -0.694675 0
M  V30 1838 O 175.416 1.79379 0.33607 0
M  V30 1839 C 175.467 1.76792 -3.1532 0
M  V30 1840 O 175.188 0.943239 -4.27825 0
M  V30 1841 C 176.689 2.6081 -3.58459 0
M  V30 1842 H 173.909 0.260064 -0.618553 0
M  V30 1843 H 176.453 0.163428 -2.03846 0
M  V30 1844 H 174.608 2.45398 -2.99764 0
M  V30 1845 H 175.022 1.53998 -5.01383 0
M  V30 1846 H 176.496 3.17579 -4.51495 0
M  V30 1847 H 176.973 3.35977 -2.82872 0
M  V30 1848 H 177.579 1.97526 -3.76648 0
M  V30 1849 N 175.894 1.51508 0.433938 0
M  V30 1850 C 177.119 1.68443 1.21003 0
M  V30 1851 C 177.544 0.382636 1.84167 0
M  V30 1852 O 176.902 -0.65755 1.68956 0
M  V30 1853 C 176.95 2.80405 2.26727 0
M  V30 1854 O 176.054 2.44245 3.32292 0
M  V30 1855 H 175.395 0.561536 0.354363 0
M  V30 1856 H 177.925 1.9809 0.512024 0
M  V30 1857 H 177.935 3.0459 2.71457 0
M  V30 1858 H 176.61 3.74867 1.80132 0
M  V30 1859 H 175.187 2.30644 2.93015 0
M  V30 1860 N 177.372 -0.689602 1.41712 0
M  V30 1861 C 178.618 -1.45181 1.41599 0
M  V30 1862 C 178.951 -1.94181 0.0270081 0
M  V30 1863 O 178.226 -1.6993 -0.946265 0
M  V30 1864 C 178.509 -2.65945 2.42787 0
M  V30 1865 C 178.362 -2.22672 3.90816 0
M  V30 1866 C 179.681 -3.68149 2.41151 0
M  V30 1867 H 176.8 -0.526576 0.515642 0
M  V30 1868 H 179.442 -0.784947 1.73028 0
M  V30 1869 H 177.592 -3.2284 2.16116 0
M  V30 1870 H 179.264 -1.71058 4.28412 0
M  V30 1871 H 177.507 -1.54394 4.05395 0
M  V30 1872 H 178.178 -3.0935 4.57172 0
M  V30 1873 H 180.654 -3.2094 2.64834 0
M  V30 1874 H 179.53 -4.50248 3.13955 0
M  V30 1875 H 179.791 -4.18259 1.43221 0
M  V30 1876 N 178.85 -1.27639 -0.924453 0
M  V30 1877 C 180.096 -1.14336 -1.67497 0
M  V30 1878 C 180.429 0.309465 -1.91718 0
M  V30 1879 O 179.704 1.22608 -1.50989 0
M  V30 1880 C 179.987 -1.93096 -3.0395 0
M  V30 1881 C 179.84 -3.46381 -2.8695 0
M  V30 1882 C 181.159 -1.73798 -4.0433 0
M  V30 1883 H 178.278 -0.416728 -0.607871 0
M  V30 1884 H 180.92 -1.56832 -1.07256 0
M  V30 1885 H 179.07 -1.56982 -3.55372 0
M  V30 1886 H 180.742 -3.92343 -2.42621 0
M  V30 1887 H 178.985 -3.72557 -2.22225 0
M  V30 1888 H 179.656 -3.96735 -3.83804 0
M  V30 1889 H 182.132 -2.05293 -3.61931 0
M  V30 1890 H 181.008 -2.31294 -4.97789 0
M  V30 1891 H 181.269 -0.686725 -4.36734 0
M  V30 1892 N 180.328 1.1314 -1.09713 0
M  V30 1893 C 181.558 1.88048 -0.855656 0
M  V30 1894 C 181.966 1.79537 0.596919 0
M  V30 1895 O 181.309 1.16196 1.42282 0
M  V30 1896 C 181.371 3.38314 -1.21589 0
M  V30 1897 C 181.035 3.70605 -2.67397 0
M  V30 1898 C 182.032 3.69596 -3.65643 0
M  V30 1899 C 179.717 4.0017 -3.03593 0
M  V30 1900 C 181.711 3.977 -4.9811 0
M  V30 1901 C 179.398 4.27935 -4.36251 0
M  V30 1902 C 180.396 4.26685 -5.33318 0
M  V30 1903 O 180.084 4.53767 -6.63589 0
M  V30 1904 H 179.816 0.60208 -0.307368 0
M  V30 1905 H 182.37 1.44128 -1.46343 0
M  V30 1906 H 180.6 3.82752 -0.551177 0
M  V30 1907 H 182.289 3.94552 -0.953083 0
M  V30 1908 H 183.055 3.46826 -3.39023 0
M  V30 1909 H 178.934 4.00289 -2.2867 0
M  V30 1910 H 182.478 3.9664 -5.73866 0
M  V30 1911 H 178.375 4.50178 -4.62613 0
M  V30 1912 H 179.143 4.71422 -6.69107 0
M  V30 1913 N 181.806 0.884767 1.30421 0
M  V30 1914 C 183.036 0.517293 2.00019 0
M  V30 1915 C 183.444 -0.898632 1.66497 0
M  V30 1916 O 182.787 -1.60245 0.898181 0
M  V30 1917 C 182.849 0.612025 3.54252 0
M  V30 1918 C 182.513 1.99222 4.1129 0
M  V30 1919 C 183.51 2.9616 4.273 0
M  V30 1920 C 181.195 2.29755 4.46674 0
M  V30 1921 C 183.189 4.21764 4.77906 0
M  V30 1922 C 180.876 3.55606 4.96979 0
M  V30 1923 C 181.874 4.51425 5.12547 0
M  V30 1924 O 181.562 5.75043 5.61766 0
M  V30 1925 H 181.294 0.198529 0.64619 0
M  V30 1926 H 183.848 1.1919 1.67281 0
M  V30 1927 H 182.078 -0.119561 3.86515 0
M  V30 1928 H 183.767 0.255859 4.05093 0
M  V30 1929 H 184.533 2.73882 4.00267 0
M  V30 1930 H 180.412 1.55942 4.33824 0
M  V30 1931 H 183.956 4.96561 4.89972 0
M  V30 1932 H 179.853 3.7772 5.23448 0
M  V30 1933 H 180.621 5.77422 5.80109 0
M  V30 1934 N 183.284 -1.43765 0.645699 0
M  V30 1935 C 184.234 -2.27884 -0.0726442 0
M  V30 1936 C 185.218 -1.39483 -0.802086 0
M  V30 1937 O 186.41 -1.63174 -0.685791 0
M  V30 1938 C 183.539 -3.27055 -1.04356 0
M  V30 1939 C 182.625 -4.22944 -0.312985 0
M  V30 1940 N 183.016 -5.01391 0.666386 0
M  V30 1941 C 181.314 -4.42528 -0.55546 0
M  V30 1942 C 182.015 -5.71217 1.09935 0
M  V30 1943 N 180.991 -5.41856 0.435137 0
M  V30 1944 H 184.793 -2.85949 0.678988 0
M  V30 1945 H 182.307 -1.55378 0.472368 0
M  V30 1946 H 184.304 -3.86089 -1.57292 0
M  V30 1947 H 182.964 -2.70551 -1.79534 0
M  V30 1948 H 183.975 -5.07252 1.04481 0
M  V30 1949 H 180.652 -3.97104 -1.28899 0
M  V30 1950 H 182.042 -6.44202 1.90929 0
M  V30 1951 N 184.763 -0.387143 -1.52771 0
M  V30 1952 C 185.711 0.463953 -2.27926 0
M  V30 1953 C 186.705 1.06493 -1.31741 0
M  V30 1954 O 187.911 1.00565 -1.49287 0
M  V30 1955 H 184.286 0.16837 -0.732909 0
M  V30 1956 H 186.257 -0.19141 -2.97785 0
M  V30 1957 C 185.006 1.5803 -3.09713 0
M  V30 1958 H 184.329 1.12718 -3.83581 0
M  V30 1959 H 185.769 2.15008 -3.65442 0
M  V30 1960 C 184.228 2.53509 -2.2189 0
M  V30 1961 O 184.758 3.56863 -1.84422 0
M  V30 1962 N 182.964 2.23199 -1.86093 0
M  V30 1963 H 182.511 1.39185 -2.16761 0
M  V30 1964 H 182.469 2.87333 -1.27621 0
M  V30 1965 N 186.241 1.57166 -0.116904 0
M  V30 1966 C 187.49 1.94298 0.541407 0
M  V30 1967 C 187.803 1.00236 1.67964 0
M  V30 1968 O 189.009 1.26826 2.40057 0
M  V30 1969 C 187.465 3.45306 1.01449 0
M  V30 1970 C 187.073 4.47899 -0.0951738 0
M  V30 1971 C 188.817 3.91361 1.6443 0
M  V30 1972 C 186.724 5.90083 0.394491 0
M  V30 1973 H 185.654 0.725308 0.206019 0
M  V30 1974 H 188.305 1.82446 -0.196419 0
M  V30 1975 H 186.687 3.52385 1.80667 0
M  V30 1976 H 187.861 4.52486 -0.871374 0
M  V30 1977 H 186.176 4.11583 -0.631505 0
M  V30 1978 H 188.773 4.95004 2.02176 0
M  V30 1979 H 189.116 3.3122 2.52189 0
M  V30 1980 H 189.649 3.87073 0.917559 0
M  V30 1981 H 186.388 6.53974 -0.447004 0
M  V30 1982 H 185.908 5.88921 1.13722 0
M  V30 1983 H 187.587 6.41307 0.856399 0
M  V30 1984 N 187.719 -0.156864 1.56817 0
M  V30 1985 C 188.629 -1.2136 2.00771 0
M  V30 1986 C 189.645 -1.47598 0.921459 0
M  V30 1987 O 190.821 -1.59462 1.2302 0
M  V30 1988 C 187.886 -2.52943 2.37109 0
M  V30 1989 C 186.947 -2.34439 3.59634 0
M  V30 1990 C 186.18 -3.59748 3.94229 0
M  V30 1991 O 186.403 -4.65526 3.29609 0
M  V30 1992 O 185.337 -3.52998 4.8752 0
M  V30 1993 H 189.163 -0.870468 2.90958 0
M  V30 1994 H 186.748 -0.36484 1.44877 0
M  V30 1995 H 188.63 -3.30538 2.61386 0
M  V30 1996 H 187.305 -2.86806 1.5008 0
M  V30 1997 H 186.212 -1.54828 3.40557 0
M  V30 1998 H 187.545 -2.05496 4.4725 0
M  V30 1999 N 189.197 -1.51736 -0.425897 0
M  V30 2000 C 190.425 -1.68794 -1.1965 0
M  V30 2001 C 190.84 -0.390164 -1.84725 0
M  V30 2002 O 190.197 0.632376 -1.71194 0
M  V30 2003 C 190.248 -2.81174 -2.27208 0
M  V30 2004 O 189.969 -4.05925 -1.64793 0
M  V30 2005 C 191.47 -3.09599 -3.17275 0
M  V30 2006 H 188.69 -0.566128 -0.360194 0
M  V30 2007 H 191.234 -1.98211 -0.503249 0
M  V30 2008 H 189.389 -2.54324 -2.9223 0
M  V30 2009 H 189.803 -4.68423 -2.35967 0
M  V30 2010 H 191.277 -3.91786 -3.88854 0
M  V30 2011 H 191.754 -2.22468 -3.78688 0
M  V30 2012 H 192.36 -3.38151 -2.57941 0
M  V30 2013 N 190.675 0.682077 -1.42076 0
M  V30 2014 C 191.9 1.47558 -1.45744 0
M  V30 2015 C 192.325 1.87977 -0.0680981 0
M  V30 2016 O 191.683 1.55522 0.9318 0
M  V30 2017 C 191.731 2.70575 -2.38373 0
M  V30 2018 O 190.835 3.68573 -1.85007 0
M  V30 2019 H 190.176 0.443585 -0.494093 0
M  V30 2020 H 192.706 0.837238 -1.86686 0
M  V30 2021 H 192.716 3.18729 -2.54707 0
M  V30 2022 H 191.391 2.40495 -3.39315 0
M  V30 2023 H 189.968 3.2757 -1.78192 0
M  V30 2024 N 192.153 1.28127 0.917671 0
M  V30 2025 C 193.101 1.11569 2.04096 0
M  V30 2026 C 194.095 0.0360242 1.69362 0
M  V30 2027 O 195.301 0.194501 1.78946 0
M  V30 2028 H 191.676 0.344097 0.668656 0
M  V30 2029 H 193.647 2.06711 2.15205 0
M  V30 2030 C 192.396 0.790197 3.38602 0
M  V30 2031 H 191.719 1.61293 3.6582 0
M  V30 2032 H 193.159 0.714271 4.1794 0
M  V30 2033 C 191.618 -0.505897 3.3308 0
M  V30 2034 O 192.148 -1.53736 3.71117 0
M  V30 2035 N 190.354 -0.505193 2.86175 0
M  V30 2036 H 189.901 0.334621 2.55417 0
M  V30 2037 H 189.859 -1.37243 2.82863 0
M  V30 2038 N 193.631 -1.12557 1.10312 0
M  V30 2039 C 194.878 -1.84038 0.844759 0
M  V30 2040 C 195.206 -1.84026 -0.629668 0
M  V30 2041 O 194.461 -1.28026 -1.48013 0
M  V30 2042 C 194.76 -3.31462 1.33669 0
M  V30 2043 C 194.426 -3.51647 2.82232 0
M  V30 2044 C 193.088 -3.56864 3.22802 0
M  V30 2045 C 195.44 -3.58867 3.77974 0
M  V30 2046 C 192.768 -3.66844 4.57867 0
M  V30 2047 C 195.12 -3.70375 5.1284 0
M  V30 2048 C 193.784 -3.73848 5.52986 0
M  V30 2049 H 193.054 -0.673444 0.309119 0
M  V30 2050 H 195.701 -1.32824 1.37949 0
M  V30 2051 H 194.006 -3.85091 0.721949 0
M  V30 2052 H 195.703 -3.85236 1.11329 0
M  V30 2053 H 192.293 -3.48249 2.49842 0
M  V30 2054 H 196.477 -3.54107 3.47738 0
M  V30 2055 H 191.733 -3.67804 4.88396 0
M  V30 2056 H 195.907 -3.74904 5.86873 0
M  V30 2057 H 193.534 -3.81333 6.57639 0
M  V30 2058 N 195.109 -0.891671 -1.2995 0
M  V30 2059 C 196.52 -0.563104 -1.78006 0
M  V30 2060 C 196.871 0.920978 -1.73241 0
M  V30 2061 O 195.996 1.71987 -1.31337 0
M  V30 2062 C 196.591 -1.01539 -3.23226 0
M  V30 2063 C 195.15 -0.738124 -3.69092 0
M  V30 2064 C 194.297 -1.19461 -2.50249 0
M  V30 2065 H 197.248 -1.07522 -1.16725 0
M  V30 2066 H 197.269 -0.347217 -3.78912 0
M  V30 2067 H 196.781 -2.09555 -3.26662 0
M  V30 2068 H 194.882 0.329766 -3.71138 0
M  V30 2069 H 194.995 -1.33037 -4.60259 0
M  V30 2070 H 193.359 -0.613787 -2.47194 0
M  V30 2071 H 194.142 -2.28265 -2.56417 0
M  V30 2072 N 196.587 1.43421 -0.653314 0
M  V30 2073 C 197.534 2.30768 0.0382271 0
M  V30 2074 C 198.504 1.44755 0.814576 0
M  V30 2075 O 199.689 1.73624 0.791162 0
M  V30 2076 C 196.829 3.30336 0.998599 0
M  V30 2077 C 195.942 4.31448 0.218342 0
M  V30 2078 C 195.077 5.18098 1.17252 0
M  V30 2079 C 194.116 6.10902 0.382702 0
M  V30 2080 N 193.253 6.90176 1.28848 0
M  V30 2081 H 198.093 2.89357 -0.712511 0
M  V30 2082 H 195.63 1.42548 -0.363128 0
M  V30 2083 H 197.588 3.86572 1.56901 0
M  V30 2084 H 196.218 2.73397 1.71621 0
M  V30 2085 H 195.27 3.77506 -0.46836 0
M  V30 2086 H 196.582 4.97227 -0.395812 0
M  V30 2087 H 195.736 5.7896 1.81356 0
M  V30 2088 H 194.475 4.52444 1.82058 0
M  V30 2089 H 193.48 5.49128 -0.27169 0
M  V30 2090 H 194.705 6.78598 -0.260957 0
M  V30 2091 H 192.651 6.27171 1.92334 0
M  V30 2092 H 192.568 7.52478 0.728887 0
M  V30 2093 H 193.836 7.55543 1.91766 0
M  V30 2094 N 198.065 0.39524 1.52563 0
M  V30 2095 C 198.995 -0.428384 2.29537 0
M  V30 2096 C 199.976 -1.05831 1.33169 0
M  V30 2097 O 201.161 -1.06995 1.62067 0
M  V30 2098 C 198.291 -1.55274 3.10656 0
M  V30 2099 C 197.245 -1.04855 4.14957 0
M  V30 2100 C 196.571 -2.26543 4.84337 0
M  V30 2101 C 197.871 -0.112324 5.22179 0
M  V30 2102 H 199.565 0.213867 2.98635 0
M  V30 2103 H 197.111 0.104298 1.43622 0
M  V30 2104 H 199.064 -2.1358 3.63265 0
M  V30 2105 H 197.788 -2.22266 2.39302 0
M  V30 2106 H 196.447 -0.487985 3.63338 0
M  V30 2107 H 196.095 -2.92059 4.09525 0
M  V30 2108 H 195.795 -1.93466 5.54837 0
M  V30 2109 H 197.319 -2.85481 5.39753 0
M  V30 2110 H 198.733 -0.603752 5.70112 0
M  V30 2111 H 197.13 0.128968 5.99961 0
M  V30 2112 H 198.2 0.837052 4.77621 0
M  V30 2113 N 199.544 -1.57102 0.125237 0
M  V30 2114 C 200.474 -2.18659 -0.819174 0
M  V30 2115 C 201.455 -1.12843 -1.27281 0
M  V30 2116 O 202.64 -1.41104 -1.33429 0
M  V30 2117 C 199.77 -2.79096 -2.06695 0
M  V30 2118 C 198.724 -3.90548 -1.75088 0
M  V30 2119 C 198.05 -4.37821 -3.06948 0
M  V30 2120 C 199.35 -5.12356 -1.01435 0
M  V30 2121 H 201.044 -2.9783 -0.306202 0
M  V30 2122 H 198.59 -1.4326 -0.145839 0
M  V30 2123 H 200.543 -3.2082 -2.73226 0
M  V30 2124 H 199.267 -1.97223 -2.60328 0
M  V30 2125 H 197.926 -3.49409 -1.10944 0
M  V30 2126 H 197.574 -3.52799 -3.58527 0
M  V30 2127 H 197.274 -5.12982 -2.86571 0
M  V30 2128 H 198.798 -4.822 -3.74587 0
M  V30 2129 H 200.212 -5.5106 -1.58132 0
M  V30 2130 H 198.609 -5.9314 -0.911319 0
M  V30 2131 H 199.679 -4.849 -0.00218681 0
M  V30 2132 N 201.022 0.148545 -1.56898 0
M  V30 2133 C 202.271 0.85984 -1.82454 0
M  V30 2134 C 202.584 1.82406 -0.706229 0
M  V30 2135 O 203.79 2.57938 -0.847349 0
M  V30 2136 C 202.246 1.57967 -3.2338 0
M  V30 2137 C 201.854 0.65794 -4.43142 0
M  V30 2138 C 203.598 2.27784 -3.58211 0
M  V30 2139 C 201.505 1.3793 -5.75091 0
M  V30 2140 H 200.435 0.324834 -0.68044 0
M  V30 2141 H 203.086 0.112588 -1.83154 0
M  V30 2142 H 201.468 2.37249 -3.17063 0
M  V30 2143 H 202.642 -0.0995497 -4.60692 0
M  V30 2144 H 200.957 0.0682643 -4.16344 0
M  V30 2145 H 203.554 2.8239 -4.54048 0
M  V30 2146 H 203.897 3.04204 -2.84193 0
M  V30 2147 H 204.43 1.55421 -3.66182 0
M  V30 2148 H 201.169 0.656982 -6.52199 0
M  V30 2149 H 200.689 2.10954 -5.61479 0
M  V30 2150 H 202.368 1.92063 -6.17835 0
M  V30 2151 N 202.5 1.5196 0.417844 0
M  V30 2152 C 203.463 1.74065 1.49111 0
M  V30 2153 C 204.463 0.610537 1.48758 0
M  V30 2154 O 205.653 0.87832 1.50437 0
M  V30 2155 C 202.785 1.81502 2.88565 0
M  V30 2156 H 203.978 2.69869 1.30807 0
M  V30 2157 H 201.531 1.42244 0.647785 0
M  V30 2158 H 202.266 0.875813 3.1225 0
M  V30 2159 H 202.051 2.63651 2.90225 0
M  V30 2160 H 203.541 2.00376 3.66387 0
M  V30 2161 N 203.978 -0.674533 1.42435 0
M  V30 2162 C 204.908 -1.80009 1.48724 0
M  V30 2163 C 205.889 -1.6659 0.343793 0
M  V30 2164 O 207.074 -1.86007 0.558137 0
M  V30 2165 C 204.204 -3.18306 1.38919 0
M  V30 2166 C 203.158 -3.46461 2.51294 0
M  V30 2167 C 202.484 -4.84335 2.26547 0
M  V30 2168 C 203.784 -3.43328 3.93603 0
M  V30 2169 H 205.478 -1.75004 2.42928 0
M  V30 2170 H 203.024 -0.840533 1.16923 0
M  V30 2171 H 204.977 -3.9678 1.41927 0
M  V30 2172 H 203.701 -3.2399 0.412094 0
M  V30 2173 H 202.36 -2.70348 2.47604 0
M  V30 2174 H 202.008 -4.86669 1.2713 0
M  V30 2175 H 201.708 -5.04136 3.01861 0
M  V30 2176 H 203.232 -5.65094 2.31304 0
M  V30 2177 H 204.646 -4.11772 3.98894 0
M  V30 2178 H 203.043 -3.74664 4.68771 0
M  V30 2179 H 204.113 -2.41897 4.20255 0
M  V30 2180 N 205.456 -1.28612 -0.910864 0
M  V30 2181 C 206.386 -1.15326 -2.03032 0
M  V30 2182 C 207.367 -0.0502924 -1.70026 0
M  V30 2183 O 208.552 -0.227797 -1.92859 0
M  V30 2184 C 205.682 -0.817343 -3.37545 0
M  V30 2185 C 204.636 -1.8754 -3.84724 0
M  V30 2186 C 203.962 -1.39305 -5.16235 0
M  V30 2187 C 205.262 -3.28244 -4.06267 0
M  V30 2188 H 206.956 -2.08975 -2.14406 0
M  V30 2189 H 204.502 -1.00612 -1.03021 0
M  V30 2190 H 206.455 -0.711151 -4.15356 0
M  V30 2191 H 205.179 0.154846 -3.26233 0
M  V30 2192 H 203.838 -1.97079 -3.09121 0
M  V30 2193 H 203.486 -0.409846 -5.01328 0
M  V30 2194 H 203.186 -2.10057 -5.48771 0
M  V30 2195 H 204.71 -1.30014 -5.96598 0
M  V30 2196 H 206.124 -3.21611 -4.74594 0
M  V30 2197 H 204.521 -3.96855 -4.5014 0
M  V30 2198 H 205.591 -3.72048 -3.10979 0
M  V30 2199 N 206.934 1.1197 -1.10907 0
M  V30 2200 C 208.18 1.8386 -0.855773 0
M  V30 2201 C 208.513 1.84134 0.617103 0
M  V30 2202 O 207.788 1.29041 1.45529 0
M  V30 2203 C 208.071 3.31305 -1.411 0
M  V30 2204 C 207.924 3.39456 -2.9511 0
M  V30 2205 C 209.243 4.2721 -1.05736 0
M  V30 2206 H 206.362 0.667545 -0.312334 0
M  V30 2207 H 209.004 1.31331 -1.37303 0
M  V30 2208 H 207.154 3.76169 -0.97105 0
M  V30 2209 H 208.826 3.03191 -3.47668 0
M  V30 2210 H 207.069 2.79849 -3.31462 0
M  V30 2211 H 207.74 4.43209 -3.29044 0
M  V30 2212 H 210.216 3.90497 -1.43706 0
M  V30 2213 H 209.092 5.28775 -1.47269 0
M  V30 2214 H 209.353 4.42088 0.0325958 0
M  V30 2215 N 208.412 0.89855 1.29475 0
M  V30 2216 C 209.642 0.538479 1.99459 0
M  V30 2217 C 210.05 -0.880922 1.67441 0
M  V30 2218 O 209.393 -1.59283 0.915127 0
M  V30 2219 C 209.455 0.649564 3.53583 0
M  V30 2220 C 209.119 2.03573 4.09154 0
M  V30 2221 C 210.116 3.00675 4.24135 0
M  V30 2222 C 207.801 2.3448 4.44212 0
M  V30 2223 C 209.795 4.26809 4.73405 0
M  V30 2224 C 207.482 3.60857 4.93179 0
M  V30 2225 C 208.48 4.56836 5.0773 0
M  V30 2226 O 208.168 5.80969 5.55635 0
M  V30 2227 H 207.9 0.205372 0.644048 0
M  V30 2228 H 210.454 1.20958 1.66007 0
M  V30 2229 H 208.684 -0.0785592 3.8662 0
M  V30 2230 H 210.373 0.29881 4.04799 0
M  V30 2231 H 211.139 2.78112 3.97339 0
M  V30 2232 H 207.018 1.60534 4.32145 0
M  V30 2233 H 210.562 5.0173 4.84678 0
M  V30 2234 H 206.459 3.83251 5.19412 0
M  V30 2235 H 207.227 5.83542 5.73952 0
M  V30 2236 N 209.89 -1.43072 0.660911 0
M  V30 2237 C 211.136 -2.02545 0.186337 0
M  V30 2238 C 211.491 -1.51253 -1.18913 0
M  V30 2239 O 210.784 -0.699167 -1.78388 0
M  V30 2240 C 210.978 -3.57103 0.145563 0
M  V30 2241 C 210.807 -4.23393 1.51554 0
M  V30 2242 C 209.577 -4.59144 2.10984 0
M  V30 2243 C 211.775 -4.51897 2.45548 0
M  V30 2244 N 209.757 -5.10545 3.40907 0
M  V30 2245 C 211.128 -5.04698 3.6011 0
M  V30 2246 C 213.183 -4.33872 2.44253 0
M  V30 2247 C 211.886 -5.41371 4.73613 0
M  V30 2248 C 213.912 -4.71612 3.56842 0
M  V30 2249 C 213.274 -5.24553 4.70131 0
M  V30 2250 H 209.373 -0.773823 0.112792 0
M  V30 2251 H 211.957 -1.74137 0.870885 0
M  V30 2252 H 210.128 -3.85059 -0.508353 0
M  V30 2253 H 211.86 -4.03264 -0.340598 0
M  V30 2254 H 208.615 -4.4444 1.63615 0
M  V30 2255 H 209.039 -5.40689 4.07411 0
M  V30 2256 H 213.681 -3.92208 1.579 0
M  V30 2257 H 211.399 -5.81975 5.60652 0
M  V30 2258 H 214.985 -4.59354 3.57051 0
M  V30 2259 H 213.865 -5.53213 5.5581 0
M  V30 2260 N 211.368 -0.403325 -1.52352 0
M  V30 2261 C 212.596 0.174012 -2.06167 0
M  V30 2262 C 213.011 1.39347 -1.27388 0
M  V30 2263 O 212.368 1.79597 -0.324201 0
M  V30 2264 C 212.419 0.530223 -3.5759 0
M  V30 2265 O 212.14 -0.640806 -4.33388 0
M  V30 2266 C 213.641 1.16192 -4.27802 0
M  V30 2267 H 210.861 0.0229464 -0.670608 0
M  V30 2268 H 213.405 -0.572604 -1.9632 0
M  V30 2269 H 211.56 1.22673 -3.67464 0
M  V30 2270 H 211.974 -0.344851 -5.23365 0
M  V30 2271 H 213.448 1.36141 -5.34948 0
M  V30 2272 H 213.925 2.13335 -3.83907 0
M  V30 2273 H 214.531 0.505775 -4.22282 0
M  V30 2274 N 212.846 1.57033 -0.133567 0
M  V30 2275 C 213.776 2.1909 0.807567 0
M  V30 2276 C 214.757 1.13517 1.26681 0
M  V30 2277 O 215.942 1.41809 1.32679 0
M  V30 2278 C 213.072 2.80188 2.05212 0
M  V30 2279 C 212.026 3.91471 1.73015 0
M  V30 2280 C 211.352 4.39443 3.04622 0
M  V30 2281 C 212.652 5.12886 0.987168 0
M  V30 2282 H 214.346 2.97988 0.290403 0
M  V30 2283 H 211.892 1.43335 0.138239 0
M  V30 2284 H 213.845 3.22264 2.71521 0
M  V30 2285 H 212.569 1.98601 2.59278 0
M  V30 2286 H 211.228 3.49993 1.0909 0
M  V30 2287 H 210.876 3.54695 3.56651 0
M  V30 2288 H 210.576 5.14495 2.83847 0
M  V30 2289 H 212.1 4.8418 3.72024 0
M  V30 2290 H 213.514 5.51891 1.55208 0
M  V30 2291 H 211.911 5.93615 0.87985 0
M  V30 2292 H 212.981 4.84894 -0.0235286 0
M  V30 2293 N 214.325 -0.140222 1.56975 0
M  V30 2294 C 215.288 -1.15689 1.97861 0
M  V30 2295 C 216.288 -1.3549 0.865974 0
M  V30 2296 O 217.478 -1.32367 1.13246 0
M  V30 2297 C 214.61 -2.51582 2.30042 0
M  V30 2298 H 215.803 -0.805971 2.88867 0
M  V30 2299 H 213.356 -0.383801 1.51515 0
M  V30 2300 H 214.091 -2.91632 1.41849 0
M  V30 2301 H 213.876 -2.38569 3.11171 0
M  V30 2302 H 215.366 -3.24792 2.62488 0
M  V30 2303 N 215.803 -1.52179 -0.40978 0
M  V30 2304 C 217.05 -1.66206 -1.15679 0
M  V30 2305 C 217.378 -0.391674 -1.90516 0
M  V30 2306 O 216.633 0.62533 -1.8544 0
M  V30 2307 C 216.932 -2.83428 -2.17723 0
M  V30 2308 C 216.598 -4.21672 -1.59699 0
M  V30 2309 C 215.26 -4.59274 -1.43599 0
M  V30 2310 C 217.612 -5.07825 -1.17317 0
M  V30 2311 C 214.94 -5.80709 -0.836328 0
M  V30 2312 C 217.292 -6.29864 -0.587691 0
M  V30 2313 C 215.956 -6.66216 -0.413818 0
M  V30 2314 H 215.226 -0.608192 -0.423301 0
M  V30 2315 H 217.873 -1.86279 -0.444097 0
M  V30 2316 H 216.178 -2.57687 -2.95135 0
M  V30 2317 H 217.875 -2.91477 -2.75394 0
M  V30 2318 H 214.465 -3.9204 -1.73213 0
M  V30 2319 H 218.649 -4.79359 -1.28565 0
M  V30 2320 H 213.905 -6.07498 -0.689626 0
M  V30 2321 H 218.079 -6.95948 -0.250894 0
M  V30 2322 H 215.706 -7.60182 0.0529471 0
M  V30 2323 N 217.281 0.66697 -1.42791 0
M  V30 2324 C 218.53 1.42278 -1.42968 0
M  V30 2325 C 218.843 1.9553 -0.0524489 0
M  V30 2326 O 220.049 2.71414 0.068363 0
M  V30 2327 C 218.505 2.57418 -2.51524 0
M  V30 2328 C 218.113 2.10832 -3.9529 0
M  V30 2329 C 219.857 3.34878 -2.60877 0
M  V30 2330 C 217.764 3.23101 -4.95338 0
M  V30 2331 H 216.694 0.534533 -0.531781 0
M  V30 2332 H 219.345 0.721302 -1.68729 0
M  V30 2333 H 217.727 3.29971 -2.18941 0
M  V30 2334 H 218.901 1.4538 -4.37266 0
M  V30 2335 H 217.216 1.46289 -3.89857 0
M  V30 2336 H 219.813 4.18505 -3.32802 0
M  V30 2337 H 220.156 3.81993 -1.6549 0
M  V30 2338 H 220.689 2.69398 -2.92693 0
M  V30 2339 H 217.428 2.80969 -5.9223 0
M  V30 2340 H 216.948 3.87309 -4.57987 0
M  V30 2341 H 218.627 3.88447 -5.17415 0
M  V30 2342 N 218.759 1.29093 0.90403 0
M  V30 2343 C 219.987 1.19689 1.68766 0
M  V30 2344 C 220.402 -0.243113 1.87228 0
M  V30 2345 O 219.759 -1.16326 1.40621 0
M  V30 2346 C 219.81 1.90144 3.07453 0
M  V30 2347 O 219.531 3.2852 2.89838 0
M  V30 2348 C 221.032 1.87162 4.01852 0
M  V30 2349 H 218.252 0.415035 0.527244 0
M  V30 2350 H 220.796 1.7039 1.13082 0
M  V30 2351 H 218.951 1.43289 3.59926 0
M  V30 2352 H 219.365 3.63944 3.77684 0
M  V30 2353 H 220.839 2.41032 4.96596 0
M  V30 2354 H 221.316 0.84617 4.30972 0
M  V30 2355 H 221.922 2.33741 3.5531 0
M  V30 2356 N 220.237 -1.11381 1.11499 0
M  V30 2357 C 221.184 -2.17439 0.773887 0
M  V30 2358 C 222.154 -1.64132 -0.254899 0
M  V30 2359 O 223.339 -1.90345 -0.13168 0
M  V30 2360 C 220.479 -3.44373 0.223917 0
M  V30 2361 C 219.592 -4.1168 1.30934 0
M  V30 2362 C 218.727 -5.263 0.71984 0
M  V30 2363 C 217.766 -5.85493 1.78507 0
M  V30 2364 N 216.903 -6.91507 1.21502 0
M  V30 2365 H 221.743 -2.45962 1.68246 0
M  V30 2366 H 219.28 -1.20744 0.840191 0
M  V30 2367 H 221.238 -4.17047 -0.112921 0
M  V30 2368 H 219.868 -3.16232 -0.647851 0
M  V30 2369 H 218.92 -3.37073 1.76312 0
M  V30 2370 H 220.232 -4.51729 2.11524 0
M  V30 2371 H 219.386 -6.05785 0.333094 0
M  V30 2372 H 218.125 -4.87559 -0.117377 0
M  V30 2373 H 217.13 -5.04686 2.18111 0
M  V30 2374 H 218.355 -6.26301 2.62533 0
M  V30 2375 H 216.301 -6.54783 0.399455 0
M  V30 2376 H 216.218 -7.30214 1.95763 0
M  V30 2377 H 217.486 -7.74795 0.855181 0
M  V30 2378 N 221.715 -0.905404 -1.28997 0
M  V30 2379 C 222.943 -0.549846 -1.9946 0
M  V30 2380 C 223.358 0.866834 -1.67724 0
M  V30 2381 O 222.715 1.57298 -0.925404 0
M  V30 2382 C 222.766 -0.739387 -3.53858 0
M  V30 2383 O 222.487 -2.10031 -3.84472 0
M  V30 2384 C 223.988 -0.389541 -4.41585 0
M  V30 2385 H 221.208 -0.210429 -0.637151 0
M  V30 2386 H 223.752 -1.21632 -1.64396 0
M  V30 2387 H 221.907 -0.120023 -3.87214 0
M  V30 2388 H 222.321 -2.13385 -4.79132 0
M  V30 2389 H 223.795 -0.572972 -5.49018 0
M  V30 2390 H 224.272 0.673756 -4.34001 0
M  V30 2391 H 224.878 -0.986089 -4.1371 0
M  V30 2392 N 223.193 1.4272 -0.668489 0
M  V30 2393 C 224.442 2.00846 -0.185389 0
M  V30 2394 C 224.755 1.53442 1.21305 0
M  V30 2395 O 225.961 2.03944 1.79218 0
M  V30 2396 C 224.417 3.58805 -0.280591 0
M  V30 2397 C 224.025 4.15198 -1.68268 0
M  V30 2398 C 225.769 4.24255 0.14412 0
M  V30 2399 C 223.676 5.655 -1.73099 0
M  V30 2400 H 222.606 0.751145 -0.0655475 0
M  V30 2401 H 225.257 1.63516 -0.832752 0
M  V30 2402 H 223.639 3.93608 0.434553 0
M  V30 2403 H 224.813 3.91866 -2.42441 0
M  V30 2404 H 223.128 3.62176 -2.05469 0
M  V30 2405 H 225.725 5.34547 0.128086 0
M  V30 2406 H 226.068 3.99277 1.17827 0
M  V30 2407 H 226.601 3.94389 -0.519798 0
M  V30 2408 H 223.34 5.95268 -2.74475 0
M  V30 2409 H 222.86 5.90842 -1.03274 0
M  V30 2410 H 224.539 6.29808 -1.48158 0
M  V30 2411 N 224.671 0.411399 1.52136 0
M  V30 2412 C 225.618 -0.412975 2.27075 0
M  V30 2413 C 226.588 -1.03912 1.29582 0
M  V30 2414 O 227.773 -1.06296 1.58448 0
M  V30 2415 C 224.913 -1.52247 3.09701 0
M  V30 2416 C 224.026 -0.917021 4.22155 0
M  V30 2417 C 223.161 -1.9994 4.92135 0
M  V30 2418 C 222.2 -1.37101 5.96548 0
M  V30 2419 N 221.337 -2.39364 6.60038 0
M  V30 2420 H 226.177 0.232499 2.97092 0
M  V30 2421 H 223.714 0.126496 1.46555 0
M  V30 2422 H 225.672 -2.17674 3.55913 0
M  V30 2423 H 224.302 -2.13794 2.41851 0
M  V30 2424 H 223.354 -0.151742 3.80097 0
M  V30 2425 H 224.666 -0.418006 4.97045 0
M  V30 2426 H 223.82 -2.73088 5.41763 0
M  V30 2427 H 222.559 -2.53208 4.16818 0
M  V30 2428 H 221.564 -0.624873 5.46237 0
M  V30 2429 H 222.789 -0.845998 6.7381 0
M  V30 2430 H 220.735 -2.91759 5.87548 0
M  V30 2431 H 220.652 -1.9428 7.3061 0
M  V30 2432 H 221.92 -3.12074 7.14304 0
M  V30 2433 N 226.149 -1.5696 0.141893 0
M  V30 2434 C 227.396 -1.9596 -0.510492 0
M  V30 2435 C 227.724 -1.02648 -1.65208 0
M  V30 2436 O 226.979 -0.0546947 -1.95624 0
M  V30 2437 C 227.278 -3.41242 -1.06249 0
M  V30 2438 C 226.944 -4.50882 -0.0398791 0
M  V30 2439 C 225.606 -4.80595 0.241247 0
M  V30 2440 C 227.958 -5.17058 0.65578 0
M  V30 2441 C 225.286 -5.73792 1.22393 0
M  V30 2442 C 227.638 -6.11313 1.62724 0
M  V30 2443 C 226.302 -6.39407 1.91612 0
M  V30 2444 H 225.572 -0.717068 -0.186802 0
M  V30 2445 H 228.219 -1.90142 0.227643 0
M  V30 2446 H 226.524 -3.43866 -1.87785 0
M  V30 2447 H 228.221 -3.68742 -1.57576 0
M  V30 2448 H 224.811 -4.27754 -0.269174 0
M  V30 2449 H 228.995 -4.94239 0.451779 0
M  V30 2450 H 224.251 -5.93853 1.45424 0
M  V30 2451 H 228.425 -6.61668 2.17183 0
M  V30 2452 H 226.052 -7.11427 2.6791 0
M  V30 2453 N 227.627 0.131896 -1.57047 0
M  V30 2454 C 228.873 0.843179 -1.84441 0
M  V30 2455 C 229.206 1.80129 -0.725749 0
M  V30 2456 O 228.481 1.92624 0.269469 0
M  V30 2457 C 228.764 1.60442 -3.22382 0
M  V30 2458 C 228.617 0.666782 -4.4483 0
M  V30 2459 C 229.936 2.56354 -3.5773 0
M  V30 2460 H 227.055 0.305081 -0.670891 0
M  V30 2461 H 229.697 0.107839 -1.89694 0
M  V30 2462 H 227.847 2.23128 -3.18035 0
M  V30 2463 H 229.519 0.0497646 -4.61273 0
M  V30 2464 H 227.762 -0.022609 -4.33794 0
M  V30 2465 H 228.433 1.23579 -5.37989 0
M  V30 2466 H 230.909 2.0378 -3.62785 0
M  V30 2467 H 229.785 3.06657 -4.5525 0
M  V30 2468 H 230.046 3.38419 -2.84473 0
M  V30 2469 N 229.106 1.52395 0.401703 0
M  V30 2470 C 230.053 1.76268 1.48991 0
M  V30 2471 C 231.023 0.605386 1.54675 0
M  V30 2472 O 232.208 0.843742 1.7113 0
M  V30 2473 C 229.348 1.92592 2.86361 0
M  V30 2474 C 228.461 3.20259 2.89928 0
M  V30 2475 C 227.596 3.26972 4.18644 0
M  V30 2476 C 226.635 4.48812 4.16214 0
M  V30 2477 N 225.772 4.52877 5.36514 0
M  V30 2478 H 230.612 2.6914 1.27935 0
M  V30 2479 H 228.149 1.33355 0.620871 0
M  V30 2480 H 230.107 2.0004 3.66115 0
M  V30 2481 H 228.737 1.03093 3.05895 0
M  V30 2482 H 227.789 3.21945 2.02621 0
M  V30 2483 H 229.101 4.10056 2.83999 0
M  V30 2484 H 228.255 3.33533 5.06794 0
M  V30 2485 H 226.994 2.35126 4.27278 0
M  V30 2486 H 225.999 4.4239 3.26453 0
M  V30 2487 H 227.224 5.41961 4.09213 0
M  V30 2488 H 225.17 3.63917 5.45802 0
M  V30 2489 H 225.087 5.36529 5.32609 0
M  V30 2490 H 226.355 4.63676 6.26597 0
M  V30 2491 N 230.584 -0.659388 1.43143 0
M  V30 2492 C 231.831 -1.41935 1.44433 0
M  V30 2493 C 232.159 -1.94387 0.0663522 0
M  V30 2494 O 231.414 -1.72314 -0.927706 0
M  V30 2495 C 231.713 -2.62206 2.42864 0
M  V30 2496 C 231.379 -2.28208 3.88886 0
M  V30 2497 C 230.041 -2.18647 4.28657 0
M  V30 2498 C 232.393 -2.00887 4.8093 0
M  V30 2499 C 229.721 -1.79914 5.58433 0
M  V30 2500 C 232.073 -1.63653 6.11065 0
M  V30 2501 C 230.737 -1.52614 6.49819 0
M  V30 2502 H 230.007 -0.519376 0.528517 0
M  V30 2503 H 232.654 -0.750453 1.76183 0
M  V30 2504 H 230.959 -3.34199 2.04495 0
M  V30 2505 H 232.656 -3.2041 2.41119 0
M  V30 2506 H 229.246 -2.36557 3.57406 0
M  V30 2507 H 233.43 -2.07198 4.5098 0
M  V30 2508 H 228.686 -1.69948 5.87305 0
M  V30 2509 H 232.86 -1.41543 6.81864 0
M  V30 2510 H 230.487 -1.22371 7.50286 0
M  V30 2511 N 232.062 -1.29571 -0.897171 0
M  V30 2512 C 232.992 -1.17473 -2.01798 0
M  V30 2513 C 233.973 -0.068323 -1.69963 0
M  V30 2514 O 235.158 -0.248239 -1.92607 0
M  V30 2515 C 232.288 -0.853099 -3.36659 0
M  V30 2516 C 231.242 -1.9161 -3.82713 0
M  V30 2517 C 230.568 -1.44773 -5.14728 0
M  V30 2518 C 231.868 -3.32535 -4.02763 0
M  V30 2519 H 233.562 -2.11237 -2.12177 0
M  V30 2520 H 231.108 -1.01699 -1.01948 0
M  V30 2521 H 233.061 -0.755165 -4.14578 0
M  V30 2522 H 231.785 0.120236 -3.26379 0
M  V30 2523 H 230.444 -2.00346 -3.07013 0
M  V30 2524 H 230.092 -0.462995 -5.00865 0
M  V30 2525 H 229.792 -2.15865 -5.46513 0
M  V30 2526 H 231.316 -1.36334 -5.95185 0
M  V30 2527 H 232.73 -3.26626 -4.71156 0
M  V30 2528 H 231.127 -4.01607 -4.45905 0
M  V30 2529 H 232.197 -3.75326 -3.07016 0
M  V30 2530 N 233.54 1.10788 -1.12088 0
M  V30 2531 C 234.817 1.79136 -0.785476 0
M  V30 2532 C 235.197 1.98246 0.725377 0
M  V30 2533 O 234.545 1.57258 1.65778 0
M  V30 2534 C 234.755 3.12375 -1.55636 0
M  V30 2535 C 236.103 3.8731 -1.74001 0
M  V30 2536 O 237.127 3.22085 -1.52117 0
M  V30 2537 O 235.986 5.04369 -2.10415 0
M  V30 2538 H 233.08 0.776226 -0.285311 0
M  V30 2539 H 235.626 1.1747 -1.2247 0
M  V30 2540 H 234.398 2.93863 -2.5838 0
M  V30 2541 H 234.021 3.81758 -1.11114 0
M  V30 2542 N 235.018 0.912232 1.28515 0
M  V30 2543 C 235.968 0.370649 2.24967 0
M  V30 2544 C 236.952 -0.516375 1.52389 0
M  V30 2545 O 238.144 -0.356345 1.73376 0
M  V30 2546 C 235.273 -0.389526 3.41083 0
M  V30 2547 C 234.359 0.51313 4.20984 0
M  V30 2548 N 234.75 1.62604 4.78951 0
M  V30 2549 C 233.048 0.313235 4.44899 0
M  V30 2550 C 233.749 2.18619 5.39055 0
M  V30 2551 N 232.725 1.47765 5.23132 0
M  V30 2552 H 236.527 1.22061 2.67354 0
M  V30 2553 H 234.041 0.764712 1.43269 0
M  V30 2554 H 236.038 -0.794353 4.09262 0
M  V30 2555 H 234.698 -1.2366 3.0023 0
M  V30 2556 H 235.709 2.00864 4.77362 0
M  V30 2557 H 232.386 -0.494452 4.14562 0
M  V30 2558 H 233.776 3.12228 5.94948 0
M  V30 2559 N 236.496 -1.42363 0.676048 0
M  V30 2560 C 237.459 -2.29199 0.00766941 0
M  V30 2561 C 238.459 -1.43389 -0.727745 0
M  V30 2562 O 239.649 -1.64764 -0.56556 0
M  V30 2563 C 236.781 -3.2591 -0.999785 0
M  V30 2564 H 237.974 -2.89794 0.771988 0
M  V30 2565 H 235.527 -1.50024 0.438468 0
M  V30 2566 H 236.262 -2.70256 -1.79255 0
M  V30 2567 H 236.047 -3.89202 -0.475829 0
M  V30 2568 H 237.537 -3.91028 -1.46583 0
M  V30 2569 N 237.974 -0.419461 -1.51915 0
M  V30 2570 C 239.223 0.154346 -2.01109 0
M  V30 2571 C 239.536 1.45338 -1.30905 0
M  V30 2572 O 240.742 2.10906 -1.7097 0
M  V30 2573 C 239.198 0.325615 -3.58424 0
M  V30 2574 C 238.806 -0.961934 -4.37551 0
M  V30 2575 C 240.55 0.854155 -4.15818 0
M  V30 2576 C 238.457 -0.757287 -5.86531 0
M  V30 2577 H 237.387 0.0614563 -0.751491 0
M  V30 2578 H 240.038 -0.54649 -1.75173 0
M  V30 2579 H 238.42 1.08903 -3.80731 0
M  V30 2580 H 239.594 -1.7323 -4.26999 0
M  V30 2581 H 237.909 -1.41766 -3.91524 0
M  V30 2582 H 240.506 1.02346 -5.24814 0
M  V30 2583 H 240.849 1.83172 -3.73837 0
M  V30 2584 H 241.382 0.149528 -3.97519 0
M  V30 2585 H 238.121 -1.70671 -6.32892 0
M  V30 2586 H 237.641 -0.0264061 -5.99794 0
M  V30 2587 H 239.32 -0.403482 -6.45741 0
M  V30 2588 N 239.452 1.56882 -0.150215 0
M  V30 2589 C 240.7 1.9584 0.499105 0
M  V30 2590 C 241.021 1.03623 1.65188 0
M  V30 2591 O 240.291 0.0984084 1.95653 0
M  V30 2592 H 238.871 0.723119 0.187373 0
M  V30 2593 H 241.533 1.9358 -0.226466 0
M  V30 2594 H 240.629 2.99638 0.873122 0
M  V30 2595 N 240.93 -0.123565 1.57115 0
M  V30 2596 C 242.177 -0.832153 1.84612 0
M  V30 2597 C 242.505 -1.80093 0.734627 0
M  V30 2598 O 241.76 -1.93766 -0.27442 0
M  V30 2599 C 242.059 -1.62016 3.18568 0
M  V30 2600 C 241.725 -0.796084 4.43817 0
M  V30 2601 C 240.387 -0.568816 4.77826 0
M  V30 2602 C 242.739 -0.221364 5.2073 0
M  V30 2603 C 240.067 0.243499 5.86194 0
M  V30 2604 C 242.419 0.578117 6.29953 0
M  V30 2605 C 241.083 0.815744 6.62497 0
M  V30 2606 H 240.353 -0.304507 0.675542 0
M  V30 2607 H 243 -0.0947248 1.91266 0
M  V30 2608 H 241.305 -2.42837 3.0747 0
M  V30 2609 H 243.002 -2.17231 3.37064 0
M  V30 2610 H 239.592 -0.983307 4.17168 0
M  V30 2611 H 243.776 -0.384173 4.94811 0
M  V30 2612 H 239.032 0.436871 6.09837 0
M  V30 2613 H 243.206 1.03046 6.88734 0
M  V30 2614 H 240.833 1.44701 7.46301 0
M  V30 2615 N 242.408 -1.52605 -0.393616 0
M  V30 2616 C 243.633 -1.71592 -1.16495 0
M  V30 2617 C 244.058 -0.43133 -1.83088 0
M  V30 2618 O 243.416 0.612523 -1.7064 0
M  V30 2619 C 243.464 -2.86318 -2.19213 0
M  V30 2620 O 242.568 -2.52969 -3.257 0
M  V30 2621 H 241.909 -0.570734 -0.33935 0
M  V30 2622 H 244.439 -1.99377 -0.459324 0
M  V30 2623 H 244.449 -3.1168 -2.63286 0
M  V30 2624 H 243.124 -3.79511 -1.7013 0
M  V30 2625 H 241.701 -2.38332 -2.86797 0
M  V30 2626 N 243.887 0.651787 -1.4349 0
M  V30 2627 C 244.819 1.77725 -1.44729 0
M  V30 2628 C 245.832 1.59141 -0.343231 0
M  V30 2629 O 247.021 1.67835 -0.607751 0
M  V30 2630 C 244.121 3.15172 -1.24579 0
M  V30 2631 C 243.294 3.60402 -2.47849 0
M  V30 2632 C 242.353 4.76656 -2.22902 0
M  V30 2633 O 241.379 4.86022 -2.96263 0
M  V30 2634 N 242.581 5.66958 -1.24656 0
M  V30 2635 H 245.346 1.77141 -2.41746 0
M  V30 2636 H 242.907 0.835678 -1.38665 0
M  V30 2637 H 244.899 3.90634 -1.0577 0
M  V30 2638 H 243.469 3.1052 -0.360015 0
M  V30 2639 H 242.689 2.75369 -2.82073 0
M  V30 2640 H 243.977 3.87368 -3.29884 0
M  V30 2641 H 243.375 5.62065 -0.640265 0
M  V30 2642 H 241.932 6.42135 -1.1183 0
M  V30 2643 N 245.365 1.30045 0.890287 0
M  V30 2644 C 246.295 1.18541 2.01172 0
M  V30 2645 C 247.276 0.0773356 1.69924 0
M  V30 2646 O 248.461 0.25845 1.92473 0
M  V30 2647 C 245.591 0.870941 3.36202 0
M  V30 2648 C 244.545 1.93637 3.81692 0
M  V30 2649 C 243.871 1.475 5.13953 0
M  V30 2650 C 245.171 3.34666 4.00994 0
M  V30 2651 H 246.865 2.12359 2.11054 0
M  V30 2652 H 244.411 1.02238 1.01407 0
M  V30 2653 H 246.364 0.777141 4.14172 0
M  V30 2654 H 245.088 -0.102926 3.26438 0
M  V30 2655 H 243.747 2.01972 3.05946 0
M  V30 2656 H 243.395 0.489551 5.00612 0
M  V30 2657 H 243.095 2.1876 5.4536 0
M  V30 2658 H 244.619 1.39489 5.94454 0
M  V30 2659 H 246.033 3.2912 4.69417 0
M  V30 2660 H 244.43 4.03966 4.43769 0
M  V30 2661 H 245.5 3.76949 3.05021 0
M  V30 2662 N 246.843 -1.10192 1.12674 0
M  V30 2663 C 248.259 -1.34235 0.863317 0
M  V30 2664 C 248.459 -1.95062 -0.505277 0
M  V30 2665 O 247.515 -2.19192 -1.25345 0
M  V30 2666 C 248.828 -2.2616 1.98172 0
M  V30 2667 C 250.376 -2.3969 2.0129 0
M  V30 2668 C 250.851 -3.34946 3.1237 0
M  V30 2669 N 252.342 -3.42515 3.11829 0
M  V30 2670 C 253.077 -4.16199 3.94419 0
M  V30 2671 N 252.573 -4.92747 4.87004 0
M  V30 2672 N 254.366 -4.11843 3.82547 0
M  V30 2673 H 246.517 -0.690798 2.00853 0
M  V30 2674 H 248.78 -0.366774 0.874174 0
M  V30 2675 H 248.486 -1.8868 2.96804 0
M  V30 2676 H 248.36 -3.26488 1.88906 0
M  V30 2677 H 250.747 -2.76438 1.03276 0
M  V30 2678 H 250.828 -1.39169 2.14629 0
M  V30 2679 H 250.472 -2.98923 4.10619 0
M  V30 2680 H 250.402 -4.35353 2.96269 0
M  V30 2681 H 252.893 -2.87926 2.44759 0
M  V30 2682 H 253.206 -5.46376 5.46528 0
M  V30 2683 H 251.551 -4.91862 4.91016 0
M  V30 2684 H 254.742 -3.51136 3.0955 0
M  V30 2685 H 254.915 -4.69007 4.47142 0
M  V30 2686 N 248.321 -0.919034 -1.28029 0
M  V30 2687 C 249.568 -0.554934 -1.94748 0
M  V30 2688 C 249.896 0.90231 -1.72304 0
M  V30 2689 O 249.151 1.65767 -1.04018 0
M  V30 2690 C 249.45 -0.816855 -3.4794 0
M  V30 2691 C 249.116 -2.25448 -3.90492 0
M  V30 2692 C 247.778 -2.64752 -4.01821 0
M  V30 2693 C 250.13 -3.18977 -4.12193 0
M  V30 2694 C 247.458 -3.96727 -4.32232 0
M  V30 2695 C 249.81 -4.50523 -4.44086 0
M  V30 2696 C 248.474 -4.89673 -4.53626 0
M  V30 2697 H 247.744 -0.203065 -0.712633 0
M  V30 2698 H 250.391 -1.16136 -1.52265 0
M  V30 2699 H 248.696 -0.127677 -3.91592 0
M  V30 2700 H 250.393 -0.514238 -3.97689 0
M  V30 2701 H 246.983 -1.93952 -3.82205 0
M  V30 2702 H 251.167 -2.89817 -4.02889 0
M  V30 2703 H 246.423 -4.26754 -4.37825 0
M  V30 2704 H 250.597 -5.23005 -4.59825 0
M  V30 2705 H 248.224 -5.91969 -4.76946 0
M  V30 2706 N 249.799 1.42003 -0.683588 0
M  V30 2707 C 251.039 2.03282 -0.213513 0
M  V30 2708 C 251.403 1.52924 1.16097 0
M  V30 2709 O 252.604 2.06048 1.7262 0
M  V30 2710 C 250.875 3.56483 -0.255856 0
M  V30 2711 S 252.434 4.3857 0.14193 0
M  V30 2712 H 249.252 0.705659 -0.0869853 0
M  V30 2713 H 251.854 1.73619 -0.8987 0
M  V30 2714 H 250.558 3.90631 -1.25841 0
M  V30 2715 H 250.089 3.90831 0.448875 0
M  V30 2716 H 252.104 4.76828 1.37295 0
M  V30 2717 N 251.277 0.427512 1.51691 0
M  V30 2718 C 252.207 -0.3796 2.30394 0
M  V30 2719 C 253.188 -1.02982 1.35384 0
M  V30 2720 O 254.373 -1.03534 1.643 0
M  V30 2721 C 251.503 -1.48649 3.1388 0
M  V30 2722 C 250.457 -0.960294 4.17088 0
M  V30 2723 C 249.783 -2.16219 4.89033 0
M  V30 2724 C 251.083 -0.00153679 5.223 0
M  V30 2725 H 252.777 0.277164 2.98114 0
M  V30 2726 H 250.323 0.134739 1.43368 0
M  V30 2727 H 252.276 -2.05826 3.67714 0
M  V30 2728 H 251 -2.1714 2.43962 0
M  V30 2729 H 249.659 -0.410806 3.64291 0
M  V30 2730 H 249.307 -2.83307 4.15628 0
M  V30 2731 H 249.007 -1.81654 5.58816 0
M  V30 2732 H 250.531 -2.73968 5.45687 0
M  V30 2733 H 251.945 -0.482687 5.71264 0
M  V30 2734 H 250.342 0.256199 5.99553 0
M  V30 2735 H 251.412 0.938174 4.75738 0
M  V30 2736 N 252.755 -1.56801 0.158532 0
M  V30 2737 C 253.983 -2.00859 -0.496303 0
M  V30 2738 C 254.398 -1.03871 -1.57659 0
M  V30 2739 O 253.755 -0.0375165 -1.82461 0
M  V30 2740 C 253.806 -3.4479 -1.08638 0
M  V30 2741 O 253.527 -4.38072 -0.0492322 0
M  V30 2742 C 255.028 -4.04185 -1.8207 0
M  V30 2743 H 252.248 -0.65864 -0.128199 0
M  V30 2744 H 254.792 -2.02885 0.256506 0
M  V30 2745 H 252.947 -3.43579 -1.78975 0
M  V30 2746 H 253.361 -5.2227 -0.483102 0
M  V30 2747 H 254.835 -5.06857 -2.18633 0
M  V30 2748 H 255.312 -3.45549 -2.71095 0
M  V30 2749 H 255.918 -4.0906 -1.16405 0
M  V30 2750 N 254.233 0.115231 -1.57178 0
M  V30 2751 C 255.481 0.820727 -1.84685 0
M  V30 2752 C 255.802 1.80237 -0.744279 0
M  V30 2753 O 255.072 1.94529 0.231375 0
M  V30 2754 H 253.652 0.306084 -0.681411 0
M  V30 2755 H 256.314 0.101656 -1.94635 0
M  V30 2756 H 255.41 1.36366 -2.80733 0
M  V30 2757 N 255.711 1.52812 0.385517 0
M  V30 2758 C 256.641 1.80808 1.47752 0
M  V30 2759 C 257.622 0.660318 1.5676 0
M  V30 2760 O 258.807 0.908246 1.71652 0
M  V30 2761 C 255.937 1.98008 2.85324 0
M  V30 2762 C 254.891 3.13709 2.91154 0
M  V30 2763 C 254.217 3.16169 4.31209 0
M  V30 2764 C 255.517 4.52709 2.60483 0
M  V30 2765 H 257.211 2.72253 1.24573 0
M  V30 2766 H 254.757 1.31003 0.597839 0
M  V30 2767 H 256.71 2.16176 3.61726 0
M  V30 2768 H 255.434 1.03255 3.09848 0
M  V30 2769 H 254.093 2.95329 2.17201 0
M  V30 2770 H 253.741 2.19092 4.52778 0
M  V30 2771 H 253.441 3.93894 4.36029 0
M  V30 2772 H 254.965 3.36496 5.09512 0
M  V30 2773 H 256.379 4.71173 3.26602 0
M  V30 2774 H 254.776 5.32528 2.76648 0
M  V30 2775 H 255.846 4.59186 1.55809 0
M  V30 2776 N 257.189 -0.644168 1.43834 0
M  V30 2777 C 258.119 -1.76814 1.52509 0
M  V30 2778 C 259.1 -1.65823 0.379052 0
M  V30 2779 O 260.285 -1.84781 0.597466 0
M  V30 2780 C 257.415 -3.15288 1.4564 0
M  V30 2781 C 256.369 -3.41053 2.58586 0
M  V30 2782 C 255.695 -4.79421 2.36769 0
M  V30 2783 C 256.995 -3.34902 4.00797 0
M  V30 2784 H 258.689 -1.69812 2.46586 0
M  V30 2785 H 256.235 -0.815542 1.1868 0
M  V30 2786 H 258.188 -3.93681 1.50311 0
M  V30 2787 H 256.912 -3.23043 0.480725 0
M  V30 2788 H 255.571 -2.65035 2.53282 0
M  V30 2789 H 255.219 -4.83863 1.37424 0
M  V30 2790 H 254.919 -4.9762 3.12487 0
M  V30 2791 H 256.443 -5.6006 2.43238 0
M  V30 2792 H 257.857 -4.03218 4.07539 0
M  V30 2793 H 256.254 -3.64637 4.76613 0
M  V30 2794 H 257.324 -2.32928 4.25291 0
M  V30 2795 N 258.668 -1.30515 -0.883378 0
M  V30 2796 C 259.914 -1.19607 -1.63774 0
M  V30 2797 C 260.247 0.248314 -1.92606 0
M  V30 2798 O 259.522 1.17742 -1.54813 0
M  V30 2799 C 259.805 -2.02669 -2.97653 0
M  V30 2800 C 259.658 -3.55335 -2.75784 0
M  V30 2801 C 260.977 -1.86573 -3.98596 0
M  V30 2802 H 258.096 -0.435856 -0.594305 0
M  V30 2803 H 260.738 -1.60165 -1.02212 0
M  V30 2804 H 258.888 -1.68208 -3.50197 0
M  V30 2805 H 260.56 -3.99863 -2.30016 0
M  V30 2806 H 258.803 -3.79438 -2.1026 0
M  V30 2807 H 259.474 -4.08745 -3.70988 0
M  V30 2808 H 261.95 -2.16703 -3.55217 0
M  V30 2809 H 260.826 -2.47014 -4.90179 0
M  V30 2810 H 261.087 -0.825321 -4.34328 0
M  V30 2811 N 260.146 1.09593 -1.13257 0
M  V30 2812 C 261.395 1.81105 -0.887917 0
M  V30 2813 C 261.708 1.86563 0.587672 0
M  V30 2814 O 262.914 2.54367 0.949204 0
M  V30 2815 C 261.37 3.25338 -1.53895 0
M  V30 2816 C 260.978 3.28151 -3.04994 0
M  V30 2817 C 262.722 4.01617 -1.37492 0
M  V30 2818 C 260.629 4.66897 -3.6299 0
M  V30 2819 H 259.559 0.678661 -0.328534 0
M  V30 2820 H 262.21 1.23183 -1.36008 0
M  V30 2821 H 260.592 3.8331 -0.994446 0
M  V30 2822 H 261.766 2.79953 -3.66009 0
M  V30 2823 H 260.081 2.65361 -3.20893 0
M  V30 2824 H 262.678 5.04119 -1.78235 0
M  V30 2825 H 263.021 4.15072 -0.31957 0
M  V30 2826 H 263.554 3.50082 -1.88912 0
M  V30 2827 H 260.293 4.58643 -4.68323 0
M  V30 2828 H 259.813 5.15426 -3.06752 0
M  V30 2829 H 261.492 5.3587 -3.62563 0
M  V30 2830 N 261.624 0.925811 1.2754 0
M  V30 2831 C 262.554 0.440748 2.29303 0
M  V30 2832 C 263.535 -0.497971 1.62648 0
M  V30 2833 O 264.72 -0.403126 1.8997 0
M  V30 2834 C 261.85 -0.309048 3.45922 0
M  V30 2835 C 260.804 0.54166 4.24559 0
M  V30 2836 C 260.13 -0.337191 5.33636 0
M  V30 2837 C 261.43 1.80516 4.90114 0
M  V30 2838 H 263.124 1.29121 2.70126 0
M  V30 2839 H 260.67 0.622323 1.29858 0
M  V30 2840 H 262.623 -0.659315 4.1621 0
M  V30 2841 H 261.347 -1.19352 3.04011 0
M  V30 2842 H 260.006 0.874609 3.56014 0
M  V30 2843 H 259.654 -1.22056 4.87966 0
M  V30 2844 H 259.354 0.228497 5.87156 0
M  V30 2845 H 260.878 -0.683072 6.06767 0
M  V30 2846 H 262.292 1.52307 5.52698 0
M  V30 2847 H 260.689 2.3142 5.53683 0
M  V30 2848 H 261.759 2.52581 4.13921 0
M  V30 2849 N 263.102 -1.41638 0.69111 0
M  V30 2850 C 264.332 -2.0533 0.228758 0
M  V30 2851 C 264.74 -1.52089 -1.12541 0
M  V30 2852 O 264.083 -0.662145 -1.71351 0
M  V30 2853 C 264.145 -3.59349 0.10407 0
M  V30 2854 C 263.809 -4.35362 1.38956 0
M  V30 2855 C 264.806 -4.64942 2.32648 0
M  V30 2856 C 262.491 -4.74714 1.64169 0
M  V30 2857 C 264.485 -5.32828 3.49818 0
M  V30 2858 C 262.172 -5.42338 2.81625 0
M  V30 2859 C 263.17 -5.71322 3.74273 0
M  V30 2860 O 262.858 -6.37554 4.89673 0
M  V30 2861 H 262.59 -0.667796 0.104997 0
M  V30 2862 H 265.144 -1.82477 0.942938 0
M  V30 2863 H 263.374 -3.80924 -0.665839 0
M  V30 2864 H 265.063 -4.04633 -0.320519 0
M  V30 2865 H 265.829 -4.35025 2.14425 0
M  V30 2866 H 261.708 -4.51538 0.929202 0
M  V30 2867 H 265.252 -5.55368 4.22152 0
M  V30 2868 H 261.149 -5.71673 2.99768 0
M  V30 2869 H 261.917 -6.56049 4.8943 0
M  V30 2870 N 264.58 -0.43555 -1.51462 0
M  V30 2871 C 265.828 0.131254 -2.01673 0
M  V30 2872 C 266.149 1.43368 -1.32177 0
M  V30 2873 O 265.419 1.90524 -0.455769 0
M  V30 2874 H 263.999 0.0514954 -0.745223 0
M  V30 2875 H 266.661 -0.577847 -1.86137 0
M  V30 2876 H 265.757 0.308446 -3.10572 0
M  V30 2877 N 266.058 1.56714 -0.166846 0
M  V30 2878 C 266.991 2.13577 0.80375 0
M  V30 2879 C 267.969 1.06464 1.22899 0
M  V30 2880 O 269.153 1.34413 1.32157 0
M  V30 2881 C 266.28 2.67168 2.0818 0
M  V30 2882 C 265.326 3.86612 1.80093 0
M  V30 2883 S 266.159 5.26565 0.97416 0
M  V30 2884 C 267.315 5.83558 2.26297 0
M  V30 2885 H 267.548 2.9557 0.320267 0
M  V30 2886 H 265.081 1.54326 0.0477555 0
M  V30 2887 H 267.039 2.98692 2.8159 0
M  V30 2888 H 265.7 1.85269 2.53642 0
M  V30 2889 H 264.893 4.22422 2.7491 0
M  V30 2890 H 264.495 3.55951 1.14781 0
M  V30 2891 H 266.787 5.962 3.21795 0
M  V30 2892 H 267.73 6.80731 1.94962 0
M  V30 2893 H 268.138 5.11944 2.37853 0
M  V30 2894 N 267.536 -0.106894 1.57237 0
M  V30 2895 C 268.466 -1.13148 2.04254 0
M  V30 2896 C 269.447 -1.42476 0.929224 0
M  V30 2897 O 270.632 -1.52709 1.19973 0
M  V30 2898 C 267.762 -2.4545 2.45706 0
M  V30 2899 C 266.716 -2.30558 3.60592 0
M  V30 2900 C 266.042 -3.67931 3.87983 0
M  V30 2901 C 267.342 -1.75597 4.91897 0
M  V30 2902 H 269.036 -0.740374 2.90101 0
M  V30 2903 H 266.582 -0.354696 1.39563 0
M  V30 2904 H 268.535 -3.17389 2.77205 0
M  V30 2905 H 267.259 -2.86475 1.56843 0
M  V30 2906 H 265.918 -1.61067 3.29322 0
M  V30 2907 H 265.566 -4.06462 2.96306 0
M  V30 2908 H 265.266 -3.58817 4.65322 0
M  V30 2909 H 266.79 -4.41356 4.21945 0
M  V30 2910 H 268.204 -2.37364 5.21854 0
M  V30 2911 H 266.601 -1.77272 5.73319 0
M  V30 2912 H 267.671 -0.714451 4.79608 0
M  V30 2913 N 269.014 -1.53014 -0.377408 0
M  V30 2914 C 269.944 -1.81589 -1.46791 0
M  V30 2915 C 270.925 -0.668622 -1.56408 0
M  V30 2916 O 272.11 -0.917337 -1.71168 0
M  V30 2917 C 269.24 -1.99519 -2.8427 0
M  V30 2918 C 268.194 -3.15249 -2.89486 0
M  V30 2919 C 267.52 -3.18451 -4.29527 0
M  V30 2920 C 268.82 -4.54084 -2.58079 0
M  V30 2921 H 270.514 -2.7291 -1.23127 0
M  V30 2922 H 268.06 -1.31319 -0.590883 0
M  V30 2923 H 270.013 -2.18092 -3.60575 0
M  V30 2924 H 268.737 -1.04897 -3.09296 0
M  V30 2925 H 267.396 -2.96477 -2.15631 0
M  V30 2926 H 267.044 -2.2149 -4.5161 0
M  V30 2927 H 266.744 -3.962 -4.33934 0
M  V30 2928 H 268.268 -3.39193 -5.07721 0
M  V30 2929 H 269.682 -4.72899 -3.24098 0
M  V30 2930 H 268.079 -5.33987 -2.7382 0
M  V30 2931 H 269.149 -4.60006 -1.53372 0
M  V30 2932 N 270.492 0.636531 -1.44174 0
M  V30 2933 C 271.422 1.76003 -1.53444 0
M  V30 2934 C 272.403 1.65619 -0.387841 0
M  V30 2935 O 273.588 1.84461 -0.607257 0
M  V30 2936 C 270.718 3.14511 -1.4731 0
M  V30 2937 C 269.672 3.39677 -2.60391 0
M  V30 2938 C 268.998 4.78159 -2.39308 0
M  V30 2939 C 270.298 3.32772 -4.02567 0
M  V30 2940 H 271.992 1.68501 -2.47483 0
M  V30 2941 H 269.538 0.809237 -1.19111 0
M  V30 2942 H 271.491 3.92878 -1.52397 0
M  V30 2943 H 270.215 3.22783 -0.49785 0
M  V30 2944 H 268.874 2.63688 -2.54684 0
M  V30 2945 H 268.522 4.83128 -1.39988 0
M  V30 2946 H 268.222 4.95956 -3.15122 0
M  V30 2947 H 269.746 5.58762 -2.46205 0
M  V30 2948 H 271.16 4.01051 -4.09672 0
M  V30 2949 H 269.557 3.62104 -4.7854 0
M  V30 2950 H 270.627 2.30669 -4.2652 0
M  V30 2951 N 271.97 1.30982 0.876444 0
M  V30 2952 C 273.216 1.20474 1.63138 0
M  V30 2953 C 273.549 -0.238096 1.92735 0
M  V30 2954 O 272.824 -1.1692 1.55435 0
M  V30 2955 C 273.107 2.04244 2.96574 0
M  V30 2956 C 272.96 3.56793 2.73896 0
M  V30 2957 C 274.279 1.88684 3.97601 0
M  V30 2958 H 271.398 0.439001 0.591985 0
M  V30 2959 H 274.04 1.60704 1.01361 0
M  V30 2960 H 272.19 1.70063 3.493 0
M  V30 2961 H 273.862 4.01077 2.27892 0
M  V30 2962 H 272.105 3.80548 2.08245 0
M  V30 2963 H 272.776 4.10706 3.68815 0
M  V30 2964 H 275.252 2.18584 3.54062 0
M  V30 2965 H 274.128 2.4961 4.88862 0
M  V30 2966 H 274.389 0.848343 4.33884 0
M  V30 2967 N 273.449 -1.08991 1.13837 0
M  V30 2968 C 274.359 -2.19301 0.833333 0
M  V30 2969 C 275.375 -1.73026 -0.183847 0
M  V30 2970 O 276.551 -2.01395 -0.0138092 0
M  V30 2971 C 273.616 -3.45323 0.308651 0
M  V30 2972 C 272.677 -4.06255 1.38764 0
M  V30 2973 C 271.91 -5.26262 0.887896 0
M  V30 2974 O 272.133 -5.69747 -0.27287 0
M  V30 2975 O 271.067 -5.78435 1.66421 0
M  V30 2976 H 274.893 -2.47854 1.75506 0
M  V30 2977 H 272.478 -1.18012 0.916166 0
M  V30 2978 H 274.36 -4.21394 0.0216739 0
M  V30 2979 H 273.035 -3.18362 -0.585431 0
M  V30 2980 H 271.942 -3.318 1.72799 0
M  V30 2981 H 273.275 -4.37452 2.25602 0
M  V30 2982 N 274.927 -0.932562 -1.27047 0
M  V30 2983 C 276.173 -0.576412 -1.94436 0
M  V30 2984 C 276.506 0.880891 -1.73072 0
M  V30 2985 O 275.781 1.62905 -1.06264 0
M  V30 2986 C 276.064 -0.909031 -3.48437 0
M  V30 2987 C 275.917 -2.42044 -3.79123 0
M  V30 2988 C 277.236 -0.418341 -4.38107 0
M  V30 2989 H 274.355 -0.210888 -0.706184 0
M  V30 2990 H 276.997 -1.16522 -1.50075 0
M  V30 2991 H 275.147 -0.407947 -3.86352 0
M  V30 2992 H 276.819 -2.99359 -3.50973 0
M  V30 2993 H 275.062 -2.86758 -3.25503 0
M  V30 2994 H 275.733 -2.6037 -4.86736 0
M  V30 2995 H 278.209 -0.847856 -4.0737 0
M  V30 2996 H 277.085 -0.679981 -5.44672 0
M  V30 2997 H 277.346 0.681642 -4.36814 0
M  V30 2998 N 276.405 1.4127 -0.698611 0
M  V30 2999 C 277.353 2.32588 -0.023855 0
M  V30 3000 C 278.347 1.51128 0.765292 0
M  V30 3001 O 279.553 1.67043 0.670571 0
M  V30 3002 H 275.928 0.751918 0.0110871 0
M  V30 3003 H 277.899 2.87167 -0.811031 0
M  V30 3004 C 276.648 3.35947 0.896369 0
M  V30 3005 H 275.971 3.98684 0.298548 0
M  V30 3006 H 277.411 4.02376 1.33676 0
M  V30 3007 C 275.87 2.70076 2.01396 0
M  V30 3008 O 276.4 2.55093 3.10307 0
M  V30 3009 N 274.606 2.28724 1.79259 0
M  V30 3010 H 274.153 2.4111 0.906841 0
M  V30 3011 H 274.111 1.84986 2.54219 0
M  V30 3012 N 277.883 0.443576 1.51229 0
M  V30 3013 C 279.129 -0.120975 2.02439 0
M  V30 3014 C 279.462 -1.41815 1.32674 0
M  V30 3015 O 278.737 -1.89373 0.443622 0
M  V30 3016 C 279.02 -0.333291 3.58554 0
M  V30 3017 C 278.873 0.982968 4.38928 0
M  V30 3018 C 280.192 -1.10028 4.26124 0
M  V30 3019 H 277.311 -0.0424923 0.735774 0
M  V30 3020 H 279.953 0.583794 1.80809 0
M  V30 3021 H 278.103 -0.933614 3.77115 0
M  V30 3022 H 279.775 1.61775 4.32003 0
M  V30 3023 H 278.018 1.58611 4.03763 0
M  V30 3024 H 278.689 0.788379 5.46341 0
M  V30 3025 H 281.165 -0.591711 4.11871 0
M  V30 3026 H 280.041 -1.21761 5.35225 0
M  V30 3027 H 280.302 -2.12996 3.87408 0
M  V30 3028 N 279.361 -1.56624 0.175154 0
M  V30 3029 C 280.61 -1.96173 -0.468921 0
M  V30 3030 C 280.923 -1.06401 -1.64128 0
M  V30 3031 O 282.129 -1.35648 -2.35185 0
M  V30 3032 C 280.585 -3.48833 -0.885633 0
M  V30 3033 C 280.193 -4.47237 0.261343 0
M  V30 3034 C 281.937 -3.97194 -1.49791 0
M  V30 3035 C 279.844 -5.9114 -0.175214 0
M  V30 3036 H 278.774 -0.732455 -0.178958 0
M  V30 3037 H 281.425 -1.81591 0.263997 0
M  V30 3038 H 279.807 -3.58848 -1.67464 0
M  V30 3039 H 280.981 -4.4894 1.03871 0
M  V30 3040 H 279.296 -4.08956 0.783827 0
M  V30 3041 H 281.893 -5.02167 -1.83665 0
M  V30 3042 H 282.236 -3.40351 -2.39722 0
M  V30 3043 H 282.769 -3.90212 -0.773267 0
M  V30 3044 H 279.508 -6.51865 0.689414 0
M  V30 3045 H 279.028 -5.92735 -0.91786 0
M  V30 3046 H 280.707 -6.44044 -0.617792 0
M  V30 3047 N 280.839 0.0985539 -1.57292 0
M  V30 3048 C 282.255 0.45267 -1.53046 0
M  V30 3049 C 282.455 1.80713 -0.891342 0
M  V30 3050 O 281.511 2.4785 -0.482375 0
M  V30 3051 C 282.824 0.418341 -2.97776 0
M  V30 3052 C 284.372 0.500443 -3.08973 0
M  V30 3053 C 284.847 0.496297 -4.55303 0
M  V30 3054 N 286.338 0.557151 -4.59837 0
M  V30 3055 C 287.073 0.575726 -5.70502 0
M  V30 3056 N 286.569 0.550714 -6.90608 0
M  V30 3057 N 288.362 0.620277 -5.58667 0
M  V30 3058 H 280.513 -0.788673 -1.97215 0
M  V30 3059 H 282.776 -0.293188 -0.901524 0
M  V30 3060 H 282.482 -0.509659 -3.47988 0
M  V30 3061 H 282.356 1.2386 -3.56284 0
M  V30 3062 H 284.743 1.41886 -2.58751 0
M  V30 3063 H 284.824 -0.347894 -2.53423 0
M  V30 3064 H 284.468 -0.418162 -5.06176 0
M  V30 3065 H 284.398 1.3618 -5.08687 0
M  V30 3066 H 286.889 0.581816 -3.73394 0
M  V30 3067 H 287.202 0.568075 -7.70709 0
M  V30 3068 H 285.547 0.517816 -6.93068 0
M  V30 3069 H 288.738 0.637322 -4.63741 0
M  V30 3070 H 288.911 0.631283 -6.44918 0
M  V30 3071 N 282.317 1.53212 0.369288 0
M  V30 3072 C 283.563 1.69466 1.11397 0
M  V30 3073 C 283.896 0.443257 1.89074 0
M  V30 3074 O 283.171 -0.559386 1.86282 0
M  V30 3075 C 283.454 2.9422 2.07621 0
M  V30 3076 C 283.307 4.29508 1.33577 0
M  V30 3077 C 284.626 3.14565 3.07794 0
M  V30 3078 H 281.745 0.616667 0.403597 0
M  V30 3079 H 284.387 1.85845 0.395179 0
M  V30 3080 H 282.537 2.80387 2.68916 0
M  V30 3081 H 284.209 4.55147 0.750955 0
M  V30 3082 H 282.452 4.29088 0.637618 0
M  V30 3083 H 283.123 5.12926 2.03989 0
M  V30 3084 H 285.599 3.2756 2.56601 0
M  V30 3085 H 284.475 4.03297 3.72348 0
M  V30 3086 H 284.736 2.29675 3.77759 0
M  V30 3087 N 283.795 -0.628877 1.44509 0
M  V30 3088 C 285.211 -0.947305 1.28446 0
M  V30 3089 C 285.411 -2.00275 0.221872 0
M  V30 3090 O 284.467 -2.49447 -0.391471 0
M  V30 3091 C 285.78 -1.40843 2.65676 0
M  V30 3092 C 287.328 -1.52379 2.73404 0
M  V30 3093 C 287.803 -2.01875 4.11109 0
M  V30 3094 N 289.294 -2.09142 4.13296 0
M  V30 3095 C 290.029 -2.48615 5.16699 0
M  V30 3096 N 289.525 -2.87209 6.30462 0
M  V30 3097 N 291.318 -2.48768 5.04054 0
M  V30 3098 H 283.469 0.0690977 2.12288 0
M  V30 3099 H 285.732 -0.0317164 0.947469 0
M  V30 3100 H 285.438 -0.707206 3.44516 0
M  V30 3101 H 285.312 -2.37902 2.92716 0
M  V30 3102 H 287.699 -2.21598 1.9488 0
M  V30 3103 H 287.78 -0.536898 2.50102 0
M  V30 3104 H 287.424 -1.3325 4.90109 0
M  V30 3105 H 287.354 -3.0144 4.31789 0
M  V30 3106 H 289.845 -1.81991 3.31191 0
M  V30 3107 H 290.158 -3.16149 7.05174 0
M  V30 3108 H 288.503 -2.84955 6.33897 0
M  V30 3109 H 291.694 -2.18009 4.14234 0
M  V30 3110 H 291.867 -2.79207 5.84763 0
M  V30 3111 N 285.273 -1.31445 -0.869486 0
M  V30 3112 C 286.689 -1.10113 -1.15531 0
M  V30 3113 C 286.889 0.128087 -2.01092 0
M  V30 3114 O 285.945 0.817276 -2.38908 0
M  V30 3115 C 287.258 -2.37291 -1.84698 0
M  V30 3116 C 288.806 -2.42906 -1.97397 0
M  V30 3117 C 289.281 -3.69967 -2.69979 0
M  V30 3118 N 290.772 -3.70864 -2.77514 0
M  V30 3119 C 291.507 -4.65875 -3.34287 0
M  V30 3120 N 291.003 -5.71242 -3.91988 0
M  V30 3121 N 292.796 -4.53394 -3.3225 0
M  V30 3122 H 284.947 -2.1028 -0.299347 0
M  V30 3123 H 287.21 -0.927683 -0.195214 0
M  V30 3124 H 286.916 -3.27078 -1.29278 0
M  V30 3125 H 286.79 -2.47125 -2.84972 0
M  V30 3126 H 289.177 -1.53588 -2.51982 0
M  V30 3127 H 289.258 -2.37036 -0.961643 0
M  V30 3128 H 288.902 -4.59652 -2.16062 0
M  V30 3129 H 288.832 -3.73103 -3.7162 0
M  V30 3130 H 291.323 -2.94697 -2.36563 0
M  V30 3131 H 291.636 -6.39817 -4.33421 0
M  V30 3132 H 289.981 -5.75015 -3.90362 0
M  V30 3133 H 293.172 -3.70252 -2.8641 0
M  V30 3134 H 293.345 -5.27617 -3.76197 0
M  V30 3135 N 286.751 1.08385 -1.14413 0
M  V30 3136 C 287.981 1.8425 -0.934644 0
M  V30 3137 C 288.389 1.81907 0.520234 0
M  V30 3138 O 287.732 1.22126 1.37226 0
M  V30 3139 C 287.794 3.32853 -1.35828 0
M  V30 3140 C 287.458 3.5893 -2.82875 0
M  V30 3141 C 288.455 3.53756 -3.80989 0
M  V30 3142 C 286.14 3.86934 -3.20293 0
M  V30 3143 C 288.134 3.76216 -5.14529 0
M  V30 3144 C 285.821 4.09047 -4.54008 0
M  V30 3145 C 286.819 4.03682 -5.50936 0
M  V30 3146 O 286.507 4.25214 -6.82238 0
M  V30 3147 H 286.239 0.588502 -0.332628 0
M  V30 3148 H 288.793 1.37792 -1.52324 0
M  V30 3149 H 287.023 3.8007 -0.713019 0
M  V30 3150 H 288.712 3.90154 -1.11957 0
M  V30 3151 H 289.478 3.32135 -3.53428 0
M  V30 3152 H 285.357 3.9023 -2.45442 0
M  V30 3153 H 288.901 3.71943 -5.90173 0
M  V30 3154 H 284.798 4.30151 -4.8129 0
M  V30 3155 H 285.566 4.42619 -6.88499 0
M  V30 3156 N 288.23 0.939286 1.26551 0
M  V30 3157 C 289.479 0.581601 1.93133 0
M  V30 3158 C 289.792 -0.883224 1.74524 0
M  V30 3159 O 290.998 -1.3502 2.35546 0
M  V30 3160 C 289.454 0.989425 3.46032 0
M  V30 3161 C 289.062 2.47573 3.73379 0
M  V30 3162 C 290.806 0.703544 4.18629 0
M  V30 3163 C 288.713 2.82235 5.19709 0
M  V30 3164 H 287.643 0.213803 0.723052 0
M  V30 3165 H 290.294 1.14167 1.4366 0
M  V30 3166 H 288.676 0.357902 3.94379 0
M  V30 3167 H 289.85 3.15614 3.35744 0
M  V30 3168 H 288.165 2.73471 3.1401 0
M  V30 3169 H 290.762 0.938869 5.26393 0
M  V30 3170 H 291.105 -0.359639 4.14744 0
M  V30 3171 H 291.638 1.2947 3.76141 0
M  V30 3172 H 288.377 3.87509 5.28694 0
M  V30 3173 H 287.897 2.18854 5.58447 0
M  V30 3174 H 289.576 2.70599 5.87695 0
M  V30 3175 N 289.708 -1.40897 0.706093 0
M  V30 3176 C 290.955 -2.01054 0.241531 0
M  V30 3177 C 291.283 -1.55956 -1.16223 0
M  V30 3178 O 290.538 -0.766336 -1.80072 0
M  V30 3179 C 290.837 -3.5646 0.259099 0
M  V30 3180 C 290.503 -4.21106 1.61184 0
M  V30 3181 C 289.165 -4.38479 1.98216 0
M  V30 3182 C 291.517 -4.57256 2.50132 0
M  V30 3183 C 288.845 -4.89282 3.2376 0
M  V30 3184 C 291.197 -5.09454 3.7502 0
M  V30 3185 C 289.861 -5.25037 4.12181 0
M  V30 3186 H 289.131 -0.73571 0.0883825 0
M  V30 3187 H 291.778 -1.68645 0.907257 0
M  V30 3188 H 290.083 -3.88721 -0.490189 0
M  V30 3189 H 291.78 -4.00826 -0.11804 0
M  V30 3190 H 288.37 -4.07966 1.31384 0
M  V30 3191 H 292.554 -4.43479 2.228 0
M  V30 3192 H 287.81 -4.99531 3.52532 0
M  V30 3193 H 291.984 -5.36404 4.44121 0
M  V30 3194 H 289.611 -5.64164 5.09532 0
M  V30 3195 N 291.186 -0.45159 -1.50991 0
M  V30 3196 C 292.433 0.110074 -2.02201 0
M  V30 3197 C 292.761 1.4146 -1.33489 0
M  V30 3198 O 292.016 1.90617 -0.443125 0
M  V30 3199 C 292.315 0.361728 -3.55565 0
M  V30 3200 C 291.981 -0.858717 -4.42648 0
M  V30 3201 C 290.643 -1.19338 -4.66167 0
M  V30 3202 C 292.995 -1.67221 -4.93646 0
M  V30 3203 C 290.323 -2.34195 -5.37931 0
M  V30 3204 C 292.675 -2.8119 -5.6667 0
M  V30 3205 C 291.339 -3.15094 -5.88449 0
M  V30 3206 H 290.609 0.040279 -0.739904 0
M  V30 3207 H 293.256 -0.601696 -1.81802 0
M  V30 3208 H 291.561 1.15554 -3.74372 0
M  V30 3209 H 293.258 0.80996 -3.92735 0
M  V30 3210 H 289.848 -0.58796 -4.24548 0
M  V30 3211 H 294.032 -1.42686 -4.75347 0
M  V30 3212 H 289.288 -2.6076 -5.53005 0
M  V30 3213 H 293.462 -3.44585 -6.05173 0
M  V30 3214 H 291.089 -4.04204 -6.43835 0
M  V30 3215 N 292.664 1.56529 -0.183458 0
M  V30 3216 C 293.611 2.18546 0.742055 0
M  V30 3217 C 294.581 1.12912 1.2182 0
M  V30 3218 O 295.766 1.41115 1.28418 0
M  V30 3219 C 292.906 2.83977 1.96089 0
M  V30 3220 C 292.019 4.04105 1.52719 0
M  V30 3221 C 291.154 4.57427 2.70063 0
M  V30 3222 C 290.193 5.69938 2.23243 0
M  V30 3223 N 289.33 6.17717 3.33722 0
M  V30 3224 H 294.17 2.97284 0.206432 0
M  V30 3225 H 291.707 1.46823 0.0901571 0
M  V30 3226 H 293.665 3.20077 2.67594 0
M  V30 3227 H 292.295 2.07822 2.47002 0
M  V30 3228 H 291.347 3.73745 0.708436 0
M  V30 3229 H 292.659 4.85513 1.1436 0
M  V30 3230 H 291.813 4.95772 3.49708 0
M  V30 3231 H 290.552 3.75101 3.11689 0
M  V30 3232 H 289.557 5.31133 1.42048 0
M  V30 3233 H 290.782 6.54073 1.82661 0
M  V30 3234 H 288.728 5.38317 3.74902 0
M  V30 3235 H 288.645 6.94146 2.99495 0
M  V30 3236 H 289.913 6.60713 4.13616 0
M  V30 3237 N 294.142 -0.090211 1.57342 0
M  V30 3238 C 295.37 -0.806224 1.90546 0
M  V30 3239 C 295.785 -1.72041 0.777644 0
M  V30 3240 O 295.142 -1.80778 -0.250103 0
M  V30 3241 C 295.193 -1.61546 3.23396 0
M  V30 3242 O 294.914 -0.738043 4.31839 0
M  V30 3243 C 296.415 -2.4341 3.70495 0
M  V30 3244 H 293.635 -0.230256 0.630257 0
M  V30 3245 H 296.179 -0.0659843 2.04394 0
M  V30 3246 H 294.334 -2.30816 3.11131 0
M  V30 3247 H 294.748 -1.29901 5.08159 0
M  V30 3248 H 296.222 -2.95676 4.66133 0
M  V30 3249 H 296.699 -3.22098 2.98579 0
M  V30 3250 H 297.305 -1.79331 3.85643 0
M  V30 3251 N 295.62 -1.53406 -0.361157 0
M  V30 3252 C 297.031 -1.61442 -0.937728 0
M  V30 3253 C 297.382 -0.48461 -1.90121 0
M  V30 3254 O 296.507 0.388312 -2.12888 0
M  V30 3255 C 297.102 -2.92624 -1.70753 0
M  V30 3256 C 295.661 -3.02981 -2.23337 0
M  V30 3257 C 294.808 -2.5677 -1.04712 0
M  V30 3258 H 297.759 -1.58083 -0.139816 0
M  V30 3259 H 297.78 -2.80675 -2.56908 0
M  V30 3260 H 297.292 -3.74834 -1.00604 0
M  V30 3261 H 295.393 -2.25368 -2.96715 0
M  V30 3262 H 295.506 -4.0814 -2.50916 0
M  V30 3263 H 293.87 -2.11752 -1.41539 0
M  V30 3264 H 294.653 -3.41402 -0.360539 0
M  V30 3265 N 297.098 0.621204 -1.44841 0
M  V30 3266 C 298.514 0.94048 -1.28946 0
M  V30 3267 C 298.714 2.00154 -0.23249 0
M  V30 3268 O 297.77 2.49651 0.378237 0
M  V30 3269 C 299.083 1.39433 -2.66419 0
M  V30 3270 C 300.631 1.50927 -2.74208 0
M  V30 3271 C 301.106 1.99692 -4.12174 0
M  V30 3272 N 302.597 2.06947 -4.144 0
M  V30 3273 C 303.332 2.45871 -5.1801 0
M  V30 3274 N 302.828 2.83862 -6.31977 0
M  V30 3275 N 304.621 2.46092 -5.05366 0
M  V30 3276 H 296.772 -0.0803548 -2.12248 0
M  V30 3277 H 299.035 0.0266913 -0.947624 0
M  V30 3278 H 298.741 0.688925 -3.44887 0
M  V30 3279 H 298.615 2.36347 -2.93973 0
M  V30 3280 H 301.002 2.20561 -1.96053 0
M  V30 3281 H 301.083 0.523627 -2.50383 0
M  V30 3282 H 300.727 1.30649 -4.90809 0
M  V30 3283 H 300.657 2.99146 -4.33381 0
M  V30 3284 H 303.148 1.80232 -3.32152 0
M  V30 3285 H 303.461 3.12405 -7.0684 0
M  V30 3286 H 301.806 2.8159 -6.35399 0
M  V30 3287 H 304.997 2.1581 -4.15384 0
M  V30 3288 H 305.17 2.76102 -5.86235 0
M  V30 3289 N 298.576 1.31904 0.862503 0
M  V30 3290 C 299.486 1.22161 2.00285 0
M  V30 3291 C 300.502 0.136785 1.73462 0
M  V30 3292 O 301.678 0.355994 1.98229 0
M  V30 3293 C 298.743 0.937093 3.33796 0
M  V30 3294 C 297.804 2.10957 3.73893 0
M  V30 3295 C 297.037 1.83853 5.01033 0
M  V30 3296 O 297.26 0.777274 5.65079 0
M  V30 3297 O 296.194 2.69741 5.38074 0
M  V30 3298 H 300.02 2.18008 2.11439 0
M  V30 3299 H 297.605 1.11716 0.991957 0
M  V30 3300 H 299.487 0.794583 4.13841 0
M  V30 3301 H 298.162 0.00871894 3.23699 0
M  V30 3302 H 297.069 2.30752 2.94456 0
M  V30 3303 H 298.402 3.02046 3.88625 0
M  V30 3304 N 300.054 -1.07777 1.14986 0
M  V30 3305 C 301.3 -1.80557 0.923422 0
M  V30 3306 C 301.633 -1.86298 -0.548337 0
M  V30 3307 O 300.908 -1.34354 -1.40639 0
M  V30 3308 C 301.191 -3.25839 1.53299 0
M  V30 3309 C 301.044 -3.28269 3.07505 0
M  V30 3310 C 302.363 -4.22991 1.21518 0
M  V30 3311 H 299.482 -0.655493 0.336894 0
M  V30 3312 H 302.124 -1.26144 1.42083 0
M  V30 3313 H 300.274 -3.72306 1.10999 0
M  V30 3314 H 301.946 -2.90079 3.58681 0
M  V30 3315 H 300.189 -2.67355 3.4162 0
M  V30 3316 H 300.86 -4.30691 3.45266 0
M  V30 3317 H 303.336 -3.84894 1.581 0
M  V30 3318 H 302.212 -5.22945 1.66793 0
M  V30 3319 H 302.473 -4.41904 0.131505 0
M  V30 3320 N 301.532 -0.945985 -1.26051 0
M  V30 3321 C 302.479 -0.45809 -2.26208 0
M  V30 3322 C 303.449 0.484816 -1.58867 0
M  V30 3323 O 304.634 0.399969 -1.86561 0
M  V30 3324 C 301.774 0.266131 -3.44072 0
M  V30 3325 C 300.887 -0.713005 -4.26075 0
M  V30 3326 C 300.022 0.0329013 -5.3119 0
M  V30 3327 C 299.061 -0.93774 -6.04874 0
M  V30 3328 N 298.198 -0.223274 -7.01745 0
M  V30 3329 H 303.038 -1.3171 -2.67313 0
M  V30 3330 H 300.575 -0.66069 -1.31428 0
M  V30 3331 H 302.533 0.702514 -4.11243 0
M  V30 3332 H 301.163 1.08925 -3.03867 0
M  V30 3333 H 300.215 -1.26789 -3.58648 0
M  V30 3334 H 301.527 -1.45406 -4.77136 0
M  V30 3335 H 300.681 0.528335 -6.04395 0
M  V30 3336 H 299.42 0.806801 -4.8098 0
M  V30 3337 H 298.425 -1.44425 -5.30492 0
M  V30 3338 H 299.65 -1.71172 -6.57173 0
M  V30 3339 H 297.596 0.532046 -6.53839 0
M  V30 3340 H 297.513 -0.90357 -7.50581 0
M  V30 3341 H 298.781 0.250907 -7.79096 0
M  V30 3342 N 303.011 1.40521 -0.713556 0
M  V30 3343 C 304.422 1.83853 -0.324807 0
M  V30 3344 C 304.773 1.59667 1.14021 0
M  V30 3345 O 303.898 1.07649 1.87725 0
M  V30 3346 C 304.493 3.33751 -0.582746 0
M  V30 3347 C 303.052 3.75584 -0.247727 0
M  V30 3348 C 302.199 2.63753 -0.856121 0
M  V30 3349 H 305.15 1.29817 -0.91286 0
M  V30 3350 H 305.171 3.80194 0.152682 0
M  V30 3351 H 304.683 3.51322 -1.64908 0
M  V30 3352 H 302.784 3.63608 0.813624 0
M  V30 3353 H 302.897 4.7373 -0.715307 0
M  V30 3354 H 301.261 2.53108 -0.28432 0
M  V30 3355 H 302.044 2.84137 -1.92668 0
M  V30 3356 N 304.489 0.459591 1.5075 0
M  V30 3357 C 305.9 0.00171547 1.867 0
M  V30 3358 C 306.251 -1.39934 1.37525 0
M  V30 3359 O 305.376 -2.03523 0.735349 0
M  V30 3360 C 305.971 -0.00366298 3.388 0
M  V30 3361 C 304.53 -0.406026 3.74204 0
M  V30 3362 C 303.677 0.38673 2.7459 0
M  V30 3363 H 306.628 0.674413 1.43657 0
M  V30 3364 H 306.649 -0.808371 3.71814 0
M  V30 3365 H 306.161 1.01617 3.74561 0
M  V30 3366 H 304.262 -1.43063 3.4404 0
M  V30 3367 H 304.375 -0.115362 4.78961 0
M  V30 3368 H 302.739 -0.158019 2.54209 0
M  V30 3369 H 303.522 1.40585 3.13194 0
M  V30 3370 N 305.967 -1.56429 0.191757 0
M  V30 3371 C 306.877 -2.22541 -0.742481 0
M  V30 3372 C 307.893 -1.22342 -1.23727 0
M  V30 3373 O 309.069 -1.55069 -1.28513 0
M  V30 3374 C 306.134 -2.8692 -1.94623 0
M  V30 3375 C 305.195 -4.02378 -1.49633 0
M  V30 3376 C 304.428 -4.63678 -2.6427 0
M  V30 3377 O 304.651 -4.23895 -3.81666 0
M  V30 3378 O 303.585 -5.53202 -2.37174 0
M  V30 3379 H 307.411 -3.02977 -0.209462 0
M  V30 3380 H 304.996 -1.49353 -0.0373832 0
M  V30 3381 H 306.878 -3.27663 -2.64982 0
M  V30 3382 H 305.553 -2.09466 -2.46791 0
M  V30 3383 H 304.46 -3.66265 -0.761636 0
M  V30 3384 H 305.793 -4.81487 -1.02134 0
M  V30 3385 N 307.445 0.0818655 -1.57387 0
M  V30 3386 C 308.722 0.815343 -1.77796 0
M  V30 3387 C 309.102 1.96289 -0.77679 0
M  V30 3388 O 308.45 2.27691 0.192106 0
M  V30 3389 C 308.66 1.29765 -3.23978 0
M  V30 3390 C 310.008 1.7351 -3.8753 0
M  V30 3391 O 311.032 1.39356 -3.27808 0
M  V30 3392 O 309.891 2.36708 -4.92576 0
M  V30 3393 H 306.985 0.389914 -0.729312 0
M  V30 3394 H 309.531 0.0627213 -1.69584 0
M  V30 3395 H 308.303 0.47608 -3.88393 0
M  V30 3396 H 307.926 2.11189 -3.36875 0
M  V30 3397 N 308.923 1.53595 0.353017 0
M  V30 3398 C 309.853 1.83902 1.43883 0
M  V30 3399 C 310.834 0.693421 1.55324 0
M  V30 3400 O 312.019 0.944452 1.69687 0
M  V30 3401 C 309.149 2.04016 2.8106 0
M  V30 3402 C 308.103 3.19814 2.84434 0
M  V30 3403 C 307.429 3.25244 4.24406 0
M  V30 3404 C 308.729 4.58133 2.50822 0
M  V30 3405 H 310.423 2.74835 1.1877 0
M  V30 3406 H 307.969 1.32242 0.569917 0
M  V30 3407 H 309.922 2.238 3.57059 0
M  V30 3408 H 308.646 1.09804 3.07588 0
M  V30 3409 H 307.305 2.9987 2.10887 0
M  V30 3410 H 306.953 2.28646 4.48029 0
M  V30 3411 H 306.653 4.03054 4.27576 0
M  V30 3412 H 308.177 3.47228 5.0226 0
M  V30 3413 H 309.591 4.77995 3.16534 0
M  V30 3414 H 307.988 5.38276 2.6529 0
M  V30 3415 H 309.058 4.62387 1.46034 0
M  V30 3416 N 310.401 -0.613514 1.45168 0
M  V30 3417 C 311.333 -1.73825 1.4939 0
M  V30 3418 C 312.346 -1.58175 0.385304 0
M  V30 3419 O 313.535 -1.66165 0.652036 0
M  V30 3420 C 310.635 -3.11758 1.32891 0
M  V30 3421 C 309.808 -3.53704 2.57317 0
M  V30 3422 C 308.867 -4.70579 2.35462 0
M  V30 3423 O 307.893 -4.77996 3.09044 0
M  V30 3424 N 309.095 -5.63454 1.39644 0
M  V30 3425 H 311.86 -1.70669 2.46358 0
M  V30 3426 H 309.421 -0.79862 1.40832 0
M  V30 3427 H 311.413 -3.87692 1.1609 0
M  V30 3428 H 309.983 -3.09456 0.442218 0
M  V30 3429 H 309.203 -2.67794 2.89275 0
M  V30 3430 H 310.491 -3.78486 3.40038 0
M  V30 3431 H 309.889 -5.6017 0.789062 0
M  V30 3432 H 308.446 -6.38944 1.28816 0
M  V30 3433 N 311.879 -1.3236 -0.855495 0
M  V30 3434 C 313.156 -1.13491 -1.59309 0
M  V30 3435 C 313.536 0.30503 -2.08885 0
M  V30 3436 O 312.884 1.30151 -1.87811 0
M  V30 3437 C 313.094 -2.16176 -2.73987 0
M  V30 3438 C 314.442 -2.49463 -3.43589 0
M  V30 3439 O 315.466 -2.14715 -2.84211 0
M  V30 3440 O 314.325 -3.09027 -4.50738 0
M  V30 3441 H 311.419 -0.437887 -0.701559 0
M  V30 3442 H 313.965 -1.43887 -0.899696 0
M  V30 3443 H 312.737 -3.1297 -2.34873 0
M  V30 3444 H 312.36 -1.86769 -3.51003 0
M  V30 3445 N 313.357 1.07166 -1.15556 0
M  V30 3446 C 314.287 2.16403 -0.877046 0
M  V30 3447 C 315.268 1.69217 0.173111 0
M  V30 3448 O 316.453 1.94181 0.027084 0
M  V30 3449 C 313.583 3.45349 -0.367632 0
M  V30 3450 C 312.537 4.05995 -1.35468 0
M  V30 3451 C 311.863 5.30045 -0.704038 0
M  V30 3452 C 313.163 4.45804 -2.72132 0
M  V30 3453 H 314.857 2.39959 -1.79053 0
M  V30 3454 H 312.403 1.15325 -0.862331 0
M  V30 3455 H 314.356 4.21095 -0.160317 0
M  V30 3456 H 313.08 3.21385 0.581326 0
M  V30 3457 H 311.739 3.32296 -1.54839 0
M  V30 3458 H 311.387 5.02373 0.251128 0
M  V30 3459 H 311.087 5.71579 -1.36277 0
M  V30 3460 H 312.611 6.08495 -0.50654 0
M  V30 3461 H 314.025 5.12671 -2.56595 0
M  V30 3462 H 312.422 4.98296 -3.34397 0
M  V30 3463 H 313.492 3.57083 -3.28054 0
M  V30 3464 N 314.835 0.952656 1.25548 0
M  V30 3465 C 316.083 0.605176 1.92826 0
M  V30 3466 C 316.404 -0.860261 1.74999 0
M  V30 3467 O 315.674 -1.6125 1.11244 0
M  V30 3468 H 314.254 0.220832 0.713612 0
M  V30 3469 H 316.916 1.21047 1.52754 0
M  V30 3470 H 316.012 0.832798 3.00784 0
M  V30 3471 N 316.313 -1.40141 0.720998 0
M  V30 3472 C 317.559 -2.01084 0.263231 0
M  V30 3473 C 317.892 -1.57052 -1.14229 0
M  V30 3474 O 317.167 -0.793027 -1.77599 0
M  V30 3475 C 317.45 -3.58401 0.349344 0
M  V30 3476 C 317.303 -4.12491 1.79363 0
M  V30 3477 C 318.622 -4.39231 -0.276351 0
M  V30 3478 H 315.741 -0.730572 0.0971228 0
M  V30 3479 H 318.383 -1.66543 0.914518 0
M  V30 3480 H 316.533 -3.87958 -0.205165 0
M  V30 3481 H 318.205 -3.93711 2.40394 0
M  V30 3482 H 316.448 -3.66576 2.31958 0
M  V30 3483 H 317.119 -5.21646 1.80524 0
M  V30 3484 H 319.595 -4.15637 0.196184 0
M  V30 3485 H 318.471 -5.48586 -0.185681 0
M  V30 3486 H 318.732 -4.20643 -1.36059 0
M  V30 3487 N 317.792 -0.46758 -1.50504 0
M  V30 3488 C 319.208 -0.121533 -1.59137 0
M  V30 3489 C 319.408 1.3717 -1.47603 0
M  V30 3490 O 318.464 2.14464 -1.33272 0
M  V30 3491 C 319.777 -0.6686 -2.93173 0
M  V30 3492 C 321.325 -0.631716 -3.06559 0
M  V30 3493 C 321.8 -1.15627 -4.43164 0
M  V30 3494 N 323.291 -1.11553 -4.49567 0
M  V30 3495 C 324.026 -1.49195 -5.5365 0
M  V30 3496 N 323.522 -1.94269 -6.65005 0
M  V30 3497 N 325.315 -1.4082 -5.44175 0
M  V30 3498 H 317.466 -1.4388 -1.56245 0
M  V30 3499 H 319.729 -0.594784 -0.738198 0
M  V30 3500 H 319.435 -1.71453 -3.07078 0
M  V30 3501 H 319.309 -0.11021 -3.77039 0
M  V30 3502 H 321.696 0.405297 -2.92304 0
M  V30 3503 H 321.777 -1.22687 -2.24458 0
M  V30 3504 H 321.421 -2.1919 -4.58168 0
M  V30 3505 H 321.351 -0.537365 -5.23851 0
M  V30 3506 H 323.842 -0.784895 -3.69659 0
M  V30 3507 H 324.155 -2.21148 -7.40482 0
M  V30 3508 H 322.5 -1.98219 -6.66134 0
M  V30 3509 H 325.691 -1.0545 -4.56068 0
M  V30 3510 H 325.864 -1.70481 -6.25172 0
M  V30 3511 N 319.27 1.56325 -0.20005 0
M  V30 3512 C 320.517 1.97719 0.437411 0
M  V30 3513 C 320.845 1.08709 1.61284 0
M  V30 3514 O 320.1 0.127261 1.95286 0
M  V30 3515 C 320.399 3.4495 0.935103 0
M  V30 3516 C 320.065 4.5072 -0.12749 0
M  V30 3517 C 318.727 4.79368 -0.419451 0
M  V30 3518 C 321.079 5.14268 -0.847231 0
M  V30 3519 C 318.407 5.68854 -1.43604 0
M  V30 3520 C 320.759 6.04852 -1.85301 0
M  V30 3521 C 319.423 6.31855 -2.15211 0
M  V30 3522 H 318.693 0.723507 0.16006 0
M  V30 3523 H 321.34 1.89166 -0.298056 0
M  V30 3524 H 319.645 3.50599 1.74894 0
M  V30 3525 H 321.342 3.74337 1.43781 0
M  V30 3526 H 317.932 4.28458 0.11023 0
M  V30 3527 H 322.116 4.92222 -0.634901 0
M  V30 3528 H 317.372 5.88047 -1.67364 0
M  V30 3529 H 321.546 6.53152 -2.41591 0
M  V30 3530 H 319.173 7.00994 -2.94129 0
M  V30 3531 N 320.748 -0.0735177 1.57428 0
M  V30 3532 C 321.678 -1.0879 2.06608 0
M  V30 3533 C 322.659 -1.40473 0.959237 0
M  V30 3534 O 323.844 -1.5013 1.23185 0
M  V30 3535 C 320.974 -2.40183 2.50857 0
M  V30 3536 C 319.928 -2.22858 3.65402 0
M  V30 3537 C 319.254 -3.59619 3.957 0
M  V30 3538 C 320.554 -1.65123 4.95511 0
M  V30 3539 H 322.248 -0.678673 2.91607 0
M  V30 3540 H 319.794 -0.325013 1.40284 0
M  V30 3541 H 321.747 -3.11437 2.83874 0
M  V30 3542 H 320.471 -2.83083 1.62885 0
M  V30 3543 H 319.13 -1.54045 3.32664 0
M  V30 3544 H 318.778 -4.00086 3.04861 0
M  V30 3545 H 318.478 -3.48866 4.72828 0
M  V30 3546 H 320.002 -4.32306 4.31212 0
M  V30 3547 H 321.416 -2.26241 5.26771 0
M  V30 3548 H 319.813 -1.65071 5.7695 0
M  V30 3549 H 320.883 -0.612559 4.81015 0
M  V30 3550 N 322.226 -1.5378 -0.344866 0
M  V30 3551 C 323.158 -1.77988 -1.44406 0
M  V30 3552 C 324.171 -0.661138 -1.48771 0
M  V30 3553 O 325.36 -0.937842 -1.51877 0
M  V30 3554 C 322.46 -1.86345 -2.8307 0
M  V30 3555 C 321.633 -3.16256 -3.0216 0
M  V30 3556 C 320.692 -3.15588 -4.21059 0
M  V30 3557 O 319.718 -3.89314 -4.15239 0
M  V30 3558 N 320.92 -2.37864 -5.29529 0
M  V30 3559 H 323.685 -2.72839 -1.24012 0
M  V30 3560 H 321.246 -1.52814 -0.534737 0
M  V30 3561 H 323.238 -1.83351 -3.60783 0
M  V30 3562 H 321.808 -0.986858 -2.96614 0
M  V30 3563 H 321.028 -3.32385 -2.11929 0
M  V30 3564 H 322.316 -4.0207 -3.11797 0
M  V30 3565 H 321.714 -1.77514 -5.37127 0
M  V30 3566 H 320.271 -2.40668 -6.05741 0
M  V30 3567 N 323.704 0.605807 -1.45491 0
M  V30 3568 C 325.115 1.18777 -1.44045 0
M  V30 3569 C 325.466 1.95471 -0.169001 0
M  V30 3570 O 324.591 2.0374 0.729324 0
M  V30 3571 C 325.186 2.16064 -2.60963 0
M  V30 3572 C 323.745 2.69633 -2.62631 0
M  V30 3573 C 322.892 1.45072 -2.36325 0
M  V30 3574 H 325.843 0.395017 -1.53705 0
M  V30 3575 H 325.864 2.9913 -2.35163 0
M  V30 3576 H 325.376 1.60217 -3.53486 0
M  V30 3577 H 323.477 3.29414 -1.74119 0
M  V30 3578 H 323.59 3.13944 -3.61906 0
M  V30 3579 H 321.954 1.74089 -1.85917 0
M  V30 3580 H 322.737 0.910899 -3.30995 0
M  V30 3581 N 325.182 1.32811 0.848464 0
M  V30 3582 C 326.429 1.23724 1.60308 0
M  V30 3583 C 326.757 -0.1994 1.93475 0
M  V30 3584 O 326.012 -1.15406 1.5805 0
M  V30 3585 C 326.311 2.04831 2.92881 0
M  V30 3586 C 325.977 3.54125 2.79117 0
M  V30 3587 C 324.639 3.94829 2.7507 0
M  V30 3588 C 326.991 4.49036 2.64606 0
M  V30 3589 C 324.319 5.28675 2.544 0
M  V30 3590 C 326.671 5.83033 2.4547 0
M  V30 3591 C 325.335 6.22931 2.39819 0
M  V30 3592 H 324.605 0.452737 0.586609 0
M  V30 3593 H 327.252 1.64301 0.983743 0
M  V30 3594 H 325.557 1.57001 3.58968 0
M  V30 3595 H 327.254 1.95164 3.50303 0
M  V30 3596 H 323.844 3.21801 2.83094 0
M  V30 3597 H 328.028 4.18505 2.66772 0
M  V30 3598 H 323.284 5.58637 2.48465 0
M  V30 3599 H 327.458 6.56186 2.33222 0
M  V30 3600 H 325.085 7.26584 2.23562 0
M  V30 3601 N 326.66 -1.06551 1.16123 0
M  V30 3602 C 327.906 -1.79567 0.94252 0
M  V30 3603 C 328.239 -1.86869 -0.528547 0
M  V30 3604 O 327.514 -1.35838 -1.39206 0
M  V30 3605 C 327.797 -3.24195 1.56747 0
M  V30 3606 C 327.65 -3.24989 3.10969 0
M  V30 3607 C 328.969 -4.21678 1.25998 0
M  V30 3608 H 326.088 -0.651883 0.343828 0
M  V30 3609 H 328.73 -1.2463 1.43413 0
M  V30 3610 H 326.88 -3.71107 1.14942 0
M  V30 3611 H 328.552 -2.86258 3.61737 0
M  V30 3612 H 326.795 -2.63716 3.44436 0
M  V30 3613 H 327.466 -4.27005 3.49815 0
M  V30 3614 H 329.942 -3.83196 1.62174 0
M  V30 3615 H 328.818 -5.21146 1.7233 0
M  V30 3616 H 329.079 -4.4174 0.178367 0
M  V30 3617 N 328.138 -0.959301 -1.25041 0
M  V30 3618 C 329.086 -0.474437 -2.2771 0
M  V30 3619 C 330.08 0.457697 -1.631 0
M  V30 3620 O 331.286 0.333912 -1.76876 0
M  V30 3621 H 327.661 -0.134936 -0.739795 0
M  V30 3622 H 329.632 -1.35251 -2.65988 0
M  V30 3623 C 328.381 0.227884 -3.46952 0
M  V30 3624 H 327.704 -0.480248 -3.96905 0
M  V30 3625 H 329.144 0.531091 -4.20661 0
M  V30 3626 C 327.603 1.452 -3.04004 0
M  V30 3627 O 328.133 2.54949 -3.10426 0
M  V30 3628 N 326.339 1.31502 -2.59144 0
M  V30 3629 H 325.886 0.422065 -2.54119 0
M  V30 3630 H 325.844 2.13521 -2.30773 0
M  V30 3631 N 329.616 1.39756 -0.72842 0
M  V30 3632 C 330.546 2.33289 -0.0991354 0
M  V30 3633 C 331.527 1.53568 0.731489 0
M  V30 3634 O 332.712 1.81987 0.677807 0
M  V30 3635 C 329.842 3.3763 0.813834 0
M  V30 3636 C 328.796 4.2791 0.0878663 0
M  V30 3637 C 328.122 5.22894 1.11741 0
M  V30 3638 C 329.422 5.11314 -1.06563 0
M  V30 3639 H 331.116 2.86163 -0.880408 0
M  V30 3640 H 328.662 1.37591 -0.424819 0
M  V30 3641 H 330.615 4.0201 1.26355 0
M  V30 3642 H 329.339 2.83181 1.62715 0
M  V30 3643 H 327.998 3.65 -0.342159 0
M  V30 3644 H 327.646 4.64744 1.92412 0
M  V30 3645 H 327.346 5.84143 0.636477 0
M  V30 3646 H 328.87 5.90151 1.56697 0
M  V30 3647 H 330.284 5.69076 -0.694671 0
M  V30 3648 H 328.681 5.81671 -1.47577 0
M  V30 3649 H 329.751 4.46534 -1.89038 0
M  V30 3650 N 331.094 0.475555 1.50254 0
M  V30 3651 C 332.024 -0.30611 2.31485 0
M  V30 3652 C 333.005 -0.986228 1.38591 0
M  V30 3653 O 334.19 -0.982541 1.67511 0
M  V30 3654 C 331.32 -1.38588 3.1845 0
M  V30 3655 C 330.274 -0.827115 4.19932 0
M  V30 3656 C 329.6 -2.00551 4.95665 0
M  V30 3657 C 330.9 0.16463 5.2204 0
M  V30 3658 H 332.594 0.371866 2.97082 0
M  V30 3659 H 330.14 0.180282 1.42867 0
M  V30 3660 H 332.093 -1.94023 3.74076 0
M  V30 3661 H 330.817 -2.09269 2.50747 0
M  V30 3662 H 329.476 -0.294702 3.65414 0
M  V30 3663 H 329.124 -2.6994 4.2443 0
M  V30 3664 H 328.824 -1.63784 5.64313 0
M  V30 3665 H 330.348 -2.56468 5.54127 0
M  V30 3666 H 331.762 -0.300699 5.72511 0
M  V30 3667 H 330.159 0.446813 5.98434 0
M  V30 3668 H 331.229 1.08905 4.72512 0
M  V30 3669 N 332.573 -1.56217 0.208337 0
M  V30 3670 C 333.798 -2.02782 -0.435222 0
M  V30 3671 C 334.223 -1.08738 -1.53485 0
M  V30 3672 O 333.581 -0.0731855 -1.81152 0
M  V30 3673 C 333.629 -3.47687 -0.956335 0
M  V30 3674 O 332.733 -3.56773 -2.06849 0
M  V30 3675 H 332.074 -0.656403 -0.100158 0
M  V30 3676 H 334.604 -2.02033 0.3231 0
M  V30 3677 H 334.614 -3.87745 -1.26955 0
M  V30 3678 H 333.289 -4.15624 -0.15143 0
M  V30 3679 H 331.866 -3.28597 -1.76292 0
M  V30 3680 N 334.051 0.0651679 -1.57465 0
M  V30 3681 C 334.998 1.07675 -2.04144 0
M  V30 3682 C 335.968 1.38071 -0.923335 0
M  V30 3683 O 337.153 1.49026 -1.19146 0
M  V30 3684 C 334.293 2.38337 -2.49579 0
M  V30 3685 C 333.406 2.14413 -3.75035 0
M  V30 3686 C 332.541 3.38686 -4.09225 0
M  V30 3687 C 331.58 3.10156 -5.27702 0
M  V30 3688 N 330.717 4.26778 -5.57499 0
M  V30 3689 H 335.557 0.671716 -2.90331 0
M  V30 3690 H 333.094 0.3201 -1.43575 0
M  V30 3691 H 335.052 3.14632 -2.73975 0
M  V30 3692 H 333.682 2.7663 -1.6636 0
M  V30 3693 H 332.734 1.2878 -3.57939 0
M  V30 3694 H 334.046 1.89344 -4.61466 0
M  V30 3695 H 333.2 4.23373 -4.34558 0
M  V30 3696 H 331.939 3.66837 -3.21374 0
M  V30 3697 H 330.944 2.23866 -5.02159 0
M  V30 3698 H 332.169 2.8332 -6.17176 0
M  V30 3699 H 330.115 4.54948 -4.72608 0
M  V30 3700 H 330.032 4.05005 -6.38362 0
M  V30 3701 H 331.3 5.12443 -5.87386 0
M  V30 3702 N 335.529 1.53961 0.336706 0
M  V30 3703 C 336.777 1.71197 1.07405 0
M  V30 3704 C 337.098 0.481475 1.88962 0
M  V30 3705 O 336.368 -0.504585 1.8929 0
M  V30 3706 H 334.948 0.631185 0.399517 0
M  V30 3707 H 337.61 1.91232 0.376323 0
M  V30 3708 H 336.706 2.58587 1.74755 0
M  V30 3709 N 337.007 -0.598083 1.45811 0
M  V30 3710 C 338.235 -1.38322 1.53866 0
M  V30 3711 C 338.65 -1.87992 0.174479 0
M  V30 3712 O 338.007 -1.62756 -0.825627 0
M  V30 3713 C 338.058 -2.58125 2.53089 0
M  V30 3714 O 337.779 -2.10516 3.84206 0
M  V30 3715 C 339.28 -3.50869 2.70935 0
M  V30 3716 H 336.5 -0.423093 0.520801 0
M  V30 3717 H 339.044 -0.728527 1.91083 0
M  V30 3718 H 337.199 -3.19615 2.18917 0
M  V30 3719 H 337.613 -2.88425 4.38077 0
M  V30 3720 H 339.087 -4.31451 3.44317 0
M  V30 3721 H 339.564 -4.01822 1.77301 0
M  V30 3722 H 340.17 -2.95225 3.06141 0
M  V30 3723 N 338.485 -1.33259 -0.841409 0
M  V30 3724 C 339.715 -1.2742 -1.62628 0
M  V30 3725 C 340.123 0.157604 -1.88542 0
M  V30 3726 O 339.466 1.10938 -1.46419 0
M  V30 3727 C 339.528 -1.97797 -3.00194 0
M  V30 3728 C 339.192 -3.47109 -2.97261 0
M  V30 3729 C 340.189 -4.42358 -2.73159 0
M  V30 3730 C 337.874 -3.89247 -3.17478 0
M  V30 3731 C 339.868 -5.77718 -2.69296 0
M  V30 3732 C 337.555 -5.24713 -3.13241 0
M  V30 3733 C 338.553 -6.1876 -2.89181 0
M  V30 3734 O 338.241 -7.51745 -2.84843 0
M  V30 3735 H 337.973 -0.440436 -0.512827 0
M  V30 3736 H 340.527 -1.76153 -1.05638 0
M  V30 3737 H 338.757 -1.43652 -3.59028 0
M  V30 3738 H 340.446 -1.8549 -3.61038 0
M  V30 3739 H 341.212 -4.11127 -2.57294 0
M  V30 3740 H 337.091 -3.16456 -3.35226 0
M  V30 3741 H 340.635 -6.51097 -2.50436 0
M  V30 3742 H 336.532 -5.55569 -3.28654 0
M  V30 3743 H 337.3 -7.61262 -3.00702 0
M  V30 3744 N 339.963 1.05934 -1.16686 0
M  V30 3745 C 341.209 1.79211 -0.962023 0
M  V30 3746 C 341.564 1.85667 0.504545 0
M  V30 3747 O 340.857 1.33991 1.36956 0
M  V30 3748 C 341.051 3.23105 -1.52767 0
M  V30 3749 C 340.88 3.30673 -3.04771 0
M  V30 3750 C 339.65 3.40395 -3.73442 0
M  V30 3751 C 341.848 3.20234 -4.02436 0
M  V30 3752 N 339.83 3.37015 -5.13122 0
M  V30 3753 C 341.201 3.24138 -5.28521 0
M  V30 3754 C 343.256 3.04143 -3.9421 0
M  V30 3755 C 341.959 3.13607 -6.47336 0
M  V30 3756 C 343.985 2.94951 -5.12599 0
M  V30 3757 C 343.347 2.99481 -6.37566 0
M  V30 3758 H 339.446 0.668442 -0.405844 0
M  V30 3759 H 342.03 1.26341 -1.48142 0
M  V30 3760 H 340.201 3.74364 -1.03471 0
M  V30 3761 H 341.933 3.84579 -1.26021 0
M  V30 3762 H 338.688 3.45344 -3.2409 0
M  V30 3763 H 339.112 3.38815 -5.86117 0
M  V30 3764 H 343.754 2.99484 -2.98445 0
M  V30 3765 H 341.472 3.17022 -7.43319 0
M  V30 3766 H 345.058 2.83583 -5.08008 0
M  V30 3767 H 343.938 2.92431 -7.27636 0
M  V30 3768 N 341.441 0.965919 1.2453 0
M  V30 3769 C 342.687 0.637349 1.93156 0
M  V30 3770 C 343.042 -0.818261 1.74133 0
M  V30 3771 O 342.335 -1.58079 1.08266 0
M  V30 3772 C 342.529 0.945428 3.44669 0
M  V30 3773 C 342.358 2.42944 3.78429 0
M  V30 3774 C 341.128 3.08895 3.9989 0
M  V30 3775 C 343.326 3.40941 3.8505 0
M  V30 3776 N 341.308 4.47052 4.20735 0
M  V30 3777 C 342.679 4.64448 4.10717 0
M  V30 3778 C 344.734 3.35624 3.67779 0
M  V30 3779 C 343.437 5.83292 4.20907 0
M  V30 3780 C 345.463 4.53818 3.79214 0
M  V30 3781 C 344.825 5.76114 4.05304 0
M  V30 3782 H 340.924 0.284034 0.728594 0
M  V30 3783 H 343.508 1.24041 1.50073 0
M  V30 3784 H 341.679 0.371193 3.86622 0
M  V30 3785 H 343.411 0.575613 4.00586 0
M  V30 3786 H 340.166 2.59432 3.96222 0
M  V30 3787 H 340.59 5.18634 4.35141 0
M  V30 3788 H 345.232 2.4211 3.46616 0
M  V30 3789 H 342.95 6.77236 4.40883 0
M  V30 3790 H 346.536 4.51263 3.67224 0
M  V30 3791 H 345.416 6.66045 4.13949 0
M  V30 3792 N 342.919 -1.39368 0.735821 0
M  V30 3793 C 343.852 -2.28155 0.0451175 0
M  V30 3794 C 344.83 -1.44433 -0.746852 0
M  V30 3795 O 346.014 -1.73823 -0.729237 0
M  V30 3796 C 343.141 -3.253 -0.943266 0
M  V30 3797 C 342.187 -4.25826 -0.239685 0
M  V30 3798 S 343.02 -5.25166 1.04693 0
M  V30 3799 C 344.176 -6.2587 0.0611639 0
M  V30 3800 H 344.409 -2.86388 0.79807 0
M  V30 3801 H 341.942 -1.45104 0.527653 0
M  V30 3802 H 343.9 -3.81789 -1.50824 0
M  V30 3803 H 342.561 -2.66085 -1.66906 0
M  V30 3804 H 341.754 -4.94229 -0.987596 0
M  V30 3805 H 341.356 -3.73141 0.253274 0
M  V30 3806 H 343.648 -6.73007 -0.778941 0
M  V30 3807 H 344.591 -7.04508 0.712362 0
M  V30 3808 H 344.999 -5.63639 -0.311602 0
M  V30 3809 N 344.397 -0.483516 -1.5 0
M  V30 3810 C 345.345 0.318061 -2.30415 0
M  V30 3811 C 346.339 0.978988 -1.38247 0
M  V30 3812 O 347.545 0.908673 -1.55381 0
M  V30 3813 H 343.92 0.121419 -0.742133 0
M  V30 3814 H 345.891 -0.380403 -2.95965 0
M  V30 3815 C 344.64 1.38013 -3.19136 0
M  V30 3816 H 343.963 0.880952 -3.89973 0
M  V30 3817 H 345.403 1.91332 -3.78375 0
M  V30 3818 C 343.862 2.38884 -2.37563 0
M  V30 3819 O 344.392 3.44412 -2.06744 0
M  V30 3820 N 342.598 2.10912 -1.99911 0
M  V30 3821 H 342.145 1.25118 -2.25174 0
M  V30 3822 H 342.103 2.78635 -1.45636 0
M  V30 3823 N 345.875 1.56104 -0.216619 0
M  V30 3824 C 346.838 2.18819 0.681962 0
M  V30 3825 C 347.838 1.14866 1.12528 0
M  V30 3826 O 349.028 1.40128 1.03488 0
M  V30 3827 C 346.16 2.80756 1.93362 0
M  V30 3828 H 347.353 2.99595 0.135254 0
M  V30 3829 H 344.906 1.56265 0.0330003 0
M  V30 3830 H 345.641 2.03837 2.52232 0
M  V30 3831 H 345.426 3.56876 1.62426 0
M  V30 3832 H 346.916 3.28844 2.57393 0
M  V30 3833 N 347.353 -0.0568162 1.57498 0
M  V30 3834 C 348.6 -0.753104 1.87975 0
M  V30 3835 C 348.928 -1.76815 0.81035 0
M  V30 3836 O 348.183 -1.94756 -0.19199 0
M  V30 3837 C 348.482 -1.48359 3.25153 0
M  V30 3838 C 348.148 -0.60713 4.46794 0
M  V30 3839 C 346.81 -0.365642 4.79809 0
M  V30 3840 C 349.162 -0.000305978 5.212 0
M  V30 3841 C 346.49 0.491905 5.84634 0
M  V30 3842 C 348.842 0.844781 6.26934 0
M  V30 3843 C 347.506 1.096 6.58441 0
M  V30 3844 H 346.776 -0.27558 0.687849 0
M  V30 3845 H 349.423 -0.0135173 1.91495 0
M  V30 3846 H 347.728 -2.29577 3.17492 0
M  V30 3847 H 349.425 -2.02739 3.45974 0
M  V30 3848 H 346.015 -0.805487 4.20963 0
M  V30 3849 H 350.199 -0.173961 4.95995 0
M  V30 3850 H 345.455 0.695131 6.07436 0
M  V30 3851 H 349.629 1.32165 6.83744 0
M  V30 3852 H 347.256 1.76224 7.39492 0
M  V30 3853 N 348.832 -1.54138 -0.328536 0
M  V30 3854 C 350.081 -1.71318 -1.06456 0
M  V30 3855 C 350.394 -0.491109 -1.89334 0
M  V30 3856 O 351.6 -0.54416 -2.65991 0
M  V30 3857 C 350.056 -3.03 -1.94214 0
M  V30 3858 C 349.664 -4.32595 -1.16471 0
M  V30 3859 C 351.408 -3.29544 -2.67583 0
M  V30 3860 C 349.315 -5.55341 -2.03347 0
M  V30 3861 H 348.245 -0.638429 -0.401155 0
M  V30 3862 H 350.896 -1.80633 -0.323106 0
M  V30 3863 H 349.278 -2.87579 -2.72239 0
M  V30 3864 H 350.452 -4.58766 -0.432525 0
M  V30 3865 H 348.767 -4.12777 -0.548063 0
M  V30 3866 H 351.364 -4.18444 -3.3288 0
M  V30 3867 H 351.707 -2.47206 -3.34955 0
M  V30 3868 H 352.24 -3.45809 -1.96623 0
M  V30 3869 H 348.979 -6.40268 -1.40491 0
M  V30 3870 H 348.499 -5.33397 -2.74313 0
M  V30 3871 H 350.178 -5.91557 -2.62049 0
M  V30 3872 N 350.31 0.590341 -1.46126 0
M  V30 3873 C 351.257 1.69994 -1.56111 0
M  V30 3874 C 352.227 1.61065 -0.405867 0
M  V30 3875 O 353.412 1.8039 -0.621613 0
M  V30 3876 C 350.552 3.08326 -1.55013 0
M  V30 3877 C 349.665 3.27936 -2.81215 0
M  V30 3878 C 348.8 4.56473 -2.71673 0
M  V30 3879 C 347.839 4.694 -3.92849 0
M  V30 3880 N 346.976 5.89254 -3.81738 0
M  V30 3881 H 351.816 1.60797 -2.50895 0
M  V30 3882 H 349.353 0.783799 -1.24479 0
M  V30 3883 H 351.311 3.88383 -1.52362 0
M  V30 3884 H 349.941 3.16439 -0.637667 0
M  V30 3885 H 348.993 2.41536 -2.93879 0
M  V30 3886 H 350.305 3.33357 -3.71045 0
M  V30 3887 H 349.459 5.44748 -2.67085 0
M  V30 3888 H 348.198 4.53477 -1.7947 0
M  V30 3889 H 347.203 3.79544 -3.97777 0
M  V30 3890 H 348.428 4.7418 -4.86138 0
M  V30 3891 H 346.374 5.87271 -2.92317 0
M  V30 3892 H 346.291 5.95911 -4.65217 0
M  V30 3893 H 347.559 6.79981 -3.81112 0
M  V30 3894 N 351.788 1.33704 0.83433 0
M  V30 3895 C 353.016 1.28467 1.62185 0
M  V30 3896 C 353.431 -0.143526 1.88254 0
M  V30 3897 O 352.788 -1.08709 1.4659 0
M  V30 3898 C 352.839 2.06174 2.96942 0
M  V30 3899 O 352.56 3.43422 2.72016 0
M  V30 3900 C 354.061 2.08201 3.91366 0
M  V30 3901 H 351.281 0.4424 0.504503 0
M  V30 3902 H 353.825 1.76145 1.03891 0
M  V30 3903 H 351.98 1.62167 3.51825 0
M  V30 3904 H 352.394 3.83453 3.57861 0
M  V30 3905 H 353.868 2.67017 4.83121 0
M  V30 3906 H 354.345 1.07343 4.2588 0
M  V30 3907 H 354.951 2.52246 3.42421 0
M  V30 3908 N 353.266 -1.05314 1.17247 0
M  V30 3909 C 354.229 -2.112 0.890357 0
M  V30 3910 C 355.229 -1.60359 -0.118943 0
M  V30 3911 O 356.419 -1.73833 0.113086 0
M  V30 3912 C 353.551 -3.39266 0.333422 0
M  V30 3913 H 354.744 -2.37659 1.82916 0
M  V30 3914 H 352.297 -1.21538 0.982758 0
M  V30 3915 H 353.032 -3.18462 -0.612587 0
M  V30 3916 H 352.817 -3.77477 1.06082 0
M  V30 3917 H 354.307 -4.17315 0.154322 0
M  V30 3918 N 354.744 -0.972509 -1.24016 0
M  V30 3919 C 355.694 -0.477561 -2.22942 0
M  V30 3920 C 356.678 0.44308 -1.54679 0
M  V30 3921 O 357.87 0.273219 -1.74879 0
M  V30 3922 C 354.999 0.226348 -3.42553 0
M  V30 3923 C 354.085 -0.713403 -4.18057 0
M  V30 3924 N 354.476 -1.8527 -4.70647 0
M  V30 3925 C 352.774 -0.525145 -4.42898 0
M  V30 3926 C 353.475 -2.44089 -5.28011 0
M  V30 3927 N 352.451 -1.72556 -5.15486 0
M  V30 3928 H 356.253 -1.34678 -2.61226 0
M  V30 3929 H 353.767 -0.832196 -1.39457 0
M  V30 3930 H 355.764 0.598184 -4.12586 0
M  V30 3931 H 354.424 1.09195 -3.05788 0
M  V30 3932 H 355.435 -2.2341 -4.67235 0
M  V30 3933 H 352.112 0.296096 -4.16449 0
M  V30 3934 H 353.502 -3.40259 -5.79374 0
M  V30 3935 N 356.222 1.38976 -0.743202 0
M  V30 3936 C 357.169 2.30544 -0.10861 0
M  V30 3937 C 358.139 1.49642 0.720869 0
M  V30 3938 O 359.324 1.78304 0.679142 0
M  V30 3939 C 356.464 3.36018 0.786496 0
M  V30 3940 C 355.577 4.31963 -0.0564849 0
M  V30 3941 C 354.712 5.24506 0.840657 0
M  V30 3942 C 353.751 6.121 -0.00658363 0
M  V30 3943 N 352.888 6.96973 0.846943 0
M  V30 3944 H 357.728 2.8424 -0.895088 0
M  V30 3945 H 355.265 1.3995 -0.453048 0
M  V30 3946 H 357.223 3.95768 1.31999 0
M  V30 3947 H 355.853 2.83758 1.53887 0
M  V30 3948 H 354.905 3.73763 -0.707492 0
M  V30 3949 H 356.217 4.93703 -0.711229 0
M  V30 3950 H 355.371 5.89322 1.4417 0
M  V30 3951 H 354.11 4.63107 1.52916 0
M  V30 3952 H 353.115 5.46289 -0.620366 0
M  V30 3953 H 354.34 6.75565 -0.691992 0
M  V30 3954 H 352.286 6.38133 1.52059 0
M  V30 3955 H 352.203 7.5559 0.248864 0
M  V30 3956 H 353.471 7.6621 1.43328 0
M  V30 3957 N 357.7 0.491464 1.49741 0
M  V30 3958 C 358.647 -0.292027 2.28945 0
M  V30 3959 C 359.617 -0.968973 1.34908 0
M  V30 3960 O 360.802 -0.97748 1.6386 0
M  V30 3961 C 357.942 -1.35617 3.17336 0
M  V30 3962 C 357.055 -0.691957 4.26422 0
M  V30 3963 C 356.19 -1.73572 5.02042 0
M  V30 3964 C 355.229 -1.05286 6.02977 0
M  V30 3965 N 354.366 -2.0404 6.71798 0
M  V30 3966 H 359.206 0.389654 2.95442 0
M  V30 3967 H 356.743 0.204003 1.45679 0
M  V30 3968 H 358.701 -1.98502 3.66951 0
M  V30 3969 H 357.331 -2.00674 2.52844 0
M  V30 3970 H 356.383 0.0499523 3.80367 0
M  V30 3971 H 357.695 -0.153946 4.98562 0
M  V30 3972 H 356.849 -2.43987 5.55478 0
M  V30 3973 H 355.588 -2.30757 4.29654 0
M  V30 3974 H 354.593 -0.334446 5.48782 0
M  V30 3975 H 355.818 -0.487636 6.77347 0
M  V30 3976 H 353.764 -2.60205 6.02187 0
M  V30 3977 H 353.681 -1.55279 7.39881 0
M  V30 3978 H 354.949 -2.73772 7.29842 0
M  V30 3979 N 359.178 -1.55987 0.224894 0
M  V30 3980 C 360.589 -1.84553 -0.282345 0
M  V30 3981 C 360.94 -1.14634 -1.59227 0
M  V30 3982 O 360.065 -0.417155 -2.12341 0
M  V30 3983 C 360.66 -3.348 -0.519062 0
M  V30 3984 C 359.219 -3.63671 -0.970604 0
M  V30 3985 C 358.366 -2.77277 -0.0355261 0
M  V30 3986 H 361.317 -1.52245 0.448006 0
M  V30 3987 H 361.338 -3.55187 -1.36463 0
M  V30 3988 H 360.85 -3.8566 0.43449 0
M  V30 3989 H 358.951 -3.1827 -1.9374 0
M  V30 3990 H 359.064 -4.71631 -0.842698 0
M  V30 3991 H 357.428 -2.48846 -0.542927 0
M  V30 3992 H 358.211 -3.30937 0.913003 0
M  V30 3993 N 360.656 0.0484629 -1.57525 0
M  V30 3994 C 361.905 0.742065 -1.87553 0
M  V30 3995 C 362.218 1.77545 -0.820802 0
M  V30 3996 O 363.424 2.52027 -1.00967 0
M  V30 3997 C 361.88 1.37081 -3.32771 0
M  V30 3998 C 361.488 0.374786 -4.4643 0
M  V30 3999 C 363.232 2.04542 -3.71972 0
M  V30 4000 C 361.139 1.01077 -5.82698 0
M  V30 4001 H 360.069 0.280903 -0.699721 0
M  V30 4002 H 362.72 -0.00411877 -1.835 0
M  V30 4003 H 361.102 2.16605 -3.31509 0
M  V30 4004 H 362.276 -0.392331 -4.59127 0
M  V30 4005 H 360.591 -0.196653 -4.15935 0
M  V30 4006 H 363.188 2.52943 -4.71088 0
M  V30 4007 H 363.531 2.85515 -3.02964 0
M  V30 4008 H 364.064 1.31819 -3.75325 0
M  V30 4009 H 360.803 0.240878 -6.55057 0
M  V30 4010 H 360.323 1.74819 -5.73758 0
M  V30 4011 H 362.002 1.52383 -6.28799 0
M  V30 4012 N 362.134 1.5431 0.320358 0
M  V30 4013 C 363.411 1.63322 1.07635 0
M  V30 4014 C 363.791 0.46912 2.05821 0
M  V30 4015 O 363.139 -0.536274 2.22118 0
M  V30 4016 C 363.349 3.00465 1.77544 0
M  V30 4017 C 364.697 3.56621 2.30449 0
M  V30 4018 O 365.721 3.02791 1.87606 0
M  V30 4019 O 364.58 4.5083 3.08892 0
M  V30 4020 H 361.674 0.661502 0.496331 0
M  V30 4021 H 364.22 1.66656 0.319992 0
M  V30 4022 H 362.992 3.76629 1.06143 0
M  V30 4023 H 362.615 3.00824 2.59982 0
M  V30 4024 N 363.613 -0.582584 1.46437 0
M  V30 4025 C 364.543 -1.70187 1.59871 0
M  V30 4026 C 365.524 -1.64066 0.449042 0
M  V30 4027 O 366.709 -1.82081 0.6753 0
M  V30 4028 C 363.839 -3.08827 1.58881 0
M  V30 4029 C 362.793 -3.29779 2.72819 0
M  V30 4030 C 362.119 -4.68947 2.5689 0
M  V30 4031 C 363.419 -3.17601 4.1464 0
M  V30 4032 H 365.113 -1.592 2.53566 0
M  V30 4033 H 362.659 -0.764472 1.22032 0
M  V30 4034 H 364.612 -3.86951 1.66873 0
M  V30 4035 H 363.336 -3.20713 0.617306 0
M  V30 4036 H 361.995 -2.54054 2.64296 0
M  V30 4037 H 361.643 -4.77599 1.57823 0
M  V30 4038 H 361.343 -4.83919 3.33312 0
M  V30 4039 H 362.867 -5.4924 2.66773 0
M  V30 4040 H 364.281 -3.8557 4.24274 0
M  V30 4041 H 362.678 -3.44094 4.9165 0
M  V30 4042 H 363.748 -2.14681 4.34788 0
M  V30 4043 N 365.091 -1.34144 -0.827227 0
M  V30 4044 C 366.507 -1.13732 -1.11969 0
M  V30 4045 C 366.707 0.0640463 -2.01398 0
M  V30 4046 O 365.763 0.740856 -2.41387 0
M  V30 4047 C 367.076 -2.43047 -1.77055 0
M  V30 4048 C 368.624 -2.49063 -1.89569 0
M  V30 4049 C 369.099 -3.78369 -2.58072 0
M  V30 4050 N 370.59 -3.79505 -2.65575 0
M  V30 4051 C 371.325 -4.76274 -3.19297 0
M  V30 4052 N 370.821 -5.83424 -3.73616 0
M  V30 4053 N 372.614 -4.63735 -3.17658 0
M  V30 4054 H 364.765 -2.11126 -0.232296 0
M  V30 4055 H 367.028 -0.933424 -0.165602 0
M  V30 4056 H 366.734 -3.31025 -1.18807 0
M  V30 4057 H 366.608 -2.56066 -2.76966 0
M  V30 4058 H 368.995 -1.61527 -2.46968 0
M  V30 4059 H 369.076 -2.39975 -0.885745 0
M  V30 4060 H 368.72 -4.66293 -2.01329 0
M  V30 4061 H 368.65 -3.84737 -3.59562 0
M  V30 4062 H 371.141 -3.02074 -2.27068 0
M  V30 4063 H 371.454 -6.53282 -4.12846 0
M  V30 4064 H 369.799 -5.87143 -3.71871 0
M  V30 4065 H 372.99 -3.79177 -2.74486 0
M  V30 4066 H 373.163 -5.39318 -3.59221 0
M  V30 4067 N 366.569 1.04691 -1.17803 0
M  V30 4068 C 367.532 2.10724 -0.901545 0
M  V30 4069 C 368.532 1.6042 0.110437 0
M  V30 4070 O 369.722 1.7377 -0.122303 0
M  V30 4071 C 366.854 3.39084 -0.351409 0
M  V30 4072 H 368.047 2.36686 -1.84174 0
M  V30 4073 H 365.6 1.21015 -0.98919 0
M  V30 4074 H 366.335 3.18782 0.59569 0
M  V30 4075 H 366.12 3.76909 -1.08083 0
M  V30 4076 H 367.61 4.17227 -0.176451 0
M  V30 4077 N 368.047 0.979072 1.23499 0
M  V30 4078 C 369.296 0.642751 1.91185 0
M  V30 4079 C 369.609 -0.827253 1.77245 0
M  V30 4080 O 370.815 -1.27458 2.39722 0
M  V30 4081 C 369.271 1.09901 3.42709 0
M  V30 4082 C 368.879 2.59327 3.65313 0
M  V30 4083 C 370.623 0.836371 4.16179 0
M  V30 4084 C 368.53 2.98627 5.10467 0
M  V30 4085 H 367.46 0.236698 0.715884 0
M  V30 4086 H 370.111 1.1868 1.39955 0
M  V30 4087 H 368.493 0.48319 3.93041 0
M  V30 4088 H 369.667 3.26136 3.25533 0
M  V30 4089 H 367.982 2.83323 3.05151 0
M  V30 4090 H 370.579 1.10586 5.23139 0
M  V30 4091 H 370.922 -0.227509 4.15678 0
M  V30 4092 H 371.455 1.41371 3.71832 0
M  V30 4093 H 368.194 4.04133 5.16098 0
M  V30 4094 H 367.714 2.3651 5.51201 0
M  V30 4095 H 369.393 2.89159 5.78788 0
M  V30 4096 N 369.525 -1.3858 0.750561 0
M  V30 4097 C 370.773 -1.99789 0.30477 0
M  V30 4098 C 371.094 -1.59874 -1.11649 0
M  V30 4099 O 370.364 -0.85417 -1.76297 0
M  V30 4100 H 368.944 -0.738902 0.109694 0
M  V30 4101 H 371.606 -1.69391 0.963983 0
M  V30 4102 H 370.702 -3.09952 0.365499 0
M  V30 4103 N 371.003 -0.499398 -1.49478 0
M  V30 4104 C 371.95 0.279881 -2.29097 0
M  V30 4105 C 372.92 0.961805 -1.3542 0
M  V30 4106 O 374.105 0.968777 -1.64376 0
M  V30 4107 C 371.245 1.33932 -3.18051 0
M  V30 4108 C 370.358 0.669333 -4.26783 0
M  V30 4109 C 369.493 1.70907 -5.02955 0
M  V30 4110 C 368.532 1.02087 -6.03527 0
M  V30 4111 N 367.669 2.00474 -6.7287 0
M  V30 4112 H 372.509 -0.405317 -2.95231 0
M  V30 4113 H 370.046 -0.211726 -1.45568 0
M  V30 4114 H 372.004 1.96553 -3.67998 0
M  V30 4115 H 370.634 1.9933 -2.53904 0
M  V30 4116 H 369.686 -0.0701234 -3.80335 0
M  V30 4117 H 370.998 0.127503 -4.98637 0
M  V30 4118 H 370.152 2.41037 -5.56764 0
M  V30 4119 H 368.891 2.28476 -4.30871 0
M  V30 4120 H 367.896 0.305338 -5.48951 0
M  V30 4121 H 369.121 0.451708 -6.77596 0
M  V30 4122 H 367.067 2.57007 -6.03559 0
M  V30 4123 H 366.984 1.51353 -7.40694 0
M  V30 4124 H 368.252 2.69897 -7.31284 0
M  V30 4125 N 372.481 1.55866 -0.233164 0
M  V30 4126 C 373.411 2.23783 0.666599 0
M  V30 4127 C 374.392 1.21343 1.19205 0
M  V30 4128 O 375.577 1.4996 1.23392 0
M  V30 4129 C 372.707 2.92671 1.86978 0
M  V30 4130 C 371.661 4.01682 1.47768 0
M  V30 4131 C 370.987 4.57926 2.76058 0
M  V30 4132 C 372.287 5.18126 0.658993 0
M  V30 4133 H 373.981 2.99232 0.100306 0
M  V30 4134 H 371.527 1.43924 0.046804 0
M  V30 4135 H 373.48 3.3888 2.50476 0
M  V30 4136 H 372.204 2.14688 2.46123 0
M  V30 4137 H 370.863 3.56222 0.866106 0
M  V30 4138 H 370.511 3.76659 3.33372 0
M  V30 4139 H 370.211 5.31505 2.50552 0
M  V30 4140 H 371.735 5.06859 3.40479 0
M  V30 4141 H 373.149 5.60644 1.19795 0
M  V30 4142 H 371.546 5.98009 0.500552 0
M  V30 4143 H 372.616 4.83763 -0.331856 0
M  V30 4144 N 373.959 -0.0401083 1.57549 0
M  V30 4145 C 375.37 -0.588097 1.77196 0
M  V30 4146 C 375.721 -1.76209 0.862832 0
M  V30 4147 O 374.846 -2.16331 0.0548389 0
M  V30 4148 C 375.441 -1.07363 3.21339 0
M  V30 4149 C 374 -1.56723 3.42221 0
M  V30 4150 C 373.147 -0.50041 2.72747 0
M  V30 4151 H 376.098 0.186119 1.57605 0
M  V30 4152 H 376.119 -1.94143 3.27244 0
M  V30 4153 H 375.631 -0.218975 3.87482 0
M  V30 4154 H 373.732 -2.4441 2.81237 0
M  V30 4155 H 373.845 -1.62234 4.50796 0
M  V30 4156 H 372.209 -0.952894 2.36203 0
M  V30 4157 H 372.992 0.344599 3.41566 0
M  V30 4158 N 375.437 -1.54477 -0.31217 0
M  V30 4159 C 376.686 -1.72438 -1.04633 0
M  V30 4160 C 376.999 -0.511163 -1.88803 0
M  V30 4161 O 378.205 -0.572341 -2.65399 0
M  V30 4162 C 376.661 -3.05043 -1.9099 0
M  V30 4163 C 376.269 -4.33806 -1.11877 0
M  V30 4164 C 378.013 -3.32364 -2.64073 0
M  V30 4165 C 375.92 -5.57467 -1.97445 0
M  V30 4166 H 374.85 -0.642647 -0.394361 0
M  V30 4167 H 377.501 -1.80966 -0.303929 0
M  V30 4168 H 375.883 -2.90451 -2.69173 0
M  V30 4169 H 377.057 -4.59199 -0.383843 0
M  V30 4170 H 375.372 -4.13336 -0.504252 0
M  V30 4171 H 377.969 -4.21951 -3.28423 0
M  V30 4172 H 378.312 -2.50745 -3.32314 0
M  V30 4173 H 378.845 -3.47875 -1.92944 0
M  V30 4174 H 375.584 -6.41722 -1.33692 0
M  V30 4175 H 375.104 -5.36277 -2.6864 0
M  V30 4176 H 376.783 -5.94303 -2.5576 0
M  V30 4177 N 376.915 0.57481 -1.46744 0
M  V30 4178 C 377.878 1.66533 -1.57478 0
M  V30 4179 C 378.878 1.54338 -0.451263 0
M  V30 4180 O 380.068 1.58814 -0.715813 0
M  V30 4181 C 377.2 3.05999 -1.50259 0
M  V30 4182 H 378.393 1.58372 -2.54673 0
M  V30 4183 H 375.946 0.793301 -1.34672 0
M  V30 4184 H 376.681 3.19709 -0.543725 0
M  V30 4185 H 376.466 3.16259 -2.31781 0
M  V30 4186 H 377.956 3.8537 -1.60872 0
M  V30 4187 N 378.394 1.34581 0.820102 0
M  V30 4188 C 379.327 1.20735 1.93644 0
M  V30 4189 C 380.305 0.0983343 1.62302 0
M  V30 4190 O 381.489 0.263997 1.86642 0
M  V30 4191 C 378.616 0.856037 3.27704 0
M  V30 4192 C 377.662 1.97521 3.78005 0
M  V30 4193 S 378.495 3.58906 3.97425 0
M  V30 4194 C 379.651 3.25822 5.34407 0
M  V30 4195 H 379.884 2.15231 2.05093 0
M  V30 4196 H 377.417 1.1964 0.97599 0
M  V30 4197 H 379.375 0.660133 4.05157 0
M  V30 4198 H 378.036 -0.0706253 3.14021 0
M  V30 4199 H 377.229 1.68321 4.75062 0
M  V30 4200 H 376.831 2.12875 3.07507 0
M  V30 4201 H 379.123 2.77812 6.17922 0
M  V30 4202 H 380.066 4.22029 5.68592 0
M  V30 4203 H 380.474 2.61932 5.00052 0
M  V30 4204 N 379.872 -1.04064 1.18357 0
M  V30 4205 C 381.288 -1.2947 0.933258 0
M  V30 4206 C 381.488 -1.97466 -0.401169 0
M  V30 4207 O 380.544 -2.25528 -1.13549 0
M  V30 4208 C 381.857 -2.15337 2.09882 0
M  V30 4209 C 383.405 -2.28683 2.13712 0
M  V30 4210 C 383.88 -3.17917 3.29686 0
M  V30 4211 N 385.371 -3.25504 3.29547 0
M  V30 4212 C 386.106 -3.94706 4.15926 0
M  V30 4213 N 385.602 -4.66239 5.12439 0
M  V30 4214 N 387.395 -3.90986 4.0384 0
M  V30 4215 H 379.546 -0.583359 2.04232 0
M  V30 4216 H 381.809 -0.319921 0.892387 0
M  V30 4217 H 381.515 -1.72682 3.06389 0
M  V30 4218 H 381.389 -3.16015 2.05947 0
M  V30 4219 H 383.776 -2.70575 1.17784 0
M  V30 4220 H 383.857 -1.27596 2.21705 0
M  V30 4221 H 383.501 -2.76736 4.25887 0
M  V30 4222 H 383.431 -4.19036 3.1893 0
M  V30 4223 H 385.922 -2.74547 2.59677 0
M  V30 4224 H 386.235 -5.16638 5.74722 0
M  V30 4225 H 384.58 -4.65143 5.16398 0
M  V30 4226 H 387.771 -3.34234 3.27727 0
M  V30 4227 H 387.944 -4.44646 4.71375 0
M  V30 4228 N 381.35 -0.985608 -1.22978 0
M  V30 4229 C 382.313 -0.535071 -2.22867 0
M  V30 4230 C 383.313 0.378123 -1.56291 0
M  V30 4231 O 384.503 0.171092 -1.73358 0
M  V30 4232 C 381.635 0.222702 -3.40172 0
M  V30 4233 H 382.828 -1.41835 -2.6424 0
M  V30 4234 H 380.381 -0.772042 -1.35901 0
M  V30 4235 H 381.116 1.12229 -3.04262 0
M  V30 4236 H 380.901 -0.43288 -3.89703 0
M  V30 4237 H 382.391 0.526335 -4.1427 0
M  V30 4238 N 382.828 1.3818 -0.7579 0
M  V30 4239 C 383.758 2.33027 -0.148597 0
M  V30 4240 C 384.739 1.55085 0.69875 0
M  V30 4241 O 385.924 1.83384 0.639053 0
M  V30 4242 C 383.054 3.3928 0.742034 0
M  V30 4243 C 382.008 4.28 -0.00291946 0
M  V30 4244 C 381.334 5.25146 1.00625 0
M  V30 4245 C 382.634 5.08938 -1.17385 0
M  V30 4246 H 384.328 2.84231 -0.940909 0
M  V30 4247 H 381.874 1.36659 -0.453908 0
M  V30 4248 H 383.827 4.046 1.17799 0
M  V30 4249 H 382.551 2.86569 1.56671 0
M  V30 4250 H 381.21 3.64192 -0.419504 0
M  V30 4251 H 380.858 4.68721 1.8251 0
M  V30 4252 H 380.558 5.85361 0.512428 0
M  V30 4253 H 382.082 5.93342 1.44143 0
M  V30 4254 H 383.496 5.67474 -0.815224 0
M  V30 4255 H 381.893 5.7841 -1.59882 0
M  V30 4256 H 382.963 4.42424 -1.98468 0
M  V30 4257 N 384.306 0.507319 1.49211 0
M  V30 4258 C 385.534 -0.0315749 2.06876 0
M  V30 4259 C 385.949 -1.30241 1.36685 0
M  V30 4260 O 385.306 -1.76937 0.447152 0
M  V30 4261 C 385.357 -0.282627 3.60393 0
M  V30 4262 O 385.078 0.937835 4.27944 0
M  V30 4263 C 386.579 -0.864453 4.3479 0
M  V30 4264 H 383.799 0.0233048 0.670595 0
M  V30 4265 H 386.343 0.706484 1.91909 0
M  V30 4266 H 384.498 -0.97068 3.75042 0
M  V30 4267 H 384.912 0.704567 5.19746 0
M  V30 4268 H 386.386 -0.989664 5.43056 0
M  V30 4269 H 386.863 -1.86382 3.97692 0
M  V30 4270 H 387.469 -0.213672 4.24763 0
M  V30 4271 N 385.784 -1.5574 0.241426 0
M  V30 4272 C 386.732 -2.22538 -0.676718 0
M  V30 4273 C 387.726 -1.21117 -1.18436 0
M  V30 4274 O 388.932 -1.39144 -1.14188 0
M  V30 4275 H 385.307 -0.713776 -0.236701 0
M  V30 4276 H 387.278 -2.98264 -0.0901187 0
M  V30 4277 C 386.027 -2.93439 -1.86518 0
M  V30 4278 H 385.35 -3.7125 -1.4837 0
M  V30 4279 H 386.79 -3.43549 -2.48495 0
M  V30 4280 C 385.249 -1.97008 -2.73294 0
M  V30 4281 O 385.779 -1.49965 -3.72657 0
M  V30 4282 N 383.985 -1.64227 -2.39745 0
M  V30 4283 H 383.532 -2.02677 -1.58996 0
M  V30 4284 H 383.49 -0.999708 -2.98083 0
M  V30 4285 N 387.262 0.0317525 -1.57568 0
M  V30 4286 C 388.492 0.733884 -1.93126 0
M  V30 4287 C 388.9 1.69563 -0.839352 0
M  V30 4288 O 388.243 1.82681 0.193175 0
M  V30 4289 C 388.305 1.54798 -3.24465 0
M  V30 4290 C 387.969 0.751304 -4.50782 0
M  V30 4291 C 388.966 0.0527632 -5.19873 0
M  V30 4292 C 386.651 0.706639 -4.97305 0
M  V30 4293 C 388.645 -0.679774 -6.33765 0
M  V30 4294 C 386.332 -0.0296449 -6.11093 0
M  V30 4295 C 387.33 -0.721614 -6.79177 0
M  V30 4296 O 387.018 -1.44595 -7.90789 0
M  V30 4297 H 386.75 0.211459 -0.642076 0
M  V30 4298 H 389.304 -0.00585615 -2.05399 0
M  V30 4299 H 387.534 2.33147 -3.08512 0
M  V30 4300 H 389.223 2.13247 -3.4537 0
M  V30 4301 H 389.989 0.0783188 -4.84937 0
M  V30 4302 H 385.868 1.23474 -4.44157 0
M  V30 4303 H 389.412 -1.22042 -6.86842 0
M  V30 4304 H 385.309 -0.0571331 -6.45475 0
M  V30 4305 H 386.077 -1.35935 -8.07133 0
M  V30 4306 N 388.74 1.54641 0.303973 0
M  V30 4307 C 389.672 1.81754 1.39636 0
M  V30 4308 C 390.685 0.70035 1.46966 0
M  V30 4309 O 391.874 0.97778 1.49338 0
M  V30 4310 C 388.974 1.93785 2.7803 0
M  V30 4311 C 388.147 3.24156 2.93669 0
M  V30 4312 C 387.206 3.26641 4.12544 0
M  V30 4313 O 386.232 4.00187 4.04771 0
M  V30 4314 N 387.434 2.5182 5.23036 0
M  V30 4315 H 390.199 2.76031 1.16734 0
M  V30 4316 H 387.76 1.54178 0.494033 0
M  V30 4317 H 389.752 1.92852 3.55795 0
M  V30 4318 H 388.322 1.06515 2.93893 0
M  V30 4319 H 387.542 3.37887 2.03042 0
M  V30 4320 H 388.83 4.10195 3.01027 0
M  V30 4321 H 388.228 1.91692 5.32232 0
M  V30 4322 H 386.785 2.56644 5.99147 0
M  V30 4323 N 390.218 -0.567019 1.47046 0
M  V30 4324 C 391.634 -0.891975 1.32348 0
M  V30 4325 C 391.834 -1.99154 0.306616 0
M  V30 4326 O 390.89 -2.50883 -0.28532 0
M  V30 4327 C 392.203 -1.29449 2.7141 0
M  V30 4328 C 393.751 -1.40646 2.79621 0
M  V30 4329 C 394.226 -1.84257 4.19301 0
M  V30 4330 N 395.717 -1.91424 4.21795 0
M  V30 4331 C 396.452 -2.26476 5.26779 0
M  V30 4332 N 395.948 -2.60211 6.42077 0
M  V30 4333 N 397.741 -2.27166 5.14152 0
M  V30 4334 H 389.892 0.159074 2.11803 0
M  V30 4335 H 392.155 0.00849752 0.947962 0
M  V30 4336 H 391.861 -0.560448 3.47206 0
M  V30 4337 H 391.735 -2.25273 3.02542 0
M  V30 4338 H 394.122 -2.13133 2.04104 0
M  V30 4339 H 394.203 -0.430339 2.52154 0
M  V30 4340 H 393.847 -1.12343 4.95319 0
M  V30 4341 H 393.777 -2.82855 4.44185 0
M  V30 4342 H 396.268 -1.6778 3.38612 0
M  V30 4343 H 396.581 -2.85956 7.17948 0
M  V30 4344 H 394.926 -2.57813 6.45413 0
M  V30 4345 H 398.117 -2.00244 4.23107 0
M  V30 4346 H 398.29 -2.54154 5.96079 0
M  V30 4347 N 391.696 -1.35014 -0.812953 0
M  V30 4348 C 392.626 -1.30069 -1.93919 0
M  V30 4349 C 393.607 -0.176275 -1.69184 0
M  V30 4350 O 394.792 -0.370227 -1.90638 0
M  V30 4351 C 391.922 -1.06547 -3.30552 0
M  V30 4352 C 390.876 -2.15561 -3.69753 0
M  V30 4353 C 390.202 -1.77214 -5.04479 0
M  V30 4354 C 391.502 -3.57476 -3.808 0
M  V30 4355 H 393.196 -2.24303 -1.98314 0
M  V30 4356 H 390.742 -1.07977 -0.952736 0
M  V30 4357 H 392.695 -1.01729 -4.08937 0
M  V30 4358 H 391.419 -0.0875719 -3.26483 0
M  V30 4359 H 390.078 -2.19466 -2.9365 0
M  V30 4360 H 389.726 -0.780589 -4.96906 0
M  V30 4361 H 389.426 -2.50184 -5.31678 0
M  V30 4362 H 390.95 -1.7391 -5.8531 0
M  V30 4363 H 392.364 -3.55929 -4.4943 0
M  V30 4364 H 390.761 -4.29152 -4.19462 0
M  V30 4365 H 391.831 -3.94091 -2.82525 0
M  V30 4366 N 393.175 1.03435 -1.18907 0
M  V30 4367 C 394.415 1.78302 -0.999391 0
M  V30 4368 C 394.779 1.86353 0.462219 0
M  V30 4369 O 395.98 2.57489 0.771543 0
M  V30 4370 C 394.251 3.17362 -1.64365 0
M  V30 4371 S 395.81 4.08488 -1.6026 0
M  V30 4372 H 392.628 0.613861 -0.358742 0
M  V30 4373 H 395.23 1.23979 -1.51161 0
M  V30 4374 H 393.934 3.09116 -2.69955 0
M  V30 4375 H 393.465 3.76762 -1.13199 0
M  V30 4376 H 395.48 4.92274 -0.622932 0
M  V30 4377 N 394.653 0.992116 1.22453 0
M  V30 4378 C 395.563 0.55065 2.28046 0
M  V30 4379 C 396.579 -0.400189 1.69335 0
M  V30 4380 O 397.755 -0.267215 1.99619 0
M  V30 4381 C 394.82 -0.128496 3.46462 0
M  V30 4382 C 393.881 0.865208 4.20491 0
M  V30 4383 C 393.114 0.218377 5.33253 0
M  V30 4384 O 393.337 -0.987894 5.6178 0
M  V30 4385 O 392.271 0.922845 5.94783 0
M  V30 4386 H 396.097 1.4291 2.67975 0
M  V30 4387 H 393.682 0.760326 1.28606 0
M  V30 4388 H 395.564 -0.508947 4.18315 0
M  V30 4389 H 394.239 -0.981526 3.0846 0
M  V30 4390 H 393.146 1.29658 3.50913 0
M  V30 4391 H 394.479 1.68741 4.62371 0
M  V30 4392 N 396.131 -1.37776 0.765217 0
M  V30 4393 C 397.094 -2.28686 0.153416 0
M  V30 4394 C 398.094 -1.47727 -0.635081 0
M  V30 4395 O 399.284 -1.68027 -0.459632 0
M  V30 4396 C 396.416 -3.31608 -0.790495 0
M  V30 4397 H 397.609 -2.84297 0.954723 0
M  V30 4398 H 395.162 -1.46932 0.53299 0
M  V30 4399 H 395.897 -2.81109 -1.61705 0
M  V30 4400 H 395.682 -3.9144 -0.227348 0
M  V30 4401 H 397.172 -3.99559 -1.21419 0
M  V30 4402 N 397.609 -0.515225 -1.4894 0
M  V30 4403 C 398.856 0.024215 -2.02486 0
M  V30 4404 C 399.184 1.35671 -1.39368 0
M  V30 4405 O 398.439 1.88566 -0.523574 0
M  V30 4406 C 398.738 0.210595 -3.56779 0
M  V30 4407 C 398.404 -1.04569 -4.38607 0
M  V30 4408 C 397.066 -1.39002 -4.60686 0
M  V30 4409 C 399.418 -1.88008 -4.86109 0
M  V30 4410 C 396.746 -2.568 -5.27514 0
M  V30 4411 C 399.098 -3.04972 -5.54234 0
M  V30 4412 C 397.762 -3.39768 -5.74555 0
M  V30 4413 H 397.032 0.00886088 -0.740947 0
M  V30 4414 H 399.679 -0.678263 -1.79086 0
M  V30 4415 H 397.984 0.99572 -3.78936 0
M  V30 4416 H 399.681 0.642659 -3.95817 0
M  V30 4417 H 396.271 -0.767497 -4.21672 0
M  V30 4418 H 400.455 -1.62719 -4.68867 0
M  V30 4419 H 395.711 -2.8398 -5.41447 0
M  V30 4420 H 399.885 -3.69943 -5.90013 0
M  V30 4421 H 397.512 -4.31148 -6.26112 0
M  V30 4422 N 399.087 1.5561 -0.249682 0
M  V30 4423 C 400.364 1.90932 0.424761 0
M  V30 4424 C 400.744 1.17078 1.75658 0
M  V30 4425 O 400.092 0.289176 2.26663 0
M  V30 4426 C 400.302 3.43975 0.590109 0
M  V30 4427 C 401.65 4.15281 0.884714 0
M  V30 4428 O 402.674 3.49729 0.67587 0
M  V30 4429 O 401.533 5.31236 1.28259 0
M  V30 4430 H 398.627 0.794815 0.228468 0
M  V30 4431 H 401.173 1.67135 -0.293954 0
M  V30 4432 H 399.945 3.89748 -0.34818 0
M  V30 4433 H 399.568 3.73644 1.35926 0
M  V30 4434 N 400.565 -0.0233959 1.57583 0
M  V30 4435 C 401.528 -1.00693 2.05897 0
M  V30 4436 C 402.528 -1.28693 0.964092 0
M  V30 4437 O 403.718 -1.23602 1.22753 0
M  V30 4438 C 400.85 -2.33825 2.4807 0
M  V30 4439 H 402.043 -0.589476 2.9405 0
M  V30 4440 H 399.596 -0.270354 1.53944 0
M  V30 4441 H 400.331 -2.80307 1.6309 0
M  V30 4442 H 400.116 -2.1483 3.2801 0
M  V30 4443 H 401.606 -3.04426 2.85857 0
M  V30 4444 N 402.043 -1.548 -0.295768 0
M  V30 4445 C 402.975 -1.82492 -1.3867 0
M  V30 4446 C 403.988 -0.708134 -1.46592 0
M  V30 4447 O 405.177 -0.985686 -1.48817 0
M  V30 4448 C 402.277 -1.95256 -2.76999 0
M  V30 4449 C 401.45 -3.25709 -2.91946 0
M  V30 4450 C 400.509 -3.28824 -4.10806 0
M  V30 4451 O 399.535 -4.02328 -4.02643 0
M  V30 4452 N 400.737 -2.5459 -5.21694 0
M  V30 4453 H 403.502 -2.76646 -1.15269 0
M  V30 4454 H 401.063 -1.54438 -0.485849 0
M  V30 4455 H 403.055 -1.94736 -3.54768 0
M  V30 4456 H 401.625 -1.08072 -2.93324 0
M  V30 4457 H 400.845 -3.38959 -2.01247 0
M  V30 4458 H 402.133 -4.11786 -2.98847 0
M  V30 4459 H 401.531 -1.94512 -5.31208 0
M  V30 4460 H 400.088 -2.59818 -5.97778 0
M  V30 4461 N 403.521 0.559213 -1.47345 0
M  V30 4462 C 404.767 1.31843 -1.54095 0
M  V30 4463 C 405.1 1.93149 -0.201726 0
M  V30 4464 O 404.375 1.77759 0.789428 0
M  V30 4465 C 404.658 2.43006 -2.65744 0
M  V30 4466 C 404.511 1.86581 -4.09277 0
M  V30 4467 C 405.83 3.44943 -2.73318 0
M  V30 4468 H 402.949 0.478012 -0.560957 0
M  V30 4469 H 405.591 0.625977 -1.79392 0
M  V30 4470 H 403.741 3.02072 -2.44305 0
M  V30 4471 H 405.413 1.31792 -4.42073 0
M  V30 4472 H 403.656 1.17268 -4.17649 0
M  V30 4473 H 404.327 2.66933 -4.83168 0
M  V30 4474 H 406.803 2.95793 -2.92653 0
M  V30 4475 H 405.679 4.20153 -3.53218 0
M  V30 4476 H 405.94 4.03665 -1.80296 0
M  V30 4477 N 404.999 1.35443 0.805782 0
M  V30 4478 C 406.415 1.15499 1.10146 0
M  V30 4479 C 406.615 -0.0319975 2.01475 0
M  V30 4480 O 405.671 -0.70236 2.42535 0
M  V30 4481 C 406.984 2.45833 1.73166 0
M  V30 4482 C 408.532 2.52047 1.85583 0
M  V30 4483 C 409.007 3.82427 2.52019 0
M  V30 4484 N 410.498 3.83682 2.59504 0
M  V30 4485 C 411.233 4.81294 3.11679 0
M  V30 4486 N 410.729 5.89294 3.64287 0
M  V30 4487 N 412.522 4.6873 3.1024 0
M  V30 4488 H 404.673 2.11469 0.198678 0
M  V30 4489 H 406.936 0.93594 0.150731 0
M  V30 4490 H 406.642 3.32874 1.13526 0
M  V30 4491 H 406.516 2.6044 2.72857 0
M  V30 4492 H 408.903 1.65435 2.44367 0
M  V30 4493 H 408.984 2.41354 0.847455 0
M  V30 4494 H 408.628 4.69437 1.93885 0
M  V30 4495 H 408.558 3.90409 3.53395 0
M  V30 4496 H 411.049 3.05648 2.22234 0
M  V30 4497 H 411.362 6.59768 4.02401 0
M  V30 4498 H 409.707 5.92985 3.62483 0
M  V30 4499 H 412.898 3.83496 2.68419 0
M  V30 4500 H 413.071 5.44965 3.50596 0
M  V30 4501 N 406.477 -1.02803 1.19454 0
M  V30 4502 C 407.424 -2.11099 0.933046 0
M  V30 4503 C 408.394 -1.65571 -0.132447 0
M  V30 4504 O 409.579 -1.90797 0.00987576 0
M  V30 4505 C 406.719 -3.41763 0.478747 0
M  V30 4506 C 405.832 -4.00833 1.6111 0
M  V30 4507 C 404.967 -5.19511 1.10825 0
M  V30 4508 C 404.006 -5.70639 2.21445 0
M  V30 4509 N 403.143 -6.80589 1.72461 0
M  V30 4510 H 407.983 -2.32804 1.86028 0
M  V30 4511 H 405.52 -1.14179 0.927441 0
M  V30 4512 H 407.478 -4.16736 0.196745 0
M  V30 4513 H 406.108 -3.20166 -0.411493 0
M  V30 4514 H 405.16 -3.23066 2.00829 0
M  V30 4515 H 406.472 -4.34794 2.4445 0
M  V30 4516 H 405.626 -6.01645 0.781533 0
M  V30 4517 H 404.365 -4.87086 0.244606 0
M  V30 4518 H 403.37 -4.87116 2.54947 0
M  V30 4519 H 404.595 -6.05102 3.08267 0
M  V30 4520 H 402.541 -6.50016 0.884056 0
M  V30 4521 H 402.458 -7.13681 2.49389 0
M  V30 4522 H 403.726 -7.66317 1.42755 0
M  V30 4523 N 407.956 -0.998596 -1.21925 0
M  V30 4524 C 409.233 -0.593401 -1.86382 0
M  V30 4525 C 409.613 0.92916 -1.89552 0
M  V30 4526 O 408.961 1.81347 -1.39017 0
M  V30 4527 C 409.171 -1.22039 -3.26967 0
M  V30 4528 C 410.519 -1.32449 -4.03413 0
M  V30 4529 O 411.543 -1.17522 -3.36254 0
M  V30 4530 O 410.402 -1.56395 -5.23644 0
M  V30 4531 H 407.496 -0.202385 -0.801854 0
M  V30 4532 H 410.042 -1.09484 -1.29659 0
M  V30 4533 H 408.814 -2.26158 -3.19325 0
M  V30 4534 H 408.437 -0.704906 -3.91301 0
M  V30 4535 N 409.434 1.37368 -0.772513 0
M  V30 4536 C 410.683 1.98918 -0.333861 0
M  V30 4537 C 410.996 1.62017 1.09589 0
M  V30 4538 O 412.202 2.16676 1.63596 0
M  V30 4539 C 410.658 3.55735 -0.545971 0
M  V30 4540 C 410.266 4.01573 -1.98603 0
M  V30 4541 C 412.01 4.24156 -0.170979 0
M  V30 4542 C 409.917 5.51102 -2.1457 0
M  V30 4543 H 408.847 0.744214 -0.121085 0
M  V30 4544 H 411.498 1.56888 -0.95175 0
M  V30 4545 H 409.88 3.95748 0.141387 0
M  V30 4546 H 411.054 3.72803 -2.7084 0
M  V30 4547 H 409.369 3.45937 -2.31769 0
M  V30 4548 H 411.966 5.34024 -0.26878 0
M  V30 4549 H 412.309 4.06917 0.878855 0
M  V30 4550 H 412.842 3.89447 -0.810914 0
M  V30 4551 H 409.581 5.73268 -3.17875 0
M  V30 4552 H 409.101 5.81554 -1.46817 0
M  V30 4553 H 410.78 6.17083 -1.94468 0
M  V30 4554 N 410.912 0.523116 1.48665 0
M  V30 4555 C 411.844 -0.280421 2.27478 0
M  V30 4556 C 412.857 -0.910694 1.34945 0
M  V30 4557 O 414.046 -0.790295 1.60052 0
M  V30 4558 C 411.146 -1.41171 3.08097 0
M  V30 4559 C 410.319 -0.884642 4.28361 0
M  V30 4560 C 409.378 -1.89622 4.90846 0
M  V30 4561 O 408.404 -1.4559 5.50265 0
M  V30 4562 N 409.606 -3.22801 4.82472 0
M  V30 4563 H 412.371 0.395481 2.97079 0
M  V30 4564 H 409.932 0.357018 1.57915 0
M  V30 4565 H 411.924 -2.08645 3.4677 0
M  V30 4566 H 410.494 -1.99139 2.40961 0
M  V30 4567 H 409.714 -0.0341177 3.94185 0
M  V30 4568 H 411.002 -0.511268 5.06225 0
M  V30 4569 H 410.4 -3.61246 4.35336 0
M  V30 4570 H 408.957 -3.85927 5.25265 0
M  V30 4571 N 412.39 -1.55475 0.257931 0
M  V30 4572 C 413.638 -1.98813 -0.363009 0
M  V30 4573 C 413.959 -1.14757 -1.57657 0
M  V30 4574 O 413.229 -0.232956 -1.9451 0
M  V30 4575 H 411.809 -0.734308 -0.137113 0
M  V30 4576 H 414.471 -1.9156 0.359281 0
M  V30 4577 H 413.567 -3.04941 -0.664634 0
M  V30 4578 N 413.868 0.0150385 -1.57593 0
M  V30 4579 C 415.096 0.714395 -1.94175 0
M  V30 4580 C 415.511 1.68135 -0.858841 0
M  V30 4581 O 414.868 1.81766 0.163567 0
M  V30 4582 C 414.919 1.45933 -3.30735 0
M  V30 4583 O 414.64 0.531167 -4.34868 0
M  V30 4584 C 416.141 2.25456 -3.81686 0
M  V30 4585 H 413.361 0.199923 -0.640525 0
M  V30 4586 H 415.905 -0.0316096 -2.04476 0
M  V30 4587 H 414.06 2.15709 -3.21789 0
M  V30 4588 H 414.474 1.05509 -5.13778 0
M  V30 4589 H 415.948 2.731 -4.79709 0
M  V30 4590 H 416.425 3.07485 -3.13607 0
M  V30 4591 H 417.031 1.60727 -3.9376 0
M  V30 4592 N 415.346 1.54954 0.287554 0
M  V30 4593 C 416.278 1.83224 1.37701 0
M  V30 4594 C 417.291 0.715898 1.46215 0
M  V30 4595 O 418.48 0.993565 1.48292 0
M  V30 4596 C 415.58 1.96723 2.75959 0
M  V30 4597 C 414.753 3.27253 2.90215 0
M  V30 4598 C 413.812 3.30998 4.09056 0
M  V30 4599 O 412.838 4.04457 4.00503 0
M  V30 4600 N 414.04 2.57353 5.20336 0
M  V30 4601 H 416.805 2.77254 1.138 0
M  V30 4602 H 414.366 1.54694 0.477652 0
M  V30 4603 H 416.358 1.96615 3.5373 0
M  V30 4604 H 414.928 1.09626 2.92747 0
M  V30 4605 H 414.148 3.40022 1.99447 0
M  V30 4606 H 415.436 4.13365 2.96659 0
M  V30 4607 H 414.834 1.97327 5.30169 0
M  V30 4608 H 413.391 2.62984 5.96391 0
M  V30 4609 N 416.824 -0.551391 1.4764 0
M  V30 4610 C 418.072 -1.30572 1.54258 0
M  V30 4611 C 418.393 -1.93877 0.208963 0
M  V30 4612 O 417.663 -1.80234 -0.767619 0
M  V30 4613 H 416.243 -0.484894 0.568231 0
M  V30 4614 H 418.905 -0.643402 1.83974 0
M  V30 4615 H 418.001 -2.09621 2.31226 0
M  V30 4616 N 418.302 -1.35869 -0.798587 0
M  V30 4617 C 419.265 -1.29307 -1.89242 0
M  V30 4618 C 420.265 -0.202747 -1.59517 0
M  V30 4619 O 421.455 -0.456957 -1.681 0
M  V30 4620 C 418.587 -1.00229 -3.25833 0
M  V30 4621 H 419.78 -2.26576 -1.96478 0
M  V30 4622 H 417.333 -1.20509 -0.995358 0
M  V30 4623 H 418.068 -0.033801 -3.24282 0
M  V30 4624 H 417.853 -1.79121 -3.48795 0
M  V30 4625 H 419.343 -0.98219 -4.05885 0
M  V30 4626 N 419.78 1.02168 -1.19998 0
M  V30 4627 C 421.196 1.27969 -0.953737 0
M  V30 4628 C 421.396 1.98079 0.369703 0
M  V30 4629 O 420.452 2.27306 1.09947 0
M  V30 4630 C 421.765 2.11971 -2.13281 0
M  V30 4631 C 423.313 2.25255 -2.17323 0
M  V30 4632 C 423.788 3.12632 -3.34702 0
M  V30 4633 N 425.279 3.2022 -3.34684 0
M  V30 4634 C 426.014 3.88039 -4.22153 0
M  V30 4635 N 425.51 4.58027 -5.19791 0
M  V30 4636 N 427.303 3.84511 -4.10009 0
M  V30 4637 H 419.454 0.550794 -2.05134 0
M  V30 4638 H 421.717 0.305683 -0.897364 0
M  V30 4639 H 421.423 1.67785 -3.09097 0
M  V30 4640 H 421.297 3.12699 -2.10949 0
M  V30 4641 H 423.684 2.68667 -1.22073 0
M  V30 4642 H 423.765 1.24053 -2.23706 0
M  V30 4643 H 423.409 2.69926 -4.30235 0
M  V30 4644 H 423.339 4.13909 -3.25556 0
M  V30 4645 H 425.83 2.70382 -2.64012 0
M  V30 4646 H 426.143 5.07429 -5.82868 0
M  V30 4647 H 424.488 4.56869 -5.23733 0
M  V30 4648 H 427.679 3.28978 -3.33003 0
M  V30 4649 H 427.852 4.3709 -4.78389 0
M  V30 4650 N 421.258 1.00505 1.21394 0
M  V30 4651 C 422.221 0.570459 2.21987 0
M  V30 4652 C 423.221 -0.353211 1.56873 0
M  V30 4653 O 424.411 -0.14349 1.73608 0
M  V30 4654 C 421.543 -0.168555 3.40483 0
M  V30 4655 H 422.736 1.46021 2.6195 0
M  V30 4656 H 420.289 0.793565 1.34656 0
M  V30 4657 H 421.024 -1.07374 3.06009 0
M  V30 4658 H 420.809 0.494823 3.88965 0
M  V30 4659 H 422.299 -0.460362 4.15055 0
M  V30 4660 N 422.737 -1.36956 0.779787 0
M  V30 4661 C 423.986 -1.98738 0.344405 0
M  V30 4662 C 424.299 -1.62596 -1.08728 0
M  V30 4663 O 425.505 -2.1754 -1.62445 0
M  V30 4664 C 423.961 -3.5544 0.564829 0
M  V30 4665 C 423.569 -4.00514 2.0073 0
M  V30 4666 C 425.313 -4.24059 0.193471 0
M  V30 4667 C 423.22 -5.49957 2.17489 0
M  V30 4668 H 422.15 -0.743561 0.12503 0
M  V30 4669 H 424.801 -1.56381 0.960057 0
M  V30 4670 H 423.183 -3.95817 -0.120397 0
M  V30 4671 H 424.357 -3.71362 2.72814 0
M  V30 4672 H 422.672 -3.44703 2.336 0
M  V30 4673 H 425.269 -5.33874 0.297097 0
M  V30 4674 H 425.612 -4.07378 -0.857263 0
M  V30 4675 H 426.145 -3.89012 0.831556 0
M  V30 4676 H 422.884 -5.71574 3.2091 0
M  V30 4677 H 422.404 -5.80767 1.49899 0
M  V30 4678 H 424.083 -6.16043 1.97738 0
M  V30 4679 N 424.215 -0.530993 -1.48385 0
M  V30 4680 C 425.461 -0.00538653 -2.03399 0
M  V30 4681 C 425.816 1.31899 -1.40073 0
M  V30 4682 O 425.109 1.83901 -0.537676 0
M  V30 4683 C 425.303 0.172742 -3.56982 0
M  V30 4684 C 425.132 -1.13282 -4.35198 0
M  V30 4685 C 423.902 -1.69296 -4.76096 0
M  V30 4686 C 426.1 -2.04367 -4.71952 0
M  V30 4687 N 424.082 -2.9413 -5.38851 0
M  V30 4688 C 425.453 -3.13777 -5.34737 0
M  V30 4689 C 427.508 -2.04681 -4.53883 0
M  V30 4690 C 426.211 -4.23567 -5.81363 0
M  V30 4691 C 428.237 -3.13466 -5.01491 0
M  V30 4692 C 427.599 -4.21595 -5.64302 0
M  V30 4693 H 423.698 -0.0434945 -0.780789 0
M  V30 4694 H 426.282 -0.712495 -1.81195 0
M  V30 4695 H 424.453 0.848937 -3.79009 0
M  V30 4696 H 426.185 0.698046 -3.98634 0
M  V30 4697 H 422.94 -1.23422 -4.57235 0
M  V30 4698 H 423.364 -3.57689 -5.74794 0
M  V30 4699 H 428.006 -1.22378 -4.04702 0
M  V30 4700 H 425.724 -5.06648 -6.2955 0
M  V30 4701 H 429.31 -3.14765 -4.893 0
M  V30 4702 H 428.19 -5.04384 -6.00472 0
M  V30 4703 N 425.693 1.55336 -0.266172 0
M  V30 4704 C 426.625 2.19544 0.658247 0
M  V30 4705 C 427.638 1.17746 1.12427 0
M  V30 4706 O 428.827 1.44517 1.04772 0
M  V30 4707 C 425.927 2.80032 1.9088 0
M  V30 4708 C 425.1 4.07436 1.59106 0
M  V30 4709 C 424.159 4.52056 2.69317 0
M  V30 4710 O 423.185 5.18023 2.35883 0
M  V30 4711 N 424.387 4.21448 3.99201 0
M  V30 4712 H 427.152 2.99503 0.108754 0
M  V30 4713 H 424.713 1.61667 -0.0869059 0
M  V30 4714 H 426.705 3.06831 2.63888 0
M  V30 4715 H 425.275 2.04119 2.36758 0
M  V30 4716 H 424.495 3.88021 0.695243 0
M  V30 4717 H 425.783 4.90462 1.35367 0
M  V30 4718 H 425.181 3.68528 4.29189 0
M  V30 4719 H 423.738 4.53039 4.68614 0
M  V30 4720 N 427.171 -0.0066808 1.57599 0
M  V30 4721 C 428.134 -0.985035 2.06953 0
M  V30 4722 C 429.134 -1.27663 0.977687 0
M  V30 4723 O 430.324 -1.22293 1.24057 0
M  V30 4724 C 427.456 -2.3118 2.50536 0
M  V30 4725 H 428.649 -0.558255 2.94658 0
M  V30 4726 H 426.202 -0.254011 1.54222 0
M  V30 4727 H 426.937 -2.78561 1.66054 0
M  V30 4728 H 426.722 -2.11338 3.3027 0
M  V30 4729 H 428.212 -3.01377 2.8907 0
M  V30 4730 N 428.649 -1.55105 -0.279332 0
M  V30 4731 C 429.579 -1.90557 -1.34945 0
M  V30 4732 C 430.56 -0.766738 -1.51839 0
M  V30 4733 O 431.745 -1.02434 -1.64988 0
M  V30 4734 C 428.875 -2.17193 -2.71006 0
M  V30 4735 C 427.829 -3.33021 -2.68851 0
M  V30 4736 C 427.155 -3.45123 -4.08405 0
M  V30 4737 C 428.455 -4.69578 -2.28678 0
M  V30 4738 H 430.149 -2.80188 -1.05522 0
M  V30 4739 H 427.695 -1.34811 -0.506173 0
M  V30 4740 H 429.648 -2.40581 -3.45975 0
M  V30 4741 H 428.372 -1.24355 -3.01999 0
M  V30 4742 H 427.031 -3.0959 -1.9634 0
M  V30 4743 H 426.679 -2.49762 -4.3661 0
M  V30 4744 H 426.379 -4.22995 -4.07859 0
M  V30 4745 H 427.903 -3.70796 -4.85121 0
M  V30 4746 H 429.317 -4.92553 -2.93368 0
M  V30 4747 H 427.714 -5.5032 -2.39306 0
M  V30 4748 H 428.784 -4.68828 -1.23807 0
M  V30 4749 N 430.127 0.543554 -1.4793 0
M  V30 4750 C 431.352 1.32995 -1.59145 0
M  V30 4751 C 431.777 1.86472 -0.246956 0
M  V30 4752 O 431.135 1.63696 0.779324 0
M  V30 4753 C 431.183 2.46623 -2.63077 0
M  V30 4754 O 430.287 3.49261 -2.19295 0
M  V30 4755 H 429.628 0.394472 -0.534124 0
M  V30 4756 H 432.158 0.655489 -1.93816 0
M  V30 4757 H 432.168 2.93001 -2.83926 0
M  V30 4758 H 430.843 2.07059 -3.60693 0
M  V30 4759 H 429.42 3.09094 -2.08603 0
M  V30 4760 N 431.605 1.3629 0.791371 0
M  V30 4761 C 432.555 1.26988 1.89362 0
M  V30 4762 C 433.539 0.161795 1.60084 0
M  V30 4763 O 434.731 0.394426 1.72549 0
M  V30 4764 C 431.86 1.05944 3.26544 0
M  V30 4765 C 430.946 2.21211 3.61838 0
M  V30 4766 N 431.337 3.46518 3.68455 0
M  V30 4767 C 429.635 2.12933 3.91887 0
M  V30 4768 C 430.336 4.2241 3.99931 0
M  V30 4769 N 429.312 3.51329 4.14812 0
M  V30 4770 H 433.114 2.21908 1.92702 0
M  V30 4771 H 430.628 1.28982 0.986787 0
M  V30 4772 H 432.625 0.973666 4.05371 0
M  V30 4773 H 431.285 0.119223 3.24481 0
M  V30 4774 H 432.296 3.80677 3.51148 0
M  V30 4775 H 428.973 1.26855 3.97761 0
M  V30 4776 H 430.363 5.30767 4.1199 0
M  V30 4777 N 433.083 -1.0153 1.20538 0
M  V30 4778 C 434.046 -2.0826 0.957098 0
M  V30 4779 C 435.046 -1.60657 -0.0678655 0
M  V30 4780 O 436.236 -1.73385 0.168332 0
M  V30 4781 C 433.368 -3.38033 0.441188 0
M  V30 4782 H 434.561 -2.31719 1.90384 0
M  V30 4783 H 432.114 -1.1835 1.02093 0
M  V30 4784 H 432.849 -3.20249 -0.510961 0
M  V30 4785 H 432.634 -3.73911 1.18038 0
M  V30 4786 H 434.124 -4.16613 0.287009 0
M  V30 4787 N 434.561 -1.01147 -1.20859 0
M  V30 4788 C 435.808 -0.697865 -1.90095 0
M  V30 4789 C 436.136 0.772014 -1.78522 0
M  V30 4790 O 435.391 1.57595 -1.16027 0
M  V30 4791 C 435.69 -1.0727 -3.40922 0
M  V30 4792 C 435.356 -2.53792 -3.72693 0
M  V30 4793 C 434.018 -2.93829 -3.81075 0
M  V30 4794 C 436.37 -3.48674 -3.87397 0
M  V30 4795 C 433.698 -4.27696 -4.01613 0
M  V30 4796 C 436.05 -4.82223 -4.09444 0
M  V30 4797 C 434.714 -5.21973 -4.16054 0
M  V30 4798 H 433.984 -0.255367 -0.695607 0
M  V30 4799 H 436.631 -1.27111 -1.43231 0
M  V30 4800 H 434.936 -0.417799 -3.89566 0
M  V30 4801 H 436.633 -0.807818 -3.92779 0
M  V30 4802 H 433.223 -2.21768 -3.66765 0
M  V30 4803 H 437.407 -3.18904 -3.80281 0
M  V30 4804 H 432.663 -4.58055 -4.04964 0
M  V30 4805 H 436.837 -5.55672 -4.19763 0
M  V30 4806 H 434.464 -6.25717 -4.31721 0
M  V30 4807 N 436.039 1.36541 -0.78704 0
M  V30 4808 C 437.287 1.98911 -0.357633 0
M  V30 4809 C 437.608 1.62778 1.07371 0
M  V30 4810 O 436.878 0.900612 1.73971 0
M  V30 4811 H 435.458 0.735734 -0.129246 0
M  V30 4812 H 438.12 1.66776 -1.00855 0
M  V30 4813 H 437.216 3.08874 -0.447549 0
M  V30 4814 N 437.518 0.538854 1.48102 0
M  V30 4815 C 438.934 0.19732 1.58376 0
M  V30 4816 C 439.134 -1.29971 1.5398 0
M  V30 4817 O 438.19 -2.07861 1.43352 0
M  V30 4818 C 439.503 0.807716 2.89649 0
M  V30 4819 C 441.051 0.77726 3.03196 0
M  V30 4820 C 441.526 1.36639 4.37143 0
M  V30 4821 N 443.017 1.32875 4.43732 0
M  V30 4822 C 443.752 1.7544 5.45901 0
M  V30 4823 N 443.248 2.25776 6.54979 0
M  V30 4824 N 445.041 1.66623 5.36836 0
M  V30 4825 H 437.192 1.5117 1.49202 0
M  V30 4826 H 439.455 0.629327 0.708979 0
M  V30 4827 H 439.161 1.85909 2.98548 0
M  V30 4828 H 439.035 0.289975 3.76084 0
M  V30 4829 H 441.422 -0.265374 2.93904 0
M  V30 4830 H 441.503 1.33256 2.18349 0
M  V30 4831 H 441.147 2.408 4.47189 0
M  V30 4832 H 441.077 0.786689 5.20691 0
M  V30 4833 H 443.568 0.96037 3.65493 0
M  V30 4834 H 443.881 2.56226 7.29087 0
M  V30 4835 H 442.226 2.29775 6.55918 0
M  V30 4836 H 445.417 1.27089 4.50517 0
M  V30 4837 H 445.59 2.00115 6.16326 0
M  V30 4838 N 438.996 -1.55193 0.274407 0
M  V30 4839 C 440.412 -1.59401 -0.0797543 0
M  V30 4840 C 440.612 -1.29162 -1.54659 0
M  V30 4841 O 439.668 -1.05215 -2.29534 0
M  V30 4842 C 440.981 -2.99257 0.294238 0
M  V30 4843 C 442.529 -3.12072 0.240796 0
M  V30 4844 C 443.004 -4.54194 0.589218 0
M  V30 4845 N 444.495 -4.60033 0.540744 0
M  V30 4846 C 445.23 -5.68027 0.783147 0
M  V30 4847 N 444.726 -6.8417 1.09013 0
M  V30 4848 N 446.519 -5.57572 0.711993 0
M  V30 4849 H 438.67 -1.73113 1.23067 0
M  V30 4850 H 440.933 -0.807197 0.497129 0
M  V30 4851 H 440.639 -3.26217 1.31435 0
M  V30 4852 H 440.513 -3.75427 -0.365281 0
M  V30 4853 H 442.9 -2.84877 -0.770024 0
M  V30 4854 H 442.981 -2.38117 0.934563 0
M  V30 4855 H 442.625 -4.82115 1.59772 0
M  V30 4856 H 442.555 -5.26448 -0.126331 0
M  V30 4857 H 445.046 -3.76599 0.313327 0
M  V30 4858 H 445.359 -7.6243 1.26178 0
M  V30 4859 H 443.704 -6.85787 1.12789 0
M  V30 4860 H 446.895 -4.65714 0.472014 0
M  V30 4861 H 447.068 -6.41659 0.90429 0
M  V30 4862 N 440.474 -0.00167713 -1.576 0
M  V30 4863 C 441.404 0.988091 -2.11563 0
M  V30 4864 C 442.385 1.35736 -1.02517 0
M  V30 4865 O 443.57 1.44082 -1.30208 0
M  V30 4866 C 440.7 2.27941 -2.62031 0
M  V30 4867 C 439.654 2.0517 -3.75619 0
M  V30 4868 C 438.98 3.4033 -4.12407 0
M  V30 4869 C 440.28 1.41294 -5.02825 0
M  V30 4870 H 441.974 0.538771 -2.94513 0
M  V30 4871 H 439.52 0.257712 -1.41675 0
M  V30 4872 H 441.473 2.97539 -2.9841 0
M  V30 4873 H 440.197 2.74989 -1.76205 0
M  V30 4874 H 438.856 1.37998 -3.39635 0
M  V30 4875 H 438.504 3.85085 -3.23603 0
M  V30 4876 H 438.204 3.25909 -4.88935 0
M  V30 4877 H 439.728 4.1124 -4.51347 0
M  V30 4878 H 441.142 2.00851 -5.36965 0
M  V30 4879 H 439.539 1.37356 -5.84169 0
M  V30 4880 H 440.609 0.382362 -4.8339 0
M  V30 4881 N 441.952 1.55251 0.271103 0
M  V30 4882 C 443.198 1.76207 1.00394 0
M  V30 4883 C 443.531 0.562604 1.85872 0
M  V30 4884 O 442.806 -0.439785 1.89463 0
M  V30 4885 C 443.089 3.06828 1.8849 0
M  V30 4886 C 442.942 4.37134 1.05992 0
M  V30 4887 C 444.261 3.33503 2.87165 0
M  V30 4888 H 441.38 0.641086 0.363562 0
M  V30 4889 H 444.022 1.87982 0.276189 0
M  V30 4890 H 442.172 2.96921 2.5054 0
M  V30 4891 H 443.844 4.59001 0.459978 0
M  V30 4892 H 442.087 4.32275 0.363443 0
M  V30 4893 H 442.758 5.2486 1.70955 0
M  V30 4894 H 445.234 3.43215 2.3525 0
M  V30 4895 H 444.11 4.2616 3.45946 0
M  V30 4896 H 444.371 2.53235 3.62387 0
M  V30 4897 N 443.43 -0.535701 1.48216 0
M  V30 4898 C 444.36 -1.65014 1.65204 0
M  V30 4899 C 445.341 -1.62554 0.501011 0
M  V30 4900 O 446.526 -1.7984 0.732886 0
M  V30 4901 C 443.656 -3.03616 1.68626 0
M  V30 4902 C 442.61 -3.20932 2.83172 0
M  V30 4903 C 441.936 -4.60537 2.71679 0
M  V30 4904 C 443.236 -3.04249 4.24535 0
M  V30 4905 H 444.93 -1.51053 2.58502 0
M  V30 4906 H 442.476 -0.725262 1.24402 0
M  V30 4907 H 444.429 -3.81446 1.79099 0
M  V30 4908 H 443.153 -3.18587 0.719026 0
M  V30 4909 H 441.812 -2.45517 2.72244 0
M  V30 4910 H 441.46 -4.72336 1.72937 0
M  V30 4911 H 441.16 -4.73069 3.48538 0
M  V30 4912 H 442.684 -5.40475 2.84112 0
M  V30 4913 H 444.098 -3.71877 4.36326 0
M  V30 4914 H 442.495 -3.28278 5.02348 0
M  V30 4915 H 443.565 -2.00739 4.41397 0
M  V30 4916 N 444.908 -1.36708 -0.784132 0
M  V30 4917 C 446.133 -1.34565 -1.5782 0
M  V30 4918 C 446.558 0.0695257 -1.87971 0
M  V30 4919 O 445.916 1.04302 -1.48293 0
M  V30 4920 C 445.964 -2.17952 -2.87279 0
M  V30 4921 O 445.068 -1.57563 -3.81114 0
M  V30 4922 H 444.409 -0.460337 -0.478524 0
M  V30 4923 H 446.939 -1.80064 -0.971495 0
M  V30 4924 H 446.949 -2.30721 -3.365 0
M  V30 4925 H 445.624 -3.20823 -2.64661 0
M  V30 4926 H 444.201 -1.53764 -3.39722 0
M  V30 4927 N 446.386 1.0089 -1.21074 0
M  V30 4928 C 447.611 1.78727 -1.05221 0
M  V30 4929 C 448.036 1.83932 0.393795 0
M  V30 4930 O 447.394 1.28004 1.28393 0
M  V30 4931 C 447.442 3.20665 -1.64944 0
M  V30 4932 O 446.546 4.02632 -0.892273 0
M  V30 4933 H 445.887 0.550973 -0.370574 0
M  V30 4934 H 448.417 1.26847 -1.60534 0
M  V30 4935 H 448.427 3.71352 -1.69002 0
M  V30 4936 H 447.102 3.16191 -2.70177 0
M  V30 4937 H 445.679 3.61207 -0.926492 0
M  V30 4938 N 447.864 1.01787 1.20321 0
M  V30 4939 C 449.092 0.727194 1.937 0
M  V30 4940 C 449.507 -0.712305 1.74848 0
M  V30 4941 O 448.864 -1.48327 1.06327 0
M  V30 4942 C 448.915 1.05497 3.45764 0
M  V30 4943 O 448.636 2.43794 3.64 0
M  V30 4944 C 450.137 0.785534 4.36285 0
M  V30 4945 H 447.357 0.266939 0.615617 0
M  V30 4946 H 449.901 1.35939 1.52777 0
M  V30 4947 H 448.056 0.468158 3.84561 0
M  V30 4948 H 448.47 2.55656 4.57974 0
M  V30 4949 H 449.944 1.06495 5.4163 0
M  V30 4950 H 450.421 -0.280273 4.38305 0
M  V30 4951 H 451.027 1.35456 4.03152 0
M  V30 4952 N 449.342 -1.36122 0.79427 0
M  V30 4953 C 450.589 -1.99111 0.368905 0
M  V30 4954 C 450.917 -1.63032 -1.0607 0
M  V30 4955 O 450.172 -0.879303 -1.74833 0
M  V30 4956 C 450.471 -3.5409 0.48527 0
M  V30 4957 C 450.137 -4.10003 1.87638 0
M  V30 4958 C 448.799 -4.24986 2.257 0
M  V30 4959 C 451.151 -4.40423 2.78706 0
M  V30 4960 C 448.479 -4.67701 3.54221 0
M  V30 4961 C 450.831 -4.84573 4.0666 0
M  V30 4962 C 449.495 -4.97761 4.44737 0
M  V30 4963 H 448.765 -0.7286 0.134992 0
M  V30 4964 H 451.412 -1.62534 1.01267 0
M  V30 4965 H 449.717 -3.91052 -0.241984 0
M  V30 4966 H 451.414 -4.00766 0.137109 0
M  V30 4967 H 448.004 -3.98784 1.57064 0
M  V30 4968 H 452.188 -4.28412 2.50553 0
M  V30 4969 H 447.444 -4.761 3.83587 0
M  V30 4970 H 451.618 -5.07074 4.77336 0
M  V30 4971 H 449.245 -5.30618 5.44379 0
M  V30 4972 N 450.82 -0.546701 -1.47814 0
M  V30 4973 C 452.236 -0.205717 -1.58269 0
M  V30 4974 C 452.436 1.29153 -1.54667 0
M  V30 4975 O 451.492 2.07098 -1.44453 0
M  V30 4976 C 452.805 -0.823065 -2.89216 0
M  V30 4977 C 454.353 -0.793328 -3.02779 0
M  V30 4978 C 454.828 -1.38955 -4.36412 0
M  V30 4979 N 456.319 -1.35227 -4.43021 0
M  V30 4980 C 457.054 -1.78333 -5.44963 0
M  V30 4981 N 456.55 -2.29246 -6.53772 0
M  V30 4982 N 458.343 -1.69467 -5.35945 0
M  V30 4983 H 450.494 -1.5196 -1.48398 0
M  V30 4984 H 452.757 -0.633078 -0.705632 0
M  V30 4985 H 452.463 -1.8749 -2.97558 0
M  V30 4986 H 452.337 -0.309915 -3.75925 0
M  V30 4987 H 454.724 0.249784 -2.94041 0
M  V30 4988 H 454.805 -1.34412 -2.17639 0
M  V30 4989 H 454.449 -2.43168 -4.45906 0
M  V30 4990 H 454.379 -0.814291 -5.20266 0
M  V30 4991 H 456.87 -0.979739 -3.64979 0
M  V30 4992 H 457.183 -2.60089 -7.27718 0
M  V30 4993 H 455.528 -2.3325 -6.5469 0
M  V30 4994 H 458.719 -1.29477 -4.49837 0
M  V30 4995 H 458.892 -2.03381 -6.15256 0
M  V30 4996 N 452.299 1.55045 -0.282633 0
M  V30 4997 C 453.548 1.98938 0.332667 0
M  V30 4998 C 453.861 1.17455 1.56409 0
M  V30 4999 O 455.067 1.51527 2.25282 0
M  V30 5000 C 453.523 3.54105 0.643226 0
M  V30 5001 C 453.131 4.44374 -0.568814 0
M  V30 5002 C 454.875 4.06569 1.22074 0
M  V30 5003 C 452.782 5.90943 -0.232426 0
M  V30 5004 H 451.712 0.743043 0.128075 0
M  V30 5005 H 454.363 1.79341 -0.388464 0
M  V30 5006 H 452.745 3.69532 1.42346 0
M  V30 5007 H 453.919 4.40718 -1.34551 0
M  V30 5008 H 452.234 4.02585 -1.06369 0
M  V30 5009 H 454.831 5.13626 1.48635 0
M  V30 5010 H 455.174 3.56057 2.15707 0
M  V30 5011 H 455.707 3.94612 0.502621 0
M  V30 5012 H 452.446 6.45567 -1.13683 0
M  V30 5013 H 451.966 5.9765 0.507357 0
M  V30 5014 H 453.645 6.4677 0.172657 0
M  V30 5015 N 453.777 0.010035 1.57597 0
M  V30 5016 C 454.707 -0.976857 2.12084 0
M  V30 5017 C 455.688 -1.35191 1.03235 0
M  V30 5018 O 456.873 -1.43389 1.3097 0
M  V30 5019 C 454.003 -2.26548 2.63236 0
M  V30 5020 C 452.957 -2.03175 3.76701 0
M  V30 5021 C 452.283 -3.38138 4.14206 0
M  V30 5022 C 453.583 -1.38625 5.03568 0
M  V30 5023 H 455.277 -0.523145 2.94794 0
M  V30 5024 H 452.823 -0.250195 1.4181 0
M  V30 5025 H 454.776 -2.95952 2.99984 0
M  V30 5026 H 453.5 -2.74051 1.77661 0
M  V30 5027 H 452.159 -1.36195 3.40362 0
M  V30 5028 H 451.807 -3.83363 3.25641 0
M  V30 5029 H 451.507 -3.23312 4.90656 0
M  V30 5030 H 453.031 -4.08841 4.53521 0
M  V30 5031 H 454.445 -1.98 5.38023 0
M  V30 5032 H 452.842 -1.34256 5.84889 0
M  V30 5033 H 453.912 -0.356722 4.83586 0
M  V30 5034 N 455.255 -1.55392 -0.262866 0
M  V30 5035 C 456.218 -1.88181 -1.30846 0
M  V30 5036 C 457.218 -0.757079 -1.41862 0
M  V30 5037 O 458.408 -1.02519 -1.40838 0
M  V30 5038 C 455.54 -2.09609 -2.68844 0
M  V30 5039 H 456.733 -2.81659 -1.02997 0
M  V30 5040 H 454.286 -1.48039 -0.501414 0
M  V30 5041 H 455.021 -1.18547 -3.01856 0
M  V30 5042 H 454.806 -2.91508 -2.62231 0
M  V30 5043 H 456.296 -2.36215 -3.44372 0
M  V30 5044 N 456.733 0.527833 -1.48498 0
M  V30 5045 C 458.01 1.28905 -1.47115 0
M  V30 5046 C 458.39 2.10297 -0.184007 0
M  V30 5047 O 457.738 2.12728 0.834218 0
M  V30 5048 C 457.948 2.16866 -2.73441 0
M  V30 5049 C 459.296 2.76936 -3.21857 0
M  V30 5050 O 460.32 2.27152 -2.74373 0
M  V30 5051 O 459.179 3.67496 -4.04486 0
M  V30 5052 H 456.273 0.581918 -0.587623 0
M  V30 5053 H 458.819 0.544311 -1.60734 0
M  V30 5054 H 457.591 1.56521 -3.58632 0
M  V30 5055 H 457.214 2.98583 -2.62553 0
M  V30 5056 N 458.211 1.37122 0.776871 0
M  V30 5057 C 459.141 1.35164 1.90402 0
M  V30 5058 C 460.122 0.221069 1.68657 0
M  V30 5059 O 461.307 0.420642 1.8959 0
M  V30 5060 C 458.437 1.15274 3.27611 0
M  V30 5061 C 457.391 2.25289 3.63908 0
M  V30 5062 C 456.717 1.90527 4.99603 0
M  V30 5063 C 458.017 3.67446 3.71188 0
M  V30 5064 H 459.711 2.29482 1.92297 0
M  V30 5065 H 457.257 1.10465 0.923773 0
M  V30 5066 H 459.21 1.12536 4.06096 0
M  V30 5067 H 457.934 0.174102 3.26136 0
M  V30 5068 H 456.593 2.27174 2.87728 0
M  V30 5069 H 456.241 0.91206 4.94662 0
M  V30 5070 H 455.941 2.64193 5.24858 0
M  V30 5071 H 457.465 1.89367 5.80493 0
M  V30 5072 H 458.879 3.67719 4.39836 0
M  V30 5073 H 457.276 4.40123 4.07936 0
M  V30 5074 H 458.346 4.01443 2.71977 0
M  V30 5075 N 459.689 -1.00246 1.21608 0
M  V30 5076 C 460.619 -2.10921 1.00172 0
M  V30 5077 C 461.6 -1.69938 -0.0741587 0
M  V30 5078 O 462.785 -1.94009 0.0861753 0
M  V30 5079 C 459.915 -3.42618 0.568355 0
M  V30 5080 C 458.869 -3.97407 1.58909 0
M  V30 5081 C 458.195 -5.25038 1.01187 0
M  V30 5082 C 459.495 -4.2918 2.97661 0
M  V30 5083 H 461.189 -2.29112 1.92739 0
M  V30 5084 H 458.735 -1.10101 0.928102 0
M  V30 5085 H 460.688 -4.19444 0.405555 0
M  V30 5086 H 459.412 -3.24227 -0.392961 0
M  V30 5087 H 458.071 -3.22703 1.73949 0
M  V30 5088 H 457.719 -5.02982 0.0421965 0
M  V30 5089 H 457.419 -5.62661 1.6937 0
M  V30 5090 H 458.943 -6.04507 0.860448 0
M  V30 5091 H 460.357 -4.96839 2.86049 0
M  V30 5092 H 458.754 -4.77952 3.6288 0
M  V30 5093 H 459.824 -3.3735 3.48315 0
M  V30 5094 N 461.167 -1.02423 -1.1978 0
M  V30 5095 C 462.415 -0.716569 -1.8897 0
M  V30 5096 C 462.736 0.756769 -1.79716 0
M  V30 5097 O 462.006 1.5449 -1.20456 0
M  V30 5098 H 460.586 -0.262062 -0.699523 0
M  V30 5099 H 463.248 -1.29747 -1.45436 0
M  V30 5100 H 462.344 -1.00675 -2.95417 0
M  V30 5101 N 462.645 1.35699 -0.801477 0
M  V30 5102 C 463.892 1.98913 -0.379459 0
M  V30 5103 C 464.22 1.63592 1.05204 0
M  V30 5104 O 463.475 0.888563 1.74365 0
M  V30 5105 C 463.774 3.53828 -0.504041 0
M  V30 5106 C 463.44 4.09002 -1.8981 0
M  V30 5107 C 462.102 4.23783 -2.27951 0
M  V30 5108 C 464.454 4.38939 -2.81038 0
M  V30 5109 C 461.782 4.65816 -3.56696 0
M  V30 5110 C 464.134 4.82409 -4.09224 0
M  V30 5111 C 462.798 4.95395 -4.4737 0
M  V30 5112 H 462.068 0.727874 -0.138854 0
M  V30 5113 H 464.715 1.61994 -1.02128 0
M  V30 5114 H 463.02 3.91175 0.221242 0
M  V30 5115 H 464.717 4.00687 -0.158361 0
M  V30 5116 H 461.307 3.97946 -1.59176 0
M  V30 5117 H 465.491 4.27077 -2.52821 0
M  V30 5118 H 460.747 4.74059 -3.86106 0
M  V30 5119 H 464.921 5.04535 -4.80018 0
M  V30 5120 H 462.548 5.27724 -5.47185 0
M  V30 5121 N 464.123 0.554532 1.47522 0
M  V30 5122 C 465.086 -0.184174 2.28459 0
M  V30 5123 C 466.086 -0.845195 1.36796 0
M  V30 5124 O 467.276 -0.701467 1.59452 0
M  V30 5125 C 464.408 -1.26903 3.16399 0
M  V30 5126 H 465.601 0.526751 2.95238 0
M  V30 5127 H 463.154 0.311375 1.53167 0
M  V30 5128 H 463.889 -2.01244 2.54306 0
M  V30 5129 H 463.674 -0.799883 3.83854 0
M  V30 5130 H 465.164 -1.78794 3.77389 0
M  V30 5131 N 465.601 -1.54893 0.290851 0
M  V30 5132 C 466.849 -1.99538 -0.320756 0
M  V30 5133 C 467.17 -1.18075 -1.55188 0
M  V30 5134 O 466.44 -0.274162 -1.93972 0
M  V30 5135 H 465.02 -0.737052 -0.121507 0
M  V30 5136 H 467.682 -1.90755 0.399832 0
M  V30 5137 H 466.778 -3.06282 -0.599802 0
M  V30 5138 N 467.08 -0.0183926 -1.57589 0
M  V30 5139 C 468.491 0.521927 -1.79256 0
M  V30 5140 C 468.842 1.72885 -0.927636 0
M  V30 5141 O 467.967 2.15978 -0.135091 0
M  V30 5142 C 468.562 0.953632 -3.25102 0
M  V30 5143 C 467.121 1.43913 -3.47801 0
M  V30 5144 C 466.268 0.398837 -2.74417 0
M  V30 5145 H 469.219 -0.244485 -1.56805 0
M  V30 5146 H 469.24 1.81863 -3.34224 0
M  V30 5147 H 468.752 0.0750123 -3.88028 0
M  V30 5148 H 466.853 2.33804 -2.90115 0
M  V30 5149 H 466.966 1.45391 -4.56507 0
M  V30 5150 H 465.33 0.864572 -2.39577 0
M  V30 5151 H 466.113 -0.471132 -3.40052 0
M  V30 5152 N 468.558 1.5553 0.254621 0
M  V30 5153 C 469.488 1.9268 1.31897 0
M  V30 5154 C 470.469 0.790797 1.506 0
M  V30 5155 O 471.654 1.05045 1.63337 0
M  V30 5156 C 468.784 2.21477 2.67517 0
M  V30 5157 C 467.738 3.37256 2.63519 0
M  V30 5158 C 467.064 3.51576 4.02862 0
M  V30 5159 C 468.364 4.73157 2.21179 0
M  V30 5160 H 470.058 2.81832 1.01051 0
M  V30 5161 H 467.604 1.35599 0.484662 0
M  V30 5162 H 469.557 2.46055 3.42104 0
M  V30 5163 H 468.281 1.29144 2.99982 0
M  V30 5164 H 466.94 3.12675 1.9139 0
M  V30 5165 H 466.588 2.56676 4.32581 0
M  V30 5166 H 466.288 4.2943 4.01078 0
M  V30 5167 H 467.812 3.78467 4.79161 0
M  V30 5168 H 469.226 4.97158 2.85494 0
M  V30 5169 H 467.623 5.54058 2.30521 0
M  V30 5170 H 468.693 4.70739 1.16332 0
M  V30 5171 N 470.036 -0.519951 1.48776 0
M  V30 5172 C 471.276 -1.2856 1.58908 0
M  V30 5173 C 471.64 -1.90212 0.261418 0
M  V30 5174 O 472.841 -2.67746 0.237791 0
M  V30 5175 C 471.112 -2.33836 2.70288 0
M  V30 5176 S 472.671 -3.19992 3.0025 0
M  V30 5177 H 469.489 -0.43717 0.560717 0
M  V30 5178 H 472.091 -0.591205 1.86346 0
M  V30 5179 H 470.795 -1.87041 3.653 0
M  V30 5180 H 470.326 -3.07969 2.44783 0
M  V30 5181 H 472.341 -4.34122 2.40317 0
M  V30 5182 N 471.514 -1.37532 -0.769588 0
M  V30 5183 C 472.763 -1.32183 -1.5235 0
M  V30 5184 C 473.076 0.0906555 -1.9539 0
M  V30 5185 O 474.282 0.266628 -2.70188 0
M  V30 5186 C 472.738 -2.32029 -2.75119 0
M  V30 5187 C 472.346 -3.78816 -2.3917 0
M  V30 5188 C 474.09 -2.35694 -3.53056 0
M  V30 5189 C 471.997 -4.70388 -3.58453 0
M  V30 5190 H 470.927 -0.491275 -0.571984 0
M  V30 5191 H 473.578 -1.63004 -0.842739 0
M  V30 5192 H 471.96 -1.94229 -3.45096 0
M  V30 5193 H 473.134 -4.25466 -1.76962 0
M  V30 5194 H 471.449 -3.78117 -1.74402 0
M  V30 5195 H 474.046 -3.01312 -4.41718 0
M  V30 5196 H 474.389 -1.37117 -3.93071 0
M  V30 5197 H 474.922 -2.72212 -2.90078 0
M  V30 5198 H 471.661 -5.70102 -3.23518 0
M  V30 5199 H 471.181 -4.28442 -4.19758 0
M  V30 5200 H 472.86 -4.87628 -4.25239 0
M  V30 5201 N 472.992 0.995999 -1.22138 0
M  V30 5202 C 474.239 1.7351 -1.04406 0
M  V30 5203 C 474.567 1.89884 0.421244 0
M  V30 5204 O 473.822 1.43683 1.32867 0
M  V30 5205 C 474.121 3.14553 -1.6968 0
M  V30 5206 C 473.787 3.18102 -3.19565 0
M  V30 5207 C 472.449 3.18778 -3.60464 0
M  V30 5208 C 474.801 3.14636 -4.15516 0
M  V30 5209 C 472.129 3.13684 -4.95801 0
M  V30 5210 C 474.481 3.11084 -5.50826 0
M  V30 5211 C 473.145 3.10074 -5.91109 0
M  V30 5212 H 472.415 0.634916 -0.38205 0
M  V30 5213 H 475.062 1.1667 -1.51857 0
M  V30 5214 H 473.367 3.74682 -1.14546 0
M  V30 5215 H 475.064 3.70477 -1.53454 0
M  V30 5216 H 471.654 3.18324 -2.86998 0
M  V30 5217 H 475.838 3.13266 -3.84939 0
M  V30 5218 H 471.094 3.11245 -5.26247 0
M  V30 5219 H 475.268 3.07357 -6.24904 0
M  V30 5220 H 472.895 3.05882 -6.95946 0
M  V30 5221 N 474.47 1.03057 1.19235 0
M  V30 5222 C 475.718 0.726581 1.88587 0
M  V30 5223 C 476.039 -0.747227 1.80115 0
M  V30 5224 O 475.309 -1.53849 1.21274 0
M  V30 5225 H 473.889 0.265768 0.698124 0
M  V30 5226 H 476.551 1.30516 1.44746 0
M  V30 5227 H 475.647 1.0224 2.94879 0
M  V30 5228 N 475.948 -1.35272 0.808662 0
M  V30 5229 C 477.197 -1.97963 0.386483 0
M  V30 5230 C 477.51 -1.64866 -1.05255 0
M  V30 5231 O 478.716 -2.20937 -1.57794 0
M  V30 5232 C 477.172 -3.54162 0.640096 0
M  V30 5233 C 476.78 -3.96166 2.0918 0
M  V30 5234 C 478.524 -4.23553 0.283376 0
M  V30 5235 C 476.431 -5.4522 2.29106 0
M  V30 5236 H 475.361 -0.740742 0.140774 0
M  V30 5237 H 478.012 -1.5431 0.993012 0
M  V30 5238 H 476.394 -3.95983 -0.0364117 0
M  V30 5239 H 477.568 -3.65491 2.80629 0
M  V30 5240 H 475.883 -3.3967 2.40859 0
M  V30 5241 H 478.48 -5.33124 0.410273 0
M  V30 5242 H 478.823 -4.09105 -0.770659 0
M  V30 5243 H 479.356 -3.8716 0.913884 0
M  V30 5244 H 476.095 -5.64638 3.32962 0
M  V30 5245 H 475.615 -5.77457 1.62184 0
M  V30 5246 H 477.294 -6.1171 2.1076 0
M  V30 5247 N 477.426 -0.562348 -1.47226 0
M  V30 5248 C 478.672 -0.0402761 -2.0276 0
M  V30 5249 C 479.005 1.30823 -1.43523 0
M  V30 5250 O 478.28 1.85249 -0.592705 0
M  V30 5251 C 478.563 0.047311 -3.60069 0
M  V30 5252 C 478.416 -1.32865 -4.29729 0
M  V30 5253 C 479.735 0.758182 -4.3352 0
M  V30 5254 H 476.854 -0.0161105 -0.736824 0
M  V30 5255 H 479.496 -0.725628 -1.75598 0
M  V30 5256 H 477.646 0.630986 -3.83342 0
M  V30 5257 H 479.318 -1.95593 -4.17781 0
M  V30 5258 H 477.561 -1.90195 -3.89882 0
M  V30 5259 H 478.232 -1.22004 -5.38349 0
M  V30 5260 H 480.708 0.262546 -4.15271 0
M  V30 5261 H 479.584 0.78844 -5.43208 0
M  V30 5262 H 479.845 1.81537 -4.03109 0
M  V30 5263 N 478.904 1.54736 -0.299062 0
M  V30 5264 C 480.181 1.92187 0.363802 0
M  V30 5265 C 480.561 1.22607 1.71845 0
M  V30 5266 O 479.909 0.361141 2.25628 0
M  V30 5267 C 480.119 3.45678 0.480377 0
M  V30 5268 C 481.467 4.17885 0.752147 0
M  V30 5269 O 482.491 3.51702 0.564264 0
M  V30 5270 O 481.35 5.35048 1.11294 0
M  V30 5271 H 478.444 0.801681 0.203066 0
M  V30 5272 H 480.99 1.66115 -0.346978 0
M  V30 5273 H 479.762 3.88443 -0.471999 0
M  V30 5274 H 479.385 3.77779 1.2397 0
M  V30 5275 N 480.382 0.0267497 1.57577 0
M  V30 5276 C 481.332 -0.965003 2.06571 0
M  V30 5277 C 482.316 -1.28694 0.965746 0
M  V30 5278 O 483.508 -1.27345 1.22932 0
M  V30 5279 C 480.637 -2.24821 2.59443 0
M  V30 5280 C 479.723 -1.95474 3.76365 0
M  V30 5281 N 480.114 -1.36387 4.87065 0
M  V30 5282 C 478.412 -2.25478 3.84806 0
M  V30 5283 C 479.113 -1.24119 5.68304 0
M  V30 5284 N 478.089 -1.7359 5.15138 0
M  V30 5285 H 481.891 -0.503095 2.89562 0
M  V30 5286 H 479.405 -0.178322 1.61418 0
M  V30 5287 H 481.402 -2.9674 2.92833 0
M  V30 5288 H 480.062 -2.7164 1.77881 0
M  V30 5289 H 481.073 -1.03919 5.07367 0
M  V30 5290 H 477.75 -2.74987 3.14147 0
M  V30 5291 H 479.14 -0.784504 6.67304 0
M  V30 5292 N 481.861 -1.55662 -0.24637 0
M  V30 5293 C 482.791 -1.93377 -1.30873 0
M  V30 5294 C 483.772 -0.798773 -1.50179 0
M  V30 5295 O 484.957 -1.0591 -1.62778 0
M  V30 5296 C 482.087 -2.22893 -2.66338 0
M  V30 5297 C 481.041 -3.38649 -2.61727 0
M  V30 5298 C 480.367 -3.53708 -4.00992 0
M  V30 5299 C 481.667 -4.74323 -2.18666 0
M  V30 5300 H 483.361 -2.82363 -0.995552 0
M  V30 5301 H 480.907 -1.35854 -0.477464 0
M  V30 5302 H 482.86 -2.47866 -3.40794 0
M  V30 5303 H 481.584 -1.30733 -2.99293 0
M  V30 5304 H 480.243 -3.13685 -1.89729 0
M  V30 5305 H 479.891 -2.58967 -4.31214 0
M  V30 5306 H 479.591 -4.31551 -3.98795 0
M  V30 5307 H 481.115 -3.81003 -4.77147 0
M  V30 5308 H 482.529 -4.98665 -2.82854 0
M  V30 5309 H 480.926 -5.55273 -2.27579 0
M  V30 5310 H 481.996 -4.71349 -1.13834 0
M  V30 5311 N 483.339 0.512053 -1.4905 0
M  V30 5312 C 484.587 1.26436 -1.57665 0
M  V30 5313 C 484.908 1.93255 -0.260293 0
M  V30 5314 O 484.178 1.82206 0.719564 0
M  V30 5315 H 482.758 0.469658 -0.580888 0
M  V30 5316 H 485.42 0.594398 -1.85615 0
M  V30 5317 H 484.516 2.03417 -2.36702 0
M  V30 5318 N 484.817 1.37938 0.762283 0
M  V30 5319 C 485.764 1.34467 1.87583 0
M  V30 5320 C 486.734 0.208633 1.64785 0
M  V30 5321 O 487.919 0.399494 1.86571 0
M  V30 5322 C 485.059 1.16692 3.24772 0
M  V30 5323 C 484.172 2.39608 3.59461 0
M  V30 5324 C 483.307 2.14631 4.85908 0
M  V30 5325 C 482.346 3.33364 5.13357 0
M  V30 5326 N 481.483 3.07877 6.30996 0
M  V30 5327 H 486.323 2.29669 1.89885 0
M  V30 5328 H 483.86 1.14116 0.928219 0
M  V30 5329 H 485.818 1.04405 4.03925 0
M  V30 5330 H 484.448 0.251333 3.2182 0
M  V30 5331 H 483.5 2.626 2.75219 0
M  V30 5332 H 484.812 3.28128 3.75678 0
M  V30 5333 H 483.966 1.99429 5.72986 0
M  V30 5334 H 482.705 1.23463 4.71814 0
M  V30 5335 H 481.71 3.49094 4.24751 0
M  V30 5336 H 482.935 4.25395 5.29354 0
M  V30 5337 H 480.881 2.19348 6.18241 0
M  V30 5338 H 480.798 3.89944 6.47673 0
M  V30 5339 H 482.066 2.96313 7.20985 0
M  V30 5340 N 486.295 -0.989507 1.22664 0
M  V30 5341 C 487.205 -2.11449 1.01619 0
M  V30 5342 C 488.221 -1.73962 -0.036545 0
M  V30 5343 O 489.397 -2.00788 0.156924 0
M  V30 5344 C 486.462 -3.41465 0.600204 0
M  V30 5345 C 485.523 -3.93033 1.72695 0
M  V30 5346 C 484.756 -5.16844 1.33071 0
M  V30 5347 O 484.979 -5.7001 0.210975 0
M  V30 5348 O 483.913 -5.6225 2.14845 0
M  V30 5349 H 487.739 -2.32088 1.9588 0
M  V30 5350 H 485.324 -1.09823 1.01289 0
M  V30 5351 H 487.206 -4.19695 0.37873 0
M  V30 5352 H 485.881 -3.22178 -0.313511 0
M  V30 5353 H 484.788 -3.15961 2.00298 0
M  V30 5354 H 486.121 -4.16758 2.61865 0
M  V30 5355 N 487.773 -1.03688 -1.18687 0
M  V30 5356 C 488.721 -0.618292 -2.24232 0
M  V30 5357 C 489.715 0.353045 -1.6568 0
M  V30 5358 O 490.921 0.220749 -1.78641 0
M  V30 5359 H 487.296 -0.181711 -0.729716 0
M  V30 5360 H 489.267 -1.51893 -2.56848 0
M  V30 5361 C 488.016 0.00677342 -3.47699 0
M  V30 5362 H 487.339 -0.731692 -3.93047 0
M  V30 5363 H 488.779 0.262492 -4.23187 0
M  V30 5364 C 487.238 1.25572 -3.12623 0
M  V30 5365 O 487.768 2.34691 -3.26011 0
M  V30 5366 N 485.974 1.14755 -2.66982 0
M  V30 5367 H 485.521 0.259601 -2.56289 0
M  V30 5368 H 485.479 1.98412 -2.43885 0
M  V30 5369 N 489.251 1.34841 -0.815825 0
M  V30 5370 C 490.528 1.92908 -0.323416 0
M  V30 5371 C 490.908 1.74479 1.18828 0
M  V30 5372 O 490.256 1.11928 1.99209 0
M  V30 5373 C 490.466 3.40957 -0.744952 0
M  V30 5374 C 491.814 4.18107 -0.739716 0
M  V30 5375 O 492.838 3.49511 -0.68708 0
M  V30 5376 O 491.697 5.40517 -0.806456 0
M  V30 5377 H 488.791 0.822436 -0.0867646 0
M  V30 5378 H 491.337 1.4386 -0.90014 0
M  V30 5379 H 490.109 3.4814 -1.78646 0
M  V30 5380 H 489.732 3.97341 -0.143535 0
M  V30 5381 N 490.729 0.570148 1.46925 0
M  V30 5382 C 491.975 0.0510284 2.02736 0
M  V30 5383 C 492.308 -1.3006 1.44215 0
M  V30 5384 O 491.583 -1.84932 0.602521 0
M  V30 5385 C 491.866 -0.028215 3.60089 0
M  V30 5386 C 491.719 1.35142 4.29018 0
M  V30 5387 C 493.038 -0.735181 4.33916 0
M  V30 5388 H 490.157 0.0200178 0.736728 0
M  V30 5389 H 492.799 0.73493 1.75211 0
M  V30 5390 H 490.949 -0.610648 3.83671 0
M  V30 5391 H 492.621 1.97806 4.16738 0
M  V30 5392 H 490.864 1.9226 3.88868 0
M  V30 5393 H 491.535 1.24857 5.37694 0
M  V30 5394 H 494.011 -0.240519 4.15404 0
M  V30 5395 H 492.887 -0.759622 5.43618 0
M  V30 5396 H 493.148 -1.79397 4.04066 0
M  V30 5397 N 492.207 -1.54576 0.307264 0
M  V30 5398 C 493.454 -2.00263 -0.300167 0
M  V30 5399 C 493.782 -1.19561 -1.53413 0
M  V30 5400 O 493.037 -0.261487 -1.93945 0
M  V30 5401 C 493.336 -3.50572 -0.695253 0
M  V30 5402 C 493.002 -4.48771 0.437679 0
M  V30 5403 C 491.664 -4.7534 0.748681 0
M  V30 5404 C 494.016 -5.0721 1.19949 0
M  V30 5405 C 491.344 -5.5761 1.8245 0
M  V30 5406 C 493.696 -5.90651 2.26527 0
M  V30 5407 C 492.36 -6.15528 2.58227 0
M  V30 5408 H 491.63 -0.732814 -0.109839 0
M  V30 5409 H 494.277 -1.86664 0.427661 0
M  V30 5410 H 492.582 -3.61814 -1.50326 0
M  V30 5411 H 494.279 -3.83352 -1.17653 0
M  V30 5412 H 490.869 -4.282 0.185187 0
M  V30 5413 H 495.053 -4.86679 0.972474 0
M  V30 5414 H 490.309 -5.75121 2.07476 0
M  V30 5415 H 494.483 -6.34957 2.86011 0
M  V30 5416 H 492.11 -6.79066 3.4172 0
M  V30 5417 N 493.685 -0.035106 -1.57561 0
M  V30 5418 C 494.617 0.973604 -2.07494 0
M  V30 5419 C 495.63 1.28504 -0.999534 0
M  V30 5420 O 496.819 1.24864 -1.27559 0
M  V30 5421 C 493.919 2.29945 -2.48955 0
M  V30 5422 C 493.092 2.1723 -3.79644 0
M  V30 5423 C 492.151 3.328 -4.07592 0
M  V30 5424 O 491.177 3.09418 -4.77754 0
M  V30 5425 N 492.379 4.56779 -3.58236 0
M  V30 5426 H 495.144 0.547525 -2.94656 0
M  V30 5427 H 492.705 0.151515 -1.61189 0
M  V30 5428 H 494.697 3.06097 -2.64739 0
M  V30 5429 H 493.267 2.64173 -1.67126 0
M  V30 5430 H 492.487 1.25768 -3.73599 0
M  V30 5431 H 493.775 2.05945 -4.65257 0
M  V30 5432 H 493.173 4.78668 -3.01485 0
M  V30 5433 H 491.73 5.30079 -3.79288 0
M  V30 5434 N 495.163 1.55791 0.238111 0
M  V30 5435 C 496.574 1.68383 0.806472 0
M  V30 5436 C 496.925 0.634157 1.85669 0
M  V30 5437 O 496.05 -0.217913 2.153 0
M  V30 5438 C 496.645 3.05268 1.46959 0
M  V30 5439 C 495.204 3.1977 1.98555 0
M  V30 5440 C 494.351 2.64279 0.839763 0
M  V30 5441 H 497.302 1.58694 0.0137535 0
M  V30 5442 H 497.323 3.00203 2.33792 0
M  V30 5443 H 496.835 3.81643 0.704993 0
M  V30 5444 H 494.936 2.48234 2.77868 0
M  V30 5445 H 495.049 4.26788 2.17689 0
M  V30 5446 H 493.413 2.22329 1.24265 0
M  V30 5447 H 494.196 3.43187 0.0881032 0
M  V30 5448 N 496.642 -0.504142 1.49319 0
M  V30 5449 C 497.589 -1.60603 1.65756 0
M  V30 5450 C 498.559 -1.58425 0.499082 0
M  V30 5451 O 499.744 -1.76459 0.725728 0
M  V30 5452 C 496.884 -2.98764 1.72726 0
M  V30 5453 C 495.997 -3.10982 2.99857 0
M  V30 5454 C 495.132 -4.39857 2.97824 0
M  V30 5455 C 494.171 -4.45697 4.19548 0
M  V30 5456 N 493.308 -5.65995 4.15444 0
M  V30 5457 H 498.148 -1.45895 2.59843 0
M  V30 5458 H 495.685 -0.709891 1.28837 0
M  V30 5459 H 497.643 -3.78839 1.74747 0
M  V30 5460 H 496.273 -3.12183 0.821075 0
M  V30 5461 H 495.325 -2.23991 3.07461 0
M  V30 5462 H 496.637 -3.11157 3.89849 0
M  V30 5463 H 495.791 -5.2825 2.98391 0
M  V30 5464 H 494.53 -4.42242 2.05604 0
M  V30 5465 H 493.535 -3.55707 4.19229 0
M  V30 5466 H 494.76 -4.4503 5.12957 0
M  V30 5467 H 492.706 -5.69229 3.26059 0
M  V30 5468 H 492.623 -5.67773 4.99169 0
M  V30 5469 H 493.891 -6.56604 4.20109 0
M  V30 5470 N 498.12 -1.38341 -0.754957 0
M  V30 5471 C 499.348 -1.37704 -1.54419 0
M  V30 5472 C 499.763 0.0335243 -1.8877 0
M  V30 5473 O 499.12 0.999773 -1.52679 0
M  V30 5474 C 499.171 -2.23136 -2.84416 0
M  V30 5475 O 498.892 -3.58697 -2.51531 0
M  V30 5476 C 500.393 -2.30664 -3.78562 0
M  V30 5477 H 497.613 -0.471061 -0.477852 0
M  V30 5478 H 500.157 -1.81902 -0.934446 0
M  V30 5479 H 498.312 -1.82403 -3.41772 0
M  V30 5480 H 498.726 -4.03665 -3.34896 0
M  V30 5481 H 500.2 -2.9473 -4.66732 0
M  V30 5482 H 500.677 -1.3199 -4.18898 0
M  V30 5483 H 501.283 -2.71781 -3.27131 0
M  V30 5484 N 499.598 0.982988 -1.23187 0
M  V30 5485 C 500.53 2.07729 -0.968572 0
M  V30 5486 C 501.543 1.62702 0.0564821 0
M  V30 5487 O 502.732 1.77603 -0.178733 0
M  V30 5488 C 499.832 3.36071 -0.436974 0
M  V30 5489 C 499.005 4.10081 -1.52159 0
M  V30 5490 C 498.064 5.16701 -0.99532 0
M  V30 5491 O 497.09 5.43727 -1.68373 0
M  V30 5492 N 498.292 5.80226 0.178192 0
M  V30 5493 H 501.057 2.30894 -1.9107 0
M  V30 5494 H 498.618 1.14949 -1.1401 0
M  V30 5495 H 500.61 4.04639 -0.0700051 0
M  V30 5496 H 499.18 3.09893 0.410509 0
M  V30 5497 H 498.4 3.36004 -2.06144 0
M  V30 5498 H 499.688 4.56295 -2.25105 0
M  V30 5499 H 499.086 5.60651 0.754096 0
M  V30 5500 H 497.643 6.49982 0.486449 0
M  V30 5501 N 501.076 1.04316 1.18135 0
M  V30 5502 C 502.323 0.74802 1.88178 0
M  V30 5503 C 502.651 -0.72441 1.80506 0
M  V30 5504 O 501.906 -1.54463 1.20165 0
M  V30 5505 C 502.205 1.16271 3.37958 0
M  V30 5506 C 501.871 2.63585 3.65833 0
M  V30 5507 C 500.533 3.03829 3.73151 0
M  V30 5508 C 502.885 3.58822 3.78016 0
M  V30 5509 C 500.213 4.38194 3.90132 0
M  V30 5510 C 502.565 4.92909 3.96514 0
M  V30 5511 C 501.229 5.3282 4.02068 0
M  V30 5512 H 500.499 0.27372 0.688592 0
M  V30 5513 H 503.146 1.30863 1.39811 0
M  V30 5514 H 501.451 0.520938 3.88321 0
M  V30 5515 H 503.148 0.911672 3.90499 0
M  V30 5516 H 499.738 2.31414 3.60757 0
M  V30 5517 H 503.922 3.28875 3.71692 0
M  V30 5518 H 499.178 4.68631 3.92677 0
M  V30 5519 H 503.352 5.66606 4.04883 0
M  V30 5520 H 500.979 6.36943 4.14979 0
M  V30 5521 N 502.554 -1.34406 0.822964 0
M  V30 5522 C 503.484 -2.32052 0.259608 0
M  V30 5523 C 504.465 -1.58243 -0.623961 0
M  V30 5524 O 505.65 -1.86224 -0.55083 0
M  V30 5525 C 502.78 -3.42434 -0.579314 0
M  V30 5526 C 501.734 -4.27499 0.20712 0
M  V30 5527 C 501.06 -5.29349 -0.754547 0
M  V30 5528 C 502.36 -5.02758 1.41533 0
M  V30 5529 H 504.054 -2.79418 1.07545 0
M  V30 5530 H 501.6 -1.34338 0.518593 0
M  V30 5531 H 503.553 -4.0976 -0.983612 0
M  V30 5532 H 502.277 -2.93717 -1.4282 0
M  V30 5533 H 500.936 -3.61776 0.592787 0
M  V30 5534 H 500.584 -4.76895 -1.59939 0
M  V30 5535 H 500.284 -5.8714 -0.232561 0
M  V30 5536 H 501.808 -5.99544 -1.1567 0
M  V30 5537 H 503.222 -5.62938 1.08504 0
M  V30 5538 H 501.619 -5.70123 1.87296 0
M  V30 5539 H 502.689 -4.32451 2.1935 0
M  V30 5540 N 504.032 -0.577932 -1.46621 0
M  V30 5541 C 505.28 -0.061566 -2.02006 0
M  V30 5542 C 505.601 1.30117 -1.4524 0
M  V30 5543 O 504.871 1.85313 -0.63529 0
M  V30 5544 H 503.451 -0.0197692 -0.746738 0
M  V30 5545 H 506.113 -0.752631 -1.79782 0
M  V30 5546 H 505.209 0.0110238 -3.12098 0
M  V30 5547 N 505.51 1.54411 -0.315457 0
M  V30 5548 C 506.756 2.00716 0.289972 0
M  V30 5549 C 507.089 1.2034 1.5242 0
M  V30 5550 O 506.364 0.283579 1.92422 0
M  V30 5551 C 506.647 3.54507 0.632196 0
M  V30 5552 C 506.5 4.45615 -0.61218 0
M  V30 5553 C 507.819 4.15421 1.45305 0
M  V30 5554 H 504.938 0.729637 0.10392 0
M  V30 5555 H 507.58 1.8506 -0.430427 0
M  V30 5556 H 505.73 3.67979 1.24595 0
M  V30 5557 H 507.402 4.44026 -1.25053 0
M  V30 5558 H 505.645 4.15621 -1.24264 0
M  V30 5559 H 506.316 5.51022 -0.328379 0
M  V30 5560 H 508.792 4.05474 0.934331 0
M  V30 5561 H 507.668 5.23157 1.66127 0
M  V30 5562 H 507.929 3.68223 2.44671 0
M  V30 5563 N 506.988 0.0434614 1.5754 0
M  V30 5564 C 508.218 -0.640905 1.96408 0
M  V30 5565 C 508.626 -1.65365 0.919297 0
M  V30 5566 O 507.969 -1.83395 -0.105795 0
M  V30 5567 C 508.031 -1.39141 3.31482 0
M  V30 5568 C 507.695 -0.535375 4.53853 0
M  V30 5569 C 508.692 0.195335 5.19533 0
M  V30 5570 C 506.377 -0.468564 5.0011 0
M  V30 5571 C 508.371 0.981377 6.298 0
M  V30 5572 C 506.058 0.321171 6.10255 0
M  V30 5573 C 507.056 1.04484 6.74961 0
M  V30 5574 O 506.744 1.8216 7.8299 0
M  V30 5575 H 506.476 -0.180584 0.651433 0
M  V30 5576 H 509.03 0.103848 2.05137 0
M  V30 5577 H 507.26 -2.18162 3.19284 0
M  V30 5578 H 508.949 -1.96526 3.55151 0
M  V30 5579 H 509.715 0.15314 4.84758 0
M  V30 5580 H 505.594 -1.02142 4.49542 0
M  V30 5581 H 509.138 1.54674 6.80237 0
M  V30 5582 H 505.035 0.365032 6.44467 0
M  V30 5583 H 505.803 1.74289 7.99728 0
M  V30 5584 N 508.466 -1.55915 -0.229846 0
M  V30 5585 C 509.713 -1.78542 -0.955452 0
M  V30 5586 C 510.041 -0.610785 -1.84661 0
M  V30 5587 O 509.296 0.405213 -1.91459 0
M  V30 5588 C 509.595 -3.06845 -1.8325 0
M  V30 5589 C 509.261 -4.37395 -1.09528 0
M  V30 5590 C 507.923 -4.72868 -0.891598 0
M  V30 5591 C 510.275 -5.18029 -0.574046 0
M  V30 5592 C 507.603 -5.86496 -0.154655 0
M  V30 5593 C 509.955 -6.32423 0.149513 0
M  V30 5594 C 508.619 -6.66504 0.364519 0
M  V30 5595 H 507.889 -0.653333 -0.349625 0
M  V30 5596 H 510.536 -1.90183 -0.224235 0
M  V30 5597 H 508.841 -2.90291 -2.63132 0
M  V30 5598 H 510.538 -3.21553 -2.39592 0
M  V30 5599 H 507.128 -4.09538 -1.26399 0
M  V30 5600 H 511.312 -4.91066 -0.718899 0
M  V30 5601 H 506.568 -6.11396 0.0222356 0
M  V30 5602 H 510.742 -6.94137 0.560947 0
M  V30 5603 H 508.369 -7.54397 0.937495 0
M  V30 5604 N 509.944 0.496216 -1.49584 0
M  V30 5605 C 511.19 1.25189 -1.59548 0
M  V30 5606 C 511.523 1.9212 -0.283466 0
M  V30 5607 O 510.798 1.80947 0.713324 0
M  V30 5608 C 511.081 2.31516 -2.75812 0
M  V30 5609 C 510.934 1.69054 -4.16822 0
M  V30 5610 C 512.253 3.3304 -2.87702 0
M  V30 5611 H 509.372 0.45379 -0.580727 0
M  V30 5612 H 512.014 0.549327 -1.81886 0
M  V30 5613 H 510.164 2.91438 -2.56897 0
M  V30 5614 H 511.836 1.12923 -4.47265 0
M  V30 5615 H 510.079 0.994485 -4.22247 0
M  V30 5616 H 510.75 2.462 -4.94054 0
M  V30 5617 H 513.226 2.83114 -3.04936 0
M  V30 5618 H 512.102 4.04794 -3.7072 0
M  V30 5619 H 512.363 3.95655 -1.97255 0
M  V30 5620 N 511.423 1.38739 0.74761 0
M  V30 5621 C 512.648 1.38702 1.54197 0
M  V30 5622 C 513.073 -0.019664 1.8809 0
M  V30 5623 O 512.431 -1.00333 1.51006 0
M  V30 5624 C 512.479 2.25492 2.814 0
M  V30 5625 O 511.583 1.67613 3.76802 0
M  V30 5626 H 510.924 0.472863 0.466151 0
M  V30 5627 H 513.454 1.82577 0.923413 0
M  V30 5628 H 513.464 2.39561 3.30264 0
M  V30 5629 H 512.139 3.27727 2.56062 0
M  V30 5630 H 510.716 1.62718 3.35526 0
M  V30 5631 N 512.901 -0.976442 1.23707 0
M  V30 5632 C 514.126 -1.75875 1.09922 0
M  V30 5633 C 514.551 -1.84911 -0.34489 0
M  V30 5634 O 513.909 -1.31363 -1.24954 0
M  V30 5635 C 513.957 -3.16179 1.73388 0
M  V30 5636 O 513.061 -4.00124 0.99871 0
M  V30 5637 H 512.402 -0.540954 0.385052 0
M  V30 5638 H 514.932 -1.22546 1.6384 0
M  V30 5639 H 514.942 -3.66741 1.78788 0
M  V30 5640 H 513.617 -3.08917 2.78466 0
M  V30 5641 H 512.194 -3.58624 1.02193 0
M  V30 5642 N 514.379 -1.04941 -1.1758 0
M  V30 5643 C 515.311 -0.606174 -2.21039 0
M  V30 5644 C 516.324 0.328763 -1.59446 0
M  V30 5645 O 517.513 0.121895 -1.78083 0
M  V30 5646 C 514.613 0.133294 -3.38638 0
M  V30 5647 C 513.786 -0.811711 -4.29802 0
M  V30 5648 C 512.845 -0.113958 -5.26077 0
M  V30 5649 O 511.871 -0.747237 -5.64274 0
M  V30 5650 N 513.073 1.14953 -5.69004 0
M  V30 5651 H 515.838 -1.49606 -2.59689 0
M  V30 5652 H 513.399 -0.930997 -1.32454 0
M  V30 5653 H 515.391 0.610144 -4.00074 0
M  V30 5654 H 513.961 0.924816 -2.98607 0
M  V30 5655 H 513.181 -1.46824 -3.65837 0
M  V30 5656 H 514.469 -1.45326 -4.87604 0
M  V30 5657 H 513.867 1.68441 -5.40041 0
M  V30 5658 H 512.424 1.57049 -6.32597 0
M  V30 5659 N 515.857 1.33968 -0.830081 0
M  V30 5660 C 516.767 2.33164 -0.259207 0
M  V30 5661 C 517.783 1.62951 0.610164 0
M  V30 5662 O 518.959 1.94668 0.516369 0
M  V30 5663 C 516.024 3.42088 0.563598 0
M  V30 5664 C 515.085 4.28037 -0.329014 0
M  V30 5665 C 514.318 5.3176 0.454616 0
M  V30 5666 O 514.541 5.44876 1.6872 0
M  V30 5667 O 513.475 6.01669 -0.166794 0
M  V30 5668 H 517.301 2.83832 -1.08041 0
M  V30 5669 H 514.886 1.37154 -0.59239 0
M  V30 5670 H 516.768 4.08581 1.03147 0
M  V30 5671 H 515.443 2.93651 1.36201 0
M  V30 5672 H 514.35 3.64443 -0.844538 0
M  V30 5673 H 515.683 4.79934 -1.09196 0
M  V30 5674 N 517.335 0.585699 1.46312 0
M  V30 5675 C 518.582 0.0724211 2.0237 0
M  V30 5676 C 518.91 -1.28868 1.45683 0
M  V30 5677 O 518.165 -1.85853 0.612945 0
M  V30 5678 C 518.464 -0.0401312 3.57377 0
M  V30 5679 C 518.13 1.25376 4.33119 0
M  V30 5680 C 516.792 1.60824 4.5353 0
M  V30 5681 C 519.144 2.10987 4.76586 0
M  V30 5682 C 516.472 2.81676 5.14661 0
M  V30 5683 C 518.824 3.31068 5.39052 0
M  V30 5684 C 517.488 3.66794 5.5769 0
M  V30 5685 H 516.758 0.0265007 0.740526 0
M  V30 5686 H 519.405 0.762935 1.75646 0
M  V30 5687 H 517.71 -0.813791 3.83255 0
M  V30 5688 H 519.407 -0.453078 3.98432 0
M  V30 5689 H 515.997 0.967808 4.1753 0
M  V30 5690 H 520.181 1.84904 4.60569 0
M  V30 5691 H 515.437 3.0949 5.27282 0
M  V30 5692 H 519.611 3.97672 5.71691 0
M  V30 5693 H 517.238 4.60529 6.04828 0
M  V30 5694 N 518.813 -1.54241 0.323641 0
M  V30 5695 C 519.743 -2.27289 -0.534993 0
M  V30 5696 C 520.724 -1.28087 -1.11927 0
M  V30 5697 O 521.909 -1.56899 -1.14439 0
M  V30 5698 C 519.039 -3.03075 -1.69596 0
M  V30 5699 C 517.993 -4.09614 -1.24098 0
M  V30 5700 C 517.319 -4.73242 -2.4889 0
M  V30 5701 C 518.619 -5.21087 -0.355789 0
M  V30 5702 H 520.313 -2.99308 0.0743257 0
M  V30 5703 H 517.859 -1.43952 0.0371874 0
M  V30 5704 H 519.812 -3.52907 -2.30293 0
M  V30 5705 H 518.536 -2.28673 -2.33187 0
M  V30 5706 H 517.195 -3.60666 -0.656945 0
M  V30 5707 H 516.843 -3.95455 -3.10845 0
M  V30 5708 H 516.543 -5.45209 -2.19138 0
M  V30 5709 H 518.067 -5.25848 -3.10348 0
M  V30 5710 H 519.481 -5.66675 -0.869042 0
M  V30 5711 H 517.878 -5.9991 -0.151045 0
M  V30 5712 H 518.948 -4.81005 0.613339 0
M  V30 5713 N 520.291 -0.0518155 -1.57515 0
M  V30 5714 C 521.254 0.907547 -2.10467 0
M  V30 5715 C 522.254 1.23947 -1.02439 0
M  V30 5716 O 523.444 1.17604 -1.2851 0
M  V30 5717 C 520.576 2.21723 -2.58944 0
M  V30 5718 H 521.769 0.44851 -2.96527 0
M  V30 5719 H 519.322 0.196598 -1.55059 0
M  V30 5720 H 520.057 2.72206 -1.76279 0
M  V30 5721 H 519.842 1.98935 -3.37886 0
M  V30 5722 H 521.332 2.90441 -3.00056 0
M  V30 5723 N 521.769 1.56035 0.221574 0
M  V30 5724 C 522.717 1.93269 1.29421 0
M  V30 5725 C 523.711 0.814727 1.48521 0
M  V30 5726 O 524.917 0.999559 1.49696 0
M  V30 5727 H 521.292 0.614188 0.43391 0
M  V30 5728 H 523.263 2.82773 0.952987 0
M  V30 5729 C 522.012 2.26573 2.63742 0
M  V30 5730 H 521.335 3.12112 2.49853 0
M  V30 5731 H 522.775 2.5651 3.37607 0
M  V30 5732 C 521.234 1.09086 3.1875 0
M  V30 5733 O 521.764 0.351985 4.00155 0
M  V30 5734 N 519.97 0.874693 2.77124 0
M  V30 5735 H 519.517 1.47726 2.11033 0
M  V30 5736 H 519.475 0.0903349 3.1427 0
M  V30 5737 N 523.247 -0.488276 1.49845 0
M  V30 5738 C 524.21 -1.57069 1.66919 0
M  V30 5739 C 525.21 -1.51445 0.540479 0
M  V30 5740 O 526.4 -1.5437 0.807188 0
M  V30 5741 C 523.532 -2.96718 1.67844 0
M  V30 5742 H 524.725 -1.43254 2.63474 0
M  V30 5743 H 522.278 -0.713435 1.39068 0
M  V30 5744 H 523.013 -3.15996 0.7292 0
M  V30 5745 H 522.798 -3.02208 2.49826 0
M  V30 5746 H 524.288 -3.75335 1.83066 0
M  V30 5747 N 524.725 -1.39134 -0.740242 0
M  V30 5748 C 525.955 -1.39132 -1.52728 0
M  V30 5749 C 526.363 0.0173133 -1.89192 0
M  V30 5750 O 525.706 0.997715 -1.54244 0
M  V30 5751 C 525.768 -2.1952 -2.84695 0
M  V30 5752 C 525.432 -3.68203 -2.70695 0
M  V30 5753 C 526.429 -4.61401 -2.39593 0
M  V30 5754 C 524.114 -4.11724 -2.8773 0
M  V30 5755 C 526.108 -5.96102 -2.25701 0
M  V30 5756 C 523.795 -5.46503 -2.73456 0
M  V30 5757 C 524.793 -6.38506 -2.42486 0
M  V30 5758 O 524.481 -7.70803 -2.28295 0
M  V30 5759 H 524.213 -0.477263 -0.478744 0
M  V30 5760 H 526.767 -1.83504 -0.922799 0
M  V30 5761 H 524.997 -1.69888 -3.47383 0
M  V30 5762 H 526.686 -2.1176 -3.46284 0
M  V30 5763 H 527.452 -4.29079 -2.26088 0
M  V30 5764 H 523.331 -3.4045 -3.10829 0
M  V30 5765 H 526.875 -6.6788 -2.0145 0
M  V30 5766 H 522.772 -5.78417 -2.86538 0
M  V30 5767 H 523.54 -7.8147 -2.43405 0
M  V30 5768 N 526.204 0.969867 -1.24223 0
M  V30 5769 C 527.45 1.7151 -1.08223 0
M  V30 5770 C 527.783 1.90478 0.37838 0
M  V30 5771 O 527.058 1.4647 1.27971 0
M  V30 5772 C 527.341 3.10714 -1.82013 0
M  V30 5773 C 527.194 2.9925 -3.35811 0
M  V30 5774 C 528.513 4.10332 -1.59108 0
M  V30 5775 H 525.632 0.622499 -0.394543 0
M  V30 5776 H 528.274 1.1284 -1.52863 0
M  V30 5777 H 526.424 3.608 -1.44068 0
M  V30 5778 H 528.096 2.56608 -3.83341 0
M  V30 5779 H 526.339 2.35512 -3.64303 0
M  V30 5780 H 527.01 3.97857 -3.82641 0
M  V30 5781 H 529.486 3.69097 -1.92111 0
M  V30 5782 H 528.362 5.05804 -2.13198 0
M  V30 5783 H 528.623 4.38926 -0.528832 0
M  V30 5784 N 527.682 1.05563 1.17022 0
M  V30 5785 C 528.612 0.681026 2.23348 0
M  V30 5786 C 529.593 -0.322983 1.67005 0
M  V30 5787 O 530.778 -0.199746 1.9317 0
M  V30 5788 C 527.908 0.0589053 3.4725 0
M  V30 5789 C 526.862 0.988082 4.16438 0
M  V30 5790 C 526.188 0.229646 5.34207 0
M  V30 5791 C 527.488 2.31388 4.68249 0
M  V30 5792 H 529.182 1.56993 2.54938 0
M  V30 5793 H 526.728 0.756302 1.2254 0
M  V30 5794 H 528.681 -0.214982 4.20851 0
M  V30 5795 H 527.405 -0.864968 3.14938 0
M  V30 5796 H 526.064 1.24659 3.44754 0
M  V30 5797 H 525.712 -0.697111 4.98146 0
M  V30 5798 H 525.412 0.848815 5.81437 0
M  V30 5799 H 526.936 -0.0368694 6.10589 0
M  V30 5800 H 528.35 2.09964 5.33468 0
M  V30 5801 H 526.747 2.88736 5.26072 0
M  V30 5802 H 527.817 2.94982 3.84855 0
M  V30 5803 N 529.16 -1.33526 0.837174 0
M  V30 5804 C 530.123 -2.27551 0.274421 0
M  V30 5805 C 531.123 -1.50886 -0.555881 0
M  V30 5806 O 532.313 -1.70227 -0.369918 0
M  V30 5807 C 529.445 -3.35332 -0.613605 0
M  V30 5808 H 530.638 -2.78837 1.10408 0
M  V30 5809 H 528.191 -1.439 0.610126 0
M  V30 5810 H 528.926 -2.89285 -1.46577 0
M  V30 5811 H 528.711 -3.92095 -0.0195341 0
M  V30 5812 H 530.201 -4.05433 -1.00068 0
M  V30 5813 N 530.638 -0.59345 -1.46 0
M  V30 5814 C 531.884 -0.0832754 -2.02629 0
M  V30 5815 C 532.217 1.27749 -1.46266 0
M  V30 5816 O 531.492 1.8395 -0.631866 0
M  V30 5817 C 531.775 -0.0290756 -3.60088 0
M  V30 5818 C 531.628 -1.41951 -4.26814 0
M  V30 5819 C 532.947 0.666055 -4.35031 0
M  V30 5820 H 530.066 -0.031736 -0.736316 0
M  V30 5821 H 532.708 -0.762711 -1.74019 0
M  V30 5822 H 530.858 0.549532 -3.84594 0
M  V30 5823 H 532.53 -2.04411 -4.13538 0
M  V30 5824 H 530.773 -1.98422 -3.8576 0
M  V30 5825 H 531.444 -1.33395 -5.3564 0
M  V30 5826 H 533.92 0.174401 -4.15734 0
M  V30 5827 H 532.796 0.673041 -5.44758 0
M  V30 5828 H 533.057 1.72946 -4.06869 0
M  V30 5829 N 532.116 1.54067 -0.331816 0
M  V30 5830 C 533.046 2.27569 0.522932 0
M  V30 5831 C 534.027 1.28679 1.11247 0
M  V30 5832 O 535.212 1.57504 1.13605 0
M  V30 5833 C 532.342 3.0397 1.67987 0
M  V30 5834 C 531.296 4.10267 1.21924 0
M  V30 5835 C 530.622 4.74555 2.46377 0
M  V30 5836 C 531.922 5.21268 0.32815 0
M  V30 5837 H 533.616 2.99264 -0.0901977 0
M  V30 5838 H 531.162 1.4393 -0.044821 0
M  V30 5839 H 533.115 3.54123 2.28418 0
M  V30 5840 H 531.839 2.29906 2.31971 0
M  V30 5841 H 530.498 3.61009 0.637809 0
M  V30 5842 H 530.146 3.97098 3.08743 0
M  V30 5843 H 529.846 5.46363 2.16243 0
M  V30 5844 H 531.37 5.27487 3.07555 0
M  V30 5845 H 532.784 5.67128 0.838978 0
M  V30 5846 H 531.181 5.99982 0.119228 0
M  V30 5847 H 532.251 4.80673 -0.638839 0
M  V30 5848 N 533.594 0.0601682 1.57485 0
M  V30 5849 C 534.524 -0.90889 2.15085 0
M  V30 5850 C 535.505 -1.31838 1.07484 0
M  V30 5851 O 536.69 -1.3915 1.35466 0
M  V30 5852 C 533.82 -2.18059 2.7031 0
M  V30 5853 C 532.774 -1.91088 3.82974 0
M  V30 5854 C 532.1 -3.24789 4.24754 0
M  V30 5855 C 533.4 -1.22535 5.07723 0
M  V30 5856 H 535.094 -0.429093 2.96309 0
M  V30 5857 H 532.64 -0.204952 1.42534 0
M  V30 5858 H 534.593 -2.86258 3.09248 0
M  V30 5859 H 533.317 -2.6826 1.8629 0
M  V30 5860 H 531.976 -1.25297 3.44523 0
M  V30 5861 H 531.624 -3.72809 3.37672 0
M  V30 5862 H 531.324 -3.07538 5.00694 0
M  V30 5863 H 532.848 -3.94205 4.66299 0
M  V30 5864 H 534.262 -1.80783 5.4405 0
M  V30 5865 H 532.659 -1.1558 5.88864 0
M  V30 5866 H 533.729 -0.202692 4.84476 0
M  V30 5867 N 535.072 -1.5615 -0.213296 0
M  V30 5868 C 536.319 -1.79546 -0.936462 0
M  V30 5869 C 536.647 -0.630337 -1.84003 0
M  V30 5870 O 535.902 0.384883 -1.91878 0
M  V30 5871 C 536.201 -3.08772 -1.79985 0
M  V30 5872 C 535.867 -4.38532 -1.04882 0
M  V30 5873 C 534.529 -4.73787 -0.841393 0
M  V30 5874 C 536.881 -5.18609 -0.51907 0
M  V30 5875 C 534.209 -5.86627 -0.0924403 0
M  V30 5876 C 536.561 -6.32229 0.216581 0
M  V30 5877 C 535.225 -6.6608 0.435191 0
M  V30 5878 H 534.495 -0.657004 -0.342676 0
M  V30 5879 H 537.142 -1.9041 -0.204051 0
M  V30 5880 H 535.447 -2.93065 -2.60038 0
M  V30 5881 H 537.144 -3.24077 -2.36168 0
M  V30 5882 H 533.734 -4.10855 -1.22048 0
M  V30 5883 H 537.918 -4.91801 -0.666775 0
M  V30 5884 H 533.174 -6.11338 0.087081 0
M  V30 5885 H 537.348 -6.93503 0.634538 0
M  V30 5886 H 534.975 -7.5336 1.01746 0
M  V30 5887 N 536.55 0.480323 -1.50102 0
M  V30 5888 C 537.48 1.58769 -1.71215 0
M  V30 5889 C 538.461 1.60583 -0.560997 0
M  V30 5890 O 539.646 1.76996 -0.799127 0
M  V30 5891 C 536.776 2.97148 -1.79778 0
M  V30 5892 C 535.73 3.10201 -2.94888 0
M  V30 5893 C 535.056 4.50137 -2.88584 0
M  V30 5894 C 536.356 2.88283 -4.35534 0
M  V30 5895 H 538.05 1.41354 -2.6393 0
M  V30 5896 H 535.596 0.678591 -1.27008 0
M  V30 5897 H 537.549 3.74536 -1.93133 0
M  V30 5898 H 536.273 3.15699 -0.836772 0
M  V30 5899 H 534.932 2.35244 -2.81169 0
M  V30 5900 H 534.58 4.65593 -1.90349 0
M  V30 5901 H 534.28 4.59808 -3.65856 0
M  V30 5902 H 535.804 5.29558 -3.03976 0
M  V30 5903 H 537.218 3.55427 -4.49827 0
M  V30 5904 H 535.615 3.09408 -5.14186 0
M  V30 5905 H 536.685 1.84219 -4.48544 0
M  V30 5906 N 538.028 1.39524 0.732853 0
M  V30 5907 C 538.991 1.38189 1.82857 0
M  V30 5908 C 539.991 0.278624 1.58368 0
M  V30 5909 O 541.181 0.536639 1.65728 0
M  V30 5910 C 538.313 1.15661 3.2068 0
M  V30 5911 H 539.506 2.35692 1.85444 0
M  V30 5912 H 537.059 1.2512 0.936728 0
M  V30 5913 H 537.794 0.188482 3.23752 0
M  V30 5914 H 537.579 1.95559 3.39852 0
M  V30 5915 H 539.069 1.17472 4.00737 0
M  V30 5916 N 539.506 -0.963266 1.24736 0
M  V30 5917 C 540.436 -2.07628 1.06832 0
M  V30 5918 C 541.417 -1.70088 -0.0200566 0
M  V30 5919 O 542.602 -1.93636 0.147854 0
M  V30 5920 C 539.732 -3.40636 0.677069 0
M  V30 5921 C 538.686 -3.9215 1.71471 0
M  V30 5922 C 538.012 -5.21553 1.1784 0
M  V30 5923 C 539.312 -4.19493 3.11164 0
M  V30 5924 H 541.006 -2.22864 1.9993 0
M  V30 5925 H 538.552 -1.07093 0.96266 0
M  V30 5926 H 540.505 -4.17941 0.538792 0
M  V30 5927 H 539.229 -3.25313 -0.289612 0
M  V30 5928 H 537.888 -3.17005 1.84128 0
M  V30 5929 H 537.536 -5.02593 0.202195 0
M  V30 5930 H 537.236 -5.56988 1.87185 0
M  V30 5931 H 538.76 -6.01463 1.05233 0
M  V30 5932 H 540.174 -4.87487 3.01711 0
M  V30 5933 H 538.571 -4.66165 3.77902 0
M  V30 5934 H 539.641 -3.26097 3.58871 0
M  V30 5935 N 540.985 -1.06182 -1.16461 0
M  V30 5936 C 541.915 -0.692861 -2.22984 0
M  V30 5937 C 542.896 0.314122 -1.67174 0
M  V30 5938 O 544.081 0.189499 -1.93273 0
M  V30 5939 C 541.211 -0.07732 -3.47214 0
M  V30 5940 C 540.165 -1.01015 -4.15909 0
M  V30 5941 C 539.491 -0.257973 -5.34077 0
M  V30 5942 C 540.791 -2.33868 -4.67015 0
M  V30 5943 H 542.485 -1.58343 -2.54102 0
M  V30 5944 H 540.031 -0.76279 -1.22137 0
M  V30 5945 H 541.984 0.19266 -4.20959 0
M  V30 5946 H 540.708 0.848254 -3.15392 0
M  V30 5947 H 539.367 -1.26486 -3.44088 0
M  V30 5948 H 539.015 0.670684 -4.98509 0
M  V30 5949 H 538.715 -0.879638 -5.80979 0
M  V30 5950 H 540.239 0.00448788 -6.106 0
M  V30 5951 H 541.653 -2.1279 -5.32347 0
M  V30 5952 H 540.05 -2.91522 -5.24533 0
M  V30 5953 H 541.12 -2.97019 -3.83286 0
M  V30 5954 N 542.463 1.3308 -0.844243 0
M  V30 5955 C 543.393 2.3161 -0.296493 0
M  V30 5956 C 544.374 1.59215 0.598707 0
M  V30 5957 O 545.559 1.87077 0.521134 0
M  V30 5958 C 542.689 3.43313 0.524762 0
M  V30 5959 C 541.643 4.27115 -0.275106 0
M  V30 5960 C 540.969 5.30483 0.670236 0
M  V30 5961 C 542.269 5.00443 -1.49514 0
M  V30 5962 H 543.963 2.77672 -1.11976 0
M  V30 5963 H 541.509 1.33496 -0.539899 0
M  V30 5964 H 543.462 4.11273 0.918298 0
M  V30 5965 H 542.186 2.95952 1.3813 0
M  V30 5966 H 540.845 3.60787 -0.650267 0
M  V30 5967 H 540.493 4.79379 1.52332 0
M  V30 5968 H 540.193 5.87435 0.139123 0
M  V30 5969 H 541.717 6.01308 1.06117 0
M  V30 5970 H 543.131 5.61141 -1.17447 0
M  V30 5971 H 541.528 5.67071 -1.96343 0
M  V30 5972 H 542.598 4.28906 -2.26202 0
M  V30 5973 N 543.941 0.601185 1.45683 0
M  V30 5974 C 544.873 -0.159446 2.28645 0
M  V30 5975 C 545.886 -0.837882 1.39583 0
M  V30 5976 O 547.075 -0.704344 1.64016 0
M  V30 5977 C 544.175 -1.24641 3.15147 0
M  V30 5978 C 543.348 -0.656334 4.32448 0
M  V30 5979 C 542.407 -1.63337 5.00208 0
M  V30 5980 O 541.433 -1.16217 5.57209 0
M  V30 5981 N 542.635 -2.96773 4.98905 0
M  V30 5982 H 545.4 0.5524 2.94565 0
M  V30 5983 H 542.961 0.440223 1.558 0
M  V30 5984 H 544.953 -1.8997 3.57342 0
M  V30 5985 H 543.523 -1.86087 2.51178 0
M  V30 5986 H 542.743 0.174879 3.93812 0
M  V30 5987 H 544.031 -0.242211 5.08223 0
M  V30 5988 H 543.429 -3.37662 4.53873 0
M  V30 5989 H 541.986 -3.57541 5.44984 0
M  V30 5990 N 545.419 -1.53889 0.339982 0
M  V30 5991 C 546.835 -1.59595 -0.0120752 0
M  V30 5992 C 547.035 -1.35605 -1.49042 0
M  V30 5993 O 546.091 -1.14856 -2.24865 0
M  V30 5994 C 547.404 -2.9774 0.420898 0
M  V30 5995 C 548.952 -3.1077 0.37294 0
M  V30 5996 C 549.427 -4.51286 0.781327 0
M  V30 5997 N 550.918 -4.57325 0.735374 0
M  V30 5998 C 551.653 -5.64194 1.02336 0
M  V30 5999 N 551.149 -6.7893 1.37933 0
M  V30 6000 N 552.942 -5.54051 0.947838 0
M  V30 6001 H 545.093 -1.67738 1.30299 0
M  V30 6002 H 547.356 -0.785385 0.530918 0
M  V30 6003 H 547.062 -3.20349 1.45152 0
M  V30 6004 H 546.936 -3.76639 -0.205721 0
M  V30 6005 H 549.323 -2.87886 -0.648505 0
M  V30 6006 H 549.404 -2.33939 1.03472 0
M  V30 6007 H 549.048 -4.74905 1.80077 0
M  V30 6008 H 548.978 -5.26511 0.0970679 0
M  V30 6009 H 551.469 -3.74931 0.472773 0
M  V30 6010 H 551.782 -7.56392 1.58402 0
M  V30 6011 H 550.127 -6.80386 1.41774 0
M  V30 6012 H 553.318 -4.63293 0.669115 0
M  V30 6013 H 553.491 -6.37246 1.17563 0
M  V30 6014 N 546.897 -0.0685191 -1.57451 0
M  V30 6015 C 548.125 0.610462 -1.97689 0
M  V30 6016 C 548.54 1.63346 -0.946758 0
M  V30 6017 O 547.897 1.82377 0.0669868 0
M  V30 6018 C 547.948 1.28196 -3.38006 0
M  V30 6019 O 547.669 0.299906 -4.37072 0
M  V30 6020 C 549.17 2.04907 -3.931 0
M  V30 6021 H 546.39 0.165689 -0.650222 0
M  V30 6022 H 548.934 -0.139953 -2.04021 0
M  V30 6023 H 547.089 1.98348 -3.32771 0
M  V30 6024 H 547.503 0.78126 -5.18649 0
M  V30 6025 H 548.977 2.47287 -4.93511 0
M  V30 6026 H 549.454 2.9043 -3.29465 0
M  V30 6027 H 550.06 1.39629 -4.01726 0
M  V30 6028 N 548.375 1.56261 0.205012 0
M  V30 6029 C 549.622 1.8004 0.926927 0
M  V30 6030 C 549.95 0.640086 1.83666 0
M  V30 6031 O 549.205 -0.374702 1.92079 0
M  V30 6032 C 549.504 3.09722 1.78345 0
M  V30 6033 C 549.17 4.39082 1.02555 0
M  V30 6034 C 547.832 4.74226 0.816256 0
M  V30 6035 C 550.184 5.18877 0.491559 0
M  V30 6036 C 547.512 5.86668 0.0613287 0
M  V30 6037 C 549.864 6.32105 -0.250107 0
M  V30 6038 C 548.528 6.6584 -0.470508 0
M  V30 6039 H 547.798 0.658812 0.339187 0
M  V30 6040 H 550.445 1.90515 0.19395 0
M  V30 6041 H 548.75 2.9444 2.5848 0
M  V30 6042 H 550.447 3.25324 2.34446 0
M  V30 6043 H 547.037 4.11497 1.19868 0
M  V30 6044 H 551.221 4.92147 0.640684 0
M  V30 6045 H 546.477 6.11283 -0.119501 0
M  V30 6046 H 550.651 6.93157 -0.671307 0
M  V30 6047 H 548.278 7.5281 -1.05739 0
M  V30 6048 N 549.853 -0.472356 1.50355 0
M  V30 6049 C 550.783 -1.57859 1.72055 0
M  V30 6050 C 551.764 -1.60283 0.569505 0
M  V30 6051 O 552.949 -1.7657 0.808503 0
M  V30 6052 C 550.079 -2.96191 1.81351 0
M  V30 6053 C 549.033 -3.08633 2.96529 0
M  V30 6054 C 548.359 -4.486 2.90968 0
M  V30 6055 C 549.659 -2.85969 4.37057 0
M  V30 6056 H 551.353 -1.39953 2.64676 0
M  V30 6057 H 548.899 -0.671846 1.27367 0
M  V30 6058 H 550.852 -3.73507 1.95117 0
M  V30 6059 H 549.576 -3.15251 0.853502 0
M  V30 6060 H 548.235 -2.33749 2.82413 0
M  V30 6061 H 547.883 -4.64577 1.92815 0
M  V30 6062 H 547.583 -4.57861 3.68289 0
M  V30 6063 H 549.107 -5.27938 3.0678 0
M  V30 6064 H 550.521 -3.53036 4.51706 0
M  V30 6065 H 548.918 -3.06677 5.15819 0
M  V30 6066 H 549.988 -1.81838 4.49514 0
M  V30 6067 N 551.331 -1.39911 -0.725443 0
M  V30 6068 C 552.263 -1.35301 -1.85003 0
M  V30 6069 C 553.276 -0.260102 -1.60709 0
M  V30 6070 O 554.465 -0.519749 -1.70766 0
M  V30 6071 C 551.565 -1.08039 -3.21218 0
M  V30 6072 C 550.738 -2.28793 -3.7279 0
M  V30 6073 C 549.797 -1.97841 -4.87591 0
M  V30 6074 O 548.823 -2.70616 -5.00755 0
M  V30 6075 N 550.025 -0.950367 -5.72668 0
M  V30 6076 H 552.79 -2.32218 -1.89459 0
M  V30 6077 H 550.351 -1.34137 -0.90658 0
M  V30 6078 H 552.343 -0.853354 -3.95601 0
M  V30 6079 H 550.913 -0.198229 -3.11971 0
M  V30 6080 H 550.133 -2.67388 -2.8965 0
M  V30 6081 H 551.421 -3.09317 -4.03981 0
M  V30 6082 H 550.819 -0.347436 -5.64632 0
M  V30 6083 H 549.376 -0.783232 -6.47077 0
M  V30 6084 N 552.809 0.956637 -1.25245 0
M  V30 6085 C 553.772 2.03457 -1.05537 0
M  V30 6086 C 554.772 1.60798 -0.00886317 0
M  V30 6087 O 555.962 1.72384 -0.250865 0
M  V30 6088 C 553.094 3.35543 -0.601965 0
M  V30 6089 H 554.287 2.22372 -2.01223 0
M  V30 6090 H 551.84 1.13344 -1.07623 0
M  V30 6091 H 552.575 3.22323 0.357584 0
M  V30 6092 H 552.36 3.67854 -1.35743 0
M  V30 6093 H 553.85 4.14769 -0.485454 0
M  V30 6094 N 554.287 1.06798 1.15896 0
M  V30 6095 C 555.512 0.808739 1.90982 0
M  V30 6096 C 555.937 -0.6316 1.77179 0
M  V30 6097 O 555.295 -1.4407 1.10061 0
M  V30 6098 C 555.343 1.21468 3.39526 0
M  V30 6099 O 554.447 0.356562 4.10856 0
M  V30 6100 H 553.788 0.29512 0.594811 0
M  V30 6101 H 556.318 1.42513 1.46804 0
M  V30 6102 H 556.328 1.18844 3.90308 0
M  V30 6103 H 555.003 2.26379 3.48891 0
M  V30 6104 H 553.58 0.444808 3.70238 0
M  V30 6105 N 555.766 -1.3263 0.851289 0
M  V30 6106 C 556.996 -2.01271 0.466222 0
M  V30 6107 C 557.404 -1.64156 -0.940714 0
M  V30 6108 O 556.747 -0.857109 -1.62479 0
M  V30 6109 C 556.809 -3.55695 0.521672 0
M  V30 6110 C 556.473 -4.16227 1.88691 0
M  V30 6111 C 557.47 -4.34699 2.85189 0
M  V30 6112 C 555.155 -4.52377 2.18313 0
M  V30 6113 C 557.149 -4.88484 4.09465 0
M  V30 6114 C 554.836 -5.05868 3.42843 0
M  V30 6115 C 555.834 -5.23869 4.38235 0
M  V30 6116 O 555.522 -5.76218 5.6056 0
M  V30 6117 H 555.254 -0.651034 0.18202 0
M  V30 6118 H 557.808 -1.7026 1.14894 0
M  V30 6119 H 556.038 -3.86086 -0.217888 0
M  V30 6120 H 557.727 -4.05613 0.152682 0
M  V30 6121 H 558.493 -4.07107 2.63607 0
M  V30 6122 H 554.372 -4.37652 1.44851 0
M  V30 6123 H 557.916 -5.02451 4.83931 0
M  V30 6124 H 553.813 -5.32891 3.64277 0
M  V30 6125 H 554.581 -5.94616 5.62471 0
M  V30 6126 N 557.244 -0.608902 -1.45362 0
M  V30 6127 C 558.474 -0.110852 -2.06302 0
M  V30 6128 C 558.882 1.21062 -1.45398 0
M  V30 6129 O 558.225 1.74861 -0.562976 0
M  V30 6130 C 558.287 0.101793 -3.59356 0
M  V30 6131 C 557.951 -1.13808 -4.42602 0
M  V30 6132 C 558.948 -2.05653 -4.77496 0
M  V30 6133 C 556.633 -1.36727 -4.83333 0
M  V30 6134 C 558.627 -3.18745 -5.51978 0
M  V30 6135 C 556.314 -2.5012 -5.57569 0
M  V30 6136 C 557.312 -3.40957 -5.91809 0
M  V30 6137 O 557 -4.52376 -6.64538 0
M  V30 6138 H 556.732 -0.0666001 -0.672711 0
M  V30 6139 H 559.286 -0.836942 -1.87575 0
M  V30 6140 H 557.516 0.88279 -3.76489 0
M  V30 6141 H 559.205 0.551607 -4.02134 0
M  V30 6142 H 559.971 -1.89172 -4.46586 0
M  V30 6143 H 555.85 -0.669216 -4.56117 0
M  V30 6144 H 559.394 -3.8967 -5.78622 0
M  V30 6145 H 555.291 -2.66553 -5.87894 0
M  V30 6146 H 556.059 -4.51075 -6.82989 0
M  V30 6147 N 558.722 1.53707 -0.348139 0
M  V30 6148 C 559.968 2.01286 0.247332 0
M  V30 6149 C 560.301 1.23546 1.49834 0
M  V30 6150 O 559.576 0.324331 1.91777 0
M  V30 6151 C 559.859 3.55768 0.556858 0
M  V30 6152 C 559.712 4.44216 -0.706564 0
M  V30 6153 C 561.031 4.1841 1.3646 0
M  V30 6154 H 558.15 0.731677 0.0884201 0
M  V30 6155 H 560.792 1.84106 -0.469584 0
M  V30 6156 H 558.942 3.70539 1.16761 0
M  V30 6157 H 560.614 4.41274 -1.34444 0
M  V30 6158 H 558.857 4.12892 -1.33052 0
M  V30 6159 H 559.528 5.50202 -0.445186 0
M  V30 6160 H 562.004 4.07365 0.848113 0
M  V30 6161 H 560.88 5.26563 1.54992 0
M  V30 6162 H 561.141 3.7333 2.36805 0
M  V30 6163 N 560.2 0.0768682 1.57412 0
M  V30 6164 C 561.163 -0.873949 2.11884 0
M  V30 6165 C 562.163 -1.22301 1.04398 0
M  V30 6166 O 563.353 -1.15545 1.30365 0
M  V30 6167 C 560.485 -2.17575 2.62438 0
M  V30 6168 H 561.678 -0.401278 2.97203 0
M  V30 6169 H 559.231 -0.171904 1.55352 0
M  V30 6170 H 559.966 -2.69368 1.80587 0
M  V30 6171 H 559.751 -1.93534 3.41009 0
M  V30 6172 H 561.241 -2.85631 3.04639 0
M  V30 6173 N 561.678 -1.56367 -0.196722 0
M  V30 6174 C 562.927 -1.79724 -0.915539 0
M  V30 6175 C 563.24 -0.649804 -1.84491 0
M  V30 6176 O 564.446 -0.767631 -2.60422 0
M  V30 6177 C 562.902 -3.18369 -1.67836 0
M  V30 6178 C 562.51 -4.4091 -0.793897 0
M  V30 6179 C 564.254 -3.51037 -2.38691 0
M  V30 6180 C 562.161 -5.70577 -1.55549 0
M  V30 6181 H 561.091 -0.67013 -0.345604 0
M  V30 6182 H 563.742 -1.82721 -0.168856 0
M  V30 6183 H 562.124 -3.09617 -2.46887 0
M  V30 6184 H 563.298 -4.60781 -0.042163 0
M  V30 6185 H 561.613 -4.15937 -0.19626 0
M  V30 6186 H 564.21 -4.4515 -2.96219 0
M  V30 6187 H 564.553 -2.74704 -3.12799 0
M  V30 6188 H 565.086 -3.61229 -1.66608 0
M  V30 6189 H 561.825 -6.49871 -0.857226 0
M  V30 6190 H 561.345 -5.54726 -2.2812 0
M  V30 6191 H 563.024 -6.11637 -2.10971 0
M  V30 6192 N 563.156 0.464375 -1.50603 0
M  V30 6193 C 564.066 1.58723 -1.72754 0
M  V30 6194 C 565.082 1.62925 -0.610844 0
M  V30 6195 O 566.258 1.8067 -0.889963 0
M  V30 6196 C 563.323 2.94897 -1.82309 0
M  V30 6197 C 562.384 3.0103 -3.06071 0
M  V30 6198 C 561.617 4.30708 -3.1516 0
M  V30 6199 O 561.84 5.2159 -2.30868 0
M  V30 6200 O 560.774 4.42571 -4.0794 0
M  V30 6201 H 564.6 1.42954 -2.67951 0
M  V30 6202 H 562.185 0.644579 -1.3478 0
M  V30 6203 H 564.067 3.75764 -1.90735 0
M  V30 6204 H 562.742 3.10851 -0.902967 0
M  V30 6205 H 561.649 2.19217 -3.03142 0
M  V30 6206 H 562.982 2.90014 -3.97684 0
M  V30 6207 N 564.634 1.40294 0.718013 0
M  V30 6208 C 565.862 1.4175 1.50714 0
M  V30 6209 C 566.277 0.0165366 1.88793 0
M  V30 6210 O 565.634 -0.958942 1.55276 0
M  V30 6211 C 565.685 2.30598 2.784 0
M  V30 6212 O 565.406 3.6524 2.41932 0
M  V30 6213 C 566.907 2.4062 3.72313 0
M  V30 6214 H 564.127 0.483565 0.465194 0
M  V30 6215 H 566.671 1.84316 0.885889 0
M  V30 6216 H 564.826 1.91401 3.36815 0
M  V30 6217 H 565.24 4.12402 3.24076 0
M  V30 6218 H 566.714 3.07001 4.58753 0
M  V30 6219 H 567.191 1.4305 4.15251 0
M  V30 6220 H 567.797 2.80359 3.19811 0
M  V30 6221 N 566.112 -0.949982 1.2575 0
M  V30 6222 C 567.36 -1.6918 1.10555 0
M  V30 6223 C 567.681 -1.91773 -0.353298 0
M  V30 6224 O 566.951 -1.50814 -1.25027 0
M  V30 6225 H 565.531 -0.626952 0.406129 0
M  V30 6226 H 568.193 -1.1419 1.57945 0
M  V30 6227 H 567.289 -2.66915 1.61749 0
M  V30 6228 N 567.59 -1.07411 -1.15328 0
M  V30 6229 C 568.839 -0.792643 -1.85473 0
M  V30 6230 C 569.152 0.683789 -1.83259 0
M  V30 6231 O 570.358 1.08005 -2.49093 0
M  V30 6232 C 568.814 -1.36787 -3.32892 0
M  V30 6233 C 568.422 -2.87536 -3.43551 0
M  V30 6234 C 570.166 -1.16444 -4.08217 0
M  V30 6235 C 568.073 -3.38247 -4.85122 0
M  V30 6236 H 567.003 -0.292838 -0.694811 0
M  V30 6237 H 569.654 -1.29426 -1.30082 0
M  V30 6238 H 568.036 -0.793993 -3.87958 0
M  V30 6239 H 569.21 -3.50973 -2.98588 0
M  V30 6240 H 567.525 -3.06676 -2.81672 0
M  V30 6241 H 570.122 -1.51808 -5.12697 0
M  V30 6242 H 570.465 -0.10353 -4.16171 0
M  V30 6243 H 570.998 -1.70472 -3.59422 0
M  V30 6244 H 567.737 -4.43866 -4.82351 0
M  V30 6245 H 567.257 -2.79564 -5.30664 0
M  V30 6246 H 568.936 -3.34238 -5.5398 0
M  V30 6247 N 569.068 1.32177 -0.85831 0
M  V30 6248 C 570.016 2.30729 -0.294442 0
M  V30 6249 C 571.01 1.59009 0.584165 0
M  V30 6250 O 572.216 1.73713 0.471562 0
M  V30 6251 H 568.591 0.748097 -0.0765171 0
M  V30 6252 H 570.562 2.75774 -1.1398 0
M  V30 6253 C 569.311 3.44098 0.499208 0
M  V30 6254 H 568.634 3.99449 -0.167579 0
M  V30 6255 H 570.074 4.15202 0.859273 0
M  V30 6256 C 568.533 2.91684 1.68588 0
M  V30 6257 O 569.063 2.89481 2.78503 0
M  V30 6258 N 567.269 2.48036 1.51415 0
M  V30 6259 H 566.816 2.50027 0.620006 0
M  V30 6260 H 566.774 2.13322 2.30957 0
M  V30 6261 N 570.547 0.616602 1.45037 0
M  V30 6262 C 571.477 -0.0840787 2.33349 0
M  V30 6263 C 572.458 -0.849641 1.4736 0
M  V30 6264 O 573.643 -0.818407 1.76113 0
M  V30 6265 C 570.773 -1.07604 3.3021 0
M  V30 6266 C 569.727 -0.423096 4.25904 0
M  V30 6267 C 569.053 -1.52394 5.12523 0
M  V30 6268 C 570.353 0.661457 5.18095 0
M  V30 6269 H 572.047 0.653333 2.92185 0
M  V30 6270 H 569.593 0.315634 1.40498 0
M  V30 6271 H 571.546 -1.57485 3.90866 0
M  V30 6272 H 570.27 -1.84416 2.69552 0
M  V30 6273 H 568.929 0.05493 3.66559 0
M  V30 6274 H 568.577 -2.28257 4.48227 0
M  V30 6275 H 568.277 -1.09251 5.77354 0
M  V30 6276 H 569.801 -2.02485 5.76049 0
M  V30 6277 H 571.215 0.246353 5.7277 0
M  V30 6278 H 569.612 1.01517 5.91451 0
M  V30 6279 H 570.682 1.53446 4.59981 0
M  V30 6280 N 572.025 -1.5352 0.356285 0
M  V30 6281 C 573.441 -1.59599 0.00485267 0
M  V30 6282 C 573.641 -1.37179 -1.47595 0
M  V30 6283 O 572.697 -1.17234 -2.23635 0
M  V30 6284 C 574.01 -2.97277 0.452454 0
M  V30 6285 C 575.558 -3.10357 0.405881 0
M  V30 6286 C 576.033 -4.50432 0.829148 0
M  V30 6287 N 577.524 -4.5652 0.783838 0
M  V30 6288 C 578.259 -5.63077 1.08315 0
M  V30 6289 N 577.755 -6.77429 1.45126 0
M  V30 6290 N 579.548 -5.53014 1.00655 0
M  V30 6291 H 571.699 -1.66346 1.32071 0
M  V30 6292 H 573.962 -0.77971 0.539218 0
M  V30 6293 H 573.668 -3.18792 1.48542 0
M  V30 6294 H 573.542 -3.76836 -0.165762 0
M  V30 6295 H 575.929 -2.88558 -0.617934 0
M  V30 6296 H 576.01 -2.32828 1.05947 0
M  V30 6297 H 575.654 -4.72968 1.85103 0
M  V30 6298 H 575.584 -5.26378 0.152906 0
M  V30 6299 H 578.075 -3.74408 0.512513 0
M  V30 6300 H 578.388 -7.54669 1.66415 0
M  V30 6301 H 576.733 -6.78844 1.48983 0
M  V30 6302 H 579.924 -4.62557 0.718215 0
M  V30 6303 H 580.097 -6.35964 1.24315 0
M  V30 6304 N 573.503 -0.0852151 -1.57369 0
M  V30 6305 C 574.751 0.579658 -1.93609 0
M  V30 6306 C 575.072 1.69332 -0.967043 0
M  V30 6307 O 574.342 1.95892 -0.0174215 0
M  V30 6308 H 572.922 0.217113 -0.714752 0
M  V30 6309 H 575.584 -0.146226 -1.94351 0
M  V30 6310 H 574.68 0.996276 -2.95771 0
M  V30 6311 N 574.981 1.5647 0.188427 0
M  V30 6312 C 575.944 1.9421 1.21718 0
M  V30 6313 C 576.944 0.823901 1.38089 0
M  V30 6314 O 578.134 1.09122 1.35787 0
M  V30 6315 C 575.266 2.22197 2.58537 0
M  V30 6316 H 576.459 2.86252 0.894418 0
M  V30 6317 H 574.012 1.50263 0.430211 0
M  V30 6318 H 574.747 1.32814 2.95856 0
M  V30 6319 H 574.532 3.03688 2.48025 0
M  V30 6320 H 576.022 2.52376 3.3271 0
M  V30 6321 N 576.459 -0.456382 1.50847 0
M  V30 6322 C 577.708 -1.2042 1.61808 0
M  V30 6323 C 578.021 -1.9278 0.330932 0
M  V30 6324 O 579.227 -2.69612 0.319643 0
M  V30 6325 C 577.683 -2.18891 2.85683 0
M  V30 6326 C 577.291 -1.52267 4.2133 0
M  V30 6327 C 579.035 -2.94224 3.05994 0
M  V30 6328 C 576.942 -2.4911 5.36375 0
M  V30 6329 H 575.872 -0.453177 0.602616 0
M  V30 6330 H 578.523 -0.473144 1.77295 0
M  V30 6331 H 576.905 -2.95351 2.63787 0
M  V30 6332 H 578.079 -0.814949 4.53536 0
M  V30 6333 H 576.394 -0.891594 4.06743 0
M  V30 6334 H 578.991 -3.66732 3.89117 0
M  V30 6335 H 579.334 -3.54469 2.18306 0
M  V30 6336 H 579.867 -2.24874 3.28141 0
M  V30 6337 H 576.606 -1.93582 6.26264 0
M  V30 6338 H 576.126 -3.17991 5.08569 0
M  V30 6339 H 577.805 -3.10637 5.67551 0
M  V30 6340 N 577.937 -1.40673 -0.710563 0
M  V30 6341 C 578.869 -1.37256 -1.83558 0
M  V30 6342 C 579.882 -0.277133 -1.60424 0
M  V30 6343 O 581.071 -0.537831 -1.70205 0
M  V30 6344 C 578.171 -1.1144 -3.20054 0
M  V30 6345 C 577.344 -2.32734 -3.70342 0
M  V30 6346 C 576.403 -2.03002 -4.85465 0
M  V30 6347 O 575.429 -2.75912 -4.97857 0
M  V30 6348 N 576.631 -1.01105 -5.71627 0
M  V30 6349 H 579.396 -2.34215 -1.86985 0
M  V30 6350 H 576.957 -1.35091 -0.892301 0
M  V30 6351 H 578.949 -0.895265 -3.94673 0
M  V30 6352 H 577.519 -0.231307 -3.11743 0
M  V30 6353 H 576.739 -2.70446 -2.86798 0
M  V30 6354 H 578.027 -3.13584 -4.00678 0
M  V30 6355 H 577.425 -0.407303 -5.64232 0
M  V30 6356 H 575.982 -0.85182 -6.4621 0
M  V30 6357 N 579.415 0.9433 -1.26252 0
M  V30 6358 C 580.643 1.72367 -1.14443 0
M  V30 6359 C 581.058 1.86392 0.300572 0
M  V30 6360 O 580.415 1.36978 1.20596 0
M  V30 6361 C 580.466 3.13155 -1.806 0
M  V30 6362 O 580.187 2.99803 -3.19452 0
M  V30 6363 C 581.688 4.07417 -1.74717 0
M  V30 6364 H 578.908 0.539758 -0.398626 0
M  V30 6365 H 581.452 1.18268 -1.66832 0
M  V30 6366 H 579.607 3.64162 -1.32154 0
M  V30 6367 H 580.021 3.88697 -3.52158 0
M  V30 6368 H 581.495 5.03773 -2.25647 0
M  V30 6369 H 581.972 4.3337 -0.713244 0
M  V30 6370 H 582.578 3.6233 -2.22704 0
M  V30 6371 N 580.893 1.08022 1.14757 0
M  V30 6372 C 581.84 0.706657 2.19716 0
M  V30 6373 C 582.81 -0.30525 1.63271 0
M  V30 6374 O 583.995 -0.19015 1.8985 0
M  V30 6375 C 581.135 0.117914 3.44898 0
M  V30 6376 C 580.248 1.18212 4.15512 0
M  V30 6377 C 579.383 0.557659 5.28265 0
M  V30 6378 C 578.422 1.60418 5.90705 0
M  V30 6379 N 577.559 1.0018 6.94916 0
M  V30 6380 H 582.399 1.60603 2.51019 0
M  V30 6381 H 579.936 0.802664 1.23271 0
M  V30 6382 H 581.894 -0.241112 4.16503 0
M  V30 6383 H 580.524 -0.744788 3.1409 0
M  V30 6384 H 579.576 1.65863 3.42335 0
M  V30 6385 H 580.888 1.97533 4.5802 0
M  V30 6386 H 580.042 0.146654 6.06523 0
M  V30 6387 H 578.781 -0.267249 4.86967 0
M  V30 6388 H 577.786 2.02489 5.11154 0
M  V30 6389 H 579.011 2.43149 6.34078 0
M  V30 6390 H 576.957 0.197917 6.55701 0
M  V30 6391 H 576.874 1.73216 7.35889 0
M  V30 6392 H 578.142 0.616523 7.77058 0
M  V30 6393 N 582.371 -1.3172 0.865308 0
M  V30 6394 C 583.62 -1.96145 0.470098 0
M  V30 6395 C 583.933 -1.69182 -0.981674 0
M  V30 6396 O 585.139 -2.27431 -1.48281 0
M  V30 6397 C 583.595 -3.51129 0.789732 0
M  V30 6398 C 583.203 -3.86938 2.25795 0
M  V30 6399 C 584.947 -4.2197 0.462765 0
M  V30 6400 C 582.854 -5.35012 2.52024 0
M  V30 6401 H 581.784 -0.734105 0.172065 0
M  V30 6402 H 584.435 -1.49959 1.05757 0
M  V30 6403 H 582.817 -3.95781 0.131571 0
M  V30 6404 H 583.991 -3.5326 2.95879 0
M  V30 6405 H 582.306 -3.29149 2.55049 0
M  V30 6406 H 584.903 -5.30904 0.636019 0
M  V30 6407 H 585.246 -4.12005 -0.59645 0
M  V30 6408 H 585.779 -3.82936 1.07727 0
M  V30 6409 H 582.518 -5.50008 3.56611 0
M  V30 6410 H 582.038 -5.70058 1.8653 0
M  V30 6411 H 583.717 -6.0222 2.36515 0
M  V30 6412 N 583.85 -0.624285 -1.44708 0
M  V30 6413 C 585.08 -0.132726 -2.06173 0
M  V30 6414 C 585.488 1.19513 -1.46674 0
M  V30 6415 O 584.831 1.74254 -0.581491 0
M  V30 6416 C 584.893 0.0636732 -3.59444 0
M  V30 6417 C 584.557 -1.18496 -4.4137 0
M  V30 6418 C 585.553 -2.10706 -4.75288 0
M  V30 6419 C 583.239 -1.41846 -4.81856 0
M  V30 6420 C 585.233 -3.24582 -5.48567 0
M  V30 6421 C 582.92 -2.5602 -5.54885 0
M  V30 6422 C 583.918 -3.47215 -5.88159 0
M  V30 6423 O 583.606 -4.59399 -6.59703 0
M  V30 6424 H 583.338 -0.0737313 -0.671967 0
M  V30 6425 H 585.892 -0.856789 -1.86677 0
M  V30 6426 H 584.122 0.842809 -3.77404 0
M  V30 6427 H 585.811 0.508924 -4.02697 0
M  V30 6428 H 586.577 -1.93898 -4.44554 0
M  V30 6429 H 582.456 -0.717556 -4.55381 0
M  V30 6430 H 586 -3.95785 -5.74456 0
M  V30 6431 H 581.897 -2.72774 -5.85034 0
M  V30 6432 H 582.665 -4.58293 -6.78166 0
M  V30 6433 N 585.328 1.53329 -0.364422 0
M  V30 6434 C 586.276 2.27212 0.497737 0
M  V30 6435 C 587.27 1.30146 1.08437 0
M  V30 6436 O 588.476 1.47778 1.0277 0
M  V30 6437 H 584.851 0.730329 0.179232 0
M  V30 6438 H 586.822 2.98037 -0.147182 0
M  V30 6439 C 585.571 3.07333 1.6261 0
M  V30 6440 H 584.894 3.81866 1.184 0
M  V30 6441 H 586.334 3.62209 2.20409 0
M  V30 6442 C 584.793 2.18102 2.56775 0
M  V30 6443 O 585.323 1.79104 3.59562 0
M  V30 6444 N 583.529 1.82759 2.25937 0
M  V30 6445 H 583.076 2.14671 1.42387 0
M  V30 6446 H 583.034 1.23342 2.89196 0
M  V30 6447 N 586.806 0.0935595 1.57322 0
M  V30 6448 C 587.753 -0.865935 2.1394 0
M  V30 6449 C 588.723 -1.28083 1.05754 0
M  V30 6450 O 589.908 -1.36285 1.33533 0
M  V30 6451 C 587.048 -2.12023 2.72287 0
M  V30 6452 C 586.161 -1.756 3.94701 0
M  V30 6453 C 585.296 -2.95804 4.41218 0
M  V30 6454 C 584.335 -2.555 5.56225 0
M  V30 6455 N 583.472 -3.68534 5.97601 0
M  V30 6456 H 588.312 -0.376261 2.95615 0
M  V30 6457 H 585.849 -0.174052 1.46067 0
M  V30 6458 H 587.807 -2.85477 3.04235 0
M  V30 6459 H 586.437 -2.58492 1.93343 0
M  V30 6460 H 585.489 -0.921208 3.69077 0
M  V30 6461 H 586.801 -1.41964 4.78171 0
M  V30 6462 H 585.955 -3.77513 4.74941 0
M  V30 6463 H 584.694 -3.32649 3.56645 0
M  V30 6464 H 583.699 -1.72218 5.22131 0
M  V30 6465 H 584.924 -2.19801 6.42545 0
M  V30 6466 H 582.87 -4.051 5.15974 0
M  V30 6467 H 582.787 -3.38737 6.75865 0
M  V30 6468 H 584.055 -4.50757 6.35955 0
M  V30 6469 N 588.284 -1.56567 -0.180126 0
M  V30 6470 C 589.533 -1.80685 -0.896426 0
M  V30 6471 C 589.846 -0.669335 -1.83791 0
M  V30 6472 O 591.052 -0.795209 -2.59593 0
M  V30 6473 C 589.508 -3.20132 -1.6445 0
M  V30 6474 C 589.116 -4.41727 -0.747088 0
M  V30 6475 C 590.86 -3.53549 -2.34955 0
M  V30 6476 C 588.767 -5.72195 -1.49489 0
M  V30 6477 H 587.697 -0.673758 -0.338477 0
M  V30 6478 H 590.348 -1.8289 -0.149467 0
M  V30 6479 H 588.73 -3.12218 -2.43589 0
M  V30 6480 H 589.904 -4.608 0.00671129 0
M  V30 6481 H 588.219 -4.16122 -0.152134 0
M  V30 6482 H 590.816 -4.48267 -2.91481 0
M  V30 6483 H 591.159 -2.78006 -3.09868 0
M  V30 6484 H 591.692 -3.62976 -1.62768 0
M  V30 6485 H 588.431 -6.50743 -0.788251 0
M  V30 6486 H 587.951 -5.57115 -2.22224 0
M  V30 6487 H 589.63 -6.1384 -2.04472 0
M  V30 6488 N 589.762 0.448376 -1.51087 0
M  V30 6489 C 590.695 1.56298 -1.66272 0
M  V30 6490 C 591.673 1.54381 -0.510419 0
M  V30 6491 O 592.857 1.73671 -0.732854 0
M  V30 6492 C 589.984 2.94883 -1.66618 0
M  V30 6493 C 589.03 3.14868 -2.87681 0
M  V30 6494 S 589.863 2.9234 -4.48662 0
M  V30 6495 C 591.019 4.33227 -4.51735 0
M  V30 6496 H 591.252 1.43182 -2.6055 0
M  V30 6497 H 588.785 0.637309 -1.40633 0
M  V30 6498 H 590.743 3.74771 -1.67502 0
M  V30 6499 H 589.404 3.05371 -0.735358 0
M  V30 6500 H 588.597 4.16166 -2.84292 0
M  V30 6501 H 588.199 2.42788 -2.84482 0
M  V30 6502 H 590.491 5.26247 -4.26697 0
M  V30 6503 H 591.434 4.41653 -5.53487 0
M  V30 6504 H 591.842 4.16367 -3.81181 0
M  V30 6505 N 591.24 1.41047 0.703093 0
M  V30 6506 C 592.19 1.38774 1.80903 0
M  V30 6507 C 593.174 0.263275 1.58731 0
M  V30 6508 O 594.366 0.503362 1.69692 0
M  V30 6509 C 591.495 1.26497 3.19145 0
M  V30 6510 C 590.581 2.43775 3.47037 0
M  V30 6511 N 590.972 3.69249 3.45672 0
M  V30 6512 C 589.27 2.37425 3.77552 0
M  V30 6513 C 589.971 4.46989 3.72258 0
M  V30 6514 N 588.947 3.76998 3.91629 0
M  V30 6515 H 592.749 2.33714 1.78199 0
M  V30 6516 H 590.263 1.34996 0.902762 0
M  V30 6517 H 592.26 1.2295 3.98358 0
M  V30 6518 H 590.92 0.32534 3.23066 0
M  V30 6519 H 591.931 4.02239 3.26228 0
M  V30 6520 H 588.608 1.51895 3.88888 0
M  V30 6521 H 589.998 5.55894 3.77402 0
M  V30 6522 N 592.718 -0.936591 1.26751 0
M  V30 6523 C 593.648 -2.05315 1.11212 0
M  V30 6524 C 594.629 -1.70092 0.0160262 0
M  V30 6525 O 595.814 -1.93279 0.188894 0
M  V30 6526 C 592.944 -3.39123 0.749171 0
M  V30 6527 C 591.898 -3.88425 1.79751 0
M  V30 6528 C 591.224 -5.18936 1.28876 0
M  V30 6529 C 592.524 -4.12798 3.19992 0
M  V30 6530 H 594.218 -2.18573 2.04613 0
M  V30 6531 H 591.764 -1.05027 0.985159 0
M  V30 6532 H 593.717 -4.16704 0.627323 0
M  V30 6533 H 592.441 -3.25855 -0.220543 0
M  V30 6534 H 591.1 -3.13028 1.90811 0
M  V30 6535 H 590.748 -5.02051 0.308757 0
M  V30 6536 H 590.448 -5.52892 1.98958 0
M  V30 6537 H 591.972 -5.99096 1.17967 0
M  V30 6538 H 593.386 -4.80977 3.11983 0
M  V30 6539 H 591.783 -4.58044 3.87705 0
M  V30 6540 H 592.853 -3.18412 3.65707 0
M  V30 6541 N 594.196 -1.08629 -1.14182 0
M  V30 6542 C 595.421 -0.83902 -1.89671 0
M  V30 6543 C 595.846 0.603332 -1.78161 0
M  V30 6544 O 595.204 1.42301 -1.12339 0
M  V30 6545 C 595.252 -1.26854 -3.37551 0
M  V30 6546 O 594.356 -0.42188 -4.10236 0
M  V30 6547 H 593.697 -0.304545 -0.590041 0
M  V30 6548 H 596.227 -1.4483 -1.44518 0
M  V30 6549 H 596.237 -1.25038 -3.88368 0
M  V30 6550 H 594.912 -2.31901 -3.45246 0
M  V30 6551 H 593.489 -0.503654 -3.69483 0
M  V30 6552 N 595.674 1.31259 -0.872281 0
M  V30 6553 C 596.902 2.00795 -0.498907 0
M  V30 6554 C 597.317 1.65464 0.909238 0
M  V30 6555 O 596.674 0.885073 1.59602 0
M  V30 6556 C 596.725 3.55625 -0.649092 0
M  V30 6557 O 596.446 3.89692 -2.00179 0
M  V30 6558 C 597.947 4.42434 -0.277034 0
M  V30 6559 H 595.167 0.642299 -0.194145 0
M  V30 6560 H 597.711 1.67438 -1.17408 0
M  V30 6561 H 595.866 3.87394 -0.0214402 0
M  V30 6562 H 596.28 4.84407 -2.01122 0
M  V30 6563 H 597.754 5.50299 -0.433064 0
M  V30 6564 H 598.231 4.32146 0.783989 0
M  V30 6565 H 598.837 4.16086 -0.880483 0
M  V30 6566 N 597.152 0.631951 1.44375 0
M  V30 6567 C 598.377 0.142146 2.06912 0
M  V30 6568 C 598.802 -1.17456 1.4692 0
M  V30 6569 O 598.16 -1.72074 0.570975 0
M  V30 6570 C 598.208 0.0417952 3.60576 0
M  V30 6571 O 597.312 -1.00194 4.00044 0
M  V30 6572 H 596.653 0.0851491 0.658518 0
M  V30 6573 H 599.183 0.868863 1.85235 0
M  V30 6574 H 599.193 -0.148517 4.0773 0
M  V30 6575 H 597.868 1.0031 4.03622 0
M  V30 6576 H 596.445 -0.786131 3.64519 0
M  V30 6577 N 598.631 -1.53133 0.372548 0
M  V30 6578 C 599.579 -2.27473 -0.485681 0
M  V30 6579 C 600.573 -1.30719 -1.07745 0
M  V30 6580 O 601.779 -1.48321 -1.01985 0
M  V30 6581 H 598.154 -0.731269 -0.175356 0
M  V30 6582 H 600.125 -2.97955 0.162986 0
M  V30 6583 C 598.874 -3.08191 -1.60978 0
M  V30 6584 H 598.197 -3.82488 -1.16373 0
M  V30 6585 H 599.637 -3.63373 -2.18485 0
M  V30 6586 C 598.096 -2.19461 -2.55614 0
M  V30 6587 O 598.626 -1.81008 -3.58607 0
M  V30 6588 N 596.832 -1.83955 -2.24965 0
M  V30 6589 H 596.379 -2.15423 -1.41247 0
M  V30 6590 H 596.337 -1.24874 -2.88538 0
M  V30 6591 N 600.109 -0.101901 -1.5727 0
M  V30 6592 C 601.039 0.851544 -2.17419 0
M  V30 6593 C 602.02 1.28942 -1.10941 0
M  V30 6594 O 603.205 1.35509 -1.39107 0
M  V30 6595 C 600.335 2.10816 -2.75996 0
M  V30 6596 C 599.289 1.80867 -3.87906 0
M  V30 6597 C 598.615 3.13413 -4.33216 0
M  V30 6598 C 599.915 1.0903 -5.10793 0
M  V30 6599 H 601.609 0.350381 -2.97343 0
M  V30 6600 H 599.155 0.16709 -1.43027 0
M  V30 6601 H 601.108 2.77959 -3.16729 0
M  V30 6602 H 599.832 2.63227 -1.93337 0
M  V30 6603 H 598.491 1.16119 -3.47724 0
M  V30 6604 H 598.139 3.63725 -3.47438 0
M  V30 6605 H 597.839 2.94155 -5.08671 0
M  V30 6606 H 599.363 3.81704 -4.76586 0
M  V30 6607 H 600.777 1.66295 -5.48652 0
M  V30 6608 H 599.174 0.99927 -5.91722 0
M  V30 6609 H 600.244 0.0741704 -4.84843 0
M  V30 6610 N 601.587 1.56661 0.17182 0
M  V30 6611 C 602.812 1.86459 0.908165 0
M  V30 6612 C 603.237 0.688181 1.75059 0
M  V30 6613 O 602.595 -0.362753 1.77634 0
M  V30 6614 C 602.643 3.14669 1.76112 0
M  V30 6615 O 601.747 2.96858 2.86268 0
M  V30 6616 H 601.088 0.613318 0.254434 0
M  V30 6617 H 603.618 2.03892 0.170113 0
M  V30 6618 H 603.628 3.46061 2.16115 0
M  V30 6619 H 602.303 3.99905 1.14233 0
M  V30 6620 H 600.88 2.76819 2.49852 0
M  V30 6621 N 603.065 -0.440357 1.51323 0
M  V30 6622 C 603.998 -1.55414 1.67098 0
M  V30 6623 C 604.976 -1.54108 0.518599 0
M  V30 6624 O 606.16 -1.7328 0.742054 0
M  V30 6625 C 603.287 -2.93996 1.68179 0
M  V30 6626 C 602.333 -3.13338 2.89347 0
M  V30 6627 S 603.166 -2.89957 4.50206 0
M  V30 6628 C 604.322 -4.30826 4.54027 0
M  V30 6629 H 604.555 -1.41798 2.61306 0
M  V30 6630 H 602.088 -0.629841 1.40969 0
M  V30 6631 H 604.046 -3.73878 1.69487 0
M  V30 6632 H 602.707 -3.04976 0.751542 0
M  V30 6633 H 601.9 -4.14652 2.86495 0
M  V30 6634 H 601.502 -2.41276 2.85766 0
M  V30 6635 H 603.794 -5.23977 4.29481 0
M  V30 6636 H 604.737 -4.38712 5.55822 0
M  V30 6637 H 605.145 -4.1434 3.83384 0
M  V30 6638 N 604.543 -1.41418 -0.695603 0
M  V30 6639 C 605.791 -1.40496 -1.45277 0
M  V30 6640 C 606.112 -0.0149538 -1.94994 0
M  V30 6641 O 605.382 0.9432 -1.71699 0
M  V30 6642 H 603.962 -0.517147 -0.539044 0
M  V30 6643 H 606.624 -1.76656 -0.823321 0
M  V30 6644 H 605.72 -2.09214 -2.31595 0
M  V30 6645 N 606.021 0.929856 -1.27246 0
M  V30 6646 C 606.931 2.0636 -1.11592 0
M  V30 6647 C 607.947 1.73938 -0.046496 0
M  V30 6648 O 609.123 1.9981 -0.252544 0
M  V30 6649 C 606.188 3.38213 -0.762437 0
M  V30 6650 C 605.249 3.84346 -1.9125 0
M  V30 6651 C 604.482 5.09906 -1.57579 0
M  V30 6652 O 604.705 5.68354 -0.482694 0
M  V30 6653 O 603.639 5.51359 -2.41426 0
M  V30 6654 H 607.465 2.22478 -2.0673 0
M  V30 6655 H 605.05 1.04865 -1.06413 0
M  V30 6656 H 606.932 4.1741 -0.57854 0
M  V30 6657 H 605.607 3.23307 0.159439 0
M  V30 6658 H 604.514 3.06045 -2.15144 0
M  V30 6659 H 605.847 4.0379 -2.81451 0
M  V30 6660 N 607.499 1.09233 1.13605 0
M  V30 6661 C 608.432 0.6739 2.18023 0
M  V30 6662 C 609.41 -0.318603 1.59448 0
M  V30 6663 O 610.594 -0.220452 1.87206 0
M  V30 6664 C 607.721 -0.00751458 3.38699 0
M  V30 6665 C 606.767 0.946481 4.15865 0
M  V30 6666 S 607.6 2.45753 4.75779 0
M  V30 6667 C 608.756 1.78846 5.99804 0
M  V30 6668 H 608.989 1.55846 2.53178 0
M  V30 6669 H 606.522 0.908118 1.2487 0
M  V30 6670 H 608.48 -0.394368 4.08601 0
M  V30 6671 H 607.141 -0.868693 3.01849 0
M  V30 6672 H 606.334 0.416742 5.02274 0
M  V30 6673 H 605.936 1.27464 3.51609 0
M  V30 6674 H 608.228 1.11135 6.68323 0
M  V30 6675 H 609.171 2.63163 6.57382 0
M  V30 6676 H 609.579 1.25823 5.50299 0
M  V30 6677 N 608.977 -1.30795 0.87923 0
M  V30 6678 C 610.205 -2.00527 0.509548 0
M  V30 6679 C 610.62 -1.65944 -0.90045 0
M  V30 6680 O 609.977 -0.893525 -1.5913 0
M  V30 6681 C 610.028 -3.55276 0.667943 0
M  V30 6682 O 609.749 -3.88625 2.02242 0
M  V30 6683 C 611.25 -4.4228 0.300494 0
M  V30 6684 H 608.47 -0.641261 0.197549 0
M  V30 6685 H 611.014 -1.66813 1.18295 0
M  V30 6686 H 609.169 -3.87377 0.0419843 0
M  V30 6687 H 609.583 -4.83334 2.03688 0
M  V30 6688 H 611.057 -5.50061 0.462242 0
M  V30 6689 H 611.534 -4.32556 -0.76106 0
M  V30 6690 H 612.14 -4.15613 0.902536 0
M  V30 6691 N 610.455 -0.639598 -1.44038 0
M  V30 6692 C 611.418 0.0506628 -2.29144 0
M  V30 6693 C 612.418 0.764001 -1.41491 0
M  V30 6694 O 613.608 0.607309 -1.63271 0
M  V30 6695 C 610.74 1.0824 -3.2326 0
M  V30 6696 H 611.933 -0.697987 -2.91664 0
M  V30 6697 H 609.486 -0.400146 -1.51091 0
M  V30 6698 H 610.221 1.86075 -2.65606 0
M  V30 6699 H 610.006 0.574725 -3.87865 0
M  V30 6700 H 611.496 1.56487 -3.87171 0
M  V30 6701 N 611.933 1.52934 -0.380664 0
M  V30 6702 C 613.181 2.01069 0.203874 0
M  V30 6703 C 613.502 1.26922 1.4804 0
M  V30 6704 O 612.772 0.386787 1.92044 0
M  V30 6705 H 611.352 0.742882 0.0783279 0
M  V30 6706 H 614.014 1.88099 -0.510368 0
M  V30 6707 H 613.11 3.09258 0.42021 0
M  V30 6708 N 613.412 0.11024 1.57214 0
M  V30 6709 C 614.344 -0.873497 2.11902 0
M  V30 6710 C 615.357 -1.23588 1.05971 0
M  V30 6711 O 616.546 -1.18636 1.33371 0
M  V30 6712 C 613.646 -2.17805 2.59643 0
M  V30 6713 C 612.819 -1.98869 3.89576 0
M  V30 6714 C 611.878 -3.12974 4.23006 0
M  V30 6715 O 610.904 -2.86272 4.91973 0
M  V30 6716 N 612.106 -4.39167 3.79622 0
M  V30 6717 H 614.871 -0.406317 2.96933 0
M  V30 6718 H 612.432 -0.074437 1.61729 0
M  V30 6719 H 614.424 -2.93117 2.79042 0
M  V30 6720 H 612.994 -2.55899 1.7954 0
M  V30 6721 H 612.214 -1.078 3.79174 0
M  V30 6722 H 613.502 -1.83512 4.74553 0
M  V30 6723 H 612.9 -4.63739 3.2398 0
M  V30 6724 H 611.457 -5.11379 4.04147 0
M  V30 6725 N 614.89 -1.56749 -0.16351 0
M  V30 6726 C 616.139 -1.81626 -0.877211 0
M  V30 6727 C 616.452 -0.688791 -1.83071 0
M  V30 6728 O 617.658 -0.822697 -2.58735 0
M  V30 6729 C 616.114 -3.21858 -1.61045 0
M  V30 6730 C 615.722 -4.42494 -0.700195 0
M  V30 6731 C 617.466 -3.56021 -2.31192 0
M  V30 6732 C 615.373 -5.73748 -1.43412 0
M  V30 6733 H 614.303 -0.67731 -0.331312 0
M  V30 6734 H 616.954 -1.83039 -0.13006 0
M  V30 6735 H 615.336 -3.14784 -2.40264 0
M  V30 6736 H 616.51 -4.60766 0.0555849 0
M  V30 6737 H 614.825 -4.1626 -0.10799 0
M  V30 6738 H 617.422 -4.51333 -2.8671 0
M  V30 6739 H 617.765 -2.81277 -3.06902 0
M  V30 6740 H 618.298 -3.64682 -1.58909 0
M  V30 6741 H 615.037 -6.51543 -0.719186 0
M  V30 6742 H 614.557 -5.5944 -2.16302 0
M  V30 6743 H 616.236 -6.15975 -1.9795 0
M  V30 6744 N 616.368 0.432326 -1.51554 0
M  V30 6745 C 617.608 1.19076 -1.66133 0
M  V30 6746 C 617.972 1.88364 -0.371873 0
M  V30 6747 O 619.173 2.65904 -0.39349 0
M  V30 6748 C 617.444 2.1768 -2.83461 0
M  V30 6749 S 619.003 3.01943 -3.18396 0
M  V30 6750 H 615.821 0.403735 -0.585251 0
M  V30 6751 H 618.423 0.481554 -1.89476 0
M  V30 6752 H 617.127 1.65424 -3.75583 0
M  V30 6753 H 616.658 2.93174 -2.62322 0
M  V30 6754 H 618.673 4.19373 -2.65219 0
M  V30 6755 N 617.846 1.41785 0.688094 0
M  V30 6756 C 618.794 1.44436 1.82321 0
M  V30 6757 C 619.788 0.321544 1.6632 0
M  V30 6758 O 620.994 0.493931 1.73091 0
M  V30 6759 H 617.369 0.452084 0.600936 0
M  V30 6760 H 619.34 2.40087 1.77202 0
M  V30 6761 C 618.089 1.35071 3.20392 0
M  V30 6762 H 617.412 2.2076 3.33324 0
M  V30 6763 H 618.852 1.40988 3.99873 0
M  V30 6764 C 617.311 0.0639127 3.36839 0
M  V30 6765 O 617.841 -0.888495 3.91751 0
M  V30 6766 N 616.047 -0.0146114 2.90596 0
M  V30 6767 H 615.594 0.761191 2.46097 0
M  V30 6768 H 615.552 -0.874988 3.01979 0
M  V30 6769 N 619.324 -0.923095 1.27737 0
M  V30 6770 C 620.254 -2.04124 1.13383 0
M  V30 6771 C 621.235 -1.70066 0.0340658 0
M  V30 6772 O 622.42 -1.93068 0.209383 0
M  V30 6773 C 619.55 -3.3831 0.785097 0
M  V30 6774 C 618.504 -3.86496 1.8386 0
M  V30 6775 C 617.83 -5.1754 1.34373 0
M  V30 6776 C 619.13 -4.09381 3.24353 0
M  V30 6777 H 620.824 -2.1639 2.06919 0
M  V30 6778 H 618.37 -1.03976 0.996243 0
M  V30 6779 H 620.323 -4.16016 0.671485 0
M  V30 6780 H 619.047 -3.2607 -0.185969 0
M  V30 6781 H 617.706 -3.10987 1.9412 0
M  V30 6782 H 617.354 -5.01696 0.361989 0
M  V30 6783 H 617.054 -5.50751 2.04811 0
M  V30 6784 H 618.578 -5.97811 1.24315 0
M  V30 6785 H 619.992 -4.77641 3.17067 0
M  V30 6786 H 618.389 -4.53906 3.92542 0
M  V30 6787 H 619.459 -3.14515 3.69064 0
M  V30 6788 N 620.802 -1.09834 -1.13024 0
M  V30 6789 C 622.048 -0.83819 -1.84668 0
M  V30 6790 C 622.381 0.634645 -1.83537 0
M  V30 6791 O 621.656 1.46753 -1.27647 0
M  V30 6792 C 621.939 -1.37933 -3.32636 0
M  V30 6793 C 621.792 -2.91857 -3.42257 0
M  V30 6794 C 623.111 -1.01654 -4.28199 0
M  V30 6795 H 620.23 -0.30595 -0.670495 0
M  V30 6796 H 622.872 -1.36044 -1.32635 0
M  V30 6797 H 621.022 -0.935111 -3.77078 0
M  V30 6798 H 622.694 -3.44759 -3.06495 0
M  V30 6799 H 620.937 -3.28776 -2.83 0
M  V30 6800 H 621.608 -3.24799 -4.46329 0
M  V30 6801 H 624.084 -1.39973 -3.9185 0
M  V30 6802 H 622.96 -1.42217 -5.30156 0
M  V30 6803 H 623.221 0.0747794 -4.42037 0
M  V30 6804 N 622.28 1.30327 -0.886154 0
M  V30 6805 C 623.243 2.26376 -0.358687 0
M  V30 6806 C 624.243 1.52845 0.499498 0
M  V30 6807 O 625.433 1.71483 0.306485 0
M  V30 6808 C 622.565 3.37379 0.488726 0
M  V30 6809 H 623.758 2.74547 -1.20681 0
M  V30 6810 H 621.311 1.41536 -0.663113 0
M  V30 6811 H 622.046 2.94526 1.35739 0
M  V30 6812 H 621.831 3.91897 -0.126003 0
M  V30 6813 H 623.321 4.08868 0.84952 0
M  V30 6814 N 623.758 0.647228 1.43697 0
M  V30 6815 C 625.007 0.155552 2.01099 0
M  V30 6816 C 625.32 -1.23569 1.51624 0
M  V30 6817 O 626.526 -1.82226 2.01261 0
M  V30 6818 C 624.982 0.227296 3.59182 0
M  V30 6819 C 624.59 1.62086 4.17651 0
M  V30 6820 C 626.334 -0.207085 4.23995 0
M  V30 6821 C 624.241 1.64685 5.68008 0
M  V30 6822 H 623.171 0.0543895 0.752036 0
M  V30 6823 H 625.822 0.808386 1.64734 0
M  V30 6824 H 624.204 -0.492937 3.9292 0
M  V30 6825 H 625.378 2.36597 3.95422 0
M  V30 6826 H 623.693 2.0007 3.65186 0
M  V30 6827 H 626.29 -0.207426 5.34298 0
M  V30 6828 H 626.633 -1.23742 3.97484 0
M  V30 6829 H 627.166 0.461193 3.95118 0
M  V30 6830 H 623.905 2.65608 5.99277 0
M  V30 6831 H 623.425 0.944914 5.9231 0
M  V30 6832 H 625.104 1.38792 6.31938 0
M  V30 6833 N 625.236 -1.5273 0.388769 0
M  V30 6834 C 626.513 -1.93981 -0.251133 0
M  V30 6835 C 626.893 -1.32418 -1.64404 0
M  V30 6836 O 626.241 -0.492074 -2.23139 0
M  V30 6837 C 626.451 -3.47891 -0.27802 0
M  V30 6838 C 627.799 -4.21559 -0.507229 0
M  V30 6839 O 628.823 -3.54394 -0.358252 0
M  V30 6840 O 627.682 -5.40626 -0.799094 0
M  V30 6841 H 624.776 -0.812157 -0.15598 0
M  V30 6842 H 627.322 -1.63809 0.443237 0
M  V30 6843 H 626.094 -3.8503 0.697669 0
M  V30 6844 H 625.717 -3.84364 -1.01733 0
M  V30 6845 N 626.714 -0.118576 -1.57153 0
M  V30 6846 C 627.942 0.54726 -1.99531 0
M  V30 6847 C 628.357 1.60251 -0.998246 0
M  V30 6848 O 627.714 1.82498 0.00893106 0
M  V30 6849 C 627.765 1.17378 -3.41913 0
M  V30 6850 O 627.486 0.160703 -4.37805 0
M  V30 6851 C 628.987 1.92297 -3.9942 0
M  V30 6852 H 626.207 0.144919 -0.655164 0
M  V30 6853 H 628.751 -0.20479 -2.03472 0
M  V30 6854 H 626.906 1.87661 -3.38913 0
M  V30 6855 H 627.32 0.61586 -5.20872 0
M  V30 6856 H 628.794 2.31462 -5.01128 0
M  V30 6857 H 629.271 2.79801 -3.38538 0
M  V30 6858 H 629.877 1.26777 -4.05965 0
M  V30 6859 N 628.193 1.56834 0.155195 0
M  V30 6860 C 629.141 1.98584 1.21107 0
M  V30 6861 C 630.135 0.876987 1.44932 0
M  V30 6862 O 631.341 1.06215 1.45322 0
M  V30 6863 H 627.716 0.632039 0.407469 0
M  V30 6864 H 629.687 2.86561 0.832195 0
M  V30 6865 C 628.436 2.37555 2.53895 0
M  V30 6866 H 627.759 3.22428 2.3639 0
M  V30 6867 H 629.199 2.70598 3.26424 0
M  V30 6868 C 627.658 1.22507 3.13837 0
M  V30 6869 O 628.188 0.521388 3.98302 0
M  V30 6870 N 626.394 0.991444 2.73164 0
M  V30 6871 H 625.941 1.56544 2.04577 0
M  V30 6872 H 625.899 0.223546 3.13604 0
M  V30 6873 N 629.671 -0.424282 1.51781 0
M  V30 6874 C 630.603 -1.53457 1.70246 0
M  V30 6875 C 631.616 -1.52004 0.582967 0
M  V30 6876 O 632.805 -1.56544 0.857683 0
M  V30 6877 C 629.905 -2.92368 1.71389 0
M  V30 6878 C 629.078 -3.1818 3.00133 0
M  V30 6879 C 628.137 -4.36884 2.9329 0
M  V30 6880 O 627.163 -4.34901 3.67219 0
M  V30 6881 N 628.365 -5.4117 2.10036 0
M  V30 6882 H 631.13 -1.38017 2.66029 0
M  V30 6883 H 628.691 -0.613394 1.4983 0
M  V30 6884 H 630.683 -3.6982 1.64362 0
M  V30 6885 H 629.253 -3.0134 0.831449 0
M  V30 6886 H 628.473 -2.28908 3.20928 0
M  V30 6887 H 629.761 -3.32261 3.85331 0
M  V30 6888 H 629.159 -5.45623 1.49373 0
M  V30 6889 H 627.716 -6.17425 2.08878 0
M  V30 6890 N 631.149 -1.42148 -0.680565 0
M  V30 6891 C 632.079 -1.4796 -1.80638 0
M  V30 6892 C 633.06 -0.336728 -1.66734 0
M  V30 6893 O 634.245 -0.550247 -1.86242 0
M  V30 6894 C 631.375 -1.37569 -3.18892 0
M  V30 6895 C 630.329 -2.49823 -3.47524 0
M  V30 6896 C 629.655 -2.24491 -4.85291 0
M  V30 6897 C 630.955 -3.92144 -3.44994 0
M  V30 6898 H 632.649 -2.42184 -1.76032 0
M  V30 6899 H 630.195 -1.16566 -0.845481 0
M  V30 6900 H 632.148 -1.40243 -3.97379 0
M  V30 6901 H 630.872 -0.398357 -3.24162 0
M  V30 6902 H 629.531 -2.46455 -2.71395 0
M  V30 6903 H 629.179 -1.25066 -4.87204 0
M  V30 6904 H 628.879 -2.99722 -5.05411 0
M  V30 6905 H 630.403 -2.28906 -5.66069 0
M  V30 6906 H 631.817 -3.97145 -4.13459 0
M  V30 6907 H 630.214 -4.67179 -3.76648 0
M  V30 6908 H 631.284 -4.19225 -2.43676 0
M  V30 6909 N 632.627 0.916307 -1.28225 0
M  V30 6910 C 633.56 2.01954 -1.06254 0
M  V30 6911 C 634.538 1.62587 0.0205983 0
M  V30 6912 O 635.722 1.88073 -0.126824 0
M  V30 6913 C 632.849 3.33086 -0.614141 0
M  V30 6914 C 631.895 3.91435 -1.69354 0
M  V30 6915 S 632.728 4.22603 -3.28887 0
M  V30 6916 C 633.884 5.568 -2.85876 0
M  V30 6917 H 634.117 2.20281 -1.99659 0
M  V30 6918 H 631.65 1.06085 -1.12184 0
M  V30 6919 H 633.608 4.089 -0.36213 0
M  V30 6920 H 632.269 3.12664 0.300036 0
M  V30 6921 H 631.462 4.86098 -1.33136 0
M  V30 6922 H 631.064 3.22248 -1.89821 0
M  V30 6923 H 633.356 6.3658 -2.31888 0
M  V30 6924 H 634.299 5.97927 -3.79326 0
M  V30 6925 H 634.707 5.17865 -2.24669 0
M  V30 6926 N 634.105 1.10431 1.1244 0
M  V30 6927 C 635.351 0.857864 1.84424 0
M  V30 6928 C 635.706 -0.609995 1.82474 0
M  V30 6929 O 634.999 -1.44401 1.25932 0
M  V30 6930 C 635.193 1.34022 3.3132 0
M  V30 6931 C 635.022 2.85344 3.47576 0
M  V30 6932 C 633.792 3.53345 3.61213 0
M  V30 6933 C 635.99 3.83446 3.42744 0
M  V30 6934 N 633.972 4.92989 3.65834 0
M  V30 6935 C 635.343 5.09101 3.5386 0
M  V30 6936 C 637.398 3.76154 3.26209 0
M  V30 6937 C 636.101 6.28323 3.50146 0
M  V30 6938 C 638.127 4.94876 3.23809 0
M  V30 6939 C 637.489 6.19378 3.35485 0
M  V30 6940 H 633.588 0.366917 0.690577 0
M  V30 6941 H 636.172 1.40668 1.34613 0
M  V30 6942 H 634.343 0.818727 3.79673 0
M  V30 6943 H 636.075 1.03801 3.91162 0
M  V30 6944 H 632.83 3.03791 3.63329 0
M  V30 6945 H 633.254 5.65762 3.71809 0
M  V30 6946 H 637.896 2.80813 3.16076 0
M  V30 6947 H 635.614 7.23953 3.5905 0
M  V30 6948 H 639.2 4.90942 3.12197 0
M  V30 6949 H 638.08 7.09704 3.33602 0
M  V30 6950 N 635.583 -1.29855 0.893053 0
M  V30 6951 C 636.83 -1.95826 0.515585 0
M  V30 6952 C 637.158 -1.70451 -0.936842 0
M  V30 6953 O 636.413 -1.00657 -1.67829 0
M  V30 6954 C 636.712 -3.49515 0.746588 0
M  V30 6955 C 636.378 -3.94955 2.17535 0
M  V30 6956 C 635.04 -4.07073 2.56603 0
M  V30 6957 C 637.392 -4.18536 3.10607 0
M  V30 6958 C 634.72 -4.40138 3.87938 0
M  V30 6959 C 637.072 -4.53073 4.41484 0
M  V30 6960 C 635.736 -4.634 4.80434 0
M  V30 6961 H 635.006 -0.71658 0.188666 0
M  V30 6962 H 637.653 -1.54574 1.13045 0
M  V30 6963 H 635.958 -3.9177 0.0487551 0
M  V30 6964 H 637.655 -3.98644 0.434009 0
M  V30 6965 H 634.245 -3.86035 1.86212 0
M  V30 6966 H 638.429 -4.08646 2.81641 0
M  V30 6967 H 633.685 -4.46335 4.17846 0
M  V30 6968 H 637.859 -4.70269 5.13634 0
M  V30 6969 H 635.486 -4.88775 5.82239 0
M  V30 6970 N 637.061 -0.65484 -1.43351 0
M  V30 6971 C 638.308 -0.168892 -2.01794 0
M  V30 6972 C 638.636 1.2177 -1.51665 0
M  V30 6973 O 637.891 1.82717 -0.70092 0
M  V30 6974 C 638.19 -0.130424 -3.57162 0
M  V30 6975 C 637.856 -1.45898 -4.26643 0
M  V30 6976 C 636.518 -1.82279 -4.4534 0
M  V30 6977 C 638.87 -2.33485 -4.65976 0
M  V30 6978 C 636.198 -3.0591 -5.00635 0
M  V30 6979 C 638.55 -3.5641 -5.22642 0
M  V30 6980 C 637.214 -3.92985 -5.39555 0
M  V30 6981 H 636.484 -0.061802 -0.738418 0
M  V30 6982 H 639.131 -0.845869 -1.71806 0
M  V30 6983 H 637.436 0.630008 -3.86702 0
M  V30 6984 H 639.133 0.262465 -4.0014 0
M  V30 6985 H 635.723 -1.16591 -4.12437 0
M  V30 6986 H 639.907 -2.06668 -4.51223 0
M  V30 6987 H 635.163 -3.34295 -5.11915 0
M  V30 6988 H 639.337 -4.24495 -5.52066 0
M  V30 6989 H 636.964 -4.88862 -5.82167 0
M  V30 6990 N 638.539 1.52521 -0.396863 0
M  V30 6991 C 639.786 2.01672 0.182898 0
M  V30 6992 C 640.114 1.28302 1.46181 0
M  V30 6993 O 639.369 0.374118 1.92091 0
M  V30 6994 C 639.668 3.5403 0.489677 0
M  V30 6995 C 639.334 4.45456 -0.698581 0
M  V30 6996 C 637.996 4.70166 -1.02454 0
M  V30 6997 C 640.348 4.99354 -1.49316 0
M  V30 6998 C 637.676 5.46024 -2.1465 0
M  V30 6999 C 640.028 5.76439 -2.60579 0
M  V30 7000 C 638.692 5.99426 -2.93675 0
M  V30 7001 H 637.962 0.737971 0.066927 0
M  V30 7002 H 640.609 1.83853 -0.535764 0
M  V30 7003 H 638.914 3.69963 1.28976 0
M  V30 7004 H 640.611 3.8956 0.951018 0
M  V30 7005 H 637.201 4.26392 -0.434525 0
M  V30 7006 H 641.385 4.80182 -1.25457 0
M  V30 7007 H 636.641 5.62046 -2.40654 0
M  V30 7008 H 640.815 6.17202 -3.22544 0
M  V30 7009 H 638.442 6.57988 -3.80731 0
M  V30 7010 N 640.017 0.126909 1.57088 0
M  V30 7011 C 640.947 -0.816847 2.18746 0
M  V30 7012 C 641.928 -1.27161 1.12979 0
M  V30 7013 O 643.113 -1.33279 1.41246 0
M  V30 7014 C 640.243 -2.06398 2.79315 0
M  V30 7015 C 639.197 -1.74673 3.90735 0
M  V30 7016 C 638.523 -3.06482 4.38147 0
M  V30 7017 C 639.823 -1.0089 5.12463 0
M  V30 7018 H 641.517 -0.303032 2.97863 0
M  V30 7019 H 639.063 -0.144314 1.43275 0
M  V30 7020 H 641.016 -2.72885 3.2111 0
M  V30 7021 H 639.74 -2.60118 1.975 0
M  V30 7022 H 638.399 -1.10572 3.49527 0
M  V30 7023 H 638.047 -3.58152 3.5318 0
M  V30 7024 H 637.747 -2.86025 5.13287 0
M  V30 7025 H 639.271 -3.74073 4.82599 0
M  V30 7026 H 640.685 -1.57546 5.51228 0
M  V30 7027 H 639.082 -0.905006 5.93237 0
M  V30 7028 H 640.152 0.00297335 4.849 0
M  V30 7029 N 641.495 -1.56914 -0.146875 0
M  V30 7030 C 642.735 -1.85163 -0.86568 0
M  V30 7031 C 643.099 -0.711215 -1.78342 0
M  V30 7032 O 644.3 -0.874754 -2.54168 0
M  V30 7033 C 642.571 -3.18593 -1.61967 0
M  V30 7034 S 644.13 -3.68397 -2.38388 0
M  V30 7035 H 640.948 -0.6494 -0.289483 0
M  V30 7036 H 643.55 -1.95096 -0.125679 0
M  V30 7037 H 642.254 -3.99562 -0.93694 0
M  V30 7038 H 641.785 -3.11666 -2.40058 0
M  V30 7039 H 643.8 -3.37672 -3.63582 0
M  V30 7040 N 642.974 0.416227 -1.52004 0
M  V30 7041 C 644.385 0.995319 -1.57957 0
M  V30 7042 C 644.736 1.91744 -0.415754 0
M  V30 7043 O 643.861 2.11349 0.464808 0
M  V30 7044 C 644.456 1.81191 -2.86278 0
M  V30 7045 C 643.015 2.34115 -2.94732 0
M  V30 7046 C 642.162 1.139 -2.52828 0
M  V30 7047 H 645.113 0.196716 -1.57476 0
M  V30 7048 H 645.134 2.66859 -2.71231 0
M  V30 7049 H 644.646 1.14051 -3.70963 0
M  V30 7050 H 642.747 3.04647 -2.14525 0
M  V30 7051 H 642.86 2.65466 -3.98829 0
M  V30 7052 H 641.224 1.49081 -2.06511 0
M  V30 7053 H 642.007 0.483383 -3.3988 0
M  V30 7054 N 644.452 1.42507 0.673017 0
M  V30 7055 C 645.4 1.46362 1.80779 0
M  V30 7056 C 646.394 0.339166 1.6597 0
M  V30 7057 O 647.6 0.512262 1.72557 0
M  V30 7058 H 643.975 0.458433 0.596107 0
M  V30 7059 H 645.946 2.41953 1.74646 0
M  V30 7060 C 644.695 1.38462 3.18941 0
M  V30 7061 H 644.018 2.24283 3.30964 0
M  V30 7062 H 645.458 1.45221 3.98355 0
M  V30 7063 C 643.917 0.0996354 3.36753 0
M  V30 7064 O 644.447 -0.846894 3.92671 0
M  V30 7065 N 642.653 0.016211 2.90595 0
M  V30 7066 H 642.2 0.78725 2.45276 0
M  V30 7067 H 642.158 -0.84291 3.0289 0
M  V30 7068 N 645.93 -0.909495 1.28709 0
M  V30 7069 C 646.86 -2.0291 1.15542 0
M  V30 7070 C 647.841 -1.7002 0.0521017 0
M  V30 7071 O 649.026 -1.92835 0.229849 0
M  V30 7072 C 646.156 -3.37458 0.820935 0
M  V30 7073 C 645.11 -3.84524 1.87949 0
M  V30 7074 C 644.436 -5.16086 1.39854 0
M  V30 7075 C 645.736 -4.05918 3.28676 0
M  V30 7076 H 647.43 -2.14183 2.09203 0
M  V30 7077 H 644.976 -1.02913 1.00722 0
M  V30 7078 H 646.929 -4.1528 0.715571 0
M  V30 7079 H 645.653 -3.26249 -0.151374 0
M  V30 7080 H 644.312 -3.08911 1.97408 0
M  V30 7081 H 643.96 -5.01284 0.41518 0
M  V30 7082 H 643.66 -5.48547 2.1064 0
M  V30 7083 H 645.184 -5.96459 1.30649 0
M  V30 7084 H 646.598 -4.74252 3.22115 0
M  V30 7085 H 644.995 -4.49717 3.97334 0
M  V30 7086 H 646.065 -3.10583 3.72379 0
M  V30 7087 N 647.408 -1.11026 -1.11852 0
M  V30 7088 C 648.654 -0.867633 -1.83967 0
M  V30 7089 C 649.009 0.600309 -1.82795 0
M  V30 7090 O 648.302 1.43731 -1.26696 0
M  V30 7091 C 648.496 -1.35777 -3.30604 0
M  V30 7092 C 648.325 -2.87183 -3.46058 0
M  V30 7093 C 647.095 -3.55256 -3.59334 0
M  V30 7094 C 649.293 -3.85258 -3.40706 0
M  V30 7095 N 647.275 -4.94923 -3.63215 0
M  V30 7096 C 648.646 -5.1097 -3.51155 0
M  V30 7097 C 650.701 -3.77879 -3.2421 0
M  V30 7098 C 649.404 -6.30171 -3.46809 0
M  V30 7099 C 651.43 -4.96586 -3.2118 0
M  V30 7100 C 650.792 -6.21149 -3.32196 0
M  V30 7101 H 646.891 -0.370574 -0.688621 0
M  V30 7102 H 649.475 -1.41379 -1.33865 0
M  V30 7103 H 647.646 -0.83885 -3.79233 0
M  V30 7104 H 649.378 -1.05874 -3.90606 0
M  V30 7105 H 646.133 -3.05714 -3.61713 0
M  V30 7106 H 646.557 -5.67726 -3.68804 0
M  V30 7107 H 651.199 -2.82485 -3.14582 0
M  V30 7108 H 648.917 -7.25847 -3.55206 0
M  V30 7109 H 652.503 -4.92591 -3.09589 0
M  V30 7110 H 651.383 -7.11463 -3.29834 0
M  V30 7111 N 648.886 1.2938 -0.899927 0
M  V30 7112 C 649.849 2.25983 -0.382677 0
M  V30 7113 C 650.849 1.53366 0.483259 0
M  V30 7114 O 652.039 1.71798 0.28828 0
M  V30 7115 C 649.171 3.37878 0.452915 0
M  V30 7116 H 650.364 2.73252 -1.23586 0
M  V30 7117 H 647.917 1.40825 -0.678088 0
M  V30 7118 H 648.652 2.95949 1.32608 0
M  V30 7119 H 648.437 3.91742 -0.167562 0
M  V30 7120 H 649.927 4.09746 0.806107 0
M  V30 7121 N 650.364 0.662433 1.43002 0
M  V30 7122 C 651.297 -0.073459 2.28082 0
M  V30 7123 C 652.275 -0.820869 1.40358 0
M  V30 7124 O 653.459 -0.818545 1.698 0
M  V30 7125 C 650.586 -1.11097 3.19961 0
M  V30 7126 C 649.632 -0.460557 4.24006 0
M  V30 7127 S 650.465 0.772717 5.29896 0
M  V30 7128 C 651.621 -0.264028 6.25343 0
M  V30 7129 H 651.854 0.648227 2.90147 0
M  V30 7130 H 649.387 0.451566 1.47649 0
M  V30 7131 H 651.345 -1.70452 3.73439 0
M  V30 7132 H 650.006 -1.80503 2.57056 0
M  V30 7133 H 649.199 -1.24299 4.88432 0
M  V30 7134 H 648.801 0.0591038 3.73953 0
M  V30 7135 H 651.093 -1.12748 6.68052 0
M  V30 7136 H 652.036 0.345443 7.07257 0
M  V30 7137 H 652.444 -0.603964 5.6126 0
M  V30 7138 N 651.842 -1.52309 0.404946 0
M  V30 7139 C 653.253 -1.86585 -0.0655926 0
M  V30 7140 C 653.604 -1.3239 -1.44801 0
M  V30 7141 O 652.729 -0.6615 -2.06042 0
M  V30 7142 C 653.324 -3.38566 -0.125801 0
M  V30 7143 C 651.883 -3.72497 -0.540666 0
M  V30 7144 C 651.03 -2.75806 0.287487 0
M  V30 7145 H 653.981 -1.45995 0.622185 0
M  V30 7146 H 654.002 -3.68658 -0.941888 0
M  V30 7147 H 653.514 -3.77981 0.880473 0
M  V30 7148 H 651.615 -3.38659 -1.55373 0
M  V30 7149 H 651.728 -4.78234 -0.287956 0
M  V30 7150 H 650.092 -2.53474 -0.249561 0
M  V30 7151 H 650.875 -3.18059 1.29203 0
M  V30 7152 N 653.32 -0.135238 -1.57019 0
M  V30 7153 C 654.566 0.519563 -1.96032 0
M  V30 7154 C 654.899 1.65284 -1.01955 0
M  V30 7155 O 654.174 1.94408 -0.059727 0
M  V30 7156 C 654.457 1.0369 -3.44848 0
M  V30 7157 C 654.31 -0.0940754 -4.49702 0
M  V30 7158 C 655.629 1.92254 -3.95887 0
M  V30 7159 H 652.748 0.18739 -0.712779 0
M  V30 7160 H 655.39 -0.214086 -1.8879 0
M  V30 7161 H 653.54 1.66209 -3.5115 0
M  V30 7162 H 655.212 -0.73 -4.55487 0
M  V30 7163 H 653.455 -0.754924 -4.27181 0
M  V30 7164 H 654.126 0.309419 -5.51132 0
M  V30 7165 H 656.602 1.39581 -3.9199 0
M  V30 7166 H 655.478 2.25364 -5.00502 0
M  V30 7167 H 655.739 2.85513 -3.37543 0
M  V30 7168 N 654.798 1.5699 0.138552 0
M  V30 7169 C 655.73 1.95515 1.1961 0
M  V30 7170 C 656.743 0.852002 1.38726 0
M  V30 7171 O 657.932 1.13038 1.38147 0
M  V30 7172 C 655.032 2.2213 2.55952 0
M  V30 7173 C 654.205 3.53424 2.57702 0
M  V30 7174 C 653.264 3.6848 3.75645 0
M  V30 7175 O 652.29 4.4079 3.60129 0
M  V30 7176 N 653.492 3.05777 4.93438 0
M  V30 7177 H 656.257 2.86838 0.868557 0
M  V30 7178 H 653.818 1.58542 0.328033 0
M  V30 7179 H 655.81 2.29435 3.33379 0
M  V30 7180 H 654.38 1.3703 2.80965 0
M  V30 7181 H 653.6 3.57484 1.6613 0
M  V30 7182 H 654.888 4.39759 2.55909 0
M  V30 7183 H 654.286 2.46961 5.08947 0
M  V30 7184 H 652.843 3.18631 5.6861 0
M  V30 7185 N 656.276 -0.40816 1.52223 0
M  V30 7186 C 657.525 -1.15212 1.65557 0
M  V30 7187 C 657.838 -1.9163 0.392096 0
M  V30 7188 O 659.044 -2.68458 0.405256 0
M  V30 7189 C 657.5 -2.09691 2.92502 0
M  V30 7190 C 657.108 -1.38785 4.25961 0
M  V30 7191 C 658.852 -2.8434 3.152 0
M  V30 7192 C 656.759 -2.31919 5.44029 0
M  V30 7193 H 655.689 -0.433776 0.616729 0
M  V30 7194 H 658.34 -0.4165 1.78711 0
M  V30 7195 H 656.722 -2.8681 2.7305 0
M  V30 7196 H 657.896 -0.670248 4.55899 0
M  V30 7197 H 656.211 -0.761741 4.09373 0
M  V30 7198 H 658.808 -3.54166 4.00587 0
M  V30 7199 H 659.151 -3.47344 2.29473 0
M  V30 7200 H 659.684 -2.14321 3.35129 0
M  V30 7201 H 656.423 -1.7356 6.32105 0
M  V30 7202 H 655.943 -3.0165 5.18428 0
M  V30 7203 H 657.622 -2.92424 5.77146 0
M  V30 7204 N 657.755 -1.42862 -0.66545 0
M  V30 7205 C 659.004 -1.43119 -1.42126 0
M  V30 7206 C 659.317 -0.0545297 -1.95524 0
M  V30 7207 O 660.523 0.0654747 -2.71421 0
M  V30 7208 C 658.979 -2.51797 -2.5715 0
M  V30 7209 C 658.587 -3.95514 -2.10411 0
M  V30 7210 C 660.331 -2.61233 -3.346 0
M  V30 7211 C 658.238 -4.95682 -3.22573 0
M  V30 7212 H 657.168 -0.532349 -0.533966 0
M  V30 7213 H 659.819 -1.68806 -0.719506 0
M  V30 7214 H 658.201 -2.19292 -3.29738 0
M  V30 7215 H 659.375 -4.3742 -1.44915 0
M  V30 7216 H 657.69 -3.90012 -1.45874 0
M  V30 7217 H 660.287 -3.33248 -4.18151 0
M  V30 7218 H 660.63 -1.65896 -3.81817 0
M  V30 7219 H 661.163 -2.9298 -2.69087 0
M  V30 7220 H 657.902 -5.92529 -2.80338 0
M  V30 7221 H 657.422 -4.58399 -3.86821 0
M  V30 7222 H 659.101 -5.17828 -3.87896 0
M  V30 7223 N 659.233 0.902656 -1.29189 0
M  V30 7224 C 660.479 1.65532 -1.17163 0
M  V30 7225 C 660.812 1.92216 0.276879 0
M  V30 7226 O 660.087 1.53048 1.20027 0
M  V30 7227 C 660.37 3.00629 -1.98228 0
M  V30 7228 C 660.223 2.81029 -3.51202 0
M  V30 7229 C 661.542 4.01321 -1.80635 0
M  V30 7230 H 658.661 0.60071 -0.426985 0
M  V30 7231 H 661.303 1.04578 -1.5863 0
M  V30 7232 H 659.453 3.52656 -1.62991 0
M  V30 7233 H 661.125 2.35927 -3.96404 0
M  V30 7234 H 659.368 2.1587 -3.76275 0
M  V30 7235 H 660.039 3.77014 -4.03192 0
M  V30 7236 H 662.515 3.58394 -2.11406 0
M  V30 7237 H 661.391 4.93792 -2.3971 0
M  V30 7238 H 661.652 4.35505 -0.760754 0
M  V30 7239 N 660.711 1.11618 1.11262 0
M  V30 7240 C 661.959 0.864469 1.82678 0
M  V30 7241 C 662.28 -0.611564 1.85162 0
M  V30 7242 O 661.55 -1.44429 1.32352 0
M  V30 7243 H 660.13 0.316821 0.676486 0
M  V30 7244 H 662.792 1.40894 1.34666 0
M  V30 7245 H 661.888 1.23832 2.86482 0
M  V30 7246 N 662.189 -1.289 0.906776 0
M  V30 7247 C 663.435 -1.95558 0.53712 0
M  V30 7248 C 663.768 -1.71262 -0.915582 0
M  V30 7249 O 663.043 -1.02961 -1.65013 0
M  V30 7250 C 663.326 -3.50198 0.838645 0
M  V30 7251 C 663.179 -3.83923 2.34357 0
M  V30 7252 C 664.498 -4.38861 0.329988 0
M  V30 7253 H 661.617 -0.710289 0.196617 0
M  V30 7254 H 664.259 -1.52392 1.13475 0
M  V30 7255 H 662.409 -3.87096 0.330024 0
M  V30 7256 H 664.081 -3.56933 2.92227 0
M  V30 7257 H 662.324 -3.31215 2.80141 0
M  V30 7258 H 662.995 -4.91883 2.5051 0
M  V30 7259 H 665.471 -4.08996 0.765609 0
M  V30 7260 H 664.347 -5.45931 0.570105 0
M  V30 7261 H 664.608 -4.35352 -0.769511 0
M  V30 7262 N 663.667 -0.670007 -1.42649 0
M  V30 7263 C 664.916 -0.187526 -2.00826 0
M  V30 7264 C 665.229 1.21142 -1.53571 0
M  V30 7265 O 666.435 1.79001 -2.04134 0
M  V30 7266 C 664.891 -0.284409 -3.58774 0
M  V30 7267 C 664.499 -1.6871 -4.15019 0
M  V30 7268 C 666.243 0.139605 -4.2427 0
M  V30 7269 C 664.15 -1.73701 -5.65316 0
M  V30 7270 H 663.08 -0.0663468 -0.751075 0
M  V30 7271 H 665.731 -0.834492 -1.63427 0
M  V30 7272 H 664.113 0.430364 -3.93655 0
M  V30 7273 H 665.287 -2.42857 -3.91608 0
M  V30 7274 H 663.602 -2.05855 -3.61957 0
M  V30 7275 H 666.199 0.122398 -5.3456 0
M  V30 7276 H 666.542 1.17403 -3.99402 0
M  V30 7277 H 667.075 -0.523995 -3.94334 0
M  V30 7278 H 663.814 -2.75109 -5.94975 0
M  V30 7279 H 663.334 -1.03903 -5.90732 0
M  V30 7280 H 665.013 -1.48829 -6.2965 0
M  V30 7281 N 665.145 1.52092 -0.413018 0
M  V30 7282 C 666.075 2.30021 0.401567 0
M  V30 7283 C 667.056 1.34395 1.04269 0
M  V30 7284 O 668.241 1.63304 1.05097 0
M  V30 7285 C 665.371 3.12447 1.51638 0
M  V30 7286 C 664.325 4.16153 1.00005 0
M  V30 7287 C 663.651 4.86948 2.20875 0
M  V30 7288 C 664.951 5.22275 0.0513757 0
M  V30 7289 H 666.645 2.98365 -0.248704 0
M  V30 7290 H 664.191 1.4349 -0.121052 0
M  V30 7291 H 666.144 3.65733 2.09326 0
M  V30 7292 H 664.868 2.41879 2.19458 0
M  V30 7293 H 663.527 3.63882 0.445549 0
M  V30 7294 H 663.175 4.12905 2.8726 0
M  V30 7295 H 662.875 5.57057 1.86978 0
M  V30 7296 H 664.399 5.43048 2.79162 0
M  V30 7297 H 665.813 5.70778 0.537176 0
M  V30 7298 H 664.21 5.9977 -0.198977 0
M  V30 7299 H 665.28 4.76611 -0.892736 0
M  V30 7300 N 666.623 0.143563 1.56945 0
M  V30 7301 C 667.553 -0.7936 2.196 0
M  V30 7302 C 668.534 -1.25955 1.14321 0
M  V30 7303 O 669.719 -1.31773 1.42651 0
M  V30 7304 C 666.849 -2.03424 2.81489 0
M  V30 7305 C 665.803 -1.70519 3.92565 0
M  V30 7306 C 665.129 -3.01817 4.41373 0
M  V30 7307 C 666.429 -0.95449 5.13504 0
M  V30 7308 H 668.123 -0.271423 2.98167 0
M  V30 7309 H 665.669 -0.12911 1.4342 0
M  V30 7310 H 667.622 -2.69463 3.23987 0
M  V30 7311 H 666.346 -2.58008 2.00248 0
M  V30 7312 H 665.005 -1.06859 3.5068 0
M  V30 7313 H 664.653 -3.54386 3.56959 0
M  V30 7314 H 664.353 -2.80565 5.16292 0
M  V30 7315 H 665.877 -3.68934 4.86539 0
M  V30 7316 H 667.291 -1.5169 5.52868 0
M  V30 7317 H 665.688 -0.842035 5.94163 0
M  V30 7318 H 666.758 0.0544033 4.84869 0
M  V30 7319 N 668.101 -1.57061 -0.130224 0
M  V30 7320 C 669.331 -1.88159 -0.853217 0
M  V30 7321 C 669.739 -0.731675 -1.7448 0
M  V30 7322 O 669.082 0.307035 -1.81116 0
M  V30 7323 C 669.144 -3.1415 -1.74785 0
M  V30 7324 C 668.808 -4.45202 -1.03173 0
M  V30 7325 C 669.805 -5.18526 -0.377759 0
M  V30 7326 C 667.49 -4.91912 -1.01624 0
M  V30 7327 C 669.484 -6.36775 0.282123 0
M  V30 7328 C 667.171 -6.10082 -0.352555 0
M  V30 7329 C 668.169 -6.82361 0.295483 0
M  V30 7330 O 667.857 -7.98284 0.948606 0
M  V30 7331 H 667.589 -0.627596 -0.251197 0
M  V30 7332 H 670.143 -2.05034 -0.1226 0
M  V30 7333 H 668.373 -2.93328 -2.51983 0
M  V30 7334 H 670.062 -3.31359 -2.34427 0
M  V30 7335 H 670.828 -4.83498 -0.381417 0
M  V30 7336 H 666.707 -4.35566 -1.51007 0
M  V30 7337 H 670.251 -6.93129 0.788525 0
M  V30 7338 H 666.148 -6.44569 -0.346621 0
M  V30 7339 H 666.916 -8.14054 0.851954 0
M  V30 7340 N 669.579 0.400081 -1.52437 0
M  V30 7341 C 670.809 1.16598 -1.70553 0
M  V30 7342 C 671.217 1.8451 -0.418665 0
M  V30 7343 O 670.56 1.73069 0.615855 0
M  V30 7344 C 670.622 2.26517 -2.7916 0
M  V30 7345 C 670.286 1.78666 -4.20628 0
M  V30 7346 C 671.283 1.26946 -5.04163 0
M  V30 7347 C 668.968 1.85225 -4.66902 0
M  V30 7348 C 670.962 0.824187 -6.32049 0
M  V30 7349 C 668.649 1.40309 -5.94774 0
M  V30 7350 C 669.647 0.889922 -6.77178 0
M  V30 7351 O 669.335 0.447281 -8.02655 0
M  V30 7352 H 669.067 0.356023 -0.574651 0
M  V30 7353 H 671.621 0.475598 -1.99818 0
M  V30 7354 H 669.851 2.98946 -2.45292 0
M  V30 7355 H 671.54 2.88237 -2.85787 0
M  V30 7356 H 672.306 1.21244 -4.69601 0
M  V30 7357 H 668.185 2.24111 -4.02859 0
M  V30 7358 H 671.729 0.422958 -6.96317 0
M  V30 7359 H 667.626 1.45693 -6.28843 0
M  V30 7360 H 668.394 0.569768 -8.16514 0
M  V30 7361 N 671.057 1.43213 0.657864 0
M  V30 7362 C 672.306 1.43871 1.41365 0
M  V30 7363 C 672.619 0.064898 1.95492 0
M  V30 7364 O 673.825 -0.0510796 2.71452 0
M  V30 7365 C 672.281 2.53158 2.55811 0
M  V30 7366 C 671.889 3.96624 2.08311 0
M  V30 7367 C 673.633 2.63004 3.3321 0
M  V30 7368 C 671.54 4.97385 3.1994 0
M  V30 7369 H 670.47 0.535174 0.531136 0
M  V30 7370 H 673.121 1.69185 0.710543 0
M  V30 7371 H 671.503 2.21037 3.2857 0
M  V30 7372 H 672.677 4.38182 1.42593 0
M  V30 7373 H 670.992 3.90781 1.43804 0
M  V30 7374 H 673.589 3.3546 4.16378 0
M  V30 7375 H 673.932 1.67918 3.80932 0
M  V30 7376 H 674.465 2.94403 2.67529 0
M  V30 7377 H 671.204 5.94007 2.77192 0
M  V30 7378 H 670.724 4.60444 3.84385 0
M  V30 7379 H 672.403 5.19877 3.85145 0
M  V30 7380 N 672.536 -0.895792 1.29666 0
M  V30 7381 C 673.466 -2.01673 1.17688 0
M  V30 7382 C 674.447 -1.69955 0.0701317 0
M  V30 7383 O 675.632 -1.9258 0.250289 0
M  V30 7384 C 672.762 -3.36568 0.856681 0
M  V30 7385 C 671.716 -3.82509 1.92017 0
M  V30 7386 C 671.042 -5.14574 1.4532 0
M  V30 7387 C 672.342 -4.02409 3.32963 0
M  V30 7388 H 674.036 -2.11953 2.11463 0
M  V30 7389 H 671.582 -1.01839 1.01807 0
M  V30 7390 H 673.535 -4.14498 0.759577 0
M  V30 7391 H 672.259 -3.26391 -0.116763 0
M  V30 7392 H 670.918 -3.068 2.00673 0
M  V30 7393 H 670.566 -5.00815 0.468325 0
M  V30 7394 H 670.266 -5.46283 2.16447 0
M  V30 7395 H 671.79 -5.9504 1.36968 0
M  V30 7396 H 673.204 -4.70808 3.27127 0
M  V30 7397 H 671.601 -4.45478 4.02082 0
M  V30 7398 H 672.671 -3.06616 3.75652 0
M  V30 7399 N 674.014 -1.12206 -1.10668 0
M  V30 7400 C 675.262 -0.874144 -1.82217 0
M  V30 7401 C 675.583 0.601736 -1.85484 0
M  V30 7402 O 674.853 1.43725 -1.33116 0
M  V30 7403 H 673.433 -0.320404 -0.674797 0
M  V30 7404 H 676.095 -1.41606 -1.33917 0
M  V30 7405 H 675.191 -1.25349 -2.85822 0
M  V30 7406 N 675.492 1.28418 -0.913599 0
M  V30 7407 C 676.738 1.9527 -0.547484 0
M  V30 7408 C 677.071 1.71745 0.906486 0
M  V30 7409 O 676.346 1.03834 1.64465 0
M  V30 7410 C 676.629 3.49748 -0.857205 0
M  V30 7411 C 676.482 3.82675 -2.3639 0
M  V30 7412 C 677.801 4.3868 -0.353258 0
M  V30 7413 H 674.92 0.709236 -0.200381 0
M  V30 7414 H 677.562 1.51789 -1.14281 0
M  V30 7415 H 675.712 3.86915 -0.350548 0
M  V30 7416 H 677.384 3.55378 -2.94116 0
M  V30 7417 H 675.627 3.29724 -2.81894 0
M  V30 7418 H 676.298 4.90547 -2.53115 0
M  V30 7419 H 678.774 4.08584 -0.787288 0
M  V30 7420 H 677.65 5.45621 -0.599049 0
M  V30 7421 H 677.911 4.35753 0.746413 0
M  V30 7422 N 676.97 0.677563 1.42291 0
M  V30 7423 C 678.195 0.207901 2.06355 0
M  V30 7424 C 678.62 -1.12723 1.50583 0
M  V30 7425 O 677.978 -1.70171 0.62543 0
M  V30 7426 C 678.026 0.156489 3.6026 0
M  V30 7427 O 677.13 -0.874162 4.03029 0
M  V30 7428 H 676.471 0.106056 0.655475 0
M  V30 7429 H 679.001 0.927354 1.82377 0
M  V30 7430 H 679.011 -0.0187258 4.07996 0
M  V30 7431 H 677.686 1.13101 4.00226 0
M  V30 7432 H 676.263 -0.669764 3.66836 0
M  V30 7433 N 678.448 -1.51871 0.421078 0
M  V30 7434 C 679.411 -2.25914 -0.386712 0
M  V30 7435 C 680.411 -1.28733 -0.963555 0
M  V30 7436 O 681.601 -1.52579 -0.840556 0
M  V30 7437 C 678.733 -3.03853 -1.54551 0
M  V30 7438 H 679.926 -2.98754 0.261978 0
M  V30 7439 H 677.479 -1.5533 0.173862 0
M  V30 7440 H 678.214 -2.35392 -2.23072 0
M  V30 7441 H 677.999 -3.75215 -1.13824 0
M  V30 7442 H 679.489 -3.59984 -2.11663 0
M  V30 7443 N 679.926 -0.151884 -1.56866 0
M  V30 7444 C 680.856 0.781943 -2.20018 0
M  V30 7445 C 681.837 1.25347 -1.14987 0
M  V30 7446 O 683.022 1.31015 -1.43348 0
M  V30 7447 C 680.152 2.01928 -2.82564 0
M  V30 7448 C 679.106 1.68434 -3.93464 0
M  V30 7449 C 678.432 2.99472 -4.42968 0
M  V30 7450 C 679.732 0.927244 -5.14003 0
M  V30 7451 H 681.426 0.255607 -2.98307 0
M  V30 7452 H 678.972 0.121502 -1.43486 0
M  V30 7453 H 680.925 2.67741 -3.25411 0
M  V30 7454 H 679.649 2.56943 -2.01614 0
M  V30 7455 H 678.308 1.04998 -3.51242 0
M  V30 7456 H 677.956 3.52488 -3.58834 0
M  V30 7457 H 677.656 2.77823 -5.17772 0
M  V30 7458 H 679.18 3.66348 -4.88489 0
M  V30 7459 H 680.594 1.48756 -5.53665 0
M  V30 7460 H 678.991 0.810513 -5.94601 0
M  V30 7461 H 680.061 -0.0801163 -4.84834 0
M  V30 7462 N 681.404 1.57128 0.121893 0
M  V30 7463 C 682.653 1.83888 0.828748 0
M  V30 7464 C 682.966 0.737087 1.81181 0
M  V30 7465 O 684.172 0.891007 2.56463 0
M  V30 7466 C 682.628 3.26014 1.52455 0
M  V30 7467 C 682.236 4.44195 0.58263 0
M  V30 7468 C 683.98 3.62025 2.21671 0
M  V30 7469 C 681.887 5.77349 1.28149 0
M  V30 7470 H 680.817 0.685856 0.313238 0
M  V30 7471 H 683.468 1.83319 0.0814851 0
M  V30 7472 H 681.85 3.21044 2.31834 0
M  V30 7473 H 683.024 4.60457 -0.177729 0
M  V30 7474 H 681.339 4.164 -0.00241228 0
M  V30 7475 H 683.936 4.58776 2.74643 0
M  V30 7476 H 684.279 2.89315 2.99337 0
M  V30 7477 H 684.812 3.68767 1.49184 0
M  V30 7478 H 681.551 6.53221 0.546189 0
M  V30 7479 H 681.071 5.64978 2.01394 0
M  V30 7480 H 682.75 6.21006 1.81549 0
M  V30 7481 N 682.882 -0.391992 1.52647 0
M  V30 7482 C 684.13 -1.13507 1.67214 0
M  V30 7483 C 684.451 -1.90575 0.41304 0
M  V30 7484 O 683.721 -1.87348 -0.572498 0
M  V30 7485 H 682.301 -0.422013 0.616372 0
M  V30 7486 H 684.963 -0.44502 1.89751 0
M  V30 7487 H 684.059 -1.83964 2.52118 0
M  V30 7488 N 684.36 -1.4356 -0.65026 0
M  V30 7489 C 685.323 -1.48615 -1.74489 0
M  V30 7490 C 686.323 -0.370483 -1.56474 0
M  V30 7491 O 687.513 -0.632351 -1.62317 0
M  V30 7492 C 684.645 -1.34161 -3.13391 0
M  V30 7493 H 685.838 -2.46103 -1.71387 0
M  V30 7494 H 683.391 -1.30369 -0.862186 0
M  V30 7495 H 684.126 -0.376918 -3.22102 0
M  V30 7496 H 683.911 -2.1504 -3.27872 0
M  V30 7497 H 685.401 -1.40637 -3.93206 0
M  V30 7498 N 685.838 0.888903 -1.30139 0
M  V30 7499 C 686.801 1.97576 -1.16174 0
M  V30 7500 C 687.801 1.60525 -0.094086 0
M  V30 7501 O 688.991 1.70812 -0.341889 0
M  V30 7502 C 686.123 3.3188 -0.778983 0
M  V30 7503 H 687.316 2.11393 -2.12728 0
M  V30 7504 H 684.869 1.0748 -1.1348 0
M  V30 7505 H 685.604 3.23765 0.186225 0
M  V30 7506 H 685.389 3.60141 -1.55051 0
M  V30 7507 H 686.879 4.11612 -0.704631 0
M  V30 7508 N 687.317 1.12792 1.10072 0
M  V30 7509 C 688.563 0.886857 1.82381 0
M  V30 7510 C 688.896 -0.58576 1.85155 0
M  V30 7511 O 688.171 -1.43317 1.31493 0
M  V30 7512 C 688.454 1.46703 3.28862 0
M  V30 7513 C 688.307 3.00829 3.34398 0
M  V30 7514 C 689.626 1.12971 4.25353 0
M  V30 7515 H 686.745 0.32362 0.662148 0
M  V30 7516 H 689.387 1.39513 1.28982 0
M  V30 7517 H 687.537 1.03476 3.74466 0
M  V30 7518 H 689.209 3.52764 2.97247 0
M  V30 7519 H 687.452 3.36164 2.74183 0
M  V30 7520 H 688.123 3.36519 4.3756 0
M  V30 7521 H 690.599 1.50313 3.88001 0
M  V30 7522 H 689.475 1.56223 5.26199 0
M  V30 7523 H 689.736 0.0424452 4.4208 0
M  V30 7524 N 688.795 -1.27931 0.920396 0
M  V30 7525 C 690.044 -1.93975 0.552867 0
M  V30 7526 C 690.357 -1.73193 -0.909035 0
M  V30 7527 O 691.563 -2.33515 -1.38502 0
M  V30 7528 C 690.019 -3.47463 0.937947 0
M  V30 7529 C 689.627 -3.77013 2.42003 0
M  V30 7530 C 691.371 -4.19628 0.64132 0
M  V30 7531 C 689.278 -5.23841 2.74489 0
M  V30 7532 H 688.208 -0.726146 0.203046 0
M  V30 7533 H 690.859 -1.45339 1.12022 0
M  V30 7534 H 689.241 -3.94867 0.299317 0
M  V30 7535 H 690.415 -3.40393 3.10595 0
M  V30 7536 H 688.73 -3.18035 2.6878 0
M  V30 7537 H 691.327 -5.27729 0.860622 0
M  V30 7538 H 691.67 -4.14164 -0.421168 0
M  V30 7539 H 692.203 -3.78022 1.23872 0
M  V30 7540 H 688.942 -5.34388 3.79618 0
M  V30 7541 H 688.462 -5.61634 2.1054 0
M  V30 7542 H 690.141 -5.91647 2.61845 0
M  V30 7543 N 690.273 -0.685099 -1.4193 0
M  V30 7544 C 691.522 -0.208816 -2.00616 0
M  V30 7545 C 691.835 1.19506 -1.54847 0
M  V30 7546 O 693.041 1.76826 -2.06021 0
M  V30 7547 C 691.497 -0.322446 -3.58453 0
M  V30 7548 C 691.105 -1.73102 -4.13206 0
M  V30 7549 C 692.849 0.0945979 -4.24395 0
M  V30 7550 C 690.756 -1.79687 -5.63442 0
M  V30 7551 H 689.686 -0.0743092 -0.750329 0
M  V30 7552 H 692.337 -0.851778 -1.62533 0
M  V30 7553 H 690.719 0.388588 -3.94089 0
M  V30 7554 H 691.893 -2.46997 -3.8901 0
M  V30 7555 H 690.208 -2.09682 -3.59753 0
M  V30 7556 H 692.805 0.0656937 -5.3466 0
M  V30 7557 H 693.148 1.1316 -4.00625 0
M  V30 7558 H 693.681 -0.56579 -3.93756 0
M  V30 7559 H 690.42 -2.81404 -5.92024 0
M  V30 7560 H 689.94 -1.10162 -5.89597 0
M  V30 7561 H 691.619 -1.55498 -6.28036 0
M  V30 7562 N 691.751 1.51645 -0.429126 0
M  V30 7563 C 692.681 2.30434 0.377148 0
M  V30 7564 C 693.662 1.35493 1.02838 0
M  V30 7565 O 694.847 1.6441 1.03359 0
M  V30 7566 C 691.977 3.14038 1.48315 0
M  V30 7567 C 690.931 4.1719 0.955855 0
M  V30 7568 C 690.257 4.89263 2.15698 0
M  V30 7569 C 691.557 5.223 -0.00402136 0
M  V30 7570 H 693.251 2.98085 -0.280336 0
M  V30 7571 H 690.797 1.43354 -0.136265 0
M  V30 7572 H 692.75 3.67933 2.05435 0
M  V30 7573 H 691.474 2.44193 2.16881 0
M  V30 7574 H 690.133 3.64335 0.406929 0
M  V30 7575 H 689.781 4.15929 2.82864 0
M  V30 7576 H 689.481 5.59009 1.81059 0
M  V30 7577 H 691.005 5.45978 2.73387 0
M  V30 7578 H 692.419 5.71315 0.476607 0
M  V30 7579 H 690.816 5.99525 -0.26258 0
M  V30 7580 H 691.886 4.75638 -0.943236 0
M  V30 7581 N 693.229 0.160201 1.56784 0
M  V30 7582 C 694.159 -0.770264 2.2043 0
M  V30 7583 C 695.14 -1.24736 1.15651 0
M  V30 7584 O 696.325 -1.30253 1.44041 0
M  V30 7585 C 693.455 -2.00427 2.83631 0
M  V30 7586 C 692.409 -1.66345 3.94352 0
M  V30 7587 C 691.735 -2.97119 4.4455 0
M  V30 7588 C 693.035 -0.899972 5.14488 0
M  V30 7589 H 694.729 -0.239783 2.98438 0
M  V30 7590 H 692.275 -0.113891 1.43549 0
M  V30 7591 H 694.228 -2.66012 3.26827 0
M  V30 7592 H 692.952 -2.5587 2.02973 0
M  V30 7593 H 691.611 -1.03133 3.51794 0
M  V30 7594 H 691.259 -3.5058 3.60698 0
M  V30 7595 H 690.959 -2.75073 5.19238 0
M  V30 7596 H 692.483 -3.63753 4.90425 0
M  V30 7597 H 693.897 -1.45818 5.54446 0
M  V30 7598 H 692.294 -0.778968 5.95023 0
M  V30 7599 H 693.364 0.105827 4.84785 0
M  V30 7600 N 694.707 -1.5719 -0.113559 0
M  V30 7601 C 695.67 -1.99796 -1.12314 0
M  V30 7602 C 696.67 -0.888847 -1.34001 0
M  V30 7603 O 697.86 -1.15476 -1.30426 0
M  V30 7604 C 694.992 -2.34279 -2.47641 0
M  V30 7605 H 696.185 -2.90193 -0.756825 0
M  V30 7606 H 693.738 -1.52144 -0.358029 0
M  V30 7607 H 694.473 -1.46778 -2.89183 0
M  V30 7608 H 694.258 -3.15175 -2.33253 0
M  V30 7609 H 695.748 -2.67963 -3.2029 0
M  V30 7610 N 696.185 0.383891 -1.52853 0
M  V30 7611 C 697.596 0.961591 -1.60032 0
M  V30 7612 C 697.947 1.90819 -0.456333 0
M  V30 7613 O 697.072 2.12288 0.419873 0
M  V30 7614 C 697.667 1.75078 -2.90057 0
M  V30 7615 C 696.226 2.2781 -2.99632 0
M  V30 7616 C 695.373 1.08512 -2.55187 0
M  V30 7617 H 698.324 0.163269 -1.57858 0
M  V30 7618 H 698.345 2.61046 -2.7683 0
M  V30 7619 H 697.857 1.06157 -3.73299 0
M  V30 7620 H 695.958 3.00028 -2.20939 0
M  V30 7621 H 696.071 2.56947 -4.0437 0
M  V30 7622 H 694.435 1.44667 -2.09627 0
M  V30 7623 H 695.218 0.41118 -3.40829 0
M  V30 7624 N 697.663 1.43903 0.642637 0
M  V30 7625 C 698.909 1.46296 1.40447 0
M  V30 7626 C 699.242 0.0908361 1.93987 0
M  V30 7627 O 698.517 -0.889884 1.72949 0
M  V30 7628 C 698.8 2.51399 2.57819 0
M  V30 7629 C 698.653 3.97926 2.09702 0
M  V30 7630 C 699.972 2.53125 3.60022 0
M  V30 7631 H 697.091 0.532676 0.509338 0
M  V30 7632 H 699.733 1.75515 0.727635 0
M  V30 7633 H 697.883 2.26614 3.1556 0
M  V30 7634 H 699.555 4.33804 1.5688 0
M  V30 7635 H 697.798 4.10252 1.40982 0
M  V30 7636 H 698.469 4.67096 2.94152 0
M  V30 7637 H 700.945 2.75242 3.12059 0
M  V30 7638 H 699.821 3.28589 4.39682 0
M  V30 7639 H 700.082 1.56895 4.13324 0
M  V30 7640 N 699.141 -0.881989 1.30609 0
M  V30 7641 C 700.073 -1.99375 1.13058 0
M  V30 7642 C 701.086 -1.62636 0.0729879 0
M  V30 7643 O 702.275 -1.75621 0.319301 0
M  V30 7644 C 699.375 -3.31536 0.702651 0
M  V30 7645 C 698.548 -3.96693 1.84265 0
M  V30 7646 C 697.607 -5.07158 1.40277 0
M  V30 7647 O 696.633 -5.28628 2.11048 0
M  V30 7648 N 697.835 -5.79808 0.283449 0
M  V30 7649 H 700.6 -2.14981 2.08814 0
M  V30 7650 H 698.161 -1.05526 1.22784 0
M  V30 7651 H 700.153 -4.02804 0.391331 0
M  V30 7652 H 698.723 -3.12175 -0.162954 0
M  V30 7653 H 697.943 -3.1856 2.32192 0
M  V30 7654 H 699.231 -4.36964 2.60653 0
M  V30 7655 H 698.629 -5.64871 -0.306189 0
M  V30 7656 H 697.186 -6.51792 0.0315985 0
M  V30 7657 N 700.619 -1.13374 -1.09472 0
M  V30 7658 C 701.849 -0.917019 -1.85133 0
M  V30 7659 C 702.257 0.537568 -1.81402 0
M  V30 7660 O 701.6 1.38385 -1.20811 0
M  V30 7661 C 701.662 -1.32646 -3.34134 0
M  V30 7662 C 701.326 -2.79437 -3.61613 0
M  V30 7663 C 702.323 -3.77596 -3.57375 0
M  V30 7664 C 700.008 -3.16586 -3.89973 0
M  V30 7665 C 702.002 -5.10916 -3.81108 0
M  V30 7666 C 699.689 -4.50085 -4.13361 0
M  V30 7667 C 700.687 -5.47059 -4.0892 0
M  V30 7668 O 700.375 -6.78149 -4.31705 0
M  V30 7669 H 700.107 -0.326997 -0.591649 0
M  V30 7670 H 702.661 -1.51002 -1.39239 0
M  V30 7671 H 700.891 -0.676719 -3.80733 0
M  V30 7672 H 702.58 -1.08229 -3.91205 0
M  V30 7673 H 703.346 -3.50242 -3.35493 0
M  V30 7674 H 699.225 -2.41707 -3.92554 0
M  V30 7675 H 702.769 -5.86597 -3.77558 0
M  V30 7676 H 698.666 -4.77163 -4.34724 0
M  V30 7677 H 699.434 -6.84244 -4.49168 0
M  V30 7678 N 702.098 1.27442 -0.927168 0
M  V30 7679 C 703.345 1.94391 -0.567324 0
M  V30 7680 C 703.673 1.72875 0.891321 0
M  V30 7681 O 702.928 1.05071 1.65102 0
M  V30 7682 C 703.227 3.47413 -0.838994 0
M  V30 7683 C 702.893 3.89049 -2.2793 0
M  V30 7684 C 701.555 4.00127 -2.67305 0
M  V30 7685 C 703.907 4.10154 -3.21595 0
M  V30 7686 C 701.235 4.29697 -3.99471 0
M  V30 7687 C 703.587 4.41208 -4.53341 0
M  V30 7688 C 702.251 4.50499 -4.92551 0
M  V30 7689 H 701.521 0.711325 -0.207598 0
M  V30 7690 H 704.168 1.51523 -1.17103 0
M  V30 7691 H 702.473 3.91503 -0.152609 0
M  V30 7692 H 704.17 3.97354 -0.53955 0
M  V30 7693 H 700.76 3.80962 -1.96381 0
M  V30 7694 H 704.944 4.01036 -2.92377 0
M  V30 7695 H 700.2 4.35099 -4.29533 0
M  V30 7696 H 704.374 4.56486 -5.25922 0
M  V30 7697 H 702.001 4.73167 -5.94994 0
M  V30 7698 N 703.576 0.692616 1.41565 0
M  V30 7699 C 704.822 0.222664 2.01574 0
M  V30 7700 C 705.155 -1.1737 1.54719 0
M  V30 7701 O 704.43 -1.79161 0.757084 0
M  V30 7702 C 704.713 0.277064 3.59033 0
M  V30 7703 C 704.566 1.71016 4.16021 0
M  V30 7704 C 705.885 -0.36479 4.38586 0
M  V30 7705 H 703.004 0.0823839 0.732381 0
M  V30 7706 H 705.646 0.880778 1.68352 0
M  V30 7707 H 703.796 -0.283288 3.87466 0
M  V30 7708 H 705.468 2.32413 3.98475 0
M  V30 7709 H 703.711 2.24525 3.71175 0
M  V30 7710 H 704.382 1.69978 5.25178 0
M  V30 7711 H 706.858 0.112404 4.15948 0
M  V30 7712 H 705.734 -0.296169 5.481 0
M  V30 7713 H 705.995 -1.44506 4.17816 0
M  V30 7714 N 705.054 -1.51416 0.437162 0
M  V30 7715 C 706.017 -2.26312 -0.362729 0
M  V30 7716 C 707.017 -1.29748 -0.949847 0
M  V30 7717 O 708.207 -1.53462 -0.824325 0
M  V30 7718 C 705.339 -3.05475 -1.5132 0
M  V30 7719 H 706.532 -2.98459 0.29365 0
M  V30 7720 H 704.085 -1.55137 0.190327 0
M  V30 7721 H 704.82 -2.37744 -2.20563 0
M  V30 7722 H 704.605 -3.76401 -1.09838 0
M  V30 7723 H 706.095 -3.62209 -2.07833 0
M  V30 7724 N 706.532 -0.168513 -1.56696 0
M  V30 7725 C 707.76 0.483503 -2.01171 0
M  V30 7726 C 708.175 1.56994 -1.04872 0
M  V30 7727 O 707.532 1.82434 -0.0491337 0
M  V30 7728 C 707.583 1.0644 -3.45475 0
M  V30 7729 O 707.304 0.0213375 -4.38095 0
M  V30 7730 C 708.805 1.79493 -4.05336 0
M  V30 7731 H 706.025 0.124002 -0.659443 0
M  V30 7732 H 708.569 -0.269419 -2.02717 0
M  V30 7733 H 706.724 1.76784 -3.44712 0
M  V30 7734 H 707.138 0.449837 -5.22567 0
M  V30 7735 H 708.612 2.15401 -5.08238 0
M  V30 7736 H 709.089 2.68889 -3.47269 0
M  V30 7737 H 709.695 1.13798 -4.09793 0
M  V30 7738 N 708.01 1.57248 0.105221 0
M  V30 7739 C 708.957 2.01338 1.12835 0
M  V30 7740 C 709.927 0.887897 1.40377 0
M  V30 7741 O 711.112 1.15315 1.5201 0
M  V30 7742 C 708.252 2.43432 2.44611 0
M  V30 7743 C 707.365 3.69457 2.23888 0
M  V30 7744 C 706.5 4.00473 3.48991 0
M  V30 7745 C 705.539 5.19638 3.23485 0
M  V30 7746 N 704.676 5.46457 4.40828 0
M  V30 7747 H 709.516 2.88527 0.745386 0
M  V30 7748 H 707.053 1.42714 0.356535 0
M  V30 7749 H 709.011 2.65879 3.21503 0
M  V30 7750 H 707.641 1.59266 2.80774 0
M  V30 7751 H 706.693 3.54545 1.37847 0
M  V30 7752 H 708.005 4.56497 2.01026 0
M  V30 7753 H 707.159 4.23642 4.34295 0
M  V30 7754 H 705.898 3.11935 3.74897 0
M  V30 7755 H 704.903 4.96299 2.36574 0
M  V30 7756 H 706.128 6.09766 2.98935 0
M  V30 7757 H 704.074 4.60876 4.66829 0
M  V30 7758 H 703.991 6.27849 4.2112 0
M  V30 7759 H 705.259 5.74155 5.27225 0
M  V30 7760 N 709.488 -0.375779 1.53054 0
M  V30 7761 C 710.418 -1.46598 1.81745 0
M  V30 7762 C 711.399 -1.56337 0.670286 0
M  V30 7763 O 712.584 -1.71071 0.919158 0
M  V30 7764 C 709.714 -2.84058 1.99821 0
M  V30 7765 C 708.668 -2.8915 3.15557 0
M  V30 7766 C 707.994 -4.29187 3.18908 0
M  V30 7767 C 709.294 -2.57595 4.54359 0
M  V30 7768 H 710.988 -1.22837 2.73041 0
M  V30 7769 H 708.534 -0.589485 1.31381 0
M  V30 7770 H 710.487 -3.60342 2.18475 0
M  V30 7771 H 709.211 -3.09184 1.05226 0
M  V30 7772 H 707.87 -2.15316 2.96706 0
M  V30 7773 H 707.518 -4.51374 2.2197 0
M  V30 7774 H 707.218 -4.33512 3.96662 0
M  V30 7775 H 708.742 -5.07359 3.39734 0
M  V30 7776 H 710.156 -3.23595 4.73243 0
M  V30 7777 H 708.553 -2.73252 5.34279 0
M  V30 7778 H 709.623 -1.52882 4.60169 0
M  V30 7779 N 710.966 -1.44241 -0.634997 0
M  V30 7780 C 712.191 -1.50516 -1.42687 0
M  V30 7781 C 712.616 -0.129864 -1.87651 0
M  V30 7782 O 711.974 0.880164 -1.58502 0
M  V30 7783 C 712.022 -2.4714 -2.62591 0
M  V30 7784 O 711.126 -1.97025 -3.62291 0
M  V30 7785 H 710.467 -0.50841 -0.427101 0
M  V30 7786 H 712.997 -1.89337 -0.775408 0
M  V30 7787 H 713.007 -2.65048 -3.10183 0
M  V30 7788 H 711.682 -3.47039 -2.29209 0
M  V30 7789 H 710.259 -1.88866 -3.21534 0
M  V30 7790 N 712.444 0.87505 -1.31075 0
M  V30 7791 C 713.376 1.98773 -1.14114 0
M  V30 7792 C 714.389 1.62595 -0.0816119 0
M  V30 7793 O 715.578 1.75449 -0.32861 0
M  V30 7794 C 712.678 3.31159 -0.720224 0
M  V30 7795 C 711.851 3.9571 -1.86366 0
M  V30 7796 C 710.91 5.06407 -1.42965 0
M  V30 7797 O 709.936 5.27501 -2.13848 0
M  V30 7798 N 711.138 5.79649 -0.314194 0
M  V30 7799 H 713.903 2.1387 -2.09951 0
M  V30 7800 H 711.464 1.04873 -1.23342 0
M  V30 7801 H 713.456 4.0259 -0.412687 0
M  V30 7802 H 712.026 3.12257 0.146396 0
M  V30 7803 H 711.246 3.17324 -2.33879 0
M  V30 7804 H 712.534 4.35576 -2.62966 0
M  V30 7805 H 711.932 5.65025 0.276228 0
M  V30 7806 H 710.489 6.51766 -0.0661641 0
M  V30 7807 N 713.922 1.13953 1.08869 0
M  V30 7808 C 714.885 0.824991 2.13838 0
M  V30 7809 C 715.885 -0.168198 1.59918 0
M  V30 7810 O 717.075 0.0595778 1.74098 0
M  V30 7811 C 714.207 0.228938 3.4013 0
M  V30 7812 H 715.4 1.75521 2.43171 0
M  V30 7813 H 712.953 0.94492 1.24503 0
M  V30 7814 H 713.688 -0.710227 3.16427 0
M  V30 7815 H 713.473 0.944243 3.80561 0
M  V30 7816 H 714.963 0.0259223 4.17592 0
M  V30 7817 N 715.4 -1.26948 0.933913 0
M  V30 7818 C 716.332 -2.25768 0.395137 0
M  V30 7819 C 717.345 -1.55637 -0.477585 0
M  V30 7820 O 718.534 -1.76142 -0.289204 0
M  V30 7821 C 715.634 -3.35874 -0.451882 0
M  V30 7822 C 714.807 -4.3554 0.40299 0
M  V30 7823 C 713.866 -5.24809 -0.3824 0
M  V30 7824 O 712.892 -5.68805 0.212057 0
M  V30 7825 N 714.094 -5.55636 -1.68072 0
M  V30 7826 H 716.859 -2.72634 1.24463 0
M  V30 7827 H 714.42 -1.40639 0.802008 0
M  V30 7828 H 716.412 -3.92542 -0.984516 0
M  V30 7829 H 714.982 -2.8856 -1.20215 0
M  V30 7830 H 714.202 -3.78047 1.11688 0
M  V30 7831 H 715.49 -4.99131 0.987201 0
M  V30 7832 H 714.888 -5.2176 -2.18592 0
M  V30 7833 H 713.445 -6.14978 -2.15975 0
M  V30 7834 N 716.879 -0.700114 -1.41195 0
M  V30 7835 C 718.295 -0.372114 -1.55201 0
M  V30 7836 C 718.495 1.12053 -1.6747 0
M  V30 7837 O 717.551 1.90642 -1.65566 0
M  V30 7838 C 718.864 -1.12462 -2.78878 0
M  V30 7839 C 720.412 -1.10941 -2.92679 0
M  V30 7840 C 720.887 -1.84376 -4.19249 0
M  V30 7841 N 722.378 -1.81368 -4.26216 0
M  V30 7842 C 723.113 -2.35024 -5.23021 0
M  V30 7843 N 722.609 -2.9717 -6.25829 0
M  V30 7844 N 724.402 -2.25254 -5.14992 0
M  V30 7845 H 716.553 -1.66816 -1.31477 0
M  V30 7846 H 718.816 -0.704223 -0.634644 0
M  V30 7847 H 718.522 -2.17937 -2.76037 0
M  V30 7848 H 718.396 -0.706152 -3.70531 0
M  V30 7849 H 720.783 -0.062911 -2.95033 0
M  V30 7850 H 720.864 -1.56698 -2.02187 0
M  V30 7851 H 720.508 -2.89008 -4.17656 0
M  V30 7852 H 720.438 -1.3605 -5.08722 0
M  V30 7853 H 722.929 -1.36062 -3.52556 0
M  V30 7854 H 723.242 -3.35668 -6.96094 0
M  V30 7855 H 721.587 -3.01249 -6.26318 0
M  V30 7856 H 724.778 -1.76372 -4.33602 0
M  V30 7857 H 724.951 -2.67373 -5.90268 0
M  V30 7858 N 718.357 1.51182 -0.445186 0
M  V30 7859 C 719.582 2.07056 0.119445 0
M  V30 7860 C 720.007 1.30966 1.35016 0
M  V30 7861 O 719.365 0.349827 1.77893 0
M  V30 7862 C 719.413 3.58234 0.412428 0
M  V30 7863 O 718.517 3.84249 1.49754 0
M  V30 7864 H 717.858 0.663998 -0.00157797 0
M  V30 7865 H 720.388 1.94699 -0.628779 0
M  V30 7866 H 720.398 4.02617 0.660583 0
M  V30 7867 H 719.073 4.13038 -0.487049 0
M  V30 7868 H 717.65 3.51724 1.23873 0
M  V30 7869 N 719.835 0.176821 1.56605 0
M  V30 7870 C 721.063 -0.472828 2.01425 0
M  V30 7871 C 721.478 -1.56436 1.05703 0
M  V30 7872 O 720.835 -1.82405 0.058808 0
M  V30 7873 C 720.886 -1.04607 3.46034 0
M  V30 7874 O 720.607 0.00189608 4.381 0
M  V30 7875 C 722.108 -1.7734 4.06282 0
M  V30 7876 H 719.328 -0.120503 0.660091 0
M  V30 7877 H 721.872 0.280166 2.02572 0
M  V30 7878 H 720.027 -1.74953 3.45645 0
M  V30 7879 H 720.441 -0.422118 5.22799 0
M  V30 7880 H 721.915 -2.12703 5.09374 0
M  V30 7881 H 722.392 -2.67043 3.4869 0
M  V30 7882 H 722.998 -1.11623 4.10391 0
M  V30 7883 N 721.313 -1.57302 -0.09688 0
M  V30 7884 C 722.243 -2.0497 -1.11846 0
M  V30 7885 C 723.224 -0.938278 -1.41882 0
M  V30 7886 O 724.409 -1.20943 -1.51942 0
M  V30 7887 C 721.539 -2.47264 -2.43881 0
M  V30 7888 C 720.493 -3.62053 -2.28257 0
M  V30 7889 C 719.819 -3.90318 -3.65453 0
M  V30 7890 C 721.119 -4.93005 -1.72461 0
M  V30 7891 H 722.813 -2.90567 -0.721888 0
M  V30 7892 H 720.359 -1.39786 -0.345803 0
M  V30 7893 H 722.312 -2.7922 -3.15617 0
M  V30 7894 H 721.036 -1.58664 -2.8547 0
M  V30 7895 H 719.695 -3.30341 -1.58967 0
M  V30 7896 H 719.343 -2.98889 -4.04567 0
M  V30 7897 H 719.043 -4.67597 -3.55846 0
M  V30 7898 H 720.567 -4.24747 -4.3866 0
M  V30 7899 H 721.981 -5.23354 -2.34036 0
M  V30 7900 H 720.378 -5.74436 -1.73618 0
M  V30 7901 H 721.448 -4.80053 -0.683898 0
M  V30 7902 N 722.791 0.367657 -1.53252 0
M  V30 7903 C 723.701 1.47415 -1.82499 0
M  V30 7904 C 724.717 1.58711 -0.713222 0
M  V30 7905 O 725.893 1.74644 -1.00306 0
M  V30 7906 C 722.958 2.82706 -2.00694 0
M  V30 7907 C 722.019 2.80955 -3.24596 0
M  V30 7908 C 721.252 4.09793 -3.41914 0
M  V30 7909 O 721.475 5.05852 -2.63572 0
M  V30 7910 O 720.409 4.15731 -4.3526 0
M  V30 7911 H 724.235 1.25624 -2.765 0
M  V30 7912 H 721.82 0.557559 -1.38606 0
M  V30 7913 H 723.702 3.62873 -2.14246 0
M  V30 7914 H 722.377 3.04479 -1.09883 0
M  V30 7915 H 721.284 1.99494 -3.16469 0
M  V30 7916 H 722.617 2.64136 -4.15323 0
M  V30 7917 N 724.269 1.44576 0.627338 0
M  V30 7918 C 725.499 1.50829 1.41189 0
M  V30 7919 C 725.907 0.133083 1.88731 0
M  V30 7920 O 725.25 -0.87199 1.61685 0
M  V30 7921 C 725.312 2.41449 2.66351 0
M  V30 7922 C 724.976 3.88549 2.40579 0
M  V30 7923 C 725.973 4.78981 2.0217 0
M  V30 7924 C 723.658 4.33287 2.54102 0
M  V30 7925 C 725.652 6.12153 1.77618 0
M  V30 7926 C 723.339 5.66505 2.29163 0
M  V30 7927 C 724.337 6.55756 1.9098 0
M  V30 7928 O 724.025 7.86506 1.66321 0
M  V30 7929 H 723.757 0.513797 0.439304 0
M  V30 7930 H 726.311 1.90256 0.774059 0
M  V30 7931 H 724.541 1.96955 3.32784 0
M  V30 7932 H 726.23 2.38608 3.28361 0
M  V30 7933 H 726.996 4.45689 1.91277 0
M  V30 7934 H 722.875 3.64074 2.82792 0
M  V30 7935 H 726.419 6.81776 1.47739 0
M  V30 7936 H 722.316 5.99358 2.39668 0
M  V30 7937 H 723.084 7.98341 1.80536 0
M  V30 7938 N 725.747 -0.868086 1.31537 0
M  V30 7939 C 726.972 -1.65926 1.24432 0
M  V30 7940 C 727.397 -1.87169 -0.186936 0
M  V30 7941 O 726.755 -1.4148 -1.13371 0
M  V30 7942 C 726.803 -3.00347 1.9956 0
M  V30 7943 O 725.907 -3.90221 1.33422 0
M  V30 7944 H 725.248 -0.506375 0.429512 0
M  V30 7945 H 727.778 -1.0822 1.73637 0
M  V30 7946 H 727.788 -3.50269 2.09226 0
M  V30 7947 H 726.463 -2.84205 3.03645 0
M  V30 7948 H 725.04 -3.48672 1.32219 0
M  V30 7949 N 727.225 -1.14528 -1.08264 0
M  V30 7950 C 728.173 -0.829201 -2.17318 0
M  V30 7951 C 729.167 0.193521 -1.68291 0
M  V30 7952 O 730.373 0.0494744 -1.79932 0
M  V30 7953 H 726.748 -0.250435 -0.709074 0
M  V30 7954 H 728.719 -1.75683 -2.41201 0
M  V30 7955 C 727.468 -0.324663 -3.46181 0
M  V30 7956 H 726.791 -1.10299 -3.84284 0
M  V30 7957 H 728.231 -0.142059 -4.23762 0
M  V30 7958 C 726.69 0.952033 -3.23169 0
M  V30 7959 O 727.22 2.02549 -3.46896 0
M  V30 7960 N 725.426 0.887854 -2.76705 0
M  V30 7961 H 724.973 0.0141402 -2.57596 0
M  V30 7962 H 724.931 1.74263 -2.61686 0
M  V30 7963 N 728.703 1.26451 -0.940633 0
M  V30 7964 C 729.613 2.30128 -0.455881 0
M  V30 7965 C 730.629 1.67536 0.469867 0
M  V30 7966 O 731.805 1.98344 0.349529 0
M  V30 7967 C 728.87 3.45634 0.271648 0
M  V30 7968 C 727.931 4.23709 -0.690594 0
M  V30 7969 C 727.164 5.337 0.00231047 0
M  V30 7970 O 727.387 5.57215 1.21935 0
M  V30 7971 O 726.321 5.98091 -0.676111 0
M  V30 7972 H 730.147 2.73655 -1.31707 0
M  V30 7973 H 727.732 1.3164 -0.706497 0
M  V30 7974 H 729.614 4.15853 0.681486 0
M  V30 7975 H 728.289 3.04138 1.10824 0
M  V30 7976 H 727.196 3.55974 -1.15037 0
M  V30 7977 H 728.529 4.68953 -1.49478 0
M  V30 7978 N 730.181 0.707592 1.40822 0
M  V30 7979 C 731.597 0.38034 1.55002 0
M  V30 7980 C 731.797 -1.11163 1.68062 0
M  V30 7981 O 730.853 -1.89761 1.66574 0
M  V30 7982 C 732.166 1.1394 2.78277 0
M  V30 7983 C 733.714 1.12492 2.92087 0
M  V30 7984 C 734.189 1.86597 4.18265 0
M  V30 7985 N 735.68 1.83626 4.25248 0
M  V30 7986 C 736.415 2.37794 5.21768 0
M  V30 7987 N 735.911 3.00485 6.24244 0
M  V30 7988 N 737.704 2.27982 5.13791 0
M  V30 7989 H 729.855 1.67511 1.3059 0
M  V30 7990 H 732.118 0.707579 0.630901 0
M  V30 7991 H 731.824 2.19398 2.74877 0
M  V30 7992 H 731.698 0.725793 3.70151 0
M  V30 7993 H 734.085 0.0785564 2.94995 0
M  V30 7994 H 734.166 1.57768 2.01353 0
M  V30 7995 H 733.81 2.91219 4.16118 0
M  V30 7996 H 733.74 1.38746 5.07993 0
M  V30 7997 H 736.231 1.3793 3.51829 0
M  V30 7998 H 736.544 3.39355 6.94304 0
M  V30 7999 H 734.889 3.04567 6.24711 0
M  V30 8000 H 738.08 1.78669 4.3266 0
M  V30 8001 H 738.253 2.70499 5.88841 0
M  V30 8002 N 731.66 -1.50943 0.453197 0
M  V30 8003 C 732.59 -2.31005 -0.34044 0
M  V30 8004 C 733.571 -1.37112 -1.00669 0
M  V30 8005 O 734.756 -1.66033 -1.0073 0
M  V30 8006 C 731.886 -3.16358 -1.433 0
M  V30 8007 C 730.84 -4.18658 -0.889363 0
M  V30 8008 C 730.166 -4.92633 -2.07887 0
M  V30 8009 C 731.466 -5.22227 0.0871142 0
M  V30 8010 H 733.16 -2.97601 0.327723 0
M  V30 8011 H 730.706 -1.43119 0.159054 0
M  V30 8012 H 732.659 -3.71155 -1.99555 0
M  V30 8013 H 731.383 -2.47613 -2.12968 0
M  V30 8014 H 730.042 -3.64936 -0.348915 0
M  V30 8015 H 729.69 -4.20376 -2.76211 0
M  V30 8016 H 729.39 -5.61819 -1.72143 0
M  V30 8017 H 730.914 -5.50258 -2.64666 0
M  V30 8018 H 732.328 -5.72001 -0.385656 0
M  V30 8019 H 730.725 -5.99032 0.357926 0
M  V30 8020 H 731.795 -4.74077 1.01879 0
M  V30 8021 N 733.138 -0.185124 -1.56509 0
M  V30 8022 C 734.085 0.739729 -2.18624 0
M  V30 8023 C 735.055 1.217 -1.13042 0
M  V30 8024 O 736.24 1.28268 -1.41251 0
M  V30 8025 C 733.38 1.95787 -2.84186 0
M  V30 8026 C 732.493 1.52289 -4.04267 0
M  V30 8027 C 731.628 2.69576 -4.57714 0
M  V30 8028 C 730.667 2.22636 -5.70175 0
M  V30 8029 N 729.804 3.33065 -6.18071 0
M  V30 8030 H 734.644 0.203269 -2.97306 0
M  V30 8031 H 732.181 0.0885946 -1.46833 0
M  V30 8032 H 734.139 2.67253 -3.20361 0
M  V30 8033 H 732.769 2.4678 -2.08085 0
M  V30 8034 H 731.821 0.704458 -3.7382 0
M  V30 8035 H 733.133 1.13843 -4.85635 0
M  V30 8036 H 732.287 3.4918 -4.96143 0
M  V30 8037 H 731.026 3.1129 -3.75433 0
M  V30 8038 H 730.031 1.41483 -5.31284 0
M  V30 8039 H 731.256 1.81964 -6.54267 0
M  V30 8040 H 729.202 3.74328 -5.38715 0
M  V30 8041 H 729.119 2.98756 -6.94464 0
M  V30 8042 H 730.387 4.12912 -6.61153 0
M  V30 8043 N 734.616 1.57351 0.0885366 0
M  V30 8044 C 735.548 1.99221 1.13329 0
M  V30 8045 C 736.561 0.895705 1.35945 0
M  V30 8046 O 737.75 1.17376 1.34481 0
M  V30 8047 C 734.85 2.3016 2.48756 0
M  V30 8048 C 734.023 3.61444 2.46327 0
M  V30 8049 C 733.082 3.80244 3.63732 0
M  V30 8050 O 732.108 4.52024 3.45924 0
M  V30 8051 N 733.31 3.2132 4.8346 0
M  V30 8052 H 736.075 2.89456 0.776862 0
M  V30 8053 H 733.636 1.59505 0.277428 0
M  V30 8054 H 735.628 2.39925 3.25911 0
M  V30 8055 H 734.198 1.459 2.76464 0
M  V30 8056 H 733.418 3.62588 1.54673 0
M  V30 8057 H 734.706 4.47678 2.41789 0
M  V30 8058 H 734.104 2.63028 5.00832 0
M  V30 8059 H 732.661 3.3656 5.58185 0
M  V30 8060 N 736.094 -0.359525 1.53444 0
M  V30 8061 C 737.322 -1.12198 1.73837 0
M  V30 8062 C 737.737 -1.82854 0.470107 0
M  V30 8063 O 737.094 -1.73781 -0.557349 0
M  V30 8064 C 737.145 -2.14769 2.90786 0
M  V30 8065 O 736.866 -1.46989 4.12706 0
M  V30 8066 C 738.367 -3.03514 3.231 0
M  V30 8067 H 735.587 -0.33524 0.581253 0
M  V30 8068 H 738.131 -0.416598 2.00212 0
M  V30 8069 H 736.286 -2.80896 2.66788 0
M  V30 8070 H 736.7 -2.15378 4.78239 0
M  V30 8071 H 738.174 -3.71453 4.08322 0
M  V30 8072 H 738.651 -3.68658 2.38721 0
M  V30 8073 H 739.257 -2.42996 3.49046 0
M  V30 8074 N 737.572 -1.44907 -0.619662 0
M  V30 8075 C 738.52 -1.52971 -1.75222 0
M  V30 8076 C 739.514 -0.400531 -1.64597 0
M  V30 8077 O 740.72 -0.575952 -1.70537 0
M  V30 8078 H 737.095 -0.480241 -0.578682 0
M  V30 8079 H 739.066 -2.48269 -1.65545 0
M  V30 8080 C 737.815 -1.50204 -3.13583 0
M  V30 8081 H 737.138 -2.36412 -3.22412 0
M  V30 8082 H 738.578 -1.59905 -3.92691 0
M  V30 8083 C 737.037 -0.22455 -3.36151 0
M  V30 8084 O 737.567 0.700574 -3.95544 0
M  V30 8085 N 735.773 -0.124052 -2.90335 0
M  V30 8086 H 735.32 -0.87774 -2.42185 0
M  V30 8087 H 735.278 0.729914 -3.0581 0
M  V30 8088 N 739.05 0.861098 -1.31996 0
M  V30 8089 C 739.96 2.00154 -1.22374 0
M  V30 8090 C 740.976 1.73447 -0.138631 0
M  V30 8091 O 742.152 1.98191 -0.358104 0
M  V30 8092 C 739.217 3.33696 -0.940645 0
M  V30 8093 C 738.278 3.73668 -2.11355 0
M  V30 8094 C 737.511 5.00837 -1.84386 0
M  V30 8095 O 737.734 5.64996 -0.783287 0
M  V30 8096 O 736.668 5.37787 -2.70313 0
M  V30 8097 H 740.494 2.11207 -2.18233 0
M  V30 8098 H 738.079 0.990768 -1.11822 0
M  V30 8099 H 739.961 4.13756 -0.798987 0
M  V30 8100 H 738.636 3.23698 -0.0121636 0
M  V30 8101 H 737.543 2.94211 -2.31065 0
M  V30 8102 H 738.876 3.88303 -3.02459 0
M  V30 8103 N 740.528 1.15101 1.07655 0
M  V30 8104 C 741.461 0.788522 2.14144 0
M  V30 8105 C 742.439 -0.233635 1.60913 0
M  V30 8106 O 743.623 -0.120908 1.88112 0
M  V30 8107 C 740.75 0.172033 3.38263 0
M  V30 8108 C 739.796 1.16559 4.10264 0
M  V30 8109 S 740.629 2.70627 4.62084 0
M  V30 8110 C 741.785 2.10389 5.8948 0
M  V30 8111 H 742.018 1.69047 2.44561 0
M  V30 8112 H 739.551 0.973033 1.19881 0
M  V30 8113 H 741.509 -0.177223 4.10117 0
M  V30 8114 H 740.17 -0.707468 3.06029 0
M  V30 8115 H 739.363 0.6824 4.99359 0
M  V30 8116 H 738.965 1.45923 3.44358 0
M  V30 8117 H 741.257 1.46405 6.61492 0
M  V30 8118 H 742.2 2.97639 6.42508 0
M  V30 8119 H 742.608 1.54816 5.42856 0
M  V30 8120 N 742.006 -1.2595 0.947325 0
M  V30 8121 C 742.936 -2.28521 0.479604 0
M  V30 8122 C 743.917 -1.63469 -0.470293 0
M  V30 8123 O 745.102 -1.90627 -0.370824 0
M  V30 8124 C 742.232 -3.46397 -0.250289 0
M  V30 8125 C 741.186 -4.23578 0.613643 0
M  V30 8126 C 740.512 -5.34131 -0.246568 0
M  V30 8127 C 741.812 -4.86979 1.88809 0
M  V30 8128 H 743.506 -2.67895 1.33688 0
M  V30 8129 H 741.052 -1.28783 0.644274 0
M  V30 8130 H 743.005 -4.17269 -0.588576 0
M  V30 8131 H 741.729 -3.05993 -1.14175 0
M  V30 8132 H 740.388 -3.54478 0.93491 0
M  V30 8133 H 740.036 -4.89968 -1.13756 0
M  V30 8134 H 739.736 -5.86683 0.328123 0
M  V30 8135 H 741.26 -6.07839 -0.579986 0
M  V30 8136 H 742.674 -5.50034 1.61666 0
M  V30 8137 H 741.071 -5.49675 2.40784 0
M  V30 8138 H 742.141 -4.09575 2.5957 0
M  V30 8139 N 743.484 -0.715051 -1.40445 0
M  V30 8140 C 744.9 -0.388555 -1.54798 0
M  V30 8141 C 745.1 1.10271 -1.68649 0
M  V30 8142 O 744.156 1.88875 -1.67578 0
M  V30 8143 C 745.469 -1.15414 -2.77669 0
M  V30 8144 C 747.017 -1.14039 -2.91486 0
M  V30 8145 C 747.492 -1.88812 -4.1727 0
M  V30 8146 N 748.983 -1.85878 -4.24268 0
M  V30 8147 C 749.718 -2.40558 -5.20499 0
M  V30 8148 N 749.214 -3.03791 -6.22642 0
M  V30 8149 N 751.007 -2.30703 -5.12574 0
M  V30 8150 H 743.158 -1.68201 -1.297 0
M  V30 8151 H 745.421 -0.710915 -0.627139 0
M  V30 8152 H 745.127 -2.20853 -2.7371 0
M  V30 8153 H 745.001 -0.745412 -3.69761 0
M  V30 8154 H 747.388 -0.0941996 -2.9495 0
M  V30 8155 H 747.469 -1.58834 -2.00513 0
M  V30 8156 H 747.113 -2.93422 -4.14568 0
M  V30 8157 H 747.043 -1.41438 -5.0725 0
M  V30 8158 H 749.534 -1.39794 -3.51093 0
M  V30 8159 H 749.847 -3.43032 -6.92495 0
M  V30 8160 H 748.192 -3.07875 -6.23087 0
M  V30 8161 H 751.383 -1.80961 -4.31707 0
M  V30 8162 H 751.556 -2.73618 -5.87398 0
M  V30 8163 N 744.962 1.50701 -0.461195 0
M  V30 8164 C 746.21 2.01867 0.0970051 0
M  V30 8165 C 746.531 1.34591 1.41104 0
M  V30 8166 O 745.801 0.488041 1.89723 0
M  V30 8167 H 744.381 0.74599 0.0388392 0
M  V30 8168 H 747.043 1.85129 -0.609357 0
M  V30 8169 H 746.139 3.11051 0.255688 0
M  V30 8170 N 746.441 0.193421 1.56409 0
M  V30 8171 C 747.69 -0.445995 1.96707 0
M  V30 8172 C 748.003 -1.62876 1.08309 0
M  V30 8173 O 749.209 -2.33586 1.38383 0
M  V30 8174 C 747.665 -0.844863 3.49843 0
M  V30 8175 C 747.273 0.31352 4.46902 0
M  V30 8176 C 749.017 -1.45146 3.98915 0
M  V30 8177 C 746.924 -0.106214 5.91305 0
M  V30 8178 H 745.854 -0.170398 0.734493 0
M  V30 8179 H 748.505 0.285172 1.81271 0
M  V30 8180 H 746.887 -1.63265 3.60778 0
M  V30 8181 H 748.061 1.09103 4.47698 0
M  V30 8182 H 746.376 0.8315 4.08014 0
M  V30 8183 H 748.973 -1.77792 5.04276 0
M  V30 8184 H 749.316 -2.35734 3.43126 0
M  V30 8185 H 749.849 -0.727675 3.91088 0
M  V30 8186 H 746.588 0.765442 6.51016 0
M  V30 8187 H 746.108 -0.848623 5.93766 0
M  V30 8188 H 747.787 -0.542588 6.44721 0
M  V30 8189 N 747.919 -1.57396 -0.0801906 0
M  V30 8190 C 748.866 -2.03107 -1.09618 0
M  V30 8191 C 749.836 -0.910118 -1.38946 0
M  V30 8192 O 751.021 -1.17719 -1.50156 0
M  V30 8193 C 748.161 -2.47293 -2.40708 0
M  V30 8194 C 747.274 -3.72972 -2.17982 0
M  V30 8195 C 746.409 -4.05975 -3.42576 0
M  V30 8196 C 745.448 -5.24719 -3.15177 0
M  V30 8197 N 744.585 -5.53401 -4.32078 0
M  V30 8198 H 749.425 -2.89677 -0.69939 0
M  V30 8199 H 746.962 -1.43263 -0.333785 0
M  V30 8200 H 748.92 -2.7096 -3.17232 0
M  V30 8201 H 747.55 -1.63713 -2.78205 0
M  V30 8202 H 746.602 -3.56693 -1.32189 0
M  V30 8203 H 747.914 -4.59638 -1.93738 0
M  V30 8204 H 747.068 -4.30498 -4.275 0
M  V30 8205 H 745.807 -3.17859 -3.69887 0
M  V30 8206 H 744.812 -5 -2.28648 0
M  V30 8207 H 746.037 -6.14445 -2.89197 0
M  V30 8208 H 743.983 -4.68245 -4.59437 0
M  V30 8209 H 743.9 -6.34469 -4.11078 0
M  V30 8210 H 745.168 -5.8247 -5.18024 0
M  V30 8211 N 749.397 0.351382 -1.53633 0
M  V30 8212 C 750.327 1.43688 -1.84055 0
M  V30 8213 C 751.308 1.55251 -0.695073 0
M  V30 8214 O 752.493 1.69587 -0.946257 0
M  V30 8215 C 749.623 2.80843 -2.04315 0
M  V30 8216 C 748.577 2.84094 -3.20117 0
M  V30 8217 C 747.903 4.2406 -3.25696 0
M  V30 8218 C 749.203 2.50334 -4.58399 0
M  V30 8219 H 750.897 1.18478 -2.74961 0
M  V30 8220 H 748.443 0.568509 -1.32303 0
M  V30 8221 H 750.396 3.56821 -2.2418 0
M  V30 8222 H 749.12 3.07471 -1.10132 0
M  V30 8223 H 747.779 2.10568 -3.00094 0
M  V30 8224 H 747.427 4.47785 -2.29123 0
M  V30 8225 H 747.127 4.27147 -4.03509 0
M  V30 8226 H 748.651 5.0189 -3.47762 0
M  V30 8227 H 750.065 3.16025 -4.78332 0
M  V30 8228 H 748.462 2.64717 -5.38558 0
M  V30 8229 H 749.532 1.45542 -4.62543 0
M  V30 8230 N 750.875 1.45233 0.611969 0
M  V30 8231 C 751.805 1.5641 1.73373 0
M  V30 8232 C 752.786 0.415896 1.64937 0
M  V30 8233 O 753.971 0.638478 1.83404 0
M  V30 8234 C 751.101 1.52627 3.11965 0
M  V30 8235 C 750.055 2.66119 3.35208 0
M  V30 8236 C 749.381 2.4739 4.74028 0
M  V30 8237 C 750.681 4.08157 3.25891 0
M  V30 8238 H 752.375 2.50307 1.64277 0
M  V30 8239 H 749.921 1.20467 0.788904 0
M  V30 8240 H 751.874 1.59043 3.90235 0
M  V30 8241 H 750.598 0.552564 3.21892 0
M  V30 8242 H 749.257 2.59123 2.59327 0
M  V30 8243 H 748.905 1.48168 4.80682 0
M  V30 8244 H 748.605 3.23494 4.90536 0
M  V30 8245 H 750.129 2.55653 5.54503 0
M  V30 8246 H 751.543 4.1642 3.9404 0
M  V30 8247 H 749.94 4.84617 3.5393 0
M  V30 8248 H 751.01 4.30374 2.23397 0
M  V30 8249 N 752.353 -0.854086 1.3245 0
M  V30 8250 C 753.3 -1.96271 1.21434 0
M  V30 8251 C 754.27 -1.6582 0.0963851 0
M  V30 8252 O 755.455 -1.88851 0.27203 0
M  V30 8253 C 752.595 -3.31939 0.943952 0
M  V30 8254 C 751.708 -3.74885 2.14675 0
M  V30 8255 C 750.843 -4.99347 1.81179 0
M  V30 8256 C 749.882 -5.34785 2.97777 0
M  V30 8257 N 749.019 -6.50425 2.6437 0
M  V30 8258 H 753.859 -2.05025 2.16261 0
M  V30 8259 H 751.396 -1.00348 1.07558 0
M  V30 8260 H 753.354 -4.10076 0.767675 0
M  V30 8261 H 751.984 -3.22784 0.0324763 0
M  V30 8262 H 751.036 -2.92396 2.43328 0
M  V30 8263 H 752.348 -3.97068 3.01891 0
M  V30 8264 H 751.502 -5.85193 1.60107 0
M  V30 8265 H 750.241 -4.79101 0.911777 0
M  V30 8266 H 749.246 -4.47451 3.1948 0
M  V30 8267 H 750.471 -5.56988 3.88511 0
M  V30 8268 H 748.417 -6.31695 1.7691 0
M  V30 8269 H 748.334 -6.7263 3.45116 0
M  V30 8270 H 749.602 -7.39422 2.46729 0
M  V30 8271 N 753.831 -1.1567 -1.07043 0
M  V30 8272 C 754.761 -0.879348 -2.16309 0
M  V30 8273 C 755.742 0.171311 -1.69235 0
M  V30 8274 O 756.927 0.0250175 -1.94184 0
M  V30 8275 C 754.057 -0.371307 -3.45309 0
M  V30 8276 C 753.011 -1.359 -4.05851 0
M  V30 8277 C 752.337 -0.709678 -5.29969 0
M  V30 8278 C 753.637 -2.72606 -4.45514 0
M  V30 8279 H 755.331 -1.79308 -2.39768 0
M  V30 8280 H 752.877 -0.863558 -1.15233 0
M  V30 8281 H 754.83 -0.164798 -4.21078 0
M  V30 8282 H 753.554 0.577906 -3.21446 0
M  V30 8283 H 752.213 -1.55193 -3.32131 0
M  V30 8284 H 751.861 0.245782 -5.02399 0
M  V30 8285 H 751.561 -1.36886 -5.71433 0
M  V30 8286 H 753.085 -0.513015 -6.08441 0
M  V30 8287 H 754.499 -2.57141 -5.12398 0
M  V30 8288 H 752.896 -3.34927 -4.97939 0
M  V30 8289 H 753.966 -3.28434 -3.56734 0
M  V30 8290 N 755.309 1.25446 -0.953992 0
M  V30 8291 C 756.539 1.96929 -0.624688 0
M  V30 8292 C 756.947 1.71112 0.807292 0
M  V30 8293 O 756.29 0.983512 1.55154 0
M  V30 8294 C 756.352 3.50425 -0.802676 0
M  V30 8295 C 756.016 3.99916 -2.21169 0
M  V30 8296 C 757.013 4.10662 -3.18831 0
M  V30 8297 C 754.698 4.33598 -2.53571 0
M  V30 8298 C 756.692 4.54401 -4.46988 0
M  V30 8299 C 754.379 4.77024 -3.81958 0
M  V30 8300 C 755.377 4.87388 -4.78478 0
M  V30 8301 O 755.065 5.29851 -6.04577 0
M  V30 8302 H 754.797 0.634511 -0.233179 0
M  V30 8303 H 757.351 1.60591 -1.28061 0
M  V30 8304 H 755.581 3.86596 -0.0896044 0
M  V30 8305 H 757.27 4.03117 -0.47452 0
M  V30 8306 H 758.036 3.84872 -2.95124 0
M  V30 8307 H 753.915 4.24757 -1.79171 0
M  V30 8308 H 757.459 4.62406 -5.22328 0
M  V30 8309 H 753.356 5.02258 -4.05471 0
M  V30 8310 H 754.124 5.48039 -6.07944 0
M  V30 8311 N 756.787 0.722489 1.40064 0
M  V30 8312 C 757.75 0.0830209 2.2905 0
M  V30 8313 C 758.75 -0.680208 1.45705 0
M  V30 8314 O 759.94 -0.511084 1.66534 0
M  V30 8315 C 757.072 -0.892092 3.29021 0
M  V30 8316 H 758.265 0.866848 2.87099 0
M  V30 8317 H 755.818 0.487556 1.48501 0
M  V30 8318 H 756.553 -1.70273 2.76003 0
M  V30 8319 H 756.338 -0.34761 3.90556 0
M  V30 8320 H 757.828 -1.33648 3.95636 0
M  V30 8321 N 758.265 -1.50454 0.469181 0
M  V30 8322 C 759.511 -2.03248 -0.0787241 0
M  V30 8323 C 759.866 -1.34499 -1.37578 0
M  V30 8324 O 759.159 -0.461173 -1.85967 0
M  V30 8325 C 759.353 -3.55963 -0.320207 0
M  V30 8326 C 759.182 -4.3951 0.951893 0
M  V30 8327 C 757.952 -4.82689 1.49465 0
M  V30 8328 C 760.15 -4.79999 1.84677 0
M  V30 8329 N 758.132 -5.50553 2.71597 0
M  V30 8330 C 759.503 -5.47254 2.91398 0
M  V30 8331 C 761.558 -4.61959 1.85738 0
M  V30 8332 C 760.261 -5.98381 3.99166 0
M  V30 8333 C 762.287 -5.14024 2.92461 0
M  V30 8334 C 761.649 -5.81253 3.97901 0
M  V30 8335 H 757.748 -0.78192 0.0111715 0
M  V30 8336 H 760.332 -1.83986 0.636961 0
M  V30 8337 H 758.503 -3.75174 -1.00493 0
M  V30 8338 H 760.235 -3.95407 -0.862285 0
M  V30 8339 H 756.99 -4.61948 1.0441 0
M  V30 8340 H 757.414 -5.89093 3.33615 0
M  V30 8341 H 762.056 -4.09416 1.05539 0
M  V30 8342 H 759.774 -6.49961 4.80183 0
M  V30 8343 H 763.36 -5.01897 2.94263 0
M  V30 8344 H 762.24 -6.20814 4.79123 0
M  V30 8345 N 759.743 -0.201713 -1.56304 0
M  V30 8346 C 760.653 0.728296 -2.23009 0
M  V30 8347 C 761.669 1.22945 -1.23128 0
M  V30 8348 O 762.845 1.27523 -1.55884 0
M  V30 8349 C 759.91 1.92792 -2.88153 0
M  V30 8350 C 758.971 1.47068 -4.03323 0
M  V30 8351 C 758.204 2.61312 -4.65351 0
M  V30 8352 O 758.427 3.7896 -4.26317 0
M  V30 8353 O 757.361 2.33646 -5.54701 0
M  V30 8354 H 761.187 0.190166 -3.03104 0
M  V30 8355 H 758.772 0.0278725 -1.49374 0
M  V30 8356 H 760.654 2.6289 -3.29343 0
M  V30 8357 H 759.329 2.45452 -2.11033 0
M  V30 8358 H 758.236 0.738299 -3.66742 0
M  V30 8359 H 759.569 0.990666 -4.82127 0
M  V30 8360 N 761.222 1.57436 0.0718424 0
M  V30 8361 C 762.17 2.04725 1.10411 0
M  V30 8362 C 763.164 0.952579 1.4008 0
M  V30 8363 O 764.37 1.13769 1.39487 0
M  V30 8364 H 760.745 0.652749 0.373393 0
M  V30 8365 H 762.716 2.90569 0.679126 0
M  V30 8366 C 761.465 2.5068 2.40946 0
M  V30 8367 H 760.788 3.34505 2.18967 0
M  V30 8368 H 762.228 2.87521 3.11621 0
M  V30 8369 C 760.687 1.38971 3.06902 0
M  V30 8370 O 761.217 0.731786 3.94978 0
M  V30 8371 N 759.423 1.13485 2.67525 0
M  V30 8372 H 758.97 1.67168 1.95991 0
M  V30 8373 H 758.928 0.389467 3.11978 0
M  V30 8374 N 762.7 -0.34323 1.53817 0
M  V30 8375 C 763.949 -1.08086 1.70295 0
M  V30 8376 C 764.262 -1.89794 0.47302 0
M  V30 8377 O 765.468 -2.66498 0.518754 0
M  V30 8378 C 763.924 -1.97097 3.01133 0
M  V30 8379 C 763.532 -1.20594 4.31464 0
M  V30 8380 C 765.276 -2.70715 3.26976 0
M  V30 8381 C 763.183 -2.08636 5.53376 0
M  V30 8382 H 762.113 -0.407228 0.634572 0
M  V30 8383 H 764.764 -0.340328 1.80316 0
M  V30 8384 H 763.146 -2.74971 2.84969 0
M  V30 8385 H 764.32 -0.476282 4.58332 0
M  V30 8386 H 762.635 -0.587426 4.12236 0
M  V30 8387 H 765.232 -3.36857 4.15248 0
M  V30 8388 H 765.575 -3.37299 2.43998 0
M  V30 8389 H 766.108 -1.99914 3.43917 0
M  V30 8390 H 762.847 -1.46594 6.38898 0
M  V30 8391 H 762.367 -2.7939 5.30755 0
M  V30 8392 H 764.046 -2.67682 5.89029 0
M  V30 8393 N 764.178 -1.45556 -0.604258 0
M  V30 8394 C 765.425 -1.49746 -1.36317 0
M  V30 8395 C 765.753 -0.140516 -1.93992 0
M  V30 8396 O 765.008 0.861244 -1.7573 0
M  V30 8397 C 765.307 -2.52697 -2.52743 0
M  V30 8398 C 764.973 -3.97315 -2.13195 0
M  V30 8399 C 763.635 -4.36692 -2.02123 0
M  V30 8400 C 765.987 -4.88249 -1.8238 0
M  V30 8401 C 763.315 -5.64895 -1.58463 0
M  V30 8402 C 765.667 -6.16867 -1.40205 0
M  V30 8403 C 764.331 -6.55172 -1.27694 0
M  V30 8404 H 763.601 -0.54796 -0.49882 0
M  V30 8405 H 766.248 -1.7892 -0.682643 0
M  V30 8406 H 764.553 -2.17105 -3.26148 0
M  V30 8407 H 766.25 -2.53176 -3.10971 0
M  V30 8408 H 762.84 -3.66176 -2.22739 0
M  V30 8409 H 767.024 -4.58561 -1.89829 0
M  V30 8410 H 762.28 -5.93365 -1.47402 0
M  V30 8411 H 766.454 -6.86771 -1.15408 0
M  V30 8412 H 764.081 -7.54411 -0.936375 0
M  V30 8413 N 765.656 0.84705 -1.32902 0
M  V30 8414 C 767.072 1.13645 -1.12058 0
M  V30 8415 C 767.272 2.01281 0.093937 0
M  V30 8416 O 766.328 2.4026 0.776608 0
M  V30 8417 C 767.641 1.80644 -2.40392 0
M  V30 8418 C 769.189 1.93246 -2.46221 0
M  V30 8419 C 769.664 2.6366 -3.74496 0
M  V30 8420 N 771.155 2.71179 -3.75521 0
M  V30 8421 C 771.89 3.26332 -4.71482 0
M  V30 8422 N 771.386 3.82236 -5.77813 0
M  V30 8423 N 773.179 3.24507 -4.58968 0
M  V30 8424 H 765.33 0.263612 -2.10758 0
M  V30 8425 H 767.593 0.17944 -0.930863 0
M  V30 8426 H 767.299 1.23708 -3.29225 0
M  V30 8427 H 767.173 2.80736 -2.51926 0
M  V30 8428 H 769.56 2.49338 -1.57843 0
M  V30 8429 H 769.641 0.921272 -2.38634 0
M  V30 8430 H 769.285 2.08229 -4.63253 0
M  V30 8431 H 769.215 3.65234 -3.79357 0
M  V30 8432 H 771.706 2.31527 -2.9867 0
M  V30 8433 H 772.019 4.22499 -6.47082 0
M  V30 8434 H 770.364 3.80546 -5.81558 0
M  V30 8435 H 773.555 2.80085 -3.7506 0
M  V30 8436 H 773.728 3.67188 -5.33926 0
M  V30 8437 N 767.134 1.16236 1.06428 0
M  V30 8438 C 768.362 0.967184 1.82902 0
M  V30 8439 C 768.777 -0.484601 1.82475 0
M  V30 8440 O 768.134 -1.33631 1.24294 0
M  V30 8441 C 768.185 1.48534 3.29576 0
M  V30 8442 O 767.906 2.88026 3.3011 0
M  V30 8443 C 769.407 1.33298 4.22784 0
M  V30 8444 H 766.627 0.342923 0.576754 0
M  V30 8445 H 769.171 1.54232 1.34286 0
M  V30 8446 H 767.326 0.952513 3.75508 0
M  V30 8447 H 767.74 3.11721 4.21818 0
M  V30 8448 H 769.214 1.74385 5.23731 0
M  V30 8449 H 769.691 0.278356 4.38317 0
M  V30 8450 H 770.297 1.85535 3.82697 0
M  V30 8451 N 768.612 -1.24939 0.960631 0
M  V30 8452 C 770.028 -1.45039 0.666018 0
M  V30 8453 C 770.228 -1.86021 -0.774501 0
M  V30 8454 O 769.284 -1.99392 -1.54916 0
M  V30 8455 C 770.597 -2.51775 1.64408 0
M  V30 8456 C 772.145 -2.6561 1.65592 0
M  V30 8457 C 772.62 -3.75536 2.62177 0
M  V30 8458 N 774.111 -3.82954 2.60577 0
M  V30 8459 C 774.846 -4.67517 3.31987 0
M  V30 8460 N 774.342 -5.56321 4.1289 0
M  V30 8461 N 776.135 -4.61535 3.20845 0
M  V30 8462 H 768.286 -0.96632 1.89145 0
M  V30 8463 H 770.549 -0.486034 0.813926 0
M  V30 8464 H 770.255 -2.28534 2.67329 0
M  V30 8465 H 770.129 -3.49804 1.41128 0
M  V30 8466 H 772.516 -2.88212 0.633846 0
M  V30 8467 H 772.597 -1.67962 1.92931 0
M  V30 8468 H 772.241 -3.53684 3.64514 0
M  V30 8469 H 772.171 -4.72682 2.32119 0
M  V30 8470 H 774.662 -3.19478 2.01847 0
M  V30 8471 H 774.975 -6.17787 4.64283 0
M  V30 8472 H 773.32 -5.5601 4.16987 0
M  V30 8473 H 776.511 -3.91169 2.57108 0
M  V30 8474 H 776.684 -5.27214 3.76762 0
M  V30 8475 N 770.09 -0.729906 -1.39679 0
M  V30 8476 C 771.336 -0.27603 -2.00913 0
M  V30 8477 C 771.669 1.13227 -1.57776 0
M  V30 8478 O 770.944 1.7709 -0.804319 0
M  V30 8479 C 771.227 -0.372157 -3.58172 0
M  V30 8480 C 771.08 -1.81986 -4.11341 0
M  V30 8481 C 772.399 0.248378 -4.39399 0
M  V30 8482 H 769.518 -0.101773 -0.729939 0
M  V30 8483 H 772.16 -0.925104 -1.65957 0
M  V30 8484 H 770.31 0.180459 -3.88081 0
M  V30 8485 H 771.982 -2.42896 -3.92172 0
M  V30 8486 H 770.225 -2.34287 -3.65092 0
M  V30 8487 H 770.896 -1.83842 -5.20486 0
M  V30 8488 H 773.372 -0.222645 -4.15504 0
M  V30 8489 H 772.248 0.150746 -5.48693 0
M  V30 8490 H 772.509 1.33378 -4.21501 0
M  V30 8491 N 771.568 1.50203 -0.477153 0
M  V30 8492 C 772.478 2.32421 0.319027 0
M  V30 8493 C 773.494 1.43075 0.990233 0
M  V30 8494 O 774.67 1.76123 0.976873 0
M  V30 8495 C 771.735 3.17909 1.38328 0
M  V30 8496 C 770.796 4.23082 0.728036 0
M  V30 8497 C 770.029 5.04484 1.74158 0
M  V30 8498 O 770.252 4.8705 2.96881 0
M  V30 8499 O 769.186 5.8747 1.31006 0
M  V30 8500 H 773.012 3.01638 -0.353281 0
M  V30 8501 H 770.597 1.47478 -0.238891 0
M  V30 8502 H 772.479 3.70937 1.9996 0
M  V30 8503 H 771.154 2.51413 2.03895 0
M  V30 8504 H 770.061 3.7403 0.07261 0
M  V30 8505 H 771.394 4.92065 0.115216 0
M  V30 8506 N 773.046 0.209999 1.56195 0
M  V30 8507 C 774.274 -0.429996 2.02382 0
M  V30 8508 C 774.689 -1.54159 1.08998 0
M  V30 8509 O 774.046 -1.82239 0.0974856 0
M  V30 8510 C 774.097 -0.972433 3.48175 0
M  V30 8511 O 773.818 0.0948231 4.37997 0
M  V30 8512 C 775.319 -1.68683 4.09952 0
M  V30 8513 H 772.539 -0.106475 0.662498 0
M  V30 8514 H 775.083 0.323072 2.01932 0
M  V30 8515 H 773.238 -1.67582 3.49278 0
M  V30 8516 H 773.652 -0.31113 5.23576 0
M  V30 8517 H 775.126 -2.01851 5.13771 0
M  V30 8518 H 775.603 -2.59587 3.54276 0
M  V30 8519 H 776.209 -1.02893 4.12666 0
M  V30 8520 N 774.524 -1.57472 -0.0634922 0
M  V30 8521 C 775.752 -1.91887 -0.773767 0
M  V30 8522 C 776.167 -0.806733 -1.70696 0
M  V30 8523 O 775.524 0.219383 -1.81177 0
M  V30 8524 C 775.575 -3.26092 -1.56034 0
M  V30 8525 O 775.296 -4.33029 -0.66464 0
M  V30 8526 C 776.797 -3.74573 -2.37087 0
M  V30 8527 H 774.017 -0.634074 -0.219525 0
M  V30 8528 H 776.561 -2.04476 -0.0312828 0
M  V30 8529 H 774.716 -3.15004 -2.25502 0
M  V30 8530 H 775.13 -5.10291 -1.21258 0
M  V30 8531 H 776.604 -4.71084 -2.87722 0
M  V30 8532 H 777.081 -3.04003 -3.16984 0
M  V30 8533 H 777.687 -3.88631 -1.72759 0
M  V30 8534 N 776.003 0.335068 -1.53997 0
M  V30 8535 C 777.419 0.678704 -1.4445 0
M  V30 8536 C 777.619 1.92106 -0.608078 0
M  V30 8537 O 776.675 2.52292 -0.102373 0
M  V30 8538 C 777.988 0.863435 -2.88037 0
M  V30 8539 C 779.536 0.961513 -2.97866 0
M  V30 8540 C 780.011 1.1785 -4.42578 0
M  V30 8541 N 781.502 1.2455 -4.46141 0
M  V30 8542 C 782.237 1.43106 -5.55255 0
M  V30 8543 N 781.733 1.5878 -6.74359 0
M  V30 8544 N 783.526 1.45722 -5.42883 0
M  V30 8545 H 775.677 -0.481656 -2.06867 0
M  V30 8546 H 777.94 -0.153615 -0.935471 0
M  V30 8547 H 777.646 0.0219511 -3.51693 0
M  V30 8548 H 777.52 1.76268 -3.33481 0
M  V30 8549 H 779.907 1.79351 -2.34344 0
M  V30 8550 H 779.988 0.0389862 -2.5577 0
M  V30 8551 H 779.632 0.351397 -5.06683 0
M  V30 8552 H 779.562 2.11472 -4.82273 0
M  V30 8553 H 782.053 1.13928 -3.60318 0
M  V30 8554 H 782.366 1.72599 -7.53279 0
M  V30 8555 H 780.711 1.559 -6.77289 0
M  V30 8556 H 783.902 1.33065 -4.48789 0
M  V30 8557 H 784.075 1.59841 -6.27977 0
M  V30 8558 N 777.481 1.45874 0.596531 0
M  V30 8559 C 778.897 1.30524 0.918459 0
M  V30 8560 C 779.097 0.266429 1.99731 0
M  V30 8561 O 778.153 -0.335809 2.50257 0
M  V30 8562 C 779.466 2.68747 1.3489 0
M  V30 8563 C 781.014 2.7673 1.46251 0
M  V30 8564 C 781.489 4.15504 1.92667 0
M  V30 8565 N 782.98 4.17853 1.99883 0
M  V30 8566 C 783.715 5.22109 2.37044 0
M  V30 8567 N 783.211 6.36704 2.73094 0
M  V30 8568 N 785.004 5.09471 2.37479 0
M  V30 8569 H 777.155 2.12081 -0.116368 0
M  V30 8570 H 779.418 0.947941 0.0106033 0
M  V30 8571 H 779.124 3.46006 0.630288 0
M  V30 8572 H 778.998 2.97942 2.31323 0
M  V30 8573 H 781.385 1.99768 2.17202 0
M  V30 8574 H 781.466 2.51236 0.481054 0
M  V30 8575 H 781.11 4.92956 1.223 0
M  V30 8576 H 781.04 4.38396 2.91747 0
M  V30 8577 H 783.531 3.35163 1.74568 0
M  V30 8578 H 783.844 7.12041 3.00362 0
M  V30 8579 H 782.189 6.40087 2.70764 0
M  V30 8580 H 785.38 4.18987 2.08728 0
M  V30 8581 H 785.553 5.90837 2.66112 0
M  V30 8582 N 778.959 -0.83999 1.33349 0
M  V30 8583 C 779.906 -1.94972 1.23509 0
M  V30 8584 C 780.876 -1.65709 0.113967 0
M  V30 8585 O 782.061 -1.88552 0.292045 0
M  V30 8586 C 779.201 -3.30919 0.979105 0
M  V30 8587 C 778.314 -3.72587 2.18639 0
M  V30 8588 C 777.449 -4.97397 1.86465 0
M  V30 8589 C 776.488 -5.31597 3.03432 0
M  V30 8590 N 775.625 -6.47584 2.71254 0
M  V30 8591 H 780.465 -2.0272 2.18423 0
M  V30 8592 H 778.002 -0.992017 1.08616 0
M  V30 8593 H 779.96 -4.09239 0.811126 0
M  V30 8594 H 778.59 -3.22731 0.0667099 0
M  V30 8595 H 777.642 -2.89799 2.46416 0
M  V30 8596 H 778.954 -3.93844 3.06086 0
M  V30 8597 H 778.108 -5.83462 1.66305 0
M  V30 8598 H 776.847 -4.78107 0.96254 0
M  V30 8599 H 775.852 -4.44037 3.24208 0
M  V30 8600 H 777.077 -5.52836 3.94397 0
M  V30 8601 H 775.023 -6.29783 1.836 0
M  V30 8602 H 774.94 -6.68931 3.52231 0
M  V30 8603 H 776.208 -7.36764 2.54558 0
M  V30 8604 N 780.437 -1.16799 -1.0581 0
M  V30 8605 C 781.347 -0.893492 -2.16919 0
M  V30 8606 C 782.363 0.136061 -1.73467 0
M  V30 8607 O 783.539 -0.0417348 -2.01357 0
M  V30 8608 C 780.604 -0.403763 -3.44341 0
M  V30 8609 C 779.665 -1.49914 -4.02274 0
M  V30 8610 C 778.898 -1.03269 -5.23614 0
M  V30 8611 O 779.121 0.115647 -5.70283 0
M  V30 8612 O 778.055 -1.8231 -5.73626 0
M  V30 8613 H 781.881 -1.82274 -2.42919 0
M  V30 8614 H 779.466 -0.948361 -1.1544 0
M  V30 8615 H 781.348 -0.137874 -4.21174 0
M  V30 8616 H 780.023 0.497413 -3.19855 0
M  V30 8617 H 778.93 -1.81883 -3.26909 0
M  V30 8618 H 780.263 -2.3758 -4.31064 0
M  V30 8619 N 781.915 1.24427 -0.967243 0
M  V30 8620 C 782.848 2.23885 -0.441683 0
M  V30 8621 C 783.826 1.55231 0.483963 0
M  V30 8622 O 785.01 1.83865 0.415445 0
M  V30 8623 C 782.137 3.36755 0.362458 0
M  V30 8624 C 781.183 4.23495 -0.505407 0
M  V30 8625 S 782.016 4.98916 -1.94534 0
M  V30 8626 C 783.172 6.15245 -1.14997 0
M  V30 8627 H 783.405 2.68118 -1.28453 0
M  V30 8628 H 780.938 1.337 -0.772243 0
M  V30 8629 H 782.896 4.02218 0.820445 0
M  V30 8630 H 781.557 2.91081 1.18027 0
M  V30 8631 H 780.75 5.03876 0.111979 0
M  V30 8632 H 780.352 3.63032 -0.899104 0
M  V30 8633 H 782.644 6.7629 -0.404769 0
M  V30 8634 H 783.587 6.81343 -1.92814 0
M  V30 8635 H 783.995 5.60455 -0.674543 0
M  V30 8636 N 783.393 0.737304 1.3929 0
M  V30 8637 C 784.621 0.296573 2.04763 0
M  V30 8638 C 785.036 -1.06941 1.55592 0
M  V30 8639 O 784.393 -1.67619 0.721822 0
M  V30 8640 C 784.444 0.291906 3.6032 0
M  V30 8641 O 784.165 1.60397 4.07682 0
M  V30 8642 C 785.666 -0.164708 4.42994 0
M  V30 8643 H 782.886 0.129251 0.658434 0
M  V30 8644 H 785.43 1.0016 1.78293 0
M  V30 8645 H 783.585 -0.364251 3.85684 0
M  V30 8646 H 783.999 1.51909 5.0202 0
M  V30 8647 H 785.473 -0.116814 5.51876 0
M  V30 8648 H 785.95 -1.21022 4.22197 0
M  V30 8649 H 786.556 0.461968 4.22784 0
M  V30 8650 N 784.871 -1.49948 0.485112 0
M  V30 8651 C 786.096 -2.073 -0.0645059 0
M  V30 8652 C 786.521 -1.345 -1.31497 0
M  V30 8653 O 785.879 -0.39687 -1.76903 0
M  V30 8654 C 785.927 -3.59201 -0.317304 0
M  V30 8655 O 785.031 -3.88085 -1.39514 0
M  V30 8656 H 784.372 -0.663723 0.0191822 0
M  V30 8657 H 786.902 -1.92963 0.680179 0
M  V30 8658 H 786.912 -4.04227 -0.553604 0
M  V30 8659 H 785.587 -4.11602 0.596387 0
M  V30 8660 H 784.164 -3.54885 -1.14504 0
M  V30 8661 N 786.349 -0.21828 -1.56081 0
M  V30 8662 C 787.279 0.687922 -2.23136 0
M  V30 8663 C 788.26 1.20357 -1.202 0
M  V30 8664 O 789.445 1.24817 -1.48776 0
M  V30 8665 C 786.575 1.89762 -2.90874 0
M  V30 8666 C 785.529 1.51595 -4.00254 0
M  V30 8667 C 784.855 2.80415 -4.55271 0
M  V30 8668 C 786.155 0.708404 -5.17474 0
M  V30 8669 H 787.849 0.128854 -2.99123 0
M  V30 8670 H 785.395 0.0605354 -1.43873 0
M  V30 8671 H 787.348 2.53699 -3.36474 0
M  V30 8672 H 786.072 2.4816 -2.1233 0
M  V30 8673 H 784.731 0.900058 -3.55379 0
M  V30 8674 H 784.379 3.36951 -3.73461 0
M  V30 8675 H 784.079 2.55613 -5.2909 0
M  V30 8676 H 785.603 3.453 -5.03587 0
M  V30 8677 H 787.017 1.2514 -5.59476 0
M  V30 8678 H 785.414 0.557593 -5.97504 0
M  V30 8679 H 786.484 -0.285679 -4.84058 0
M  V30 8680 N 787.827 1.57504 0.0551401 0
M  V30 8681 C 789.243 1.54236 0.410292 0
M  V30 8682 C 789.443 0.940839 1.78187 0
M  V30 8683 O 788.499 0.550541 2.46425 0
M  V30 8684 C 789.812 2.98816 0.336064 0
M  V30 8685 C 791.36 3.10236 0.415047 0
M  V30 8686 C 791.835 4.56499 0.37055 0
M  V30 8687 N 793.326 4.61199 0.43013 0
M  V30 8688 C 794.061 5.71873 0.418179 0
M  V30 8689 N 793.557 6.91864 0.360056 0
M  V30 8690 N 795.35 5.60165 0.465977 0
M  V30 8691 H 787.501 1.94965 -0.842759 0
M  V30 8692 H 789.764 0.893096 -0.317937 0
M  V30 8693 H 789.47 3.4645 -0.605429 0
M  V30 8694 H 789.344 3.59564 1.13988 0
M  V30 8695 H 791.731 2.62566 1.34697 0
M  V30 8696 H 791.812 2.52367 -0.417648 0
M  V30 8697 H 791.456 5.0483 -0.557592 0
M  V30 8698 H 791.386 5.12249 1.221 0
M  V30 8699 H 793.877 3.74857 0.478623 0
M  V30 8700 H 794.19 7.71983 0.35532 0
M  V30 8701 H 792.535 6.94233 0.326492 0
M  V30 8702 H 795.726 4.65322 0.509194 0
M  V30 8703 H 795.899 6.46413 0.453194 0
M  V30 8704 N 789.305 -0.326896 1.54172 0
M  V30 8705 C 790.268 -1.38515 1.8261 0
M  V30 8706 C 791.268 -1.44872 0.697771 0
M  V30 8707 O 792.458 -1.44957 0.966078 0
M  V30 8708 C 789.59 -2.77281 1.98313 0
M  V30 8709 H 790.783 -1.14556 2.77159 0
M  V30 8710 H 788.336 -0.562199 1.45839 0
M  V30 8711 H 789.071 -3.065 1.05964 0
M  V30 8712 H 788.856 -2.74061 2.80416 0
M  V30 8713 H 790.346 -3.53845 2.21773 0
M  V30 8714 N 790.784 -1.46188 -0.588786 0
M  V30 8715 C 792.031 -1.51184 -1.34721 0
M  V30 8716 C 792.359 -0.161084 -1.93832 0
M  V30 8717 O 791.614 0.842557 -1.76634 0
M  V30 8718 C 791.913 -2.55364 -2.50048 0
M  V30 8719 C 791.579 -3.99553 -2.08969 0
M  V30 8720 C 790.241 -4.38811 -1.9748 0
M  V30 8721 C 792.593 -4.90156 -1.77191 0
M  V30 8722 C 789.921 -5.66544 -1.52463 0
M  V30 8723 C 792.273 -6.1832 -1.33654 0
M  V30 8724 C 790.937 -6.5649 -1.20738 0
M  V30 8725 H 790.207 -0.55322 -0.49298 0
M  V30 8726 H 792.854 -1.79634 -0.663627 0
M  V30 8727 H 791.159 -2.20552 -3.23827 0
M  V30 8728 H 792.856 -2.5646 -3.08268 0
M  V30 8729 H 789.446 -3.68518 -2.18843 0
M  V30 8730 H 793.63 -4.60549 -1.84955 0
M  V30 8731 H 788.886 -5.94895 -1.411 0
M  V30 8732 H 793.06 -6.87956 -1.08117 0
M  V30 8733 H 790.687 -7.55362 -0.856307 0
M  V30 8734 N 792.262 0.832906 -1.33792 0
M  V30 8735 C 793.225 1.92471 -1.24449 0
M  V30 8736 C 794.225 1.59981 -0.162085 0
M  V30 8737 O 795.415 1.69208 -0.414029 0
M  V30 8738 C 792.547 3.28278 -0.919044 0
M  V30 8739 H 793.74 2.0218 -2.21502 0
M  V30 8740 H 791.293 1.0257 -1.17936 0
M  V30 8741 H 792.028 3.24263 0.048738 0
M  V30 8742 H 791.813 3.53241 -1.70187 0
M  V30 8743 H 793.303 4.08253 -0.878576 0
M  V30 8744 N 793.74 1.17359 1.05189 0
M  V30 8745 C 794.989 0.956412 1.77583 0
M  V30 8746 C 795.302 -0.516018 1.88671 0
M  V30 8747 O 796.508 -0.851401 2.57805 0
M  V30 8748 C 794.964 1.66203 3.19225 0
M  V30 8749 C 794.572 3.17299 3.16267 0
M  V30 8750 C 796.316 1.52725 3.96075 0
M  V30 8751 C 794.223 3.8055 4.52698 0
M  V30 8752 H 793.153 0.354204 0.665624 0
M  V30 8753 H 795.804 1.40612 1.17901 0
M  V30 8754 H 794.186 1.14006 3.79234 0
M  V30 8755 H 795.36 3.76431 2.65776 0
M  V30 8756 H 793.675 3.3079 2.52917 0
M  V30 8757 H 796.272 1.97351 4.96947 0
M  V30 8758 H 796.615 0.477803 4.13549 0
M  V30 8759 H 797.148 2.02139 3.42614 0
M  V30 8760 H 793.887 4.85492 4.4043 0
M  V30 8761 H 793.407 3.26206 5.03339 0
M  V30 8762 H 795.086 3.82757 5.21638 0
M  V30 8763 N 795.218 -1.23913 0.973828 0
M  V30 8764 C 796.448 -1.95911 0.655938 0
M  V30 8765 C 796.856 -1.72375 -0.779967 0
M  V30 8766 O 796.199 -1.00807 -1.5357 0
M  V30 8767 C 796.261 -3.49103 0.858324 0
M  V30 8768 C 795.925 -3.96347 2.27504 0
M  V30 8769 C 796.922 -4.05537 3.25324 0
M  V30 8770 C 794.607 -4.29509 2.60437 0
M  V30 8771 C 796.601 -4.47233 4.5416 0
M  V30 8772 C 794.288 -4.70887 3.89498 0
M  V30 8773 C 795.286 -4.79714 4.86172 0
M  V30 8774 O 794.974 -5.20166 6.1293 0
M  V30 8775 H 794.706 -0.630721 0.243244 0
M  V30 8776 H 797.26 -1.58534 1.30599 0
M  V30 8777 H 795.49 -3.86405 0.151097 0
M  V30 8778 H 797.179 -4.02311 0.538592 0
M  V30 8779 H 797.945 -3.80128 3.0121 0
M  V30 8780 H 793.824 -4.21853 1.85906 0
M  V30 8781 H 797.368 -4.54038 5.29618 0
M  V30 8782 H 793.265 -4.95744 4.1341 0
M  V30 8783 H 794.033 -5.38298 6.16586 0
M  V30 8784 N 796.696 -0.74468 -1.38897 0
M  V30 8785 C 797.924 -0.307428 -2.04603 0
M  V30 8786 C 798.339 1.06115 -1.56157 0
M  V30 8787 O 797.696 1.67233 -0.730701 0
M  V30 8788 C 797.747 -0.31101 -3.6016 0
M  V30 8789 O 797.468 -1.62557 -4.06825 0
M  V30 8790 C 798.969 0.141213 -4.43075 0
M  V30 8791 H 796.189 -0.132741 -0.657739 0
M  V30 8792 H 798.733 -1.01104 -1.77759 0
M  V30 8793 H 796.888 0.343792 -3.85872 0
M  V30 8794 H 797.302 -1.54569 -5.01207 0
M  V30 8795 H 798.776 0.0875449 -5.51931 0
M  V30 8796 H 799.253 1.18782 -4.22833 0
M  V30 8797 H 799.859 -0.484383 -4.22533 0
M  V30 8798 N 798.174 1.49689 -0.493057 0
M  V30 8799 C 799.399 2.07331 0.0535114 0
M  V30 8800 C 799.824 1.35196 1.30781 0
M  V30 8801 O 799.182 0.406246 1.7669 0
M  V30 8802 C 799.23 3.59364 0.29825 0
M  V30 8803 O 798.334 3.88819 1.37454 0
M  V30 8804 H 797.675 0.663612 -0.0227018 0
M  V30 8805 H 800.205 1.926 -0.690402 0
M  V30 8806 H 800.215 4.04515 0.532159 0
M  V30 8807 H 798.89 4.1128 -0.618207 0
M  V30 8808 H 797.467 3.55487 1.12621 0
M  V30 8809 N 799.652 0.226554 1.55963 0
M  V30 8810 C 800.901 -0.40417 1.97609 0
M  V30 8811 C 801.214 -1.60541 1.1174 0
M  V30 8812 O 802.42 -2.30598 1.43307 0
M  V30 8813 C 800.876 -0.770466 3.51556 0
M  V30 8814 C 800.484 0.408244 4.46136 0
M  V30 8815 C 802.228 -1.36651 4.01904 0
M  V30 8816 C 800.135 0.0192347 5.91397 0
M  V30 8817 H 799.065 -0.15478 0.737943 0
M  V30 8818 H 801.716 0.323558 1.80625 0
M  V30 8819 H 800.098 -1.55575 3.6416 0
M  V30 8820 H 801.272 1.18575 4.45283 0
M  V30 8821 H 799.587 0.917859 4.06158 0
M  V30 8822 H 802.184 -1.67055 5.07934 0
M  V30 8823 H 802.527 -2.28403 3.48049 0
M  V30 8824 H 803.06 -0.644556 3.92543 0
M  V30 8825 H 799.799 0.90336 6.49245 0
M  V30 8826 H 799.319 -0.722485 5.95433 0
M  V30 8827 H 800.998 -0.405711 6.45727 0
M  V30 8828 N 801.13 -1.57531 -0.0467866 0
M  V30 8829 C 802.355 -1.93087 -0.757123 0
M  V30 8830 C 802.78 -0.825116 -1.69037 0
M  V30 8831 O 802.138 0.220449 -1.79955 0
M  V30 8832 C 802.186 -3.27669 -1.5055 0
M  V30 8833 O 801.29 -3.18667 -2.61773 0
M  V30 8834 H 800.631 -0.631597 -0.204892 0
M  V30 8835 H 803.161 -2.04599 -0.00755232 0
M  V30 8836 H 803.171 -3.6214 -1.87932 0
M  V30 8837 H 801.846 -4.07717 -0.820931 0
M  V30 8838 H 800.423 -2.95798 -2.27064 0
M  V30 8839 N 802.608 0.318715 -1.54344 0
M  V30 8840 C 803.857 1.05363 -1.71993 0
M  V30 8841 C 804.17 1.89018 -0.503155 0
M  V30 8842 O 805.376 2.65639 -0.561085 0
M  V30 8843 C 803.832 1.92281 -3.0423 0
M  V30 8844 C 803.44 1.13715 -4.33328 0
M  V30 8845 C 805.184 2.65479 -3.31242 0
M  V30 8846 C 803.091 1.99806 -5.56625 0
M  V30 8847 H 802.021 0.397081 -0.64097 0
M  V30 8848 H 804.672 0.311598 -1.80835 0
M  V30 8849 H 803.054 2.70402 -2.89307 0
M  V30 8850 H 804.228 0.403305 -4.59032 0
M  V30 8851 H 802.543 0.521769 -4.13118 0
M  V30 8852 H 805.14 3.30209 -4.20555 0
M  V30 8853 H 805.483 3.33374 -2.49334 0
M  V30 8854 H 806.016 1.94417 -3.47054 0
M  V30 8855 H 802.755 1.36411 -6.41149 0
M  V30 8856 H 802.275 2.70911 -5.35133 0
M  V30 8857 H 803.954 2.58277 -5.93213 0
M  V30 8858 N 804.086 1.46499 0.581025 0
M  V30 8859 C 805.333 1.51896 1.33918 0
M  V30 8860 C 805.661 0.171361 1.93744 0
M  V30 8861 O 804.916 -0.833178 1.77078 0
M  V30 8862 C 805.215 2.56686 2.48691 0
M  V30 8863 C 804.881 4.00656 2.06847 0
M  V30 8864 C 803.543 4.39852 1.9515 0
M  V30 8865 C 805.895 4.91089 1.74589 0
M  V30 8866 C 803.223 5.67345 1.49456 0
M  V30 8867 C 805.575 6.1902 1.30373 0
M  V30 8868 C 804.239 6.57121 1.17255 0
M  V30 8869 H 803.509 0.555826 0.490039 0
M  V30 8870 H 806.156 1.79983 0.654092 0
M  V30 8871 H 804.461 2.22266 3.22653 0
M  V30 8872 H 806.158 2.58091 3.06904 0
M  V30 8873 H 802.748 3.69674 2.16886 0
M  V30 8874 H 806.932 4.61523 1.8251 0
M  V30 8875 H 802.188 5.95635 1.37944 0
M  V30 8876 H 806.362 6.8852 1.04467 0
M  V30 8877 H 803.989 7.55805 0.816236 0
M  V30 8878 N 805.565 -0.825799 1.34232 0
M  V30 8879 C 806.498 -1.94155 1.19914 0
M  V30 8880 C 807.476 -1.62343 0.0914533 0
M  V30 8881 O 808.66 -1.86752 0.256082 0
M  V30 8882 C 805.787 -3.28064 0.842138 0
M  V30 8883 C 804.833 -3.78839 1.95917 0
M  V30 8884 S 805.666 -3.98943 3.57218 0
M  V30 8885 C 806.822 -5.35783 3.23554 0
M  V30 8886 H 807.055 -2.06003 2.14359 0
M  V30 8887 H 804.588 -0.981053 1.19225 0
M  V30 8888 H 806.546 -4.05434 0.642952 0
M  V30 8889 H 805.207 -3.13988 -0.0839363 0
M  V30 8890 H 804.4 -4.75771 1.66306 0
M  V30 8891 H 804.002 -3.08406 2.11569 0
M  V30 8892 H 806.294 -6.19094 2.7519 0
M  V30 8893 H 807.237 -5.70376 4.19615 0
M  V30 8894 H 807.645 -5.01158 2.5981 0
M  V30 8895 N 807.043 -1.17915 -1.04565 0
M  V30 8896 C 807.991 -0.897919 -2.1457 0
M  V30 8897 C 808.985 0.139883 -1.68821 0
M  V30 8898 O 810.191 -0.00779463 -1.79998 0
M  V30 8899 H 806.566 -0.272867 -0.700748 0
M  V30 8900 H 808.537 -1.83268 -2.3549 0
M  V30 8901 C 807.286 -0.434634 -3.44973 0
M  V30 8902 H 806.609 -1.22469 -3.8058 0
M  V30 8903 H 808.049 -0.276804 -4.23095 0
M  V30 8904 C 806.508 0.848738 -3.26034 0
M  V30 8905 O 807.038 1.9141 -3.53164 0
M  V30 8906 N 805.244 0.799373 -2.79389 0
M  V30 8907 H 804.791 -0.0678192 -2.57511 0
M  V30 8908 H 804.749 1.6585 -2.67098 0
M  V30 8909 N 808.521 1.23394 -0.980386 0
M  V30 8910 C 809.749 1.95844 -0.667286 0
M  V30 8911 C 810.164 1.72574 0.765735 0
M  V30 8912 O 809.521 1.01715 1.51526 0
M  V30 8913 C 809.572 3.48844 -0.948151 0
M  V30 8914 O 809.293 3.71325 -2.32485 0
M  V30 8915 C 810.794 4.38494 -0.651002 0
M  V30 8916 H 808.014 0.623535 -0.247882 0
M  V30 8917 H 810.558 1.56885 -1.31176 0
M  V30 8918 H 808.713 3.85819 -0.349681 0
M  V30 8919 H 809.127 4.65619 -2.41452 0
M  V30 8920 H 810.601 5.44648 -0.897887 0
M  V30 8921 H 811.078 4.37236 0.414922 0
M  V30 8922 H 811.684 4.07127 -1.22995 0
M  V30 8923 N 809.999 0.752036 1.385 0
M  V30 8924 C 810.962 0.131587 2.28822 0
M  V30 8925 C 811.962 -0.649149 1.47115 0
M  V30 8926 O 813.152 -0.475645 1.67581 0
M  V30 8927 C 810.284 -0.822101 3.30839 0
M  V30 8928 H 811.477 0.927551 2.85196 0
M  V30 8929 H 809.03 0.518945 1.47434 0
M  V30 8930 H 809.765 -1.6438 2.79553 0
M  V30 8931 H 809.55 -0.264689 3.91206 0
M  V30 8932 H 811.04 -1.25226 3.98382 0
M  V30 8933 N 811.477 -1.49425 0.500989 0
M  V30 8934 C 812.726 -2.01649 -0.04538 0
M  V30 8935 C 813.039 -1.38572 -1.38047 0
M  V30 8936 O 814.245 -1.82124 -2.01353 0
M  V30 8937 C 812.701 -3.5966 -0.131337 0
M  V30 8938 C 812.309 -4.3171 1.19711 0
M  V30 8939 C 814.053 -4.19828 -0.628071 0
M  V30 8940 C 811.96 -5.81579 1.07332 0
M  V30 8941 H 810.89 -0.753715 -0.0207329 0
M  V30 8942 H 813.541 -1.71962 0.640407 0
M  V30 8943 H 811.923 -3.86063 -0.881574 0
M  V30 8944 H 813.097 -4.17008 1.96064 0
M  V30 8945 H 811.412 -3.83286 1.62729 0
M  V30 8946 H 814.009 -5.2958 -0.738198 0
M  V30 8947 H 814.352 -3.83194 -1.6269 0
M  V30 8948 H 814.885 -3.97746 0.0656314 0
M  V30 8949 H 811.624 -6.22738 2.04642 0
M  V30 8950 H 811.144 -5.98774 0.350679 0
M  V30 8951 H 812.823 -6.42614 0.752047 0
M  V30 8952 N 812.955 -0.234822 -1.55841 0
M  V30 8953 C 814.366 0.270588 -1.84729 0
M  V30 8954 C 814.717 1.58494 -1.15646 0
M  V30 8955 O 813.842 2.12071 -0.430667 0
M  V30 8956 C 814.437 0.497733 -3.35124 0
M  V30 8957 C 812.996 0.947428 -3.64281 0
M  V30 8958 C 812.143 0.01787 -2.77294 0
M  V30 8959 H 815.094 -0.457691 -1.51957 0
M  V30 8960 H 815.115 1.34199 -3.56049 0
M  V30 8961 H 814.627 -0.459037 -3.85376 0
M  V30 8962 H 812.728 1.91709 -3.19497 0
M  V30 8963 H 812.841 0.812651 -4.72158 0
M  V30 8964 H 811.205 0.527071 -2.49187 0
M  V30 8965 H 811.988 -0.934056 -3.30349 0
M  V30 8966 N 814.433 1.57553 0.0384317 0
M  V30 8967 C 815.682 1.88022 0.730108 0
M  V30 8968 C 815.995 0.83209 1.77019 0
M  V30 8969 O 817.201 1.0257 2.51379 0
M  V30 8970 C 815.657 3.33637 1.3496 0
M  V30 8971 C 815.265 4.46659 0.346352 0
M  V30 8972 C 817.009 3.73266 2.02169 0
M  V30 8973 C 814.916 5.8333 0.973652 0
M  V30 8974 H 813.846 0.701496 0.276442 0
M  V30 8975 H 816.497 1.83493 -0.0158028 0
M  V30 8976 H 814.879 3.32882 2.1449 0
M  V30 8977 H 816.053 4.58868 -0.421558 0
M  V30 8978 H 814.368 4.15802 -0.223133 0
M  V30 8979 H 816.965 4.72689 2.49938 0
M  V30 8980 H 817.308 3.04776 2.8358 0
M  V30 8981 H 817.841 3.76156 1.29427 0
M  V30 8982 H 814.58 6.55197 0.199163 0
M  V30 8983 H 814.1 5.7486 1.71162 0
M  V30 8984 H 815.779 6.29757 1.48376 0
M  V30 8985 N 815.911 -0.310526 1.54511 0
M  V30 8986 C 816.874 -1.3657 1.84068 0
M  V30 8987 C 817.874 -1.44123 0.713097 0
M  V30 8988 O 819.064 -1.43924 0.981399 0
M  V30 8989 C 816.196 -2.75162 2.01243 0
M  V30 8990 H 817.389 -1.1161 2.78358 0
M  V30 8991 H 814.942 -0.546699 1.46427 0
M  V30 8992 H 815.677 -3.05359 1.09208 0
M  V30 8993 H 815.462 -2.71071 2.83307 0
M  V30 8994 H 816.952 -3.51473 2.25514 0
M  V30 8995 N 817.389 -1.46805 -0.573248 0
M  V30 8996 C 818.352 -1.57655 -1.66366 0
M  V30 8997 C 819.352 -0.452905 -1.5429 0
M  V30 8998 O 820.542 -0.717502 -1.58737 0
M  V30 8999 C 817.674 -1.50584 -3.05839 0
M  V30 9000 H 818.867 -2.54842 -1.581 0
M  V30 9001 H 816.42 -1.34756 -0.791868 0
M  V30 9002 H 817.155 -0.547127 -3.19651 0
M  V30 9003 H 816.94 -2.32118 -3.16012 0
M  V30 9004 H 818.43 -1.61282 -3.85199 0
M  V30 9005 N 818.867 0.818669 -1.34668 0
M  V30 9006 C 820.113 1.57746 -1.27453 0
M  V30 9007 C 820.446 1.93588 0.154077 0
M  V30 9008 O 819.721 1.60371 1.10051 0
M  V30 9009 C 820.004 2.87414 -2.16945 0
M  V30 9010 C 819.857 2.58125 -3.68363 0
M  V30 9011 C 821.176 3.89021 -2.05792 0
M  V30 9012 H 818.295 0.572339 -0.464324 0
M  V30 9013 H 820.937 0.942784 -1.64959 0
M  V30 9014 H 819.087 3.41576 -1.85089 0
M  V30 9015 H 820.759 2.10239 -4.10606 0
M  V30 9016 H 819.002 1.91503 -3.89242 0
M  V30 9017 H 819.673 3.5061 -4.26353 0
M  V30 9018 H 822.149 3.44224 -2.33771 0
M  V30 9019 H 821.025 4.77548 -2.70628 0
M  V30 9020 H 821.286 4.29786 -1.03618 0
M  V30 9021 N 820.346 1.18468 1.03938 0
M  V30 9022 C 821.276 0.936389 2.13902 0
M  V30 9023 C 822.257 -0.126381 1.6963 0
M  V30 9024 O 823.442 0.0264757 1.94182 0
M  V30 9025 C 820.572 0.462729 3.44204 0
M  V30 9026 C 819.526 1.46613 4.02105 0
M  V30 9027 C 818.852 0.84994 5.27902 0
M  V30 9028 C 820.152 2.84323 4.3813 0
M  V30 9029 H 821.846 1.85602 2.3493 0
M  V30 9030 H 819.392 0.893806 1.12903 0
M  V30 9031 H 821.345 0.276382 4.20493 0
M  V30 9032 H 820.069 -0.492477 3.22866 0
M  V30 9033 H 818.728 1.63944 3.27899 0
M  V30 9034 H 818.376 -0.112493 5.02874 0
M  V30 9035 H 818.076 1.51988 5.67603 0
M  V30 9036 H 819.6 0.674152 6.06867 0
M  V30 9037 H 821.014 2.70636 5.054 0
M  V30 9038 H 819.411 3.48012 4.88884 0
M  V30 9039 H 820.481 3.37776 3.47901 0
M  V30 9040 N 821.824 -1.22873 0.986916 0
M  V30 9041 C 823.073 -1.90772 0.654911 0
M  V30 9042 C 823.386 -1.77768 -0.81595 0
M  V30 9043 O 824.592 -2.40529 -1.25929 0
M  V30 9044 C 823.048 -3.42003 1.12081 0
M  V30 9045 C 822.656 -3.63655 2.61647 0
M  V30 9046 C 824.4 -4.15638 0.862854 0
M  V30 9047 C 822.307 -5.08555 3.01871 0
M  V30 9048 H 821.237 -0.714362 0.241252 0
M  V30 9049 H 823.888 -1.39196 1.19568 0
M  V30 9050 H 822.27 -3.92725 0.508207 0
M  V30 9051 H 823.444 -3.2345 3.28202 0
M  V30 9052 H 821.759 -3.03341 2.8526 0
M  V30 9053 H 824.356 -5.22425 1.13915 0
M  V30 9054 H 824.699 -4.15814 -0.201036 0
M  V30 9055 H 825.232 -3.70924 1.43736 0
M  V30 9056 H 821.971 -5.13514 4.07411 0
M  V30 9057 H 821.491 -5.49684 2.40015 0
M  V30 9058 H 823.17 -5.76936 2.92839 0
M  V30 9059 N 823.302 -0.75937 -1.38099 0
M  V30 9060 C 824.53 -0.329111 -2.04266 0
M  V30 9061 C 824.945 1.04453 -1.57274 0
M  V30 9062 O 824.302 1.66449 -0.748397 0
M  V30 9063 C 824.353 -0.349192 -3.5981 0
M  V30 9064 O 824.074 -1.66863 -4.05078 0
M  V30 9065 C 825.575 0.0942106 -4.432 0
M  V30 9066 H 822.795 -0.13971 -0.656294 0
M  V30 9067 H 825.339 -1.02984 -1.76677 0
M  V30 9068 H 823.494 0.302846 -3.86214 0
M  V30 9069 H 823.908 -1.59877 -4.9954 0
M  V30 9070 H 825.382 0.0290004 -5.51992 0
M  V30 9071 H 825.859 1.1429 -4.24069 0
M  V30 9072 H 826.465 -0.529171 -4.21995 0
M  V30 9073 N 824.78 1.49157 -0.508906 0
M  V30 9074 C 826.027 2.02473 0.0327983 0
M  V30 9075 C 826.355 1.38792 1.36261 0
M  V30 9076 O 825.61 0.515576 1.88786 0
M  V30 9077 C 825.909 3.56687 0.225717 0
M  V30 9078 C 825.575 4.39046 -1.02708 0
M  V30 9079 C 824.237 4.61271 -1.37048 0
M  V30 9080 C 826.589 4.86902 -1.85946 0
M  V30 9081 C 823.917 5.28598 -2.54562 0
M  V30 9082 C 826.269 5.55521 -3.0262 0
M  V30 9083 C 824.933 5.7599 -3.3733 0
M  V30 9084 H 824.203 0.740903 0.0120017 0
M  V30 9085 H 826.85 1.79372 -0.670665 0
M  V30 9086 H 825.155 3.78511 1.01177 0
M  V30 9087 H 826.852 3.95541 0.659433 0
M  V30 9088 H 823.442 4.21994 -0.749615 0
M  V30 9089 H 827.626 4.69553 -1.6073 0
M  V30 9090 H 822.882 5.42646 -2.81682 0
M  V30 9091 H 827.056 5.91576 -3.67438 0
M  V30 9092 H 824.683 6.27934 -4.2849 0
M  V30 9093 N 826.258 0.243083 1.55714 0
M  V30 9094 C 827.504 -0.383287 1.99145 0
M  V30 9095 C 827.837 -1.57868 1.13098 0
M  V30 9096 O 827.112 -1.93535 0.193509 0
M  V30 9097 C 827.395 -0.796879 3.51172 0
M  V30 9098 C 827.248 0.403642 4.47985 0
M  V30 9099 C 828.567 -1.64525 4.08191 0
M  V30 9100 H 825.686 -0.137843 0.723995 0
M  V30 9101 H 828.328 0.343631 1.86867 0
M  V30 9102 H 826.478 -1.41625 3.61766 0
M  V30 9103 H 828.15 1.04204 4.49376 0
M  V30 9104 H 826.393 1.04741 4.20965 0
M  V30 9105 H 827.064 0.0709794 5.51954 0
M  V30 9106 H 829.54 -1.12246 4.00674 0
M  V30 9107 H 828.416 -1.9035 5.14838 0
M  V30 9108 H 828.677 -2.61582 3.56409 0
M  V30 9109 N 827.736 -1.57571 -0.0300757 0
M  V30 9110 C 828.984 -1.88852 -0.719666 0
M  V30 9111 C 829.305 -0.840645 -1.75949 0
M  V30 9112 O 828.575 0.125854 -1.95495 0
M  V30 9113 H 827.155 -0.696965 -0.268792 0
M  V30 9114 H 829.817 -1.949 0.00373285 0
M  V30 9115 H 828.913 -2.87695 -1.20987 0
M  V30 9116 N 829.214 0.302327 -1.54673 0
M  V30 9117 C 830.164 1.37443 -1.81916 0
M  V30 9118 C 831.148 1.45999 -0.676251 0
M  V30 9119 O 832.34 1.50174 -0.93685 0
M  V30 9120 C 829.469 2.73966 -2.06876 0
M  V30 9121 C 828.555 2.69637 -3.27348 0
M  V30 9122 N 828.946 2.34926 -4.47933 0
M  V30 9123 C 827.244 3.00742 -3.29348 0
M  V30 9124 C 827.945 2.39862 -5.29944 0
M  V30 9125 N 826.921 2.77163 -4.67634 0
M  V30 9126 H 830.723 1.09567 -2.72713 0
M  V30 9127 H 828.237 0.5109 -1.54154 0
M  V30 9128 H 830.234 3.51265 -2.2454 0
M  V30 9129 H 828.894 3.02754 -1.17346 0
M  V30 9130 H 829.905 2.07403 -4.74557 0
M  V30 9131 H 826.582 3.34434 -2.49921 0
M  V30 9132 H 827.972 2.15835 -6.3629 0
M  V30 9133 N 830.692 1.47107 0.565454 0
M  V30 9134 C 831.938 1.53535 1.32495 0
M  V30 9135 C 832.271 0.193537 1.93233 0
M  V30 9136 O 831.546 -0.796956 1.77423 0
M  V30 9137 C 831.829 2.64712 2.4413 0
M  V30 9138 C 831.682 4.08482 1.88314 0
M  V30 9139 C 833.001 2.71853 3.46098 0
M  V30 9140 H 830.12 0.558926 0.480386 0
M  V30 9141 H 832.762 1.79125 0.633575 0
M  V30 9142 H 830.912 2.43023 3.03104 0
M  V30 9143 H 832.584 4.4151 1.33665 0
M  V30 9144 H 830.827 4.17148 1.19037 0
M  V30 9145 H 831.498 4.82032 2.68978 0
M  V30 9146 H 833.974 2.91397 2.97031 0
M  V30 9147 H 832.85 3.51433 4.21646 0
M  V30 9148 H 833.111 1.78584 4.04426 0
M  V30 9149 N 832.17 -0.811516 1.35101 0
M  V30 9150 C 833.395 -1.60499 1.31358 0
M  V30 9151 C 833.82 -1.87793 -0.107383 0
M  V30 9152 O 833.178 -1.46161 -1.07268 0
M  V30 9153 C 833.226 -2.91612 2.12119 0
M  V30 9154 O 832.33 -3.84211 1.49853 0
M  V30 9155 H 831.671 -0.487702 0.450603 0
M  V30 9156 H 834.201 -1.00758 1.7807 0
M  V30 9157 H 834.211 -3.4108 2.23894 0
M  V30 9158 H 832.886 -2.71071 3.15426 0
M  V30 9159 H 831.463 -3.42751 1.46889 0
M  V30 9160 N 833.648 -1.19017 -1.03309 0
M  V30 9161 C 834.895 -0.990214 -1.76638 0
M  V30 9162 C 835.223 0.479435 -1.88498 0
M  V30 9163 O 834.478 1.37223 -1.39529 0
M  V30 9164 C 834.777 -1.59927 -3.19622 0
M  V30 9165 C 834.443 -3.09632 -3.27779 0
M  V30 9166 C 833.105 -3.50491 -3.29712 0
M  V30 9167 C 835.457 -4.05644 -3.27264 0
M  V30 9168 C 832.785 -4.85921 -3.28782 0
M  V30 9169 C 835.137 -5.41 -3.27875 0
M  V30 9170 C 833.801 -5.81295 -3.28104 0
M  V30 9171 H 833.071 -0.362345 -0.646364 0
M  V30 9172 H 835.718 -1.48197 -1.21284 0
M  V30 9173 H 834.023 -1.0297 -3.78027 0
M  V30 9174 H 835.72 -1.41989 -3.7502 0
M  V30 9175 H 832.31 -2.77073 -3.26999 0
M  V30 9176 H 836.494 -3.75124 -3.24955 0
M  V30 9177 H 831.75 -5.16427 -3.27281 0
M  V30 9178 H 835.924 -6.15157 -3.26428 0
M  V30 9179 H 833.551 -6.86211 -3.27138 0
M  V30 9180 N 835.127 1.22348 -0.993418 0
M  V30 9181 C 836.374 1.9111 -0.669568 0
M  V30 9182 C 836.702 1.77357 0.79843 0
M  V30 9183 O 835.957 1.13675 1.593 0
M  V30 9184 C 836.256 3.42477 -1.02197 0
M  V30 9185 C 835.922 3.7642 -2.48232 0
M  V30 9186 C 834.584 3.85395 -2.88139 0
M  V30 9187 C 836.936 3.9253 -3.42884 0
M  V30 9188 C 834.264 4.07918 -4.21687 0
M  V30 9189 C 836.616 4.16557 -4.76091 0
M  V30 9190 C 835.28 4.23757 -5.15739 0
M  V30 9191 H 834.55 0.699321 -0.245012 0
M  V30 9192 H 837.197 1.45102 -1.2497 0
M  V30 9193 H 835.502 3.90143 -0.359921 0
M  V30 9194 H 837.199 3.93935 -0.74942 0
M  V30 9195 H 833.789 3.70017 -2.16299 0
M  V30 9196 H 837.973 3.84974 -3.13224 0
M  V30 9197 H 833.229 4.11719 -4.51993 0
M  V30 9198 H 837.403 4.27966 -5.4938 0
M  V30 9199 H 835.03 4.40962 -6.19239 0
M  V30 9200 N 836.605 0.766683 1.37694 0
M  V30 9201 C 837.552 0.147725 2.30327 0
M  V30 9202 C 838.522 -0.695366 1.50844 0
M  V30 9203 O 839.707 -0.64878 1.79431 0
M  V30 9204 C 836.847 -0.72935 3.37305 0
M  V30 9205 C 835.96 0.129795 4.31805 0
M  V30 9206 C 835.095 -0.751511 5.25857 0
M  V30 9207 C 834.134 0.110475 6.12 0
M  V30 9208 N 833.271 -0.728522 6.9831 0
M  V30 9209 H 838.111 0.943204 2.82679 0
M  V30 9210 H 835.648 0.476736 1.3916 0
M  V30 9211 H 837.606 -1.25263 3.97951 0
M  V30 9212 H 836.236 -1.49048 2.86329 0
M  V30 9213 H 835.288 0.770829 3.72508 0
M  V30 9214 H 836.6 0.794923 4.92425 0
M  V30 9215 H 835.754 -1.34146 5.91684 0
M  V30 9216 H 834.493 -1.45034 4.65636 0
M  V30 9217 H 833.498 0.712999 5.45157 0
M  V30 9218 H 834.723 0.806557 6.74293 0
M  V30 9219 H 832.669 -1.41206 6.40622 0
M  V30 9220 H 832.586 -0.12058 7.55904 0
M  V30 9221 H 833.854 -1.30303 7.68532 0
M  V30 9222 N 838.083 -1.48885 0.516809 0
M  V30 9223 C 838.993 -2.33185 -0.257293 0
M  V30 9224 C 840.009 -1.4565 -0.951952 0
M  V30 9225 O 841.185 -1.78651 -0.929834 0
M  V30 9226 C 838.25 -3.21465 -1.29851 0
M  V30 9227 C 837.311 -4.24863 -0.615608 0
M  V30 9228 C 836.544 -5.08925 -1.60722 0
M  V30 9229 O 836.767 -4.9475 -2.83863 0
M  V30 9230 O 835.701 -5.90737 -1.15384 0
M  V30 9231 H 839.527 -3.00596 0.433131 0
M  V30 9232 H 837.112 -1.46792 0.277908 0
M  V30 9233 H 838.994 -3.76108 -1.90055 0
M  V30 9234 H 837.669 -2.5673 -1.97158 0
M  V30 9235 H 836.576 -3.74091 0.0265829 0
M  V30 9236 H 837.909 -4.92198 0.0152871 0
M  V30 9237 N 839.561 -0.251338 -1.55583 0
M  V30 9238 C 840.524 0.63305 -2.20284 0
M  V30 9239 C 841.524 1.09941 -1.17344 0
M  V30 9240 O 842.714 1.00341 -1.42399 0
M  V30 9241 C 839.846 1.8706 -2.84993 0
M  V30 9242 H 841.039 0.0684846 -2.99822 0
M  V30 9243 H 838.592 -0.00181653 -1.563 0
M  V30 9244 H 839.327 2.47629 -2.09405 0
M  V30 9245 H 839.112 1.54436 -3.60405 0
M  V30 9246 H 840.602 2.50004 -3.34496 0
M  V30 9247 N 841.039 1.57585 0.0217189 0
M  V30 9248 C 842.316 1.80779 0.74687 0
M  V30 9249 C 842.696 0.851163 1.9318 0
M  V30 9250 O 842.044 -0.105039 2.28258 0
M  V30 9251 C 842.254 3.28696 1.17302 0
M  V30 9252 C 843.602 3.93871 1.58589 0
M  V30 9253 O 844.626 3.3289 1.2674 0
M  V30 9254 O 843.485 5.01254 2.1773 0
M  V30 9255 H 840.579 0.743666 0.361786 0
M  V30 9256 H 843.125 1.697 -0.00206785 0
M  V30 9257 H 841.897 3.89927 0.327453 0
M  V30 9258 H 841.52 3.44692 1.98174 0
M  V30 9259 N 842.517 -0.29412 1.54831 0
M  V30 9260 C 843.764 -1.02846 1.74439 0
M  V30 9261 C 844.092 -1.87029 0.533905 0
M  V30 9262 O 843.347 -1.8962 -0.484035 0
M  V30 9263 C 843.646 -1.95782 2.99006 0
M  V30 9264 C 843.312 -1.2752 4.32492 0
M  V30 9265 C 841.974 -1.08637 4.68777 0
M  V30 9266 C 844.326 -0.787761 5.15212 0
M  V30 9267 C 841.654 -0.39704 5.85355 0
M  V30 9268 C 844.006 -0.112123 6.32501 0
M  V30 9269 C 842.67 0.0886071 6.67441 0
M  V30 9270 H 841.94 -0.376341 0.638317 0
M  V30 9271 H 844.587 -0.302684 1.89093 0
M  V30 9272 H 842.892 -2.74911 2.79162 0
M  V30 9273 H 844.589 -2.52684 3.11371 0
M  V30 9274 H 841.179 -1.43226 4.03961 0
M  V30 9275 H 845.363 -0.921341 4.87673 0
M  V30 9276 H 840.619 -0.230597 6.10965 0
M  V30 9277 H 844.793 0.27344 6.95863 0
M  V30 9278 H 842.42 0.624748 7.57628 0
M  V30 9279 N 843.995 -1.47404 -0.557645 0
M  V30 9280 C 845.22 -1.57868 -1.34508 0
M  V30 9281 C 845.645 -0.229151 -1.86699 0
M  V30 9282 O 845.003 0.794908 -1.62944 0
M  V30 9283 C 845.051 -2.60712 -2.49122 0
M  V30 9284 O 844.155 -2.15952 -3.51338 0
M  V30 9285 H 843.496 -0.530335 -0.399551 0
M  V30 9286 H 846.026 -1.93181 -0.673954 0
M  V30 9287 H 846.036 -2.81118 -2.95697 0
M  V30 9288 H 844.711 -3.58701 -2.10491 0
M  V30 9289 H 843.288 -2.05644 -3.11071 0
M  V30 9290 N 845.473 0.80434 -1.35529 0
M  V30 9291 C 846.884 1.37849 -1.25915 0
M  V30 9292 C 847.235 1.95905 0.107495 0
M  V30 9293 O 846.36 1.91462 1.00852 0
M  V30 9294 C 846.955 2.50608 -2.27994 0
M  V30 9295 C 845.514 3.03879 -2.22114 0
M  V30 9296 C 844.661 1.76856 -2.13582 0
M  V30 9297 H 847.612 0.607192 -1.46625 0
M  V30 9298 H 847.633 3.29221 -1.90772 0
M  V30 9299 H 847.145 2.08323 -3.27449 0
M  V30 9300 H 845.246 3.50622 -1.26077 0
M  V30 9301 H 845.359 3.61707 -3.14173 0
M  V30 9302 H 843.723 1.98498 -1.59595 0
M  V30 9303 H 844.506 1.36721 -3.14901 0
M  V30 9304 N 846.951 1.19563 1.02676 0
M  V30 9305 C 848.176 1.02556 1.80269 0
M  V30 9306 C 848.601 -0.421056 1.83327 0
M  V30 9307 O 847.959 -1.30279 1.26084 0
M  V30 9308 C 848.007 1.60165 3.23078 0
M  V30 9309 O 847.111 0.832404 4.03912 0
M  V30 9310 H 846.452 0.362354 0.556413 0
M  V30 9311 H 848.982 1.58633 1.29216 0
M  V30 9312 H 848.992 1.6347 3.7382 0
M  V30 9313 H 847.667 2.65454 3.20167 0
M  V30 9314 H 846.244 0.872768 3.62543 0
M  V30 9315 N 848.429 -1.21819 0.999893 0
M  V30 9316 C 849.675 -1.91035 0.680701 0
M  V30 9317 C 850.008 -1.77582 -0.786021 0
M  V30 9318 O 849.283 -1.14917 -1.56921 0
M  V30 9319 C 849.566 -3.43013 1.0961 0
M  V30 9320 C 849.419 -3.65481 2.6219 0
M  V30 9321 C 850.738 -4.35204 0.654616 0
M  V30 9322 H 847.857 -0.693748 0.248763 0
M  V30 9323 H 850.499 -1.43555 1.24466 0
M  V30 9324 H 848.649 -3.83581 0.616253 0
M  V30 9325 H 850.321 -3.34273 3.17899 0
M  V30 9326 H 848.564 -3.09522 3.03938 0
M  V30 9327 H 849.235 -4.71945 2.86307 0
M  V30 9328 H 851.711 -4.0219 1.06688 0
M  V30 9329 H 850.587 -5.40198 0.973492 0
M  V30 9330 H 850.848 -4.3986 -0.444458 0
M  V30 9331 N 849.908 -0.773975 -1.37286 0
M  V30 9332 C 850.871 -0.167974 -2.28584 0
M  V30 9333 C 851.871 0.625662 -1.48129 0
M  V30 9334 O 853.061 0.448924 -1.68316 0
M  V30 9335 C 850.193 0.769364 -3.32105 0
M  V30 9336 H 851.386 -0.972806 -2.83684 0
M  V30 9337 H 848.939 -0.542335 -1.46589 0
M  V30 9338 H 849.674 1.59912 -2.82132 0
M  V30 9339 H 849.459 0.202419 -3.91577 0
M  V30 9340 H 850.949 1.18872 -4.00324 0
M  V30 9341 N 851.386 1.48609 -0.524698 0
M  V30 9342 C 852.633 2.02497 0.0113214 0
M  V30 9343 C 852.961 1.40229 1.34781 0
M  V30 9344 O 852.216 0.53557 1.88229 0
M  V30 9345 C 852.515 3.56906 0.187873 0
M  V30 9346 C 852.181 4.37932 -1.07359 0
M  V30 9347 C 850.843 4.59792 -1.41933 0
M  V30 9348 C 853.195 4.84902 -1.911 0
M  V30 9349 C 850.523 5.25868 -2.60154 0
M  V30 9350 C 852.875 5.52281 -3.08495 0
M  V30 9351 C 851.539 5.7238 -3.4342 0
M  V30 9352 H 850.809 0.740988 0.0041428 0
M  V30 9353 H 853.456 1.78651 -0.689652 0
M  V30 9354 H 851.761 3.79563 0.971572 0
M  V30 9355 H 853.458 3.96218 0.617443 0
M  V30 9356 H 850.048 4.21175 -0.794331 0
M  V30 9357 H 854.232 4.67821 -1.65701 0
M  V30 9358 H 849.488 5.39628 -2.87422 0
M  V30 9359 H 853.662 5.87645 -3.73692 0
M  V30 9360 H 851.289 6.23354 -4.35126 0
M  V30 9361 N 852.864 0.259585 1.55447 0
M  V30 9362 C 853.827 -0.621359 2.20617 0
M  V30 9363 C 854.827 -1.09317 1.17925 0
M  V30 9364 O 856.017 -0.995842 1.42929 0
M  V30 9365 C 853.149 -1.85546 2.85982 0
M  V30 9366 H 854.342 -0.0525833 2.99854 0
M  V30 9367 H 851.895 0.0101055 1.56297 0
M  V30 9368 H 852.63 -2.46515 2.10715 0
M  V30 9369 H 852.415 -1.52523 3.61219 0
M  V30 9370 H 853.905 -2.48227 3.35817 0
M  V30 9371 N 854.342 -1.57594 -0.0133615 0
M  V30 9372 C 855.567 -1.94649 -0.715996 0
M  V30 9373 C 855.992 -0.860786 -1.67249 0
M  V30 9374 O 855.35 0.182228 -1.80382 0
M  V30 9375 C 855.398 -3.30789 -1.43566 0
M  V30 9376 O 854.502 -3.24148 -2.54955 0
M  V30 9377 H 853.843 -0.635801 -0.191449 0
M  V30 9378 H 856.373 -2.04569 0.0358478 0
M  V30 9379 H 856.383 -3.66045 -1.80208 0
M  V30 9380 H 855.058 -4.09367 -0.734263 0
M  V30 9381 H 853.635 -3.00548 -2.20739 0
M  V30 9382 N 855.82 0.285905 -1.54985 0
M  V30 9383 C 856.75 1.35752 -1.89983 0
M  V30 9384 C 857.731 1.52163 -0.760295 0
M  V30 9385 O 858.916 1.65421 -1.01733 0
M  V30 9386 C 856.046 2.71925 -2.16042 0
M  V30 9387 C 855 2.70261 -3.31878 0
M  V30 9388 C 854.326 4.09864 -3.43388 0
M  V30 9389 C 855.626 2.30667 -4.68604 0
M  V30 9390 H 857.32 1.06709 -2.79738 0
M  V30 9391 H 854.866 0.511884 -1.34595 0
M  V30 9392 H 856.819 3.46992 -2.39113 0
M  V30 9393 H 855.543 3.02523 -1.23074 0
M  V30 9394 H 854.202 1.97651 -3.08755 0
M  V30 9395 H 853.85 4.37664 -2.47909 0
M  V30 9396 H 853.55 4.09648 -4.21262 0
M  V30 9397 H 855.074 4.86689 -3.68736 0
M  V30 9398 H 856.488 2.95453 -4.91305 0
M  V30 9399 H 854.885 2.41637 -5.49301 0
M  V30 9400 H 855.955 1.25793 -4.68299 0
M  V30 9401 N 857.298 1.47698 0.54982 0
M  V30 9402 C 858.523 1.58579 1.33669 0
M  V30 9403 C 858.948 0.239049 1.86575 0
M  V30 9404 O 858.306 -0.786256 1.63364 0
M  V30 9405 C 858.354 2.62029 2.47736 0
M  V30 9406 O 857.458 2.17813 3.50188 0
M  V30 9407 H 856.799 0.532447 0.396732 0
M  V30 9408 H 859.329 1.93536 0.6637 0
M  V30 9409 H 859.339 2.82682 2.94202 0
M  V30 9410 H 858.014 3.59812 2.08586 0
M  V30 9411 H 856.591 2.07291 3.09976 0
M  V30 9412 N 858.776 -0.797141 1.35954 0
M  V30 9413 C 859.706 -1.92387 1.32323 0
M  V30 9414 C 860.687 -1.68967 0.196007 0
M  V30 9415 O 861.872 -1.90193 0.39245 0
M  V30 9416 C 859.002 -3.29286 1.10398 0
M  V30 9417 C 857.956 -3.67212 2.19862 0
M  V30 9418 C 857.282 -5.02377 1.8309 0
M  V30 9419 C 858.582 -3.76602 3.61896 0
M  V30 9420 H 860.276 -1.95683 2.26602 0
M  V30 9421 H 857.822 -0.94007 1.09081 0
M  V30 9422 H 859.775 -4.07721 1.06495 0
M  V30 9423 H 858.499 -3.26358 0.125668 0
M  V30 9424 H 857.158 -2.91069 2.22878 0
M  V30 9425 H 856.806 -4.95961 0.838527 0
M  V30 9426 H 856.506 -5.28722 2.56372 0
M  V30 9427 H 858.03 -5.8324 1.80729 0
M  V30 9428 H 859.444 -4.45246 3.6115 0
M  V30 9429 H 857.841 -4.14425 4.34018 0
M  V30 9430 H 858.911 -2.77906 3.97361 0
M  V30 9431 N 860.254 -1.20106 -1.0204 0
M  V30 9432 C 861.501 -1.00889 -1.75578 0
M  V30 9433 C 861.829 0.459415 -1.88996 0
M  V30 9434 O 861.084 1.35735 -1.40977 0
M  V30 9435 C 861.383 -1.63308 -3.17908 0
M  V30 9436 C 861.049 -3.13091 -3.24476 0
M  V30 9437 C 859.711 -3.53968 -3.25976 0
M  V30 9438 C 862.063 -4.09093 -3.22944 0
M  V30 9439 C 859.391 -4.89381 -3.2361 0
M  V30 9440 C 861.743 -5.44447 -3.22119 0
M  V30 9441 C 860.407 -5.84742 -3.2192 0
M  V30 9442 H 859.677 -0.36918 -0.642485 0
M  V30 9443 H 862.324 -1.49475 -1.19706 0
M  V30 9444 H 860.629 -1.06974 -3.76914 0
M  V30 9445 H 862.326 -1.45958 -3.73493 0
M  V30 9446 H 858.916 -2.80526 -3.24042 0
M  V30 9447 H 863.1 -3.78549 -3.20958 0
M  V30 9448 H 858.356 -5.1987 -3.21785 0
M  V30 9449 H 862.53 -6.18584 -3.19885 0
M  V30 9450 H 860.157 -6.89642 -3.19841 0
M  V30 9451 N 861.732 1.21287 -1.00634 0
M  V30 9452 C 862.682 2.21541 -0.53886 0
M  V30 9453 C 863.666 1.55842 0.400256 0
M  V30 9454 O 864.858 1.75566 0.224889 0
M  V30 9455 C 861.987 3.43047 0.131796 0
M  V30 9456 C 861.073 4.1593 -0.828419 0
M  V30 9457 N 861.464 4.65359 -1.98178 0
M  V30 9458 C 859.762 4.41281 -0.647083 0
M  V30 9459 C 860.463 5.21079 -2.58557 0
M  V30 9460 N 859.439 5.10531 -1.86705 0
M  V30 9461 H 863.241 2.57413 -1.41831 0
M  V30 9462 H 860.755 1.37109 -0.870338 0
M  V30 9463 H 862.752 4.14079 0.484178 0
M  V30 9464 H 861.412 3.08683 1.00721 0
M  V30 9465 H 862.423 4.60896 -2.3621 0
M  V30 9466 H 859.1 4.17107 0.181139 0
M  V30 9467 H 860.49 5.6977 -3.56107 0
M  V30 9468 N 863.21 0.781244 1.36873 0
M  V30 9469 C 864.459 0.34652 1.98701 0
M  V30 9470 C 864.772 -1.08555 1.62712 0
M  V30 9471 O 865.978 -1.62213 2.17713 0
M  V30 9472 C 864.434 0.568611 3.5538 0
M  V30 9473 C 864.042 2.01156 4.003 0
M  V30 9474 C 865.786 0.197983 4.24038 0
M  V30 9475 C 863.693 2.18074 5.49725 0
M  V30 9476 H 862.623 0.125821 0.743428 0
M  V30 9477 H 865.274 0.961721 1.56279 0
M  V30 9478 H 863.656 -0.116185 3.9583 0
M  V30 9479 H 864.83 2.73209 3.71071 0
M  V30 9480 H 863.145 2.33967 3.44454 0
M  V30 9481 H 865.742 0.302778 5.33842 0
M  V30 9482 H 866.085 -0.852927 4.07469 0
M  V30 9483 H 866.618 0.835696 3.88923 0
M  V30 9484 H 863.357 3.21519 5.71232 0
M  V30 9485 H 862.877 1.50517 5.80607 0
M  V30 9486 H 864.556 1.98393 6.15832 0
M  V30 9487 N 864.689 -1.48329 0.532571 0
M  V30 9488 C 865.619 -2.32485 -0.217511 0
M  V30 9489 C 866.6 -1.42255 -0.932598 0
M  V30 9490 O 867.785 -1.7114 -0.917873 0
M  V30 9491 C 864.915 -3.23509 -1.26329 0
M  V30 9492 C 863.869 -4.22784 -0.666191 0
M  V30 9493 C 863.195 -5.0296 -1.81482 0
M  V30 9494 C 864.495 -5.21031 0.363813 0
M  V30 9495 H 866.189 -2.95445 0.485014 0
M  V30 9496 H 863.735 -1.42075 0.234694 0
M  V30 9497 H 865.688 -3.81211 -1.79601 0
M  V30 9498 H 864.412 -2.58554 -1.99543 0
M  V30 9499 H 863.071 -3.66272 -0.15498 0
M  V30 9500 H 862.719 -4.34427 -2.5354 0
M  V30 9501 H 862.419 -5.70154 -1.4212 0
M  V30 9502 H 863.943 -5.63514 -2.35126 0
M  V30 9503 H 865.357 -5.73241 -0.0819079 0
M  V30 9504 H 863.754 -5.96292 0.674956 0
M  V30 9505 H 864.824 -4.6801 1.26865 0
M  V30 9506 N 866.167 -0.267825 -1.55308 0
M  V30 9507 C 867.413 0.351556 -1.9973 0
M  V30 9508 C 867.746 1.56049 -1.15596 0
M  V30 9509 O 867.021 1.93203 -0.224274 0
M  V30 9510 C 867.304 0.74091 -3.52395 0
M  V30 9511 C 867.157 -0.474861 -4.47286 0
M  V30 9512 C 868.476 1.5801 -4.10756 0
M  V30 9513 H 865.595 0.126308 -0.726096 0
M  V30 9514 H 868.237 -0.373316 -1.86296 0
M  V30 9515 H 866.387 1.35851 -3.63973 0
M  V30 9516 H 868.059 -1.1134 -4.47662 0
M  V30 9517 H 866.302 -1.11425 -4.19246 0
M  V30 9518 H 866.973 -0.158782 -5.51772 0
M  V30 9519 H 869.449 1.05857 -4.0241 0
M  V30 9520 H 868.325 1.82135 -5.17801 0
M  V30 9521 H 868.586 2.55878 -3.60526 0
M  V30 9522 N 867.645 1.57599 0.00500368 0
M  V30 9523 C 868.873 1.94626 0.702016 0
M  V30 9524 C 869.288 0.86953 1.67585 0
M  V30 9525 O 868.645 -0.15199 1.81866 0
M  V30 9526 C 868.696 3.31658 1.43824 0
M  V30 9527 O 868.417 4.35197 0.503467 0
M  V30 9528 C 869.918 3.83114 2.23021 0
M  V30 9529 H 867.138 0.641785 0.195841 0
M  V30 9530 H 869.682 2.04451 -0.0446287 0
M  V30 9531 H 867.837 3.23156 2.13655 0
M  V30 9532 H 868.251 5.1444 1.02235 0
M  V30 9533 H 869.725 4.81438 2.7004 0
M  V30 9534 H 870.202 3.15559 3.05482 0
M  V30 9535 H 870.808 3.94775 1.58216 0
M  V30 9536 N 869.123 -0.277682 1.55134 0
M  V30 9537 C 870.534 -0.849063 1.66276 0
M  V30 9538 C 870.885 -1.87223 0.5867 0
M  V30 9539 O 870.01 -2.14676 -0.272635 0
M  V30 9540 C 870.605 -1.54681 3.01429 0
M  V30 9541 C 869.164 -2.06628 3.14614 0
M  V30 9542 C 868.311 -0.906748 2.62056 0
M  V30 9543 H 871.262 -0.0541357 1.58608 0
M  V30 9544 H 871.283 -2.41356 2.94156 0
M  V30 9545 H 870.795 -0.80189 3.79725 0
M  V30 9546 H 868.896 -2.84095 2.41082 0
M  V30 9547 H 869.009 -2.2848 4.2111 0
M  V30 9548 H 867.373 -1.29882 2.19095 0
M  V30 9549 H 868.156 -0.175414 3.42852 0
M  V30 9550 N 870.601 -1.47988 -0.541979 0
M  V30 9551 C 871.531 -1.64503 -1.65713 0
M  V30 9552 C 872.512 -0.494116 -1.62765 0
M  V30 9553 O 873.697 -0.725256 -1.80149 0
M  V30 9554 C 870.827 -1.67337 -3.04328 0
M  V30 9555 C 869.781 -2.81809 -3.2213 0
M  V30 9556 C 869.107 -2.69724 -4.61685 0
M  V30 9557 C 870.407 -4.23241 -3.06046 0
M  V30 9558 H 872.101 -2.5786 -1.52147 0
M  V30 9559 H 869.647 -1.24094 -0.730529 0
M  V30 9560 H 871.6 -1.77481 -3.82202 0
M  V30 9561 H 870.324 -0.705514 -3.18889 0
M  V30 9562 H 868.983 -2.71201 -2.46669 0
M  V30 9563 H 868.631 -1.70934 -4.73065 0
M  V30 9564 H 868.331 -3.4653 -4.74543 0
M  V30 9565 H 869.855 -2.81818 -5.41674 0
M  V30 9566 H 871.269 -4.34746 -3.73723 0
M  V30 9567 H 869.666 -5.00952 -3.30405 0
M  V30 9568 H 870.736 -4.40543 -2.02609 0
M  V30 9569 N 872.079 0.78992 -1.36375 0
M  V30 9570 C 873.326 1.54777 -1.30576 0
M  V30 9571 C 873.654 1.94159 0.115095 0
M  V30 9572 O 872.909 1.62918 1.08426 0
M  V30 9573 C 873.208 2.83698 -2.17371 0
M  V30 9574 C 872.874 2.63457 -3.65925 0
M  V30 9575 C 871.536 2.57645 -4.06415 0
M  V30 9576 C 873.888 2.44833 -4.60115 0
M  V30 9577 C 871.216 2.31174 -5.39236 0
M  V30 9578 C 873.568 2.19889 -5.93154 0
M  V30 9579 C 872.232 2.1251 -6.32768 0
M  V30 9580 H 871.502 0.566371 -0.477813 0
M  V30 9581 H 874.149 0.91138 -1.68422 0
M  V30 9582 H 872.454 3.51802 -1.72459 0
M  V30 9583 H 874.151 3.41487 -2.10209 0
M  V30 9584 H 870.741 2.68836 -3.33804 0
M  V30 9585 H 874.925 2.48325 -4.29707 0
M  V30 9586 H 870.181 2.23942 -5.68911 0
M  V30 9587 H 874.355 2.04473 -6.65705 0
M  V30 9588 H 871.982 1.91761 -7.35616 0
M  V30 9589 N 873.557 1.20646 1.01402 0
M  V30 9590 C 874.487 0.98155 2.11867 0
M  V30 9591 C 875.468 -0.0903712 1.6986 0
M  V30 9592 O 876.653 0.0676586 1.94082 0
M  V30 9593 C 873.783 0.535636 3.43145 0
M  V30 9594 C 872.737 1.55109 3.98905 0
M  V30 9595 C 872.063 0.961725 5.2598 0
M  V30 9596 C 873.363 2.93552 4.32001 0
M  V30 9597 H 875.057 1.90544 2.3094 0
M  V30 9598 H 872.603 0.917554 1.10982 0
M  V30 9599 H 874.556 0.365512 4.19812 0
M  V30 9600 H 873.28 -0.423882 3.23838 0
M  V30 9601 H 871.939 1.70862 3.24348 0
M  V30 9602 H 871.587 -0.00580108 5.03 0
M  V30 9603 H 871.287 1.63993 5.64252 0
M  V30 9604 H 872.811 0.802726 6.053 0
M  V30 9605 H 874.225 2.81295 4.99546 0
M  V30 9606 H 872.622 3.58303 4.81393 0
M  V30 9607 H 873.692 3.4508 3.40658 0
M  V30 9608 N 875.035 -1.20752 1.01276 0
M  V30 9609 C 875.965 -2.25658 0.600064 0
M  V30 9610 C 876.946 -1.65733 -0.38298 0
M  V30 9611 O 878.131 -1.92324 -0.269256 0
M  V30 9612 C 875.261 -3.47237 -0.0663197 0
M  V30 9613 C 874.215 -4.1973 0.83731 0
M  V30 9614 C 873.541 -5.34687 0.0369102 0
M  V30 9615 C 874.841 -4.76286 2.14357 0
M  V30 9616 H 876.535 -2.60432 1.477 0
M  V30 9617 H 874.081 -1.25187 0.711634 0
M  V30 9618 H 876.034 -4.19803 -0.366563 0
M  V30 9619 H 874.758 -3.11615 -0.977944 0
M  V30 9620 H 873.417 -3.49024 1.1215 0
M  V30 9621 H 873.065 -4.95309 -0.876244 0
M  V30 9622 H 872.765 -5.84119 0.63865 0
M  V30 9623 H 874.289 -6.10059 -0.256968 0
M  V30 9624 H 875.703 -5.40691 1.90595 0
M  V30 9625 H 874.1 -5.36139 2.69583 0
M  V30 9626 H 875.17 -3.9524 2.80916 0
M  V30 9627 N 876.513 -0.788492 -1.36457 0
M  V30 9628 C 877.738 -0.371224 -2.04051 0
M  V30 9629 C 878.163 1.004 -1.59064 0
M  V30 9630 O 877.521 1.64663 -0.758679 0
M  V30 9631 C 877.569 -0.442275 -3.57877 0
M  V30 9632 O 876.673 0.55113 -4.08701 0
M  V30 9633 H 876.014 -0.157808 -0.644975 0
M  V30 9634 H 878.544 -1.06935 -1.74431 0
M  V30 9635 H 878.554 -0.305548 -4.06854 0
M  V30 9636 H 877.229 -1.44547 -3.89973 0
M  V30 9637 H 875.806 0.37614 -3.70998 0
M  V30 9638 N 877.991 1.48044 -0.54043 0
M  V30 9639 C 879.216 2.07396 -0.0124765 0
M  V30 9640 C 879.641 1.39288 1.26414 0
M  V30 9641 O 878.999 0.462252 1.75308 0
M  V30 9642 C 879.047 3.60131 0.18377 0
M  V30 9643 O 878.151 3.92995 1.25014 0
M  V30 9644 H 877.492 0.662554 -0.0438026 0
M  V30 9645 H 880.022 1.90306 -0.751327 0
M  V30 9646 H 880.032 4.06003 0.403197 0
M  V30 9647 H 878.707 4.09105 -0.74874 0
M  V30 9648 H 877.284 3.5889 1.01254 0
M  V30 9649 N 879.47 0.276058 1.55163 0
M  V30 9650 C 880.716 -0.340959 1.99913 0
M  V30 9651 C 881.049 -1.55434 1.16422 0
M  V30 9652 O 880.324 -1.93081 0.234517 0
M  V30 9653 C 880.607 -0.722211 3.52783 0
M  V30 9654 C 880.46 0.498575 4.47028 0
M  V30 9655 C 881.779 -1.5583 4.11589 0
M  V30 9656 H 878.898 -0.122455 0.726756 0
M  V30 9657 H 881.54 0.38319 1.86096 0
M  V30 9658 H 879.69 -1.33919 3.64689 0
M  V30 9659 H 881.362 1.13713 4.47065 0
M  V30 9660 H 879.605 1.13646 4.18649 0
M  V30 9661 H 880.276 0.188041 5.5168 0
M  V30 9662 H 882.752 -1.03722 4.02965 0
M  V30 9663 H 881.628 -1.79387 5.1876 0
M  V30 9664 H 881.889 -2.53963 3.61877 0
M  V30 9665 N 880.948 -1.576 0.00335426 0
M  V30 9666 C 882.194 -1.90996 -0.681799 0
M  V30 9667 C 882.527 -0.877643 -1.73237 0
M  V30 9668 O 881.802 0.103183 -1.94226 0
M  V30 9669 C 882.085 -3.34961 -1.32187 0
M  V30 9670 C 881.938 -4.48911 -0.28261 0
M  V30 9671 C 883.257 -3.78408 -2.24711 0
M  V30 9672 H 880.376 -0.694596 -0.246386 0
M  V30 9673 H 883.018 -1.89919 0.055336 0
M  V30 9674 H 881.168 -3.36008 -1.95014 0
M  V30 9675 H 882.84 -4.59999 0.346241 0
M  V30 9676 H 881.083 -4.32 0.394768 0
M  V30 9677 H 881.754 -5.46609 -0.769576 0
M  V30 9678 H 884.23 -3.78934 -1.71897 0
M  V30 9679 H 883.106 -4.79885 -2.66461 0
M  V30 9680 H 883.367 -3.12464 -3.1276 0
M  V30 9681 N 882.426 0.269451 -1.5528 0
M  V30 9682 C 883.842 0.616827 -1.47199 0
M  V30 9683 C 884.042 1.89354 -0.68901 0
M  V30 9684 O 883.098 2.51631 -0.209287 0
M  V30 9685 C 884.411 0.740492 -2.9144 0
M  V30 9686 C 885.959 0.834312 -3.01676 0
M  V30 9687 C 886.434 0.989725 -4.47178 0
M  V30 9688 N 887.925 1.05516 -4.51022 0
M  V30 9689 C 888.66 1.19427 -5.60825 0
M  V30 9690 N 888.156 1.30035 -6.80487 0
M  V30 9691 N 889.949 1.22566 -5.48575 0
M  V30 9692 H 882.1 -0.568962 -2.04638 0
M  V30 9693 H 884.363 -0.193153 -0.928114 0
M  V30 9694 H 884.069 -0.127234 -3.5147 0
M  V30 9695 H 883.943 1.61965 -3.40657 0
M  V30 9696 H 886.33 1.6925 -2.4174 0
M  V30 9697 H 886.411 -0.0695298 -2.55705 0
M  V30 9698 H 886.055 0.136179 -5.07717 0
M  V30 9699 H 885.985 1.90827 -4.90808 0
M  V30 9700 H 888.476 0.985434 -3.64825 0
M  V30 9701 H 888.789 1.40494 -7.59922 0
M  V30 9702 H 887.134 1.27033 -6.83292 0
M  V30 9703 H 890.325 1.13911 -4.54029 0
M  V30 9704 H 890.498 1.33063 -6.34191 0
M  V30 9705 N 883.904 1.48273 0.534124 0
M  V30 9706 C 885.129 1.59988 1.31979 0
M  V30 9707 C 885.554 0.258824 1.86311 0
M  V30 9708 O 884.912 -0.768885 1.64188 0
M  V30 9709 C 884.96 2.64642 2.44943 0
M  V30 9710 O 884.064 2.21515 3.47858 0
M  V30 9711 H 883.405 0.536625 0.391063 0
M  V30 9712 H 885.935 1.94229 0.643135 0
M  V30 9713 H 885.945 2.85786 2.91187 0
M  V30 9714 H 884.62 3.62004 2.04758 0
M  V30 9715 H 883.197 2.10567 3.0776 0
M  V30 9716 N 885.382 -0.782676 1.36792 0
M  V30 9717 C 886.61 -1.57162 1.34565 0
M  V30 9718 C 887.025 -1.88664 -0.0715501 0
M  V30 9719 O 886.382 -1.50633 -1.03033 0
M  V30 9720 C 886.433 -2.88854 2.1736 0
M  V30 9721 O 886.154 -2.58707 3.53557 0
M  V30 9722 C 887.655 -3.83132 2.2299 0
M  V30 9723 H 884.875 -0.487245 0.461338 0
M  V30 9724 H 887.419 -0.970905 1.79982 0
M  V30 9725 H 885.574 -3.45377 1.7548 0
M  V30 9726 H 885.988 -3.42961 3.96835 0
M  V30 9727 H 887.462 -4.72575 2.85266 0
M  V30 9728 H 887.939 -4.21472 1.23524 0
M  V30 9729 H 888.545 -3.32541 2.65135 0
M  V30 9730 N 886.86 -1.21182 -1.00761 0
M  V30 9731 C 888.106 -1.02898 -1.74756 0
M  V30 9732 C 888.439 0.436774 -1.89225 0
M  V30 9733 O 887.714 1.32415 -1.42466 0
M  V30 9734 C 887.997 -1.72372 -3.16164 0
M  V30 9735 C 887.85 -3.2645 -3.09435 0
M  V30 9736 C 889.169 -1.46415 -4.15031 0
M  V30 9737 H 886.288 -0.375214 -0.634337 0
M  V30 9738 H 888.93 -1.49321 -1.17487 0
M  V30 9739 H 887.08 -1.32906 -3.65059 0
M  V30 9740 H 888.752 -3.75269 -2.68274 0
M  V30 9741 H 886.995 -3.56889 -2.46603 0
M  V30 9742 H 887.666 -3.70226 -4.09435 0
M  V30 9743 H 890.142 -1.80671 -3.7483 0
M  V30 9744 H 889.018 -1.97544 -5.12121 0
M  V30 9745 H 889.279 -0.39361 -4.40344 0
M  V30 9746 N 888.338 1.20213 -1.01915 0
M  V30 9747 C 889.285 2.2309 -0.591571 0
M  V30 9748 C 890.255 1.61465 0.389649 0
M  V30 9749 O 891.44 1.88606 0.288511 0
M  V30 9750 C 888.58 3.45045 0.0614028 0
M  V30 9751 C 887.693 4.21091 -0.964688 0
M  V30 9752 C 886.828 5.30448 -0.282499 0
M  V30 9753 C 885.867 5.98241 -1.29517 0
M  V30 9754 N 885.004 6.99182 -0.639472 0
M  V30 9755 H 889.844 2.59023 -1.47347 0
M  V30 9756 H 887.381 1.27274 -0.737547 0
M  V30 9757 H 889.339 4.14688 0.45714 0
M  V30 9758 H 887.969 3.09797 0.906937 0
M  V30 9759 H 887.021 3.50489 -1.47857 0
M  V30 9760 H 888.333 4.67662 -1.73475 0
M  V30 9761 H 887.487 6.06466 0.168603 0
M  V30 9762 H 886.226 4.84922 0.519843 0
M  V30 9763 H 885.231 5.20982 -1.75663 0
M  V30 9764 H 886.456 6.45853 -2.09884 0
M  V30 9765 H 884.402 6.55844 0.142955 0
M  V30 9766 H 884.319 7.43893 -1.34756 0
M  V30 9767 H 885.587 7.79212 -0.212047 0
M  V30 9768 N 889.816 0.795718 1.36037 0
M  V30 9769 C 890.779 0.204318 2.28287 0
M  V30 9770 C 891.779 -0.602017 1.49105 0
M  V30 9771 O 892.969 -0.422089 1.69009 0
M  V30 9772 C 890.101 -0.716431 3.33287 0
M  V30 9773 H 891.294 1.01781 2.821 0
M  V30 9774 H 888.847 0.565588 1.45708 0
M  V30 9775 H 889.582 -1.55403 2.84641 0
M  V30 9776 H 889.367 -0.140096 3.9185 0
M  V30 9777 H 890.857 -1.12488 4.02164 0
M  V30 9778 N 891.294 -1.47756 0.548274 0
M  V30 9779 C 892.224 -2.32702 -0.19284 0
M  V30 9780 C 893.205 -1.43237 -0.917457 0
M  V30 9781 O 894.39 -1.72103 -0.89967 0
M  V30 9782 C 891.52 -3.24831 -1.22891 0
M  V30 9783 C 890.474 -4.23466 -0.621312 0
M  V30 9784 C 889.8 -5.04856 -1.76137 0
M  V30 9785 C 891.1 -5.20616 0.419055 0
M  V30 9786 H 892.794 -2.94914 0.516323 0
M  V30 9787 H 890.34 -1.41818 0.24975 0
M  V30 9788 H 892.293 -3.83094 -1.75547 0
M  V30 9789 H 891.017 -2.60656 -1.9679 0
M  V30 9790 H 889.676 -3.66416 -0.116123 0
M  V30 9791 H 889.324 -4.37091 -2.48918 0
M  V30 9792 H 889.024 -5.71629 -1.36065 0
M  V30 9793 H 890.548 -5.65976 -2.29136 0
M  V30 9794 H 891.962 -5.73296 -0.0211034 0
M  V30 9795 H 890.359 -5.95543 0.738163 0
M  V30 9796 H 891.429 -4.66638 1.31822 0
M  V30 9797 N 892.772 -0.284283 -1.55015 0
M  V30 9798 C 894.018 0.330352 -2.00091 0
M  V30 9799 C 894.351 1.54814 -1.17244 0
M  V30 9800 O 893.626 1.92954 -0.244753 0
M  V30 9801 C 893.909 0.703492 -3.53161 0
M  V30 9802 C 893.762 -0.522275 -4.46758 0
M  V30 9803 C 895.081 1.53645 -4.12409 0
M  V30 9804 H 892.2 0.118599 -0.727395 0
M  V30 9805 H 894.842 -0.393054 -1.8589 0
M  V30 9806 H 892.992 1.31983 -3.65394 0
M  V30 9807 H 894.664 -1.16082 -4.46456 0
M  V30 9808 H 892.907 -1.15865 -4.1804 0
M  V30 9809 H 893.578 -0.217295 -5.51572 0
M  V30 9810 H 896.054 1.01583 -4.0351 0
M  V30 9811 H 894.93 1.76633 -5.19704 0
M  V30 9812 H 895.191 2.5204 -3.63219 0
M  V30 9813 N 894.251 1.57596 -0.0117121 0
M  V30 9814 C 895.476 1.95764 0.684938 0
M  V30 9815 C 895.901 0.887285 1.65858 0
M  V30 9816 O 895.259 -0.153508 1.80649 0
M  V30 9817 C 895.307 3.33031 1.38285 0
M  V30 9818 O 894.411 3.28163 2.49765 0
M  V30 9819 H 893.752 0.638767 0.181309 0
M  V30 9820 H 896.282 2.04486 -0.0683883 0
M  V30 9821 H 896.292 3.68866 1.74362 0
M  V30 9822 H 894.967 4.10483 0.669043 0
M  V30 9823 H 893.544 3.04021 2.15929 0
M  V30 9824 N 895.729 -0.261212 1.5542 0
M  V30 9825 C 896.975 -0.992699 1.76843 0
M  V30 9826 C 897.308 -1.8551 0.574428 0
M  V30 9827 O 896.583 -1.89739 -0.427713 0
M  V30 9828 C 896.866 -1.86532 3.08022 0
M  V30 9829 C 896.719 -1.03206 4.378 0
M  V30 9830 C 898.038 -2.85036 3.35324 0
M  V30 9831 H 895.157 -0.359473 0.643388 0
M  V30 9832 H 897.799 -0.264214 1.88154 0
M  V30 9833 H 895.949 -2.48644 2.9851 0
M  V30 9834 H 897.621 -0.430743 4.59285 0
M  V30 9835 H 895.864 -0.335911 4.32497 0
M  V30 9836 H 896.535 -1.6761 5.25938 0
M  V30 9837 H 899.011 -2.3306 3.44706 0
M  V30 9838 H 897.887 -3.43226 4.28354 0
M  V30 9839 H 898.148 -3.60768 2.55537 0
M  V30 9840 N 897.207 -1.48554 -0.526253 0
M  V30 9841 C 898.139 -1.59446 -1.6465 0
M  V30 9842 C 899.152 -0.478525 -1.55608 0
M  V30 9843 O 900.341 -0.74953 -1.62001 0
M  V30 9844 C 897.441 -1.51164 -3.03319 0
M  V30 9845 C 896.614 -2.77861 -3.37805 0
M  V30 9846 C 895.673 -2.62982 -4.5577 0
M  V30 9847 O 894.699 -3.36876 -4.58806 0
M  V30 9848 N 895.901 -1.72847 -5.5417 0
M  V30 9849 H 898.666 -2.56055 -1.55743 0
M  V30 9850 H 896.227 -1.45325 -0.713606 0
M  V30 9851 H 898.219 -1.389 -3.80117 0
M  V30 9852 H 896.789 -0.625147 -3.06285 0
M  V30 9853 H 896.009 -3.04663 -2.50149 0
M  V30 9854 H 897.297 -3.61908 -3.57632 0
M  V30 9855 H 896.695 -1.12022 -5.54498 0
M  V30 9856 H 895.252 -1.6652 -6.3017 0
M  V30 9857 N 898.685 0.775411 -1.37205 0
M  V30 9858 C 899.632 1.88857 -1.32671 0
M  V30 9859 C 900.602 1.64976 -0.192899 0
M  V30 9860 O 901.787 1.86944 -0.381673 0
M  V30 9861 C 898.927 3.25871 -1.13588 0
M  V30 9862 C 898.04 3.61731 -2.36167 0
M  V30 9863 C 897.175 4.87934 -2.09985 0
M  V30 9864 C 896.214 5.16514 -3.2845 0
M  V30 9865 N 895.351 6.33905 -3.01842 0
M  V30 9866 H 900.191 1.92068 -2.27846 0
M  V30 9867 H 897.728 0.939066 -1.13225 0
M  V30 9868 H 899.686 4.04903 -1.00546 0
M  V30 9869 H 898.316 3.22045 -0.220613 0
M  V30 9870 H 897.368 2.77712 -2.59962 0
M  V30 9871 H 898.68 3.78792 -3.24528 0
M  V30 9872 H 897.834 5.74863 -1.93953 0
M  V30 9873 H 896.573 4.7297 -1.18956 0
M  V30 9874 H 895.578 4.28063 -3.45025 0
M  V30 9875 H 896.803 5.33389 -4.20325 0
M  V30 9876 H 894.749 6.20306 -2.13439 0
M  V30 9877 H 894.666 6.51364 -3.83746 0
M  V30 9878 H 895.934 7.23779 -2.8942 0
M  V30 9879 N 900.163 1.21714 1.00117 0
M  V30 9880 C 901.093 1.00397 2.10815 0
M  V30 9881 C 902.074 -0.0723502 1.69946 0
M  V30 9882 O 903.259 0.0882398 1.93999 0
M  V30 9883 C 900.389 0.572001 3.42557 0
M  V30 9884 C 899.343 1.59331 3.97237 0
M  V30 9885 C 898.669 1.01746 5.2493 0
M  V30 9886 C 899.969 2.98117 4.28863 0
M  V30 9887 H 901.663 1.92983 2.28906 0
M  V30 9888 H 899.209 0.929273 1.10002 0
M  V30 9889 H 901.162 0.410018 4.19401 0
M  V30 9890 H 899.886 -0.38951 3.24269 0
M  V30 9891 H 898.545 1.74293 3.22518 0
M  V30 9892 H 898.193 0.0475491 5.02978 0
M  V30 9893 H 897.893 1.69969 5.62481 0
M  V30 9894 H 899.417 0.866881 6.04415 0
M  V30 9895 H 900.831 2.86578 4.96534 0
M  V30 9896 H 899.228 3.63389 4.77565 0
M  V30 9897 H 900.298 3.48674 3.36979 0
M  V30 9898 N 901.641 -1.19671 1.02551 0
M  V30 9899 C 902.866 -1.93774 0.739363 0
M  V30 9900 C 903.291 -1.74787 -0.695064 0
M  V30 9901 O 902.649 -1.04796 -1.47944 0
M  V30 9902 C 902.697 -3.43684 1.09149 0
M  V30 9903 O 901.801 -4.11874 0.208213 0
M  V30 9904 H 901.142 -0.605064 0.273484 0
M  V30 9905 H 903.672 -1.51846 1.37128 0
M  V30 9906 H 903.682 -3.94339 1.04695 0
M  V30 9907 H 902.357 -3.56826 2.13654 0
M  V30 9908 H 900.934 -3.716 0.311045 0
M  V30 9909 N 903.119 -0.802921 -1.35613 0
M  V30 9910 C 904.029 -0.212177 -2.33639 0
M  V30 9911 C 905.045 0.642871 -1.61689 0
M  V30 9912 O 906.221 0.555485 -1.93588 0
M  V30 9913 C 903.286 0.632406 -3.40883 0
M  V30 9914 C 902.347 -0.242708 -4.28613 0
M  V30 9915 C 901.58 0.56166 -5.30736 0
M  V30 9916 O 901.803 1.79664 -5.41366 0
M  V30 9917 O 900.737 -0.0455387 -6.01883 0
M  V30 9918 H 904.563 -1.023 -2.85952 0
M  V30 9919 H 902.148 -0.564636 -1.38319 0
M  V30 9920 H 904.03 1.11358 -4.0642 0
M  V30 9921 H 902.705 1.42089 -2.90848 0
M  V30 9922 H 901.612 -0.77094 -3.6607 0
M  V30 9923 H 902.945 -0.995046 -4.82037 0
M  V30 9924 N 904.597 1.47463 -0.556102 0
M  V30 9925 C 905.844 2.02475 -0.0316337 0
M  V30 9926 C 906.172 1.43057 1.31777 0
M  V30 9927 O 905.427 0.575376 1.87051 0
M  V30 9928 C 905.726 3.57224 0.112126 0
M  V30 9929 C 905.392 4.35557 -1.16624 0
M  V30 9930 C 904.054 4.56678 -1.51654 0
M  V30 9931 C 906.406 4.8074 -2.01342 0
M  V30 9932 C 903.734 5.20231 -2.7125 0
M  V30 9933 C 906.086 5.45613 -3.2014 0
M  V30 9934 C 904.75 5.64967 -3.55484 0
M  V30 9935 H 904.02 0.74091 -0.0115756 0
M  V30 9936 H 906.667 1.77148 -0.727392 0
M  V30 9937 H 904.972 3.81538 0.890842 0
M  V30 9938 H 906.669 3.97438 0.533261 0
M  V30 9939 H 903.259 4.19395 -0.883489 0
M  V30 9940 H 907.443 4.64201 -1.75587 0
M  V30 9941 H 902.699 5.3341 -2.98804 0
M  V30 9942 H 906.873 5.79587 -3.86073 0
M  V30 9943 H 904.5 6.13984 -4.4825 0
M  V30 9944 N 906.075 0.2925 1.54862 0
M  V30 9945 C 907.005 -0.580677 2.26165 0
M  V30 9946 C 907.986 -1.14485 1.25806 0
M  V30 9947 O 909.171 -1.17577 1.54562 0
M  V30 9948 C 906.301 -1.75668 2.99596 0
M  V30 9949 C 905.255 -1.32325 4.07031 0
M  V30 9950 C 904.581 -2.58374 4.68131 0
M  V30 9951 C 905.881 -0.460703 5.20264 0
M  V30 9952 H 907.575 0.0140075 2.99397 0
M  V30 9953 H 905.121 0.00817706 1.43998 0
M  V30 9954 H 907.074 -2.37356 3.48195 0
M  V30 9955 H 905.798 -2.37747 2.23928 0
M  V30 9956 H 904.457 -0.729477 3.59269 0
M  V30 9957 H 904.105 -3.18749 3.89112 0
M  V30 9958 H 903.805 -2.30078 5.40683 0
M  V30 9959 H 905.329 -3.2088 5.19489 0
M  V30 9960 H 906.743 -0.983037 5.64809 0
M  V30 9961 H 905.14 -0.271881 5.99484 0
M  V30 9962 H 906.21 0.516304 4.82143 0
M  V30 9963 N 907.553 -1.57587 0.0200696 0
M  V30 9964 C 908.778 -1.96124 -0.674547 0
M  V30 9965 C 909.203 -0.896068 -1.65385 0
M  V30 9966 O 908.561 0.143925 -1.80728 0
M  V30 9967 C 908.609 -3.3376 -1.36517 0
M  V30 9968 O 907.713 -3.29483 -2.48022 0
M  V30 9969 H 907.054 -0.639719 -0.177919 0
M  V30 9970 H 909.584 -2.04447 0.0792317 0
M  V30 9971 H 909.594 -3.69785 -1.72403 0
M  V30 9972 H 908.269 -4.10832 -0.647265 0
M  V30 9973 H 906.846 -3.05162 -2.14314 0
M  V30 9974 N 909.032 0.252966 -1.55557 0
M  V30 9975 C 910.257 1.0038 -1.8149 0
M  V30 9976 C 910.682 1.78397 -0.596318 0
M  V30 9977 O 910.04 1.7551 0.454535 0
M  V30 9978 C 910.088 1.9222 -3.05096 0
M  V30 9979 O 909.192 3.01302 -2.81587 0
M  V30 9980 H 908.533 0.285949 -0.599274 0
M  V30 9981 H 911.063 0.275795 -2.02733 0
M  V30 9982 H 911.073 2.338 -3.34368 0
M  V30 9983 H 909.748 1.34852 -3.93431 0
M  V30 9984 H 908.325 2.63894 -2.63466 0
M  V30 9985 N 910.51 1.48831 0.518367 0
M  V30 9986 C 911.473 1.63721 1.604 0
M  V30 9987 C 912.473 0.509857 1.52503 0
M  V30 9988 O 913.663 0.775922 1.55965 0
M  V30 9989 C 910.795 1.61831 3.00039 0
M  V30 9990 H 911.988 2.60534 1.48533 0
M  V30 9991 H 909.541 1.37602 0.741309 0
M  V30 9992 H 910.276 0.665387 3.17401 0
M  V30 9993 H 910.061 2.43686 3.0718 0
M  V30 9994 H 911.551 1.75467 3.78947 0
M  V30 9995 N 911.988 -0.768124 1.37614 0
M  V30 9996 C 912.898 -1.91249 1.35871 0
M  V30 9997 C 913.914 -1.7208 0.257786 0
M  V30 9998 O 915.09 -1.95253 0.493782 0
M  V30 9999 C 912.155 -3.26423 1.16829 0
M  V30 10000 C 911.216 -3.5822 2.36594 0
M  V30 10001 C 910.449 -4.86945 2.1845 0
M  V30 10002 O 910.672 -5.58258 1.17064 0
M  V30 10003 O 909.606 -5.17888 3.06718 0
M  V30 10004 H 913.432 -1.95671 2.32264 0
M  V30 10005 H 911.017 -0.911382 1.18382 0
M  V30 10006 H 912.899 -4.07269 1.08212 0
M  V30 10007 H 911.574 -3.22845 0.235123 0
M  V30 10008 H 910.481 -2.77594 2.50783 0
M  V30 10009 H 911.814 -3.66545 3.2849 0
M  V30 10010 N 913.466 -1.22244 -0.994698 0
M  V30 10011 C 914.715 -1.04005 -1.72817 0
M  V30 10012 C 915.028 0.425413 -1.90918 0
M  V30 10013 O 916.234 0.727429 -2.61574 0
M  V30 10014 C 914.69 -1.81244 -3.10932 0
M  V30 10015 C 914.298 -3.32028 -3.00768 0
M  V30 10016 C 916.042 -1.71448 -3.88337 0
M  V30 10017 C 913.949 -4.01716 -4.34026 0
M  V30 10018 H 912.879 -0.385559 -0.647966 0
M  V30 10019 H 915.53 -1.46077 -1.11058 0
M  V30 10020 H 913.912 -1.3197 -3.73363 0
M  V30 10021 H 915.086 -3.88682 -2.47513 0
M  V30 10022 H 913.401 -3.4248 -2.36846 0
M  V30 10023 H 915.998 -2.20836 -4.86965 0
M  V30 10024 H 916.341 -0.674568 -4.10798 0
M  V30 10025 H 916.874 -2.18256 -3.3258 0
M  V30 10026 H 913.613 -5.05952 -4.16765 0
M  V30 10027 H 913.133 -3.49849 -4.87202 0
M  V30 10028 H 914.812 -4.0721 -5.02782 0
M  V30 10029 N 914.944 1.19125 -1.03184 0
M  V30 10030 C 916.36 1.40909 -0.749447 0
M  V30 10031 C 916.56 1.9022 0.664729 0
M  V30 10032 O 915.616 2.08085 1.43028 0
M  V30 10033 C 916.929 2.41761 -1.78807 0
M  V30 10034 C 918.477 2.55503 -1.80796 0
M  V30 10035 C 918.952 3.59612 -2.83626 0
M  V30 10036 N 920.443 3.6711 -2.82461 0
M  V30 10037 C 921.178 4.47366 -3.5868 0
M  V30 10038 N 920.674 5.31302 -4.44623 0
M  V30 10039 N 922.467 4.42044 -3.47208 0
M  V30 10040 H 914.618 0.854399 -1.94458 0
M  V30 10041 H 916.881 0.437753 -0.840878 0
M  V30 10042 H 916.587 2.12559 -2.80199 0
M  V30 10043 H 916.461 3.40981 -1.61283 0
M  V30 10044 H 918.848 2.84027 -0.800803 0
M  V30 10045 H 918.929 1.56427 -2.02396 0
M  V30 10046 H 918.573 3.3183 -3.84515 0
M  V30 10047 H 918.503 4.58345 -2.59283 0
M  V30 10048 H 920.994 3.07166 -2.2013 0
M  V30 10049 H 921.307 5.89667 -4.99512 0
M  V30 10050 H 919.652 5.30753 -4.48694 0
M  V30 10051 H 922.843 3.75513 -2.79477 0
M  V30 10052 H 923.016 5.0435 -4.06859 0
M  V30 10053 N 916.422 0.810101 1.35185 0
M  V30 10054 C 917.332 0.224565 2.33523 0
M  V30 10055 C 918.348 -0.634287 1.62027 0
M  V30 10056 O 919.524 -0.545211 1.9388 0
M  V30 10057 C 916.589 -0.614319 3.41214 0
M  V30 10058 C 915.65 0.265435 4.28479 0
M  V30 10059 C 914.883 -0.533506 5.31027 0
M  V30 10060 O 915.106 -1.7679 5.42311 0
M  V30 10061 O 914.04 0.0774573 6.0185 0
M  V30 10062 H 917.866 1.03815 2.85405 0
M  V30 10063 H 915.451 0.571964 1.38018 0
M  V30 10064 H 917.333 -1.09201 4.07005 0
M  V30 10065 H 916.008 -1.40545 2.91597 0
M  V30 10066 H 914.915 0.790343 3.65656 0
M  V30 10067 H 916.248 1.0206 4.81503 0
M  V30 10068 N 917.9 -1.47166 0.563914 0
M  V30 10069 C 918.81 -2.33885 -0.182977 0
M  V30 10070 C 919.826 -1.48605 -0.905132 0
M  V30 10071 O 921.002 -1.81518 -0.872527 0
M  V30 10072 C 918.067 -3.25433 -1.19558 0
M  V30 10073 C 917.128 -4.26607 -0.480129 0
M  V30 10074 C 916.361 -5.1378 -1.44449 0
M  V30 10075 O 916.584 -5.03531 -2.67979 0
M  V30 10076 O 915.518 -5.94109 -0.965321 0
M  V30 10077 H 919.344 -2.99065 0.528544 0
M  V30 10078 H 916.929 -1.45834 0.324468 0
M  V30 10079 H 918.811 -3.81964 -1.77993 0
M  V30 10080 H 917.486 -2.62873 -1.8889 0
M  V30 10081 H 916.393 -3.73817 0.145583 0
M  V30 10082 H 917.726 -4.919 0.171868 0
M  V30 10083 N 919.378 -0.300708 -1.54705 0
M  V30 10084 C 920.31 0.609179 -2.20956 0
M  V30 10085 C 921.323 1.09776 -1.20221 0
M  V30 10086 O 922.512 1.01527 -1.46815 0
M  V30 10087 C 919.612 1.84595 -2.84214 0
M  V30 10088 C 918.785 1.49991 -4.10879 0
M  V30 10089 C 917.844 2.5918 -4.57943 0
M  V30 10090 O 916.87 2.24285 -5.23149 0
M  V30 10091 N 918.072 3.89714 -4.30236 0
M  V30 10092 H 920.837 0.0420111 -2.99671 0
M  V30 10093 H 918.398 -0.122896 -1.61433 0
M  V30 10094 H 920.39 2.56988 -3.12633 0
M  V30 10095 H 918.96 2.32152 -2.09342 0
M  V30 10096 H 918.18 0.608637 -3.89473 0
M  V30 10097 H 919.468 1.24409 -4.93356 0
M  V30 10098 H 918.866 4.20874 -3.77997 0
M  V30 10099 H 917.423 4.58406 -4.63365 0
M  V30 10100 N 920.856 1.57574 -0.0284266 0
M  V30 10101 C 922.096 1.93637 0.65453 0
M  V30 10102 C 922.46 0.905015 1.69332 0
M  V30 10103 O 923.661 1.15181 2.42872 0
M  V30 10104 C 921.932 3.3462 1.25555 0
M  V30 10105 S 923.491 3.92609 1.95968 0
M  V30 10106 H 920.309 0.67755 0.215516 0
M  V30 10107 H 922.911 1.95284 -0.0919257 0
M  V30 10108 H 921.615 4.07499 0.487069 0
M  V30 10109 H 921.146 3.36415 2.03933 0
M  V30 10110 H 923.161 3.75988 3.23802 0
M  V30 10111 N 922.334 -0.244713 1.55689 0
M  V30 10112 C 923.297 -1.2864 1.89695 0
M  V30 10113 C 924.297 -1.40969 0.773583 0
M  V30 10114 O 925.487 -1.39632 1.04156 0
M  V30 10115 C 922.619 -2.66379 2.12732 0
M  V30 10116 H 923.812 -0.997033 2.82841 0
M  V30 10117 H 921.365 -0.484103 1.48614 0
M  V30 10118 H 922.1 -3.00452 1.22062 0
M  V30 10119 H 921.885 -2.58812 2.94549 0
M  V30 10120 H 923.375 -3.41592 2.40218 0
M  V30 10121 N 923.813 -1.49104 -0.510467 0
M  V30 10122 C 925.224 -1.51423 -1.09215 0
M  V30 10123 C 925.575 -0.295035 -1.93969 0
M  V30 10124 O 924.7 0.596064 -2.08029 0
M  V30 10125 C 925.295 -2.74387 -1.98739 0
M  V30 10126 C 923.854 -2.79515 -2.52088 0
M  V30 10127 C 923.001 -2.4521 -1.29488 0
M  V30 10128 H 925.952 -1.55938 -0.294807 0
M  V30 10129 H 925.973 -2.54012 -2.83298 0
M  V30 10130 H 925.485 -3.63105 -1.37026 0
M  V30 10131 H 923.586 -1.95054 -3.17466 0
M  V30 10132 H 923.699 -3.81447 -2.89887 0
M  V30 10133 H 922.063 -1.96785 -1.61703 0
M  V30 10134 H 922.846 -3.36192 -0.694978 0
M  V30 10135 N 925.291 0.760815 -1.38019 0
M  V30 10136 C 926.241 1.86487 -1.31174 0
M  V30 10137 C 927.225 1.59684 -0.197414 0
M  V30 10138 O 928.417 1.71628 -0.432764 0
M  V30 10139 C 925.546 3.24103 -1.13192 0
M  V30 10140 C 924.632 3.5682 -2.29216 0
M  V30 10141 N 925.023 3.60644 -3.5464 0
M  V30 10142 C 923.321 3.87047 -2.2161 0
M  V30 10143 C 924.022 3.90423 -4.31214 0
M  V30 10144 N 922.998 4.06883 -3.60482 0
M  V30 10145 H 926.8 1.87711 -2.26146 0
M  V30 10146 H 924.314 0.957811 -1.31148 0
M  V30 10147 H 926.311 4.03101 -1.06372 0
M  V30 10148 H 924.971 3.24135 -0.191473 0
M  V30 10149 H 925.982 3.42581 -3.88405 0
M  V30 10150 H 922.659 3.94837 -1.35684 0
M  V30 10151 H 924.049 4.00065 -5.39812 0
M  V30 10152 N 926.769 1.22769 0.988202 0
M  V30 10153 C 927.679 1.01844 2.11341 0
M  V30 10154 C 928.695 -0.0346937 1.73965 0
M  V30 10155 O 929.871 0.159061 2.00771 0
M  V30 10156 C 926.936 0.603837 3.41401 0
M  V30 10157 C 925.997 1.73113 3.92849 0
M  V30 10158 C 925.23 1.33621 5.16702 0
M  V30 10159 O 925.453 0.217041 5.69987 0
M  V30 10160 O 924.387 2.15444 5.62021 0
M  V30 10161 H 928.213 1.96127 2.31879 0
M  V30 10162 H 925.798 1.01405 1.09715 0
M  V30 10163 H 927.68 0.383196 4.19654 0
M  V30 10164 H 926.355 -0.310082 3.22211 0
M  V30 10165 H 925.262 2.00634 3.15748 0
M  V30 10166 H 926.595 2.62308 4.1648 0
M  V30 10167 N 928.247 -1.18576 1.03814 0
M  V30 10168 C 929.658 -1.70159 0.768299 0
M  V30 10169 C 930.009 -1.8286 -0.711106 0
M  V30 10170 O 929.134 -1.5063 -1.55369 0
M  V30 10171 C 929.729 -3.09062 1.38804 0
M  V30 10172 C 928.288 -3.57866 1.16656 0
M  V30 10173 C 927.435 -2.34484 1.48029 0
M  V30 10174 H 930.386 -1.03287 1.20488 0
M  V30 10175 H 930.407 -3.72211 0.7899 0
M  V30 10176 H 929.919 -2.99785 2.46476 0
M  V30 10177 H 928.02 -3.72442 0.108471 0
M  V30 10178 H 928.133 -4.41445 1.8618 0
M  V30 10179 H 926.497 -2.38273 0.899902 0
M  V30 10180 H 927.28 -2.27829 2.56805 0
M  V30 10181 N 929.725 -0.817259 -1.34754 0
M  V30 10182 C 930.953 -0.415451 -2.02686 0
M  V30 10183 C 931.368 0.97688 -1.61563 0
M  V30 10184 O 930.725 1.63125 -0.818321 0
M  V30 10185 C 930.776 -0.501486 -3.58005 0
M  V30 10186 O 930.497 -1.83893 -3.97637 0
M  V30 10187 C 931.998 -0.0938504 -4.43201 0
M  V30 10188 H 929.218 -0.16742 -0.649778 0
M  V30 10189 H 931.762 -1.10384 -1.7215 0
M  V30 10190 H 929.917 0.138766 -3.87151 0
M  V30 10191 H 930.331 -1.8092 -4.92309 0
M  V30 10192 H 931.805 -0.205145 -5.51619 0
M  V30 10193 H 932.282 0.962011 -4.28535 0
M  V30 10194 H 932.888 -0.707677 -4.19371 0
M  V30 10195 N 931.203 1.46865 -0.571711 0
M  V30 10196 C 932.614 1.86158 -0.142181 0
M  V30 10197 C 932.965 1.47663 1.2919 0
M  V30 10198 O 932.09 0.886393 1.97413 0
M  V30 10199 C 932.685 3.37867 -0.251256 0
M  V30 10200 C 931.244 3.76198 0.123329 0
M  V30 10201 C 930.391 2.70902 -0.592232 0
M  V30 10202 H 933.342 1.38176 -0.780587 0
M  V30 10203 H 933.363 3.76842 0.526331 0
M  V30 10204 H 932.875 3.65853 -1.2951 0
M  V30 10205 H 930.976 3.53829 1.16773 0
M  V30 10206 H 931.089 4.78471 -0.24533 0
M  V30 10207 H 929.453 2.54678 -0.0336927 0
M  V30 10208 H 930.236 3.01729 -1.63751 0
M  V30 10209 N 932.681 0.308908 1.54543 0
M  V30 10210 C 933.613 -0.597453 2.21276 0
M  V30 10211 C 934.626 -1.09137 1.20801 0
M  V30 10212 O 935.815 -1.00747 1.47351 0
M  V30 10213 C 932.915 -1.83085 2.85189 0
M  V30 10214 C 932.088 -1.4781 4.11669 0
M  V30 10215 C 931.147 -2.56748 4.59311 0
M  V30 10216 O 930.173 -2.21507 5.24331 0
M  V30 10217 N 931.375 -3.87427 4.32297 0
M  V30 10218 H 934.14 -0.0261183 2.99689 0
M  V30 10219 H 931.701 0.131456 1.61365 0
M  V30 10220 H 933.693 -2.55326 3.13992 0
M  V30 10221 H 932.263 -2.31039 2.1057 0
M  V30 10222 H 931.483 -0.587974 3.8979 0
M  V30 10223 H 932.771 -1.2179 4.94009 0
M  V30 10224 H 932.169 -4.18863 3.80224 0
M  V30 10225 H 930.726 -4.55942 4.6579 0
M  V30 10226 N 934.159 -1.57557 0.0367827 0
M  V30 10227 C 935.407 -1.91735 -0.63892 0
M  V30 10228 C 935.728 -0.914515 -1.72226 0
M  V30 10229 O 934.998 0.0428248 -1.95853 0
M  V30 10230 H 933.578 -0.707738 -0.23899 0
M  V30 10231 H 936.24 -1.94708 0.0863931 0
M  V30 10232 H 935.336 -2.92568 -1.08676 0
M  V30 10233 N 935.637 0.236453 -1.55816 0
M  V30 10234 C 937.048 0.80468 -1.68469 0
M  V30 10235 C 937.399 1.85601 -0.636133 0
M  V30 10236 O 936.524 2.15323 0.215622 0
M  V30 10237 C 937.119 1.46634 -3.05424 0
M  V30 10238 C 935.678 1.98214 -3.19981 0
M  V30 10239 C 934.825 0.83695 -2.64368 0
M  V30 10240 H 937.776 0.0120647 -1.58695 0
M  V30 10241 H 937.797 2.33472 -3.00451 0
M  V30 10242 H 937.309 0.700931 -3.81718 0
M  V30 10243 H 935.41 2.77604 -2.4853 0
M  V30 10244 H 935.523 2.17235 -4.2702 0
M  V30 10245 H 933.887 1.24028 -2.22462 0
M  V30 10246 H 934.67 0.084451 -3.43196 0
M  V30 10247 N 937.115 1.49373 0.502552 0
M  V30 10248 C 938.078 1.65413 1.58654 0
M  V30 10249 C 939.078 0.526003 1.51953 0
M  V30 10250 O 940.268 0.792421 1.55133 0
M  V30 10251 C 937.4 1.65005 2.98306 0
M  V30 10252 H 938.593 2.62095 1.45762 0
M  V30 10253 H 936.146 1.38381 0.726672 0
M  V30 10254 H 936.881 0.699014 3.16677 0
M  V30 10255 H 936.666 2.46931 3.04578 0
M  V30 10256 H 938.156 1.79477 3.77065 0
M  V30 10257 N 938.594 -0.753485 1.38421 0
M  V30 10258 C 939.819 -1.54783 1.38047 0
M  V30 10259 C 940.244 -1.8808 -0.0276371 0
M  V30 10260 O 939.602 -1.5058 -1.00973 0
M  V30 10261 C 939.65 -2.82353 2.24297 0
M  V30 10262 O 938.754 -3.77509 1.66014 0
M  V30 10263 H 938.095 -0.468151 0.470883 0
M  V30 10264 H 940.625 -0.931144 1.82184 0
M  V30 10265 H 940.635 -3.31277 2.38159 0
M  V30 10266 H 939.31 -2.57449 3.26639 0
M  V30 10267 H 937.887 -3.36212 1.61294 0
M  V30 10268 N 940.072 -1.23292 -0.981677 0
M  V30 10269 C 941.019 -1.01296 -2.07383 0
M  V30 10270 C 941.989 0.069139 -1.65956 0
M  V30 10271 O 943.174 -0.0827108 -1.90621 0
M  V30 10272 C 940.314 -0.608876 -3.39686 0
M  V30 10273 C 939.427 -1.76296 -3.9439 0
M  V30 10274 C 938.562 -1.30578 -5.14901 0
M  V30 10275 C 937.601 -2.4307 -5.61768 0
M  V30 10276 N 936.738 -1.98319 -6.73509 0
M  V30 10277 H 941.578 -1.9478 -2.25532 0
M  V30 10278 H 939.115 -0.970356 -1.10555 0
M  V30 10279 H 941.073 -0.355702 -4.15681 0
M  V30 10280 H 939.703 0.288961 -3.21504 0
M  V30 10281 H 938.755 -2.13017 -3.15163 0
M  V30 10282 H 940.067 -2.60871 -4.25145 0
M  V30 10283 H 939.221 -1.01066 -5.98223 0
M  V30 10284 H 937.96 -0.430386 -4.85797 0
M  V30 10285 H 936.965 -2.73358 -4.77028 0
M  V30 10286 H 938.19 -3.31144 -5.92892 0
M  V30 10287 H 936.136 -1.13157 -6.46167 0
M  V30 10288 H 936.053 -2.76454 -7.0364 0
M  V30 10289 H 937.321 -1.71907 -7.60308 0
M  V30 10290 N 941.55 1.18024 -1.04442 0
M  V30 10291 C 942.78 1.91753 -0.769044 0
M  V30 10292 C 943.188 1.76629 0.678141 0
M  V30 10293 O 942.531 1.09589 1.47431 0
M  V30 10294 C 942.593 3.43505 -1.0604 0
M  V30 10295 C 942.257 3.82409 -2.50225 0
M  V30 10296 C 943.254 3.8588 -3.48414 0
M  V30 10297 C 940.939 4.13594 -2.85036 0
M  V30 10298 C 942.933 4.19993 -4.79463 0
M  V30 10299 C 940.62 4.47377 -4.1629 0
M  V30 10300 C 941.618 4.50553 -5.13314 0
M  V30 10301 O 941.306 4.83546 -6.42214 0
M  V30 10302 H 941.038 0.615466 -0.279603 0
M  V30 10303 H 943.592 1.5065 -1.3962 0
M  V30 10304 H 941.822 3.84866 -0.376125 0
M  V30 10305 H 943.511 3.98486 -0.772235 0
M  V30 10306 H 944.277 3.6192 -3.2286 0
M  V30 10307 H 940.156 4.10297 -2.10185 0
M  V30 10308 H 943.7 4.22387 -5.55189 0
M  V30 10309 H 939.597 4.70798 -4.4161 0
M  V30 10310 H 940.365 5.01433 -6.46921 0
M  V30 10311 N 943.028 0.824394 1.34319 0
M  V30 10312 C 943.96 0.204805 2.28283 0
M  V30 10313 C 944.973 -0.606162 1.51094 0
M  V30 10314 O 946.162 -0.435602 1.73103 0
M  V30 10315 C 943.262 -0.73139 3.30914 0
M  V30 10316 C 942.435 0.0370723 4.37384 0
M  V30 10317 C 941.494 -0.820272 5.19767 0
M  V30 10318 O 940.52 -0.264721 5.68584 0
M  V30 10319 N 941.722 -2.13984 5.39621 0
M  V30 10320 H 944.487 1.0121 2.82093 0
M  V30 10321 H 942.048 0.681494 1.46858 0
M  V30 10322 H 944.04 -1.30958 3.82926 0
M  V30 10323 H 942.61 -1.43943 2.77487 0
M  V30 10324 H 941.83 0.796578 3.86068 0
M  V30 10325 H 943.118 0.566014 5.05642 0
M  V30 10326 H 942.516 -2.61492 5.01636 0
M  V30 10327 H 941.073 -2.66685 5.94746 0
M  V30 10328 N 944.506 -1.46559 0.579492 0
M  V30 10329 C 945.469 -2.28739 -0.145371 0
M  V30 10330 C 946.469 -1.38211 -0.821854 0
M  V30 10331 O 947.659 -1.6062 -0.674302 0
M  V30 10332 C 944.791 -3.18507 -1.21515 0
M  V30 10333 H 945.984 -2.94301 0.576786 0
M  V30 10334 H 943.537 -1.52616 0.337327 0
M  V30 10335 H 944.272 -2.57685 -1.96899 0
M  V30 10336 H 944.057 -3.85157 -0.734616 0
M  V30 10337 H 945.547 -3.80369 -1.72363 0
M  V30 10338 N 945.984 -0.3171 -1.54377 0
M  V30 10339 C 947.23 0.287836 -2.00747 0
M  V30 10340 C 947.563 1.52292 -1.20502 0
M  V30 10341 O 946.838 1.92391 -0.285626 0
M  V30 10342 C 947.121 0.628423 -3.54574 0
M  V30 10343 C 946.974 -0.616922 -4.45549 0
M  V30 10344 C 948.293 1.44862 -4.15575 0
M  V30 10345 H 945.412 0.103144 -0.729747 0
M  V30 10346 H 948.054 -0.432396 -1.85014 0
M  V30 10347 H 946.204 1.24203 -3.68111 0
M  V30 10348 H 947.876 -1.25526 -4.43893 0
M  V30 10349 H 946.119 -1.24706 -4.15489 0
M  V30 10350 H 946.79 -0.334243 -5.50987 0
M  V30 10351 H 949.266 0.930015 -4.05574 0
M  V30 10352 H 948.142 1.6557 -5.23333 0
M  V30 10353 H 948.403 2.44279 -3.68484 0
M  V30 10354 N 947.462 1.57535 -0.0451378 0
M  V30 10355 C 948.873 1.80116 0.491426 0
M  V30 10356 C 949.224 0.956846 1.71286 0
M  V30 10357 O 948.349 0.17173 2.15718 0
M  V30 10358 C 948.944 3.26674 0.898315 0
M  V30 10359 C 947.503 3.50194 1.37989 0
M  V30 10360 C 946.65 2.75054 0.352202 0
M  V30 10361 H 949.601 1.56368 -0.271065 0
M  V30 10362 H 949.622 3.37263 1.76164 0
M  V30 10363 H 949.134 3.88099 0.009141 0
M  V30 10364 H 947.235 2.94041 2.28846 0
M  V30 10365 H 947.348 4.58909 1.37622 0
M  V30 10366 H 945.712 2.4101 0.823784 0
M  V30 10367 H 946.495 3.39203 -0.528782 0
M  V30 10368 N 948.94 -0.228186 1.55939 0
M  V30 10369 C 949.87 -1.28607 1.94891 0
M  V30 10370 C 950.851 -1.49236 0.816245 0
M  V30 10371 O 952.036 -1.61531 1.07803 0
M  V30 10372 C 949.166 -2.63719 2.25986 0
M  V30 10373 C 948.12 -2.57757 3.4168 0
M  V30 10374 C 947.446 -3.96837 3.58364 0
M  V30 10375 C 948.746 -2.13116 4.76843 0
M  V30 10376 H 950.44 -0.962531 2.83506 0
M  V30 10377 H 947.986 -0.461577 1.36402 0
M  V30 10378 H 949.939 -3.37878 2.51826 0
M  V30 10379 H 948.663 -2.97747 1.34217 0
M  V30 10380 H 947.322 -1.86055 3.15878 0
M  V30 10381 H 946.97 -4.28162 2.63982 0
M  V30 10382 H 946.67 -3.93731 4.36176 0
M  V30 10383 H 948.194 -4.72668 3.86545 0
M  V30 10384 H 949.608 -2.77015 5.01932 0
M  V30 10385 H 948.005 -2.21083 5.57891 0
M  V30 10386 H 949.075 -1.08326 4.72645 0
M  V30 10387 N 950.418 -1.49637 -0.494624 0
M  V30 10388 C 951.834 -1.36541 -0.826361 0
M  V30 10389 C 952.034 -0.403386 -1.97421 0
M  V30 10390 O 951.09 0.162614 -2.51976 0
M  V30 10391 C 952.403 -2.77401 -1.16057 0
M  V30 10392 C 953.951 -2.86148 -1.26841 0
M  V30 10393 C 954.426 -4.27789 -1.63587 0
M  V30 10394 N 955.917 -4.3063 -1.70624 0
M  V30 10395 C 956.652 -5.37198 -2.00514 0
M  V30 10396 N 956.148 -6.54004 -2.28584 0
M  V30 10397 N 957.941 -5.2462 -2.01818 0
M  V30 10398 H 950.092 -2.10776 0.26219 0
M  V30 10399 H 952.355 -0.946419 0.0547235 0
M  V30 10400 H 952.061 -3.49526 -0.390434 0
M  V30 10401 H 951.935 -3.1317 -2.10249 0
M  V30 10402 H 954.322 -2.14256 -2.02925 0
M  V30 10403 H 954.403 -2.53953 -0.30684 0
M  V30 10404 H 954.047 -5.00209 -0.880507 0
M  V30 10405 H 953.977 -4.57453 -2.60854 0
M  V30 10406 H 956.468 -3.46393 -1.51065 0
M  V30 10407 H 956.781 -7.31041 -2.50598 0
M  V30 10408 H 955.126 -6.57219 -2.26027 0
M  V30 10409 H 958.317 -4.32371 -1.79369 0
M  V30 10410 H 958.49 -6.07765 -2.24778 0
M  V30 10411 N 951.896 0.746133 -1.38819 0
M  V30 10412 C 953.142 1.50768 -1.35635 0
M  V30 10413 C 953.475 1.94132 0.0512435 0
M  V30 10414 O 952.75 1.65979 1.01396 0
M  V30 10415 C 953.033 2.7551 -2.31875 0
M  V30 10416 C 952.886 2.38236 -3.81528 0
M  V30 10417 C 954.205 3.77566 -2.26124 0
M  V30 10418 H 951.324 0.546922 -0.494009 0
M  V30 10419 H 953.966 0.854017 -1.69725 0
M  V30 10420 H 952.116 3.31285 -2.02935 0
M  V30 10421 H 953.788 1.88178 -4.21173 0
M  V30 10422 H 952.031 1.70601 -3.98846 0
M  V30 10423 H 952.702 3.27517 -4.44339 0
M  V30 10424 H 955.178 3.31349 -2.51689 0
M  V30 10425 H 954.054 4.62531 -2.95561 0
M  V30 10426 H 954.315 4.23689 -1.26254 0
M  V30 10427 N 953.375 1.23811 0.975125 0
M  V30 10428 C 954.621 1.07495 1.71967 0
M  V30 10429 C 954.954 -0.386451 1.90316 0
M  V30 10430 O 954.229 -1.28591 1.45927 0
M  V30 10431 C 954.512 1.80694 3.11483 0
M  V30 10432 C 954.365 3.3454 3.00671 0
M  V30 10433 C 955.684 1.57367 4.11003 0
M  V30 10434 H 952.803 0.3919 0.624166 0
M  V30 10435 H 955.445 1.52383 1.13487 0
M  V30 10436 H 953.595 1.42538 3.61407 0
M  V30 10437 H 955.267 3.8225 2.5823 0
M  V30 10438 H 953.51 3.63301 2.37054 0
M  V30 10439 H 954.181 3.80951 3.99475 0
M  V30 10440 H 956.657 1.90545 3.69908 0
M  V30 10441 H 955.533 2.11052 5.06703 0
M  V30 10442 H 955.794 0.510221 4.39146 0
M  V30 10443 N 954.853 -1.17469 1.05066 0
M  V30 10444 C 955.801 -2.23495 0.644418 0
M  V30 10445 C 956.795 -1.66081 -0.333685 0
M  V30 10446 O 958.001 -1.78887 -0.199886 0
M  V30 10447 H 954.376 -0.727546 0.190214 0
M  V30 10448 H 956.347 -2.55058 1.5488 0
M  V30 10449 C 955.096 -3.47684 0.0338051 0
M  V30 10450 H 954.419 -3.92167 0.777513 0
M  V30 10451 H 955.859 -4.23464 -0.213086 0
M  V30 10452 C 954.318 -3.14067 -1.21915 0
M  V30 10453 O 954.848 -3.28728 -2.3087 0
M  V30 10454 N 953.054 -2.68304 -1.11631 0
M  V30 10455 H 952.601 -2.56574 -0.229673 0
M  V30 10456 H 952.559 -2.46184 -1.95553 0
M  V30 10457 N 956.331 -0.831506 -1.3388 0
M  V30 10458 C 957.747 -0.518349 -1.50948 0
M  V30 10459 C 957.947 0.955807 -1.77388 0
M  V30 10460 O 957.003 1.73993 -1.82983 0
M  V30 10461 C 958.316 -1.38531 -2.66889 0
M  V30 10462 C 959.864 -1.38332 -2.80772 0
M  V30 10463 C 960.339 -2.23497 -3.99766 0
M  V30 10464 N 961.83 -2.21167 -4.06988 0
M  V30 10465 C 962.565 -2.83805 -4.98239 0
M  V30 10466 N 962.061 -3.55468 -5.94655 0
M  V30 10467 N 963.854 -2.73314 -4.91178 0
M  V30 10468 H 956.005 -1.78588 -1.14978 0
M  V30 10469 H 958.268 -0.761508 -0.564633 0
M  V30 10470 H 957.974 -2.43255 -2.54007 0
M  V30 10471 H 957.848 -1.05611 -3.62114 0
M  V30 10472 H 960.235 -0.343832 -2.9309 0
M  V30 10473 H 960.316 -1.75256 -1.86331 0
M  V30 10474 H 959.96 -3.27501 -3.88208 0
M  V30 10475 H 959.89 -1.83919 -4.93438 0
M  V30 10476 H 962.381 -1.69046 -3.37982 0
M  V30 10477 H 962.694 -4.00487 -6.60931 0
M  V30 10478 H 961.039 -3.59575 -5.94753 0
M  V30 10479 H 964.23 -2.16897 -4.14817 0
M  V30 10480 H 964.403 -3.22416 -5.62096 0
M  V30 10481 N 957.809 1.4625 -0.587256 0
M  V30 10482 C 958.756 2.30354 0.143384 0
M  V30 10483 C 959.726 1.40891 0.879716 0
M  V30 10484 O 960.911 1.69837 0.869486 0
M  V30 10485 C 958.051 3.25441 1.14815 0
M  V30 10486 C 957.164 4.30004 0.414792 0
M  V30 10487 C 956.299 5.12214 1.40748 0
M  V30 10488 C 955.338 6.08523 0.660786 0
M  V30 10489 N 954.475 6.83585 1.60176 0
M  V30 10490 H 959.315 2.92304 -0.579866 0
M  V30 10491 H 956.852 1.44055 -0.29777 0
M  V30 10492 H 958.81 3.79018 1.7436 0
M  V30 10493 H 957.44 2.6529 1.83906 0
M  V30 10494 H 956.492 3.79248 -0.295787 0
M  V30 10495 H 957.804 4.98515 -0.168738 0
M  V30 10496 H 956.958 5.70091 2.0756 0
M  V30 10497 H 955.697 4.43675 2.02494 0
M  V30 10498 H 954.702 5.49796 -0.0210864 0
M  V30 10499 H 955.927 6.79083 0.0486551 0
M  V30 10500 H 953.873 6.17752 2.20724 0
M  V30 10501 H 953.79 7.48373 1.07115 0
M  V30 10502 H 955.058 7.46016 2.26009 0
M  V30 10503 N 959.287 0.325282 1.54207 0
M  V30 10504 C 960.703 -0.0273036 1.59577 0
M  V30 10505 C 960.903 -1.50329 1.34177 0
M  V30 10506 O 959.959 -2.25951 1.12705 0
M  V30 10507 C 961.272 0.392468 2.98128 0
M  V30 10508 C 962.82 0.343269 3.11112 0
M  V30 10509 C 963.295 0.738229 4.52011 0
M  V30 10510 N 964.786 0.691701 4.58006 0
M  V30 10511 C 965.521 0.969479 5.65145 0
M  V30 10512 N 965.017 1.31448 6.80216 0
M  V30 10513 N 966.81 0.894926 5.5493 0
M  V30 10514 H 958.961 1.28692 1.68974 0
M  V30 10515 H 961.224 0.523399 0.790416 0
M  V30 10516 H 960.93 1.42089 3.2172 0
M  V30 10517 H 960.804 -0.241651 3.76425 0
M  V30 10518 H 963.191 -0.675946 2.87254 0
M  V30 10519 H 963.272 1.01235 2.34915 0
M  V30 10520 H 962.916 1.75537 4.76602 0
M  V30 10521 H 962.846 0.0468226 5.26579 0
M  V30 10522 H 965.337 0.436975 3.75365 0
M  V30 10523 H 965.65 1.51177 7.57869 0
M  V30 10524 H 963.995 1.35276 6.81708 0
M  V30 10525 H 967.186 0.624876 4.6391 0
M  V30 10526 H 967.359 1.11476 6.38339 0
M  V30 10527 N 960.765 -1.57509 0.0534917 0
M  V30 10528 C 962.176 -1.80374 -0.481867 0
M  V30 10529 C 962.527 -0.965917 -1.70776 0
M  V30 10530 O 961.652 -0.183167 -2.15623 0
M  V30 10531 C 962.247 -3.27146 -0.880978 0
M  V30 10532 C 960.806 -3.50921 -1.3613 0
M  V30 10533 C 959.953 -2.75237 -0.337611 0
M  V30 10534 H 962.904 -1.56222 0.279353 0
M  V30 10535 H 962.925 -3.38193 -1.74373 0
M  V30 10536 H 962.437 -3.88098 0.011441 0
M  V30 10537 H 960.538 -2.95251 -2.27283 0
M  V30 10538 H 960.651 -4.59632 -1.35186 0
M  V30 10539 H 959.015 -2.41444 -0.810991 0
M  V30 10540 H 959.798 -3.38918 0.546763 0
M  V30 10541 N 962.243 0.219913 -1.56058 0
M  V30 10542 C 963.206 1.25606 -1.91718 0
M  V30 10543 C 964.206 1.39721 -0.795912 0
M  V30 10544 O 965.396 1.37958 -1.06364 0
M  V30 10545 C 962.528 2.62961 -2.16943 0
M  V30 10546 H 963.721 0.951909 -2.84392 0
M  V30 10547 H 961.274 0.460398 -1.49365 0
M  V30 10548 H 962.009 2.98472 -1.26826 0
M  V30 10549 H 961.794 2.54093 -2.98629 0
M  V30 10550 H 963.284 3.37727 -2.45622 0
M  V30 10551 N 963.721 1.49897 0.486681 0
M  V30 10552 C 965.137 1.36977 0.819109 0
M  V30 10553 C 965.337 0.41385 1.97204 0
M  V30 10554 O 964.393 -0.149249 2.52059 0
M  V30 10555 C 965.706 2.78013 1.14584 0
M  V30 10556 C 967.254 2.86816 1.25321 0
M  V30 10557 C 967.729 4.28651 1.61316 0
M  V30 10558 N 969.22 4.31528 1.68337 0
M  V30 10559 C 969.955 5.38254 1.97662 0
M  V30 10560 N 969.451 6.55207 2.25113 0
M  V30 10561 N 971.244 5.25683 1.99033 0
M  V30 10562 H 963.395 2.10634 -0.273364 0
M  V30 10563 H 965.658 0.946116 -0.0597418 0
M  V30 10564 H 965.364 3.49728 0.371892 0
M  V30 10565 H 965.238 3.1428 2.08585 0
M  V30 10566 H 967.625 2.15329 2.01785 0
M  V30 10567 H 967.706 2.54112 0.293368 0
M  V30 10568 H 967.35 5.00669 0.853968 0
M  V30 10569 H 967.28 4.5883 2.58424 0
M  V30 10570 H 969.771 3.47189 1.49226 0
M  V30 10571 H 970.084 7.32359 2.46717 0
M  V30 10572 H 968.429 6.58408 2.22538 0
M  V30 10573 H 971.62 4.33316 1.77074 0
M  V30 10574 H 971.793 6.08949 2.21552 0
M  V30 10575 N 965.199 -0.738761 1.39212 0
M  V30 10576 C 966.109 -1.88324 1.39897 0
M  V30 10577 C 967.125 -1.71494 0.294229 0
M  V30 10578 O 968.301 -1.94162 0.535087 0
M  V30 10579 C 965.366 -3.23871 1.23726 0
M  V30 10580 C 964.427 -3.53121 2.44139 0
M  V30 10581 C 963.66 -4.82202 2.2873 0
M  V30 10582 O 963.883 -5.55649 1.28879 0
M  V30 10583 O 962.817 -5.11265 3.17634 0
M  V30 10584 H 966.643 -1.90701 2.36362 0
M  V30 10585 H 964.228 -0.886067 1.20288 0
M  V30 10586 H 966.11 -4.04882 1.16826 0
M  V30 10587 H 964.785 -3.22274 0.303551 0
M  V30 10588 H 963.692 -2.72212 2.56615 0
M  V30 10589 H 965.025 -3.59495 3.36191 0
M  V30 10590 N 966.677 -1.24326 -0.968545 0
M  V30 10591 C 967.954 -0.990459 -1.68669 0
M  V30 10592 C 968.334 0.487487 -2.05394 0
M  V30 10593 O 967.682 1.46158 -1.75642 0
M  V30 10594 C 967.892 -1.91251 -2.91931 0
M  V30 10595 C 969.24 -2.18291 -3.6419 0
M  V30 10596 O 970.264 -1.88897 -3.01987 0
M  V30 10597 O 969.123 -2.68204 -4.76161 0
M  V30 10598 H 966.217 -0.374515 -0.737338 0
M  V30 10599 H 968.763 -1.35421 -1.02271 0
M  V30 10600 H 967.535 -2.9111 -2.61478 0
M  V30 10601 H 967.158 -1.55188 -3.66064 0
M  V30 10602 N 968.156 1.1691 -1.05688 0
M  V30 10603 C 969.396 1.88972 -0.779044 0
M  V30 10604 C 969.76 1.7949 0.681708 0
M  V30 10605 O 970.961 2.46418 1.07386 0
M  V30 10606 C 969.232 3.34737 -1.25242 0
M  V30 10607 S 970.791 4.24718 -1.10272 0
M  V30 10608 H 967.609 0.652349 -0.282776 0
M  V30 10609 H 970.211 1.41162 -1.35254 0
M  V30 10610 H 968.915 3.39175 -2.3106 0
M  V30 10611 H 968.446 3.87593 -0.673417 0
M  V30 10612 H 970.461 4.96191 -0.0299004 0
M  V30 10613 N 969.634 0.838594 1.33437 0
M  V30 10614 C 971.05 0.526347 1.50671 0
M  V30 10615 C 971.25 -0.946387 1.77893 0
M  V30 10616 O 970.306 -1.7302 1.83903 0
M  V30 10617 C 971.619 1.39945 2.6615 0
M  V30 10618 C 973.167 1.3982 2.80035 0
M  V30 10619 C 973.642 2.25614 3.98576 0
M  V30 10620 N 975.133 2.23322 4.0581 0
M  V30 10621 C 975.868 2.86443 4.96727 0
M  V30 10622 N 975.364 3.58616 5.92762 0
M  V30 10623 N 977.157 2.75915 4.89722 0
M  V30 10624 H 969.308 1.79195 1.1403 0
M  V30 10625 H 971.571 0.764491 0.560586 0
M  V30 10626 H 971.277 2.44599 2.52714 0
M  V30 10627 H 971.151 1.07529 3.61548 0
M  V30 10628 H 973.538 0.35937 2.92904 0
M  V30 10629 H 973.619 1.76241 1.85399 0
M  V30 10630 H 973.263 3.29555 3.86466 0
M  V30 10631 H 973.193 1.86533 4.92456 0
M  V30 10632 H 975.684 1.70836 3.37081 0
M  V30 10633 H 975.997 4.03987 6.58798 0
M  V30 10634 H 974.342 3.62724 5.92838 0
M  V30 10635 H 977.533 2.19094 4.13661 0
M  V30 10636 H 977.706 3.25393 5.60378 0
M  V30 10637 N 971.112 -1.45937 0.595003 0
M  V30 10638 C 972.36 -2.01921 0.0851368 0
M  V30 10639 C 972.681 -1.46748 -1.28413 0
M  V30 10640 O 971.951 -0.656873 -1.84559 0
M  V30 10641 H 970.531 -0.746457 0.0284826 0
M  V30 10642 H 973.193 -1.78891 0.773561 0
M  V30 10643 H 972.289 -3.1209 0.0254002 0
M  V30 10644 N 972.59 -0.333456 -1.54032 0
M  V30 10645 C 973.52 0.52051 -2.27625 0
M  V30 10646 C 974.501 1.1111 -1.28797 0
M  V30 10647 O 975.686 1.13438 -1.57625 0
M  V30 10648 C 972.816 1.67663 -3.04149 0
M  V30 10649 C 971.77 1.21487 -4.10396 0
M  V30 10650 C 971.096 2.45872 -4.74817 0
M  V30 10651 C 972.396 0.322603 -5.21303 0
M  V30 10652 H 974.09 -0.0933823 -2.99254 0
M  V30 10653 H 971.636 -0.0463526 -1.43925 0
M  V30 10654 H 973.589 2.28041 -3.54366 0
M  V30 10655 H 972.313 2.31727 -2.30153 0
M  V30 10656 H 970.972 0.633966 -3.61077 0
M  V30 10657 H 970.62 3.0832 -3.97426 0
M  V30 10658 H 970.32 2.15662 -5.46593 0
M  V30 10659 H 971.844 3.06994 -5.27814 0
M  V30 10660 H 973.258 0.832942 -5.67217 0
M  V30 10661 H 971.655 0.112843 -5.99994 0
M  V30 10662 H 972.725 -0.643954 -4.80605 0
M  V30 10663 N 974.068 1.57479 -0.061844 0
M  V30 10664 C 975.296 1.97429 0.618837 0
M  V30 10665 C 975.711 0.939826 1.63746 0
M  V30 10666 O 975.068 -0.0747173 1.82347 0
M  V30 10667 C 975.119 3.3746 1.29628 0
M  V30 10668 O 974.84 4.36941 0.318431 0
M  V30 10669 C 976.341 3.92228 2.06572 0
M  V30 10670 H 973.561 0.649513 0.168444 0
M  V30 10671 H 976.105 2.04078 -0.131303 0
M  V30 10672 H 974.26 3.31928 1.99757 0
M  V30 10673 H 974.674 5.18313 0.803239 0
M  V30 10674 H 976.148 4.92458 2.49377 0
M  V30 10675 H 976.625 3.28231 2.91824 0
M  V30 10676 H 977.231 4.01131 1.4133 0
M  V30 10677 N 975.546 -0.211634 1.56173 0
M  V30 10678 C 976.794 -0.932704 1.7929 0
M  V30 10679 C 977.115 -1.84472 0.632076 0
M  V30 10680 O 976.385 -1.92739 -0.350519 0
M  V30 10681 H 974.965 -0.347393 0.661307 0
M  V30 10682 H 977.627 -0.22111 1.93642 0
M  V30 10683 H 976.723 -1.53365 2.71819 0
M  V30 10684 N 977.024 -1.50153 -0.478725 0
M  V30 10685 C 978.435 -1.53706 -1.05978 0
M  V30 10686 C 978.786 -0.336112 -1.933 0
M  V30 10687 O 977.911 0.551803 -2.09246 0
M  V30 10688 C 978.506 -2.78541 -1.92874 0
M  V30 10689 C 977.065 -2.848 -2.46102 0
M  V30 10690 C 976.212 -2.47902 -1.24257 0
M  V30 10691 H 979.163 -1.56528 -0.261664 0
M  V30 10692 H 979.184 -2.59964 -2.77847 0
M  V30 10693 H 978.696 -3.6593 -1.29293 0
M  V30 10694 H 976.797 -2.01744 -3.13257 0
M  V30 10695 H 976.91 -3.87511 -2.81731 0
M  V30 10696 H 975.274 -2.0017 -1.57493 0
M  V30 10697 H 976.057 -3.3759 -0.62351 0
M  V30 10698 N 978.502 0.731368 -1.39602 0
M  V30 10699 C 979.432 1.85855 -1.41351 0
M  V30 10700 C 980.413 1.67839 -0.2764 0
M  V30 10701 O 981.598 1.88104 -0.482747 0
M  V30 10702 C 978.728 3.23644 -1.25983 0
M  V30 10703 C 977.682 3.56304 -2.37132 0
M  V30 10704 C 977.008 4.93069 -2.0685 0
M  V30 10705 C 978.308 3.58906 -3.79452 0
M  V30 10706 H 980.002 1.84648 -2.3568 0
M  V30 10707 H 977.548 0.886955 -1.13442 0
M  V30 10708 H 979.501 4.02176 -1.25826 0
M  V30 10709 H 978.225 3.25387 -0.281234 0
M  V30 10710 H 976.884 2.80104 -2.36511 0
M  V30 10711 H 976.532 4.91396 -1.0742 0
M  V30 10712 H 976.232 5.15888 -2.81306 0
M  V30 10713 H 977.756 5.73953 -2.0835 0
M  V30 10714 H 979.17 4.27508 -3.81982 0
M  V30 10715 H 977.567 3.93246 -4.53297 0
M  V30 10716 H 978.637 2.58631 -4.10168 0
M  V30 10717 N 979.98 1.24838 0.961938 0
M  V30 10718 C 980.912 1.00369 2.06055 0
M  V30 10719 C 981.925 -0.0288583 1.62774 0
M  V30 10720 O 983.114 0.208853 1.77274 0
M  V30 10721 C 980.214 0.493953 3.35281 0
M  V30 10722 C 979.387 1.59097 4.07439 0
M  V30 10723 C 978.446 1.08288 5.14937 0
M  V30 10724 O 977.472 1.77577 5.40791 0
M  V30 10725 N 978.674 -0.0796836 5.80445 0
M  V30 10726 H 981.439 1.94962 2.27618 0
M  V30 10727 H 979 1.15945 1.12997 0
M  V30 10728 H 980.992 0.138675 4.04462 0
M  V30 10729 H 979.562 -0.357851 3.10545 0
M  V30 10730 H 978.782 2.11817 3.32456 0
M  V30 10731 H 980.07 2.32817 4.52409 0
M  V30 10732 H 979.468 -0.658827 5.6185 0
M  V30 10733 H 978.025 -0.376057 6.50714 0
M  V30 10734 N 981.458 -1.16348 1.06306 0
M  V30 10735 C 982.683 -1.91323 0.800636 0
M  V30 10736 C 983.108 -1.7691 -0.639105 0
M  V30 10737 O 982.466 -1.0945 -1.44535 0
M  V30 10738 C 982.514 -3.40038 1.20027 0
M  V30 10739 O 981.618 -4.11003 0.339142 0
M  V30 10740 H 980.959 -0.596057 0.292595 0
M  V30 10741 H 983.489 -1.47406 1.41889 0
M  V30 10742 H 983.499 -3.90808 1.17188 0
M  V30 10743 H 982.174 -3.49848 2.24898 0
M  V30 10744 H 980.751 -3.70423 0.42911 0
M  V30 10745 N 982.937 -0.845659 -1.3299 0
M  V30 10746 C 983.867 -0.298957 -2.31578 0
M  V30 10747 C 984.848 0.597012 -1.59279 0
M  V30 10748 O 986.033 0.519142 -1.87132 0
M  V30 10749 C 983.163 0.521109 -3.43368 0
M  V30 10750 C 982.117 -0.279651 -4.27085 0
M  V30 10751 C 981.443 0.664591 -5.30554 0
M  V30 10752 C 982.743 -1.50046 -5.00283 0
M  V30 10753 H 984.437 -1.12272 -2.77552 0
M  V30 10754 H 981.983 -0.54132 -1.33438 0
M  V30 10755 H 983.936 0.913921 -4.1137 0
M  V30 10756 H 982.66 1.37815 -2.96099 0
M  V30 10757 H 981.319 -0.654106 -3.60717 0
M  V30 10758 H 980.967 1.51822 -4.79541 0
M  V30 10759 H 980.667 0.132871 -5.8745 0
M  V30 10760 H 982.191 1.05477 -6.01421 0
M  V30 10761 H 983.605 -1.18044 -5.61016 0
M  V30 10762 H 982.002 -1.96946 -5.66862 0
M  V30 10763 H 983.072 -2.26659 -4.28665 0
M  V30 10764 N 984.415 1.45619 -0.602734 0
M  V30 10765 C 985.661 2.02572 -0.0961759 0
M  V30 10766 C 985.994 1.47076 1.26815 0
M  V30 10767 O 985.269 0.643566 1.83544 0
M  V30 10768 C 985.552 3.60062 -0.0520032 0
M  V30 10769 C 985.405 4.25901 -1.44665 0
M  V30 10770 C 986.724 4.35446 0.638342 0
M  V30 10771 H 983.843 0.736099 -0.0364238 0
M  V30 10772 H 986.485 1.7353 -0.773776 0
M  V30 10773 H 984.635 3.84936 0.525032 0
M  V30 10774 H 986.307 4.12228 -2.0704 0
M  V30 10775 H 984.55 3.84489 -2.00874 0
M  V30 10776 H 985.221 5.34779 -1.36803 0
M  V30 10777 H 987.697 4.15837 0.147926 0
M  V30 10778 H 986.573 5.45176 0.63834 0
M  V30 10779 H 986.834 4.07962 1.70351 0
M  V30 10780 N 985.893 0.34162 1.53853 0
M  V30 10781 C 987.304 -0.14269 1.86154 0
M  V30 10782 C 987.655 -1.50151 1.2629 0
M  V30 10783 O 986.78 -2.08601 0.575735 0
M  V30 10784 C 987.375 -0.265691 3.37757 0
M  V30 10785 C 985.934 -0.694231 3.69942 0
M  V30 10786 C 985.081 0.173195 2.76759 0
M  V30 10787 H 988.032 0.561284 1.48443 0
M  V30 10788 H 988.053 -1.09352 3.64448 0
M  V30 10789 H 987.565 0.723424 3.81298 0
M  V30 10790 H 985.666 -1.69244 3.31945 0
M  V30 10791 H 985.779 -0.485461 4.76634 0
M  V30 10792 H 984.143 -0.35416 2.52226 0
M  V30 10793 H 984.926 1.15941 3.23129 0
M  V30 10794 N 987.371 -1.57444 0.0701946 0
M  V30 10795 C 988.596 -1.98171 -0.61181 0
M  V30 10796 C 989.021 -0.94823 -1.62451 0
M  V30 10797 O 988.379 0.0863553 -1.81094 0
M  V30 10798 C 988.427 -3.37934 -1.2583 0
M  V30 10799 O 987.531 -3.37207 -2.37414 0
M  V30 10800 H 986.872 -0.645056 -0.157477 0
M  V30 10801 H 989.402 -2.04091 0.144235 0
M  V30 10802 H 989.412 -3.75083 -1.60552 0
M  V30 10803 H 988.087 -4.12684 -0.516234 0
M  V30 10804 H 986.664 -3.11826 -2.04497 0
M  V30 10805 N 988.849 0.203349 -1.56283 0
M  V30 10806 C 989.812 1.23566 -1.93039 0
M  V30 10807 C 990.812 1.38869 -0.810687 0
M  V30 10808 O 992.002 1.36822 -1.07821 0
M  V30 10809 C 989.134 2.60645 -2.1972 0
M  V30 10810 H 990.327 0.921692 -2.85385 0
M  V30 10811 H 987.88 0.44453 -1.49845 0
M  V30 10812 H 988.615 2.9711 -1.29985 0
M  V30 10813 H 988.4 2.50911 -3.01307 0
M  V30 10814 H 989.89 3.35103 -2.4919 0
M  V30 10815 N 990.327 1.50405 0.470755 0
M  V30 10816 C 991.604 1.51929 1.23195 0
M  V30 10817 C 991.984 0.264159 2.09441 0
M  V30 10818 O 991.332 -0.752395 2.15757 0
M  V30 10819 C 991.542 2.81521 2.06269 0
M  V30 10820 C 992.89 3.32195 2.64446 0
M  V30 10821 O 993.914 2.82845 2.16511 0
M  V30 10822 O 992.773 4.18221 3.51786 0
M  V30 10823 H 989.867 0.609411 0.559059 0
M  V30 10824 H 992.413 1.62695 0.482549 0
M  V30 10825 H 991.185 3.64346 1.42715 0
M  V30 10826 H 990.808 2.7376 2.88342 0
M  V30 10827 N 991.805 -0.723954 1.39988 0
M  V30 10828 C 993.053 -1.48078 1.3754 0
M  V30 10829 C 993.374 -1.94985 -0.0243358 0
M  V30 10830 O 992.644 -1.69764 -0.977602 0
M  V30 10831 H 991.224 -0.549354 0.506181 0
M  V30 10832 H 993.886 -0.858746 1.74962 0
M  V30 10833 H 992.982 -2.35763 2.04505 0
M  V30 10834 N 993.283 -1.25346 -0.955304 0
M  V30 10835 C 994.56 -1.00829 -1.67609 0
M  V30 10836 C 994.94 0.465675 -2.059 0
M  V30 10837 O 994.288 1.44287 -1.77182 0
M  V30 10838 C 994.498 -1.94337 -2.89886 0
M  V30 10839 C 995.846 -2.22142 -3.61854 0
M  V30 10840 O 996.87 -1.9209 -2.99967 0
M  V30 10841 O 995.729 -2.73239 -4.73289 0
M  V30 10842 H 992.823 -0.382314 -0.733325 0
M  V30 10843 H 995.369 -1.36498 -1.00829 0
M  V30 10844 H 994.141 -2.93867 -2.58376 0
M  V30 10845 H 993.764 -1.59062 -3.64397 0
M  V30 10846 N 994.761 1.15782 -1.06922 0
M  V30 10847 C 995.724 2.18578 -0.689654 0
M  V30 10848 C 996.724 1.58553 0.267872 0
M  V30 10849 O 997.914 1.7413 0.0494097 0
M  V30 10850 C 995.046 3.40896 -0.0157919 0
M  V30 10851 H 996.239 2.53672 -1.59971 0
M  V30 10852 H 993.792 1.30168 -0.865214 0
M  V30 10853 H 994.527 3.11367 0.906712 0
M  V30 10854 H 994.312 3.85721 -0.704415 0
M  V30 10855 H 995.802 4.16937 0.235266 0
M  V30 10856 N 996.239 0.8527 1.3254 0
M  V30 10857 C 997.516 0.376491 1.91942 0
M  V30 10858 C 997.896 -1.13972 1.7769 0
M  V30 10859 O 997.244 -1.96047 1.17379 0
M  V30 10860 C 997.454 0.838694 3.38773 0
M  V30 10861 C 998.802 0.854736 4.15908 0
M  V30 10862 O 999.826 0.783203 3.47483 0
M  V30 10863 O 998.685 0.955207 5.38087 0
M  V30 10864 H 995.779 0.109412 0.81973 0
M  V30 10865 H 998.325 0.93947 1.41322 0
M  V30 10866 H 997.097 1.88179 3.43081 0
M  V30 10867 H 996.72 0.253055 3.96794 0
M  V30 10868 N 997.718 -1.45297 0.610449 0
M  V30 10869 C 998.666 -2.32295 -0.119167 0
M  V30 10870 C 999.66 -1.46138 -0.856746 0
M  V30 10871 O 1000.87 -1.62605 -0.771988 0
M  V30 10872 H 997.241 -0.749815 -0.0572881 0
M  V30 10873 H 999.212 -2.91609 0.63297 0
M  V30 10874 C 997.961 -3.29802 -1.10119 0
M  V30 10875 H 997.284 -3.96095 -0.543063 0
M  V30 10876 H 998.724 -3.93398 -1.58158 0
M  V30 10877 C 997.183 -2.57185 -2.17617 0
M  V30 10878 O 997.713 -2.35535 -3.25401 0
M  V30 10879 N 995.919 -2.17272 -1.9298 0
M  V30 10880 H 995.466 -2.3508 -1.05334 0
M  V30 10881 H 995.424 -1.69009 -2.6511 0
M  V30 10882 N 999.196 -0.349774 -1.5367 0
M  V30 10883 C 1000.44 0.245095 -2.02925 0
M  V30 10884 C 1000.8 1.4727 -1.23189 0
M  V30 10885 O 1002 2.14215 -1.62374 0
M  V30 10886 C 1000.27 0.545392 -3.53214 0
M  V30 10887 S 1001.83 1.11619 -4.24366 0
M  V30 10888 H 998.649 0.0725368 -0.70729 0
M  V30 10889 H 1001.25 -0.488979 -1.89286 0
M  V30 10890 H 999.955 -0.355786 -4.08855 0
M  V30 10891 H 999.486 1.30897 -3.70985 0
M  V30 10892 H 1001.5 2.40151 -4.34214 0
M  V30 10893 N 1000.67 1.57404 -0.0785433 0
M  V30 10894 C 1001.91 1.95621 0.592595 0
M  V30 10895 C 1002.28 0.958429 1.66367 0
M  V30 10896 O 1003.48 1.2285 2.39084 0
M  V30 10897 C 1001.75 3.38445 1.14846 0
M  V30 10898 S 1003.31 3.98645 1.83378 0
M  V30 10899 H 1000.13 0.684063 0.193851 0
M  V30 10900 H 1002.73 1.94892 -0.154007 0
M  V30 10901 H 1001.43 4.08843 0.357179 0
M  V30 10902 H 1000.96 3.42733 1.93127 0
M  V30 10903 H 1002.98 3.86099 3.11676 0
M  V30 10904 N 1002.15 -0.195058 1.56388 0
M  V30 10905 C 1003.4 -0.9168 1.80894 0
M  V30 10906 C 1003.73 -1.82907 0.652592 0
M  V30 10907 O 1003.01 -1.91382 -0.346853 0
M  V30 10908 C 1003.29 -1.733 3.15657 0
M  V30 10909 C 1003.14 -0.845449 4.41783 0
M  V30 10910 C 1004.46 -2.70557 3.47112 0
M  V30 10911 H 1001.58 -0.331861 0.658056 0
M  V30 10912 H 1004.22 -0.184174 1.89105 0
M  V30 10913 H 1002.37 -2.3576 3.08787 0
M  V30 10914 H 1004.04 -0.235557 4.60698 0
M  V30 10915 H 1002.29 -0.152172 4.33533 0
M  V30 10916 H 1002.96 -1.45152 5.32574 0
M  V30 10917 H 1005.43 -2.1823 3.54281 0
M  V30 10918 H 1004.31 -3.24749 4.42526 0
M  V30 10919 H 1004.57 -3.49605 2.70608 0
M  V30 10920 N 1003.63 -1.50653 -0.462772 0
M  V30 10921 C 1004.56 -1.66286 -1.5774 0
M  V30 10922 C 1005.57 -0.544094 -1.53439 0
M  V30 10923 O 1006.76 -0.817566 -1.58676 0
M  V30 10924 C 1003.86 -1.63893 -2.96635 0
M  V30 10925 C 1003.04 -2.91939 -3.25716 0
M  V30 10926 C 1002.1 -2.82076 -4.44206 0
M  V30 10927 O 1001.12 -3.56032 -4.44106 0
M  V30 10928 N 1002.32 -1.96196 -5.4634 0
M  V30 10929 H 1005.09 -2.6243 -1.44742 0
M  V30 10930 H 1002.65 -1.48221 -0.651326 0
M  V30 10931 H 1004.64 -1.54897 -3.73884 0
M  V30 10932 H 1003.21 -0.75449 -3.03358 0
M  V30 10933 H 1002.43 -3.14998 -2.37002 0
M  V30 10934 H 1003.72 -3.7675 -3.4196 0
M  V30 10935 H 1003.12 -1.35439 -5.49247 0
M  V30 10936 H 1001.67 -1.93097 -6.2254 0
M  V30 10937 N 1005.11 0.71652 -1.4037 0
M  V30 10938 C 1006.36 1.47193 -1.37903 0
M  V30 10939 C 1006.67 1.95593 0.0159939 0
M  V30 10940 O 1007.88 2.71009 0.163282 0
M  V30 10941 C 1006.33 2.6606 -2.42363 0
M  V30 10942 C 1005.94 2.24533 -3.87671 0
M  V30 10943 C 1007.68 3.438 -2.49001 0
M  V30 10944 C 1005.59 3.40234 -4.8373 0
M  V30 10945 H 1004.52 0.552811 -0.512753 0
M  V30 10946 H 1007.17 0.779894 -1.66102 0
M  V30 10947 H 1005.55 3.37429 -2.07262 0
M  V30 10948 H 1006.73 1.6059 -4.31911 0
M  V30 10949 H 1005.04 1.59839 -3.845 0
M  V30 10950 H 1007.64 4.29893 -3.17956 0
M  V30 10951 H 1007.98 3.8755 -1.52023 0
M  V30 10952 H 1008.52 2.79474 -2.83088 0
M  V30 10953 H 1005.26 3.01517 -5.82037 0
M  V30 10954 H 1004.78 4.03095 -4.44156 0
M  V30 10955 H 1006.45 4.06312 -5.03507 0
M  V30 10956 N 1006.59 1.25851 0.948643 0
M  V30 10957 C 1007.52 1.0108 2.04593 0
M  V30 10958 C 1008.5 -0.0619691 1.62482 0
M  V30 10959 O 1009.68 0.0789196 1.88335 0
M  V30 10960 C 1006.81 0.529174 3.34541 0
M  V30 10961 C 1005.85 1.59337 3.95618 0
M  V30 10962 S 1006.69 3.18026 4.30836 0
M  V30 10963 C 1007.84 2.71613 5.63895 0
M  V30 10964 H 1008.08 1.93988 2.2529 0
M  V30 10965 H 1005.61 1.09448 1.08906 0
M  V30 10966 H 1007.57 0.25795 4.09689 0
M  V30 10967 H 1006.23 -0.37951 3.11799 0
M  V30 10968 H 1005.42 1.20722 4.89328 0
M  V30 10969 H 1005.02 1.81559 3.26975 0
M  V30 10970 H 1007.32 2.15612 6.42275 0
M  V30 10971 H 1008.26 3.63986 6.07387 0
M  V30 10972 H 1008.67 2.11417 5.23415 0
M  V30 10973 N 1008.06 -1.15214 1.07534 0
M  V30 10974 C 1009.31 -1.85676 0.79805 0
M  V30 10975 C 1009.63 -1.82837 -0.677919 0
M  V30 10976 O 1008.9 -1.27059 -1.49107 0
M  V30 10977 H 1007.48 -0.687468 0.292227 0
M  V30 10978 H 1010.15 -1.39658 1.35947 0
M  V30 10979 H 1009.24 -2.9076 1.13423 0
M  V30 10980 N 1009.54 -0.859717 -1.32086 0
M  V30 10981 C 1010.79 -0.464662 -1.96686 0
M  V30 10982 C 1011.11 0.98412 -1.68345 0
M  V30 10983 O 1010.38 1.68847 -0.993361 0
M  V30 10984 H 1008.96 -0.168838 -0.727669 0
M  V30 10985 H 1011.62 -1.09726 -1.61079 0
M  V30 10986 H 1010.72 -0.613904 -3.06003 0
M  V30 10987 N 1011.02 1.44971 -0.618145 0
M  V30 10988 C 1012.25 2.06228 -0.123985 0
M  V30 10989 C 1012.66 1.46166 1.20134 0
M  V30 10990 O 1012 0.574099 1.74499 0
M  V30 10991 C 1012.06 3.59413 0.0789098 0
M  V30 10992 C 1011.73 4.41869 -1.16624 0
M  V30 10993 C 1012.72 4.76177 -2.0869 0
M  V30 10994 C 1010.41 4.82453 -1.39802 0
M  V30 10995 C 1012.4 5.49938 -3.22254 0
M  V30 10996 C 1010.09 5.55965 -2.53665 0
M  V30 10997 C 1011.09 5.89626 -3.44718 0
M  V30 10998 O 1010.78 6.61644 -4.56598 0
M  V30 10999 H 1010.51 0.672274 -0.0708822 0
M  V30 11000 H 1013.06 1.87038 -0.848868 0
M  V30 11001 H 1011.29 3.77043 0.8588 0
M  V30 11002 H 1012.98 4.02478 0.52599 0
M  V30 11003 H 1013.75 4.45372 -1.92012 0
M  V30 11004 H 1009.63 4.55681 -0.698245 0
M  V30 11005 H 1013.17 5.76129 -3.93347 0
M  V30 11006 H 1009.07 5.86185 -2.70291 0
M  V30 11007 H 1009.84 6.80103 -4.55414 0
M  V30 11008 N 1012.5 0.357919 1.53482 0
M  V30 11009 C 1013.75 -0.234163 2.01142 0
M  V30 11010 C 1014.07 -1.49399 1.2454 0
M  V30 11011 O 1013.33 -1.92981 0.325111 0
M  V30 11012 C 1013.63 -0.579617 3.52669 0
M  V30 11013 C 1013.29 0.584988 4.47089 0
M  V30 11014 C 1011.96 0.904558 4.72622 0
M  V30 11015 C 1014.31 1.3656 5.02992 0
M  V30 11016 C 1011.64 2.00685 5.5131 0
M  V30 11017 C 1013.99 2.45824 5.82884 0
M  V30 11018 C 1012.65 2.78325 6.06706 0
M  V30 11019 H 1011.92 -0.0856863 0.736029 0
M  V30 11020 H 1014.57 0.488801 1.85157 0
M  V30 11021 H 1012.87 -1.38349 3.66561 0
M  V30 11022 H 1014.57 -1.04985 3.87013 0
M  V30 11023 H 1011.16 0.32587 4.27359 0
M  V30 11024 H 1015.34 1.13196 4.83219 0
M  V30 11025 H 1010.6 2.26272 5.67988 0
M  V30 11026 H 1014.77 3.06732 6.25211 0
M  V30 11027 H 1012.4 3.63862 6.67464 0
M  V30 11028 N 1013.98 -1.5736 0.0868897 0
M  V30 11029 C 1015.2 -1.98388 -0.587349 0
M  V30 11030 C 1015.62 -0.965757 -1.6223 0
M  V30 11031 O 1014.98 0.0456981 -1.82443 0
M  V30 11032 C 1015.03 -3.39479 -1.24242 0
M  V30 11033 O 1014.75 -4.37393 -0.248878 0
M  V30 11034 C 1016.25 -3.95465 -2.00305 0
M  V30 11035 H 1013.47 -0.652111 -0.15809 0
M  V30 11036 H 1016.01 -2.03843 0.163754 0
M  V30 11037 H 1014.17 -3.35063 -1.94451 0
M  V30 11038 H 1014.58 -5.19525 -0.720678 0
M  V30 11039 H 1016.06 -4.96363 -2.41511 0
M  V30 11040 H 1016.53 -3.32832 -2.86565 0
M  V30 11041 H 1017.14 -4.03328 -1.34931 0
M  V30 11042 N 1015.45 0.186762 -1.56489 0
M  V30 11043 C 1016.7 0.902594 -1.82277 0
M  V30 11044 C 1017.06 1.80536 -0.665179 0
M  V30 11045 O 1016.35 1.88573 0.339224 0
M  V30 11046 C 1016.54 1.74719 -3.11782 0
M  V30 11047 C 1016.37 0.92769 -4.40027 0
M  V30 11048 C 1015.14 0.608832 -5.01619 0
M  V30 11049 C 1017.34 0.276471 -5.13556 0
M  V30 11050 N 1015.32 -0.228425 -6.13475 0
M  V30 11051 C 1016.69 -0.42262 -6.18558 0
M  V30 11052 C 1018.75 0.19305 -4.97526 0
M  V30 11053 C 1017.45 -1.1972 -7.09267 0
M  V30 11054 C 1019.48 -0.568152 -5.88665 0
M  V30 11055 C 1018.84 -1.25566 -6.93118 0
M  V30 11056 H 1014.94 0.309403 -0.718188 0
M  V30 11057 H 1017.52 0.170693 -1.9395 0
M  V30 11058 H 1015.69 2.45063 -3.01328 0
M  V30 11059 H 1017.42 2.40314 -3.25625 0
M  V30 11060 H 1014.18 0.935247 -4.64274 0
M  V30 11061 H 1014.6 -0.636908 -6.73997 0
M  V30 11062 H 1019.25 0.71023 -4.16792 0
M  V30 11063 H 1016.96 -1.72578 -7.89457 0
M  V30 11064 H 1020.55 -0.634164 -5.78333 0
M  V30 11065 H 1019.43 -1.83524 -7.62423 0
M  V30 11066 N 1016.93 1.50896 0.454776 0
M  V30 11067 C 1018.16 1.6648 1.22849 0
M  V30 11068 C 1018.58 0.354841 1.85435 0
M  V30 11069 O 1017.93 -0.664931 1.69956 0
M  V30 11070 C 1017.98 2.76787 2.32532 0
M  V30 11071 O 1017.7 4.02706 1.72509 0
M  V30 11072 C 1019.21 3.03488 3.23125 0
M  V30 11073 H 1016.43 0.559152 0.370932 0
M  V30 11074 H 1018.97 1.97215 0.540983 0
M  V30 11075 H 1017.12 2.48701 2.9703 0
M  V30 11076 H 1017.54 4.63834 2.44863 0
M  V30 11077 H 1019.01 3.84294 3.9626 0
M  V30 11078 H 1019.49 2.152 3.82865 0
M  V30 11079 H 1020.1 3.33167 2.64347 0
M  V30 11080 N 1018.41 -0.709066 1.40748 0
M  V30 11081 C 1019.82 -1.28847 1.35112 0
M  V30 11082 C 1020.17 -1.9618 0.0277149 0
M  V30 11083 O 1019.3 -1.97955 -0.874233 0
M  V30 11084 C 1019.89 -2.34306 2.44716 0
M  V30 11085 C 1018.45 -2.87856 2.4252 0
M  V30 11086 C 1017.6 -1.61723 2.25257 0
M  V30 11087 H 1020.55 -0.504742 1.50459 0
M  V30 11088 H 1020.57 -3.15297 2.12998 0
M  V30 11089 H 1020.08 -1.85271 3.41022 0
M  V30 11090 H 1018.18 -3.41103 1.49931 0
M  V30 11091 H 1018.3 -3.39205 3.38344 0
M  V30 11092 H 1016.66 -1.87032 1.7289 0
M  V30 11093 H 1017.44 -1.14703 3.23571 0
M  V30 11094 N 1019.89 -1.26353 -0.941956 0
M  V30 11095 C 1021.17 -1.02601 -1.6653 0
M  V30 11096 C 1021.55 0.44381 -2.06382 0
M  V30 11097 O 1020.89 1.42399 -1.78703 0
M  V30 11098 C 1021.1 -1.97401 -2.87809 0
M  V30 11099 C 1022.45 -2.25967 -3.59478 0
M  V30 11100 O 1023.48 -1.95261 -2.97912 0
M  V30 11101 O 1022.34 -2.78244 -4.70364 0
M  V30 11102 H 1019.43 -0.39007 -0.729228 0
M  V30 11103 H 1021.98 -1.37559 -0.993754 0
M  V30 11104 H 1020.75 -2.9659 -2.55245 0
M  V30 11105 H 1020.37 -1.62918 -3.62689 0
M  V30 11106 N 1021.37 1.14642 -1.08144 0
M  V30 11107 C 1022.62 1.8525 -0.807885 0
M  V30 11108 C 1022.94 1.83194 0.668213 0
M  V30 11109 O 1022.21 1.27848 1.48431 0
M  V30 11110 H 1020.79 0.685909 -0.295868 0
M  V30 11111 H 1023.45 1.38935 -1.36686 0
M  V30 11112 H 1022.54 2.90155 -1.14964 0
M  V30 11113 N 1022.85 0.866709 1.31628 0
M  V30 11114 C 1024.09 0.472185 1.96095 0
M  V30 11115 C 1024.41 -0.979873 1.69286 0
M  V30 11116 O 1025.61 -1.48039 2.27589 0
M  V30 11117 C 1024.07 0.793468 3.51044 0
M  V30 11118 C 1023.68 2.26206 3.86697 0
M  V30 11119 C 1025.42 0.467255 4.21921 0
M  V30 11120 C 1023.33 2.52593 5.34743 0
M  V30 11121 H 1022.26 0.172846 0.733921 0
M  V30 11122 H 1024.91 1.05916 1.49847 0
M  V30 11123 H 1023.29 0.135783 3.95767 0
M  V30 11124 H 1024.47 2.96254 3.52945 0
M  V30 11125 H 1022.78 2.55399 3.28877 0
M  V30 11126 H 1025.38 0.641669 5.30836 0
M  V30 11127 H 1025.72 -0.592065 4.12068 0
M  V30 11128 H 1026.25 1.08134 3.82821 0
M  V30 11129 H 1022.99 3.57196 5.49628 0
M  V30 11130 H 1022.51 1.87136 5.6986 0
M  V30 11131 H 1024.19 2.37156 6.01968 0
M  V30 11132 N 1024.32 -1.44642 0.625825 0
M  V30 11133 C 1025.73 -1.85502 0.211175 0
M  V30 11134 C 1026.09 -1.52356 -1.2362 0
M  V30 11135 O 1025.21 -0.959051 -1.93988 0
M  V30 11136 C 1025.81 -3.36702 0.37648 0
M  V30 11137 C 1024.36 -3.76396 0.0163795 0
M  V30 11138 C 1023.51 -2.68517 0.692368 0
M  V30 11139 H 1026.46 -1.35183 0.831333 0
M  V30 11140 H 1026.48 -3.78536 -0.386106 0
M  V30 11141 H 1026 -3.60795 1.42999 0
M  V30 11142 H 1024.1 -3.57919 -1.0356 0
M  V30 11143 H 1024.21 -4.77231 0.422742 0
M  V30 11144 H 1022.57 -2.54377 0.128191 0
M  V30 11145 H 1023.36 -2.95444 1.74837 0
M  V30 11146 N 1025.8 -0.366053 -1.5329 0
M  V30 11147 C 1027.03 0.224236 -2.05681 0
M  V30 11148 C 1027.44 1.42412 -1.23952 0
M  V30 11149 O 1026.8 1.80334 -0.280309 0
M  V30 11150 C 1026.85 0.617266 -3.56191 0
M  V30 11151 O 1026.57 -0.534931 -4.34822 0
M  V30 11152 C 1028.07 1.26589 -4.24841 0
M  V30 11153 H 1025.29 0.0392928 -0.669849 0
M  V30 11154 H 1027.84 -0.52456 -1.97658 0
M  V30 11155 H 1025.99 1.31598 -3.64364 0
M  V30 11156 H 1026.41 -0.217123 -5.2405 0
M  V30 11157 H 1027.88 1.49146 -5.31469 0
M  V30 11158 H 1028.36 2.22633 -3.78591 0
M  V30 11159 H 1028.96 0.6086 -4.20923 0
M  V30 11160 N 1027.28 1.57312 -0.0952337 0
M  V30 11161 C 1028.21 2.17056 0.860753 0
M  V30 11162 C 1029.19 1.10394 1.29411 0
M  V30 11163 O 1030.38 1.38532 1.36098 0
M  V30 11164 C 1027.51 2.751 2.11984 0
M  V30 11165 C 1026.46 3.87136 1.8251 0
M  V30 11166 C 1025.79 4.31883 3.15247 0
M  V30 11167 C 1027.09 5.10326 1.11194 0
M  V30 11168 H 1028.78 2.97192 0.362983 0
M  V30 11169 H 1026.33 1.42955 0.173151 0
M  V30 11170 H 1028.28 3.15547 2.79299 0
M  V30 11171 H 1027 1.92219 2.64044 0
M  V30 11172 H 1025.66 3.47229 1.17592 0
M  V30 11173 H 1025.31 3.45893 3.65195 0
M  V30 11174 H 1025.01 5.0742 2.96309 0
M  V30 11175 H 1026.53 4.74964 3.83721 0
M  V30 11176 H 1027.95 5.47942 1.6862 0
M  V30 11177 H 1026.34 5.91293 1.02435 0
M  V30 11178 H 1027.41 4.84807 0.0947227 0
M  V30 11179 N 1028.76 -0.17846 1.56586 0
M  V30 11180 C 1029.98 -0.916061 1.86073 0
M  V30 11181 C 1030.41 -1.75349 0.680754 0
M  V30 11182 O 1029.77 -1.77479 -0.37028 0
M  V30 11183 C 1029.81 -1.77445 3.1392 0
M  V30 11184 O 1028.92 -2.87524 2.95641 0
M  V30 11185 H 1028.26 -0.257031 0.612234 0
M  V30 11186 H 1030.79 -0.178755 2.03818 0
M  V30 11187 H 1030.8 -2.1758 3.45142 0
M  V30 11188 H 1029.47 -1.15927 3.99417 0
M  V30 11189 H 1028.05 -2.51023 2.75757 0
M  V30 11190 N 1030.24 -1.51135 -0.446768 0
M  V30 11191 C 1031.18 -1.72328 -1.56224 0
M  V30 11192 C 1032.18 -0.589411 -1.58815 0
M  V30 11193 O 1033.38 -0.770554 -1.62673 0
M  V30 11194 H 1029.76 -0.544339 -0.518844 0
M  V30 11195 H 1031.73 -2.65851 -1.3552 0
M  V30 11196 C 1030.48 -1.85686 -2.93966 0
M  V30 11197 H 1029.8 -2.72336 -2.927 0
M  V30 11198 H 1031.24 -2.0453 -3.71407 0
M  V30 11199 C 1029.7 -0.614328 -3.31252 0
M  V30 11200 O 1030.23 0.235369 -4.0101 0
M  V30 11201 N 1028.44 -0.461181 -2.86917 0
M  V30 11202 H 1027.98 -1.15369 -2.30321 0
M  V30 11203 H 1027.94 0.368966 -3.12227 0
M  V30 11204 N 1031.71 0.701592 -1.41122 0
M  V30 11205 C 1032.96 1.45722 -1.39456 0
M  V30 11206 C 1033.28 1.95599 -0.00475228 0
M  V30 11207 O 1034.48 2.71166 0.134529 0
M  V30 11208 C 1032.94 2.63475 -2.45172 0
M  V30 11209 C 1032.55 2.20409 -3.90031 0
M  V30 11210 C 1034.29 3.4114 -2.52633 0
M  V30 11211 C 1032.2 3.35084 -4.87312 0
M  V30 11212 H 1031.13 0.547341 -0.518588 0
M  V30 11213 H 1033.78 0.762233 -1.6692 0
M  V30 11214 H 1032.16 3.35212 -2.10829 0
M  V30 11215 H 1033.33 1.56 -4.3359 0
M  V30 11216 H 1031.65 1.55752 -3.86174 0
M  V30 11217 H 1034.25 4.26496 -3.22498 0
M  V30 11218 H 1034.59 3.85915 -1.56125 0
M  V30 11219 H 1035.12 2.76456 -2.86037 0
M  V30 11220 H 1031.86 2.95327 -5.85203 0
M  V30 11221 H 1031.38 3.98362 -4.48406 0
M  V30 11222 H 1033.06 4.00949 -5.07788 0
M  V30 11223 N 1033.19 1.2685 0.935242 0
M  V30 11224 C 1034.42 1.15538 1.71635 0
M  V30 11225 C 1034.83 -0.288698 1.8658 0
M  V30 11226 O 1034.19 -1.19721 1.37743 0
M  V30 11227 C 1034.24 1.8259 3.11999 0
M  V30 11228 O 1033.96 3.21355 2.97763 0
M  V30 11229 C 1035.46 1.77307 4.06297 0
M  V30 11230 H 1032.68 0.402055 0.537208 0
M  V30 11231 H 1035.23 1.67582 1.17203 0
M  V30 11232 H 1033.38 1.3447 3.63313 0
M  V30 11233 H 1033.8 3.54626 3.86446 0
M  V30 11234 H 1035.27 2.28851 5.02326 0
M  V30 11235 H 1035.75 0.740823 4.32907 0
M  V30 11236 H 1036.35 2.25007 3.60904 0
M  V30 11237 N 1034.67 -1.14067 1.0875 0
M  V30 11238 C 1035.92 -1.84535 0.814235 0
M  V30 11239 C 1036.23 -1.84044 -0.662355 0
M  V30 11240 O 1037.44 -2.50336 -1.05091 0
M  V30 11241 C 1035.89 -3.31273 1.40663 0
M  V30 11242 C 1035.5 -3.40171 2.91526 0
M  V30 11243 C 1037.25 -4.0683 1.21201 0
M  V30 11244 C 1035.15 -4.81141 3.43885 0
M  V30 11245 H 1034.08 -0.691346 0.300926 0
M  V30 11246 H 1036.73 -1.28562 1.30935 0
M  V30 11247 H 1035.12 -3.87005 0.839215 0
M  V30 11248 H 1036.29 -2.94471 3.54434 0
M  V30 11249 H 1034.61 -2.78073 3.09942 0
M  V30 11250 H 1037.2 -5.10891 1.57781 0
M  V30 11251 H 1037.55 -4.16022 0.152092 0
M  V30 11252 H 1038.08 -3.57408 1.74655 0
M  V30 11253 H 1034.82 -4.77138 4.49466 0
M  V30 11254 H 1034.34 -5.27365 2.85738 0
M  V30 11255 H 1036.02 -5.50042 3.40681 0
M  V30 11256 N 1036.15 -0.873678 -1.31166 0
M  V30 11257 C 1037.56 -0.566109 -1.49223 0
M  V30 11258 C 1037.76 0.898889 -1.80339 0
M  V30 11259 O 1036.82 1.68084 -1.88425 0
M  V30 11260 C 1038.13 -1.46952 -2.62346 0
M  V30 11261 C 1039.68 -1.47195 -2.76229 0
M  V30 11262 C 1040.16 -2.36102 -3.92454 0
M  V30 11263 N 1041.65 -2.34003 -3.99746 0
M  V30 11264 C 1042.38 -2.99513 -4.88958 0
M  V30 11265 N 1041.88 -3.74206 -5.83045 0
M  V30 11266 N 1043.67 -2.88802 -4.82234 0
M  V30 11267 H 1035.82 -1.82156 -1.09239 0
M  V30 11268 H 1038.09 -0.779086 -0.54012 0
M  V30 11269 H 1037.79 -2.51213 -2.4614 0
M  V30 11270 H 1037.67 -1.17077 -3.5857 0
M  V30 11271 H 1040.05 -0.436902 -2.91848 0
M  V30 11272 H 1040.13 -1.81095 -1.80661 0
M  V30 11273 H 1039.78 -3.39685 -3.77593 0
M  V30 11274 H 1039.71 -1.99524 -4.87337 0
M  V30 11275 H 1042.2 -1.79713 -3.32433 0
M  V30 11276 H 1042.51 -4.21312 -6.47855 0
M  V30 11277 H 1040.86 -3.78314 -5.83012 0
M  V30 11278 H 1044.05 -2.29984 -4.07707 0
M  V30 11279 H 1044.22 -3.40136 -5.51554 0
M  V30 11280 N 1037.63 1.44308 -0.633487 0
M  V30 11281 C 1038.88 2.01239 -0.136356 0
M  V30 11282 C 1039.19 1.50438 1.25011 0
M  V30 11283 O 1040.39 1.99513 1.84138 0
M  V30 11284 C 1038.85 3.59382 -0.193011 0
M  V30 11285 C 1038.46 4.19178 -1.58093 0
M  V30 11286 C 1040.2 4.23778 0.247534 0
M  V30 11287 C 1038.11 5.69553 -1.59258 0
M  V30 11288 H 1037.04 0.752521 -0.0472109 0
M  V30 11289 H 1039.69 1.65498 -0.79263 0
M  V30 11290 H 1038.07 3.92432 0.530408 0
M  V30 11291 H 1039.25 3.97662 -2.32813 0
M  V30 11292 H 1037.56 3.67079 -1.96576 0
M  V30 11293 H 1040.16 5.34075 0.258401 0
M  V30 11294 H 1040.5 3.96285 1.27529 0
M  V30 11295 H 1041.03 3.9554 -0.423469 0
M  V30 11296 H 1037.77 6.01784 -2.59878 0
M  V30 11297 H 1037.29 5.93185 -0.888352 0
M  V30 11298 H 1038.97 6.33234 -1.32756 0
M  V30 11299 N 1039.1 0.374177 1.53094 0
M  V30 11300 C 1040.52 -0.103172 1.86415 0
M  V30 11301 C 1040.87 -1.47439 1.29446 0
M  V30 11302 O 1039.99 -2.07333 0.619853 0
M  V30 11303 C 1040.59 -0.193988 3.38244 0
M  V30 11304 C 1039.15 -0.615605 3.71332 0
M  V30 11305 C 1038.29 0.23186 2.76329 0
M  V30 11306 H 1041.24 0.592644 1.47219 0
M  V30 11307 H 1041.26 -1.01597 3.66686 0
M  V30 11308 H 1040.78 0.80414 3.79678 0
M  V30 11309 H 1038.88 -1.62165 3.3546 0
M  V30 11310 H 1038.99 -0.38425 4.77557 0
M  V30 11311 H 1037.35 -0.300579 2.5292 0
M  V30 11312 H 1038.14 1.22769 3.20597 0
M  V30 11313 N 1040.58 -1.57259 0.103575 0
M  V30 11314 C 1042 -1.57581 -0.253062 0
M  V30 11315 C 1042.2 -1.11531 -1.67819 0
M  V30 11316 O 1041.25 -0.795632 -2.39637 0
M  V30 11317 C 1042.57 -3.00681 -0.0337753 0
M  V30 11318 C 1044.12 -3.12837 -0.10087 0
M  V30 11319 C 1044.59 -4.57911 0.0905295 0
M  V30 11320 N 1046.08 -4.63186 0.0359789 0
M  V30 11321 C 1046.82 -5.73179 0.159199 0
M  V30 11322 N 1046.31 -6.91976 0.337728 0
M  V30 11323 N 1048.11 -5.62011 0.0998662 0
M  V30 11324 H 1040.26 -1.85499 1.0346 0
M  V30 11325 H 1042.52 -0.856584 0.406163 0
M  V30 11326 H 1042.23 -3.38602 0.950858 0
M  V30 11327 H 1042.1 -3.69207 -0.772406 0
M  V30 11328 H 1044.49 -2.74783 -1.07601 0
M  V30 11329 H 1044.57 -2.46886 0.66939 0
M  V30 11330 H 1044.21 -4.9666 1.06258 0
M  V30 11331 H 1044.14 -5.21933 -0.699528 0
M  V30 11332 H 1046.63 -3.7777 -0.099121 0
M  V30 11333 H 1046.95 -7.71641 0.423032 0
M  V30 11334 H 1045.29 -6.93996 0.373504 0
M  V30 11335 H 1048.48 -4.68084 -0.0385356 0
M  V30 11336 H 1048.65 -6.47693 0.199342 0
M  V30 11337 N 1042.06 0.170153 -1.56679 0
M  V30 11338 C 1043.31 0.884841 -1.817 0
M  V30 11339 C 1043.63 1.82731 -0.680763 0
M  V30 11340 O 1042.9 1.936 0.299294 0
M  V30 11341 H 1041.48 0.329738 -0.670285 0
M  V30 11342 H 1044.14 0.169691 -1.9416 0
M  V30 11343 H 1043.24 1.46104 -2.7579 0
M  V30 11344 N 1043.54 1.5137 0.438746 0
M  V30 11345 C 1044.47 1.68774 1.55074 0
M  V30 11346 C 1045.48 0.568436 1.52554 0
M  V30 11347 O 1046.67 0.842707 1.57355 0
M  V30 11348 C 1043.77 1.68592 2.9399 0
M  V30 11349 C 1042.95 2.97084 3.2103 0
M  V30 11350 C 1042 2.89108 4.39663 0
M  V30 11351 O 1041.03 3.63052 4.38385 0
M  V30 11352 N 1042.23 2.04863 5.4315 0
M  V30 11353 H 1045 2.647 1.40549 0
M  V30 11354 H 1042.56 1.49238 0.627663 0
M  V30 11355 H 1044.55 1.60826 3.71372 0
M  V30 11356 H 1043.12 0.802657 3.02119 0
M  V30 11357 H 1042.34 3.18729 2.3196 0
M  V30 11358 H 1043.63 3.82143 3.35923 0
M  V30 11359 H 1043.03 1.4416 5.47023 0
M  V30 11360 H 1041.58 2.02977 6.1939 0
M  V30 11361 N 1045.02 -0.694098 1.41492 0
M  V30 11362 C 1045.95 -1.82042 1.46229 0
M  V30 11363 C 1046.93 -1.67047 0.320803 0
M  V30 11364 O 1048.11 -1.86758 0.53245 0
M  V30 11365 C 1045.24 -3.2019 1.34519 0
M  V30 11366 C 1044.2 -3.49892 2.46495 0
M  V30 11367 C 1043.52 -4.87411 2.1985 0
M  V30 11368 C 1044.82 -3.4872 3.88834 0
M  V30 11369 H 1046.52 -1.78335 2.40493 0
M  V30 11370 H 1044.06 -0.856566 1.15754 0
M  V30 11371 H 1046.02 -3.98699 1.36445 0
M  V30 11372 H 1044.74 -3.24527 0.367406 0
M  V30 11373 H 1043.4 -2.73734 2.43854 0
M  V30 11374 H 1043.05 -4.88375 1.20411 0
M  V30 11375 H 1042.75 -5.08248 2.94885 0
M  V30 11376 H 1044.27 -5.68228 2.23494 0
M  V30 11377 H 1045.68 -4.1723 3.93182 0
M  V30 11378 H 1044.08 -3.81089 4.63564 0
M  V30 11379 H 1045.15 -2.47665 4.16881 0
M  V30 11380 N 1046.49 -1.27344 -0.928501 0
M  V30 11381 C 1047.72 -1.16447 -1.7102 0
M  V30 11382 C 1048.14 0.278799 -1.8673 0
M  V30 11383 O 1047.49 1.18989 -1.38376 0
M  V30 11384 C 1047.55 -1.84242 -3.11026 0
M  V30 11385 O 1047.27 -3.2293 -2.96054 0
M  V30 11386 C 1048.77 -1.7946 -4.05351 0
M  V30 11387 H 1045.99 -0.404898 -0.535069 0
M  V30 11388 H 1048.53 -1.68201 -1.16313 0
M  V30 11389 H 1046.69 -1.36395 -3.62595 0
M  V30 11390 H 1047.1 -3.5667 -3.8456 0
M  V30 11391 H 1048.57 -2.31511 -5.01105 0
M  V30 11392 H 1049.05 -0.763771 -4.32508 0
M  V30 11393 H 1049.66 -2.26918 -3.59706 0
M  V30 11394 N 1047.97 1.13488 -1.09353 0
M  V30 11395 C 1048.91 2.17951 -0.67622 0
M  V30 11396 C 1049.88 1.59482 0.316906 0
M  V30 11397 O 1051.07 1.8723 0.218459 0
M  V30 11398 C 1048.19 3.387 0.00391024 0
M  V30 11399 C 1047.24 4.15764 -0.950906 0
M  V30 11400 S 1048.07 4.75517 -2.46259 0
M  V30 11401 C 1049.23 5.99613 -1.79485 0
M  V30 11402 H 1049.46 2.53012 -1.56115 0
M  V30 11403 H 1047 1.24773 -0.909447 0
M  V30 11404 H 1048.95 4.08643 0.39002 0
M  V30 11405 H 1047.61 3.01941 0.86548 0
M  V30 11406 H 1046.81 5.02229 -0.422086 0
M  V30 11407 H 1046.41 3.51473 -1.27838 0
M  V30 11408 H 1048.7 6.68204 -1.11846 0
M  V30 11409 H 1049.64 6.57102 -2.63862 0
M  V30 11410 H 1050.05 5.50165 -1.26409 0
M  V30 11411 N 1049.45 0.880621 1.30701 0
M  V30 11412 C 1050.7 0.492957 1.95583 0
M  V30 11413 C 1051.01 -0.961863 1.70316 0
M  V30 11414 O 1052.22 -1.45617 2.29146 0
M  V30 11415 C 1050.68 0.830656 3.50183 0
M  V30 11416 C 1050.28 2.30295 3.84276 0
M  V30 11417 C 1052.03 0.511979 4.21401 0
M  V30 11418 C 1049.93 2.58251 5.32034 0
M  V30 11419 H 1048.86 0.18062 0.732047 0
M  V30 11420 H 1051.52 1.075 1.48715 0
M  V30 11421 H 1049.9 0.177752 3.95601 0
M  V30 11422 H 1051.07 2.99981 3.49783 0
M  V30 11423 H 1049.39 2.58873 3.2615 0
M  V30 11424 H 1051.98 0.697935 5.30125 0
M  V30 11425 H 1052.33 -0.548327 4.12673 0
M  V30 11426 H 1052.86 1.12189 3.81652 0
M  V30 11427 H 1049.6 3.63005 5.45809 0
M  V30 11428 H 1049.12 1.9317 5.67843 0
M  V30 11429 H 1050.8 2.43527 5.99419 0
M  V30 11430 N 1050.93 -1.4397 0.641131 0
M  V30 11431 C 1052.18 -2.02246 0.14985 0
M  V30 11432 C 1052.51 -1.50387 -1.22871 0
M  V30 11433 O 1051.78 -0.692003 -1.81773 0
M  V30 11434 C 1052.07 -3.59798 0.147449 0
M  V30 11435 C 1051.92 -4.21916 1.55907 0
M  V30 11436 C 1053.24 -4.36985 -0.522667 0
M  V30 11437 H 1050.36 -0.734875 0.0559274 0
M  V30 11438 H 1053 -1.71418 0.819513 0
M  V30 11439 H 1051.15 -3.86193 -0.422789 0
M  V30 11440 H 1052.82 -4.06594 2.17896 0
M  V30 11441 H 1051.06 -3.79028 2.10998 0
M  V30 11442 H 1051.74 -5.30964 1.50934 0
M  V30 11443 H 1054.21 -4.16083 -0.0376226 0
M  V30 11444 H 1053.09 -5.46676 -0.493572 0
M  V30 11445 H 1053.35 -4.12335 -1.59475 0
M  V30 11446 N 1052.41 -0.382291 -1.52893 0
M  V30 11447 C 1053.66 0.201734 -2.01091 0
M  V30 11448 C 1053.98 1.47905 -1.2708 0
M  V30 11449 O 1053.25 1.92002 -0.38883 0
M  V30 11450 H 1051.83 0.0775373 -0.742965 0
M  V30 11451 H 1054.49 -0.512369 -1.88045 0
M  V30 11452 H 1053.58 0.416919 -3.09303 0
M  V30 11453 N 1053.89 1.57202 -0.111913 0
M  V30 11454 C 1054.82 2.11995 0.871242 0
M  V30 11455 C 1055.83 1.06102 1.23475 0
M  V30 11456 O 1057.02 1.33497 1.18494 0
M  V30 11457 C 1054.12 2.59874 2.17528 0
M  V30 11458 C 1053.29 3.89788 1.98455 0
M  V30 11459 C 1052.35 4.23339 3.12523 0
M  V30 11460 O 1051.38 4.92277 2.85748 0
M  V30 11461 N 1052.58 3.80089 4.38762 0
M  V30 11462 H 1055.34 2.96976 0.403157 0
M  V30 11463 H 1052.91 1.61737 0.0727159 0
M  V30 11464 H 1054.9 2.79354 2.9282 0
M  V30 11465 H 1053.47 1.79812 2.55707 0
M  V30 11466 H 1052.69 3.79288 1.07396 0
M  V30 11467 H 1053.98 4.74748 1.83007 0
M  V30 11468 H 1053.37 3.24473 4.63394 0
M  V30 11469 H 1051.93 4.04691 5.10949 0
M  V30 11470 N 1055.36 -0.161842 1.56767 0
M  V30 11471 C 1056.61 -0.878224 1.82798 0
M  V30 11472 C 1056.94 -1.81481 0.691242 0
M  V30 11473 O 1056.22 -1.92075 -0.30618 0
M  V30 11474 C 1056.5 -1.66565 3.19262 0
M  V30 11475 C 1056.35 -0.751551 4.43477 0
M  V30 11476 C 1057.67 -2.63134 3.52773 0
M  V30 11477 H 1054.79 -0.317828 0.664947 0
M  V30 11478 H 1057.43 -0.14402 1.89453 0
M  V30 11479 H 1055.58 -2.29157 3.13719 0
M  V30 11480 H 1057.26 -0.137783 4.61094 0
M  V30 11481 H 1055.5 -0.0601785 4.33758 0
M  V30 11482 H 1056.17 -1.33823 5.35533 0
M  V30 11483 H 1058.65 -2.10666 3.5883 0
M  V30 11484 H 1057.52 -3.15289 4.49315 0
M  V30 11485 H 1057.78 -3.43786 2.77963 0
M  V30 11486 N 1056.84 -1.516 -0.430713 0
M  V30 11487 C 1058.09 -1.64271 -1.17726 0
M  V30 11488 C 1058.41 -0.364406 -1.91565 0
M  V30 11489 O 1057.68 0.619991 -1.8583 0
M  V30 11490 H 1056.26 -0.605432 -0.437562 0
M  V30 11491 H 1058.92 -1.88557 -0.493166 0
M  V30 11492 H 1058.02 -2.47355 -1.90321 0
M  V30 11493 N 1058.32 0.686584 -1.41858 0
M  V30 11494 C 1059.56 1.45879 -1.43173 0
M  V30 11495 C 1059.92 1.91953 -0.0423059 0
M  V30 11496 O 1061.12 2.68709 0.069783 0
M  V30 11497 C 1059.4 2.63196 -2.41791 0
M  V30 11498 S 1060.95 3.52212 -2.6171 0
M  V30 11499 H 1057.77 0.498391 -0.507077 0
M  V30 11500 H 1060.37 0.800313 -1.78368 0
M  V30 11501 H 1059.08 2.27566 -3.41529 0
M  V30 11502 H 1058.61 3.33928 -2.0798 0
M  V30 11503 H 1060.62 4.58744 -1.89125 0
M  V30 11504 N 1059.8 1.27835 0.921735 0
M  V30 11505 C 1061.05 1.14296 1.66676 0
M  V30 11506 C 1061.37 -0.310493 1.92512 0
M  V30 11507 O 1060.64 -1.21637 1.53562 0
M  V30 11508 H 1059.22 0.419994 0.617749 0
M  V30 11509 H 1061.88 1.60449 1.10644 0
M  V30 11510 H 1060.97 1.67654 2.63246 0
M  V30 11511 N 1061.28 -1.12907 1.09954 0
M  V30 11512 C 1062.22 -2.18485 0.743848 0
M  V30 11513 C 1063.19 -1.63766 -0.277494 0
M  V30 11514 O 1064.38 -1.90146 -0.157899 0
M  V30 11515 C 1061.52 -3.44649 0.176437 0
M  V30 11516 C 1060.63 -4.13445 1.25248 0
M  V30 11517 C 1059.77 -5.27242 0.647242 0
M  V30 11518 C 1058.8 -5.87897 1.70421 0
M  V30 11519 N 1057.94 -6.93116 1.1196 0
M  V30 11520 H 1062.78 -2.48257 1.64841 0
M  V30 11521 H 1060.32 -1.21891 0.823471 0
M  V30 11522 H 1062.28 -4.16852 -0.170384 0
M  V30 11523 H 1060.91 -3.15309 -0.69137 0
M  V30 11524 H 1059.96 -3.39471 1.7165 0
M  V30 11525 H 1061.27 -4.54601 2.05279 0
M  V30 11526 H 1060.42 -6.06186 0.249579 0
M  V30 11527 H 1059.16 -4.87351 -0.184556 0
M  V30 11528 H 1058.17 -5.07643 2.11136 0
M  V30 11529 H 1059.39 -6.2986 2.53877 0
M  V30 11530 H 1057.34 -6.55271 0.309181 0
M  V30 11531 H 1057.26 -7.32843 1.85681 0
M  V30 11532 H 1058.52 -7.759 0.748326 0
M  V30 11533 N 1062.75 -0.88754 -1.30232 0
M  V30 11534 C 1063.98 -0.521562 -2.00735 0
M  V30 11535 C 1064.4 0.883247 -1.66073 0
M  V30 11536 O 1063.76 1.58581 -0.878731 0
M  V30 11537 C 1063.81 -0.706521 -3.53611 0
M  V30 11538 O 1062.91 0.246447 -4.11663 0
M  V30 11539 H 1062.25 -0.205216 -0.631492 0
M  V30 11540 H 1064.78 -1.19579 -1.66018 0
M  V30 11541 H 1064.79 -0.606501 -4.03467 0
M  V30 11542 H 1063.47 -1.73076 -3.78177 0
M  V30 11543 H 1062.05 0.0999062 -3.72766 0
M  V30 11544 N 1064.23 1.43628 -0.648757 0
M  V30 11545 C 1065.46 2.06732 -0.166284 0
M  V30 11546 C 1065.88 1.48281 1.15734 0
M  V30 11547 O 1065.24 0.591018 1.71396 0
M  V30 11548 C 1065.29 3.60502 -0.0838732 0
M  V30 11549 O 1064.39 4.01186 0.955185 0
M  V30 11550 H 1063.73 0.657479 -0.0928285 0
M  V30 11551 H 1066.26 1.84208 -0.890421 0
M  V30 11552 H 1066.27 4.07875 0.100923 0
M  V30 11553 H 1064.95 4.02424 -1.05014 0
M  V30 11554 H 1063.53 3.65412 0.743537 0
M  V30 11555 N 1065.71 0.390394 1.52688 0
M  V30 11556 C 1066.64 -0.43567 2.294 0
M  V30 11557 C 1067.62 -1.06253 1.32832 0
M  V30 11558 O 1068.81 -1.07509 1.61726 0
M  V30 11559 C 1065.94 -1.56259 3.10162 0
M  V30 11560 C 1064.89 -1.06172 4.14622 0
M  V30 11561 C 1064.22 -2.2808 4.83615 0
M  V30 11562 C 1065.52 -0.128902 5.22141 0
M  V30 11563 H 1067.21 0.204384 2.98702 0
M  V30 11564 H 1064.76 0.0997377 1.43654 0
M  V30 11565 H 1066.71 -2.14732 3.62585 0
M  V30 11566 H 1065.43 -2.23025 2.38595 0
M  V30 11567 H 1064.09 -0.499518 3.63181 0
M  V30 11568 H 1063.74 -2.93358 4.08595 0
M  V30 11569 H 1063.44 -1.95227 5.5422 0
M  V30 11570 H 1064.96 -2.87193 5.38844 0
M  V30 11571 H 1066.38 -0.621849 5.69917 0
M  V30 11572 H 1064.78 0.109919 5.99999 0
M  V30 11573 H 1065.85 0.821884 4.77884 0
M  V30 11574 N 1067.19 -1.57141 0.120249 0
M  V30 11575 C 1068.12 -2.18398 -0.826112 0
M  V30 11576 C 1069.1 -1.12439 -1.27638 0
M  V30 11577 O 1070.28 -1.40679 -1.33877 0
M  V30 11578 C 1067.41 -2.78438 -2.0758 0
M  V30 11579 C 1066.37 -3.89991 -1.76327 0
M  V30 11580 C 1065.69 -4.36844 -3.08336 0
M  V30 11581 C 1066.99 -5.12031 -1.03062 0
M  V30 11582 H 1068.69 -2.97731 -0.315656 0
M  V30 11583 H 1066.23 -1.43213 -0.150387 0
M  V30 11584 H 1068.19 -3.19951 -2.74243 0
M  V30 11585 H 1066.91 -1.96396 -2.60953 0
M  V30 11586 H 1065.57 -3.49055 -1.12053 0
M  V30 11587 H 1065.22 -3.51659 -3.59646 0
M  V30 11588 H 1064.92 -5.1207 -2.88199 0
M  V30 11589 H 1066.44 -4.81009 -3.76116 0
M  V30 11590 H 1067.86 -5.50555 -1.59881 0
M  V30 11591 H 1066.25 -5.92848 -0.930146 0
M  V30 11592 H 1067.32 -4.84897 -0.017582 0
M  V30 11593 N 1068.67 0.153526 -1.5685 0
M  V30 11594 C 1069.6 1.19162 -2.00805 0
M  V30 11595 C 1070.58 1.45172 -0.886518 0
M  V30 11596 O 1071.76 1.56203 -1.15387 0
M  V30 11597 C 1068.89 2.52637 -2.38311 0
M  V30 11598 C 1067.85 2.41161 -3.53589 0
M  V30 11599 C 1067.17 3.79287 -3.76889 0
M  V30 11600 C 1068.47 1.90122 -4.86468 0
M  V30 11601 H 1070.17 0.82617 -2.87776 0
M  V30 11602 H 1067.71 0.395972 -1.38449 0
M  V30 11603 H 1069.67 3.25478 -2.6766 0
M  V30 11604 H 1068.39 2.91005 -1.4827 0
M  V30 11605 H 1067.05 1.70772 -3.24395 0
M  V30 11606 H 1066.7 4.15079 -2.84109 0
M  V30 11607 H 1066.4 3.72472 -4.54465 0
M  V30 11608 H 1067.92 4.53687 -4.08657 0
M  V30 11609 H 1069.33 2.52752 -5.14577 0
M  V30 11610 H 1067.73 1.94214 -5.67804 0
M  V30 11611 H 1068.8 0.856517 -4.77275 0
M  V30 11612 N 1070.14 1.51827 0.422667 0
M  V30 11613 C 1071.11 1.7359 1.49663 0
M  V30 11614 C 1072.11 0.605811 1.48952 0
M  V30 11615 O 1073.3 0.87354 1.50715 0
M  V30 11616 C 1070.43 1.80585 2.8914 0
M  V30 11617 H 1071.62 2.69453 1.31664 0
M  V30 11618 H 1069.18 1.42038 0.652298 0
M  V30 11619 H 1069.91 0.865895 3.12526 0
M  V30 11620 H 1069.7 2.62729 2.9106 0
M  V30 11621 H 1071.19 1.99212 3.67021 0
M  V30 11622 N 1071.62 -0.679052 1.4222 0
M  V30 11623 C 1072.59 -1.77448 1.45069 0
M  V30 11624 C 1073.59 -1.57189 0.338882 0
M  V30 11625 O 1074.78 -1.63559 0.599519 0
M  V30 11626 C 1071.91 -3.1603 1.27819 0
M  V30 11627 H 1073.1 -1.7631 2.426 0
M  V30 11628 H 1070.65 -0.888277 1.28605 0
M  V30 11629 H 1071.39 -3.22796 0.311946 0
M  V30 11630 H 1071.17 -3.32138 2.08391 0
M  V30 11631 H 1072.66 -3.9596 1.32686 0
M  V30 11632 N 1073.1 -1.28322 -0.914942 0
M  V30 11633 C 1074.03 -1.14681 -2.03398 0
M  V30 11634 C 1075.01 -0.0448939 -1.70041 0
M  V30 11635 O 1076.2 -0.221672 -1.92931 0
M  V30 11636 C 1073.33 -0.806623 -3.37803 0
M  V30 11637 C 1072.28 -1.86318 -3.85318 0
M  V30 11638 C 1071.61 -1.37665 -5.16674 0
M  V30 11639 C 1072.91 -3.26953 -4.07307 0
M  V30 11640 H 1074.6 -2.08293 -2.15068 0
M  V30 11641 H 1072.15 -1.00284 -1.03339 0
M  V30 11642 H 1074.1 -0.69796 -4.1558 0
M  V30 11643 H 1072.82 0.165203 -3.26182 0
M  V30 11644 H 1071.48 -1.96096 -3.09745 0
M  V30 11645 H 1071.13 -0.393927 -5.01455 0
M  V30 11646 H 1070.83 -2.08313 -5.49435 0
M  V30 11647 H 1072.35 -1.28119 -5.97007 0
M  V30 11648 H 1073.77 -3.20102 -4.75613 0
M  V30 11649 H 1072.17 -3.95424 -4.51398 0
M  V30 11650 H 1073.24 -3.71059 -3.12159 0
M  V30 11651 N 1074.58 1.12322 -1.10551 0
M  V30 11652 C 1075.83 1.83495 -0.846998 0
M  V30 11653 C 1076.15 1.8457 0.629205 0
M  V30 11654 O 1075.42 1.30968 1.45686 0
M  V30 11655 H 1074 0.679479 -0.310351 0
M  V30 11656 H 1076.66 1.36004 -1.39602 0
M  V30 11657 H 1075.76 2.87651 -1.21092 0
M  V30 11658 N 1076.06 0.894434 1.2976 0
M  V30 11659 C 1076.97 0.372622 2.31622 0
M  V30 11660 C 1077.98 -0.52996 1.65733 0
M  V30 11661 O 1079.16 -0.420807 1.96955 0
M  V30 11662 C 1076.22 -0.396076 3.4443 0
M  V30 11663 C 1075.28 0.537394 4.25923 0
M  V30 11664 C 1074.52 -0.194713 5.33345 0
M  V30 11665 O 1074.74 -1.41943 5.52457 0
M  V30 11666 O 1073.67 0.460055 6.00139 0
M  V30 11667 H 1077.5 1.21756 2.78225 0
M  V30 11668 H 1075.09 0.65858 1.34101 0
M  V30 11669 H 1076.97 -0.830962 4.13126 0
M  V30 11670 H 1075.64 -1.21716 2.99945 0
M  V30 11671 H 1074.55 1.02129 3.5989 0
M  V30 11672 H 1075.88 1.32475 4.74037 0
M  V30 11673 N 1077.53 -1.43282 0.656365 0
M  V30 11674 C 1078.47 -2.28049 -0.083127 0
M  V30 11675 C 1079.45 -1.40009 -0.826812 0
M  V30 11676 O 1080.63 -1.69452 -0.825736 0
M  V30 11677 C 1077.76 -3.19487 -1.12452 0
M  V30 11678 C 1076.8 -4.23807 -0.478527 0
M  V30 11679 S 1077.64 -5.30218 0.750248 0
M  V30 11680 C 1078.79 -6.25225 -0.290534 0
M  V30 11681 H 1079.02 -2.90419 0.635922 0
M  V30 11682 H 1076.56 -1.47839 0.445303 0
M  V30 11683 H 1078.52 -3.72713 -1.72034 0
M  V30 11684 H 1077.18 -2.56288 -1.81591 0
M  V30 11685 H 1076.37 -4.87901 -1.26368 0
M  V30 11686 H 1075.97 -3.73975 0.043251 0
M  V30 11687 H 1078.26 -6.67568 -1.15579 0
M  V30 11688 H 1079.21 -7.07397 0.315458 0
M  V30 11689 H 1079.61 -5.60999 -0.627751 0
M  V30 11690 N 1079.01 -0.398486 -1.52479 0
M  V30 11691 C 1079.95 0.467426 -2.24383 0
M  V30 11692 C 1080.96 1.01908 -1.26959 0
M  V30 11693 O 1082.15 0.919843 -1.52974 0
M  V30 11694 C 1079.25 1.66146 -2.95379 0
M  V30 11695 C 1078.42 1.23557 -4.19586 0
M  V30 11696 C 1077.48 2.29532 -4.73499 0
M  V30 11697 O 1076.51 1.90561 -5.36354 0
M  V30 11698 N 1077.71 3.61564 -4.5415 0
M  V30 11699 H 1080.47 -0.148653 -2.99331 0
M  V30 11700 H 1078.03 -0.225313 -1.60325 0
M  V30 11701 H 1080.03 2.36585 -3.28344 0
M  V30 11702 H 1078.6 2.18369 -2.23682 0
M  V30 11703 H 1077.82 0.359715 -3.92555 0
M  V30 11704 H 1079.1 0.927812 -5.00269 0
M  V30 11705 H 1078.5 3.95983 -4.03998 0
M  V30 11706 H 1077.06 4.2801 -4.9158 0
M  V30 11707 N 1080.49 1.57075 -0.12858 0
M  V30 11708 C 1081.44 2.15816 0.818064 0
M  V30 11709 C 1082.41 1.08581 1.25696 0
M  V30 11710 O 1083.59 1.36535 1.33277 0
M  V30 11711 C 1080.73 2.76943 2.05905 0
M  V30 11712 C 1079.85 3.98514 1.66764 0
M  V30 11713 C 1078.98 4.47698 2.85902 0
M  V30 11714 C 1078.02 5.61778 2.43047 0
M  V30 11715 N 1077.16 6.05662 3.5513 0
M  V30 11716 H 1082 2.9638 0.310318 0
M  V30 11717 H 1079.53 1.46418 0.141472 0
M  V30 11718 H 1081.49 3.10519 2.78629 0
M  V30 11719 H 1080.12 1.99053 2.54122 0
M  V30 11720 H 1079.17 3.71038 0.838766 0
M  V30 11721 H 1080.49 4.81215 1.31277 0
M  V30 11722 H 1079.64 4.83233 3.66839 0
M  V30 11723 H 1078.38 3.63967 3.24622 0
M  V30 11724 H 1077.38 5.25838 1.60544 0
M  V30 11725 H 1078.61 6.47282 2.05433 0
M  V30 11726 H 1076.56 5.2487 3.93506 0
M  V30 11727 H 1076.47 6.83242 3.23598 0
M  V30 11728 H 1077.74 6.45838 4.36479 0
M  V30 11729 N 1081.97 -0.145205 1.5693 0
M  V30 11730 C 1083.22 -0.858786 1.83719 0
M  V30 11731 C 1083.55 -1.80738 0.710452 0
M  V30 11732 O 1082.82 -1.92389 -0.285791 0
M  V30 11733 C 1083.11 -1.6317 3.2101 0
M  V30 11734 C 1082.96 -0.704472 4.44249 0
M  V30 11735 C 1084.28 -2.59377 3.55544 0
M  V30 11736 H 1081.4 -0.310757 0.66828 0
M  V30 11737 H 1084.04 -0.123918 1.89595 0
M  V30 11738 H 1082.19 -2.25816 3.16132 0
M  V30 11739 H 1083.86 -0.08887 4.61214 0
M  V30 11740 H 1082.1 -0.0141693 4.33798 0
M  V30 11741 H 1082.78 -1.28135 5.36922 0
M  V30 11742 H 1085.25 -2.06848 3.61044 0
M  V30 11743 H 1084.13 -3.10506 4.52634 0
M  V30 11744 H 1084.39 -3.40819 2.81594 0
M  V30 11745 N 1083.45 -1.52049 -0.414609 0
M  V30 11746 C 1084.67 -1.6997 -1.18848 0
M  V30 11747 C 1085.1 -0.406058 -1.83665 0
M  V30 11748 O 1084.46 0.635981 -1.69779 0
M  V30 11749 C 1084.5 -2.8327 -2.23138 0
M  V30 11750 O 1083.61 -2.48457 -3.29155 0
M  V30 11751 H 1082.95 -0.566003 -0.347183 0
M  V30 11752 H 1085.48 -1.98726 -0.486757 0
M  V30 11753 H 1085.49 -3.08022 -2.67557 0
M  V30 11754 H 1084.16 -3.7713 -1.75344 0
M  V30 11755 H 1082.74 -2.34357 -2.90054 0
M  V30 11756 N 1084.93 0.6715 -1.42579 0
M  V30 11757 C 1086.17 1.42871 -1.42941 0
M  V30 11758 C 1086.49 1.94941 -0.0480483 0
M  V30 11759 O 1085.76 1.73275 0.913921 0
M  V30 11760 H 1084.34 0.530189 -0.526221 0
M  V30 11761 H 1087.01 0.793219 -1.78028 0
M  V30 11762 H 1086.1 2.2801 -2.13114 0
M  V30 11763 N 1086.4 1.28806 0.908124 0
M  V30 11764 C 1087.37 1.13228 1.99279 0
M  V30 11765 C 1088.37 0.0702456 1.60646 0
M  V30 11766 O 1089.56 0.316494 1.71301 0
M  V30 11767 C 1086.69 0.729629 3.33 0
M  V30 11768 H 1087.88 2.09566 2.14528 0
M  V30 11769 H 1085.43 1.11872 1.09153 0
M  V30 11770 H 1086.17 -0.234268 3.23453 0
M  V30 11771 H 1085.95 1.49688 3.62403 0
M  V30 11772 H 1087.44 0.643449 4.12613 0
M  V30 11773 N 1087.88 -1.11734 1.11145 0
M  V30 11774 C 1089.13 -1.83677 0.859684 0
M  V30 11775 C 1089.46 -1.84265 -0.613182 0
M  V30 11776 O 1088.74 -1.29351 -1.45254 0
M  V30 11777 C 1089.02 -3.31003 1.41805 0
M  V30 11778 C 1088.87 -3.38827 2.95831 0
M  V30 11779 C 1090.19 -4.26984 1.06645 0
M  V30 11780 H 1087.31 -0.666879 0.313754 0
M  V30 11781 H 1089.95 -1.31038 1.37583 0
M  V30 11782 H 1088.1 -3.75961 0.979054 0
M  V30 11783 H 1089.77 -3.02451 3.48312 0
M  V30 11784 H 1088.02 -2.79143 3.32056 0
M  V30 11785 H 1088.69 -4.42508 3.29986 0
M  V30 11786 H 1091.16 -3.9019 1.44537 0
M  V30 11787 H 1090.04 -5.2846 1.48394 0
M  V30 11788 H 1090.3 -4.42094 -0.0231866 0
M  V30 11789 N 1089.36 -0.901303 -1.29284 0
M  V30 11790 C 1090.61 -0.528043 -1.95494 0
M  V30 11791 C 1090.93 0.92597 -1.71044 0
M  V30 11792 O 1090.19 1.67185 -1.01723 0
M  V30 11793 C 1090.49 -0.768828 -3.49033 0
M  V30 11794 C 1090.15 -2.20045 -3.93562 0
M  V30 11795 C 1088.82 -2.59189 -4.05431 0
M  V30 11796 C 1091.17 -3.13266 -4.1655 0
M  V30 11797 C 1088.5 -3.90733 -4.37658 0
M  V30 11798 C 1090.85 -4.4436 -4.50252 0
M  V30 11799 C 1089.51 -4.83375 -4.60331 0
M  V30 11800 H 1088.78 -0.193225 -0.715364 0
M  V30 11801 H 1091.43 -1.14027 -1.53851 0
M  V30 11802 H 1089.73 -0.0736997 -3.91731 0
M  V30 11803 H 1091.43 -0.459384 -3.9836 0
M  V30 11804 H 1088.02 -1.88666 -3.84842 0
M  V30 11805 H 1092.21 -2.84237 -4.06845 0
M  V30 11806 H 1087.46 -4.2068 -4.43665 0
M  V30 11807 H 1091.64 -5.16618 -4.66989 0
M  V30 11808 H 1089.26 -5.8534 -4.85058 0
M  V30 11809 N 1090.84 1.42931 -0.663954 0
M  V30 11810 C 1092.08 2.02505 -0.190647 0
M  V30 11811 C 1092.44 1.51506 1.18591 0
M  V30 11812 O 1091.73 0.702962 1.78239 0
M  V30 11813 C 1091.93 3.57072 -0.153163 0
M  V30 11814 C 1091.75 4.23069 -1.52454 0
M  V30 11815 C 1090.52 4.58694 -2.11961 0
M  V30 11816 C 1092.72 4.51373 -2.46509 0
M  V30 11817 N 1090.7 5.09818 -3.41993 0
M  V30 11818 C 1092.08 5.03931 -3.61184 0
M  V30 11819 C 1094.13 4.33351 -2.45176 0
M  V30 11820 C 1092.83 5.40362 -4.74765 0
M  V30 11821 C 1094.86 4.70851 -3.57845 0
M  V30 11822 C 1094.22 5.23551 -4.71246 0
M  V30 11823 H 1090.32 0.773581 -0.114438 0
M  V30 11824 H 1092.9 1.73951 -0.874589 0
M  V30 11825 H 1091.08 3.85166 0.500156 0
M  V30 11826 H 1092.81 4.03336 0.332015 0
M  V30 11827 H 1089.56 4.44091 -1.6456 0
M  V30 11828 H 1089.99 5.39821 -4.08561 0
M  V30 11829 H 1094.63 3.91871 -1.58735 0
M  V30 11830 H 1092.35 5.8078 -5.6189 0
M  V30 11831 H 1095.93 4.58593 -3.58028 0
M  V30 11832 H 1094.81 5.52029 -5.56986 0
M  V30 11833 N 1092.32 0.406567 1.52266 0
M  V30 11834 C 1093.54 -0.172101 2.06685 0
M  V30 11835 C 1093.97 -1.38306 1.27488 0
M  V30 11836 O 1093.32 -1.78726 0.304441 0
M  V30 11837 C 1093.37 -0.503463 3.57068 0
M  V30 11838 O 1092.48 -1.59485 3.80314 0
M  V30 11839 H 1091.82 -0.0153209 0.663823 0
M  V30 11840 H 1094.35 0.579025 1.96236 0
M  V30 11841 H 1094.36 -0.762833 4.00805 0
M  V30 11842 H 1093.03 0.381775 4.14144 0
M  V30 11843 H 1091.61 -1.32784 3.48458 0
M  V30 11844 N 1093.79 -1.57004 0.136909 0
M  V30 11845 C 1095.02 -2.00587 -0.527209 0
M  V30 11846 C 1095.44 -1.01628 -1.58283 0
M  V30 11847 O 1094.8 0.00946934 -1.81298 0
M  V30 11848 C 1094.85 -3.42967 -1.11384 0
M  V30 11849 O 1093.95 -3.46973 -2.22898 0
M  V30 11850 H 1093.3 -0.651155 -0.129976 0
M  V30 11851 H 1095.83 -2.03296 0.230667 0
M  V30 11852 H 1095.84 -3.81555 -1.44499 0
M  V30 11853 H 1094.51 -4.14502 -0.340736 0
M  V30 11854 H 1093.09 -3.20219 -1.91087 0
M  V30 11855 N 1095.27 0.136881 -1.57004 0
M  V30 11856 C 1096.2 1.17026 -2.02057 0
M  V30 11857 C 1097.18 1.44223 -0.901866 0
M  V30 11858 O 1098.37 1.54971 -1.17037 0
M  V30 11859 C 1095.5 2.50095 -2.40977 0
M  V30 11860 C 1094.45 2.37398 -3.56127 0
M  V30 11861 C 1093.78 3.75268 -3.80891 0
M  V30 11862 C 1095.08 1.84952 -4.88457 0
M  V30 11863 H 1096.77 0.795601 -2.88636 0
M  V30 11864 H 1094.32 0.381266 -1.38861 0
M  V30 11865 H 1096.27 3.22621 -2.71097 0
M  V30 11866 H 1095 2.89416 -1.51348 0
M  V30 11867 H 1093.65 1.67322 -3.26188 0
M  V30 11868 H 1093.3 4.12043 -2.88496 0
M  V30 11869 H 1093 3.67631 -4.5839 0
M  V30 11870 H 1094.53 4.49327 -4.13446 0
M  V30 11871 H 1095.94 2.4728 -5.17229 0
M  V30 11872 H 1094.34 1.88181 -5.69832 0
M  V30 11873 H 1095.41 0.805848 -4.78157 0
M  V30 11874 N 1096.75 1.52266 0.40654 0
M  V30 11875 C 1098.16 1.58587 0.985241 0
M  V30 11876 C 1098.51 0.427955 1.91476 0
M  V30 11877 O 1097.64 -0.451341 2.11641 0
M  V30 11878 C 1098.23 2.87426 1.79365 0
M  V30 11879 C 1096.79 2.96217 2.32233 0
M  V30 11880 C 1095.94 2.53548 1.12288 0
M  V30 11881 H 1098.89 1.57598 0.186685 0
M  V30 11882 H 1098.91 2.72925 2.65127 0
M  V30 11883 H 1098.42 3.71682 1.11687 0
M  V30 11884 H 1096.52 2.1646 3.03275 0
M  V30 11885 H 1096.64 4.00511 2.62922 0
M  V30 11886 H 1095 2.07457 1.47763 0
M  V30 11887 H 1095.78 3.40181 0.461731 0
M  V30 11888 N 1098.23 -0.663929 1.42933 0
M  V30 11889 C 1099.51 -1.42054 1.34462 0
M  V30 11890 C 1099.89 -2.11096 -0.0127801 0
M  V30 11891 O 1099.23 -2.04027 -1.02884 0
M  V30 11892 C 1099.44 -2.41406 2.5204 0
M  V30 11893 C 1100.79 -3.05726 2.94647 0
M  V30 11894 O 1101.82 -2.51733 2.52009 0
M  V30 11895 O 1100.67 -4.03593 3.68477 0
M  V30 11896 H 1097.77 -0.634149 0.530834 0
M  V30 11897 H 1100.31 -0.691738 1.54962 0
M  V30 11898 H 1099.09 -1.89263 3.42484 0
M  V30 11899 H 1098.71 -3.21752 2.33584 0
M  V30 11900 N 1099.71 -1.29285 -0.901281 0
M  V30 11901 C 1100.93 -1.20169 -1.69039 0
M  V30 11902 C 1101.36 0.234509 -1.86632 0
M  V30 11903 O 1100.71 1.16935 -1.38549 0
M  V30 11904 C 1100.76 -1.91852 -3.05328 0
M  V30 11905 O 1099.87 -1.23448 -3.9349 0
M  V30 11906 H 1099.21 -0.416486 -0.517141 0
M  V30 11907 H 1101.74 -1.70826 -1.12603 0
M  V30 11908 H 1101.75 -2.00244 -3.5548 0
M  V30 11909 H 1100.42 -2.96313 -2.91841 0
M  V30 11910 H 1099 -1.23303 -3.51924 0
M  V30 11911 N 1101.18 1.11143 -1.11736 0
M  V30 11912 C 1102.09 2.20851 -0.791331 0
M  V30 11913 C 1103.11 1.72644 0.216833 0
M  V30 11914 O 1104.29 2.01332 0.0522401 0
M  V30 11915 C 1101.35 3.4585 -0.242694 0
M  V30 11916 C 1100.41 4.08829 -1.30986 0
M  V30 11917 C 1099.65 5.27861 -0.787305 0
M  V30 11918 O 1099.87 5.69122 0.381549 0
M  V30 11919 O 1098.8 5.81506 -1.55352 0
M  V30 11920 H 1102.63 2.51158 -1.70744 0
M  V30 11921 H 1100.21 1.19739 -0.893478 0
M  V30 11922 H 1102.1 4.21359 0.0587472 0
M  V30 11923 H 1100.77 3.17187 0.646079 0
M  V30 11924 H 1099.68 3.35037 -1.66436 0
M  V30 11925 H 1101.01 4.41678 -2.17213 0
M  V30 11926 N 1102.66 0.908147 1.28804 0
M  V30 11927 C 1103.91 0.534332 1.94494 0
M  V30 11928 C 1104.22 -0.92552 1.72318 0
M  V30 11929 O 1105.43 -1.40724 2.32183 0
M  V30 11930 C 1103.89 0.904748 3.48342 0
M  V30 11931 C 1103.49 2.38394 3.79305 0
M  V30 11932 C 1105.24 0.601249 4.2022 0
M  V30 11933 C 1103.15 2.69478 5.26437 0
M  V30 11934 H 1102.08 0.196107 0.728051 0
M  V30 11935 H 1104.73 1.1063 1.46401 0
M  V30 11936 H 1103.11 0.261624 3.95135 0
M  V30 11937 H 1104.28 3.07333 3.43341 0
M  V30 11938 H 1102.6 2.65733 3.20586 0
M  V30 11939 H 1105.19 0.810225 5.28526 0
M  V30 11940 H 1105.54 -0.460669 4.13743 0
M  V30 11941 H 1106.07 1.20259 3.79187 0
M  V30 11942 H 1102.81 3.74501 5.37986 0
M  V30 11943 H 1102.33 2.05171 5.63618 0
M  V30 11944 H 1104.01 2.56187 5.94119 0
M  V30 11945 N 1104.14 -1.42577 0.671525 0
M  V30 11946 C 1105.39 -2.01185 0.192051 0
M  V30 11947 C 1105.71 -1.53349 -1.20454 0
M  V30 11948 O 1104.98 -0.753781 -1.80817 0
M  V30 11949 H 1103.56 -0.743898 0.0680106 0
M  V30 11950 H 1106.22 -1.74539 0.8673 0
M  V30 11951 H 1105.32 -3.11516 0.190796 0
M  V30 11952 N 1105.62 -0.414636 -1.52048 0
M  V30 11953 C 1106.53 0.414861 -2.30903 0
M  V30 11954 C 1107.54 1.04855 -1.38858 0
M  V30 11955 O 1108.72 1.04886 -1.71933 0
M  V30 11956 C 1105.79 1.51356 -3.11917 0
M  V30 11957 C 1104.85 0.902359 -4.19709 0
M  V30 11958 C 1104.08 1.9487 -4.96852 0
M  V30 11959 O 1104.3 3.16766 -4.74358 0
M  V30 11960 O 1103.24 1.55186 -5.8155 0
M  V30 11961 H 1107.06 -0.228251 -3.02841 0
M  V30 11962 H 1104.65 -0.177704 -1.48339 0
M  V30 11963 H 1106.53 2.15127 -3.62351 0
M  V30 11964 H 1105.2 2.14117 -2.42767 0
M  V30 11965 H 1104.11 0.22721 -3.73409 0
M  V30 11966 H 1105.44 0.318587 -4.91168 0
M  V30 11967 N 1107.1 1.56929 -0.145233 0
M  V30 11968 C 1108.37 1.8767 0.551288 0
M  V30 11969 C 1108.75 1.05089 1.83083 0
M  V30 11970 O 1108.1 0.137201 2.28088 0
M  V30 11971 C 1108.31 3.39268 0.818445 0
M  V30 11972 C 1109.66 4.08447 1.16 0
M  V30 11973 O 1110.68 3.44436 0.907857 0
M  V30 11974 O 1109.54 5.21488 1.63441 0
M  V30 11975 H 1106.64 0.777788 0.281024 0
M  V30 11976 H 1109.18 1.68724 -0.181712 0
M  V30 11977 H 1107.95 3.91203 -0.0871897 0
M  V30 11978 H 1107.58 3.63735 1.60569 0
M  V30 11979 N 1108.58 -0.128553 1.57075 0
M  V30 11980 C 1109.99 -0.686713 1.73612 0
M  V30 11981 C 1110.34 -1.80778 0.762478 0
M  V30 11982 O 1109.46 -2.16297 -0.0667779 0
M  V30 11983 C 1110.06 -1.25246 3.148 0
M  V30 11984 C 1108.62 -1.757 3.32876 0
M  V30 11985 C 1107.76 -0.652844 2.69506 0
M  V30 11986 H 1110.71 0.0972859 1.58402 0
M  V30 11987 H 1110.74 -2.1222 3.15821 0
M  V30 11988 H 1110.25 -0.436308 3.8564 0
M  V30 11989 H 1108.35 -2.59824 2.67063 0
M  V30 11990 H 1108.46 -1.87302 4.4097 0
M  V30 11991 H 1106.83 -1.08408 2.30477 0
M  V30 11992 H 1107.61 0.15217 3.42963 0
M  V30 11993 N 1110.05 -1.5248 -0.398459 0
M  V30 11994 C 1111.28 -1.71221 -1.17039 0
M  V30 11995 C 1111.7 -0.425515 -1.83224 0
M  V30 11996 O 1111.06 0.617938 -1.70444 0
M  V30 11997 C 1111.11 -2.8562 -2.20121 0
M  V30 11998 O 1110.21 -2.51934 -3.26501 0
M  V30 11999 H 1109.55 -0.569654 -0.34116 0
M  V30 12000 H 1112.08 -1.99231 -0.465652 0
M  V30 12001 H 1112.09 -3.10842 -2.64275 0
M  V30 12002 H 1110.77 -3.78969 -1.71334 0
M  V30 12003 H 1109.35 -2.3742 -2.87552 0
M  V30 12004 N 1111.53 0.65634 -1.43283 0
M  V30 12005 C 1112.94 1.23744 -1.39801 0
M  V30 12006 C 1113.29 1.95942 -0.100507 0
M  V30 12007 O 1112.42 2.01063 0.800161 0
M  V30 12008 C 1113.01 2.25062 -2.53244 0
M  V30 12009 C 1111.57 2.78657 -2.53036 0
M  V30 12010 C 1110.72 1.53251 -2.31105 0
M  V30 12011 H 1113.67 0.448553 -1.52229 0
M  V30 12012 H 1113.69 3.07174 -2.24553 0
M  V30 12013 H 1113.2 1.72487 -3.47664 0
M  V30 12014 H 1111.3 3.35304 -1.62487 0
M  V30 12015 H 1111.42 3.26414 -3.507 0
M  V30 12016 H 1109.78 1.80487 -1.79713 0
M  V30 12017 H 1110.56 1.02615 -3.27605 0
M  V30 12018 N 1113.01 1.29761 0.894412 0
M  V30 12019 C 1113.92 1.1724 2.03204 0
M  V30 12020 C 1114.94 0.0944452 1.73743 0
M  V30 12021 O 1116.11 0.307549 1.99038 0
M  V30 12022 C 1113.18 0.855416 3.35981 0
M  V30 12023 C 1112.24 2.01777 3.78926 0
M  V30 12024 C 1111.47 1.71581 5.05367 0
M  V30 12025 O 1111.69 0.639245 5.66807 0
M  V30 12026 O 1110.63 2.56539 5.44492 0
M  V30 12027 H 1114.45 2.12787 2.16692 0
M  V30 12028 H 1112.04 1.09264 1.0189 0
M  V30 12029 H 1113.92 0.693429 4.15656 0
M  V30 12030 H 1112.6 -0.0702195 3.23624 0
M  V30 12031 H 1111.5 2.23502 2.99996 0
M  V30 12032 H 1112.84 2.92479 3.95875 0
M  V30 12033 N 1114.49 -1.10549 1.12324 0
M  V30 12034 C 1115.9 -1.34508 0.85905 0
M  V30 12035 C 1116.1 -1.94901 -0.511468 0
M  V30 12036 O 1115.16 -2.18793 -1.2604 0
M  V30 12037 C 1116.47 -2.26788 1.97453 0
M  V30 12038 C 1118.02 -2.40328 2.00528 0
M  V30 12039 C 1118.5 -3.35936 3.11305 0
M  V30 12040 N 1119.99 -3.43504 3.1074 0
M  V30 12041 C 1120.72 -4.17449 3.93096 0
M  V30 12042 N 1120.22 -4.9429 4.85437 0
M  V30 12043 N 1122.01 -4.13055 3.81237 0
M  V30 12044 H 1114.16 -0.697171 2.00632 0
M  V30 12045 H 1116.42 -0.369548 0.873005 0
M  V30 12046 H 1116.13 -1.89621 2.96204 0
M  V30 12047 H 1116 -3.27086 1.87869 0
M  V30 12048 H 1118.39 -2.76765 1.02397 0
M  V30 12049 H 1118.47 -1.39849 2.14186 0
M  V30 12050 H 1118.12 -3.00225 4.09667 0
M  V30 12051 H 1118.05 -4.36291 2.94886 0
M  V30 12052 H 1120.54 -2.88702 2.43843 0
M  V30 12053 H 1120.85 -5.48109 5.4479 0
M  V30 12054 H 1119.2 -4.93419 4.89452 0
M  V30 12055 H 1122.39 -3.52117 3.08433 0
M  V30 12056 H 1122.56 -4.70424 4.45651 0
M  V30 12057 N 1115.97 -0.914965 -1.28321 0
M  V30 12058 C 1116.88 -0.409424 -2.31 0
M  V30 12059 C 1117.89 0.503526 -1.66555 0
M  V30 12060 O 1119.07 0.38942 -1.97599 0
M  V30 12061 C 1116.13 0.34123 -3.45017 0
M  V30 12062 C 1115.19 -0.605087 -4.25014 0
M  V30 12063 C 1114.43 0.109837 -5.33587 0
M  V30 12064 O 1114.65 1.33136 -5.54645 0
M  V30 12065 O 1113.58 -0.555474 -5.99331 0
M  V30 12066 H 1117.41 -1.26167 -2.76253 0
M  V30 12067 H 1114.99 -0.679831 -1.33036 0
M  V30 12068 H 1116.88 0.765132 -4.14396 0
M  V30 12069 H 1115.55 1.16929 -3.01843 0
M  V30 12070 H 1114.46 -1.07841 -3.58219 0
M  V30 12071 H 1115.79 -1.39999 -4.7187 0
M  V30 12072 N 1117.44 1.42219 -0.679077 0
M  V30 12073 C 1118.67 2.05815 -0.211649 0
M  V30 12074 C 1119.09 1.51037 1.13284 0
M  V30 12075 O 1118.44 0.651894 1.7046 0
M  V30 12076 C 1118.49 3.61218 -0.142663 0
M  V30 12077 O 1118.22 4.13965 -1.43402 0
M  V30 12078 C 1119.72 4.41934 0.347746 0
M  V30 12079 H 1116.94 0.663215 -0.101914 0
M  V30 12080 H 1119.48 1.82282 -0.927017 0
M  V30 12081 H 1117.64 3.83848 0.52342 0
M  V30 12082 H 1118.05 5.07872 -1.31021 0
M  V30 12083 H 1119.52 5.50921 0.344916 0
M  V30 12084 H 1120 4.16832 1.38377 0
M  V30 12085 H 1120.61 4.24332 -0.286751 0
M  V30 12086 N 1118.92 0.422693 1.51826 0
M  V30 12087 C 1119.88 -0.384307 2.25955 0
M  V30 12088 C 1120.88 -0.962184 1.28836 0
M  V30 12089 O 1122.07 -0.838931 1.52668 0
M  V30 12090 C 1119.21 -1.54228 3.04018 0
M  V30 12091 H 1120.4 0.265157 2.98726 0
M  V30 12092 H 1117.95 0.175515 1.55311 0
M  V30 12093 H 1118.69 -2.22822 2.35629 0
M  V30 12094 H 1118.47 -1.13425 3.75336 0
M  V30 12095 H 1119.96 -2.1128 3.60209 0
M  V30 12096 N 1120.4 -1.5685 0.153553 0
M  V30 12097 C 1121.63 -2.00701 -0.502678 0
M  V30 12098 C 1122.04 -1.0337 -1.57988 0
M  V30 12099 O 1121.4 -0.0317233 -1.82472 0
M  V30 12100 C 1121.45 -3.44443 -1.09732 0
M  V30 12101 O 1121.17 -4.38054 -0.0631405 0
M  V30 12102 C 1122.67 -4.03605 -1.83352 0
M  V30 12103 H 1119.89 -0.658229 -0.130289 0
M  V30 12104 H 1122.44 -2.02965 0.250063 0
M  V30 12105 H 1120.59 -3.43009 -1.80065 0
M  V30 12106 H 1121.01 -5.22114 -0.499681 0
M  V30 12107 H 1122.48 -5.0616 -2.20241 0
M  V30 12108 H 1122.96 -3.44687 -2.7219 0
M  V30 12109 H 1123.56 -4.08688 -1.17703 0
M  V30 12110 N 1121.88 0.120221 -1.57141 0
M  V30 12111 C 1123.15 0.858458 -1.75755 0
M  V30 12112 C 1123.53 1.98124 -0.728693 0
M  V30 12113 O 1122.88 2.27155 0.247573 0
M  V30 12114 C 1123.09 1.37627 -3.20718 0
M  V30 12115 C 1124.44 1.82909 -3.83183 0
M  V30 12116 O 1125.46 1.47309 -3.24312 0
M  V30 12117 O 1124.32 2.4865 -4.86657 0
M  V30 12118 H 1121.42 0.407583 -0.719587 0
M  V30 12119 H 1123.96 0.104057 -1.69381 0
M  V30 12120 H 1122.74 0.570651 -3.87117 0
M  V30 12121 H 1122.36 2.19341 -3.31625 0
M  V30 12122 N 1123.36 1.52689 0.390367 0
M  V30 12123 C 1124.29 1.80338 1.48325 0
M  V30 12124 C 1125.27 0.655338 1.56969 0
M  V30 12125 O 1126.45 0.902792 1.7194 0
M  V30 12126 C 1123.58 1.97101 2.85952 0
M  V30 12127 C 1122.54 3.12783 2.92148 0
M  V30 12128 C 1121.86 3.14798 4.32211 0
M  V30 12129 C 1123.16 4.5188 2.61919 0
M  V30 12130 H 1124.86 2.71857 1.25437 0
M  V30 12131 H 1122.4 1.30813 0.601995 0
M  V30 12132 H 1124.36 2.15027 3.62411 0
M  V30 12133 H 1123.08 1.02271 3.10174 0
M  V30 12134 H 1121.74 2.94638 2.18137 0
M  V30 12135 H 1121.39 2.17653 4.53471 0
M  V30 12136 H 1121.09 3.92507 4.37278 0
M  V30 12137 H 1122.61 3.34877 5.10578 0
M  V30 12138 H 1124.02 4.70134 3.28096 0
M  V30 12139 H 1122.42 5.31647 2.78337 0
M  V30 12140 H 1123.49 4.58689 1.57266 0
M  V30 12141 N 1124.83 -0.648732 1.43629 0
M  V30 12142 C 1126.11 -1.4062 1.35961 0
M  V30 12143 C 1126.49 -2.11098 0.00961023 0
M  V30 12144 O 1125.84 -2.05107 -1.00714 0
M  V30 12145 C 1126.05 -2.38719 2.54586 0
M  V30 12146 C 1127.4 -3.02584 2.97873 0
M  V30 12147 O 1128.42 -2.49046 2.54665 0
M  V30 12148 O 1127.28 -3.99662 3.72736 0
M  V30 12149 H 1124.37 -0.628483 0.53753 0
M  V30 12150 H 1126.92 -0.675263 1.55687 0
M  V30 12151 H 1125.69 -1.85619 3.44472 0
M  V30 12152 H 1125.32 -3.19257 2.36983 0
M  V30 12153 N 1126.31 -1.30234 -0.887518 0
M  V30 12154 C 1127.56 -1.18277 -1.63381 0
M  V30 12155 C 1127.87 0.262079 -1.93836 0
M  V30 12156 O 1129.08 0.503127 -2.66797 0
M  V30 12157 C 1127.54 -2.06944 -2.94452 0
M  V30 12158 C 1127.14 -3.56323 -2.71547 0
M  V30 12159 C 1128.89 -2.03743 -3.7241 0
M  V30 12160 C 1126.8 -4.37054 -3.98419 0
M  V30 12161 H 1125.73 -0.439087 -0.612959 0
M  V30 12162 H 1128.38 -1.54964 -0.982779 0
M  V30 12163 H 1126.76 -1.63138 -3.60835 0
M  V30 12164 H 1127.93 -4.08261 -2.13681 0
M  V30 12165 H 1126.25 -3.61321 -2.06969 0
M  V30 12166 H 1128.84 -2.61312 -4.66497 0
M  V30 12167 H 1129.19 -1.02029 -4.03603 0
M  V30 12168 H 1129.72 -2.45657 -3.12886 0
M  V30 12169 H 1126.46 -5.39453 -3.72385 0
M  V30 12170 H 1125.98 -3.89881 -4.55799 0
M  V30 12171 H 1127.66 -4.48356 -4.66462 0
M  V30 12172 N 1127.79 1.09952 -1.12909 0
M  V30 12173 C 1129.21 1.34051 -0.866172 0
M  V30 12174 C 1129.41 1.95169 0.501125 0
M  V30 12175 O 1128.46 2.19458 1.24878 0
M  V30 12176 C 1129.78 2.25738 -1.98653 0
M  V30 12177 C 1131.32 2.39261 -2.01799 0
M  V30 12178 C 1131.8 3.3428 -3.13083 0
M  V30 12179 N 1133.29 3.41851 -3.12558 0
M  V30 12180 C 1134.02 4.15358 -3.95304 0
M  V30 12181 N 1133.52 4.91709 -4.88051 0
M  V30 12182 N 1135.31 4.11027 -3.83423 0
M  V30 12183 H 1127.46 0.686521 -2.00999 0
M  V30 12184 H 1129.73 0.364913 -0.874953 0
M  V30 12185 H 1129.43 1.88048 -2.97205 0
M  V30 12186 H 1129.31 3.26085 -1.89601 0
M  V30 12187 H 1131.69 2.76218 -1.03864 0
M  V30 12188 H 1131.78 1.38712 -2.14925 0
M  V30 12189 H 1131.42 2.98048 -4.11254 0
M  V30 12190 H 1131.35 4.34721 -2.97195 0
M  V30 12191 H 1133.84 2.87405 -2.45371 0
M  V30 12192 H 1134.15 5.45212 -5.47689 0
M  V30 12193 H 1132.5 4.90816 -4.92061 0
M  V30 12194 H 1135.69 3.50477 -3.10296 0
M  V30 12195 H 1135.86 4.68054 -4.4814 0
M  V30 12196 N 1129.27 0.921757 1.27833 0
M  V30 12197 C 1130.22 0.414838 2.27041 0
M  V30 12198 C 1131.19 -0.515045 1.57913 0
M  V30 12199 O 1132.37 -0.435499 1.85763 0
M  V30 12200 C 1129.51 -0.331744 3.43502 0
M  V30 12201 C 1128.62 0.631565 4.27358 0
M  V30 12202 C 1127.76 -0.134265 5.3103 0
M  V30 12203 C 1126.8 0.822138 6.06554 0
M  V30 12204 N 1125.93 0.0893149 7.02043 0
M  V30 12205 H 1130.77 1.26585 2.69778 0
M  V30 12206 H 1128.31 0.635488 1.32665 0
M  V30 12207 H 1130.27 -0.780866 4.09827 0
M  V30 12208 H 1128.9 -1.14704 3.01733 0
M  V30 12209 H 1127.95 1.19922 3.61003 0
M  V30 12210 H 1129.26 1.36274 4.79824 0
M  V30 12211 H 1128.42 -0.643579 6.03277 0
M  V30 12212 H 1127.16 -0.898443 4.79353 0
M  V30 12213 H 1126.16 1.34275 5.33151 0
M  V30 12214 H 1127.39 1.586 6.6032 0
M  V30 12215 H 1125.33 -0.656725 6.52704 0
M  V30 12216 H 1125.25 0.760167 7.52169 0
M  V30 12217 H 1126.52 -0.399541 7.78475 0
M  V30 12218 N 1130.75 -1.41857 0.686609 0
M  V30 12219 C 1132.16 -1.55549 0.357288 0
M  V30 12220 C 1132.36 -1.66394 -1.13646 0
M  V30 12221 O 1131.42 -1.63739 -1.92213 0
M  V30 12222 C 1132.73 -2.79938 1.09796 0
M  V30 12223 C 1134.28 -2.93724 1.08143 0
M  V30 12224 C 1134.75 -4.20989 1.80367 0
M  V30 12225 N 1136.25 -4.27927 1.77293 0
M  V30 12226 C 1136.98 -5.2524 2.30022 0
M  V30 12227 N 1136.48 -6.28636 2.91185 0
M  V30 12228 N 1138.27 -5.17118 2.20329 0
M  V30 12229 H 1130.42 -1.33063 1.65554 0
M  V30 12230 H 1132.68 -0.641335 0.698135 0
M  V30 12231 H 1132.39 -2.78104 2.15293 0
M  V30 12232 H 1132.26 -3.71188 0.670763 0
M  V30 12233 H 1134.65 -2.9508 0.0347554 0
M  V30 12234 H 1134.73 -2.03673 1.54761 0
M  V30 12235 H 1134.38 -4.20395 2.85009 0
M  V30 12236 H 1134.31 -5.09997 1.3119 0
M  V30 12237 H 1136.8 -3.53838 1.32692 0
M  V30 12238 H 1137.11 -6.99265 3.29011 0
M  V30 12239 H 1135.45 -6.29164 2.95259 0
M  V30 12240 H 1138.65 -4.35265 1.72226 0
M  V30 12241 H 1138.82 -5.92792 2.61728 0
M  V30 12242 N 1132.22 -0.430739 -1.51599 0
M  V30 12243 C 1133.47 0.137657 -2.01631 0
M  V30 12244 C 1133.79 1.43787 -1.31721 0
M  V30 12245 O 1133.06 1.90668 -0.449717 0
M  V30 12246 H 1131.64 0.0538611 -0.745056 0
M  V30 12247 H 1134.31 -0.571935 -1.86319 0
M  V30 12248 H 1133.4 0.318305 -3.10473 0
M  V30 12249 N 1133.7 1.56767 -0.161869 0
M  V30 12250 C 1135.11 1.83265 0.356466 0
M  V30 12251 C 1135.46 1.08127 1.63716 0
M  V30 12252 O 1134.59 0.33127 2.13849 0
M  V30 12253 C 1135.18 3.32437 0.653521 0
M  V30 12254 C 1133.74 3.59465 1.11633 0
M  V30 12255 C 1132.89 2.76909 0.147204 0
M  V30 12256 H 1135.84 1.53926 -0.386308 0
M  V30 12257 H 1135.86 3.49401 1.50662 0
M  V30 12258 H 1135.37 3.87098 -0.278766 0
M  V30 12259 H 1133.48 3.10206 2.06404 0
M  V30 12260 H 1133.59 4.67853 1.03202 0
M  V30 12261 H 1131.95 2.46457 0.642739 0
M  V30 12262 H 1132.74 3.34346 -0.778938 0
M  V30 12263 N 1135.18 -0.111886 1.57202 0
M  V30 12264 C 1136.43 -0.819623 1.85499 0
M  V30 12265 C 1136.76 -1.7919 0.748629 0
M  V30 12266 O 1136.03 -1.92952 -0.244918 0
M  V30 12267 C 1136.32 -1.56324 3.24399 0
M  V30 12268 C 1136.17 -0.610081 4.45643 0
M  V30 12269 C 1137.49 -2.51777 3.60966 0
M  V30 12270 H 1134.61 -0.296512 0.674722 0
M  V30 12271 H 1137.25 -0.0836741 1.89816 0
M  V30 12272 H 1135.4 -2.1906 3.2085 0
M  V30 12273 H 1137.07 0.00898038 4.61299 0
M  V30 12274 H 1135.32 0.0778488 4.3373 0
M  V30 12275 H 1135.99 -1.16718 5.39519 0
M  V30 12276 H 1138.46 -1.99143 3.65351 0
M  V30 12277 H 1137.34 -3.00835 4.59118 0
M  V30 12278 H 1137.6 -3.34769 2.8876 0
M  V30 12279 N 1136.66 -1.52894 -0.382264 0
M  V30 12280 C 1137.62 -1.77497 -1.45008 0
M  V30 12281 C 1138.62 -0.64509 -1.47293 0
M  V30 12282 O 1139.81 -0.913192 -1.48346 0
M  V30 12283 C 1136.94 -1.88188 -2.8425 0
M  V30 12284 H 1138.14 -2.72849 -1.24473 0
M  V30 12285 H 1135.69 -1.43717 -0.61441 0
M  V30 12286 H 1136.42 -0.948451 -3.10121 0
M  V30 12287 H 1136.21 -2.70353 -2.83992 0
M  V30 12288 H 1137.7 -2.08873 -3.6161 0
M  V30 12289 N 1138.14 0.641106 -1.43971 0
M  V30 12290 C 1139.37 1.42622 -1.49475 0
M  V30 12291 C 1139.78 1.8885 -0.115068 0
M  V30 12292 O 1139.12 1.60846 0.887378 0
M  V30 12293 C 1139.18 2.68643 -2.38896 0
M  V30 12294 C 1138.84 2.44276 -3.86236 0
M  V30 12295 C 1139.84 2.06732 -4.7703 0
M  V30 12296 C 1137.53 2.58225 -4.30842 0
M  V30 12297 C 1139.52 1.83451 -6.1043 0
M  V30 12298 C 1137.21 2.34559 -5.64292 0
M  V30 12299 C 1138.21 1.97229 -6.53903 0
M  V30 12300 O 1137.89 1.73819 -7.84884 0
M  V30 12301 H 1137.63 0.444187 -0.509582 0
M  V30 12302 H 1140.18 0.792179 -1.89509 0
M  V30 12303 H 1138.41 3.34649 -1.93771 0
M  V30 12304 H 1140.1 3.30623 -2.35464 0
M  V30 12305 H 1140.86 1.95521 -4.43843 0
M  V30 12306 H 1136.74 2.86253 -3.61359 0
M  V30 12307 H 1140.29 1.54238 -6.80335 0
M  V30 12308 H 1136.18 2.45376 -5.97043 0
M  V30 12309 H 1136.95 1.88146 -7.96582 0
M  V30 12310 N 1139.62 1.30703 0.880598 0
M  V30 12311 C 1140.58 1.17429 1.96832 0
M  V30 12312 C 1141.58 0.104305 1.60461 0
M  V30 12313 O 1142.77 0.352758 1.70591 0
M  V30 12314 C 1139.9 0.800099 3.31378 0
M  V30 12315 H 1141.09 2.14069 2.10034 0
M  V30 12316 H 1138.65 1.14162 1.06755 0
M  V30 12317 H 1139.38 -0.165606 3.23877 0
M  V30 12318 H 1139.17 1.57341 3.59146 0
M  V30 12319 H 1140.66 0.730826 4.11155 0
M  V30 12320 N 1141.09 -1.09351 1.1349 0
M  V30 12321 C 1142.32 -1.85844 0.92069 0
M  V30 12322 C 1142.74 -1.80616 -0.525303 0
M  V30 12323 O 1142.1 -1.1842 -1.37282 0
M  V30 12324 C 1142.15 -3.31716 1.4141 0
M  V30 12325 O 1141.25 -4.08014 0.599838 0
M  V30 12326 H 1140.59 -0.576242 0.32991 0
M  V30 12327 H 1143.12 -1.38084 1.50976 0
M  V30 12328 H 1143.13 -3.82564 1.41805 0
M  V30 12329 H 1141.81 -3.34837 2.46692 0
M  V30 12330 H 1140.39 -3.66944 0.663816 0
M  V30 12331 N 1142.57 -0.928524 -1.27343 0
M  V30 12332 C 1143.5 -0.385563 -2.25934 0
M  V30 12333 C 1144.52 0.484178 -1.55433 0
M  V30 12334 O 1145.71 0.296668 -1.76017 0
M  V30 12335 C 1142.81 0.466116 -3.35679 0
M  V30 12336 C 1141.98 -0.384523 -4.35707 0
M  V30 12337 C 1141.04 0.404644 -5.24642 0
M  V30 12338 O 1140.06 -0.187943 -5.6889 0
M  V30 12339 N 1141.27 1.70426 -5.54919 0
M  V30 12340 H 1144.03 -1.23306 -2.73159 0
M  V30 12341 H 1141.59 -0.796039 -1.40978 0
M  V30 12342 H 1143.58 1.00115 -3.92121 0
M  V30 12343 H 1142.15 1.21437 -2.88048 0
M  V30 12344 H 1141.37 -1.10085 -3.78517 0
M  V30 12345 H 1142.66 -0.966033 -4.99545 0
M  V30 12346 H 1142.06 2.20802 -5.20829 0
M  V30 12347 H 1140.62 2.1858 -6.14057 0
M  V30 12348 N 1144.05 1.41491 -0.694123 0
M  V30 12349 C 1145 2.30783 -0.0278824 0
M  V30 12350 C 1145.97 1.47028 0.772783 0
M  V30 12351 O 1147.15 1.75819 0.74111 0
M  V30 12352 C 1144.29 3.33061 0.903579 0
M  V30 12353 C 1143.4 4.31896 0.0946823 0
M  V30 12354 C 1142.54 5.21243 1.02365 0
M  V30 12355 C 1141.58 6.11748 0.207578 0
M  V30 12356 N 1140.72 6.93583 1.09028 0
M  V30 12357 H 1145.56 2.87197 -0.795092 0
M  V30 12358 H 1143.09 1.41449 -0.403806 0
M  V30 12359 H 1145.05 3.90907 1.45765 0
M  V30 12360 H 1143.68 2.782 1.6372 0
M  V30 12361 H 1142.73 3.76009 -0.576289 0
M  V30 12362 H 1144.04 4.95889 -0.538059 0
M  V30 12363 H 1143.2 5.83917 1.647 0
M  V30 12364 H 1141.94 4.57473 1.69025 0
M  V30 12365 H 1140.94 5.48125 -0.428854 0
M  V30 12366 H 1142.17 6.77573 -0.455206 0
M  V30 12367 H 1140.11 6.32422 1.74292 0
M  V30 12368 H 1140.03 7.54257 0.513073 0
M  V30 12369 H 1141.3 7.60726 1.70048 0
M  V30 12370 N 1145.53 0.438773 1.51369 0
M  V30 12371 C 1146.94 -0.0240139 1.86685 0
M  V30 12372 C 1147.29 -1.41816 1.35583 0
M  V30 12373 O 1146.41 -2.04517 0.707232 0
M  V30 12374 C 1147.01 -0.0503527 3.38763 0
M  V30 12375 C 1145.57 -0.457556 3.73609 0
M  V30 12376 C 1144.72 0.348852 2.75097 0
M  V30 12377 H 1147.67 0.654552 1.44573 0
M  V30 12378 H 1147.69 -0.859534 3.70665 0
M  V30 12379 H 1147.2 0.964451 3.75925 0
M  V30 12380 H 1145.3 -1.47791 3.42036 0
M  V30 12381 H 1145.41 -0.181357 4.78757 0
M  V30 12382 H 1143.78 -0.193037 2.53967 0
M  V30 12383 H 1144.56 1.36256 3.15102 0
M  V30 12384 N 1147.01 -1.56678 0.170181 0
M  V30 12385 C 1148.25 -1.97913 -0.469262 0
M  V30 12386 C 1148.61 -1.05438 -1.60936 0
M  V30 12387 O 1147.9 -0.0938273 -1.9137 0
M  V30 12388 C 1148.09 -3.43103 -1.00076 0
M  V30 12389 C 1147.92 -4.49617 0.0863088 0
M  V30 12390 C 1146.69 -5.02454 0.535589 0
M  V30 12391 C 1148.89 -5.06606 0.886289 0
M  V30 12392 N 1146.87 -5.926 1.60308 0
M  V30 12393 C 1148.24 -5.93182 1.80374 0
M  V30 12394 C 1150.3 -4.89109 0.931495 0
M  V30 12395 C 1149 -6.64134 2.76257 0
M  V30 12396 C 1151.03 -5.60781 1.87827 0
M  V30 12397 C 1150.39 -6.47084 2.78319 0
M  V30 12398 H 1146.49 -0.769393 -0.139852 0
M  V30 12399 H 1149.07 -1.92817 0.270136 0
M  V30 12400 H 1147.24 -3.48747 -1.70968 0
M  V30 12401 H 1148.98 -3.71351 -1.60874 0
M  V30 12402 H 1145.73 -4.73412 0.133508 0
M  V30 12403 H 1146.15 -6.42378 2.13729 0
M  V30 12404 H 1150.8 -4.22084 0.245904 0
M  V30 12405 H 1148.51 -7.30373 3.45805 0
M  V30 12406 H 1152.1 -5.49229 1.91934 0
M  V30 12407 H 1150.98 -7.01569 3.50386 0
M  V30 12408 N 1148.48 0.103547 -1.57259 0
M  V30 12409 C 1149.41 1.12714 -2.04494 0
M  V30 12410 C 1150.39 1.42278 -0.932255 0
M  V30 12411 O 1151.58 1.52453 -1.20298 0
M  V30 12412 C 1148.71 2.44927 -2.46228 0
M  V30 12413 C 1147.66 2.2979 -3.61082 0
M  V30 12414 C 1146.99 3.67105 -3.88765 0
M  V30 12415 C 1148.29 1.7455 -4.9227 0
M  V30 12416 H 1149.98 0.734198 -2.90258 0
M  V30 12417 H 1147.53 0.351725 -1.39638 0
M  V30 12418 H 1149.48 3.16798 -2.77879 0
M  V30 12419 H 1148.21 2.8614 -1.57453 0
M  V30 12420 H 1146.87 1.60366 -3.29664 0
M  V30 12421 H 1146.51 4.05831 -2.97171 0
M  V30 12422 H 1146.21 3.57825 -4.66084 0
M  V30 12423 H 1147.74 4.40456 -4.22884 0
M  V30 12424 H 1149.15 2.36253 -5.22358 0
M  V30 12425 H 1147.55 1.76051 -5.73695 0
M  V30 12426 H 1148.62 0.704242 -4.79759 0
M  V30 12427 N 1149.96 1.53094 0.37415 0
M  V30 12428 C 1150.89 1.81901 1.46404 0
M  V30 12429 C 1151.87 0.671949 1.56265 0
M  V30 12430 O 1153.06 0.920978 1.70973 0
M  V30 12431 C 1150.19 2.00123 2.83845 0
M  V30 12432 C 1149.14 3.15864 2.88814 0
M  V30 12433 C 1148.47 3.19364 4.28848 0
M  V30 12434 C 1149.77 4.54633 2.57112 0
M  V30 12435 H 1151.46 2.73172 1.22546 0
M  V30 12436 H 1149.01 1.31444 0.588087 0
M  V30 12437 H 1150.96 2.18859 3.6011 0
M  V30 12438 H 1149.68 1.05555 3.09072 0
M  V30 12439 H 1148.34 2.96935 2.15 0
M  V30 12440 H 1147.99 2.2245 4.51137 0
M  V30 12441 H 1147.69 3.97123 4.3309 0
M  V30 12442 H 1149.22 3.40273 5.06997 0
M  V30 12443 H 1150.63 4.73587 3.23091 0
M  V30 12444 H 1149.03 5.34569 2.72683 0
M  V30 12445 H 1150.1 4.60331 1.52392 0
M  V30 12446 N 1151.44 -0.633461 1.44309 0
M  V30 12447 C 1152.39 -1.76674 1.51292 0
M  V30 12448 C 1153.38 -1.64972 0.384807 0
M  V30 12449 O 1154.59 -1.71079 0.559653 0
M  V30 12450 H 1150.96 -0.583238 0.474697 0
M  V30 12451 H 1152.93 -1.67907 2.46678 0
M  V30 12452 C 1151.68 -3.15002 1.47205 0
M  V30 12453 H 1151.01 -3.24653 2.33325 0
M  V30 12454 H 1152.45 -3.94199 1.56151 0
M  V30 12455 C 1150.9 -3.3635 0.192464 0
M  V30 12456 O 1151.43 -3.94857 -0.738285 0
M  V30 12457 N 1149.64 -2.9044 0.0963424 0
M  V30 12458 H 1149.19 -2.43011 0.85459 0
M  V30 12459 H 1149.15 -3.05099 -0.759061 0
M  V30 12460 N 1152.92 -1.31168 -0.873655 0
M  V30 12461 C 1153.88 -1.18471 -1.96207 0
M  V30 12462 C 1154.88 -0.112814 -1.60404 0
M  V30 12463 O 1156.07 -0.3618 -1.70401 0
M  V30 12464 C 1153.2 -0.817662 -3.30949 0
M  V30 12465 H 1154.4 -2.1518 -2.08896 0
M  V30 12466 H 1151.95 -1.14727 -1.06149 0
M  V30 12467 H 1152.68 0.148428 -3.2396 0
M  V30 12468 H 1152.47 -1.59244 -3.58307 0
M  V30 12469 H 1153.96 -0.75262 -4.10762 0
M  V30 12470 N 1154.4 1.08748 -1.14068 0
M  V30 12471 C 1155.62 1.84814 -0.930138 0
M  V30 12472 C 1156.04 1.81461 0.521267 0
M  V30 12473 O 1155.4 1.21577 1.36108 0
M  V30 12474 C 1155.45 3.32501 -1.41863 0
M  V30 12475 O 1155.17 3.35846 -2.81317 0
M  V30 12476 C 1156.67 4.25384 -1.24753 0
M  V30 12477 H 1153.89 0.583546 -0.331233 0
M  V30 12478 H 1156.43 1.37366 -1.51495 0
M  V30 12479 H 1154.59 3.7735 -0.876664 0
M  V30 12480 H 1155 4.28013 -3.03159 0
M  V30 12481 H 1156.48 5.27138 -1.63798 0
M  V30 12482 H 1156.95 4.38789 -0.18999 0
M  V30 12483 H 1157.56 3.86357 -1.77787 0
M  V30 12484 N 1155.87 0.935264 1.26849 0
M  V30 12485 C 1157.12 0.580548 1.94313 0
M  V30 12486 C 1157.45 -0.877205 1.73259 0
M  V30 12487 O 1156.73 -1.62679 1.06611 0
M  V30 12488 C 1157.01 0.916445 3.48243 0
M  V30 12489 C 1156.86 2.42851 3.78607 0
M  V30 12490 C 1158.18 0.427665 4.38017 0
M  V30 12491 H 1155.3 0.21239 0.705733 0
M  V30 12492 H 1157.94 1.16841 1.49827 0
M  V30 12493 H 1156.09 0.416169 3.86265 0
M  V30 12494 H 1157.77 3.00106 3.50335 0
M  V30 12495 H 1156.01 2.8745 3.24892 0
M  V30 12496 H 1156.68 2.61405 4.8618 0
M  V30 12497 H 1159.16 0.856525 4.07189 0
M  V30 12498 H 1158.03 0.691571 5.44526 0
M  V30 12499 H 1158.29 -0.672344 4.36958 0
M  V30 12500 N 1157.35 -1.41121 0.701616 0
M  V30 12501 C 1158.26 -2.34565 0.0407815 0
M  V30 12502 C 1159.28 -1.56555 -0.75937 0
M  V30 12503 O 1160.45 -1.89008 -0.695542 0
M  V30 12504 C 1157.52 -3.35347 -0.879954 0
M  V30 12505 C 1156.58 -4.29241 -0.0713279 0
M  V30 12506 C 1155.81 -5.25209 -0.948211 0
M  V30 12507 O 1156.04 -5.26781 -2.18766 0
M  V30 12508 O 1154.97 -6.00605 -0.394657 0
M  V30 12509 H 1158.8 -2.92666 0.811188 0
M  V30 12510 H 1156.38 -1.42077 0.461991 0
M  V30 12511 H 1158.26 -3.9719 -1.40776 0
M  V30 12512 H 1156.94 -2.7968 -1.62975 0
M  V30 12513 H 1155.85 -3.70727 0.50122 0
M  V30 12514 H 1157.18 -4.88022 0.639935 0
M  V30 12515 N 1158.83 -0.446794 -1.51134 0
M  V30 12516 C 1159.74 0.36579 -2.31731 0
M  V30 12517 C 1160.76 1.01886 -1.41051 0
M  V30 12518 O 1161.93 1.01216 -1.74119 0
M  V30 12519 C 1159 1.44705 -3.15058 0
M  V30 12520 C 1158.06 0.813129 -4.21529 0
M  V30 12521 C 1157.29 1.84287 -5.00873 0
M  V30 12522 O 1157.51 3.06633 -4.8097 0
M  V30 12523 O 1156.45 1.42816 -5.84711 0
M  V30 12524 H 1160.27 -0.292436 -3.02289 0
M  V30 12525 H 1157.86 -0.209129 -1.47929 0
M  V30 12526 H 1159.74 2.07393 -3.66833 0
M  V30 12527 H 1158.42 2.08919 -2.47254 0
M  V30 12528 H 1157.32 0.147953 -3.73807 0
M  V30 12529 H 1158.66 0.214331 -4.91733 0
M  V30 12530 N 1160.31 1.56586 -0.178487 0
M  V30 12531 C 1161.26 2.19631 0.765822 0
M  V30 12532 C 1162.25 1.16247 1.23219 0
M  V30 12533 O 1163.46 1.34431 1.19701 0
M  V30 12534 H 1159.83 0.703661 0.265264 0
M  V30 12535 H 1161.8 2.97659 0.210207 0
M  V30 12536 C 1160.55 2.85686 1.98188 0
M  V30 12537 H 1159.87 3.64971 1.63206 0
M  V30 12538 H 1161.31 3.33259 2.62134 0
M  V30 12539 C 1159.77 1.85837 2.81009 0
M  V30 12540 O 1160.3 1.3483 3.78396 0
M  V30 12541 N 1158.51 1.54435 2.46167 0
M  V30 12542 H 1158.06 1.96107 1.67032 0
M  V30 12543 H 1158.01 0.878808 3.01868 0
M  V30 12544 N 1161.79 -0.095206 1.57312 0
M  V30 12545 C 1163.04 -0.797417 1.85268 0
M  V30 12546 C 1163.35 -1.79903 0.767733 0
M  V30 12547 O 1164.55 -2.54914 0.934409 0
M  V30 12548 C 1163.01 -1.469 3.28555 0
M  V30 12549 C 1162.62 -0.507152 4.4512 0
M  V30 12550 C 1164.36 -2.15494 3.65735 0
M  V30 12551 C 1162.27 -1.18331 5.79441 0
M  V30 12552 H 1161.2 -0.301552 0.691074 0
M  V30 12553 H 1163.85 -0.0503584 1.83431 0
M  V30 12554 H 1162.23 -2.26351 3.24933 0
M  V30 12555 H 1163.41 0.255858 4.60089 0
M  V30 12556 H 1161.72 0.0730882 4.16336 0
M  V30 12557 H 1164.32 -2.66816 4.63371 0
M  V30 12558 H 1164.66 -2.94383 2.94354 0
M  V30 12559 H 1165.19 -1.42903 3.71246 0
M  V30 12560 H 1161.93 -0.435238 6.54053 0
M  V30 12561 H 1161.45 -1.91775 5.68315 0
M  V30 12562 H 1163.13 -1.70983 6.23998 0
M  V30 12563 N 1163.26 -1.53291 -0.366026 0
M  V30 12564 C 1164.51 -1.68671 -1.10602 0
M  V30 12565 C 1164.83 -0.444793 -1.90476 0
M  V30 12566 O 1166.03 -0.479135 -2.67239 0
M  V30 12567 C 1164.49 -2.98174 -2.01545 0
M  V30 12568 C 1164.1 -4.29626 -1.26986 0
M  V30 12569 C 1165.84 -3.22921 -2.7554 0
M  V30 12570 C 1163.75 -5.50218 -2.16828 0
M  V30 12571 H 1162.68 -0.628456 -0.416604 0
M  V30 12572 H 1165.33 -1.79791 -0.367058 0
M  V30 12573 H 1163.71 -2.80855 -2.79171 0
M  V30 12574 H 1164.88 -4.57574 -0.544269 0
M  V30 12575 H 1163.2 -4.11318 -0.648558 0
M  V30 12576 H 1165.8 -4.10202 -3.42985 0
M  V30 12577 H 1166.14 -2.38964 -3.40884 0
M  V30 12578 H 1166.67 -3.40912 -2.04997 0
M  V30 12579 H 1163.41 -6.36651 -1.56063 0
M  V30 12580 H 1162.93 -5.26549 -2.87238 0
M  V30 12581 H 1164.61 -5.84991 -2.76396 0
M  V30 12582 N 1164.74 0.6258 -1.44643 0
M  V30 12583 C 1165.99 1.38525 -1.47706 0
M  V30 12584 C 1166.32 1.94179 -0.111703 0
M  V30 12585 O 1165.57 1.74432 0.887237 0
M  V30 12586 C 1165.87 2.56466 -2.48917 0
M  V30 12587 C 1165.54 2.19069 -3.94106 0
M  V30 12588 C 1164.2 2.08583 -4.33643 0
M  V30 12589 C 1166.55 1.89608 -4.85488 0
M  V30 12590 C 1163.88 1.66831 -5.6248 0
M  V30 12591 C 1166.23 1.49347 -6.14718 0
M  V30 12592 C 1164.9 1.37406 -6.53204 0
M  V30 12593 H 1164.17 0.506899 -0.540494 0
M  V30 12594 H 1166.81 0.709128 -1.77887 0
M  V30 12595 H 1165.12 3.29335 -2.12239 0
M  V30 12596 H 1166.81 3.14695 -2.48532 0
M  V30 12597 H 1163.4 2.28151 -3.62829 0
M  V30 12598 H 1167.59 1.96616 -4.55693 0
M  V30 12599 H 1162.84 1.56195 -5.91112 0
M  V30 12600 H 1167.02 1.2559 -6.84982 0
M  V30 12601 H 1164.65 1.04826 -7.52938 0
M  V30 12602 N 1166.22 1.31629 0.866686 0
M  V30 12603 C 1167.13 1.21524 2.00671 0
M  V30 12604 C 1168.15 0.131277 1.73504 0
M  V30 12605 O 1169.32 0.349699 1.98341 0
M  V30 12606 C 1166.39 0.926491 3.34091 0
M  V30 12607 C 1165.45 2.09769 3.7456 0
M  V30 12608 C 1164.68 1.82262 5.01614 0
M  V30 12609 O 1164.9 0.759329 5.65323 0
M  V30 12610 O 1163.84 2.68031 5.38928 0
M  V30 12611 H 1167.66 2.17335 2.1213 0
M  V30 12612 H 1165.25 1.11401 0.995499 0
M  V30 12613 H 1167.13 0.78144 4.14091 0
M  V30 12614 H 1165.81 -0.00155829 3.237 0
M  V30 12615 H 1164.71 2.29816 2.95187 0
M  V30 12616 H 1166.05 3.0081 3.89582 0
M  V30 12617 N 1167.7 -1.08142 1.14644 0
M  V30 12618 C 1168.92 -1.84857 0.940349 0
M  V30 12619 C 1169.35 -1.81163 -0.506117 0
M  V30 12620 O 1168.71 -1.19869 -1.36019 0
M  V30 12621 C 1168.76 -3.30198 1.4492 0
M  V30 12622 O 1167.86 -4.07355 0.64308 0
M  V30 12623 H 1167.2 -0.572711 0.336003 0
M  V30 12624 H 1169.73 -1.36475 1.52432 0
M  V30 12625 H 1169.74 -3.81039 1.45854 0
M  V30 12626 H 1168.42 -3.32202 2.50229 0
M  V30 12627 H 1166.99 -3.66219 0.702698 0
M  V30 12628 N 1169.18 -0.941978 -1.26351 0
M  V30 12629 C 1170.59 -0.632522 -1.75659 0
M  V30 12630 C 1170.94 0.852287 -1.76722 0
M  V30 12631 O 1170.06 1.66701 -1.37985 0
M  V30 12632 C 1170.66 -1.14145 -3.18993 0
M  V30 12633 C 1169.22 -0.882391 -3.65911 0
M  V30 12634 C 1168.37 -1.29189 -2.45368 0
M  V30 12635 H 1171.32 -1.12019 -1.12416 0
M  V30 12636 H 1171.34 -0.495639 -3.77258 0
M  V30 12637 H 1170.85 -2.22213 -3.18187 0
M  V30 12638 H 1168.95 0.183873 -3.72146 0
M  V30 12639 H 1169.06 -1.50996 -4.54683 0
M  V30 12640 H 1167.43 -0.710316 -2.44595 0
M  V30 12641 H 1168.21 -2.38152 -2.47262 0
M  V30 12642 N 1170.66 1.40747 -0.709091 0
M  V30 12643 C 1171.9 2.01003 -0.24581 0
M  V30 12644 C 1172.23 1.56203 1.15891 0
M  V30 12645 O 1171.49 0.770166 1.79908 0
M  V30 12646 C 1171.78 3.56404 -0.266685 0
M  V30 12647 C 1171.45 4.20762 -1.6208 0
M  V30 12648 C 1170.11 4.38056 -1.99148 0
M  V30 12649 C 1172.46 4.56723 -2.51105 0
M  V30 12650 C 1169.79 4.88591 -3.248 0
M  V30 12651 C 1172.14 5.08654 -3.76103 0
M  V30 12652 C 1170.81 5.24158 -4.13297 0
M  V30 12653 H 1170.08 0.73552 -0.0899481 0
M  V30 12654 H 1172.73 1.68451 -0.910844 0
M  V30 12655 H 1171.03 3.88825 0.481915 0
M  V30 12656 H 1172.73 4.0085 0.109509 0
M  V30 12657 H 1169.32 4.07685 -1.32252 0
M  V30 12658 H 1173.5 4.43004 -2.23744 0
M  V30 12659 H 1168.76 4.98779 -3.53595 0
M  V30 12660 H 1172.93 5.35457 -4.45262 0
M  V30 12661 H 1170.56 5.63079 -5.10731 0
M  V30 12662 N 1172.13 0.454803 1.50895 0
M  V30 12663 C 1173.08 -0.361974 2.29766 0
M  V30 12664 C 1174.08 -1.00519 1.36353 0
M  V30 12665 O 1175.28 -0.938159 1.53618 0
M  V30 12666 H 1171.66 -0.135559 0.739681 0
M  V30 12667 H 1173.63 0.323853 2.96637 0
M  V30 12668 C 1172.38 -1.44078 3.16444 0
M  V30 12669 H 1171.7 -0.955212 3.88221 0
M  V30 12670 H 1173.14 -1.98518 3.74655 0
M  V30 12671 C 1171.6 -2.43374 2.32961 0
M  V30 12672 O 1172.13 -3.48295 2.00133 0
M  V30 12673 N 1170.33 -2.14689 1.95849 0
M  V30 12674 H 1169.88 -1.29392 2.22745 0
M  V30 12675 H 1169.84 -2.81363 1.40292 0
M  V30 12676 N 1173.61 -1.56489 0.186789 0
M  V30 12677 C 1174.56 -2.18703 -0.737402 0
M  V30 12678 C 1175.53 -1.13171 -1.21579 0
M  V30 12679 O 1176.71 -1.41388 -1.28118 0
M  V30 12680 C 1173.85 -2.84394 -1.95484 0
M  V30 12681 C 1172.97 -4.04429 -1.51859 0
M  V30 12682 C 1172.1 -4.58001 -2.69089 0
M  V30 12683 C 1171.14 -5.70412 -2.22029 0
M  V30 12684 N 1170.28 -6.18425 -3.32407 0
M  V30 12685 H 1175.12 -2.97327 -0.200105 0
M  V30 12686 H 1172.65 -1.46842 -0.087032 0
M  V30 12687 H 1174.61 -3.20646 -2.66912 0
M  V30 12688 H 1173.24 -2.08347 -2.46559 0
M  V30 12689 H 1172.29 -3.73895 -0.70048 0
M  V30 12690 H 1173.61 -4.85756 -1.13327 0
M  V30 12691 H 1172.76 -4.96515 -3.48652 0
M  V30 12692 H 1171.5 -3.75764 -3.1089 0
M  V30 12693 H 1170.5 -5.31434 -1.40918 0
M  V30 12694 H 1171.73 -6.54461 -1.81268 0
M  V30 12695 H 1169.68 -5.39113 -3.73755 0
M  V30 12696 H 1169.59 -6.94782 -2.98017 0
M  V30 12697 H 1170.86 -6.61592 -4.12209 0
M  V30 12698 N 1175.09 0.086862 -1.5736 0
M  V30 12699 C 1176.02 1.13117 -1.99342 0
M  V30 12700 C 1177.03 1.35849 -0.897151 0
M  V30 12701 O 1178.22 1.34356 -1.17519 0
M  V30 12702 C 1175.32 2.48511 -2.30425 0
M  V30 12703 C 1174.5 2.45942 -3.61706 0
M  V30 12704 C 1173.56 3.63327 -3.80631 0
M  V30 12705 O 1172.58 3.45443 -4.52392 0
M  V30 12706 N 1173.78 4.83118 -3.21835 0
M  V30 12707 H 1176.55 0.773782 -2.89539 0
M  V30 12708 H 1174.11 0.275731 -1.59535 0
M  V30 12709 H 1176.1 3.25656 -2.40272 0
M  V30 12710 H 1174.67 2.76308 -1.46194 0
M  V30 12711 H 1173.89 1.54287 -3.62752 0
M  V30 12712 H 1175.18 2.41313 -4.47935 0
M  V30 12713 H 1174.58 5.00552 -2.6356 0
M  V30 12714 H 1173.13 5.57827 -3.37154 0
M  V30 12715 N 1176.57 1.53483 0.357892 0
M  V30 12716 C 1177.98 1.43426 0.700073 0
M  V30 12717 C 1178.18 0.579493 1.92987 0
M  V30 12718 O 1177.24 0.0649086 2.52417 0
M  V30 12719 C 1178.55 2.86723 0.906099 0
M  V30 12720 C 1180.1 2.96405 1.00563 0
M  V30 12721 C 1180.58 4.4078 1.24407 0
M  V30 12722 N 1182.07 4.44243 1.3116 0
M  V30 12723 C 1182.8 5.53069 1.51333 0
M  V30 12724 N 1182.3 6.71928 1.68774 0
M  V30 12725 N 1184.09 5.40659 1.53765 0
M  V30 12726 H 1176.24 2.07559 -0.450894 0
M  V30 12727 H 1178.5 0.937649 -0.139711 0
M  V30 12728 H 1178.21 3.51622 0.0741579 0
M  V30 12729 H 1178.08 3.30827 1.81199 0
M  V30 12730 H 1180.47 2.31656 1.8281 0
M  V30 12731 H 1180.55 2.55684 0.0769512 0
M  V30 12732 H 1180.2 5.06105 0.426575 0
M  V30 12733 H 1180.13 4.7908 2.18608 0
M  V30 12734 H 1182.62 3.58587 1.19265 0
M  V30 12735 H 1182.93 7.50634 1.83762 0
M  V30 12736 H 1181.28 6.749 1.65937 0
M  V30 12737 H 1184.47 4.46764 1.39713 0
M  V30 12738 H 1184.64 6.25535 1.69146 0
M  V30 12739 N 1178.05 -0.61812 1.44973 0
M  V30 12740 C 1179.28 -1.40225 1.51725 0
M  V30 12741 C 1179.68 -1.88643 0.145098 0
M  V30 12742 O 1179.03 -1.62237 -0.861677 0
M  V30 12743 C 1179.09 -2.64808 2.4314 0
M  V30 12744 C 1178.75 -2.381 3.90073 0
M  V30 12745 C 1179.75 -1.99116 4.80259 0
M  V30 12746 C 1177.43 -2.51338 4.34896 0
M  V30 12747 C 1179.43 -1.73716 6.13271 0
M  V30 12748 C 1177.12 -2.25552 5.67952 0
M  V30 12749 C 1178.11 -1.86801 6.56958 0
M  V30 12750 O 1177.8 -1.6131 7.8755 0
M  V30 12751 H 1177.53 -0.436024 0.516584 0
M  V30 12752 H 1180.09 -0.761929 1.90745 0
M  V30 12753 H 1178.32 -3.31524 1.9907 0
M  V30 12754 H 1180.01 -3.26835 2.40694 0
M  V30 12755 H 1180.77 -1.88435 4.46897 0
M  V30 12756 H 1176.65 -2.80468 3.65867 0
M  V30 12757 H 1180.2 -1.43395 6.82703 0
M  V30 12758 H 1176.09 -2.35847 6.00872 0
M  V30 12759 H 1176.86 -1.75449 7.99475 0
M  V30 12760 N 1179.52 -1.32087 -0.859693 0
M  V30 12761 C 1180.47 -1.20601 -1.96784 0
M  V30 12762 C 1181.44 -0.089355 -1.65859 0
M  V30 12763 O 1182.63 -0.264022 -1.88964 0
M  V30 12764 C 1179.77 -0.929872 -3.32336 0
M  V30 12765 C 1178.88 -2.13084 -3.75791 0
M  V30 12766 C 1178.01 -1.79061 -5.00111 0
M  V30 12767 C 1177.05 -2.95507 -5.36043 0
M  V30 12768 N 1176.19 -2.61611 -6.5154 0
M  V30 12769 H 1181.03 -2.1539 -2.0594 0
M  V30 12770 H 1178.57 -1.07131 -1.00803 0
M  V30 12771 H 1180.52 -0.750285 -4.10398 0
M  V30 12772 H 1179.15 -0.0187929 -3.22795 0
M  V30 12773 H 1178.21 -2.42086 -2.93425 0
M  V30 12774 H 1179.52 -3.00205 -3.98344 0
M  V30 12775 H 1178.67 -1.57625 -5.85866 0
M  V30 12776 H 1177.41 -0.891459 -4.79483 0
M  V30 12777 H 1176.42 -3.17581 -4.48801 0
M  V30 12778 H 1177.64 -3.86147 -5.5863 0
M  V30 12779 H 1175.59 -1.74231 -6.32439 0
M  V30 12780 H 1175.5 -3.42262 -6.74087 0
M  V30 12781 H 1176.77 -2.43592 -7.40461 0
M  V30 12782 N 1181 1.07532 -1.15215 0
M  V30 12783 C 1181.93 2.1406 -0.7908 0
M  V30 12784 C 1182.91 1.60938 0.231922 0
M  V30 12785 O 1184.1 1.88125 0.118906 0
M  V30 12786 C 1181.22 3.38244 -0.175633 0
M  V30 12787 C 1180.27 4.10139 -1.16996 0
M  V30 12788 S 1181.1 4.61795 -2.71119 0
M  V30 12789 C 1182.26 5.89256 -2.11016 0
M  V30 12790 H 1182.49 2.44381 -1.69308 0
M  V30 12791 H 1180.02 1.19777 -0.974308 0
M  V30 12792 H 1181.98 4.10136 0.172859 0
M  V30 12793 H 1180.64 3.06104 0.704211 0
M  V30 12794 H 1179.84 4.99286 -0.687714 0
M  V30 12795 H 1179.44 3.44203 -1.46289 0
M  V30 12796 H 1181.73 6.61336 -1.47109 0
M  V30 12797 H 1182.67 6.42191 -2.98322 0
M  V30 12798 H 1183.08 5.4269 -1.55394 0
M  V30 12799 N 1182.48 0.948665 1.2585 0
M  V30 12800 C 1183.73 0.601125 1.93686 0
M  V30 12801 C 1184.06 -0.858779 1.7418 0
M  V30 12802 O 1183.33 -1.61539 1.0833 0
M  V30 12803 C 1183.62 0.95333 3.47252 0
M  V30 12804 C 1183.47 2.46853 3.7601 0
M  V30 12805 C 1184.79 0.474098 4.37539 0
M  V30 12806 H 1181.91 0.219864 0.703441 0
M  V30 12807 H 1184.55 1.18424 1.48579 0
M  V30 12808 H 1182.7 0.457114 3.85801 0
M  V30 12809 H 1184.37 3.03804 3.47132 0
M  V30 12810 H 1182.62 2.9088 3.21825 0
M  V30 12811 H 1183.29 2.66547 4.83381 0
M  V30 12812 H 1185.76 0.899664 4.06258 0
M  V30 12813 H 1184.64 0.749287 5.43762 0
M  V30 12814 H 1184.9 -0.625961 4.37646 0
M  V30 12815 N 1183.96 -1.40369 0.716545 0
M  V30 12816 C 1185.21 -2.00101 0.253452 0
M  V30 12817 C 1185.52 -1.57471 -1.16027 0
M  V30 12818 O 1186.73 -2.09909 -1.72193 0
M  V30 12819 C 1185.18 -3.57645 0.402213 0
M  V30 12820 C 1184.79 -4.09248 1.82264 0
M  V30 12821 C 1186.53 -4.245 -3.88526e-05 0
M  V30 12822 C 1184.44 -5.59299 1.92193 0
M  V30 12823 H 1183.37 -0.748488 0.0910047 0
M  V30 12824 H 1186.02 -1.60595 0.887772 0
M  V30 12825 H 1184.4 -3.94857 -0.300706 0
M  V30 12826 H 1185.58 -3.83412 2.55601 0
M  V30 12827 H 1183.89 -3.54993 2.17644 0
M  V30 12828 H 1186.49 -5.34673 0.0534202 0
M  V30 12829 H 1186.83 -4.03046 -1.04208 0
M  V30 12830 H 1187.37 -3.92398 0.65336 0
M  V30 12831 H 1184.11 -5.85608 2.94522 0
M  V30 12832 H 1183.63 -5.86997 1.23268 0
M  V30 12833 H 1185.3 -6.24416 1.6945 0
M  V30 12834 N 1185.44 -0.462799 -1.50652 0
M  V30 12835 C 1186.35 0.341191 -2.32106 0
M  V30 12836 C 1187.36 1.00384 -1.42123 0
M  V30 12837 O 1188.54 0.993635 -1.75182 0
M  V30 12838 C 1185.6 1.41356 -3.16575 0
M  V30 12839 C 1184.66 0.768375 -4.22368 0
M  V30 12840 C 1183.9 1.78964 -5.028 0
M  V30 12841 O 1184.12 3.01515 -4.84195 0
M  V30 12842 O 1183.05 1.36606 -5.86193 0
M  V30 12843 H 1186.88 -0.324482 -3.01962 0
M  V30 12844 H 1184.47 -0.224807 -1.47699 0
M  V30 12845 H 1186.35 2.0349 -3.69012 0
M  V30 12846 H 1185.02 2.06285 -2.49456 0
M  V30 12847 H 1183.93 0.108297 -3.73943 0
M  V30 12848 H 1185.26 0.162164 -4.91933 0
M  V30 12849 N 1186.91 1.56388 -0.195085 0
M  V30 12850 C 1187.88 2.17859 0.712053 0
M  V30 12851 C 1188.88 1.13304 1.141 0
M  V30 12852 O 1190.07 1.38689 1.05409 0
M  V30 12853 C 1187.2 2.78065 1.97213 0
M  V30 12854 H 1188.39 2.9938 0.176529 0
M  V30 12855 H 1185.95 1.56205 0.0545322 0
M  V30 12856 H 1186.68 2.00342 2.55017 0
M  V30 12857 H 1186.47 3.54603 1.67329 0
M  V30 12858 H 1187.96 3.25266 2.619 0
M  V30 12859 N 1188.39 -0.0785156 1.57404 0
M  V30 12860 C 1189.63 -0.784359 1.88752 0
M  V30 12861 C 1190 -1.75081 0.788079 0
M  V30 12862 O 1191.2 -2.50125 0.984431 0
M  V30 12863 C 1189.47 -1.47962 3.25334 0
M  V30 12864 S 1191.03 -2.22146 3.78413 0
M  V30 12865 H 1187.85 -0.260976 0.661372 0
M  V30 12866 H 1190.45 -0.0407396 1.95458 0
M  V30 12867 H 1189.15 -0.762338 4.03257 0
M  V30 12868 H 1188.68 -2.26281 3.21808 0
M  V30 12869 H 1190.7 -3.48558 3.5316 0
M  V30 12870 N 1189.87 -1.5367 -0.349747 0
M  V30 12871 C 1191.1 -1.74858 -1.11532 0
M  V30 12872 C 1191.52 -0.483591 -1.81777 0
M  V30 12873 O 1190.88 0.563399 -1.72324 0
M  V30 12874 C 1190.93 -2.92479 -2.10923 0
M  V30 12875 O 1190.03 -2.62194 -3.18321 0
M  V30 12876 H 1189.37 -0.580219 -0.322865 0
M  V30 12877 H 1191.9 -2.00611 -0.402033 0
M  V30 12878 H 1191.91 -3.19093 -2.54252 0
M  V30 12879 H 1190.59 -3.84228 -1.59191 0
M  V30 12880 H 1189.16 -2.46448 -2.79853 0
M  V30 12881 N 1191.35 0.610423 -1.45298 0
M  V30 12882 C 1192.28 1.73207 -1.56594 0
M  V30 12883 C 1193.26 1.64893 -0.417651 0
M  V30 12884 O 1194.44 1.83336 -0.64043 0
M  V30 12885 C 1191.57 3.11803 -1.52959 0
M  V30 12886 C 1190.53 3.34925 -2.66475 0
M  V30 12887 C 1189.85 4.73764 -2.47894 0
M  V30 12888 C 1191.15 3.25456 -4.08504 0
M  V30 12889 H 1192.85 1.6401 -2.50482 0
M  V30 12890 H 1190.39 0.787621 -1.20551 0
M  V30 12891 H 1192.35 3.90065 -1.59458 0
M  V30 12892 H 1191.07 3.21833 -0.55599 0
M  V30 12893 H 1189.73 2.59051 -2.59399 0
M  V30 12894 H 1189.38 4.80524 -1.4868 0
M  V30 12895 H 1189.08 4.90191 -3.24016 0
M  V30 12896 H 1190.6 5.54231 -2.56243 0
M  V30 12897 H 1192.02 3.93597 -4.16839 0
M  V30 12898 H 1190.41 3.53414 -4.84994 0
M  V30 12899 H 1191.48 2.22939 -4.30612 0
M  V30 12900 N 1192.83 1.32541 0.852676 0
M  V30 12901 C 1193.76 1.17471 1.96807 0
M  V30 12902 C 1194.77 0.109198 1.62433 0
M  V30 12903 O 1195.96 0.358342 1.74866 0
M  V30 12904 C 1193.06 0.776328 3.29888 0
M  V30 12905 C 1192.23 1.93055 3.9249 0
M  V30 12906 C 1191.29 1.51539 5.03907 0
M  V30 12907 O 1190.32 2.22771 5.23796 0
M  V30 12908 N 1191.52 0.412533 5.79032 0
M  V30 12909 H 1194.29 2.13551 2.10276 0
M  V30 12910 H 1191.85 1.25104 1.02764 0
M  V30 12911 H 1193.84 0.48096 4.01832 0
M  V30 12912 H 1192.41 -0.0933749 3.12461 0
M  V30 12913 H 1191.63 2.39231 3.13309 0
M  V30 12914 H 1192.92 2.70321 4.3105 0
M  V30 12915 H 1192.31 -0.180286 5.65413 0
M  V30 12916 H 1190.87 0.17678 6.5156 0
M  V30 12917 N 1194.3 -1.0692 1.15784 0
M  V30 12918 C 1195.72 -1.61069 0.944123 0
M  V30 12919 C 1196.07 -1.8936 -0.513522 0
M  V30 12920 O 1195.19 -1.66232 -1.38549 0
M  V30 12921 C 1195.79 -2.9263 1.70743 0
M  V30 12922 C 1194.35 -3.43505 1.53887 0
M  V30 12923 C 1193.49 -2.17495 1.72021 0
M  V30 12924 H 1196.44 -0.89951 1.30746 0
M  V30 12925 H 1196.46 -3.61757 1.17951 0
M  V30 12926 H 1195.98 -2.72007 2.76828 0
M  V30 12927 H 1194.08 -3.69201 0.502153 0
M  V30 12928 H 1194.19 -4.19254 2.31868 0
M  V30 12929 H 1192.55 -2.27407 1.1471 0
M  V30 12930 H 1193.34 -1.99362 2.79481 0
M  V30 12931 N 1195.78 -0.955326 -1.25345 0
M  V30 12932 C 1197.06 -0.527828 -1.88344 0
M  V30 12933 C 1197.44 0.994911 -1.86185 0
M  V30 12934 O 1196.79 1.86099 -1.32587 0
M  V30 12935 C 1197 -1.10525 -3.31037 0
M  V30 12936 C 1198.35 -1.18253 -4.07801 0
M  V30 12937 O 1199.37 -1.05685 -3.4016 0
M  V30 12938 O 1198.23 -1.37978 -5.28795 0
M  V30 12939 H 1195.32 -0.174206 -0.808444 0
M  V30 12940 H 1197.87 -1.0488 -1.3341 0
M  V30 12941 H 1196.64 -2.14847 -3.27042 0
M  V30 12942 H 1196.26 -0.567568 -3.93528 0
M  V30 12943 N 1197.26 1.39987 -0.723979 0
M  V30 12944 C 1198.51 1.99964 -0.26406 0
M  V30 12945 C 1198.82 1.58084 1.1519 0
M  V30 12946 O 1200.03 2.10819 1.71077 0
M  V30 12947 C 1198.49 3.57427 -0.421174 0
M  V30 12948 C 1198.09 4.08276 -1.84432 0
M  V30 12949 C 1199.84 4.24494 -0.0224734 0
M  V30 12950 C 1197.74 5.58272 -1.95157 0
M  V30 12951 H 1196.67 0.747995 -0.0949728 0
M  V30 12952 H 1199.33 1.60122 -0.896276 0
M  V30 12953 H 1197.71 3.95011 0.279762 0
M  V30 12954 H 1198.88 3.82051 -2.57631 0
M  V30 12955 H 1197.2 3.53834 -2.19523 0
M  V30 12956 H 1199.79 5.34637 -0.0817744 0
M  V30 12957 H 1200.14 4.03593 1.02069 0
M  V30 12958 H 1200.67 3.92046 -0.67416 0
M  V30 12959 H 1197.41 5.84038 -2.97623 0
M  V30 12960 H 1196.93 5.86335 -1.2638 0
M  V30 12961 H 1198.61 6.23509 -1.72759 0
M  V30 12962 N 1198.74 0.470782 1.50404 0
M  V30 12963 C 1200.02 -0.145879 1.95055 0
M  V30 12964 C 1200.4 -1.57004 1.41114 0
M  V30 12965 O 1199.74 -2.20152 0.612006 0
M  V30 12966 C 1199.95 -0.0895071 3.48885 0
M  V30 12967 C 1201.3 -0.278548 4.23685 0
M  V30 12968 O 1202.33 -0.166105 3.55812 0
M  V30 12969 O 1201.19 -0.505606 5.44156 0
M  V30 12970 H 1198.28 -0.111838 0.819403 0
M  V30 12971 H 1200.83 0.531162 1.61173 0
M  V30 12972 H 1199.6 0.904836 3.80695 0
M  V30 12973 H 1199.22 -0.808019 3.89303 0
M  V30 12974 N 1200.22 -1.56282 0.203376 0
M  V30 12975 C 1201.47 -1.96987 -0.433461 0
M  V30 12976 C 1201.78 -1.09344 -1.62183 0
M  V30 12977 O 1202.99 -1.39868 -2.327 0
M  V30 12978 C 1201.44 -3.50374 -0.82257 0
M  V30 12979 C 1201.05 -4.46693 0.341969 0
M  V30 12980 C 1202.79 -3.99831 -1.42603 0
M  V30 12981 C 1200.7 -5.9136 -0.0685608 0
M  V30 12982 H 1199.63 -0.735564 -0.165717 0
M  V30 12983 H 1202.28 -1.81085 0.296708 0
M  V30 12984 H 1200.66 -3.6181 -1.60964 0
M  V30 12985 H 1201.84 -4.46994 1.11952 0
M  V30 12986 H 1200.15 -4.07476 0.857463 0
M  V30 12987 H 1202.75 -5.05398 -1.74577 0
M  V30 12988 H 1203.09 -3.4462 -2.33544 0
M  V30 12989 H 1203.63 -3.91543 -0.702758 0
M  V30 12990 H 1200.36 -6.50515 0.80688 0
M  V30 12991 H 1199.88 -5.94295 -0.810798 0
M  V30 12992 H 1201.56 -6.45053 -0.501525 0
M  V30 12993 N 1201.7 0.070167 -1.57444 0
M  V30 12994 C 1202.63 1.08351 -2.06839 0
M  V30 12995 C 1203.61 1.40269 -0.962224 0
M  V30 12996 O 1204.79 1.49867 -1.23505 0
M  V30 12997 C 1201.92 2.39649 -2.51368 0
M  V30 12998 C 1200.88 2.22079 -3.65875 0
M  V30 12999 C 1200.2 3.58776 -3.96464 0
M  V30 13000 C 1201.5 1.64069 -4.95862 0
M  V30 13001 H 1203.2 0.672465 -2.9175 0
M  V30 13002 H 1200.74 0.322027 -1.40353 0
M  V30 13003 H 1202.69 3.10833 -2.84537 0
M  V30 13004 H 1201.42 2.82736 -1.63487 0
M  V30 13005 H 1200.08 1.53337 -3.32992 0
M  V30 13006 H 1199.73 3.99436 -3.05712 0
M  V30 13007 H 1199.43 3.47859 -4.7357 0
M  V30 13008 H 1200.95 4.31387 -4.32131 0
M  V30 13009 H 1202.36 2.2512 -5.27251 0
M  V30 13010 H 1200.76 1.63843 -5.773 0
M  V30 13011 H 1201.83 0.60232 -4.81145 0
M  V30 13012 N 1203.17 1.53854 0.341593 0
M  V30 13013 C 1204.58 1.62623 0.917093 0
M  V30 13014 C 1204.94 0.508781 1.89488 0
M  V30 13015 O 1204.06 -0.361171 2.13365 0
M  V30 13016 C 1204.66 2.94775 1.67012 0
M  V30 13017 C 1203.21 3.058 2.19461 0
M  V30 13018 C 1202.36 2.58082 1.01433 0
M  V30 13019 H 1205.31 1.58248 0.119674 0
M  V30 13020 H 1205.33 2.83924 2.53313 0
M  V30 13021 H 1204.85 3.76085 0.958221 0
M  V30 13022 H 1202.95 2.29128 2.93821 0
M  V30 13023 H 1203.06 4.11302 2.45698 0
M  V30 13024 H 1201.42 2.13537 1.38831 0
M  V30 13025 H 1202.21 3.41833 0.317033 0
M  V30 13026 N 1204.65 -0.602709 1.4562 0
M  V30 13027 C 1205.6 -1.70753 1.51088 0
M  V30 13028 C 1206.59 -1.56501 0.373662 0
M  V30 13029 O 1207.78 -1.65755 0.620828 0
M  V30 13030 C 1204.91 -3.09515 1.48511 0
M  V30 13031 C 1203.99 -3.29135 2.67453 0
M  V30 13032 N 1204.38 -3.18996 3.92524 0
M  V30 13033 C 1202.68 -3.60019 2.63253 0
M  V30 13034 C 1203.38 -3.40079 4.71933 0
M  V30 13035 N 1202.36 -3.64299 4.03469 0
M  V30 13036 H 1206.16 -1.61414 2.45607 0
M  V30 13037 H 1203.67 -0.806122 1.4098 0
M  V30 13038 H 1205.67 -3.88782 1.50513 0
M  V30 13039 H 1204.33 -3.19999 0.550526 0
M  V30 13040 H 1205.34 -2.97292 4.24073 0
M  V30 13041 H 1202.02 -3.77311 1.78725 0
M  V30 13042 H 1203.41 -3.37593 5.80931 0
M  V30 13043 N 1206.13 -1.32992 -0.845635 0
M  V30 13044 C 1207.38 -1.2382 -1.59728 0
M  V30 13045 C 1207.7 0.197724 -1.93995 0
M  V30 13046 O 1206.97 1.12477 -1.60392 0
M  V30 13047 H 1205.55 -0.455296 -0.592212 0
M  V30 13048 H 1208.21 -1.66627 -1.01101 0
M  V30 13049 H 1207.31 -1.82717 -2.53023 0
M  V30 13050 N 1207.61 1.06304 -1.1635 0
M  V30 13051 C 1208.88 1.75916 -0.855166 0
M  V30 13052 C 1209.26 2.0094 0.647024 0
M  V30 13053 O 1208.61 1.63642 1.59479 0
M  V30 13054 C 1208.82 3.06028 -1.67774 0
M  V30 13055 C 1210.17 3.80184 -1.89065 0
M  V30 13056 O 1211.19 3.15868 -1.64639 0
M  V30 13057 O 1210.05 4.95723 -2.30045 0
M  V30 13058 H 1207.15 0.764432 -0.315551 0
M  V30 13059 H 1209.69 1.12574 -1.26985 0
M  V30 13060 H 1208.47 2.83498 -2.69712 0
M  V30 13061 H 1208.09 3.77104 -1.26009 0
M  V30 13062 N 1209.09 0.96196 1.24836 0
M  V30 13063 C 1210.02 0.445329 2.24832 0
M  V30 13064 C 1211.03 -0.442797 1.56663 0
M  V30 13065 O 1212.22 -0.249896 1.76742 0
M  V30 13066 C 1209.32 -0.376953 3.36797 0
M  V30 13067 C 1208.49 0.499908 4.34534 0
M  V30 13068 C 1207.55 -0.265402 5.2553 0
M  V30 13069 O 1206.58 0.338707 5.68191 0
M  V30 13070 N 1207.78 -1.55654 5.59243 0
M  V30 13071 H 1210.54 1.30505 2.69793 0
M  V30 13072 H 1208.11 0.833137 1.38818 0
M  V30 13073 H 1210.1 -0.896831 3.94638 0
M  V30 13074 H 1208.67 -1.13757 2.91167 0
M  V30 13075 H 1207.89 1.20082 3.75465 0
M  V30 13076 H 1209.18 1.09814 4.96808 0
M  V30 13077 H 1208.57 -2.06916 5.265 0
M  V30 13078 H 1207.13 -2.02223 6.19636 0
M  V30 13079 N 1210.56 -1.39601 0.731392 0
M  V30 13080 C 1211.79 -2.04887 0.28789 0
M  V30 13081 C 1212.21 -1.55138 -1.076 0
M  V30 13082 O 1211.56 -0.71471 -1.67923 0
M  V30 13083 C 1211.61 -3.6044 0.276629 0
M  V30 13084 O 1211.34 -4.08358 1.58668 0
M  V30 13085 C 1212.84 -4.4292 -0.183485 0
M  V30 13086 H 1210.06 -0.658976 0.126459 0
M  V30 13087 H 1212.6 -1.78716 0.994031 0
M  V30 13088 H 1210.76 -3.85526 -0.380597 0
M  V30 13089 H 1211.17 -5.02659 1.4978 0
M  V30 13090 H 1212.64 -5.51822 -0.140207 0
M  V30 13091 H 1213.12 -4.2168 -1.22811 0
M  V30 13092 H 1213.73 -4.22976 0.444042 0
M  V30 13093 N 1212.04 -0.478751 -1.50152 0
M  V30 13094 C 1212.97 0.347829 -2.26545 0
M  V30 13095 C 1213.99 0.950354 -1.32182 0
M  V30 13096 O 1215.18 0.837462 -1.57635 0
M  V30 13097 C 1212.28 1.50255 -3.0377 0
M  V30 13098 C 1211.45 1.01142 -4.25546 0
M  V30 13099 C 1210.51 2.0411 -4.85 0
M  V30 13100 O 1209.53 1.61862 -5.45701 0
M  V30 13101 N 1210.74 3.36982 -4.72677 0
M  V30 13102 H 1213.5 -0.307113 -2.98122 0
M  V30 13103 H 1211.06 -0.309981 -1.58905 0
M  V30 13104 H 1213.05 2.18848 -3.40423 0
M  V30 13105 H 1211.62 2.06205 -2.34943 0
M  V30 13106 H 1210.84 0.151124 -3.9391 0
M  V30 13107 H 1212.13 0.661326 -5.04484 0
M  V30 13108 H 1211.53 3.74011 -4.2442 0
M  V30 13109 H 1210.09 4.0135 -5.13577 0
M  V30 13110 N 1213.52 1.56172 -0.211661 0
M  V30 13111 C 1214.77 1.97214 0.423008 0
M  V30 13112 C 1215.08 1.10203 1.616 0
M  V30 13113 O 1216.29 1.411 2.31955 0
M  V30 13114 C 1214.74 3.50805 0.803977 0
M  V30 13115 C 1214.35 4.46505 -0.365654 0
M  V30 13116 C 1216.1 4.00582 1.4048 0
M  V30 13117 C 1214 5.91388 0.0371986 0
M  V30 13118 H 1212.93 0.736432 0.161814 0
M  V30 13119 H 1215.58 1.80925 -0.306307 0
M  V30 13120 H 1213.97 3.62659 1.59043 0
M  V30 13121 H 1215.14 4.46394 -1.14321 0
M  V30 13122 H 1213.46 4.07015 -0.879061 0
M  V30 13123 H 1216.05 5.06317 1.71894 0
M  V30 13124 H 1216.4 3.45853 2.31713 0
M  V30 13125 H 1216.93 3.9191 0.681984 0
M  V30 13126 H 1213.67 6.50078 -0.841367 0
M  V30 13127 H 1213.19 5.94716 0.77927 0
M  V30 13128 H 1214.87 6.4531 0.467309 0
M  V30 13129 N 1215 -0.0618163 1.57479 0
M  V30 13130 C 1216.25 -0.757569 1.87364 0
M  V30 13131 C 1216.57 -1.77607 0.805025 0
M  V30 13132 O 1215.84 -1.95202 -0.165216 0
M  V30 13133 H 1214.42 -0.28278 0.691408 0
M  V30 13134 H 1217.08 -0.0355354 1.94868 0
M  V30 13135 H 1216.18 -1.26758 2.85199 0
M  V30 13136 N 1216.48 -1.54033 -0.333429 0
M  V30 13137 C 1217.39 -1.85737 -1.43314 0
M  V30 13138 C 1218.4 -0.748398 -1.57083 0
M  V30 13139 O 1219.58 -1.04171 -1.72367 0
M  V30 13140 C 1216.64 -2.06942 -2.78165 0
M  V30 13141 C 1215.7 -3.30774 -2.73655 0
M  V30 13142 C 1214.94 -3.50957 -4.02075 0
M  V30 13143 O 1215.16 -2.74774 -4.99855 0
M  V30 13144 O 1214.09 -4.44412 -4.05933 0
M  V30 13145 H 1217.92 -2.7923 -1.19434 0
M  V30 13146 H 1215.51 -1.39814 -0.526546 0
M  V30 13147 H 1217.39 -2.22276 -3.58011 0
M  V30 13148 H 1216.06 -1.16638 -3.01956 0
M  V30 13149 H 1214.97 -3.20835 -1.92395 0
M  V30 13150 H 1216.3 -4.21103 -2.54819 0
M  V30 13151 N 1217.95 0.594978 -1.45938 0
M  V30 13152 C 1219.37 0.917069 -1.30622 0
M  V30 13153 C 1219.57 1.99702 -0.268554 0
M  V30 13154 O 1218.63 2.50293 0.333146 0
M  V30 13155 C 1219.94 1.34604 -2.68891 0
M  V30 13156 C 1221.49 1.45957 -2.76886 0
M  V30 13157 C 1221.96 1.92225 -4.15708 0
M  V30 13158 N 1223.45 1.99439 -4.18065 0
M  V30 13159 C 1224.19 2.36488 -5.22361 0
M  V30 13160 N 1223.68 2.72416 -6.36994 0
M  V30 13161 N 1225.48 2.36936 -5.09723 0
M  V30 13162 H 1217.63 -0.118625 -2.12068 0
M  V30 13163 H 1219.89 0.00959453 -0.947951 0
M  V30 13164 H 1219.6 0.626605 -3.46073 0
M  V30 13165 H 1219.47 2.31006 -2.98188 0
M  V30 13166 H 1221.86 2.16989 -1.99999 0
M  V30 13167 H 1221.94 0.47838 -2.51287 0
M  V30 13168 H 1221.58 1.21775 -4.93085 0
M  V30 13169 H 1221.51 2.9128 -4.38707 0
M  V30 13170 H 1224 1.74212 -3.35349 0
M  V30 13171 H 1224.32 2.99604 -7.1236 0
M  V30 13172 H 1222.66 2.70083 -6.40375 0
M  V30 13173 H 1225.85 2.08282 -4.19209 0
M  V30 13174 H 1226.03 2.65483 -5.9112 0
M  V30 13175 N 1219.43 1.33438 0.838571 0
M  V30 13176 C 1220.68 1.24665 1.59069 0
M  V30 13177 C 1221 -0.187433 1.94097 0
M  V30 13178 O 1220.27 -1.11625 1.60987 0
M  V30 13179 H 1218.85 0.45843 0.589789 0
M  V30 13180 H 1221.51 1.67161 1.00216 0
M  V30 13181 H 1220.61 1.84057 2.52051 0
M  V30 13182 N 1220.91 -1.05686 1.16912 0
M  V30 13183 C 1222.16 -1.77987 0.948875 0
M  V30 13184 C 1222.47 -1.8845 -0.524011 0
M  V30 13185 O 1223.68 -2.57442 -0.862322 0
M  V30 13186 C 1222.13 -3.19927 1.64848 0
M  V30 13187 C 1221.74 -3.1761 3.15956 0
M  V30 13188 C 1223.49 -3.96719 1.51044 0
M  V30 13189 C 1221.39 -4.54307 3.78628 0
M  V30 13190 H 1220.32 -0.667119 0.35138 0
M  V30 13191 H 1222.97 -1.18496 1.40111 0
M  V30 13192 H 1221.36 -3.79714 1.12397 0
M  V30 13193 H 1222.53 -2.67369 3.75301 0
M  V30 13194 H 1220.85 -2.54317 3.29715 0
M  V30 13195 H 1223.44 -4.97779 1.95243 0
M  V30 13196 H 1223.79 -4.13748 0.460268 0
M  V30 13197 H 1224.32 -3.43468 2.00685 0
M  V30 13198 H 1221.06 -4.42484 4.8362 0
M  V30 13199 H 1220.58 -5.04717 3.24069 0
M  V30 13200 H 1222.26 -5.23255 3.80543 0
M  V30 13201 N 1222.39 -0.968567 -1.24324 0
M  V30 13202 C 1223.34 -0.491346 -2.27351 0
M  V30 13203 C 1224.33 0.445563 -1.63435 0
M  V30 13204 O 1225.54 0.320758 -1.77119 0
M  V30 13205 H 1221.91 -0.14043 -0.738772 0
M  V30 13206 H 1223.88 -1.37224 -2.64976 0
M  V30 13207 C 1222.63 0.202093 -3.47112 0
M  V30 13208 H 1221.95 -0.50973 -3.96537 0
M  V30 13209 H 1223.39 0.499815 -4.21044 0
M  V30 13210 C 1221.85 1.42937 -3.05075 0
M  V30 13211 O 1222.38 2.52635 -3.12312 0
M  V30 13212 N 1220.59 1.29572 -2.60114 0
M  V30 13213 H 1220.14 0.403169 -2.54425 0
M  V30 13214 H 1220.09 2.118 -2.32353 0
M  V30 13215 N 1223.87 1.39211 -0.738786 0
M  V30 13216 C 1224.8 2.33209 -0.11647 0
M  V30 13217 C 1225.78 1.54108 0.720056 0
M  V30 13218 O 1226.96 1.82486 0.664264 0
M  V30 13219 C 1224.09 3.38226 0.78872 0
M  V30 13220 C 1223.05 4.27963 0.0560636 0
M  V30 13221 C 1222.37 5.2371 1.07852 0
M  V30 13222 C 1223.67 5.10508 -1.1036 0
M  V30 13223 H 1225.37 2.85501 -0.901649 0
M  V30 13224 H 1222.91 1.37272 -0.435032 0
M  V30 13225 H 1224.87 4.02938 1.23364 0
M  V30 13226 H 1223.59 2.84382 1.60606 0
M  V30 13227 H 1222.25 3.64735 -0.369274 0
M  V30 13228 H 1221.9 4.66161 1.88953 0
M  V30 13229 H 1221.6 5.846 0.593048 0
M  V30 13230 H 1223.12 5.91299 1.52307 0
M  V30 13231 H 1224.53 5.68544 -0.736943 0
M  V30 13232 H 1222.93 5.80558 -1.51895 0
M  V30 13233 H 1224 4.45117 -1.92352 0
M  V30 13234 N 1225.34 0.486708 1.49896 0
M  V30 13235 C 1226.57 -0.0622999 2.07306 0
M  V30 13236 C 1226.99 -1.31353 1.3464 0
M  V30 13237 O 1226.35 -1.76861 0.398752 0
M  V30 13238 C 1226.4 -0.313481 3.59235 0
M  V30 13239 O 1225.5 -1.39101 3.88233 0
M  V30 13240 H 1224.85 0.0198885 0.663702 0
M  V30 13241 H 1227.38 0.682232 1.92891 0
M  V30 13242 H 1227.39 -0.549302 4.04285 0
M  V30 13243 H 1226.06 0.600767 4.11538 0
M  V30 13244 H 1224.64 -1.14127 3.55006 0
M  V30 13245 N 1226.82 -1.56058 0.219941 0
M  V30 13246 C 1228.07 -1.97869 -0.411383 0
M  V30 13247 C 1228.39 -1.10878 -1.60409 0
M  V30 13248 O 1227.66 -0.185454 -1.9502 0
M  V30 13249 H 1226.24 -0.730747 -0.154979 0
M  V30 13250 H 1228.9 -1.92379 0.312461 0
M  V30 13251 H 1228 -3.0323 -0.738798 0
M  V30 13252 N 1228.3 0.053464 -1.57509 0
M  V30 13253 C 1229.55 0.747622 -1.87763 0
M  V30 13254 C 1229.87 1.77178 -0.814433 0
M  V30 13255 O 1229.14 1.95287 0.154862 0
M  V30 13256 H 1227.72 0.279109 -0.692898 0
M  V30 13257 H 1230.38 0.0252006 -1.94884 0
M  V30 13258 H 1229.48 1.25244 -2.85868 0
M  V30 13259 N 1229.78 1.54207 0.325255 0
M  V30 13260 C 1230.71 1.79812 1.42128 0
M  V30 13261 C 1231.72 0.68003 1.47917 0
M  V30 13262 O 1232.91 0.957107 1.50671 0
M  V30 13263 C 1230.01 1.89935 2.80674 0
M  V30 13264 C 1229.19 3.20078 2.98108 0
M  V30 13265 C 1228.25 3.20924 4.17006 0
M  V30 13266 O 1227.27 3.94571 4.10247 0
M  V30 13267 N 1228.47 2.44588 5.26457 0
M  V30 13268 H 1231.24 2.74396 1.20527 0
M  V30 13269 H 1228.8 1.53483 0.515233 0
M  V30 13270 H 1230.79 1.8793 3.58419 0
M  V30 13271 H 1229.36 1.02455 2.95333 0
M  V30 13272 H 1228.58 3.35057 2.07679 0
M  V30 13273 H 1229.87 4.06008 3.06651 0
M  V30 13274 H 1229.27 1.8434 5.34823 0
M  V30 13275 H 1227.82 2.48363 6.02627 0
M  V30 13276 N 1231.26 -0.58723 1.46251 0
M  V30 13277 C 1232.67 -0.910129 1.31106 0
M  V30 13278 C 1232.87 -1.99557 0.279141 0
M  V30 13279 O 1231.93 -2.50466 -0.319867 0
M  V30 13280 C 1233.24 -1.33177 2.69601 0
M  V30 13281 C 1234.79 -1.44486 2.77656 0
M  V30 13282 C 1235.27 -1.90018 4.16722 0
M  V30 13283 N 1236.76 -1.97219 4.19117 0
M  V30 13284 C 1237.49 -2.33714 5.23608 0
M  V30 13285 N 1236.99 -2.69034 6.3843 0
M  V30 13286 N 1238.78 -2.3423 5.10972 0
M  V30 13287 H 1230.93 0.12987 2.12003 0
M  V30 13288 H 1233.19 -0.00456718 0.947989 0
M  V30 13289 H 1232.9 -0.608243 3.464 0
M  V30 13290 H 1232.77 -2.29421 2.99409 0
M  V30 13291 H 1235.16 -2.15926 2.01147 0
M  V30 13292 H 1235.24 -0.465047 2.51537 0
M  V30 13293 H 1234.89 -1.19159 4.93724 0
M  V30 13294 H 1234.82 -2.88949 4.40245 0
M  V30 13295 H 1237.31 -1.72431 3.36268 0
M  V30 13296 H 1237.62 -2.95822 7.13939 0
M  V30 13297 H 1235.97 -2.66683 6.41798 0
M  V30 13298 H 1239.16 -2.06056 4.20308 0
M  V30 13299 H 1239.33 -2.62345 5.92519 0
M  V30 13300 N 1232.74 -1.33881 -0.831482 0
M  V30 13301 C 1233.67 -1.20587 -1.94914 0
M  V30 13302 C 1234.68 -0.135026 -1.62239 0
M  V30 13303 O 1235.87 -0.386116 -1.74274 0
M  V30 13304 C 1232.97 -0.828712 -3.28612 0
M  V30 13305 C 1232.14 -1.99275 -3.89369 0
M  V30 13306 C 1231.2 -1.59537 -5.01432 0
M  V30 13307 O 1230.23 -2.31076 -5.20185 0
M  V30 13308 N 1231.43 -0.5046 -5.78303 0
M  V30 13309 H 1234.19 -2.16869 -2.06852 0
M  V30 13310 H 1231.76 -1.26723 -1.00761 0
M  V30 13311 H 1233.75 -0.544827 -4.01016 0
M  V30 13312 H 1232.32 0.0436534 -3.1257 0
M  V30 13313 H 1231.54 -2.44185 -3.09463 0
M  V30 13314 H 1232.83 -2.77145 -4.26694 0
M  V30 13315 H 1232.22 0.0903105 -5.65628 0
M  V30 13316 H 1230.78 -0.280415 -6.51197 0
M  V30 13317 N 1234.21 1.05064 -1.1747 0
M  V30 13318 C 1235.63 1.30256 -0.922248 0
M  V30 13319 C 1235.83 1.97119 0.417896 0
M  V30 13320 O 1234.89 2.24557 1.15457 0
M  V30 13321 C 1236.2 2.17109 -2.08049 0
M  V30 13322 C 1237.75 2.30487 -2.11766 0
M  V30 13323 C 1238.22 3.20701 -3.26979 0
M  V30 13324 N 1239.71 3.28287 -3.26775 0
M  V30 13325 C 1240.45 3.98218 -4.12565 0
M  V30 13326 N 1239.94 4.70567 -5.08467 0
M  V30 13327 N 1241.74 3.94395 -4.00511 0
M  V30 13328 H 1233.89 0.600653 -2.0373 0
M  V30 13329 H 1236.15 0.327475 -0.889643 0
M  V30 13330 H 1235.86 1.75273 -3.04914 0
M  V30 13331 H 1235.73 3.1775 -2.03261 0
M  V30 13332 H 1238.12 2.71564 -1.15486 0
M  V30 13333 H 1238.2 1.29471 -2.20615 0
M  V30 13334 H 1237.84 2.80337 -4.23525 0
M  V30 13335 H 1237.77 4.21725 -3.15366 0
M  V30 13336 H 1240.26 2.76739 -2.5734 0
M  V30 13337 H 1240.58 5.21492 -5.70321 0
M  V30 13338 H 1238.92 4.69505 -5.12436 0
M  V30 13339 H 1242.11 3.37 -3.24882 0
M  V30 13340 H 1242.29 4.48626 -4.67588 0
M  V30 13341 N 1235.69 0.975146 1.23809 0
M  V30 13342 C 1236.94 0.636678 1.91388 0
M  V30 13343 C 1237.25 -0.832876 1.76982 0
M  V30 13344 O 1238.46 -1.28218 2.39316 0
M  V30 13345 C 1236.92 1.08813 3.43057 0
M  V30 13346 C 1236.52 2.58165 3.66135 0
M  V30 13347 C 1238.27 0.823154 4.16443 0
M  V30 13348 C 1236.17 2.97004 5.11412 0
M  V30 13349 H 1235.1 0.234424 0.716632 0
M  V30 13350 H 1237.76 1.18235 1.40331 0
M  V30 13351 H 1236.14 0.470709 3.93192 0
M  V30 13352 H 1237.31 3.25101 3.26567 0
M  V30 13353 H 1235.63 2.82353 3.06049 0
M  V30 13354 H 1238.22 1.08925 5.23488 0
M  V30 13355 H 1238.57 -0.240705 4.15604 0
M  V30 13356 H 1239.1 1.4019 3.72279 0
M  V30 13357 H 1235.84 4.02492 5.17378 0
M  V30 13358 H 1235.36 2.34759 5.51949 0
M  V30 13359 H 1237.04 2.8732 5.79704 0
M  V30 13360 N 1237.17 -1.38817 0.746158 0
M  V30 13361 C 1238.39 -2.05096 0.308302 0
M  V30 13362 C 1238.82 -1.55902 -1.05244 0
M  V30 13363 O 1238.18 -0.707685 -1.66918 0
M  V30 13364 C 1238.23 -3.59068 0.332016 0
M  V30 13365 O 1237.33 -4.06813 -0.676547 0
M  V30 13366 H 1236.67 -0.649523 0.1379 0
M  V30 13367 H 1239.2 -1.77637 1.0152 0
M  V30 13368 H 1239.21 -4.07601 0.180293 0
M  V30 13369 H 1237.89 -3.94234 1.32487 0
M  V30 13370 H 1236.46 -3.69666 -0.490046 0
M  V30 13371 N 1238.65 -0.49465 -1.49636 0
M  V30 13372 C 1239.89 0.0521945 -2.02733 0
M  V30 13373 C 1240.23 1.3723 -1.37411 0
M  V30 13374 O 1239.5 1.87758 -0.507642 0
M  V30 13375 C 1239.78 0.2114 -3.59479 0
M  V30 13376 C 1239.64 -1.13138 -4.35339 0
M  V30 13377 C 1240.96 0.955015 -4.29613 0
M  V30 13378 H 1238.08 0.0174946 -0.736792 0
M  V30 13379 H 1240.72 -0.644827 -1.78723 0
M  V30 13380 H 1238.87 0.805078 -3.80067 0
M  V30 13381 H 1240.54 -1.76345 -4.26263 0
M  V30 13382 H 1238.78 -1.72224 -3.98147 0
M  V30 13383 H 1239.45 -0.97336 -5.4335 0
M  V30 13384 H 1241.93 0.451575 -4.13642 0
M  V30 13385 H 1240.81 1.03524 -5.39049 0
M  V30 13386 H 1241.07 1.99724 -3.94414 0
M  V30 13387 N 1240.13 1.55939 -0.228214 0
M  V30 13388 C 1241.09 2.1932 0.665681 0
M  V30 13389 C 1242.09 1.15699 1.11671 0
M  V30 13390 O 1243.28 1.40893 1.02444 0
M  V30 13391 C 1240.41 2.82185 1.9127 0
M  V30 13392 H 1241.6 2.99687 0.112986 0
M  V30 13393 H 1239.16 1.56285 0.0213865 0
M  V30 13394 H 1239.89 2.05706 2.5071 0
M  V30 13395 H 1239.68 3.58073 1.5977 0
M  V30 13396 H 1241.17 3.30748 2.54942 0
M  V30 13397 N 1241.6 -0.0451101 1.57535 0
M  V30 13398 C 1243.02 -0.400463 1.54494 0
M  V30 13399 C 1243.22 -1.77584 0.952166 0
M  V30 13400 O 1242.28 -2.46069 0.566221 0
M  V30 13401 C 1243.59 -0.31703 2.99024 0
M  V30 13402 C 1245.14 -0.395284 3.10494 0
M  V30 13403 C 1245.61 -0.341475 4.56725 0
M  V30 13404 N 1247.1 -0.400755 4.61463 0
M  V30 13405 C 1247.84 -0.381757 5.72128 0
M  V30 13406 N 1247.33 -0.315995 6.92079 0
M  V30 13407 N 1249.13 -0.4303 5.60451 0
M  V30 13408 H 1241.28 0.855156 1.94424 0
M  V30 13409 H 1243.54 0.323618 0.891053 0
M  V30 13410 H 1243.25 0.627477 3.46057 0
M  V30 13411 H 1243.12 -1.11696 3.60283 0
M  V30 13412 H 1245.51 -1.33022 2.63418 0
M  V30 13413 H 1245.59 0.433709 2.52096 0
M  V30 13414 H 1245.23 0.589725 5.04465 0
M  V30 13415 H 1245.16 -1.18836 5.13016 0
M  V30 13416 H 1247.65 -0.454745 3.75154 0
M  V30 13417 H 1247.97 -0.306158 7.72193 0
M  V30 13418 H 1246.31 -0.282281 6.94427 0
M  V30 13419 H 1249.5 -0.479555 4.65637 0
M  V30 13420 H 1249.68 -0.412025 6.46689 0
M  V30 13421 N 1243.08 -1.54377 -0.317073 0
M  V30 13422 C 1244.05 -1.83488 -1.37349 0
M  V30 13423 C 1245.05 -0.706981 -1.44424 0
M  V30 13424 O 1246.24 -0.975289 -1.44339 0
M  V30 13425 C 1243.37 -2.00074 -2.76013 0
M  V30 13426 H 1244.56 -2.77883 -1.12789 0
M  V30 13427 H 1242.11 -1.46194 -0.552902 0
M  V30 13428 H 1242.85 -1.07913 -3.05819 0
M  V30 13429 H 1242.63 -2.82155 -2.7227 0
M  V30 13430 H 1244.12 -2.24022 -3.52426 0
M  V30 13431 N 1244.56 0.579466 -1.4656 0
M  V30 13432 C 1245.49 1.69846 -1.60233 0
M  V30 13433 C 1246.47 1.6397 -0.452533 0
M  V30 13434 O 1247.66 1.81936 -0.679174 0
M  V30 13435 C 1244.79 3.08488 -1.59538 0
M  V30 13436 C 1243.74 3.29197 -2.7352 0
M  V30 13437 C 1243.07 4.684 -2.57887 0
M  V30 13438 C 1244.37 3.16718 -4.15315 0
M  V30 13439 H 1246.06 1.5866 -2.53904 0
M  V30 13440 H 1243.61 0.761873 -1.22194 0
M  V30 13441 H 1245.56 3.86595 -1.67696 0
M  V30 13442 H 1244.28 3.20581 -0.62413 0
M  V30 13443 H 1242.94 2.53491 -2.64836 0
M  V30 13444 H 1242.59 4.77262 -1.58839 0
M  V30 13445 H 1242.29 4.83208 -3.34341 0
M  V30 13446 H 1243.81 5.48671 -2.67942 0
M  V30 13447 H 1245.23 3.84666 -4.25094 0
M  V30 13448 H 1243.63 3.43047 -4.92381 0
M  V30 13449 H 1244.7 2.13755 -4.35244 0
M  V30 13450 N 1246.04 1.3432 0.824371 0
M  V30 13451 C 1247.27 1.29481 1.60992 0
M  V30 13452 C 1247.68 -0.133581 1.88728 0
M  V30 13453 O 1247.02 -1.09065 1.4782 0
M  V30 13454 C 1247.08 2.01604 2.97651 0
M  V30 13455 C 1246.75 3.50866 2.92817 0
M  V30 13456 C 1247.74 4.458 2.67504 0
M  V30 13457 C 1245.43 3.93258 3.12495 0
M  V30 13458 C 1247.42 5.81101 2.61918 0
M  V30 13459 C 1245.11 5.28659 3.06533 0
M  V30 13460 C 1246.11 6.22392 2.81278 0
M  V30 13461 O 1245.79 7.55311 2.75246 0
M  V30 13462 H 1245.53 0.446931 0.507177 0
M  V30 13463 H 1248.08 1.77484 1.03386 0
M  V30 13464 H 1246.31 1.48212 3.5717 0
M  V30 13465 H 1248 1.90073 3.58646 0
M  V30 13466 H 1248.77 4.1437 2.52037 0
M  V30 13467 H 1244.64 3.20699 3.31169 0
M  V30 13468 H 1248.19 6.54233 2.42125 0
M  V30 13469 H 1244.09 5.59709 3.21553 0
M  V30 13470 H 1244.85 7.6503 2.90984 0
M  V30 13471 N 1247.52 -1.0444 1.18026 0
M  V30 13472 C 1248.45 -2.12388 0.86162 0
M  V30 13473 C 1249.46 -1.62204 -0.139196 0
M  V30 13474 O 1250.65 -1.78282 0.0881334 0
M  V30 13475 C 1247.75 -3.37859 0.265407 0
M  V30 13476 C 1246.92 -4.17292 1.31096 0
M  V30 13477 C 1245.98 -5.21096 0.731121 0
M  V30 13478 O 1245.01 -5.5159 1.40488 0
M  V30 13479 N 1246.21 -5.78568 -0.473194 0
M  V30 13480 H 1248.98 -2.40317 1.79074 0
M  V30 13481 H 1246.54 -1.20601 1.08014 0
M  V30 13482 H 1248.53 -4.04472 -0.135976 0
M  V30 13483 H 1247.1 -3.07403 -0.567658 0
M  V30 13484 H 1246.32 -3.46057 1.8878 0
M  V30 13485 H 1247.61 -4.67158 2.01596 0
M  V30 13486 H 1247 -5.56088 -1.03839 0
M  V30 13487 H 1245.56 -6.46665 -0.816545 0
M  V30 13488 N 1248.99 -0.981699 -1.2329 0
M  V30 13489 C 1249.94 -0.494116 -2.22581 0
M  V30 13490 C 1250.93 0.431573 -1.55004 0
M  V30 13491 O 1252.12 0.260215 -1.75077 0
M  V30 13492 C 1249.25 0.200884 -3.42712 0
M  V30 13493 C 1248.34 -0.744451 -4.17515 0
M  V30 13494 N 1248.73 -1.88762 -4.69257 0
M  V30 13495 C 1247.02 -0.558044 -4.42495 0
M  V30 13496 C 1247.73 -2.48006 -5.26182 0
M  V30 13497 N 1246.7 -1.76382 -5.14189 0
M  V30 13498 H 1250.5 -1.36616 -2.60218 0
M  V30 13499 H 1248.02 -0.842537 -1.38835 0
M  V30 13500 H 1250.01 0.567506 -4.13019 0
M  V30 13501 H 1248.67 1.0692 -3.06591 0
M  V30 13502 H 1249.69 -2.26877 -4.65561 0
M  V30 13503 H 1246.36 0.265139 -4.16657 0
M  V30 13504 H 1247.75 -3.44555 -5.76829 0
M  V30 13505 N 1250.47 1.3842 -0.753509 0
M  V30 13506 C 1251.44 2.28808 -0.134022 0
M  V30 13507 C 1252.44 1.47184 0.647583 0
M  V30 13508 O 1253.63 1.67631 0.473861 0
M  V30 13509 C 1250.76 3.30926 0.81858 0
M  V30 13510 H 1251.95 2.85097 -0.930586 0
M  V30 13511 H 1249.5 1.47378 -0.520514 0
M  V30 13512 H 1250.24 2.79728 1.64082 0
M  V30 13513 H 1250.02 3.91234 0.260526 0
M  V30 13514 H 1251.51 3.98515 1.24802 0
M  V30 13515 N 1251.95 0.502579 1.49372 0
M  V30 13516 C 1252.9 -0.288693 2.30801 0
M  V30 13517 C 1253.89 -0.961303 1.39482 0
M  V30 13518 O 1255.1 -0.888812 1.56525 0
M  V30 13519 H 1251.47 -0.111958 0.743619 0
M  V30 13520 H 1253.44 0.418062 2.95457 0
M  V30 13521 C 1252.19 -1.33938 3.20867 0
M  V30 13522 H 1251.52 -0.831219 3.91064 0
M  V30 13523 H 1252.96 -1.86498 3.80781 0
M  V30 13524 C 1251.42 -2.35839 2.40586 0
M  V30 13525 O 1251.95 -3.41752 2.11113 0
M  V30 13526 N 1250.15 -2.0835 2.0258 0
M  V30 13527 H 1249.7 -1.2224 2.26749 0
M  V30 13528 H 1249.66 -2.76758 1.49173 0
M  V30 13529 N 1253.43 -1.55816 0.23648 0
M  V30 13530 C 1254.67 -1.98981 -0.391725 0
M  V30 13531 C 1255.01 -1.12428 -1.58346 0
M  V30 13532 O 1254.28 -0.185303 -1.93615 0
M  V30 13533 C 1254.57 -3.50831 -0.811759 0
M  V30 13534 C 1254.42 -4.48152 0.384648 0
M  V30 13535 C 1255.74 -4.07489 -1.66254 0
M  V30 13536 H 1252.86 -0.723404 -0.140911 0
M  V30 13537 H 1255.5 -1.87011 0.335706 0
M  V30 13538 H 1253.65 -3.61162 -1.43157 0
M  V30 13539 H 1255.32 -4.49814 1.02298 0
M  V30 13540 H 1253.56 -4.21406 1.02955 0
M  V30 13541 H 1254.23 -5.51979 0.0475809 0
M  V30 13542 H 1256.71 -4.00195 -1.13944 0
M  V30 13543 H 1255.59 -5.14026 -1.92531 0
M  V30 13544 H 1255.85 -3.55297 -2.6309 0
M  V30 13545 N 1254.91 0.036755 -1.57557 0
M  V30 13546 C 1256.15 0.730186 -1.89199 0
M  V30 13547 C 1256.49 1.75414 -0.833271 0
M  V30 13548 O 1255.76 1.93901 0.152579 0
M  V30 13549 C 1256.04 1.40669 -3.31488 0
M  V30 13550 C 1255.9 0.396764 -4.48047 0
M  V30 13551 C 1257.22 2.34268 -3.72567 0
M  V30 13552 H 1254.33 0.263983 -0.6881 0
M  V30 13553 H 1256.98 -0.0069847 -1.89999 0
M  V30 13554 H 1255.13 2.03502 -3.30937 0
M  V30 13555 H 1256.8 -0.229062 -4.60731 0
M  V30 13556 H 1255.04 -0.284698 -4.32865 0
M  V30 13557 H 1255.71 0.908436 -5.44474 0
M  V30 13558 H 1258.19 1.81485 -3.74436 0
M  V30 13559 H 1257.06 2.78587 -4.72949 0
M  V30 13560 H 1257.33 3.20611 -3.04403 0
M  V30 13561 N 1256.39 1.54543 0.308881 0
M  V30 13562 C 1257.63 1.73449 1.04506 0
M  V30 13563 C 1257.96 0.516034 1.8753 0
M  V30 13564 O 1257.22 -0.502106 1.89149 0
M  V30 13565 C 1257.51 2.97124 1.98626 0
M  V30 13566 C 1257.18 4.31256 1.31641 0
M  V30 13567 C 1255.84 4.67719 1.13105 0
M  V30 13568 C 1258.19 5.14437 0.836888 0
M  V30 13569 C 1255.52 5.84949 0.452878 0
M  V30 13570 C 1257.87 6.32365 0.172473 0
M  V30 13571 C 1256.54 6.67495 -0.0249143 0
M  V30 13572 H 1255.81 0.634697 0.382415 0
M  V30 13573 H 1258.46 1.88795 0.320714 0
M  V30 13574 H 1256.76 2.76526 2.77562 0
M  V30 13575 H 1258.46 3.08946 2.55643 0
M  V30 13576 H 1255.05 4.02576 1.47074 0
M  V30 13577 H 1259.23 4.86772 0.967834 0
M  V30 13578 H 1254.49 6.10717 0.288886 0
M  V30 13579 H 1258.66 6.96092 -0.207027 0
M  V30 13580 H 1256.29 7.5819 -0.552425 0
M  V30 13581 N 1257.86 -0.571685 1.46866 0
M  V30 13582 C 1258.79 -1.68994 1.61131 0
M  V30 13583 C 1259.77 -1.63728 0.461222 0
M  V30 13584 O 1260.96 -1.81574 0.688813 0
M  V30 13585 C 1258.09 -3.07638 1.61172 0
M  V30 13586 C 1257.04 -3.27742 2.75262 0
M  V30 13587 C 1256.37 -4.67025 2.60368 0
M  V30 13588 C 1257.67 -3.14511 4.16989 0
M  V30 13589 H 1259.36 -1.57311 2.54742 0
M  V30 13590 H 1256.91 -0.755382 1.22597 0
M  V30 13591 H 1258.86 -3.857 1.69744 0
M  V30 13592 H 1257.59 -3.20245 0.641122 0
M  V30 13593 H 1256.25 -2.52083 2.66176 0
M  V30 13594 H 1255.89 -4.76413 1.61368 0
M  V30 13595 H 1255.59 -4.81428 3.36899 0
M  V30 13596 H 1257.12 -5.47242 2.70848 0
M  V30 13597 H 1258.53 -3.82407 4.27128 0
M  V30 13598 H 1256.93 -3.40431 4.94193 0
M  V30 13599 H 1258 -2.11443 4.36371 0
M  V30 13600 N 1259.34 -1.34755 -0.817236 0
M  V30 13601 C 1260.62 -1.18007 -1.55993 0
M  V30 13602 C 1261 0.245079 -2.09673 0
M  V30 13603 O 1260.35 1.24718 -1.91462 0
M  V30 13604 C 1260.56 -2.23934 -2.67684 0
M  V30 13605 C 1261.9 -2.59201 -3.36303 0
M  V30 13606 O 1262.93 -2.22767 -2.77945 0
M  V30 13607 O 1261.79 -3.21809 -4.41702 0
M  V30 13608 H 1258.88 -0.4578 -0.688729 0
M  V30 13609 H 1261.43 -1.46405 -0.858117 0
M  V30 13610 H 1260.2 -3.19568 -2.25813 0
M  V30 13611 H 1259.82 -1.96745 -3.4551 0
M  V30 13612 N 1260.82 1.03812 -1.18578 0
M  V30 13613 C 1262.1 1.74062 -0.892288 0
M  V30 13614 C 1262.48 2.02267 0.604256 0
M  V30 13615 O 1261.82 1.66988 1.55972 0
M  V30 13616 C 1262.03 3.024 -1.74228 0
M  V30 13617 C 1263.38 3.76088 -1.97087 0
M  V30 13618 O 1264.41 3.12305 -1.71302 0
M  V30 13619 O 1263.27 4.90732 -2.40509 0
M  V30 13620 H 1260.36 0.757567 -0.331695 0
M  V30 13621 H 1262.91 1.09855 -1.29345 0
M  V30 13622 H 1261.68 2.77713 -2.75665 0
M  V30 13623 H 1261.3 3.74346 -1.3398 0
M  V30 13624 N 1262.3 0.988223 1.22768 0
M  V30 13625 C 1263.71 0.697281 1.7319 0
M  V30 13626 C 1264.06 -0.786111 1.79763 0
M  V30 13627 O 1263.18 -1.61465 1.44077 0
M  V30 13628 C 1263.78 1.25905 3.14537 0
M  V30 13629 C 1262.34 1.01759 3.62384 0
M  V30 13630 C 1261.49 1.38207 2.40404 0
M  V30 13631 H 1264.44 1.16114 1.08181 0
M  V30 13632 H 1264.46 0.635315 3.75159 0
M  V30 13633 H 1263.97 2.33869 3.09721 0
M  V30 13634 H 1262.07 -0.045627 3.72572 0
M  V30 13635 H 1262.18 1.67767 4.48766 0
M  V30 13636 H 1260.55 0.800607 2.4179 0
M  V30 13637 H 1261.33 2.47165 2.38253 0
M  V30 13638 N 1263.78 -1.38018 0.760839 0
M  V30 13639 C 1265.02 -1.99952 0.320241 0
M  V30 13640 C 1265.35 -1.60397 -1.10014 0
M  V30 13641 O 1264.61 -0.836407 -1.76926 0
M  V30 13642 C 1264.9 -3.55168 0.398778 0
M  V30 13643 C 1264.57 -4.14457 1.77585 0
M  V30 13644 C 1263.23 -4.30363 2.15269 0
M  V30 13645 C 1265.58 -4.47089 2.67883 0
M  V30 13646 C 1262.91 -4.762 3.4271 0
M  V30 13647 C 1265.26 -4.94345 3.94722 0
M  V30 13648 C 1263.93 -5.08458 4.32466 0
M  V30 13649 H 1263.2 -0.731675 0.117185 0
M  V30 13650 H 1265.85 -1.64955 0.972736 0
M  V30 13651 H 1264.15 -3.90346 -0.337273 0
M  V30 13652 H 1265.85 -4.00981 0.0393393 0
M  V30 13653 H 1262.44 -4.02496 1.47292 0
M  V30 13654 H 1266.62 -4.34395 2.40031 0
M  V30 13655 H 1261.88 -4.85312 3.71863 0
M  V30 13656 H 1266.05 -5.18563 4.64828 0
M  V30 13657 H 1263.68 -5.43735 5.31278 0
M  V30 13658 N 1265.25 -0.510493 -1.49103 0
M  V30 13659 C 1266.48 0.0293113 -2.07379 0
M  V30 13660 C 1266.9 1.29195 -1.36713 0
M  V30 13661 O 1266.26 1.76204 -0.426838 0
M  V30 13662 C 1266.31 0.25629 -3.59688 0
M  V30 13663 O 1265.41 1.32907 -3.90397 0
M  V30 13664 H 1264.75 -0.0304449 -0.663302 0
M  V30 13665 H 1267.28 -0.712832 -1.91781 0
M  V30 13666 H 1267.29 0.484915 -4.05108 0
M  V30 13667 H 1265.97 -0.666163 -4.1053 0
M  V30 13668 H 1264.55 1.08464 -3.56777 0
M  V30 13669 N 1266.73 1.55688 -0.24474 0
M  V30 13670 C 1267.69 2.20014 0.642382 0
M  V30 13671 C 1268.69 1.16877 1.10437 0
M  V30 13672 O 1269.88 1.41972 1.00943 0
M  V30 13673 C 1267.02 2.84198 1.88267 0
M  V30 13674 H 1268.21 2.9979 0.0811937 0
M  V30 13675 H 1265.76 1.56299 0.00480917 0
M  V30 13676 H 1266.5 2.08354 2.48514 0
M  V30 13677 H 1266.28 3.59747 1.55963 0
M  V30 13678 H 1267.77 3.33434 2.5142 0
M  V30 13679 N 1268.21 -0.0283989 1.57574 0
M  V30 13680 C 1269.14 -1.02828 2.09639 0
M  V30 13681 C 1270.12 -1.37668 0.999076 0
M  V30 13682 O 1271.31 -1.4654 1.27435 0
M  V30 13683 C 1268.44 -2.329 2.57633 0
M  V30 13684 C 1267.39 -2.12301 3.71635 0
M  V30 13685 C 1266.72 -3.48138 4.05837 0
M  V30 13686 C 1268.02 -1.50864 5.00037 0
M  V30 13687 H 1269.71 -0.594876 2.93431 0
M  V30 13688 H 1267.26 -0.284701 1.41158 0
M  V30 13689 H 1269.21 -3.03179 2.92678 0
M  V30 13690 H 1267.93 -2.78302 1.70926 0
M  V30 13691 H 1266.59 -1.44454 3.3694 0
M  V30 13692 H 1266.24 -3.9119 3.16195 0
M  V30 13693 H 1265.94 -3.3518 4.82626 0
M  V30 13694 H 1267.46 -4.19779 4.43417 0
M  V30 13695 H 1268.88 -2.11062 5.33035 0
M  V30 13696 H 1267.27 -1.48479 5.81441 0
M  V30 13697 H 1268.34 -0.474541 4.82572 0
M  V30 13698 N 1269.69 -1.54705 -0.300681 0
M  V30 13699 C 1270.96 -1.6468 -1.05546 0
M  V30 13700 C 1271.34 -0.495292 -2.05207 0
M  V30 13701 O 1270.69 0.507944 -2.22783 0
M  V30 13702 C 1270.9 -3.02702 -1.73703 0
M  V30 13703 C 1272.25 -3.59527 -2.25888 0
M  V30 13704 O 1273.27 -3.05156 -1.83735 0
M  V30 13705 O 1272.13 -4.54727 -3.03126 0
M  V30 13706 H 1269.23 -0.667769 -0.487867 0
M  V30 13707 H 1271.77 -1.6705 -0.298743 0
M  V30 13708 H 1270.55 -3.7795 -1.01338 0
M  V30 13709 H 1270.17 -3.0411 -2.5613 0
M  V30 13710 N 1271.17 0.563888 -1.47167 0
M  V30 13711 C 1272.42 1.31766 -1.5271 0
M  V30 13712 C 1272.73 1.94664 -0.191164 0
M  V30 13713 O 1273.93 2.71214 -0.124543 0
M  V30 13714 C 1272.39 2.38907 -2.69168 0
M  V30 13715 C 1272 1.8223 -4.09263 0
M  V30 13716 C 1273.74 3.15508 -2.83999 0
M  V30 13717 C 1271.65 2.87111 -5.17031 0
M  V30 13718 H 1270.58 0.495421 -0.568396 0
M  V30 13719 H 1273.23 0.599665 -1.73425 0
M  V30 13720 H 1271.61 3.13591 -2.4182 0
M  V30 13721 H 1272.79 1.13963 -4.46485 0
M  V30 13722 H 1271.1 1.18235 -3.99261 0
M  V30 13723 H 1273.7 3.93816 -3.61681 0
M  V30 13724 H 1274.04 3.69277 -1.92197 0
M  V30 13725 H 1274.57 2.47934 -3.11085 0
M  V30 13726 H 1271.31 2.38204 -6.10687 0
M  V30 13727 H 1270.83 3.53809 -4.84334 0
M  V30 13728 H 1272.51 3.50724 -5.43692 0
M  V30 13729 N 1272.64 1.35187 0.810078 0
M  V30 13730 C 1273.59 1.24366 1.91094 0
M  V30 13731 C 1274.58 0.139718 1.60292 0
M  V30 13732 O 1275.77 0.370609 1.73077 0
M  V30 13733 C 1272.9 1.01434 3.27973 0
M  V30 13734 C 1271.99 2.16203 3.64852 0
M  V30 13735 N 1272.38 3.41408 3.73195 0
M  V30 13736 C 1270.67 2.07512 3.94784 0
M  V30 13737 C 1271.38 4.16858 4.05714 0
M  V30 13738 N 1270.35 3.45579 4.19614 0
M  V30 13739 H 1274.15 2.19232 1.95741 0
M  V30 13740 H 1271.67 1.2761 1.00447 0
M  V30 13741 H 1273.66 0.91771 4.06674 0
M  V30 13742 H 1272.32 0.074495 3.24615 0
M  V30 13743 H 1273.34 3.75802 3.56361 0
M  V30 13744 H 1270.01 1.21362 3.99472 0
M  V30 13745 H 1271.4 5.25039 4.19266 0
M  V30 13746 N 1274.12 -1.03182 1.19127 0
M  V30 13747 C 1275.05 -2.13301 0.94999 0
M  V30 13748 C 1276.03 -1.69707 -0.115577 0
M  V30 13749 O 1277.22 -1.94161 0.0388395 0
M  V30 13750 C 1274.35 -3.43902 0.484637 0
M  V30 13751 C 1273.3 -4.01164 1.4917 0
M  V30 13752 C 1272.63 -5.2735 0.883537 0
M  V30 13753 C 1273.93 -4.36311 2.87107 0
M  V30 13754 H 1275.62 -2.33743 1.87095 0
M  V30 13755 H 1273.17 -1.12332 0.900977 0
M  V30 13756 H 1275.12 -4.20308 0.30315 0
M  V30 13757 H 1273.85 -3.23173 -0.471909 0
M  V30 13758 H 1272.5 -3.26849 1.66028 0
M  V30 13759 H 1272.15 -5.02936 -0.0804712 0
M  V30 13760 H 1271.85 -5.66624 1.55599 0
M  V30 13761 H 1273.38 -6.06425 0.71278 0
M  V30 13762 H 1274.79 -5.03666 2.73848 0
M  V30 13763 H 1273.19 -4.86659 3.51117 0
M  V30 13764 H 1274.26 -3.45743 3.39985 0
M  V30 13765 N 1275.6 -0.99472 -1.22242 0
M  V30 13766 C 1276.83 -0.689809 -1.95592 0
M  V30 13767 C 1277.25 0.739321 -1.72961 0
M  V30 13768 O 1276.61 1.50563 -1.00997 0
M  V30 13769 C 1276.66 -1.00367 -3.46351 0
M  V30 13770 O 1275.76 -0.103326 -4.12271 0
M  V30 13771 H 1275.1 -0.257997 -0.611828 0
M  V30 13772 H 1277.63 -1.33219 -1.55286 0
M  V30 13773 H 1277.64 -0.946259 -3.96875 0
M  V30 13774 H 1276.32 -2.04504 -3.62148 0
M  V30 13775 H 1274.89 -0.216374 -3.72272 0
M  V30 13776 N 1277.08 1.37613 -0.768148 0
M  V30 13777 C 1278.36 1.93921 -0.255724 0
M  V30 13778 C 1278.74 1.70215 1.2486 0
M  V30 13779 O 1278.08 1.0489 2.03003 0
M  V30 13780 C 1278.29 3.43354 -0.625204 0
M  V30 13781 C 1279.64 4.20439 -0.592978 0
M  V30 13782 O 1280.67 3.51701 -0.564375 0
M  V30 13783 O 1279.52 5.43008 -0.616849 0
M  V30 13784 H 1276.62 0.824968 -0.0579366 0
M  V30 13785 H 1279.16 1.46921 -0.849257 0
M  V30 13786 H 1277.94 3.54177 -1.66356 0
M  V30 13787 H 1277.56 3.976 -0.00442816 0
M  V30 13788 N 1278.56 0.518393 1.4883 0
M  V30 13789 C 1279.51 -0.270295 2.26392 0
M  V30 13790 C 1280.49 -0.9202 1.31989 0
M  V30 13791 O 1281.68 -0.824923 1.56601 0
M  V30 13792 C 1278.81 -1.32368 3.16755 0
M  V30 13793 C 1277.9 -0.679143 4.18627 0
M  V30 13794 N 1278.29 0.228392 5.05284 0
M  V30 13795 C 1276.59 -0.937712 4.36031 0
M  V30 13796 C 1277.29 0.599076 5.78607 0
M  V30 13797 N 1276.26 -0.0371273 5.43587 0
M  V30 13798 H 1280.07 0.428066 2.90766 0
M  V30 13799 H 1277.58 0.335632 1.58894 0
M  V30 13800 H 1279.58 -1.9023 3.70969 0
M  V30 13801 H 1278.24 -2.02354 2.53935 0
M  V30 13802 H 1279.25 0.600292 5.14409 0
M  V30 13803 H 1275.92 -1.62901 3.84408 0
M  V30 13804 H 1277.31 1.34256 6.5835 0
M  V30 13805 N 1280.03 -1.55556 0.252993 0
M  V30 13806 C 1280.96 -2.24613 -0.638047 0
M  V30 13807 C 1281.95 -1.22852 -1.1765 0
M  V30 13808 O 1283.13 -1.51519 -1.21472 0
M  V30 13809 C 1280.26 -2.95029 -1.83236 0
M  V30 13810 C 1279.21 -4.03531 -1.42641 0
M  V30 13811 C 1278.54 -4.61404 -2.70204 0
M  V30 13812 C 1279.84 -5.18923 -0.592958 0
M  V30 13813 H 1281.53 -2.99335 -0.0621918 0
M  V30 13814 H 1279.08 -1.43972 -0.0284722 0
M  V30 13815 H 1281.03 -3.42042 -2.46141 0
M  V30 13816 H 1279.76 -2.17805 -2.43369 0
M  V30 13817 H 1278.42 -3.57296 -0.820672 0
M  V30 13818 H 1278.06 -3.80874 -3.28548 0
M  V30 13819 H 1277.76 -5.34652 -2.43764 0
M  V30 13820 H 1279.29 -5.11154 -3.33997 0
M  V30 13821 H 1280.7 -5.62124 -1.12646 0
M  V30 13822 H 1279.1 -5.98598 -0.424358 0
M  V30 13823 H 1280.17 -4.83301 0.393434 0
M  V30 13824 N 1281.51 0.0200419 -1.57587 0
M  V30 13825 C 1282.45 1.05118 -2.02547 0
M  V30 13826 C 1283.42 1.3465 -0.911494 0
M  V30 13827 O 1284.61 1.47154 -1.17805 0
M  V30 13828 C 1281.73 2.38373 -2.40615 0
M  V30 13829 C 1280.78 2.24639 -3.62546 0
M  V30 13830 S 1281.61 1.59129 -5.1131 0
M  V30 13831 C 1282.77 2.93856 -5.5263 0
M  V30 13832 H 1283 0.668271 -2.89692 0
M  V30 13833 H 1280.54 0.230301 -1.52673 0
M  V30 13834 H 1282.49 3.15002 -2.63218 0
M  V30 13835 H 1281.15 2.7381 -1.53906 0
M  V30 13836 H 1280.35 3.23032 -3.86867 0
M  V30 13837 H 1279.95 1.56153 -3.39841 0
M  V30 13838 H 1282.24 3.90179 -5.53865 0
M  V30 13839 H 1283.18 2.74258 -6.52831 0
M  V30 13840 H 1283.59 2.96844 -4.8015 0
M  V30 13841 N 1282.99 1.54862 0.292472 0
M  V30 13842 C 1283.92 1.82786 1.38282 0
M  V30 13843 C 1284.94 0.711253 1.46441 0
M  V30 13844 O 1286.12 0.988851 1.48607 0
M  V30 13845 C 1283.22 1.95845 2.76582 0
M  V30 13846 C 1282.4 3.2633 2.91252 0
M  V30 13847 C 1281.46 3.29697 4.10105 0
M  V30 13848 O 1280.48 4.03184 4.01785 0
M  V30 13849 N 1281.68 2.557 5.21151 0
M  V30 13850 H 1284.45 2.76891 1.1468 0
M  V30 13851 H 1282.01 1.54541 0.482561 0
M  V30 13852 H 1284 1.95491 3.54352 0
M  V30 13853 H 1282.57 1.08696 2.93094 0
M  V30 13854 H 1281.79 3.39387 2.00525 0
M  V30 13855 H 1283.08 4.12421 2.9797 0
M  V30 13856 H 1282.48 1.95642 5.30792 0
M  V30 13857 H 1281.04 2.61089 5.97223 0
M  V30 13858 N 1284.47 -0.556076 1.47464 0
M  V30 13859 C 1285.43 -1.64515 1.59586 0
M  V30 13860 C 1286.43 -1.53751 0.470881 0
M  V30 13861 O 1287.62 -1.57889 0.735979 0
M  V30 13862 C 1284.75 -3.0406 1.54143 0
M  V30 13863 H 1285.95 -1.55116 2.56669 0
M  V30 13864 H 1283.5 -0.776087 1.35671 0
M  V30 13865 H 1284.23 -3.18991 0.584395 0
M  V30 13866 H 1284.02 -3.13282 2.3579 0
M  V30 13867 H 1285.51 -3.8329 1.65766 0
M  V30 13868 N 1285.95 -1.35615 -0.802897 0
M  V30 13869 C 1287.2 -1.28839 -1.55708 0
M  V30 13870 C 1287.52 0.135906 -1.94526 0
M  V30 13871 O 1286.79 1.07317 -1.6389 0
M  V30 13872 H 1285.37 -0.473906 -0.577427 0
M  V30 13873 H 1288.03 -1.69759 -0.957487 0
M  V30 13874 H 1287.12 -1.90675 -2.47082 0
M  V30 13875 N 1287.43 1.02549 -1.19673 0
M  V30 13876 C 1288.67 1.75408 -0.995732 0
M  V30 13877 C 1288.99 1.89773 0.473863 0
M  V30 13878 O 1290.19 2.59638 0.793762 0
M  V30 13879 C 1288.65 3.15444 -1.73273 0
M  V30 13880 C 1288.26 3.09121 -3.24266 0
M  V30 13881 C 1290 3.92575 -1.61509 0
M  V30 13882 C 1287.91 4.44109 -3.9054 0
M  V30 13883 H 1286.84 0.657569 -0.368944 0
M  V30 13884 H 1289.49 1.14739 -1.43203 0
M  V30 13885 H 1287.87 3.76601 -1.22425 0
M  V30 13886 H 1289.05 2.57325 -3.82257 0
M  V30 13887 H 1287.36 2.45485 -3.36342 0
M  V30 13888 H 1289.96 4.92428 -2.08372 0
M  V30 13889 H 1290.3 4.12382 -0.569804 0
M  V30 13890 H 1290.83 3.38027 -2.09721 0
M  V30 13891 H 1287.57 4.29506 -4.95182 0
M  V30 13892 H 1287.09 4.95947 -3.37337 0
M  V30 13893 H 1288.77 5.12982 -3.94282 0
M  V30 13894 N 1288.9 1.00119 1.21713 0
M  V30 13895 C 1289.83 0.578504 2.2622 0
M  V30 13896 C 1290.81 -0.398777 1.6536 0
M  V30 13897 O 1292 -0.287596 1.92059 0
M  V30 13898 C 1289.13 -0.0994508 3.47158 0
M  V30 13899 C 1288.08 0.79722 4.2051 0
M  V30 13900 C 1287.41 -0.0141125 5.34698 0
M  V30 13901 C 1288.71 2.09802 4.7831 0
M  V30 13902 H 1290.4 1.45208 2.6183 0
M  V30 13903 H 1287.95 0.699656 1.2586 0
M  V30 13904 H 1289.9 -0.406605 4.19434 0
M  V30 13905 H 1288.63 -1.00763 3.10667 0
M  V30 13906 H 1287.29 1.08814 3.50079 0
M  V30 13907 H 1286.93 -0.923468 4.9445 0
M  V30 13908 H 1286.63 0.582883 5.84702 0
M  V30 13909 H 1288.16 -0.31517 6.09786 0
M  V30 13910 H 1289.57 1.85427 5.42485 0
M  V30 13911 H 1287.97 2.64455 5.38687 0
M  V30 13912 H 1289.04 2.77132 3.97902 0
M  V30 13913 N 1290.38 -1.37203 0.775435 0
M  V30 13914 C 1291.29 -2.34019 0.165062 0
M  V30 13915 C 1292.31 -1.6036 -0.675316 0
M  V30 13916 O 1293.48 -1.9243 -0.594375 0
M  V30 13917 C 1290.55 -3.3954 -0.700957 0
M  V30 13918 C 1289.61 -4.29015 0.156304 0
M  V30 13919 C 1288.84 -5.29497 -0.668476 0
M  V30 13920 O 1289.07 -5.37636 -1.90535 0
M  V30 13921 O 1288 -6.01852 -0.0757351 0
M  V30 13922 H 1291.83 -2.87955 0.965184 0
M  V30 13923 H 1289.41 -1.39429 0.536654 0
M  V30 13924 H 1291.29 -4.04094 -1.19524 0
M  V30 13925 H 1289.97 -2.87926 -1.4792 0
M  V30 13926 H 1288.87 -3.67549 0.69703 0
M  V30 13927 H 1290.21 -4.83944 0.897725 0
M  V30 13928 N 1291.86 -0.526279 -1.48553 0
M  V30 13929 C 1292.79 0.227364 -2.3239 0
M  V30 13930 C 1293.77 0.93862 -1.41859 0
M  V30 13931 O 1294.96 0.925119 -1.70749 0
M  V30 13932 C 1292.09 1.277 -3.22971 0
M  V30 13933 C 1291.04 0.684107 -4.22497 0
M  V30 13934 C 1290.37 1.83612 -5.02186 0
M  V30 13935 C 1291.67 -0.341723 -5.21181 0
M  V30 13936 H 1293.36 -0.472486 -2.95648 0
M  V30 13937 H 1290.91 -0.228669 -1.42173 0
M  V30 13938 H 1292.86 1.81215 -3.80446 0
M  V30 13939 H 1291.58 2.00638 -2.57705 0
M  V30 13940 H 1290.24 0.170505 -3.66203 0
M  V30 13941 H 1289.89 2.55379 -4.33348 0
M  V30 13942 H 1289.59 1.44536 -5.69547 0
M  V30 13943 H 1291.11 2.37513 -5.62512 0
M  V30 13944 H 1292.53 0.106207 -5.73202 0
M  V30 13945 H 1290.92 -0.649673 -5.96573 0
M  V30 13946 H 1291.99 -1.2488 -4.68543 0
M  V30 13947 N 1293.34 1.5542 -0.261239 0
M  V30 13948 C 1294.27 2.24949 0.626126 0
M  V30 13949 C 1295.25 1.23474 1.16997 0
M  V30 13950 O 1296.43 1.52161 1.20667 0
M  V30 13951 C 1293.56 2.95996 1.81669 0
M  V30 13952 C 1292.52 4.04282 1.40499 0
M  V30 13953 C 1291.84 4.62831 2.67753 0
M  V30 13954 C 1293.14 5.1923 0.56543 0
M  V30 13955 H 1294.84 2.99364 0.0463164 0
M  V30 13956 H 1292.38 1.43985 0.0208366 0
M  V30 13957 H 1294.34 3.43343 2.44323 0
M  V30 13958 H 1293.06 2.19093 2.42211 0
M  V30 13959 H 1291.72 3.57726 0.801712 0
M  V30 13960 H 1291.37 3.82611 3.26524 0
M  V30 13961 H 1291.07 5.35938 2.40925 0
M  V30 13962 H 1292.59 5.12918 3.31281 0
M  V30 13963 H 1294.01 5.62714 1.09663 0
M  V30 13964 H 1292.4 5.98814 0.392607 0
M  V30 13965 H 1293.47 4.83086 -0.419059 0
M  V30 13966 N 1294.82 -0.0116844 1.57596 0
M  V30 13967 C 1296.23 -0.367602 1.55309 0
M  V30 13968 C 1296.43 -1.75524 0.98962 0
M  V30 13969 O 1295.49 -2.44813 0.618289 0
M  V30 13970 C 1296.8 -0.253532 2.99629 0
M  V30 13971 C 1298.35 -0.329335 3.11263 0
M  V30 13972 C 1298.82 -0.24452 4.57347 0
M  V30 13973 N 1300.31 -0.302782 4.62209 0
M  V30 13974 C 1301.05 -0.260315 5.72809 0
M  V30 13975 N 1300.55 -0.169124 6.92594 0
M  V30 13976 N 1302.34 -0.311323 5.61237 0
M  V30 13977 H 1294.49 0.896204 1.92567 0
M  V30 13978 H 1296.75 0.342445 0.883988 0
M  V30 13979 H 1296.46 0.70074 3.44648 0
M  V30 13980 H 1296.33 -1.04029 3.62571 0
M  V30 13981 H 1298.72 -1.27405 2.66181 0
M  V30 13982 H 1298.8 0.487084 2.5112 0
M  V30 13983 H 1298.44 0.696597 5.031 0
M  V30 13984 H 1298.37 -1.07927 5.15421 0
M  V30 13985 H 1300.87 -0.375067 3.76034 0
M  V30 13986 H 1301.18 -0.142296 7.72669 0
M  V30 13987 H 1299.52 -0.134919 6.94869 0
M  V30 13988 H 1302.71 -0.380678 4.6655 0
M  V30 13989 H 1302.89 -0.274761 6.47417 0
M  V30 13990 N 1296.29 -1.55015 -0.284256 0
M  V30 13991 C 1297.57 -1.6579 -1.03794 0
M  V30 13992 C 1297.95 -0.517029 -2.04671 0
M  V30 13993 O 1297.3 0.484287 -2.23309 0
M  V30 13994 C 1297.51 -3.04527 -1.70483 0
M  V30 13995 C 1298.86 -3.61903 -2.22062 0
M  V30 13996 O 1299.88 -3.07087 -1.80488 0
M  V30 13997 O 1298.74 -4.57917 -2.98286 0
M  V30 13998 H 1295.83 -0.672906 -0.480757 0
M  V30 13999 H 1298.38 -1.67357 -0.281009 0
M  V30 14000 H 1297.15 -3.79004 -0.973238 0
M  V30 14001 H 1296.77 -3.0681 -2.5289 0
M  V30 14002 N 1297.77 0.548248 -1.47757 0
M  V30 14003 C 1299.05 1.3092 -1.45325 0
M  V30 14004 C 1299.43 2.1053 -0.155008 0
M  V30 14005 O 1298.78 2.11558 0.863455 0
M  V30 14006 C 1298.99 2.20614 -2.70426 0
M  V30 14007 C 1300.33 2.81345 -3.18009 0
M  V30 14008 O 1301.36 2.30911 -2.71216 0
M  V30 14009 O 1300.22 3.73036 -3.99383 0
M  V30 14010 H 1297.31 0.58996 -0.579548 0
M  V30 14011 H 1299.86 0.56641 -1.59968 0
M  V30 14012 H 1298.63 1.61449 -3.56441 0
M  V30 14013 H 1298.25 3.02173 -2.58413 0
M  V30 14014 N 1299.25 1.36039 0.795694 0
M  V30 14015 C 1300.2 1.29853 1.90806 0
M  V30 14016 C 1301.17 0.168387 1.65244 0
M  V30 14017 O 1302.35 0.353879 1.8749 0
M  V30 14018 C 1299.49 1.08737 3.27521 0
M  V30 14019 C 1298.6 2.30771 3.65197 0
M  V30 14020 C 1297.74 2.02718 4.90998 0
M  V30 14021 C 1296.78 3.20746 5.21333 0
M  V30 14022 N 1295.92 2.92399 6.38316 0
M  V30 14023 H 1300.76 2.2497 1.95429 0
M  V30 14024 H 1298.29 1.11819 0.955771 0
M  V30 14025 H 1300.25 0.945236 4.06351 0
M  V30 14026 H 1298.88 0.172781 3.22337 0
M  V30 14027 H 1297.93 2.5581 2.81541 0
M  V30 14028 H 1299.24 3.18869 3.83568 0
M  V30 14029 H 1298.4 1.85398 5.77679 0
M  V30 14030 H 1297.14 1.11921 4.74684 0
M  V30 14031 H 1296.14 3.38632 4.33138 0
M  V30 14032 H 1297.37 4.1236 5.3957 0
M  V30 14033 H 1295.31 2.04207 6.23406 0
M  V30 14034 H 1295.23 3.74034 6.56989 0
M  V30 14035 H 1296.5 2.78643 7.27996 0
M  V30 14036 N 1300.73 -1.01913 1.20215 0
M  V30 14037 C 1302.14 -1.27766 0.956459 0
M  V30 14038 C 1302.34 -1.98158 -0.365486 0
M  V30 14039 O 1301.4 -2.27539 -1.09463 0
M  V30 14040 C 1302.71 -2.11516 2.13732 0
M  V30 14041 C 1304.26 -2.24792 2.17802 0
M  V30 14042 C 1304.74 -3.11919 3.35367 0
M  V30 14043 N 1306.23 -3.19507 3.35364 0
M  V30 14044 C 1306.96 -3.8714 4.22978 0
M  V30 14045 N 1306.46 -4.5692 5.20765 0
M  V30 14046 N 1308.25 -3.83638 4.10827 0
M  V30 14047 H 1300.4 -0.546426 2.05251 0
M  V30 14048 H 1302.67 -0.303772 0.898012 0
M  V30 14049 H 1302.37 -1.67127 3.09453 0
M  V30 14050 H 1302.25 -3.12249 2.11614 0
M  V30 14051 H 1304.63 -2.68407 1.22645 0
M  V30 14052 H 1304.71 -1.23576 2.2397 0
M  V30 14053 H 1304.36 -2.6901 4.30809 0
M  V30 14054 H 1304.29 -4.13215 3.26436 0
M  V30 14055 H 1306.78 -2.69819 2.64587 0
M  V30 14056 H 1307.09 -5.06188 5.83947 0
M  V30 14057 H 1305.44 -4.55753 5.24704 0
M  V30 14058 H 1308.63 -3.28268 3.33703 0
M  V30 14059 H 1308.8 -4.36071 4.79318 0
M  V30 14060 N 1302.21 -1.00763 -1.2118 0
M  V30 14061 C 1303.43 -0.710746 -1.94309 0
M  V30 14062 C 1303.85 0.727103 -1.74237 0
M  V30 14063 O 1303.21 1.49223 -1.05065 0
M  V30 14064 C 1303.26 -1.02562 -3.46646 0
M  V30 14065 O 1302.98 -2.40699 -3.66054 0
M  V30 14066 C 1304.48 -0.748517 -4.36935 0
M  V30 14067 H 1301.7 -0.26171 -0.617858 0
M  V30 14068 H 1304.24 -1.34639 -1.53924 0
M  V30 14069 H 1302.4 -0.435537 -3.84944 0
M  V30 14070 H 1302.81 -2.51764 -4.60125 0
M  V30 14071 H 1304.29 -1.01899 -5.42513 0
M  V30 14072 H 1304.76 0.317423 -4.38051 0
M  V30 14073 H 1305.37 -1.32033 -4.04286 0
M  V30 14074 N 1303.68 1.3679 -0.7827 0
M  V30 14075 C 1304.93 1.99712 -0.352533 0
M  V30 14076 C 1305.26 1.61984 1.0712 0
M  V30 14077 O 1304.54 0.871342 1.7389 0
M  V30 14078 C 1304.82 3.5649 -0.508628 0
M  V30 14079 C 1304.67 4.04093 -1.97557 0
M  V30 14080 C 1305.99 4.40026 0.0804447 0
M  V30 14081 H 1303.11 0.725522 -0.129566 0
M  V30 14082 H 1305.75 1.62305 -0.987788 0
M  V30 14083 H 1303.9 3.88487 0.0321664 0
M  V30 14084 H 1305.58 3.82613 -2.57691 0
M  V30 14085 H 1303.82 3.55881 -2.48055 0
M  V30 14086 H 1304.49 5.13088 -2.03579 0
M  V30 14087 H 1306.97 4.14351 -0.381113 0
M  V30 14088 H 1305.84 5.48868 -0.0588424 0
M  V30 14089 H 1306.1 4.26285 1.17189 0
M  V30 14090 N 1305.16 0.53415 1.48272 0
M  V30 14091 C 1306.41 0.00157492 2.028 0
M  V30 14092 C 1306.74 -1.33538 1.41001 0
M  V30 14093 O 1306.02 -1.86347 0.557245 0
M  V30 14094 C 1306.3 -0.116016 3.59913 0
M  V30 14095 C 1306.15 1.2464 4.32186 0
M  V30 14096 C 1307.47 -0.840775 4.31994 0
M  V30 14097 H 1304.59 0.00204634 0.736997 0
M  V30 14098 H 1307.23 0.691985 1.76951 0
M  V30 14099 H 1305.38 -0.704027 3.82068 0
M  V30 14100 H 1307.05 1.87584 4.21438 0
M  V30 14101 H 1305.3 1.8272 3.93441 0
M  V30 14102 H 1305.97 1.11708 5.40579 0
M  V30 14103 H 1308.44 -0.341746 4.14694 0
M  V30 14104 H 1307.32 -0.89196 5.41604 0
M  V30 14105 H 1307.58 -1.89197 3.99571 0
M  V30 14106 N 1306.64 -1.55279 0.269478 0
M  V30 14107 C 1307.57 -2.25278 -0.614188 0
M  V30 14108 C 1308.55 -1.24092 -1.1634 0
M  V30 14109 O 1309.74 -1.52799 -1.19858 0
M  V30 14110 C 1306.87 -2.96956 -1.80096 0
M  V30 14111 C 1305.82 -4.05021 -1.38353 0
M  V30 14112 C 1305.15 -4.64244 -2.65295 0
M  V30 14113 C 1306.45 -5.19523 -0.537886 0
M  V30 14114 H 1308.14 -2.99385 -0.0304397 0
M  V30 14115 H 1305.69 -1.43994 -0.0132004 0
M  V30 14116 H 1307.64 -3.44633 -2.42499 0
M  V30 14117 H 1306.36 -2.20374 -2.41045 0
M  V30 14118 H 1305.02 -3.58146 -0.78273 0
M  V30 14119 H 1304.67 -3.84337 -3.2449 0
M  V30 14120 H 1304.37 -5.37208 -2.38079 0
M  V30 14121 H 1305.89 -5.14668 -3.28557 0
M  V30 14122 H 1307.31 -5.63287 -1.06677 0
M  V30 14123 H 1305.71 -5.99014 -0.360845 0
M  V30 14124 H 1306.78 -4.82857 0.444672 0
M  V30 14125 N 1308.12 0.00332656 -1.576 0
M  V30 14126 C 1309.36 0.68989 -1.90705 0
M  V30 14127 C 1309.7 1.73608 -0.870291 0
M  V30 14128 O 1308.97 1.94181 0.111416 0
M  V30 14129 C 1309.26 1.33605 -3.34397 0
M  V30 14130 C 1309.11 0.301638 -4.48787 0
M  V30 14131 C 1310.43 2.26313 -3.77453 0
M  V30 14132 H 1307.55 0.249328 -0.693545 0
M  V30 14133 H 1310.19 -0.0472847 -1.89941 0
M  V30 14134 H 1308.34 1.96437 -3.35179 0
M  V30 14135 H 1310.01 -0.326738 -4.60141 0
M  V30 14136 H 1308.25 -0.376451 -4.32163 0
M  V30 14137 H 1308.92 0.792741 -5.46278 0
M  V30 14138 H 1311.4 1.73502 -3.78201 0
M  V30 14139 H 1310.28 2.68492 -4.78752 0
M  V30 14140 H 1310.54 3.14082 -3.11135 0
M  V30 14141 N 1309.6 1.55164 0.276031 0
M  V30 14142 C 1310.82 1.79649 1.02635 0
M  V30 14143 C 1311.24 0.568289 1.80044 0
M  V30 14144 O 1310.6 -0.462569 1.7654 0
M  V30 14145 C 1310.65 3.01974 1.98731 0
M  V30 14146 O 1310.37 4.2005 1.24459 0
M  V30 14147 C 1311.87 3.39039 2.856 0
M  V30 14148 H 1309.09 0.598529 0.303321 0
M  V30 14149 H 1311.63 2.02171 0.307733 0
M  V30 14150 H 1309.79 2.81586 2.6606 0
M  V30 14151 H 1310.2 4.89185 1.89205 0
M  V30 14152 H 1311.68 4.27809 3.48831 0
M  V30 14153 H 1312.15 2.58306 3.55211 0
M  V30 14154 H 1312.76 3.61674 2.23767 0
M  V30 14155 N 1311.07 -0.540404 1.48045 0
M  V30 14156 C 1312.02 -1.64191 1.58194 0
M  V30 14157 C 1313.01 -1.54775 0.439703 0
M  V30 14158 O 1314.2 -1.62973 0.690572 0
M  V30 14159 C 1311.33 -3.02937 1.61505 0
M  V30 14160 C 1310.42 -3.17495 2.81172 0
M  V30 14161 N 1310.81 -3.02061 4.05701 0
M  V30 14162 C 1309.1 -3.4853 2.78286 0
M  V30 14163 C 1309.81 -3.19757 4.85932 0
M  V30 14164 N 1308.78 -3.46859 4.18557 0
M  V30 14165 H 1312.58 -1.50852 2.52232 0
M  V30 14166 H 1310.1 -0.745602 1.44272 0
M  V30 14167 H 1312.09 -3.82048 1.66868 0
M  V30 14168 H 1310.75 -3.17376 0.685753 0
M  V30 14169 H 1311.77 -2.79038 4.363 0
M  V30 14170 H 1308.44 -3.69391 1.94567 0
M  V30 14171 H 1309.83 -3.1265 5.94727 0
M  V30 14172 N 1312.55 -1.36459 -0.788468 0
M  V30 14173 C 1313.5 -1.30863 -1.90115 0
M  V30 14174 C 1314.47 -0.177148 -1.65153 0
M  V30 14175 O 1315.65 -0.363817 -1.87299 0
M  V30 14176 C 1312.79 -1.10473 -3.2694 0
M  V30 14177 C 1311.91 -2.32704 -3.63968 0
M  V30 14178 C 1311.04 -2.05319 -4.89916 0
M  V30 14179 C 1310.08 -3.23506 -5.19625 0
M  V30 14180 N 1309.22 -2.9578 -6.36756 0
M  V30 14181 H 1314.06 -2.26003 -1.94233 0
M  V30 14182 H 1311.6 -1.12324 -0.949827 0
M  V30 14183 H 1313.55 -0.966773 -4.05844 0
M  V30 14184 H 1312.18 -0.189873 -3.22241 0
M  V30 14185 H 1311.24 -2.573 -2.8018 0
M  V30 14186 H 1312.55 -3.20899 -3.81871 0
M  V30 14187 H 1311.7 -1.88459 -5.76687 0
M  V30 14188 H 1310.44 -1.14437 -4.74084 0
M  V30 14189 H 1309.45 -3.40924 -4.31336 0
M  V30 14190 H 1310.67 -4.15216 -5.37376 0
M  V30 14191 H 1308.62 -2.0751 -6.22315 0
M  V30 14192 H 1308.53 -3.77513 -6.54996 0
M  V30 14193 H 1309.8 -2.825 -7.26508 0
M  V30 14194 N 1314.03 1.01274 -1.20754 0
M  V30 14195 C 1314.96 2.11763 -0.983805 0
M  V30 14196 C 1315.94 1.69869 0.0885635 0
M  V30 14197 O 1317.13 1.94075 -0.0697239 0
M  V30 14198 C 1314.26 3.43087 -0.539287 0
M  V30 14199 C 1313.21 3.9874 -1.55534 0
M  V30 14200 C 1312.54 5.25877 -0.967322 0
M  V30 14201 C 1313.84 4.31688 -2.94012 0
M  V30 14202 H 1315.53 2.30737 -1.90789 0
M  V30 14203 H 1313.08 1.10884 -0.918734 0
M  V30 14204 H 1315.03 4.19773 -0.369979 0
M  V30 14205 H 1313.75 3.23883 0.420435 0
M  V30 14206 H 1312.41 3.24166 -1.71207 0
M  V30 14207 H 1312.06 5.03 0.000448307 0
M  V30 14208 H 1311.76 5.64077 -1.64594 0
M  V30 14209 H 1313.28 6.05215 -0.809167 0
M  V30 14210 H 1314.7 4.99246 -2.81827 0
M  V30 14211 H 1313.1 4.81011 -3.58815 0
M  V30 14212 H 1314.17 3.4029 -3.45442 0
M  V30 14213 N 1315.51 1.01404 1.20644 0
M  V30 14214 C 1316.44 0.540288 2.22741 0
M  V30 14215 C 1317.45 -0.375953 1.584 0
M  V30 14216 O 1318.64 -0.174708 1.77643 0
M  V30 14217 C 1315.74 -0.233766 3.38093 0
M  V30 14218 C 1314.92 0.683759 4.32023 0
M  V30 14219 C 1313.98 -0.0422681 5.26183 0
M  V30 14220 O 1313 0.579392 5.66243 0
M  V30 14221 N 1314.2 -1.31794 5.65341 0
M  V30 14222 H 1316.97 1.41831 2.64015 0
M  V30 14223 H 1314.53 0.891265 1.35159 0
M  V30 14224 H 1316.52 -0.728645 3.98087 0
M  V30 14225 H 1315.09 -1.01306 2.9573 0
M  V30 14226 H 1314.31 1.35899 3.70034 0
M  V30 14227 H 1315.6 1.30786 4.91704 0
M  V30 14228 H 1315 -1.84399 5.34802 0
M  V30 14229 H 1313.55 -1.7576 6.27656 0
M  V30 14230 N 1316.99 -1.36373 0.789944 0
M  V30 14231 C 1318.22 -2.03187 0.373987 0
M  V30 14232 C 1318.63 -1.59697 -1.01457 0
M  V30 14233 O 1317.97 -0.782151 -1.66217 0
M  V30 14234 C 1318.03 -3.57703 0.358985 0
M  V30 14235 C 1317.69 -4.24396 1.69521 0
M  V30 14236 C 1318.69 -4.47247 2.65077 0
M  V30 14237 C 1316.38 -4.61858 1.97465 0
M  V30 14238 C 1318.37 -5.06642 3.86772 0
M  V30 14239 C 1316.06 -5.2097 3.19426 0
M  V30 14240 C 1317.06 -5.43302 4.13899 0
M  V30 14241 O 1316.74 -6.01173 5.3371 0
M  V30 14242 H 1316.48 -0.658654 0.152153 0
M  V30 14243 H 1319.03 -1.7532 1.07014 0
M  V30 14244 H 1317.26 -3.84691 -0.39366 0
M  V30 14245 H 1318.95 -4.05887 -0.0323762 0
M  V30 14246 H 1319.71 -4.18701 2.44775 0
M  V30 14247 H 1315.59 -4.438 1.2475 0
M  V30 14248 H 1319.14 -5.23989 4.60523 0
M  V30 14249 H 1315.03 -5.48943 3.39606 0
M  V30 14250 H 1315.8 -6.19638 5.34781 0
M  V30 14251 N 1318.47 -0.542005 -1.47987 0
M  V30 14252 C 1319.4 0.202703 -2.32618 0
M  V30 14253 C 1320.38 0.923521 -1.42846 0
M  V30 14254 O 1321.56 0.906957 -1.7172 0
M  V30 14255 C 1318.69 1.24267 -3.24307 0
M  V30 14256 C 1317.65 0.639257 -4.23199 0
M  V30 14257 C 1316.97 1.78275 -5.04105 0
M  V30 14258 C 1318.27 -0.396982 -5.20789 0
M  V30 14259 H 1319.97 -0.503817 -2.95131 0
M  V30 14260 H 1317.51 -0.243736 -1.41922 0
M  V30 14261 H 1319.46 1.7717 -3.82347 0
M  V30 14262 H 1318.19 1.97893 -2.59819 0
M  V30 14263 H 1316.85 0.131655 -3.66364 0
M  V30 14264 H 1316.5 2.50768 -4.36032 0
M  V30 14265 H 1316.2 1.38487 -5.71047 0
M  V30 14266 H 1317.72 2.31533 -5.65 0
M  V30 14267 H 1319.13 0.0454057 -5.73282 0
M  V30 14268 H 1317.53 -0.712911 -5.9585 0
M  V30 14269 H 1318.6 -1.29843 -4.67193 0
M  V30 14270 N 1319.94 1.55134 -0.277709 0
M  V30 14271 C 1321.35 1.85405 0.219543 0
M  V30 14272 C 1321.71 1.19973 1.55245 0
M  V30 14273 O 1320.83 0.488986 2.10803 0
M  V30 14274 C 1321.43 3.36369 0.405127 0
M  V30 14275 C 1319.98 3.66755 0.846609 0
M  V30 14276 C 1319.13 2.77238 -0.0586063 0
M  V30 14277 H 1322.08 1.50637 -0.499422 0
M  V30 14278 H 1322.1 3.59615 1.24329 0
M  V30 14279 H 1321.62 3.83963 -0.565138 0
M  V30 14280 H 1319.72 3.24662 1.82825 0
M  V30 14281 H 1319.83 4.74219 0.682135 0
M  V30 14282 H 1318.19 2.50546 0.458153 0
M  V30 14283 H 1318.98 3.27647 -1.0248 0
M  V30 14284 N 1321.42 0.00503138 1.57599 0
M  V30 14285 C 1322.37 -0.993379 2.05222 0
M  V30 14286 C 1323.36 -1.30013 0.947919 0
M  V30 14287 O 1324.55 -1.29027 1.21166 0
M  V30 14288 C 1321.68 -2.28375 2.5632 0
M  V30 14289 C 1320.76 -2.00642 3.73636 0
M  V30 14290 N 1321.15 -1.43087 4.85139 0
M  V30 14291 C 1319.45 -2.30759 3.81662 0
M  V30 14292 C 1320.15 -1.31939 5.66539 0
M  V30 14293 N 1319.13 -1.80672 5.12697 0
M  V30 14294 H 1322.93 -0.542951 2.88841 0
M  V30 14295 H 1320.44 -0.20055 1.61157 0
M  V30 14296 H 1322.44 -3.00748 2.88715 0
M  V30 14297 H 1321.1 -2.74066 1.74121 0
M  V30 14298 H 1322.11 -1.10901 5.05887 0
M  V30 14299 H 1318.79 -2.7929 3.10327 0
M  V30 14300 H 1320.18 -0.876391 6.6616 0
M  V30 14301 N 1322.9 -1.55308 -0.267798 0
M  V30 14302 C 1323.86 -1.87765 -1.31442 0
M  V30 14303 C 1324.86 -0.752571 -1.42102 0
M  V30 14304 O 1326.05 -1.02072 -1.41163 0
M  V30 14305 C 1323.18 -2.08754 -2.69508 0
M  V30 14306 H 1324.38 -2.8133 -1.03891 0
M  V30 14307 H 1321.93 -1.47879 -0.506111 0
M  V30 14308 H 1322.67 -1.17588 -3.02231 0
M  V30 14309 H 1322.45 -2.90674 -2.63156 0
M  V30 14310 H 1323.94 -2.3512 -3.4512 0
M  V30 14311 N 1324.38 0.532545 -1.4833 0
M  V30 14312 C 1325.65 1.29371 -1.46705 0
M  V30 14313 C 1326.03 2.10354 -0.177329 0
M  V30 14314 O 1325.38 2.12462 0.840968 0
M  V30 14315 C 1325.59 2.17733 -2.72751 0
M  V30 14316 C 1326.94 2.77956 -3.20976 0
M  V30 14317 O 1327.96 2.28022 -2.7365 0
M  V30 14318 O 1326.82 3.68779 -4.03317 0
M  V30 14319 H 1323.92 0.58378 -0.585773 0
M  V30 14320 H 1326.46 0.549411 -1.6056 0
M  V30 14321 H 1325.24 1.57659 -3.58133 0
M  V30 14322 H 1324.86 2.99415 -2.61603 0
M  V30 14323 N 1325.86 1.36875 0.78122 0
M  V30 14324 C 1327.1 1.32761 1.54097 0
M  V30 14325 C 1327.46 -0.0900914 1.92189 0
M  V30 14326 O 1326.75 -1.04655 1.60492 0
M  V30 14327 C 1326.94 2.19173 2.82309 0
M  V30 14328 C 1326.77 3.69203 2.56747 0
M  V30 14329 C 1325.54 4.38349 2.51353 0
M  V30 14330 C 1327.74 4.62283 2.25386 0
M  V30 14331 N 1325.72 5.73974 2.17776 0
M  V30 14332 C 1327.09 5.86216 2.01867 0
M  V30 14333 C 1329.15 4.50764 2.11462 0
M  V30 14334 C 1327.85 6.99923 1.65832 0
M  V30 14335 C 1329.88 5.64346 1.76825 0
M  V30 14336 C 1329.24 6.87324 1.5416 0
M  V30 14337 H 1325.34 0.541089 0.564577 0
M  V30 14338 H 1327.92 1.72006 0.912249 0
M  V30 14339 H 1326.09 1.82159 3.43034 0
M  V30 14340 H 1327.83 2.06388 3.48118 0
M  V30 14341 H 1324.58 3.91243 2.66882 0
M  V30 14342 H 1325 6.45624 2.03711 0
M  V30 14343 H 1329.65 3.56266 2.27672 0
M  V30 14344 H 1327.36 7.94364 1.4836 0
M  V30 14345 H 1330.95 5.574 1.66723 0
M  V30 14346 H 1329.83 7.73724 1.27753 0
M  V30 14347 N 1327.33 -1.00632 1.21289 0
M  V30 14348 C 1328.58 -1.73802 1.02351 0
M  V30 14349 C 1328.9 -1.90503 -0.443611 0
M  V30 14350 O 1330.1 -2.60868 -0.752356 0
M  V30 14351 C 1328.56 -3.12647 1.78269 0
M  V30 14352 C 1328.17 -3.03923 3.29142 0
M  V30 14353 C 1329.91 -3.89956 1.67735 0
M  V30 14354 C 1327.82 -4.3784 3.97556 0
M  V30 14355 H 1326.75 -0.651616 0.379358 0
M  V30 14356 H 1329.4 -1.12446 1.45011 0
M  V30 14357 H 1327.78 -3.74605 1.28401 0
M  V30 14358 H 1328.95 -2.51211 3.86303 0
M  V30 14359 H 1327.27 -2.40103 3.40205 0
M  V30 14360 H 1329.87 -4.89051 2.1618 0
M  V30 14361 H 1330.21 -4.11423 0.635338 0
M  V30 14362 H 1330.74 -3.34647 2.15072 0
M  V30 14363 H 1327.48 -4.21573 5.01952 0
M  V30 14364 H 1327 -4.90518 3.45184 0
M  V30 14365 H 1328.68 -5.06644 4.02393 0
M  V30 14366 N 1328.81 -1.02043 -1.20104 0
M  V30 14367 C 1330.06 -0.707271 -1.88893 0
M  V30 14368 C 1330.37 0.766617 -1.79951 0
M  V30 14369 O 1331.58 1.19248 -2.4391 0
M  V30 14370 C 1330.04 -1.2147 -3.38782 0
M  V30 14371 C 1329.64 -2.71576 -3.56301 0
M  V30 14372 C 1331.39 -0.977146 -4.13101 0
M  V30 14373 C 1329.29 -3.15781 -5.00037 0
M  V30 14374 H 1328.22 -0.26086 -0.707438 0
M  V30 14375 H 1330.88 -1.23361 -1.35846 0
M  V30 14376 H 1329.26 -0.616315 -3.91175 0
M  V30 14377 H 1330.43 -3.36997 -3.14276 0
M  V30 14378 H 1328.75 -2.93517 -2.95359 0
M  V30 14379 H 1331.34 -1.28278 -5.19085 0
M  V30 14380 H 1331.69 0.0862909 -4.16211 0
M  V30 14381 H 1332.22 -1.5391 -3.6682 0
M  V30 14382 H 1328.96 -4.21417 -5.02084 0
M  V30 14383 H 1328.48 -2.55083 -5.42856 0
M  V30 14384 H 1330.16 -3.08637 -5.6864 0
M  V30 14385 N 1330.29 1.35952 -0.797165 0
M  V30 14386 C 1331.25 2.28266 -0.206748 0
M  V30 14387 C 1332.25 1.49169 0.60043 0
M  V30 14388 O 1333.44 1.69054 0.42029 0
M  V30 14389 C 1330.58 3.33363 0.712884 0
M  V30 14390 H 1331.77 2.81992 -1.02082 0
M  V30 14391 H 1329.32 1.45648 -0.567138 0
M  V30 14392 H 1330.06 2.84806 1.551 0
M  V30 14393 H 1329.84 3.91864 0.135926 0
M  V30 14394 H 1331.33 4.02284 1.1206 0
M  V30 14395 N 1331.77 0.549846 1.47697 0
M  V30 14396 C 1332.7 -0.249645 2.2683 0
M  V30 14397 C 1333.68 -0.926968 1.33589 0
M  V30 14398 O 1334.86 -0.947423 1.62961 0
M  V30 14399 C 1331.99 -1.35511 3.1041 0
M  V30 14400 C 1331.04 -0.787118 4.19174 0
M  V30 14401 S 1331.87 0.360564 5.34285 0
M  V30 14402 C 1333.03 -0.746898 6.21428 0
M  V30 14403 H 1333.26 0.421876 2.94292 0
M  V30 14404 H 1330.79 0.336017 1.50699 0
M  V30 14405 H 1332.75 -1.98825 3.59137 0
M  V30 14406 H 1331.41 -1.99844 2.42325 0
M  V30 14407 H 1330.6 -1.61704 4.77355 0
M  V30 14408 H 1330.21 -0.230301 3.7329 0
M  V30 14409 H 1332.5 -1.6408 6.57331 0
M  V30 14410 H 1333.44 -0.202608 7.0781 0
M  V30 14411 H 1333.85 -1.03625 5.54907 0
M  V30 14412 N 1333.25 -1.54984 0.285932 0
M  V30 14413 C 1334.19 -2.2295 -0.596822 0
M  V30 14414 C 1335.16 -1.20674 -1.14136 0
M  V30 14415 O 1336.35 -1.49249 -1.18867 0
M  V30 14416 C 1333.49 -2.9625 -1.77002 0
M  V30 14417 C 1332.6 -4.13268 -1.25831 0
M  V30 14418 C 1331.74 -4.74187 -2.39417 0
M  V30 14419 C 1330.78 -5.83377 -1.85304 0
M  V30 14420 N 1329.91 -6.38313 -2.92405 0
M  V30 14421 H 1334.75 -2.97998 -0.0106104 0
M  V30 14422 H 1332.29 -1.47099 0.00653041 0
M  V30 14423 H 1334.25 -3.36971 -2.4598 0
M  V30 14424 H 1332.88 -2.23606 -2.3281 0
M  V30 14425 H 1331.93 -3.77593 -0.461278 0
M  V30 14426 H 1333.24 -4.91979 -0.822049 0
M  V30 14427 H 1332.4 -5.17683 -3.16369 0
M  V30 14428 H 1331.13 -3.94775 -2.86364 0
M  V30 14429 H 1330.14 -5.3932 -1.06835 0
M  V30 14430 H 1331.36 -6.64664 -1.3928 0
M  V30 14431 H 1329.31 -5.61791 -3.38713 0
M  V30 14432 H 1329.23 -7.12328 -2.53228 0
M  V30 14433 H 1330.5 -6.86468 -3.69299 0
M  V30 14434 N 1334.72 -0.0133892 -1.57594 0
M  V30 14435 C 1336 0.706416 -1.82398 0
M  V30 14436 C 1336.38 1.91236 -0.893983 0
M  V30 14437 O 1335.73 2.28436 0.0541675 0
M  V30 14438 C 1335.94 1.09951 -3.31228 0
M  V30 14439 C 1337.29 1.49776 -3.97306 0
M  V30 14440 O 1338.31 1.19293 -3.3563 0
M  V30 14441 O 1337.17 2.06511 -5.0598 0
M  V30 14442 H 1334.26 0.345131 -0.751541 0
M  V30 14443 H 1336.81 -0.0398687 -1.69653 0
M  V30 14444 H 1335.58 0.240514 -3.9056 0
M  V30 14445 H 1335.21 1.90447 -3.49021 0
M  V30 14446 N 1336.2 1.55448 0.259558 0
M  V30 14447 C 1337.45 1.76337 0.987396 0
M  V30 14448 C 1337.77 0.57505 1.86328 0
M  V30 14449 O 1337.04 -0.409621 1.9157 0
M  V30 14450 H 1335.62 0.650312 0.367565 0
M  V30 14451 H 1338.28 1.9287 0.280551 0
M  V30 14452 H 1337.38 2.66975 1.61651 0
M  V30 14453 N 1337.68 -0.524672 1.4861 0
M  V30 14454 C 1338.91 -1.30482 1.60568 0
M  V30 14455 C 1339.32 -1.86889 0.267952 0
M  V30 14456 O 1338.68 -1.66669 -0.743488 0
M  V30 14457 C 1338.73 -2.45191 2.65638 0
M  V30 14458 O 1338.45 -1.91107 3.9422 0
M  V30 14459 C 1339.95 -3.36931 2.88084 0
M  V30 14460 H 1337.17 -0.396612 0.541239 0
M  V30 14461 H 1339.72 -0.632392 1.94476 0
M  V30 14462 H 1337.87 -3.08308 2.34574 0
M  V30 14463 H 1338.29 -2.66234 4.51907 0
M  V30 14464 H 1339.76 -4.13755 3.65391 0
M  V30 14465 H 1340.24 -3.92487 1.97106 0
M  V30 14466 H 1340.84 -2.79601 3.20473 0
M  V30 14467 N 1339.16 -1.37287 -0.77395 0
M  V30 14468 C 1340.41 -1.31698 -1.52769 0
M  V30 14469 C 1340.72 0.0968585 -1.9536 0
M  V30 14470 O 1341.93 0.275205 -2.70102 0
M  V30 14471 C 1340.38 -2.31154 -2.75854 0
M  V30 14472 C 1339.99 -3.78055 -2.40371 0
M  V30 14473 C 1341.73 -2.34572 -3.53803 0
M  V30 14474 C 1339.64 -4.69248 -3.59945 0
M  V30 14475 H 1338.57 -0.489456 -0.573541 0
M  V30 14476 H 1341.22 -1.62735 -0.84791 0
M  V30 14477 H 1339.6 -1.93132 -3.45711 0
M  V30 14478 H 1340.78 -4.24902 -1.78312 0
M  V30 14479 H 1339.09 -3.77562 -1.75602 0
M  V30 14480 H 1341.69 -2.99908 -4.42673 0
M  V30 14481 H 1342.03 -1.35868 -3.93504 0
M  V30 14482 H 1342.57 -2.7129 -2.90941 0
M  V30 14483 H 1339.31 -5.69072 -3.25327 0
M  V30 14484 H 1338.83 -4.27108 -4.21117 0
M  V30 14485 H 1340.5 -4.86275 -4.26785 0
M  V30 14486 N 1340.64 0.999871 -1.21821 0
M  V30 14487 C 1341.57 2.09044 -0.939852 0
M  V30 14488 C 1342.58 1.62609 0.0788987 0
M  V30 14489 O 1343.77 1.77832 -0.154241 0
M  V30 14490 C 1340.87 3.36641 -0.390618 0
M  V30 14491 C 1340.04 4.12139 -1.46493 0
M  V30 14492 C 1339.1 5.18023 -0.924019 0
M  V30 14493 O 1338.13 5.45996 -1.60864 0
M  V30 14494 N 1339.33 5.79926 0.258136 0
M  V30 14495 H 1342.1 2.33506 -1.8787 0
M  V30 14496 H 1339.66 1.16509 -1.12415 0
M  V30 14497 H 1341.65 4.04697 -0.0142349 0
M  V30 14498 H 1340.22 3.09298 0.453176 0
M  V30 14499 H 1339.44 3.38813 -2.01494 0
M  V30 14500 H 1340.73 4.59354 -2.18795 0
M  V30 14501 H 1340.12 5.59559 0.831288 0
M  V30 14502 H 1338.68 6.4925 0.575977 0
M  V30 14503 N 1342.11 1.02678 1.19562 0
M  V30 14504 C 1343.53 0.743467 1.41226 0
M  V30 14505 C 1343.73 -0.672786 1.89936 0
M  V30 14506 O 1342.79 -1.43908 2.07477 0
M  V30 14507 C 1344.1 1.77781 2.42517 0
M  V30 14508 C 1345.65 1.79711 2.56267 0
M  V30 14509 C 1346.12 2.82099 3.60811 0
M  V30 14510 N 1347.61 2.80902 3.68304 0
M  V30 14511 C 1348.35 3.5678 4.48882 0
M  V30 14512 N 1347.84 4.42367 5.33182 0
M  V30 14513 N 1349.64 3.45331 4.43512 0
M  V30 14514 H 1341.79 1.94094 0.862635 0
M  V30 14515 H 1344.05 0.839015 0.441313 0
M  V30 14516 H 1343.76 2.79295 2.13745 0
M  V30 14517 H 1343.63 1.59836 3.41661 0
M  V30 14518 H 1346.02 0.788756 2.84364 0
M  V30 14519 H 1346.1 2.01731 1.57284 0
M  V30 14520 H 1345.74 3.83104 3.33457 0
M  V30 14521 H 1345.67 2.57338 4.5944 0
M  V30 14522 H 1348.16 2.18826 3.08097 0
M  V30 14523 H 1348.48 4.97008 5.9178 0
M  V30 14524 H 1346.82 4.4644 5.3265 0
M  V30 14525 H 1350.01 2.77883 3.76695 0
M  V30 14526 H 1350.19 4.04718 5.06071 0
M  V30 14527 N 1343.59 -1.35528 0.804364 0
M  V30 14528 C 1344.5 -2.33616 0.214663 0
M  V30 14529 C 1345.52 -1.61757 -0.64115 0
M  V30 14530 O 1346.69 -1.93647 -0.553424 0
M  V30 14531 C 1343.76 -3.40951 -0.628778 0
M  V30 14532 C 1342.82 -4.28587 0.247269 0
M  V30 14533 C 1342.05 -5.30796 -0.556012 0
M  V30 14534 O 1342.28 -5.41557 -1.79088 0
M  V30 14535 O 1341.21 -6.01878 0.0519437 0
M  V30 14536 H 1345.04 -2.85843 1.02605 0
M  V30 14537 H 1342.62 -1.38259 0.566108 0
M  V30 14538 H 1344.5 -4.06538 -1.10926 0
M  V30 14539 H 1343.18 -2.90999 -1.4178 0
M  V30 14540 H 1342.09 -3.65988 0.774835 0
M  V30 14541 H 1343.42 -4.81931 1.00017 0
M  V30 14542 N 1345.07 -0.557671 -1.47404 0
M  V30 14543 C 1346.32 -0.0337216 -2.02072 0
M  V30 14544 C 1346.64 1.32106 -1.43433 0
M  V30 14545 O 1345.91 1.86171 -0.609692 0
M  V30 14546 H 1344.49 -0.00947648 -0.74694 0
M  V30 14547 H 1347.15 -0.727784 -1.80802 0
M  V30 14548 H 1346.25 0.0540331 -3.12053 0
M  V30 14549 N 1346.55 1.54831 -0.294147 0
M  V30 14550 C 1347.78 2.04411 0.319938 0
M  V30 14551 C 1348.19 1.17174 1.4804 0
M  V30 14552 O 1347.55 0.195881 1.81446 0
M  V30 14553 C 1347.6 3.52924 0.782751 0
M  V30 14554 O 1347.32 4.36844 -0.331512 0
M  V30 14555 C 1348.82 4.18474 1.4627 0
M  V30 14556 H 1346.04 0.667286 0.0704973 0
M  V30 14557 H 1348.59 1.9989 -0.431785 0
M  V30 14558 H 1346.74 3.57828 1.48451 0
M  V30 14559 H 1347.16 5.24493 0.0275743 0
M  V30 14560 H 1348.63 5.23933 1.73776 0
M  V30 14561 H 1349.11 3.67793 2.40052 0
M  V30 14562 H 1349.71 4.17626 0.804291 0
M  V30 14563 N 1348.03 0.0217466 1.57585 0
M  V30 14564 C 1348.96 -0.961069 2.12804 0
M  V30 14565 C 1349.94 -1.3442 1.04237 0
M  V30 14566 O 1351.12 -1.42412 1.32032 0
M  V30 14567 C 1348.25 -2.24586 2.64912 0
M  V30 14568 C 1347.21 -2.0037 3.78201 0
M  V30 14569 C 1346.53 -3.35051 4.16708 0
M  V30 14570 C 1347.83 -1.34879 5.04584 0
M  V30 14571 H 1349.53 -0.501222 2.95175 0
M  V30 14572 H 1347.07 -0.239649 1.41992 0
M  V30 14573 H 1349.03 -2.93715 3.02175 0
M  V30 14574 H 1347.75 -2.72723 1.79693 0
M  V30 14575 H 1346.41 -1.33662 3.41365 0
M  V30 14576 H 1346.06 -3.80932 3.28481 0
M  V30 14577 H 1345.76 -3.19656 4.93045 0
M  V30 14578 H 1347.28 -4.05459 4.56547 0
M  V30 14579 H 1348.7 -1.93997 5.3948 0
M  V30 14580 H 1347.09 -1.29906 5.85871 0
M  V30 14581 H 1348.16 -0.320774 4.83838 0
M  V30 14582 N 1349.51 -1.55583 -0.251311 0
M  V30 14583 C 1350.45 -1.89946 -1.31108 0
M  V30 14584 C 1351.42 -0.753209 -1.4804 0
M  V30 14585 O 1352.61 -1.00646 -1.62095 0
M  V30 14586 C 1349.75 -2.19576 -2.66233 0
M  V30 14587 C 1348.86 -3.46983 -2.57345 0
M  V30 14588 C 1348 -3.66206 -3.84794 0
M  V30 14589 C 1347.03 -4.87229 -3.70505 0
M  V30 14590 N 1346.17 -5.02996 -4.89836 0
M  V30 14591 H 1351.01 -2.80325 -1.01104 0
M  V30 14592 H 1348.55 -1.3877 -0.487986 0
M  V30 14593 H 1350.51 -2.3476 -3.44882 0
M  V30 14594 H 1349.14 -1.32406 -2.94395 0
M  V30 14595 H 1348.19 -3.40156 -1.70289 0
M  V30 14596 H 1349.5 -4.35776 -2.42695 0
M  V30 14597 H 1348.65 -3.81324 -4.71886 0
M  V30 14598 H 1347.39 -2.75638 -4.02337 0
M  V30 14599 H 1346.4 -4.72092 -2.81797 0
M  V30 14600 H 1347.62 -5.79253 -3.54462 0
M  V30 14601 H 1345.57 -4.15364 -5.07748 0
M  V30 14602 H 1345.49 -5.8587 -4.778 0
M  V30 14603 H 1346.75 -5.22521 -5.78439 0
M  V30 14604 N 1350.98 0.516783 -1.48886 0
M  V30 14605 C 1352.26 1.27808 -1.48069 0
M  V30 14606 C 1352.64 2.10154 -0.19963 0
M  V30 14607 O 1351.99 2.13342 0.818386 0
M  V30 14608 C 1352.2 2.14828 -2.75045 0
M  V30 14609 C 1353.55 2.74536 -3.23906 0
M  V30 14610 O 1354.57 2.25107 -2.76053 0
M  V30 14611 O 1353.43 3.6448 -4.07206 0
M  V30 14612 H 1350.52 0.577535 -0.591931 0
M  V30 14613 H 1353.07 0.532351 -1.61134 0
M  V30 14614 H 1351.84 1.53852 -3.59785 0
M  V30 14615 H 1351.46 2.96624 -2.64764 0
M  V30 14616 N 1352.46 1.37696 0.766659 0
M  V30 14617 C 1353.71 1.33185 1.52539 0
M  V30 14618 C 1354.04 -0.0821239 1.94327 0
M  V30 14619 O 1353.29 -1.05645 1.64735 0
M  V30 14620 C 1353.59 2.22154 2.79968 0
M  V30 14621 C 1353.26 3.70344 2.57208 0
M  V30 14622 C 1351.92 4.10729 2.50709 0
M  V30 14623 C 1354.27 4.64205 2.36988 0
M  V30 14624 C 1351.6 5.43082 2.21988 0
M  V30 14625 C 1353.95 5.96801 2.0979 0
M  V30 14626 C 1352.61 6.36284 2.01739 0
M  V30 14627 H 1351.88 0.487357 0.558179 0
M  V30 14628 H 1354.53 1.69945 0.882662 0
M  V30 14629 H 1352.84 1.78406 3.48825 0
M  V30 14630 H 1354.53 2.15975 3.37869 0
M  V30 14631 H 1351.12 3.38319 2.63131 0
M  V30 14632 H 1355.31 4.3386 2.40996 0
M  V30 14633 H 1350.56 5.7263 2.14254 0
M  V30 14634 H 1354.74 6.6908 1.93145 0
M  V30 14635 H 1352.36 7.38765 1.79248 0
M  V30 14636 N 1353.94 -0.993397 1.22349 0
M  V30 14637 C 1354.87 -2.08543 0.950925 0
M  V30 14638 C 1355.88 -1.62648 -0.0702741 0
M  V30 14639 O 1357.07 -1.77748 0.16367 0
M  V30 14640 C 1354.17 -3.36429 0.408466 0
M  V30 14641 C 1353.35 -4.11356 1.48676 0
M  V30 14642 C 1352.41 -5.17526 0.951478 0
M  V30 14643 O 1351.43 -5.45135 1.63757 0
M  V30 14644 N 1352.63 -5.80055 -0.227378 0
M  V30 14645 H 1355.4 -2.32506 1.89106 0
M  V30 14646 H 1352.96 -1.15911 1.13032 0
M  V30 14647 H 1354.95 -4.04684 0.0356968 0
M  V30 14648 H 1353.52 -3.09534 -0.436767 0
M  V30 14649 H 1352.74 -3.37739 2.03288 0
M  V30 14650 H 1354.03 -4.58187 2.21228 0
M  V30 14651 H 1353.43 -5.59992 -0.801601 0
M  V30 14652 H 1351.98 -6.49546 -0.541538 0
M  V30 14653 N 1355.42 -1.03311 -1.19015 0
M  V30 14654 C 1356.83 -0.750946 -1.4083 0
M  V30 14655 C 1357.03 0.662704 -1.90291 0
M  V30 14656 O 1356.09 1.42806 -2.08237 0
M  V30 14657 C 1357.4 -1.79064 -2.41571 0
M  V30 14658 C 1358.95 -1.81068 -2.55311 0
M  V30 14659 C 1359.43 -2.84008 -3.59309 0
M  V30 14660 N 1360.92 -2.82852 -3.6681 0
M  V30 14661 C 1361.65 -3.59156 -4.46984 0
M  V30 14662 N 1361.15 -4.45188 -5.30829 0
M  V30 14663 N 1362.94 -3.47679 -4.41674 0
M  V30 14664 H 1355.09 -1.94548 -0.852329 0
M  V30 14665 H 1357.35 -0.841344 -0.436858 0
M  V30 14666 H 1357.06 -2.80425 -2.12261 0
M  V30 14667 H 1356.93 -1.61646 -3.40809 0
M  V30 14668 H 1359.32 -0.803825 -2.83941 0
M  V30 14669 H 1359.4 -2.02562 -1.56212 0
M  V30 14670 H 1359.05 -3.84867 -3.3142 0
M  V30 14671 H 1358.98 -2.59771 -4.58069 0
M  V30 14672 H 1361.47 -2.20457 -3.06932 0
M  V30 14673 H 1361.78 -5.00139 -5.89135 0
M  V30 14674 H 1360.13 -4.49259 -5.30275 0
M  V30 14675 H 1363.32 -2.79876 -3.75216 0
M  V30 14676 H 1363.49 -4.07396 -5.03917 0
M  V30 14677 N 1356.9 1.35099 -0.81154 0
M  V30 14678 C 1358.12 2.03391 -0.405805 0
M  V30 14679 C 1358.55 1.60745 0.97686 0
M  V30 14680 O 1357.9 0.786518 1.63351 0
M  V30 14681 C 1357.95 3.57075 -0.502954 0
M  V30 14682 O 1357.06 4.09577 0.481681 0
M  V30 14683 H 1356.4 0.642203 -0.168733 0
M  V30 14684 H 1358.93 1.72591 -1.0988 0
M  V30 14685 H 1358.94 4.06277 -0.37456 0
M  V30 14686 H 1357.61 3.87463 -1.51145 0
M  V30 14687 H 1356.19 3.71583 0.313115 0
M  V30 14688 N 1358.37 0.56548 1.47106 0
M  V30 14689 C 1359.28 -0.180488 2.33905 0
M  V30 14690 C 1360.3 -0.90355 1.48701 0
M  V30 14691 O 1361.48 -0.870595 1.81611 0
M  V30 14692 C 1358.54 -1.19212 3.2556 0
M  V30 14693 C 1357.6 -0.475589 4.26658 0
M  V30 14694 C 1356.83 -1.43902 5.13934 0
M  V30 14695 O 1357.06 -2.67443 5.03816 0
M  V30 14696 O 1355.99 -0.958998 5.94211 0
M  V30 14697 H 1359.82 0.531726 2.99009 0
M  V30 14698 H 1357.4 0.32602 1.45799 0
M  V30 14699 H 1359.28 -1.77586 3.82153 0
M  V30 14700 H 1357.96 -1.8861 2.63074 0
M  V30 14701 H 1356.87 0.149561 3.73801 0
M  V30 14702 H 1358.2 0.177103 4.91881 0
M  V30 14703 N 1359.85 -1.54672 0.302354 0
M  V30 14704 C 1361.09 -2.02076 -0.30738 0
M  V30 14705 C 1361.46 -1.18603 -1.50988 0
M  V30 14706 O 1362.66 -1.5571 -2.19107 0
M  V30 14707 C 1360.93 -3.5137 -0.65375 0
M  V30 14708 S 1362.49 -4.20733 -1.24615 0
M  V30 14709 H 1359.31 -0.704725 -0.0942521 0
M  V30 14710 H 1361.91 -1.907 0.430542 0
M  V30 14711 H 1360.61 -4.09756 0.229892 0
M  V30 14712 H 1360.14 -3.66784 -1.42243 0
M  V30 14713 H 1362.16 -4.26624 -2.5339 0
M  V30 14714 N 1361.33 -0.0301034 -1.57571 0
M  V30 14715 C 1362.26 0.980187 -2.07183 0
M  V30 14716 C 1363.28 1.2882 -0.995449 0
M  V30 14717 O 1364.46 1.25268 -1.27162 0
M  V30 14718 C 1361.56 2.30734 -2.48224 0
M  V30 14719 C 1360.74 2.18434 -3.78953 0
M  V30 14720 C 1359.8 3.34092 -4.06533 0
M  V30 14721 O 1358.82 3.10934 -4.76769 0
M  V30 14722 N 1360.02 4.57914 -3.56784 0
M  V30 14723 H 1362.79 0.556877 -2.94481 0
M  V30 14724 H 1360.35 0.156632 -1.61141 0
M  V30 14725 H 1362.34 3.06936 -2.63766 0
M  V30 14726 H 1360.91 2.64703 -1.66287 0
M  V30 14727 H 1360.13 1.26953 -3.73198 0
M  V30 14728 H 1361.42 2.07421 -4.64601 0
M  V30 14729 H 1360.82 4.79623 -2.99964 0
M  V30 14730 H 1359.38 5.31281 -3.77603 0
M  V30 14731 N 1362.81 1.55714 0.243056 0
M  V30 14732 C 1363.74 1.93655 1.30461 0
M  V30 14733 C 1364.72 0.801968 1.50008 0
M  V30 14734 O 1365.9 1.06256 1.62552 0
M  V30 14735 C 1363.03 2.23459 2.65863 0
M  V30 14736 C 1361.99 3.39205 2.61006 0
M  V30 14737 C 1361.31 3.5456 4.00239 0
M  V30 14738 C 1362.61 4.74787 2.17656 0
M  V30 14739 H 1364.31 2.82575 0.98954 0
M  V30 14740 H 1361.85 1.35955 0.474572 0
M  V30 14741 H 1363.81 2.48591 3.40266 0
M  V30 14742 H 1362.53 1.31369 2.99014 0
M  V30 14743 H 1361.19 3.14088 1.89061 0
M  V30 14744 H 1360.84 2.59884 4.30661 0
M  V30 14745 H 1360.54 4.32399 3.97876 0
M  V30 14746 H 1362.06 3.82017 4.76335 0
M  V30 14747 H 1363.48 4.99266 2.81792 0
M  V30 14748 H 1361.87 5.55756 2.26397 0
M  V30 14749 H 1362.94 4.7159 1.12831 0
M  V30 14750 N 1364.29 -0.50888 1.49158 0
M  V30 14751 C 1365.53 -1.2635 1.58247 0
M  V30 14752 C 1365.86 -1.92677 0.265654 0
M  V30 14753 O 1365.12 -1.80931 -0.745818 0
M  V30 14754 C 1365.42 -2.35875 2.6851 0
M  V30 14755 C 1365.08 -1.87059 4.10268 0
M  V30 14756 C 1363.74 -1.73464 4.48847 0
M  V30 14757 C 1366.1 -1.50429 4.9902 0
M  V30 14758 C 1363.42 -1.21606 5.73959 0
M  V30 14759 C 1365.78 -1.00026 6.24642 0
M  V30 14760 C 1364.44 -0.850646 6.62058 0
M  V30 14761 H 1363.71 -0.462346 0.579066 0
M  V30 14762 H 1366.36 -0.565528 1.82959 0
M  V30 14763 H 1364.66 -3.11428 2.37739 0
M  V30 14764 H 1366.36 -2.9395 2.72753 0
M  V30 14765 H 1362.95 -1.98597 3.79812 0
M  V30 14766 H 1367.13 -1.59782 4.69876 0
M  V30 14767 H 1362.39 -1.08728 6.01655 0
M  V30 14768 H 1366.56 -0.707608 6.92796 0
M  V30 14769 H 1364.19 -0.446627 7.58887 0
M  V30 14770 N 1365.76 -1.381 -0.759346 0
M  V30 14771 C 1366.67 -1.37086 -1.9038 0
M  V30 14772 C 1367.69 -0.268738 -1.71912 0
M  V30 14773 O 1368.87 -0.506205 -1.94935 0
M  V30 14774 C 1365.93 -1.18905 -3.25672 0
M  V30 14775 C 1364.99 -2.3887 -3.56707 0
M  V30 14776 C 1364.23 -2.21546 -4.85544 0
M  V30 14777 O 1364.45 -1.20616 -5.57501 0
M  V30 14778 O 1363.38 -3.10009 -5.15924 0
M  V30 14779 H 1367.21 -2.33505 -1.94188 0
M  V30 14780 H 1364.79 -1.18959 -0.903826 0
M  V30 14781 H 1366.68 -1.10803 -4.06572 0
M  V30 14782 H 1365.35 -0.255675 -3.22689 0
M  V30 14783 H 1364.26 -2.52546 -2.75992 0
M  V30 14784 H 1365.59 -3.30817 -3.64446 0
M  V30 14785 N 1367.24 0.986894 -1.22875 0
M  V30 14786 C 1368.19 2.06271 -0.971398 0
M  V30 14787 C 1369.18 1.607 0.0802173 0
M  V30 14788 O 1370.37 1.76514 -0.131079 0
M  V30 14789 C 1367.5 3.38743 -0.557524 0
M  V30 14790 C 1366.58 3.90931 -1.64419 0
M  V30 14791 N 1366.97 4.16273 -2.87315 0
M  V30 14792 C 1365.27 4.19398 -1.51727 0
M  V30 14793 C 1365.97 4.5878 -3.57625 0
M  V30 14794 N 1364.95 4.62828 -2.85116 0
M  V30 14795 H 1368.75 2.23814 -1.90485 0
M  V30 14796 H 1366.27 1.16913 -1.12717 0
M  V30 14797 H 1368.26 4.1539 -0.354453 0
M  V30 14798 H 1366.92 3.22597 0.368957 0
M  V30 14799 H 1367.93 4.04288 -3.23684 0
M  V30 14800 H 1364.61 4.12291 -0.65742 0
M  V30 14801 H 1366 4.8696 -4.62947 0
M  V30 14802 N 1368.72 1.0394 1.18466 0
M  V30 14803 C 1369.97 0.752904 1.88952 0
M  V30 14804 C 1370.32 -0.711542 1.78759 0
M  V30 14805 O 1369.61 -1.51248 1.17621 0
M  V30 14806 C 1369.81 1.15198 3.38326 0
M  V30 14807 C 1369.64 2.65367 3.63057 0
M  V30 14808 C 1368.41 3.32495 3.80493 0
M  V30 14809 C 1370.61 3.63586 3.63744 0
M  V30 14810 N 1368.59 4.71659 3.92952 0
M  V30 14811 C 1369.96 4.88417 3.81901 0
M  V30 14812 C 1372.01 3.57234 3.46826 0
M  V30 14813 C 1370.72 6.0766 3.84891 0
M  V30 14814 C 1372.74 4.75903 3.51098 0
M  V30 14815 C 1372.1 5.99553 3.69751 0
M  V30 14816 H 1368.2 0.327542 0.710099 0
M  V30 14817 H 1370.79 1.32883 1.42303 0
M  V30 14818 H 1368.96 0.604141 3.83673 0
M  V30 14819 H 1370.69 0.816625 3.96375 0
M  V30 14820 H 1367.45 2.829 3.79822 0
M  V30 14821 H 1367.87 5.43981 4.03006 0
M  V30 14822 H 1372.51 2.62613 3.31352 0
M  V30 14823 H 1370.23 7.02639 3.99153 0
M  V30 14824 H 1373.82 4.72629 3.39284 0
M  V30 14825 H 1372.7 6.89842 3.72945 0
M  V30 14826 N 1370.2 -1.34667 0.818693 0
M  V30 14827 C 1371.15 -2.29595 0.235551 0
M  V30 14828 C 1372.12 -1.53389 -0.63727 0
M  V30 14829 O 1373.3 -1.81777 -0.579804 0
M  V30 14830 C 1370.44 -3.39843 -0.600043 0
M  V30 14831 C 1369.55 -4.30995 0.294553 0
M  V30 14832 C 1368.69 -5.28343 -0.550203 0
M  V30 14833 C 1367.73 -6.11132 0.344043 0
M  V30 14834 N 1366.86 -7.00582 -0.461392 0
M  V30 14835 H 1371.7 -2.78872 1.05044 0
M  V30 14836 H 1369.24 -1.37239 0.529517 0
M  V30 14837 H 1371.2 -4.02443 -1.09978 0
M  V30 14838 H 1369.83 -2.91811 -1.38008 0
M  V30 14839 H 1368.88 -3.69294 0.912483 0
M  V30 14840 H 1370.19 -4.89031 0.982341 0
M  V30 14841 H 1369.35 -5.96374 -1.11459 0
M  V30 14842 H 1368.09 -4.70833 -1.27151 0
M  V30 14843 H 1367.09 -5.42038 0.920608 0
M  V30 14844 H 1368.32 -6.70722 1.0634 0
M  V30 14845 H 1366.26 -6.45546 -1.16645 0
M  V30 14846 H 1366.18 -7.55813 0.168095 0
M  V30 14847 H 1367.45 -7.72946 -1.00867 0
M  V30 14848 N 1371.68 -0.573274 -1.46804 0
M  V30 14849 C 1372.9 -0.0605984 -2.06811 0
M  V30 14850 C 1373.32 1.24024 -1.4235 0
M  V30 14851 O 1372.68 1.7477 -0.525515 0
M  V30 14852 C 1372.73 0.121828 -3.61295 0
M  V30 14853 O 1372.45 -1.12751 -4.23342 0
M  V30 14854 C 1373.95 0.669941 -4.38208 0
M  V30 14855 H 1371.17 -0.0531498 -0.668892 0
M  V30 14856 H 1373.71 -0.791259 -1.88572 0
M  V30 14857 H 1371.87 0.802674 -3.78993 0
M  V30 14858 H 1372.28 -0.935361 -5.16092 0
M  V30 14859 H 1373.76 0.746806 -5.46925 0
M  V30 14860 H 1374.23 1.68483 -4.05598 0
M  V30 14861 H 1374.84 0.0242721 -4.25293 0
M  V30 14862 N 1373.15 1.5451 -0.310553 0
M  V30 14863 C 1374.08 2.26827 0.554243 0
M  V30 14864 C 1375.07 1.27133 1.13009 0
M  V30 14865 O 1376.25 1.55923 1.15765 0
M  V30 14866 C 1373.38 3.01626 1.7216 0
M  V30 14867 C 1372.33 4.08547 1.27566 0
M  V30 14868 C 1371.66 4.71115 2.52893 0
M  V30 14869 C 1372.96 5.20766 0.399955 0
M  V30 14870 H 1374.65 2.9936 -0.0489475 0
M  V30 14871 H 1372.2 1.43978 -0.0249817 0
M  V30 14872 H 1374.15 3.50942 2.33276 0
M  V30 14873 H 1372.88 2.26688 2.35118 0
M  V30 14874 H 1371.54 3.60096 0.687499 0
M  V30 14875 H 1371.18 3.92805 3.14186 0
M  V30 14876 H 1370.88 5.43331 2.23752 0
M  V30 14877 H 1372.41 5.23198 3.14796 0
M  V30 14878 H 1373.82 5.65918 0.917054 0
M  V30 14879 H 1372.22 5.9976 0.2019 0
M  V30 14880 H 1373.29 4.81508 -0.572537 0
M  V30 14881 N 1374.63 0.0384594 1.57553 0
M  V30 14882 C 1375.57 -0.975285 2.06309 0
M  V30 14883 C 1376.54 -1.31174 0.96084 0
M  V30 14884 O 1377.73 -1.4268 1.23185 0
M  V30 14885 C 1374.86 -2.29279 2.49297 0
M  V30 14886 C 1373.9 -2.11028 3.70634 0
M  V30 14887 S 1374.73 -1.40043 5.16864 0
M  V30 14888 C 1375.89 -2.73143 5.63155 0
M  V30 14889 H 1376.12 -0.560293 2.91973 0
M  V30 14890 H 1373.66 -0.173479 1.53422 0
M  V30 14891 H 1375.61 -3.05016 2.74728 0
M  V30 14892 H 1374.28 -2.67909 1.63962 0
M  V30 14893 H 1373.47 -3.08451 3.9859 0
M  V30 14894 H 1373.07 -1.43433 3.45403 0
M  V30 14895 H 1375.36 -3.69354 5.67965 0
M  V30 14896 H 1376.31 -2.49839 6.6256 0
M  V30 14897 H 1376.71 -2.78819 4.90836 0
M  V30 14898 N 1376.11 -1.55841 -0.234795 0
M  V30 14899 C 1377.06 -1.92165 -1.31055 0
M  V30 14900 C 1378.05 -0.802106 -1.49207 0
M  V30 14901 O 1379.26 -0.986832 -1.50538 0
M  V30 14902 H 1375.63 -0.610487 -0.439101 0
M  V30 14903 H 1377.61 -2.81955 -0.976926 0
M  V30 14904 C 1376.35 -2.24329 -2.65654 0
M  V30 14905 H 1375.68 -3.09982 -2.5249 0
M  V30 14906 H 1377.12 -2.53639 -3.3977 0
M  V30 14907 C 1375.58 -1.0638 -3.19664 0
M  V30 14908 O 1376.11 -0.318047 -4.00439 0
M  V30 14909 N 1374.31 -0.851167 -2.77855 0
M  V30 14910 H 1373.86 -1.45932 -2.12277 0
M  V30 14911 H 1373.82 -0.0636875 -3.14335 0
M  V30 14912 N 1377.59 0.500963 -1.49426 0
M  V30 14913 C 1379.01 0.832142 -1.36189 0
M  V30 14914 C 1379.21 1.9759 -0.395014 0
M  V30 14915 O 1378.26 2.51905 0.173294 0
M  V30 14916 C 1379.57 1.17232 -2.76907 0
M  V30 14917 C 1381.12 1.28052 -2.85607 0
M  V30 14918 C 1381.6 1.65399 -4.27092 0
M  V30 14919 N 1383.09 1.72448 -4.29902 0
M  V30 14920 C 1383.82 2.02789 -5.36343 0
M  V30 14921 N 1383.32 2.31354 -6.53029 0
M  V30 14922 N 1385.11 2.0404 -5.23759 0
M  V30 14923 H 1377.26 -0.253253 -2.10885 0
M  V30 14924 H 1379.53 -0.0507111 -0.946643 0
M  V30 14925 H 1379.23 0.405247 -3.49357 0
M  V30 14926 H 1379.11 2.11574 -3.12276 0
M  V30 14927 H 1381.49 2.03831 -2.13394 0
M  V30 14928 H 1381.57 0.317603 -2.53821 0
M  V30 14929 H 1381.22 0.901704 -4.99832 0
M  V30 14930 H 1381.15 2.6279 -4.56343 0
M  V30 14931 H 1383.64 1.52532 -3.45749 0
M  V30 14932 H 1383.95 2.53695 -7.29972 0
M  V30 14933 H 1382.3 2.28811 -6.56255 0
M  V30 14934 H 1385.49 1.812 -4.31606 0
M  V30 14935 H 1385.66 2.27353 -6.06807 0
M  V30 14936 N 1379.07 1.38501 0.752011 0
M  V30 14937 C 1380 1.31746 1.87551 0
M  V30 14938 C 1381.01 0.229386 1.61176 0
M  V30 14939 O 1382.2 0.487066 1.71726 0
M  V30 14940 C 1379.3 1.01889 3.23221 0
M  V30 14941 C 1378.47 2.21637 3.77088 0
M  V30 14942 C 1377.53 1.885 4.91278 0
M  V30 14943 O 1376.56 2.61011 5.05828 0
M  V30 14944 N 1377.76 0.840909 5.74377 0
M  V30 14945 H 1380.53 2.28561 1.93856 0
M  V30 14946 H 1378.09 1.32383 0.932013 0
M  V30 14947 H 1380.08 0.777704 3.97157 0
M  V30 14948 H 1378.65 0.138658 3.12292 0
M  V30 14949 H 1377.87 2.61812 2.947 0
M  V30 14950 H 1379.16 3.01551 4.0981 0
M  V30 14951 H 1378.56 0.23962 5.65192 0
M  V30 14952 H 1377.11 0.659604 6.48454 0
M  V30 14953 N 1380.55 -0.980364 1.23396 0
M  V30 14954 C 1381.82 -1.69607 0.974319 0
M  V30 14955 C 1382.2 -2.0492 -0.507064 0
M  V30 14956 O 1381.55 -1.74239 -1.47827 0
M  V30 14957 C 1381.76 -2.93743 1.88457 0
M  V30 14958 C 1383.11 -3.66256 2.14806 0
M  V30 14959 O 1384.13 -3.03776 1.86007 0
M  V30 14960 O 1382.99 -4.78698 2.63648 0
M  V30 14961 H 1380.09 -0.740878 0.367462 0
M  V30 14962 H 1382.63 -1.03558 1.34439 0
M  V30 14963 H 1381.4 -2.64244 2.88601 0
M  V30 14964 H 1381.03 -3.67528 1.51688 0
M  V30 14965 N 1382.02 -1.04567 -1.17913 0
M  V30 14966 C 1382.96 -0.599154 -2.2123 0
M  V30 14967 C 1383.97 0.333824 -1.59341 0
M  V30 14968 O 1385.16 0.127548 -1.78044 0
M  V30 14969 C 1382.26 0.144045 -3.38594 0
M  V30 14970 C 1381.43 -0.798061 -4.30058 0
M  V30 14971 C 1380.49 -0.0972548 -5.2611 0
M  V30 14972 O 1379.52 -0.729318 -5.64508 0
M  V30 14973 N 1380.72 1.16759 -5.68637 0
M  V30 14974 H 1383.48 -1.48781 -2.60162 0
M  V30 14975 H 1381.04 -0.926787 -1.32749 0
M  V30 14976 H 1383.04 0.622843 -3.99878 0
M  V30 14977 H 1381.61 0.934292 -2.98311 0
M  V30 14978 H 1380.83 -1.45662 -3.66301 0
M  V30 14979 H 1382.11 -1.43777 -4.88063 0
M  V30 14980 H 1381.51 1.70155 -5.39503 0
M  V30 14981 H 1380.07 1.59057 -6.32095 0
M  V30 14982 N 1383.5 1.34231 -0.825823 0
M  V30 14983 C 1384.41 2.33245 -0.251803 0
M  V30 14984 C 1385.43 1.62756 0.615334 0
M  V30 14985 O 1386.6 1.94503 0.522547 0
M  V30 14986 C 1383.67 3.41908 0.574456 0
M  V30 14987 C 1382.73 4.2814 -0.315422 0
M  V30 14988 C 1381.96 5.31613 0.471496 0
M  V30 14989 O 1382.19 5.44337 1.70449 0
M  V30 14990 O 1381.12 6.01719 -0.147691 0
M  V30 14991 H 1384.95 2.84174 -1.07139 0
M  V30 14992 H 1382.53 1.37341 -0.588032 0
M  V30 14993 H 1384.41 4.08252 1.04444 0
M  V30 14994 H 1383.09 2.93217 1.37132 0
M  V30 14995 H 1381.99 3.64709 -0.832963 0
M  V30 14996 H 1383.33 4.80279 -1.07672 0
M  V30 14997 N 1384.98 0.581051 1.46498 0
M  V30 14998 C 1385.91 -0.140957 2.33074 0
M  V30 14999 C 1386.89 -0.885323 1.45245 0
M  V30 15000 O 1388.08 -0.86111 1.74065 0
M  V30 15001 C 1385.21 -1.15625 3.27488 0
M  V30 15002 C 1384.16 -0.526829 4.24745 0
M  V30 15003 C 1383.49 -1.64847 5.08655 0
M  V30 15004 C 1384.79 0.53492 5.19554 0
M  V30 15005 H 1386.48 0.581888 2.93691 0
M  V30 15006 H 1384.03 0.281278 1.41226 0
M  V30 15007 H 1385.98 -1.6697 3.8691 0
M  V30 15008 H 1384.7 -1.90935 2.64974 0
M  V30 15009 H 1383.36 -0.0344738 3.66584 0
M  V30 15010 H 1383.01 -2.3912 4.42528 0
M  V30 15011 H 1382.71 -1.23298 5.74518 0
M  V30 15012 H 1384.23 -2.16472 5.7094 0
M  V30 15013 H 1385.65 0.106606 5.73201 0
M  V30 15014 H 1384.04 0.870639 5.93751 0
M  V30 15015 H 1385.11 1.42184 4.63586 0
M  V30 15016 N 1386.46 -1.54343 0.318742 0
M  V30 15017 C 1387.37 -2.27856 -0.558442 0
M  V30 15018 C 1388.38 -1.32029 -1.13333 0
M  V30 15019 O 1389.56 -1.65037 -1.15433 0
M  V30 15020 C 1386.62 -3.01842 -1.70565 0
M  V30 15021 C 1385.69 -4.13245 -1.16305 0
M  V30 15022 C 1384.92 -4.83693 -2.25559 0
M  V30 15023 O 1385.14 -4.53621 -3.4581 0
M  V30 15024 O 1384.08 -5.70708 -1.91249 0
M  V30 15025 H 1387.9 -3.03676 0.0384247 0
M  V30 15026 H 1385.49 -1.4916 0.0845936 0
M  V30 15027 H 1387.37 -3.48189 -2.37365 0
M  V30 15028 H 1386.04 -2.28902 -2.28879 0
M  V30 15029 H 1384.95 -3.71258 -0.460274 0
M  V30 15030 H 1386.28 -4.88214 -0.625111 0
M  V30 15031 N 1387.94 -0.0468143 -1.5753 0
M  V30 15032 C 1388.88 0.929065 -2.11275 0
M  V30 15033 C 1389.85 1.31166 -1.01905 0
M  V30 15034 O 1391.04 1.40189 -1.29428 0
M  V30 15035 C 1388.18 2.20012 -2.65873 0
M  V30 15036 C 1387.29 1.8724 -3.89314 0
M  V30 15037 C 1386.43 3.08772 -4.32242 0
M  V30 15038 C 1385.46 2.719 -5.48395 0
M  V30 15039 N 1384.6 3.86112 -5.86397 0
M  V30 15040 H 1389.44 0.463854 -2.94368 0
M  V30 15041 H 1386.98 0.217338 -1.45486 0
M  V30 15042 H 1388.94 2.94383 -2.95626 0
M  V30 15043 H 1387.57 2.64118 -1.85584 0
M  V30 15044 H 1386.62 1.03037 -3.6618 0
M  V30 15045 H 1387.93 1.56096 -4.73746 0
M  V30 15046 H 1387.08 3.91446 -4.63525 0
M  V30 15047 H 1385.82 3.4309 -3.46613 0
M  V30 15048 H 1384.83 1.87642 -5.16789 0
M  V30 15049 H 1386.05 2.38779 -6.35737 0
M  V30 15050 H 1384 4.2024 -5.03721 0
M  V30 15051 H 1383.92 3.58652 -6.65511 0
M  V30 15052 H 1385.18 4.69438 -6.22293 0
M  V30 15053 N 1389.41 1.55964 0.226527 0
M  V30 15054 C 1390.32 1.95169 1.30178 0
M  V30 15055 C 1391.34 0.854831 1.51554 0
M  V30 15056 O 1392.52 1.15798 1.64781 0
M  V30 15057 C 1389.58 2.25612 2.63249 0
M  V30 15058 C 1388.64 3.4884 2.50219 0
M  V30 15059 C 1387.88 3.77822 3.76944 0
M  V30 15060 O 1388.1 3.08556 4.79739 0
M  V30 15061 O 1387.03 4.7132 3.74354 0
M  V30 15062 H 1390.86 2.86794 0.999145 0
M  V30 15063 H 1388.44 1.43109 0.42898 0
M  V30 15064 H 1390.33 2.4641 3.41848 0
M  V30 15065 H 1389 1.37162 2.93203 0
M  V30 15066 H 1387.91 3.33326 1.69836 0
M  V30 15067 H 1389.24 4.37657 2.25205 0
M  V30 15068 N 1390.89 -0.493031 1.4969 0
M  V30 15069 C 1392.12 -1.27046 1.633 0
M  V30 15070 C 1392.54 -1.86278 0.307534 0
M  V30 15071 O 1391.89 -1.68208 -0.707968 0
M  V30 15072 C 1391.94 -2.39501 2.70779 0
M  V30 15073 O 1391.66 -1.82702 3.98185 0
M  V30 15074 C 1393.17 -3.30744 2.95166 0
M  V30 15075 H 1390.39 -0.385042 0.54953 0
M  V30 15076 H 1392.93 -0.590998 1.95774 0
M  V30 15077 H 1391.08 -3.03263 2.41061 0
M  V30 15078 H 1391.5 -2.56588 4.57452 0
M  V30 15079 H 1392.97 -4.05912 3.74085 0
M  V30 15080 H 1393.45 -3.88217 2.05387 0
M  V30 15081 H 1394.06 -2.72741 3.26332 0
M  V30 15082 N 1392.37 -1.38898 -0.744656 0
M  V30 15083 C 1393.62 -1.35795 -1.50623 0
M  V30 15084 C 1393.95 0.0491775 -1.94138 0
M  V30 15085 O 1393.22 1.01219 -1.66087 0
M  V30 15086 C 1393.51 -2.32168 -2.75263 0
M  V30 15087 C 1393.36 -3.81781 -2.3783 0
M  V30 15088 C 1394.68 -2.26526 -3.77325 0
M  V30 15089 H 1391.8 -0.494591 -0.546396 0
M  V30 15090 H 1394.44 -1.69816 -0.852211 0
M  V30 15091 H 1392.59 -2.03287 -3.31069 0
M  V30 15092 H 1394.26 -4.21373 -1.8773 0
M  V30 15093 H 1392.51 -3.99027 -1.70176 0
M  V30 15094 H 1393.18 -4.44687 -3.27044 0
M  V30 15095 H 1395.65 -2.52041 -3.31081 0
M  V30 15096 H 1394.53 -2.96053 -4.62216 0
M  V30 15097 H 1394.79 -1.26705 -4.23554 0
M  V30 15098 N 1393.85 0.973806 -1.23914 0
M  V30 15099 C 1395.08 1.75107 -1.10206 0
M  V30 15100 C 1395.49 1.85604 0.345935 0
M  V30 15101 O 1394.85 1.33996 1.239 0
M  V30 15102 C 1394.9 3.17466 -1.72909 0
M  V30 15103 O 1394.62 3.07504 -3.12047 0
M  V30 15104 C 1396.12 4.11557 -1.6473 0
M  V30 15105 H 1393.34 0.549318 -0.385345 0
M  V30 15106 H 1395.89 1.22301 -1.63898 0
M  V30 15107 H 1394.04 3.67277 -1.23234 0
M  V30 15108 H 1394.45 3.97169 -3.42575 0
M  V30 15109 H 1395.93 5.09126 -2.13295 0
M  V30 15110 H 1396.41 4.3498 -0.607352 0
M  V30 15111 H 1397.01 3.67653 -2.13802 0
M  V30 15112 N 1395.33 1.05191 1.17357 0
M  V30 15113 C 1396.24 0.663617 2.25018 0
M  V30 15114 C 1397.25 -0.315299 1.71119 0
M  V30 15115 O 1398.43 -0.167398 2.00703 0
M  V30 15116 C 1395.49 0.0443307 3.46672 0
M  V30 15117 C 1394.55 1.07369 4.15656 0
M  V30 15118 C 1393.79 0.483864 5.31502 0
M  V30 15119 O 1394.01 -0.706692 5.66005 0
M  V30 15120 O 1392.94 1.21812 5.89445 0
M  V30 15121 H 1396.77 1.56088 2.60519 0
M  V30 15122 H 1394.36 0.823474 1.24657 0
M  V30 15123 H 1396.24 -0.299839 4.20332 0
M  V30 15124 H 1394.91 -0.826579 3.12969 0
M  V30 15125 H 1393.82 1.46985 3.44015 0
M  V30 15126 H 1395.15 1.91575 4.53387 0
M  V30 15127 N 1396.8 -1.33791 0.83293 0
M  V30 15128 C 1398.22 -1.50893 0.519955 0
M  V30 15129 C 1398.42 -1.7749 -0.953919 0
M  V30 15130 O 1397.48 -1.83168 -1.73798 0
M  V30 15131 C 1398.79 -2.66741 1.38815 0
M  V30 15132 C 1400.34 -2.80625 1.38631 0
M  V30 15133 C 1400.81 -3.99528 2.23922 0
M  V30 15134 N 1402.3 -4.06753 2.21599 0
M  V30 15135 C 1403.04 -4.97937 2.84335 0
M  V30 15136 N 1402.53 -5.94276 3.561 0
M  V30 15137 N 1404.33 -4.90887 2.73837 0
M  V30 15138 H 1396.48 -1.14788 1.7871 0
M  V30 15139 H 1398.74 -0.563822 0.762108 0
M  V30 15140 H 1398.45 -2.53748 2.43525 0
M  V30 15141 H 1398.32 -3.62001 1.05996 0
M  V30 15142 H 1400.71 -2.93053 0.346951 0
M  V30 15143 H 1400.79 -1.86144 1.75454 0
M  V30 15144 H 1400.43 -3.8786 3.27914 0
M  V30 15145 H 1400.36 -4.93242 1.84444 0
M  V30 15146 H 1402.85 -3.37802 1.69406 0
M  V30 15147 H 1403.17 -6.60504 4.01191 0
M  V30 15148 H 1401.51 -5.9437 3.60207 0
M  V30 15149 H 1404.7 -4.14586 2.17338 0
M  V30 15150 H 1404.88 -5.61752 3.23014 0
M  V30 15151 N 1398.28 -0.588812 -1.46187 0
M  V30 15152 C 1399.23 0.140932 -2.30369 0
M  V30 15153 C 1400.2 0.878216 -1.40984 0
M  V30 15154 O 1401.38 0.867678 -1.69929 0
M  V30 15155 C 1398.52 1.14468 -3.25563 0
M  V30 15156 C 1397.64 0.410215 -4.30048 0
M  V30 15157 C 1396.77 1.40203 -5.12364 0
M  V30 15158 C 1395.81 0.65431 -6.08593 0
M  V30 15159 N 1394.95 1.59448 -6.83755 0
M  V30 15160 H 1399.79 -0.582976 -2.92242 0
M  V30 15161 H 1397.33 -0.299302 -1.44023 0
M  V30 15162 H 1399.28 1.73957 -3.79203 0
M  V30 15163 H 1397.91 1.83623 -2.65485 0
M  V30 15164 H 1396.97 -0.299822 -3.79217 0
M  V30 15165 H 1398.28 -0.174043 -4.98496 0
M  V30 15166 H 1397.43 2.06953 -5.70312 0
M  V30 15167 H 1396.17 2.02022 -4.4389 0
M  V30 15168 H 1395.18 -0.0269371 -5.49793 0
M  V30 15169 H 1396.4 0.0414285 -6.79087 0
M  V30 15170 H 1394.35 2.20066 -6.17986 0
M  V30 15171 H 1394.26 1.06318 -7.48487 0
M  V30 15172 H 1395.53 2.25215 -7.46256 0
M  V30 15173 N 1399.76 1.54172 -0.326923 0
M  V30 15174 C 1400.72 2.2311 0.524855 0
M  V30 15175 C 1401.72 1.22567 1.04087 0
M  V30 15176 O 1402.91 1.47123 0.932759 0
M  V30 15177 C 1400.05 2.93778 1.72937 0
M  V30 15178 H 1401.24 2.99799 -0.0778327 0
M  V30 15179 H 1398.79 1.56105 -0.0780484 0
M  V30 15180 H 1399.53 2.21234 2.3712 0
M  V30 15181 H 1399.31 3.67509 1.36674 0
M  V30 15182 H 1400.8 3.46292 2.33392 0
M  V30 15183 N 1401.24 0.0551678 1.57503 0
M  V30 15184 C 1402.47 -0.6272 1.97164 0
M  V30 15185 C 1402.88 -1.64143 0.932876 0
M  V30 15186 O 1402.24 -1.82314 -0.0824465 0
M  V30 15187 C 1402.29 -1.31057 3.36907 0
M  V30 15188 O 1402.01 -0.336951 4.36802 0
M  V30 15189 C 1403.51 -2.08232 3.91349 0
M  V30 15190 H 1400.73 -0.171196 0.648793 0
M  V30 15191 H 1403.28 0.122651 2.04132 0
M  V30 15192 H 1401.43 -2.01162 3.31078 0
M  V30 15193 H 1401.84 -0.825204 5.17968 0
M  V30 15194 H 1403.32 -2.51463 4.91397 0
M  V30 15195 H 1403.8 -2.93212 3.26991 0
M  V30 15196 H 1404.4 -1.43029 4.00528 0
M  V30 15197 N 1402.72 -1.56081 -0.218252 0
M  V30 15198 C 1403.63 -1.95856 -1.29141 0
M  V30 15199 C 1404.64 -0.862857 -1.51099 0
M  V30 15200 O 1405.82 -1.1667 -1.64165 0
M  V30 15201 C 1402.88 -2.27005 -2.62049 0
M  V30 15202 C 1401.94 -3.50162 -2.48365 0
M  V30 15203 C 1401.18 -3.79815 -3.74935 0
M  V30 15204 O 1401.4 -3.11095 -4.78096 0
M  V30 15205 O 1400.33 -4.73299 -3.71849 0
M  V30 15206 H 1404.16 -2.8732 -0.983922 0
M  V30 15207 H 1401.75 -1.43334 -0.421385 0
M  V30 15208 H 1403.63 -2.4822 -3.40536 0
M  V30 15209 H 1402.3 -1.38715 -2.92472 0
M  V30 15210 H 1401.21 -3.34222 -1.68066 0
M  V30 15211 H 1402.54 -4.38845 -2.22881 0
M  V30 15212 N 1404.2 0.485086 -1.49949 0
M  V30 15213 C 1405.61 1.06629 -1.53255 0
M  V30 15214 C 1405.96 1.9344 -0.327915 0
M  V30 15215 O 1405.08 2.09011 0.560669 0
M  V30 15216 C 1405.68 1.94053 -2.77721 0
M  V30 15217 C 1404.24 2.47307 -2.83754 0
M  V30 15218 C 1403.38 1.25307 -2.47373 0
M  V30 15219 H 1406.33 0.268297 -1.56416 0
M  V30 15220 H 1406.36 2.78946 -2.58784 0
M  V30 15221 H 1405.87 1.30843 -3.65379 0
M  V30 15222 H 1403.97 3.1411 -2.00414 0
M  V30 15223 H 1404.08 2.83371 -3.86313 0
M  V30 15224 H 1402.45 1.5834 -1.99501 0
M  V30 15225 H 1403.23 0.637815 -3.37323 0
M  V30 15226 N 1405.67 1.39291 0.737279 0
M  V30 15227 C 1407.08 1.32489 1.31543 0
M  V30 15228 C 1407.44 -0.0118162 1.96196 0
M  V30 15229 O 1406.56 -0.913938 1.96153 0
M  V30 15230 C 1407.16 2.39946 2.39189 0
M  V30 15231 C 1405.71 2.36671 2.92684 0
M  V30 15232 C 1404.86 2.21953 1.66229 0
M  V30 15233 H 1407.81 1.49412 0.534954 0
M  V30 15234 H 1407.83 2.06603 3.19524 0
M  V30 15235 H 1407.35 3.3722 1.92104 0
M  V30 15236 H 1405.45 1.43028 3.44055 0
M  V30 15237 H 1405.56 3.31441 3.45953 0
M  V30 15238 H 1403.92 1.69087 1.90478 0
M  V30 15239 H 1404.71 3.21194 1.21199 0
M  V30 15240 N 1407.15 -0.967221 1.24429 0
M  V30 15241 C 1408.08 -2.06479 0.994946 0
M  V30 15242 C 1409.1 -1.62761 -0.0357582 0
M  V30 15243 O 1410.29 -1.77361 0.201336 0
M  V30 15244 C 1407.39 -3.35487 0.479736 0
M  V30 15245 C 1406.56 -4.0811 1.57368 0
M  V30 15246 C 1405.62 -5.15392 1.06104 0
M  V30 15247 O 1404.64 -5.41539 1.75283 0
M  V30 15248 N 1405.85 -5.80406 -0.104288 0
M  V30 15249 H 1408.61 -2.28443 1.93995 0
M  V30 15250 H 1406.17 -1.13488 1.15465 0
M  V30 15251 H 1408.16 -4.04517 0.121528 0
M  V30 15252 H 1406.73 -3.1039 -0.371012 0
M  V30 15253 H 1405.95 -3.33351 2.10406 0
M  V30 15254 H 1407.24 -4.53391 2.30897 0
M  V30 15255 H 1406.64 -5.61566 -0.682638 0
M  V30 15256 H 1405.2 -6.50549 -0.403638 0
M  V30 15257 N 1408.63 -1.05812 -1.16797 0
M  V30 15258 C 1409.88 -0.770398 -1.8684 0
M  V30 15259 C 1410.2 0.704986 -1.8181 0
M  V30 15260 O 1409.47 1.50977 -1.24832 0
M  V30 15261 H 1408.05 -0.281989 -0.691731 0
M  V30 15262 H 1410.71 -1.33859 -1.41661 0
M  V30 15263 H 1409.81 -1.09094 -2.92412 0
M  V30 15264 N 1410.11 1.33347 -0.840014 0
M  V30 15265 C 1411.04 2.31703 -0.289138 0
M  V30 15266 C 1412.02 1.59024 0.603759 0
M  V30 15267 O 1413.2 1.86911 0.527071 0
M  V30 15268 C 1410.33 3.43144 0.53566 0
M  V30 15269 C 1409.29 4.272 -0.261544 0
M  V30 15270 C 1408.61 5.30267 0.687075 0
M  V30 15271 C 1409.91 5.00915 -1.47924 0
M  V30 15272 H 1411.61 2.78026 -1.11094 0
M  V30 15273 H 1409.15 1.33666 -0.535658 0
M  V30 15274 H 1411.11 4.10979 0.931351 0
M  V30 15275 H 1409.83 2.95512 1.39069 0
M  V30 15276 H 1408.49 3.60991 -0.638809 0
M  V30 15277 H 1408.14 4.78893 1.53853 0
M  V30 15278 H 1407.84 5.87388 0.157773 0
M  V30 15279 H 1409.36 6.00968 1.08026 0
M  V30 15280 H 1410.78 5.61511 -1.15664 0
M  V30 15281 H 1409.17 5.67692 -1.94541 0
M  V30 15282 H 1410.24 4.29622 -2.24839 0
M  V30 15283 N 1411.59 0.596556 1.45873 0
M  V30 15284 C 1412.81 0.0916466 2.07197 0
M  V30 15285 C 1413.24 -1.21004 1.44012 0
M  V30 15286 O 1412.59 -1.73415 0.528844 0
M  V30 15287 C 1412.64 -0.0461457 3.6057 0
M  V30 15288 O 1411.75 -1.09919 3.97481 0
M  V30 15289 H 1411.09 0.0690655 0.660398 0
M  V30 15290 H 1413.62 0.823434 1.87299 0
M  V30 15291 H 1413.63 -0.2479 4.07246 0
M  V30 15292 H 1412.3 0.904381 4.05948 0
M  V30 15293 H 1410.88 -0.874788 3.62494 0
M  V30 15294 N 1413.06 -1.53996 0.335095 0
M  V30 15295 C 1414.48 -1.59591 -0.0171422 0
M  V30 15296 C 1414.68 -1.35132 -1.49471 0
M  V30 15297 O 1413.74 -1.14141 -2.25229 0
M  V30 15298 C 1415.05 -2.97872 0.411443 0
M  V30 15299 C 1416.6 -3.10887 0.363072 0
M  V30 15300 C 1417.07 -4.51532 0.766995 0
M  V30 15301 N 1418.56 -4.57557 0.72085 0
M  V30 15302 C 1419.3 -5.64516 1.00544 0
M  V30 15303 N 1418.79 -6.79365 1.35777 0
M  V30 15304 N 1420.59 -5.54349 0.930243 0
M  V30 15305 H 1412.74 -1.68151 1.29766 0
M  V30 15306 H 1415 -0.787067 0.528422 0
M  V30 15307 H 1414.71 -3.20809 1.44134 0
M  V30 15308 H 1414.58 -3.76571 -0.217678 0
M  V30 15309 H 1416.97 -2.87679 -0.657642 0
M  V30 15310 H 1417.05 -2.34266 1.02728 0
M  V30 15311 H 1416.69 -4.75474 1.78568 0
M  V30 15312 H 1416.62 -5.26539 0.0803511 0
M  V30 15313 H 1419.11 -3.75079 0.460867 0
M  V30 15314 H 1419.43 -7.56891 1.55999 0
M  V30 15315 H 1417.77 -6.80833 1.39614 0
M  V30 15316 H 1420.96 -4.63503 0.654402 0
M  V30 15317 H 1421.14 -6.37616 1.15539 0
M  V30 15318 N 1414.54 -0.0635198 -1.57472 0
M  V30 15319 C 1415.5 0.891881 -2.11135 0
M  V30 15320 C 1416.5 1.23182 -1.03358 0
M  V30 15321 O 1417.69 1.16646 -1.2938 0
M  V30 15322 C 1414.83 2.19792 -2.60584 0
M  V30 15323 H 1416.02 0.426461 -2.96852 0
M  V30 15324 H 1413.57 0.185069 -1.552 0
M  V30 15325 H 1414.31 2.70889 -1.78297 0
M  V30 15326 H 1414.09 1.96419 -3.39355 0
M  V30 15327 H 1415.58 2.88203 -3.02206 0
M  V30 15328 N 1416.02 1.56195 0.209972 0
M  V30 15329 C 1416.95 1.88389 1.28781 0
M  V30 15330 C 1417.93 0.742429 1.44661 0
M  V30 15331 O 1419.11 0.991955 1.60289 0
M  V30 15332 C 1416.24 2.10107 2.65655 0
M  V30 15333 C 1415.29 3.32804 2.66728 0
M  V30 15334 S 1416.12 4.88384 2.1964 0
M  V30 15335 C 1417.28 5.13151 3.58367 0
M  V30 15336 H 1417.51 2.79517 1.01281 0
M  V30 15337 H 1415.04 1.4878 0.412768 0
M  V30 15338 H 1417 2.23302 3.44451 0
M  V30 15339 H 1415.66 1.19756 2.90374 0
M  V30 15340 H 1414.85 3.4508 3.67336 0
M  V30 15341 H 1414.46 3.18525 1.96004 0
M  V30 15342 H 1416.75 5.02759 4.54136 0
M  V30 15343 H 1417.69 6.14985 3.50998 0
M  V30 15344 H 1418.1 4.4084 3.52591 0
M  V30 15345 N 1417.5 -0.477127 1.50204 0
M  V30 15346 C 1418.72 -1.25775 1.6491 0
M  V30 15347 C 1419.15 -1.85187 0.329765 0
M  V30 15348 O 1418.51 -1.67004 -0.705641 0
M  V30 15349 C 1418.55 -2.3466 2.73801 0
M  V30 15350 O 1417.66 -3.39147 2.34634 0
M  V30 15351 H 1417 -0.370291 0.551163 0
M  V30 15352 H 1419.53 -0.568514 1.96543 0
M  V30 15353 H 1419.54 -2.80065 2.96695 0
M  V30 15354 H 1418.21 -1.90788 3.69557 0
M  V30 15355 H 1416.79 -2.99496 2.22163 0
M  V30 15356 N 1418.98 -1.3968 -0.729882 0
M  V30 15357 C 1420.2 -1.40654 -1.52418 0
M  V30 15358 C 1420.63 -0.00428997 -1.881 0
M  V30 15359 O 1419.98 0.984023 -1.52272 0
M  V30 15360 C 1420.03 -2.29057 -2.78506 0
M  V30 15361 O 1419.14 -1.72397 -3.74637 0
M  V30 15362 H 1418.48 -0.478761 -0.460091 0
M  V30 15363 H 1421.01 -1.83738 -0.900087 0
M  V30 15364 H 1421.02 -2.43748 -3.27187 0
M  V30 15365 H 1419.69 -3.30961 -2.51868 0
M  V30 15366 H 1418.27 -1.66977 -3.33426 0
M  V30 15367 N 1420.45 0.960609 -1.2494 0
M  V30 15368 C 1421.87 1.23057 -1.01633 0
M  V30 15369 C 1422.07 1.99676 0.270527 0
M  V30 15370 O 1421.13 2.32503 0.984823 0
M  V30 15371 C 1422.44 2.01078 -2.2358 0
M  V30 15372 C 1423.99 2.14144 -2.28279 0
M  V30 15373 C 1424.46 2.95563 -3.49867 0
M  V30 15374 N 1425.95 3.03143 -3.50227 0
M  V30 15375 C 1426.69 3.66518 -4.40967 0
M  V30 15376 N 1426.18 4.31553 -5.41972 0
M  V30 15377 N 1427.98 3.636 -4.28663 0
M  V30 15378 H 1420.13 0.447876 -2.07624 0
M  V30 15379 H 1422.39 0.260581 -0.911483 0
M  V30 15380 H 1422.1 1.52172 -3.17075 0
M  V30 15381 H 1421.97 3.01797 -2.2627 0
M  V30 15382 H 1424.36 2.6225 -1.35311 0
M  V30 15383 H 1424.44 1.1275 -2.29611 0
M  V30 15384 H 1424.08 2.48149 -4.43153 0
M  V30 15385 H 1424.01 3.9717 -3.45779 0
M  V30 15386 H 1426.5 2.56888 -2.77159 0
M  V30 15387 H 1426.82 4.7775 -6.07433 0
M  V30 15388 H 1425.16 4.302 -5.45851 0
M  V30 15389 H 1428.35 3.11973 -3.48985 0
M  V30 15390 H 1428.53 4.12706 -4.99578 0
M  V30 15391 N 1421.93 1.0643 1.16234 0
M  V30 15392 C 1423.21 0.695256 1.82827 0
M  V30 15393 C 1423.59 -0.823242 1.94386 0
M  V30 15394 O 1422.94 -1.73406 1.48804 0
M  V30 15395 C 1423.15 1.3988 3.19741 0
M  V30 15396 C 1424.5 1.54489 3.95498 0
M  V30 15397 O 1425.52 1.35882 3.29264 0
M  V30 15398 O 1424.38 1.85027 5.14225 0
M  V30 15399 H 1421.47 0.246285 0.789476 0
M  V30 15400 H 1424.02 1.16466 1.23426 0
M  V30 15401 H 1422.79 2.43419 3.06371 0
M  V30 15402 H 1422.41 0.91957 3.8682 0
M  V30 15403 N 1423.41 -1.329 0.847073 0
M  V30 15404 C 1424.66 -1.9712 0.445872 0
M  V30 15405 C 1424.98 -1.67398 -1.00014 0
M  V30 15406 O 1424.25 -0.977204 -1.69787 0
M  V30 15407 H 1422.83 -0.729247 0.161887 0
M  V30 15408 H 1425.49 -1.62118 1.08184 0
M  V30 15409 H 1424.59 -3.06575 0.584676 0
M  V30 15410 N 1424.89 -0.604284 -1.45555 0
M  V30 15411 C 1425.82 0.103859 -2.33269 0
M  V30 15412 C 1426.8 0.862104 -1.46635 0
M  V30 15413 O 1427.98 0.833308 -1.75413 0
M  V30 15414 C 1425.11 1.104 -3.29286 0
M  V30 15415 C 1424.07 0.459189 -4.2553 0
M  V30 15416 C 1423.39 1.56734 -5.11213 0
M  V30 15417 C 1424.69 -0.617509 -5.18637 0
M  V30 15418 H 1426.39 -0.628538 -2.92728 0
M  V30 15419 H 1423.93 -0.303711 -1.40761 0
M  V30 15420 H 1425.89 1.60794 -3.89517 0
M  V30 15421 H 1424.61 1.86695 -2.67979 0
M  V30 15422 H 1423.27 -0.0238508 -3.66592 0
M  V30 15423 H 1422.92 2.32049 -4.46276 0
M  V30 15424 H 1422.62 1.14142 -5.76407 0
M  V30 15425 H 1424.14 2.07361 -5.74312 0
M  V30 15426 H 1425.56 -0.197784 -5.72959 0
M  V30 15427 H 1423.95 -0.96499 -5.9229 0
M  V30 15428 H 1425.02 -1.49541 -4.61265 0
M  V30 15429 N 1426.37 1.53816 -0.343257 0
M  V30 15430 C 1427.3 2.27951 0.506005 0
M  V30 15431 C 1428.28 1.29502 1.10287 0
M  V30 15432 O 1429.46 1.58344 1.12432 0
M  V30 15433 C 1426.59 3.0521 1.65723 0
M  V30 15434 C 1425.55 4.11161 1.18871 0
M  V30 15435 C 1424.87 4.76373 2.42843 0
M  V30 15436 C 1426.17 5.21498 0.289403 0
M  V30 15437 H 1427.87 2.99189 -0.112435 0
M  V30 15438 H 1425.41 1.43893 -0.055516 0
M  V30 15439 H 1427.37 3.55811 2.2578 0
M  V30 15440 H 1426.09 2.31624 2.30256 0
M  V30 15441 H 1424.75 3.61473 0.610962 0
M  V30 15442 H 1424.4 3.99381 3.05784 0
M  V30 15443 H 1424.1 5.47955 2.12177 0
M  V30 15444 H 1425.62 5.29758 3.03627 0
M  V30 15445 H 1427.03 5.67736 0.796808 0
M  V30 15446 H 1425.43 6.00054 0.0746366 0
M  V30 15447 H 1426.5 4.80185 -0.674543 0
M  V30 15448 N 1427.84 0.0718701 1.57436 0
M  V30 15449 C 1428.78 -0.924911 2.09709 0
M  V30 15450 C 1429.79 -1.26136 1.02925 0
M  V30 15451 O 1430.98 -1.21853 1.30438 0
M  V30 15452 C 1428.08 -2.24072 2.54254 0
M  V30 15453 C 1427.25 -2.0831 3.84611 0
M  V30 15454 C 1426.31 -3.23196 4.15248 0
M  V30 15455 O 1425.34 -2.98184 4.84846 0
M  V30 15456 N 1426.54 -4.48293 3.688 0
M  V30 15457 H 1429.3 -0.478605 2.95854 0
M  V30 15458 H 1426.86 -0.113853 1.61499 0
M  V30 15459 H 1428.86 -2.99835 2.71811 0
M  V30 15460 H 1427.43 -2.60201 1.73246 0
M  V30 15461 H 1426.65 -1.17014 3.76432 0
M  V30 15462 H 1427.93 -1.9503 4.69937 0
M  V30 15463 H 1427.33 -4.71501 3.12575 0
M  V30 15464 H 1425.89 -5.21082 3.91556 0
M  V30 15465 N 1429.32 -1.56304 -0.201686 0
M  V30 15466 C 1430.6 -1.71059 -0.948595 0
M  V30 15467 C 1430.98 -0.624794 -2.01642 0
M  V30 15468 O 1430.33 0.365235 -2.25562 0
M  V30 15469 C 1430.54 -3.13136 -1.54101 0
M  V30 15470 C 1431.89 -3.73165 -2.02567 0
M  V30 15471 O 1432.91 -3.16223 -1.63956 0
M  V30 15472 O 1431.77 -4.73084 -2.73594 0
M  V30 15473 H 1428.86 -0.697443 -0.444412 0
M  V30 15474 H 1431.41 -1.68611 -0.191901 0
M  V30 15475 H 1430.18 -3.8363 -0.770968 0
M  V30 15476 H 1429.8 -3.19784 -2.36271 0
M  V30 15477 N 1430.8 0.469154 -1.50455 0
M  V30 15478 C 1431.71 1.59271 -1.7225 0
M  V30 15479 C 1432.73 1.63119 -0.605668 0
M  V30 15480 O 1433.9 1.80952 -0.884222 0
M  V30 15481 C 1430.97 2.95475 -1.81372 0
M  V30 15482 C 1430.03 3.02 -3.05114 0
M  V30 15483 C 1429.26 4.31707 -3.13791 0
M  V30 15484 O 1429.48 5.2232 -2.29211 0
M  V30 15485 O 1428.42 4.43864 -4.06532 0
M  V30 15486 H 1432.24 1.43804 -2.67496 0
M  V30 15487 H 1429.83 0.648855 -1.34574 0
M  V30 15488 H 1431.71 3.76367 -1.89541 0
M  V30 15489 H 1430.39 3.11136 -0.893094 0
M  V30 15490 H 1429.29 2.20178 -3.02444 0
M  V30 15491 H 1430.63 2.91275 -3.96761 0
M  V30 15492 N 1432.28 1.40065 0.722464 0
M  V30 15493 C 1433.19 1.42086 1.86678 0
M  V30 15494 C 1434.2 0.314223 1.71139 0
M  V30 15495 O 1435.38 0.55771 1.93524 0
M  V30 15496 C 1432.45 1.27498 3.22405 0
M  V30 15497 C 1431.51 2.48243 3.50248 0
M  V30 15498 C 1430.74 2.34342 4.79499 0
M  V30 15499 O 1430.96 1.35355 5.54108 0
M  V30 15500 O 1429.9 3.23579 5.07523 0
M  V30 15501 H 1433.72 2.38571 1.87929 0
M  V30 15502 H 1431.31 1.21314 0.871968 0
M  V30 15503 H 1433.19 1.21543 4.03491 0
M  V30 15504 H 1431.86 0.341141 3.21897 0
M  V30 15505 H 1430.77 2.59775 2.69199 0
M  V30 15506 H 1432.1 3.40364 3.55547 0
M  V30 15507 N 1433.76 -0.95397 1.25448 0
M  V30 15508 C 1434.67 -2.08452 1.07634 0
M  V30 15509 C 1435.68 -1.73995 0.013294 0
M  V30 15510 O 1436.86 -2.00256 0.214367 0
M  V30 15511 C 1433.92 -3.39606 0.697756 0
M  V30 15512 C 1432.99 -3.87926 1.83881 0
M  V30 15513 C 1432.22 -5.12821 1.47819 0
M  V30 15514 O 1432.44 -5.69172 0.374143 0
M  V30 15515 O 1431.38 -5.55866 2.3086 0
M  V30 15516 H 1435.2 -2.26382 2.02447 0
M  V30 15517 H 1432.79 -1.06877 1.04392 0
M  V30 15518 H 1434.67 -4.18438 0.498778 0
M  V30 15519 H 1433.34 -3.22944 -0.221108 0
M  V30 15520 H 1432.25 -3.10095 2.09265 0
M  V30 15521 H 1433.58 -4.09087 2.73694 0
M  V30 15522 N 1435.24 -1.07045 -1.15668 0
M  V30 15523 C 1436.15 -0.699332 -2.23934 0
M  V30 15524 C 1437.16 0.288036 -1.71599 0
M  V30 15525 O 1438.34 0.135447 -2.00944 0
M  V30 15526 C 1435.4 -0.0994775 -3.46557 0
M  V30 15527 C 1434.46 -1.13968 -4.13896 0
M  V30 15528 C 1433.7 -0.56836 -5.30665 0
M  V30 15529 O 1433.92 0.616556 -5.67058 0
M  V30 15530 O 1432.85 -1.31174 -5.87432 0
M  V30 15531 H 1436.68 -1.60212 -2.58003 0
M  V30 15532 H 1434.26 -0.843202 -1.23331 0
M  V30 15533 H 1436.15 0.23293 -4.20756 0
M  V30 15534 H 1434.82 0.776684 -3.14244 0
M  V30 15535 H 1433.73 -1.5244 -3.41633 0
M  V30 15536 H 1435.06 -1.98764 -4.50282 0
M  V30 15537 N 1436.71 1.32449 -0.85411 0
M  V30 15538 C 1437.62 2.32658 -0.301221 0
M  V30 15539 C 1438.64 1.64025 0.580673 0
M  V30 15540 O 1439.82 1.95568 0.481172 0
M  V30 15541 C 1436.88 3.43049 0.501803 0
M  V30 15542 C 1435.94 4.27374 -0.406166 0
M  V30 15543 C 1435.17 5.32494 0.358627 0
M  V30 15544 O 1435.4 5.4783 1.58865 0
M  V30 15545 O 1434.33 6.0127 -0.275291 0
M  V30 15546 H 1438.16 2.81838 -1.13143 0
M  V30 15547 H 1435.74 1.36063 -0.617032 0
M  V30 15548 H 1437.62 4.10375 0.957608 0
M  V30 15549 H 1436.3 2.9606 1.30882 0
M  V30 15550 H 1435.21 3.6286 -0.910136 0
M  V30 15551 H 1436.54 4.77887 -1.17835 0
M  V30 15552 N 1438.19 0.611994 1.45232 0
M  V30 15553 C 1439.1 -0.105981 2.3436 0
M  V30 15554 C 1440.12 -0.855785 1.515 0
M  V30 15555 O 1441.29 -0.812376 1.84289 0
M  V30 15556 C 1438.36 -1.08794 3.29188 0
M  V30 15557 C 1437.42 -0.339611 4.27955 0
M  V30 15558 C 1436.65 -1.27479 5.18252 0
M  V30 15559 O 1436.88 -2.51279 5.12069 0
M  V30 15560 O 1435.81 -0.769469 5.96961 0
M  V30 15561 H 1439.64 0.626584 2.97166 0
M  V30 15562 H 1437.22 0.37224 1.44688 0
M  V30 15563 H 1439.1 -1.65338 3.8761 0
M  V30 15564 H 1437.78 -1.80145 2.68941 0
M  V30 15565 H 1436.68 0.268408 3.73136 0
M  V30 15566 H 1438.02 0.333501 4.91069 0
M  V30 15567 N 1439.67 -1.53632 0.351409 0
M  V30 15568 C 1440.58 -2.2899 -0.509985 0
M  V30 15569 C 1441.6 -1.34403 -1.10507 0
M  V30 15570 O 1442.77 -1.67448 -1.11906 0
M  V30 15571 C 1439.84 -3.05392 -1.64124 0
M  V30 15572 C 1438.9 -4.15619 -1.07514 0
M  V30 15573 C 1438.13 -4.88369 -2.15248 0
M  V30 15574 O 1438.35 -4.60854 -3.3611 0
M  V30 15575 O 1437.29 -5.74636 -1.79101 0
M  V30 15576 H 1441.11 -3.03526 0.10283 0
M  V30 15577 H 1438.7 -1.48947 0.116214 0
M  V30 15578 H 1440.58 -3.53146 -2.29926 0
M  V30 15579 H 1439.26 -2.33705 -2.23972 0
M  V30 15580 H 1438.16 -3.7215 -0.381421 0
M  V30 15581 H 1439.5 -4.8943 -0.521413 0
M  V30 15582 N 1441.15 -0.0802183 -1.57396 0
M  V30 15583 C 1442.11 0.869437 -2.12069 0
M  V30 15584 C 1443.11 1.22079 -1.04658 0
M  V30 15585 O 1444.3 1.15267 -1.3061 0
M  V30 15586 C 1441.43 2.17016 -2.62901 0
M  V30 15587 H 1442.63 0.394952 -2.97288 0
M  V30 15588 H 1440.18 0.168597 -1.55388 0
M  V30 15589 H 1440.91 2.68983 -1.8116 0
M  V30 15590 H 1440.7 1.92808 -3.4142 0
M  V30 15591 H 1442.19 2.84982 -3.05246 0
M  V30 15592 N 1442.63 1.56409 0.193394 0
M  V30 15593 C 1443.59 1.93822 1.22334 0
M  V30 15594 C 1444.59 0.819513 1.3835 0
M  V30 15595 O 1445.78 1.0869 1.36132 0
M  V30 15596 C 1442.91 2.21375 2.59241 0
M  V30 15597 H 1444.1 2.85967 0.903502 0
M  V30 15598 H 1441.66 1.50125 0.43498 0
M  V30 15599 H 1442.39 1.31874 2.96277 0
M  V30 15600 H 1442.18 3.02899 2.48988 0
M  V30 15601 H 1443.67 2.51319 3.33509 0
M  V30 15602 N 1444.1 -0.461169 1.50702 0
M  V30 15603 C 1445.01 -1.58355 1.73092 0
M  V30 15604 C 1446.03 -1.62795 0.61431 0
M  V30 15605 O 1447.21 -1.8048 0.893806 0
M  V30 15606 C 1444.27 -2.94509 1.82936 0
M  V30 15607 C 1443.33 -3.00378 3.06711 0
M  V30 15608 C 1442.56 -4.30037 3.16076 0
M  V30 15609 O 1442.79 -5.21097 2.31978 0
M  V30 15610 O 1441.72 -4.41702 4.08881 0
M  V30 15611 H 1445.55 -1.42384 2.68255 0
M  V30 15612 H 1443.13 -0.641709 1.34916 0
M  V30 15613 H 1445.01 -3.75357 1.91534 0
M  V30 15614 H 1443.69 -3.10658 0.909581 0
M  V30 15615 H 1442.6 -2.18571 3.03608 0
M  V30 15616 H 1443.93 -2.89167 3.983 0
M  V30 15617 N 1445.58 -1.40446 -0.715026 0
M  V30 15618 C 1446.81 -1.42263 -1.50917 0
M  V30 15619 C 1447.23 -0.0242402 -1.88084 0
M  V30 15620 O 1446.59 0.967817 -1.53307 0
M  V30 15621 C 1446.64 -2.31998 -2.7606 0
M  V30 15622 O 1445.74 -1.76361 -3.72787 0
M  V30 15623 H 1445.08 -0.483614 -0.454988 0
M  V30 15624 H 1447.61 -1.84682 -0.880549 0
M  V30 15625 H 1447.62 -2.47204 -3.24583 0
M  V30 15626 H 1446.3 -3.33614 -2.48343 0
M  V30 15627 H 1444.87 -1.70504 -3.31636 0
M  V30 15628 N 1447.06 0.947303 -1.25952 0
M  V30 15629 C 1447.97 2.07878 -1.08738 0
M  V30 15630 C 1448.99 1.73985 -0.0225212 0
M  V30 15631 O 1450.16 2.00139 -0.224984 0
M  V30 15632 C 1447.23 3.39231 -0.715756 0
M  V30 15633 C 1446.29 3.86945 -1.85935 0
M  V30 15634 C 1445.52 5.1203 -1.50537 0
M  V30 15635 O 1445.74 5.68965 -0.404323 0
M  V30 15636 O 1444.68 5.54634 -2.33805 0
M  V30 15637 H 1448.5 2.25305 -2.03645 0
M  V30 15638 H 1446.09 1.06321 -1.04958 0
M  V30 15639 H 1447.97 4.18167 -0.520962 0
M  V30 15640 H 1446.65 3.23057 0.203978 0
M  V30 15641 H 1445.55 3.08981 -2.10906 0
M  V30 15642 H 1446.89 4.0763 -2.75859 0
M  V30 15643 N 1448.54 1.07657 1.15099 0
M  V30 15644 C 1449.45 0.711198 2.2356 0
M  V30 15645 C 1450.46 -0.278932 1.7175 0
M  V30 15646 O 1451.64 -0.124788 2.01013 0
M  V30 15647 C 1448.71 0.117855 3.465 0
M  V30 15648 C 1447.77 1.16162 4.13286 0
M  V30 15649 C 1447 0.596494 5.30356 0
M  V30 15650 O 1447.22 -0.586474 5.67377 0
M  V30 15651 O 1446.16 1.34288 5.86729 0
M  V30 15652 H 1449.98 1.61578 2.5715 0
M  V30 15653 H 1447.57 0.84973 1.22882 0
M  V30 15654 H 1449.45 -0.210613 4.20873 0
M  V30 15655 H 1448.12 -0.760008 3.14652 0
M  V30 15656 H 1447.03 1.54249 3.4082 0
M  V30 15657 H 1448.36 2.01149 4.49221 0
M  V30 15658 N 1450.02 -1.31994 0.861122 0
M  V30 15659 C 1451.29 -1.91699 0.388705 0
M  V30 15660 C 1451.67 -1.78412 -1.12838 0
M  V30 15661 O 1451.02 -1.18625 -1.95296 0
M  V30 15662 C 1451.23 -3.38232 0.860248 0
M  V30 15663 C 1452.58 -4.15355 0.881201 0
M  V30 15664 O 1453.6 -3.46977 0.805313 0
M  V30 15665 O 1452.46 -5.37468 0.98945 0
M  V30 15666 H 1449.56 -0.819017 0.114629 0
M  V30 15667 H 1452.1 -1.40721 0.94845 0
M  V30 15668 H 1450.87 -3.41876 1.9036 0
M  V30 15669 H 1450.5 -3.96625 0.278316 0
M  V30 15670 N 1451.49 -0.619688 -1.44906 0
M  V30 15671 C 1452.77 -0.0510703 -1.95533 0
M  V30 15672 C 1453.15 1.42013 -1.56191 0
M  V30 15673 O 1452.5 2.12879 -0.830356 0
M  V30 15674 C 1452.71 -0.261896 -3.48016 0
M  V30 15675 C 1454.06 -0.149057 -4.24338 0
M  V30 15676 O 1455.08 -0.192655 -3.55679 0
M  V30 15677 O 1453.94 -0.0443345 -5.46482 0
M  V30 15678 H 1451.03 0.0288461 -0.826497 0
M  V30 15679 H 1453.58 -0.690594 -1.55013 0
M  V30 15680 H 1452.35 -1.28319 -3.69662 0
M  V30 15681 H 1451.98 0.412314 -3.95456 0
M  V30 15682 N 1452.97 1.53444 -0.359552 0
M  V30 15683 C 1453.92 2.27053 0.504949 0
M  V30 15684 C 1454.91 1.29801 1.08849 0
M  V30 15685 O 1456.12 1.47451 1.03239 0
M  V30 15686 H 1452.5 0.729756 0.181549 0
M  V30 15687 H 1454.47 2.98082 -0.137719 0
M  V30 15688 C 1453.22 3.06815 1.63585 0
M  V30 15689 H 1452.54 3.81488 1.19611 0
M  V30 15690 H 1453.98 3.61508 2.21558 0
M  V30 15691 C 1452.44 2.17286 2.57466 0
M  V30 15692 O 1452.97 1.77961 3.60129 0
M  V30 15693 N 1451.17 1.82041 2.26516 0
M  V30 15694 H 1450.72 2.14218 1.43068 0
M  V30 15695 H 1450.68 1.22423 2.89586 0
M  V30 15696 N 1454.45 0.0885642 1.57351 0
M  V30 15697 C 1455.38 -0.869946 2.16689 0
M  V30 15698 C 1456.36 -1.29878 1.09844 0
M  V30 15699 O 1457.55 -1.36684 1.37954 0
M  V30 15700 C 1454.68 -2.13148 2.74199 0
M  V30 15701 C 1453.63 -1.84149 3.86359 0
M  V30 15702 C 1452.96 -3.17075 4.30543 0
M  V30 15703 C 1454.26 -1.13357 5.09851 0
M  V30 15704 H 1455.95 -0.375578 2.97035 0
M  V30 15705 H 1453.5 -0.17921 1.42881 0
M  V30 15706 H 1455.45 -2.80634 3.14361 0
M  V30 15707 H 1454.17 -2.64856 1.91098 0
M  V30 15708 H 1452.83 -1.19063 3.46727 0
M  V30 15709 H 1452.48 -3.66658 3.44342 0
M  V30 15710 H 1452.18 -2.98457 5.06159 0
M  V30 15711 H 1453.7 -3.85731 4.73333 0
M  V30 15712 H 1455.12 -1.70941 5.47222 0
M  V30 15713 H 1453.52 -1.0494 5.90853 0
M  V30 15714 H 1454.59 -0.115273 4.84763 0
M  V30 15715 N 1455.93 -1.56509 -0.185096 0
M  V30 15716 C 1457.15 -1.85683 -0.923941 0
M  V30 15717 C 1457.58 -0.673315 -1.75636 0
M  V30 15718 O 1456.94 0.3778 -1.7732 0
M  V30 15719 C 1456.98 -3.13165 -1.78774 0
M  V30 15720 O 1456.09 -2.9442 -2.88775 0
M  V30 15721 H 1455.43 -0.611139 -0.259624 0
M  V30 15722 H 1457.96 -2.0374 -0.187393 0
M  V30 15723 H 1457.97 -3.44216 -2.19042 0
M  V30 15724 H 1456.64 -3.98922 -1.17619 0
M  V30 15725 H 1455.22 -2.7469 -2.5219 0
M  V30 15726 N 1457.41 0.45317 -1.50944 0
M  V30 15727 C 1458.63 1.23136 -1.6689 0
M  V30 15728 C 1459.06 1.84639 -0.359185 0
M  V30 15729 O 1458.41 1.68106 0.678983 0
M  V30 15730 C 1458.46 2.30275 -2.77499 0
M  V30 15731 O 1457.57 3.35371 -2.39999 0
M  V30 15732 H 1456.91 0.361475 -0.556984 0
M  V30 15733 H 1459.44 0.537174 -1.97422 0
M  V30 15734 H 1459.45 2.75309 -3.01113 0
M  V30 15735 H 1458.12 1.84885 -3.72546 0
M  V30 15736 H 1456.7 2.95924 -2.26899 0
M  V30 15737 N 1458.88 1.40823 0.707568 0
M  V30 15738 C 1459.82 1.36132 1.83149 0
M  V30 15739 C 1460.8 0.230423 1.60959 0
M  V30 15740 O 1461.98 0.415391 1.83866 0
M  V30 15741 C 1459.11 1.12055 3.19627 0
M  V30 15742 C 1458.15 2.27703 3.6063 0
M  V30 15743 S 1458.99 3.90134 3.66818 0
M  V30 15744 C 1460.14 3.68336 5.06043 0
M  V30 15745 H 1460.37 2.31246 1.86849 0
M  V30 15746 H 1457.91 1.27204 0.875126 0
M  V30 15747 H 1459.87 0.988486 3.98421 0
M  V30 15748 H 1458.53 0.185809 3.1355 0
M  V30 15749 H 1457.72 2.06519 4.59746 0
M  V30 15750 H 1457.32 2.37254 2.89114 0
M  V30 15751 H 1459.61 3.27299 5.93196 0
M  V30 15752 H 1460.56 4.67012 5.32265 0
M  V30 15753 H 1460.96 3.01856 4.77015 0
M  V30 15754 N 1460.36 -0.94061 1.26453 0
M  V30 15755 C 1461.29 -2.05667 1.10559 0
M  V30 15756 C 1462.27 -1.70097 0.0106258 0
M  V30 15757 O 1463.46 -1.93338 0.182756 0
M  V30 15758 C 1460.59 -3.3936 0.7384 0
M  V30 15759 C 1459.54 -3.88993 1.78517 0
M  V30 15760 C 1458.87 -5.19343 1.27228 0
M  V30 15761 C 1460.17 -4.13812 3.1868 0
M  V30 15762 H 1461.86 -2.19221 2.03918 0
M  V30 15763 H 1459.41 -1.05339 0.98182 0
M  V30 15764 H 1461.36 -4.16902 0.61409 0
M  V30 15765 H 1460.09 -3.25783 -0.230887 0
M  V30 15766 H 1458.74 -3.13633 1.89816 0
M  V30 15767 H 1458.39 -5.02147 0.292816 0
M  V30 15768 H 1458.09 -5.53521 1.97201 0
M  V30 15769 H 1459.62 -5.99468 1.16065 0
M  V30 15770 H 1461.03 -4.81966 3.10455 0
M  V30 15771 H 1459.43 -4.59273 3.86249 0
M  V30 15772 H 1460.5 -3.19571 3.64695 0
M  V30 15773 N 1461.84 -1.08266 -1.14527 0
M  V30 15774 C 1462.79 -0.680977 -2.17593 0
M  V30 15775 C 1463.77 0.298653 -1.58104 0
M  V30 15776 O 1464.97 0.110901 -1.76652 0
M  V30 15777 C 1462.1 -0.0902883 -3.43181 0
M  V30 15778 C 1461.18 -1.09562 -4.09704 0
M  V30 15779 N 1461.57 -2.27853 -4.51571 0
M  V30 15780 C 1459.87 -0.931053 -4.36174 0
M  V30 15781 C 1460.57 -2.91708 -5.03271 0
M  V30 15782 N 1459.55 -2.19325 -4.97391 0
M  V30 15783 H 1463.35 -1.58178 -2.47703 0
M  V30 15784 H 1460.86 -0.957169 -1.31195 0
M  V30 15785 H 1462.86 0.215428 -4.16343 0
M  V30 15786 H 1461.52 0.805513 -3.1455 0
M  V30 15787 H 1462.53 -2.65517 -4.44659 0
M  V30 15788 H 1459.21 -0.0889339 -4.17405 0
M  V30 15789 H 1460.6 -3.92202 -5.45552 0
M  V30 15790 N 1463.32 1.31536 -0.86811 0
M  V30 15791 C 1464.25 2.27486 -0.279749 0
M  V30 15792 C 1465.26 1.53006 0.556158 0
M  V30 15793 O 1466.45 1.74442 0.378454 0
M  V30 15794 C 1463.55 3.33139 0.622197 0
M  V30 15795 C 1462.73 4.37026 -0.180855 0
M  V30 15796 C 1461.79 5.22183 0.64894 0
M  V30 15797 O 1460.81 5.69147 0.0776395 0
M  V30 15798 N 1462.01 5.46365 1.96127 0
M  V30 15799 H 1464.78 2.78613 -1.1043 0
M  V30 15800 H 1462.34 1.44538 -0.729409 0
M  V30 15801 H 1464.33 3.87024 1.18297 0
M  V30 15802 H 1462.9 2.8207 1.34742 0
M  V30 15803 H 1462.12 3.8324 -0.923078 0
M  V30 15804 H 1463.41 5.03508 -0.731953 0
M  V30 15805 H 1462.81 5.09962 2.44857 0
M  V30 15806 H 1461.36 6.03192 2.46987 0
M  V30 15807 N 1464.8 0.627364 1.44575 0
M  V30 15808 C 1466.21 0.292662 1.56894 0
M  V30 15809 C 1466.41 -1.20429 1.61552 0
M  V30 15810 O 1465.47 -1.98819 1.55651 0
M  V30 15811 C 1466.78 0.981267 2.84239 0
M  V30 15812 C 1468.33 0.959053 2.97945 0
M  V30 15813 C 1468.81 1.62805 4.28087 0
M  V30 15814 N 1470.3 1.59446 4.34892 0
M  V30 15815 C 1471.03 2.08107 5.34302 0
M  V30 15816 N 1470.53 2.64942 6.40139 0
M  V30 15817 N 1472.32 1.98758 5.25787 0
M  V30 15818 H 1464.47 1.5991 1.39795 0
M  V30 15819 H 1466.73 0.671019 0.669655 0
M  V30 15820 H 1466.44 2.0361 2.86768 0
M  V30 15821 H 1466.31 0.516703 3.73644 0
M  V30 15822 H 1468.7 -0.0872902 2.94971 0
M  V30 15823 H 1468.78 1.46207 2.09898 0
M  V30 15824 H 1468.43 2.67382 4.31821 0
M  V30 15825 H 1468.36 1.09989 5.14985 0
M  V30 15826 H 1470.85 1.17947 3.59022 0
M  V30 15827 H 1471.16 2.99814 7.12272 0
M  V30 15828 H 1469.51 2.68991 6.40835 0
M  V30 15829 H 1472.7 1.54081 4.42014 0
M  V30 15830 H 1472.87 2.36992 6.03107 0
M  V30 15831 N 1466.28 -1.53251 0.367684 0
M  V30 15832 C 1467.24 -2.24423 -0.465516 0
M  V30 15833 C 1468.24 -1.25283 -1.00801 0
M  V30 15834 O 1469.43 -1.49545 -0.893424 0
M  V30 15835 C 1466.56 -2.9826 -1.65087 0
M  V30 15836 H 1467.75 -2.99487 0.157292 0
M  V30 15837 H 1465.31 -1.55843 0.119409 0
M  V30 15838 H 1466.04 -2.27443 -2.31171 0
M  V30 15839 H 1465.83 -3.71003 -1.26882 0
M  V30 15840 H 1467.32 -3.52358 -2.24128 0
M  V30 15841 N 1467.75 -0.0969077 -1.57302 0
M  V30 15842 C 1468.66 0.875561 -2.17649 0
M  V30 15843 C 1469.68 1.30892 -1.14645 0
M  V30 15844 O 1470.86 1.37646 -1.47022 0
M  V30 15845 C 1467.92 2.116 -2.74639 0
M  V30 15846 C 1466.98 1.73667 -3.92604 0
M  V30 15847 C 1466.21 2.91798 -4.46867 0
M  V30 15848 O 1466.44 4.06577 -4.00064 0
M  V30 15849 O 1465.37 2.70159 -5.37864 0
M  V30 15850 H 1469.2 0.392107 -3.01158 0
M  V30 15851 H 1466.78 0.127539 -1.48855 0
M  V30 15852 H 1468.66 2.84292 -3.11057 0
M  V30 15853 H 1467.34 2.58994 -1.94174 0
M  V30 15854 H 1466.25 0.981505 -3.60995 0
M  V30 15855 H 1467.58 1.31035 -4.74437 0
M  V30 15856 N 1469.23 1.56605 0.176793 0
M  V30 15857 C 1470.48 1.80875 0.892578 0
M  V30 15858 C 1470.79 0.673245 1.83648 0
M  V30 15859 O 1472 0.800732 2.59423 0
M  V30 15860 C 1470.46 3.20481 1.63768 0
M  V30 15861 C 1470.06 4.41885 0.737685 0
M  V30 15862 C 1471.81 3.54048 2.34202 0
M  V30 15863 C 1469.71 5.72512 1.48271 0
M  V30 15864 H 1468.64 0.674476 0.337042 0
M  V30 15865 H 1471.3 1.82922 0.145574 0
M  V30 15866 H 1469.68 3.12736 2.42924 0
M  V30 15867 H 1470.85 4.60797 -0.0165186 0
M  V30 15868 H 1469.17 4.16153 0.143277 0
M  V30 15869 H 1471.76 4.48886 2.90526 0
M  V30 15870 H 1472.11 2.78665 3.09276 0
M  V30 15871 H 1472.64 3.63322 1.61995 0
M  V30 15872 H 1469.38 6.5091 0.774399 0
M  V30 15873 H 1468.9 5.57586 2.21038 0
M  V30 15874 H 1470.58 6.14274 2.03165 0
M  V30 15875 N 1470.71 -0.445159 1.51182 0
M  V30 15876 C 1472.12 -1.02528 1.56028 0
M  V30 15877 C 1472.47 -1.92503 0.379087 0
M  V30 15878 O 1471.6 -2.10424 -0.505056 0
M  V30 15879 C 1472.19 -1.86621 2.82768 0
M  V30 15880 C 1470.75 -2.39697 2.90211 0
M  V30 15881 C 1469.9 -1.18705 2.50608 0
M  V30 15882 H 1472.85 -0.226732 1.57072 0
M  V30 15883 H 1472.87 -2.71987 2.66089 0
M  V30 15884 H 1472.38 -1.2111 3.68719 0
M  V30 15885 H 1470.48 -3.08686 2.08672 0
M  V30 15886 H 1470.6 -2.73029 3.9369 0
M  V30 15887 H 1468.96 -1.52995 2.03629 0
M  V30 15888 H 1469.74 -0.548156 3.38895 0
M  V30 15889 N 1472.19 -1.41197 -0.700089 0
M  V30 15890 C 1473.43 -1.4152 -1.46095 0
M  V30 15891 C 1473.79 -0.0221135 -1.92387 0
M  V30 15892 O 1473.08 0.951201 -1.66321 0
M  V30 15893 C 1473.28 -2.35259 -2.6905 0
M  V30 15894 C 1473.1 -3.83544 -2.34785 0
M  V30 15895 C 1471.87 -4.52258 -2.25369 0
M  V30 15896 C 1474.07 -4.74637 -1.9805 0
M  V30 15897 N 1472.05 -5.85695 -1.83942 0
M  V30 15898 C 1473.43 -5.96989 -1.67346 0
M  V30 15899 C 1475.48 -4.62326 -1.84821 0
M  V30 15900 C 1474.18 -7.08401 -1.24742 0
M  V30 15901 C 1476.21 -5.73696 -1.43621 0
M  V30 15902 C 1475.57 -6.95143 -1.13825 0
M  V30 15903 H 1471.67 -0.573085 -0.53207 0
M  V30 15904 H 1474.25 -1.77032 -0.810413 0
M  V30 15905 H 1472.43 -2.01849 -3.3183 0
M  V30 15906 H 1474.16 -2.26333 -3.35493 0
M  V30 15907 H 1470.91 -4.06137 -2.43618 0
M  V30 15908 H 1471.34 -6.56403 -1.65722 0
M  V30 15909 H 1475.98 -3.68934 -2.06513 0
M  V30 15910 H 1473.7 -8.01663 -1.01794 0
M  V30 15911 H 1477.28 -5.66172 -1.33941 0
M  V30 15912 H 1476.16 -7.79856 -0.824257 0
M  V30 15913 N 1473.67 0.933891 -1.2695 0
M  V30 15914 C 1475.08 1.20873 -1.0422 0
M  V30 15915 C 1475.28 2.00205 0.228112 0
M  V30 15916 O 1474.34 2.34539 0.935284 0
M  V30 15917 C 1475.65 1.9629 -2.27795 0
M  V30 15918 C 1477.2 2.09254 -2.3277 0
M  V30 15919 C 1477.67 2.88075 -3.56057 0
M  V30 15920 N 1479.16 2.95646 -3.56578 0
M  V30 15921 C 1479.9 3.57082 -4.48642 0
M  V30 15922 N 1479.4 4.1996 -5.51004 0
M  V30 15923 N 1481.19 3.54425 -4.36279 0
M  V30 15924 H 1473.34 0.403735 -2.08528 0
M  V30 15925 H 1475.6 0.241189 -0.916805 0
M  V30 15926 H 1475.31 1.45412 -3.20231 0
M  V30 15927 H 1475.18 2.9693 -2.32621 0
M  V30 15928 H 1477.57 2.5932 -1.40844 0
M  V30 15929 H 1477.65 1.07854 -2.31951 0
M  V30 15930 H 1477.29 2.38693 -4.48317 0
M  V30 15931 H 1477.22 3.89746 -3.54126 0
M  V30 15932 H 1479.72 2.50951 -2.82545 0
M  V30 15933 H 1480.03 4.64758 -6.1743 0
M  V30 15934 H 1478.37 4.18525 -5.54853 0
M  V30 15935 H 1481.56 3.045 -3.55524 0
M  V30 15936 H 1481.74 4.02016 -5.0822 0
M  V30 15937 N 1475.14 1.08871 1.13951 0
M  V30 15938 C 1476.11 0.726655 2.17376 0
M  V30 15939 C 1477.11 -0.240922 1.58985 0
M  V30 15940 O 1478.3 -0.0198472 1.74189 0
M  V30 15941 C 1475.43 0.0736505 3.4082 0
M  V30 15942 H 1476.62 1.64254 2.5092 0
M  V30 15943 H 1474.17 0.887183 1.28681 0
M  V30 15944 H 1474.91 -0.853733 3.12861 0
M  V30 15945 H 1474.69 0.769782 3.84469 0
M  V30 15946 H 1476.18 -0.164465 4.17276 0
M  V30 15947 N 1476.62 -1.31073 0.875073 0
M  V30 15948 C 1477.86 -1.98313 0.495116 0
M  V30 15949 C 1478.23 -1.67629 -0.93619 0
M  V30 15950 O 1479.43 -2.28122 -1.42176 0
M  V30 15951 C 1477.7 -3.49424 0.750847 0
M  V30 15952 S 1479.26 -4.36259 0.471512 0
M  V30 15953 H 1476.07 -0.686614 0.184613 0
M  V30 15954 H 1478.68 -1.59378 1.1322 0
M  V30 15955 H 1477.38 -3.69246 1.79124 0
M  V30 15956 H 1476.91 -3.9327 0.100946 0
M  V30 15957 H 1478.93 -4.91322 -0.69407 0
M  V30 15958 N 1478.1 -0.635022 -1.4424 0
M  V30 15959 C 1479.06 0.0579377 -2.29127 0
M  V30 15960 C 1480.06 0.768489 -1.41248 0
M  V30 15961 O 1481.25 0.612489 -1.63077 0
M  V30 15962 C 1478.39 1.09266 -3.22914 0
M  V30 15963 H 1479.58 -0.688723 -2.91885 0
M  V30 15964 H 1477.13 -0.395347 -1.51217 0
M  V30 15965 H 1477.87 1.86917 -2.65014 0
M  V30 15966 H 1477.65 0.587036 -3.87681 0
M  V30 15967 H 1479.14 1.57716 -3.86672 0
M  V30 15968 N 1479.58 1.53054 -0.375806 0
M  V30 15969 C 1480.53 2.2605 0.46582 0
M  V30 15970 C 1481.5 1.27123 1.06906 0
M  V30 15971 O 1482.68 1.55926 1.09963 0
M  V30 15972 C 1479.82 3.06066 1.59429 0
M  V30 15973 C 1478.93 4.19901 1.01523 0
M  V30 15974 C 1478.07 4.87339 2.11363 0
M  V30 15975 C 1477.11 5.93189 1.50976 0
M  V30 15976 N 1476.24 6.54276 2.54692 0
M  V30 15977 H 1481.08 2.97553 -0.163149 0
M  V30 15978 H 1478.62 1.4681 -0.092282 0
M  V30 15979 H 1480.58 3.50739 2.25915 0
M  V30 15980 H 1479.21 2.36799 2.19377 0
M  V30 15981 H 1478.26 3.7964 0.240346 0
M  V30 15982 H 1479.57 4.95935 0.533812 0
M  V30 15983 H 1478.73 5.35247 2.85649 0
M  V30 15984 H 1477.47 4.10799 2.6286 0
M  V30 15985 H 1476.47 5.44632 0.752095 0
M  V30 15986 H 1477.7 6.71654 1.00291 0
M  V30 15987 H 1475.64 5.80584 3.05383 0
M  V30 15988 H 1475.56 7.2588 2.11267 0
M  V30 15989 H 1476.83 7.06831 3.28648 0
M  V30 15990 N 1481.06 0.105248 1.57248 0
M  V30 15991 C 1482.29 -0.563339 1.98771 0
M  V30 15992 C 1482.69 -1.6163 0.98348 0
M  V30 15993 O 1482.04 -1.83669 -0.0337474 0
M  V30 15994 C 1482.1 -1.26026 3.36686 0
M  V30 15995 C 1481.76 -0.356865 4.55605 0
M  V30 15996 C 1482.76 0.399055 5.18366 0
M  V30 15997 C 1480.45 -0.271954 5.01563 0
M  V30 15998 C 1482.44 1.22776 6.25464 0
M  V30 15999 C 1480.13 0.560395 6.08525 0
M  V30 16000 C 1481.12 1.30889 6.70341 0
M  V30 16001 O 1480.81 2.12745 7.75239 0
M  V30 16002 H 1480.54 -0.154882 0.658018 0
M  V30 16003 H 1483.1 0.184266 2.04572 0
M  V30 16004 H 1481.33 -2.05465 3.27599 0
M  V30 16005 H 1483.02 -1.82439 3.62589 0
M  V30 16006 H 1483.78 0.343247 4.83784 0
M  V30 16007 H 1479.66 -0.844224 4.53204 0
M  V30 16008 H 1483.21 1.81248 6.73643 0
M  V30 16009 H 1479.1 0.617647 6.42538 0
M  V30 16010 H 1479.87 2.05537 7.92273 0
M  V30 16011 N 1482.53 -1.56697 -0.168486 0
M  V30 16012 C 1483.46 -1.99659 -1.21073 0
M  V30 16013 C 1484.45 -0.872625 -1.46011 0
M  V30 16014 O 1485.63 -1.13891 -1.57297 0
M  V30 16015 C 1482.76 -2.35889 -2.54899 0
M  V30 16016 C 1481.71 -3.51272 -2.44524 0
M  V30 16017 C 1481.04 -3.73253 -3.82866 0
M  V30 16018 C 1482.34 -4.84631 -1.94756 0
M  V30 16019 H 1484.03 -2.86974 -0.853593 0
M  V30 16020 H 1481.58 -1.38065 -0.409165 0
M  V30 16021 H 1483.53 -2.64542 -3.28017 0
M  V30 16022 H 1482.26 -1.45486 -2.92406 0
M  V30 16023 H 1480.92 -3.22751 -1.7386 0
M  V30 16024 H 1480.56 -2.80136 -4.17772 0
M  V30 16025 H 1480.26 -4.5089 -3.76792 0
M  V30 16026 H 1481.79 -4.04309 -4.57566 0
M  V30 16027 H 1483.2 -5.12142 -2.5765 0
M  V30 16028 H 1481.6 -5.65925 -1.99623 0
M  V30 16029 H 1482.67 -4.76436 -0.902021 0
M  V30 16030 N 1484.01 0.437135 -1.51416 0
M  V30 16031 C 1485.24 1.21359 -1.68187 0
M  V30 16032 C 1485.66 1.84247 -0.378748 0
M  V30 16033 O 1485.02 1.68816 0.661115 0
M  V30 16034 C 1485.07 2.27319 -2.79926 0
M  V30 16035 O 1484.17 3.32807 -2.43543 0
M  V30 16036 H 1483.51 0.355547 -0.560787 0
M  V30 16037 H 1486.04 0.516204 -1.97981 0
M  V30 16038 H 1486.05 2.721 -3.04016 0
M  V30 16039 H 1484.73 1.80923 -3.74486 0
M  V30 16040 H 1483.31 2.93501 -2.30025 0
M  V30 16041 N 1485.49 1.41566 0.692592 0
M  V30 16042 C 1486.72 1.44646 1.48635 0
M  V30 16043 C 1487.14 0.0541597 1.88022 0
M  V30 16044 O 1486.5 -0.943305 1.54827 0
M  V30 16045 C 1486.55 2.3636 2.72335 0
M  V30 16046 O 1485.65 1.8227 3.69934 0
M  V30 16047 H 1484.99 0.490791 0.447236 0
M  V30 16048 H 1487.52 1.8606 0.851056 0
M  V30 16049 H 1487.53 2.52337 3.20609 0
M  V30 16050 H 1486.21 3.37523 2.43004 0
M  V30 16051 H 1484.78 1.75759 3.28882 0
M  V30 16052 N 1486.97 -0.927146 1.27443 0
M  V30 16053 C 1487.93 -2.00938 1.10257 0
M  V30 16054 C 1488.93 -1.60733 0.0463898 0
M  V30 16055 O 1490.12 -1.71752 0.291029 0
M  V30 16056 C 1487.25 -3.34047 0.680115 0
M  V30 16057 H 1488.45 -2.17615 2.06358 0
M  V30 16058 H 1486 -1.10802 1.10239 0
M  V30 16059 H 1486.73 -3.23069 -0.282259 0
M  V30 16060 H 1486.52 -3.64585 1.44291 0
M  V30 16061 H 1488.01 -4.13523 0.582126 0
M  V30 16062 N 1488.45 -1.09474 -1.13372 0
M  V30 16063 C 1489.69 -0.82945 -1.84295 0
M  V30 16064 C 1490.02 0.646788 -1.83961 0
M  V30 16065 O 1489.29 1.46929 -1.29572 0
M  V30 16066 H 1487.87 -0.303853 -0.682409 0
M  V30 16067 H 1490.53 -1.38298 -1.3733 0
M  V30 16068 H 1489.62 -1.18342 -2.88793 0
M  V30 16069 N 1489.92 1.30607 -0.882012 0
M  V30 16070 C 1491.17 1.95531 -0.495038 0
M  V30 16071 C 1491.49 1.70418 0.96005 0
M  V30 16072 O 1492.69 2.29301 1.45373 0
M  V30 16073 C 1491.15 3.50094 -0.834382 0
M  V30 16074 C 1490.76 3.84031 -2.30704 0
M  V30 16075 C 1492.5 4.21347 -0.516463 0
M  V30 16076 C 1490.41 5.31759 -2.58817 0
M  V30 16077 H 1489.34 0.731854 -0.181399 0
M  V30 16078 H 1491.99 1.486 -1.07658 0
M  V30 16079 H 1490.37 3.95582 -0.181961 0
M  V30 16080 H 1491.54 3.49463 -3.00353 0
M  V30 16081 H 1489.86 3.25874 -2.5922 0
M  V30 16082 H 1492.46 5.30051 -0.703576 0
M  V30 16083 H 1492.8 4.12731 0.543935 0
M  V30 16084 H 1493.33 3.81533 -1.12595 0
M  V30 16085 H 1490.07 5.45422 -3.63586 0
M  V30 16086 H 1489.59 5.67637 -1.93774 0
M  V30 16087 H 1491.27 5.9916 -2.44165 0
M  V30 16088 N 1491.4 0.642663 1.43901 0
M  V30 16089 C 1492.33 -0.0419756 2.33462 0
M  V30 16090 C 1493.31 -0.822923 1.48869 0
M  V30 16091 O 1494.5 -0.786508 1.7756 0
M  V30 16092 C 1491.63 -1.01631 3.32097 0
M  V30 16093 C 1490.58 -0.346206 4.26597 0
M  V30 16094 C 1489.91 -1.43125 5.15189 0
M  V30 16095 C 1491.21 0.754799 5.16817 0
M  V30 16096 H 1492.9 0.705929 2.90959 0
M  V30 16097 H 1490.45 0.340924 1.39906 0
M  V30 16098 H 1492.4 -1.5041 3.93643 0
M  V30 16099 H 1491.13 -1.79525 2.72834 0
M  V30 16100 H 1489.78 0.121038 3.664 0
M  V30 16101 H 1489.43 -2.20135 4.52271 0
M  V30 16102 H 1489.13 -0.988194 5.79231 0
M  V30 16103 H 1490.66 -1.92061 5.79607 0
M  V30 16104 H 1492.07 0.349624 5.72233 0
M  V30 16105 H 1490.47 1.12169 5.89524 0
M  V30 16106 H 1491.54 1.61718 4.57138 0
M  V30 16107 N 1492.88 -1.52852 0.383918 0
M  V30 16108 C 1493.81 -2.29213 -0.44539 0
M  V30 16109 C 1494.79 -1.3238 -1.06815 0
M  V30 16110 O 1495.98 -1.61269 -1.08194 0
M  V30 16111 C 1493.11 -3.09497 -1.57573 0
M  V30 16112 C 1492.06 -4.14168 -1.07928 0
M  V30 16113 C 1491.39 -4.82644 -2.30128 0
M  V30 16114 C 1492.69 -5.22082 -0.151035 0
M  V30 16115 H 1494.38 -2.98786 0.19172 0
M  V30 16116 H 1491.93 -1.43695 0.0936471 0
M  V30 16117 H 1493.88 -3.61672 -2.16267 0
M  V30 16118 H 1492.6 -2.37647 -2.24034 0
M  V30 16119 H 1491.26 -3.62966 -0.514909 0
M  V30 16120 H 1490.91 -4.07348 -2.95087 0
M  V30 16121 H 1490.61 -5.53388 -1.97574 0
M  V30 16122 H 1492.14 -5.37621 -2.89475 0
M  V30 16123 H 1493.55 -5.69649 -0.646003 0
M  V30 16124 H 1491.95 -6.00041 0.0844833 0
M  V30 16125 H 1493.02 -4.78228 0.801618 0
M  V30 16126 N 1494.36 -0.113586 -1.5719 0
M  V30 16127 C 1495.29 0.835363 -2.18046 0
M  V30 16128 C 1496.27 1.28114 -1.11897 0
M  V30 16129 O 1497.46 1.34472 -1.40111 0
M  V30 16130 C 1494.59 2.08759 -2.77556 0
M  V30 16131 C 1493.54 1.77979 -3.8924 0
M  V30 16132 C 1492.87 3.10185 -4.35533 0
M  V30 16133 C 1494.17 1.05231 -5.11589 0
M  V30 16134 H 1495.86 0.328275 -2.97595 0
M  V30 16135 H 1493.41 0.156456 -1.43148 0
M  V30 16136 H 1495.36 2.75597 -3.18785 0
M  V30 16137 H 1494.08 2.61783 -1.95288 0
M  V30 16138 H 1492.74 1.13532 -3.48577 0
M  V30 16139 H 1492.39 3.61133 -3.50131 0
M  V30 16140 H 1492.09 2.90367 -5.10843 0
M  V30 16141 H 1493.61 3.78151 -4.7941 0
M  V30 16142 H 1495.03 1.62213 -5.49872 0
M  V30 16143 H 1493.42 0.955269 -5.92448 0
M  V30 16144 H 1494.49 0.038137 -4.84885 0
M  V30 16145 N 1495.84 1.56784 0.160173 0
M  V30 16146 C 1497.06 1.87129 0.894283 0
M  V30 16147 C 1497.49 0.701172 1.74543 0
M  V30 16148 O 1496.85 -0.349542 1.77899 0
M  V30 16149 C 1496.89 3.15969 1.73769 0
M  V30 16150 O 1496 2.98977 2.84054 0
M  V30 16151 H 1495.34 0.615192 0.249869 0
M  V30 16152 H 1497.87 2.04012 0.154956 0
M  V30 16153 H 1497.88 3.47657 2.13538 0
M  V30 16154 H 1496.55 4.00742 1.11258 0
M  V30 16155 H 1495.13 2.78668 2.47788 0
M  V30 16156 N 1497.32 -0.429099 1.51646 0
M  V30 16157 C 1498.25 -1.52867 1.76505 0
M  V30 16158 C 1499.23 -1.58586 0.615178 0
M  V30 16159 O 1500.41 -1.74182 0.858742 0
M  V30 16160 C 1497.54 -2.90875 1.8976 0
M  V30 16161 C 1496.5 -3.00014 3.05247 0
M  V30 16162 C 1495.82 -4.40082 3.03696 0
M  V30 16163 C 1497.12 -2.73334 4.45068 0
M  V30 16164 H 1498.82 -1.32315 2.68576 0
M  V30 16165 H 1496.36 -0.635091 1.29238 0
M  V30 16166 H 1498.31 -3.67765 2.05734 0
M  V30 16167 H 1497.04 -3.12677 0.943442 0
M  V30 16168 H 1495.7 -2.25565 2.88991 0
M  V30 16169 H 1495.35 -4.58864 2.06042 0
M  V30 16170 H 1495.05 -4.47125 3.81252 0
M  V30 16171 H 1496.57 -5.18935 3.21774 0
M  V30 16172 H 1497.98 -3.39954 4.61632 0
M  V30 16173 H 1496.38 -2.91777 5.24391 0
M  V30 16174 H 1497.45 -1.68889 4.54538 0
M  V30 16175 N 1498.79 -1.41931 -0.685074 0
M  V30 16176 C 1499.72 -1.47385 -1.81107 0
M  V30 16177 C 1500.7 -0.331433 -1.6684 0
M  V30 16178 O 1501.89 -0.544331 -1.86415 0
M  V30 16179 C 1499.02 -1.36555 -3.19327 0
M  V30 16180 C 1497.97 -2.48718 -3.48315 0
M  V30 16181 C 1497.3 -2.2295 -4.86002 0
M  V30 16182 C 1498.6 -3.91047 -3.46237 0
M  V30 16183 H 1500.29 -2.41624 -1.768 0
M  V30 16184 H 1497.84 -1.16297 -0.849178 0
M  V30 16185 H 1499.79 -1.38981 -3.97822 0
M  V30 16186 H 1498.52 -0.388063 -3.24286 0
M  V30 16187 H 1497.18 -2.45592 -2.72176 0
M  V30 16188 H 1496.82 -1.23518 -4.87598 0
M  V30 16189 H 1496.52 -2.98116 -5.0636 0
M  V30 16190 H 1498.05 -2.27108 -5.66793 0
M  V30 16191 H 1499.46 -3.95831 -4.14718 0
M  V30 16192 H 1497.86 -4.65981 -3.7813 0
M  V30 16193 H 1498.93 -4.1845 -2.45006 0
M  V30 16194 N 1500.27 0.920374 -1.27933 0
M  V30 16195 C 1501.52 1.67131 -1.1487 0
M  V30 16196 C 1501.85 1.91816 0.303343 0
M  V30 16197 O 1501.13 1.51379 1.22125 0
M  V30 16198 C 1501.41 3.03332 -1.94066 0
M  V30 16199 C 1501.26 2.85842 -3.47296 0
M  V30 16200 C 1502.58 4.03773 -1.75087 0
M  V30 16201 H 1499.7 0.606537 -0.418666 0
M  V30 16202 H 1502.34 1.06755 -1.57173 0
M  V30 16203 H 1500.49 3.54869 -1.58116 0
M  V30 16204 H 1502.16 2.41367 -3.93115 0
M  V30 16205 H 1500.41 2.21035 -3.73264 0
M  V30 16206 H 1501.08 3.82535 -3.97958 0
M  V30 16207 H 1503.55 3.61274 -2.06447 0
M  V30 16208 H 1502.43 4.97048 -2.32882 0
M  V30 16209 H 1502.69 4.36512 -0.700665 0
M  V30 16210 N 1501.75 1.10074 1.1279 0
M  V30 16211 C 1503 0.840873 1.84216 0
M  V30 16212 C 1503.32 -0.633551 1.83892 0
M  V30 16213 O 1502.58 -1.48283 1.27714 0
M  V30 16214 C 1502.88 1.32969 3.31744 0
M  V30 16215 C 1502.54 2.81489 3.52242 0
M  V30 16216 C 1501.21 3.22048 3.57545 0
M  V30 16217 C 1503.56 3.77216 3.59664 0
M  V30 16218 C 1500.89 4.57092 3.67809 0
M  V30 16219 C 1503.24 5.12057 3.71457 0
M  V30 16220 C 1501.9 5.52196 3.75014 0
M  V30 16221 H 1501.17 0.307697 0.674095 0
M  V30 16222 H 1503.82 1.37669 1.33115 0
M  V30 16223 H 1502.12 0.713819 3.85243 0
M  V30 16224 H 1503.82 1.10515 3.8547 0
M  V30 16225 H 1500.41 2.49106 3.48775 0
M  V30 16226 H 1504.6 3.4699 3.5484 0
M  V30 16227 H 1499.85 4.87618 3.68834 0
M  V30 16228 H 1504.03 5.86081 3.76142 0
M  V30 16229 H 1501.65 6.56833 3.8272 0
M  V30 16230 N 1503.23 -1.30138 0.888926 0
M  V30 16231 C 1504.45 -2.00679 0.523697 0
M  V30 16232 C 1504.88 -1.66167 -0.881479 0
M  V30 16233 O 1504.24 -0.880418 -1.58488 0
M  V30 16234 C 1504.28 -3.53535 0.710284 0
M  V30 16235 O 1503.39 -4.11689 -0.242066 0
M  V30 16236 H 1502.73 -0.631273 0.205888 0
M  V30 16237 H 1505.26 -1.65891 1.19756 0
M  V30 16238 H 1505.27 -4.03402 0.610794 0
M  V30 16239 H 1503.94 -3.77992 1.73478 0
M  V30 16240 H 1502.52 -3.72777 -0.0959393 0
M  V30 16241 N 1504.71 -0.650285 -1.43559 0
M  V30 16242 C 1505.64 0.0817484 -2.29054 0
M  V30 16243 C 1506.65 0.790023 -1.42346 0
M  V30 16244 O 1507.84 0.648269 -1.66312 0
M  V30 16245 C 1504.94 1.13873 -3.19196 0
M  V30 16246 C 1504.11 0.509177 -4.34426 0
M  V30 16247 C 1503.17 1.46265 -5.05463 0
M  V30 16248 O 1502.2 0.972378 -5.60833 0
M  V30 16249 N 1503.4 2.79668 -5.08691 0
M  V30 16250 H 1506.16 -0.652062 -2.92521 0
M  V30 16251 H 1503.73 -0.49285 -1.54216 0
M  V30 16252 H 1505.72 1.77732 -3.63584 0
M  V30 16253 H 1504.29 1.77454 -2.5735 0
M  V30 16254 H 1503.51 -0.308444 -3.92991 0
M  V30 16255 H 1504.8 0.0695732 -5.08752 0
M  V30 16256 H 1504.19 3.22062 -4.65072 0
M  V30 16257 H 1502.75 3.38838 -5.56805 0
M  V30 16258 N 1506.18 1.52647 -0.392018 0
M  V30 16259 C 1507.11 2.29446 0.433228 0
M  V30 16260 C 1508.09 1.32945 1.06111 0
M  V30 16261 O 1509.28 1.61841 1.07337 0
M  V30 16262 C 1506.41 3.10328 1.55929 0
M  V30 16263 C 1505.36 4.14735 1.05731 0
M  V30 16264 C 1504.69 4.83858 2.27565 0
M  V30 16265 C 1505.99 5.22154 0.123346 0
M  V30 16266 H 1507.68 2.9868 -0.207563 0
M  V30 16267 H 1505.23 1.43643 -0.101266 0
M  V30 16268 H 1507.18 3.62814 2.14346 0
M  V30 16269 H 1505.91 2.38832 2.22771 0
M  V30 16270 H 1504.57 3.63234 0.495653 0
M  V30 16271 H 1504.21 4.08907 2.92923 0
M  V30 16272 H 1503.91 5.54428 1.94637 0
M  V30 16273 H 1505.44 5.39149 2.86619 0
M  V30 16274 H 1506.85 5.69983 0.615784 0
M  V30 16275 H 1505.25 5.99987 -0.116304 0
M  V30 16276 H 1506.32 4.77796 -0.826969 0
M  V30 16277 N 1507.66 0.121921 1.57128 0
M  V30 16278 C 1508.59 -0.823788 2.18486 0
M  V30 16279 C 1509.57 -1.27519 1.12574 0
M  V30 16280 O 1510.76 -1.33727 1.40822 0
M  V30 16281 C 1507.89 -2.07284 2.78659 0
M  V30 16282 C 1506.84 -1.75912 3.90178 0
M  V30 16283 C 1506.17 -3.07871 4.37172 0
M  V30 16284 C 1507.47 -1.02517 5.1214 0
M  V30 16285 H 1509.16 -0.312488 2.97765 0
M  V30 16286 H 1506.71 -0.148862 1.43228 0
M  V30 16287 H 1508.66 -2.73903 3.20242 0
M  V30 16288 H 1507.39 -2.60743 1.96673 0
M  V30 16289 H 1506.04 -1.11681 3.49174 0
M  V30 16290 H 1505.69 -3.59271 3.52041 0
M  V30 16291 H 1505.39 -2.87653 5.12376 0
M  V30 16292 H 1506.92 -3.75604 4.81409 0
M  V30 16293 H 1508.33 -1.59295 5.50725 0
M  V30 16294 H 1506.73 -0.923836 5.92946 0
M  V30 16295 H 1507.8 -0.0124219 4.84898 0
M  V30 16296 N 1509.14 -1.56867 -0.151857 0
M  V30 16297 C 1510.09 -1.97899 -1.18763 0
M  V30 16298 C 1511.06 -0.845833 -1.42951 0
M  V30 16299 O 1512.24 -1.10751 -1.55367 0
M  V30 16300 C 1509.38 -2.36063 -2.5173 0
M  V30 16301 C 1508.5 -3.62647 -2.34757 0
M  V30 16302 C 1507.63 -3.89936 -3.60726 0
M  V30 16303 C 1506.67 -5.09806 -3.38769 0
M  V30 16304 N 1505.81 -5.33129 -4.56856 0
M  V30 16305 H 1510.65 -2.86187 -0.830713 0
M  V30 16306 H 1508.18 -1.41592 -0.398745 0
M  V30 16307 H 1510.14 -2.56218 -3.29254 0
M  V30 16308 H 1508.77 -1.50861 -2.85379 0
M  V30 16309 H 1507.82 -3.50297 -1.48312 0
M  V30 16310 H 1509.14 -4.50328 -2.1449 0
M  V30 16311 H 1508.29 -4.10563 -4.4668 0
M  V30 16312 H 1507.03 -3.00668 -3.83993 0
M  V30 16313 H 1506.03 -4.89057 -2.51203 0
M  V30 16314 H 1507.26 -6.00623 -3.16906 0
M  V30 16315 H 1505.2 -4.46815 -4.80305 0
M  V30 16316 H 1505.12 -6.1507 -4.39574 0
M  V30 16317 H 1506.39 -5.5825 -5.44038 0
M  V30 16318 N 1510.62 0.421051 -1.51871 0
M  V30 16319 C 1511.57 1.51101 -1.70741 0
M  V30 16320 C 1512.55 1.50792 -0.561305 0
M  V30 16321 O 1513.74 1.5697 -0.817894 0
M  V30 16322 C 1510.87 2.89145 -1.85067 0
M  V30 16323 C 1509.96 2.94148 -3.05512 0
M  V30 16324 N 1510.35 2.68866 -4.28421 0
M  V30 16325 C 1508.65 3.25314 -3.05101 0
M  V30 16326 C 1509.35 2.80131 -5.09805 0
M  V30 16327 N 1508.33 3.12501 -4.44797 0
M  V30 16328 H 1512.13 1.30331 -2.63422 0
M  V30 16329 H 1509.64 0.628598 -1.49741 0
M  V30 16330 H 1511.64 3.6758 -1.96699 0
M  V30 16331 H 1510.3 3.10923 -0.935788 0
M  V30 16332 H 1511.31 2.43485 -4.57094 0
M  V30 16333 H 1507.99 3.52762 -2.23306 0
M  V30 16334 H 1509.38 2.64401 -6.17691 0
M  V30 16335 N 1512.1 1.42293 0.677538 0
M  V30 16336 C 1513.03 1.39986 1.8022 0
M  V30 16337 C 1514.01 0.264513 1.60434 0
M  V30 16338 O 1515.19 0.454299 1.82944 0
M  V30 16339 C 1512.32 1.18809 3.17178 0
M  V30 16340 C 1511.36 2.35301 3.55719 0
M  V30 16341 S 1512.2 3.97827 3.5846 0
M  V30 16342 C 1513.35 3.78987 4.98116 0
M  V30 16343 H 1513.59 2.35157 1.81902 0
M  V30 16344 H 1511.12 1.29032 0.847947 0
M  V30 16345 H 1513.08 1.07277 3.96235 0
M  V30 16346 H 1511.74 0.252276 3.13085 0
M  V30 16347 H 1510.93 2.16224 4.55262 0
M  V30 16348 H 1510.53 2.43333 2.84016 0
M  V30 16349 H 1512.83 3.39808 5.8612 0
M  V30 16350 H 1513.77 4.78197 5.22239 0
M  V30 16351 H 1514.18 3.11906 4.70505 0
M  V30 16352 N 1513.57 -0.913576 1.28419 0
M  V30 16353 C 1514.82 -1.66519 1.15755 0
M  V30 16354 C 1515.15 -1.91974 -0.293166 0
M  V30 16355 O 1514.43 -1.52025 -1.21321 0
M  V30 16356 C 1514.71 -3.02299 1.95672 0
M  V30 16357 C 1514.56 -2.83996 3.48807 0
M  V30 16358 C 1515.88 -4.02838 1.77226 0
M  V30 16359 H 1513 -0.604309 0.421877 0
M  V30 16360 H 1515.64 -1.05919 1.57737 0
M  V30 16361 H 1513.79 -3.54025 1.59995 0
M  V30 16362 H 1515.47 -2.39279 3.9439 0
M  V30 16363 H 1513.71 -2.19052 3.74431 0
M  V30 16364 H 1514.38 -3.80419 3.99982 0
M  V30 16365 H 1516.86 -3.60174 2.0836 0
M  V30 16366 H 1515.73 -4.95806 2.35515 0
M  V30 16367 H 1515.99 -4.36135 0.723804 0
M  V30 16368 N 1515.05 -1.1067 -1.12204 0
M  V30 16369 C 1515.98 -0.779829 -2.20093 0
M  V30 16370 C 1516.96 0.248279 -1.68278 0
M  V30 16371 O 1518.15 0.113511 -1.93868 0
M  V30 16372 C 1515.28 -0.213511 -3.46643 0
M  V30 16373 C 1514.23 -1.17258 -4.11624 0
M  V30 16374 C 1513.56 -0.467352 -5.32654 0
M  V30 16375 C 1514.86 -2.52014 -4.57478 0
M  V30 16376 H 1516.55 -1.68192 -2.47693 0
M  V30 16377 H 1514.1 -0.810131 -1.1905 0
M  V30 16378 H 1516.05 0.0273225 -4.21391 0
M  V30 16379 H 1514.78 0.723837 -3.18478 0
M  V30 16380 H 1513.43 -1.39891 -3.3886 0
M  V30 16381 H 1513.08 0.474547 -5.00756 0
M  V30 16382 H 1512.78 -1.10694 -5.77079 0
M  V30 16383 H 1514.31 -0.235122 -6.10147 0
M  V30 16384 H 1515.72 -2.33516 -5.23587 0
M  V30 16385 H 1514.12 -3.1188 -5.1269 0
M  V30 16386 H 1515.19 -3.11831 -3.71335 0
M  V30 16387 N 1516.53 1.29665 -0.895815 0
M  V30 16388 C 1517.78 1.96006 -0.520522 0
M  V30 16389 C 1518.11 1.7048 0.930068 0
M  V30 16390 O 1517.38 1.01558 1.6588 0
M  V30 16391 C 1517.67 3.50897 -0.808925 0
M  V30 16392 C 1517.52 3.85896 -2.31093 0
M  V30 16393 C 1518.84 4.39125 -0.292769 0
M  V30 16394 H 1515.96 0.711931 -0.190588 0
M  V30 16395 H 1518.6 1.53349 -1.12179 0
M  V30 16396 H 1516.75 3.87362 -0.297194 0
M  V30 16397 H 1518.42 3.59397 -2.89191 0
M  V30 16398 H 1516.67 3.33578 -2.77323 0
M  V30 16399 H 1517.34 4.93989 -2.46331 0
M  V30 16400 H 1519.81 4.0963 -0.730906 0
M  V30 16401 H 1518.69 5.46395 -0.523799 0
M  V30 16402 H 1518.95 4.34683 0.806393 0
M  V30 16403 N 1518.01 0.657889 1.43212 0
M  V30 16404 C 1518.97 -0.0214783 2.2919 0
M  V30 16405 C 1519.97 -0.745921 1.42452 0
M  V30 16406 O 1521.16 -0.586468 1.64031 0
M  V30 16407 C 1518.29 -1.04115 3.24612 0
M  V30 16408 H 1519.49 0.735072 2.90752 0
M  V30 16409 H 1517.04 0.419354 1.50569 0
M  V30 16410 H 1517.77 -1.82677 2.67954 0
M  V30 16411 H 1517.56 -0.525285 3.88566 0
M  V30 16412 H 1519.05 -1.51544 3.89132 0
M  V30 16413 N 1519.49 -1.52437 0.400108 0
M  V30 16414 C 1520.74 -2.00896 -0.179909 0
M  V30 16415 C 1521.05 -1.29046 -1.46991 0
M  V30 16416 O 1522.25 -1.68274 -2.13063 0
M  V30 16417 C 1520.71 -3.57981 -0.371169 0
M  V30 16418 C 1520.32 -4.38739 0.906213 0
M  V30 16419 C 1522.06 -4.14698 -0.906965 0
M  V30 16420 C 1519.97 -5.87447 0.682637 0
M  V30 16421 H 1518.9 -0.750649 -0.071008 0
M  V30 16422 H 1521.55 -1.75854 0.524169 0
M  V30 16423 H 1519.93 -3.79315 -1.13736 0
M  V30 16424 H 1521.11 -4.29167 1.67785 0
M  V30 16425 H 1519.42 -3.93296 1.36776 0
M  V30 16426 H 1522.02 -5.2347 -1.09012 0
M  V30 16427 H 1522.36 -3.71477 -1.87911 0
M  V30 16428 H 1522.89 -3.97297 -0.200068 0
M  V30 16429 H 1519.63 -6.35011 1.62608 0
M  V30 16430 H 1519.15 -5.99779 -0.0498716 0
M  V30 16431 H 1520.83 -6.46202 0.321331 0
M  V30 16432 N 1520.96 -0.130252 -1.57061 0
M  V30 16433 C 1522.24 0.569171 -1.87136 0
M  V30 16434 C 1522.62 1.84078 -1.03337 0
M  V30 16435 O 1521.97 2.28208 -0.11543 0
M  V30 16436 C 1522.18 0.850782 -3.38471 0
M  V30 16437 C 1523.53 1.19892 -4.07322 0
M  V30 16438 O 1524.55 0.940682 -3.43554 0
M  V30 16439 O 1523.41 1.6841 -5.19904 0
M  V30 16440 H 1520.5 0.288433 -0.775071 0
M  V30 16441 H 1523.05 -0.165603 -1.6889 0
M  V30 16442 H 1521.82 -0.0498562 -3.91268 0
M  V30 16443 H 1521.45 1.64032 -3.62187 0
M  V30 16444 N 1522.44 1.56945 0.143535 0
M  V30 16445 C 1523.67 1.87429 0.869139 0
M  V30 16446 C 1524.08 0.716856 1.75094 0
M  V30 16447 O 1523.42 -0.322379 1.80849 0
M  V30 16448 C 1523.49 3.12657 1.77442 0
M  V30 16449 C 1523.15 4.44311 1.06943 0
M  V30 16450 C 1524.15 5.18187 0.421706 0
M  V30 16451 C 1521.83 4.91033 1.05791 0
M  V30 16452 C 1523.83 6.36992 -0.228127 0
M  V30 16453 C 1521.51 6.09761 0.404266 0
M  V30 16454 C 1522.51 6.82587 -0.237621 0
M  V30 16455 O 1522.2 7.99059 -0.880893 0
M  V30 16456 H 1521.93 0.625443 0.256508 0
M  V30 16457 H 1524.49 2.04922 0.139979 0
M  V30 16458 H 1522.72 2.91181 2.54461 0
M  V30 16459 H 1524.4 3.29359 2.37228 0
M  V30 16460 H 1525.17 4.83157 0.422395 0
M  V30 16461 H 1521.05 4.3427 1.54694 0
M  V30 16462 H 1524.59 6.93773 -0.729732 0
M  V30 16463 H 1520.49 6.44252 0.401256 0
M  V30 16464 H 1521.26 8.14747 -0.782907 0
M  V30 16465 N 1523.92 -0.412991 1.52093 0
M  V30 16466 C 1525.17 -1.15878 1.67164 0
M  V30 16467 C 1525.52 -1.88306 0.394772 0
M  V30 16468 O 1524.82 -1.8161 -0.610614 0
M  V30 16469 C 1525.01 -2.18321 2.82968 0
M  V30 16470 C 1524.84 -1.55951 4.21793 0
M  V30 16471 C 1523.61 -1.33389 4.87376 0
M  V30 16472 C 1525.81 -1.02249 5.04033 0
M  V30 16473 N 1523.79 -0.668717 6.10247 0
M  V30 16474 C 1525.16 -0.484011 6.18108 0
M  V30 16475 C 1527.21 -0.916583 4.89391 0
M  V30 16476 C 1525.92 0.149993 7.19144 0
M  V30 16477 C 1527.94 -0.296438 5.90657 0
M  V30 16478 C 1527.31 0.231383 7.0402 0
M  V30 16479 H 1523.4 -0.410837 0.665385 0
M  V30 16480 H 1525.99 -0.451728 1.89387 0
M  V30 16481 H 1524.16 -2.86389 2.62366 0
M  V30 16482 H 1525.89 -2.85234 2.87095 0
M  V30 16483 H 1522.65 -1.60235 4.4567 0
M  V30 16484 H 1523.07 -0.352867 6.7608 0
M  V30 16485 H 1527.71 -1.31049 4.01978 0
M  V30 16486 H 1525.43 0.555971 8.06185 0
M  V30 16487 H 1529.02 -0.216065 5.81399 0
M  V30 16488 H 1527.9 0.703689 7.81036 0
M  V30 16489 N 1525.4 -1.4265 -0.669982 0
M  V30 16490 C 1526.33 -1.49298 -1.79534 0
M  V30 16491 C 1527.31 -0.34911 -1.66479 0
M  V30 16492 O 1528.5 -0.564072 -1.85828 0
M  V30 16493 C 1525.63 -1.39935 -3.17861 0
M  V30 16494 C 1524.58 -2.52398 -3.45657 0
M  V30 16495 C 1523.91 -2.28092 -4.8361 0
M  V30 16496 C 1525.21 -3.94697 -3.4207 0
M  V30 16497 H 1526.9 -2.43486 -1.74227 0
M  V30 16498 H 1524.45 -1.17191 -0.836796 0
M  V30 16499 H 1526.4 -1.43193 -3.96325 0
M  V30 16500 H 1525.12 -0.422436 -3.23857 0
M  V30 16501 H 1523.78 -2.48465 -2.69556 0
M  V30 16502 H 1523.43 -1.28683 -4.86261 0
M  V30 16503 H 1523.13 -3.03469 -5.0317 0
M  V30 16504 H 1524.65 -2.33107 -5.64352 0
M  V30 16505 H 1526.07 -4.00207 -4.10496 0
M  V30 16506 H 1524.46 -4.69965 -3.73166 0
M  V30 16507 H 1525.53 -4.21025 -2.40554 0
M  V30 16508 N 1526.88 0.906753 -1.28902 0
M  V30 16509 C 1527.84 1.99158 -1.1344 0
M  V30 16510 C 1528.84 1.60639 -0.0719551 0
M  V30 16511 O 1530.03 1.71267 -0.318317 0
M  V30 16512 C 1527.16 3.32923 -0.733172 0
M  V30 16513 H 1528.36 2.14305 -2.09794 0
M  V30 16514 H 1525.91 1.09034 -1.11988 0
M  V30 16515 H 1526.64 3.23477 0.230826 0
M  V30 16516 H 1526.43 3.62244 -1.50073 0
M  V30 16517 H 1527.92 4.12544 -0.64784 0
M  V30 16518 N 1528.36 1.11264 1.11616 0
M  V30 16519 C 1529.3 0.769295 2.17602 0
M  V30 16520 C 1530.27 -0.258362 1.64078 0
M  V30 16521 O 1531.46 -0.135698 1.90317 0
M  V30 16522 C 1528.6 0.216647 3.44419 0
M  V30 16523 C 1527.71 1.30064 4.11955 0
M  V30 16524 C 1526.85 0.708729 5.26451 0
M  V30 16525 C 1525.88 1.7727 5.85868 0
M  V30 16526 N 1525.02 1.20042 6.91762 0
M  V30 16527 H 1529.86 1.67727 2.46316 0
M  V30 16528 H 1527.4 0.83764 1.20921 0
M  V30 16529 H 1529.36 -0.121724 4.17022 0
M  V30 16530 H 1527.99 -0.654525 3.16095 0
M  V30 16531 H 1527.04 1.756 3.37445 0
M  V30 16532 H 1528.35 2.1057 4.52174 0
M  V30 16533 H 1527.5 0.320307 6.05854 0
M  V30 16534 H 1526.24 -0.127668 4.87533 0
M  V30 16535 H 1525.25 2.17046 5.05145 0
M  V30 16536 H 1526.47 2.6121 6.26854 0
M  V30 16537 H 1524.42 0.385633 6.54866 0
M  V30 16538 H 1524.34 1.94221 7.30626 0
M  V30 16539 H 1525.6 0.838825 7.74974 0
M  V30 16540 N 1529.83 -1.29188 0.902679 0
M  V30 16541 C 1531.08 -1.96092 0.540328 0
M  V30 16542 C 1531.43 -1.6984 -0.903997 0
M  V30 16543 O 1530.73 -1.00257 -1.63276 0
M  V30 16544 C 1530.92 -3.48951 0.772542 0
M  V30 16545 C 1530.75 -3.90062 2.23789 0
M  V30 16546 C 1529.52 -4.14782 2.8859 0
M  V30 16547 C 1531.72 -4.01557 3.21335 0
M  V30 16548 N 1529.7 -4.42484 4.25536 0
M  V30 16549 C 1531.07 -4.33346 4.43409 0
M  V30 16550 C 1533.13 -3.84043 3.16884 0
M  V30 16551 C 1531.83 -4.49444 5.61598 0
M  V30 16552 C 1533.86 -4.01353 4.34362 0
M  V30 16553 C 1533.22 -4.33503 5.55207 0
M  V30 16554 H 1529.32 -0.741839 0.247383 0
M  V30 16555 H 1531.9 -1.56066 1.16411 0
M  V30 16556 H 1530.07 -3.87991 0.178119 0
M  V30 16557 H 1531.8 -4.02956 0.375328 0
M  V30 16558 H 1528.56 -4.08655 2.3937 0
M  V30 16559 H 1528.98 -4.60438 4.96312 0
M  V30 16560 H 1533.62 -3.58247 2.24541 0
M  V30 16561 H 1531.34 -4.74075 6.5443 0
M  V30 16562 H 1534.93 -3.89249 4.32408 0
M  V30 16563 H 1533.81 -4.46617 6.44595 0
M  V30 16564 N 1531.31 -0.665475 -1.42861 0
M  V30 16565 C 1532.54 -0.192 -2.06007 0
M  V30 16566 C 1532.95 1.1472 -1.49949 0
M  V30 16567 O 1532.31 1.71074 -0.635599 0
M  V30 16568 C 1532.36 -0.108189 -3.61338 0
M  V30 16569 O 1532.08 -1.39446 -4.15315 0
M  V30 16570 C 1533.58 0.3899 -4.41582 0
M  V30 16571 H 1530.8 -0.0955812 -0.664158 0
M  V30 16572 H 1533.35 -0.909582 -1.83158 0
M  V30 16573 H 1531.5 0.560024 -3.83331 0
M  V30 16574 H 1531.92 -1.26168 -5.09099 0
M  V30 16575 H 1533.39 0.39747 -5.50567 0
M  V30 16576 H 1533.87 1.42348 -4.15492 0
M  V30 16577 H 1534.47 -0.246248 -4.24587 0
M  V30 16578 N 1532.79 1.52222 -0.408187 0
M  V30 16579 C 1534.07 1.94285 0.22641 0
M  V30 16580 C 1534.45 1.34501 1.62705 0
M  V30 16581 O 1533.79 0.52045 2.22494 0
M  V30 16582 C 1534 3.48217 0.233695 0
M  V30 16583 C 1535.35 4.22171 0.453504 0
M  V30 16584 O 1536.38 3.54821 0.313093 0
M  V30 16585 O 1535.24 5.416 0.730183 0
M  V30 16586 H 1532.33 0.814078 0.145625 0
M  V30 16587 H 1534.88 1.63232 -0.464062 0
M  V30 16588 H 1533.65 3.84111 -0.746644 0
M  V30 16589 H 1533.27 3.85629 0.968305 0
M  V30 16590 N 1534.27 0.138579 1.5699 0
M  V30 16591 C 1535.49 -0.525074 2.00643 0
M  V30 16592 C 1535.92 -1.58174 1.01796 0
M  V30 16593 O 1535.28 -1.81298 -0.00754003 0
M  V30 16594 C 1535.32 -1.11019 3.43085 0
M  V30 16595 O 1534.43 -2.22529 3.4721 0
M  V30 16596 H 1533.77 -0.129283 0.651292 0
M  V30 16597 H 1536.3 0.23283 2.03271 0
M  V30 16598 H 1536.31 -1.44093 3.81708 0
M  V30 16599 H 1534.98 -0.336325 4.14538 0
M  V30 16600 H 1533.56 -1.90747 3.20422 0
M  V30 16601 N 1535.75 -1.57019 -0.13521 0
M  V30 16602 C 1536.71 -1.98229 -1.15056 0
M  V30 16603 C 1537.71 -0.870295 -1.35213 0
M  V30 16604 O 1538.9 -1.13668 -1.32005 0
M  V30 16605 C 1536.03 -2.30844 -2.50846 0
M  V30 16606 H 1537.22 -2.89123 -0.796744 0
M  V30 16607 H 1534.78 -1.51636 -0.378962 0
M  V30 16608 H 1535.51 -1.42779 -2.91178 0
M  V30 16609 H 1535.3 -3.11931 -2.37574 0
M  V30 16610 H 1536.79 -2.63524 -3.23952 0
M  V30 16611 N 1537.22 0.404919 -1.52309 0
M  V30 16612 C 1538.15 1.50039 -1.78915 0
M  V30 16613 C 1539.14 1.57587 -0.640329 0
M  V30 16614 O 1540.32 1.72793 -0.886344 0
M  V30 16615 C 1537.45 2.87819 -1.94364 0
M  V30 16616 C 1536.4 2.9512 -3.09981 0
M  V30 16617 C 1535.73 4.35195 -3.10659 0
M  V30 16618 C 1537.03 2.66219 -4.4936 0
M  V30 16619 H 1538.72 1.28025 -2.70647 0
M  V30 16620 H 1536.27 0.61445 -1.30233 0
M  V30 16621 H 1538.22 3.64446 -2.11559 0
M  V30 16622 H 1536.95 3.11136 -0.993067 0
M  V30 16623 H 1535.61 2.20939 -2.92543 0
M  V30 16624 H 1535.25 4.55528 -2.13316 0
M  V30 16625 H 1534.95 4.41003 -3.88317 0
M  V30 16626 H 1536.48 5.1375 -3.29989 0
M  V30 16627 H 1537.89 3.32567 -4.66982 0
M  V30 16628 H 1536.29 2.83398 -5.28967 0
M  V30 16629 H 1537.36 1.61636 -4.57167 0
M  V30 16630 N 1538.7 1.43003 0.662408 0
M  V30 16631 C 1539.93 1.47555 1.45035 0
M  V30 16632 C 1540.35 0.0906083 1.88582 0
M  V30 16633 O 1539.7 -0.897271 1.58919 0
M  V30 16634 C 1539.75 2.41345 2.69137 0
M  V30 16635 O 1539.47 3.74453 2.27413 0
M  V30 16636 C 1540.98 2.55045 3.62584 0
M  V30 16637 H 1538.2 0.501448 0.44586 0
M  V30 16638 H 1540.74 1.8765 0.812879 0
M  V30 16639 H 1538.89 2.0447 3.29045 0
M  V30 16640 H 1539.31 4.24801 3.07643 0
M  V30 16641 H 1540.78 3.24766 4.46353 0
M  V30 16642 H 1541.26 1.59235 4.09318 0
M  V30 16643 H 1541.87 2.92693 3.08563 0
M  V30 16644 N 1540.18 -0.899904 1.29381 0
M  V30 16645 C 1541.11 -2.02045 1.17047 0
M  V30 16646 C 1542.09 -1.69977 0.0647354 0
M  V30 16647 O 1543.28 -1.92659 0.244173 0
M  V30 16648 C 1540.41 -3.36839 0.845991 0
M  V30 16649 C 1539.36 -3.83117 1.90802 0
M  V30 16650 C 1538.69 -5.15032 1.43686 0
M  V30 16651 C 1539.99 -4.03464 3.31684 0
M  V30 16652 H 1541.68 -2.12623 2.10789 0
M  V30 16653 H 1539.23 -1.02162 1.01484 0
M  V30 16654 H 1541.18 -4.14737 0.746413 0
M  V30 16655 H 1539.9 -3.26352 -0.127125 0
M  V30 16656 H 1538.56 -3.07435 1.99698 0
M  V30 16657 H 1538.21 -5.00961 0.452422 0
M  V30 16658 H 1537.91 -5.46967 2.14711 0
M  V30 16659 H 1539.43 -5.95472 1.35078 0
M  V30 16660 H 1540.85 -4.71845 3.25631 0
M  V30 16661 H 1539.25 -4.46752 4.00665 0
M  V30 16662 H 1540.32 -3.07807 3.74677 0
M  V30 16663 N 1541.66 -1.11854 -1.11024 0
M  V30 16664 C 1542.89 -0.892714 -1.8665 0
M  V30 16665 C 1543.3 0.557721 -1.80374 0
M  V30 16666 O 1542.66 1.3853 -1.1881 0
M  V30 16667 C 1542.71 -1.35135 -3.35292 0
M  V30 16668 O 1542.43 -2.74493 -3.41446 0
M  V30 16669 C 1543.93 -1.16157 -4.27811 0
M  V30 16670 H 1541.15 -0.319409 -0.590101 0
M  V30 16671 H 1543.7 -1.48697 -1.40391 0
M  V30 16672 H 1541.85 -0.80046 -3.7904 0
M  V30 16673 H 1542.26 -2.94474 -4.34034 0
M  V30 16674 H 1543.74 -1.53144 -5.30331 0
M  V30 16675 H 1544.22 -0.101546 -4.39083 0
M  V30 16676 H 1544.82 -1.69966 -3.89861 0
M  V30 16677 N 1543.14 1.28707 -0.909517 0
M  V30 16678 C 1544.55 1.77212 -0.587613 0
M  V30 16679 C 1544.9 1.74495 0.896986 0
M  V30 16680 O 1544.02 1.33698 1.70158 0
M  V30 16681 C 1544.62 3.21794 -1.05989 0
M  V30 16682 C 1543.18 3.68038 -0.788983 0
M  V30 16683 C 1542.32 2.48576 -1.22903 0
M  V30 16684 H 1545.28 1.1523 -1.09122 0
M  V30 16685 H 1545.3 3.78397 -0.399469 0
M  V30 16686 H 1544.81 3.23739 -2.14043 0
M  V30 16687 H 1542.91 3.71558 0.278523 0
M  V30 16688 H 1543.02 4.58379 -1.39376 0
M  V30 16689 H 1541.39 2.46323 -0.647838 0
M  V30 16690 H 1542.17 2.53243 -2.31782 0
M  V30 16691 N 1544.61 0.673042 1.42506 0
M  V30 16692 C 1545.58 0.00283156 2.292 0
M  V30 16693 C 1546.58 -0.73077 1.43235 0
M  V30 16694 O 1547.77 -0.569037 1.64644 0
M  V30 16695 C 1544.9 -1.00666 3.25698 0
M  V30 16696 H 1546.09 0.765869 2.89956 0
M  V30 16697 H 1543.65 0.435301 1.50116 0
M  V30 16698 H 1544.38 -1.79825 2.69877 0
M  V30 16699 H 1544.17 -0.484043 3.89101 0
M  V30 16700 H 1545.66 -1.47409 3.90718 0
M  V30 16701 N 1546.09 -1.52004 0.416254 0
M  V30 16702 C 1547.06 -2.2579 -0.393882 0
M  V30 16703 C 1548.06 -1.28427 -0.967637 0
M  V30 16704 O 1549.25 -1.52311 -0.845396 0
M  V30 16705 C 1546.38 -3.03361 -1.55515 0
M  V30 16706 H 1547.57 -2.98835 0.252492 0
M  V30 16707 H 1545.12 -1.55384 0.168929 0
M  V30 16708 H 1545.86 -2.34682 -2.23818 0
M  V30 16709 H 1545.64 -3.74852 -1.15015 0
M  V30 16710 H 1547.13 -3.5931 -2.12805 0
M  V30 16711 N 1547.57 -0.146903 -1.56914 0
M  V30 16712 C 1548.99 0.20951 -1.58219 0
M  V30 16713 C 1549.19 1.64679 -1.16116 0
M  V30 16714 O 1548.24 2.37352 -0.861414 0
M  V30 16715 C 1549.56 -0.0491564 -3.0066 0
M  V30 16716 C 1551.1 0.0145605 -3.12997 0
M  V30 16717 C 1551.58 -0.216773 -4.57487 0
M  V30 16718 N 1553.07 -0.163698 -4.62911 0
M  V30 16719 C 1553.8 -0.317204 -5.72522 0
M  V30 16720 N 1553.3 -0.528426 -6.90782 0
M  V30 16721 N 1555.09 -0.254814 -5.61522 0
M  V30 16722 H 1547.24 -1.08536 -1.82575 0
M  V30 16723 H 1549.51 -0.42963 -0.845057 0
M  V30 16724 H 1549.21 -1.04387 -3.35851 0
M  V30 16725 H 1549.09 0.670296 -3.71197 0
M  V30 16726 H 1551.47 0.999829 -2.77646 0
M  V30 16727 H 1551.56 -0.737219 -2.44946 0
M  V30 16728 H 1551.2 -1.19914 -4.93541 0
M  V30 16729 H 1551.13 0.555329 -5.23664 0
M  V30 16730 H 1553.62 -0.00509433 -3.779 0
M  V30 16731 H 1553.93 -0.635667 -7.70181 0
M  V30 16732 H 1552.28 -0.564746 -6.92702 0
M  V30 16733 H 1555.47 -0.0905626 -4.68012 0
M  V30 16734 H 1555.64 -0.377881 -6.46897 0
M  V30 16735 N 1549.05 1.57088 0.126881 0
M  V30 16736 C 1550 2.00736 1.17506 0
M  V30 16737 C 1550.99 0.902986 1.43327 0
M  V30 16738 O 1552.2 1.08819 1.43382 0
M  V30 16739 H 1548.57 0.639285 0.396003 0
M  V30 16740 H 1550.54 2.88015 0.780373 0
M  V30 16741 C 1549.29 2.42096 2.49569 0
M  V30 16742 H 1548.61 3.26639 2.30536 0
M  V30 16743 H 1550.05 2.76442 3.2149 0
M  V30 16744 C 1548.51 1.28148 3.11576 0
M  V30 16745 O 1549.04 0.593145 3.97297 0
M  V30 16746 N 1547.25 1.04055 2.71332 0
M  V30 16747 H 1546.8 1.60208 2.0172 0
M  V30 16748 H 1546.75 0.280075 3.1315 0
M  V30 16749 N 1550.53 -0.396836 1.52522 0
M  V30 16750 C 1551.77 -1.15166 1.68867 0
M  V30 16751 C 1552.13 -1.87445 0.415734 0
M  V30 16752 O 1553.33 -2.64913 0.455443 0
M  V30 16753 C 1551.6 -2.11005 2.88465 0
M  V30 16754 S 1553.16 -2.94429 3.25357 0
M  V30 16755 H 1549.98 -0.389966 0.594515 0
M  V30 16756 H 1552.58 -0.437201 1.90549 0
M  V30 16757 H 1551.29 -1.56613 3.79342 0
M  V30 16758 H 1550.82 -2.86971 2.69093 0
M  V30 16759 H 1552.83 -4.13068 2.74934 0
M  V30 16760 N 1552.01 -1.43353 -0.654814 0
M  V30 16761 C 1553.23 -1.48536 -1.44748 0
M  V30 16762 C 1553.66 -0.103991 -1.87812 0
M  V30 16763 O 1553.01 0.901924 -1.57274 0
M  V30 16764 C 1553.06 -2.43498 -2.65972 0
M  V30 16765 O 1552.17 -1.92014 -3.64972 0
M  V30 16766 H 1551.51 -0.502476 -0.434067 0
M  V30 16767 H 1554.04 -1.88251 -0.801427 0
M  V30 16768 H 1554.05 -2.60748 -3.13806 0
M  V30 16769 H 1552.72 -3.43847 -2.3397 0
M  V30 16770 H 1551.3 -1.84417 -3.24106 0
M  V30 16771 N 1553.48 0.89303 -1.29857 0
M  V30 16772 C 1554.41 2.01422 -1.18117 0
M  V30 16773 C 1555.39 1.6994 -0.0737487 0
M  V30 16774 O 1556.58 1.92527 -0.254387 0
M  V30 16775 C 1553.71 3.36385 -0.863842 0
M  V30 16776 C 1552.66 3.821 -1.92831 0
M  V30 16777 C 1551.99 5.14263 -1.46415 0
M  V30 16778 C 1553.29 4.01699 -3.33819 0
M  V30 16779 H 1554.98 2.11502 -2.11913 0
M  V30 16780 H 1552.53 1.01622 -1.02024 0
M  V30 16781 H 1554.48 4.14335 -0.768397 0
M  V30 16782 H 1553.21 3.26415 0.109816 0
M  V30 16783 H 1551.87 3.06372 -2.01325 0
M  V30 16784 H 1551.51 5.00714 -0.478983 0
M  V30 16785 H 1551.21 5.45821 -2.17609 0
M  V30 16786 H 1552.74 5.94747 -1.38234 0
M  V30 16787 H 1554.15 4.70111 -3.28129 0
M  V30 16788 H 1552.55 4.44621 -4.03029 0
M  V30 16789 H 1553.62 3.05816 -3.76304 0
M  V30 16790 N 1554.96 1.12442 1.10429 0
M  V30 16791 C 1556.19 0.902914 1.86714 0
M  V30 16792 C 1556.61 -0.542514 1.80107 0
M  V30 16793 O 1555.97 -1.38406 1.17105 0
M  V30 16794 C 1556.02 1.38238 3.33051 0
M  V30 16795 O 1555.12 0.560877 4.08568 0
M  V30 16796 H 1554.46 0.324397 0.579364 0
M  V30 16797 H 1556.99 1.49652 1.39519 0
M  V30 16798 H 1557 1.38148 3.839 0
M  V30 16799 H 1555.68 2.43486 3.37176 0
M  V30 16800 H 1554.25 0.628771 3.67561 0
M  V30 16801 N 1556.44 -1.28223 0.91633 0
M  V30 16802 C 1557.37 -2.26291 0.363986 0
M  V30 16803 C 1558.38 -1.54964 -0.498988 0
M  V30 16804 O 1559.57 -1.75726 -0.31345 0
M  V30 16805 C 1556.67 -3.35219 -0.498126 0
M  V30 16806 C 1555.85 -4.36054 0.34293 0
M  V30 16807 C 1554.91 -5.24232 -0.454688 0
M  V30 16808 O 1553.93 -5.69043 0.133649 0
M  V30 16809 N 1555.13 -5.53268 -1.75714 0
M  V30 16810 H 1557.9 -2.74323 1.20694 0
M  V30 16811 H 1555.46 -1.41731 0.782551 0
M  V30 16812 H 1557.45 -3.91148 -1.03852 0
M  V30 16813 H 1556.02 -2.86876 -1.2418 0
M  V30 16814 H 1555.24 -3.7955 1.06468 0
M  V30 16815 H 1556.53 -5.00444 0.918322 0
M  V30 16816 H 1555.93 -5.18698 -2.25762 0
M  V30 16817 H 1554.48 -6.11943 -2.2443 0
M  V30 16818 N 1557.92 -0.68059 -1.42147 0
M  V30 16819 C 1558.83 -0.00595573 -2.34599 0
M  V30 16820 C 1559.84 0.782528 -1.55411 0
M  V30 16821 O 1561.02 0.723524 -1.87955 0
M  V30 16822 C 1558.08 0.92964 -3.34004 0
M  V30 16823 C 1557.15 0.135041 -4.29088 0
M  V30 16824 C 1556.38 1.02607 -5.23744 0
M  V30 16825 O 1556.6 2.26562 -5.23475 0
M  V30 16826 O 1555.54 0.483774 -5.99953 0
M  V30 16827 H 1559.36 -0.767652 -2.93838 0
M  V30 16828 H 1556.95 -0.440849 -1.42748 0
M  V30 16829 H 1558.83 1.46657 -3.95057 0
M  V30 16830 H 1557.5 1.67109 -2.7723 0
M  V30 16831 H 1556.41 -0.44613 -3.7143 0
M  V30 16832 H 1557.74 -0.567417 -4.88918 0
M  V30 16833 N 1559.4 1.51781 -0.424309 0
M  V30 16834 C 1560.64 2.03879 0.145828 0
M  V30 16835 C 1561 1.30226 1.41086 0
M  V30 16836 O 1562.2 1.72629 2.06041 0
M  V30 16837 C 1560.47 3.55454 0.372466 0
M  V30 16838 S 1562.03 4.29305 0.907876 0
M  V30 16839 H 1558.85 0.709986 0.0379529 0
M  V30 16840 H 1561.45 1.86676 -0.58072 0
M  V30 16841 H 1560.15 4.06633 -0.554778 0
M  V30 16842 H 1559.69 3.76928 1.12646 0
M  V30 16843 H 1561.7 4.4541 2.18687 0
M  V30 16844 N 1560.87 0.155222 1.56834 0
M  V30 16845 C 1562.1 -0.500542 2.00754 0
M  V30 16846 C 1562.52 -1.57878 1.03538 0
M  V30 16847 O 1561.87 -1.82469 0.0336651 0
M  V30 16848 C 1561.92 -1.09366 3.4456 0
M  V30 16849 O 1561.65 -0.0584788 4.38061 0
M  V30 16850 C 1563.15 -1.82923 4.038 0
M  V30 16851 H 1560.37 -0.129589 0.658368 0
M  V30 16852 H 1562.91 0.252223 2.02939 0
M  V30 16853 H 1561.07 -1.797 3.43201 0
M  V30 16854 H 1561.48 -0.494125 5.22167 0
M  V30 16855 H 1562.95 -2.19703 5.06394 0
M  V30 16856 H 1563.43 -2.71823 3.44976 0
M  V30 16857 H 1564.04 -1.17268 4.08813 0
M  V30 16858 N 1562.35 -1.57153 -0.118549 0
M  V30 16859 C 1563.28 -2.03409 -1.1466 0
M  V30 16860 C 1564.26 -0.918636 -1.43161 0
M  V30 16861 O 1565.45 -1.18838 -1.53594 0
M  V30 16862 C 1562.58 -2.43879 -2.47265 0
M  V30 16863 C 1561.53 -3.58873 -2.33225 0
M  V30 16864 C 1560.86 -3.85244 -3.70798 0
M  V30 16865 C 1562.16 -4.90582 -1.79239 0
M  V30 16866 H 1563.85 -2.89545 -0.761862 0
M  V30 16867 H 1561.4 -1.39296 -0.365034 0
M  V30 16868 H 1563.35 -2.74844 -3.19435 0
M  V30 16869 H 1562.07 -1.54715 -2.8763 0
M  V30 16870 H 1560.73 -3.28119 -1.63504 0
M  V30 16871 H 1560.38 -2.93285 -4.08648 0
M  V30 16872 H 1560.08 -4.62649 -3.62257 0
M  V30 16873 H 1561.61 -4.18661 -4.44472 0
M  V30 16874 H 1563.02 -5.20079 -2.41227 0
M  V30 16875 H 1561.42 -5.71989 -1.81518 0
M  V30 16876 H 1562.49 -4.79065 -0.74999 0
M  V30 16877 N 1563.83 0.388742 -1.5273 0
M  V30 16878 C 1565.11 1.14799 -1.58368 0
M  V30 16879 C 1565.49 2.07706 -0.377018 0
M  V30 16880 O 1564.83 2.1951 0.634634 0
M  V30 16881 C 1565.04 1.90745 -2.92262 0
M  V30 16882 C 1566.39 2.46098 -3.46007 0
M  V30 16883 O 1567.42 2.00901 -2.94138 0
M  V30 16884 O 1566.28 3.28658 -4.3663 0
M  V30 16885 H 1563.37 0.52529 -0.638748 0
M  V30 16886 H 1565.92 0.393874 -1.65066 0
M  V30 16887 H 1564.69 1.22806 -3.7153 0
M  V30 16888 H 1564.31 2.73118 -2.88951 0
M  V30 16889 N 1565.31 1.43698 0.647203 0
M  V30 16890 C 1566.24 1.45295 1.77262 0
M  V30 16891 C 1567.25 0.34831 1.5903 0
M  V30 16892 O 1568.44 0.613106 1.6764 0
M  V30 16893 C 1565.54 1.25584 3.14773 0
M  V30 16894 C 1564.71 2.48998 3.59609 0
M  V30 16895 C 1563.77 2.24423 4.75942 0
M  V30 16896 O 1562.8 2.97813 4.85073 0
M  V30 16897 N 1564 1.26465 5.66557 0
M  V30 16898 H 1566.77 2.42311 1.76368 0
M  V30 16899 H 1564.33 1.38931 0.831247 0
M  V30 16900 H 1566.32 1.07016 3.90294 0
M  V30 16901 H 1564.89 0.369927 3.10403 0
M  V30 16902 H 1564.11 2.82951 2.74467 0
M  V30 16903 H 1565.4 3.31119 3.86313 0
M  V30 16904 H 1564.8 0.658206 5.61858 0
M  V30 16905 H 1563.35 1.13879 6.41775 0
M  V30 16906 N 1566.79 -0.886131 1.30328 0
M  V30 16907 C 1568.01 -1.67099 1.22007 0
M  V30 16908 C 1568.43 -1.87546 -0.217255 0
M  V30 16909 O 1567.79 -1.42213 -1.14375 0
M  V30 16910 C 1567.84 -3.048 1.94368 0
M  V30 16911 O 1567.56 -2.85277 3.32489 0
M  V30 16912 C 1569.06 -3.99231 1.9269 0
M  V30 16913 H 1566.28 -0.521467 0.422271 0
M  V30 16914 H 1568.82 -1.1072 1.71934 0
M  V30 16915 H 1566.98 -3.57915 1.48242 0
M  V30 16916 H 1567.39 -3.72626 3.69121 0
M  V30 16917 H 1568.87 -4.93223 2.47861 0
M  V30 16918 H 1569.34 -4.29763 0.905558 0
M  V30 16919 H 1569.95 -3.52051 2.38621 0
M  V30 16920 N 1568.26 -1.13026 -1.09832 0
M  V30 16921 C 1569.51 -0.890736 -1.82191 0
M  V30 16922 C 1569.84 0.581818 -1.8528 0
M  V30 16923 O 1569.12 1.43037 -1.31798 0
M  V30 16924 C 1569.4 -1.47403 -3.28549 0
M  V30 16925 C 1569.25 -3.0154 -3.33757 0
M  V30 16926 C 1570.57 -1.13876 -4.25112 0
M  V30 16927 H 1567.69 -0.325028 -0.661457 0
M  V30 16928 H 1570.33 -1.39787 -1.28684 0
M  V30 16929 H 1568.48 -1.04272 -3.74245 0
M  V30 16930 H 1570.16 -3.53395 -2.96495 0
M  V30 16931 H 1568.4 -3.36746 -2.73467 0
M  V30 16932 H 1569.07 -3.37449 -4.36843 0
M  V30 16933 H 1571.55 -1.51139 -3.87681 0
M  V30 16934 H 1570.42 -1.57343 -5.25865 0
M  V30 16935 H 1570.68 -0.051854 -4.4207 0
M  V30 16936 N 1569.74 1.27735 -0.923117 0
M  V30 16937 C 1570.97 1.98394 -0.57648 0
M  V30 16938 C 1571.38 1.69093 0.848778 0
M  V30 16939 O 1570.72 0.945385 1.57506 0
M  V30 16940 C 1570.79 3.52278 -0.716984 0
M  V30 16941 C 1570.45 4.05191 -2.11351 0
M  V30 16942 C 1571.45 4.18314 -3.08722 0
M  V30 16943 C 1569.13 4.39652 -2.42922 0
M  V30 16944 C 1571.13 4.65166 -4.35774 0
M  V30 16945 C 1568.81 4.86196 -3.70211 0
M  V30 16946 C 1569.81 4.98911 -4.66451 0
M  V30 16947 O 1569.5 5.44437 -5.91476 0
M  V30 16948 H 1569.23 0.640008 -0.217636 0
M  V30 16949 H 1571.78 1.63666 -1.24107 0
M  V30 16950 H 1570.01 3.867 0.00469601 0
M  V30 16951 H 1571.7 4.04154 -0.376077 0
M  V30 16952 H 1572.47 3.91955 -2.85651 0
M  V30 16953 H 1568.35 4.29 -1.6876 0
M  V30 16954 H 1571.89 4.75006 -5.10896 0
M  V30 16955 H 1567.79 5.11997 -3.93103 0
M  V30 16956 H 1568.56 5.62701 -5.94399 0
M  V30 16957 N 1571.22 0.688118 1.41784 0
M  V30 16958 C 1572.18 0.0271411 2.29184 0
M  V30 16959 C 1573.18 -0.715537 1.44002 0
M  V30 16960 O 1574.37 -0.551542 1.65238 0
M  V30 16961 C 1571.51 -0.97206 3.26747 0
M  V30 16962 H 1572.7 0.79658 2.89127 0
M  V30 16963 H 1570.25 0.451198 1.49646 0
M  V30 16964 H 1570.99 -1.76953 2.71769 0
M  V30 16965 H 1570.77 -0.442746 3.89592 0
M  V30 16966 H 1572.26 -1.43256 3.92259 0
M  V30 16967 N 1572.7 -1.51554 0.432352 0
M  V30 16968 C 1573.63 -2.24175 -0.426721 0
M  V30 16969 C 1574.61 -1.2591 -1.02885 0
M  V30 16970 O 1575.79 -1.55031 -1.07227 0
M  V30 16971 C 1572.92 -2.9883 -1.59431 0
M  V30 16972 C 1571.97 -4.11712 -1.11335 0
M  V30 16973 S 1572.8 -5.35467 -0.0594485 0
M  V30 16974 C 1573.96 -6.13659 -1.23182 0
M  V30 16975 H 1574.19 -2.96693 0.18984 0
M  V30 16976 H 1571.72 -1.5287 0.216828 0
M  V30 16977 H 1573.68 -3.42442 -2.2637 0
M  V30 16978 H 1572.34 -2.2591 -2.18228 0
M  V30 16979 H 1571.53 -4.63207 -1.98633 0
M  V30 16980 H 1571.14 -3.70335 -0.522268 0
M  V30 16981 H 1573.43 -6.42443 -2.15113 0
M  V30 16982 H 1574.37 -7.04043 -0.756938 0
M  V30 16983 H 1574.78 -5.45074 -1.46813 0
M  V30 16984 N 1574.18 -0.163538 -1.56749 0
M  V30 16985 C 1575.42 0.48412 -1.96937 0
M  V30 16986 C 1575.76 1.63418 -1.04919 0
M  V30 16987 O 1575.03 1.94269 -0.094783 0
M  V30 16988 C 1575.31 0.974532 -3.46663 0
M  V30 16989 C 1575.17 -0.175173 -4.49459 0
M  V30 16990 C 1576.49 1.85082 -3.9929 0
M  V30 16991 H 1573.6 0.174503 -0.716043 0
M  V30 16992 H 1576.25 -0.248103 -1.88373 0
M  V30 16993 H 1574.4 1.59849 -3.54091 0
M  V30 16994 H 1576.07 -0.812038 -4.54096 0
M  V30 16995 H 1574.31 -0.831853 -4.2575 0
M  V30 16996 H 1574.98 0.20996 -5.51601 0
M  V30 16997 H 1577.46 1.32488 -3.94444 0
M  V30 16998 H 1576.33 2.163 -5.04485 0
M  V30 16999 H 1576.6 2.79378 -3.42638 0
M  V30 17000 N 1575.65 1.57214 0.110213 0
M  V30 17001 C 1576.9 1.85312 0.816439 0
M  V30 17002 C 1577.23 0.749901 1.79462 0
M  V30 17003 O 1576.48 -0.257948 1.93993 0
M  V30 17004 C 1576.78 3.19933 1.59304 0
M  V30 17005 C 1576.45 4.44477 0.75835 0
M  V30 17006 C 1575.11 4.78292 0.528201 0
M  V30 17007 C 1577.46 5.20899 0.177117 0
M  V30 17008 C 1574.79 5.85966 -0.293292 0
M  V30 17009 C 1577.14 6.29439 -0.631615 0
M  V30 17010 C 1575.81 6.6178 -0.871998 0
M  V30 17011 H 1575.08 0.678104 0.298756 0
M  V30 17012 H 1577.72 1.91339 0.0784721 0
M  V30 17013 H 1576.03 3.09522 2.40216 0
M  V30 17014 H 1577.73 3.38897 2.14359 0
M  V30 17015 H 1574.32 4.17988 0.94783 0
M  V30 17016 H 1578.5 4.95119 0.342121 0
M  V30 17017 H 1573.76 6.09444 -0.488665 0
M  V30 17018 H 1577.93 6.87834 -1.08894 0
M  V30 17019 H 1575.56 7.45045 -1.51037 0
M  V30 17020 N 1577.13 -0.380637 1.52934 0
M  V30 17021 C 1578.36 -1.14583 1.72274 0
M  V30 17022 C 1578.78 -1.83484 0.444864 0
M  V30 17023 O 1578.13 -1.72997 -0.581245 0
M  V30 17024 C 1578.18 -2.18756 2.87799 0
M  V30 17025 O 1577.9 -1.52662 4.10641 0
M  V30 17026 C 1579.41 -3.07938 3.18887 0
M  V30 17027 H 1576.63 -0.343218 0.576578 0
M  V30 17028 H 1579.17 -0.444149 1.99619 0
M  V30 17029 H 1577.32 -2.84546 2.62892 0
M  V30 17030 H 1577.74 -2.21949 4.75225 0
M  V30 17031 H 1579.21 -3.77045 4.03164 0
M  V30 17032 H 1579.69 -3.71913 2.33618 0
M  V30 17033 H 1580.3 -2.47783 3.45664 0
M  V30 17034 N 1578.61 -1.44039 -0.639573 0
M  V30 17035 C 1579.86 -1.46594 -1.40136 0
M  V30 17036 C 1580.19 -0.0949646 -1.93968 0
M  V30 17037 O 1579.46 0.886201 -1.73138 0
M  V30 17038 C 1579.75 -2.51947 -2.57283 0
M  V30 17039 C 1579.6 -3.98371 -2.08855 0
M  V30 17040 C 1580.92 -2.53891 -3.59482 0
M  V30 17041 H 1578.04 -0.533759 -0.508203 0
M  V30 17042 H 1580.68 -1.75669 -0.723898 0
M  V30 17043 H 1578.83 -2.27285 -3.15077 0
M  V30 17044 H 1580.5 -4.34137 -1.55956 0
M  V30 17045 H 1578.75 -4.10551 -1.40109 0
M  V30 17046 H 1579.42 -4.67721 -2.93157 0
M  V30 17047 H 1581.89 -2.75906 -3.11473 0
M  V30 17048 H 1580.77 -3.29524 -4.38982 0
M  V30 17049 H 1581.03 -1.57774 -4.12989 0
M  V30 17050 N 1580.09 0.879207 -1.30796 0
M  V30 17051 C 1581.02 2.00158 -1.20246 0
M  V30 17052 C 1582 1.69852 -0.091769 0
M  V30 17053 O 1583.18 1.92246 -0.274792 0
M  V30 17054 C 1580.31 3.3545 -0.899472 0
M  V30 17055 C 1579.27 3.80033 -1.96873 0
M  V30 17056 C 1578.59 5.12681 -1.51861 0
M  V30 17057 C 1579.89 3.98136 -3.38061 0
M  V30 17058 H 1581.59 2.09242 -2.14145 0
M  V30 17059 H 1579.13 1.00535 -1.03096 0
M  V30 17060 H 1581.09 4.13497 -0.812299 0
M  V30 17061 H 1579.81 3.26513 0.075189 0
M  V30 17062 H 1578.47 3.04219 -2.04564 0
M  V30 17063 H 1578.12 5.00178 -0.532063 0
M  V30 17064 H 1577.82 5.43482 -2.23386 0
M  V30 17065 H 1579.34 5.93247 -1.44534 0
M  V30 17066 H 1580.76 4.66604 -3.33096 0
M  V30 17067 H 1579.15 4.40321 -4.07722 0
M  V30 17068 H 1580.22 3.01807 -3.79526 0
M  V30 17069 N 1581.57 1.13606 1.09231 0
M  V30 17070 C 1582.81 0.909321 1.83059 0
M  V30 17071 C 1583.17 -0.554485 1.83819 0
M  V30 17072 O 1584.37 -0.898864 2.53326 0
M  V30 17073 C 1582.64 1.4835 3.25157 0
M  V30 17074 S 1584.2 1.3971 4.15964 0
M  V30 17075 H 1581.02 0.327715 0.630971 0
M  V30 17076 H 1583.62 1.44796 1.31355 0
M  V30 17077 H 1582.33 2.54219 3.22181 0
M  V30 17078 H 1581.86 0.942887 3.81934 0
M  V30 17079 H 1583.87 0.37691 4.94766 0
M  V30 17080 N 1583.05 -1.27244 0.929878 0
M  V30 17081 C 1584.27 -1.98912 0.587277 0
M  V30 17082 C 1584.7 -1.68888 -0.828168 0
M  V30 17083 O 1584.05 -0.930394 -1.55606 0
M  V30 17084 C 1584.1 -3.51097 0.822399 0
M  V30 17085 O 1583.21 -4.12251 -0.110968 0
M  V30 17086 H 1582.55 -0.624404 0.225867 0
M  V30 17087 H 1585.08 -1.61997 1.24973 0
M  V30 17088 H 1585.09 -4.01255 0.738824 0
M  V30 17089 H 1583.76 -3.72282 1.85416 0
M  V30 17090 H 1582.34 -3.72893 0.0227053 0
M  V30 17091 N 1584.52 -0.695628 -1.41417 0
M  V30 17092 C 1585.45 -0.0447013 -2.33457 0
M  V30 17093 C 1586.43 0.767104 -1.51821 0
M  V30 17094 O 1587.62 0.720066 -1.80357 0
M  V30 17095 C 1584.75 0.892353 -3.3564 0
M  V30 17096 C 1583.7 0.187638 -4.27588 0
M  V30 17097 C 1583.03 1.23906 -5.20146 0
M  V30 17098 C 1584.33 -0.946093 -5.1366 0
M  V30 17099 H 1586.02 -0.81343 -2.88138 0
M  V30 17100 H 1583.57 -0.392614 -1.38544 0
M  V30 17101 H 1585.52 1.35696 -3.98954 0
M  V30 17102 H 1584.25 1.69275 -2.79309 0
M  V30 17103 H 1582.91 -0.256942 -3.65698 0
M  V30 17104 H 1582.55 2.03198 -4.6013 0
M  V30 17105 H 1582.25 0.772536 -5.82499 0
M  V30 17106 H 1583.78 1.70417 -5.86336 0
M  V30 17107 H 1585.19 -0.561764 -5.70541 0
M  V30 17108 H 1583.59 -1.33971 -5.84954 0
M  V30 17109 H 1584.66 -1.78573 -4.50821 0
M  V30 17110 N 1586 1.51322 -0.440383 0
M  V30 17111 C 1587.25 2.01714 0.124815 0
M  V30 17112 C 1587.57 1.32634 1.42945 0
M  V30 17113 O 1586.84 0.461849 1.90378 0
M  V30 17114 H 1585.42 0.745384 0.049116 0
M  V30 17115 H 1588.08 1.85951 -0.583787 0
M  V30 17116 H 1587.18 3.10669 0.29853 0
M  V30 17117 N 1587.48 0.171848 1.5666 0
M  V30 17118 C 1588.73 -0.473061 1.96074 0
M  V30 17119 C 1589.04 -1.64353 1.06054 0
M  V30 17120 O 1590.25 -2.35471 1.35151 0
M  V30 17121 C 1588.7 -0.892995 3.48645 0
M  V30 17122 C 1588.31 0.251902 4.47291 0
M  V30 17123 C 1590.06 -1.50629 3.96877 0
M  V30 17124 C 1587.96 -0.187691 5.91102 0
M  V30 17125 H 1586.89 -0.180503 0.732075 0
M  V30 17126 H 1589.54 0.260164 1.81646 0
M  V30 17127 H 1587.93 -1.68221 3.58494 0
M  V30 17128 H 1589.1 1.02923 4.49159 0
M  V30 17129 H 1587.41 0.775193 4.09121 0
M  V30 17130 H 1590.01 -1.84724 5.01778 0
M  V30 17131 H 1590.35 -2.4044 3.39844 0
M  V30 17132 H 1590.89 -0.781502 3.90048 0
M  V30 17133 H 1587.63 0.675653 6.52009 0
M  V30 17134 H 1587.15 -0.93037 5.9254 0
M  V30 17135 H 1588.83 -0.631385 6.43912 0
M  V30 17136 N 1588.96 -1.5727 -0.101874 0
M  V30 17137 C 1590.2 -1.86017 -0.807795 0
M  V30 17138 C 1590.54 -0.760024 -1.7871 0
M  V30 17139 O 1589.81 0.232627 -1.93104 0
M  V30 17140 C 1590.09 -3.25388 -1.54255 0
M  V30 17141 C 1589.95 -4.46023 -0.581693 0
M  V30 17142 C 1591.27 -3.62561 -2.49474 0
M  V30 17143 H 1588.39 -0.676596 -0.29221 0
M  V30 17144 H 1591.03 -1.89865 -0.0715861 0
M  V30 17145 H 1589.18 -3.22239 -2.17013 0
M  V30 17146 H 1590.85 -4.61284 0.0383529 0
M  V30 17147 H 1589.09 -4.33672 0.105465 0
M  V30 17148 H 1589.76 -5.40251 -1.1328 0
M  V30 17149 H 1592.24 -3.66611 -1.96813 0
M  V30 17150 H 1591.12 -4.61025 -2.97905 0
M  V30 17151 H 1591.38 -2.90885 -3.32924 0
M  V30 17152 N 1590.44 0.372521 -1.53134 0
M  V30 17153 C 1591.37 1.4621 -1.82057 0
M  V30 17154 C 1592.35 1.56194 -0.673612 0
M  V30 17155 O 1593.53 1.70875 -0.922797 0
M  V30 17156 C 1590.66 2.83632 -2.00425 0
M  V30 17157 C 1589.62 2.88478 -3.16171 0
M  V30 17158 C 1588.94 4.28508 -3.19821 0
M  V30 17159 C 1590.24 2.56628 -4.54906 0
M  V30 17160 H 1591.94 1.22256 -2.73302 0
M  V30 17161 H 1589.48 0.586688 -1.31507 0
M  V30 17162 H 1591.43 3.59876 -2.19242 0
M  V30 17163 H 1590.16 3.0896 -1.05884 0
M  V30 17164 H 1588.82 2.14684 -2.97164 0
M  V30 17165 H 1588.47 4.509 -2.2293 0
M  V30 17166 H 1588.17 4.32667 -3.97584 0
M  V30 17167 H 1589.69 5.06635 -3.40813 0
M  V30 17168 H 1591.1 3.22587 -4.73931 0
M  V30 17169 H 1589.5 2.72114 -5.34859 0
M  V30 17170 H 1590.57 1.51902 -4.60493 0
M  V30 17171 N 1591.91 1.44376 0.631925 0
M  V30 17172 C 1593.15 1.48638 1.40307 0
M  V30 17173 C 1593.52 0.115559 1.91652 0
M  V30 17174 O 1594.72 0.0328551 2.6878 0
M  V30 17175 C 1592.99 2.51663 2.53773 0
M  V30 17176 S 1594.55 2.74966 3.41964 0
M  V30 17177 H 1591.37 0.525735 0.478669 0
M  V30 17178 H 1593.97 1.81294 0.731632 0
M  V30 17179 H 1592.67 3.49968 2.14361 0
M  V30 17180 H 1592.2 2.20577 3.25744 0
M  V30 17181 H 1594.22 2.06501 4.51189 0
M  V30 17182 N 1593.39 -0.872258 1.31261 0
M  V30 17183 C 1594.32 -1.99517 1.21306 0
M  V30 17184 C 1595.3 -1.69801 0.100775 0
M  V30 17185 O 1596.49 -1.92098 0.284984 0
M  V30 17186 C 1593.62 -3.34968 0.917249 0
M  V30 17187 C 1592.57 -3.78984 1.98885 0
M  V30 17188 C 1591.9 -5.11869 1.54578 0
M  V30 17189 C 1593.2 -3.96338 3.40167 0
M  V30 17190 H 1594.89 -2.08104 2.15251 0
M  V30 17191 H 1592.44 -0.999865 1.03628 0
M  V30 17192 H 1594.39 -4.1306 0.834217 0
M  V30 17193 H 1593.11 -3.26549 -0.0578721 0
M  V30 17194 H 1591.77 -3.0313 2.06174 0
M  V30 17195 H 1591.42 -4.99889 0.558581 0
M  V30 17196 H 1591.12 -5.4229 2.26265 0
M  V30 17197 H 1592.65 -5.92472 1.47678 0
M  V30 17198 H 1594.06 -4.64831 3.35566 0
M  V30 17199 H 1592.46 -4.38153 4.10051 0
M  V30 17200 H 1593.53 -2.9979 3.81122 0
M  V30 17201 N 1594.87 -1.14184 -1.08627 0
M  V30 17202 C 1596.12 -0.91001 -1.81236 0
M  V30 17203 C 1596.45 0.562134 -1.85886 0
M  V30 17204 O 1595.72 1.41631 -1.33307 0
M  V30 17205 C 1596.01 -1.50879 -3.26967 0
M  V30 17206 C 1595.86 -3.05063 -3.3054 0
M  V30 17207 C 1597.18 -1.18379 -4.2388 0
M  V30 17208 H 1594.3 -0.332025 -0.657973 0
M  V30 17209 H 1596.94 -1.41144 -1.27194 0
M  V30 17210 H 1595.09 -1.08236 -3.73118 0
M  V30 17211 H 1596.76 -3.5652 -2.9273 0
M  V30 17212 H 1595 -3.39628 -2.6988 0
M  V30 17213 H 1595.68 -3.42064 -4.33239 0
M  V30 17214 H 1598.15 -1.55242 -3.86056 0
M  V30 17215 H 1597.03 -1.62911 -5.24167 0
M  V30 17216 H 1597.29 -0.0987385 -4.4199 0
M  V30 17217 N 1596.35 1.26749 -0.936613 0
M  V30 17218 C 1597.58 1.98059 -0.598357 0
M  V30 17219 C 1597.99 1.6979 0.825646 0
M  V30 17220 O 1597.35 0.963514 1.54992 0
M  V30 17221 C 1597.4 3.51948 -0.825519 0
M  V30 17222 O 1597.12 3.79232 -2.19351 0
M  V30 17223 C 1598.62 4.40503 -0.497186 0
M  V30 17224 H 1595.84 0.631826 -0.225914 0
M  V30 17225 H 1598.39 1.61379 -1.25607 0
M  V30 17226 H 1596.54 3.86806 -0.214479 0
M  V30 17227 H 1596.95 4.73782 -2.25014 0
M  V30 17228 H 1598.43 5.47457 -0.706779 0
M  V30 17229 H 1598.91 4.35516 0.567645 0
M  V30 17230 H 1599.51 4.11181 -1.08675 0
M  V30 17231 N 1597.83 0.703118 1.41046 0
M  V30 17232 C 1599.05 0.245088 2.05947 0
M  V30 17233 C 1599.48 -1.09988 1.52592 0
M  V30 17234 O 1598.83 -1.69015 0.656023 0
M  V30 17235 C 1598.88 0.221444 3.59919 0
M  V30 17236 O 1597.99 -0.801324 4.0454 0
M  V30 17237 H 1597.33 0.117862 0.653456 0
M  V30 17238 H 1599.86 0.960099 1.80674 0
M  V30 17239 H 1599.87 0.0548681 4.07963 0
M  V30 17240 H 1598.54 1.20301 3.98121 0
M  V30 17241 H 1597.12 -0.603489 3.67984 0
M  V30 17242 N 1599.3 -1.51086 0.448402 0
M  V30 17243 C 1600.55 -2.02476 -0.114511 0
M  V30 17244 C 1600.88 -1.33126 -1.4139 0
M  V30 17245 O 1600.16 -0.449665 -1.89231 0
M  V30 17246 C 1600.44 -3.58659 -0.321842 0
M  V30 17247 C 1600.29 -4.38612 0.996975 0
M  V30 17248 C 1601.61 -4.26473 -1.08667 0
M  V30 17249 H 1598.73 -0.735906 -0.0401431 0
M  V30 17250 H 1601.37 -1.80622 0.589563 0
M  V30 17251 H 1599.52 -3.77411 -0.92157 0
M  V30 17252 H 1601.2 -4.31484 1.63154 0
M  V30 17253 H 1599.44 -4.03255 1.599 0
M  V30 17254 H 1600.11 -5.46087 0.805817 0
M  V30 17255 H 1602.59 -4.12058 -0.578559 0
M  V30 17256 H 1601.46 -5.35611 -1.20051 0
M  V30 17257 H 1601.72 -3.88086 -2.11758 0
M  V30 17258 N 1600.78 -0.180154 -1.56567 0
M  V30 17259 C 1602.01 0.46854 -2.01525 0
M  V30 17260 C 1602.43 1.56211 -1.06036 0
M  V30 17261 O 1601.78 1.82392 -0.06269 0
M  V30 17262 C 1601.83 1.0387 -3.46256 0
M  V30 17263 O 1601.55 -0.0112203 -4.38099 0
M  V30 17264 C 1603.06 1.76475 -4.06659 0
M  V30 17265 H 1600.28 0.119098 -0.660346 0
M  V30 17266 H 1602.82 -0.284477 -2.02512 0
M  V30 17267 H 1600.97 1.74217 -3.46016 0
M  V30 17268 H 1601.39 0.41099 -5.22887 0
M  V30 17269 H 1602.86 2.11618 -5.09825 0
M  V30 17270 H 1603.34 2.66301 -3.49257 0
M  V30 17271 H 1603.95 1.10749 -4.10627 0
M  V30 17272 N 1602.26 1.57322 0.0935319 0
M  V30 17273 C 1603.51 1.86443 0.797919 0
M  V30 17274 C 1603.84 0.769491 1.78304 0
M  V30 17275 O 1603.11 -0.222383 1.93225 0
M  V30 17276 C 1603.4 3.26201 1.52528 0
M  V30 17277 C 1603.25 4.46325 0.558031 0
M  V30 17278 C 1604.57 3.63879 2.47548 0
M  V30 17279 H 1601.69 0.678136 0.288618 0
M  V30 17280 H 1604.33 1.899 0.0615161 0
M  V30 17281 H 1602.48 3.23385 2.15301 0
M  V30 17282 H 1604.15 4.61257 -0.0628154 0
M  V30 17283 H 1602.4 4.3361 -0.128462 0
M  V30 17284 H 1603.07 5.40845 1.10413 0
M  V30 17285 H 1605.54 3.6765 1.94866 0
M  V30 17286 H 1604.42 4.62598 2.95456 0
M  V30 17287 H 1604.68 2.92647 3.31376 0
M  V30 17288 N 1603.74 -0.364395 1.53329 0
M  V30 17289 C 1604.65 -1.47027 1.82812 0
M  V30 17290 C 1605.66 -1.58559 0.716598 0
M  V30 17291 O 1606.84 -1.7443 1.00678 0
M  V30 17292 C 1603.91 -2.82278 2.01295 0
M  V30 17293 C 1602.97 -2.80264 3.25193 0
M  V30 17294 C 1602.2 -4.09065 3.42785 0
M  V30 17295 O 1602.42 -5.0529 2.64648 0
M  V30 17296 O 1601.36 -4.14804 4.36144 0
M  V30 17297 H 1605.18 -1.25035 2.76767 0
M  V30 17298 H 1602.77 -0.554608 1.38724 0
M  V30 17299 H 1604.65 -3.62416 2.15017 0
M  V30 17300 H 1603.32 -3.04244 1.10531 0
M  V30 17301 H 1602.23 -1.9882 3.16893 0
M  V30 17302 H 1603.56 -2.63252 4.15884 0
M  V30 17303 N 1605.22 -1.44709 -0.62426 0
M  V30 17304 C 1606.46 -1.49065 -1.38388 0
M  V30 17305 C 1606.82 -0.124063 -1.92 0
M  V30 17306 O 1606.11 0.861701 -1.71129 0
M  V30 17307 C 1606.3 -2.4919 -2.56201 0
M  V30 17308 C 1606.13 -3.9545 -2.14124 0
M  V30 17309 C 1604.9 -4.63568 -2.01079 0
M  V30 17310 C 1607.1 -4.84468 -1.72613 0
M  V30 17311 N 1605.08 -5.94622 -1.52637 0
M  V30 17312 C 1606.45 -6.0502 -1.35466 0
M  V30 17313 C 1608.51 -4.71473 -1.60054 0
M  V30 17314 C 1607.21 -7.14017 -0.870158 0
M  V30 17315 C 1609.24 -5.80502 -1.13009 0
M  V30 17316 C 1608.6 -7.00199 -0.768166 0
M  V30 17317 H 1604.7 -0.600483 -0.500943 0
M  V30 17318 H 1607.28 -1.81079 -0.715433 0
M  V30 17319 H 1605.45 -2.19155 -3.20664 0
M  V30 17320 H 1607.19 -2.43798 -3.23024 0
M  V30 17321 H 1603.94 -4.1848 -2.21747 0
M  V30 17322 H 1604.37 -6.64265 -1.30695 0
M  V30 17323 H 1609.01 -3.79362 -1.86666 0
M  V30 17324 H 1606.73 -8.05932 -0.591564 0
M  V30 17325 H 1610.31 -5.72476 -1.03741 0
M  V30 17326 H 1609.19 -7.83129 -0.409714 0
M  V30 17327 N 1606.69 0.865285 -1.31722 0
M  V30 17328 C 1607.92 1.65137 -1.24649 0
M  V30 17329 C 1608.34 1.87868 0.187391 0
M  V30 17330 O 1607.69 1.44015 1.12098 0
M  V30 17331 C 1607.75 3.0167 -1.99193 0
M  V30 17332 O 1607.47 2.79951 -3.36985 0
M  V30 17333 C 1608.97 3.96115 -1.99017 0
M  V30 17334 H 1606.19 0.514683 -0.430514 0
M  V30 17335 H 1608.73 1.07971 -1.73674 0
M  V30 17336 H 1606.89 3.55511 -1.53918 0
M  V30 17337 H 1607.3 3.66706 -3.75002 0
M  V30 17338 H 1608.77 4.89217 -2.55677 0
M  V30 17339 H 1609.25 4.28268 -0.973815 0
M  V30 17340 H 1609.86 3.4821 -2.44192 0
M  V30 17341 N 1608.17 1.14759 1.0802 0
M  V30 17342 C 1609.42 0.916435 1.80127 0
M  V30 17343 C 1609.74 -0.558281 1.86837 0
M  V30 17344 O 1609.01 -1.40579 1.36434 0
M  V30 17345 H 1607.59 0.336066 0.667135 0
M  V30 17346 H 1610.25 1.44693 1.30576 0
M  V30 17347 H 1609.35 1.31986 2.82818 0
M  V30 17348 N 1609.65 -1.26251 0.943322 0
M  V30 17349 C 1610.58 -2.28673 0.472347 0
M  V30 17350 C 1611.56 -1.63319 -0.475481 0
M  V30 17351 O 1612.75 -1.90508 -0.376875 0
M  V30 17352 C 1609.88 -3.46316 -0.261286 0
M  V30 17353 C 1608.83 -4.23771 0.600192 0
M  V30 17354 C 1608.16 -5.3405 -0.263525 0
M  V30 17355 C 1609.46 -4.87576 1.87262 0
M  V30 17356 H 1611.15 -2.68319 1.32836 0
M  V30 17357 H 1608.7 -1.28987 0.640182 0
M  V30 17358 H 1610.65 -4.1708 -0.601821 0
M  V30 17359 H 1609.37 -3.05629 -1.15146 0
M  V30 17360 H 1608.03 -3.54774 0.923651 0
M  V30 17361 H 1607.68 -4.89604 -1.15312 0
M  V30 17362 H 1607.38 -5.86784 0.309495 0
M  V30 17363 H 1608.9 -6.07652 -0.599281 0
M  V30 17364 H 1610.32 -5.50544 1.59919 0
M  V30 17365 H 1608.72 -5.50437 2.39038 0
M  V30 17366 H 1609.79 -4.10397 2.58268 0
M  V30 17367 N 1611.13 -0.710588 -1.40671 0
M  V30 17368 C 1612.08 -0.0548139 -2.30735 0
M  V30 17369 C 1613.05 0.755572 -1.4792 0
M  V30 17370 O 1614.23 0.720541 -1.76672 0
M  V30 17371 C 1611.37 0.864648 -3.34093 0
M  V30 17372 C 1610.48 0.0442717 -4.31977 0
M  V30 17373 C 1609.62 0.962752 -5.22403 0
M  V30 17374 C 1608.66 0.13617 -6.11949 0
M  V30 17375 N 1607.8 1.00926 -6.94808 0
M  V30 17376 H 1612.64 -0.828555 -2.8625 0
M  V30 17377 H 1610.17 -0.420286 -1.40968 0
M  V30 17378 H 1612.13 1.41193 -3.92582 0
M  V30 17379 H 1610.76 1.60462 -2.80092 0
M  V30 17380 H 1609.81 -0.620132 -3.75311 0
M  V30 17381 H 1611.12 -0.595895 -4.95228 0
M  V30 17382 H 1610.28 1.57874 -5.85799 0
M  V30 17383 H 1609.02 1.63675 -4.59415 0
M  V30 17384 H 1608.02 -0.492793 -5.47587 0
M  V30 17385 H 1609.25 -0.534251 -6.76995 0
M  V30 17386 H 1607.19 1.669 -6.34413 0
M  V30 17387 H 1607.11 0.425013 -7.54804 0
M  V30 17388 H 1608.38 1.61159 -7.62659 0
M  V30 17389 N 1612.61 1.50847 -0.456408 0
M  V30 17390 C 1613.85 2.02534 0.103772 0
M  V30 17391 C 1614.19 1.33874 1.40682 0
M  V30 17392 O 1613.46 0.459695 1.8899 0
M  V30 17393 C 1613.74 3.58825 0.302817 0
M  V30 17394 C 1613.6 4.38077 -1.02022 0
M  V30 17395 C 1614.92 4.27044 1.06404 0
M  V30 17396 H 1612.04 0.736108 0.0362398 0
M  V30 17397 H 1614.68 1.80306 -0.599134 0
M  V30 17398 H 1612.83 3.77895 0.901542 0
M  V30 17399 H 1614.5 4.30613 -1.6544 0
M  V30 17400 H 1612.74 4.02401 -1.62036 0
M  V30 17401 H 1613.41 5.45652 -0.834766 0
M  V30 17402 H 1615.89 4.12359 0.556698 0
M  V30 17403 H 1614.77 5.3624 1.17209 0
M  V30 17404 H 1615.03 3.89204 2.09697 0
M  V30 17405 N 1614.09 0.188454 1.56469 0
M  V30 17406 C 1615.05 -0.721282 2.17555 0
M  V30 17407 C 1616.05 -1.14579 1.1282 0
M  V30 17408 O 1617.24 -1.05996 1.38241 0
M  V30 17409 C 1614.37 -1.9839 2.77226 0
M  V30 17410 H 1615.56 -0.189218 2.99302 0
M  V30 17411 H 1613.12 -0.0611533 1.5618 0
M  V30 17412 H 1613.85 -2.55864 1.99259 0
M  V30 17413 H 1613.64 -1.68831 3.53891 0
M  V30 17414 H 1615.13 -2.63277 3.24153 0
M  V30 17415 N 1615.56 -1.5737 -0.0851874 0
M  V30 17416 C 1616.51 -2.02758 -1.10262 0
M  V30 17417 C 1617.48 -0.905702 -1.39235 0
M  V30 17418 O 1618.67 -1.17241 -1.50529 0
M  V30 17419 C 1615.81 -2.46528 -2.41492 0
M  V30 17420 C 1614.92 -3.72278 -2.19165 0
M  V30 17421 C 1614.05 -4.04885 -3.43863 0
M  V30 17422 C 1613.09 -5.23715 -3.16842 0
M  V30 17423 N 1612.23 -5.52026 -4.33833 0
M  V30 17424 H 1617.07 -2.89453 -0.708583 0
M  V30 17425 H 1614.61 -1.43156 -0.338332 0
M  V30 17426 H 1616.56 -2.69952 -3.18091 0
M  V30 17427 H 1615.19 -1.62829 -2.78723 0
M  V30 17428 H 1614.25 -3.56272 -1.33321 0
M  V30 17429 H 1615.56 -4.5902 -1.95197 0
M  V30 17430 H 1614.71 -4.29138 -4.28865 0
M  V30 17431 H 1613.45 -3.16683 -3.70895 0
M  V30 17432 H 1612.46 -4.99272 -2.30234 0
M  V30 17433 H 1613.68 -6.13523 -2.91146 0
M  V30 17434 H 1611.63 -4.66784 -4.60922 0
M  V30 17435 H 1611.54 -6.3316 -4.13091 0
M  V30 17436 H 1612.81 -5.80822 -5.19871 0
M  V30 17437 N 1617.04 0.356258 -1.53521 0
M  V30 17438 C 1618.46 0.698546 -1.43501 0
M  V30 17439 C 1618.66 1.92926 -0.581547 0
M  V30 17440 O 1617.71 2.5241 -0.0675947 0
M  V30 17441 C 1619.03 0.903047 -2.8682 0
M  V30 17442 C 1620.57 1.00247 -2.96512 0
M  V30 17443 C 1621.05 1.23938 -4.40912 0
M  V30 17444 N 1622.54 1.30687 -4.44382 0
M  V30 17445 C 1623.28 1.50745 -5.5323 0
M  V30 17446 N 1622.77 1.68058 -6.72107 0
M  V30 17447 N 1624.56 1.5319 -5.40823 0
M  V30 17448 H 1616.72 -0.453102 -2.07511 0
M  V30 17449 H 1618.98 -0.140708 -0.937499 0
M  V30 17450 H 1618.68 0.070416 -3.5163 0
M  V30 17451 H 1618.56 1.80847 -3.3102 0
M  V30 17452 H 1620.95 1.82564 -2.3185 0
M  V30 17453 H 1621.03 0.0742303 -2.55692 0
M  V30 17454 H 1620.67 0.421189 -5.06151 0
M  V30 17455 H 1620.6 2.18098 -4.79313 0
M  V30 17456 H 1623.09 1.18883 -3.58713 0
M  V30 17457 H 1623.4 1.82963 -7.50829 0
M  V30 17458 H 1621.75 1.65219 -6.75076 0
M  V30 17459 H 1624.94 1.39237 -4.46912 0
M  V30 17460 H 1625.11 1.6848 -6.25714 0
M  V30 17461 N 1618.52 1.45038 0.616577 0
M  V30 17462 C 1619.45 1.55858 1.73869 0
M  V30 17463 C 1620.43 0.410657 1.65069 0
M  V30 17464 O 1621.62 0.632652 1.83606 0
M  V30 17465 C 1618.75 1.51635 3.12448 0
M  V30 17466 C 1617.7 2.65053 3.36052 0
M  V30 17467 C 1617.03 2.45883 4.74811 0
M  V30 17468 C 1618.33 4.07121 3.27185 0
M  V30 17469 H 1620.02 2.49784 1.6507 0
M  V30 17470 H 1617.57 1.20216 0.792724 0
M  V30 17471 H 1619.52 1.57803 3.90738 0
M  V30 17472 H 1618.24 0.542342 3.22066 0
M  V30 17473 H 1616.9 2.58299 2.60149 0
M  V30 17474 H 1616.55 1.46641 4.8115 0
M  V30 17475 H 1616.25 3.21935 4.9156 0
M  V30 17476 H 1617.77 2.53892 5.55312 0
M  V30 17477 H 1619.19 4.15167 3.9536 0
M  V30 17478 H 1617.58 4.83491 3.55466 0
M  V30 17479 H 1618.65 4.29663 2.24762 0
M  V30 17480 N 1620 -0.858287 1.32179 0
M  V30 17481 C 1620.95 -1.95454 1.17396 0
M  V30 17482 C 1621.93 -1.60692 0.0818403 0
M  V30 17483 O 1623.12 -1.743 0.307973 0
M  V30 17484 C 1620.25 -3.31416 0.895443 0
M  V30 17485 C 1619.34 -3.72409 2.0291 0
M  V30 17486 N 1619.73 -3.8526 3.27732 0
M  V30 17487 C 1618.03 -4.02009 1.93145 0
M  V30 17488 C 1618.73 -4.20479 4.01961 0
M  V30 17489 N 1617.7 -4.318 3.30227 0
M  V30 17490 H 1621.51 -2.03518 2.12033 0
M  V30 17491 H 1619.02 -1.04982 1.23905 0
M  V30 17492 H 1621.02 -4.09718 0.770504 0
M  V30 17493 H 1619.68 -3.24672 -0.0425798 0
M  V30 17494 H 1620.69 -3.69677 3.62711 0
M  V30 17495 H 1617.37 -4.03587 1.06882 0
M  V30 17496 H 1618.76 -4.37921 5.09583 0
M  V30 17497 N 1621.48 -1.1533 -1.07409 0
M  V30 17498 C 1622.89 -0.895817 -1.32088 0
M  V30 17499 C 1623.09 0.457526 -1.96237 0
M  V30 17500 O 1622.15 1.19958 -2.22185 0
M  V30 17501 C 1623.46 -2.03632 -2.21256 0
M  V30 17502 C 1625.01 -2.07079 -2.34707 0
M  V30 17503 C 1625.48 -3.20451 -3.27223 0
M  V30 17504 N 1626.97 -3.20095 -3.34804 0
M  V30 17505 C 1627.71 -4.04458 -4.0645 0
M  V30 17506 N 1627.21 -4.98883 -4.80715 0
M  V30 17507 N 1629 -3.92483 -4.02385 0
M  V30 17508 H 1621.15 -2.02478 -0.641578 0
M  V30 17509 H 1623.41 -0.882864 -0.345332 0
M  V30 17510 H 1623.12 -3.0132 -1.81381 0
M  V30 17511 H 1622.99 -1.96817 -3.21781 0
M  V30 17512 H 1625.38 -1.09991 -2.73836 0
M  V30 17513 H 1625.46 -2.17962 -1.3389 0
M  V30 17514 H 1625.1 -4.17791 -2.88813 0
M  V30 17515 H 1625.03 -3.06805 -4.27993 0
M  V30 17516 H 1627.53 -2.51712 -2.81868 0
M  V30 17517 H 1627.84 -5.59698 -5.32877 0
M  V30 17518 H 1626.18 -5.02872 -4.79734 0
M  V30 17519 H 1629.37 -3.18026 -3.43478 0
M  V30 17520 H 1629.55 -4.58454 -4.57956 0
M  V30 17521 N 1622.95 1.25748 -0.950004 0
M  V30 17522 C 1624.18 1.97952 -0.618848 0
M  V30 17523 C 1624.6 1.70184 0.801194 0
M  V30 17524 O 1623.96 0.955032 1.54107 0
M  V30 17525 C 1624.01 3.49744 -0.878151 0
M  V30 17526 O 1623.11 4.12375 0.0453685 0
M  V30 17527 H 1622.45 0.620731 -0.235773 0
M  V30 17528 H 1624.98 1.59988 -1.27534 0
M  V30 17529 H 1624.99 4.00029 -0.802567 0
M  V30 17530 H 1623.67 3.69285 -1.91315 0
M  V30 17531 H 1622.25 3.7281 -0.0820265 0
M  V30 17532 N 1624.43 0.718038 1.40292 0
M  V30 17533 C 1625.36 0.0818367 2.33357 0
M  V30 17534 C 1626.34 -0.742854 1.53022 0
M  V30 17535 O 1627.53 -0.691281 1.8148 0
M  V30 17536 C 1624.66 -0.838843 3.37017 0
M  V30 17537 C 1623.61 -0.119589 4.27833 0
M  V30 17538 C 1622.94 -1.15615 5.22051 0
M  V30 17539 C 1624.24 1.02769 5.1209 0
M  V30 17540 H 1625.93 0.859167 2.86808 0
M  V30 17541 H 1623.48 0.414606 1.37902 0
M  V30 17542 H 1625.43 -1.29332 4.01063 0
M  V30 17543 H 1624.15 -1.6481 2.81967 0
M  V30 17544 H 1622.81 0.315088 3.65243 0
M  V30 17545 H 1622.46 -1.95852 4.63304 0
M  V30 17546 H 1622.16 -0.679767 5.83655 0
M  V30 17547 H 1623.69 -1.61068 5.88973 0
M  V30 17548 H 1625.1 0.652461 5.69575 0
M  V30 17549 H 1623.5 1.4326 5.82749 0
M  V30 17550 H 1624.57 1.85723 4.47923 0
M  V30 17551 N 1625.91 -1.50602 0.464402 0
M  V30 17552 C 1626.84 -2.31252 -0.323263 0
M  V30 17553 C 1627.82 -1.37856 -0.996476 0
M  V30 17554 O 1629.01 -1.66777 -0.994933 0
M  V30 17555 C 1626.14 -3.17414 -1.40945 0
M  V30 17556 C 1625.09 -4.19307 -0.858226 0
M  V30 17557 C 1624.42 -4.94164 -2.0422 0
M  V30 17558 C 1625.72 -5.22148 0.125921 0
M  V30 17559 H 1627.41 -2.97349 0.34983 0
M  V30 17560 H 1624.96 -1.42997 0.169685 0
M  V30 17561 H 1626.91 -3.72627 -1.96791 0
M  V30 17562 H 1625.63 -2.49189 -2.11122 0
M  V30 17563 H 1624.29 -3.65185 -0.321785 0
M  V30 17564 H 1623.94 -4.22417 -2.7308 0
M  V30 17565 H 1623.64 -5.63083 -1.67963 0
M  V30 17566 H 1625.16 -5.5221 -2.60569 0
M  V30 17567 H 1626.58 -5.72272 -0.343136 0
M  V30 17568 H 1624.98 -5.98749 0.402433 0
M  V30 17569 H 1626.05 -4.73307 1.05399 0
M  V30 17570 N 1627.39 -0.19675 -1.56367 0
M  V30 17571 C 1628.34 0.740138 -2.2051 0
M  V30 17572 C 1629.33 1.21854 -1.17677 0
M  V30 17573 O 1630.54 1.18124 -1.35819 0
M  V30 17574 H 1626.91 0.257034 -0.706709 0
M  V30 17575 H 1628.88 0.175454 -2.97884 0
M  V30 17576 C 1627.63 1.94841 -2.8798 0
M  V30 17577 H 1626.95 1.58936 -3.66851 0
M  V30 17578 H 1628.39 2.58227 -3.36296 0
M  V30 17579 C 1626.85 2.78821 -1.89104 0
M  V30 17580 O 1627.38 3.76797 -1.39237 0
M  V30 17581 N 1625.59 2.44348 -1.57297 0
M  V30 17582 H 1625.14 1.64732 -1.98043 0
M  V30 17583 H 1625.09 3.00822 -0.913978 0
M  V30 17584 N 1628.87 1.57413 0.0768405 0
M  V30 17585 C 1630.28 1.53656 0.431508 0
M  V30 17586 C 1630.48 0.916194 1.79466 0
M  V30 17587 O 1629.54 0.516529 2.4716 0
M  V30 17588 C 1630.85 2.98325 0.377212 0
M  V30 17589 C 1632.4 3.09635 0.457761 0
M  V30 17590 C 1632.87 4.55945 0.433425 0
M  V30 17591 N 1634.37 4.60562 0.493647 0
M  V30 17592 C 1635.1 5.71242 0.496949 0
M  V30 17593 N 1634.6 6.91302 0.455368 0
M  V30 17594 N 1636.39 5.5947 0.543129 0
M  V30 17595 H 1628.54 1.96108 -0.815811 0
M  V30 17596 H 1630.8 0.897392 -0.3056 0
M  V30 17597 H 1630.51 3.47251 -0.557628 0
M  V30 17598 H 1630.38 3.57959 1.18932 0
M  V30 17599 H 1632.77 2.60685 1.38302 0
M  V30 17600 H 1632.85 2.52919 -0.382829 0
M  V30 17601 H 1632.5 5.0555 -0.487968 0
M  V30 17602 H 1632.43 5.10518 1.29148 0
M  V30 17603 H 1634.92 3.74162 0.530237 0
M  V30 17604 H 1635.23 7.7142 0.461674 0
M  V30 17605 H 1633.57 6.93717 0.422133 0
M  V30 17606 H 1636.77 4.64576 0.573272 0
M  V30 17607 H 1636.94 6.45727 0.542234 0
M  V30 17608 N 1630.34 -0.348112 1.53707 0
M  V30 17609 C 1631.59 -1.08626 1.69951 0
M  V30 17610 C 1631.91 -1.89944 0.466992 0
M  V30 17611 O 1633.11 -2.66661 0.51029 0
M  V30 17612 C 1631.57 -1.98052 3.00505 0
M  V30 17613 C 1631.18 -1.21963 4.31079 0
M  V30 17614 C 1632.92 -2.71752 3.26115 0
M  V30 17615 C 1630.83 -2.10392 5.52711 0
M  V30 17616 H 1629.76 -0.409241 0.633275 0
M  V30 17617 H 1632.41 -0.346051 1.80207 0
M  V30 17618 H 1630.79 -2.75874 2.84094 0
M  V30 17619 H 1631.96 -0.490831 4.58178 0
M  V30 17620 H 1630.28 -0.600511 4.12047 0
M  V30 17621 H 1632.88 -3.38174 4.14177 0
M  V30 17622 H 1633.22 -3.38072 2.42926 0
M  V30 17623 H 1633.75 -2.01005 3.43281 0
M  V30 17624 H 1630.49 -1.48622 6.38429 0
M  V30 17625 H 1630.01 -2.81074 5.29866 0
M  V30 17626 H 1631.69 -2.69551 5.88176 0
M  V30 17627 N 1631.82 -1.45363 -0.608876 0
M  V30 17628 C 1633.07 -1.48586 -1.364 0
M  V30 17629 C 1633.38 -0.131213 -1.95159 0
M  V30 17630 O 1634.59 -0.0410845 -2.71469 0
M  V30 17631 C 1633.05 -2.61694 -2.47071 0
M  V30 17632 C 1632.65 -4.03466 -1.94729 0
M  V30 17633 C 1634.4 -2.74162 -3.24091 0
M  V30 17634 C 1632.31 -5.07958 -3.02874 0
M  V30 17635 H 1631.24 -0.552893 -0.512665 0
M  V30 17636 H 1633.89 -1.71499 -0.65271 0
M  V30 17637 H 1632.27 -2.32062 -3.20879 0
M  V30 17638 H 1633.44 -4.4277 -1.27638 0
M  V30 17639 H 1631.76 -3.95436 -1.30457 0
M  V30 17640 H 1634.35 -3.494 -4.04752 0
M  V30 17641 H 1634.7 -1.80751 -3.75013 0
M  V30 17642 H 1635.23 -3.03313 -2.57383 0
M  V30 17643 H 1631.97 -6.03073 -2.56871 0
M  V30 17644 H 1631.49 -4.73225 -3.68535 0
M  V30 17645 H 1633.17 -5.3265 -3.67277 0
M  V30 17646 N 1633.3 0.851265 -1.32632 0
M  V30 17647 C 1634.23 1.97562 -1.24465 0
M  V30 17648 C 1635.21 1.69619 -0.127777 0
M  V30 17649 O 1636.4 1.9162 -0.315509 0
M  V30 17650 C 1633.53 3.33467 -0.970423 0
M  V30 17651 C 1632.48 3.75772 -2.0489 0
M  V30 17652 C 1631.81 5.09345 -1.62702 0
M  V30 17653 C 1633.11 3.90876 -3.4643 0
M  V30 17654 H 1634.8 2.04653 -2.18535 0
M  V30 17655 H 1632.35 0.983252 -1.05205 0
M  V30 17656 H 1634.3 4.11681 -0.899825 0
M  V30 17657 H 1633.02 3.26599 0.00591373 0
M  V30 17658 H 1631.68 2.99812 -2.1097 0
M  V30 17659 H 1631.33 4.98937 -0.638039 0
M  V30 17660 H 1631.03 5.38621 -2.34864 0
M  V30 17661 H 1632.55 5.90048 -1.57085 0
M  V30 17662 H 1633.97 4.59434 -3.42919 0
M  V30 17663 H 1632.37 4.31574 -4.1697 0
M  V30 17664 H 1633.44 2.93689 -3.85843 0
M  V30 17665 N 1634.78 1.15898 1.06796 0
M  V30 17666 C 1635.74 0.863427 2.12315 0
M  V30 17667 C 1636.74 -0.139326 1.60195 0
M  V30 17668 O 1637.93 0.0909705 1.73962 0
M  V30 17669 C 1635.06 0.290251 3.39662 0
M  V30 17670 H 1636.26 1.79879 2.39966 0
M  V30 17671 H 1633.81 0.967223 1.22778 0
M  V30 17672 H 1634.54 -0.653037 3.17657 0
M  V30 17673 H 1634.33 1.01273 3.78796 0
M  V30 17674 H 1635.82 0.10124 4.17477 0
M  V30 17675 N 1636.26 -1.25243 0.956659 0
M  V30 17676 C 1637.67 -1.74909 0.652979 0
M  V30 17677 C 1638.02 -1.77704 -0.831605 0
M  V30 17678 O 1637.14 -1.39921 -1.65079 0
M  V30 17679 C 1637.74 -3.17639 1.1786 0
M  V30 17680 C 1636.3 -3.64856 0.925034 0
M  V30 17681 C 1635.44 -2.43844 1.32044 0
M  V30 17682 H 1638.4 -1.11101 1.13324 0
M  V30 17683 H 1638.42 -3.76654 0.539633 0
M  V30 17684 H 1637.93 -3.15572 2.25911 0
M  V30 17685 H 1636.03 -3.72335 -0.14043 0
M  V30 17686 H 1636.14 -4.5289 1.56292 0
M  V30 17687 H 1634.51 -2.43749 0.738813 0
M  V30 17688 H 1635.29 -2.44466 2.41021 0
M  V30 17689 N 1637.73 -0.725468 -1.3991 0
M  V30 17690 C 1638.67 -0.0282009 -2.28183 0
M  V30 17691 C 1639.65 0.757539 -1.43875 0
M  V30 17692 O 1640.83 0.742105 -1.73277 0
M  V30 17693 C 1637.96 0.967357 -3.24592 0
M  V30 17694 C 1637 0.271249 -4.25637 0
M  V30 17695 S 1637.84 -1.00796 -5.25928 0
M  V30 17696 C 1638.99 -0.0147605 -6.25898 0
M  V30 17697 H 1639.22 -0.776815 -2.86972 0
M  V30 17698 H 1636.76 -0.516881 -1.45491 0
M  V30 17699 H 1638.72 1.5365 -3.8066 0
M  V30 17700 H 1637.38 1.68874 -2.6484 0
M  V30 17701 H 1636.57 1.02421 -4.93483 0
M  V30 17702 H 1636.17 -0.225603 -3.73319 0
M  V30 17703 H 1638.46 0.828816 -6.72411 0
M  V30 17704 H 1639.41 -0.66011 -7.05016 0
M  V30 17705 H 1639.81 0.353381 -5.63393 0
M  V30 17706 N 1639.21 1.50354 -0.472382 0
M  V30 17707 C 1640.63 1.59097 -0.126613 0
M  V30 17708 C 1640.83 1.4804 1.36698 0
M  V30 17709 O 1639.88 1.33956 2.14038 0
M  V30 17710 C 1641.2 2.92958 -0.677957 0
M  V30 17711 C 1642.75 3.06356 -0.6415 0
M  V30 17712 C 1643.22 4.42793 -1.17041 0
M  V30 17713 N 1644.71 4.49208 -1.12988 0
M  V30 17714 C 1645.45 5.53171 -1.50961 0
M  V30 17715 N 1644.94 6.64381 -1.96391 0
M  V30 17716 N 1646.74 5.43722 -1.42556 0
M  V30 17717 H 1638.89 1.55785 -1.44378 0
M  V30 17718 H 1641.15 0.736295 -0.597138 0
M  V30 17719 H 1640.86 3.06529 -1.72433 0
M  V30 17720 H 1640.73 3.77002 -0.122247 0
M  V30 17721 H 1643.12 2.92431 0.395964 0
M  V30 17722 H 1643.2 2.24066 -1.23403 0
M  V30 17723 H 1642.84 4.57466 -2.20651 0
M  V30 17724 H 1642.77 5.23677 -0.554086 0
M  V30 17725 H 1645.26 3.69407 -0.796692 0
M  V30 17726 H 1645.58 7.39772 -2.23511 0
M  V30 17727 H 1643.92 6.65498 -2.00344 0
M  V30 17728 H 1647.11 4.55729 -1.06905 0
M  V30 17729 H 1647.28 6.24625 -1.72476 0
M  V30 17730 N 1640.69 0.205039 1.56261 0
M  V30 17731 C 1641.94 -0.431097 1.97858 0
M  V30 17732 C 1642.27 -1.60937 1.09223 0
M  V30 17733 O 1641.52 -1.95244 0.133495 0
M  V30 17734 C 1641.82 -0.924086 3.45247 0
M  V30 17735 C 1641.49 0.141879 4.50677 0
M  V30 17736 C 1640.15 0.434753 4.79232 0
M  V30 17737 C 1642.5 0.863645 5.13995 0
M  V30 17738 C 1639.83 1.4542 5.68392 0
M  V30 17739 C 1642.18 1.87231 6.04258 0
M  V30 17740 C 1640.84 2.17227 6.31164 0
M  V30 17741 H 1640.11 -0.157749 0.724014 0
M  V30 17742 H 1642.76 0.304094 1.8907 0
M  V30 17743 H 1641.07 -1.73774 3.51155 0
M  V30 17744 H 1642.76 -1.42586 3.74794 0
M  V30 17745 H 1639.35 -0.0965514 4.28491 0
M  V30 17746 H 1643.54 0.650612 4.92017 0
M  V30 17747 H 1638.79 1.69241 5.8751 0
M  V30 17748 H 1642.97 2.43675 6.52377 0
M  V30 17749 H 1640.59 2.96366 7.00051 0
M  V30 17750 N 1642.17 -1.57451 -0.0684915 0
M  V30 17751 C 1643.42 -1.87411 -0.76702 0
M  V30 17752 C 1643.74 -0.797219 -1.77411 0
M  V30 17753 O 1643 0.206424 -1.94608 0
M  V30 17754 C 1643.3 -3.24044 -1.50765 0
M  V30 17755 C 1642.96 -4.46331 -0.640238 0
M  V30 17756 C 1641.63 -4.79525 -0.401205 0
M  V30 17757 C 1643.98 -5.21185 -0.0389475 0
M  V30 17758 C 1641.31 -5.84983 0.448547 0
M  V30 17759 C 1643.66 -6.27543 0.798278 0
M  V30 17760 C 1642.32 -6.59235 1.04715 0
M  V30 17761 H 1641.59 -0.685787 -0.280673 0
M  V30 17762 H 1644.24 -1.9148 -0.0277143 0
M  V30 17763 H 1642.54 -3.15782 -2.31925 0
M  V30 17764 H 1644.24 -3.44461 -2.05299 0
M  V30 17765 H 1640.83 -4.20354 -0.836675 0
M  V30 17766 H 1645.02 -4.95852 -0.210729 0
M  V30 17767 H 1640.27 -6.07934 0.650077 0
M  V30 17768 H 1644.45 -6.84705 1.27092 0
M  V30 17769 H 1642.07 -7.40779 1.70737 0
M  V30 17770 N 1643.65 0.339955 -1.5389 0
M  V30 17771 C 1644.56 1.441 -1.85128 0
M  V30 17772 C 1645.57 1.57399 -0.741733 0
M  V30 17773 O 1646.75 1.72807 -1.0344 0
M  V30 17774 C 1643.81 2.7904 -2.05761 0
M  V30 17775 C 1642.88 2.75055 -3.29611 0
M  V30 17776 C 1642.11 4.0356 -3.4925 0
M  V30 17777 O 1642.33 5.01015 -2.72653 0
M  V30 17778 O 1641.27 4.07813 -4.42687 0
M  V30 17779 H 1645.09 1.20616 -2.78721 0
M  V30 17780 H 1642.68 0.532468 -1.39589 0
M  V30 17781 H 1644.56 3.5895 -2.20756 0
M  V30 17782 H 1643.23 3.02447 -1.15357 0
M  V30 17783 H 1642.14 1.93753 -3.20016 0
M  V30 17784 H 1643.47 2.56602 -4.20019 0
M  V30 17785 N 1645.13 1.45684 0.601159 0
M  V30 17786 C 1646.35 1.53574 1.38646 0
M  V30 17787 C 1646.77 0.170511 1.88028 0
M  V30 17788 O 1646.13 -0.829061 1.62582 0
M  V30 17789 C 1646.18 2.52543 2.58658 0
M  V30 17790 O 1645.9 3.83761 2.11327 0
M  V30 17791 C 1647.4 2.70194 3.5144 0
M  V30 17792 H 1644.62 0.519907 0.424191 0
M  V30 17793 H 1647.16 1.90929 0.732559 0
M  V30 17794 H 1645.32 2.18242 3.20077 0
M  V30 17795 H 1645.73 4.37467 2.89349 0
M  V30 17796 H 1647.21 3.43405 4.32177 0
M  V30 17797 H 1647.68 1.76452 4.02196 0
M  V30 17798 H 1648.29 3.05517 2.95871 0
M  V30 17799 N 1646.6 -0.84422 1.33082 0
M  V30 17800 C 1647.83 -1.63133 1.27261 0
M  V30 17801 C 1648.25 -1.88142 -0.157479 0
M  V30 17802 O 1647.6 -1.4578 -1.09793 0
M  V30 17803 C 1647.65 -2.98462 2.03967 0
M  V30 17804 O 1647.38 -2.74555 3.41396 0
M  V30 17805 C 1648.88 -3.92899 2.05293 0
M  V30 17806 H 1646.1 -0.507769 0.438647 0
M  V30 17807 H 1648.64 -1.05194 1.75369 0
M  V30 17808 H 1646.8 -3.53017 1.59554 0
M  V30 17809 H 1647.21 -3.60694 3.80789 0
M  V30 17810 H 1648.68 -4.85088 2.63427 0
M  V30 17811 H 1649.16 -4.26665 1.04183 0
M  V30 17812 H 1649.77 -3.44281 2.49701 0
M  V30 17813 N 1648.08 -1.16463 -1.0618 0
M  V30 17814 C 1649.49 -0.95436 -1.60465 0
M  V30 17815 C 1649.84 0.501455 -1.89684 0
M  V30 17816 O 1648.97 1.37488 -1.67111 0
M  V30 17817 C 1649.56 -1.72603 -2.91537 0
M  V30 17818 C 1648.12 -1.56071 -3.42518 0
M  V30 17819 C 1647.27 -1.73403 -2.16395 0
M  V30 17820 H 1650.22 -1.31316 -0.891166 0
M  V30 17821 H 1650.24 -1.20252 -3.60998 0
M  V30 17822 H 1649.75 -2.78554 -2.70239 0
M  V30 17823 H 1647.85 -0.525652 -3.68874 0
M  V30 17824 H 1647.97 -2.34533 -4.17769 0
M  V30 17825 H 1646.33 -1.16155 -2.26672 0
M  V30 17826 H 1647.11 -2.80745 -1.97578 0
M  V30 17827 N 1649.56 1.24734 -0.963288 0
M  V30 17828 C 1650.49 2.27892 -0.508667 0
M  V30 17829 C 1651.47 1.64055 0.449438 0
M  V30 17830 O 1652.66 1.91083 0.346519 0
M  V30 17831 C 1649.79 3.46688 0.206157 0
M  V30 17832 C 1648.74 4.22762 -0.667534 0
M  V30 17833 C 1648.07 5.34402 0.178529 0
M  V30 17834 C 1649.37 4.84535 -1.94995 0
M  V30 17835 H 1651.06 2.66171 -1.37088 0
M  V30 17836 H 1648.61 1.27952 -0.660622 0
M  V30 17837 H 1650.56 4.17985 0.535391 0
M  V30 17838 H 1649.28 3.07422 1.10269 0
M  V30 17839 H 1647.94 3.53259 -0.979976 0
M  V30 17840 H 1647.59 4.91377 1.07508 0
M  V30 17841 H 1647.29 5.86218 -0.402808 0
M  V30 17842 H 1648.81 6.08529 0.502533 0
M  V30 17843 H 1650.23 5.4793 -1.68658 0
M  V30 17844 H 1648.62 5.46564 -2.47765 0
M  V30 17845 H 1649.69 4.06236 -2.64765 0
M  V30 17846 N 1651.04 0.732878 1.39523 0
M  V30 17847 C 1652.29 0.279338 2.0016 0
M  V30 17848 C 1652.61 -1.13673 1.58441 0
M  V30 17849 O 1651.88 -1.77369 0.831681 0
M  V30 17850 H 1650.46 0.100288 0.740237 0
M  V30 17851 H 1653.12 0.942363 1.70603 0
M  V30 17852 H 1652.21 0.326053 3.10392 0
M  V30 17853 N 1652.52 -1.50101 0.480349 0
M  V30 17854 C 1653.74 -2.07278 -0.0710872 0
M  V30 17855 C 1654.17 -1.34082 -1.31923 0
M  V30 17856 O 1653.52 -0.391251 -1.77028 0
M  V30 17857 C 1653.57 -3.59099 -0.328706 0
M  V30 17858 O 1652.68 -3.8764 -1.40745 0
M  V30 17859 H 1652.02 -0.66378 0.0170748 0
M  V30 17860 H 1654.55 -1.93178 0.674049 0
M  V30 17861 H 1654.56 -4.04049 -0.566435 0
M  V30 17862 H 1653.23 -4.11789 0.583316 0
M  V30 17863 H 1651.81 -3.54519 -1.15631 0
M  V30 17864 N 1653.99 -0.213323 -1.5615 0
M  V30 17865 C 1655.24 0.420909 -1.97259 0
M  V30 17866 C 1655.56 1.61483 -1.10375 0
M  V30 17867 O 1656.76 2.31804 -1.41347 0
M  V30 17868 C 1655.22 0.800243 -3.5089 0
M  V30 17869 C 1654.83 -0.370405 -4.46466 0
M  V30 17870 C 1656.57 1.40054 -4.00731 0
M  V30 17871 C 1654.48 0.0309052 -5.91392 0
M  V30 17872 H 1653.41 0.16103 -0.736604 0
M  V30 17873 H 1656.06 -0.308232 -1.80893 0
M  V30 17874 H 1654.44 1.58657 -3.62828 0
M  V30 17875 H 1655.61 -1.14796 -4.46272 0
M  V30 17876 H 1653.93 -0.883391 -4.06922 0
M  V30 17877 H 1656.53 1.71355 -5.06499 0
M  V30 17878 H 1656.87 2.31345 -3.461 0
M  V30 17879 H 1657.4 0.677813 -3.91983 0
M  V30 17880 H 1654.14 -0.848284 -6.49988 0
M  V30 17881 H 1653.66 0.772941 -5.94799 0
M  V30 17882 H 1655.34 0.460441 -6.4536 0
M  V30 17883 N 1655.47 1.57485 0.0601405 0
M  V30 17884 C 1656.4 2.07525 1.07031 0
M  V30 17885 C 1657.38 0.971136 1.39653 0
M  V30 17886 O 1658.57 1.24456 1.49078 0
M  V30 17887 C 1655.7 2.52888 2.38044 0
M  V30 17888 C 1654.65 3.67282 2.19745 0
M  V30 17889 C 1653.98 3.98741 3.56244 0
M  V30 17890 C 1655.28 4.96896 1.60908 0
M  V30 17891 H 1656.97 2.92173 0.653875 0
M  V30 17892 H 1654.52 1.40555 0.313083 0
M  V30 17893 H 1656.47 2.8651 3.09014 0
M  V30 17894 H 1655.2 1.65284 2.81689 0
M  V30 17895 H 1653.85 3.33961 1.51213 0
M  V30 17896 H 1653.5 3.08249 3.97481 0
M  V30 17897 H 1653.2 4.75775 3.44836 0
M  V30 17898 H 1654.73 4.34869 4.28627 0
M  V30 17899 H 1656.14 5.28674 2.21758 0
M  V30 17900 H 1654.54 5.78332 1.60164 0
M  V30 17901 H 1655.61 4.81518 0.571671 0
M  V30 17902 N 1656.95 -0.331789 1.54068 0
M  V30 17903 C 1657.9 -1.42815 1.83593 0
M  V30 17904 C 1658.89 -1.53931 0.707231 0
M  V30 17905 O 1660.1 -1.56414 0.890763 0
M  V30 17906 H 1656.47 -0.476418 0.581833 0
M  V30 17907 H 1658.44 -1.15133 2.75294 0
M  V30 17908 C 1657.19 -2.79162 2.07277 0
M  V30 17909 H 1656.52 -2.7138 2.93586 0
M  V30 17910 H 1657.96 -3.54966 2.31895 0
M  V30 17911 C 1656.42 -3.25691 0.861816 0
M  V30 17912 O 1656.95 -4.01644 0.0670133 0
M  V30 17913 N 1655.15 -2.82634 0.675746 0
M  V30 17914 H 1654.7 -2.20988 1.32371 0
M  V30 17915 H 1654.66 -3.14119 -0.133004 0
M  V30 17916 N 1658.43 -1.46001 -0.593424 0
M  V30 17917 C 1659.84 -1.30719 -0.915678 0
M  V30 17918 C 1660.04 -0.270679 -1.99674 0
M  V30 17919 O 1659.1 0.330482 -2.50328 0
M  V30 17920 C 1660.41 -2.69034 -1.34318 0
M  V30 17921 C 1661.96 -2.77041 -1.45662 0
M  V30 17922 C 1662.44 -4.15913 -1.91783 0
M  V30 17923 N 1663.93 -4.18277 -1.98994 0
M  V30 17924 C 1664.66 -5.22612 -2.35932 0
M  V30 17925 N 1664.16 -6.37283 -2.71738 0
M  V30 17926 N 1665.95 -5.09975 -2.36394 0
M  V30 17927 H 1658.1 -2.12056 0.120882 0
M  V30 17928 H 1660.37 -0.947961 -0.00858574 0
M  V30 17929 H 1660.07 -3.4614 -0.622922 0
M  V30 17930 H 1659.95 -2.98434 -2.30688 0
M  V30 17931 H 1662.33 -2.0023 -2.16776 0
M  V30 17932 H 1662.41 -2.51338 -0.475706 0
M  V30 17933 H 1662.06 -4.93215 -1.2125 0
M  V30 17934 H 1661.99 -4.39016 -2.90813 0
M  V30 17935 H 1664.48 -3.35534 -1.73855 0
M  V30 17936 H 1664.79 -7.12679 -2.98846 0
M  V30 17937 H 1663.14 -6.40662 -2.69401 0
M  V30 17938 H 1666.33 -4.1943 -2.07836 0
M  V30 17939 H 1666.5 -5.91402 -2.64854 0
M  V30 17940 N 1659.91 0.83715 -1.33527 0
M  V30 17941 C 1661.15 1.59251 -1.25081 0
M  V30 17942 C 1661.48 1.93638 0.182956 0
M  V30 17943 O 1660.74 1.59025 1.14059 0
M  V30 17944 C 1661.04 2.9113 -2.07312 0
M  V30 17945 C 1660.7 2.76098 -3.56484 0
M  V30 17946 C 1659.36 2.71706 -3.97151 0
M  V30 17947 C 1661.72 2.60781 -4.51268 0
M  V30 17948 C 1659.04 2.49899 -5.30818 0
M  V30 17949 C 1661.4 2.40507 -5.85097 0
M  V30 17950 C 1660.06 2.34519 -6.24946 0
M  V30 17951 H 1659.33 0.582741 -0.457705 0
M  V30 17952 H 1661.98 0.969749 -1.65131 0
M  V30 17953 H 1660.28 3.57621 -1.60045 0
M  V30 17954 H 1661.98 3.48632 -1.98133 0
M  V30 17955 H 1658.57 2.8035 -3.24194 0
M  V30 17956 H 1662.75 2.63207 -4.20756 0
M  V30 17957 H 1658.01 2.4371 -5.60728 0
M  V30 17958 H 1662.18 2.27639 -6.58144 0
M  V30 17959 H 1659.81 2.17381 -7.28457 0
M  V30 17960 N 1661.38 1.17024 1.05561 0
M  V30 17961 C 1662.61 0.981293 1.82717 0
M  V30 17962 C 1663.03 -0.465636 1.82246 0
M  V30 17963 O 1662.39 -1.33315 1.22869 0
M  V30 17964 C 1662.44 1.52239 3.26888 0
M  V30 17965 O 1661.54 0.73366 4.05822 0
M  V30 17966 H 1660.89 0.348677 0.565084 0
M  V30 17967 H 1663.42 1.55435 1.33046 0
M  V30 17968 H 1663.43 1.54306 3.77695 0
M  V30 17969 H 1662.1 2.57567 3.26545 0
M  V30 17970 H 1660.68 0.784101 3.64563 0
M  V30 17971 N 1662.86 -1.24221 0.969889 0
M  V30 17972 C 1664.09 -1.96943 0.650262 0
M  V30 17973 C 1664.51 -1.71437 -0.774018 0
M  V30 17974 O 1663.87 -0.979428 -1.52568 0
M  V30 17975 C 1663.92 -3.48303 0.933682 0
M  V30 17976 O 1663.02 -4.12395 0.0202425 0
M  V30 17977 H 1662.36 -0.616902 0.245618 0
M  V30 17978 H 1664.89 -1.57939 1.30063 0
M  V30 17979 H 1664.9 -3.98701 0.866106 0
M  V30 17980 H 1663.58 -3.66194 1.97166 0
M  V30 17981 H 1662.16 -3.72632 0.141327 0
M  V30 17982 N 1664.34 -0.740267 -1.39132 0
M  V30 17983 C 1665.62 -0.216602 -1.94397 0
M  V30 17984 C 1666 1.28264 -1.67665 0
M  V30 17985 O 1665.35 2.05075 -1.00778 0
M  V30 17986 C 1665.56 -0.555899 -3.44544 0
M  V30 17987 C 1666.9 -0.50815 -4.21548 0
M  V30 17988 O 1667.93 -0.493401 -3.52766 0
M  V30 17989 O 1666.79 -0.507321 -5.4414 0
M  V30 17990 H 1663.88 -0.0413037 -0.825968 0
M  V30 17991 H 1666.43 -0.819483 -1.48602 0
M  V30 17992 H 1665.2 -1.59187 -3.57457 0
M  V30 17993 H 1664.82 0.0756793 -3.97528 0
M  V30 17994 N 1665.82 1.49844 -0.488302 0
M  V30 17995 C 1667.06 2.04314 0.0592245 0
M  V30 17996 C 1667.42 1.36093 1.35436 0
M  V30 17997 O 1668.62 1.81212 1.98533 0
M  V30 17998 C 1666.89 3.56714 0.221371 0
M  V30 17999 S 1668.45 4.3277 0.724976 0
M  V30 18000 H 1665.27 0.710957 0.00780581 0
M  V30 18001 H 1667.87 1.84045 -0.659373 0
M  V30 18002 H 1666.58 4.03914 -0.726746 0
M  V30 18003 H 1666.11 3.81366 0.965581 0
M  V30 18004 H 1668.12 4.54285 1.99599 0
M  V30 18005 N 1667.3 0.221601 1.56034 0
M  V30 18006 C 1668.24 -0.704963 2.2166 0
M  V30 18007 C 1669.24 -1.19966 1.19601 0
M  V30 18008 O 1670.44 -1.15949 1.37681 0
M  V30 18009 H 1666.82 -0.245758 0.710709 0
M  V30 18010 H 1668.79 -0.128041 2.98125 0
M  V30 18011 C 1667.54 -1.90234 2.91043 0
M  V30 18012 H 1666.86 -1.53079 3.69333 0
M  V30 18013 H 1668.3 -2.52844 3.40361 0
M  V30 18014 C 1666.76 -2.75777 1.93516 0
M  V30 18015 O 1667.29 -3.74534 1.45214 0
M  V30 18016 N 1665.5 -2.41815 1.61165 0
M  V30 18017 H 1665.04 -1.61561 2.00639 0
M  V30 18018 H 1665 -2.9933 0.96172 0
M  V30 18019 N 1668.77 -1.57515 -0.0517878 0
M  V30 18020 C 1670 -1.92456 -0.759485 0
M  V30 18021 C 1670.42 -0.819396 -1.70092 0
M  V30 18022 O 1669.77 0.205913 -1.81335 0
M  V30 18023 C 1669.83 -3.27242 -1.53606 0
M  V30 18024 O 1669.55 -4.33511 -0.632441 0
M  V30 18025 C 1671.05 -3.76324 -2.34297 0
M  V30 18026 H 1668.27 -0.635688 -0.214807 0
M  V30 18027 H 1670.81 -2.04494 -0.0160862 0
M  V30 18028 H 1668.97 -3.16671 -2.23155 0
M  V30 18029 H 1669.38 -5.11178 -1.17462 0
M  V30 18030 H 1670.85 -4.73209 -2.84213 0
M  V30 18031 H 1671.33 -3.06351 -3.14716 0
M  V30 18032 H 1671.94 -3.89904 -1.69866 0
M  V30 18033 N 1670.25 0.323614 -1.54242 0
M  V30 18034 C 1671.5 1.05909 -1.71657 0
M  V30 18035 C 1671.82 1.89177 -0.497151 0
M  V30 18036 O 1673.02 2.65816 -0.552649 0
M  V30 18037 C 1671.48 1.93246 -3.03618 0
M  V30 18038 C 1671.09 1.1509 -4.32965 0
M  V30 18039 C 1672.83 2.6653 -3.30397 0
M  V30 18040 C 1670.74 2.01573 -5.55988 0
M  V30 18041 H 1669.67 0.399114 -0.639706 0
M  V30 18042 H 1672.32 0.317338 -1.80735 0
M  V30 18043 H 1670.7 2.71319 -2.88447 0
M  V30 18044 H 1671.87 0.417877 -4.58901 0
M  V30 18045 H 1670.19 0.534882 -4.1295 0
M  V30 18046 H 1672.79 3.31542 -4.19504 0
M  V30 18047 H 1673.13 3.34164 -2.48274 0
M  V30 18048 H 1673.66 1.95518 -3.46435 0
M  V30 18049 H 1670.4 1.38446 -6.40713 0
M  V30 18050 H 1669.92 2.72609 -5.3427 0
M  V30 18051 H 1671.6 2.60159 -5.9239 0
M  V30 18052 N 1671.73 1.46313 0.585673 0
M  V30 18053 C 1673.01 1.41946 1.34576 0
M  V30 18054 C 1673.39 0.101379 2.10856 0
M  V30 18055 O 1672.74 -0.917016 2.09292 0
M  V30 18056 C 1672.95 2.64724 2.27425 0
M  V30 18057 C 1674.29 3.10746 2.89347 0
M  V30 18058 O 1675.32 2.65252 2.37739 0
M  V30 18059 O 1674.18 3.8976 3.83079 0
M  V30 18060 H 1671.27 0.564346 0.604519 0
M  V30 18061 H 1673.82 1.58475 0.606937 0
M  V30 18062 H 1672.59 3.52217 1.70467 0
M  V30 18063 H 1672.21 2.50639 3.08652 0
M  V30 18064 N 1673.21 -0.830057 1.33969 0
M  V30 18065 C 1674.14 -1.94785 1.20795 0
M  V30 18066 C 1675.15 -1.62225 0.136752 0
M  V30 18067 O 1676.34 -1.74233 0.38797 0
M  V30 18068 C 1673.44 -3.28523 0.832209 0
M  V30 18069 C 1672.62 -3.89157 1.99689 0
M  V30 18070 C 1671.68 -5.01262 1.6007 0
M  V30 18071 O 1670.7 -5.19939 2.31629 0
M  V30 18072 N 1671.9 -5.78249 0.510754 0
M  V30 18073 H 1674.67 -2.06621 2.17089 0
M  V30 18074 H 1672.23 -1.00626 1.26831 0
M  V30 18075 H 1674.22 -4.00958 0.549094 0
M  V30 18076 H 1672.79 -3.12574 -0.0403271 0
M  V30 18077 H 1672.01 -3.09203 2.44514 0
M  V30 18078 H 1673.3 -4.26399 2.77599 0
M  V30 18079 H 1672.7 -5.65637 -0.0842912 0
M  V30 18080 H 1671.25 -6.51166 0.287345 0
M  V30 18081 N 1674.69 -1.17582 -1.04939 0
M  V30 18082 C 1675.64 -0.862938 -2.11039 0
M  V30 18083 C 1676.62 0.163585 -1.60066 0
M  V30 18084 O 1677.81 -0.0392119 -1.76957 0
M  V30 18085 C 1674.94 -0.380811 -3.41181 0
M  V30 18086 C 1674.03 -1.4389 -3.98944 0
M  V30 18087 N 1674.42 -2.65304 -4.30636 0
M  V30 18088 C 1672.72 -1.29736 -4.26714 0
M  V30 18089 C 1673.42 -3.33311 -4.76737 0
M  V30 18090 N 1672.39 -2.6069 -4.77013 0
M  V30 18091 H 1676.2 -1.78602 -2.33407 0
M  V30 18092 H 1673.71 -1.06491 -1.22611 0
M  V30 18093 H 1675.71 -0.1382 -4.16671 0
M  V30 18094 H 1674.37 0.536032 -3.20245 0
M  V30 18095 H 1675.38 -3.02247 -4.20556 0
M  V30 18096 H 1672.06 -0.442367 -4.1515 0
M  V30 18097 H 1673.45 -4.37026 -5.1035 0
M  V30 18098 N 1676.17 1.23705 -0.976463 0
M  V30 18099 C 1677.41 1.9132 -0.638714 0
M  V30 18100 C 1677.73 1.7707 0.830993 0
M  V30 18101 O 1678.93 2.39453 1.27964 0
M  V30 18102 C 1677.39 3.42941 -1.09178 0
M  V30 18103 C 1677 3.6586 -2.58555 0
M  V30 18104 C 1678.74 4.16355 -0.827585 0
M  V30 18105 C 1676.65 5.11096 -2.97549 0
M  V30 18106 H 1675.58 0.716382 -0.235187 0
M  V30 18107 H 1678.23 1.40205 -1.18384 0
M  V30 18108 H 1676.61 3.93142 -0.474893 0
M  V30 18109 H 1677.79 3.26221 -3.25448 0
M  V30 18110 H 1676.1 3.05748 -2.82678 0
M  V30 18111 H 1678.7 5.23372 -1.09482 0
M  V30 18112 H 1679.04 4.15629 0.236282 0
M  V30 18113 H 1679.57 3.7213 -1.40586 0
M  V30 18114 H 1676.31 5.1695 -4.03042 0
M  V30 18115 H 1675.83 5.51699 -2.35346 0
M  V30 18116 H 1677.51 5.79397 -2.87937 0
M  V30 18117 N 1677.64 0.747635 1.38738 0
M  V30 18118 C 1679.05 0.369576 1.83006 0
M  V30 18119 C 1679.41 -1.10091 1.62402 0
M  V30 18120 O 1678.53 -1.85042 1.12198 0
M  V30 18121 C 1679.13 0.664018 3.32229 0
M  V30 18122 C 1677.68 0.339308 3.74868 0
M  V30 18123 C 1676.83 0.920231 2.61586 0
M  V30 18124 H 1679.78 0.944268 1.27551 0
M  V30 18125 H 1679.8 -0.0598575 3.80453 0
M  V30 18126 H 1679.32 1.73432 3.47193 0
M  V30 18127 H 1677.42 -0.724649 3.65485 0
M  V30 18128 H 1677.53 0.830699 4.71843 0
M  V30 18129 H 1675.89 0.346002 2.52339 0
M  V30 18130 H 1676.68 1.99544 2.79351 0
M  V30 18131 N 1679.12 -1.49583 0.496242 0
M  V30 18132 C 1680.35 -2.07342 -0.0490986 0
M  V30 18133 C 1680.77 -1.35474 -1.30493 0
M  V30 18134 O 1680.13 -0.410005 -1.76603 0
M  V30 18135 C 1680.18 -3.59427 -0.290601 0
M  V30 18136 O 1679.28 -3.89111 -1.36626 0
M  V30 18137 H 1678.62 -0.663562 0.0241141 0
M  V30 18138 H 1681.15 -1.92452 0.6945 0
M  V30 18139 H 1681.16 -4.04627 -0.523549 0
M  V30 18140 H 1679.84 -4.11147 0.626959 0
M  V30 18141 H 1678.41 -3.55726 -1.11864 0
M  V30 18142 N 1680.6 -0.229873 -1.55915 0
M  V30 18143 C 1681.83 0.404189 -2.02914 0
M  V30 18144 C 1682.24 1.52758 -1.10952 0
M  V30 18145 O 1681.6 1.82101 -0.120685 0
M  V30 18146 C 1681.65 0.928016 -3.49385 0
M  V30 18147 O 1681.37 -0.150592 -4.37841 0
M  V30 18148 C 1682.87 1.63448 -4.12067 0
M  V30 18149 H 1680.09 0.0980294 -0.663801 0
M  V30 18150 H 1682.64 -0.34876 -2.01504 0
M  V30 18151 H 1680.79 1.63121 -3.51384 0
M  V30 18152 H 1681.21 0.244429 -5.2393 0
M  V30 18153 H 1682.68 1.95292 -5.16299 0
M  V30 18154 H 1683.16 2.55055 -3.57553 0
M  V30 18155 H 1683.76 0.976292 -4.13943 0
M  V30 18156 N 1682.08 1.5754 0.0434337 0
M  V30 18157 C 1683.01 2.08648 1.04824 0
M  V30 18158 C 1683.99 0.985894 1.38615 0
M  V30 18159 O 1685.17 1.2603 1.4775 0
M  V30 18160 C 1682.3 2.55399 2.35348 0
M  V30 18161 C 1681.26 3.69592 2.15837 0
M  V30 18162 C 1680.58 4.02497 3.51995 0
M  V30 18163 C 1681.88 4.98575 1.55629 0
M  V30 18164 H 1683.58 2.9285 0.622849 0
M  V30 18165 H 1681.12 1.40879 0.298158 0
M  V30 18166 H 1683.08 2.89771 3.05958 0
M  V30 18167 H 1681.8 1.68262 2.7992 0
M  V30 18168 H 1680.46 3.35546 1.47663 0
M  V30 18169 H 1680.11 3.12448 3.94189 0
M  V30 18170 H 1679.81 4.79406 3.39771 0
M  V30 18171 H 1681.33 4.39391 4.23991 0
M  V30 18172 H 1682.75 5.30996 2.16138 0
M  V30 18173 H 1681.14 5.79998 1.54021 0
M  V30 18174 H 1682.21 4.82098 0.520567 0
M  V30 18175 N 1683.56 -0.31543 1.54411 0
M  V30 18176 C 1684.47 -1.41136 1.87397 0
M  V30 18177 C 1685.48 -1.56199 0.76668 0
M  V30 18178 O 1686.66 -1.71139 1.06176 0
M  V30 18179 C 1683.72 -2.75731 2.10174 0
M  V30 18180 C 1682.78 -2.69776 3.33945 0
M  V30 18181 C 1682.02 -3.97952 3.55626 0
M  V30 18182 O 1682.24 -4.96614 2.80589 0
M  V30 18183 O 1681.17 -4.00719 4.49119 0
M  V30 18184 H 1685 -1.16167 2.80605 0
M  V30 18185 H 1682.58 -0.510193 1.40419 0
M  V30 18186 H 1684.47 -3.55392 2.26439 0
M  V30 18187 H 1683.14 -3.00574 1.20154 0
M  V30 18188 H 1682.05 -1.88638 3.23058 0
M  V30 18189 H 1683.38 -2.49887 4.24049 0
M  V30 18190 N 1685.03 -1.46622 -0.577906 0
M  V30 18191 C 1686.27 -1.53743 -1.34694 0
M  V30 18192 C 1686.64 -0.186609 -1.91091 0
M  V30 18193 O 1687.84 -0.132588 -2.68473 0
M  V30 18194 C 1686.11 -2.60908 -2.44258 0
M  V30 18195 S 1687.67 -2.87468 -3.31523 0
M  V30 18196 H 1684.49 -0.543138 -0.458827 0
M  V30 18197 H 1687.09 -1.83884 -0.663842 0
M  V30 18198 H 1685.79 -3.57682 -2.01225 0
M  V30 18199 H 1685.32 -2.32515 -3.17333 0
M  V30 18200 H 1687.34 -2.23104 -4.43214 0
M  V30 18201 N 1686.51 0.822941 -1.34408 0
M  V30 18202 C 1687.44 1.94878 -1.28627 0
M  V30 18203 C 1688.42 1.6931 -0.163727 0
M  V30 18204 O 1689.61 1.90908 -0.356083 0
M  V30 18205 C 1686.74 3.31333 -1.04094 0
M  V30 18206 C 1685.69 3.71341 -2.12814 0
M  V30 18207 C 1685.02 5.05779 -1.73469 0
M  V30 18208 C 1686.32 3.83439 -3.54643 0
M  V30 18209 H 1688.01 1.99972 -2.22827 0
M  V30 18210 H 1685.56 0.960715 -1.07267 0
M  V30 18211 H 1687.51 4.0968 -0.986947 0
M  V30 18212 H 1686.24 3.26539 -0.0633642 0
M  V30 18213 H 1684.89 2.95269 -2.17282 0
M  V30 18214 H 1684.54 4.97471 -0.743727 0
M  V30 18215 H 1684.24 5.33518 -2.46236 0
M  V30 18216 H 1685.77 5.86583 -1.69566 0
M  V30 18217 H 1687.18 4.52057 -3.52587 0
M  V30 18218 H 1685.58 4.22632 -4.2603 0
M  V30 18219 H 1686.65 2.85439 -3.91986 0
M  V30 18220 N 1687.99 1.18137 1.04314 0
M  V30 18221 C 1689.22 1.00062 1.81666 0
M  V30 18222 C 1689.64 -0.446281 1.82729 0
M  V30 18223 O 1689 -1.32004 1.24277 0
M  V30 18224 C 1689.05 1.55698 3.25255 0
M  V30 18225 O 1688.15 0.776662 4.05021 0
M  V30 18226 H 1687.49 0.354651 0.561354 0
M  V30 18227 H 1690.02 1.56837 1.3139 0
M  V30 18228 H 1690.03 1.58303 3.76037 0
M  V30 18229 H 1688.71 2.61016 3.23795 0
M  V30 18230 H 1687.28 0.822723 3.63711 0
M  V30 18231 N 1689.47 -1.23186 0.98301 0
M  V30 18232 C 1690.88 -1.43814 0.69207 0
M  V30 18233 C 1691.08 -1.87387 -0.740823 0
M  V30 18234 O 1690.14 -2.02154 -1.51295 0
M  V30 18235 C 1691.45 -2.48769 1.68922 0
M  V30 18236 C 1693 -2.62579 1.70356 0
M  V30 18237 C 1693.48 -3.70746 2.68908 0
M  V30 18238 N 1694.97 -3.78192 2.67442 0
M  V30 18239 C 1695.7 -4.61453 3.40366 0
M  V30 18240 N 1695.2 -5.48784 4.22857 0
M  V30 18241 N 1696.99 -4.55673 3.29118 0
M  V30 18242 H 1689.14 -0.932046 1.90858 0
M  V30 18243 H 1691.41 -0.471274 0.82256 0
M  V30 18244 H 1691.11 -2.23675 2.71408 0
M  V30 18245 H 1690.99 -3.47201 1.47415 0
M  V30 18246 H 1693.37 -2.87022 0.685728 0
M  V30 18247 H 1693.45 -1.64454 1.9593 0
M  V30 18248 H 1693.1 -3.47051 3.70834 0
M  V30 18249 H 1693.03 -4.68418 2.40607 0
M  V30 18250 H 1695.52 -3.15785 2.07577 0
M  V30 18251 H 1695.83 -6.09312 4.75351 0
M  V30 18252 H 1694.18 -5.48398 4.26948 0
M  V30 18253 H 1697.37 -3.86468 2.64122 0
M  V30 18254 H 1697.54 -5.20332 3.8621 0
M  V30 18255 N 1690.95 -0.754982 -1.38339 0
M  V30 18256 C 1692.17 -0.321355 -2.04895 0
M  V30 18257 C 1692.6 1.04249 -1.56569 0
M  V30 18258 O 1691.95 1.66464 -0.718299 0
M  V30 18259 C 1692 -0.354873 -3.5885 0
M  V30 18260 O 1691.11 0.65063 -4.07235 0
M  V30 18261 H 1690.45 -0.142033 -0.648631 0
M  V30 18262 H 1692.98 -1.02649 -1.76987 0
M  V30 18263 H 1692.99 -0.206243 -4.07478 0
M  V30 18264 H 1691.66 -1.34994 -3.93382 0
M  V30 18265 H 1690.24 0.466498 -3.69971 0
M  V30 18266 N 1692.42 1.49318 -0.504168 0
M  V30 18267 C 1693.65 2.06869 0.0359415 0
M  V30 18268 C 1694.07 1.3641 1.30529 0
M  V30 18269 O 1693.42 0.443416 1.77031 0
M  V30 18270 C 1693.48 3.60333 0.290233 0
M  V30 18271 O 1693.2 4.28141 -0.928801 0
M  V30 18272 C 1694.7 4.34606 0.873628 0
M  V30 18273 H 1691.92 0.670643 -0.0218893 0
M  V30 18274 H 1694.46 1.92058 -0.702432 0
M  V30 18275 H 1692.62 3.74836 0.978594 0
M  V30 18276 H 1693.03 5.19894 -0.693595 0
M  V30 18277 H 1694.5 5.42846 1.00112 0
M  V30 18278 H 1694.98 3.97297 1.87221 0
M  V30 18279 H 1695.59 4.24717 0.222638 0
M  V30 18280 N 1693.9 0.238138 1.5579 0
M  V30 18281 C 1694.83 -0.659451 2.23994 0
M  V30 18282 C 1695.81 -1.18817 1.21723 0
M  V30 18283 O 1697 -1.22913 1.50353 0
M  V30 18284 C 1694.13 -1.86043 2.93267 0
M  V30 18285 C 1693.08 -1.46485 4.02152 0
M  V30 18286 C 1692.41 -2.74595 4.58805 0
M  V30 18287 C 1693.71 -0.642448 5.18334 0
M  V30 18288 H 1695.4 -0.0907522 2.99262 0
M  V30 18289 H 1692.95 -0.042209 1.43938 0
M  V30 18290 H 1694.9 -2.49393 3.39678 0
M  V30 18291 H 1693.63 -2.45436 2.15473 0
M  V30 18292 H 1692.28 -0.854729 3.56497 0
M  V30 18293 H 1691.93 -3.32168 3.77721 0
M  V30 18294 H 1691.63 -2.48854 5.32302 0
M  V30 18295 H 1693.16 -3.38859 5.07944 0
M  V30 18296 H 1694.57 -1.18005 5.61024 0
M  V30 18297 H 1692.97 -0.481458 5.98166 0
M  V30 18298 H 1694.04 0.347298 4.83655 0
M  V30 18299 N 1695.38 -1.57561 -0.0350783 0
M  V30 18300 C 1696.31 -2.09201 -1.03716 0
M  V30 18301 C 1697.29 -0.993231 -1.3809 0
M  V30 18302 O 1698.48 -1.26812 -1.47079 0
M  V30 18303 C 1695.61 -2.56643 -2.3399 0
M  V30 18304 C 1694.56 -3.70731 -2.13874 0
M  V30 18305 C 1693.89 -4.04358 -3.49855 0
M  V30 18306 C 1695.19 -4.99393 -1.52982 0
M  V30 18307 H 1696.88 -2.93176 -0.60731 0
M  V30 18308 H 1694.43 -1.41036 -0.290683 0
M  V30 18309 H 1696.38 -2.9139 -3.04417 0
M  V30 18310 H 1695.1 -1.69744 -2.79024 0
M  V30 18311 H 1693.76 -3.36325 -1.45881 0
M  V30 18312 H 1693.41 -3.14534 -3.92527 0
M  V30 18313 H 1693.11 -4.81201 -3.37223 0
M  V30 18314 H 1694.63 -4.41633 -4.21654 0
M  V30 18315 H 1696.05 -5.32135 -2.13319 0
M  V30 18316 H 1694.45 -5.80807 -1.50943 0
M  V30 18317 H 1695.52 -4.82367 -0.494993 0
M  V30 18318 N 1696.86 0.307236 -1.54576 0
M  V30 18319 C 1698.1 1.05125 -1.75294 0
M  V30 18320 C 1698.46 1.84702 -0.524313 0
M  V30 18321 O 1699.66 2.61807 -0.609121 0
M  V30 18322 C 1697.93 1.93827 -3.00276 0
M  V30 18323 S 1699.49 2.74959 -3.41969 0
M  V30 18324 H 1696.31 0.35464 -0.61624 0
M  V30 18325 H 1698.91 0.325362 -1.92774 0
M  V30 18326 H 1697.62 1.3423 -3.87828 0
M  V30 18327 H 1697.15 2.70794 -2.85366 0
M  V30 18328 H 1699.16 3.96336 -2.9855 0
M  V30 18329 N 1698.34 1.46926 0.570122 0
M  V30 18330 C 1699.58 1.53113 1.32982 0
M  V30 18331 C 1699.92 0.187401 1.93294 0
M  V30 18332 O 1699.19 -0.802585 1.77169 0
M  V30 18333 C 1699.47 2.63936 2.44969 0
M  V30 18334 C 1699.33 4.07882 1.8961 0
M  V30 18335 C 1700.65 2.70753 3.46959 0
M  V30 18336 H 1697.76 0.557398 0.482158 0
M  V30 18337 H 1700.41 1.78923 0.639259 0
M  V30 18338 H 1698.56 2.42059 3.03874 0
M  V30 18339 H 1700.23 4.41084 1.35066 0
M  V30 18340 H 1698.47 4.16768 1.20361 0
M  V30 18341 H 1699.14 4.81175 2.70508 0
M  V30 18342 H 1701.62 2.90452 2.97954 0
M  V30 18343 H 1700.49 3.50093 4.2276 0
M  V30 18344 H 1700.76 1.77299 4.04991 0
M  V30 18345 N 1699.82 -0.815801 1.34842 0
M  V30 18346 C 1701.04 -1.60915 1.30848 0
M  V30 18347 C 1701.47 -1.87758 -0.113345 0
M  V30 18348 O 1700.82 -1.4582 -1.07732 0
M  V30 18349 C 1700.87 -2.92284 2.11192 0
M  V30 18350 O 1699.98 -3.84685 1.48632 0
M  V30 18351 H 1699.32 -0.48913 0.449052 0
M  V30 18352 H 1701.85 -1.01322 1.7775 0
M  V30 18353 H 1701.86 -3.41789 2.2281 0
M  V30 18354 H 1700.53 -2.72071 3.14563 0
M  V30 18355 H 1699.11 -3.43215 1.458 0
M  V30 18356 N 1701.29 -1.18689 -1.03686 0
M  V30 18357 C 1702.26 -0.919415 -2.09951 0
M  V30 18358 C 1703.26 0.0968042 -1.60508 0
M  V30 18359 O 1704.45 -0.137062 -1.7366 0
M  V30 18360 C 1701.58 -0.380204 -3.38773 0
M  V30 18361 H 1702.77 -1.86178 -2.35112 0
M  V30 18362 H 1700.32 -0.999435 -1.20171 0
M  V30 18363 H 1701.06 0.568586 -3.19277 0
M  V30 18364 H 1700.84 -1.11281 -3.75977 0
M  V30 18365 H 1702.33 -0.211891 -4.17062 0
M  V30 18366 N 1702.77 1.22662 -0.989529 0
M  V30 18367 C 1703.7 2.26762 -0.556891 0
M  V30 18368 C 1704.68 1.64971 0.414538 0
M  V30 18369 O 1705.87 1.91775 0.305909 0
M  V30 18370 C 1703 3.47047 0.132573 0
M  V30 18371 C 1701.95 4.21251 -0.757058 0
M  V30 18372 C 1701.28 5.3466 0.065134 0
M  V30 18373 C 1702.58 4.8029 -2.05229 0
M  V30 18374 H 1704.27 2.63204 -1.42703 0
M  V30 18375 H 1701.82 1.26522 -0.687614 0
M  V30 18376 H 1703.77 4.19027 0.446609 0
M  V30 18377 H 1702.49 3.09692 1.03723 0
M  V30 18378 H 1701.15 3.51101 -1.05469 0
M  V30 18379 H 1700.8 4.93547 0.970607 0
M  V30 18380 H 1700.5 5.85231 -0.527063 0
M  V30 18381 H 1702.03 6.09458 0.373342 0
M  V30 18382 H 1703.44 5.44229 -1.80242 0
M  V30 18383 H 1701.84 5.41186 -2.59302 0
M  V30 18384 H 1702.91 4.00529 -2.73322 0
M  V30 18385 N 1704.25 0.762308 1.37937 0
M  V30 18386 C 1705.21 0.148588 2.28718 0
M  V30 18387 C 1706.21 -0.638198 1.47593 0
M  V30 18388 O 1707.4 -0.463178 1.67929 0
M  V30 18389 C 1704.53 -0.797492 3.31441 0
M  V30 18390 H 1705.73 0.94872 2.84498 0
M  V30 18391 H 1703.28 0.529888 1.47044 0
M  V30 18392 H 1704.02 -1.62298 2.80767 0
M  V30 18393 H 1703.8 -0.23561 3.91391 0
M  V30 18394 H 1705.29 -1.22262 3.99302 0
M  V30 18395 N 1705.73 -1.49049 0.51208 0
M  V30 18396 C 1706.97 -2.0278 -0.0285311 0
M  V30 18397 C 1707.31 -1.39003 -1.35617 0
M  V30 18398 O 1706.58 -0.52952 -1.87153 0
M  V30 18399 C 1706.86 -3.59701 -0.169433 0
M  V30 18400 C 1706.72 -4.33989 1.18211 0
M  V30 18401 C 1708.04 -4.30698 -0.904812 0
M  V30 18402 H 1705.16 -0.736946 -0.00889467 0
M  V30 18403 H 1707.8 -1.77959 0.66564 0
M  V30 18404 H 1705.95 -3.8098 -0.760667 0
M  V30 18405 H 1707.62 -4.24176 1.81307 0
M  V30 18406 H 1705.86 -3.9611 1.76859 0
M  V30 18407 H 1706.53 -5.42177 1.03671 0
M  V30 18408 H 1709.01 -4.14141 -0.40327 0
M  V30 18409 H 1707.89 -5.40221 -0.972264 0
M  V30 18410 H 1708.15 -3.96718 -1.95108 0
M  V30 18411 N 1707.21 -0.246397 -1.55662 0
M  V30 18412 C 1708.45 0.378973 -1.98108 0
M  V30 18413 C 1708.77 1.59106 -1.13775 0
M  V30 18414 O 1709.97 2.28754 -1.46232 0
M  V30 18415 C 1708.43 0.725634 -3.52509 0
M  V30 18416 C 1708.04 -0.465024 -4.4558 0
M  V30 18417 C 1709.78 1.31522 -4.03611 0
M  V30 18418 C 1707.69 -0.0945447 -5.91324 0
M  V30 18419 H 1706.62 0.14537 -0.739854 0
M  V30 18420 H 1709.27 -0.346533 -1.80198 0
M  V30 18421 H 1707.65 1.50925 -3.66111 0
M  V30 18422 H 1708.83 -1.24236 -4.43736 0
M  V30 18423 H 1707.14 -0.969507 -4.04956 0
M  V30 18424 H 1709.74 1.60573 -5.1002 0
M  V30 18425 H 1710.08 2.23952 -3.50929 0
M  V30 18426 H 1710.61 0.594515 -3.93332 0
M  V30 18427 H 1707.35 -0.985965 -6.48042 0
M  V30 18428 H 1706.87 0.646601 -5.96305 0
M  V30 18429 H 1708.55 0.323447 -6.46191 0
M  V30 18430 N 1708.68 1.57577 0.026722 0
M  V30 18431 C 1709.91 1.94035 0.732473 0
M  V30 18432 C 1710.33 0.846575 1.67972 0
M  V30 18433 O 1709.69 -0.197514 1.80221 0
M  V30 18434 C 1709.74 3.2956 1.46365 0
M  V30 18435 O 1708.84 3.21975 2.57694 0
M  V30 18436 H 1708.18 0.634155 0.196832 0
M  V30 18437 H 1710.71 2.04592 -0.018503 0
M  V30 18438 H 1710.72 3.64504 1.83305 0
M  V30 18439 H 1709.4 4.0873 0.768943 0
M  V30 18440 H 1707.98 2.98665 2.23279 0
M  V30 18441 N 1710.16 -0.299034 1.54737 0
M  V30 18442 C 1711.39 -1.05138 1.77847 0
M  V30 18443 C 1711.8 -1.81359 0.53902 0
M  V30 18444 O 1711.14 -1.76742 -0.500783 0
M  V30 18445 C 1711.2 -2.07681 2.93443 0
M  V30 18446 C 1710.87 -1.50636 4.3146 0
M  V30 18447 C 1711.87 -0.935378 5.11416 0
M  V30 18448 C 1709.55 -1.5414 4.78065 0
M  V30 18449 C 1711.54 -0.407022 6.36099 0
M  V30 18450 C 1709.23 -1.00917 6.0271 0
M  V30 18451 C 1710.23 -0.442956 6.81562 0
M  V30 18452 O 1709.92 0.081192 8.03859 0
M  V30 18453 H 1709.65 -0.317487 0.596807 0
M  V30 18454 H 1712.2 -0.343249 2.02512 0
M  V30 18455 H 1710.43 -2.82179 2.64408 0
M  V30 18456 H 1712.12 -2.68832 3.04112 0
M  V30 18457 H 1712.89 -0.901197 4.76554 0
M  V30 18458 H 1708.77 -1.9715 4.16717 0
M  V30 18459 H 1712.31 0.035577 6.97591 0
M  V30 18460 H 1708.21 -1.04051 6.37059 0
M  V30 18461 H 1708.98 -0.031922 8.18494 0
M  V30 18462 N 1711.64 -1.47227 -0.562322 0
M  V30 18463 C 1712.89 -1.53816 -1.32168 0
M  V30 18464 C 1713.22 -0.197649 -1.93192 0
M  V30 18465 O 1712.49 0.793178 -1.77592 0
M  V30 18466 C 1712.78 -2.65231 -2.43566 0
M  V30 18467 C 1712.63 -4.08882 -1.87445 0
M  V30 18468 C 1713.95 -2.72589 -3.45519 0
M  V30 18469 H 1711.07 -0.559947 -0.479195 0
M  V30 18470 H 1713.71 -1.7926 -0.629762 0
M  V30 18471 H 1711.86 -2.43667 -3.02587 0
M  V30 18472 H 1713.53 -4.41794 -1.32725 0
M  V30 18473 H 1711.77 -4.17401 -1.18149 0
M  V30 18474 H 1712.45 -4.82603 -2.67952 0
M  V30 18475 H 1714.92 -2.92028 -2.9641 0
M  V30 18476 H 1713.8 -3.5233 -4.20898 0
M  V30 18477 H 1714.06 -1.79444 -4.04045 0
M  V30 18478 N 1713.12 0.808639 -1.35273 0
M  V30 18479 C 1714.35 1.59701 -1.31541 0
M  V30 18480 C 1714.76 1.88493 0.107541 0
M  V30 18481 O 1714.12 1.4864 1.05889 0
M  V30 18482 C 1714.17 2.9295 -2.11808 0
M  V30 18483 O 1713.89 2.65407 -3.48555 0
M  V30 18484 C 1715.39 3.87318 -2.15638 0
M  V30 18485 H 1712.61 0.495961 -0.451956 0
M  V30 18486 H 1715.15 1.00507 -1.78097 0
M  V30 18487 H 1713.31 3.48663 -1.68858 0
M  V30 18488 H 1713.72 3.50471 -3.90218 0
M  V30 18489 H 1715.2 4.77933 -2.76196 0
M  V30 18490 H 1715.67 4.23752 -1.15458 0
M  V30 18491 H 1716.28 3.3754 -2.58741 0
M  V30 18492 N 1714.6 1.19237 1.03055 0
M  V30 18493 C 1716.01 0.996569 1.57878 0
M  V30 18494 C 1716.36 -0.450987 1.90946 0
M  V30 18495 O 1715.48 -1.33009 1.70697 0
M  V30 18496 C 1716.08 1.80272 2.86858 0
M  V30 18497 C 1714.64 1.65097 3.3826 0
M  V30 18498 C 1713.78 1.79079 2.11721 0
M  V30 18499 H 1716.74 1.33633 0.856037 0
M  V30 18500 H 1716.76 1.29781 3.57683 0
M  V30 18501 H 1716.27 2.85621 2.62759 0
M  V30 18502 H 1714.37 0.623267 3.6735 0
M  V30 18503 H 1714.48 2.45527 4.11404 0
M  V30 18504 H 1712.85 1.22124 2.23512 0
M  V30 18505 H 1713.63 2.85885 1.90065 0
M  V30 18506 N 1716.07 -1.22136 0.99602 0
M  V30 18507 C 1717.32 -1.9125 0.674632 0
M  V30 18508 C 1717.65 -1.77331 -0.791655 0
M  V30 18509 O 1716.93 -1.14419 -1.57285 0
M  V30 18510 C 1717.21 -3.43359 1.08521 0
M  V30 18511 C 1717.06 -3.66312 2.61028 0
M  V30 18512 C 1718.38 -4.3541 0.640795 0
M  V30 18513 H 1715.5 -0.694534 0.246559 0
M  V30 18514 H 1718.14 -1.4395 1.2401 0
M  V30 18515 H 1716.29 -3.83775 0.604071 0
M  V30 18516 H 1717.97 -3.3528 3.16836 0
M  V30 18517 H 1716.21 -3.10485 3.02954 0
M  V30 18518 H 1716.88 -4.72852 2.84807 0
M  V30 18519 H 1719.36 -4.02527 1.05411 0
M  V30 18520 H 1718.23 -5.40505 0.956337 0
M  V30 18521 H 1718.49 -4.39717 -0.458421 0
M  V30 18522 N 1717.55 -0.769612 -1.37531 0
M  V30 18523 C 1718.8 -0.332966 -1.99744 0
M  V30 18524 C 1719.13 1.0899 -1.61094 0
M  V30 18525 O 1718.38 1.7639 -0.847656 0
M  V30 18526 C 1718.68 -0.421385 -3.54907 0
M  V30 18527 C 1718.35 -1.8022 -4.13318 0
M  V30 18528 C 1717.01 -2.18005 -4.28984 0
M  V30 18529 C 1719.36 -2.70724 -4.45374 0
M  V30 18530 C 1716.69 -3.45736 -4.74008 0
M  V30 18531 C 1719.04 -3.97862 -4.91822 0
M  V30 18532 C 1717.71 -4.35695 -5.05694 0
M  V30 18533 H 1716.98 -0.121841 -0.730914 0
M  V30 18534 H 1719.62 -0.98322 -1.64332 0
M  V30 18535 H 1717.93 0.312411 -3.90552 0
M  V30 18536 H 1719.62 -0.0648705 -4.00948 0
M  V30 18537 H 1716.21 -1.49852 -4.0155 0
M  V30 18538 H 1720.4 -2.42792 -4.32857 0
M  V30 18539 H 1715.65 -3.74946 -4.82935 0
M  V30 18540 H 1719.83 -4.68121 -5.15593 0
M  V30 18541 H 1717.46 -5.34729 -5.40341 0
M  V30 18542 N 1719.03 1.48775 -0.519977 0
M  V30 18543 C 1719.96 2.32292 0.237213 0
M  V30 18544 C 1720.94 1.4146 0.944625 0
M  V30 18545 O 1722.13 1.70355 0.932349 0
M  V30 18546 C 1719.26 3.22426 1.29068 0
M  V30 18547 C 1718.21 4.22204 0.702011 0
M  V30 18548 C 1717.54 5.01403 1.85739 0
M  V30 18549 C 1718.84 5.21321 -0.319626 0
M  V30 18550 H 1720.53 2.95846 -0.459949 0
M  V30 18551 H 1718.08 1.42268 -0.222641 0
M  V30 18552 H 1720.03 3.79674 1.82826 0
M  V30 18553 H 1718.75 2.56853 2.01728 0
M  V30 18554 H 1717.41 3.66128 0.186027 0
M  V30 18555 H 1717.06 4.32262 2.57214 0
M  V30 18556 H 1716.76 5.68929 1.46949 0
M  V30 18557 H 1718.28 5.615 2.39895 0
M  V30 18558 H 1719.7 5.73151 0.130505 0
M  V30 18559 H 1718.1 5.96843 -0.624377 0
M  V30 18560 H 1719.17 4.69069 -1.22893 0
M  V30 18561 N 1720.51 0.254649 1.55529 0
M  V30 18562 C 1721.75 -0.368477 1.99424 0
M  V30 18563 C 1722.09 -1.57023 1.14269 0
M  V30 18564 O 1721.36 -1.93386 0.207886 0
M  V30 18565 C 1721.65 -0.77076 3.51755 0
M  V30 18566 C 1721.5 0.436923 4.47673 0
M  V30 18567 C 1722.82 -1.61487 4.09402 0
M  V30 18568 H 1719.94 -0.132459 0.724999 0
M  V30 18569 H 1722.58 0.357508 1.86606 0
M  V30 18570 H 1720.73 -1.38932 3.62809 0
M  V30 18571 H 1722.4 1.07541 4.4859 0
M  V30 18572 H 1720.64 1.07866 4.20175 0
M  V30 18573 H 1721.31 0.111996 5.51886 0
M  V30 18574 H 1723.79 -1.09265 4.01498 0
M  V30 18575 H 1722.67 -1.86519 5.16238 0
M  V30 18576 H 1722.93 -2.58926 3.58343 0
M  V30 18577 N 1721.99 -1.57589 -0.0183649 0
M  V30 18578 C 1722.95 -2.06217 -1.00035 0
M  V30 18579 C 1723.95 -0.968195 -1.28385 0
M  V30 18580 O 1725.14 -1.23147 -1.23209 0
M  V30 18581 C 1722.27 -2.48815 -2.33032 0
M  V30 18582 H 1723.46 -2.94236 -0.580085 0
M  V30 18583 H 1721.02 -1.5403 -0.265438 0
M  V30 18584 H 1721.75 -1.63985 -2.79785 0
M  V30 18585 H 1721.54 -3.28694 -2.13781 0
M  V30 18586 H 1723.03 -2.86828 -3.03512 0
M  V30 18587 N 1723.46 0.290824 -1.54893 0
M  V30 18588 C 1724.39 1.36354 -1.89551 0
M  V30 18589 C 1725.38 1.52403 -0.75546 0
M  V30 18590 O 1726.56 1.65743 -1.01208 0
M  V30 18591 C 1723.69 2.72609 -2.15178 0
M  V30 18592 C 1722.64 2.71313 -3.31019 0
M  V30 18593 C 1721.97 4.10952 -3.42085 0
M  V30 18594 C 1723.27 2.32153 -4.6787 0
M  V30 18595 H 1724.96 1.07597 -2.79398 0
M  V30 18596 H 1722.51 0.516154 -1.34432 0
M  V30 18597 H 1724.46 3.47749 -2.3801 0
M  V30 18598 H 1723.19 3.02913 -1.22112 0
M  V30 18599 H 1721.85 1.9863 -3.08126 0
M  V30 18600 H 1721.49 4.38449 -2.46518 0
M  V30 18601 H 1721.19 4.10984 -4.1996 0
M  V30 18602 H 1722.72 4.87857 -3.67189 0
M  V30 18603 H 1724.13 2.97011 -4.90364 0
M  V30 18604 H 1722.53 2.4338 -5.48531 0
M  V30 18605 H 1723.6 1.27279 -4.67897 0
M  V30 18606 N 1724.94 1.47523 0.554506 0
M  V30 18607 C 1725.87 1.63093 1.67102 0
M  V30 18608 C 1726.85 0.480298 1.63178 0
M  V30 18609 O 1728.04 0.709956 1.80757 0
M  V30 18610 C 1725.17 1.64751 3.05736 0
M  V30 18611 C 1724.12 2.79068 3.24507 0
M  V30 18612 C 1723.45 2.65801 4.63955 0
M  V30 18613 C 1724.75 4.20631 3.09623 0
M  V30 18614 H 1726.44 2.56561 1.54328 0
M  V30 18615 H 1723.99 1.2347 0.741023 0
M  V30 18616 H 1725.94 1.74234 3.83693 0
M  V30 18617 H 1724.67 0.678453 3.19475 0
M  V30 18618 H 1723.32 2.691 2.48959 0
M  V30 18619 H 1722.97 1.66917 4.74497 0
M  V30 18620 H 1722.67 3.42494 4.77464 0
M  V30 18621 H 1724.2 2.77216 5.44044 0
M  V30 18622 H 1725.61 4.31562 3.77396 0
M  V30 18623 H 1724.01 4.98133 3.3464 0
M  V30 18624 H 1725.08 4.38809 2.06336 0
M  V30 18625 N 1726.42 -0.801453 1.357 0
M  V30 18626 C 1727.83 -1.37581 1.26208 0
M  V30 18627 C 1728.18 -1.95928 -0.103326 0
M  V30 18628 O 1727.31 -1.91676 -1.00445 0
M  V30 18629 C 1727.9 -2.50122 2.28527 0
M  V30 18630 C 1726.46 -3.03405 2.2276 0
M  V30 18631 C 1725.61 -1.76401 2.13958 0
M  V30 18632 H 1728.56 -0.60407 1.46754 0
M  V30 18633 H 1728.58 -3.28814 1.91472 0
M  V30 18634 H 1728.09 -2.07626 3.27892 0
M  V30 18635 H 1726.19 -3.50352 1.26822 0
M  V30 18636 H 1726.31 -3.61038 3.14942 0
M  V30 18637 H 1724.67 -1.98158 1.60017 0
M  V30 18638 H 1725.45 -1.3605 3.15191 0
M  V30 18639 N 1727.9 -1.19782 -1.02421 0
M  V30 18640 C 1728.83 -0.963553 -2.12692 0
M  V30 18641 C 1729.81 0.104769 -1.69777 0
M  V30 18642 O 1730.99 -0.0512017 -1.94132 0
M  V30 18643 C 1728.12 -0.506525 -3.43586 0
M  V30 18644 C 1727.08 -1.51722 -4.00206 0
M  V30 18645 C 1726.4 -0.917097 -5.26776 0
M  V30 18646 C 1727.7 -2.89879 -4.34474 0
M  V30 18647 H 1729.4 -1.88579 -2.32547 0
M  V30 18648 H 1726.94 -0.908111 -1.11756 0
M  V30 18649 H 1728.9 -0.329907 -4.20107 0
M  V30 18650 H 1727.62 0.451322 -3.23467 0
M  V30 18651 H 1726.28 -1.68106 -3.25785 0
M  V30 18652 H 1725.93 0.0484457 -5.02977 0
M  V30 18653 H 1725.63 -1.59204 -5.65622 0
M  V30 18654 H 1727.15 -0.751379 -6.05959 0
M  V30 18655 H 1728.57 -2.7705 -5.01913 0
M  V30 18656 H 1726.96 -3.54209 -4.84413 0
M  V30 18657 H 1728.03 -3.42179 -3.43571 0
M  V30 18658 N 1729.38 1.21606 -1.00248 0
M  V30 18659 C 1730.34 2.22107 -0.565772 0
M  V30 18660 C 1731.34 1.56798 0.356521 0
M  V30 18661 O 1732.53 1.73577 0.147154 0
M  V30 18662 C 1729.66 3.40447 0.175742 0
M  V30 18663 H 1730.86 2.62258 -1.45468 0
M  V30 18664 H 1728.41 1.34823 -0.790721 0
M  V30 18665 H 1729.14 3.05781 1.0802 0
M  V30 18666 H 1728.93 3.89069 -0.486612 0
M  V30 18667 H 1730.42 4.14957 0.469122 0
M  V30 18668 N 1730.86 0.776895 1.37121 0
M  V30 18669 C 1732.1 0.340209 1.9881 0
M  V30 18670 C 1732.42 -1.09071 1.62367 0
M  V30 18671 O 1733.62 -1.62904 2.17197 0
M  V30 18672 C 1732.08 0.557325 3.55559 0
M  V30 18673 C 1731.69 1.99884 4.00937 0
M  V30 18674 C 1733.43 0.184519 4.24099 0
M  V30 18675 C 1731.34 2.16328 5.50415 0
M  V30 18676 H 1730.27 0.12346 0.743824 0
M  V30 18677 H 1732.92 0.956754 1.56584 0
M  V30 18678 H 1731.3 -0.128752 3.95791 0
M  V30 18679 H 1732.48 2.72029 3.71937 0
M  V30 18680 H 1730.79 2.32872 3.45195 0
M  V30 18681 H 1733.39 0.285827 5.33935 0
M  V30 18682 H 1733.73 -0.865859 4.07196 0
M  V30 18683 H 1734.26 0.823343 3.89186 0
M  V30 18684 H 1731 3.19703 5.7225 0
M  V30 18685 H 1730.52 1.48673 5.81082 0
M  V30 18686 H 1732.2 1.96437 6.16459 0
M  V30 18687 N 1732.33 -1.48497 0.527859 0
M  V30 18688 C 1733.58 -2.02799 -0.00702196 0
M  V30 18689 C 1733.91 -1.40433 -1.34135 0
M  V30 18690 O 1733.19 -0.54934 -1.86581 0
M  V30 18691 C 1733.47 -3.59861 -0.131272 0
M  V30 18692 C 1733.32 -4.32711 1.22807 0
M  V30 18693 C 1734.64 -4.31634 -0.85908 0
M  V30 18694 H 1731.76 -0.736999 -0.00107787 0
M  V30 18695 H 1734.4 -1.77242 0.684478 0
M  V30 18696 H 1732.55 -3.81766 -0.720216 0
M  V30 18697 H 1734.23 -4.22229 1.85796 0
M  V30 18698 H 1732.47 -3.94212 1.8105 0
M  V30 18699 H 1733.14 -5.41047 1.09415 0
M  V30 18700 H 1735.62 -4.14546 -0.359322 0
M  V30 18701 H 1734.49 -5.41221 -0.914911 0
M  V30 18702 H 1734.75 -3.98765 -1.90889 0
M  V30 18703 N 1733.81 -0.262893 -1.55392 0
M  V30 18704 C 1735.05 0.358707 -2.01228 0
M  V30 18705 C 1735.42 1.53958 -1.14722 0
M  V30 18706 O 1736.62 2.22999 -1.50083 0
M  V30 18707 C 1734.89 0.74296 -3.49592 0
M  V30 18708 S 1736.45 1.35282 -4.17426 0
M  V30 18709 H 1733.26 0.112156 -0.702098 0
M  V30 18710 H 1735.87 -0.38187 -1.91734 0
M  V30 18711 H 1734.57 -0.125537 -4.10208 0
M  V30 18712 H 1734.1 1.51531 -3.63045 0
M  V30 18713 H 1736.12 2.64166 -4.20037 0
M  V30 18714 N 1735.29 1.57597 0.0100073 0
M  V30 18715 C 1736.52 1.9412 0.707165 0
M  V30 18716 C 1736.93 0.862669 1.68388 0
M  V30 18717 O 1736.27 -0.167949 1.82931 0
M  V30 18718 C 1736.33 3.26571 1.50306 0
M  V30 18719 C 1736 4.51776 0.689031 0
M  V30 18720 C 1736.99 5.19897 -0.018977 0
M  V30 18721 C 1734.68 4.98232 0.637951 0
M  V30 18722 C 1736.67 6.32766 -0.76716 0
M  V30 18723 C 1734.36 6.10994 -0.113964 0
M  V30 18724 C 1735.36 6.78117 -0.815262 0
M  V30 18725 O 1735.05 7.88719 -1.55493 0
M  V30 18726 H 1734.78 0.644932 0.202579 0
M  V30 18727 H 1737.33 2.05372 -0.0341978 0
M  V30 18728 H 1735.56 3.11699 2.28868 0
M  V30 18729 H 1737.25 3.4828 2.08461 0
M  V30 18730 H 1738.02 4.84999 0.0113968 0
M  V30 18731 H 1733.9 4.45818 1.17333 0
M  V30 18732 H 1737.44 6.85092 -1.31508 0
M  V30 18733 H 1733.34 6.45334 -0.146194 0
M  V30 18734 H 1734.1 8.05181 -1.47059 0
M  V30 18735 N 1736.77 -0.282606 1.55045 0
M  V30 18736 C 1738.01 -1.01547 1.75198 0
M  V30 18737 C 1738.34 -1.86627 0.54779 0
M  V30 18738 O 1737.6 -1.89974 -0.46993 0
M  V30 18739 C 1737.9 -1.93554 3.00452 0
M  V30 18740 C 1737.56 -1.24303 4.33428 0
M  V30 18741 C 1736.22 -1.0515 4.69571 0
M  V30 18742 C 1738.58 -0.749451 5.15784 0
M  V30 18743 C 1735.9 -0.353528 5.85634 0
M  V30 18744 C 1738.26 -0.0651157 6.32566 0
M  V30 18745 C 1736.92 0.138206 6.67357 0
M  V30 18746 H 1736.19 -0.371587 0.641096 0
M  V30 18747 H 1738.84 -0.288623 1.89312 0
M  V30 18748 H 1737.14 -2.72828 2.81197 0
M  V30 18749 H 1738.84 -2.50363 3.1324 0
M  V30 18750 H 1735.43 -1.4022 4.05014 0
M  V30 18751 H 1739.61 -0.885074 4.88344 0
M  V30 18752 H 1734.87 -0.185186 6.11119 0
M  V30 18753 H 1739.04 0.325146 6.95641 0
M  V30 18754 H 1736.67 0.681034 7.57143 0
M  V30 18755 N 1738.25 -1.47815 -0.546675 0
M  V30 18756 C 1739.49 -1.54238 -1.29975 0
M  V30 18757 C 1739.81 -0.213869 -1.94427 0
M  V30 18758 O 1741.01 -0.156187 -2.7105 0
M  V30 18759 C 1739.47 -2.71938 -2.35749 0
M  V30 18760 C 1739.08 -4.11362 -1.77441 0
M  V30 18761 C 1740.82 -2.87661 -3.12172 0
M  V30 18762 C 1738.73 -5.20347 -2.81057 0
M  V30 18763 H 1737.66 -0.574139 -0.488754 0
M  V30 18764 H 1740.31 -1.74113 -0.579384 0
M  V30 18765 H 1738.69 -2.45463 -3.10747 0
M  V30 18766 H 1739.87 -4.47785 -1.08744 0
M  V30 18767 H 1738.18 -4.00614 -1.13568 0
M  V30 18768 H 1740.78 -3.66252 -3.89568 0
M  V30 18769 H 1741.12 -1.96494 -3.67009 0
M  V30 18770 H 1741.65 -3.13957 -2.44286 0
M  V30 18771 H 1738.39 -6.13426 -2.31061 0
M  V30 18772 H 1737.91 -4.8843 -3.48132 0
M  V30 18773 H 1739.59 -5.47748 -3.44355 0
M  V30 18774 N 1739.72 0.794246 -1.36123 0
M  V30 18775 C 1740.66 1.91514 -1.25917 0
M  V30 18776 C 1741.67 1.61805 -0.179715 0
M  V30 18777 O 1742.86 1.73143 -0.434029 0
M  V30 18778 C 1739.96 3.26201 -0.919018 0
M  V30 18779 C 1739.13 3.83725 -2.09937 0
M  V30 18780 C 1738.19 4.96842 -1.73304 0
M  V30 18781 O 1737.22 5.13615 -2.45333 0
M  V30 18782 N 1738.42 5.76691 -0.663887 0
M  V30 18783 H 1741.18 2.00793 -2.22491 0
M  V30 18784 H 1738.74 0.97228 -1.29454 0
M  V30 18785 H 1740.74 3.99361 -0.655208 0
M  V30 18786 H 1739.31 3.12571 -0.0425606 0
M  V30 18787 H 1738.53 3.02611 -2.52626 0
M  V30 18788 H 1739.81 4.18889 -2.88806 0
M  V30 18789 H 1739.21 5.65662 -0.0657071 0
M  V30 18790 H 1737.77 6.50176 -0.459889 0
M  V30 18791 N 1741.2 1.20323 1.01785 0
M  V30 18792 C 1742.15 0.950946 2.10299 0
M  V30 18793 C 1743.12 -0.118376 1.65678 0
M  V30 18794 O 1744.3 0.0260849 1.90782 0
M  V30 18795 C 1741.44 0.507765 3.41344 0
M  V30 18796 C 1740.56 1.6451 3.9945 0
M  V30 18797 C 1739.69 1.15235 5.1855 0
M  V30 18798 C 1738.73 2.26285 5.68737 0
M  V30 18799 N 1737.87 1.78237 6.79099 0
M  V30 18800 H 1742.71 1.87999 2.31215 0
M  V30 18801 H 1740.24 0.937108 1.13387 0
M  V30 18802 H 1742.2 0.232143 4.16554 0
M  V30 18803 H 1740.83 -0.384278 3.20505 0
M  V30 18804 H 1739.88 2.03567 3.21348 0
M  V30 18805 H 1741.2 2.48135 4.32702 0
M  V30 18806 H 1740.35 0.832619 6.0096 0
M  V30 18807 H 1739.09 0.285978 4.86861 0
M  V30 18808 H 1738.09 2.59076 4.84933 0
M  V30 18809 H 1739.32 3.13397 6.02461 0
M  V30 18810 H 1737.27 0.939248 6.49241 0
M  V30 18811 H 1737.18 2.55443 7.11537 0
M  V30 18812 H 1738.45 1.4926 7.65076 0
M  V30 18813 N 1742.68 -1.21073 1.00892 0
M  V30 18814 C 1743.91 -1.93952 0.71178 0
M  V30 18815 C 1744.32 -1.74538 -0.730278 0
M  V30 18816 O 1743.66 -1.05164 -1.50619 0
M  V30 18817 C 1743.72 -3.46502 0.957957 0
M  V30 18818 C 1743.39 -3.89669 2.38762 0
M  V30 18819 C 1744.38 -3.96053 3.36805 0
M  V30 18820 C 1742.07 -4.21873 2.72632 0
M  V30 18821 C 1744.06 -4.34042 4.66783 0
M  V30 18822 C 1741.75 -4.59538 4.02825 0
M  V30 18823 C 1742.75 -4.65593 4.99712 0
M  V30 18824 O 1742.44 -5.02398 6.27576 0
M  V30 18825 H 1742.17 -0.623495 0.261208 0
M  V30 18826 H 1744.72 -1.54728 1.35086 0
M  V30 18827 H 1742.95 -3.85813 0.261704 0
M  V30 18828 H 1744.64 -4.00603 0.653596 0
M  V30 18829 H 1745.41 -3.71346 3.11974 0
M  V30 18830 H 1741.29 -4.16356 1.97912 0
M  V30 18831 H 1744.83 -4.38683 5.42405 0
M  V30 18832 H 1740.73 -4.837 4.27439 0
M  V30 18833 H 1741.49 -5.20417 6.3175 0
M  V30 18834 N 1744.16 -0.784156 -1.36707 0
M  V30 18835 C 1745.41 -0.354133 -1.99379 0
M  V30 18836 C 1745.73 1.07276 -1.62241 0
M  V30 18837 O 1744.99 1.75481 -0.866317 0
M  V30 18838 C 1745.29 -0.459004 -3.5444 0
M  V30 18839 C 1744.95 -1.84594 -4.11383 0
M  V30 18840 C 1743.62 -2.22543 -4.26648 0
M  V30 18841 C 1745.97 -2.75433 -4.42477 0
M  V30 18842 C 1743.3 -3.50744 -4.70315 0
M  V30 18843 C 1745.65 -4.03056 -4.87574 0
M  V30 18844 C 1744.31 -4.41034 -5.01044 0
M  V30 18845 H 1743.58 -0.129586 -0.729581 0
M  V30 18846 H 1746.23 -1.00059 -1.6328 0
M  V30 18847 H 1744.53 0.27097 -3.90862 0
M  V30 18848 H 1746.23 -0.107393 -4.00856 0
M  V30 18849 H 1742.82 -1.54103 -3.99938 0
M  V30 18850 H 1747 -2.4737 -4.30258 0
M  V30 18851 H 1742.26 -3.80047 -4.78931 0
M  V30 18852 H 1746.43 -4.73563 -5.10599 0
M  V30 18853 H 1744.06 -5.4043 -5.34639 0
M  V30 18854 N 1745.64 1.48215 -0.535727 0
M  V30 18855 C 1747.05 1.58417 -0.193977 0
M  V30 18856 C 1747.25 1.53705 1.30296 0
M  V30 18857 O 1746.31 1.42913 2.08164 0
M  V30 18858 C 1747.62 2.89819 -0.8016 0
M  V30 18859 C 1749.17 3.03359 -0.770858 0
M  V30 18860 C 1749.64 4.3743 -1.35716 0
M  V30 18861 N 1751.14 4.44012 -1.31938 0
M  V30 18862 C 1751.87 5.4627 -1.74287 0
M  V30 18863 N 1751.37 6.55454 -2.24393 0
M  V30 18864 N 1753.16 5.37187 -1.65489 0
M  V30 18865 H 1745.31 1.49521 -1.50855 0
M  V30 18866 H 1747.57 0.710306 -0.627829 0
M  V30 18867 H 1747.28 2.98939 -1.85278 0
M  V30 18868 H 1747.15 3.76144 -0.282036 0
M  V30 18869 H 1749.54 2.93848 0.271577 0
M  V30 18870 H 1749.62 2.1863 -1.32795 0
M  V30 18871 H 1749.27 4.47696 -2.39855 0
M  V30 18872 H 1749.2 5.20856 -0.775696 0
M  V30 18873 H 1751.69 3.65695 -0.952653 0
M  V30 18874 H 1752 7.29626 -2.54686 0
M  V30 18875 H 1750.34 6.56402 -2.2839 0
M  V30 18876 H 1753.54 4.50785 -1.26138 0
M  V30 18877 H 1753.71 6.16747 -1.98814 0
M  V30 18878 N 1747.11 0.27113 1.5525 0
M  V30 18879 C 1748.36 -0.347304 1.99804 0
M  V30 18880 C 1748.69 -1.55803 1.15928 0
M  V30 18881 O 1747.97 -1.93154 0.228386 0
M  V30 18882 C 1748.25 -0.733408 3.52552 0
M  V30 18883 C 1748.1 0.48438 4.47184 0
M  V30 18884 C 1749.42 -1.57136 4.11092 0
M  V30 18885 H 1746.54 -0.124762 0.726363 0
M  V30 18886 H 1749.18 0.37728 1.86217 0
M  V30 18887 H 1747.33 -1.35076 3.64262 0
M  V30 18888 H 1749.01 1.12293 4.47424 0
M  V30 18889 H 1747.25 1.12317 4.19008 0
M  V30 18890 H 1747.92 0.170525 5.51737 0
M  V30 18891 H 1750.4 -1.05001 4.02634 0
M  V30 18892 H 1749.27 -1.81033 5.18187 0
M  V30 18893 H 1749.53 -2.55111 3.61069 0
M  V30 18894 N 1748.59 -1.576 -0.00164943 0
M  V30 18895 C 1749.56 -2.07267 -0.978423 0
M  V30 18896 C 1750.56 -0.981758 -1.27351 0
M  V30 18897 O 1751.75 -1.24446 -1.21896 0
M  V30 18898 C 1748.88 -2.51273 -2.30379 0
M  V30 18899 H 1750.07 -2.94835 -0.548845 0
M  V30 18900 H 1747.62 -1.54302 -0.249086 0
M  V30 18901 H 1748.36 -1.66943 -2.7803 0
M  V30 18902 H 1748.14 -3.30943 -2.10283 0
M  V30 18903 H 1749.63 -2.90031 -3.00453 0
M  V30 18904 N 1750.07 0.274379 -1.55193 0
M  V30 18905 C 1751.3 1.02871 -1.8009 0
M  V30 18906 C 1751.72 1.79202 -0.571676 0
M  V30 18907 O 1751.08 1.74867 0.478679 0
M  V30 18908 C 1751.13 1.96406 -3.02418 0
M  V30 18909 O 1750.23 3.05154 -2.77408 0
M  V30 18910 H 1749.57 0.294181 -0.595276 0
M  V30 18911 H 1752.1 0.303708 -2.02333 0
M  V30 18912 H 1752.11 2.38385 -3.31114 0
M  V30 18913 H 1750.79 1.40261 -3.91535 0
M  V30 18914 H 1749.36 2.675 -2.59805 0
M  V30 18915 N 1751.55 1.48103 0.538828 0
M  V30 18916 C 1752.96 1.34028 0.866532 0
M  V30 18917 C 1753.16 0.3446 1.98531 0
M  V30 18918 O 1752.22 -0.237347 2.51382 0
M  V30 18919 C 1753.53 2.73833 1.24241 0
M  V30 18920 C 1755.08 2.82256 1.35279 0
M  V30 18921 C 1755.56 4.22744 1.76214 0
M  V30 18922 N 1757.05 4.25374 1.83332 0
M  V30 18923 C 1757.78 5.31009 2.16373 0
M  V30 18924 N 1757.28 6.4693 2.47899 0
M  V30 18925 N 1759.07 5.18397 2.17304 0
M  V30 18926 H 1751.22 2.11461 -0.199502 0
M  V30 18927 H 1753.49 0.947627 -0.0266031 0
M  V30 18928 H 1753.19 3.48213 0.494025 0
M  V30 18929 H 1753.07 3.0679 2.19453 0
M  V30 18930 H 1755.45 2.08137 2.09196 0
M  V30 18931 H 1755.53 2.5293 0.382096 0
M  V30 18932 H 1755.18 4.97375 1.02862 0
M  V30 18933 H 1755.11 4.49507 2.74319 0
M  V30 18934 H 1757.6 3.41755 1.61282 0
M  V30 18935 H 1757.91 7.23279 2.7219 0
M  V30 18936 H 1756.26 6.50219 2.45438 0
M  V30 18937 H 1759.45 4.26855 1.92126 0
M  V30 18938 H 1759.62 6.00824 2.42722 0
M  V30 18939 N 1753.03 -0.787016 1.36542 0
M  V30 18940 C 1754.3 -1.53325 1.21452 0
M  V30 18941 C 1754.68 -2.10166 -0.198313 0
M  V30 18942 O 1754.03 -1.94192 -1.20422 0
M  V30 18943 C 1754.24 -2.62629 2.29841 0
M  V30 18944 C 1755.59 -3.30446 2.66628 0
M  V30 18945 O 1756.61 -2.72914 2.28903 0
M  V30 18946 O 1755.47 -4.34424 3.31569 0
M  V30 18947 H 1752.57 -0.678361 0.473028 0
M  V30 18948 H 1755.11 -0.825292 1.4828 0
M  V30 18949 H 1753.88 -2.18639 3.24519 0
M  V30 18950 H 1753.51 -3.41042 2.04393 0
M  V30 18951 N 1754.5 -1.20861 -1.01145 0
M  V30 18952 C 1755.43 -0.986058 -2.11658 0
M  V30 18953 C 1756.42 0.0867558 -1.69879 0
M  V30 18954 O 1757.6 -0.0717892 -1.94067 0
M  V30 18955 C 1754.73 -0.542938 -3.4303 0
M  V30 18956 C 1753.68 -1.55958 -3.98574 0
M  V30 18957 C 1753.01 -0.972917 -5.25774 0
M  V30 18958 C 1754.31 -2.94471 -4.31375 0
M  V30 18959 H 1756 -1.91035 -2.30534 0
M  V30 18960 H 1753.55 -0.919914 -1.10786 0
M  V30 18961 H 1755.5 -0.374446 -4.19733 0
M  V30 18962 H 1754.23 0.416988 -3.23927 0
M  V30 18963 H 1752.89 -1.71552 -3.23984 0
M  V30 18964 H 1752.53 -0.00490446 -5.03 0
M  V30 18965 H 1752.23 -1.65194 -5.63901 0
M  V30 18966 H 1753.76 -0.815607 -6.05128 0
M  V30 18967 H 1755.17 -2.82358 -4.98946 0
M  V30 18968 H 1753.57 -3.59327 -4.80629 0
M  V30 18969 H 1754.64 -3.45804 -3.39923 0
M  V30 18970 N 1755.98 1.20536 -1.01532 0
M  V30 18971 C 1756.91 2.22683 -0.542658 0
M  V30 18972 C 1757.93 1.5844 0.374267 0
M  V30 18973 O 1759.12 1.77661 0.172818 0
M  V30 18974 C 1756.22 3.38117 0.230168 0
M  V30 18975 C 1755.39 4.3195 -0.688356 0
M  V30 18976 C 1754.45 5.26187 0.0366686 0
M  V30 18977 O 1753.47 5.66182 -0.585418 0
M  V30 18978 N 1754.68 5.65481 1.31193 0
M  V30 18979 H 1757.44 2.63864 -1.42111 0
M  V30 18980 H 1755 1.35065 -0.892703 0
M  V30 18981 H 1756.99 3.98164 0.724408 0
M  V30 18982 H 1755.56 2.95837 1.00991 0
M  V30 18983 H 1754.78 3.69889 -1.36292 0
M  V30 18984 H 1756.07 4.91564 -1.3131 0
M  V30 18985 H 1755.47 5.34998 1.83829 0
M  V30 18986 H 1754.03 6.27842 1.75092 0
M  V30 18987 N 1757.46 0.791395 1.36289 0
M  V30 18988 C 1758.39 0.149076 2.28715 0
M  V30 18989 C 1759.41 -0.642827 1.49571 0
M  V30 18990 O 1760.59 -0.477685 1.7199 0
M  V30 18991 C 1757.69 -0.811868 3.29032 0
M  V30 18992 C 1756.87 -0.0695975 4.37345 0
M  V30 18993 C 1755.93 -0.946776 5.17612 0
M  V30 18994 O 1754.95 -0.403295 5.67769 0
M  V30 18995 N 1756.15 -2.27079 5.34243 0
M  V30 18996 H 1758.92 0.943005 2.84478 0
M  V30 18997 H 1756.48 0.645479 1.48476 0
M  V30 18998 H 1758.47 -1.40257 3.79618 0
M  V30 18999 H 1757.04 -1.50667 2.73895 0
M  V30 19000 H 1756.26 0.702196 3.87895 0
M  V30 19001 H 1757.55 0.442542 5.06872 0
M  V30 19002 H 1756.95 -2.73646 4.9511 0
M  V30 19003 H 1755.51 -2.81109 5.88065 0
M  V30 19004 N 1758.94 -1.47929 0.54358 0
M  V30 19005 C 1759.87 -2.3264 -0.200228 0
M  V30 19006 C 1760.85 -1.42945 -0.922 0
M  V30 19007 O 1762.04 -1.71817 -0.905129 0
M  V30 19008 C 1759.17 -3.24439 -1.23922 0
M  V30 19009 C 1758.12 -4.23267 -0.634753 0
M  V30 19010 C 1757.45 -5.04295 -1.77739 0
M  V30 19011 C 1758.75 -5.20747 0.402524 0
M  V30 19012 H 1760.44 -2.95077 0.506957 0
M  V30 19013 H 1757.99 -1.41896 0.245246 0
M  V30 19014 H 1759.94 -3.82535 -1.76763 0
M  V30 19015 H 1758.66 -2.60029 -1.97616 0
M  V30 19016 H 1757.32 -3.66377 -0.127756 0
M  V30 19017 H 1756.97 -4.36299 -2.50304 0
M  V30 19018 H 1756.67 -5.71195 -1.37879 0
M  V30 19019 H 1758.19 -5.65246 -2.30932 0
M  V30 19020 H 1759.61 -5.73287 -0.039305 0
M  V30 19021 H 1758 -5.95774 0.719251 0
M  V30 19022 H 1759.07 -4.67054 1.3034 0
M  V30 19023 N 1760.42 -0.27936 -1.55104 0
M  V30 19024 C 1761.69 0.388213 -1.91709 0
M  V30 19025 C 1762.07 1.7339 -1.20412 0
M  V30 19026 O 1761.42 2.26069 -0.332419 0
M  V30 19027 C 1761.63 0.524298 -3.45039 0
M  V30 19028 C 1762.98 0.805229 -4.16895 0
M  V30 19029 O 1764 0.608944 -3.50956 0
M  V30 19030 O 1762.86 1.18089 -5.33589 0
M  V30 19031 H 1759.96 0.213245 -0.799034 0
M  V30 19032 H 1762.5 -0.325825 -1.66543 0
M  V30 19033 H 1761.28 -0.422562 -3.89012 0
M  V30 19034 H 1760.9 1.28764 -3.76172 0
M  V30 19035 N 1761.9 1.57599 -0.0067085 0
M  V30 19036 C 1763.17 1.82097 0.714141 0
M  V30 19037 C 1763.55 0.885868 1.91613 0
M  V30 19038 O 1762.9 -0.0638506 2.28411 0
M  V30 19039 C 1763.11 3.30759 1.11354 0
M  V30 19040 C 1764.46 3.96668 1.51459 0
M  V30 19041 O 1765.48 3.35121 1.20715 0
M  V30 19042 O 1764.34 5.051 2.08654 0
M  V30 19043 H 1761.44 0.750071 0.348314 0
M  V30 19044 H 1763.98 1.69669 -0.0326766 0
M  V30 19045 H 1762.75 3.90455 0.257068 0
M  V30 19046 H 1762.38 3.48211 1.91924 0
M  V30 19047 N 1763.37 -0.266145 1.55336 0
M  V30 19048 C 1764.6 -1.01489 1.80299 0
M  V30 19049 C 1765.02 -1.79679 0.579742 0
M  V30 19050 O 1764.37 -1.76831 -0.451319 0
M  V30 19051 C 1764.42 -1.96805 3.03233 0
M  V30 19052 O 1764.15 -1.21782 4.20834 0
M  V30 19053 C 1765.65 -2.83436 3.40851 0
M  V30 19054 H 1762.87 -0.299504 0.600449 0
M  V30 19055 H 1765.41 -0.294854 2.02363 0
M  V30 19056 H 1763.57 -2.64262 2.83275 0
M  V30 19057 H 1763.98 -1.86086 4.9038 0
M  V30 19058 H 1765.45 -3.461 4.30022 0
M  V30 19059 H 1765.93 -3.53559 2.60562 0
M  V30 19060 H 1766.54 -2.2146 3.63092 0
M  V30 19061 N 1764.85 -1.48386 -0.530967 0
M  V30 19062 C 1766.08 -1.60014 -1.31161 0
M  V30 19063 C 1766.49 -0.260028 -1.87001 0
M  V30 19064 O 1765.85 0.750547 -1.66352 0
M  V30 19065 C 1765.9 -2.64597 -2.46315 0
M  V30 19066 O 1765.62 -3.93407 -1.92777 0
M  V30 19067 C 1767.12 -2.86654 -3.38149 0
M  V30 19068 H 1764.34 -0.539553 -0.398902 0
M  V30 19069 H 1766.89 -1.94207 -0.64063 0
M  V30 19070 H 1765.04 -2.33265 -3.093 0
M  V30 19071 H 1765.46 -4.50774 -2.68147 0
M  V30 19072 H 1766.93 -3.63634 -4.153 0
M  V30 19073 H 1767.41 -1.95441 -3.93319 0
M  V30 19074 H 1768.01 -3.19285 -2.80957 0
M  V30 19075 N 1766.33 0.779763 -1.36958 0
M  V30 19076 C 1767.26 1.90168 -1.27941 0
M  V30 19077 C 1768.27 1.61605 -0.196866 0
M  V30 19078 O 1769.46 1.72673 -0.452368 0
M  V30 19079 C 1766.56 3.25208 -0.953565 0
M  V30 19080 C 1765.74 3.81477 -2.13995 0
M  V30 19081 C 1764.8 4.94976 -1.78564 0
M  V30 19082 O 1763.82 5.10984 -2.50767 0
M  V30 19083 N 1765.02 5.75955 -0.725015 0
M  V30 19084 H 1767.79 1.98422 -2.24608 0
M  V30 19085 H 1765.35 0.958495 -1.30478 0
M  V30 19086 H 1767.34 3.98643 -0.697529 0
M  V30 19087 H 1765.91 3.12508 -0.0757105 0
M  V30 19088 H 1765.13 2.99915 -2.55822 0
M  V30 19089 H 1766.42 4.15803 -2.93233 0
M  V30 19090 H 1765.82 5.6556 -0.125699 0
M  V30 19091 H 1764.37 6.49651 -0.528823 0
M  V30 19092 N 1767.81 1.21396 1.00503 0
M  V30 19093 C 1768.74 0.997268 2.11132 0
M  V30 19094 C 1769.72 -0.0777455 1.69922 0
M  V30 19095 O 1770.9 0.08208 1.94026 0
M  V30 19096 C 1768.03 0.561122 3.42737 0
M  V30 19097 C 1766.99 1.58069 3.97741 0
M  V30 19098 C 1766.31 1.00079 5.25251 0
M  V30 19099 C 1767.61 2.96754 4.29807 0
M  V30 19100 H 1769.31 1.92255 2.29518 0
M  V30 19101 H 1766.85 0.925776 1.10297 0
M  V30 19102 H 1768.81 0.396701 4.19529 0
M  V30 19103 H 1767.53 -0.399804 3.24144 0
M  V30 19104 H 1766.19 1.73268 3.23069 0
M  V30 19105 H 1765.84 0.0315797 5.0299 0
M  V30 19106 H 1765.54 1.68182 5.63017 0
M  V30 19107 H 1767.06 0.847687 6.04687 0
M  V30 19108 H 1768.48 2.85 4.97441 0
M  V30 19109 H 1766.87 3.61871 4.78717 0
M  V30 19110 H 1767.94 3.47602 3.38084 0
M  V30 19111 N 1769.29 -1.19996 1.0217 0
M  V30 19112 C 1770.7 -1.71202 0.744777 0
M  V30 19113 C 1771.05 -1.81862 -0.736238 0
M  V30 19114 O 1770.17 -1.48475 -1.5743 0
M  V30 19115 C 1770.77 -3.10945 1.34531 0
M  V30 19116 C 1769.33 -3.5944 1.11714 0
M  V30 19117 C 1768.47 -2.36501 1.44784 0
M  V30 19118 H 1771.42 -1.04938 1.19054 0
M  V30 19119 H 1771.45 -3.73264 0.738531 0
M  V30 19120 H 1770.96 -3.03154 2.42321 0
M  V30 19121 H 1769.06 -3.72556 0.0571346 0
M  V30 19122 H 1769.17 -4.43969 1.80079 0
M  V30 19123 H 1767.54 -2.3949 0.866981 0
M  V30 19124 H 1768.32 -2.31347 2.53641 0
M  V30 19125 N 1770.76 -0.798611 -1.35867 0
M  V30 19126 C 1771.69 -0.217751 -2.32482 0
M  V30 19127 C 1772.67 0.652374 -1.57093 0
M  V30 19128 O 1773.86 0.584297 -1.85202 0
M  V30 19129 C 1770.99 0.640925 -3.41335 0
M  V30 19130 C 1769.94 -0.130053 -4.27802 0
M  V30 19131 C 1769.27 0.849811 -5.27904 0
M  V30 19132 C 1770.57 -1.32451 -5.05227 0
M  V30 19133 H 1772.26 -1.02492 -2.81311 0
M  V30 19134 H 1769.81 -0.494302 -1.3525 0
M  V30 19135 H 1771.76 1.05729 -4.07921 0
M  V30 19136 H 1770.49 1.4809 -2.91096 0
M  V30 19137 H 1769.15 -0.5275 -3.62785 0
M  V30 19138 H 1768.79 1.68507 -4.73935 0
M  V30 19139 H 1768.49 0.338323 -5.86625 0
M  V30 19140 H 1770.02 1.26455 -5.97362 0
M  V30 19141 H 1771.43 -0.983429 -5.64802 0
M  V30 19142 H 1769.83 -1.76992 -5.73405 0
M  V30 19143 H 1770.9 -2.11522 -4.36333 0
M  V30 19144 N 1772.24 1.47639 -0.551417 0
M  V30 19145 C 1773.17 2.32743 0.187887 0
M  V30 19146 C 1774.15 1.43432 0.914407 0
M  V30 19147 O 1775.34 1.72295 0.896005 0
M  V30 19148 C 1772.47 3.25092 1.22199 0
M  V30 19149 C 1771.42 4.23598 0.612298 0
M  V30 19150 C 1770.75 5.0523 1.75062 0
M  V30 19151 C 1772.05 5.20526 -0.430135 0
M  V30 19152 H 1773.74 2.94804 -0.522598 0
M  V30 19153 H 1771.29 1.41764 -0.252768 0
M  V30 19154 H 1773.24 3.83467 1.74731 0
M  V30 19155 H 1771.96 2.61074 1.96235 0
M  V30 19156 H 1770.62 3.6644 0.108324 0
M  V30 19157 H 1770.27 4.3762 2.47987 0
M  V30 19158 H 1769.97 5.71918 1.34848 0
M  V30 19159 H 1771.5 5.66463 2.27931 0
M  V30 19160 H 1772.91 5.73299 0.00890168 0
M  V30 19161 H 1771.31 5.95384 -0.750836 0
M  V30 19162 H 1772.38 4.66356 -1.32815 0
M  V30 19163 N 1773.72 0.287581 1.54954 0
M  V30 19164 C 1774.95 -0.331442 2.04735 0
M  V30 19165 C 1775.37 -1.47752 1.16409 0
M  V30 19166 O 1774.73 -1.80545 0.165297 0
M  V30 19167 C 1774.78 -0.778123 3.52105 0
M  V30 19168 O 1773.88 -1.88422 3.66839 0
M  V30 19169 H 1773.22 -0.0666173 0.66065 0
M  V30 19170 H 1775.75 0.425516 2.00126 0
M  V30 19171 H 1775.76 -1.07054 3.93705 0
M  V30 19172 H 1774.44 0.0603184 4.15856 0
M  V30 19173 H 1773.01 -1.59338 3.37144 0
M  V30 19174 N 1775.2 -1.57593 0.0150662 0
M  V30 19175 C 1776.15 -2.0585 -0.980291 0
M  V30 19176 C 1777.13 -0.956179 -1.29406 0
M  V30 19177 O 1778.32 -1.21985 -1.28253 0
M  V30 19178 C 1775.45 -2.57769 -2.26738 0
M  V30 19179 C 1774.54 -3.74906 -1.98259 0
M  V30 19180 N 1774.93 -4.8604 -1.39995 0
M  V30 19181 C 1773.23 -3.83124 -2.28325 0
M  V30 19182 C 1773.93 -5.67368 -1.28329 0
M  V30 19183 N 1772.91 -5.13837 -1.77404 0
M  V30 19184 H 1776.71 -2.89181 -0.524549 0
M  V30 19185 H 1774.22 -1.61281 -0.190285 0
M  V30 19186 H 1776.22 -2.90624 -2.98903 0
M  V30 19187 H 1774.88 -1.75862 -2.72952 0
M  V30 19188 H 1775.89 -5.06583 -1.07678 0
M  V30 19189 H 1772.57 -3.12099 -2.77309 0
M  V30 19190 H 1773.96 -6.66704 -0.833956 0
M  V30 19191 N 1776.68 0.257904 -1.55475 0
M  V30 19192 C 1777.92 0.98747 -1.76792 0
M  V30 19193 C 1778.25 1.85732 -0.577411 0
M  V30 19194 O 1777.51 1.90698 0.439647 0
M  V30 19195 C 1777.81 1.8875 -3.03494 0
M  V30 19196 C 1777.47 1.17391 -4.35351 0
M  V30 19197 C 1776.13 0.976662 -4.71184 0
M  V30 19198 C 1778.49 0.667299 -5.16911 0
M  V30 19199 C 1775.81 0.260314 -5.86122 0
M  V30 19200 C 1778.17 -0.0355283 -6.3259 0
M  V30 19201 C 1776.83 -0.244359 -6.67053 0
M  V30 19202 H 1776.1 0.361341 -0.646926 0
M  V30 19203 H 1778.75 0.258469 -1.89748 0
M  V30 19204 H 1777.05 2.6832 -2.85502 0
M  V30 19205 H 1778.75 2.45348 -3.17184 0
M  V30 19206 H 1775.34 1.33758 -4.07194 0
M  V30 19207 H 1779.52 0.807271 -4.89691 0
M  V30 19208 H 1774.78 0.0879391 -6.11337 0
M  V30 19209 H 1778.95 -0.435775 -6.95035 0
M  V30 19210 H 1776.58 -0.801403 -7.55964 0
M  V30 19211 N 1778.15 1.48666 0.52309 0
M  V30 19212 C 1779.12 1.63211 1.60919 0
M  V30 19213 C 1780.12 0.505012 1.52664 0
M  V30 19214 O 1781.31 0.770967 1.56211 0
M  V30 19215 C 1778.44 1.60878 3.00551 0
M  V30 19216 H 1779.63 2.60061 1.4936 0
M  V30 19217 H 1777.19 1.37366 0.745674 0
M  V30 19218 H 1777.92 0.655306 3.1761 0
M  V30 19219 H 1777.71 2.4271 3.07952 0
M  V30 19220 H 1779.2 1.74263 3.79502 0
M  V30 19221 N 1779.63 -0.772489 1.37369 0
M  V30 19222 C 1780.54 -1.91679 1.35263 0
M  V30 19223 C 1781.56 -1.72161 0.252321 0
M  V30 19224 O 1782.73 -1.95409 0.487581 0
M  V30 19225 C 1779.8 -3.26792 1.15792 0
M  V30 19226 C 1778.86 -3.5897 2.35455 0
M  V30 19227 C 1778.09 -4.87636 2.16903 0
M  V30 19228 O 1778.32 -5.58627 1.15291 0
M  V30 19229 O 1777.25 -5.18859 3.05072 0
M  V30 19230 H 1781.08 -1.96408 2.31641 0
M  V30 19231 H 1778.66 -0.915136 1.18092 0
M  V30 19232 H 1780.54 -4.07611 1.06918 0
M  V30 19233 H 1779.22 -3.22918 0.224872 0
M  V30 19234 H 1778.13 -2.78389 2.49901 0
M  V30 19235 H 1779.46 -3.67586 3.27325 0
M  V30 19236 N 1781.11 -1.21927 -0.998575 0
M  V30 19237 C 1782.34 -1.06655 -1.77291 0
M  V30 19238 C 1782.75 0.38326 -1.84869 0
M  V30 19239 O 1782.11 1.26575 -1.31473 0
M  V30 19240 C 1782.16 -1.66478 -3.20885 0
M  V30 19241 O 1781.88 -3.05788 -3.13728 0
M  V30 19242 C 1783.38 -1.56404 -4.14792 0
M  V30 19243 H 1780.6 -0.3742 -0.55697 0
M  V30 19244 H 1783.15 -1.61401 -1.25579 0
M  V30 19245 H 1781.3 -1.15809 -3.69685 0
M  V30 19246 H 1781.72 -3.34503 -4.0399 0
M  V30 19247 H 1783.19 -2.02995 -5.1332 0
M  V30 19248 H 1783.67 -0.519591 -4.36116 0
M  V30 19249 H 1784.27 -2.06352 -3.71886 0
M  V30 19250 N 1782.59 1.19452 -1.02805 0
M  V30 19251 C 1783.83 1.89394 -0.725101 0
M  V30 19252 C 1784.17 1.79368 0.744361 0
M  V30 19253 O 1783.44 1.18548 1.54196 0
M  V30 19254 C 1783.73 3.40361 -1.17586 0
M  V30 19255 C 1783.58 3.59263 -2.70648 0
M  V30 19256 C 1784.9 4.33558 -0.756011 0
M  V30 19257 H 1782.02 0.687753 -0.264887 0
M  V30 19258 H 1784.66 1.40611 -1.27783 0
M  V30 19259 H 1782.81 3.82038 -0.70561 0
M  V30 19260 H 1784.48 3.26762 -3.25614 0
M  V30 19261 H 1782.72 3.02344 -3.1108 0
M  V30 19262 H 1783.39 4.65135 -2.97244 0
M  V30 19263 H 1785.87 3.9959 -1.16046 0
M  V30 19264 H 1784.75 5.37779 -1.09931 0
M  V30 19265 H 1785.01 4.40778 0.341677 0
M  V30 19266 N 1784.07 0.805805 1.35442 0
M  V30 19267 C 1784.98 0.217149 2.33593 0
M  V30 19268 C 1785.99 -0.639428 1.61825 0
M  V30 19269 O 1787.17 -0.551363 1.93706 0
M  V30 19270 C 1784.23 -0.625149 3.41017 0
M  V30 19271 C 1783.29 0.25183 4.28561 0
M  V30 19272 C 1782.53 -0.550363 5.30855 0
M  V30 19273 O 1782.75 -1.78511 5.41747 0
M  V30 19274 O 1781.68 0.0583487 6.01872 0
M  V30 19275 H 1785.51 1.02909 2.85733 0
M  V30 19276 H 1783.1 0.567579 1.38199 0
M  V30 19277 H 1784.98 -1.10493 4.06656 0
M  V30 19278 H 1783.65 -1.4147 2.91149 0
M  V30 19279 H 1782.56 0.77873 3.65905 0
M  V30 19280 H 1783.89 1.0053 4.81824 0
M  V30 19281 N 1785.54 -1.47344 0.559239 0
M  V30 19282 C 1786.79 -2.02068 0.035872 0
M  V30 19283 C 1787.11 -1.43573 -1.31953 0
M  V30 19284 O 1786.38 -0.611672 -1.86106 0
M  V30 19285 H 1784.96 -0.746929 0.0102713 0
M  V30 19286 H 1787.63 -1.80724 0.729707 0
M  V30 19287 H 1786.72 -3.12059 -0.0507123 0
M  V30 19288 N 1787.02 -0.295795 -1.54799 0
M  V30 19289 C 1787.95 0.575863 -2.26288 0
M  V30 19290 C 1788.93 1.14217 -1.26049 0
M  V30 19291 O 1790.12 1.17248 -1.54812 0
M  V30 19292 C 1787.25 1.7503 -2.9997 0
M  V30 19293 C 1786.2 1.31459 -4.07311 0
M  V30 19294 C 1785.53 2.57377 -4.6868 0
M  V30 19295 C 1786.83 0.449629 -5.20361 0
M  V30 19296 H 1788.52 -0.0203797 -2.99393 0
M  V30 19297 H 1786.07 -0.0112418 -1.43996 0
M  V30 19298 H 1788.02 2.36615 -3.487 0
M  V30 19299 H 1786.75 2.3727 -2.24434 0
M  V30 19300 H 1785.4 0.721829 -3.59423 0
M  V30 19301 H 1785.05 3.1792 -3.89789 0
M  V30 19302 H 1784.75 2.28927 -5.41171 0
M  V30 19303 H 1786.28 3.19774 -5.2017 0
M  V30 19304 H 1787.69 0.971014 -5.65017 0
M  V30 19305 H 1786.09 0.259121 -5.9954 0
M  V30 19306 H 1787.16 -0.526564 -4.82032 0
M  V30 19307 N 1788.5 1.57583 -0.0234236 0
M  V30 19308 C 1789.73 1.95861 0.666797 0
M  V30 19309 C 1790.14 0.899616 1.65989 0
M  V30 19310 O 1789.5 -0.119162 1.82111 0
M  V30 19311 C 1789.55 3.34198 1.37818 0
M  V30 19312 O 1789.27 4.36035 0.424887 0
M  V30 19313 C 1790.77 3.87074 2.16075 0
M  V30 19314 H 1787.99 0.645213 0.184233 0
M  V30 19315 H 1790.54 2.04338 -0.0814987 0
M  V30 19316 H 1788.69 3.26958 2.07792 0
M  V30 19317 H 1789.11 5.162 0.929394 0
M  V30 19318 H 1790.58 4.8623 2.61312 0
M  V30 19319 H 1791.06 3.21017 2.99741 0
M  V30 19320 H 1791.66 3.97565 1.5107 0
M  V30 19321 N 1789.98 -0.249655 1.5561 0
M  V30 19322 C 1791.21 -0.995707 1.81365 0
M  V30 19323 C 1791.62 -1.79054 0.598767 0
M  V30 19324 O 1790.98 -1.773 -0.432538 0
M  V30 19325 C 1791.03 -1.93577 3.05303 0
M  V30 19326 O 1790.75 -1.17311 4.22102 0
M  V30 19327 C 1792.25 -2.79804 3.43838 0
M  V30 19328 H 1789.47 -0.293118 0.603591 0
M  V30 19329 H 1792.02 -0.273374 2.02665 0
M  V30 19330 H 1790.17 -2.61242 2.86062 0
M  V30 19331 H 1790.59 -1.80875 4.92326 0
M  V30 19332 H 1792.06 -3.4152 4.33668 0
M  V30 19333 H 1792.54 -3.50776 2.64298 0
M  V30 19334 H 1793.14 -2.17596 3.6542 0
M  V30 19335 N 1791.46 -1.48941 -0.515198 0
M  V30 19336 C 1792.71 -1.5696 -1.26674 0
M  V30 19337 C 1793.02 -0.255062 -1.9393 0
M  V30 19338 O 1794.23 -0.213645 -2.70658 0
M  V30 19339 C 1792.68 -2.76877 -2.29928 0
M  V30 19340 C 1792.29 -4.15033 -1.68676 0
M  V30 19341 C 1794.03 -2.94218 -3.06 0
M  V30 19342 C 1791.94 -5.26191 -2.69957 0
M  V30 19343 H 1790.87 -0.584377 -0.476465 0
M  V30 19344 H 1793.52 -1.75303 -0.542322 0
M  V30 19345 H 1791.9 -2.51999 -3.05471 0
M  V30 19346 H 1793.08 -4.49991 -0.992215 0
M  V30 19347 H 1791.39 -4.02932 -1.05045 0
M  V30 19348 H 1793.99 -3.74433 -3.81712 0
M  V30 19349 H 1794.33 -2.04235 -3.62759 0
M  V30 19350 H 1794.87 -3.19068 -2.37572 0
M  V30 19351 H 1791.6 -6.18189 -2.17998 0
M  V30 19352 H 1791.12 -4.95705 -3.37694 0
M  V30 19353 H 1792.8 -5.54929 -3.32659 0
M  V30 19354 N 1792.94 0.765193 -1.37777 0
M  V30 19355 C 1794.35 1.06666 -1.1872 0
M  V30 19356 C 1794.55 2.01481 -0.0278636 0
M  V30 19357 O 1793.61 2.44514 0.630006 0
M  V30 19358 C 1794.92 1.65787 -2.50868 0
M  V30 19359 C 1796.47 1.78014 -2.57449 0
M  V30 19360 C 1796.94 2.40548 -3.89744 0
M  V30 19361 N 1798.43 2.47992 -3.91221 0
M  V30 19362 C 1799.17 2.97245 -4.9034 0
M  V30 19363 N 1798.67 3.46621 -5.99855 0
M  V30 19364 N 1800.46 2.96179 -4.77739 0
M  V30 19365 H 1792.61 0.135775 -2.11966 0
M  V30 19366 H 1794.87 0.122863 -0.940005 0
M  V30 19367 H 1794.58 1.03588 -3.36099 0
M  V30 19368 H 1794.45 2.65 -2.6843 0
M  V30 19369 H 1796.84 2.39345 -1.72621 0
M  V30 19370 H 1796.92 0.775388 -2.43765 0
M  V30 19371 H 1796.56 1.79855 -4.74989 0
M  V30 19372 H 1796.49 3.41643 -4.00734 0
M  V30 19373 H 1798.99 2.13056 -3.12114 0
M  V30 19374 H 1799.3 3.82625 -6.7143 0
M  V30 19375 H 1797.64 3.44709 -6.0349 0
M  V30 19376 H 1800.83 2.56909 -3.913 0
M  V30 19377 H 1801.01 3.34253 -5.55139 0
M  V30 19378 N 1794.41 1.22455 0.992094 0
M  V30 19379 C 1795.38 0.996703 2.06394 0
M  V30 19380 C 1796.38 -0.0371659 1.60757 0
M  V30 19381 O 1797.57 0.20142 1.73032 0
M  V30 19382 C 1794.7 0.505675 3.37129 0
M  V30 19383 H 1795.89 1.94776 2.28041 0
M  V30 19384 H 1793.44 1.04335 1.16378 0
M  V30 19385 H 1794.18 -0.449697 3.21167 0
M  V30 19386 H 1793.96 1.25158 3.71588 0
M  V30 19387 H 1795.45 0.366535 4.15988 0
M  V30 19388 N 1795.89 -1.18905 1.03437 0
M  V30 19389 C 1797.14 -1.88727 0.734048 0
M  V30 19390 C 1797.47 -1.79964 -0.737773 0
M  V30 19391 O 1796.72 -1.19016 -1.5535 0
M  V30 19392 C 1797.02 -3.38811 1.13762 0
M  V30 19393 C 1796.69 -3.67777 2.60865 0
M  V30 19394 C 1795.35 -3.75393 3.01054 0
M  V30 19395 C 1797.7 -3.80666 3.5601 0
M  V30 19396 C 1795.03 -3.9337 4.35289 0
M  V30 19397 C 1797.38 -4.00158 4.89955 0
M  V30 19398 C 1796.04 -4.06007 5.29825 0
M  V30 19399 H 1795.31 -0.690602 0.268607 0
M  V30 19400 H 1797.96 -1.40777 1.29823 0
M  V30 19401 H 1796.27 -3.88697 0.492134 0
M  V30 19402 H 1797.96 -3.91164 0.882696 0
M  V30 19403 H 1794.55 -3.62462 2.28733 0
M  V30 19404 H 1798.74 -3.7412 3.2611 0
M  V30 19405 H 1793.99 -3.9614 4.65707 0
M  V30 19406 H 1798.17 -4.09073 5.63589 0
M  V30 19407 H 1795.79 -4.1969 6.33849 0
M  V30 19408 N 1797.37 -0.812977 -1.35013 0
M  V30 19409 C 1798.79 -0.497497 -1.51648 0
M  V30 19410 C 1798.99 0.980162 -1.76054 0
M  V30 19411 O 1798.04 1.76498 -1.80567 0
M  V30 19412 C 1799.35 -1.3484 -2.68772 0
M  V30 19413 C 1800.9 -1.3445 -2.82652 0
M  V30 19414 C 1801.38 -2.17966 -4.02808 0
M  V30 19415 N 1802.87 -2.15537 -4.09998 0
M  V30 19416 C 1803.6 -2.76912 -5.02103 0
M  V30 19417 N 1803.1 -3.47239 -5.99497 0
M  V30 19418 N 1804.89 -2.66519 -4.94898 0
M  V30 19419 H 1797.04 -1.76987 -1.17429 0
M  V30 19420 H 1799.31 -0.753654 -0.575073 0
M  V30 19421 H 1799.01 -2.39732 -2.57336 0
M  V30 19422 H 1798.89 -1.0061 -3.63535 0
M  V30 19423 H 1801.27 -0.303409 -2.93536 0
M  V30 19424 H 1801.35 -1.72671 -1.88728 0
M  V30 19425 H 1801 -3.2212 -3.92685 0
M  V30 19426 H 1800.93 -1.77102 -4.95926 0
M  V30 19427 H 1803.42 -1.64373 -3.40279 0
M  V30 19428 H 1803.73 -3.91341 -6.66387 0
M  V30 19429 H 1802.08 -3.51344 -5.99652 0
M  V30 19430 H 1805.27 -2.1116 -4.17767 0
M  V30 19431 H 1805.44 -3.14639 -5.66486 0
M  V30 19432 N 1798.85 1.47045 -0.567045 0
M  V30 19433 C 1800.08 2.06535 -0.0517558 0
M  V30 19434 C 1800.49 1.41873 1.25174 0
M  V30 19435 O 1799.83 0.512695 1.764 0
M  V30 19436 C 1799.89 3.58917 0.204611 0
M  V30 19437 C 1799.55 4.45678 -1.01092 0
M  V30 19438 C 1800.55 4.83187 -1.91902 0
M  V30 19439 C 1798.24 4.87049 -1.22837 0
M  V30 19440 C 1800.23 5.60876 -3.02815 0
M  V30 19441 C 1797.92 5.645 -2.34058 0
M  V30 19442 C 1798.92 6.01325 -3.23878 0
M  V30 19443 O 1798.6 6.77214 -4.3317 0
M  V30 19444 H 1798.34 0.674342 -0.0473177 0
M  V30 19445 H 1800.89 1.89894 -0.782909 0
M  V30 19446 H 1799.12 3.73808 0.990192 0
M  V30 19447 H 1800.81 4.00391 0.666485 0
M  V30 19448 H 1801.57 4.51818 -1.76312 0
M  V30 19449 H 1797.45 4.57845 -0.538387 0
M  V30 19450 H 1801 5.89538 -3.72948 0
M  V30 19451 H 1796.89 5.95283 -2.49617 0
M  V30 19452 H 1797.66 6.9562 -4.31341 0
M  V30 19453 N 1800.33 0.304 1.5464 0
M  V30 19454 C 1801.24 -0.580159 2.27313 0
M  V30 19455 C 1802.25 -1.14588 1.30941 0
M  V30 19456 O 1803.43 -1.17002 1.63928 0
M  V30 19457 C 1800.49 -1.73437 3.00201 0
M  V30 19458 C 1799.55 -1.20243 4.12116 0
M  V30 19459 C 1798.79 -2.30164 4.81519 0
M  V30 19460 O 1799.01 -3.50123 4.503 0
M  V30 19461 O 1797.94 -1.96686 5.68857 0
M  V30 19462 H 1801.77 0.00944552 3.03699 0
M  V30 19463 H 1799.35 0.0703565 1.49234 0
M  V30 19464 H 1801.24 -2.40677 3.45908 0
M  V30 19465 H 1799.91 -2.31053 2.26708 0
M  V30 19466 H 1798.82 -0.495679 3.70802 0
M  V30 19467 H 1800.15 -0.67167 4.87596 0
M  V30 19468 N 1801.8 -1.57568 0.0317802 0
M  V30 19469 C 1802.77 -2.09296 -0.934239 0
M  V30 19470 C 1803.77 -1.00855 -1.25239 0
M  V30 19471 O 1804.96 -1.27004 -1.19229 0
M  V30 19472 C 1802.09 -2.56103 -2.24998 0
M  V30 19473 H 1803.28 -2.95933 -0.486183 0
M  V30 19474 H 1800.83 -1.54796 -0.2163 0
M  V30 19475 H 1801.57 -1.72803 -2.74426 0
M  V30 19476 H 1801.35 -3.35329 -2.03216 0
M  V30 19477 H 1802.84 -2.96339 -2.94233 0
M  V30 19478 N 1803.28 0.241399 -1.5574 0
M  V30 19479 C 1804.7 0.590176 -1.48287 0
M  V30 19480 C 1804.9 1.8808 -0.723052 0
M  V30 19481 O 1803.95 2.51213 -0.25464 0
M  V30 19482 C 1805.27 0.687804 -2.92728 0
M  V30 19483 C 1806.82 0.779763 -3.03131 0
M  V30 19484 C 1807.29 0.908905 -4.48891 0
M  V30 19485 N 1808.78 0.973636 -4.52852 0
M  V30 19486 C 1809.52 1.09292 -5.62888 0
M  V30 19487 N 1809.01 1.1774 -6.82722 0
M  V30 19488 N 1810.81 1.12651 -5.50696 0
M  V30 19489 H 1802.96 -0.605781 -2.03578 0
M  V30 19490 H 1805.22 -0.209862 -0.924479 0
M  V30 19491 H 1804.93 -0.190608 -3.51183 0
M  V30 19492 H 1804.8 1.55794 -3.43523 0
M  V30 19493 H 1807.19 1.64863 -2.44754 0
M  V30 19494 H 1807.27 -0.115641 -2.55538 0
M  V30 19495 H 1806.91 0.0445788 -5.0788 0
M  V30 19496 H 1806.84 1.81943 -4.9417 0
M  V30 19497 H 1809.33 0.919469 -3.66544 0
M  V30 19498 H 1809.65 1.26764 -7.62332 0
M  V30 19499 H 1807.99 1.14688 -6.85472 0
M  V30 19500 H 1811.18 1.05703 -4.56009 0
M  V30 19501 H 1811.35 1.21602 -6.36488 0
M  V30 19502 N 1804.76 1.49212 0.507292 0
M  V30 19503 C 1806.01 1.58381 1.26181 0
M  V30 19504 C 1806.34 0.267704 1.92649 0
M  V30 19505 O 1805.59 -0.743892 1.8101 0
M  V30 19506 C 1805.89 2.68761 2.35589 0
M  V30 19507 C 1805.56 4.10467 1.86622 0
M  V30 19508 C 1804.22 4.49031 1.72986 0
M  V30 19509 C 1806.57 4.99179 1.49898 0
M  V30 19510 C 1803.9 5.74088 1.20995 0
M  V30 19511 C 1806.25 6.24748 0.993611 0
M  V30 19512 C 1804.91 6.62148 0.8436 0
M  V30 19513 H 1804.18 0.579558 0.461729 0
M  V30 19514 H 1806.83 1.83019 0.563581 0
M  V30 19515 H 1805.14 2.3807 3.11175 0
M  V30 19516 H 1806.83 2.73066 2.9366 0
M  V30 19517 H 1803.42 3.80023 1.98193 0
M  V30 19518 H 1807.61 4.70046 1.59282 0
M  V30 19519 H 1802.86 6.0177 1.08087 0
M  V30 19520 H 1807.04 6.92871 0.700235 0
M  V30 19521 H 1804.66 7.58934 0.43855 0
M  V30 19522 N 1806.24 -0.757876 1.38181 0
M  V30 19523 C 1807.17 -1.88108 1.3095 0
M  V30 19524 C 1808.18 -1.61272 0.222551 0
M  V30 19525 O 1809.37 -1.71931 0.479782 0
M  V30 19526 C 1806.47 -3.2365 1.00518 0
M  V30 19527 C 1805.65 -3.78024 2.20037 0
M  V30 19528 C 1804.7 -4.92073 1.86416 0
M  V30 19529 O 1803.73 -5.0693 2.58864 0
M  V30 19530 N 1804.93 -5.74728 0.816553 0
M  V30 19531 H 1807.7 -1.94823 2.27737 0
M  V30 19532 H 1805.26 -0.937616 1.31986 0
M  V30 19533 H 1807.25 -3.97483 0.760861 0
M  V30 19534 H 1805.82 -3.12348 0.125418 0
M  V30 19535 H 1805.04 -2.95807 2.60561 0
M  V30 19536 H 1806.33 -4.11085 2.99811 0
M  V30 19537 H 1805.73 -5.65289 0.215659 0
M  V30 19538 H 1804.28 -6.48728 0.63211 0
M  V30 19539 N 1807.72 -1.22979 -0.985586 0
M  V30 19540 C 1808.65 -0.964185 -2.07933 0
M  V30 19541 C 1809.66 0.0599162 -1.6269 0
M  V30 19542 O 1810.85 -0.174984 -1.7764 0
M  V30 19543 C 1807.95 -0.429879 -3.36163 0
M  V30 19544 C 1807.12 -1.51293 -4.10401 0
M  V30 19545 C 1806.18 -0.984411 -5.1691 0
M  V30 19546 O 1805.21 -1.67225 -5.44081 0
M  V30 19547 N 1806.41 0.190439 -5.80188 0
M  V30 19548 H 1809.18 -1.90582 -2.31297 0
M  V30 19549 H 1806.74 -1.13767 -1.15189 0
M  V30 19550 H 1808.73 -0.0614639 -4.04653 0
M  V30 19551 H 1807.3 0.417049 -3.09806 0
M  V30 19552 H 1806.52 -2.05434 -3.36438 0
M  V30 19553 H 1807.81 -2.24141 -4.56769 0
M  V30 19554 H 1807.2 0.765928 -5.60491 0
M  V30 19555 H 1805.76 0.500168 -6.49878 0
M  V30 19556 N 1809.19 1.18355 -1.04066 0
M  V30 19557 C 1810.14 2.21987 -0.631714 0
M  V30 19558 C 1811.11 1.62142 0.360462 0
M  V30 19559 O 1812.3 1.89096 0.254445 0
M  V30 19560 C 1809.44 3.451 -0.000843566 0
M  V30 19561 C 1808.55 4.19283 -1.04048 0
M  V30 19562 C 1807.68 5.29852 -0.37813 0
M  V30 19563 C 1806.72 5.95807 -1.40287 0
M  V30 19564 N 1805.86 6.97915 -0.765481 0
M  V30 19565 H 1810.7 2.56323 -1.51995 0
M  V30 19566 H 1808.24 1.25923 -0.760384 0
M  V30 19567 H 1810.2 4.15445 0.382267 0
M  V30 19568 H 1808.83 3.11383 0.850911 0
M  V30 19569 H 1807.88 3.47765 -1.54154 0
M  V30 19570 H 1809.19 4.64457 -1.81882 0
M  V30 19571 H 1808.34 6.06671 0.059186 0
M  V30 19572 H 1807.08 4.8578 0.432293 0
M  V30 19573 H 1806.09 5.17729 -1.85032 0
M  V30 19574 H 1807.31 6.41962 -2.21499 0
M  V30 19575 H 1805.26 6.55995 0.0246364 0
M  V30 19576 H 1805.18 7.41341 -1.48152 0
M  V30 19577 H 1806.44 7.78702 -0.35256 0
M  V30 19578 N 1810.67 0.820125 1.3458 0
M  V30 19579 C 1811.6 0.254709 2.32107 0
M  V30 19580 C 1812.58 -0.6273 1.58111 0
M  V30 19581 O 1813.77 -0.554759 1.86108 0
M  V30 19582 C 1810.9 -0.586541 3.42311 0
M  V30 19583 C 1809.85 0.198096 4.27541 0
M  V30 19584 C 1809.18 -0.765718 5.29189 0
M  V30 19585 C 1810.48 1.40472 5.03056 0
M  V30 19586 H 1812.17 1.06955 2.79644 0
M  V30 19587 H 1809.72 0.515756 1.34447 0
M  V30 19588 H 1811.67 -0.992259 4.09551 0
M  V30 19589 H 1810.4 -1.4344 2.93415 0
M  V30 19590 H 1809.05 0.585149 3.619 0
M  V30 19591 H 1808.7 -1.60946 4.76556 0
M  V30 19592 H 1808.4 -0.244954 5.87089 0
M  V30 19593 H 1809.93 -1.16935 5.99298 0
M  V30 19594 H 1811.34 1.07316 5.63166 0
M  V30 19595 H 1809.74 1.86092 5.70517 0
M  V30 19596 H 1810.81 2.18437 4.32913 0
M  V30 19597 N 1812.15 -1.46743 0.574835 0
M  V30 19598 C 1813.08 -2.33012 -0.150836 0
M  V30 19599 C 1814.06 -1.44868 -0.891472 0
M  V30 19600 O 1815.25 -1.73698 -0.868481 0
M  V30 19601 C 1812.38 -3.26995 -1.17012 0
M  V30 19602 C 1811.33 -4.24518 -0.544829 0
M  V30 19603 C 1810.66 -5.07951 -1.67002 0
M  V30 19604 C 1811.96 -5.19776 0.512891 0
M  V30 19605 H 1813.65 -2.93935 0.569433 0
M  V30 19606 H 1811.2 -1.41344 0.275289 0
M  V30 19607 H 1813.15 -3.86198 -1.68609 0
M  V30 19608 H 1811.87 -2.64163 -1.92056 0
M  V30 19609 H 1810.53 -3.66566 -0.0500133 0
M  V30 19610 H 1810.18 -4.4151 -2.40993 0
M  V30 19611 H 1809.88 -5.73991 -1.25732 0
M  V30 19612 H 1811.4 -5.70017 -2.1889 0
M  V30 19613 H 1812.82 -5.73241 0.0823064 0
M  V30 19614 H 1811.22 -5.94114 0.845462 0
M  V30 19615 H 1812.29 -4.64184 1.40217 0
M  V30 19616 N 1813.63 -0.312197 -1.54477 0
M  V30 19617 C 1814.54 0.568096 -2.27618 0
M  V30 19618 C 1815.55 1.13892 -1.31547 0
M  V30 19619 O 1816.73 1.16131 -1.64546 0
M  V30 19620 C 1813.8 1.71843 -3.01116 0
M  V30 19621 C 1812.86 1.18056 -4.12748 0
M  V30 19622 C 1812.09 2.27607 -4.82733 0
M  V30 19623 O 1812.31 3.4773 -4.52151 0
M  V30 19624 O 1811.25 1.93667 -5.69892 0
M  V30 19625 H 1815.07 -0.0255513 -3.03689 0
M  V30 19626 H 1812.66 -0.0782698 -1.49195 0
M  V30 19627 H 1814.54 2.38839 -3.4718 0
M  V30 19628 H 1813.21 2.29847 -2.2793 0
M  V30 19629 H 1812.12 0.476007 -3.71059 0
M  V30 19630 H 1813.45 0.645802 -4.87945 0
M  V30 19631 N 1815.11 1.57549 -0.040136 0
M  V30 19632 C 1816.34 1.96272 0.645049 0
M  V30 19633 C 1816.74 0.915804 1.65559 0
M  V30 19634 O 1816.09 -0.109666 1.83372 0
M  V30 19635 C 1816.15 3.31187 1.3984 0
M  V30 19636 C 1815.81 4.53739 0.544953 0
M  V30 19637 C 1816.81 5.19573 -0.184369 0
M  V30 19638 C 1814.5 5.0001 0.479119 0
M  V30 19639 C 1816.49 6.30006 -0.968081 0
M  V30 19640 C 1814.18 6.10322 -0.30829 0
M  V30 19641 C 1815.17 6.7518 -1.03059 0
M  V30 19642 O 1814.86 7.83373 -1.80507 0
M  V30 19643 H 1814.59 0.651051 0.181958 0
M  V30 19644 H 1817.15 2.05159 -0.0995179 0
M  V30 19645 H 1815.38 3.18823 2.18835 0
M  V30 19646 H 1817.07 3.54735 1.97276 0
M  V30 19647 H 1817.83 4.84789 -0.142908 0
M  V30 19648 H 1813.71 4.49325 1.0309 0
M  V30 19649 H 1817.26 6.80562 -1.53237 0
M  V30 19650 H 1813.15 6.44543 -0.351428 0
M  V30 19651 H 1813.92 8.00094 -1.72601 0
M  V30 19652 N 1816.58 -0.233136 1.55866 0
M  V30 19653 C 1817.81 -0.976415 1.82411 0
M  V30 19654 C 1818.23 -1.78409 0.617724 0
M  V30 19655 O 1817.58 -1.77749 -0.413709 0
M  V30 19656 C 1817.64 -1.90328 3.07339 0
M  V30 19657 O 1817.36 -1.12828 4.23322 0
M  V30 19658 C 1818.86 -2.76142 3.46786 0
M  V30 19659 H 1816.08 -0.2867 0.606666 0
M  V30 19660 H 1818.62 -0.251863 2.02943 0
M  V30 19661 H 1816.78 -2.58193 2.88816 0
M  V30 19662 H 1817.19 -1.75643 4.94216 0
M  V30 19663 H 1818.66 -3.36901 4.37266 0
M  V30 19664 H 1819.14 -3.47953 2.68003 0
M  V30 19665 H 1819.75 -2.13708 3.67708 0
M  V30 19666 N 1818.06 -1.49479 -0.499372 0
M  V30 19667 C 1819.34 -1.4955 -1.26071 0
M  V30 19668 C 1819.72 -0.224142 -2.09907 0
M  V30 19669 O 1819.07 0.793432 -2.14282 0
M  V30 19670 C 1819.28 -2.77534 -2.11604 0
M  V30 19671 C 1820.63 -3.27088 -2.70738 0
M  V30 19672 O 1821.65 -2.78662 -2.2187 0
M  V30 19673 O 1820.51 -4.11432 -3.59703 0
M  V30 19674 H 1817.6 -0.598631 -0.570587 0
M  V30 19675 H 1820.15 -1.61744 -0.513509 0
M  V30 19676 H 1818.92 -3.61556 -1.49642 0
M  V30 19677 H 1818.54 -2.68208 -2.93514 0
M  V30 19678 N 1819.54 0.750537 -1.38581 0
M  V30 19679 C 1820.77 1.54489 -1.38376 0
M  V30 19680 C 1821.19 1.88085 0.023634 0
M  V30 19681 O 1820.55 1.50794 1.00652 0
M  V30 19682 C 1820.6 2.81875 -2.24897 0
M  V30 19683 O 1819.7 3.77155 -1.66817 0
M  V30 19684 H 1819.04 0.467148 -0.471878 0
M  V30 19685 H 1821.57 0.927264 -1.82381 0
M  V30 19686 H 1821.58 3.30769 -2.38864 0
M  V30 19687 H 1820.26 2.56753 -3.27186 0
M  V30 19688 H 1818.83 3.35868 -1.62009 0
M  V30 19689 N 1821.02 1.235 0.979051 0
M  V30 19690 C 1821.97 1.01485 2.09293 0
M  V30 19691 C 1822.96 -0.0465937 1.69336 0
M  V30 19692 O 1824.17 0.107021 1.79682 0
M  V30 19693 H 1820.54 0.311087 0.684638 0
M  V30 19694 H 1822.51 1.95972 2.25028 0
M  V30 19695 C 1821.26 0.624167 3.42052 0
M  V30 19696 H 1820.59 1.43265 3.73249 0
M  V30 19697 H 1822.03 0.509648 4.20926 0
M  V30 19698 C 1820.48 -0.667694 3.30217 0
M  V30 19699 O 1821.01 -1.71648 3.6318 0
M  V30 19700 N 1819.22 -0.644122 2.83372 0
M  V30 19701 H 1818.77 0.20969 2.56745 0
M  V30 19702 H 1818.73 -1.50872 2.75835 0
M  V30 19703 N 1822.5 -1.17802 1.04693 0
M  V30 19704 C 1823.45 -2.23698 0.637319 0
M  V30 19705 C 1824.44 -1.65974 -0.338957 0
M  V30 19706 O 1825.65 -1.78822 -0.205565 0
M  V30 19707 H 1822.02 -0.728146 0.187903 0
M  V30 19708 H 1823.99 -2.55549 1.5407 0
M  V30 19709 C 1822.74 -3.47693 0.0227662 0
M  V30 19710 H 1822.06 -3.92412 0.765058 0
M  V30 19711 H 1823.5 -4.23394 -0.22653 0
M  V30 19712 C 1821.96 -3.13679 -1.22912 0
M  V30 19713 O 1822.49 -3.27993 -2.31913 0
M  V30 19714 N 1820.7 -2.67948 -1.12483 0
M  V30 19715 H 1820.25 -2.565 -0.237818 0
M  V30 19716 H 1820.2 -2.45562 -1.96333 0
M  V30 19717 N 1823.98 -0.827251 -1.34143 0
M  V30 19718 C 1825.22 -0.413762 -1.9741 0
M  V30 19719 C 1825.54 1.0297 -1.66303 0
M  V30 19720 O 1826.74 1.5473 -2.23094 0
M  V30 19721 C 1825.2 -0.688904 -3.53245 0
M  V30 19722 C 1824.81 -2.14627 -3.93242 0
M  V30 19723 C 1826.55 -0.341794 -4.23122 0
M  V30 19724 C 1824.46 -2.36607 -5.42006 0
M  V30 19725 H 1823.39 -0.150982 -0.738729 0
M  V30 19726 H 1826.04 -1.01421 -1.52925 0
M  V30 19727 H 1824.42 -0.0182319 -3.95996 0
M  V30 19728 H 1825.6 -2.85646 -3.61584 0
M  V30 19729 H 1823.91 -2.45523 -3.36314 0
M  V30 19730 H 1826.51 -0.483797 -5.32507 0
M  V30 19731 H 1826.85 0.714135 -4.10129 0
M  V30 19732 H 1827.38 -0.96722 -3.85862 0
M  V30 19733 H 1824.12 -3.40722 -5.5999 0
M  V30 19734 H 1823.64 -1.70137 -5.75164 0
M  V30 19735 H 1825.32 -2.19181 -6.08744 0
M  V30 19736 N 1825.45 1.46436 -0.582609 0
M  V30 19737 C 1826.42 2.28769 0.140502 0
M  V30 19738 C 1827.42 1.38385 0.818911 0
M  V30 19739 O 1828.61 1.60763 0.670882 0
M  V30 19740 C 1825.74 3.18765 1.20836 0
M  V30 19741 H 1826.93 2.94178 -0.583049 0
M  V30 19742 H 1824.48 1.52544 -0.340575 0
M  V30 19743 H 1825.22 2.58103 1.9635 0
M  V30 19744 H 1825 3.85312 0.726417 0
M  V30 19745 H 1826.49 3.80735 1.71553 0
M  V30 19746 N 1826.93 0.320385 1.54309 0
M  V30 19747 C 1828.16 -0.28794 2.05391 0
M  V30 19748 C 1828.58 -1.45249 1.19517 0
M  V30 19749 O 1827.94 -1.80154 0.203556 0
M  V30 19750 C 1827.99 -0.703261 3.53676 0
M  V30 19751 O 1827.09 -1.80598 3.70753 0
M  V30 19752 H 1826.43 -0.052589 0.661914 0
M  V30 19753 H 1828.96 0.46787 1.99179 0
M  V30 19754 H 1828.97 -0.986793 3.95887 0
M  V30 19755 H 1827.65 0.148514 4.15635 0
M  V30 19756 H 1826.22 -1.5215 3.40448 0
M  V30 19757 N 1828.41 -1.57525 0.0484906 0
M  V30 19758 C 1829.34 -2.14405 -0.924811 0
M  V30 19759 C 1830.32 -1.06503 -1.32631 0
M  V30 19760 O 1831.51 -1.3443 -1.4015 0
M  V30 19761 C 1828.64 -2.68686 -2.20057 0
M  V30 19762 C 1827.59 -3.81547 -1.93922 0
M  V30 19763 C 1826.92 -4.22334 -3.27929 0
M  V30 19764 C 1828.22 -5.06801 -1.26295 0
M  V30 19765 H 1829.91 -2.95983 -0.45105 0
M  V30 19766 H 1827.46 -1.42378 -0.215514 0
M  V30 19767 H 1829.41 -3.07117 -2.88543 0
M  V30 19768 H 1828.13 -1.84296 -2.69634 0
M  V30 19769 H 1826.79 -3.43585 -1.27848 0
M  V30 19770 H 1826.44 -3.34899 -3.75302 0
M  V30 19771 H 1826.14 -4.984 -3.11242 0
M  V30 19772 H 1827.66 -4.63363 -3.97652 0
M  V30 19773 H 1829.08 -5.42695 -1.84812 0
M  V30 19774 H 1827.47 -5.87991 -1.19943 0
M  V30 19775 H 1828.54 -4.84313 -0.238605 0
M  V30 19776 N 1829.89 0.224867 -1.55988 0
M  V30 19777 C 1831.13 0.949747 -1.78846 0
M  V30 19778 C 1831.46 1.84465 -0.616678 0
M  V30 19779 O 1830.72 1.91587 0.399098 0
M  V30 19780 C 1831.02 1.8227 -3.07429 0
M  V30 19781 C 1830.68 1.08131 -4.37743 0
M  V30 19782 C 1829.34 0.876497 -4.7315 0
M  V30 19783 C 1831.7 0.557505 -5.1821 0
M  V30 19784 C 1829.02 0.13593 -5.86543 0
M  V30 19785 C 1831.38 -0.169702 -6.32372 0
M  V30 19786 C 1830.04 -0.385796 -6.66384 0
M  V30 19787 H 1829.31 0.347537 -0.654446 0
M  V30 19788 H 1831.96 0.218162 -1.90253 0
M  V30 19789 H 1830.26 2.62204 -2.91129 0
M  V30 19790 H 1831.96 2.38564 -3.22317 0
M  V30 19791 H 1828.55 1.25091 -4.09939 0
M  V30 19792 H 1832.73 0.703218 -4.91293 0
M  V30 19793 H 1827.99 -0.0417543 -6.11386 0
M  V30 19794 H 1832.16 -0.583104 -6.93955 0
M  V30 19795 H 1829.79 -0.961574 -7.54094 0
M  V30 19796 N 1831.37 1.49742 0.491438 0
M  V30 19797 C 1832.3 1.70033 1.60034 0
M  V30 19798 C 1833.28 0.549076 1.60994 0
M  V30 19799 O 1834.46 0.785983 1.77584 0
M  V30 19800 C 1831.59 1.7757 2.98473 0
M  V30 19801 C 1830.55 2.9258 3.12379 0
M  V30 19802 C 1829.87 2.85239 4.52264 0
M  V30 19803 C 1831.17 4.33385 2.91504 0
M  V30 19804 H 1832.87 2.62875 1.43307 0
M  V30 19805 H 1830.41 1.26502 0.687989 0
M  V30 19806 H 1832.36 1.90351 3.75958 0
M  V30 19807 H 1831.09 0.813343 3.1631 0
M  V30 19808 H 1829.75 2.79417 2.37322 0
M  V30 19809 H 1829.4 1.86892 4.66991 0
M  V30 19810 H 1829.1 3.62437 4.62508 0
M  V30 19811 H 1830.62 3.00041 5.31797 0
M  V30 19812 H 1832.03 4.4718 3.58752 0
M  V30 19813 H 1830.43 5.11878 3.13211 0
M  V30 19814 H 1831.5 4.47166 1.87539 0
M  V30 19815 N 1832.84 -0.743177 1.38977 0
M  V30 19816 C 1834.07 -1.53243 1.39011 0
M  V30 19817 C 1834.49 -1.88792 -0.0174858 0
M  V30 19818 O 1833.84 -1.53523 -0.986766 0
M  V30 19819 C 1833.9 -2.8251 2.25544 0
M  V30 19820 O 1833.62 -2.48474 3.60821 0
M  V30 19821 C 1835.12 -3.76588 2.33872 0
M  V30 19822 H 1832.34 -0.473832 0.475104 0
M  V30 19823 H 1834.88 -0.918958 1.82689 0
M  V30 19824 H 1833.04 -3.4021 1.853 0
M  V30 19825 H 1833.45 -3.31454 4.06495 0
M  V30 19826 H 1834.92 -4.64211 2.98684 0
M  V30 19827 H 1835.4 -4.17761 1.35544 0
M  V30 19828 H 1836.01 -3.24811 2.74551 0
M  V30 19829 N 1834.32 -1.24018 -0.972487 0
M  V30 19830 C 1835.29 -1.02941 -2.04782 0
M  V30 19831 C 1836.29 0.0115861 -1.60796 0
M  V30 19832 O 1837.48 -0.228922 -1.72689 0
M  V30 19833 C 1834.61 -0.559246 -3.36282 0
M  V30 19834 H 1835.8 -1.98379 -2.24913 0
M  V30 19835 H 1833.35 -1.06173 -1.14704 0
M  V30 19836 H 1834.09 0.398545 -3.21842 0
M  V30 19837 H 1833.87 -1.31054 -3.6955 0
M  V30 19838 H 1835.36 -0.432669 -4.15353 0
M  V30 19839 N 1835.8 1.17245 -1.05316 0
M  V30 19840 C 1836.76 2.19508 -0.659467 0
M  V30 19841 C 1837.76 1.58169 0.289697 0
M  V30 19842 O 1838.95 1.74045 0.0734019 0
M  V30 19843 C 1836.09 3.40886 0.0311886 0
M  V30 19844 H 1837.28 2.55852 -1.5646 0
M  V30 19845 H 1834.83 1.31348 -0.847193 0
M  V30 19846 H 1835.57 3.10088 0.949535 0
M  V30 19847 H 1835.35 3.86655 -0.651191 0
M  V30 19848 H 1836.84 4.16573 0.292702 0
M  V30 19849 N 1837.28 0.834353 1.33702 0
M  V30 19850 C 1838.23 0.252818 2.31222 0
M  V30 19851 C 1839.22 -0.612723 1.57931 0
M  V30 19852 O 1840.43 -0.502788 1.72835 0
M  V30 19853 H 1836.8 0.0630243 0.749354 0
M  V30 19854 H 1838.77 1.08992 2.77783 0
M  V30 19855 C 1837.52 -0.561132 3.43142 0
M  V30 19856 H 1836.84 0.0955723 3.99686 0
M  V30 19857 H 1838.28 -0.933951 4.13586 0
M  V30 19858 C 1836.74 -1.73817 2.88599 0
M  V30 19859 O 1837.27 -2.83674 2.84415 0
M  V30 19860 N 1835.48 -1.5586 2.45267 0
M  V30 19861 H 1835.03 -0.664959 2.4887 0
M  V30 19862 H 1834.98 -2.34764 2.09125 0
M  V30 19863 N 1838.76 -1.46125 0.590367 0
M  V30 19864 C 1840.17 -1.57588 0.252639 0
M  V30 19865 C 1840.37 -1.58435 -1.24502 0
M  V30 19866 O 1839.43 -1.50541 -2.02716 0
M  V30 19867 C 1840.74 -2.86644 0.908612 0
M  V30 19868 C 1842.29 -3.00289 0.882917 0
M  V30 19869 C 1842.76 -4.32092 1.51858 0
M  V30 19870 N 1844.26 -4.38809 1.48327 0
M  V30 19871 C 1844.99 -5.39426 1.94442 0
M  V30 19872 N 1844.49 -6.46674 2.48565 0
M  V30 19873 N 1846.28 -5.30675 1.85313 0
M  V30 19874 H 1838.43 -1.43819 1.56301 0
M  V30 19875 H 1840.69 -0.686515 0.653759 0
M  V30 19876 H 1840.4 -2.91857 1.96246 0
M  V30 19877 H 1840.27 -3.74838 0.421445 0
M  V30 19878 H 1842.66 -2.94653 -0.16233 0
M  V30 19879 H 1842.74 -2.13551 1.40818 0
M  V30 19880 H 1842.39 -4.38486 2.56306 0
M  V30 19881 H 1842.32 -5.17618 0.968474 0
M  V30 19882 H 1844.81 -3.61907 1.08772 0
M  V30 19883 H 1845.12 -7.19671 2.8159 0
M  V30 19884 H 1843.46 -6.47473 2.52595 0
M  V30 19885 H 1846.66 -4.45793 1.42782 0
M  V30 19886 H 1846.83 -6.08943 2.21567 0
M  V30 19887 N 1840.23 -0.328564 -1.54137 0
M  V30 19888 C 1841.48 0.265652 -2.01658 0
M  V30 19889 C 1841.84 1.49385 -1.21251 0
M  V30 19890 O 1841.13 1.89425 -0.28787 0
M  V30 19891 C 1841.32 0.646813 -3.51498 0
M  V30 19892 C 1841.15 -0.542899 -4.46411 0
M  V30 19893 C 1839.92 -1.04356 -4.94407 0
M  V30 19894 C 1842.12 -1.39666 -4.94972 0
M  V30 19895 N 1840.1 -2.19716 -5.73235 0
M  V30 19896 C 1841.47 -2.39737 -5.71775 0
M  V30 19897 C 1843.53 -1.42385 -4.77107 0
M  V30 19898 C 1842.23 -3.42336 -6.32613 0
M  V30 19899 C 1844.26 -2.43857 -5.38783 0
M  V30 19900 C 1843.62 -3.42654 -6.15441 0
M  V30 19901 H 1839.72 0.0609186 -0.779624 0
M  V30 19902 H 1842.3 -0.464736 -1.89072 0
M  V30 19903 H 1840.47 1.34633 -3.64319 0
M  V30 19904 H 1842.2 1.22293 -3.8578 0
M  V30 19905 H 1838.96 -0.614041 -4.69602 0
M  V30 19906 H 1839.38 -2.77919 -6.17325 0
M  V30 19907 H 1844.03 -0.673681 -4.17398 0
M  V30 19908 H 1841.74 -4.18256 -6.91439 0
M  V30 19909 H 1845.33 -2.46769 -5.26874 0
M  V30 19910 H 1844.21 -4.19886 -6.62318 0
M  V30 19911 N 1841.71 1.57497 -0.0568439 0
M  V30 19912 C 1842.64 2.14892 0.913427 0
M  V30 19913 C 1843.62 1.07205 1.32065 0
M  V30 19914 O 1844.81 1.35172 1.39435 0
M  V30 19915 C 1841.94 2.69849 2.18629 0
M  V30 19916 C 1840.89 3.8257 1.91896 0
M  V30 19917 C 1840.22 4.24068 3.25685 0
M  V30 19918 C 1841.52 5.07463 1.23606 0
M  V30 19919 H 1843.21 2.96218 0.435347 0
M  V30 19920 H 1840.76 1.4249 0.20796 0
M  V30 19921 H 1842.71 3.08643 2.86911 0
M  V30 19922 H 1841.44 1.85723 2.68653 0
M  V30 19923 H 1840.09 3.44258 1.26024 0
M  V30 19924 H 1839.74 3.36884 3.73521 0
M  V30 19925 H 1839.44 5.00043 3.08594 0
M  V30 19926 H 1840.97 4.65466 3.95189 0
M  V30 19927 H 1842.38 5.43667 1.81931 0
M  V30 19928 H 1840.78 5.88619 1.16823 0
M  V30 19929 H 1841.85 4.84432 0.212918 0
M  V30 19930 N 1843.19 -0.216591 1.56105 0
M  V30 19931 C 1844.1 -1.28933 1.95994 0
M  V30 19932 C 1845.12 -1.51007 0.864464 0
M  V30 19933 O 1846.29 -1.6404 1.16845 0
M  V30 19934 C 1843.36 -2.61807 2.27284 0
M  V30 19935 C 1842.42 -2.47992 3.50426 0
M  V30 19936 C 1841.65 -3.7453 3.80214 0
M  V30 19937 O 1841.87 -4.77765 3.11604 0
M  V30 19938 O 1840.81 -3.71345 4.73694 0
M  V30 19939 H 1844.63 -0.980864 2.87424 0
M  V30 19940 H 1842.22 -0.419859 1.43379 0
M  V30 19941 H 1844.1 -3.40272 2.48582 0
M  V30 19942 H 1842.78 -2.92324 1.39026 0
M  V30 19943 H 1841.68 -1.67711 3.34401 0
M  V30 19944 H 1843.02 -2.22413 4.39082 0
M  V30 19945 N 1844.67 -1.5 -0.48349 0
M  V30 19946 C 1845.91 -1.60606 -1.23829 0
M  V30 19947 C 1846.25 -0.299778 -1.91872 0
M  V30 19948 O 1845.52 0.697925 -1.81547 0
M  V30 19949 C 1845.81 -2.77769 -2.29165 0
M  V30 19950 C 1845.66 -4.18243 -1.65507 0
M  V30 19951 C 1846.98 -2.90521 -3.30584 0
M  V30 19952 H 1844.1 -0.584561 -0.44884 0
M  V30 19953 H 1846.74 -1.82346 -0.533855 0
M  V30 19954 H 1844.89 -2.59364 -2.89245 0
M  V30 19955 H 1846.56 -4.48208 -1.09119 0
M  V30 19956 H 1844.8 -4.23077 -0.958577 0
M  V30 19957 H 1845.47 -4.96128 -2.41994 0
M  V30 19958 H 1847.95 -3.0733 -2.80513 0
M  V30 19959 H 1846.83 -3.74146 -4.0163 0
M  V30 19960 H 1847.09 -2.00609 -3.93965 0
M  V30 19961 N 1846.15 0.735796 -1.39369 0
M  V30 19962 C 1847.56 1.04124 -1.20956 0
M  V30 19963 C 1847.76 2.01376 -0.0705944 0
M  V30 19964 O 1846.82 2.45795 0.577999 0
M  V30 19965 C 1848.13 1.60429 -2.54329 0
M  V30 19966 C 1849.68 1.72513 -2.61167 0
M  V30 19967 C 1850.15 2.32227 -3.94759 0
M  V30 19968 N 1851.65 2.39638 -3.96394 0
M  V30 19969 C 1852.38 2.86777 -4.96534 0
M  V30 19970 N 1851.88 3.3382 -6.07072 0
M  V30 19971 N 1853.67 2.85979 -4.83913 0
M  V30 19972 H 1845.82 0.0907834 -2.12206 0
M  V30 19973 H 1848.08 0.102896 -0.942399 0
M  V30 19974 H 1847.79 0.964351 -3.38221 0
M  V30 19975 H 1847.66 2.59247 -2.73991 0
M  V30 19976 H 1850.05 2.35629 -1.77659 0
M  V30 19977 H 1850.13 0.723507 -2.45355 0
M  V30 19978 H 1849.78 1.69739 -4.78697 0
M  V30 19979 H 1849.71 3.33066 -4.07891 0
M  V30 19980 H 1852.2 2.06388 -3.16563 0
M  V30 19981 H 1852.51 3.68297 -6.79395 0
M  V30 19982 H 1850.85 3.3183 -6.10666 0
M  V30 19983 H 1854.05 2.48551 -3.96661 0
M  V30 19984 H 1854.22 3.22403 -5.62104 0
M  V30 19985 N 1847.63 1.24532 0.965897 0
M  V30 19986 C 1848.56 0.982507 2.05966 0
M  V30 19987 C 1849.54 -0.0843549 1.62381 0
M  V30 19988 O 1850.72 0.0529576 1.88426 0
M  V30 19989 C 1847.85 0.48302 3.35238 0
M  V30 19990 C 1846.89 1.5387 3.97777 0
M  V30 19991 S 1847.73 3.12058 4.35178 0
M  V30 19992 C 1848.88 2.63816 5.67584 0
M  V30 19993 H 1849.12 1.90865 2.27942 0
M  V30 19994 H 1846.65 1.07937 1.10404 0
M  V30 19995 H 1848.61 0.201466 4.10005 0
M  V30 19996 H 1847.27 -0.422443 3.11246 0
M  V30 19997 H 1846.46 1.13967 4.90946 0
M  V30 19998 H 1846.06 1.77036 3.29446 0
M  V30 19999 H 1848.35 2.0674 6.45186 0
M  V30 20000 H 1849.3 3.55581 6.12346 0
M  V30 20001 H 1849.71 2.04183 5.26279 0
M  V30 20002 N 1849.1 -1.16685 1.05936 0
M  V30 20003 C 1850.01 -2.24591 0.677931 0
M  V30 20004 C 1851.03 -1.71317 -0.304397 0
M  V30 20005 O 1852.21 -2.00806 -0.154615 0
M  V30 20006 C 1849.27 -3.46636 0.0664037 0
M  V30 20007 C 1848.33 -4.14964 1.10014 0
M  V30 20008 C 1847.56 -5.31183 0.517697 0
M  V30 20009 O 1847.79 -5.66444 -0.670637 0
M  V30 20010 O 1846.72 -5.88657 1.25563 0
M  V30 20011 H 1850.55 -2.5952 1.57743 0
M  V30 20012 H 1848.13 -1.2413 0.831395 0
M  V30 20013 H 1850.01 -4.20514 -0.273069 0
M  V30 20014 H 1848.69 -3.13489 -0.806634 0
M  V30 20015 H 1847.6 -3.43072 1.49173 0
M  V30 20016 H 1848.93 -4.52158 1.94458 0
M  V30 20017 N 1850.58 -0.841432 -1.33258 0
M  V30 20018 C 1851.81 -0.451287 -2.01611 0
M  V30 20019 C 1852.22 0.952858 -1.63454 0
M  V30 20020 O 1851.56 1.6311 -0.845039 0
M  V30 20021 C 1851.62 -0.495287 -3.56072 0
M  V30 20022 C 1851.29 -1.856 -4.17614 0
M  V30 20023 C 1852.29 -2.81959 -4.36801 0
M  V30 20024 C 1849.97 -2.14953 -4.53983 0
M  V30 20025 C 1851.96 -4.05832 -4.91507 0
M  V30 20026 C 1849.65 -3.39083 -5.08395 0
M  V30 20027 C 1850.65 -4.34339 -5.27104 0
M  V30 20028 O 1850.34 -5.56273 -5.80359 0
M  V30 20029 H 1850.07 -0.177188 -0.652365 0
M  V30 20030 H 1852.62 -1.13629 -1.71107 0
M  V30 20031 H 1850.85 0.246506 -3.85914 0
M  V30 20032 H 1852.54 -0.122606 -4.05715 0
M  V30 20033 H 1853.31 -2.60582 -4.0905 0
M  V30 20034 H 1849.19 -1.41602 -4.38714 0
M  V30 20035 H 1852.73 -4.80192 -5.06025 0
M  V30 20036 H 1848.63 -3.60316 -5.35577 0
M  V30 20037 H 1849.4 -5.58047 -5.9877 0
M  V30 20038 N 1852.06 1.4581 -0.598108 0
M  V30 20039 C 1853.31 2.01511 -0.0872421 0
M  V30 20040 C 1853.62 1.47345 1.28642 0
M  V30 20041 O 1854.83 1.94963 1.88949 0
M  V30 20042 C 1853.28 3.59746 -0.105317 0
M  V30 20043 C 1852.89 4.22909 -1.47824 0
M  V30 20044 C 1854.64 4.23048 0.350802 0
M  V30 20045 C 1852.54 5.73268 -1.45321 0
M  V30 20046 H 1851.47 0.753448 -0.0288462 0
M  V30 20047 H 1854.12 1.67382 -0.752037 0
M  V30 20048 H 1852.51 3.91022 0.625947 0
M  V30 20049 H 1853.68 4.03221 -2.23046 0
M  V30 20050 H 1851.99 3.71763 -1.87566 0
M  V30 20051 H 1854.59 5.33286 0.388561 0
M  V30 20052 H 1854.93 3.93058 1.37155 0
M  V30 20053 H 1855.47 3.96455 -0.326889 0
M  V30 20054 H 1852.21 6.07942 -2.45126 0
M  V30 20055 H 1851.73 5.95175 -0.743436 0
M  V30 20056 H 1853.41 6.36283 -1.17275 0
M  V30 20057 N 1853.54 0.336733 1.53961 0
M  V30 20058 C 1854.79 -0.261343 2.00403 0
M  V30 20059 C 1855.11 -1.51612 1.22633 0
M  V30 20060 O 1854.38 -1.93072 0.331659 0
M  V30 20061 H 1852.96 -0.0995594 0.740336 0
M  V30 20062 H 1855.62 0.456319 1.89483 0
M  V30 20063 H 1854.71 -0.508557 3.07929 0
M  V30 20064 N 1855.02 -1.57465 0.0651956 0
M  V30 20065 C 1855.98 -2.1123 -0.889634 0
M  V30 20066 C 1856.98 -1.03489 -1.23072 0
M  V30 20067 O 1858.17 -1.29505 -1.16508 0
M  V30 20068 C 1855.3 -2.60818 -2.19515 0
M  V30 20069 H 1856.49 -2.96898 -0.423301 0
M  V30 20070 H 1854.05 -1.5522 -0.183417 0
M  V30 20071 H 1854.78 -1.78585 -2.70699 0
M  V30 20072 H 1854.57 -3.39564 -1.96057 0
M  V30 20073 H 1856.06 -3.02513 -2.87881 0
M  V30 20074 N 1856.49 0.20831 -1.56217 0
M  V30 20075 C 1857.73 0.937642 -1.81625 0
M  V30 20076 C 1858.1 1.80994 -0.640716 0
M  V30 20077 O 1859.3 2.57404 -0.774387 0
M  V30 20078 C 1857.57 1.74339 -3.11995 0
M  V30 20079 S 1859.13 2.52655 -3.58763 0
M  V30 20080 H 1855.95 0.314732 -0.637546 0
M  V30 20081 H 1858.55 0.202106 -1.94453 0
M  V30 20082 H 1857.25 1.09294 -3.95579 0
M  V30 20083 H 1856.78 2.52098 -3.0201 0
M  V30 20084 H 1858.8 3.76547 -3.23151 0
M  V30 20085 N 1857.97 1.50255 0.475528 0
M  V30 20086 C 1859.22 1.61261 1.22975 0
M  V30 20087 C 1859.55 0.309949 1.91711 0
M  V30 20088 O 1858.83 -0.688288 1.81914 0
M  V30 20089 C 1859.11 2.7898 2.27688 0
M  V30 20090 C 1858.96 4.19115 1.63287 0
M  V30 20091 C 1860.28 2.9227 3.29038 0
M  V30 20092 H 1857.4 0.586933 0.445734 0
M  V30 20093 H 1860.04 1.82626 0.524177 0
M  V30 20094 H 1858.19 2.60894 2.87865 0
M  V30 20095 H 1859.86 4.48781 1.06741 0
M  V30 20096 H 1858.11 4.23579 0.936127 0
M  V30 20097 H 1858.78 4.97405 2.39359 0
M  V30 20098 H 1861.25 3.08813 2.78879 0
M  V30 20099 H 1860.13 3.7627 3.9964 0
M  V30 20100 H 1860.39 2.02696 3.92895 0
M  V30 20101 N 1859.45 -0.728395 1.39758 0
M  V30 20102 C 1860.7 -1.49028 1.37544 0
M  V30 20103 C 1861.03 -1.94182 -0.0265175 0
M  V30 20104 O 1860.3 -1.67257 -0.992737 0
M  V30 20105 C 1860.59 -2.72535 2.35365 0
M  V30 20106 C 1860.44 -2.33358 3.84531 0
M  V30 20107 C 1861.76 -3.74656 2.30914 0
M  V30 20108 H 1858.88 -0.540587 0.500934 0
M  V30 20109 H 1861.52 -0.832335 1.70799 0
M  V30 20110 H 1859.67 -3.28674 2.07137 0
M  V30 20111 H 1861.34 -1.828 4.23535 0
M  V30 20112 H 1859.58 -1.65508 4.00986 0
M  V30 20113 H 1860.26 -3.21832 4.48473 0
M  V30 20114 H 1862.73 -3.28117 2.55888 0
M  V30 20115 H 1861.61 -4.58729 3.01428 0
M  V30 20116 H 1861.87 -4.22047 1.31639 0
M  V30 20117 N 1860.93 -1.25042 -0.959279 0
M  V30 20118 C 1861.86 -1.07494 -2.07285 0
M  V30 20119 C 1862.84 0.0146264 -1.70094 0
M  V30 20120 O 1864.02 -0.154035 -1.93588 0
M  V30 20121 C 1861.15 -0.68794 -3.40418 0
M  V30 20122 C 1860.11 -1.72722 -3.91601 0
M  V30 20123 C 1859.43 -1.19504 -5.21175 0
M  V30 20124 C 1860.73 -3.12502 -4.18497 0
M  V30 20125 H 1862.43 -2.00641 -2.22224 0
M  V30 20126 H 1859.97 -0.966074 -1.06785 0
M  V30 20127 H 1861.93 -0.552133 -4.17767 0
M  V30 20128 H 1860.65 0.279224 -3.25404 0
M  V30 20129 H 1859.31 -1.85139 -3.16416 0
M  V30 20130 H 1858.96 -0.218239 -5.02526 0
M  V30 20131 H 1858.66 -1.88962 -5.56387 0
M  V30 20132 H 1860.18 -1.07153 -6.01124 0
M  V30 20133 H 1861.6 -3.03266 -4.86521 0
M  V30 20134 H 1859.99 -3.79389 -4.64956 0
M  V30 20135 H 1861.06 -3.5991 -3.2495 0
M  V30 20136 N 1862.41 1.16121 -1.06553 0
M  V30 20137 C 1863.66 1.86055 -0.778871 0
M  V30 20138 C 1863.97 1.82747 0.697357 0
M  V30 20139 O 1865.17 2.48285 1.09849 0
M  V30 20140 C 1863.63 3.33897 -1.34315 0
M  V30 20141 C 1863.24 3.45673 -2.84981 0
M  V30 20142 C 1864.98 4.09069 -1.13415 0
M  V30 20143 C 1862.89 4.87616 -3.34641 0
M  V30 20144 H 1861.82 0.696963 -0.287678 0
M  V30 20145 H 1864.47 1.31038 -1.28458 0
M  V30 20146 H 1862.85 3.88536 -0.765208 0
M  V30 20147 H 1864.03 3.01181 -3.4875 0
M  V30 20148 H 1862.34 2.83938 -3.04579 0
M  V30 20149 H 1864.94 5.13809 -1.48002 0
M  V30 20150 H 1865.28 4.16237 -0.0726719 0
M  V30 20151 H 1865.81 3.60676 -1.67802 0
M  V30 20152 H 1862.55 4.85629 -4.40278 0
M  V30 20153 H 1862.07 5.32722 -2.75622 0
M  V30 20154 H 1863.75 5.56443 -3.30122 0
M  V30 20155 N 1863.88 0.848487 1.3281 0
M  V30 20156 C 1864.85 0.293744 2.2731 0
M  V30 20157 C 1865.85 -0.543043 1.51353 0
M  V30 20158 O 1867.04 -0.355443 1.70535 0
M  V30 20159 C 1864.17 -0.585094 3.35841 0
M  V30 20160 H 1865.36 1.12773 2.77889 0
M  V30 20161 H 1862.92 0.622329 1.43376 0
M  V30 20162 H 1863.65 -1.44114 2.9052 0
M  V30 20163 H 1863.44 0.0137777 3.92098 0
M  V30 20164 H 1864.93 -0.966203 4.06269 0
M  V30 20165 N 1865.36 -1.4549 0.605832 0
M  V30 20166 C 1866.33 -2.28964 -0.104089 0
M  V30 20167 C 1867.33 -1.39671 -0.796791 0
M  V30 20168 O 1868.52 -1.6181 -0.645221 0
M  V30 20169 C 1865.65 -3.20647 -1.1575 0
M  V30 20170 H 1866.84 -2.93213 0.629776 0
M  V30 20171 H 1864.39 -1.51983 0.3648 0
M  V30 20172 H 1865.13 -2.61194 -1.92219 0
M  V30 20173 H 1864.91 -3.86419 -0.665025 0
M  V30 20174 H 1866.4 -3.83416 -1.65474 0
M  V30 20175 N 1866.84 -0.344893 -1.5378 0
M  V30 20176 C 1868.09 0.25158 -2.01233 0
M  V30 20177 C 1868.42 1.50094 -1.23229 0
M  V30 20178 O 1867.69 1.91845 -0.320282 0
M  V30 20179 C 1867.98 0.564366 -3.5565 0
M  V30 20180 C 1867.83 -0.697186 -4.44364 0
M  V30 20181 C 1869.15 1.37343 -4.18121 0
M  V30 20182 H 1866.27 0.0899643 -0.731488 0
M  V30 20183 H 1868.91 -0.465697 -1.84204 0
M  V30 20184 H 1867.06 1.17543 -3.70292 0
M  V30 20185 H 1868.73 -1.33512 -4.41557 0
M  V30 20186 H 1866.98 -1.3218 -4.13172 0
M  V30 20187 H 1867.65 -0.433571 -5.50295 0
M  V30 20188 H 1870.12 0.85671 -4.07185 0
M  V30 20189 H 1869 1.56103 -5.26235 0
M  V30 20190 H 1869.26 2.37593 -3.7283 0
M  V30 20191 N 1868.32 1.57428 -0.0735454 0
M  V30 20192 C 1869.55 1.97883 0.604148 0
M  V30 20193 C 1869.96 0.951968 1.63043 0
M  V30 20194 O 1869.32 -0.0611641 1.82397 0
M  V30 20195 C 1869.37 3.38414 1.27116 0
M  V30 20196 O 1869.09 4.37166 0.285951 0
M  V30 20197 C 1870.59 3.93753 2.03651 0
M  V30 20198 H 1867.81 0.650747 0.163613 0
M  V30 20199 H 1870.36 2.03975 -0.146466 0
M  V30 20200 H 1868.51 3.33403 1.97285 0
M  V30 20201 H 1868.92 5.18896 0.764698 0
M  V30 20202 H 1870.4 4.94298 2.45711 0
M  V30 20203 H 1870.88 3.30391 2.89376 0
M  V30 20204 H 1871.48 4.0217 1.38345 0
M  V30 20205 N 1869.8 -0.200022 1.56326 0
M  V30 20206 C 1871.02 -0.941617 1.84793 0
M  V30 20207 C 1871.45 -1.76271 0.656525 0
M  V30 20208 O 1870.8 -1.76951 -0.394703 0
M  V30 20209 C 1870.85 -1.81754 3.11445 0
M  V30 20210 O 1869.96 -2.91571 2.91651 0
M  V30 20211 H 1869.3 -0.265444 0.608634 0
M  V30 20212 H 1871.83 -0.206826 2.03552 0
M  V30 20213 H 1871.84 -2.22316 3.4211 0
M  V30 20214 H 1870.51 -1.2142 3.97781 0
M  V30 20215 H 1869.09 -2.54799 2.72271 0
M  V30 20216 N 1871.27 -1.50505 -0.467553 0
M  V30 20217 C 1872.52 -1.60911 -1.21617 0
M  V30 20218 C 1872.84 -0.31663 -1.9302 0
M  V30 20219 O 1874.04 -0.299645 -2.69841 0
M  V30 20220 C 1872.5 -2.84052 -2.21003 0
M  V30 20221 C 1872.11 -4.20189 -1.55386 0
M  V30 20222 C 1873.85 -3.03805 -2.96484 0
M  V30 20223 C 1871.76 -5.34514 -2.5308 0
M  V30 20224 H 1870.69 -0.59924 -0.457633 0
M  V30 20225 H 1873.34 -1.7694 -0.486276 0
M  V30 20226 H 1871.72 -2.6159 -2.97299 0
M  V30 20227 H 1872.89 -4.5292 -0.848552 0
M  V30 20228 H 1871.21 -4.0607 -0.921725 0
M  V30 20229 H 1873.81 -3.86387 -3.69606 0
M  V30 20230 H 1874.15 -2.15672 -3.56078 0
M  V30 20231 H 1874.68 -3.26465 -2.27301 0
M  V30 20232 H 1871.42 -6.24811 -1.9822 0
M  V30 20233 H 1870.94 -5.06197 -3.21752 0
M  V30 20234 H 1872.62 -5.65232 -3.14836 0
M  V30 20235 N 1872.75 0.720973 -1.40142 0
M  V30 20236 C 1873.98 1.51519 -1.41622 0
M  V30 20237 C 1874.4 1.88093 -0.0162669 0
M  V30 20238 O 1873.76 1.52895 0.974307 0
M  V30 20239 C 1873.81 2.77041 -2.30826 0
M  V30 20240 O 1872.91 3.73532 -1.74779 0
M  V30 20241 H 1872.25 0.457034 -0.481681 0
M  V30 20242 H 1874.78 0.88837 -1.84307 0
M  V30 20243 H 1874.79 3.25628 -2.45826 0
M  V30 20244 H 1873.47 2.49755 -3.32558 0
M  V30 20245 H 1872.05 3.32356 -1.69097 0
M  V30 20246 N 1874.23 1.25549 0.952634 0
M  V30 20247 C 1875.18 1.05902 2.07093 0
M  V30 20248 C 1876.17 -0.0106646 1.69397 0
M  V30 20249 O 1877.38 0.14511 1.79414 0
M  V30 20250 H 1873.75 0.325539 0.677885 0
M  V30 20251 H 1875.72 2.00701 2.2082 0
M  V30 20252 C 1874.47 0.696581 3.40651 0
M  V30 20253 H 1873.8 1.5115 3.70127 0
M  V30 20254 H 1875.24 0.598818 4.1975 0
M  V30 20255 C 1873.7 -0.5975 3.31559 0
M  V30 20256 O 1874.23 -1.63906 3.66739 0
M  V30 20257 N 1872.43 -0.583869 2.84674 0
M  V30 20258 H 1871.98 0.264102 2.56243 0
M  V30 20259 H 1871.94 -1.44987 2.78973 0
M  V30 20260 N 1875.71 -1.15554 1.07168 0
M  V30 20261 C 1876.93 -1.90723 0.814832 0
M  V30 20262 C 1877.36 -1.7738 -0.62594 0
M  V30 20263 O 1876.72 -1.10521 -1.43718 0
M  V30 20264 C 1876.76 -3.39137 1.22551 0
M  V30 20265 O 1875.87 -4.1074 0.369677 0
M  V30 20266 H 1875.21 -0.593866 0.297017 0
M  V30 20267 H 1877.74 -1.46348 1.42981 0
M  V30 20268 H 1877.75 -3.89926 1.20089 0
M  V30 20269 H 1876.42 -3.48167 2.27492 0
M  V30 20270 H 1875 -3.70094 0.456626 0
M  V30 20271 N 1877.19 -0.855519 -1.32358 0
M  V30 20272 C 1878.12 -0.316159 -2.3135 0
M  V30 20273 C 1879.1 0.585159 -1.59718 0
M  V30 20274 O 1880.28 0.505221 -1.87513 0
M  V30 20275 C 1877.41 0.495577 -3.43746 0
M  V30 20276 C 1876.37 -0.311382 -4.26866 0
M  V30 20277 C 1875.69 0.625144 -5.31033 0
M  V30 20278 C 1876.99 -1.5376 -4.99154 0
M  V30 20279 H 1878.69 -1.14331 -2.7671 0
M  V30 20280 H 1876.23 -0.551221 -1.33032 0
M  V30 20281 H 1878.19 0.883325 -4.12038 0
M  V30 20282 H 1876.91 1.3561 -2.97115 0
M  V30 20283 H 1875.57 -0.680895 -3.60221 0
M  V30 20284 H 1875.22 1.48254 -4.80656 0
M  V30 20285 H 1874.92 0.0892112 -5.87532 0
M  V30 20286 H 1876.44 1.01005 -6.02188 0
M  V30 20287 H 1877.86 -1.2221 -5.60123 0
M  V30 20288 H 1876.25 -2.01153 -5.65382 0
M  V30 20289 H 1877.32 -2.29838 -4.26969 0
M  V30 20290 N 1878.67 1.45167 -0.61354 0
M  V30 20291 C 1879.62 2.27666 0.123348 0
M  V30 20292 C 1880.6 1.37663 0.832933 0
M  V30 20293 O 1881.79 1.61608 0.721941 0
M  V30 20294 C 1878.92 3.24651 1.1161 0
M  V30 20295 C 1878.01 4.22142 0.407045 0
M  V30 20296 N 1878.4 5.0275 -0.554622 0
M  V30 20297 C 1876.7 4.41182 0.65382 0
M  V30 20298 C 1877.4 5.73523 -0.97194 0
M  V30 20299 N 1876.37 5.4269 -0.314424 0
M  V30 20300 H 1880.17 2.8739 -0.615174 0
M  V30 20301 H 1877.69 1.56391 -0.437667 0
M  V30 20302 H 1879.69 3.82493 1.65846 0
M  V30 20303 H 1878.35 2.66488 1.85511 0
M  V30 20304 H 1879.36 5.09451 -0.931644 0
M  V30 20305 H 1876.03 3.94136 1.37705 0
M  V30 20306 H 1877.42 6.48292 -1.76543 0
M  V30 20307 N 1880.14 0.353044 1.53595 0
M  V30 20308 C 1881.56 0.0014839 1.596 0
M  V30 20309 C 1881.76 -1.47884 1.36867 0
M  V30 20310 O 1880.82 -2.23881 1.16762 0
M  V30 20311 C 1882.13 0.446178 2.97371 0
M  V30 20312 C 1883.68 0.399329 3.10442 0
M  V30 20313 C 1884.15 0.819639 4.50606 0
M  V30 20314 N 1885.64 0.7742 4.56684 0
M  V30 20315 C 1886.38 1.07126 5.63304 0
M  V30 20316 N 1885.87 1.43696 6.77734 0
M  V30 20317 N 1887.67 0.994874 5.53226 0
M  V30 20318 H 1879.82 1.31719 1.66625 0
M  V30 20319 H 1882.08 0.537571 0.780847 0
M  V30 20320 H 1881.79 1.47869 3.19105 0
M  V30 20321 H 1881.66 -0.173715 3.768 0
M  V30 20322 H 1884.05 -0.624023 2.88427 0
M  V30 20323 H 1884.13 1.05455 2.33051 0
M  V30 20324 H 1883.77 1.84105 4.73358 0
M  V30 20325 H 1883.7 0.141795 5.26409 0
M  V30 20326 H 1886.19 0.504609 3.74516 0
M  V30 20327 H 1886.51 1.64822 7.55019 0
M  V30 20328 H 1884.85 1.4755 6.79157 0
M  V30 20329 H 1888.04 0.70845 4.62708 0
M  V30 20330 H 1888.22 1.22972 6.36225 0
M  V30 20331 N 1881.62 -1.57387 0.0818932 0
M  V30 20332 C 1882.53 -2.16804 -0.89629 0
M  V30 20333 C 1883.55 -1.1339 -1.3198 0
M  V30 20334 O 1884.72 -1.45702 -1.39042 0
M  V30 20335 C 1881.79 -2.72607 -2.14211 0
M  V30 20336 C 1880.85 -3.90929 -1.77406 0
M  V30 20337 C 1880.08 -4.44062 -2.96049 0
M  V30 20338 O 1880.31 -3.96166 -4.10376 0
M  V30 20339 O 1879.24 -5.35261 -2.75279 0
M  V30 20340 H 1883.07 -3.0077 -0.420827 0
M  V30 20341 H 1880.65 -1.48726 -0.141737 0
M  V30 20342 H 1882.53 -3.0833 -2.87247 0
M  V30 20343 H 1881.21 -1.91694 -2.60835 0
M  V30 20344 H 1880.11 -3.60042 -1.01591 0
M  V30 20345 H 1881.45 -4.73165 -1.35556 0
M  V30 20346 N 1883.1 0.191729 -1.56429 0
M  V30 20347 C 1884.03 1.24024 -1.97839 0
M  V30 20348 C 1885.01 1.47291 -0.850853 0
M  V30 20349 O 1886.2 1.58971 -1.11543 0
M  V30 20350 C 1883.33 2.58373 -2.32079 0
M  V30 20351 C 1882.28 2.49712 -3.47603 0
M  V30 20352 C 1881.61 3.88365 -3.67528 0
M  V30 20353 C 1882.91 2.01929 -4.81687 0
M  V30 20354 H 1884.6 0.8961 -2.85675 0
M  V30 20355 H 1882.15 0.429616 -1.37442 0
M  V30 20356 H 1884.1 3.31908 -2.59643 0
M  V30 20357 H 1882.82 2.94534 -1.41129 0
M  V30 20358 H 1881.48 1.78632 -3.20135 0
M  V30 20359 H 1881.13 4.21884 -2.73903 0
M  V30 20360 H 1880.83 3.83444 -4.45246 0
M  V30 20361 H 1882.35 4.63518 -3.97472 0
M  V30 20362 H 1883.77 2.65225 -5.0826 0
M  V30 20363 H 1882.16 2.08002 -5.62899 0
M  V30 20364 H 1883.23 0.972649 -4.75045 0
M  V30 20365 N 1884.58 1.50751 0.459565 0
M  V30 20366 C 1885.8 1.66367 1.23842 0
M  V30 20367 C 1886.23 0.351355 1.84789 0
M  V30 20368 O 1885.59 -0.686103 1.67816 0
M  V30 20369 C 1885.63 2.76521 2.31449 0
M  V30 20370 O 1884.74 2.38576 3.36386 0
M  V30 20371 H 1884.08 0.555447 0.363833 0
M  V30 20372 H 1886.61 1.97193 0.545538 0
M  V30 20373 H 1886.62 2.99943 2.76583 0
M  V30 20374 H 1885.29 3.71759 1.86462 0
M  V30 20375 H 1883.87 2.25643 2.96883 0
M  V30 20376 N 1886.06 -0.713531 1.40522 0
M  V30 20377 C 1887.02 -1.80932 1.40699 0
M  V30 20378 C 1888.02 -1.57968 0.30045 0
M  V30 20379 O 1889.21 -1.64972 0.559456 0
M  V30 20380 C 1886.34 -3.19053 1.20075 0
M  V30 20381 H 1887.53 -1.82174 2.38228 0
M  V30 20382 H 1885.09 -0.919374 1.26401 0
M  V30 20383 H 1885.82 -3.23461 0.233137 0
M  V30 20384 H 1885.61 -3.37121 2.00229 0
M  V30 20385 H 1887.1 -3.99078 1.22991 0
M  V30 20386 N 1887.53 -1.26053 -0.945962 0
M  V30 20387 C 1888.78 -1.11095 -1.68826 0
M  V30 20388 C 1889.1 0.347174 -1.91885 0
M  V30 20389 O 1888.37 1.24545 -1.51213 0
M  V30 20390 H 1886.95 -0.408128 -0.625652 0
M  V30 20391 H 1889.61 -1.58309 -1.13686 0
M  V30 20392 H 1888.71 -1.626 -2.66397 0
M  V30 20393 N 1889.01 1.14984 -1.07779 0
M  V30 20394 C 1889.94 2.22006 -0.723564 0
M  V30 20395 C 1890.92 1.67592 0.291024 0
M  V30 20396 O 1892.11 1.93516 0.162812 0
M  V30 20397 C 1889.24 3.47074 -0.125223 0
M  V30 20398 C 1888.19 4.14475 -1.06745 0
M  V30 20399 C 1887.52 5.33671 -0.331643 0
M  V30 20400 C 1888.82 4.63744 -2.4029 0
M  V30 20401 H 1890.51 2.51893 -1.61834 0
M  V30 20402 H 1888.06 1.21073 -0.779571 0
M  V30 20403 H 1890.01 4.21185 0.134555 0
M  V30 20404 H 1888.73 3.16533 0.804654 0
M  V30 20405 H 1887.39 3.4231 -1.31222 0
M  V30 20406 H 1887.04 4.99387 0.601833 0
M  V30 20407 H 1886.74 5.7971 -0.959721 0
M  V30 20408 H 1888.27 6.10548 -0.0797668 0
M  V30 20409 H 1889.68 5.2936 -2.20115 0
M  V30 20410 H 1888.08 5.20461 -2.98732 0
M  V30 20411 H 1889.15 3.79151 -3.02279 0
M  V30 20412 N 1890.49 0.862526 1.31902 0
M  V30 20413 C 1891.74 0.470471 1.97267 0
M  V30 20414 C 1892.07 -0.973153 1.68058 0
M  V30 20415 O 1891.34 -1.68411 0.973035 0
M  V30 20416 C 1891.63 0.719362 3.52842 0
M  V30 20417 C 1891.48 2.21198 3.91652 0
M  V30 20418 C 1892.8 0.18092 4.39728 0
M  V30 20419 H 1889.92 0.172408 0.71655 0
M  V30 20420 H 1892.56 1.0824 1.56154 0
M  V30 20421 H 1890.71 0.198516 3.87992 0
M  V30 20422 H 1892.38 2.79951 3.66641 0
M  V30 20423 H 1890.62 2.68744 3.40528 0
M  V30 20424 H 1891.3 2.33679 5.00098 0
M  V30 20425 H 1893.77 0.626421 4.11358 0
M  V30 20426 H 1892.65 0.384575 5.47551 0
M  V30 20427 H 1892.91 -0.916756 4.3249 0
M  V30 20428 N 1891.97 -1.4484 0.62123 0
M  V30 20429 C 1893.22 -2.01734 0.121544 0
M  V30 20430 C 1893.54 -1.49041 -1.25745 0
M  V30 20431 O 1892.81 -0.690056 -1.83344 0
M  V30 20432 H 1891.39 -0.745822 0.0419419 0
M  V30 20433 H 1894.05 -1.77467 0.805702 0
M  V30 20434 H 1893.15 -3.11993 0.0816882 0
M  V30 20435 N 1893.45 -0.361184 -1.53405 0
M  V30 20436 C 1894.38 0.479368 -2.28526 0
M  V30 20437 C 1895.36 1.08768 -1.3078 0
M  V30 20438 O 1896.54 1.10576 -1.59645 0
M  V30 20439 C 1893.67 1.6215 -3.07123 0
M  V30 20440 C 1892.63 1.14065 -4.12521 0
M  V30 20441 C 1891.95 2.37267 -4.79175 0
M  V30 20442 C 1893.25 0.228522 -5.218 0
M  V30 20443 H 1894.95 -0.147344 -2.99037 0
M  V30 20444 H 1892.49 -0.0723051 -1.43818 0
M  V30 20445 H 1894.45 2.21612 -3.58422 0
M  V30 20446 H 1893.17 2.27538 -2.34295 0
M  V30 20447 H 1891.83 0.568735 -3.62162 0
M  V30 20448 H 1891.48 3.01102 -4.02923 0
M  V30 20449 H 1891.18 2.05768 -5.50394 0
M  V30 20450 H 1892.7 2.97424 -5.33265 0
M  V30 20451 H 1894.11 0.730497 -5.68627 0
M  V30 20452 H 1892.51 0.00460259 -6.001 0
M  V30 20453 H 1893.58 -0.730537 -4.79365 0
M  V30 20454 N 1894.92 1.57341 -0.0902386 0
M  V30 20455 C 1896.17 1.93793 0.573474 0
M  V30 20456 C 1896.49 0.972444 1.69022 0
M  V30 20457 O 1895.76 0.0236753 1.95886 0
M  V30 20458 H 1894.34 0.715442 0.21483 0
M  V30 20459 H 1897.01 1.94303 -0.15243 0
M  V30 20460 H 1896.1 2.96088 0.986829 0
M  V30 20461 N 1896.4 -0.183431 1.56529 0
M  V30 20462 C 1897.33 -1.22973 1.98494 0
M  V30 20463 C 1898.31 -1.46837 0.858653 0
M  V30 20464 O 1899.5 -1.58377 1.12385 0
M  V30 20465 C 1896.63 -2.57138 2.33446 0
M  V30 20466 C 1895.58 -2.47865 3.48922 0
M  V30 20467 C 1894.91 -3.8641 3.69582 0
M  V30 20468 C 1896.21 -1.99371 4.82751 0
M  V30 20469 H 1897.9 -0.880938 2.86147 0
M  V30 20470 H 1895.45 -0.422321 1.37668 0
M  V30 20471 H 1897.4 -3.30527 2.614 0
M  V30 20472 H 1896.13 -2.93781 1.42689 0
M  V30 20473 H 1894.78 -1.76932 3.21077 0
M  V30 20474 H 1894.43 -4.20426 2.76136 0
M  V30 20475 H 1894.13 -3.81077 4.47274 0
M  V30 20476 H 1895.66 -4.61403 3.99924 0
M  V30 20477 H 1897.07 -2.62526 5.0966 0
M  V30 20478 H 1895.47 -2.05014 5.63994 0
M  V30 20479 H 1896.54 -0.947442 4.75554 0
M  V30 20480 N 1897.88 -1.50992 -0.451564 0
M  V30 20481 C 1899.11 -1.66741 -1.22495 0
M  V30 20482 C 1899.52 -0.358787 -1.8536 0
M  V30 20483 O 1898.88 0.661312 -1.70097 0
M  V30 20484 C 1898.93 -2.77281 -2.31943 0
M  V30 20485 O 1898.65 -4.03072 -1.71652 0
M  V30 20486 C 1900.15 -3.04175 -3.22479 0
M  V30 20487 H 1897.37 -0.55994 -0.369741 0
M  V30 20488 H 1899.92 -1.97329 -0.536785 0
M  V30 20489 H 1898.07 -2.49332 -2.965 0
M  V30 20490 H 1898.49 -4.64354 -2.43875 0
M  V30 20491 H 1899.96 -3.85137 -3.95441 0
M  V30 20492 H 1900.44 -2.16015 -3.82406 0
M  V30 20493 H 1901.04 -3.33729 -2.63638 0
M  V30 20494 N 1899.36 0.706069 -1.40899 0
M  V30 20495 C 1900.59 1.49287 -1.42818 0
M  V30 20496 C 1901 1.89178 -0.0288607 0
M  V30 20497 O 1900.34 1.56633 0.959778 0
M  V30 20498 C 1900.4 2.79254 -2.26402 0
M  V30 20499 C 1900.07 2.61629 -3.74699 0
M  V30 20500 C 1901.06 2.28262 -4.67111 0
M  V30 20501 C 1898.75 2.77597 -4.18623 0
M  V30 20502 C 1900.74 2.11087 -6.01433 0
M  V30 20503 C 1898.43 2.60038 -5.53013 0
M  V30 20504 C 1899.43 2.26832 -6.44233 0
M  V30 20505 O 1899.11 2.09417 -7.76144 0
M  V30 20506 H 1898.85 0.466955 -0.488804 0
M  V30 20507 H 1901.4 0.877744 -1.85701 0
M  V30 20508 H 1899.63 3.43134 -1.78314 0
M  V30 20509 H 1901.32 3.41013 -2.20148 0
M  V30 20510 H 1902.09 2.1555 -4.34469 0
M  V30 20511 H 1897.96 3.02428 -3.47934 0
M  V30 20512 H 1901.51 1.85091 -6.72597 0
M  V30 20513 H 1897.41 2.72337 -5.85237 0
M  V30 20514 H 1898.17 2.24263 -7.87178 0
M  V30 20515 N 1900.84 1.26553 0.939264 0
M  V30 20516 C 1901.8 1.08335 2.01981 0
M  V30 20517 C 1902.8 0.0310501 1.6077 0
M  V30 20518 O 1903.99 0.274627 1.72022 0
M  V30 20519 C 1901.12 0.648208 3.34681 0
M  V30 20520 H 1902.31 2.04272 2.19574 0
M  V30 20521 H 1899.87 1.09177 1.11849 0
M  V30 20522 H 1900.6 -0.313074 3.22785 0
M  V30 20523 H 1900.39 1.40806 3.65946 0
M  V30 20524 H 1901.88 0.54264 4.14059 0
M  V30 20525 N 1902.31 -1.14411 1.08387 0
M  V30 20526 C 1903.24 -2.21619 0.735327 0
M  V30 20527 C 1904.23 -1.67744 -0.282132 0
M  V30 20528 O 1905.41 -1.936 -0.152547 0
M  V30 20529 C 1902.54 -3.47003 0.143628 0
M  V30 20530 C 1901.49 -4.13903 1.08941 0
M  V30 20531 C 1900.82 -5.33487 0.359941 0
M  V30 20532 C 1902.12 -4.62463 2.42746 0
M  V30 20533 H 1903.81 -2.51031 1.63168 0
M  V30 20534 H 1901.36 -1.20658 0.785981 0
M  V30 20535 H 1903.31 -4.21251 -0.112217 0
M  V30 20536 H 1902.04 -3.16955 -0.787856 0
M  V30 20537 H 1900.7 -3.4161 1.33035 0
M  V30 20538 H 1900.34 -4.99699 -0.57534 0
M  V30 20539 H 1900.04 -5.79192 0.990451 0
M  V30 20540 H 1901.57 -6.10497 0.112145 0
M  V30 20541 H 1902.98 -5.28185 2.22919 0
M  V30 20542 H 1901.38 -5.18869 3.01488 0
M  V30 20543 H 1902.45 -3.77542 3.04286 0
M  V30 20544 N 1903.79 -0.869509 -1.31443 0
M  V30 20545 C 1904.73 -0.269612 -2.26602 0
M  V30 20546 C 1905.7 0.600966 -1.51087 0
M  V30 20547 O 1906.89 0.554491 -1.8016 0
M  V30 20548 C 1904.01 0.618287 -3.33009 0
M  V30 20549 C 1903.06 -0.180883 -4.26116 0
M  V30 20550 S 1903.89 -1.55908 -5.12302 0
M  V30 20551 C 1905.05 -0.677295 -6.22225 0
M  V30 20552 H 1905.28 -1.07626 -2.77135 0
M  V30 20553 H 1902.82 -0.668003 -1.39202 0
M  V30 20554 H 1904.77 1.12488 -3.94787 0
M  V30 20555 H 1903.43 1.39888 -2.8123 0
M  V30 20556 H 1902.63 0.496021 -5.01553 0
M  V30 20557 H 1902.23 -0.619555 -3.68833 0
M  V30 20558 H 1904.52 0.1123 -6.77407 0
M  V30 20559 H 1905.46 -1.40278 -6.94066 0
M  V30 20560 H 1905.87 -0.245049 -5.63968 0
M  V30 20561 N 1905.27 1.44508 -0.628902 0
M  V30 20562 C 1906.52 2.02365 -0.132699 0
M  V30 20563 C 1906.85 1.4934 1.24142 0
M  V30 20564 O 1906.12 0.676567 1.82354 0
M  V30 20565 C 1906.41 3.5991 -0.11694 0
M  V30 20566 C 1906.26 4.23223 -1.52324 0
M  V30 20567 C 1907.58 4.36527 0.559696 0
M  V30 20568 H 1904.7 0.735323 -0.049695 0
M  V30 20569 H 1907.34 1.72106 -0.80495 0
M  V30 20570 H 1905.49 3.8582 0.455515 0
M  V30 20571 H 1907.16 4.08427 -2.14441 0
M  V30 20572 H 1905.41 3.80803 -2.07777 0
M  V30 20573 H 1906.08 5.32225 -1.46427 0
M  V30 20574 H 1908.55 4.16036 0.0728971 0
M  V30 20575 H 1907.43 5.46238 0.539902 0
M  V30 20576 H 1907.69 4.10968 1.62965 0
M  V30 20577 N 1906.75 0.369315 1.53212 0
M  V30 20578 C 1907.97 -0.222451 2.06204 0
M  V30 20579 C 1908.4 -1.41373 1.24077 0
M  V30 20580 O 1907.76 -1.79415 0.260767 0
M  V30 20581 C 1907.81 -0.590386 3.55734 0
M  V30 20582 O 1906.91 -1.68711 3.76311 0
M  V30 20583 H 1906.25 -0.0315041 0.663252 0
M  V30 20584 H 1908.78 0.531 1.97589 0
M  V30 20585 H 1908.79 -0.860345 3.98826 0
M  V30 20586 H 1907.47 0.28067 4.14952 0
M  V30 20587 H 1906.04 -1.41242 3.45116 0
M  V30 20588 N 1908.23 -1.57291 0.0985816 0
M  V30 20589 C 1909.18 -2.1545 -0.876584 0
M  V30 20590 C 1910.17 -1.09827 -1.28974 0
M  V30 20591 O 1911.38 -1.28166 -1.26386 0
M  V30 20592 H 1907.75 -0.689252 -0.300725 0
M  V30 20593 H 1909.72 -2.96204 -0.36139 0
M  V30 20594 C 1908.47 -2.75232 -2.12468 0
M  V30 20595 H 1907.79 -3.56194 -1.81565 0
M  V30 20596 H 1909.23 -3.19489 -2.78752 0
M  V30 20597 C 1907.69 -1.71298 -2.90101 0
M  V30 20598 O 1908.22 -1.15402 -3.84767 0
M  V30 20599 N 1906.43 -1.41709 -2.53706 0
M  V30 20600 H 1905.98 -1.87354 -1.76794 0
M  V30 20601 H 1905.93 -0.724072 -3.05949 0
M  V30 20602 N 1909.71 0.175127 -1.56624 0
M  V30 20603 C 1910.94 0.906725 -1.8564 0
M  V30 20604 C 1911.34 1.76502 -0.681433 0
M  V30 20605 O 1910.69 1.80163 0.358751 0
M  V30 20606 C 1910.75 1.83706 -3.09019 0
M  V30 20607 C 1910.41 1.15874 -4.42066 0
M  V30 20608 C 1911.41 0.526022 -5.17232 0
M  V30 20609 C 1909.09 1.15663 -4.88802 0
M  V30 20610 C 1911.09 -0.0997423 -6.37322 0
M  V30 20611 C 1908.78 0.527036 -6.08823 0
M  V30 20612 C 1909.77 -0.100049 -6.82927 0
M  V30 20613 O 1909.46 -0.719723 -8.00672 0
M  V30 20614 H 1909.19 0.269058 -0.620148 0
M  V30 20615 H 1911.75 0.181237 -2.04599 0
M  V30 20616 H 1909.98 2.60276 -2.85995 0
M  V30 20617 H 1911.67 2.43816 -3.24513 0
M  V30 20618 H 1912.43 0.519653 -4.82208 0
M  V30 20619 H 1908.31 1.63412 -4.31065 0
M  V30 20620 H 1911.86 -0.589806 -6.95102 0
M  V30 20621 H 1907.75 0.530975 -6.43312 0
M  V30 20622 H 1908.52 -0.618596 -8.16159 0
M  V30 20623 N 1911.18 1.5123 0.44355 0
M  V30 20624 C 1912.11 1.75038 1.54544 0
M  V30 20625 C 1913.09 0.600017 1.59166 0
M  V30 20626 O 1914.28 0.842082 1.74993 0
M  V30 20627 C 1911.41 1.86976 2.92673 0
M  V30 20628 C 1910.36 3.0237 3.02913 0
M  V30 20629 C 1909.69 2.99483 4.4296 0
M  V30 20630 C 1910.99 4.4244 2.77569 0
M  V30 20631 H 1912.68 2.67301 1.34872 0
M  V30 20632 H 1910.23 1.28627 0.647395 0
M  V30 20633 H 1912.18 2.02215 3.69712 0
M  V30 20634 H 1910.91 0.913563 3.13563 0
M  V30 20635 H 1909.57 2.86826 2.28312 0
M  V30 20636 H 1909.21 2.01654 4.60809 0
M  V30 20637 H 1908.91 3.76968 4.50743 0
M  V30 20638 H 1910.44 3.16808 5.21982 0
M  V30 20639 H 1911.85 4.58367 3.44344 0
M  V30 20640 H 1910.25 5.21583 2.96768 0
M  V30 20641 H 1911.32 4.52906 1.73218 0
M  V30 20642 N 1912.66 -0.698586 1.41271 0
M  V30 20643 C 1913.61 -1.83387 1.43081 0
M  V30 20644 C 1914.6 -1.66554 0.309204 0
M  V30 20645 O 1915.81 -1.73452 0.481084 0
M  V30 20646 H 1912.18 -0.604271 0.447617 0
M  V30 20647 H 1914.16 -1.78977 2.38767 0
M  V30 20648 C 1912.9 -3.21385 1.32692 0
M  V30 20649 H 1912.23 -3.34952 2.18283 0
M  V30 20650 H 1913.67 -4.00907 1.38019 0
M  V30 20651 C 1912.13 -3.36877 0.0389378 0
M  V30 20652 O 1912.66 -3.91081 -0.917515 0
M  V30 20653 N 1910.86 -2.90578 -0.0361557 0
M  V30 20654 H 1910.41 -2.46654 0.742925 0
M  V30 20655 H 1910.37 -3.01322 -0.897353 0
M  V30 20656 N 1914.14 -1.27049 -0.93254 0
M  V30 20657 C 1915.39 -1.14279 -1.68261 0
M  V30 20658 C 1915.74 0.30916 -1.899 0
M  V30 20659 O 1915.03 1.22313 -1.47479 0
M  V30 20660 C 1915.23 -1.8547 -3.05509 0
M  V30 20661 C 1915.06 -3.37439 -2.97262 0
M  V30 20662 C 1913.83 -4.06748 -2.99807 0
M  V30 20663 C 1916.02 -4.33493 -2.76745 0
M  V30 20664 N 1914.01 -5.45323 -2.81951 0
M  V30 20665 C 1915.38 -5.59303 -2.67545 0
M  V30 20666 C 1917.43 -4.23642 -2.61595 0
M  V30 20667 C 1916.14 -6.76383 -2.44741 0
M  V30 20668 C 1918.16 -5.40438 -2.40167 0
M  V30 20669 C 1917.52 -6.652 -2.31706 0
M  V30 20670 H 1913.62 -0.473016 -0.62272 0
M  V30 20671 H 1916.21 -1.60453 -1.10286 0
M  V30 20672 H 1914.38 -1.41759 -3.61606 0
M  V30 20673 H 1916.11 -1.65248 -3.69426 0
M  V30 20674 H 1912.86 -3.58176 -3.0985 0
M  V30 20675 H 1913.29 -6.18111 -2.76166 0
M  V30 20676 H 1917.93 -3.2791 -2.66898 0
M  V30 20677 H 1915.65 -7.72202 -2.38178 0
M  V30 20678 H 1919.23 -5.34692 -2.29337 0
M  V30 20679 H 1918.11 -7.54052 -2.15348 0
M  V30 20680 N 1915.62 1.13835 -1.08993 0
M  V30 20681 C 1916.55 2.18164 -0.669297 0
M  V30 20682 C 1917.53 1.5938 0.321968 0
M  V30 20683 O 1918.71 1.8716 0.224402 0
M  V30 20684 C 1915.84 3.38697 0.0146637 0
M  V30 20685 C 1914.89 4.16064 -0.937701 0
M  V30 20686 S 1915.72 4.76297 -2.44748 0
M  V30 20687 C 1916.87 6.0018 -1.7758 0
M  V30 20688 H 1917.11 2.53507 -1.55311 0
M  V30 20689 H 1914.64 1.25062 -0.905481 0
M  V30 20690 H 1916.6 4.08517 0.402992 0
M  V30 20691 H 1915.26 3.01664 0.875062 0
M  V30 20692 H 1914.45 5.02361 -0.406139 0
M  V30 20693 H 1914.05 3.51877 -1.26722 0
M  V30 20694 H 1916.35 6.68556 -1.09724 0
M  V30 20695 H 1917.29 6.57936 -2.61774 0
M  V30 20696 H 1917.7 5.50563 -1.24661 0
M  V30 20697 N 1917.1 0.876467 1.3098 0
M  V30 20698 C 1918.34 0.491367 1.96757 0
M  V30 20699 C 1918.67 -0.955274 1.6908 0
M  V30 20700 O 1917.95 -1.6737 0.990843 0
M  V30 20701 C 1918.23 0.756745 3.52059 0
M  V30 20702 C 1918.09 2.25339 3.89284 0
M  V30 20703 C 1919.4 0.227549 4.39511 0
M  V30 20704 H 1916.52 0.179998 0.714681 0
M  V30 20705 H 1919.17 1.0989 1.54997 0
M  V30 20706 H 1917.32 0.239657 3.8776 0
M  V30 20707 H 1918.99 2.83824 3.63651 0
M  V30 20708 H 1917.23 2.72341 3.37658 0
M  V30 20709 H 1917.9 2.38971 4.97591 0
M  V30 20710 H 1920.38 0.670016 4.1067 0
M  V30 20711 H 1919.25 0.442629 5.47112 0
M  V30 20712 H 1919.51 -0.870833 4.33438 0
M  V30 20713 N 1918.57 -1.44173 0.636557 0
M  V30 20714 C 1919.99 -1.56704 0.302646 0
M  V30 20715 C 1920.19 -1.62316 -1.19398 0
M  V30 20716 O 1919.25 -1.56914 -1.97824 0
M  V30 20717 C 1920.56 -2.83608 0.999346 0
M  V30 20718 C 1922.11 -2.97328 0.978005 0
M  V30 20719 C 1922.58 -4.27042 1.65527 0
M  V30 20720 N 1924.07 -4.33868 1.62212 0
M  V30 20721 C 1924.81 -5.32966 2.11505 0
M  V30 20722 N 1924.3 -6.38439 2.69012 0
M  V30 20723 N 1926.1 -5.24511 2.02102 0
M  V30 20724 H 1918.25 -1.38773 1.60797 0
M  V30 20725 H 1920.51 -0.665369 0.675269 0
M  V30 20726 H 1920.22 -2.85466 2.05432 0
M  V30 20727 H 1920.09 -3.73308 0.540484 0
M  V30 20728 H 1922.48 -2.9502 -0.0685065 0
M  V30 20729 H 1922.56 -2.08963 1.47541 0
M  V30 20730 H 1922.2 -4.30109 2.70126 0
M  V30 20731 H 1922.13 -5.14275 1.13266 0
M  V30 20732 H 1924.62 -3.58264 1.20231 0
M  V30 20733 H 1924.94 -7.10348 3.04344 0
M  V30 20734 H 1923.28 -6.39109 2.73066 0
M  V30 20735 H 1926.47 -4.41024 1.56892 0
M  V30 20736 H 1926.65 -6.01586 2.40828 0
M  V30 20737 N 1920.05 -0.377435 -1.53014 0
M  V30 20738 C 1921 0.478416 -2.27627 0
M  V30 20739 C 1921.99 1.07327 -1.31062 0
M  V30 20740 O 1923.2 1.01511 -1.48646 0
M  V30 20741 H 1919.57 0.173021 -0.731825 0
M  V30 20742 H 1921.55 -0.172497 -2.97901 0
M  V30 20743 C 1920.29 1.59993 -3.08703 0
M  V30 20744 H 1919.62 1.15151 -3.82858 0
M  V30 20745 H 1921.06 2.17324 -3.64069 0
M  V30 20746 C 1919.52 2.54912 -2.20275 0
M  V30 20747 O 1920.05 3.58027 -1.82152 0
M  V30 20748 N 1918.25 2.24376 -1.84672 0
M  V30 20749 H 1917.8 1.40559 -2.15873 0
M  V30 20750 H 1917.76 2.88137 -1.25794 0
M  V30 20751 N 1921.53 1.57237 -0.106922 0
M  V30 20752 C 1922.46 2.1769 0.844599 0
M  V30 20753 C 1923.44 1.11352 1.28587 0
M  V30 20754 O 1924.63 1.39539 1.35065 0
M  V30 20755 C 1921.76 2.76668 2.09933 0
M  V30 20756 C 1920.71 3.88482 1.79627 0
M  V30 20757 C 1920.04 4.34214 3.12029 0
M  V30 20758 C 1921.34 5.11139 1.07399 0
M  V30 20759 H 1923.03 2.97453 0.340887 0
M  V30 20760 H 1920.58 1.4308 0.162523 0
M  V30 20761 H 1922.53 3.17614 2.76946 0
M  V30 20762 H 1921.25 1.94176 2.62608 0
M  V30 20763 H 1919.91 3.48093 1.15008 0
M  V30 20764 H 1919.56 3.48597 3.62614 0
M  V30 20765 H 1919.26 5.09608 2.9253 0
M  V30 20766 H 1920.78 4.77803 3.8018 0
M  V30 20767 H 1922.2 5.4918 1.64543 0
M  V30 20768 H 1920.6 5.92038 0.980375 0
M  V30 20769 H 1921.67 4.84864 0.0586914 0
M  V30 20770 N 1923.01 -0.166818 1.56715 0
M  V30 20771 C 1923.97 -1.19027 1.95871 0
M  V30 20772 C 1924.97 -1.36939 0.842877 0
M  V30 20773 O 1926.16 -1.34268 1.10985 0
M  V30 20774 C 1923.29 -2.55446 2.25743 0
M  V30 20775 H 1924.49 -0.854834 2.87459 0
M  V30 20776 H 1922.04 -0.409436 1.50842 0
M  V30 20777 H 1922.77 -2.93996 1.36884 0
M  V30 20778 H 1922.56 -2.4381 3.07081 0
M  V30 20779 H 1924.05 -3.29196 2.56943 0
M  V30 20780 N 1924.49 -1.51463 -0.435524 0
M  V30 20781 C 1925.76 -1.54763 -1.19615 0
M  V30 20782 C 1926.14 -0.312969 -2.08767 0
M  V30 20783 O 1925.49 0.701834 -2.17455 0
M  V30 20784 C 1925.7 -2.86259 -1.99642 0
M  V30 20785 C 1927.05 -3.38276 -2.56621 0
M  V30 20786 O 1928.07 -2.87821 -2.09851 0
M  V30 20787 O 1926.93 -4.26318 -3.41929 0
M  V30 20788 H 1924.03 -0.622293 -0.544684 0
M  V30 20789 H 1926.57 -1.63777 -0.444446 0
M  V30 20790 H 1925.34 -3.67578 -1.34173 0
M  V30 20791 H 1924.97 -2.80416 -2.81874 0
M  V30 20792 N 1925.96 0.691085 -1.4164 0
M  V30 20793 C 1926.9 1.81547 -1.3826 0
M  V30 20794 C 1927.88 1.60679 -0.249192 0
M  V30 20795 O 1929.06 1.83369 -0.436821 0
M  V30 20796 C 1926.19 3.18298 -1.15777 0
M  V30 20797 C 1925.23 3.57948 -2.31896 0
M  V30 20798 S 1926.07 3.6224 -3.94388 0
M  V30 20799 C 1927.22 5.0171 -3.74217 0
M  V30 20800 H 1927.45 1.84138 -2.33411 0
M  V30 20801 H 1924.99 0.860221 -1.28217 0
M  V30 20802 H 1926.95 3.9724 -1.03492 0
M  V30 20803 H 1925.61 3.13312 -0.222389 0
M  V30 20804 H 1924.8 4.57304 -2.1187 0
M  V30 20805 H 1924.4 2.86325 -2.40612 0
M  V30 20806 H 1926.69 5.89336 -3.342 0
M  V30 20807 H 1927.64 5.26778 -4.73192 0
M  V30 20808 H 1928.04 4.73459 -3.07403 0
M  V30 20809 N 1927.44 1.27542 0.925789 0
M  V30 20810 C 1928.35 1.1225 2.06002 0
M  V30 20811 C 1929.37 0.0520487 1.73922 0
M  V30 20812 O 1930.54 0.258921 1.99729 0
M  V30 20813 C 1927.61 0.773231 3.37967 0
M  V30 20814 C 1926.67 1.92476 3.83733 0
M  V30 20815 C 1925.9 1.59206 5.09401 0
M  V30 20816 O 1926.13 0.500836 5.68197 0
M  V30 20817 O 1925.06 2.43185 5.50586 0
M  V30 20818 H 1928.89 2.07439 2.21817 0
M  V30 20819 H 1926.47 1.06747 1.04525 0
M  V30 20820 H 1928.35 0.591863 4.17223 0
M  V30 20821 H 1927.03 -0.149116 3.23356 0
M  V30 20822 H 1925.94 2.1612 3.05357 0
M  V30 20823 H 1927.27 2.82738 4.02889 0
M  V30 20824 N 1928.92 -1.13255 1.09595 0
M  V30 20825 C 1929.85 -2.20827 0.758791 0
M  V30 20826 C 1930.83 -1.68034 -0.264325 0
M  V30 20827 O 1932.02 -1.93751 -0.132005 0
M  V30 20828 C 1929.15 -3.46831 0.180424 0
M  V30 20829 C 1928.1 -4.12724 1.13325 0
M  V30 20830 C 1927.43 -5.33075 0.416504 0
M  V30 20831 C 1928.73 -4.59862 2.47637 0
M  V30 20832 H 1930.42 -2.49287 1.65821 0
M  V30 20833 H 1927.97 -1.19818 0.798734 0
M  V30 20834 H 1929.92 -4.21346 -0.0675313 0
M  V30 20835 H 1928.64 -3.17773 -0.754194 0
M  V30 20836 H 1927.3 -3.40179 1.36651 0
M  V30 20837 H 1926.95 -5.00281 -0.522308 0
M  V30 20838 H 1926.65 -5.78109 1.05183 0
M  V30 20839 H 1928.17 -6.10344 0.17689 0
M  V30 20840 H 1929.59 -5.25791 2.28509 0
M  V30 20841 H 1927.99 -5.15642 3.06974 0
M  V30 20842 H 1929.06 -3.74294 3.08273 0
M  V30 20843 N 1930.4 -0.883401 -1.30514 0
M  V30 20844 C 1931.33 -0.306278 -2.27144 0
M  V30 20845 C 1932.34 0.538264 -1.53644 0
M  V30 20846 O 1933.53 0.35807 -1.74872 0
M  V30 20847 C 1930.63 0.583276 -3.33843 0
M  V30 20848 C 1929.81 -0.231845 -4.36785 0
M  V30 20849 C 1928.86 0.587955 -5.22905 0
M  V30 20850 O 1927.89 0.0112122 -5.69199 0
M  V30 20851 N 1929.09 1.89737 -5.48617 0
M  V30 20852 H 1931.86 -1.13674 -2.77306 0
M  V30 20853 H 1929.42 -0.746227 -1.43677 0
M  V30 20854 H 1931.41 1.13773 -3.88379 0
M  V30 20855 H 1929.98 1.31441 -2.83623 0
M  V30 20856 H 1929.2 -0.967741 -3.82137 0
M  V30 20857 H 1930.49 -0.790664 -5.02619 0
M  V30 20858 H 1929.89 2.38889 -5.12785 0
M  V30 20859 H 1928.44 2.39931 -6.06033 0
M  V30 20860 N 1931.88 1.43833 -0.644194 0
M  V30 20861 C 1932.81 2.33467 0.0394911 0
M  V30 20862 C 1933.79 1.48957 0.821339 0
M  V30 20863 O 1934.97 1.77644 0.784618 0
M  V30 20864 C 1932.1 3.32205 1.01277 0
M  V30 20865 C 1931.06 4.26634 0.341666 0
M  V30 20866 C 1930.38 5.15341 1.42577 0
M  V30 20867 C 1931.68 5.16737 -0.760299 0
M  V30 20868 H 1933.38 2.90883 -0.709025 0
M  V30 20869 H 1930.92 1.3987 -0.342413 0
M  V30 20870 H 1932.88 3.93803 1.49991 0
M  V30 20871 H 1931.6 2.73025 1.79234 0
M  V30 20872 H 1930.26 3.66387 -0.124937 0
M  V30 20873 H 1929.91 4.52505 2.19654 0
M  V30 20874 H 1929.61 5.79336 0.98203 0
M  V30 20875 H 1931.13 5.79811 1.91444 0
M  V30 20876 H 1932.54 5.72195 -0.355713 0
M  V30 20877 H 1930.94 5.89404 -1.12796 0
M  V30 20878 H 1932.01 4.56966 -1.62204 0
M  V30 20879 N 1933.35 0.385544 1.52811 0
M  V30 20880 C 1934.6 -0.197454 2.01133 0
M  V30 20881 C 1934.92 -1.47634 1.27394 0
M  V30 20882 O 1934.19 -1.91919 0.392916 0
M  V30 20883 H 1932.77 -0.0759558 0.743128 0
M  V30 20884 H 1935.44 0.51637 1.87935 0
M  V30 20885 H 1934.53 -0.410335 3.09391 0
M  V30 20886 N 1934.83 -1.57178 0.115259 0
M  V30 20887 C 1935.8 -2.13953 -0.821982 0
M  V30 20888 C 1936.8 -1.07352 -1.19717 0
M  V30 20889 O 1937.99 -1.33146 -1.12329 0
M  V30 20890 C 1935.12 -2.6767 -2.11106 0
M  V30 20891 H 1936.31 -2.98094 -0.328631 0
M  V30 20892 H 1933.86 -1.55725 -0.133942 0
M  V30 20893 H 1934.6 -1.87106 -2.6488 0
M  V30 20894 H 1934.38 -3.4563 -1.85155 0
M  V30 20895 H 1935.87 -3.11519 -2.78111 0
M  V30 20896 N 1936.31 0.158505 -1.56801 0
M  V30 20897 C 1937.56 0.874331 -1.82984 0
M  V30 20898 C 1937.89 1.81334 -0.695103 0
M  V30 20899 O 1937.17 1.9214 0.302091 0
M  V30 20900 C 1937.45 1.65886 -3.19615 0
M  V30 20901 C 1937.3 0.74211 -4.43636 0
M  V30 20902 C 1938.62 2.62382 -3.53332 0
M  V30 20903 H 1935.74 0.316412 -0.665622 0
M  V30 20904 H 1938.38 0.139988 -1.89484 0
M  V30 20905 H 1936.53 2.28488 -3.14206 0
M  V30 20906 H 1938.2 0.127969 -4.61122 0
M  V30 20907 H 1936.45 0.0509465 -4.3377 0
M  V30 20908 H 1937.12 1.32683 -5.35816 0
M  V30 20909 H 1939.59 2.09902 -3.59278 0
M  V30 20910 H 1938.47 3.14332 -4.49985 0
M  V30 20911 H 1938.73 3.43194 -2.78694 0
M  V30 20912 N 1937.79 1.51692 0.427485 0
M  V30 20913 C 1938.74 1.73716 1.51958 0
M  V30 20914 C 1939.71 0.579073 1.55679 0
M  V30 20915 O 1940.89 0.814605 1.72536 0
M  V30 20916 C 1938.03 1.87709 2.89585 0
M  V30 20917 C 1937.14 3.15297 2.95317 0
M  V30 20918 C 1936.28 3.19827 4.24128 0
M  V30 20919 C 1935.32 4.4169 4.23764 0
M  V30 20920 N 1934.46 4.43715 5.44116 0
M  V30 20921 H 1939.3 2.66933 1.3248 0
M  V30 20922 H 1936.83 1.32283 0.643393 0
M  V30 20923 H 1938.79 1.93804 3.69454 0
M  V30 20924 H 1937.42 0.978912 3.07599 0
M  V30 20925 H 1936.47 3.18464 2.08051 0
M  V30 20926 H 1937.78 4.05182 2.90911 0
M  V30 20927 H 1936.94 3.24892 5.12377 0
M  V30 20928 H 1935.68 2.27848 4.31204 0
M  V30 20929 H 1934.68 4.36791 3.33907 0
M  V30 20930 H 1935.91 5.34944 4.18343 0
M  V30 20931 H 1933.85 3.5461 5.51894 0
M  V30 20932 H 1933.77 5.27421 5.4163 0
M  V30 20933 H 1935.04 4.52986 6.34369 0
M  V30 20934 N 1939.27 -0.683564 1.42004 0
M  V30 20935 C 1940.68 -0.99563 1.24737 0
M  V30 20936 C 1940.88 -2.00976 0.145285 0
M  V30 20937 O 1939.94 -2.47771 -0.486376 0
M  V30 20938 C 1941.25 -1.50879 2.60108 0
M  V30 20939 C 1942.8 -1.62701 2.6739 0
M  V30 20940 C 1943.28 -2.17416 4.03106 0
M  V30 20941 N 1944.77 -2.24761 4.05015 0
M  V30 20942 C 1945.5 -2.68151 5.06836 0
M  V30 20943 N 1945 -3.11059 6.19043 0
M  V30 20944 N 1946.79 -2.67822 4.94194 0
M  V30 20945 H 1938.94 -0.011962 2.12397 0
M  V30 20946 H 1941.2 -0.0678489 0.945569 0
M  V30 20947 H 1940.91 -0.838159 3.41567 0
M  V30 20948 H 1940.78 -2.48899 2.83424 0
M  V30 20949 H 1943.17 -2.28873 1.86282 0
M  V30 20950 H 1943.25 -0.631947 2.47871 0
M  V30 20951 H 1942.9 -1.51856 4.84667 0
M  V30 20952 H 1942.83 -3.17698 4.19971 0
M  V30 20953 H 1945.32 -1.94497 3.24005 0
M  V30 20954 H 1945.63 -3.42828 6.92596 0
M  V30 20955 H 1943.98 -3.08937 6.22561 0
M  V30 20956 H 1947.17 -2.33658 4.05613 0
M  V30 20957 H 1947.34 -3.01318 5.73682 0
M  V30 20958 N 1940.75 -1.28031 -0.919012 0
M  V30 20959 C 1941.99 -1.14258 -1.66217 0
M  V30 20960 C 1942.31 0.309269 -1.9314 0
M  V30 20961 O 1943.51 0.568038 -2.65491 0
M  V30 20962 C 1941.97 -1.99702 -2.99411 0
M  V30 20963 C 1941.58 -3.49596 -2.80155 0
M  V30 20964 C 1943.32 -1.94601 -3.77267 0
M  V30 20965 C 1941.23 -4.27209 -4.08958 0
M  V30 20966 H 1940.16 -0.424009 -0.623484 0
M  V30 20967 H 1942.81 -1.52521 -1.02028 0
M  V30 20968 H 1941.19 -1.5429 -3.64706 0
M  V30 20969 H 1942.37 -4.02929 -2.23574 0
M  V30 20970 H 1940.68 -3.56167 -2.15718 0
M  V30 20971 H 1943.28 -2.49859 -4.72731 0
M  V30 20972 H 1943.62 -0.92157 -4.05971 0
M  V30 20973 H 1944.15 -2.37954 -3.18783 0
M  V30 20974 H 1940.89 -5.30212 -3.8543 0
M  V30 20975 H 1940.41 -3.7865 -4.65171 0
M  V30 20976 H 1942.09 -4.36847 -4.77256 0
M  V30 20977 N 1942.22 1.12672 -1.10194 0
M  V30 20978 C 1943.17 2.16406 -0.717811 0
M  V30 20979 C 1944.16 1.58588 0.271775 0
M  V30 20980 O 1945.35 1.76815 0.0809013 0
M  V30 20981 C 1942.48 3.42979 -0.148524 0
M  V30 20982 C 1941.56 4.07785 -1.165 0
M  V30 20983 N 1941.96 4.47639 -2.35485 0
M  V30 20984 C 1940.25 4.3453 -1.00495 0
M  V30 20985 C 1940.95 4.98247 -3.00208 0
M  V30 20986 N 1939.93 4.93596 -2.27736 0
M  V30 20987 H 1943.73 2.44983 -1.62359 0
M  V30 20988 H 1941.25 1.29551 -0.979299 0
M  V30 20989 H 1943.24 4.16649 0.144731 0
M  V30 20990 H 1941.9 3.15872 0.752008 0
M  V30 20991 H 1942.91 4.40088 -2.73026 0
M  V30 20992 H 1939.59 4.17194 -0.159768 0
M  V30 20993 H 1940.98 5.38817 -4.01405 0
M  V30 20994 N 1943.7 0.89031 1.30043 0
M  V30 20995 C 1944.95 0.51044 1.95548 0
M  V30 20996 C 1945.27 -0.944562 1.70596 0
M  V30 20997 O 1944.54 -1.66482 1.0325 0
M  V30 20998 H 1943.12 0.185776 0.723531 0
M  V30 20999 H 1945.78 1.13455 1.58474 0
M  V30 21000 H 1944.88 0.685155 3.04487 0
M  V30 21001 N 1945.18 -1.43489 0.651812 0
M  V30 21002 C 1946.11 -2.33484 -0.0271093 0
M  V30 21003 C 1947.09 -1.4939 -0.813427 0
M  V30 21004 O 1948.28 -1.78058 -0.775186 0
M  V30 21005 C 1945.41 -3.32737 -0.995143 0
M  V30 21006 C 1944.36 -4.26809 -0.319036 0
M  V30 21007 C 1943.69 -5.1609 -1.39842 0
M  V30 21008 C 1944.99 -5.16326 0.787692 0
M  V30 21009 H 1946.68 -2.90503 0.724441 0
M  V30 21010 H 1944.23 -1.39686 0.349826 0
M  V30 21011 H 1946.18 -3.94593 -1.479 0
M  V30 21012 H 1944.9 -2.73972 -1.77784 0
M  V30 21013 H 1943.56 -3.66316 0.144366 0
M  V30 21014 H 1943.21 -4.53664 -2.17251 0
M  V30 21015 H 1942.91 -5.79848 -0.951292 0
M  V30 21016 H 1944.43 -5.80819 -1.88367 0
M  V30 21017 H 1945.85 -5.71999 0.386053 0
M  V30 21018 H 1944.24 -5.88798 1.1592 0
M  V30 21019 H 1945.31 -4.56099 1.64626 0
M  V30 21020 N 1946.66 -0.393643 -1.52605 0
M  V30 21021 C 1947.59 0.430786 -2.29492 0
M  V30 21022 C 1948.57 1.0597 -1.33058 0
M  V30 21023 O 1949.75 1.07165 -1.61955 0
M  V30 21024 C 1946.88 1.55599 -3.10494 0
M  V30 21025 C 1945.84 1.05289 -4.14847 0
M  V30 21026 C 1945.16 2.2705 -4.841 0
M  V30 21027 C 1946.46 0.117789 -5.22167 0
M  V30 21028 H 1948.16 -0.210741 -2.98657 0
M  V30 21029 H 1945.7 -0.102795 -1.43633 0
M  V30 21030 H 1947.66 2.1396 -3.63042 0
M  V30 21031 H 1946.38 2.22517 -2.39069 0
M  V30 21032 H 1945.04 0.491788 -3.63286 0
M  V30 21033 H 1944.69 2.92487 -4.09219 0
M  V30 21034 H 1944.39 1.94047 -5.54635 0
M  V30 21035 H 1945.91 2.86045 -5.39454 0
M  V30 21036 H 1947.33 0.609718 -5.70049 0
M  V30 21037 H 1945.72 -0.122689 -5.99975 0
M  V30 21038 H 1946.79 -0.832053 -4.77708 0
M  V30 21039 N 1948.14 1.57115 -0.123593 0
M  V30 21040 C 1949.08 2.15555 0.824912 0
M  V30 21041 C 1950.05 1.08181 1.2604 0
M  V30 21042 O 1951.24 1.36111 1.3371 0
M  V30 21043 C 1948.38 2.76288 2.06783 0
M  V30 21044 C 1947.49 3.97983 1.68029 0
M  V30 21045 C 1946.63 4.46788 2.87322 0
M  V30 21046 C 1945.66 5.61004 2.44829 0
M  V30 21047 N 1944.8 6.04532 3.57052 0
M  V30 21048 H 1949.64 2.9628 0.319726 0
M  V30 21049 H 1947.18 1.46372 0.14612 0
M  V30 21050 H 1949.14 3.09632 2.79613 0
M  V30 21051 H 1947.77 1.98245 2.54752 0
M  V30 21052 H 1946.82 3.70769 0.850542 0
M  V30 21053 H 1948.13 4.80796 1.32804 0
M  V30 21054 H 1947.28 4.82066 3.68372 0
M  V30 21055 H 1946.02 3.62934 3.25776 0
M  V30 21056 H 1945.03 5.25326 1.62213 0
M  V30 21057 H 1946.25 6.46627 2.07487 0
M  V30 21058 H 1944.2 5.23618 3.95171 0
M  V30 21059 H 1944.12 6.82212 3.25766 0
M  V30 21060 H 1945.38 6.44449 4.38527 0
M  V30 21061 N 1949.61 -0.150187 1.56883 0
M  V30 21062 C 1950.84 -0.87835 1.8733 0
M  V30 21063 C 1951.26 -1.74883 0.711426 0
M  V30 21064 O 1950.61 -1.79692 -0.318906 0
M  V30 21065 C 1950.66 -1.73769 3.16996 0
M  V30 21066 O 1950.39 -0.902296 4.28708 0
M  V30 21067 C 1951.89 -2.57371 3.60936 0
M  V30 21068 H 1949.11 -0.254139 0.621011 0
M  V30 21069 H 1951.65 -0.143933 2.03993 0
M  V30 21070 H 1949.81 -2.42521 3.02097 0
M  V30 21071 H 1950.22 -1.49198 5.02832 0
M  V30 21072 H 1951.69 -3.13249 4.5451 0
M  V30 21073 H 1952.17 -3.33257 2.86071 0
M  V30 21074 H 1952.78 -1.93916 3.78519 0
M  V30 21075 N 1951.09 -1.51916 -0.419434 0
M  V30 21076 C 1952 -1.77393 -1.53522 0
M  V30 21077 C 1953.02 -0.65897 -1.61039 0
M  V30 21078 O 1954.19 -0.943237 -1.77947 0
M  V30 21079 C 1951.26 -1.90988 -2.89352 0
M  V30 21080 C 1950.32 -3.14878 -2.91805 0
M  V30 21081 C 1949.55 -3.27815 -4.21157 0
M  V30 21082 O 1949.78 -2.4626 -5.14502 0
M  V30 21083 O 1948.71 -4.20906 -4.30258 0
M  V30 21084 H 1952.54 -2.72079 -1.34932 0
M  V30 21085 H 1950.12 -1.36635 -0.604259 0
M  V30 21086 H 1952 -2.01812 -3.69932 0
M  V30 21087 H 1950.68 -0.994906 -3.08031 0
M  V30 21088 H 1949.59 -3.0952 -2.10115 0
M  V30 21089 H 1950.92 -4.06123 -2.78073 0
M  V30 21090 N 1952.57 0.676023 -1.42365 0
M  V30 21091 C 1953.53 1.77138 -1.45446 0
M  V30 21092 C 1954.53 1.57116 -0.342226 0
M  V30 21093 O 1955.72 1.63431 -0.602999 0
M  V30 21094 C 1952.86 3.15757 -1.28492 0
M  V30 21095 H 1954.05 1.75794 -2.42974 0
M  V30 21096 H 1951.6 0.885538 -1.28794 0
M  V30 21097 H 1952.34 3.22729 -0.318815 0
M  V30 21098 H 1952.12 3.31694 -2.09097 0
M  V30 21099 H 1953.61 3.95677 -1.33528 0
M  V30 21100 N 1954.05 1.28517 0.912209 0
M  V30 21101 C 1954.96 1.14429 2.048 0
M  V30 21102 C 1955.97 0.0704926 1.73857 0
M  V30 21103 O 1957.15 0.280091 1.99443 0
M  V30 21104 C 1954.22 0.809034 3.37128 0
M  V30 21105 C 1953.28 1.96535 3.8167 0
M  V30 21106 C 1952.51 1.646 5.07684 0
M  V30 21107 O 1952.73 0.561072 5.67634 0
M  V30 21108 O 1951.67 2.49011 5.47975 0
M  V30 21109 H 1955.49 2.0978 2.19604 0
M  V30 21110 H 1953.08 1.0785 1.03387 0
M  V30 21111 H 1954.96 0.636082 4.16572 0
M  V30 21112 H 1953.63 -0.114812 3.23496 0
M  V30 21113 H 1952.54 2.19347 3.03047 0
M  V30 21114 H 1953.87 2.86996 3.99868 0
M  V30 21115 N 1955.53 -1.12086 1.1079 0
M  V30 21116 C 1956.75 -1.88034 0.875097 0
M  V30 21117 C 1957.18 -1.79281 -0.569191 0
M  V30 21118 O 1956.53 -1.15037 -1.40129 0
M  V30 21119 C 1956.58 -3.35066 1.33278 0
M  V30 21120 O 1955.69 -4.09356 0.500163 0
M  V30 21121 H 1955.03 -0.584116 0.31576 0
M  V30 21122 H 1957.56 -1.41725 1.47564 0
M  V30 21123 H 1957.57 -3.85908 1.32434 0
M  V30 21124 H 1956.24 -3.40753 2.38453 0
M  V30 21125 H 1954.82 -3.68454 0.574137 0
M  V30 21126 N 1957 -0.897194 -1.29569 0
M  V30 21127 C 1958.23 -0.536391 -1.99515 0
M  V30 21128 C 1958.64 0.882674 -1.67348 0
M  V30 21129 O 1957.99 1.59379 -0.913459 0
M  V30 21130 C 1958.05 -0.645863 -3.53651 0
M  V30 21131 C 1957.71 -2.03145 -4.09367 0
M  V30 21132 C 1958.71 -3.00231 -4.24449 0
M  V30 21133 C 1956.39 -2.34015 -4.44457 0
M  V30 21134 C 1958.39 -4.26314 -4.73852 0
M  V30 21135 C 1956.07 -3.60341 -4.93556 0
M  V30 21136 C 1957.07 -4.56304 -5.08208 0
M  V30 21137 O 1956.76 -5.80387 -5.56243 0
M  V30 21138 H 1956.49 -0.204698 -0.644263 0
M  V30 21139 H 1959.05 -1.20784 -1.66134 0
M  V30 21140 H 1957.28 0.0826055 -3.86612 0
M  V30 21141 H 1958.97 -0.294573 -4.0483 0
M  V30 21142 H 1959.73 -2.77696 -3.9763 0
M  V30 21143 H 1955.61 -1.60082 -4.32313 0
M  V30 21144 H 1959.15 -5.01222 -4.85203 0
M  V30 21145 H 1955.05 -3.82707 -5.19813 0
M  V30 21146 H 1955.82 -5.82941 -5.74562 0
M  V30 21147 N 1958.48 1.43142 -0.659413 0
M  V30 21148 C 1959.39 2.34582 0.0288714 0
M  V30 21149 C 1960.41 1.54232 0.805512 0
M  V30 21150 O 1961.58 1.8686 0.751347 0
M  V30 21151 C 1958.65 3.32587 0.97912 0
M  V30 21152 C 1957.71 4.2884 0.198725 0
M  V30 21153 C 1956.94 5.22163 1.10371 0
M  V30 21154 O 1957.17 5.20054 2.34308 0
M  V30 21155 O 1956.1 5.99168 0.572785 0
M  V30 21156 H 1959.93 2.94945 -0.723947 0
M  V30 21157 H 1957.51 1.43386 -0.419609 0
M  V30 21158 H 1959.39 3.92836 1.52505 0
M  V30 21159 H 1958.07 2.74719 1.71206 0
M  V30 21160 H 1956.98 3.72052 -0.390942 0
M  V30 21161 H 1958.31 4.89707 -0.494774 0
M  V30 21162 N 1959.96 0.40173 1.52394 0
M  V30 21163 C 1961.21 -0.17611 2.01331 0
M  V30 21164 C 1961.53 -1.46274 1.28953 0
M  V30 21165 O 1960.8 -1.91492 0.413249 0
M  V30 21166 H 1959.38 -0.0680697 0.743892 0
M  V30 21167 H 1962.04 0.536274 1.87377 0
M  V30 21168 H 1961.14 -0.377497 3.09809 0
M  V30 21169 N 1961.44 -1.57047 0.131923 0
M  V30 21170 C 1962.37 -2.19006 -0.809859 0
M  V30 21171 C 1963.35 -1.13384 -1.26799 0
M  V30 21172 O 1964.53 -1.4167 -1.32827 0
M  V30 21173 C 1961.66 -2.79973 -2.05505 0
M  V30 21174 C 1960.62 -3.9129 -1.73424 0
M  V30 21175 C 1959.94 -4.39123 -3.05081 0
M  V30 21176 C 1961.24 -5.12783 -0.992535 0
M  V30 21177 H 1962.94 -2.97958 -0.293522 0
M  V30 21178 H 1960.48 -1.4332 -0.13974 0
M  V30 21179 H 1962.44 -3.2198 -2.71858 0
M  V30 21180 H 1961.16 -1.9833 -2.59486 0
M  V30 21181 H 1959.82 -3.49879 -1.09456 0
M  V30 21182 H 1959.47 -3.54322 -3.57022 0
M  V30 21183 H 1959.17 -5.14197 -2.84385 0
M  V30 21184 H 1960.69 -4.8379 -3.72531 0
M  V30 21185 H 1962.11 -5.51728 -1.55785 0
M  V30 21186 H 1960.5 -5.93522 -0.886062 0
M  V30 21187 H 1961.57 -4.84896 0.0184538 0
M  V30 21188 N 1962.92 0.141865 -1.5696 0
M  V30 21189 C 1963.85 1.17667 -2.01685 0
M  V30 21190 C 1964.83 1.44509 -0.897282 0
M  V30 21191 O 1966.01 1.55342 -1.16544 0
M  V30 21192 C 1963.14 2.50859 -2.40182 0
M  V30 21193 C 1962.1 2.38527 -3.55371 0
M  V30 21194 C 1961.42 3.76476 -3.79697 0
M  V30 21195 C 1962.72 1.86502 -4.87867 0
M  V30 21196 H 1964.42 0.804761 -2.88382 0
M  V30 21197 H 1961.96 0.385672 -1.38739 0
M  V30 21198 H 1963.92 3.2348 -2.70071 0
M  V30 21199 H 1962.64 2.89895 -1.50428 0
M  V30 21200 H 1961.3 1.68357 -3.25656 0
M  V30 21201 H 1960.95 4.12957 -2.87186 0
M  V30 21202 H 1960.65 3.69085 -4.5722 0
M  V30 21203 H 1962.17 4.50638 -4.12017 0
M  V30 21204 H 1963.58 2.48921 -5.16441 0
M  V30 21205 H 1961.98 1.89989 -5.69231 0
M  V30 21206 H 1963.05 0.821025 -4.77899 0
M  V30 21207 N 1964.39 1.52136 0.411372 0
M  V30 21208 C 1965.36 1.74698 1.48369 0
M  V30 21209 C 1966.36 0.616863 1.48497 0
M  V30 21210 O 1967.55 0.884716 1.50061 0
M  V30 21211 C 1964.68 1.82729 2.8779 0
M  V30 21212 H 1965.87 2.70424 1.29658 0
M  V30 21213 H 1963.43 1.42519 0.641725 0
M  V30 21214 H 1964.16 0.889096 3.11874 0
M  V30 21215 H 1963.95 2.64884 2.891 0
M  V30 21216 H 1965.44 2.01934 3.6553 0
M  V30 21217 N 1965.87 -0.668464 1.42721 0
M  V30 21218 C 1967.28 -1.24925 1.38747 0
M  V30 21219 C 1967.64 -1.96021 0.0838911 0
M  V30 21220 O 1966.76 -2.00378 -0.817178 0
M  V30 21221 C 1967.36 -2.27201 2.51327 0
M  V30 21222 C 1965.91 -2.80792 2.50665 0
M  V30 21223 C 1965.06 -1.55205 2.29797 0
M  V30 21224 H 1968.01 -0.461443 1.51843 0
M  V30 21225 H 1968.03 -3.09067 2.21941 0
M  V30 21226 H 1967.55 -1.75428 3.46189 0
M  V30 21227 H 1965.65 -3.36669 1.59639 0
M  V30 21228 H 1965.76 -3.29376 3.4792 0
M  V30 21229 H 1964.12 -1.82004 1.78176 0
M  V30 21230 H 1964.91 -1.05389 3.26723 0
M  V30 21231 N 1967.35 -1.28999 -0.905381 0
M  V30 21232 C 1968.58 -1.19632 -1.69419 0
M  V30 21233 C 1969 0.240433 -1.86557 0
M  V30 21234 O 1968.36 1.17374 -1.38177 0
M  V30 21235 C 1968.41 -1.90881 -3.05936 0
M  V30 21236 O 1967.51 -1.22198 -3.9388 0
M  V30 21237 H 1966.85 -0.414842 -0.518461 0
M  V30 21238 H 1969.38 -1.70468 -1.13145 0
M  V30 21239 H 1969.39 -1.99115 -3.56114 0
M  V30 21240 H 1968.07 -2.95385 -2.9278 0
M  V30 21241 H 1966.64 -1.22185 -3.52314 0
M  V30 21242 N 1968.83 1.11497 -1.11383 0
M  V30 21243 C 1969.76 2.19592 -0.793827 0
M  V30 21244 C 1970.74 1.68433 0.237559 0
M  V30 21245 O 1971.93 1.93936 0.101164 0
M  V30 21246 C 1969.06 3.465 -0.235579 0
M  V30 21247 C 1968.01 4.10869 -1.19877 0
M  V30 21248 C 1967.34 5.32345 -0.501259 0
M  V30 21249 C 1968.64 4.55864 -2.54922 0
M  V30 21250 H 1970.33 2.46617 -1.69766 0
M  V30 21251 H 1967.88 1.18532 -0.817695 0
M  V30 21252 H 1969.83 4.214 0.000490272 0
M  V30 21253 H 1968.55 3.18932 0.703544 0
M  V30 21254 H 1967.21 3.37962 -1.42046 0
M  V30 21255 H 1966.86 5.01048 0.442652 0
M  V30 21256 H 1966.56 5.76363 -1.14367 0
M  V30 21257 H 1968.08 6.09985 -0.273968 0
M  V30 21258 H 1969.5 5.22089 -2.36845 0
M  V30 21259 H 1967.89 5.10693 -3.15139 0
M  V30 21260 H 1968.96 3.69342 -3.14189 0
M  V30 21261 N 1970.31 0.904053 1.29092 0
M  V30 21262 C 1971.56 0.528154 1.94662 0
M  V30 21263 C 1971.87 -0.930986 1.72023 0
M  V30 21264 O 1973.08 -1.4146 2.31735 0
M  V30 21265 C 1971.53 0.893684 3.48628 0
M  V30 21266 C 1971.14 2.37189 3.8006 0
M  V30 21267 C 1972.88 0.587904 4.20409 0
M  V30 21268 C 1970.79 2.67805 5.2729 0
M  V30 21269 H 1969.72 0.193795 0.72867 0
M  V30 21270 H 1972.37 1.10164 1.46752 0
M  V30 21271 H 1970.75 0.249078 3.95216 0
M  V30 21272 H 1971.93 3.06241 3.44315 0
M  V30 21273 H 1970.24 2.64714 3.21428 0
M  V30 21274 H 1972.84 0.793441 5.2878 0
M  V30 21275 H 1973.18 -0.473803 4.13595 0
M  V30 21276 H 1973.72 1.19054 3.79567 0
M  V30 21277 H 1970.45 3.72791 5.39172 0
M  V30 21278 H 1969.97 2.03381 5.64266 0
M  V30 21279 H 1971.65 2.543 5.94929 0
M  V30 21280 N 1971.79 -1.4279 0.666995 0
M  V30 21281 C 1973.2 -1.84821 0.264217 0
M  V30 21282 C 1973.55 -1.55834 -1.19206 0
M  V30 21283 O 1972.67 -1.01422 -1.91161 0
M  V30 21284 C 1973.27 -3.35485 0.47276 0
M  V30 21285 C 1971.83 -3.76195 0.124176 0
M  V30 21286 C 1970.97 -2.66424 0.768989 0
M  V30 21287 H 1973.92 -1.32747 0.869709 0
M  V30 21288 H 1973.95 -3.79487 -0.277532 0
M  V30 21289 H 1973.46 -3.56551 1.53274 0
M  V30 21290 H 1971.56 -3.60738 -0.932667 0
M  V30 21291 H 1971.67 -4.75825 0.559251 0
M  V30 21292 H 1970.04 -2.53906 0.200994 0
M  V30 21293 H 1970.82 -2.90315 1.83227 0
M  V30 21294 N 1973.26 -0.409806 -1.52179 0
M  V30 21295 C 1974.21 0.415351 -2.27032 0
M  V30 21296 C 1975.18 1.04048 -1.29473 0
M  V30 21297 O 1976.37 1.06462 -1.58336 0
M  V30 21298 C 1973.51 1.52571 -3.09542 0
M  V30 21299 C 1972.62 0.921439 -4.22059 0
M  V30 21300 C 1971.75 2.00455 -4.91926 0
M  V30 21301 C 1970.79 1.37725 -5.96404 0
M  V30 21302 N 1969.93 2.40054 -6.59787 0
M  V30 21303 H 1974.77 -0.22939 -2.97116 0
M  V30 21304 H 1972.31 -0.124962 -1.46568 0
M  V30 21305 H 1974.26 2.18046 -3.55685 0
M  V30 21306 H 1972.89 2.14047 -2.41627 0
M  V30 21307 H 1971.95 0.15572 -3.80081 0
M  V30 21308 H 1973.26 0.423208 -4.97001 0
M  V30 21309 H 1972.41 2.73655 -5.41477 0
M  V30 21310 H 1971.15 2.53644 -4.16552 0
M  V30 21311 H 1970.16 0.63059 -5.46172 0
M  V30 21312 H 1971.38 0.853049 -6.73721 0
M  V30 21313 H 1969.33 2.92374 -5.87242 0
M  V30 21314 H 1969.24 1.95045 -7.30406 0
M  V30 21315 H 1970.51 3.12822 -7.13977 0
M  V30 21316 N 1974.74 1.56975 -0.14025 0
M  V30 21317 C 1975.69 2.17699 0.819153 0
M  V30 21318 C 1976.68 1.13208 1.26017 0
M  V30 21319 O 1977.89 1.31472 1.22944 0
M  V30 21320 H 1974.26 0.696983 0.282345 0
M  V30 21321 H 1976.24 2.97058 0.28273 0
M  V30 21322 C 1974.98 2.80769 2.05096 0
M  V30 21323 H 1974.31 3.60882 1.72058 0
M  V30 21324 H 1975.75 3.26768 2.70183 0
M  V30 21325 C 1974.21 1.7893 2.85457 0
M  V30 21326 O 1974.74 1.25562 3.81572 0
M  V30 21327 N 1972.94 1.48386 2.4986 0
M  V30 21328 H 1972.49 1.91976 1.71765 0
M  V30 21329 H 1972.45 0.804935 3.03921 0
M  V30 21330 N 1976.22 -0.133539 1.57033 0
M  V30 21331 C 1977.47 -0.840207 1.85235 0
M  V30 21332 C 1977.82 -1.78174 0.726072 0
M  V30 21333 O 1977.11 -1.89616 -0.275024 0
M  V30 21334 C 1977.31 -1.64036 3.17533 0
M  V30 21335 C 1977.14 -0.777803 4.42922 0
M  V30 21336 C 1975.91 -0.438225 5.03396 0
M  V30 21337 C 1978.1 -0.102003 5.14199 0
M  V30 21338 N 1976.09 0.436515 6.12346 0
M  V30 21339 C 1977.46 0.632323 6.16767 0
M  V30 21340 C 1979.51 -0.0240719 4.97894 0
M  V30 21341 C 1978.22 1.43724 7.04795 0
M  V30 21342 C 1980.24 0.767626 5.86397 0
M  V30 21343 C 1979.6 1.49019 6.88457 0
M  V30 21344 H 1975.7 -0.284849 0.728275 0
M  V30 21345 H 1978.29 -0.104766 1.94418 0
M  V30 21346 H 1976.46 -2.34694 3.09473 0
M  V30 21347 H 1978.19 -2.29123 3.33594 0
M  V30 21348 H 1974.94 -0.777127 4.67181 0
M  V30 21349 H 1975.37 0.865306 6.71447 0
M  V30 21350 H 1980.01 -0.568355 4.18962 0
M  V30 21351 H 1977.73 1.99274 7.83145 0
M  V30 21352 H 1981.31 0.830093 5.75848 0
M  V30 21353 H 1980.19 2.09296 7.55755 0
M  V30 21354 N 1977.7 -1.52352 -0.403298 0
M  V30 21355 C 1979.11 -1.58796 -0.981864 0
M  V30 21356 C 1979.46 -0.432029 -1.91384 0
M  V30 21357 O 1978.58 0.446835 -2.11736 0
M  V30 21358 C 1979.18 -2.87807 -1.78752 0
M  V30 21359 C 1977.74 -2.96711 -2.31602 0
M  V30 21360 C 1976.89 -2.53787 -1.11748 0
M  V30 21361 H 1979.84 -1.57638 -0.18333 0
M  V30 21362 H 1979.86 -2.73488 -2.64546 0
M  V30 21363 H 1979.37 -3.71919 -1.10896 0
M  V30 21364 H 1977.47 -2.17105 -3.02814 0
M  V30 21365 H 1977.58 -4.0107 -2.62069 0
M  V30 21366 H 1975.95 -2.07771 -1.47321 0
M  V30 21367 H 1976.73 -3.40278 -0.45449 0
M  V30 21368 N 1979.18 0.660885 -1.43074 0
M  V30 21369 C 1980.45 1.41768 -1.34764 0
M  V30 21370 C 1980.83 2.11098 0.00828719 0
M  V30 21371 O 1980.18 2.04246 1.02449 0
M  V30 21372 C 1980.39 2.40869 -2.52553 0
M  V30 21373 C 1981.74 3.05098 -2.95297 0
M  V30 21374 O 1982.76 2.51196 -2.52545 0
M  V30 21375 O 1981.62 4.02808 -3.69335 0
M  V30 21376 H 1978.72 0.633017 -0.532182 0
M  V30 21377 H 1981.26 0.688438 -1.55108 0
M  V30 21378 H 1980.03 1.88533 -3.42886 0
M  V30 21379 H 1979.66 3.21254 -2.34268 0
M  V30 21380 N 1980.65 1.29477 0.898527 0
M  V30 21381 C 1981.59 1.10513 2.00797 0
M  V30 21382 C 1982.6 0.0522996 1.62716 0
M  V30 21383 O 1983.79 0.296941 1.76013 0
M  V30 21384 C 1980.89 0.660433 3.32403 0
M  V30 21385 C 1980.06 1.79205 3.99004 0
M  V30 21386 C 1979.12 1.33816 5.089 0
M  V30 21387 O 1978.15 2.04308 5.31269 0
M  V30 21388 N 1979.35 0.209692 5.80121 0
M  V30 21389 H 1982.11 2.06063 2.17619 0
M  V30 21390 H 1979.67 1.21432 1.07078 0
M  V30 21391 H 1981.67 0.340075 4.03269 0
M  V30 21392 H 1980.24 -0.20264 3.11943 0
M  V30 21393 H 1979.46 2.28123 3.21487 0
M  V30 21394 H 1980.74 2.55075 4.40244 0
M  V30 21395 H 1980.14 -0.377998 5.64436 0
M  V30 21396 H 1978.7 -0.0512922 6.5178 0
M  V30 21397 N 1982.13 -1.10905 1.11972 0
M  V30 21398 C 1983.38 -1.82401 0.870296 0
M  V30 21399 C 1983.7 -1.85356 -0.605649 0
M  V30 21400 O 1982.97 -1.32812 -1.44006 0
M  V30 21401 H 1981.55 -0.675471 0.318979 0
M  V30 21402 H 1984.21 -1.34216 1.41323 0
M  V30 21403 H 1983.31 -2.86086 1.24746 0
M  V30 21404 N 1983.61 -0.910886 -1.2861 0
M  V30 21405 C 1984.56 -0.395575 -2.27385 0
M  V30 21406 C 1985.53 0.528415 -1.57471 0
M  V30 21407 O 1986.71 0.451232 -1.85388 0
M  V30 21408 C 1983.85 0.360855 -3.43208 0
M  V30 21409 C 1982.97 -0.59531 -4.27879 0
M  V30 21410 C 1982.1 0.179282 -5.30897 0
M  V30 21411 C 1981.14 -0.770684 -6.07229 0
M  V30 21412 N 1980.28 -0.0297918 -7.02094 0
M  V30 21413 H 1985.12 -1.24293 -2.70842 0
M  V30 21414 H 1982.65 -0.624218 -1.33199 0
M  V30 21415 H 1984.61 0.815583 -4.0915 0
M  V30 21416 H 1983.24 1.17258 -3.0075 0
M  V30 21417 H 1982.29 -1.16857 -3.62006 0
M  V30 21418 H 1983.61 -1.32201 -4.80962 0
M  V30 21419 H 1982.76 0.694702 -6.0271 0
M  V30 21420 H 1981.5 0.93905 -4.78574 0
M  V30 21421 H 1980.5 -1.29751 -5.3427 0
M  V30 21422 H 1981.73 -1.52996 -6.61641 0
M  V30 21423 H 1979.67 0.712039 -6.52124 0
M  V30 21424 H 1979.59 -0.69637 -7.52786 0
M  V30 21425 H 1980.86 0.465527 -7.78109 0
M  V30 21426 N 1985.09 1.42434 -0.674558 0
M  V30 21427 C 1986.34 2.00765 -0.193936 0
M  V30 21428 C 1986.65 1.53957 1.20651 0
M  V30 21429 O 1987.86 2.04705 1.78348 0
M  V30 21430 C 1986.31 3.58682 -0.295862 0
M  V30 21431 C 1985.92 4.14478 -1.70034 0
M  V30 21432 C 1987.66 4.24313 0.12606 0
M  V30 21433 C 1985.57 5.64758 -1.75505 0
M  V30 21434 H 1984.5 0.75086 -0.0687443 0
M  V30 21435 H 1987.15 1.6316 -0.839705 0
M  V30 21436 H 1985.53 3.9379 0.417795 0
M  V30 21437 H 1986.71 3.90831 -2.44106 0
M  V30 21438 H 1985.02 3.61298 -2.07009 0
M  V30 21439 H 1987.62 5.34596 0.105331 0
M  V30 21440 H 1987.96 3.99775 1.16127 0
M  V30 21441 H 1988.5 3.94164 -0.536581 0
M  V30 21442 H 1985.24 5.94094 -2.77007 0
M  V30 21443 H 1984.76 5.90397 -1.05788 0
M  V30 21444 H 1986.43 6.29172 -1.50838 0
M  V30 21445 N 1986.57 0.417871 1.51959 0
M  V30 21446 C 1987.5 -0.438814 2.2496 0
M  V30 21447 C 1988.51 -1.00283 1.28246 0
M  V30 21448 O 1989.7 -0.900288 1.54133 0
M  V30 21449 C 1986.8 -1.62371 2.97471 0
M  V30 21450 C 1985.97 -1.18204 4.21125 0
M  V30 21451 C 1985.03 -2.23484 4.76384 0
M  V30 21452 O 1984.06 -1.83715 5.38737 0
M  V30 21453 N 1985.26 -3.55751 4.58717 0
M  V30 21454 H 1988.03 0.18676 2.99118 0
M  V30 21455 H 1985.59 0.245711 1.60025 0
M  V30 21456 H 1987.58 -2.32385 3.3133 0
M  V30 21457 H 1986.15 -2.15503 2.26445 0
M  V30 21458 H 1985.37 -0.309696 3.92982 0
M  V30 21459 H 1986.66 -0.86403 5.0141 0
M  V30 21460 H 1986.05 -3.90806 4.09008 0
M  V30 21461 H 1984.61 -4.21715 4.96991 0
M  V30 21462 N 1988.04 -1.56898 0.148573 0
M  V30 21463 C 1989.29 -1.9535 -0.502116 0
M  V30 21464 C 1989.61 -1.03603 -1.65909 0
M  V30 21465 O 1990.81 -1.31641 -2.37451 0
M  V30 21466 C 1989.27 -3.47281 -0.944653 0
M  V30 21467 C 1988.88 -4.47616 0.185474 0
M  V30 21468 C 1990.62 -3.94597 -1.56504 0
M  V30 21469 C 1988.53 -5.90758 -0.27542 0
M  V30 21470 H 1987.46 -0.729315 -0.191351 0
M  V30 21471 H 1990.11 -1.82013 0.233169 0
M  V30 21472 H 1988.49 -3.55957 -1.73525 0
M  V30 21473 H 1989.66 -4.50637 0.962441 0
M  V30 21474 H 1987.98 -4.10226 0.714373 0
M  V30 21475 H 1990.58 -4.9898 -1.92153 0
M  V30 21476 H 1990.92 -3.36238 -2.45459 0
M  V30 21477 H 1991.45 -3.88845 -0.839319 0
M  V30 21478 H 1988.19 -6.5294 0.578787 0
M  V30 21479 H 1987.71 -5.91094 -1.01823 0
M  V30 21480 H 1989.39 -6.42904 -0.726905 0
M  V30 21481 N 1989.52 0.125209 -1.57102 0
M  V30 21482 C 1990.45 1.17944 -1.96524 0
M  V30 21483 C 1991.47 1.37997 -0.863757 0
M  V30 21484 O 1992.66 1.37182 -1.14208 0
M  V30 21485 C 1989.76 2.54056 -2.24296 0
M  V30 21486 C 1988.93 2.5469 -3.55601 0
M  V30 21487 C 1987.99 3.72501 -3.71658 0
M  V30 21488 O 1987.01 3.56372 -4.43833 0
M  V30 21489 N 1988.22 4.90822 -3.09958 0
M  V30 21490 H 1990.98 0.844157 -2.87566 0
M  V30 21491 H 1988.54 0.314552 -1.58815 0
M  V30 21492 H 1990.53 3.31418 -2.32259 0
M  V30 21493 H 1989.1 2.79791 -1.39412 0
M  V30 21494 H 1988.32 1.63087 -3.58882 0
M  V30 21495 H 1989.61 2.52164 -4.41917 0
M  V30 21496 H 1989.01 5.0683 -2.51276 0
M  V30 21497 H 1987.57 5.65882 -3.23451 0
M  V30 21498 N 1991 1.52564 0.395213 0
M  V30 21499 C 1991.95 1.77531 1.50285 0
M  V30 21500 C 1992.94 0.642976 1.56723 0
M  V30 21501 O 1994.15 0.825323 1.59964 0
M  V30 21502 H 1990.52 0.561636 0.500069 0
M  V30 21503 H 1992.49 2.70298 1.26418 0
M  V30 21504 C 1991.24 1.95557 2.87494 0
M  V30 21505 H 1990.57 2.82114 2.83288 0
M  V30 21506 H 1992.01 2.17019 3.64251 0
M  V30 21507 C 1990.47 0.726406 3.28976 0
M  V30 21508 O 1991 -0.0991246 4.01578 0
M  V30 21509 N 1989.2 0.558299 2.85187 0
M  V30 21510 H 1988.75 1.2312 2.26272 0
M  V30 21511 H 1988.71 -0.262779 3.133 0
M  V30 21512 N 1992.48 -0.653289 1.43422 0
M  V30 21513 C 1993.41 -1.77779 1.51383 0
M  V30 21514 C 1994.39 -1.6606 0.368515 0
M  V30 21515 O 1995.57 -1.85157 0.585721 0
M  V30 21516 C 1992.7 -3.16206 1.43635 0
M  V30 21517 C 1991.66 -3.42688 2.56415 0
M  V30 21518 C 1990.98 -4.80915 2.3372 0
M  V30 21519 C 1992.28 -3.3744 3.98662 0
M  V30 21520 H 1993.98 -1.71374 2.45502 0
M  V30 21521 H 1991.52 -0.823062 1.1816 0
M  V30 21522 H 1993.48 -3.94627 1.47808 0
M  V30 21523 H 1992.2 -3.23341 0.460202 0
M  V30 21524 H 1990.86 -2.66638 2.51594 0
M  V30 21525 H 1990.51 -4.84726 1.34349 0
M  V30 21526 H 1990.21 -4.99594 3.09321 0
M  V30 21527 H 1991.73 -5.61594 2.39677 0
M  V30 21528 H 1993.15 -4.05798 4.0497 0
M  V30 21529 H 1991.54 -3.67656 4.74288 0
M  V30 21530 H 1992.61 -2.35624 4.23803 0
M  V30 21531 N 1993.96 -1.29952 -0.891648 0
M  V30 21532 C 1995.18 -1.21422 -1.68141 0
M  V30 21533 C 1995.61 0.220633 -1.86802 0
M  V30 21534 O 1994.96 1.15902 -1.39414 0
M  V30 21535 C 1995.01 -1.94116 -3.03894 0
M  V30 21536 O 1994.12 -1.26369 -3.92562 0
M  V30 21537 H 1993.46 -0.420318 -0.514032 0
M  V30 21538 H 1995.99 -1.71658 -1.11331 0
M  V30 21539 H 1996 -2.02881 -3.53982 0
M  V30 21540 H 1994.67 -2.98474 -2.89631 0
M  V30 21541 H 1993.25 -1.25915 -3.50998 0
M  V30 21542 N 1995.44 1.1031 -1.12559 0
M  V30 21543 C 1996.68 1.82567 -0.883005 0
M  V30 21544 C 1997.01 1.85031 0.589667 0
M  V30 21545 O 1996.29 1.3119 1.43595 0
M  V30 21546 C 1996.57 3.29171 -1.46009 0
M  V30 21547 C 1996.43 3.35032 -3.00122 0
M  V30 21548 C 1997.74 4.25591 -1.12073 0
M  V30 21549 H 1994.86 0.662829 -0.322221 0
M  V30 21550 H 1997.51 1.29276 -1.3924 0
M  V30 21551 H 1995.66 3.74684 -1.02685 0
M  V30 21552 H 1997.33 2.9799 -3.52135 0
M  V30 21553 H 1995.57 2.74892 -3.35584 0
M  V30 21554 H 1996.24 4.3827 -3.35595 0
M  V30 21555 H 1998.72 3.88318 -1.49494 0
M  V30 21556 H 1997.59 5.26528 -1.55112 0
M  V30 21557 H 1997.85 4.42088 -0.0331138 0
M  V30 21558 N 1996.91 0.917694 1.28125 0
M  V30 21559 C 1998.33 0.616431 1.47215 0
M  V30 21560 C 1998.53 -0.837161 1.83286 0
M  V30 21561 O 1997.59 -1.61591 1.94022 0
M  V30 21562 C 1998.9 1.55772 2.57207 0
M  V30 21563 C 2000.45 1.56486 2.71074 0
M  V30 21564 C 2000.92 2.49286 3.84214 0
M  V30 21565 N 2002.41 2.47436 3.91573 0
M  V30 21566 C 2003.15 3.15936 4.7851 0
M  V30 21567 N 2002.64 3.9378 5.70008 0
M  V30 21568 N 2004.44 3.05004 4.72154 0
M  V30 21569 H 1996.59 1.85758 1.02993 0
M  V30 21570 H 1998.85 0.796969 0.513366 0
M  V30 21571 H 1998.56 2.59423 2.37471 0
M  V30 21572 H 1998.43 1.2918 3.5439 0
M  V30 21573 H 2000.82 0.535708 2.90197 0
M  V30 21574 H 2000.9 1.87122 1.7441 0
M  V30 21575 H 2000.54 3.52306 3.65846 0
M  V30 21576 H 2000.47 2.1595 4.80284 0
M  V30 21577 H 2002.96 1.90893 3.26141 0
M  V30 21578 H 2003.28 4.43058 6.33182 0
M  V30 21579 H 2001.62 3.97885 5.69836 0
M  V30 21580 H 2004.81 2.4369 3.99666 0
M  V30 21581 H 2004.99 3.5866 5.39691 0
M  V30 21582 N 1998.39 -1.42074 0.682102 0
M  V30 21583 C 1999.62 -2.05471 0.215716 0
M  V30 21584 C 2000.03 -1.51372 -1.13504 0
M  V30 21585 O 1999.37 -0.651251 -1.71768 0
M  V30 21586 C 1999.43 -3.59408 0.0812503 0
M  V30 21587 C 1999.1 -4.36236 1.36189 0
M  V30 21588 C 2000.1 -4.6641 2.29691 0
M  V30 21589 C 1997.78 -4.75747 1.61152 0
M  V30 21590 C 1999.77 -5.35039 3.46428 0
M  V30 21591 C 1997.46 -5.44115 2.78176 0
M  V30 21592 C 1998.46 -5.73687 3.70638 0
M  V30 21593 O 1998.15 -6.40651 4.85615 0
M  V30 21594 H 1997.88 -0.668449 0.100755 0
M  V30 21595 H 2000.43 -1.83072 0.931332 0
M  V30 21596 H 1998.66 -3.80494 -0.690014 0
M  V30 21597 H 2000.35 -4.04421 -0.346206 0
M  V30 21598 H 2001.12 -4.36378 2.11658 0
M  V30 21599 H 1997 -4.52119 0.900512 0
M  V30 21600 H 2000.54 -5.58037 4.18617 0
M  V30 21601 H 1996.44 -5.73565 2.96132 0
M  V30 21602 H 1997.21 -6.59144 4.85254 0
M  V30 21603 N 1999.87 -0.425924 -1.51735 0
M  V30 21604 C 2001.15 0.203721 -1.94536 0
M  V30 21605 C 2001.53 1.61124 -1.3639 0
M  V30 21606 O 2000.87 2.21871 -0.54638 0
M  V30 21607 C 2001.08 0.193041 -3.48466 0
M  V30 21608 C 2002.43 0.404204 -4.22672 0
M  V30 21609 O 2003.46 0.271662 -3.55163 0
M  V30 21610 O 2002.32 0.666926 -5.42415 0
M  V30 21611 H 1999.41 0.136115 -0.815722 0
M  V30 21612 H 2001.96 -0.48308 -1.62679 0
M  V30 21613 H 2000.73 -0.791421 -3.83213 0
M  V30 21614 H 2000.35 0.923235 -3.86733 0
M  V30 21615 N 2001.35 1.56817 -0.156891 0
M  V30 21616 C 2002.57 2.01242 0.501622 0
M  V30 21617 C 2003 1.03635 1.56976 0
M  V30 21618 O 2002.36 0.0136188 1.81295 0
M  V30 21619 C 2002.4 3.44357 1.07007 0
M  V30 21620 O 2001.51 3.49783 2.18461 0
M  V30 21621 H 2000.85 0.652757 0.121673 0
M  V30 21622 H 2003.38 2.02985 -0.256537 0
M  V30 21623 H 2003.39 3.83364 1.39628 0
M  V30 21624 H 2002.06 4.14902 0.287924 0
M  V30 21625 H 2000.64 3.22626 1.86994 0
M  V30 21626 N 2002.83 -0.116876 1.57166 0
M  V30 21627 C 2004.05 -0.842338 1.89524 0
M  V30 21628 C 2004.48 -1.72543 0.749039 0
M  V30 21629 O 2003.83 -1.78795 -0.30035 0
M  V30 21630 C 2003.88 -1.64989 3.20641 0
M  V30 21631 O 2002.99 -2.75701 3.06696 0
M  V30 21632 H 2002.33 -0.232809 0.621849 0
M  V30 21633 H 2004.86 -0.0986366 2.04362 0
M  V30 21634 H 2004.87 -2.03869 3.53414 0
M  V30 21635 H 2003.54 -1.00164 4.03658 0
M  V30 21636 H 2002.12 -2.40009 2.85395 0
M  V30 21637 N 2004.3 -1.52772 -0.387116 0
M  V30 21638 C 2005.23 -1.80654 -1.47941 0
M  V30 21639 C 2006.21 -0.658677 -1.56829 0
M  V30 21640 O 2007.4 -0.906449 -1.71747 0
M  V30 21641 C 2004.53 -1.97709 -2.85532 0
M  V30 21642 C 2003.48 -3.13404 -2.91482 0
M  V30 21643 C 2002.81 -3.15717 -4.3154 0
M  V30 21644 C 2004.11 -4.52437 -2.60957 0
M  V30 21645 H 2005.8 -2.72123 -1.24858 0
M  V30 21646 H 2003.35 -1.30941 -0.59921 0
M  V30 21647 H 2005.3 -2.15798 -3.61952 0
M  V30 21648 H 2004.03 -1.02931 -3.09956 0
M  V30 21649 H 2002.69 -2.95102 -2.1751 0
M  V30 21650 H 2002.33 -2.18618 -4.53007 0
M  V30 21651 H 2002.03 -3.93437 -4.36441 0
M  V30 21652 H 2003.56 -3.35963 -5.09864 0
M  V30 21653 H 2004.97 -4.70831 -3.27095 0
M  V30 21654 H 2003.37 -5.32238 -2.77205 0
M  V30 21655 H 2004.44 -4.59022 -1.5629 0
M  V30 21656 N 2005.78 0.645673 -1.43767 0
M  V30 21657 C 2006.73 1.75828 -1.4951 0
M  V30 21658 C 2007.7 1.62496 -0.344109 0
M  V30 21659 O 2008.88 1.82631 -0.552323 0
M  V30 21660 C 2006.02 3.14017 -1.43134 0
M  V30 21661 C 2005.14 3.38428 -2.68496 0
M  V30 21662 C 2004.27 4.66507 -2.54056 0
M  V30 21663 C 2003.31 4.84049 -3.74651 0
M  V30 21664 N 2002.45 6.03392 -3.58974 0
M  V30 21665 H 2007.29 1.70254 -2.44576 0
M  V30 21666 H 2004.82 0.830729 -1.21397 0
M  V30 21667 H 2006.78 3.93915 -1.37431 0
M  V30 21668 H 2005.41 3.18642 -0.516449 0
M  V30 21669 H 2004.46 2.52574 -2.84448 0
M  V30 21670 H 2005.78 3.47274 -3.58054 0
M  V30 21671 H 2004.93 5.54543 -2.46103 0
M  V30 21672 H 2003.67 4.59996 -1.62035 0
M  V30 21673 H 2002.67 3.94447 -3.83004 0
M  V30 21674 H 2003.9 4.92385 -4.67689 0
M  V30 21675 H 2001.85 5.97998 -2.69694 0
M  V30 21676 H 2001.76 6.13229 -4.42138 0
M  V30 21677 H 2003.03 6.94029 -3.54887 0
M  V30 21678 N 2007.26 1.30423 0.884744 0
M  V30 21679 C 2008.67 1.17357 1.45204 0
M  V30 21680 C 2009.02 -0.225645 1.94898 0
M  V30 21681 O 2008.15 -1.12234 1.8502 0
M  V30 21682 C 2008.74 2.12438 2.63923 0
M  V30 21683 C 2007.3 2.03351 3.16742 0
M  V30 21684 C 2006.45 2.02508 1.89436 0
M  V30 21685 H 2009.4 1.42689 0.694659 0
M  V30 21686 H 2009.42 1.70535 3.40144 0
M  V30 21687 H 2008.93 3.14267 2.27724 0
M  V30 21688 H 2007.03 1.04665 3.57597 0
M  V30 21689 H 2007.15 2.91748 3.80026 0
M  V30 21690 H 2005.51 1.47312 2.07777 0
M  V30 21691 H 2006.29 3.06066 1.55494 0
M  V30 21692 N 2008.74 -1.09711 1.13142 0
M  V30 21693 C 2009.98 -1.82097 0.892675 0
M  V30 21694 C 2010.32 -1.85341 -0.579846 0
M  V30 21695 O 2009.59 -1.3195 -1.42897 0
M  V30 21696 C 2009.87 -3.28392 1.47752 0
M  V30 21697 C 2009.73 -3.33436 3.01895 0
M  V30 21698 C 2011.05 -4.24991 1.14329 0
M  V30 21699 H 2008.17 -0.661111 0.325732 0
M  V30 21700 H 2010.81 -1.28535 1.39924 0
M  V30 21701 H 2008.96 -3.74134 1.04671 0
M  V30 21702 H 2010.63 -2.96119 3.53711 0
M  V30 21703 H 2008.87 -2.73109 3.37037 0
M  V30 21704 H 2009.54 -4.36484 3.37914 0
M  V30 21705 H 2012.02 -3.8752 1.51551 0
M  V30 21706 H 2010.9 -5.25698 1.57902 0
M  V30 21707 H 2011.16 -4.42064 0.0565583 0
M  V30 21708 N 2010.22 -0.924476 -1.27637 0
M  V30 21709 C 2011.15 -0.438348 -2.29349 0
M  V30 21710 C 2012.13 0.499673 -1.62595 0
M  V30 21711 O 2013.31 0.405114 -1.89928 0
M  V30 21712 C 2010.44 0.312668 -3.4589 0
M  V30 21713 C 2009.4 -0.537216 -4.24615 0
M  V30 21714 C 2008.72 0.342776 -5.336 0
M  V30 21715 C 2010.02 -1.80003 -4.90302 0
M  V30 21716 H 2011.72 -1.28838 -2.70261 0
M  V30 21717 H 2009.26 -0.620964 -1.29923 0
M  V30 21718 H 2011.22 0.66367 -4.16141 0
M  V30 21719 H 2009.94 1.1967 -3.03886 0
M  V30 21720 H 2008.6 -0.870883 -3.56106 0
M  V30 21721 H 2008.25 1.22567 -4.87838 0
M  V30 21722 H 2007.95 -0.222352 -5.87179 0
M  V30 21723 H 2009.47 0.689422 -6.06695 0
M  V30 21724 H 2010.88 -1.51729 -5.52857 0
M  V30 21725 H 2009.28 -2.3084 -5.53925 0
M  V30 21726 H 2010.35 -2.52148 -4.14186 0
M  V30 21727 N 2011.69 1.41711 -0.689627 0
M  V30 21728 C 2012.64 2.30791 -0.020555 0
M  V30 21729 C 2013.61 1.46782 0.777447 0
M  V30 21730 O 2014.8 1.75582 0.746688 0
M  V30 21731 C 2011.94 3.32772 0.914149 0
M  V30 21732 C 2011.05 4.31864 0.108394 0
M  V30 21733 C 2010.18 5.20916 1.0402 0
M  V30 21734 C 2009.22 6.11679 0.227 0
M  V30 21735 N 2008.36 6.93233 1.11229 0
M  V30 21736 H 2013.2 2.87448 -0.78597 0
M  V30 21737 H 2010.74 1.41576 -0.399313 0
M  V30 21738 H 2012.7 3.90442 1.47005 0
M  V30 21739 H 2011.33 2.77679 1.64603 0
M  V30 21740 H 2010.38 3.7619 -0.564348 0
M  V30 21741 H 2011.69 4.96058 -0.522312 0
M  V30 21742 H 2010.84 5.83391 1.66553 0
M  V30 21743 H 2009.58 4.56934 1.70477 0
M  V30 21744 H 2008.59 5.48258 -0.411449 0
M  V30 21745 H 2009.81 6.77714 -0.433691 0
M  V30 21746 H 2007.76 6.31866 1.76299 0
M  V30 21747 H 2007.68 7.5409 0.537017 0
M  V30 21748 H 2008.94 7.60182 1.72463 0
M  V30 21749 N 2013.17 0.433965 1.51507 0
M  V30 21750 C 2014.12 -0.397051 2.24516 0
M  V30 21751 C 2015.11 -0.992896 1.26611 0
M  V30 21752 O 2016.3 -0.911595 1.5172 0
M  V30 21753 C 2013.43 -1.49953 3.08819 0
M  V30 21754 C 2012.51 -0.913247 4.1415 0
M  V30 21755 N 2012.9 -0.0558268 5.05769 0
M  V30 21756 C 2011.2 -1.18118 4.30074 0
M  V30 21757 C 2011.9 0.27308 5.81059 0
M  V30 21758 N 2010.88 -0.342445 5.4252 0
M  V30 21759 H 2014.68 0.264043 2.92712 0
M  V30 21760 H 2012.2 0.245838 1.60528 0
M  V30 21761 H 2014.19 -2.1077 3.59696 0
M  V30 21762 H 2012.85 -2.163 2.42166 0
M  V30 21763 H 2013.86 0.310359 5.16969 0
M  V30 21764 H 2010.54 -1.84239 3.74649 0
M  V30 21765 H 2011.93 0.970595 6.64853 0
M  V30 21766 N 2014.65 -1.56732 0.165206 0
M  V30 21767 C 2015.9 -1.96988 -0.482024 0
M  V30 21768 C 2016.23 -1.05093 -1.63307 0
M  V30 21769 O 2015.5 -0.0968503 -1.94259 0
M  V30 21770 C 2015.79 -3.46766 -0.970842 0
M  V30 21771 C 2015.64 -4.4944 0.179956 0
M  V30 21772 C 2016.96 -3.99487 -1.84657 0
M  V30 21773 H 2014.08 -0.716228 -0.173741 0
M  V30 21774 H 2016.72 -1.88347 0.250108 0
M  V30 21775 H 2014.87 -3.54261 -1.59472 0
M  V30 21776 H 2016.54 -4.5401 0.81687 0
M  V30 21777 H 2014.79 -4.25661 0.836383 0
M  V30 21778 H 2015.46 -5.51623 -0.20409 0
M  V30 21779 H 2017.93 -3.94585 -1.32068 0
M  V30 21780 H 2016.81 -5.04715 -2.15763 0
M  V30 21781 H 2017.07 -3.42935 -2.79013 0
M  V30 21782 N 2016.13 0.10854 -1.57226 0
M  V30 21783 C 2017.08 1.15155 -2.02094 0
M  V30 21784 C 2018.07 1.42263 -0.919651 0
M  V30 21785 O 2019.28 1.42102 -1.10485 0
M  V30 21786 H 2015.65 0.388515 -0.643863 0
M  V30 21787 H 2017.62 0.746707 -2.88906 0
M  V30 21788 C 2016.37 2.46727 -2.44992 0
M  V30 21789 H 2015.69 2.26708 -3.29307 0
M  V30 21790 H 2017.13 3.18242 -2.80175 0
M  V30 21791 C 2015.59 3.10059 -1.31776 0
M  V30 21792 O 2016.12 3.96577 -0.639471 0
M  V30 21793 N 2014.33 2.70099 -1.07215 0
M  V30 21794 H 2013.88 1.99837 -1.62552 0
M  V30 21795 H 2013.83 3.12802 -0.316602 0
M  V30 21796 N 2017.61 1.52975 0.379009 0
M  V30 21797 C 2018.57 1.77806 1.4463 0
M  V30 21798 C 2019.57 0.648223 1.47155 0
M  V30 21799 O 2020.76 0.916347 1.48151 0
M  V30 21800 C 2017.89 1.88792 2.83849 0
M  V30 21801 H 2019.08 2.73113 1.23892 0
M  V30 21802 H 2016.64 1.43848 0.61135 0
M  V30 21803 H 2017.37 0.955049 3.09918 0
M  V30 21804 H 2017.16 2.70957 2.83416 0
M  V30 21805 H 2018.65 2.09642 3.61165 0
M  V30 21806 N 2019.08 -0.63804 1.44107 0
M  V30 21807 C 2020.01 -1.76164 1.5326 0
M  V30 21808 C 2021 -1.6566 0.386107 0
M  V30 21809 O 2022.18 -1.84525 0.605326 0
M  V30 21810 C 2019.31 -3.14665 1.4698 0
M  V30 21811 C 2018.26 -3.39949 2.60035 0
M  V30 21812 C 2017.59 -4.78409 2.38808 0
M  V30 21813 C 2018.89 -3.33193 4.02219 0
M  V30 21814 H 2020.58 -1.6876 2.47306 0
M  V30 21815 H 2018.13 -0.810483 1.19026 0
M  V30 21816 H 2020.08 -3.93037 1.51986 0
M  V30 21817 H 2018.81 -3.22835 0.494471 0
M  V30 21818 H 2017.47 -2.63955 2.54408 0
M  V30 21819 H 2017.11 -4.83274 1.39483 0
M  V30 21820 H 2016.81 -4.96285 3.14602 0
M  V30 21821 H 2018.34 -5.5902 2.4562 0
M  V30 21822 H 2019.75 -4.0148 4.09252 0
M  V30 21823 H 2018.15 -3.62605 4.78161 0
M  V30 21824 H 2019.22 -2.31116 4.26279 0
M  V30 21825 N 2020.56 -1.3089 -0.877815 0
M  V30 21826 C 2021.81 -1.19488 -1.62498 0
M  V30 21827 C 2022.12 0.247666 -1.94026 0
M  V30 21828 O 2023.33 0.483286 -2.67164 0
M  V30 21829 C 2021.79 -2.09126 -2.92906 0
M  V30 21830 C 2021.39 -3.58331 -2.68891 0
M  V30 21831 C 2023.14 -2.06505 -3.70885 0
M  V30 21832 C 2021.05 -4.40003 -3.9516 0
M  V30 21833 H 2019.98 -0.44363 -0.609679 0
M  V30 21834 H 2022.63 -1.5569 -0.971235 0
M  V30 21835 H 2021.01 -1.65815 -3.59613 0
M  V30 21836 H 2022.18 -4.09838 -2.10642 0
M  V30 21837 H 2020.5 -3.62849 -2.04278 0
M  V30 21838 H 2023.09 -2.64772 -4.64543 0
M  V30 21839 H 2023.44 -1.05026 -4.02834 0
M  V30 21840 H 2023.97 -2.47975 -3.11052 0
M  V30 21841 H 2020.71 -5.42205 -3.68366 0
M  V30 21842 H 2020.23 -3.93258 -4.52889 0
M  V30 21843 H 2021.91 -4.5181 -4.63117 0
M  V30 21844 N 2022.04 1.0911 -1.13723 0
M  V30 21845 C 2023 2.14011 -0.820475 0
M  V30 21846 C 2024 1.59882 0.171573 0
M  V30 21847 O 2025.19 1.7411 -0.0559029 0
M  V30 21848 C 2022.33 3.40178 -0.221758 0
M  V30 21849 H 2023.52 2.43541 -1.75007 0
M  V30 21850 H 2021.07 1.24702 -0.94229 0
M  V30 21851 H 2021.81 3.16277 0.716904 0
M  V30 21852 H 2021.59 3.80759 -0.936208 0
M  V30 21853 H 2023.08 4.17596 -0.0171079 0
M  V30 21854 N 2023.52 0.931232 1.27145 0
M  V30 21855 C 2024.93 0.617607 1.76189 0
M  V30 21856 C 2025.28 -0.867239 1.75993 0
M  V30 21857 O 2024.41 -1.67865 1.36567 0
M  V30 21858 C 2025 1.11436 3.19949 0
M  V30 21859 C 2023.56 0.851337 3.66646 0
M  V30 21860 C 2022.71 1.27104 2.46454 0
M  V30 21861 H 2025.66 1.11062 1.13362 0
M  V30 21862 H 2025.68 0.463637 3.77665 0
M  V30 21863 H 2025.19 2.19507 3.2006 0
M  V30 21864 H 2023.29 -0.215418 3.71977 0
M  V30 21865 H 2023.4 1.47136 4.55947 0
M  V30 21866 H 2021.77 0.689554 2.45188 0
M  V30 21867 H 2022.55 2.36047 2.49273 0
M  V30 21868 N 2025 -1.41343 0.697132 0
M  V30 21869 C 2026.25 -2.00806 0.228308 0
M  V30 21870 C 2026.57 -1.55497 -1.17668 0
M  V30 21871 O 2025.84 -0.786272 -1.79428 0
M  V30 21872 H 2024.42 -0.74255 0.0814173 0
M  V30 21873 H 2027.08 -1.72946 0.898641 0
M  V30 21874 H 2026.17 -3.11121 0.246954 0
M  V30 21875 N 2026.48 -0.441993 -1.51275 0
M  V30 21876 C 2027.41 0.40297 -2.2563 0
M  V30 21877 C 2028.42 0.982305 -1.29825 0
M  V30 21878 O 2029.61 0.875653 -1.55546 0
M  V30 21879 C 2026.71 1.57618 -3.00016 0
M  V30 21880 C 2025.88 1.11489 -4.22953 0
M  V30 21881 C 2024.94 2.15876 -4.79879 0
M  V30 21882 O 2023.97 1.75121 -5.41591 0
M  V30 21883 N 2025.17 3.48408 -4.64319 0
M  V30 21884 H 2027.93 -0.234323 -2.98783 0
M  V30 21885 H 2025.5 -0.271138 -1.59613 0
M  V30 21886 H 2027.49 2.27084 -3.34985 0
M  V30 21887 H 2026.06 2.11873 -2.29845 0
M  V30 21888 H 2025.28 0.247136 -3.93425 0
M  V30 21889 H 2026.57 0.78415 -5.02721 0
M  V30 21890 H 2025.96 3.84249 -4.15173 0
M  V30 21891 H 2024.52 4.13755 -5.03637 0
M  V30 21892 N 2027.95 1.56642 -0.173515 0
M  V30 21893 C 2028.9 2.1807 0.755917 0
M  V30 21894 C 2029.87 1.12136 1.22534 0
M  V30 21895 O 2031.06 1.40296 1.29312 0
M  V30 21896 C 2028.2 2.82726 1.97888 0
M  V30 21897 C 2027.31 4.03127 1.55282 0
M  V30 21898 C 2026.44 4.55703 2.72962 0
M  V30 21899 C 2025.48 5.68509 2.26857 0
M  V30 21900 N 2024.62 6.15585 3.37638 0
M  V30 21901 H 2029.46 2.97147 0.225305 0
M  V30 21902 H 2027 1.46763 0.0994783 0
M  V30 21903 H 2028.95 3.18371 2.69621 0
M  V30 21904 H 2027.58 2.0625 2.48316 0
M  V30 21905 H 2026.64 3.73288 0.732154 0
M  V30 21906 H 2027.95 4.84777 1.17441 0
M  V30 21907 H 2027.1 4.93541 3.52849 0
M  V30 21908 H 2025.84 3.73115 3.14065 0
M  V30 21909 H 2024.85 5.3022 1.45418 0
M  V30 21910 H 2026.07 6.529 1.8681 0
M  V30 21911 H 2024.02 5.35925 3.78312 0
M  V30 21912 H 2023.93 6.9223 3.03897 0
M  V30 21913 H 2025.2 6.58074 4.17803 0
M  V30 21914 N 2029.43 -0.1002 1.57281 0
M  V30 21915 C 2030.68 -0.803295 1.85014 0
M  V30 21916 C 2030.99 -1.80146 0.762017 0
M  V30 21917 O 2032.2 -2.55209 0.926311 0
M  V30 21918 C 2030.66 -1.47942 3.28087 0
M  V30 21919 C 2030.26 -0.521281 4.44957 0
M  V30 21920 C 2032.01 -2.16654 3.65049 0
M  V30 21921 C 2029.91 -1.20171 5.79062 0
M  V30 21922 H 2028.84 -0.303744 0.690113 0
M  V30 21923 H 2031.5 -0.0561819 1.83414 0
M  V30 21924 H 2029.88 -2.27382 3.24212 0
M  V30 21925 H 2031.05 0.241249 4.60168 0
M  V30 21926 H 2029.37 0.0598694 4.16357 0
M  V30 21927 H 2031.96 -2.68286 4.62522 0
M  V30 21928 H 2032.31 -2.95316 2.93418 0
M  V30 21929 H 2032.84 -1.44081 3.7079 0
M  V30 21930 H 2029.58 -0.456001 6.53912 0
M  V30 21931 H 2029.1 -1.93579 5.67704 0
M  V30 21932 H 2030.78 -1.72963 6.23452 0
M  V30 21933 N 2030.91 -1.53174 -0.370891 0
M  V30 21934 C 2032.16 -1.68764 -1.11189 0
M  V30 21935 C 2032.48 -0.439297 -1.89987 0
M  V30 21936 O 2031.75 0.546592 -1.8812 0
M  V30 21937 H 2030.33 -0.622136 -0.413467 0
M  V30 21938 H 2032.99 -1.90347 -0.418794 0
M  V30 21939 H 2032.09 -2.54633 -1.80468 0
M  V30 21940 N 2032.39 0.630389 -1.44443 0
M  V30 21941 C 2033.64 1.38591 -1.46545 0
M  V30 21942 C 2033.95 1.95333 -0.102227 0
M  V30 21943 O 2035.16 2.715 -0.000780135 0
M  V30 21944 C 2033.61 2.50929 -2.57998 0
M  V30 21945 C 2033.22 2.00697 -4.00531 0
M  V30 21946 C 2034.96 3.28126 -2.69321 0
M  V30 21947 C 2032.87 3.10381 -5.03406 0
M  V30 21948 H 2031.8 0.520816 -0.545221 0
M  V30 21949 H 2034.45 0.678097 -1.70511 0
M  V30 21950 H 2032.83 3.24288 -2.27273 0
M  V30 21951 H 2034.01 1.34197 -4.40826 0
M  V30 21952 H 2032.32 1.36313 -3.93456 0
M  V30 21953 H 2034.92 4.09894 -3.43353 0
M  V30 21954 H 2035.26 3.77655 -1.75164 0
M  V30 21955 H 2035.8 2.61857 -2.99459 0
M  V30 21956 H 2032.53 2.65795 -5.99194 0
M  V30 21957 H 2032.05 3.7552 -4.67702 0
M  V30 21958 H 2033.73 3.75144 -5.27139 0
M  V30 21959 N 2033.87 1.31354 0.870861 0
M  V30 21960 C 2035.11 1.22287 1.63784 0
M  V30 21961 C 2035.47 -0.215843 1.90783 0
M  V30 21962 O 2036.67 -0.429989 2.65339 0
M  V30 21963 C 2034.94 2.04257 2.93281 0
M  V30 21964 S 2036.5 2.12043 3.84166 0
M  V30 21965 H 2033.32 0.435557 0.56197 0
M  V30 21966 H 2035.92 1.66006 1.03259 0
M  V30 21967 H 2034.62 3.07876 2.71367 0
M  V30 21968 H 2034.16 1.61254 3.58832 0
M  V30 21969 H 2036.17 1.25809 4.79986 0
M  V30 21970 N 2035.34 -1.08505 1.143 0
M  V30 21971 C 2036.59 -1.80514 0.908791 0
M  V30 21972 C 2036.91 -1.86599 -0.566196 0
M  V30 21973 O 2036.18 -1.35837 -1.41156 0
M  V30 21974 H 2034.76 -0.668553 0.333235 0
M  V30 21975 H 2037.42 -1.31188 1.44138 0
M  V30 21976 H 2036.52 -2.83375 1.30786 0
M  V30 21977 N 2036.82 -0.937962 -1.26649 0
M  V30 21978 C 2038.24 -0.639774 -1.46216 0
M  V30 21979 C 2038.44 0.807896 -1.84595 0
M  V30 21980 O 2037.49 1.58484 -1.96568 0
M  V30 21981 C 2038.81 -1.59844 -2.54697 0
M  V30 21982 C 2040.35 -1.60779 -2.6855 0
M  V30 21983 C 2040.83 -2.55367 -3.80199 0
M  V30 21984 N 2042.32 -2.53634 -3.87587 0
M  V30 21985 C 2043.06 -3.23509 -4.73423 0
M  V30 21986 N 2042.55 -4.02798 -5.63671 0
M  V30 21987 N 2044.34 -3.12477 -4.67242 0
M  V30 21988 H 2036.5 -1.87374 -1.00025 0
M  V30 21989 H 2038.76 -0.805036 -0.500621 0
M  V30 21990 H 2038.46 -2.63168 -2.33314 0
M  V30 21991 H 2038.34 -1.34802 -3.5229 0
M  V30 21992 H 2040.73 -0.581808 -2.89308 0
M  V30 21993 H 2040.81 -1.89873 -1.71411 0
M  V30 21994 H 2040.45 -3.58081 -3.60195 0
M  V30 21995 H 2040.38 -2.23564 -4.76788 0
M  V30 21996 H 2042.87 -1.96058 -3.23063 0
M  V30 21997 H 2043.18 -4.53075 -6.26053 0
M  V30 21998 H 2041.53 -4.069 -5.63434 0
M  V30 21999 H 2044.72 -2.50018 -3.95738 0
M  V30 22000 H 2044.89 -3.67201 -5.33917 0
M  V30 22001 N 2038.3 1.40971 -0.704618 0
M  V30 22002 C 2039.53 2.05399 -0.248738 0
M  V30 22003 C 2039.94 1.53056 1.10541 0
M  V30 22004 O 2039.3 0.682534 1.69256 0
M  V30 22005 C 2039.35 3.60902 -0.207794 0
M  V30 22006 O 2039.07 4.11311 -1.50846 0
M  V30 22007 C 2040.57 4.42489 0.267977 0
M  V30 22008 H 2037.79 0.661269 -0.11386 0
M  V30 22009 H 2040.34 1.8058 -0.959745 0
M  V30 22010 H 2038.49 3.84729 0.4541 0
M  V30 22011 H 2038.91 5.05426 -1.4016 0
M  V30 22012 H 2040.38 5.51454 0.245489 0
M  V30 22013 H 2040.86 4.1926 1.30836 0
M  V30 22014 H 2041.46 4.23746 -0.363242 0
M  V30 22015 N 2039.78 0.45001 1.51039 0
M  V30 22016 C 2041.03 -0.111969 2.0179 0
M  V30 22017 C 2041.35 -1.42098 1.33541 0
M  V30 22018 O 2040.62 -1.9008 0.473962 0
M  V30 22019 H 2039.2 -0.0443688 0.745681 0
M  V30 22020 H 2041.86 0.595615 1.85576 0
M  V30 22021 H 2040.96 -0.278742 3.10853 0
M  V30 22022 N 2041.26 -1.56548 0.18182 0
M  V30 22023 C 2042.48 -2.02015 -0.469543 0
M  V30 22024 C 2042.91 -1.06119 -1.55307 0
M  V30 22025 O 2042.26 -0.0424595 -1.8125 0
M  V30 22026 C 2042.31 -3.46016 -1.01515 0
M  V30 22027 O 2041.42 -3.53215 -2.12869 0
M  V30 22028 H 2040.76 -0.65461 -0.111273 0
M  V30 22029 H 2043.29 -2.02552 0.288798 0
M  V30 22030 H 2043.3 -3.85537 -1.33511 0
M  V30 22031 H 2041.97 -4.15308 -0.22188 0
M  V30 22032 H 2040.55 -3.2556 -1.81838 0
M  V30 22033 N 2042.73 0.0918577 -1.57332 0
M  V30 22034 C 2043.98 0.793187 -1.85884 0
M  V30 22035 C 2044.3 1.79111 -0.770985 0
M  V30 22036 O 2043.57 1.94851 0.202438 0
M  V30 22037 H 2042.15 0.295923 -0.685885 0
M  V30 22038 H 2044.82 0.0727166 -1.94764 0
M  V30 22039 H 2043.91 1.32178 -2.82728 0
M  V30 22040 N 2044.21 1.53368 0.362763 0
M  V30 22041 C 2045.16 1.80005 1.44454 0
M  V30 22042 C 2046.13 0.644581 1.53083 0
M  V30 22043 O 2047.31 0.887051 1.68926 0
M  V30 22044 C 2044.45 1.99822 2.81363 0
M  V30 22045 C 2043.57 3.27539 2.81678 0
M  V30 22046 C 2042.7 3.37528 4.10181 0
M  V30 22047 C 2041.74 4.59266 4.04649 0
M  V30 22048 N 2040.88 4.66393 5.24806 0
M  V30 22049 H 2045.72 2.72311 1.2104 0
M  V30 22050 H 2043.26 1.34893 0.586708 0
M  V30 22051 H 2045.21 2.09299 3.60901 0
M  V30 22052 H 2043.84 1.10849 3.0317 0
M  V30 22053 H 2042.9 3.27001 1.94356 0
M  V30 22054 H 2044.21 4.17156 2.73464 0
M  V30 22055 H 2043.36 3.46331 4.98136 0
M  V30 22056 H 2042.1 2.45932 4.21152 0
M  V30 22057 H 2041.11 4.5056 3.15081 0
M  V30 22058 H 2042.33 5.52206 3.95278 0
M  V30 22059 H 2040.28 3.77699 5.36358 0
M  V30 22060 H 2040.19 5.49919 5.18773 0
M  V30 22061 H 2041.46 4.79484 6.14586 0
M  V30 22062 N 2045.69 -0.62272 1.44776 0
M  V30 22063 C 2046.92 -1.41403 1.51723 0
M  V30 22064 C 2047.34 -1.87534 0.145802 0
M  V30 22065 O 2046.7 -1.59244 -0.866667 0
M  V30 22066 C 2046.75 -2.60482 2.49362 0
M  V30 22067 O 2045.85 -3.60604 2.00096 0
M  V30 22068 H 2045.19 -0.422766 0.51202 0
M  V30 22069 H 2047.72 -0.759294 1.89989 0
M  V30 22070 H 2047.73 -3.0792 2.67674 0
M  V30 22071 H 2046.41 -2.26253 3.48974 0
M  V30 22072 H 2044.98 -3.19918 1.9159 0
M  V30 22073 N 2047.17 -1.31814 -0.863883 0
M  V30 22074 C 2048.39 -1.24961 -1.65528 0
M  V30 22075 C 2048.82 0.18096 -1.87228 0
M  V30 22076 O 2048.18 1.12919 -1.41842 0
M  V30 22077 C 2048.22 -2.00518 -2.99708 0
M  V30 22078 O 2047.33 -1.34668 -3.89793 0
M  V30 22079 H 2046.67 -0.431127 -0.505001 0
M  V30 22080 H 2049.2 -1.73981 -1.07665 0
M  V30 22081 H 2049.21 -2.10344 -3.49599 0
M  V30 22082 H 2047.88 -3.0455 -2.83235 0
M  V30 22083 H 2046.46 -1.33332 -3.48249 0
M  V30 22084 N 2048.65 1.07897 -1.14873 0
M  V30 22085 C 2049.89 1.80386 -0.920169 0
M  V30 22086 C 2050.22 1.86473 0.553002 0
M  V30 22087 O 2049.48 1.3404 1.4259 0
M  V30 22088 C 2049.78 3.25649 -1.47267 0
M  V30 22089 C 2049.44 3.39671 -2.96537 0
M  V30 22090 C 2048.1 3.43205 -3.37288 0
M  V30 22091 C 2050.46 3.42923 -3.92496 0
M  V30 22092 C 2047.78 3.47589 -4.72651 0
M  V30 22093 C 2050.14 3.48843 -5.27723 0
M  V30 22094 C 2048.8 3.50652 -5.67978 0
M  V30 22095 H 2048.07 0.66008 -0.336714 0
M  V30 22096 H 2050.72 1.27004 -1.43326 0
M  V30 22097 H 2049.02 3.81775 -0.880635 0
M  V30 22098 H 2050.72 3.80301 -1.2717 0
M  V30 22099 H 2047.31 3.37615 -2.64034 0
M  V30 22100 H 2051.49 3.39419 -3.62089 0
M  V30 22101 H 2046.75 3.47285 -5.03193 0
M  V30 22102 H 2050.92 3.50305 -6.0188 0
M  V30 22103 H 2048.55 3.53802 -6.72851 0
M  V30 22104 N 2050.12 0.944665 1.2615 0
M  V30 22105 C 2051.35 0.610451 1.98213 0
M  V30 22106 C 2051.77 -0.808401 1.69843 0
M  V30 22107 O 2051.13 -1.5451 0.948491 0
M  V30 22108 C 2051.18 0.863318 3.50113 0
M  V30 22109 O 2050.28 -0.062849 4.12352 0
M  V30 22110 H 2049.63 0.233139 0.621725 0
M  V30 22111 H 2052.16 1.26855 1.60527 0
M  V30 22112 H 2052.17 0.785602 4.00365 0
M  V30 22113 H 2050.84 1.89748 3.70092 0
M  V30 22114 H 2049.42 0.066222 3.72841 0
M  V30 22115 N 2051.6 -1.40596 0.712085 0
M  V30 22116 C 2052.53 -2.33389 0.0719438 0
M  V30 22117 C 2053.51 -1.52706 -0.749334 0
M  V30 22118 O 2054.7 -1.81185 -0.698968 0
M  V30 22119 C 2051.83 -3.36659 -0.853122 0
M  V30 22120 C 2050.78 -4.27778 -0.137724 0
M  V30 22121 C 2050.11 -5.21556 -1.17827 0
M  V30 22122 C 2051.41 -5.12521 1.00597 0
M  V30 22123 H 2053.1 -2.87169 0.847002 0
M  V30 22124 H 2050.65 -1.38077 0.408756 0
M  V30 22125 H 2052.6 -4.00511 -1.31031 0
M  V30 22126 H 2051.33 -2.81266 -1.66004 0
M  V30 22127 H 2049.98 -3.65374 0.299603 0
M  V30 22128 H 2049.63 -4.6247 -1.97814 0
M  V30 22129 H 2049.33 -5.83361 -0.704503 0
M  V30 22130 H 2050.86 -5.88285 -1.63563 0
M  V30 22131 H 2052.27 -5.69847 0.62831 0
M  V30 22132 H 2050.67 -5.83351 1.40789 0
M  V30 22133 H 2051.74 -4.48706 1.83822 0
M  V30 22134 N 2053.08 -0.458013 -1.50798 0
M  V30 22135 C 2054.04 0.331466 -2.26791 0
M  V30 22136 C 2055.04 0.931853 -1.31046 0
M  V30 22137 O 2056.23 0.803071 -1.54585 0
M  V30 22138 C 2053.37 1.4709 -3.07534 0
M  V30 22139 H 2054.56 -0.334805 -2.98025 0
M  V30 22140 H 2052.11 -0.211715 -1.54859 0
M  V30 22141 H 2052.85 2.17261 -2.40765 0
M  V30 22142 H 2052.63 1.04634 -3.77881 0
M  V30 22143 H 2054.12 2.02815 -3.65042 0
M  V30 22144 N 2054.56 1.56449 -0.190119 0
M  V30 22145 C 2055.81 1.97438 0.449957 0
M  V30 22146 C 2056.13 1.07682 1.61972 0
M  V30 22147 O 2055.39 0.114859 1.95363 0
M  V30 22148 C 2055.69 3.44349 0.956988 0
M  V30 22149 C 2055.35 4.50792 -0.098868 0
M  V30 22150 C 2054.02 4.79625 -0.389003 0
M  V30 22151 C 2056.37 5.14795 -0.814559 0
M  V30 22152 C 2053.7 5.69754 -1.39989 0
M  V30 22153 C 2056.05 6.06017 -1.81456 0
M  V30 22154 C 2054.71 6.33209 -2.11195 0
M  V30 22155 H 2053.98 0.722476 0.164651 0
M  V30 22156 H 2056.63 1.89352 -0.286039 0
M  V30 22157 H 2054.93 3.49481 1.77116 0
M  V30 22158 H 2056.63 3.73416 1.46155 0
M  V30 22159 H 2053.22 4.2838 0.137435 0
M  V30 22160 H 2057.41 4.92615 -0.603633 0
M  V30 22161 H 2052.66 5.89098 -1.63627 0
M  V30 22162 H 2056.84 6.54672 -2.37438 0
M  V30 22163 H 2054.46 7.02847 -2.89672 0
M  V30 22164 N 2056.04 -0.0835127 1.57379 0
M  V30 22165 C 2057.28 -0.784868 1.86671 0
M  V30 22166 C 2057.61 -1.78164 0.780253 0
M  V30 22167 O 2056.87 -1.94402 -0.224985 0
M  V30 22168 C 2057.17 -1.53851 3.22591 0
M  V30 22169 C 2056.83 -0.682799 4.457 0
M  V30 22170 C 2055.49 -0.446944 4.7912 0
M  V30 22171 C 2057.85 -0.0886784 5.21125 0
M  V30 22172 C 2055.17 0.392707 5.85384 0
M  V30 22173 C 2057.53 0.73836 6.28276 0
M  V30 22174 C 2056.19 0.984198 6.60204 0
M  V30 22175 H 2055.46 -0.287204 0.683078 0
M  V30 22176 H 2058.11 -0.0459845 1.91445 0
M  V30 22177 H 2056.41 -2.34928 3.13554 0
M  V30 22178 H 2058.11 -2.08576 3.42486 0
M  V30 22179 H 2054.7 -0.876748 4.19537 0
M  V30 22180 H 2058.88 -0.258035 4.95629 0
M  V30 22181 H 2054.14 0.592037 6.08527 0
M  V30 22182 H 2058.31 1.20553 6.85886 0
M  V30 22183 H 2055.94 1.63661 7.42374 0
M  V30 22184 N 2057.52 -1.53558 -0.354624 0
M  V30 22185 C 2058.93 -1.43575 -0.697019 0
M  V30 22186 C 2059.13 -0.583599 -1.92864 0
M  V30 22187 O 2058.19 -0.0702807 -2.52402 0
M  V30 22188 C 2059.5 -2.86916 -0.899995 0
M  V30 22189 C 2061.05 -2.96619 -0.999314 0
M  V30 22190 C 2061.52 -4.41044 -1.23468 0
M  V30 22191 N 2063.01 -4.44521 -1.30214 0
M  V30 22192 C 2063.75 -5.5339 -1.50156 0
M  V30 22193 N 2063.25 -6.72286 -1.67343 0
M  V30 22194 N 2065.04 -5.40985 -1.52614 0
M  V30 22195 H 2057.19 -2.07462 0.45531 0
M  V30 22196 H 2059.45 -0.937349 0.141706 0
M  V30 22197 H 2059.16 -3.51637 -0.066674 0
M  V30 22198 H 2059.03 -3.31212 -1.80495 0
M  V30 22199 H 2061.42 -2.32044 -1.82317 0
M  V30 22200 H 2061.5 -2.557 -0.0715092 0
M  V30 22201 H 2061.14 -5.06195 -0.415803 0
M  V30 22202 H 2061.07 -4.79545 -2.17588 0
M  V30 22203 H 2063.57 -3.5884 -1.18501 0
M  V30 22204 H 2063.88 -7.51023 -1.82164 0
M  V30 22205 H 2062.22 -6.75252 -1.645 0
M  V30 22206 H 2065.41 -4.4706 -1.38762 0
M  V30 22207 H 2065.59 -6.25893 -1.67815 0
M  V30 22208 N 2058.99 0.615033 -1.45104 0
M  V30 22209 C 2059.93 1.73963 -1.47689 0
M  V30 22210 C 2060.9 1.59132 -0.334015 0
M  V30 22211 O 2062.09 1.80796 -0.533407 0
M  V30 22212 C 2059.22 3.11713 -1.32487 0
M  V30 22213 C 2058.26 3.45152 -2.50544 0
M  V30 22214 S 2059.09 3.40825 -4.13035 0
M  V30 22215 C 2060.25 4.81168 -4.00285 0
M  V30 22216 H 2060.48 1.71506 -2.42843 0
M  V30 22217 H 2058.02 0.791046 -1.32596 0
M  V30 22218 H 2059.97 3.91196 -1.24403 0
M  V30 22219 H 2058.64 3.11692 -0.388156 0
M  V30 22220 H 2057.83 4.4543 -2.35813 0
M  V30 22221 H 2057.43 2.73168 -2.55451 0
M  V30 22222 H 2059.72 5.70792 -3.6497 0
M  V30 22223 H 2060.67 5.00955 -5.0045 0
M  V30 22224 H 2061.07 4.56499 -3.32067 0
M  V30 22225 N 2060.47 1.3227 0.85688 0
M  V30 22226 C 2061.72 1.22885 1.61329 0
M  V30 22227 C 2062.05 -0.209425 1.93067 0
M  V30 22228 O 2061.33 -1.14596 1.57156 0
M  V30 22229 C 2061.61 2.0863 2.93506 0
M  V30 22230 C 2061.46 3.60824 2.68563 0
M  V30 22231 C 2062.78 1.94573 3.94752 0
M  V30 22232 H 2059.9 0.447751 0.585395 0
M  V30 22233 H 2062.54 1.62193 0.989615 0
M  V30 22234 H 2060.69 1.75236 3.46734 0
M  V30 22235 H 2062.36 4.0442 2.21906 0
M  V30 22236 H 2060.61 3.83601 2.02566 0
M  V30 22237 H 2061.28 4.16143 3.6267 0
M  V30 22238 H 2063.75 2.23822 3.50775 0
M  V30 22239 H 2062.63 2.56848 4.85098 0
M  V30 22240 H 2062.89 0.912736 4.32575 0
M  V30 22241 N 2061.95 -1.07287 1.15444 0
M  V30 22242 C 2063.23 -1.76634 0.840221 0
M  V30 22243 C 2063.61 -2.00384 -0.664037 0
M  V30 22244 O 2062.95 -1.62284 -1.60861 0
M  V30 22245 C 2063.16 -3.07439 1.65174 0
M  V30 22246 C 2064.51 -3.81773 1.85835 0
M  V30 22247 O 2065.54 -3.17252 1.61955 0
M  V30 22248 O 2064.4 -4.97656 2.25834 0
M  V30 22249 H 2061.49 -0.76708 0.309059 0
M  V30 22250 H 2064.04 -1.13646 1.26026 0
M  V30 22251 H 2062.81 -2.85774 2.67299 0
M  V30 22252 H 2062.43 -3.78159 1.22807 0
M  V30 22253 N 2063.43 -0.951342 -1.25647 0
M  V30 22254 C 2064.66 -0.621431 -1.97347 0
M  V30 22255 C 2065.07 0.805774 -1.70742 0
M  V30 22256 O 2064.43 1.53857 -0.981537 0
M  V30 22257 C 2064.48 -0.866537 -3.50961 0
M  V30 22258 O 2064.2 -2.23762 -3.76646 0
M  V30 22259 C 2065.7 -0.548561 -4.39893 0
M  V30 22260 H 2062.92 -0.233273 -0.629146 0
M  V30 22261 H 2065.46 -1.27482 -1.59902 0
M  V30 22262 H 2063.62 -0.259607 -3.86529 0
M  V30 22263 H 2064.03 -2.30528 -4.71123 0
M  V30 22264 H 2065.51 -0.770622 -5.46594 0
M  V30 22265 H 2065.98 0.51678 -4.36149 0
M  V30 22266 H 2066.59 -1.13467 -4.09885 0
M  V30 22267 N 2064.91 1.40216 -0.719531 0
M  V30 22268 C 2066.15 2.00814 -0.26074 0
M  V30 22269 C 2066.48 1.5706 1.14727 0
M  V30 22270 O 2065.74 0.783515 1.79331 0
M  V30 22271 C 2066.03 3.56196 -0.293164 0
M  V30 22272 C 2065.7 4.19546 -1.65202 0
M  V30 22273 C 2064.36 4.36564 -2.02398 0
M  V30 22274 C 2066.71 4.54844 -2.54492 0
M  V30 22275 C 2064.04 4.86164 -3.28422 0
M  V30 22276 C 2066.39 5.05845 -3.79873 0
M  V30 22277 C 2065.06 5.21072 -4.17181 0
M  V30 22278 H 2064.33 0.734832 -0.0954117 0
M  V30 22279 H 2066.98 1.6777 -0.923337 0
M  V30 22280 H 2065.28 3.89172 0.453006 0
M  V30 22281 H 2066.98 4.00921 0.0797168 0
M  V30 22282 H 2063.57 4.06691 -1.35278 0
M  V30 22283 H 2067.75 4.41329 -2.2703 0
M  V30 22284 H 2063.01 4.96138 -3.57292 0
M  V30 22285 H 2067.18 5.32134 -4.49229 0
M  V30 22286 H 2064.81 5.59268 -5.14902 0
M  V30 22287 N 2066.38 0.466004 1.50553 0
M  V30 22288 C 2067.29 -0.33625 2.32178 0
M  V30 22289 C 2068.31 -1.00081 1.42337 0
M  V30 22290 O 2069.49 -0.989904 1.75393 0
M  V30 22291 C 2066.55 -1.40682 3.16875 0
M  V30 22292 C 2065.61 -0.759384 4.2253 0
M  V30 22293 C 2064.84 -1.77894 5.03179 0
M  V30 22294 O 2065.07 -3.00483 4.84836 0
M  V30 22295 O 2064 -1.35358 5.86483 0
M  V30 22296 H 2067.83 0.330908 3.01892 0
M  V30 22297 H 2065.41 0.22795 1.47651 0
M  V30 22298 H 2067.29 -2.02704 3.69444 0
M  V30 22299 H 2065.97 -2.05753 2.49894 0
M  V30 22300 H 2064.88 -0.100338 3.73965 0
M  V30 22301 H 2066.21 -0.151694 4.91966 0
M  V30 22302 N 2067.86 -1.56346 0.198413 0
M  V30 22303 C 2069.11 -1.97283 -0.438612 0
M  V30 22304 C 2069.43 -1.08657 -1.61922 0
M  V30 22305 O 2068.7 -0.158561 -1.95257 0
M  V30 22306 H 2067.28 -0.728541 -0.165035 0
M  V30 22307 H 2069.94 -1.92791 0.285919 0
M  V30 22308 H 2069.04 -3.02183 -0.780516 0
M  V30 22309 N 2069.34 0.0751653 -1.57421 0
M  V30 22310 C 2070.29 1.09651 -1.99901 0
M  V30 22311 C 2071.27 1.34668 -0.880538 0
M  V30 22312 O 2072.47 1.35025 -1.14444 0
M  V30 22313 C 2069.6 2.41121 -2.44367 0
M  V30 22314 C 2068.68 2.19394 -3.62942 0
M  V30 22315 N 2069.07 1.67586 -4.7723 0
M  V30 22316 C 2067.37 2.4988 -3.69426 0
M  V30 22317 C 2068.07 1.60595 -5.59092 0
M  V30 22318 N 2067.05 2.06526 -5.0284 0
M  V30 22319 H 2070.85 0.689217 -2.85704 0
M  V30 22320 H 2068.36 0.282291 -1.59928 0
M  V30 22321 H 2070.36 3.15048 -2.73039 0
M  V30 22322 H 2069.02 2.82571 -1.5995 0
M  V30 22323 H 2070.03 1.36498 -4.99588 0
M  V30 22324 H 2066.71 2.94719 -2.95714 0
M  V30 22325 H 2068.1 1.21421 -6.60838 0
M  V30 22326 N 2070.82 1.53744 0.346476 0
M  V30 22327 C 2072.07 1.70066 1.08445 0
M  V30 22328 C 2072.38 0.469013 1.89894 0
M  V30 22329 O 2073.59 0.513127 2.66607 0
M  V30 22330 C 2072.04 3.00716 1.97732 0
M  V30 22331 C 2071.65 4.31208 1.21504 0
M  V30 22332 C 2073.39 3.26404 2.71405 0
M  V30 22333 C 2071.3 5.52934 2.09804 0
M  V30 22334 H 2070.23 0.633711 0.408567 0
M  V30 22335 H 2072.88 1.80244 0.344133 0
M  V30 22336 H 2071.26 2.84388 2.75572 0
M  V30 22337 H 2072.44 4.5823 0.485955 0
M  V30 22338 H 2070.75 4.12111 0.596126 0
M  V30 22339 H 2073.35 4.14536 3.37733 0
M  V30 22340 H 2073.69 2.43286 3.37813 0
M  V30 22341 H 2074.23 3.43495 2.0064 0
M  V30 22342 H 2070.97 6.38587 1.47943 0
M  V30 22343 H 2070.49 5.30164 2.8051 0
M  V30 22344 H 2072.16 5.88463 2.68924 0
M  V30 22345 N 2072.3 -0.607329 1.45428 0
M  V30 22346 C 2073.55 -1.36242 1.48731 0
M  V30 22347 C 2073.86 -1.95145 0.13329 0
M  V30 22348 O 2075.06 -2.71464 0.0439733 0
M  V30 22349 C 2073.52 -2.46792 2.61957 0
M  V30 22350 C 2073.13 -1.94299 4.03673 0
M  V30 22351 C 2074.87 -3.238 2.74507 0
M  V30 22352 C 2072.78 -3.02333 5.0828 0
M  V30 22353 H 2071.71 -0.512076 0.553438 0
M  V30 22354 H 2074.36 -0.650885 1.71568 0
M  V30 22355 H 2072.74 -3.20632 2.32404 0
M  V30 22356 H 2073.92 -1.27167 4.42905 0
M  V30 22357 H 2072.23 -1.30036 3.95575 0
M  V30 22358 H 2074.83 -4.0438 3.4983 0
M  V30 22359 H 2075.17 -3.7482 1.8115 0
M  V30 22360 H 2075.7 -2.5706 3.03587 0
M  V30 22361 H 2072.44 -2.56229 6.03346 0
M  V30 22362 H 2071.96 -3.68031 4.73617 0
M  V30 22363 H 2073.64 -3.6671 5.33041 0
M  V30 22364 N 2073.77 -1.32722 -0.849853 0
M  V30 22365 C 2075.02 -1.22908 -1.59927 0
M  V30 22366 C 2075.34 0.206455 -1.94507 0
M  V30 22367 O 2076.54 0.426508 -2.68129 0
M  V30 22368 C 2075 -2.15292 -2.88405 0
M  V30 22369 C 2074.61 -3.63954 -2.6123 0
M  V30 22370 C 2076.35 -2.14325 -3.66422 0
M  V30 22371 C 2074.26 -4.48286 -3.85738 0
M  V30 22372 H 2073.19 -0.456463 -0.600132 0
M  V30 22373 H 2075.84 -1.57715 -0.937993 0
M  V30 22374 H 2074.22 -1.73406 -3.56015 0
M  V30 22375 H 2075.39 -4.14213 -2.01901 0
M  V30 22376 H 2073.71 -3.67101 -1.96535 0
M  V30 22377 H 2076.31 -2.74566 -4.58822 0
M  V30 22378 H 2076.65 -1.13547 -4.00516 0
M  V30 22379 H 2077.18 -2.54517 -3.05722 0
M  V30 22380 H 2073.92 -5.49897 -3.56782 0
M  V30 22381 H 2073.44 -4.02776 -4.44446 0
M  V30 22382 H 2075.12 -4.61531 -4.53429 0
M  V30 22383 N 2075.25 1.06673 -1.16011 0
M  V30 22384 C 2076.53 1.76186 -0.849577 0
M  V30 22385 C 2076.91 2.00733 0.653401 0
M  V30 22386 O 2076.26 1.63135 1.59998 0
M  V30 22387 C 2076.47 3.06559 -1.66802 0
M  V30 22388 C 2077.82 3.80782 -1.87857 0
M  V30 22389 O 2078.84 3.16389 -1.63635 0
M  V30 22390 O 2077.7 4.96451 -2.2847 0
M  V30 22391 H 2074.79 0.76543 -0.313123 0
M  V30 22392 H 2077.34 1.12976 -1.26627 0
M  V30 22393 H 2076.11 2.84353 -2.68811 0
M  V30 22394 H 2075.73 3.77502 -1.24811 0
M  V30 22395 N 2076.73 0.957992 1.25141 0
M  V30 22396 C 2077.98 0.613378 1.92567 0
M  V30 22397 C 2078.3 -0.852805 1.75363 0
M  V30 22398 O 2077.57 -1.60775 1.11929 0
M  V30 22399 H 2076.15 0.223867 0.712666 0
M  V30 22400 H 2078.81 1.21696 1.52237 0
M  V30 22401 H 2077.91 0.845594 3.00427 0
M  V30 22402 N 2078.21 -1.39832 0.726957 0
M  V30 22403 C 2079.46 -1.99907 0.268315 0
M  V30 22404 C 2079.77 -1.58329 -1.14854 0
M  V30 22405 O 2080.98 -2.11183 -1.70628 0
M  V30 22406 C 2079.43 -3.57337 0.428781 0
M  V30 22407 C 2079.04 -4.07882 1.853 0
M  V30 22408 C 2080.78 -4.24488 0.031508 0
M  V30 22409 C 2078.69 -5.57856 1.96344 0
M  V30 22410 H 2077.62 -0.747791 0.0965646 0
M  V30 22411 H 2080.27 -1.59931 0.899682 0
M  V30 22412 H 2078.65 -3.95069 -0.271354 0
M  V30 22413 H 2079.83 -3.81502 2.58444 0
M  V30 22414 H 2078.14 -3.53366 2.20276 0
M  V30 22415 H 2080.74 -5.34619 0.0931531 0
M  V30 22416 H 2081.08 -4.0381 -1.01209 0
M  V30 22417 H 2081.62 -3.91901 0.682503 0
M  V30 22418 H 2078.36 -5.83404 2.98865 0
M  V30 22419 H 2077.88 -5.86064 1.27627 0
M  V30 22420 H 2079.55 -6.2314 1.74085 0
M  V30 22421 N 2079.69 -0.473982 -1.50304 0
M  V30 22422 C 2080.96 0.141727 -1.95086 0
M  V30 22423 C 2081.34 1.56703 -1.41447 0
M  V30 22424 O 2080.69 2.20021 -0.616691 0
M  V30 22425 C 2080.9 0.0820815 -3.48903 0
M  V30 22426 C 2082.25 0.26953 -4.23744 0
M  V30 22427 O 2083.27 0.158532 -3.55847 0
M  V30 22428 O 2082.13 0.494023 -5.44262 0
M  V30 22429 H 2079.23 0.110094 -0.819639 0
M  V30 22430 H 2081.77 -0.534591 -1.6106 0
M  V30 22431 H 2080.54 -0.912936 -3.80501 0
M  V30 22432 H 2080.17 0.799731 -3.89474 0
M  V30 22433 N 2081.16 1.56239 -0.206702 0
M  V30 22434 C 2082.41 1.97079 0.429267 0
M  V30 22435 C 2082.73 1.09689 1.6195 0
M  V30 22436 O 2083.93 1.40363 2.32402 0
M  V30 22437 C 2082.39 3.50548 0.815111 0
M  V30 22438 C 2082 4.46619 -0.351476 0
M  V30 22439 C 2083.74 4.00133 1.41751 0
M  V30 22440 C 2081.65 5.91374 0.0559745 0
M  V30 22441 H 2080.58 0.735915 0.164151 0
M  V30 22442 H 2083.23 1.81022 -0.300562 0
M  V30 22443 H 2081.61 3.62152 1.60194 0
M  V30 22444 H 2082.78 4.46754 -1.12903 0
M  V30 22445 H 2081.1 4.07292 -0.866134 0
M  V30 22446 H 2083.7 5.05768 1.73501 0
M  V30 22447 H 2084.04 3.45116 2.3281 0
M  V30 22448 H 2084.57 3.91692 0.694423 0
M  V30 22449 H 2081.31 6.50342 -0.820723 0
M  V30 22450 H 2080.83 5.94466 0.798148 0
M  V30 22451 H 2082.51 6.45159 0.487795 0
M  V30 22452 N 2082.64 -0.0668159 1.57458 0
M  V30 22453 C 2083.61 -1.06329 2.03044 0
M  V30 22454 C 2084.61 -1.31301 0.928259 0
M  V30 22455 O 2085.8 -1.26938 1.193 0
M  V30 22456 C 2082.93 -2.40573 2.41532 0
M  V30 22457 H 2084.12 -0.67029 2.92313 0
M  V30 22458 H 2081.67 -0.312678 1.53141 0
M  V30 22459 H 2082.41 -2.84695 1.55303 0
M  V30 22460 H 2082.19 -2.23788 3.21965 0
M  V30 22461 H 2083.68 -3.12189 2.77359 0
M  V30 22462 N 2084.12 -1.53926 -0.338317 0
M  V30 22463 C 2085.07 -1.8228 -1.41572 0
M  V30 22464 C 2086.04 -0.668853 -1.52038 0
M  V30 22465 O 2087.22 -0.913813 -1.67494 0
M  V30 22466 C 2084.36 -2.04273 -2.78148 0
M  V30 22467 C 2083.48 -3.31978 -2.76432 0
M  V30 22468 C 2082.61 -3.44011 -4.04759 0
M  V30 22469 C 2081.65 -4.65646 -3.97292 0
M  V30 22470 N 2080.79 -4.74683 -5.1732 0
M  V30 22471 H 2085.63 -2.74202 -1.16692 0
M  V30 22472 H 2083.16 -1.35809 -0.565173 0
M  V30 22473 H 2085.12 -2.15014 -3.57526 0
M  V30 22474 H 2083.75 -1.15659 -3.01368 0
M  V30 22475 H 2082.8 -3.30052 -1.89129 0
M  V30 22476 H 2084.12 -4.21454 -2.66792 0
M  V30 22477 H 2083.27 -3.54213 -4.92563 0
M  V30 22478 H 2082.01 -2.52601 -4.17186 0
M  V30 22479 H 2081.01 -4.55516 -3.07873 0
M  V30 22480 H 2082.24 -5.58425 -3.86443 0
M  V30 22481 H 2080.19 -3.86184 -5.30281 0
M  V30 22482 H 2080.1 -5.58103 -5.09958 0
M  V30 22483 H 2081.37 -4.89201 -6.0688 0
M  V30 22484 N 2085.6 0.599608 -1.45748 0
M  V30 22485 C 2086.53 1.72038 -1.57877 0
M  V30 22486 C 2087.51 1.64578 -0.429893 0
M  V30 22487 O 2088.7 1.82855 -0.654037 0
M  V30 22488 C 2085.83 3.10657 -1.55272 0
M  V30 22489 C 2084.78 3.32936 -2.68957 0
M  V30 22490 C 2084.11 4.71909 -2.51408 0
M  V30 22491 C 2085.41 3.22412 -4.10911 0
M  V30 22492 H 2087.1 1.62144 -2.51694 0
M  V30 22493 H 2084.65 0.778641 -1.21133 0
M  V30 22494 H 2086.6 3.8887 -1.62353 0
M  V30 22495 H 2085.32 3.21411 -0.579891 0
M  V30 22496 H 2083.98 2.57117 -2.61317 0
M  V30 22497 H 2083.63 4.79406 -1.52247 0
M  V30 22498 H 2083.33 4.8777 -3.2765 0
M  V30 22499 H 2084.85 5.52311 -2.60355 0
M  V30 22500 H 2086.27 3.90488 -4.19752 0
M  V30 22501 H 2084.66 3.498 -4.87607 0
M  V30 22502 H 2085.73 2.19732 -4.32256 0
M  V30 22503 N 2087.08 1.33171 0.842803 0
M  V30 22504 C 2088.49 1.21918 1.41397 0
M  V30 22505 C 2088.84 -0.163526 1.95517 0
M  V30 22506 O 2087.96 -1.06291 1.88497 0
M  V30 22507 C 2088.56 2.20727 2.57031 0
M  V30 22508 C 2087.12 2.13325 3.10112 0
M  V30 22509 C 2086.27 2.08432 1.82897 0
M  V30 22510 H 2089.22 1.44827 0.648912 0
M  V30 22511 H 2089.24 1.81271 3.34546 0
M  V30 22512 H 2088.75 3.21352 2.1761 0
M  V30 22513 H 2086.85 1.15989 3.54087 0
M  V30 22514 H 2086.96 3.03691 3.70552 0
M  V30 22515 H 2085.33 1.53848 2.02985 0
M  V30 22516 H 2086.11 3.10858 1.45678 0
M  V30 22517 N 2088.56 -1.06056 1.16576 0
M  V30 22518 C 2089.49 -2.15554 0.897693 0
M  V30 22519 C 2090.47 -1.69375 -0.156927 0
M  V30 22520 O 2091.65 -1.94198 -0.00851939 0
M  V30 22521 C 2088.78 -3.44982 0.40063 0
M  V30 22522 C 2087.74 -4.04682 1.39343 0
M  V30 22523 C 2087.06 -5.29347 0.754677 0
M  V30 22524 C 2088.36 -4.43182 2.76381 0
M  V30 22525 H 2090.06 -2.38236 1.81339 0
M  V30 22526 H 2087.6 -1.14495 0.873316 0
M  V30 22527 H 2089.55 -4.20922 0.200566 0
M  V30 22528 H 2088.28 -3.21926 -0.550576 0
M  V30 22529 H 2086.94 -3.308 1.58009 0
M  V30 22530 H 2086.59 -5.0259 -0.203091 0
M  V30 22531 H 2086.29 -5.7025 1.41735 0
M  V30 22532 H 2087.81 -6.07983 0.564687 0
M  V30 22533 H 2089.22 -5.10195 2.61485 0
M  V30 22534 H 2087.62 -4.95076 3.39146 0
M  V30 22535 H 2088.69 -3.53931 3.31453 0
M  V30 22536 N 2090.03 -0.964615 -1.24631 0
M  V30 22537 C 2090.98 -0.463395 -2.23241 0
M  V30 22538 C 2091.97 0.452893 -1.54395 0
M  V30 22539 O 2093.16 0.284318 -1.74702 0
M  V30 22540 C 2090.29 0.248095 -3.42402 0
M  V30 22541 C 2089.37 -0.686842 -4.18501 0
M  V30 22542 N 2089.77 -1.82277 -4.71814 0
M  V30 22543 C 2088.06 -0.497011 -4.43222 0
M  V30 22544 C 2088.76 -2.40731 -5.2955 0
M  V30 22545 N 2087.74 -1.69279 -5.16571 0
M  V30 22546 H 2091.54 -1.33017 -2.62076 0
M  V30 22547 H 2089.06 -0.823324 -1.39983 0
M  V30 22548 H 2091.05 0.62437 -4.12198 0
M  V30 22549 H 2089.71 1.11135 -3.05089 0
M  V30 22550 H 2090.72 -2.20439 -4.68644 0
M  V30 22551 H 2087.4 0.322534 -4.16252 0
M  V30 22552 H 2088.79 -3.36573 -5.81522 0
M  V30 22553 N 2091.51 1.39445 -0.734362 0
M  V30 22554 C 2092.74 2.04826 -0.29225 0
M  V30 22555 C 2093.15 1.55366 1.0727 0
M  V30 22556 O 2092.51 0.718282 1.67771 0
M  V30 22557 C 2092.56 3.6038 -0.2843 0
M  V30 22558 O 2092.28 4.08019 -1.59536 0
M  V30 22559 C 2093.78 4.42958 0.174058 0
M  V30 22560 H 2091 0.658705 -0.127861 0
M  V30 22561 H 2093.55 1.78504 -0.997833 0
M  V30 22562 H 2091.7 3.85606 0.372391 0
M  V30 22563 H 2092.12 5.02339 -1.50849 0
M  V30 22564 H 2093.59 5.5185 0.128462 0
M  V30 22565 H 2094.07 4.21941 1.21913 0
M  V30 22566 H 2094.67 4.2288 -0.453043 0
M  V30 22567 N 2092.99 0.481946 1.5005 0
M  V30 22568 C 2093.92 -0.296253 2.31613 0
M  V30 22569 C 2094.9 -0.98032 1.3901 0
M  V30 22570 O 2096.09 -0.975402 1.67927 0
M  V30 22571 C 2093.22 -1.37231 3.19037 0
M  V30 22572 C 2092.17 -0.809232 4.2028 0
M  V30 22573 C 2091.5 -1.98439 4.96514 0
M  V30 22574 C 2092.8 0.18685 5.21966 0
M  V30 22575 H 2094.49 0.384509 2.96921 0
M  V30 22576 H 2092.04 0.186362 1.42789 0
M  V30 22577 H 2093.99 -1.92429 3.74899 0
M  V30 22578 H 2092.71 -2.082 2.51636 0
M  V30 22579 H 2091.37 -0.279145 3.65536 0
M  V30 22580 H 2091.02 -2.68131 4.25576 0
M  V30 22581 H 2090.72 -1.6138 5.65005 0
M  V30 22582 H 2092.24 -2.54107 5.55213 0
M  V30 22583 H 2093.66 -0.276326 5.72634 0
M  V30 22584 H 2092.05 0.472282 5.98239 0
M  V30 22585 H 2093.12 1.10915 4.72044 0
M  V30 22586 N 2094.47 -1.56127 0.214985 0
M  V30 22587 C 2095.88 -1.5898 -0.140524 0
M  V30 22588 C 2096.08 -1.23166 -1.59475 0
M  V30 22589 O 2095.14 -0.963792 -2.33382 0
M  V30 22590 C 2096.45 -3.00162 0.179827 0
M  V30 22591 C 2098 -3.12764 0.121534 0
M  V30 22592 C 2098.48 -4.56112 0.415468 0
M  V30 22593 N 2099.97 -4.61761 0.364801 0
M  V30 22594 C 2100.7 -5.70602 0.565817 0
M  V30 22595 N 2100.2 -6.87831 0.828254 0
M  V30 22596 N 2101.99 -5.59883 0.498704 0
M  V30 22597 H 2094.14 -1.77683 1.16372 0
M  V30 22598 H 2096.4 -0.825579 0.465964 0
M  V30 22599 H 2096.11 -3.30995 1.1889 0
M  V30 22600 H 2095.98 -3.7376 -0.508279 0
M  V30 22601 H 2098.37 -2.81731 -0.878172 0
M  V30 22602 H 2098.45 -2.4151 0.843017 0
M  V30 22603 H 2098.1 -4.87861 1.41258 0
M  V30 22604 H 2098.03 -5.25583 -0.327132 0
M  V30 22605 H 2100.52 -3.7752 0.169387 0
M  V30 22606 H 2100.83 -7.66689 0.969914 0
M  V30 22607 H 2099.18 -6.89591 0.865375 0
M  V30 22608 H 2102.37 -4.67176 0.293953 0
M  V30 22609 H 2102.54 -6.44643 0.658773 0
M  V30 22610 N 2095.95 0.0584645 -1.57492 0
M  V30 22611 C 2097.17 0.771417 -1.9252 0
M  V30 22612 C 2097.6 1.69644 -0.812561 0
M  V30 22613 O 2096.95 1.79786 0.233784 0
M  V30 22614 C 2097 1.52975 -3.26544 0
M  V30 22615 O 2096.11 2.64128 -3.16718 0
M  V30 22616 H 2095.45 0.209569 -0.630061 0
M  V30 22617 H 2097.98 0.022721 -2.04587 0
M  V30 22618 H 2097.99 1.90612 -3.60737 0
M  V30 22619 H 2096.66 0.851136 -4.07098 0
M  V30 22620 H 2095.24 2.29251 -2.94106 0
M  V30 22621 N 2097.42 1.54103 0.330149 0
M  V30 22622 C 2098.84 1.44666 0.674089 0
M  V30 22623 C 2099.04 0.614208 1.91911 0
M  V30 22624 O 2098.1 0.110427 2.52258 0
M  V30 22625 C 2099.41 2.88311 0.854235 0
M  V30 22626 C 2100.96 2.98171 0.951998 0
M  V30 22627 C 2101.43 4.42952 1.16436 0
M  V30 22628 N 2102.92 4.46536 1.23125 0
M  V30 22629 C 2103.66 5.55709 1.41333 0
M  V30 22630 N 2103.15 6.74863 1.56626 0
M  V30 22631 N 2104.95 5.43345 1.43988 0
M  V30 22632 H 2097.1 2.06712 -0.488258 0
M  V30 22633 H 2099.36 0.934976 -0.1566 0
M  V30 22634 H 2099.07 3.51698 0.0107232 0
M  V30 22635 H 2098.94 3.34042 1.75202 0
M  V30 22636 H 2101.33 2.34916 1.78602 0
M  V30 22637 H 2101.41 2.55781 0.0308205 0
M  V30 22638 H 2101.05 5.06793 0.335219 0
M  V30 22639 H 2100.98 4.82946 2.09931 0
M  V30 22640 H 2103.47 3.60679 1.12777 0
M  V30 22641 H 2103.79 7.53826 1.70193 0
M  V30 22642 H 2102.13 6.77783 1.53737 0
M  V30 22643 H 2105.32 4.49211 1.31632 0
M  V30 22644 H 2105.5 6.28484 1.57836 0
M  V30 22645 N 2098.9 -0.59187 1.46064 0
M  V30 22646 C 2099.83 -1.71199 1.58787 0
M  V30 22647 C 2100.81 -1.64348 0.438615 0
M  V30 22648 O 2102 -1.82506 0.663725 0
M  V30 22649 C 2099.13 -3.0983 1.56917 0
M  V30 22650 C 2098.08 -3.31505 2.70719 0
M  V30 22651 C 2097.41 -4.70569 2.53907 0
M  V30 22652 C 2098.71 -3.20228 4.12615 0
M  V30 22653 H 2100.4 -1.60807 2.5255 0
M  V30 22654 H 2097.95 -0.772206 1.21544 0
M  V30 22655 H 2099.9 -3.88003 1.64413 0
M  V30 22656 H 2098.63 -3.21099 0.596928 0
M  V30 22657 H 2097.28 -2.55727 2.62677 0
M  V30 22658 H 2096.93 -4.78592 1.54787 0
M  V30 22659 H 2096.63 -4.86025 3.30232 0
M  V30 22660 H 2098.16 -5.50923 2.6328 0
M  V30 22661 H 2099.57 -3.88257 4.21817 0
M  V30 22662 H 2097.97 -3.47209 4.89455 0
M  V30 22663 H 2099.04 -2.17437 4.33416 0
M  V30 22664 N 2100.38 -1.33616 -0.835729 0
M  V30 22665 C 2101.61 -1.28444 -1.6284 0
M  V30 22666 C 2102.03 0.141205 -1.87569 0
M  V30 22667 O 2101.39 1.09885 -1.44205 0
M  V30 22668 C 2101.44 -2.0683 -2.95387 0
M  V30 22669 O 2100.54 -1.42905 -3.86849 0
M  V30 22670 H 2099.88 -0.441742 -0.495742 0
M  V30 22671 H 2102.41 -1.76226 -1.0395 0
M  V30 22672 H 2102.42 -2.17712 -3.45059 0
M  V30 22673 H 2101.1 -3.1049 -2.76711 0
M  V30 22674 H 2099.67 -1.40689 -3.45342 0
M  V30 22675 N 2101.86 1.05436 -1.17136 0
M  V30 22676 C 2103.11 1.77784 -0.952661 0
M  V30 22677 C 2103.42 1.88561 0.519999 0
M  V30 22678 O 2104.63 2.57625 0.856841 0
M  V30 22679 C 2103.08 3.19575 -1.65529 0
M  V30 22680 C 2102.69 3.16936 -3.16631 0
M  V30 22681 C 2104.43 3.96397 -1.51888 0
M  V30 22682 C 2102.34 4.535 -3.79594 0
M  V30 22683 H 2101.27 0.66637 -0.352799 0
M  V30 22684 H 2103.92 1.18197 -1.40363 0
M  V30 22685 H 2102.3 3.79474 -1.13205 0
M  V30 22686 H 2103.48 2.6657 -3.75869 0
M  V30 22687 H 2101.79 2.53614 -3.30256 0
M  V30 22688 H 2104.39 4.97363 -1.96302 0
M  V30 22689 H 2104.73 4.13649 -0.469072 0
M  V30 22690 H 2105.27 3.4304 -2.01416 0
M  V30 22691 H 2102.01 4.41453 -4.84561 0
M  V30 22692 H 2101.53 5.04026 -3.25143 0
M  V30 22693 H 2103.2 5.22444 -3.81656 0
M  V30 22694 N 2103.34 0.971211 1.24118 0
M  V30 22695 C 2104.59 0.630598 1.91589 0
M  V30 22696 C 2104.9 -0.838491 1.76716 0
M  V30 22697 O 2106.1 -1.28978 2.38908 0
M  V30 22698 C 2104.56 1.07723 3.434 0
M  V30 22699 C 2104.17 2.57002 3.66953 0
M  V30 22700 C 2105.91 0.809928 4.16702 0
M  V30 22701 C 2103.82 2.95379 5.12352 0
M  V30 22702 H 2102.75 0.232148 0.717373 0
M  V30 22703 H 2105.4 1.17789 1.40706 0
M  V30 22704 H 2103.78 0.458223 3.9334 0
M  V30 22705 H 2104.96 3.24062 3.27598 0
M  V30 22706 H 2103.27 2.8138 3.06944 0
M  V30 22707 H 2105.87 1.07262 5.23831 0
M  V30 22708 H 2106.21 -0.253899 4.15525 0
M  V30 22709 H 2106.74 1.39007 3.72722 0
M  V30 22710 H 2103.48 4.00847 5.18654 0
M  V30 22711 H 2103 2.33005 5.52692 0
M  V30 22712 H 2104.68 2.85478 5.80613 0
M  V30 22713 N 2104.81 -1.39054 0.741747 0
M  V30 22714 C 2105.74 -2.33184 0.121433 0
M  V30 22715 C 2106.73 -1.54261 -0.716774 0
M  V30 22716 O 2107.91 -1.82627 -0.660379 0
M  V30 22717 C 2105.04 -3.38393 -0.78152 0
M  V30 22718 C 2103.99 -4.27974 -0.046955 0
M  V30 22719 C 2103.32 -5.23938 -1.06737 0
M  V30 22720 C 2104.62 -5.10272 1.11446 0
M  V30 22721 H 2106.31 -2.85308 0.907724 0
M  V30 22722 H 2103.86 -1.37179 0.437953 0
M  V30 22723 H 2105.81 -4.032 -1.22506 0
M  V30 22724 H 2104.54 -2.84724 -1.6 0
M  V30 22725 H 2103.2 -3.64656 0.377036 0
M  V30 22726 H 2102.84 -4.66562 -1.8796 0
M  V30 22727 H 2102.54 -5.84725 -0.580605 0
M  V30 22728 H 2104.07 -5.91622 -1.51048 0
M  V30 22729 H 2105.48 -5.68386 0.749042 0
M  V30 22730 H 2103.88 -5.80234 1.53131 0
M  V30 22731 H 2104.95 -4.44706 1.93299 0
M  V30 22732 N 2106.29 -0.489897 -1.49792 0
M  V30 22733 C 2107.22 0.330983 -2.26798 0
M  V30 22734 C 2108.24 0.940504 -1.32885 0
M  V30 22735 O 2109.43 0.825724 -1.58253 0
M  V30 22736 C 2106.53 1.47994 -3.04879 0
M  V30 22737 C 2105.7 0.979767 -4.26286 0
M  V30 22738 C 2104.76 2.005 -4.86504 0
M  V30 22739 O 2103.78 1.57802 -5.46889 0
M  V30 22740 N 2104.99 3.3346 -4.75168 0
M  V30 22741 H 2107.75 -0.32926 -2.97886 0
M  V30 22742 H 2105.31 -0.321781 -1.5867 0
M  V30 22743 H 2107.3 2.16312 -3.4204 0
M  V30 22744 H 2105.87 2.04453 -2.36469 0
M  V30 22745 H 2105.09 0.121846 -3.94012 0
M  V30 22746 H 2106.38 0.623816 -5.04961 0
M  V30 22747 H 2105.78 3.70846 -4.27188 0
M  V30 22748 H 2104.34 3.97523 -5.16545 0
M  V30 22749 N 2107.77 1.56011 -0.223262 0
M  V30 22750 C 2109.05 1.90185 0.457074 0
M  V30 22751 C 2109.43 1.14083 1.77618 0
M  V30 22752 O 2108.78 0.250703 2.27121 0
M  V30 22753 C 2108.99 3.42925 0.648347 0
M  V30 22754 C 2110.33 4.13721 0.955 0
M  V30 22755 O 2111.36 3.48533 0.735072 0
M  V30 22756 O 2110.22 5.28985 1.37248 0
M  V30 22757 H 2107.31 0.790827 0.241912 0
M  V30 22758 H 2109.86 1.67609 -0.265573 0
M  V30 22759 H 2108.63 3.90282 -0.282045 0
M  V30 22760 H 2108.25 3.71286 1.42242 0
M  V30 22761 N 2109.25 -0.0501116 1.5752 0
M  V30 22762 C 2110.66 -0.599337 1.76819 0
M  V30 22763 C 2111.01 -1.76753 0.851625 0
M  V30 22764 O 2110.14 -2.16361 0.0411012 0
M  V30 22765 C 2110.73 -1.09402 3.2065 0
M  V30 22766 C 2109.29 -1.58893 3.41219 0
M  V30 22767 C 2108.44 -0.517719 2.72424 0
M  V30 22768 H 2111.39 0.176108 1.5772 0
M  V30 22769 H 2111.41 -1.96217 3.26005 0
M  V30 22770 H 2110.92 -0.243574 3.87335 0
M  V30 22771 H 2109.02 -2.46191 2.7968 0
M  V30 22772 H 2109.13 -1.65093 4.49757 0
M  V30 22773 H 2107.5 -0.967874 2.35594 0
M  V30 22774 H 2108.28 0.322904 3.41778 0
M  V30 22775 N 2110.73 -1.54276 -0.321972 0
M  V30 22776 C 2111.97 -1.72813 -1.0613 0
M  V30 22777 C 2112.31 -0.501222 -1.8762 0
M  V30 22778 O 2111.58 0.501806 -1.87915 0
M  V30 22779 C 2111.86 -3.00469 -1.9847 0
M  V30 22780 C 2111.72 -4.33415 -1.20299 0
M  V30 22781 C 2113.04 -3.23886 -2.97969 0
M  V30 22782 H 2110.15 -0.628793 -0.384432 0
M  V30 22783 H 2112.8 -1.86973 -0.337811 0
M  V30 22784 H 2110.95 -2.88528 -2.60161 0
M  V30 22785 H 2112.62 -4.57242 -0.610559 0
M  V30 22786 H 2110.86 -4.30847 -0.505293 0
M  V30 22787 H 2111.53 -5.18959 -1.8811 0
M  V30 22788 H 2114.01 -3.353 -2.46401 0
M  V30 22789 H 2112.88 -4.14562 -3.59763 0
M  V30 22790 H 2113.15 -2.4119 -3.70513 0
M  V30 22791 N 2112.2 0.584116 -1.46376 0
M  V30 22792 C 2113.13 1.70354 -1.59693 0
M  V30 22793 C 2114.12 1.64113 -0.447325 0
M  V30 22794 O 2115.3 1.82151 -0.673394 0
M  V30 22795 C 2112.43 3.08993 -1.58558 0
M  V30 22796 C 2111.38 3.30064 -2.72473 0
M  V30 22797 C 2110.71 4.69216 -2.56399 0
M  V30 22798 C 2112.01 3.18035 -4.14308 0
M  V30 22799 H 2113.7 1.59465 -2.53399 0
M  V30 22800 H 2111.25 0.765749 -1.21952 0
M  V30 22801 H 2113.2 3.87126 -1.66468 0
M  V30 22802 H 2111.93 3.20778 -0.613949 0
M  V30 22803 H 2110.59 2.5433 -2.64029 0
M  V30 22804 H 2110.23 4.77764 -1.57323 0
M  V30 22805 H 2109.93 4.84267 -3.32805 0
M  V30 22806 H 2111.46 5.49519 -2.66198 0
M  V30 22807 H 2112.87 3.86014 -4.2387 0
M  V30 22808 H 2111.27 3.44608 -4.91289 0
M  V30 22809 H 2112.34 2.15135 -4.34563 0
M  V30 22810 N 2113.68 1.34058 0.828631 0
M  V30 22811 C 2114.93 1.26093 1.58451 0
M  V30 22812 C 2115.26 -0.170623 1.9375 0
M  V30 22813 O 2114.51 -1.13044 1.59748 0
M  V30 22814 C 2114.81 2.09161 2.89804 0
M  V30 22815 C 2114.48 3.58234 2.73823 0
M  V30 22816 C 2113.14 3.98873 2.69172 0
M  V30 22817 C 2115.49 4.52919 2.57903 0
M  V30 22818 C 2112.82 5.32398 2.46514 0
M  V30 22819 C 2115.17 5.86617 2.36777 0
M  V30 22820 C 2113.84 6.26426 2.30534 0
M  V30 22821 H 2113.11 0.461406 0.579815 0
M  V30 22822 H 2115.75 1.65745 0.959215 0
M  V30 22823 H 2114.06 1.62319 3.56595 0
M  V30 22824 H 2115.76 2.00349 3.47363 0
M  V30 22825 H 2112.35 3.25973 2.7828 0
M  V30 22826 H 2116.53 4.22423 2.60523 0
M  V30 22827 H 2111.79 5.62268 2.40135 0
M  V30 22828 H 2115.96 6.5958 2.23444 0
M  V30 22829 H 2113.59 7.29826 2.12738 0
M  V30 22830 N 2115.16 -1.04814 1.17694 0
M  V30 22831 C 2116.39 -1.82088 0.992908 0
M  V30 22832 C 2116.81 -1.82538 -0.454023 0
M  V30 22833 O 2116.17 -1.23716 -1.3253 0
M  V30 22834 C 2116.22 -3.25912 1.54318 0
M  V30 22835 O 2115.32 -4.05346 0.759486 0
M  V30 22836 H 2114.66 -0.562852 0.352268 0
M  V30 22837 H 2117.19 -1.32054 1.56279 0
M  V30 22838 H 2117.2 -3.76705 1.56708 0
M  V30 22839 H 2115.88 -3.24899 2.59641 0
M  V30 22840 H 2114.45 -3.64056 0.807298 0
M  V30 22841 N 2116.64 -0.977779 -1.23601 0
M  V30 22842 C 2117.89 -0.643936 -1.91567 0
M  V30 22843 C 2118.21 0.824798 -1.76698 0
M  V30 22844 O 2117.48 1.58974 -1.14473 0
M  V30 22845 H 2116.06 -0.235177 -0.709014 0
M  V30 22846 H 2118.72 -1.24103 -1.50282 0
M  V30 22847 H 2117.82 -0.893282 -2.99043 0
M  V30 22848 N 2118.12 1.38658 -0.749111 0
M  V30 22849 C 2119.35 2.04504 -0.313958 0
M  V30 22850 C 2119.76 1.56495 1.05616 0
M  V30 22851 O 2119.12 0.736036 1.66999 0
M  V30 22852 C 2119.17 3.60059 -0.322507 0
M  V30 22853 O 2118.89 4.06304 -1.63855 0
M  V30 22854 C 2120.39 4.43118 0.127067 0
M  V30 22855 H 2117.61 0.657312 -0.134841 0
M  V30 22856 H 2120.15 1.77435 -1.01671 0
M  V30 22857 H 2118.31 3.85979 0.331471 0
M  V30 22858 H 2118.72 5.00711 -1.56169 0
M  V30 22859 H 2120.2 5.51956 0.0699241 0
M  V30 22860 H 2120.67 4.2321 1.17431 0
M  V30 22861 H 2121.28 4.22376 -0.49787 0
M  V30 22862 N 2119.6 0.497834 1.49531 0
M  V30 22863 C 2120.84 -0.0496362 2.01639 0
M  V30 22864 C 2121.16 -1.3834 1.38281 0
M  V30 22865 O 2122.36 -2.01737 1.81699 0
M  V30 22866 C 2120.82 -0.138928 3.59632 0
M  V30 22867 C 2120.43 1.188 4.31961 0
M  V30 22868 C 2122.17 -0.636931 4.19694 0
M  V30 22869 C 2120.08 1.06104 5.81804 0
M  V30 22870 H 2119.01 -0.0223237 0.753669 0
M  V30 22871 H 2121.66 0.636776 1.72097 0
M  V30 22872 H 2120.04 -0.88972 3.85876 0
M  V30 22873 H 2121.22 1.95184 4.17421 0
M  V30 22874 H 2119.53 1.61919 3.83629 0
M  V30 22875 H 2122.13 -0.749374 5.29423 0
M  V30 22876 H 2122.47 -1.63499 3.8285 0
M  V30 22877 H 2123 0.0572358 3.97759 0
M  V30 22878 H 2119.74 2.03327 6.23168 0
M  V30 22879 H 2119.26 0.33804 5.98847 0
M  V30 22880 H 2120.94 0.738481 6.42772 0
M  V30 22881 N 2121.07 -1.5589 0.231532 0
M  V30 22882 C 2122.49 -1.5912 -0.123654 0
M  V30 22883 C 2122.69 -1.24851 -1.5816 0
M  V30 22884 O 2121.75 -0.988491 -2.32347 0
M  V30 22885 C 2123.06 -2.99954 0.211653 0
M  V30 22886 C 2124.61 -3.12617 0.1547 0
M  V30 22887 C 2125.08 -4.55645 0.463821 0
M  V30 22888 N 2126.57 -4.61348 0.413757 0
M  V30 22889 C 2127.31 -5.69969 0.626305 0
M  V30 22890 N 2126.8 -6.86914 0.901162 0
M  V30 22891 N 2128.6 -5.59323 0.558059 0
M  V30 22892 H 2120.75 -1.76439 1.1825 0
M  V30 22893 H 2123.01 -0.820591 0.474695 0
M  V30 22894 H 2122.72 -3.29716 1.22394 0
M  V30 22895 H 2122.59 -3.74278 -0.468608 0
M  V30 22896 H 2124.98 -2.82646 -0.848241 0
M  V30 22897 H 2125.06 -2.40602 0.868584 0
M  V30 22898 H 2124.7 -4.86336 1.46425 0
M  V30 22899 H 2124.63 -5.259 -0.271369 0
M  V30 22900 H 2127.12 -3.77319 0.209419 0
M  V30 22901 H 2127.44 -7.65617 1.05118 0
M  V30 22902 H 2125.78 -6.88635 0.938467 0
M  V30 22903 H 2128.97 -4.66838 0.343487 0
M  V30 22904 H 2129.15 -6.43908 0.727109 0
M  V30 22905 N 2122.55 0.0417572 -1.57545 0
M  V30 22906 C 2123.8 0.7351 -1.88686 0
M  V30 22907 C 2124.13 1.76032 -0.827216 0
M  V30 22908 O 2123.38 1.94931 0.173363 0
M  V30 22909 C 2123.68 1.45244 -3.26556 0
M  V30 22910 C 2123.35 0.56439 -4.47354 0
M  V30 22911 C 2122.01 0.319756 -4.80136 0
M  V30 22912 C 2124.36 -0.0495197 -5.21176 0
M  V30 22913 C 2121.69 -0.547773 -5.84137 0
M  V30 22914 C 2124.04 -0.904676 -6.26098 0
M  V30 22915 C 2122.7 -1.15889 -6.57363 0
M  V30 22916 H 2121.97 0.268992 -0.690452 0
M  V30 22917 H 2124.62 -0.00478987 -1.91499 0
M  V30 22918 H 2122.93 2.26532 -3.19673 0
M  V30 22919 H 2124.62 1.99422 -3.47896 0
M  V30 22920 H 2121.21 0.765207 -4.21714 0
M  V30 22921 H 2125.4 0.126537 -4.96139 0
M  V30 22922 H 2120.65 -0.753169 -6.06743 0
M  V30 22923 H 2124.83 -1.38695 -6.82449 0
M  V30 22924 H 2122.45 -1.83286 -7.37774 0
M  V30 22925 N 2124.03 1.54445 0.313786 0
M  V30 22926 C 2124.98 1.85248 1.40663 0
M  V30 22927 C 2125.97 0.725147 1.53095 0
M  V30 22928 O 2127.18 0.908956 1.55364 0
M  V30 22929 H 2123.55 0.587354 0.469595 0
M  V30 22930 H 2125.52 2.76619 1.11913 0
M  V30 22931 C 2124.27 2.10521 2.76724 0
M  V30 22932 H 2123.6 2.96733 2.67935 0
M  V30 22933 H 2125.04 2.36022 3.52235 0
M  V30 22934 C 2123.49 0.899767 3.24663 0
M  V30 22935 O 2124.02 0.113882 4.01539 0
M  V30 22936 N 2122.23 0.708685 2.81826 0
M  V30 22937 H 2121.78 1.34941 2.19428 0
M  V30 22938 H 2121.74 -0.0963363 3.14252 0
M  V30 22939 N 2125.51 -0.576345 1.46683 0
M  V30 22940 C 2126.44 -1.69505 1.60594 0
M  V30 22941 C 2127.42 -1.63873 0.456022 0
M  V30 22942 O 2128.6 -1.81791 0.683045 0
M  V30 22943 C 2125.73 -3.08148 1.60194 0
M  V30 22944 C 2124.69 -3.28615 2.7422 0
M  V30 22945 C 2124.01 -4.6785 2.58884 0
M  V30 22946 C 2125.31 -3.15834 4.15989 0
M  V30 22947 H 2127.01 -1.58119 2.54241 0
M  V30 22948 H 2124.55 -0.759271 1.22356 0
M  V30 22949 H 2126.51 -3.86237 1.68519 0
M  V30 22950 H 2125.23 -3.20447 0.630952 0
M  V30 22951 H 2123.89 -2.52927 2.65375 0
M  V30 22952 H 2123.54 -4.76923 1.59854 0
M  V30 22953 H 2123.24 -4.82495 3.35368 0
M  V30 22954 H 2124.76 -5.48099 2.69109 0
M  V30 22955 H 2126.18 -3.83761 4.25911 0
M  V30 22956 H 2124.57 -3.41998 4.9311 0
M  V30 22957 H 2125.64 -2.12828 4.35698 0
M  V30 22958 N 2126.99 -1.34495 -0.82151 0
M  V30 22959 C 2128.26 -1.17511 -1.56367 0
M  V30 22960 C 2128.64 0.251735 -2.09594 0
M  V30 22961 O 2127.99 1.25325 -1.91065 0
M  V30 22962 C 2128.2 -2.23083 -2.68393 0
M  V30 22963 C 2129.55 -2.58132 -3.37124 0
M  V30 22964 O 2130.57 -2.21883 -2.78651 0
M  V30 22965 O 2129.43 -3.20405 -4.42722 0
M  V30 22966 H 2126.53 -0.455611 -0.690179 0
M  V30 22967 H 2129.07 -1.46132 -0.862761 0
M  V30 22968 H 2127.84 -3.1885 -2.26827 0
M  V30 22969 H 2127.47 -1.95647 -3.46133 0
M  V30 22970 N 2128.46 1.04188 -1.18248 0
M  V30 22971 C 2129.88 1.58822 -0.981458 0
M  V30 22972 C 2130.23 1.90507 0.469187 0
M  V30 22973 O 2129.35 1.6942 1.34632 0
M  V30 22974 C 2129.95 2.88565 -1.77526 0
M  V30 22975 C 2128.51 3.3982 -1.61862 0
M  V30 22976 C 2127.65 2.13421 -1.77051 0
M  V30 22977 H 2130.6 0.868749 -1.3281 0
M  V30 22978 H 2130.62 3.58905 -1.26362 0
M  V30 22979 H 2130.14 2.65472 -2.83101 0
M  V30 22980 H 2128.24 3.67928 -0.588186 0
M  V30 22981 H 2128.35 4.13728 -2.4159 0
M  V30 22982 H 2126.71 2.24667 -1.19986 0
M  V30 22983 H 2127.5 1.92785 -2.84058 0
M  V30 22984 N 2129.94 0.98432 1.23081 0
M  V30 22985 C 2130.85 0.536158 2.28391 0
M  V30 22986 C 2131.87 -0.410933 1.69078 0
M  V30 22987 O 2133.04 -0.279885 1.99446 0
M  V30 22988 C 2130.11 -0.150493 3.46373 0
M  V30 22989 C 2129.17 0.83849 4.21032 0
M  V30 22990 C 2128.4 0.184512 5.33381 0
M  V30 22991 O 2128.63 -1.02355 5.61141 0
M  V30 22992 O 2127.56 0.885058 5.95357 0
M  V30 22993 H 2131.39 1.41206 2.68877 0
M  V30 22994 H 2128.97 0.752144 1.29086 0
M  V30 22995 H 2130.85 -0.535499 4.17984 0
M  V30 22996 H 2129.53 -1.00109 3.07831 0
M  V30 22997 H 2128.44 1.27427 3.51729 0
M  V30 22998 H 2129.77 1.65802 4.63433 0
M  V30 22999 N 2131.42 -1.38259 0.756453 0
M  V30 23000 C 2132.84 -1.53575 0.434365 0
M  V30 23001 C 2133.04 -1.71851 -1.05212 0
M  V30 23002 O 2132.09 -1.73115 -1.83814 0
M  V30 23003 C 2133.41 -2.74118 1.23611 0
M  V30 23004 C 2134.95 -2.8797 1.22647 0
M  V30 23005 C 2135.43 -4.11477 2.01124 0
M  V30 23006 N 2136.92 -4.1856 1.98399 0
M  V30 23007 C 2137.65 -5.13124 2.55913 0
M  V30 23008 N 2137.15 -6.13343 3.22153 0
M  V30 23009 N 2138.94 -5.05495 2.45827 0
M  V30 23010 H 2131.09 -1.24647 1.7198 0
M  V30 23011 H 2133.36 -0.605745 0.72923 0
M  V30 23012 H 2133.06 -2.67028 2.28886 0
M  V30 23013 H 2132.94 -3.67384 0.854919 0
M  V30 23014 H 2135.32 -2.9454 0.181771 0
M  V30 23015 H 2135.41 -1.95707 1.6472 0
M  V30 23016 H 2135.05 -4.05669 3.05607 0
M  V30 23017 H 2134.98 -5.02825 1.56444 0
M  V30 23018 H 2137.47 -3.46785 1.50161 0
M  V30 23019 H 2137.78 -6.81999 3.63451 0
M  V30 23020 H 2136.13 -6.13667 3.26248 0
M  V30 23021 H 2139.32 -4.26141 1.93705 0
M  V30 23022 H 2139.49 -5.79012 2.90946 0
M  V30 23023 N 2132.9 -0.505757 -1.49264 0
M  V30 23024 C 2133.85 0.270127 -2.29214 0
M  V30 23025 C 2134.82 0.956031 -1.35828 0
M  V30 23026 O 2136 0.961771 -1.64787 0
M  V30 23027 C 2133.14 1.32577 -3.18618 0
M  V30 23028 C 2132.25 0.65116 -4.27064 0
M  V30 23029 C 2131.39 1.68765 -5.03678 0
M  V30 23030 C 2130.43 0.995172 -6.03956 0
M  V30 23031 N 2129.56 1.97608 -6.73718 0
M  V30 23032 H 2134.4 -0.41788 -2.95056 0
M  V30 23033 H 2131.94 -0.217921 -1.45477 0
M  V30 23034 H 2133.9 1.94985 -3.68832 0
M  V30 23035 H 2132.53 1.98248 -2.5475 0
M  V30 23036 H 2131.58 -0.0863124 -3.80302 0
M  V30 23037 H 2132.89 0.106277 -4.98687 0
M  V30 23038 H 2132.05 2.38665 -5.57785 0
M  V30 23039 H 2130.79 2.2664 -4.3184 0
M  V30 23040 H 2129.79 0.281968 -5.49076 0
M  V30 23041 H 2131.02 0.422861 -6.77782 0
M  V30 23042 H 2128.96 2.54436 -6.04647 0
M  V30 23043 H 2128.88 1.48199 -7.41332 0
M  V30 23044 H 2130.15 2.66782 -7.32426 0
M  V30 23045 N 2134.38 1.55765 -0.239796 0
M  V30 23046 C 2135.62 2.00673 0.38854 0
M  V30 23047 C 2135.98 1.12423 1.55644 0
M  V30 23048 O 2137.18 1.46756 2.25202 0
M  V30 23049 C 2135.45 3.48451 0.794775 0
M  V30 23050 S 2137.01 4.15371 1.41464 0
M  V30 23051 H 2133.83 0.700356 0.122567 0
M  V30 23052 H 2136.43 1.9228 -0.353365 0
M  V30 23053 H 2135.14 4.10349 -0.0646279 0
M  V30 23054 H 2134.67 3.60756 1.56904 0
M  V30 23055 H 2136.68 4.16069 2.70372 0
M  V30 23056 N 2135.85 -0.0334016 1.57565 0
M  V30 23057 C 2137.08 -0.740692 1.93723 0
M  V30 23058 C 2137.5 -1.6833 0.839447 0
M  V30 23059 O 2136.86 -1.80136 -0.205152 0
M  V30 23060 C 2136.91 -1.47761 3.28936 0
M  V30 23061 O 2136.01 -2.59056 3.2088 0
M  V30 23062 H 2135.36 -0.199518 0.633315 0
M  V30 23063 H 2137.89 0.00982998 2.04598 0
M  V30 23064 H 2137.9 -1.84849 3.63724 0
M  V30 23065 H 2136.57 -0.786263 4.084 0
M  V30 23066 H 2135.15 -2.24543 2.97716 0
M  V30 23067 N 2137.33 -1.54609 -0.305591 0
M  V30 23068 C 2138.61 -1.64344 -1.06068 0
M  V30 23069 C 2138.99 -0.488774 -2.05364 0
M  V30 23070 O 2138.34 0.515015 -2.2262 0
M  V30 23071 C 2138.55 -3.02149 -1.74663 0
M  V30 23072 C 2139.9 -3.58808 -2.27029 0
M  V30 23073 O 2140.92 -3.04571 -1.84703 0
M  V30 23074 O 2139.78 -4.53762 -3.04568 0
M  V30 23075 H 2136.87 -0.666216 -0.489984 0
M  V30 23076 H 2139.42 -1.66954 -0.304046 0
M  V30 23077 H 2138.19 -3.77626 -1.02538 0
M  V30 23078 H 2137.81 -3.03296 -2.57094 0
M  V30 23079 N 2138.81 0.568558 -1.46987 0
M  V30 23080 C 2140.04 1.35675 -1.56867 0
M  V30 23081 C 2140.46 1.86864 -0.215303 0
M  V30 23082 O 2139.82 1.62351 0.806967 0
M  V30 23083 C 2139.87 2.51048 -2.58858 0
M  V30 23084 O 2138.97 3.52929 -2.13342 0
M  V30 23085 H 2138.31 0.403471 -0.527358 0
M  V30 23086 H 2140.84 0.688258 -1.92676 0
M  V30 23087 H 2140.85 2.97773 -2.78918 0
M  V30 23088 H 2139.53 2.13145 -3.5713 0
M  V30 23089 H 2138.1 3.12587 -2.03332 0
M  V30 23090 N 2140.29 1.34929 0.814366 0
M  V30 23091 C 2141.52 1.30863 1.60257 0
M  V30 23092 C 2141.93 -0.11553 1.88446 0
M  V30 23093 O 2141.29 -1.06518 1.4819 0
M  V30 23094 C 2141.34 2.10565 2.93845 0
M  V30 23095 O 2141.06 3.47427 2.66882 0
M  V30 23096 C 2142.56 2.13994 3.88228 0
M  V30 23097 H 2139.78 0.449849 0.497872 0
M  V30 23098 H 2142.33 1.77669 1.01262 0
M  V30 23099 H 2140.48 1.67378 3.49376 0
M  V30 23100 H 2140.89 3.88729 3.52122 0
M  V30 23101 H 2142.37 2.74168 4.79099 0
M  V30 23102 H 2142.85 1.13661 4.24238 0
M  V30 23103 H 2143.45 2.57308 3.38634 0
M  V30 23104 N 2141.77 -1.0356 1.18799 0
M  V30 23105 C 2142.7 -2.13602 0.943213 0
M  V30 23106 C 2143.68 -1.69669 -0.120965 0
M  V30 23107 O 2144.86 -1.94173 0.0326748 0
M  V30 23108 C 2141.99 -3.44054 0.473716 0
M  V30 23109 C 2140.95 -4.01635 1.47896 0
M  V30 23110 C 2140.27 -5.27628 0.866789 0
M  V30 23111 C 2141.57 -4.3722 2.8572 0
M  V30 23112 H 2143.27 -2.34336 1.86351 0
M  V30 23113 H 2140.81 -1.12617 0.897406 0
M  V30 23114 H 2142.77 -4.20402 0.289804 0
M  V30 23115 H 2141.49 -3.23021 -0.482167 0
M  V30 23116 H 2140.15 -3.27374 1.6499 0
M  V30 23117 H 2139.8 -5.02908 -0.0964386 0
M  V30 23118 H 2139.5 -5.67115 1.53799 0
M  V30 23119 H 2141.02 -6.06649 0.693523 0
M  V30 23120 H 2142.43 -5.04533 2.72248 0
M  V30 23121 H 2140.83 -4.87771 3.49571 0
M  V30 23122 H 2141.9 -3.46821 3.38885 0
M  V30 23123 N 2143.25 -0.990834 -1.22557 0
M  V30 23124 C 2144.49 -0.676169 -1.91832 0
M  V30 23125 C 2144.85 0.782981 -1.75747 0
M  V30 23126 O 2144.14 1.55864 -1.11432 0
M  V30 23127 C 2144.33 -1.01474 -3.42692 0
M  V30 23128 C 2144.16 -2.50525 -3.73453 0
M  V30 23129 C 2142.93 -3.16896 -3.93579 0
M  V30 23130 C 2145.13 -3.48636 -3.78097 0
M  V30 23131 N 2143.11 -4.55445 -4.11634 0
M  V30 23132 C 2144.48 -4.72635 -4.01268 0
M  V30 23133 C 2146.54 -3.42972 -3.60936 0
M  V30 23134 C 2145.24 -5.91661 -4.0906 0
M  V30 23135 C 2147.27 -4.61372 -3.69986 0
M  V30 23136 C 2146.63 -5.8417 -3.93605 0
M  V30 23137 H 2142.73 -0.298668 -0.722718 0
M  V30 23138 H 2145.31 -1.27042 -1.47541 0
M  V30 23139 H 2143.48 -0.449081 -3.85795 0
M  V30 23140 H 2145.22 -0.656274 -3.99343 0
M  V30 23141 H 2141.97 -2.67369 -3.9091 0
M  V30 23142 H 2142.39 -5.27304 -4.24594 0
M  V30 23143 H 2147.04 -2.4905 -3.41663 0
M  V30 23144 H 2144.75 -6.85988 -4.27137 0
M  V30 23145 H 2148.34 -4.58576 -3.58049 0
M  V30 23146 H 2147.22 -6.74257 -4.00434 0
M  V30 23147 N 2144.72 1.37856 -0.763775 0
M  V30 23148 C 2145.63 2.3415 -0.145216 0
M  V30 23149 C 2146.65 1.59782 0.688888 0
M  V30 23150 O 2147.83 1.91919 0.610668 0
M  V30 23151 C 2144.89 3.38934 0.729718 0
M  V30 23152 C 2143.95 4.29132 -0.119926 0
M  V30 23153 C 2143.18 5.28911 0.713343 0
M  V30 23154 O 2143.41 5.36002 1.95086 0
M  V30 23155 O 2142.34 6.01767 0.126758 0
M  V30 23156 H 2146.17 2.88763 -0.940736 0
M  V30 23157 H 2143.75 1.39879 -0.524814 0
M  V30 23158 H 2145.63 4.03066 1.22946 0
M  V30 23159 H 2144.31 2.86661 1.50356 0
M  V30 23160 H 2143.22 3.68127 -0.665843 0
M  V30 23161 H 2144.55 4.84688 -0.856664 0
M  V30 23162 N 2146.2 0.513665 1.48994 0
M  V30 23163 C 2147.16 -0.247066 2.27864 0
M  V30 23164 C 2148.16 -0.882574 1.34415 0
M  V30 23165 O 2149.35 -0.745145 1.57459 0
M  V30 23166 C 2146.49 -1.35575 3.12782 0
M  V30 23167 H 2147.68 0.445185 2.96577 0
M  V30 23168 H 2145.23 0.269045 1.53967 0
M  V30 23169 H 2145.97 -2.08176 2.48663 0
M  V30 23170 H 2145.75 -0.905368 3.81504 0
M  V30 23171 H 2147.24 -1.89127 3.72318 0
M  V30 23172 N 2147.68 -1.55636 0.248053 0
M  V30 23173 C 2148.61 -2.2441 -0.645175 0
M  V30 23174 C 2149.59 -1.22477 -1.18039 0
M  V30 23175 O 2150.78 -1.51133 -1.21953 0
M  V30 23176 C 2147.91 -2.94446 -1.84171 0
M  V30 23177 C 2146.86 -4.03076 -1.43922 0
M  V30 23178 C 2146.19 -4.60544 -2.71668 0
M  V30 23179 C 2147.49 -5.18732 -0.609431 0
M  V30 23180 H 2149.18 -2.99314 -0.0716951 0
M  V30 23181 H 2146.73 -1.43962 -0.033043 0
M  V30 23182 H 2148.68 -3.41259 -2.47225 0
M  V30 23183 H 2147.4 -2.17031 -2.44059 0
M  V30 23184 H 2146.06 -3.57034 -0.832012 0
M  V30 23185 H 2145.71 -3.79829 -3.29756 0
M  V30 23186 H 2145.41 -5.33876 -2.4546 0
M  V30 23187 H 2146.93 -5.10091 -3.35618 0
M  V30 23188 H 2148.35 -5.61764 -1.1443 0
M  V30 23189 H 2146.74 -5.9846 -0.443361 0
M  V30 23190 H 2147.81 -4.83424 0.378087 0
M  V30 23191 N 2149.16 0.0250451 -1.5758 0
M  V30 23192 C 2150.07 1.04128 -2.10225 0
M  V30 23193 C 2151.08 1.39367 -1.04178 0
M  V30 23194 O 2152.26 1.48605 -1.35936 0
M  V30 23195 C 2149.32 2.32208 -2.5745 0
M  V30 23196 C 2148.39 2.03512 -3.77996 0
M  V30 23197 C 2147.62 3.25486 -4.22959 0
M  V30 23198 O 2147.84 4.36301 -3.6742 0
M  V30 23199 O 2146.78 3.1095 -5.15358 0
M  V30 23200 H 2150.6 0.623859 -2.97223 0
M  V30 23201 H 2148.19 0.242286 -1.47422 0
M  V30 23202 H 2150.07 3.07498 -2.88137 0
M  V30 23203 H 2148.74 2.73237 -1.73561 0
M  V30 23204 H 2147.65 1.25777 -3.52322 0
M  V30 23205 H 2148.98 1.67337 -4.62882 0
M  V30 23206 N 2150.64 1.54769 0.297388 0
M  V30 23207 C 2151.88 1.7343 1.0298 0
M  V30 23208 C 2152.2 0.529189 1.88305 0
M  V30 23209 O 2153.4 0.597687 2.64839 0
M  V30 23210 C 2151.86 3.06854 1.88065 0
M  V30 23211 C 2151.47 4.34856 1.07724 0
M  V30 23212 C 2153.21 3.34873 2.60883 0
M  V30 23213 C 2151.12 5.59329 1.92107 0
M  V30 23214 H 2150.05 0.646388 0.388199 0
M  V30 23215 H 2152.7 1.81248 0.286615 0
M  V30 23216 H 2151.08 2.93011 2.66385 0
M  V30 23217 H 2152.26 4.59544 0.339927 0
M  V30 23218 H 2150.57 4.13799 0.464715 0
M  V30 23219 H 2153.17 4.25071 3.24374 0
M  V30 23220 H 2153.51 2.5391 3.29902 0
M  V30 23221 H 2154.04 3.49704 1.8961 0
M  V30 23222 H 2150.78 6.4297 1.27551 0
M  V30 23223 H 2150.3 5.3882 2.63501 0
M  V30 23224 H 2151.98 5.96721 2.50067 0
M  V30 23225 N 2152.11 -0.560755 1.47286 0
M  V30 23226 C 2153.08 -1.6502 1.59063 0
M  V30 23227 C 2154.08 -1.539 0.465997 0
M  V30 23228 O 2155.27 -1.58122 0.730962 0
M  V30 23229 C 2152.4 -3.04548 1.53177 0
M  V30 23230 H 2153.59 -1.5593 2.56176 0
M  V30 23231 H 2151.14 -0.780391 1.35424 0
M  V30 23232 H 2151.88 -3.19175 0.574264 0
M  V30 23233 H 2151.66 -3.14029 2.34794 0
M  V30 23234 H 2153.15 -3.83814 1.64549 0
M  V30 23235 N 2153.59 -1.35359 -0.807199 0
M  V30 23236 C 2154.52 -1.24083 -1.92707 0
M  V30 23237 C 2155.54 -0.164267 -1.61969 0
M  V30 23238 O 2156.73 -0.417487 -1.73549 0
M  V30 23239 C 2153.83 -0.88785 -3.27063 0
M  V30 23240 C 2153 -2.06266 -3.85711 0
M  V30 23241 C 2152.06 -1.68555 -4.98473 0
M  V30 23242 O 2151.08 -2.40421 -5.15933 0
M  V30 23243 N 2152.29 -0.608828 -5.77298 0
M  V30 23244 H 2155.05 -2.20565 -2.02907 0
M  V30 23245 H 2152.61 -1.2852 -0.984589 0
M  V30 23246 H 2154.6 -0.61707 -3.99968 0
M  V30 23247 H 2153.17 -0.0127324 -3.12597 0
M  V30 23248 H 2152.39 -2.49727 -3.05008 0
M  V30 23249 H 2153.68 -2.84796 -4.21626 0
M  V30 23250 H 2153.08 -0.0117274 -5.65699 0
M  V30 23251 H 2151.64 -0.397827 -6.50585 0
M  V30 23252 N 2155.07 1.02928 -1.19346 0
M  V30 23253 C 2156 2.13099 -0.954528 0
M  V30 23254 C 2156.98 1.69731 0.111965 0
M  V30 23255 O 2158.17 1.94152 -0.0429718 0
M  V30 23256 C 2155.3 3.43798 -0.491955 0
M  V30 23257 C 2154.25 4.00845 -1.50024 0
M  V30 23258 C 2153.58 5.2716 -0.894759 0
M  V30 23259 C 2154.88 4.35699 -2.88035 0
M  V30 23260 H 2156.57 2.33345 -1.87592 0
M  V30 23261 H 2154.12 1.1214 -0.903366 0
M  V30 23262 H 2156.07 4.20243 -0.312095 0
M  V30 23263 H 2154.79 3.23272 0.46503 0
M  V30 23264 H 2153.45 3.26495 -1.66724 0
M  V30 23265 H 2153.1 5.02952 0.0697668 0
M  V30 23266 H 2152.8 5.66291 -1.56805 0
M  V30 23267 H 2154.32 6.06272 -0.725685 0
M  V30 23268 H 2155.74 5.03083 -2.7492 0
M  V30 23269 H 2154.13 4.8591 -3.52152 0
M  V30 23270 H 2155.2 3.45019 -3.4072 0
M  V30 23271 N 2156.55 0.997319 1.2203 0
M  V30 23272 C 2157.49 0.551276 2.2412 0
M  V30 23273 C 2158.46 -0.418681 1.60737 0
M  V30 23274 O 2159.65 -0.322451 1.88056 0
M  V30 23275 C 2156.79 -0.123569 3.44879 0
M  V30 23276 C 2155.9 0.888653 4.22761 0
M  V30 23277 C 2155.04 0.186868 5.30871 0
M  V30 23278 C 2154.08 1.18716 6.00477 0
M  V30 23279 N 2153.21 0.513378 7.00221 0
M  V30 23280 H 2158.05 1.42656 2.61636 0
M  V30 23281 H 2155.59 0.714493 1.28582 0
M  V30 23282 H 2157.55 -0.53179 4.13797 0
M  V30 23283 H 2156.18 -0.962614 3.08113 0
M  V30 23284 H 2155.23 1.41517 3.53096 0
M  V30 23285 H 2156.54 1.65019 4.70712 0
M  V30 23286 H 2155.7 -0.277858 6.06063 0
M  V30 23287 H 2154.44 -0.60714 4.83906 0
M  V30 23288 H 2153.44 1.66247 5.24063 0
M  V30 23289 H 2154.67 1.98212 6.4953 0
M  V30 23290 H 2152.61 -0.261113 6.5548 0
M  V30 23291 H 2152.53 1.21329 7.462 0
M  V30 23292 H 2153.8 0.0716018 7.79467 0
M  V30 23293 N 2158.03 -1.37449 0.771075 0
M  V30 23294 C 2158.96 -2.32874 0.170867 0
M  V30 23295 C 2159.94 -1.55746 -0.683892 0
M  V30 23296 O 2161.12 -1.83987 -0.621492 0
M  V30 23297 C 2158.25 -3.39974 -0.709566 0
M  V30 23298 C 2157.21 -4.27978 0.0438353 0
M  V30 23299 C 2156.53 -5.26084 -0.955998 0
M  V30 23300 C 2157.83 -5.07793 1.22245 0
M  V30 23301 H 2159.53 -2.83319 0.968038 0
M  V30 23302 H 2157.07 -1.36219 0.466952 0
M  V30 23303 H 2159.03 -4.05708 -1.13926 0
M  V30 23304 H 2157.75 -2.88053 -1.53925 0
M  V30 23305 H 2156.41 -3.63774 0.454301 0
M  V30 23306 H 2156.06 -4.70444 -1.78021 0
M  V30 23307 H 2155.76 -5.85824 -0.456445 0
M  V30 23308 H 2157.28 -5.94693 -1.38465 0
M  V30 23309 H 2158.69 -5.66669 0.869436 0
M  V30 23310 H 2157.09 -5.76855 1.65404 0
M  V30 23311 H 2158.16 -4.40506 2.02688 0
M  V30 23312 N 2159.5 -0.52156 -1.4872 0
M  V30 23313 C 2160.75 0.0156187 -2.02794 0
M  V30 23314 C 2161.08 1.34729 -1.39863 0
M  V30 23315 O 2160.36 1.86812 -0.541426 0
M  V30 23316 C 2160.64 0.146526 -3.59802 0
M  V30 23317 C 2160.49 -1.20972 -4.33227 0
M  V30 23318 C 2161.81 0.87737 -4.31266 0
M  V30 23319 H 2158.93 0.00420207 -0.736988 0
M  V30 23320 H 2161.57 -0.676958 -1.77531 0
M  V30 23321 H 2159.72 0.736393 -3.81457 0
M  V30 23322 H 2161.4 -1.84005 -4.23013 0
M  V30 23323 H 2159.64 -1.79378 -3.94976 0
M  V30 23324 H 2160.31 -1.07121 -5.41506 0
M  V30 23325 H 2162.79 0.376892 -4.1439 0
M  V30 23326 H 2161.66 0.937846 -5.40829 0
M  V30 23327 H 2161.92 1.92578 -3.97953 0
M  V30 23328 N 2160.98 1.55502 -0.256304 0
M  V30 23329 C 2162.23 1.99463 0.366354 0
M  V30 23330 C 2162.56 1.14436 1.56902 0
M  V30 23331 O 2161.84 0.209944 1.93364 0
M  V30 23332 C 2162.12 3.51836 0.767016 0
M  V30 23333 C 2161.97 4.47626 -0.441687 0
M  V30 23334 C 2163.29 4.09574 1.61051 0
M  V30 23335 H 2160.41 0.72514 0.131688 0
M  V30 23336 H 2163.05 1.86568 -0.359494 0
M  V30 23337 H 2161.2 3.62956 1.38546 0
M  V30 23338 H 2162.87 4.48475 -1.08018 0
M  V30 23339 H 2161.12 4.2006 -1.08313 0
M  V30 23340 H 2161.79 5.51874 -0.117869 0
M  V30 23341 H 2164.26 4.01614 1.08838 0
M  V30 23342 H 2163.14 5.16436 1.85969 0
M  V30 23343 H 2163.4 3.58619 2.58544 0
M  V30 23344 N 2162.46 -0.0166879 1.57591 0
M  V30 23345 C 2163.41 -1.01343 2.0736 0
M  V30 23346 C 2164.38 -1.35165 0.96538 0
M  V30 23347 O 2165.56 -1.4529 1.23675 0
M  V30 23348 C 2162.7 -2.30545 2.56794 0
M  V30 23349 C 2161.82 -2.02772 3.81454 0
M  V30 23350 C 2160.95 -3.25935 4.19452 0
M  V30 23351 C 2159.99 -2.93773 5.36995 0
M  V30 23352 N 2159.13 -4.09423 5.70366 0
M  V30 23353 H 2163.97 -0.582069 2.9226 0
M  V30 23354 H 2161.5 -0.275773 1.44492 0
M  V30 23355 H 2163.46 -3.06054 2.83526 0
M  V30 23356 H 2162.09 -2.7138 1.74793 0
M  V30 23357 H 2161.14 -1.17706 3.61731 0
M  V30 23358 H 2162.46 -1.75056 4.67073 0
M  V30 23359 H 2161.61 -4.09802 4.47378 0
M  V30 23360 H 2160.35 -3.56776 3.32509 0
M  V30 23361 H 2159.35 -2.0831 5.08809 0
M  V30 23362 H 2160.58 -2.64197 6.25601 0
M  V30 23363 H 2158.52 -4.40192 4.86382 0
M  V30 23364 H 2158.44 -3.85172 6.50521 0
M  V30 23365 H 2159.71 -4.94127 6.02875 0
M  V30 23366 N 2163.94 -1.54924 -0.289176 0
M  V30 23367 C 2164.9 -1.85935 -1.34017 0
M  V30 23368 C 2165.9 -0.732916 -1.43126 0
M  V30 23369 O 2167.09 -1.00116 -1.42556 0
M  V30 23370 C 2164.22 -2.0502 -2.72359 0
M  V30 23371 H 2165.42 -2.79872 -1.07758 0
M  V30 23372 H 2162.97 -1.47168 -0.526442 0
M  V30 23373 H 2163.7 -1.13412 -3.03823 0
M  V30 23374 H 2163.49 -2.8702 -2.67136 0
M  V30 23375 H 2164.98 -2.30342 -3.48328 0
M  V30 23376 N 2165.42 0.552936 -1.47582 0
M  V30 23377 C 2166.35 1.66928 -1.6327 0
M  V30 23378 C 2167.33 1.63127 -0.482035 0
M  V30 23379 O 2168.51 1.80682 -0.71188 0
M  V30 23380 C 2165.64 3.0556 -1.65076 0
M  V30 23381 C 2164.6 3.2421 -2.79413 0
M  V30 23382 C 2163.92 4.63672 -2.66294 0
M  V30 23383 C 2165.22 3.09176 -4.20961 0
M  V30 23384 H 2166.92 1.54055 -2.56725 0
M  V30 23385 H 2164.46 0.739709 -1.23549 0
M  V30 23386 H 2166.42 3.83508 -1.74642 0
M  V30 23387 H 2165.14 3.19403 -0.681852 0
M  V30 23388 H 2163.8 2.48673 -2.69365 0
M  V30 23389 H 2163.45 4.7432 -1.67422 0
M  V30 23390 H 2163.15 4.77099 -3.43002 0
M  V30 23391 H 2164.67 5.43749 -2.77795 0
M  V30 23392 H 2166.08 3.76936 -4.31963 0
M  V30 23393 H 2164.48 3.3411 -4.98488 0
M  V30 23394 H 2165.55 2.05869 -4.39028 0
M  V30 23395 N 2166.89 1.35785 0.800009 0
M  V30 23396 C 2168.31 1.26354 1.37446 0
M  V30 23397 C 2168.66 -0.101241 1.95939 0
M  V30 23398 O 2167.78 -1.00241 1.91783 0
M  V30 23399 C 2168.38 2.28793 2.49878 0
M  V30 23400 C 2166.94 2.23083 3.03168 0
M  V30 23401 C 2166.08 2.14145 1.76174 0
M  V30 23402 H 2169.03 1.46818 0.602508 0
M  V30 23403 H 2169.05 1.91822 3.2861 0
M  V30 23404 H 2168.57 3.28113 2.07277 0
M  V30 23405 H 2166.67 1.27195 3.50217 0
M  V30 23406 H 2166.78 3.15326 3.60703 0
M  V30 23407 H 2165.14 1.60228 1.97987 0
M  V30 23408 H 2165.93 3.15335 1.35715 0
M  V30 23409 N 2168.37 -1.02294 1.19891 0
M  V30 23410 C 2169.62 -1.75443 1.0032 0
M  V30 23411 C 2169.94 -1.89338 -0.466488 0
M  V30 23412 O 2169.21 -1.43128 -1.33758 0
M  V30 23413 H 2167.79 -0.649949 0.368205 0
M  V30 23414 H 2170.45 -1.23363 1.50889 0
M  V30 23415 H 2169.55 -2.76044 1.45623 0
M  V30 23416 N 2169.85 -1.00378 -1.21499 0
M  V30 23417 C 2171.1 -0.684425 -1.90158 0
M  V30 23418 C 2171.42 0.787132 -1.78407 0
M  V30 23419 O 2170.69 1.5651 -1.17819 0
M  V30 23420 H 2169.27 -0.250163 -0.703866 0
M  V30 23421 H 2171.93 -1.27262 -1.47615 0
M  V30 23422 H 2171.03 -0.956513 -2.97081 0
M  V30 23423 N 2171.33 1.37038 -0.778354 0
M  V30 23424 C 2172.26 2.3278 -0.183215 0
M  V30 23425 C 2173.24 1.56107 0.675623 0
M  V30 23426 O 2174.42 1.84314 0.611726 0
M  V30 23427 C 2171.55 3.40346 0.691526 0
M  V30 23428 C 2170.51 4.27948 -0.0665313 0
M  V30 23429 C 2169.83 5.26584 0.928085 0
M  V30 23430 C 2171.13 5.07137 -1.24936 0
M  V30 23431 H 2172.83 2.82801 -0.983049 0
M  V30 23432 H 2170.37 1.35969 -0.474169 0
M  V30 23433 H 2172.33 4.06306 1.11773 0
M  V30 23434 H 2171.05 2.88866 1.52395 0
M  V30 23435 H 2169.71 3.63528 -0.473586 0
M  V30 23436 H 2169.36 4.71381 1.75524 0
M  V30 23437 H 2169.06 5.86058 0.425371 0
M  V30 23438 H 2170.58 5.95419 1.35309 0
M  V30 23439 H 2172 5.662 -0.899476 0
M  V30 23440 H 2170.39 5.7597 -1.68461 0
M  V30 23441 H 2171.46 4.39425 -2.05021 0
M  V30 23442 N 2172.81 0.529439 1.48441 0
M  V30 23443 C 2174.08 -0.0692247 1.95477 0
M  V30 23444 C 2174.46 -1.51345 1.47166 0
M  V30 23445 O 2173.81 -2.1758 0.697925 0
M  V30 23446 C 2174.02 0.0474683 3.48968 0
M  V30 23447 C 2175.37 -0.112074 4.24452 0
M  V30 23448 O 2176.39 -0.0263527 3.5619 0
M  V30 23449 O 2175.25 -0.291683 5.45721 0
M  V30 23450 H 2172.35 -0.079598 0.82316 0
M  V30 23451 H 2174.89 0.593999 1.58965 0
M  V30 23452 H 2173.67 1.05353 3.76851 0
M  V30 23453 H 2173.29 -0.65463 3.92174 0
M  V30 23454 N 2174.29 -1.55364 0.264547 0
M  V30 23455 C 2175.25 -2.20814 -0.614312 0
M  V30 23456 C 2176.25 -1.18274 -1.0894 0
M  V30 23457 O 2177.44 -1.43246 -0.991274 0
M  V30 23458 C 2174.57 -2.86572 -1.84632 0
M  V30 23459 H 2175.76 -2.99869 -0.0430102 0
M  V30 23460 H 2173.32 -1.56293 0.0150952 0
M  V30 23461 H 2174.05 -2.11501 -2.45841 0
M  V30 23462 H 2173.84 -3.61704 -1.51369 0
M  V30 23463 H 2175.33 -3.36608 -2.47153 0
M  V30 23464 N 2175.76 0.00833021 -1.57598 0
M  V30 23465 C 2177.01 0.69406 -1.89382 0
M  V30 23466 C 2177.33 1.75397 -0.865751 0
M  V30 23467 O 2178.53 2.49374 -1.07353 0
M  V30 23468 C 2176.99 1.28562 -3.36154 0
M  V30 23469 C 2176.6 0.260972 -4.47239 0
M  V30 23470 C 2178.34 1.95003 -3.7706 0
M  V30 23471 C 2176.25 0.862051 -5.85083 0
M  V30 23472 H 2175.18 0.262992 -0.706648 0
M  V30 23473 H 2177.83 -0.0508492 -1.8343 0
M  V30 23474 H 2176.21 2.08092 -3.36918 0
M  V30 23475 H 2177.38 -0.50913 -4.57979 0
M  V30 23476 H 2175.7 -0.302516 -4.153 0
M  V30 23477 H 2178.3 2.40863 -4.77377 0
M  V30 23478 H 2178.64 2.77706 -3.10137 0
M  V30 23479 H 2179.17 1.22218 -3.7856 0
M  V30 23480 H 2175.91 0.0739761 -6.55458 0
M  V30 23481 H 2175.43 1.60151 -5.78024 0
M  V30 23482 H 2177.11 1.3632 -6.32476 0
M  V30 23483 N 2177.24 1.55075 0.280956 0
M  V30 23484 C 2178.49 1.74513 1.01135 0
M  V30 23485 C 2178.8 0.549131 1.87734 0
M  V30 23486 O 2180.01 0.625743 2.64191 0
M  V30 23487 C 2178.47 3.08832 1.848 0
M  V30 23488 C 2178.07 4.35974 1.03106 0
M  V30 23489 C 2179.82 3.37621 2.57317 0
M  V30 23490 C 2177.72 5.61335 1.86163 0
M  V30 23491 H 2176.65 0.650469 0.381321 0
M  V30 23492 H 2179.31 1.81542 0.267376 0
M  V30 23493 H 2177.69 2.9582 2.63262 0
M  V30 23494 H 2178.86 4.59879 0.291167 0
M  V30 23495 H 2177.18 4.14268 0.4208 0
M  V30 23496 H 2179.77 4.28488 3.19847 0
M  V30 23497 H 2180.12 2.57395 3.27191 0
M  V30 23498 H 2180.65 3.51695 1.8589 0
M  V30 23499 H 2177.39 6.44287 1.20725 0
M  V30 23500 H 2176.91 5.41585 2.57771 0
M  V30 23501 H 2178.59 5.99339 2.43724 0
M  V30 23502 N 2178.72 -0.545102 1.47873 0
M  V30 23503 C 2179.95 -1.32682 1.58755 0
M  V30 23504 C 2180.36 -1.8724 0.242172 0
M  V30 23505 O 2179.72 -1.65628 -0.766386 0
M  V30 23506 C 2179.77 -2.48828 2.62234 0
M  V30 23507 O 2179.49 -1.96522 3.91549 0
M  V30 23508 C 2180.99 -3.40869 2.83414 0
M  V30 23509 H 2178.21 -0.404033 0.535722 0
M  V30 23510 H 2180.76 -0.659132 1.93586 0
M  V30 23511 H 2178.91 -3.11511 2.30303 0
M  V30 23512 H 2179.33 -2.72436 4.48195 0
M  V30 23513 H 2180.8 -4.18751 3.59655 0
M  V30 23514 H 2181.28 -3.95166 1.91679 0
M  V30 23515 H 2181.88 -2.83991 3.1659 0
M  V30 23516 N 2180.2 -1.36208 -0.792797 0
M  V30 23517 C 2181.11 -1.32403 -1.93666 0
M  V30 23518 C 2182.12 -0.226736 -1.72516 0
M  V30 23519 O 2183.3 -0.458518 -1.96111 0
M  V30 23520 C 2180.36 -1.10928 -3.28475 0
M  V30 23521 C 2179.43 -2.301 -3.62426 0
M  V30 23522 C 2178.66 -2.0964 -4.90802 0
M  V30 23523 O 2178.88 -1.06985 -5.60277 0
M  V30 23524 O 2177.82 -2.97336 -5.23331 0
M  V30 23525 H 2181.64 -2.287 -1.99825 0
M  V30 23526 H 2179.23 -1.1672 -0.932566 0
M  V30 23527 H 2181.11 -1.00855 -4.09153 0
M  V30 23528 H 2179.78 -0.17691 -3.23216 0
M  V30 23529 H 2178.69 -2.45741 -2.82068 0
M  V30 23530 H 2180.02 -3.21832 -3.72405 0
M  V30 23531 N 2181.68 1.01656 -1.20431 0
M  V30 23532 C 2182.92 1.74909 -1.01249 0
M  V30 23533 C 2183.24 1.89583 0.456441 0
M  V30 23534 O 2182.51 1.43836 1.32997 0
M  V30 23535 H 2181.09 0.647988 -0.371646 0
M  V30 23536 H 2183.76 1.22561 -1.51542 0
M  V30 23537 H 2182.85 2.75268 -1.47085 0
M  V30 23538 N 2183.15 1.01021 1.20965 0
M  V30 23539 C 2184.4 0.6945 1.89792 0
M  V30 23540 C 2184.72 -0.77766 1.78822 0
M  V30 23541 O 2183.99 -1.55883 1.18648 0
M  V30 23542 H 2182.57 0.253892 0.702529 0
M  V30 23543 H 2185.23 1.28043 1.46938 0
M  V30 23544 H 2184.33 0.972254 2.9657 0
M  V30 23545 N 2184.63 -1.36623 0.78561 0
M  V30 23546 C 2185.54 -2.33889 0.182448 0
M  V30 23547 C 2186.56 -1.60858 -0.66338 0
M  V30 23548 O 2187.73 -1.92866 -0.580058 0
M  V30 23549 C 2184.8 -3.40052 -0.675704 0
M  V30 23550 C 2183.86 -4.28887 0.188182 0
M  V30 23551 C 2183.09 -5.29979 -0.629108 0
M  V30 23552 O 2183.32 -5.39037 -1.86534 0
M  V30 23553 O 2182.25 -6.01892 -0.0310062 0
M  V30 23554 H 2186.08 -2.87229 0.986556 0
M  V30 23555 H 2183.66 -1.39026 0.547001 0
M  V30 23556 H 2185.54 -4.04971 -1.16518 0
M  V30 23557 H 2184.22 -2.89017 -1.45777 0
M  V30 23558 H 2183.12 -3.67021 0.724325 0
M  V30 23559 H 2184.46 -4.83263 0.933665 0
M  V30 23560 N 2186.11 -0.537304 -1.48158 0
M  V30 23561 C 2187.06 0.234747 -2.31412 0
M  V30 23562 C 2188.05 0.928487 -1.41688 0
M  V30 23563 O 2189.26 0.852038 -1.58557 0
M  V30 23564 H 2185.63 0.0945724 -0.74603 0
M  V30 23565 H 2187.6 -0.486905 -2.94401 0
M  V30 23566 C 2186.35 1.26413 -3.23906 0
M  V30 23567 H 2185.68 0.739721 -3.92897 0
M  V30 23568 H 2187.12 1.7756 -3.8503 0
M  V30 23569 C 2185.57 2.3016 -2.46024 0
M  V30 23570 O 2186.1 3.36731 -2.19032 0
M  V30 23571 N 2184.31 2.03565 -2.07388 0
M  V30 23572 H 2183.86 1.16915 -2.2954 0
M  V30 23573 H 2183.82 2.73201 -1.55592 0
M  V30 23574 N 2187.59 1.55221 -0.272782 0
M  V30 23575 C 2188.84 1.99545 0.344667 0
M  V30 23576 C 2189.16 1.16117 1.56036 0
M  V30 23577 O 2188.42 0.218255 1.94479 0
M  V30 23578 C 2188.72 3.48938 0.773111 0
M  V30 23579 C 2188.38 4.49634 -0.337684 0
M  V30 23580 C 2187.05 4.76889 -0.642695 0
M  V30 23581 C 2189.4 5.09754 -1.0863 0
M  V30 23582 C 2186.73 5.61533 -1.69994 0
M  V30 23583 C 2189.08 5.95546 -2.13325 0
M  V30 23584 C 2187.74 6.21123 -2.44463 0
M  V30 23585 H 2187.01 0.730188 0.126123 0
M  V30 23586 H 2189.66 1.87569 -0.386008 0
M  V30 23587 H 2187.96 3.58378 1.58342 0
M  V30 23588 H 2189.66 3.80639 1.26156 0
M  V30 23589 H 2186.25 4.28506 -0.0898333 0
M  V30 23590 H 2190.43 4.88723 -0.863909 0
M  V30 23591 H 2185.69 5.79596 -1.94623 0
M  V30 23592 H 2189.86 6.41166 -2.71807 0
M  V30 23593 H 2187.49 6.86504 -3.26521 0
M  V30 23594 N 2189.07 2.77022e-05 1.576 0
M  V30 23595 C 2190.29 -0.699433 1.9525 0
M  V30 23596 C 2190.72 -1.66511 0.874964 0
M  V30 23597 O 2190.07 -1.8053 -0.166897 0
M  V30 23598 C 2190.12 -1.4075 3.31996 0
M  V30 23599 O 2189.23 -2.52192 3.26302 0
M  V30 23600 H 2188.57 -0.18604 0.637405 0
M  V30 23601 H 2191.1 0.053226 2.04531 0
M  V30 23602 H 2191.11 -1.77092 3.67563 0
M  V30 23603 H 2189.78 -0.699458 4.09976 0
M  V30 23604 H 2188.36 -2.18177 3.02412 0
M  V30 23605 N 2190.54 -1.55222 -0.272728 0
M  V30 23606 C 2191.48 -1.84532 -1.35943 0
M  V30 23607 C 2192.49 -0.729843 -1.45524 0
M  V30 23608 O 2193.68 -1.0077 -1.47335 0
M  V30 23609 C 2190.78 -1.99352 -2.74066 0
M  V30 23610 C 2189.95 -3.30012 -2.87073 0
M  V30 23611 C 2189.01 -3.34893 -4.05873 0
M  V30 23612 O 2188.04 -4.08268 -3.96618 0
M  V30 23613 N 2189.24 -2.62316 -5.17852 0
M  V30 23614 H 2192 -2.78329 -1.11144 0
M  V30 23615 H 2189.56 -1.55143 -0.462842 0
M  V30 23616 H 2191.56 -1.99987 -3.51834 0
M  V30 23617 H 2190.13 -1.1242 -2.91686 0
M  V30 23618 H 2189.35 -3.41913 -1.96187 0
M  V30 23619 H 2190.63 -4.16182 -2.92694 0
M  V30 23620 H 2190.03 -2.02386 -5.28258 0
M  V30 23621 H 2188.59 -2.68674 -5.9385 0
M  V30 23622 N 2192.02 0.537252 -1.4816 0
M  V30 23623 C 2193.27 1.29091 -1.55499 0
M  V30 23624 C 2193.59 1.93669 -0.227488 0
M  V30 23625 O 2192.86 1.8096 0.750354 0
M  V30 23626 H 2191.44 0.47944 -0.572841 0
M  V30 23627 H 2194.1 0.625785 -1.8458 0
M  V30 23628 H 2193.2 2.07401 -2.33219 0
M  V30 23629 N 2193.5 1.36626 0.785562 0
M  V30 23630 C 2194.43 1.27134 1.90708 0
M  V30 23631 C 2195.45 0.190014 1.61687 0
M  V30 23632 O 2196.63 0.445045 1.72863 0
M  V30 23633 C 2193.73 0.93977 3.25609 0
M  V30 23634 C 2192.91 2.12376 3.82381 0
M  V30 23635 C 2191.97 1.76464 4.95729 0
M  V30 23636 O 2190.99 2.48598 5.12043 0
M  V30 23637 N 2192.19 0.700594 5.76257 0
M  V30 23638 H 2194.96 2.23765 1.99372 0
M  V30 23639 H 2192.52 1.3007 0.964018 0
M  V30 23640 H 2194.51 0.680624 3.98936 0
M  V30 23641 H 2193.08 0.0624623 3.12538 0
M  V30 23642 H 2192.3 2.54548 3.00997 0
M  V30 23643 H 2193.59 2.91468 4.17042 0
M  V30 23644 H 2192.99 0.101724 5.65609 0
M  V30 23645 H 2191.55 0.501279 6.4987 0
M  V30 23646 N 2194.98 -1.01016 1.20969 0
M  V30 23647 C 2196.39 -1.27051 0.965927 0
M  V30 23648 C 2196.59 -1.98424 -0.35075 0
M  V30 23649 O 2195.65 -2.28346 -1.07769 0
M  V30 23650 C 2196.96 -2.09922 2.15298 0
M  V30 23651 C 2198.51 -2.23167 2.19467 0
M  V30 23652 C 2198.99 -3.09418 3.37675 0
M  V30 23653 N 2200.48 -3.17006 3.3773 0
M  V30 23654 C 2201.21 -3.83986 4.25843 0
M  V30 23655 N 2200.71 -4.53037 5.24146 0
M  V30 23656 N 2202.5 -3.80574 4.13666 0
M  V30 23657 H 2194.65 -0.531158 2.05651 0
M  V30 23658 H 2196.92 -0.29709 0.900245 0
M  V30 23659 H 2196.62 -1.64823 3.10687 0
M  V30 23660 H 2196.5 -3.10668 2.13928 0
M  V30 23661 H 2198.88 -2.67488 1.24636 0
M  V30 23662 H 2198.96 -1.21908 2.24882 0
M  V30 23663 H 2198.61 -2.65801 4.32796 0
M  V30 23664 H 2198.54 -4.10778 3.29498 0
M  V30 23665 H 2201.03 -2.67845 2.66585 0
M  V30 23666 H 2201.34 -5.01834 5.87693 0
M  V30 23667 H 2199.69 -4.51841 5.28076 0
M  V30 23668 H 2202.88 -3.25779 3.36133 0
M  V30 23669 H 2203.05 -4.32497 4.82546 0
M  V30 23670 N 2196.46 -1.01661 -1.20428 0
M  V30 23671 C 2197.39 -0.545027 -2.22625 0
M  V30 23672 C 2198.4 0.372581 -1.58479 0
M  V30 23673 O 2199.59 0.170927 -1.7768 0
M  V30 23674 C 2196.69 0.22657 -3.38142 0
M  V30 23675 C 2195.86 -0.692952 -4.31876 0
M  V30 23676 C 2194.92 0.0310691 -5.26191 0
M  V30 23677 O 2193.95 -0.591442 -5.66119 0
M  V30 23678 N 2195.15 1.30591 -5.6562 0
M  V30 23679 H 2197.92 -1.42392 -2.63713 0
M  V30 23680 H 2195.48 -0.89414 -1.34969 0
M  V30 23681 H 2197.47 0.72017 -3.98241 0
M  V30 23682 H 2196.04 1.00676 -2.95944 0
M  V30 23683 H 2195.26 -1.36686 -3.69744 0
M  V30 23684 H 2196.55 -1.31833 -4.91424 0
M  V30 23685 H 2195.94 1.8326 -5.35194 0
M  V30 23686 H 2194.5 1.74424 -6.28028 0
M  V30 23687 N 2197.93 1.36205 -0.792844 0
M  V30 23688 C 2198.86 2.32573 -0.207894 0
M  V30 23689 C 2199.85 1.56815 0.659028 0
M  V30 23690 O 2201.03 1.84952 0.592143 0
M  V30 23691 C 2198.16 3.4106 0.655389 0
M  V30 23692 C 2197.11 4.27854 -0.111917 0
M  V30 23693 C 2196.44 5.27539 0.872181 0
M  V30 23694 C 2197.74 5.05784 -1.30308 0
M  V30 23695 H 2199.43 2.81743 -1.01299 0
M  V30 23696 H 2196.98 1.35459 -0.488564 0
M  V30 23697 H 2198.93 4.07469 1.07457 0
M  V30 23698 H 2197.66 2.90466 1.49323 0
M  V30 23699 H 2196.32 3.63005 -0.512116 0
M  V30 23700 H 2195.96 4.73217 1.70514 0
M  V30 23701 H 2195.66 5.86477 0.363188 0
M  V30 23702 H 2197.19 5.96821 1.28986 0
M  V30 23703 H 2198.6 5.65214 -0.959478 0
M  V30 23704 H 2197 5.7415 -1.7456 0
M  V30 23705 H 2198.07 4.37226 -2.0967 0
M  V30 23706 N 2199.41 0.545154 1.47871 0
M  V30 23707 C 2200.66 0.0166214 2.02493 0
M  V30 23708 C 2200.99 -1.32834 1.42076 0
M  V30 23709 O 2200.24 -1.87472 0.561492 0
M  V30 23710 C 2200.54 -0.138607 3.57131 0
M  V30 23711 C 2200.21 1.13392 4.36409 0
M  V30 23712 C 2198.87 1.48264 4.5779 0
M  V30 23713 C 2201.22 1.97772 4.82219 0
M  V30 23714 C 2198.55 2.67385 5.22228 0
M  V30 23715 C 2200.9 3.16086 5.47971 0
M  V30 23716 C 2199.57 3.51285 5.67587 0
M  V30 23717 H 2198.84 0.0060822 0.740975 0
M  V30 23718 H 2201.48 0.714238 1.77682 0
M  V30 23719 H 2199.79 -0.919105 3.80867 0
M  V30 23720 H 2201.48 -0.562712 3.97032 0
M  V30 23721 H 2198.07 0.852371 4.20039 0
M  V30 23722 H 2202.26 1.72141 4.6549 0
M  V30 23723 H 2197.51 2.94841 5.35611 0
M  V30 23724 H 2201.69 3.81765 5.82433 0
M  V30 23725 H 2199.32 4.43686 6.1729 0
M  V30 23726 N 2200.89 -1.55074 0.28101 0
M  V30 23727 C 2202.13 -2.01633 -0.335198 0
M  V30 23728 C 2202.49 -1.16511 -1.52608 0
M  V30 23729 O 2203.7 -1.52676 -2.21232 0
M  V30 23730 C 2201.97 -3.50436 -0.70211 0
M  V30 23731 S 2203.53 -4.18976 -1.30402 0
M  V30 23732 H 2200.34 -0.703359 -0.103955 0
M  V30 23733 H 2202.95 -1.91275 0.40422 0
M  V30 23734 H 2201.65 -4.10034 0.173402 0
M  V30 23735 H 2201.18 -3.64789 -1.47284 0
M  V30 23736 H 2203.2 -4.23091 -2.59245 0
M  V30 23737 N 2202.37 -0.00838561 -1.57598 0
M  V30 23738 C 2203.3 0.979076 -2.11982 0
M  V30 23739 C 2204.28 1.35299 -1.03093 0
M  V30 23740 O 2205.47 1.43526 -1.3082 0
M  V30 23741 C 2202.6 2.26824 -2.62999 0
M  V30 23742 C 2201.55 2.03569 -3.76488 0
M  V30 23743 C 2200.88 3.38571 -4.13852 0
M  V30 23744 C 2202.18 1.39152 -5.03422 0
M  V30 23745 H 2203.87 0.52623 -2.94739 0
M  V30 23746 H 2201.42 0.251679 -1.41784 0
M  V30 23747 H 2203.37 2.96266 -2.99674 0
M  V30 23748 H 2202.09 2.74237 -1.77374 0
M  V30 23749 H 2200.75 1.36551 -3.4022 0
M  V30 23750 H 2200.4 3.83704 -3.25239 0
M  V30 23751 H 2200.1 3.23825 -4.90317 0
M  V30 23752 H 2201.62 4.09315 -4.53093 0
M  V30 23753 H 2203.04 1.98563 -5.37815 0
M  V30 23754 H 2201.43 1.34868 -5.84748 0
M  V30 23755 H 2202.5 0.361783 -4.83548 0
M  V30 23756 N 2203.85 1.55365 0.264492 0
M  V30 23757 C 2204.81 1.88044 1.31042 0
M  V30 23758 C 2205.81 0.755594 1.41942 0
M  V30 23759 O 2207 1.02372 1.40946 0
M  V30 23760 C 2204.13 2.09327 2.69063 0
M  V30 23761 H 2205.33 2.81551 1.03292 0
M  V30 23762 H 2202.88 1.47986 0.502963 0
M  V30 23763 H 2203.61 1.18231 3.0198 0
M  V30 23764 H 2203.4 2.91234 2.62536 0
M  V30 23765 H 2204.89 2.35854 3.44619 0
M  V30 23766 N 2205.33 -0.529387 1.48443 0
M  V30 23767 C 2206.74 -0.85798 1.34577 0
M  V30 23768 C 2206.94 -1.98308 0.357235 0
M  V30 23769 O 2206 -2.51528 -0.221335 0
M  V30 23770 C 2207.31 -1.22495 2.74619 0
M  V30 23771 C 2208.86 -1.33479 2.83112 0
M  V30 23772 C 2209.33 -1.73519 4.23858 0
M  V30 23773 N 2210.82 -1.8062 4.26533 0
M  V30 23774 C 2211.56 -2.12987 5.32376 0
M  V30 23775 N 2211.06 -2.43774 6.48495 0
M  V30 23776 N 2212.85 -2.13998 5.1977 0
M  V30 23777 H 2205 0.212962 2.1133 0
M  V30 23778 H 2207.26 0.0326365 0.947438 0
M  V30 23779 H 2206.97 -0.471843 3.4852 0
M  V30 23780 H 2206.84 -2.17495 3.08181 0
M  V30 23781 H 2209.23 -2.07866 2.09465 0
M  V30 23782 H 2209.31 -0.365983 2.53168 0
M  V30 23783 H 2208.95 -0.996925 4.9802 0
M  V30 23784 H 2208.88 -2.71451 4.51245 0
M  V30 23785 H 2211.38 -1.59102 3.42775 0
M  V30 23786 H 2211.69 -2.67579 7.24998 0
M  V30 23787 H 2210.03 -2.41293 6.51769 0
M  V30 23788 H 2213.22 -1.89404 4.2807 0
M  V30 23789 H 2213.4 -2.38891 6.02358 0
M  V30 23790 N 2206.8 -1.37041 -0.778305 0
M  V30 23791 C 2207.77 -1.32105 -1.87299 0
M  V30 23792 C 2208.77 -0.226433 -1.59198 0
M  V30 23793 O 2209.96 -0.481891 -1.67402 0
M  V30 23794 C 2207.09 -1.05061 -3.24307 0
M  V30 23795 H 2208.28 -2.29471 -1.93089 0
M  V30 23796 H 2205.83 -1.21975 -0.977337 0
M  V30 23797 H 2206.57 -0.0819943 -3.24196 0
M  V30 23798 H 2206.35 -1.84285 -3.46094 0
M  V30 23799 H 2207.84 -1.04241 -4.04381 0
M  V30 23800 N 2208.28 1.00373 -1.21503 0
M  V30 23801 C 2209.53 1.74169 -1.03302 0
M  V30 23802 C 2209.86 1.89612 0.433293 0
M  V30 23803 O 2209.11 1.42837 1.33777 0
M  V30 23804 C 2209.41 3.15624 -1.67679 0
M  V30 23805 C 2209.08 3.20125 -3.17539 0
M  V30 23806 C 2207.74 3.2106 -3.58432 0
M  V30 23807 C 2210.09 3.17268 -4.1351 0
M  V30 23808 C 2207.42 3.16826 -4.938 0
M  V30 23809 C 2209.77 3.14575 -5.4884 0
M  V30 23810 C 2208.43 3.13821 -5.89129 0
M  V30 23811 H 2207.7 0.63733 -0.378011 0
M  V30 23812 H 2210.35 1.17632 -1.51113 0
M  V30 23813 H 2208.66 3.75402 -1.12165 0
M  V30 23814 H 2210.35 3.71444 -1.51098 0
M  V30 23815 H 2206.94 3.2014 -2.84971 0
M  V30 23816 H 2211.13 3.15704 -3.82942 0
M  V30 23817 H 2206.38 3.14581 -5.2426 0
M  V30 23818 H 2210.56 3.11319 -6.22939 0
M  V30 23819 H 2208.18 3.10294 -6.93989 0
M  V30 23820 N 2209.76 1.02298 1.19887 0
M  V30 23821 C 2211.01 0.717066 1.897 0
M  V30 23822 C 2211.34 -0.751958 1.79051 0
M  V30 23823 O 2210.61 -1.54698 1.17894 0
M  V30 23824 C 2210.9 1.16142 3.40856 0
M  V30 23825 C 2210.75 2.69123 3.60407 0
M  V30 23826 C 2212.07 0.737625 4.33875 0
M  V30 23827 H 2209.19 0.261969 0.68887 0
M  V30 23828 H 2211.83 1.27186 1.41152 0
M  V30 23829 H 2209.98 0.689409 3.82334 0
M  V30 23830 H 2211.65 3.24226 3.28139 0
M  V30 23831 H 2209.89 3.09795 3.0366 0
M  V30 23832 H 2210.57 2.95269 4.66391 0
M  V30 23833 H 2213.04 1.14351 4.00079 0
M  V30 23834 H 2211.92 1.0765 5.3824 0
M  V30 23835 H 2212.18 -0.360359 4.40629 0
M  V30 23836 N 2211.24 -1.35782 0.800057 0
M  V30 23837 C 2212.65 -1.52116 0.483004 0
M  V30 23838 C 2212.85 -1.75111 -0.996917 0
M  V30 23839 O 2211.91 -1.78875 -1.78213 0
M  V30 23840 C 2213.22 -2.70047 1.32269 0
M  V30 23841 C 2214.77 -2.83922 1.31747 0
M  V30 23842 C 2215.25 -4.0487 2.14113 0
M  V30 23843 N 2216.74 -4.12036 2.11615 0
M  V30 23844 C 2217.47 -5.04722 2.72108 0
M  V30 23845 N 2216.97 -6.02783 3.41503 0
M  V30 23846 N 2218.76 -4.97419 2.61785 0
M  V30 23847 H 2210.91 -1.19112 1.75858 0
M  V30 23848 H 2213.17 -0.582239 0.748132 0
M  V30 23849 H 2212.88 -2.59611 2.37265 0
M  V30 23850 H 2212.75 -3.64478 0.971367 0
M  V30 23851 H 2215.14 -2.93812 0.275385 0
M  V30 23852 H 2215.22 -1.90367 1.70862 0
M  V30 23853 H 2214.87 -3.95741 3.18358 0
M  V30 23854 H 2214.8 -4.97593 1.72361 0
M  V30 23855 H 2217.29 -3.41832 1.61118 0
M  V30 23856 H 2217.6 -6.70091 3.84964 0
M  V30 23857 H 2215.95 -6.02977 3.45606 0
M  V30 23858 H 2219.14 -4.19763 2.07164 0
M  V30 23859 H 2219.31 -5.69462 3.0922 0
M  V30 23860 N 2212.72 -0.552988 -1.4758 0
M  V30 23861 C 2213.66 0.197067 -2.29957 0
M  V30 23862 C 2214.63 0.912335 -1.38801 0
M  V30 23863 O 2215.82 0.908859 -1.67763 0
M  V30 23864 C 2212.96 1.22373 -3.22674 0
M  V30 23865 C 2212.07 0.514963 -4.2892 0
M  V30 23866 C 2211.21 1.52655 -5.08792 0
M  V30 23867 C 2210.24 0.802524 -6.06816 0
M  V30 23868 N 2209.38 1.76074 -6.79663 0
M  V30 23869 H 2214.22 -0.511538 -2.93577 0
M  V30 23870 H 2211.76 -0.264093 -1.4471 0
M  V30 23871 H 2213.72 1.83152 -3.74848 0
M  V30 23872 H 2212.35 1.90042 -2.60929 0
M  V30 23873 H 2211.4 -0.207259 -3.79835 0
M  V30 23874 H 2212.71 -0.0524302 -4.98772 0
M  V30 23875 H 2211.86 2.20799 -5.65095 0
M  V30 23876 H 2210.6 2.12786 -4.38832 0
M  V30 23877 H 2209.61 0.107141 -5.49696 0
M  V30 23878 H 2210.83 0.207016 -6.78784 0
M  V30 23879 H 2208.78 2.35071 -6.12436 0
M  V30 23880 H 2208.7 1.24539 -7.45672 0
M  V30 23881 H 2209.96 2.43346 -7.40542 0
M  V30 23882 N 2214.19 1.54923 -0.28923 0
M  V30 23883 C 2215.42 2.04309 0.326427 0
M  V30 23884 C 2215.84 1.16703 1.48411 0
M  V30 23885 O 2215.19 0.190119 1.81507 0
M  V30 23886 C 2215.24 3.52674 0.793952 0
M  V30 23887 O 2214.97 4.36947 -0.317641 0
M  V30 23888 C 2216.47 4.18007 1.47598 0
M  V30 23889 H 2213.69 0.667059 0.0726155 0
M  V30 23890 H 2216.23 2.00026 -0.425436 0
M  V30 23891 H 2214.39 3.57355 1.49587 0
M  V30 23892 H 2214.8 5.24481 0.0442264 0
M  V30 23893 H 2216.27 5.23379 1.75438 0
M  V30 23894 H 2216.75 3.67029 2.41218 0
M  V30 23895 H 2217.36 4.17368 0.817547 0
M  V30 23896 N 2215.67 0.0167433 1.57591 0
M  V30 23897 C 2216.9 -0.678685 1.95981 0
M  V30 23898 C 2217.32 -1.65574 0.892575 0
M  V30 23899 O 2216.68 -1.80697 -0.14774 0
M  V30 23900 C 2216.73 -1.37221 3.33471 0
M  V30 23901 O 2215.83 -2.48717 3.28959 0
M  V30 23902 H 2215.17 -0.179269 0.639342 0
M  V30 23903 H 2217.7 0.0749162 2.04463 0
M  V30 23904 H 2217.71 -1.73184 3.6942 0
M  V30 23905 H 2216.39 -0.655935 4.10695 0
M  V30 23906 H 2214.96 -2.14958 3.04709 0
M  V30 23907 N 2217.15 -1.55503 -0.256249 0
M  V30 23908 C 2218.4 -1.761 -0.983455 0
M  V30 23909 C 2218.71 -0.578928 -1.86836 0
M  V30 23910 O 2219.92 -0.667694 -2.63162 0
M  V30 23911 C 2218.37 -3.11733 -1.79863 0
M  V30 23912 C 2217.98 -4.37559 -0.961571 0
M  V30 23913 C 2219.73 -3.41672 -2.51913 0
M  V30 23914 C 2217.63 -5.64226 -1.7721 0
M  V30 23915 H 2216.56 -0.656453 -0.370925 0
M  V30 23916 H 2219.21 -1.81944 -0.23846 0
M  V30 23917 H 2217.6 -2.9997 -2.58522 0
M  V30 23918 H 2218.77 -4.60284 -0.217967 0
M  V30 23919 H 2217.09 -4.14885 -0.35484 0
M  V30 23920 H 2219.68 -4.33522 -3.1299 0
M  V30 23921 H 2220.03 -2.62567 -3.23054 0
M  V30 23922 H 2220.56 -3.54608 -1.80271 0
M  V30 23923 H 2217.3 -6.46126 -1.10459 0
M  V30 23924 H 2216.82 -5.45617 -2.49123 0
M  V30 23925 H 2218.5 -6.03141 -2.34158 0
M  V30 23926 N 2218.63 0.521507 -1.48721 0
M  V30 23927 C 2219.88 1.27687 -1.5717 0
M  V30 23928 C 2220.2 1.92896 -0.249309 0
M  V30 23929 O 2219.46 1.80292 0.761131 0
M  V30 23930 C 2219.76 2.38143 -2.66501 0
M  V30 23931 C 2219.42 1.9053 -4.08667 0
M  V30 23932 C 2218.09 1.77263 -4.4736 0
M  V30 23933 C 2220.44 1.54654 -4.97726 0
M  V30 23934 C 2217.77 1.26468 -5.72907 0
M  V30 23935 C 2220.12 1.05318 -6.23771 0
M  V30 23936 C 2218.78 0.906745 -6.61313 0
M  V30 23937 H 2218.05 0.467238 -0.575125 0
M  V30 23938 H 2220.7 0.581019 -1.82473 0
M  V30 23939 H 2219 3.13432 -2.3509 0
M  V30 23940 H 2220.7 2.96252 -2.70251 0
M  V30 23941 H 2217.29 2.0181 -3.78115 0
M  V30 23942 H 2221.47 1.6376 -4.68504 0
M  V30 23943 H 2216.73 1.13825 -6.00711 0
M  V30 23944 H 2220.9 0.766318 -6.92171 0
M  V30 23945 H 2218.53 0.51095 -7.58481 0
M  V30 23946 N 2220.11 1.37452 0.771027 0
M  V30 23947 C 2221.36 1.32023 1.52489 0
M  V30 23948 C 2221.67 -0.0927004 1.9538 0
M  V30 23949 O 2222.87 -0.269455 2.7016 0
M  V30 23950 C 2221.33 2.31741 2.75362 0
M  V30 23951 C 2220.94 3.78566 2.39566 0
M  V30 23952 C 2222.68 2.35324 3.53303 0
M  V30 23953 C 2220.59 4.70013 3.58945 0
M  V30 23954 H 2219.52 0.490676 0.572498 0
M  V30 23955 H 2222.17 1.62915 0.844445 0
M  V30 23956 H 2220.55 1.93867 3.45299 0
M  V30 23957 H 2221.73 4.2528 1.77408 0
M  V30 23958 H 2220.04 3.77935 1.74798 0
M  V30 23959 H 2222.64 3.0085 4.42033 0
M  V30 23960 H 2222.98 1.36705 3.93214 0
M  V30 23961 H 2223.51 2.71909 2.90363 0
M  V30 23962 H 2220.25 5.69763 3.24115 0
M  V30 23963 H 2219.77 4.28003 4.20207 0
M  V30 23964 H 2221.45 4.87182 4.25749 0
M  V30 23965 N 2221.58 -0.997276 1.22033 0
M  V30 23966 C 2222.52 -2.084 0.929771 0
M  V30 23967 C 2223.5 -1.62114 -0.125653 0
M  V30 23968 O 2224.68 -1.88499 0.00498723 0
M  V30 23969 C 2221.81 -3.36359 0.397548 0
M  V30 23970 C 2220.85 -4.01564 1.43697 0
M  V30 23971 S 2221.69 -4.42979 3.00882 0
M  V30 23972 C 2222.84 -5.74114 2.49286 0
M  V30 23973 H 2223.07 -2.32726 1.85002 0
M  V30 23974 H 2220.61 -1.13115 1.05092 0
M  V30 23975 H 2222.57 -4.10385 0.0970567 0
M  V30 23976 H 2221.23 -3.1007 -0.501517 0
M  V30 23977 H 2220.42 -4.93687 1.01436 0
M  V30 23978 H 2220.02 -3.33844 1.68594 0
M  V30 23979 H 2222.31 -6.50238 1.90254 0
M  V30 23980 H 2223.26 -6.21197 3.39882 0
M  V30 23981 H 2223.66 -5.31305 1.90724 0
M  V30 23982 N 2223.06 -1.02932 -1.19343 0
M  V30 23983 C 2224.34 -0.640674 -1.8481 0
M  V30 23984 C 2224.72 0.880586 -1.91856 0
M  V30 23985 O 2224.07 1.77747 -1.4359 0
M  V30 23986 C 2224.28 -1.30327 -3.23753 0
M  V30 23987 C 2225.63 -1.4268 -3.9991 0
M  V30 23988 O 2226.65 -1.26047 -3.33152 0
M  V30 23989 O 2225.51 -1.69679 -5.19491 0
M  V30 23990 H 2222.6 -0.22274 -0.79644 0
M  V30 23991 H 2225.15 -1.1275 -1.26829 0
M  V30 23992 H 2223.92 -2.34216 -3.13462 0
M  V30 23993 H 2223.54 -0.80433 -3.89379 0
M  V30 23994 N 2224.54 1.35356 -0.807246 0
M  V30 23995 C 2225.45 2.3357 -0.219635 0
M  V30 23996 C 2226.47 1.61893 0.637705 0
M  V30 23997 O 2227.64 1.93764 0.549302 0
M  V30 23998 C 2224.71 3.41084 0.62152 0
M  V30 23999 C 2223.77 4.28534 -0.25639 0
M  V30 24000 C 2223 5.30913 0.544713 0
M  V30 24001 O 2223.22 5.41937 1.77935 0
M  V30 24002 O 2222.16 6.01865 -0.0647536 0
M  V30 24003 H 2225.98 2.85624 -1.03213 0
M  V30 24004 H 2223.57 1.38138 -0.569049 0
M  V30 24005 H 2225.45 4.06774 1.1006 0
M  V30 24006 H 2224.13 2.913 1.4116 0
M  V30 24007 H 2223.03 3.65822 -0.782623 0
M  V30 24008 H 2224.37 4.81717 -1.01043 0
M  V30 24009 N 2226.02 0.560807 1.47284 0
M  V30 24010 C 2226.98 -0.174448 2.28535 0
M  V30 24011 C 2227.98 -0.839364 1.37154 0
M  V30 24012 O 2229.17 -0.694673 1.5975 0
M  V30 24013 C 2226.3 -1.25555 3.16936 0
M  V30 24014 H 2227.5 0.539313 2.95011 0
M  V30 24015 H 2225.05 0.317892 1.53033 0
M  V30 24016 H 2225.78 -2.0016 2.5516 0
M  V30 24017 H 2225.57 -0.783537 3.84192 0
M  V30 24018 H 2227.06 -1.77186 3.78146 0
M  V30 24019 N 2227.5 -1.54768 0.297442 0
M  V30 24020 C 2228.72 -2.04479 -0.315587 0
M  V30 24021 C 2229.14 -1.17489 -1.4779 0
M  V30 24022 O 2228.5 -0.199742 -1.81404 0
M  V30 24023 C 2228.55 -3.5309 -0.775238 0
M  V30 24024 O 2228.27 -4.36772 0.340808 0
M  V30 24025 C 2229.77 -4.18784 -1.45379 0
M  V30 24026 H 2226.99 -0.667435 -0.0690769 0
M  V30 24027 H 2229.53 -1.99797 0.436038 0
M  V30 24028 H 2227.69 -3.58143 -1.47689 0
M  V30 24029 H 2228.1 -5.24497 -0.0164113 0
M  V30 24030 H 2229.58 -5.24302 -1.7266 0
M  V30 24031 H 2230.05 -3.68303 -2.39268 0
M  V30 24032 H 2230.66 -4.17796 -0.795401 0
M  V30 24033 N 2228.97 -0.0251005 -1.5758 0
M  V30 24034 C 2229.94 0.943102 -2.08898 0
M  V30 24035 C 2230.94 1.25666 -1.00323 0
M  V30 24036 O 2232.13 1.19767 -1.26498 0
M  V30 24037 C 2229.26 2.26081 -2.55147 0
M  V30 24038 H 2230.45 0.498723 -2.95724 0
M  V30 24039 H 2228.01 0.22286 -1.54703 0
M  V30 24040 H 2228.74 2.75156 -1.71638 0
M  V30 24041 H 2228.53 2.04636 -3.34465 0
M  V30 24042 H 2230.02 2.95487 -2.95089 0
M  V30 24043 N 2230.45 1.55637 0.247999 0
M  V30 24044 C 2231.68 1.8181 0.997996 0
M  V30 24045 C 2232.1 0.60201 1.78206 0
M  V30 24046 O 2231.46 -0.44893 1.75654 0
M  V30 24047 C 2231.51 3.05708 1.91245 0
M  V30 24048 O 2230.61 2.82547 3.00401 0
M  V30 24049 H 2229.95 0.600184 0.284035 0
M  V30 24050 H 2232.48 2.0282 0.269321 0
M  V30 24051 H 2232.49 3.35112 2.32731 0
M  V30 24052 H 2231.17 3.93859 1.33595 0
M  V30 24053 H 2229.75 2.64307 2.63051 0
M  V30 24054 N 2231.93 -0.513613 1.48996 0
M  V30 24055 C 2233.18 -1.26507 1.57095 0
M  V30 24056 C 2233.49 -1.93903 0.257126 0
M  V30 24057 O 2234.7 -2.70635 0.216526 0
M  V30 24058 C 2233.16 -2.29633 2.77122 0
M  V30 24059 C 2232.76 -1.68234 4.15212 0
M  V30 24060 C 2234.51 -3.05686 2.94544 0
M  V30 24061 C 2232.41 -2.69396 5.26478 0
M  V30 24062 H 2231.34 -0.475843 0.584884 0
M  V30 24063 H 2234 -0.540456 1.75361 0
M  V30 24064 H 2232.38 -3.05202 2.52324 0
M  V30 24065 H 2233.55 -0.987426 4.50096 0
M  V30 24066 H 2231.87 -1.04616 4.03044 0
M  V30 24067 H 2234.46 -3.81313 3.74839 0
M  V30 24068 H 2234.81 -3.62541 2.04621 0
M  V30 24069 H 2235.34 -2.37232 3.19321 0
M  V30 24070 H 2232.08 -2.1734 6.1842 0
M  V30 24071 H 2231.6 -3.37166 4.96064 0
M  V30 24072 H 2233.28 -3.32069 5.55283 0
M  V30 24073 N 2233.41 -1.37859 -0.763727 0
M  V30 24074 C 2234.69 -1.24037 -1.51242 0
M  V30 24075 C 2235.07 0.162612 -2.10473 0
M  V30 24076 O 2234.41 1.17109 -1.96208 0
M  V30 24077 C 2234.62 -2.34266 -2.5869 0
M  V30 24078 C 2235.97 -2.72199 -3.25873 0
M  V30 24079 O 2237 -2.33502 -2.68989 0
M  V30 24080 O 2235.86 -3.38894 -4.28734 0
M  V30 24081 H 2232.95 -0.484474 -0.670234 0
M  V30 24082 H 2235.5 -1.4966 -0.800005 0
M  V30 24083 H 2234.27 -3.28184 -2.13099 0
M  V30 24084 H 2233.89 -2.10152 -3.37523 0
M  V30 24085 N 2234.89 0.990791 -1.22561 0
M  V30 24086 C 2235.82 2.07904 -0.94081 0
M  V30 24087 C 2236.8 1.62178 0.117054 0
M  V30 24088 O 2237.98 1.88494 -0.0149837 0
M  V30 24089 C 2235.11 3.36143 -0.41538 0
M  V30 24090 C 2234.16 4.00796 -1.45825 0
M  V30 24091 S 2234.99 4.41377 -3.03227 0
M  V30 24092 C 2236.14 5.72784 -2.52327 0
M  V30 24093 H 2236.38 2.31742 -1.86234 0
M  V30 24094 H 2233.91 1.12556 -1.0569 0
M  V30 24095 H 2235.87 4.10328 -0.118819 0
M  V30 24096 H 2234.53 3.10332 0.485066 0
M  V30 24097 H 2233.72 4.93142 -1.04053 0
M  V30 24098 H 2233.32 3.32946 -1.70362 0
M  V30 24099 H 2235.62 6.4922 -1.937 0
M  V30 24100 H 2236.56 6.19386 -3.43172 0
M  V30 24101 H 2236.97 5.30286 -1.93539 0
M  V30 24102 N 2236.37 1.03564 1.18795 0
M  V30 24103 C 2237.33 0.626808 2.20463 0
M  V30 24104 C 2238.33 -0.313146 1.57721 0
M  V30 24105 O 2239.52 -0.099231 1.73917 0
M  V30 24106 C 2236.65 -0.0817899 3.40802 0
M  V30 24107 H 2237.84 1.52645 2.58147 0
M  V30 24108 H 2235.4 0.827601 1.32591 0
M  V30 24109 H 2236.13 -0.995464 3.08644 0
M  V30 24110 H 2235.92 0.59372 3.87579 0
M  V30 24111 H 2237.41 -0.35451 4.16093 0
M  V30 24112 N 2237.84 -1.34926 0.814413 0
M  V30 24113 C 2239.07 -2.02773 0.411172 0
M  V30 24114 C 2239.49 -1.61356 -0.980288 0
M  V30 24115 O 2238.84 -0.814876 -1.63297 0
M  V30 24116 C 2238.89 -3.5811 0.493928 0
M  V30 24117 O 2238.62 -3.98024 1.83054 0
M  V30 24118 C 2240.12 -4.43219 0.0844953 0
M  V30 24119 H 2237.34 -0.65013 0.166048 0
M  V30 24120 H 2239.88 -1.72382 1.10021 0
M  V30 24121 H 2238.04 -3.87121 -0.146938 0
M  V30 24122 H 2238.45 -4.9269 1.7988 0
M  V30 24123 H 2239.92 -5.51661 0.193501 0
M  V30 24124 H 2240.4 -4.28331 -0.971054 0
M  V30 24125 H 2241.01 -4.19519 0.698824 0
M  V30 24126 N 2239.32 -0.56861 -1.46985 0
M  V30 24127 C 2240.23 0.175509 -2.33943 0
M  V30 24128 C 2241.25 0.900383 -1.48893 0
M  V30 24129 O 2242.42 0.866728 -1.81796 0
M  V30 24130 C 2239.49 1.18518 -3.25813 0
M  V30 24131 C 2238.55 0.466507 -4.26758 0
M  V30 24132 C 2237.78 1.42808 -5.14239 0
M  V30 24133 O 2238.01 2.6637 -5.04384 0
M  V30 24134 O 2236.94 0.946349 -5.94414 0
M  V30 24135 H 2240.77 -0.538089 -2.98895 0
M  V30 24136 H 2238.35 -0.329122 -1.4573 0
M  V30 24137 H 2240.23 1.76773 -3.8253 0
M  V30 24138 H 2238.91 1.8805 -2.63475 0
M  V30 24139 H 2237.81 -0.157517 -3.73768 0
M  V30 24140 H 2239.15 -0.187571 -4.91842 0
M  V30 24141 N 2240.8 1.54608 -0.305646 0
M  V30 24142 C 2241.75 2.25147 0.584079 0
M  V30 24143 C 2242.74 1.25913 1.13324 0
M  V30 24144 O 2243.95 1.43749 1.08334 0
M  V30 24145 H 2240.32 0.722957 0.206971 0
M  V30 24146 H 2242.29 2.98381 -0.0333435 0
M  V30 24147 C 2241.04 3.00904 1.74219 0
M  V30 24148 H 2240.37 3.7707 1.32885 0
M  V30 24149 H 2241.81 3.53535 2.34071 0
M  V30 24150 C 2240.26 2.08144 2.6491 0
M  V30 24151 O 2240.79 1.65252 3.66135 0
M  V30 24152 N 2239 1.74004 2.32747 0
M  V30 24153 H 2238.55 2.09081 1.50476 0
M  V30 24154 H 2238.51 1.12216 2.93692 0
M  V30 24155 N 2242.28 0.033457 1.57564 0
M  V30 24156 C 2243.53 -0.643605 1.91156 0
M  V30 24157 C 2243.84 -1.7304 0.91195 0
M  V30 24158 O 2245.05 -2.4644 1.13927 0
M  V30 24159 C 2243.5 -1.19604 3.39445 0
M  V30 24160 C 2243.11 -0.142303 4.47774 0
M  V30 24161 C 2244.85 -1.84937 3.82098 0
M  V30 24162 C 2242.76 -0.706624 5.87163 0
M  V30 24163 H 2241.69 -0.244164 0.713372 0
M  V30 24164 H 2244.34 0.0994645 1.8323 0
M  V30 24165 H 2242.72 -1.99086 3.42317 0
M  V30 24166 H 2243.9 0.630376 4.56468 0
M  V30 24167 H 2242.21 0.412519 4.14352 0
M  V30 24168 H 2244.81 -2.28122 4.83595 0
M  V30 24169 H 2245.15 -2.69386 3.17391 0
M  V30 24170 H 2245.69 -1.12138 3.81667 0
M  V30 24171 H 2242.42 0.099833 6.55424 0
M  V30 24172 H 2241.94 -1.44769 5.82067 0
M  V30 24173 H 2243.62 -1.19503 6.35868 0
M  V30 24174 N 2243.76 -1.55766 -0.239741 0
M  V30 24175 C 2244.69 -1.93932 -1.30049 0
M  V30 24176 C 2245.67 -0.805158 -1.49837 0
M  V30 24177 O 2246.85 -1.06602 -1.62326 0
M  V30 24178 C 2243.98 -2.24024 -2.65387 0
M  V30 24179 C 2242.94 -3.3976 -2.60283 0
M  V30 24180 C 2242.26 -3.55412 -3.99483 0
M  V30 24181 C 2243.56 -4.7525 -2.16645 0
M  V30 24182 H 2245.26 -2.82785 -0.983523 0
M  V30 24183 H 2242.8 -1.36056 -0.471677 0
M  V30 24184 H 2244.75 -2.49314 -3.39736 0
M  V30 24185 H 2243.48 -1.32006 -2.98734 0
M  V30 24186 H 2242.14 -3.1449 -1.88392 0
M  V30 24187 H 2241.79 -2.608 -4.30107 0
M  V30 24188 H 2241.49 -4.33245 -3.96954 0
M  V30 24189 H 2243.01 -3.8303 -4.75521 0
M  V30 24190 H 2244.42 -4.99864 -2.80729 0
M  V30 24191 H 2242.82 -5.56236 -2.25213 0
M  V30 24192 H 2243.89 -4.71829 -1.11827 0
M  V30 24193 N 2245.23 0.505704 -1.49266 0
M  V30 24194 C 2246.17 1.62434 -1.61702 0
M  V30 24195 C 2247.18 1.54933 -0.499952 0
M  V30 24196 O 2248.37 1.60951 -0.771813 0
M  V30 24197 C 2245.47 3.01204 -1.55335 0
M  V30 24198 C 2244.64 3.33938 -2.82496 0
M  V30 24199 C 2243.7 4.52098 -2.69246 0
M  V30 24200 O 2242.73 4.54114 -3.43175 0
M  V30 24201 N 2243.93 5.51732 -1.80477 0
M  V30 24202 H 2246.69 1.52195 -2.5818 0
M  V30 24203 H 2244.25 0.693485 -1.46296 0
M  V30 24204 H 2246.25 3.78164 -1.44132 0
M  V30 24205 H 2244.82 3.05394 -0.66735 0
M  V30 24206 H 2244.04 2.45921 -3.08085 0
M  V30 24207 H 2245.32 3.52604 -3.66808 0
M  V30 24208 H 2244.72 5.52899 -1.19662 0
M  V30 24209 H 2243.28 6.27812 -1.75199 0
M  V30 24210 N 2246.71 1.38262 0.756405 0
M  V30 24211 C 2247.66 1.35264 1.87009 0
M  V30 24212 C 2248.63 0.215645 1.64694 0
M  V30 24213 O 2249.81 0.407432 1.86399 0
M  V30 24214 C 2246.95 1.18073 3.24273 0
M  V30 24215 C 2246.07 2.41136 3.58438 0
M  V30 24216 C 2245.2 2.16697 4.8499 0
M  V30 24217 C 2244.24 3.35546 5.11933 0
M  V30 24218 N 2243.38 3.10561 6.2968 0
M  V30 24219 H 2248.22 2.30475 1.88906 0
M  V30 24220 H 2245.76 1.1451 0.923353 0
M  V30 24221 H 2247.71 1.06123 4.03477 0
M  V30 24222 H 2246.34 0.26503 3.2171 0
M  V30 24223 H 2245.4 2.63769 2.74099 0
M  V30 24224 H 2246.71 3.29724 3.74278 0
M  V30 24225 H 2245.86 2.01867 5.72132 0
M  V30 24226 H 2244.6 1.25471 4.71284 0
M  V30 24227 H 2243.61 3.50898 4.23262 0
M  V30 24228 H 2244.83 4.27645 5.27539 0
M  V30 24229 H 2242.78 2.21978 6.17302 0
M  V30 24230 H 2242.69 3.92697 6.46007 0
M  V30 24231 H 2243.96 2.99379 7.19717 0
M  V30 24232 N 2248.19 -0.984277 1.23084 0
M  V30 24233 C 2249.44 -1.72759 1.06217 0
M  V30 24234 C 2249.77 -1.90024 -0.40055 0
M  V30 24235 O 2249.04 -1.44969 -1.2967 0
M  V30 24236 C 2249.33 -3.12814 1.7838 0
M  V30 24237 C 2249.18 -3.03143 3.32301 0
M  V30 24238 C 2250.5 -4.12159 1.54316 0
M  V30 24239 H 2247.62 -0.627054 0.387262 0
M  V30 24240 H 2250.26 -1.14614 1.51538 0
M  V30 24241 H 2248.41 -3.62454 1.39854 0
M  V30 24242 H 2250.08 -2.61057 3.80325 0
M  V30 24243 H 2248.33 -2.39741 3.61534 0
M  V30 24244 H 2249 -4.02289 3.77979 0
M  V30 24245 H 2251.47 -3.7131 1.87797 0
M  V30 24246 H 2250.35 -5.08254 2.0729 0
M  V30 24247 H 2250.61 -4.39512 0.477649 0
M  V30 24248 N 2249.67 -1.04192 -1.18244 0
M  V30 24249 C 2250.91 -0.747155 -1.88535 0
M  V30 24250 C 2251.25 0.723377 -1.80225 0
M  V30 24251 O 2250.52 1.52802 -1.2034 0
M  V30 24252 C 2250.81 -1.2155 -3.38965 0
M  V30 24253 C 2250.66 -2.74823 -3.56079 0
M  V30 24254 C 2251.98 -0.806558 -4.32646 0
M  V30 24255 H 2249.1 -0.272895 -0.684615 0
M  V30 24256 H 2251.74 -1.29415 -1.3911 0
M  V30 24257 H 2249.89 -0.750148 -3.81189 0
M  V30 24258 H 2251.56 -3.29405 -3.2294 0
M  V30 24259 H 2249.8 -3.14587 -2.98693 0
M  V30 24260 H 2250.47 -3.02652 -4.61634 0
M  V30 24261 H 2252.95 -1.20702 -3.98209 0
M  V30 24262 H 2251.83 -1.16199 -5.3646 0
M  V30 24263 H 2252.09 0.290213 -4.41146 0
M  V30 24264 N 2251.15 1.34492 -0.821557 0
M  V30 24265 C 2252.08 2.27426 -0.187744 0
M  V30 24266 C 2253.06 1.48822 0.655044 0
M  V30 24267 O 2254.24 1.78044 0.61908 0
M  V30 24268 C 2251.37 3.30563 0.737937 0
M  V30 24269 C 2250.41 4.26491 -0.0271463 0
M  V30 24270 S 2251.25 5.17589 -1.37338 0
M  V30 24271 C 2252.4 6.24262 -0.452537 0
M  V30 24272 H 2252.64 2.80835 -0.975647 0
M  V30 24273 H 2250.17 1.41519 -0.617385 0
M  V30 24274 H 2252.13 3.90475 1.26647 0
M  V30 24275 H 2250.79 2.76004 1.49935 0
M  V30 24276 H 2249.98 4.99439 0.676513 0
M  V30 24277 H 2249.58 3.70826 -0.486185 0
M  V30 24278 H 2251.88 6.76562 0.356438 0
M  V30 24279 H 2252.82 6.98672 -1.15165 0
M  V30 24280 H 2253.23 5.64485 -0.0415747 0
M  V30 24281 N 2252.62 0.576397 1.46681 0
M  V30 24282 C 2253.85 0.0649999 2.06798 0
M  V30 24283 C 2254.27 -1.23721 1.42614 0
M  V30 24284 O 2253.62 -1.74658 0.529234 0
M  V30 24285 C 2253.68 -0.114138 3.6132 0
M  V30 24286 O 2253.4 1.13652 4.23102 0
M  V30 24287 C 2254.9 -0.660613 4.3835 0
M  V30 24288 H 2252.12 0.0545733 0.668777 0
M  V30 24289 H 2254.66 0.79527 1.88403 0
M  V30 24290 H 2252.82 -0.794606 3.79163 0
M  V30 24291 H 2253.23 0.946343 5.15892 0
M  V30 24292 H 2254.7 -0.735164 5.47083 0
M  V30 24293 H 2255.18 -1.6762 4.05956 0
M  V30 24294 H 2255.79 -0.0152203 4.25297 0
M  V30 24295 N 2254.1 -1.54444 0.313841 0
M  V30 24296 C 2255.07 -2.22657 -0.543751 0
M  V30 24297 C 2256.07 -1.2168 -1.05122 0
M  V30 24298 O 2257.26 -1.46327 -0.945199 0
M  V30 24299 C 2254.39 -2.92301 -1.75422 0
M  V30 24300 H 2255.58 -2.99854 0.0524126 0
M  V30 24301 H 2253.13 -1.56166 0.0648109 0
M  V30 24302 H 2253.87 -2.19216 -2.38987 0
M  V30 24303 H 2253.65 -3.66337 -1.39785 0
M  V30 24304 H 2255.14 -3.44301 -2.36319 0
M  V30 24305 N 2255.58 -0.0418125 -1.57545 0
M  V30 24306 C 2256.83 0.634048 -1.92318 0
M  V30 24307 C 2257.16 1.714 -0.919364 0
M  V30 24308 O 2256.41 1.95576 0.0697909 0
M  V30 24309 C 2256.71 1.27729 -3.33796 0
M  V30 24310 C 2256.38 0.326464 -4.49717 0
M  V30 24311 C 2255.04 0.0647968 -4.81156 0
M  V30 24312 C 2257.39 -0.325714 -5.20181 0
M  V30 24313 C 2254.72 -0.856641 -5.80412 0
M  V30 24314 C 2257.07 -1.23529 -6.20422 0
M  V30 24315 C 2255.73 -1.50572 -6.50296 0
M  V30 24316 H 2255 0.232015 -0.70374 0
M  V30 24317 H 2257.65 -0.106293 -1.91205 0
M  V30 24318 H 2255.96 2.09268 -3.31231 0
M  V30 24319 H 2257.65 1.80701 -3.57978 0
M  V30 24320 H 2254.24 0.54059 -4.25177 0
M  V30 24321 H 2258.43 -0.136634 -4.96112 0
M  V30 24322 H 2253.68 -1.07373 -6.01898 0
M  V30 24323 H 2257.86 -1.74676 -6.74138 0
M  V30 24324 H 2255.48 -2.22136 -7.27021 0
M  V30 24325 N 2257.06 1.55891 0.231477 0
M  V30 24326 C 2258.02 1.90781 1.27024 0
M  V30 24327 C 2259.02 0.785531 1.40307 0
M  V30 24328 O 2260.21 1.05338 1.38742 0
M  V30 24329 C 2257.34 2.14988 2.64562 0
M  V30 24330 H 2258.54 2.83678 0.972968 0
M  V30 24331 H 2256.09 1.4902 0.47146 0
M  V30 24332 H 2256.82 1.2461 2.99404 0
M  V30 24333 H 2256.61 2.96737 2.563 0
M  V30 24334 H 2258.1 2.43111 3.39539 0
M  V30 24335 N 2258.54 -0.497781 1.49532 0
M  V30 24336 C 2259.81 -1.25912 1.49685 0
M  V30 24337 C 2260.19 -2.09883 0.226376 0
M  V30 24338 O 2259.54 -2.14367 -0.791152 0
M  V30 24339 C 2259.75 -2.11308 2.77759 0
M  V30 24340 C 2261.1 -2.70389 3.27376 0
M  V30 24341 O 2262.12 -2.21573 2.78898 0
M  V30 24342 O 2260.98 -3.59265 4.11814 0
M  V30 24343 H 2258.08 -0.56995 0.599238 0
M  V30 24344 H 2260.62 -0.511788 1.61799 0
M  V30 24345 H 2259.39 -1.49257 3.61715 0
M  V30 24346 H 2259.02 -2.93228 2.6852 0
M  V30 24347 N 2260.01 -1.38661 -0.749062 0
M  V30 24348 C 2261.43 -1.19957 -1.05273 0
M  V30 24349 C 2261.63 -0.0513754 -2.01434 0
M  V30 24350 O 2260.69 0.601427 -2.45233 0
M  V30 24351 C 2262 -2.52786 -1.62848 0
M  V30 24352 C 2263.55 -2.59509 -1.74998 0
M  V30 24353 C 2264.02 -3.92525 -2.35984 0
M  V30 24354 N 2265.51 -3.94089 -2.43409 0
M  V30 24355 C 2266.25 -4.93775 -2.91502 0
M  V30 24356 N 2265.74 -6.03859 -3.39597 0
M  V30 24357 N 2267.54 -4.81163 -2.90584 0
M  V30 24358 H 2259.69 -2.1211 -0.111028 0
M  V30 24359 H 2261.95 -0.941374 -0.111884 0
M  V30 24360 H 2261.66 -3.37285 -0.996581 0
M  V30 24361 H 2261.53 -2.71505 -2.61849 0
M  V30 24362 H 2263.92 -1.75403 -2.37314 0
M  V30 24363 H 2264 -2.44653 -0.746887 0
M  V30 24364 H 2263.64 -4.77056 -1.743 0
M  V30 24365 H 2263.57 -4.04694 -3.36943 0
M  V30 24366 H 2266.06 -3.1458 -2.09399 0
M  V30 24367 H 2266.38 -6.75849 -3.74763 0
M  V30 24368 H 2264.72 -6.07472 -3.37642 0
M  V30 24369 H 2267.91 -3.94271 -2.52325 0
M  V30 24370 H 2268.09 -5.59002 -3.27752 0
M  V30 24371 N 2261.49 0.977736 -1.23605 0
M  V30 24372 C 2262.72 1.75456 -1.09649 0
M  V30 24373 C 2263.14 1.85493 0.351826 0
M  V30 24374 O 2262.49 1.33602 1.24325 0
M  V30 24375 C 2262.54 3.18013 -1.71901 0
M  V30 24376 O 2262.27 3.08493 -3.11069 0
M  V30 24377 C 2263.77 4.12078 -1.63422 0
M  V30 24378 H 2260.99 0.550538 -0.383599 0
M  V30 24379 H 2263.53 1.22821 -1.63509 0
M  V30 24380 H 2261.69 3.67666 -1.22067 0
M  V30 24381 H 2262.1 3.98254 -3.41312 0
M  V30 24382 H 2263.57 5.098 -2.11678 0
M  V30 24383 H 2264.05 4.35171 -0.593538 0
M  V30 24384 H 2264.66 3.6833 -2.12634 0
M  V30 24385 N 2262.97 1.04818 1.1769 0
M  V30 24386 C 2264.22 0.757143 1.88136 0
M  V30 24387 C 2264.55 -0.713809 1.80606 0
M  V30 24388 O 2263.83 -1.52162 1.21149 0
M  V30 24389 C 2264.11 1.23346 3.38316 0
M  V30 24390 C 2263.96 2.76707 3.54617 0
M  V30 24391 C 2265.28 0.829491 4.32212 0
M  V30 24392 H 2262.4 0.276522 0.683158 0
M  V30 24393 H 2265.04 1.30151 1.38422 0
M  V30 24394 H 2263.19 0.770352 3.80786 0
M  V30 24395 H 2264.86 3.31113 3.21188 0
M  V30 24396 H 2263.11 3.16167 2.9702 0
M  V30 24397 H 2263.78 3.05096 4.60022 0
M  V30 24398 H 2266.25 1.22812 3.97563 0
M  V30 24399 H 2265.13 1.19043 5.35836 0
M  V30 24400 H 2265.39 -0.266814 4.41294 0
M  V30 24401 N 2264.45 -1.34055 0.828678 0
M  V30 24402 C 2265.7 -1.98401 0.420115 0
M  V30 24403 C 2266.03 -1.65527 -1.01561 0
M  V30 24404 O 2265.3 -0.929861 -1.70833 0
M  V30 24405 C 2265.59 -3.54558 0.629333 0
M  V30 24406 C 2265.44 -3.97155 2.11159 0
M  V30 24407 C 2266.76 -4.40046 0.0689529 0
M  V30 24408 H 2263.88 -0.720706 0.154117 0
M  V30 24409 H 2266.52 -1.58858 1.04231 0
M  V30 24410 H 2264.67 -3.88372 0.09971 0
M  V30 24411 H 2266.34 -3.73647 2.70529 0
M  V30 24412 H 2264.58 -3.47257 2.59991 0
M  V30 24413 H 2265.26 -5.05883 2.20877 0
M  V30 24414 H 2267.73 -4.12819 0.52153 0
M  V30 24415 H 2266.61 -5.48352 0.245102 0
M  V30 24416 H 2266.87 -4.30017 -1.02653 0
M  V30 24417 N 2265.93 -0.584167 -1.46374 0
M  V30 24418 C 2267.16 -0.075966 -2.0676 0
M  V30 24419 C 2267.57 1.22962 -1.43268 0
M  V30 24420 O 2266.93 1.74375 -0.538489 0
M  V30 24421 C 2266.98 0.0949749 -3.61375 0
M  V30 24422 O 2266.7 -1.15894 -4.22493 0
M  V30 24423 C 2268.2 0.637357 -4.38694 0
M  V30 24424 H 2265.42 -0.0581192 -0.668478 0
M  V30 24425 H 2267.96 -0.805251 -1.87979 0
M  V30 24426 H 2266.12 0.774487 -3.79579 0
M  V30 24427 H 2266.53 -0.973689 -5.15383 0
M  V30 24428 H 2268.01 0.70614 -5.47465 0
M  V30 24429 H 2268.48 1.65465 -4.06839 0
M  V30 24430 H 2269.09 -0.00733443 -4.25299 0
M  V30 24431 N 2267.41 1.54275 -0.322027 0
M  V30 24432 C 2268.65 1.9972 0.281896 0
M  V30 24433 C 2268.97 1.214 1.53367 0
M  V30 24434 O 2270.17 1.57215 2.2135 0
M  V30 24435 C 2268.63 3.55629 0.552837 0
M  V30 24436 C 2268.24 4.42782 -0.681799 0
M  V30 24437 C 2269.98 4.09546 1.1168 0
M  V30 24438 C 2267.89 5.9016 -0.382846 0
M  V30 24439 H 2266.82 0.746064 0.109111 0
M  V30 24440 H 2269.47 1.78294 -0.434011 0
M  V30 24441 H 2267.85 3.73037 1.32889 0
M  V30 24442 H 2269.03 4.37149 -1.45731 0
M  V30 24443 H 2267.34 3.99746 -1.16587 0
M  V30 24444 H 2269.94 5.17245 1.35506 0
M  V30 24445 H 2270.28 3.61435 2.06569 0
M  V30 24446 H 2270.81 3.95764 0.401963 0
M  V30 24447 H 2267.55 6.42462 -1.30087 0
M  V30 24448 H 2267.07 5.98749 0.354989 0
M  V30 24449 H 2268.75 6.47 0.00788784 0
M  V30 24450 N 2268.88 0.0501669 1.5752 0
M  V30 24451 C 2269.85 -0.909749 2.10372 0
M  V30 24452 C 2270.85 -1.24054 1.0231 0
M  V30 24453 O 2272.04 -1.17739 1.28387 0
M  V30 24454 C 2269.17 -2.21994 2.58712 0
M  V30 24455 H 2270.36 -0.451613 2.9648 0
M  V30 24456 H 2267.91 -0.19822 1.55038 0
M  V30 24457 H 2268.65 -2.72391 1.75994 0
M  V30 24458 H 2268.43 -1.99289 3.37678 0
M  V30 24459 H 2269.92 -2.90755 2.99752 0
M  V30 24460 N 2270.36 -1.56011 -0.223207 0
M  V30 24461 C 2271.31 -1.88676 -1.28005 0
M  V30 24462 C 2272.3 -0.749688 -1.42367 0
M  V30 24463 O 2273.49 -1.01207 -1.4521 0
M  V30 24464 C 2270.62 -2.20553 -2.63081 0
M  V30 24465 C 2269.7 -3.40648 -2.52626 0
M  V30 24466 N 2270.09 -4.5931 -2.11821 0
M  V30 24467 C 2268.39 -3.44229 -2.83588 0
M  V30 24468 C 2269.09 -5.41466 -2.12577 0
M  V30 24469 N 2268.07 -4.81136 -2.53001 0
M  V30 24470 H 2271.87 -2.77936 -0.955438 0
M  V30 24471 H 2269.38 -1.56555 -0.431773 0
M  V30 24472 H 2271.38 -2.42128 -3.39381 0
M  V30 24473 H 2270.04 -1.32604 -2.96389 0
M  V30 24474 H 2271.05 -4.84499 -1.82979 0
M  V30 24475 H 2267.73 -2.66619 -3.21279 0
M  V30 24476 H 2269.12 -6.46451 -1.83168 0
M  V30 24477 N 2271.84 0.489844 -1.49794 0
M  V30 24478 C 2273.26 0.821998 -1.36804 0
M  V30 24479 C 2273.46 1.97291 -0.409687 0
M  V30 24480 O 2272.51 2.52026 0.154569 0
M  V30 24481 C 2273.82 1.1517 -2.7777 0
M  V30 24482 C 2275.37 1.25926 -2.86551 0
M  V30 24483 C 2275.85 1.6222 -4.28309 0
M  V30 24484 N 2277.34 1.69248 -4.31172 0
M  V30 24485 C 2278.07 1.98798 -5.37836 0
M  V30 24486 N 2277.57 2.26495 -6.5473 0
M  V30 24487 N 2279.36 2.00142 -5.25261 0
M  V30 24488 H 2271.51 -0.268918 -2.10691 0
M  V30 24489 H 2273.78 -0.0577447 -0.94624 0
M  V30 24490 H 2273.48 0.379273 -3.49649 0
M  V30 24491 H 2273.36 2.09248 -3.13839 0
M  V30 24492 H 2275.74 2.02239 -2.14903 0
M  V30 24493 H 2275.82 0.298731 -2.5405 0
M  V30 24494 H 2275.47 0.864534 -5.00488 0
M  V30 24495 H 2275.4 2.59392 -4.58283 0
M  V30 24496 H 2277.89 1.49958 -3.46873 0
M  V30 24497 H 2278.2 2.48263 -7.31837 0
M  V30 24498 H 2276.55 2.23927 -6.57937 0
M  V30 24499 H 2279.74 1.77988 -4.32941 0
M  V30 24500 H 2279.91 2.22837 -6.0848 0
M  V30 24501 N 2273.32 1.39056 0.741698 0
M  V30 24502 C 2274.56 1.36116 1.50334 0
M  V30 24503 C 2274.9 -0.0450455 1.94148 0
M  V30 24504 O 2274.17 -1.00865 1.66302 0
M  V30 24505 C 2274.45 2.32754 2.74768 0
M  V30 24506 C 2274.31 3.82287 2.37017 0
M  V30 24507 C 2275.63 2.27328 3.76842 0
M  V30 24508 H 2272.75 0.495753 0.545342 0
M  V30 24509 H 2275.39 1.69997 0.848595 0
M  V30 24510 H 2273.54 2.03991 3.30635 0
M  V30 24511 H 2275.21 4.21771 1.86833 0
M  V30 24512 H 2273.45 3.99388 1.69327 0
M  V30 24513 H 2274.12 4.45382 3.26097 0
M  V30 24514 H 2276.6 2.52745 3.30543 0
M  V30 24515 H 2275.48 2.97037 4.61585 0
M  V30 24516 H 2275.74 1.27606 4.23284 0
M  V30 24517 N 2274.8 -0.971167 1.24121 0
M  V30 24518 C 2275.75 -2.05018 0.997587 0
M  V30 24519 C 2276.73 -1.60789 -0.0597464 0
M  V30 24520 O 2277.92 -1.76333 0.153547 0
M  V30 24521 C 2275.05 -3.38005 0.600616 0
M  V30 24522 C 2274.14 -3.88806 1.69384 0
M  V30 24523 N 2274.53 -4.12581 2.92593 0
M  V30 24524 C 2272.83 -4.17432 1.57055 0
M  V30 24525 C 2273.53 -4.54189 3.63439 0
M  V30 24526 N 2272.5 -4.59159 2.90987 0
M  V30 24527 H 2276.3 -2.2137 1.9332 0
M  V30 24528 H 2273.82 -1.15468 1.14196 0
M  V30 24529 H 2275.82 -4.14905 0.407323 0
M  V30 24530 H 2274.48 -3.23041 -0.327846 0
M  V30 24531 H 2275.49 -4.00133 3.28807 0
M  V30 24532 H 2272.16 -4.11421 0.70987 0
M  V30 24533 H 2273.55 -4.81025 4.6911 0
M  V30 24534 N 2276.27 -1.05441 -1.17133 0
M  V30 24535 C 2277.5 -0.786447 -1.9137 0
M  V30 24536 C 2277.92 0.658171 -1.76956 0
M  V30 24537 O 2277.27 1.44985 -1.1084 0
M  V30 24538 C 2277.33 -1.16086 -3.42354 0
M  V30 24539 O 2277.05 -2.54878 -3.56327 0
M  V30 24540 C 2278.55 -0.919399 -4.33661 0
M  V30 24541 H 2275.77 -0.285754 -0.607113 0
M  V30 24542 H 2278.31 -1.40575 -1.48522 0
M  V30 24543 H 2276.47 -0.586258 -3.82938 0
M  V30 24544 H 2276.88 -2.69626 -4.49891 0
M  V30 24545 H 2278.35 -1.23109 -5.38097 0
M  V30 24546 H 2278.83 0.145282 -4.3896 0
M  V30 24547 H 2279.44 -1.47796 -3.98794 0
M  V30 24548 N 2277.75 1.33613 -0.835776 0
M  V30 24549 C 2279 1.97143 -0.426324 0
M  V30 24550 C 2279.31 1.66955 1.01909 0
M  V30 24551 O 2280.52 2.24074 1.53307 0
M  V30 24552 C 2278.98 3.52799 -0.711383 0
M  V30 24553 C 2278.58 3.91867 -2.17127 0
M  V30 24554 C 2280.33 4.22896 -0.368729 0
M  V30 24555 C 2278.24 5.40489 -2.40054 0
M  V30 24556 H 2277.17 0.737753 -0.155683 0
M  V30 24557 H 2279.82 1.52276 -1.02393 0
M  V30 24558 H 2278.2 3.95976 -0.0434462 0
M  V30 24559 H 2279.37 3.59758 -2.87942 0
M  V30 24560 H 2277.69 3.34744 -2.4766 0
M  V30 24561 H 2280.28 5.32188 -0.517694 0
M  V30 24562 H 2280.63 4.10575 0.688006 0
M  V30 24563 H 2281.16 3.85239 -0.99177 0
M  V30 24564 H 2277.9 5.57809 -3.44281 0
M  V30 24565 H 2277.42 5.74069 -1.73795 0
M  V30 24566 H 2279.1 6.07336 -2.23053 0
M  V30 24567 N 2279.23 0.591922 1.46062 0
M  V30 24568 C 2280.16 -0.123632 2.33172 0
M  V30 24569 C 2281.14 -0.874505 1.45899 0
M  V30 24570 O 2282.33 -0.84815 1.747 0
M  V30 24571 C 2279.46 -1.13188 3.28338 0
M  V30 24572 C 2278.41 -0.495249 4.25125 0
M  V30 24573 C 2277.74 -1.61063 5.09866 0
M  V30 24574 C 2279.04 0.573516 5.19142 0
M  V30 24575 H 2280.73 0.603698 2.9325 0
M  V30 24576 H 2278.28 0.291766 1.41013 0
M  V30 24577 H 2280.23 -1.6409 3.8814 0
M  V30 24578 H 2278.95 -1.8896 2.66386 0
M  V30 24579 H 2277.61 -0.00723008 3.66599 0
M  V30 24580 H 2277.26 -2.35824 4.44293 0
M  V30 24581 H 2276.96 -1.19025 5.75419 0
M  V30 24582 H 2278.48 -2.12223 5.72533 0
M  V30 24583 H 2279.9 0.149201 5.73106 0
M  V30 24584 H 2278.3 0.91474 5.93087 0
M  V30 24585 H 2279.37 1.45625 4.62516 0
M  V30 24586 N 2280.71 -1.54102 0.330204 0
M  V30 24587 C 2281.93 -2.05571 -0.274857 0
M  V30 24588 C 2282.36 -1.20439 -1.44485 0
M  V30 24589 O 2281.72 -0.215023 -1.8002 0
M  V30 24590 C 2281.76 -3.54116 -0.680727 0
M  V30 24591 O 2280.87 -3.71896 -1.78234 0
M  V30 24592 H 2280.21 -0.662236 -0.0483732 0
M  V30 24593 H 2282.74 -1.98877 0.480543 0
M  V30 24594 H 2282.75 -3.96507 -0.961565 0
M  V30 24595 H 2281.42 -4.15532 0.174976 0
M  V30 24596 H 2280 -3.4141 -1.49979 0
M  V30 24597 N 2282.19 -0.0585199 -1.57491 0
M  V30 24598 C 2283.15 0.89858 -2.10851 0
M  V30 24599 C 2284.15 1.2351 -1.02966 0
M  V30 24600 O 2285.34 1.17056 -1.29009 0
M  V30 24601 C 2282.47 2.20618 -2.59885 0
M  V30 24602 H 2283.66 0.435883 -2.96715 0
M  V30 24603 H 2281.22 0.189995 -1.55141 0
M  V30 24604 H 2281.95 2.71454 -1.77436 0
M  V30 24605 H 2281.74 1.97495 -3.3873 0
M  V30 24606 H 2283.23 2.89161 -3.0129 0
M  V30 24607 N 2283.66 1.56128 0.21493 0
M  V30 24608 C 2284.94 1.70248 0.963063 0
M  V30 24609 C 2285.32 0.607676 2.02165 0
M  V30 24610 O 2284.67 -0.384345 2.25244 0
M  V30 24611 C 2284.88 3.11818 1.5675 0
M  V30 24612 C 2286.23 3.71434 2.05723 0
M  V30 24613 O 2287.25 3.14821 1.66631 0
M  V30 24614 O 2286.11 4.70748 2.77595 0
M  V30 24615 H 2283.2 0.693651 0.450309 0
M  V30 24616 H 2285.75 1.68443 0.206189 0
M  V30 24617 H 2284.52 3.82962 0.803465 0
M  V30 24618 H 2284.15 3.17769 2.38974 0
M  V30 24619 N 2285.14 -0.481893 1.50052 0
M  V30 24620 C 2286.07 -1.58948 1.71049 0
M  V30 24621 C 2287.05 -1.60641 0.559316 0
M  V30 24622 O 2288.24 -1.7708 0.797274 0
M  V30 24623 C 2285.37 -2.97336 1.79467 0
M  V30 24624 C 2284.32 -3.1051 2.94563 0
M  V30 24625 C 2283.65 -4.50439 2.88113 0
M  V30 24626 C 2284.95 -2.88739 4.35232 0
M  V30 24627 H 2286.64 -1.41631 2.63782 0
M  V30 24628 H 2284.19 -0.67992 1.26937 0
M  V30 24629 H 2286.14 -3.74738 1.92741 0
M  V30 24630 H 2284.87 -3.15786 0.833467 0
M  V30 24631 H 2283.52 -2.35538 2.80923 0
M  V30 24632 H 2283.17 -4.65791 1.89861 0
M  V30 24633 H 2282.87 -4.6019 3.65375 0
M  V30 24634 H 2284.4 -5.29875 3.03421 0
M  V30 24635 H 2285.81 -3.55898 4.49455 0
M  V30 24636 H 2284.21 -3.09946 5.13862 0
M  V30 24637 H 2285.28 -1.84688 4.48351 0
M  V30 24638 N 2286.62 -1.39448 -0.734313 0
M  V30 24639 C 2287.87 -1.36911 -1.4961 0
M  V30 24640 C 2288.2 0.0347488 -1.94169 0
M  V30 24641 O 2287.47 0.999818 -1.66835 0
M  V30 24642 C 2287.76 -2.34208 -2.7353 0
M  V30 24643 C 2287.61 -3.83538 -2.34986 0
M  V30 24644 C 2288.93 -2.29324 -3.75631 0
M  V30 24645 H 2286.05 -0.498638 -0.542705 0
M  V30 24646 H 2288.69 -1.70444 -0.839567 0
M  V30 24647 H 2286.84 -2.05742 -3.29549 0
M  V30 24648 H 2288.51 -4.22756 -1.84593 0
M  V30 24649 H 2286.76 -4.00281 -1.67206 0
M  V30 24650 H 2287.43 -4.47105 -3.2373 0
M  V30 24651 H 2289.9 -2.54495 -3.29198 0
M  V30 24652 H 2288.78 -2.9948 -4.60003 0
M  V30 24653 H 2289.04 -1.29849 -4.22601 0
M  V30 24654 N 2288.1 0.964571 -1.24635 0
M  V30 24655 C 2289.35 1.70228 -1.08191 0
M  V30 24656 C 2289.66 1.91899 0.378696 0
M  V30 24657 O 2290.87 2.63271 0.66338 0
M  V30 24658 C 2289.32 3.06416 -1.88778 0
M  V30 24659 C 2288.93 2.92576 -3.39268 0
M  V30 24660 C 2290.67 3.84038 -1.80874 0
M  V30 24661 C 2288.58 4.24094 -4.12187 0
M  V30 24662 H 2287.51 0.638364 -0.401256 0
M  V30 24663 H 2290.16 1.0746 -1.48744 0
M  V30 24664 H 2288.54 3.70031 -1.41042 0
M  V30 24665 H 2289.72 2.37954 -3.94607 0
M  V30 24666 H 2288.03 2.28418 -3.48158 0
M  V30 24667 H 2290.63 4.81431 -2.32654 0
M  V30 24668 H 2290.97 4.0903 -0.774615 0
M  V30 24669 H 2291.51 3.27155 -2.26307 0
M  V30 24670 H 2288.25 4.04294 -5.15972 0
M  V30 24671 H 2287.77 4.78519 -3.61634 0
M  V30 24672 H 2289.44 4.92695 -4.19358 0
M  V30 24673 N 2289.58 1.0606 1.16572 0
M  V30 24674 C 2290.82 0.777055 1.87322 0
M  V30 24675 C 2291.16 -0.694613 1.81353 0
M  V30 24676 O 2290.43 -1.50869 1.22756 0
M  V30 24677 C 2290.71 1.26928 3.36989 0
M  V30 24678 C 2290.57 2.80453 3.51662 0
M  V30 24679 C 2291.89 0.875286 4.31308 0
M  V30 24680 H 2289 0.283752 0.680187 0
M  V30 24681 H 2291.65 1.31612 1.37034 0
M  V30 24682 H 2289.8 0.810697 3.79947 0
M  V30 24683 H 2291.47 3.34501 3.17658 0
M  V30 24684 H 2289.71 3.19299 2.9365 0
M  V30 24685 H 2290.38 3.09958 4.56761 0
M  V30 24686 H 2292.86 1.27021 3.96238 0
M  V30 24687 H 2291.73 1.24719 5.34543 0
M  V30 24688 H 2292 -0.219994 4.41552 0
M  V30 24689 N 2291.06 -1.33168 0.84285 0
M  V30 24690 C 2291.99 -2.31641 0.294069 0
M  V30 24691 C 2292.97 -1.59153 -0.600373 0
M  V30 24692 O 2294.15 -1.87022 -0.523091 0
M  V30 24693 C 2291.28 -3.43257 -0.528355 0
M  V30 24694 C 2290.24 -4.27143 0.270635 0
M  V30 24695 C 2289.56 -5.30412 -0.675788 0
M  V30 24696 C 2290.86 -5.00599 1.4899 0
M  V30 24697 H 2292.56 -2.77789 1.11686 0
M  V30 24698 H 2290.1 -1.33552 0.538502 0
M  V30 24699 H 2292.05 -4.11176 -0.922602 0
M  V30 24700 H 2290.78 -2.95808 -1.38439 0
M  V30 24701 H 2289.44 -3.60855 0.646491 0
M  V30 24702 H 2289.09 -4.79219 -1.52834 0
M  V30 24703 H 2288.79 -5.8742 -0.145271 0
M  V30 24704 H 2290.31 -6.01197 -1.06746 0
M  V30 24705 H 2291.72 -5.61264 1.16859 0
M  V30 24706 H 2290.12 -5.67276 1.95749 0
M  V30 24707 H 2291.19 -4.29143 2.25753 0
M  V30 24708 N 2292.53 -0.599659 -1.45746 0
M  V30 24709 C 2293.48 0.123808 -2.30468 0
M  V30 24710 C 2294.45 0.867715 -1.41633 0
M  V30 24711 O 2295.64 0.855026 -1.70569 0
M  V30 24712 C 2292.78 1.12046 -3.26404 0
M  V30 24713 C 2291.89 0.378245 -4.30341 0
M  V30 24714 C 2291.02 1.36391 -5.13392 0
M  V30 24715 C 2290.06 0.609064 -6.09062 0
M  V30 24716 N 2289.2 1.54362 -6.84921 0
M  V30 24717 H 2294.04 -0.604678 -2.91801 0
M  V30 24718 H 2291.58 -0.309997 -1.43796 0
M  V30 24719 H 2293.53 1.71134 -3.80485 0
M  V30 24720 H 2292.16 1.81645 -2.66842 0
M  V30 24721 H 2291.22 -0.327996 -3.78983 0
M  V30 24722 H 2292.53 -0.211084 -4.98353 0
M  V30 24723 H 2291.68 2.02709 -5.71834 0
M  V30 24724 H 2290.42 1.98717 -4.45379 0
M  V30 24725 H 2289.43 -0.0677945 -5.49758 0
M  V30 24726 H 2290.65 -0.00903928 -6.79099 0
M  V30 24727 H 2288.6 2.15467 -6.19605 0
M  V30 24728 H 2288.51 1.00753 -7.49256 0
M  V30 24729 H 2289.78 2.19663 -7.47909 0
M  V30 24730 N 2294.01 1.53925 -0.338371 0
M  V30 24731 C 2295.43 1.59594 0.0137455 0
M  V30 24732 C 2295.63 1.35449 1.49183 0
M  V30 24733 O 2294.68 1.1462 2.24985 0
M  V30 24734 C 2296 2.97784 -0.417782 0
M  V30 24735 C 2297.54 3.10809 -0.369688 0
M  V30 24736 C 2298.02 4.51368 -0.776604 0
M  V30 24737 N 2299.51 4.57402 -0.730587 0
M  V30 24738 C 2300.25 5.64301 -1.01746 0
M  V30 24739 N 2299.74 6.79074 -1.37222 0
M  V30 24740 N 2301.53 5.5415 -0.942039 0
M  V30 24741 H 2293.69 1.67874 -1.30123 0
M  V30 24742 H 2295.95 0.785941 -0.530096 0
M  V30 24743 H 2295.65 3.20501 -1.44817 0
M  V30 24744 H 2295.53 3.76617 0.209663 0
M  V30 24745 H 2297.92 2.87818 0.651517 0
M  V30 24746 H 2298 2.34047 -1.03227 0
M  V30 24747 H 2297.64 4.75093 -1.79579 0
M  V30 24748 H 2297.57 5.2652 -0.0915574 0
M  V30 24749 H 2300.06 3.7498 -0.468849 0
M  V30 24750 H 2300.37 7.56557 -1.5761 0
M  V30 24751 H 2298.72 6.80534 -1.41062 0
M  V30 24752 H 2301.91 4.63363 -0.664266 0
M  V30 24753 H 2302.08 6.37369 -1.16896 0
M  V30 24754 N 2295.49 0.0668712 1.57458 0
M  V30 24755 C 2296.74 -0.60218 1.9292 0
M  V30 24756 C 2297.06 -1.70447 0.947245 0
M  V30 24757 O 2296.33 -1.95899 -0.00540674 0
M  V30 24758 H 2294.91 -0.225428 0.712174 0
M  V30 24759 H 2297.57 0.123569 1.94508 0
M  V30 24760 H 2296.67 -1.03067 2.9459 0
M  V30 24761 N 2296.97 -1.56239 -0.206647 0
M  V30 24762 C 2297.93 -1.92778 -1.23973 0
M  V30 24763 C 2298.93 -0.807754 -1.39039 0
M  V30 24764 O 2300.12 -1.07532 -1.37049 0
M  V30 24765 C 2297.25 -2.19169 -2.61108 0
M  V30 24766 H 2298.45 -2.8519 -0.927714 0
M  V30 24767 H 2296 -1.49751 -0.447692 0
M  V30 24768 H 2296.73 -1.29357 -2.97384 0
M  V30 24769 H 2296.52 -3.00777 -2.51547 0
M  V30 24770 H 2298.01 -2.48482 -3.35628 0
M  V30 24771 N 2298.45 0.473929 -1.50305 0
M  V30 24772 C 2299.69 1.22298 -1.60394 0
M  V30 24773 C 2300.01 1.93153 -0.308445 0
M  V30 24774 O 2301.21 2.69966 -0.288204 0
M  V30 24775 C 2299.67 2.22205 -2.83113 0
M  V30 24776 C 2299.28 1.57166 -4.19527 0
M  V30 24777 C 2301.02 2.9777 -3.02545 0
M  V30 24778 C 2298.93 2.55343 -5.33436 0
M  V30 24779 H 2297.86 0.460169 -0.597294 0
M  V30 24780 H 2300.51 0.493772 -1.76732 0
M  V30 24781 H 2298.89 2.98405 -2.60327 0
M  V30 24782 H 2300.07 0.867744 -4.52556 0
M  V30 24783 H 2298.38 0.938931 -4.05676 0
M  V30 24784 H 2300.98 3.71241 -3.84817 0
M  V30 24785 H 2301.32 3.56989 -2.14161 0
M  V30 24786 H 2301.85 2.28683 -3.25498 0
M  V30 24787 H 2298.59 2.00867 -6.23965 0
M  V30 24788 H 2298.11 3.23895 -5.04829 0
M  V30 24789 H 2299.79 3.1723 -5.63892 0
M  V30 24790 N 2299.92 1.39835 0.726907 0
M  V30 24791 C 2300.85 1.41944 1.85403 0
M  V30 24792 C 2301.83 0.281757 1.6775 0
M  V30 24793 O 2303.02 0.48875 1.87949 0
M  V30 24794 C 2300.15 1.27015 3.2324 0
M  V30 24795 C 2299.1 2.38268 3.55545 0
M  V30 24796 C 2298.43 2.08423 4.92406 0
M  V30 24797 C 2299.73 3.80595 3.57693 0
M  V30 24798 H 2301.42 2.36269 1.83895 0
M  V30 24799 H 2298.97 1.13725 0.883329 0
M  V30 24800 H 2300.92 1.2711 4.01772 0
M  V30 24801 H 2299.65 0.291621 3.25295 0
M  V30 24802 H 2298.31 2.37404 2.79347 0
M  V30 24803 H 2297.95 1.08988 4.9105 0
M  V30 24804 H 2297.65 2.82952 5.14987 0
M  V30 24805 H 2299.18 2.10181 5.73285 0
M  V30 24806 H 2300.59 3.83344 4.26286 0
M  V30 24807 H 2298.99 4.5455 3.91796 0
M  V30 24808 H 2300.06 4.10992 2.5732 0
M  V30 24809 N 2301.4 -0.957948 1.25144 0
M  V30 24810 C 2302.31 -2.08792 1.06971 0
M  V30 24811 C 2303.33 -1.73998 0.00776969 0
M  V30 24812 O 2304.5 -2.00323 0.208008 0
M  V30 24813 C 2301.57 -3.39826 0.68697 0
M  V30 24814 C 2300.63 -3.88508 1.82648 0
M  V30 24815 C 2299.86 -5.13287 1.4619 0
M  V30 24816 O 2300.09 -5.69288 0.356071 0
M  V30 24817 O 2299.02 -5.56596 2.29094 0
M  V30 24818 H 2302.85 -2.27024 2.01727 0
M  V30 24819 H 2300.43 -1.07207 1.04053 0
M  V30 24820 H 2302.31 -4.18594 0.485491 0
M  V30 24821 H 2300.99 -3.22872 -0.23136 0
M  V30 24822 H 2299.89 -3.10758 2.08279 0
M  V30 24823 H 2301.23 -4.09954 2.72394 0
M  V30 24824 N 2302.88 -1.06677 -1.16008 0
M  V30 24825 C 2304.13 -0.785814 -1.86631 0
M  V30 24826 C 2304.45 0.687864 -1.8193 0
M  V30 24827 O 2303.71 1.52009 -1.23255 0
M  V30 24828 C 2304.01 -1.23062 -3.35545 0
M  V30 24829 C 2303.67 -2.70908 -3.60444 0
M  V30 24830 C 2302.34 -3.11292 -3.66948 0
M  V30 24831 C 2304.69 -3.66372 -3.70703 0
M  V30 24832 C 2302.02 -4.45972 -3.81217 0
M  V30 24833 C 2304.37 -5.00804 -3.86494 0
M  V30 24834 C 2303.03 -5.4082 -3.91242 0
M  V30 24835 H 2302.3 -0.28755 -0.682932 0
M  V30 24836 H 2304.95 -1.33656 -1.37143 0
M  V30 24837 H 2303.25 -0.599138 -3.87192 0
M  V30 24838 H 2304.95 -0.990231 -3.88581 0
M  V30 24839 H 2301.54 -2.38642 -3.56017 0
M  V30 24840 H 2305.73 -3.36303 -3.64985 0
M  V30 24841 H 2300.98 -4.76454 -3.83147 0
M  V30 24842 H 2305.16 -5.74656 -3.93375 0
M  V30 24843 H 2302.78 -6.45181 -4.02051 0
M  V30 24844 N 2304.36 1.32719 -0.8499 0
M  V30 24845 C 2305.63 1.92021 -0.372439 0
M  V30 24846 C 2306.01 1.77449 1.14346 0
M  V30 24847 O 2305.36 1.16965 1.96294 0
M  V30 24848 C 2305.57 3.38949 -0.831541 0
M  V30 24849 C 2306.92 4.16087 -0.845955 0
M  V30 24850 O 2307.94 3.47647 -0.775867 0
M  V30 24851 O 2306.8 5.38288 -0.943848 0
M  V30 24852 H 2303.9 0.81996 -0.107681 0
M  V30 24853 H 2306.44 1.4152 -0.936485 0
M  V30 24854 H 2305.22 3.43477 -1.87454 0
M  V30 24855 H 2304.84 3.96846 -0.244679 0
M  V30 24856 N 2305.84 0.60738 1.45426 0
M  V30 24857 C 2306.78 -0.111584 2.3053 0
M  V30 24858 C 2307.75 -0.860191 1.42091 0
M  V30 24859 O 2308.94 -0.845968 1.71021 0
M  V30 24860 C 2306.08 -1.10313 3.26994 0
M  V30 24861 C 2305.19 -0.355417 4.30535 0
M  V30 24862 C 2304.33 -1.33667 5.14108 0
M  V30 24863 C 2303.37 -0.576755 6.09377 0
M  V30 24864 N 2302.5 -1.50728 6.8573 0
M  V30 24865 H 2307.34 0.620145 2.91476 0
M  V30 24866 H 2304.88 0.317619 1.4363 0
M  V30 24867 H 2306.84 -1.69114 3.81388 0
M  V30 24868 H 2305.47 -1.80227 2.67802 0
M  V30 24869 H 2304.52 0.348089 3.78804 0
M  V30 24870 H 2305.83 0.23751 4.98234 0
M  V30 24871 H 2304.99 -1.99674 5.72901 0
M  V30 24872 H 2303.72 -1.96353 4.46427 0
M  V30 24873 H 2302.73 0.0969486 5.49715 0
M  V30 24874 H 2303.95 0.0450534 6.79085 0
M  V30 24875 H 2301.9 -2.12179 6.20738 0
M  V30 24876 H 2301.82 -0.967781 7.4978 0
M  V30 24877 H 2303.09 -2.15693 7.49064 0
M  V30 24878 N 2307.31 -1.53743 0.34653 0
M  V30 24879 C 2308.73 -1.86199 -0.136746 0
M  V30 24880 C 2309.08 -1.26768 -1.49747 0
M  V30 24881 O 2308.2 -0.582392 -2.08416 0
M  V30 24882 C 2308.8 -3.3784 -0.254907 0
M  V30 24883 C 2307.36 -3.70162 -0.682417 0
M  V30 24884 C 2306.5 -2.76702 0.182029 0
M  V30 24885 H 2309.45 -1.48263 0.56602 0
M  V30 24886 H 2309.47 -3.64795 -1.08188 0
M  V30 24887 H 2308.99 -3.81065 0.735593 0
M  V30 24888 H 2307.09 -3.32483 -1.68184 0
M  V30 24889 H 2307.2 -4.76787 -0.470242 0
M  V30 24890 H 2305.56 -2.52337 -0.346106 0
M  V30 24891 H 2306.35 -3.22758 1.16972 0
M  V30 24892 N 2308.79 -0.0752207 -1.5742 0
M  V30 24893 C 2309.7 0.905473 -2.16422 0
M  V30 24894 C 2310.72 1.32459 -1.1283 0
M  V30 24895 O 2311.89 1.39659 -1.45112 0
M  V30 24896 C 2308.96 2.15365 -2.71696 0
M  V30 24897 C 2308.02 1.79061 -3.90174 0
M  V30 24898 C 2307.25 2.97928 -4.42803 0
M  V30 24899 O 2307.48 4.12051 -3.94423 0
M  V30 24900 O 2306.41 2.77546 -5.3409 0
M  V30 24901 H 2310.24 0.433573 -3.00589 0
M  V30 24902 H 2307.82 0.148041 -1.48665 0
M  V30 24903 H 2309.7 2.88551 -3.07109 0
M  V30 24904 H 2308.38 2.61646 -1.90587 0
M  V30 24905 H 2307.29 1.03116 -3.59608 0
M  V30 24906 H 2308.62 1.3756 -4.72587 0
M  V30 24907 N 2310.27 1.56347 0.198358 0
M  V30 24908 C 2311.22 1.94286 1.24585 0
M  V30 24909 C 2312.19 0.803022 1.45399 0
M  V30 24910 O 2313.37 1.0609 1.58586 0
M  V30 24911 C 2310.51 2.28486 2.58627 0
M  V30 24912 C 2309.63 3.55518 2.4542 0
M  V30 24913 C 2308.76 3.79055 3.72143 0
M  V30 24914 C 2307.8 4.99524 3.53754 0
M  V30 24915 N 2306.94 5.19332 4.72482 0
M  V30 24916 H 2311.78 2.83595 0.915307 0
M  V30 24917 H 2309.31 1.40346 0.440604 0
M  V30 24918 H 2311.27 2.4633 3.36715 0
M  V30 24919 H 2309.9 1.42322 2.89731 0
M  V30 24920 H 2308.95 3.45739 1.58646 0
M  V30 24921 H 2310.27 4.43762 2.27764 0
M  V30 24922 H 2309.42 3.97121 4.58672 0
M  V30 24923 H 2308.16 2.89135 3.92749 0
M  V30 24924 H 2307.16 4.81384 2.65611 0
M  V30 24925 H 2308.39 5.9095 3.34597 0
M  V30 24926 H 2306.33 4.32359 4.93358 0
M  V30 24927 H 2306.25 6.01749 4.57639 0
M  V30 24928 H 2307.52 5.41853 5.60371 0
M  V30 24929 N 2311.75 -0.465951 1.50554 0
M  V30 24930 C 2312.68 -1.57125 1.72725 0
M  V30 24931 C 2313.66 -1.60039 0.576322 0
M  V30 24932 O 2314.84 -1.76224 0.816011 0
M  V30 24933 C 2311.97 -2.95416 1.82611 0
M  V30 24934 C 2310.93 -3.07368 2.9784 0
M  V30 24935 C 2310.25 -4.47357 2.92875 0
M  V30 24936 C 2311.55 -2.84106 4.3827 0
M  V30 24937 H 2313.25 -1.38825 2.6527 0
M  V30 24938 H 2310.79 -0.666418 1.27651 0
M  V30 24939 H 2312.75 -3.72673 1.96705 0
M  V30 24940 H 2311.47 -3.14884 0.866914 0
M  V30 24941 H 2310.13 -2.32545 2.83405 0
M  V30 24942 H 2309.78 -4.63752 1.94791 0
M  V30 24943 H 2309.48 -4.56289 3.70235 0
M  V30 24944 H 2311 -5.26627 3.09024 0
M  V30 24945 H 2312.42 -3.5111 4.53205 0
M  V30 24946 H 2310.81 -3.04478 5.1712 0
M  V30 24947 H 2311.88 -1.79923 4.50284 0
M  V30 24948 N 2313.23 -1.40218 -0.719481 0
M  V30 24949 C 2314.16 -1.42925 -1.84647 0
M  V30 24950 C 2315.14 -0.290649 -1.67598 0
M  V30 24951 O 2316.32 -0.49871 -1.87687 0
M  V30 24952 C 2313.45 -1.28728 -3.22562 0
M  V30 24953 C 2312.41 -2.4015 -3.54277 0
M  V30 24954 C 2311.73 -2.11032 -4.91294 0
M  V30 24955 C 2313.03 -3.82487 -3.5567 0
M  V30 24956 H 2314.73 -2.37241 -1.8264 0
M  V30 24957 H 2312.27 -1.14192 -0.877285 0
M  V30 24958 H 2314.23 -1.29239 -4.01093 0
M  V30 24959 H 2312.95 -0.308868 -3.25136 0
M  V30 24960 H 2311.61 -2.38882 -2.78084 0
M  V30 24961 H 2311.26 -1.11591 -4.90466 0
M  V30 24962 H 2310.96 -2.85679 -5.1348 0
M  V30 24963 H 2312.48 -2.13219 -5.72163 0
M  V30 24964 H 2313.89 -3.856 -4.24247 0
M  V30 24965 H 2312.29 -4.56621 -3.8938 0
M  V30 24966 H 2313.36 -4.12351 -2.55137 0
M  V30 24967 N 2314.7 0.951297 -1.25651 0
M  V30 24968 C 2315.93 1.73622 -1.13446 0
M  V30 24969 C 2316.35 1.85569 0.307532 0
M  V30 24970 O 2315.71 1.33856 1.22279 0
M  V30 24971 C 2315.76 3.12618 -1.79728 0
M  V30 24972 O 2314.86 3.98029 -1.07919 0
M  V30 24973 H 2314.21 0.533079 -0.395882 0
M  V30 24974 H 2316.74 1.19217 -1.66278 0
M  V30 24975 H 2316.75 3.63061 -1.86147 0
M  V30 24976 H 2315.42 3.03239 -2.84638 0
M  V30 24977 H 2314 3.5649 -1.09404 0
M  V30 24978 N 2316.18 1.07291 1.1544 0
M  V30 24979 C 2317.6 0.798313 1.382 0
M  V30 24980 C 2317.8 -0.597735 1.9243 0
M  V30 24981 O 2316.85 -1.35656 2.12964 0
M  V30 24982 C 2318.17 1.8716 2.35354 0
M  V30 24983 C 2319.72 1.89629 2.49018 0
M  V30 24984 C 2320.19 2.9604 3.49463 0
M  V30 24985 N 2321.68 2.95139 3.56998 0
M  V30 24986 C 2322.42 3.7412 4.34536 0
M  V30 24987 N 2321.91 4.62949 5.15413 0
M  V30 24988 N 2323.71 3.62469 4.29619 0
M  V30 24989 H 2315.86 1.97329 0.785806 0
M  V30 24990 H 2318.12 0.855687 0.40805 0
M  V30 24991 H 2317.83 2.87468 2.02621 0
M  V30 24992 H 2317.7 1.7312 3.35126 0
M  V30 24993 H 2320.09 0.899736 2.81049 0
M  V30 24994 H 2320.17 2.07748 1.49247 0
M  V30 24995 H 2319.81 3.95895 3.18166 0
M  V30 24996 H 2319.74 2.75169 4.48988 0
M  V30 24997 H 2322.23 2.30748 2.99272 0
M  V30 24998 H 2322.55 5.19847 5.71821 0
M  V30 24999 H 2320.89 4.66998 5.14721 0
M  V30 25000 H 2324.08 2.9245 3.655 0
M  V30 25001 H 2324.25 4.24265 4.89799 0
M  V30 25002 N 2317.66 -1.32267 0.856927 0
M  V30 25003 C 2318.61 -2.28826 0.301212 0
M  V30 25004 C 2319.58 -1.55151 -0.593077 0
M  V30 25005 O 2320.76 -1.83363 -0.527504 0
M  V30 25006 C 2317.9 -3.41422 -0.502463 0
M  V30 25007 C 2317.02 -4.29974 0.417873 0
M  V30 25008 C 2316.15 -5.29702 -0.398655 0
M  V30 25009 C 2315.19 -6.09896 0.518935 0
M  V30 25010 N 2314.33 -7.01616 -0.260551 0
M  V30 25011 H 2319.17 -2.75749 1.12988 0
M  V30 25012 H 2316.7 -1.35666 0.568606 0
M  V30 25013 H 2318.66 -4.05428 -0.98407 0
M  V30 25014 H 2317.29 -2.95644 -1.29594 0
M  V30 25015 H 2316.34 -3.66529 1.01788 0
M  V30 25016 H 2317.66 -4.86017 1.122 0
M  V30 25017 H 2316.81 -5.99321 -0.943329 0
M  V30 25018 H 2315.55 -4.74282 -1.13614 0
M  V30 25019 H 2314.55 -5.39179 1.07547 0
M  V30 25020 H 2315.78 -6.67402 1.25506 0
M  V30 25021 H 2313.72 -6.48622 -0.981084 0
M  V30 25022 H 2313.64 -7.55022 0.384496 0
M  V30 25023 H 2314.91 -7.75518 -0.786878 0
M  V30 25024 N 2319.14 -0.615084 -1.45102 0
M  V30 25025 C 2320.42 -0.044862 -1.95549 0
M  V30 25026 C 2320.8 1.42508 -1.55739 0
M  V30 25027 O 2320.14 2.13141 -0.823593 0
M  V30 25028 C 2320.35 -0.250846 -3.48097 0
M  V30 25029 C 2321.7 -0.135584 -4.24383 0
M  V30 25030 O 2322.73 -0.181361 -3.55738 0
M  V30 25031 O 2321.58 -0.0269839 -5.46493 0
M  V30 25032 H 2318.68 0.03147 -0.826401 0
M  V30 25033 H 2321.22 -0.685669 -1.55231 0
M  V30 25034 H 2320 -1.27145 -3.70067 0
M  V30 25035 H 2319.62 0.424867 -3.95323 0
M  V30 25036 N 2320.62 1.53557 -0.354678 0
M  V30 25037 C 2321.84 2.05982 0.242117 0
M  V30 25038 C 2322.27 1.22723 1.42551 0
M  V30 25039 O 2321.63 0.243635 1.79656 0
M  V30 25040 C 2321.67 3.55155 0.624304 0
M  V30 25041 O 2320.78 3.74684 1.72295 0
M  V30 25042 H 2320.12 0.662921 0.0378315 0
M  V30 25043 H 2322.65 1.98087 -0.512121 0
M  V30 25044 H 2322.66 3.97987 0.898363 0
M  V30 25045 H 2321.33 4.15201 -0.241062 0
M  V30 25046 H 2319.91 3.43753 1.44529 0
M  V30 25047 N 2322.1 0.083568 1.57378 0
M  V30 25048 C 2323.34 -0.583699 1.94218 0
M  V30 25049 C 2323.67 -1.68545 0.964683 0
M  V30 25050 O 2322.95 -1.945 -0.00418839 0
M  V30 25051 C 2323.23 -1.14966 3.41255 0
M  V30 25052 C 2323.09 -0.0537487 4.49768 0
M  V30 25053 C 2324.4 -2.05159 3.89356 0
M  V30 25054 H 2321.52 -0.210711 0.706236 0
M  V30 25055 H 2324.17 0.151933 1.89392 0
M  V30 25056 H 2322.32 -1.77659 3.45499 0
M  V30 25057 H 2323.99 0.579931 4.5764 0
M  V30 25058 H 2322.23 0.614144 4.29431 0
M  V30 25059 H 2322.9 -0.490355 5.49818 0
M  V30 25060 H 2325.38 -1.52387 3.87192 0
M  V30 25061 H 2324.25 -2.41689 4.92826 0
M  V30 25062 H 2324.51 -2.9645 3.27978 0
M  V30 25063 N 2323.57 -1.5645 -0.190064 0
M  V30 25064 C 2324.82 -1.80918 -0.909673 0
M  V30 25065 C 2325.15 -0.657615 -1.83046 0
M  V30 25066 O 2324.4 0.356322 -1.92429 0
M  V30 25067 C 2324.7 -3.11413 -1.75376 0
M  V30 25068 C 2324.37 -4.40043 -0.983528 0
M  V30 25069 C 2323.03 -4.74985 -0.770883 0
M  V30 25070 C 2325.38 -5.19323 -0.441933 0
M  V30 25071 C 2322.71 -5.867 -0.00524167 0
M  V30 25072 C 2325.06 -6.31837 0.310523 0
M  V30 25073 C 2323.73 -6.65359 0.53414 0
M  V30 25074 H 2323 -0.662025 -0.332873 0
M  V30 25075 H 2325.64 -1.90692 -0.175728 0
M  V30 25076 H 2323.95 -2.96898 -2.55654 0
M  V30 25077 H 2325.65 -3.27551 -2.31325 0
M  V30 25078 H 2322.24 -4.12624 -1.15928 0
M  V30 25079 H 2326.42 -4.92737 -0.593607 0
M  V30 25080 H 2321.68 -6.11141 0.177933 0
M  V30 25081 H 2325.85 -6.92483 0.73754 0
M  V30 25082 H 2323.48 -7.51765 1.12931 0
M  V30 25083 N 2325.05 0.45796 -1.50799 0
M  V30 25084 C 2326.01 1.53671 -1.70053 0
M  V30 25085 C 2327.01 1.50324 -0.570908 0
M  V30 25086 O 2328.2 1.52711 -0.838153 0
M  V30 25087 C 2325.34 2.93273 -1.73793 0
M  V30 25088 H 2326.53 1.37912 -2.66309 0
M  V30 25089 H 2324.08 0.685246 -1.40478 0
M  V30 25090 H 2324.82 3.14461 -0.792773 0
M  V30 25091 H 2324.6 2.97108 -2.55869 0
M  V30 25092 H 2326.09 3.71567 -1.90598 0
M  V30 25093 N 2326.53 1.40598 0.712035 0
M  V30 25094 C 2327.75 1.42584 1.50614 0
M  V30 25095 C 2328.18 0.0282432 1.88079 0
M  V30 25096 O 2327.54 -0.964552 1.53512 0
M  V30 25097 C 2327.59 2.32585 2.75566 0
M  V30 25098 O 2326.69 1.77154 3.72411 0
M  V30 25099 H 2326.03 0.484581 0.453957 0
M  V30 25100 H 2328.56 1.84869 0.876616 0
M  V30 25101 H 2328.57 2.47894 3.24056 0
M  V30 25102 H 2327.25 3.34142 2.47633 0
M  V30 25103 H 2325.82 1.7121 3.31273 0
M  V30 25104 N 2328.01 -0.94462 1.26153 0
M  V30 25105 C 2329.25 -1.69042 1.11495 0
M  V30 25106 C 2329.58 -1.91464 -0.342333 0
M  V30 25107 O 2328.84 -1.49056 -1.2681 0
M  V30 25108 C 2329.14 -3.07265 1.82547 0
M  V30 25109 C 2328.8 -3.0461 3.32451 0
M  V30 25110 C 2327.46 -3.03593 3.73342 0
M  V30 25111 C 2329.82 -2.97178 4.28176 0
M  V30 25112 C 2327.14 -2.92906 5.08353 0
M  V30 25113 C 2329.5 -2.88031 5.63223 0
M  V30 25114 C 2328.16 -2.85356 6.03431 0
M  V30 25115 H 2327.43 -0.618568 0.407988 0
M  V30 25116 H 2330.08 -1.10288 1.56553 0
M  V30 25117 H 2328.38 -3.69623 1.29948 0
M  V30 25118 H 2330.08 -3.63812 1.68648 0
M  V30 25119 H 2326.67 -3.06179 2.9992 0
M  V30 25120 H 2330.85 -2.97074 3.97568 0
M  V30 25121 H 2326.11 -2.89209 5.38672 0
M  V30 25122 H 2330.28 -2.81243 6.37083 0
M  V30 25123 H 2327.91 -2.7683 7.08004 0
M  V30 25124 N 2329.49 -1.07901 -1.1487 0
M  V30 25125 C 2330.73 -0.806758 -1.86063 0
M  V30 25126 C 2331.06 0.665674 -1.82435 0
M  V30 25127 O 2330.34 1.48896 -1.2514 0
M  V30 25128 C 2330.62 -1.32273 -3.34927 0
M  V30 25129 C 2330.48 -2.86012 -3.47156 0
M  V30 25130 C 2331.79 -0.943792 -4.29861 0
M  V30 25131 H 2328.91 -0.294537 -0.675586 0
M  V30 25132 H 2331.56 -1.33775 -1.34923 0
M  V30 25133 H 2329.71 -0.87104 -3.78609 0
M  V30 25134 H 2331.38 -3.39512 -3.12296 0
M  V30 25135 H 2329.62 -3.2393 -2.88533 0
M  V30 25136 H 2330.29 -3.17185 -4.51772 0
M  V30 25137 H 2332.77 -1.33309 -3.94167 0
M  V30 25138 H 2331.64 -1.33207 -5.32491 0
M  V30 25139 H 2331.9 0.149719 -4.41846 0
M  V30 25140 N 2330.96 1.31811 -0.863929 0
M  V30 25141 C 2332.38 1.49638 -0.55503 0
M  V30 25142 C 2332.58 1.79668 0.912234 0
M  V30 25143 O 2331.64 1.87174 1.69476 0
M  V30 25144 C 2332.95 2.63429 -1.45003 0
M  V30 25145 C 2334.5 2.77313 -1.45143 0
M  V30 25146 C 2334.97 3.94193 -2.33186 0
M  V30 25147 N 2336.46 4.0147 -2.31032 0
M  V30 25148 C 2337.2 4.91165 -2.95879 0
M  V30 25149 N 2336.69 5.85803 -3.69873 0
M  V30 25150 N 2338.49 4.84362 -2.85219 0
M  V30 25151 H 2330.64 1.10586 -1.81341 0
M  V30 25152 H 2332.9 0.545881 -0.77506 0
M  V30 25153 H 2332.61 2.47996 -2.49381 0
M  V30 25154 H 2332.48 3.59429 -1.14416 0
M  V30 25155 H 2334.87 2.92164 -0.415253 0
M  V30 25156 H 2334.95 1.81998 -1.79751 0
M  V30 25157 H 2334.59 3.80101 -3.36877 0
M  V30 25158 H 2334.52 4.88803 -1.95906 0
M  V30 25159 H 2337.01 3.33756 -1.77244 0
M  V30 25160 H 2337.33 6.50961 -4.16497 0
M  V30 25161 H 2335.67 5.85801 -3.73981 0
M  V30 25162 H 2338.86 4.09401 -2.26955 0
M  V30 25163 H 2339.04 5.5406 -3.36037 0
M  V30 25164 N 2332.44 0.62277 1.44773 0
M  V30 25165 C 2333.4 -0.0773612 2.29069 0
M  V30 25166 C 2334.4 -0.780437 1.40591 0
M  V30 25167 O 2335.59 -0.626293 1.62552 0
M  V30 25168 C 2332.73 -1.12 3.21976 0
M  V30 25169 H 2333.92 0.663952 2.92458 0
M  V30 25170 H 2331.47 0.382512 1.51547 0
M  V30 25171 H 2332.21 -1.89157 2.6342 0
M  V30 25172 H 2331.99 -0.619883 3.87169 0
M  V30 25173 H 2333.48 -1.60988 3.85321 0
M  V30 25174 N 2333.92 -1.53367 0.362817 0
M  V30 25175 C 2335.2 -1.93527 -0.283987 0
M  V30 25176 C 2335.58 -1.29611 -1.66626 0
M  V30 25177 O 2334.92 -0.454169 -2.23941 0
M  V30 25178 C 2335.13 -3.47369 -0.336967 0
M  V30 25179 C 2336.48 -4.20639 -0.578634 0
M  V30 25180 O 2337.51 -3.53735 -0.41829 0
M  V30 25181 O 2336.37 -5.39194 -0.890645 0
M  V30 25182 H 2333.46 -0.809396 -0.169729 0
M  V30 25183 H 2336.01 -1.64537 0.415399 0
M  V30 25184 H 2334.78 -3.86158 0.632285 0
M  V30 25185 H 2334.4 -3.82584 -1.08236 0
M  V30 25186 N 2335.4 -0.091913 -1.57332 0
M  V30 25187 C 2336.35 0.868173 -2.13849 0
M  V30 25188 C 2337.32 1.28194 -1.0562 0
M  V30 25189 O 2338.5 1.36425 -1.3339 0
M  V30 25190 C 2335.64 2.12307 -2.72065 0
M  V30 25191 C 2334.75 1.76013 -3.94517 0
M  V30 25192 C 2333.89 2.96265 -4.40908 0
M  V30 25193 C 2332.93 2.56082 -5.55957 0
M  V30 25194 N 2332.06 3.69159 -5.97215 0
M  V30 25195 H 2336.9 0.379354 -2.95576 0
M  V30 25196 H 2334.44 0.17558 -1.46048 0
M  V30 25197 H 2336.4 2.85795 -3.03936 0
M  V30 25198 H 2335.03 2.58695 -1.93072 0
M  V30 25199 H 2334.08 0.92507 -3.68981 0
M  V30 25200 H 2335.39 1.42464 -4.78022 0
M  V30 25201 H 2334.55 3.78009 -4.74546 0
M  V30 25202 H 2333.29 3.33022 -3.56297 0
M  V30 25203 H 2332.29 1.72764 -5.21951 0
M  V30 25204 H 2333.52 2.20473 -6.42315 0
M  V30 25205 H 2331.46 4.0564 -5.1555 0
M  V30 25206 H 2331.38 3.39444 -6.7551 0
M  V30 25207 H 2332.65 4.51423 -6.35482 0
M  V30 25208 O 2336.92 1.61428 0.0482008 0
M  V30 25209 H 2337.61 1.81699 0.671194 0
M  V30 END ATOM
M  V30 BEGIN BOND
M  V30 END BOND
M  V30 END CTAB
M  END
$$$$
