drugbank_target|Q14432 cGMP-inhibited 3',5'-cyclic phosphodiesterase A (DB00235; DB00261; DB00277; DB00922; DB01166; DB01223; DB01303; DB01427; DB04880; DB05266; DB08811)
 OpenBabel12092119323D

  0  0  0     0  0            999 V3000
M  V30 BEGIN CTAB
M  V30 COUNTS 17422 17617 0 0 0
M  V30 BEGIN ATOM
M  V30 1 H -0.908 1.98254 -0.117106 0
M  V30 2 N 0 1.576 0 0
M  V30 3 C 0.933 2.03868 1.02534 0
M  V30 4 C 1.911 0.928543 1.3348 0
M  V30 5 O 3.095 1.19667 1.45644 0
M  V30 6 C 0.222 2.43627 2.35294 0
M  V30 7 C -0.732 3.65373 2.2001 0
M  V30 8 S 0.101 5.13292 1.52614 0
M  V30 9 C 1.257 5.56322 2.86805 0
M  V30 10 H 1.49 2.90518 0.631377 0
M  V30 11 H -0.977 1.52953 0.210867 0
M  V30 12 H 0.981 2.67203 3.11629 0
M  V30 13 H -0.358 1.57376 2.7183 0
M  V30 14 H -1.165 3.90944 3.18086 0
M  V30 15 H -1.563 3.418 1.51819 0
M  V30 16 H 0.729 5.58782 3.83104 0
M  V30 17 H 1.672 6.56266 2.65933 0
M  V30 18 H 2.08 4.83886 2.90714 0
M  V30 19 N 1.4781 -0.272755 1.55222 0
M  V30 20 C 2.4411 -1.32041 1.87344 0
M  V30 21 C 3.4411 -1.42342 0.74803 0
M  V30 22 O 4.6311 -1.41488 1.0162 0
M  V30 23 C 1.7631 -2.70173 2.07893 0
M  V30 24 H 2.9561 -1.04789 2.80997 0
M  V30 25 H 0.5091 -0.51083 1.47717 0
M  V30 26 H 1.2441 -3.02605 1.16622 0
M  V30 27 H 1.0291 -2.64082 2.89833 0
M  V30 28 H 2.5191 -3.45869 2.34017 0
M  V30 29 N 2.9562 -1.48159 -0.537278 0
M  V30 30 C 4.2022 -1.56035 -1.29541 0
M  V30 31 C 4.5352 -0.230377 -1.92829 0
M  V30 32 O 3.8102 0.762952 -1.78911 0
M  V30 33 C 4.0932 -2.69323 -2.39034 0
M  V30 34 C 3.9462 -4.12002 -1.80485 0
M  V30 35 C 5.2652 -2.78408 -3.40847 0
M  V30 36 H 2.3842 -0.567992 -0.469632 0
M  V30 37 H 5.0262 -1.80302 -0.599277 0
M  V30 38 H 3.1762 -2.48763 -2.98412 0
M  V30 39 H 4.8482 -4.43981 -1.25215 0
M  V30 40 H 3.0912 -4.19344 -1.11055 0
M  V30 41 H 3.7622 -4.87077 -2.59731 0
M  V30 42 H 6.2382 -2.97012 -2.91416 0
M  V30 43 H 5.1142 -3.59416 -4.14863 0
M  V30 44 H 5.3752 -1.86269 -4.00944 0
M  V30 45 N 4.4343 0.785586 -1.36625 0
M  V30 46 C 5.8453 1.36101 -1.27803 0
M  V30 47 C 6.1963 1.96035 0.0804875 0
M  V30 48 O 5.3213 1.92834 0.982042 0
M  V30 49 C 5.9163 2.47442 -2.31426 0
M  V30 50 C 4.4753 3.00789 -2.26281 0
M  V30 51 C 3.6223 1.73896 -2.15999 0
M  V30 52 H 6.5733 0.586928 -1.47448 0
M  V30 53 H 6.5943 3.2656 -1.95291 0
M  V30 54 H 6.1063 2.03791 -3.30289 0
M  V30 55 H 4.2073 3.48851 -1.30896 0
M  V30 56 H 4.3203 3.57343 -3.19128 0
M  V30 57 H 2.6843 1.9628 -1.62316 0
M  V30 58 H 3.4673 1.32368 -3.16755 0
M  V30 59 N 5.9124 1.20967 1.01018 0
M  V30 60 C 7.1604 1.02172 1.74371 0
M  V30 61 C 7.4814 -0.446414 1.89821 0
M  V30 62 O 6.7514 -1.32234 1.44537 0
M  V30 63 H 5.3314 0.375066 0.646014 0
M  V30 64 H 7.9934 1.52187 1.21758 0
M  V30 65 H 7.0894 1.48538 2.74487 0
M  V30 66 N 7.3905 -1.2043 1.01659 0
M  V30 67 C 8.6675 -1.8548 0.621004 0
M  V30 68 C 9.0475 -1.9091 -0.900919 0
M  V30 69 O 8.3955 -1.41694 -1.79263 0
M  V30 70 C 8.6055 -3.25119 1.2688 0
M  V30 71 C 9.9535 -4.01403 1.38423 0
M  V30 72 O 10.9775 -3.34473 1.22501 0
M  V30 73 O 9.8365 -5.21265 1.64151 0
M  V30 74 H 6.9305 -0.798761 0.214266 0
M  V30 75 H 9.4765 -1.28019 1.11396 0
M  V30 76 H 8.2485 -3.15932 2.30873 0
M  V30 77 H 7.8715 -3.90212 0.762917 0
M  V30 78 N 8.8686 -0.792821 -1.36206 0
M  V30 79 C 9.8316 -0.199459 -2.2833 0
M  V30 80 C 10.8316 0.605189 -1.48977 0
M  V30 81 O 12.0216 0.425685 -1.68919 0
M  V30 82 C 9.1536 0.723523 -3.33134 0
M  V30 83 H 10.3466 -1.01181 -2.82316 0
M  V30 84 H 7.8996 -0.562485 -1.45828 0
M  V30 85 H 8.6346 1.56008 -2.84309 0
M  V30 86 H 8.4196 0.148436 -3.91819 0
M  V30 87 H 9.9096 1.13344 -4.01924 0
M  V30 88 N 10.3467 1.47872 -0.545128 0
M  V30 89 C 11.3097 2.28337 0.198717 0
M  V30 90 C 12.3097 1.36255 0.853888 0
M  V30 91 O 13.4997 1.59003 0.711606 0
M  V30 92 C 10.6317 3.15585 1.28915 0
M  V30 93 H 11.8247 2.95567 -0.507941 0
M  V30 94 H 9.3777 1.53362 -0.301616 0
M  V30 95 H 10.1127 2.53019 2.02859 0
M  V30 96 H 9.8977 3.83337 0.824309 0
M  V30 97 H 11.3877 3.76243 1.81194 0
M  V30 98 N 11.8248 0.280983 1.55075 0
M  V30 99 C 13.2408 -0.0729964 1.59433 0
M  V30 100 C 13.4408 -1.5411 1.29817 0
M  V30 101 O 12.4968 -2.29086 1.06187 0
M  V30 102 C 13.8098 0.306921 2.9913 0
M  V30 103 C 15.3578 0.254023 3.11968 0
M  V30 104 C 15.8328 0.608467 4.5394 0
M  V30 105 N 17.3238 0.560241 4.59799 0
M  V30 106 C 18.0588 0.80722 5.6769 0
M  V30 107 N 17.5548 1.11912 6.83701 0
M  V30 108 N 19.3478 0.735623 5.57266 0
M  V30 109 H 11.4988 1.238 1.7259 0
M  V30 110 H 13.7618 0.500547 0.805082 0
M  V30 111 H 13.4678 1.32816 3.25657 0
M  V30 112 H 13.3418 -0.349363 3.75579 0
M  V30 113 H 15.7288 -0.75794 2.852 0
M  V30 114 H 15.8098 0.944649 2.37718 0
M  V30 115 H 15.4538 1.61814 4.81434 0
M  V30 116 H 15.3838 -0.104013 5.26497 0
M  V30 117 H 17.8748 0.329288 3.76463 0
M  V30 118 H 18.1878 1.29409 7.61888 0
M  V30 119 H 16.5328 1.15695 6.85303 0
M  V30 120 H 19.7238 0.491752 4.6551 0
M  V30 121 H 19.8968 0.931482 6.4127 0
M  V30 122 N 13.3029 -1.57598 0.00835791 0
M  V30 123 C 14.5489 -1.91211 -0.675732 0
M  V30 124 C 14.8819 -0.883139 -1.72958 0
M  V30 125 O 14.1569 0.097016 -1.94258 0
M  V30 126 C 14.4399 -3.35379 -1.31123 0
M  V30 127 C 14.2929 -4.48999 -0.268356 0
M  V30 128 C 15.6119 -3.7912 -2.23508 0
M  V30 129 H 12.7309 -0.695374 -0.244179 0
M  V30 130 H 15.3729 -1.89901 0.0613655 0
M  V30 131 H 13.5229 -3.36626 -1.93946 0
M  V30 132 H 15.1949 -4.59887 0.360844 0
M  V30 133 H 13.4379 -4.31873 0.408482 0
M  V30 134 H 14.1089 -5.46851 -0.752218 0
M  V30 135 H 16.5849 -3.79477 -1.70693 0
M  V30 136 H 15.4609 -4.80729 -2.64936 0
M  V30 137 H 15.7219 -3.13455 -3.11766 0
M  V30 138 N 14.781 0.264519 -1.55364 0
M  V30 139 C 16.197 0.61215 -1.47394 0
M  V30 140 C 16.397 1.89134 -0.695018 0
M  V30 141 O 15.453 2.51563 -0.217275 0
M  V30 142 C 16.766 0.731235 -2.91674 0
M  V30 143 C 18.314 0.82473 -3.01939 0
M  V30 144 C 18.789 0.975522 -4.4749 0
M  V30 145 N 20.28 1.04083 -4.51354 0
M  V30 146 C 21.015 1.17646 -5.61201 0
M  V30 147 N 20.511 1.27874 -6.80896 0
M  V30 148 N 22.304 1.20823 -5.48961 0
M  V30 149 H 14.455 -0.575456 -2.04456 0
M  V30 150 H 16.718 -0.196099 -0.927496 0
M  V30 151 H 16.424 -0.138392 -3.51428 0
M  V30 152 H 16.298 1.60883 -3.41169 0
M  V30 153 H 18.685 1.68482 -2.42276 0
M  V30 154 H 18.766 -0.0776479 -2.55682 0
M  V30 155 H 18.41 0.120058 -5.07758 0
M  V30 156 H 18.34 1.89268 -4.91412 0
M  V30 157 H 20.831 0.973846 -3.65136 0
M  V30 158 H 21.144 1.38081 -7.60364 0
M  V30 159 H 19.489 1.24863 -6.83692 0
M  V30 160 H 22.68 1.12469 -4.54388 0
M  V30 161 H 22.853 1.31049 -6.3461 0
M  V30 162 N 16.2591 1.48442 0.529413 0
M  V30 163 C 17.5361 1.46978 1.29062 0
M  V30 164 C 17.9161 0.181769 2.10316 0
M  V30 165 O 17.2641 -0.836481 2.12639 0
M  V30 166 C 17.4741 2.7321 2.17157 0
M  V30 167 C 18.8221 3.21562 2.77278 0
M  V30 168 O 19.8461 2.74131 2.27444 0
M  V30 169 O 18.7051 4.04094 3.67927 0
M  V30 170 H 15.7991 0.587003 0.582543 0
M  V30 171 H 18.3451 1.60676 0.546021 0
M  V30 172 H 17.1171 3.58465 1.56903 0
M  V30 173 H 16.7401 2.62235 2.98862 0
M  V30 174 N 17.7372 -0.778329 1.37039 0
M  V30 175 C 18.6842 -1.89139 1.32269 0
M  V30 176 C 19.6542 -1.65017 0.189387 0
M  V30 177 O 20.8392 -1.87024 0.377693 0
M  V30 178 C 17.9792 -3.26112 1.12894 0
M  V30 179 C 17.0922 -3.62233 2.35396 0
M  V30 180 C 16.2272 -4.8838 2.08946 0
M  V30 181 C 15.2662 -5.17212 3.2735 0
M  V30 182 N 14.4032 -6.34546 3.00492 0
M  V30 183 H 19.2432 -1.92552 2.27437 0
M  V30 184 H 16.7802 -0.941473 1.13025 0
M  V30 185 H 18.7382 -4.05116 0.996835 0
M  V30 186 H 17.3682 -3.22091 0.213758 0
M  V30 187 H 16.4202 -2.78265 2.5937 0
M  V30 188 H 17.7322 -3.79481 3.23721 0
M  V30 189 H 16.8862 -5.75274 1.92729 0
M  V30 190 H 15.6252 -4.73222 1.17949 0
M  V30 191 H 14.6302 -4.28796 3.44113 0
M  V30 192 H 15.8552 -5.34283 4.19188 0
M  V30 193 H 13.8012 -6.20759 2.12118 0
M  V30 194 H 13.7182 -6.52179 3.82358 0
M  V30 195 H 14.9862 -7.24394 2.87879 0
M  V30 196 N 19.2153 -1.21501 -1.00376 0
M  V30 197 C 20.6263 -1.03146 -1.55621 0
M  V30 198 C 20.9773 0.408375 -1.91903 0
M  V30 199 O 20.1023 1.29177 -1.73616 0
M  V30 200 C 20.6973 -1.86612 -2.82775 0
M  V30 201 C 19.2563 -1.72586 -3.34501 0
M  V30 202 C 18.4033 -1.83747 -2.07683 0
M  V30 203 H 21.3543 -1.35505 -0.826081 0
M  V30 204 H 21.3753 -1.3771 -3.54706 0
M  V30 205 H 20.8873 -2.91399 -2.56336 0
M  V30 206 H 18.9883 -0.704877 -3.65872 0
M  V30 207 H 19.1013 -2.54623 -4.05837 0
M  V30 208 H 17.4653 -1.27069 -2.20739 0
M  V30 209 H 18.2483 -2.90044 -1.83655 0
M  V30 210 N 20.6934 1.19889 -1.02296 0
M  V30 211 C 21.9394 1.89701 -0.717033 0
M  V30 212 C 22.2724 1.7905 0.751989 0
M  V30 213 O 21.5474 1.17891 1.547 0
M  V30 214 C 21.8304 3.40858 -1.16136 0
M  V30 215 C 21.6834 3.60411 -2.69117 0
M  V30 216 C 23.0024 4.33876 -0.737549 0
M  V30 217 H 20.1214 0.688874 -0.261957 0
M  V30 218 H 22.7634 1.41154 -1.27183 0
M  V30 219 H 20.9134 3.82335 -0.689342 0
M  V30 220 H 22.5854 3.28145 -3.2422 0
M  V30 221 H 20.8284 3.03665 -3.0979 0
M  V30 222 H 21.4994 4.66396 -2.95261 0
M  V30 223 H 23.9754 4.00081 -1.14344 0
M  V30 224 H 22.8514 5.38242 -1.0764 0
M  V30 225 H 23.1124 4.40628 0.360436 0
M  V30 226 N 22.1715 0.800033 1.35784 0
M  V30 227 C 23.1215 0.178654 2.27299 0
M  V30 228 C 24.1055 -0.643667 1.47464 0
M  V30 229 O 25.2975 -0.502 1.69732 0
M  V30 230 C 22.4265 -0.677194 3.36555 0
M  V30 231 C 21.5125 0.154497 4.23818 0
M  V30 232 N 21.9035 1.21427 4.91008 0
M  V30 233 C 20.2015 -0.0649462 4.45953 0
M  V30 234 C 20.9025 1.72147 5.55644 0
M  V30 235 N 19.8785 1.02897 5.33773 0
M  V30 236 H 23.6805 0.989637 2.76737 0
M  V30 237 H 21.1945 0.64054 1.49234 0
M  V30 238 H 23.1915 -1.13835 4.01058 0
M  V30 239 H 21.8515 -1.4866 2.8867 0
M  V30 240 H 22.8625 1.59684 4.92668 0
M  V30 241 H 19.5395 -0.844016 4.0888 0
M  V30 242 H 20.9295 2.60683 6.19269 0
M  V30 243 N 23.6496 -1.47581 0.552962 0
M  V30 244 C 24.8746 -2.07378 0.0300593 0
M  V30 245 C 25.2996 -1.40355 -1.25229 0
M  V30 246 O 24.6576 -0.477099 -1.7491 0
M  V30 247 C 24.7056 -3.60274 -0.153231 0
M  V30 248 O 23.8096 -3.94041 -1.21678 0
M  V30 249 H 23.1506 -0.662158 0.0494182 0
M  V30 250 H 25.6806 -1.89662 0.767434 0
M  V30 251 H 25.6906 -4.0633 -0.368761 0
M  V30 252 H 24.3656 -4.08455 0.783397 0
M  V30 253 H 22.9426 -3.59735 -0.982079 0
M  V30 254 N 25.1277 -0.289203 -1.54924 0
M  V30 255 C 26.3757 0.322879 -1.99504 0
M  V30 256 C 26.6967 1.55313 -1.1791 0
M  V30 257 O 25.9667 1.94001 -0.272097 0
M  V30 258 H 24.5467 0.122291 -0.736922 0
M  V30 259 H 27.2087 -0.397802 -1.90797 0
M  V30 260 H 26.3047 0.603061 -3.06218 0
M  V30 261 N 26.6058 1.57591 -0.0167156 0
M  V30 262 C 27.8518 1.91567 0.665582 0
M  V30 263 C 28.1848 0.892298 1.72487 0
M  V30 264 O 27.4598 -0.0867127 1.94307 0
M  V30 265 C 27.7428 3.36069 1.29342 0
M  V30 266 C 27.5958 4.49135 0.244541 0
M  V30 267 C 28.9148 3.803 2.21495 0
M  V30 268 H 26.0338 0.69666 0.240488 0
M  V30 269 H 28.6758 1.89866 -0.0714356 0
M  V30 270 H 26.8258 3.3765 1.92158 0
M  V30 271 H 28.4978 4.59689 -0.385228 0
M  V30 272 H 26.7408 4.3165 -0.431379 0
M  V30 273 H 27.4118 5.47242 0.723207 0
M  V30 274 H 29.8878 3.80377 1.68678 0
M  V30 275 H 28.7638 4.82127 2.62382 0
M  V30 276 H 29.0248 3.15104 3.101 0
M  V30 277 N 28.0839 -0.256276 1.55502 0
M  V30 278 C 29.3089 -1.00766 1.81276 0
M  V30 279 C 29.7339 -1.78524 0.59252 0
M  V30 280 O 29.0919 -1.75413 -0.45827 0
M  V30 281 C 29.1399 -1.92869 3.04687 0
M  V30 282 O 28.2439 -3.019 2.80945 0
M  V30 283 H 27.5849 -0.287224 0.598664 0
M  V30 284 H 30.1149 -0.280109 2.02674 0
M  V30 285 H 30.1249 -2.34511 3.33869 0
M  V30 286 H 28.7999 -1.35689 3.93143 0
M  V30 287 H 27.3769 -2.64454 2.62904 0
M  V30 288 N 29.562 -1.4872 -0.521534 0
M  V30 289 C 30.494 -1.59968 -1.64143 0
M  V30 290 C 31.507 -0.483463 -1.55456 0
M  V30 291 O 32.696 -0.75467 -1.61762 0
M  V30 292 C 29.796 -1.52127 -3.02838 0
M  V30 293 C 28.969 -2.78932 -3.36921 0
M  V30 294 C 28.028 -2.64428 -4.54933 0
M  V30 295 O 27.054 -3.38331 -4.57735 0
M  V30 296 N 28.256 -1.74606 -5.53618 0
M  V30 297 H 31.021 -2.56548 -1.54929 0
M  V30 298 H 28.582 -1.45551 -0.708988 0
M  V30 299 H 30.574 -1.40106 -3.79674 0
M  V30 300 H 29.144 -0.634868 -3.06085 0
M  V30 301 H 28.364 -3.05455 -2.4918 0
M  V30 302 H 29.652 -3.63041 -3.56481 0
M  V30 303 H 29.05 -1.13782 -5.54139 0
M  V30 304 H 27.607 -1.6852 -6.29638 0
M  V30 305 N 31.0401 0.771051 -1.3745 0
M  V30 306 C 32.0031 1.86598 -1.33093 0
M  V30 307 C 33.0031 1.59076 -0.234845 0
M  V30 308 O 34.1931 1.67145 -0.490732 0
M  V30 309 C 31.3251 3.23747 -1.06773 0
M  V30 310 H 32.5181 1.91873 -2.30488 0
M  V30 311 H 30.0711 0.970876 -1.2249 0
M  V30 312 H 30.8061 3.24148 -0.099129 0
M  V30 313 H 30.5911 3.45115 -1.86112 0
M  V30 314 H 32.0811 4.03824 -1.06377 0
M  V30 315 N 32.5182 1.22032 0.997298 0
M  V30 316 C 33.9292 1.0397 1.55071 0
M  V30 317 C 34.2802 -0.398192 1.92117 0
M  V30 318 O 33.4052 -1.28254 1.74298 0
M  V30 319 C 34.0002 1.88109 2.81781 0
M  V30 320 C 32.5592 1.74357 3.33581 0
M  V30 321 C 31.7062 1.84846 2.06706 0
M  V30 322 H 34.6572 1.35941 0.818883 0
M  V30 323 H 34.6782 1.39589 3.53971 0
M  V30 324 H 34.1902 2.92754 2.54787 0
M  V30 325 H 32.2912 0.72427 3.65493 0
M  V30 326 H 32.4042 2.56772 4.04481 0
M  V30 327 H 30.7682 1.28238 2.20062 0
M  V30 328 H 31.5512 2.91014 1.82114 0
M  V30 329 N 33.9963 -1.19345 1.0293 0
M  V30 330 C 35.2243 -1.92997 0.745644 0
M  V30 331 C 35.6393 -1.75519 -0.695589 0
M  V30 332 O 34.9963 -1.07737 -1.47306 0
M  V30 333 C 35.0473 -3.44741 1.08792 0
M  V30 334 O 34.7683 -3.61658 2.47256 0
M  V30 335 C 36.2693 -4.35515 0.827129 0
M  V30 336 H 33.4893 -0.613042 0.272801 0
M  V30 337 H 36.0333 -1.51473 1.3739 0
M  V30 338 H 34.1883 -3.84097 0.504832 0
M  V30 339 H 34.6023 -4.55514 2.60015 0
M  V30 340 H 36.0763 -5.40589 1.11658 0
M  V30 341 H 36.5533 -4.38552 -0.238436 0
M  V30 342 H 37.1593 -4.01841 1.39297 0
M  V30 343 N 35.4744 -0.807222 -1.35358 0
M  V30 344 C 36.4374 -0.223665 -2.28106 0
M  V30 345 C 37.4374 0.589354 -1.4961 0
M  V30 346 O 38.6274 0.407745 -1.69361 0
M  V30 347 C 35.7594 0.688149 -3.33882 0
M  V30 348 H 36.9524 -1.04169 -2.81227 0
M  V30 349 H 34.5054 -0.577921 -1.45223 0
M  V30 350 H 35.2404 1.52984 -2.85948 0
M  V30 351 H 35.0254 0.10687 -3.91954 0
M  V30 352 H 36.5154 1.09075 -4.03104 0
M  V30 353 N 36.9525 1.47285 -0.560781 0
M  V30 354 C 38.2005 2.02064 -0.0379868 0
M  V30 355 C 38.5215 1.43711 1.31803 0
M  V30 356 O 37.7915 0.61362 1.86042 0
M  V30 357 H 36.3715 0.746918 -0.0110531 0
M  V30 358 H 39.0335 1.80648 -0.731598 0
M  V30 359 H 38.1295 3.12064 0.0474463 0
M  V30 360 N 38.4306 0.297415 1.54768 0
M  V30 361 C 39.8466 -0.0560823 1.59501 0
M  V30 362 C 40.0466 -1.52725 1.31444 0
M  V30 363 O 39.1026 -2.27947 1.08611 0
M  V30 364 C 40.4156 0.338631 2.98787 0
M  V30 365 C 41.9636 0.287097 3.11681 0
M  V30 366 C 42.4386 0.656579 4.53269 0
M  V30 367 N 43.9296 0.608977 4.59179 0
M  V30 368 C 44.6646 0.867385 5.66802 0
M  V30 369 N 44.1606 1.19157 6.82476 0
M  V30 370 N 45.9536 0.794687 5.56454 0
M  V30 371 H 38.1046 1.25624 1.71267 0
M  V30 372 H 40.3676 0.509057 0.799728 0
M  V30 373 H 40.0736 1.36263 3.2423 0
M  V30 374 H 39.9476 -0.309508 3.75928 0
M  V30 375 H 42.3346 -0.727649 2.85988 0
M  V30 376 H 42.4156 0.969809 2.36703 0
M  V30 377 H 42.0596 1.66912 4.7969 0
M  V30 378 H 41.9896 -0.0481649 5.26578 0
M  V30 379 H 44.4806 0.369198 3.76092 0
M  V30 380 H 44.7936 1.37482 7.60473 0
M  V30 381 H 43.1386 1.22958 6.84037 0
M  V30 382 H 46.3296 0.541098 4.64962 0
M  V30 383 H 46.5026 0.999445 6.40246 0
M  V30 384 N 39.9087 -1.5758 0.0250728 0
M  V30 385 C 41.1857 -1.82917 -0.692873 0
M  V30 386 C 41.5657 -0.908137 -1.90568 0
M  V30 387 O 40.9137 0.0372298 -2.2847 0
M  V30 388 C 41.1237 -3.32034 -1.07492 0
M  V30 389 C 42.4717 -3.98406 -1.46826 0
M  V30 390 O 43.4957 -3.36505 -1.16801 0
M  V30 391 O 42.3547 -5.07497 -2.02754 0
M  V30 392 H 39.4487 -0.754079 -0.33955 0
M  V30 393 H 41.9947 -1.69619 0.0524456 0
M  V30 394 H 40.7667 -3.90728 -0.211552 0
M  V30 395 H 40.3897 -3.50424 -1.87854 0
M  V30 396 N 41.3868 0.248026 -1.55636 0
M  V30 397 C 42.6268 0.983592 -1.79178 0
M  V30 398 C 42.9908 1.82567 -0.594414 0
M  V30 399 O 44.1918 2.59292 -0.708583 0
M  V30 400 C 42.4628 1.82228 -3.07454 0
M  V30 401 S 44.0218 2.61709 -3.52213 0
M  V30 402 H 40.8398 0.330866 -0.629324 0
M  V30 403 H 43.4418 0.251562 -1.93875 0
M  V30 404 H 42.1458 1.19333 -3.92668 0
M  V30 405 H 41.6768 2.59708 -2.95492 0
M  V30 406 H 43.6918 3.84655 -3.13457 0
M  V30 407 N 42.8649 1.48995 0.513639 0
M  V30 408 C 43.8149 1.61127 1.61314 0
M  V30 409 C 44.7989 0.467521 1.53958 0
M  V30 410 O 45.9909 0.719826 1.61702 0
M  V30 411 C 43.1199 1.66937 2.99978 0
M  V30 412 C 42.2059 2.86847 3.12377 0
M  V30 413 N 42.5969 4.11078 2.94701 0
M  V30 414 C 40.8949 2.84521 3.43459 0
M  V30 415 C 41.5959 4.91615 3.10949 0
M  V30 416 N 40.5719 4.24739 3.3926 0
M  V30 417 H 44.3739 2.54909 1.46282 0
M  V30 418 H 41.8879 1.45593 0.719483 0
M  V30 419 H 43.8849 1.73725 3.78979 0
M  V30 420 H 42.5449 0.742831 3.16089 0
M  V30 421 H 43.5559 4.41258 2.71131 0
M  V30 422 H 40.2329 2.01192 3.65825 0
M  V30 423 H 41.6229 6.00264 3.01882 0
M  V30 424 N 44.343 -0.763751 1.37857 0
M  V30 425 C 45.293 -1.86765 1.30777 0
M  V30 426 C 46.277 -1.59726 0.194015 0
M  V30 427 O 47.469 -1.7172 0.42911 0
M  V30 428 C 44.598 -3.24343 1.12502 0
M  V30 429 C 43.684 -3.57307 2.28456 0
M  V30 430 N 44.075 -3.61398 3.53871 0
M  V30 431 C 42.373 -3.87517 2.20786 0
M  V30 432 C 43.074 -3.91339 4.30382 0
M  V30 433 N 42.05 -4.07649 3.59615 0
M  V30 434 H 45.852 -1.88191 2.25746 0
M  V30 435 H 43.366 -0.9606 1.30944 0
M  V30 436 H 45.363 -4.03327 1.05514 0
M  V30 437 H 44.023 -3.24175 0.184574 0
M  V30 438 H 45.034 -3.43407 3.87675 0
M  V30 439 H 41.711 -3.95125 1.34844 0
M  V30 440 H 43.101 -4.01213 5.3896 0
M  V30 441 N 45.8211 -1.22559 -0.990812 0
M  V30 442 C 47.2371 -0.985996 -1.255 0
M  V30 443 C 47.4371 0.319173 -1.98956 0
M  V30 444 O 46.4931 1.04127 -2.3003 0
M  V30 445 C 47.8061 -2.18607 -2.06474 0
M  V30 446 C 49.3541 -2.22985 -2.19651 0
M  V30 447 C 49.8291 -3.4255 -3.04012 0
M  V30 448 N 51.3201 -3.42725 -3.11599 0
M  V30 449 C 52.0551 -4.31892 -3.7717 0
M  V30 450 N 51.5511 -5.31279 -4.44651 0
M  V30 451 N 53.3441 -4.19662 -3.73952 0
M  V30 452 H 45.4951 -2.06469 -0.49841 0
M  V30 453 H 47.7581 -0.904853 -0.282747 0
M  V30 454 H 47.4641 -3.13267 -1.59865 0
M  V30 455 H 47.3381 -2.18838 -3.07229 0
M  V30 456 H 49.7251 -1.28871 -2.65474 0
M  V30 457 H 49.8061 -2.26791 -1.18319 0
M  V30 458 H 49.4501 -4.36965 -2.58889 0
M  V30 459 H 49.3801 -3.35984 -4.0549 0
M  V30 460 H 51.8711 -2.70807 -2.63575 0
M  V30 461 H 52.1841 -5.95593 -4.92431 0
M  V30 462 H 50.5291 -5.3519 -4.43392 0
M  V30 463 H 53.7201 -3.41268 -3.20396 0
M  V30 464 H 53.8931 -4.89358 -4.24774 0
M  V30 465 N 47.2992 1.18797 -1.03562 0
M  V30 466 C 48.2622 2.20464 -0.626769 0
M  V30 467 C 49.2622 1.57721 0.313173 0
M  V30 468 O 50.4522 1.73917 0.0992615 0
M  V30 469 C 47.5842 3.40802 0.0818498 0
M  V30 470 H 48.7772 2.58149 -1.5264 0
M  V30 471 H 46.3302 1.32593 -0.827578 0
M  V30 472 H 47.0652 3.08642 0.995518 0
M  V30 473 H 46.8502 3.8758 -0.593652 0
M  V30 474 H 48.3402 4.16092 0.354584 0
M  V30 475 N 48.7773 0.814389 1.34928 0
M  V30 476 C 50.0543 0.321363 1.92942 0
M  V30 477 C 50.4343 -1.19014 1.74353 0
M  V30 478 O 49.7823 -1.99328 1.11716 0
M  V30 479 C 49.9923 0.741323 3.41036 0
M  V30 480 C 51.3403 0.735266 4.18185 0
M  V30 481 O 52.3643 0.68336 3.49584 0
M  V30 482 O 51.2233 0.800703 5.40602 0
M  V30 483 H 48.3173 0.0858893 0.822528 0
M  V30 484 H 50.8633 0.898609 1.43955 0
M  V30 485 H 49.6353 1.78276 3.4833 0
M  V30 486 H 49.2583 0.139307 3.97356 0
M  V30 487 N 50.2554 -1.46986 0.568584 0
M  V30 488 C 51.6664 -1.86188 0.138219 0
M  V30 489 C 52.0174 -1.47388 -1.29504 0
M  V30 490 O 51.1424 -0.88219 -1.97602 0
M  V30 491 C 51.7374 -3.3792 0.244065 0
M  V30 492 C 50.2964 -3.76171 -0.131335 0
M  V30 493 C 49.4434 -2.71027 0.586465 0
M  V30 494 H 52.3944 -1.38342 0.777645 0
M  V30 495 H 52.4154 -3.76729 -0.534351 0
M  V30 496 H 51.9274 -3.66128 1.28731 0
M  V30 497 H 50.0284 -3.5358 -1.17526 0
M  V30 498 H 50.1414 -4.78523 0.235146 0
M  V30 499 H 48.5054 -2.54684 0.0282722 0
M  V30 500 H 49.2884 -3.02077 1.63109 0
M  V30 501 N 51.7335 -0.305618 -1.54608 0
M  V30 502 C 52.6965 0.555591 -2.22364 0
M  V30 503 C 53.6965 1.05768 -1.21119 0
M  V30 504 O 54.8865 0.952972 -1.45822 0
M  V30 505 C 52.0185 1.76974 -2.91364 0
M  V30 506 H 53.2115 -0.0364572 -2.99878 0
M  V30 507 H 50.7645 -0.0565007 -1.56198 0
M  V30 508 H 51.4995 2.40151 -2.17941 0
M  V30 509 H 51.2845 1.41732 -3.65588 0
M  V30 510 H 52.7745 2.38148 -3.43038 0
M  V30 511 N 53.2116 1.57565 -0.0334293 0
M  V30 512 C 54.4366 1.96689 0.657895 0
M  V30 513 C 54.8616 0.910057 1.64619 0
M  V30 514 O 54.2196 -0.128598 1.80843 0
M  V30 515 C 54.2676 3.34905 1.33683 0
M  V30 516 O 53.3716 3.31574 2.45219 0
M  V30 517 H 52.7126 0.641205 0.172489 0
M  V30 518 H 55.2426 2.04372 -0.0965621 0
M  V30 519 H 55.2526 3.71234 1.69262 0
M  V30 520 H 53.9276 4.11366 0.612411 0
M  V30 521 H 52.5046 3.06968 2.11719 0
M  V30 522 N 54.6897 -0.239769 1.55765 0
M  V30 523 C 56.1007 -0.808263 1.68297 0
M  V30 524 C 56.4517 -1.85736 0.632181 0
M  V30 525 O 55.5767 -2.15277 -0.220204 0
M  V30 526 C 56.1717 -1.47284 3.05111 0
M  V30 527 C 54.7307 -1.98895 3.19559 0
M  V30 528 C 53.8777 -0.842575 2.64189 0
M  V30 529 H 56.8287 -0.0154422 1.58692 0
M  V30 530 H 56.8497 -2.34111 2.99954 0
M  V30 531 H 56.3617 -0.709053 3.81568 0
M  V30 532 H 54.4627 -2.78132 2.47938 0
M  V30 533 H 54.5757 -2.18143 4.26556 0
M  V30 534 H 52.9397 -1.24501 2.22197 0
M  V30 535 H 53.7227 -0.0917552 3.43177 0
M  V30 536 N 56.1678 -1.49265 -0.50573 0
M  V30 537 C 57.5838 -1.35923 -0.836486 0
M  V30 538 C 57.7838 -0.388704 -1.97715 0
M  V30 539 O 56.8398 0.181336 -2.51848 0
M  V30 540 C 58.1528 -2.76531 -1.18115 0
M  V30 541 C 59.7008 -2.85197 -1.28964 0
M  V30 542 C 60.1758 -4.26561 -1.66761 0
M  V30 543 N 61.6668 -4.2935 -1.73819 0
M  V30 544 C 62.4018 -5.35693 -2.045 0
M  V30 545 N 61.8978 -6.52287 -2.33438 0
M  V30 546 N 63.6908 -5.23105 -2.05711 0
M  V30 547 H 55.8418 -2.10965 0.246519 0
M  V30 548 H 58.1048 -0.9468 0.0476887 0
M  V30 549 H 57.8108 -3.49226 -0.416398 0
M  V30 550 H 57.6848 -3.11599 -2.1257 0
M  V30 551 H 60.0718 -2.12742 -2.04511 0
M  V30 552 H 60.1528 -2.53718 -0.325704 0
M  V30 553 H 59.7968 -4.99541 -0.917656 0
M  V30 554 H 59.7268 -4.55502 -2.64246 0
M  V30 555 H 62.2178 -3.4526 -1.53635 0
M  V30 556 H 62.5308 -7.29158 -2.56024 0
M  V30 557 H 60.8758 -6.55521 -2.30905 0
M  V30 558 H 64.0668 -4.31026 -1.82577 0
M  V30 559 H 64.2398 -6.06078 -2.29289 0
M  V30 560 N 57.6459 0.756429 -1.3826 0
M  V30 561 C 58.9229 1.50584 -1.24835 0
M  V30 562 C 59.3029 2.10556 0.151485 0
M  V30 563 O 58.6509 1.96825 1.1607 0
M  V30 564 C 58.8609 2.57448 -2.3563 0
M  V30 565 C 60.2089 3.24429 -2.73917 0
M  V30 566 O 61.2329 2.67751 -2.34921 0
M  V30 567 O 60.0919 4.26937 -3.41156 0
M  V30 568 H 57.1859 0.667664 -0.48801 0
M  V30 569 H 59.7319 0.792083 -1.5008 0
M  V30 570 H 58.5039 2.11362 -3.29305 0
M  V30 571 H 58.1269 3.36408 -2.11933 0
M  V30 572 N 59.124 1.23083 0.984299 0
M  V30 573 C 60.349 1.088 1.76571 0
M  V30 574 C 60.774 -0.356657 1.84688 0
M  V30 575 O 60.132 -1.25788 1.30565 0
M  V30 576 C 60.18 1.71371 3.17277 0
M  V30 577 O 59.284 0.973213 4.00752 0
M  V30 578 H 58.625 0.381599 0.543395 0
M  V30 579 H 61.155 1.63057 1.23587 0
M  V30 580 H 61.165 1.76449 3.67872 0
M  V30 581 H 59.84 2.76493 3.10684 0
M  V30 582 H 58.417 0.999078 3.59267 0
M  V30 583 N 60.6021 -1.18246 1.0419 0
M  V30 584 C 61.8501 -1.87886 0.744543 0
M  V30 585 C 62.1711 -1.8082 -0.730006 0
M  V30 586 O 61.4411 -1.22736 -1.52685 0
M  V30 587 H 60.0211 -0.695556 0.272417 0
M  V30 588 H 62.6831 -1.43494 1.31892 0
M  V30 589 H 61.7791 -2.9389 1.05049 0
M  V30 590 N 62.0802 -0.821533 -1.34494 0
M  V30 591 C 63.3202 -0.414785 -2.00147 0
M  V30 592 C 63.6842 1.00299 -1.6372 0
M  V30 593 O 64.8852 1.51255 -2.22206 0
M  V30 594 C 63.1562 -0.609403 -3.52166 0
M  V30 595 S 64.7152 -0.295297 -4.37805 0
M  V30 596 H 61.5332 -0.15679 -0.693497 0
M  V30 597 H 64.1352 -1.06705 -1.63812 0
M  V30 598 H 62.8392 -1.64096 -3.76166 0
M  V30 599 H 62.3702 0.0576414 -3.93358 0
M  V30 600 H 64.3852 0.891531 -4.88125 0
M  V30 601 N 63.5583 1.46682 -0.576371 0
M  V30 602 C 64.9743 1.57822 -0.237562 0
M  V30 603 C 65.1743 1.57237 1.26011 0
M  V30 604 O 64.2303 1.48596 2.04146 0
M  V30 605 C 65.5433 2.87499 -0.881168 0
M  V30 606 C 67.0913 3.01119 -0.85417 0
M  V30 607 C 67.5663 4.33524 -1.4772 0
M  V30 608 N 69.0573 4.40207 -1.44125 0
M  V30 609 C 69.7923 5.4126 -1.89276 0
M  V30 610 N 69.2883 6.49021 -2.42371 0
M  V30 611 N 71.0813 5.32422 -1.80231 0
M  V30 612 H 63.2323 1.45306 -1.54919 0
M  V30 613 H 65.4953 0.692733 -0.647167 0
M  V30 614 H 65.2013 2.9372 -1.93447 0
M  V30 615 H 65.0753 3.75224 -0.385592 0
M  V30 616 H 67.4623 2.94485 0.190491 0
M  V30 617 H 67.5433 2.14887 -1.3877 0
M  V30 618 H 67.1873 4.40916 -2.52103 0
M  V30 619 H 67.1173 5.1852 -0.918947 0
M  V30 620 H 69.6083 3.62931 -1.05307 0
M  V30 621 H 69.9213 7.2233 -2.74698 0
M  V30 622 H 68.2663 6.49858 -2.46393 0
M  V30 623 H 71.4573 4.47137 -1.38514 0
M  V30 624 H 71.6303 6.11034 -2.15735 0
M  V30 625 N 65.0364 0.313813 1.54444 0
M  V30 626 C 66.2844 -0.291099 1.99993 0
M  V30 627 C 66.6054 -1.53418 1.20366 0
M  V30 628 O 65.8754 -1.93544 0.302927 0
M  V30 629 H 64.4554 -0.110552 0.738774 0
M  V30 630 H 67.1174 0.428106 1.9014 0
M  V30 631 H 66.2134 -0.554268 3.07139 0
M  V30 632 N 66.5145 -1.57545 0.0417849 0
M  V30 633 C 67.7545 -1.94185 -0.63809 0
M  V30 634 C 68.1185 -0.919339 -1.68559 0
M  V30 635 O 69.3195 -1.17236 -2.41886 0
M  V30 636 C 67.5905 -3.35672 -1.22714 0
M  V30 637 S 69.1495 -3.94256 -1.92633 0
M  V30 638 H 65.9675 -0.679353 -0.209764 0
M  V30 639 H 68.5695 -1.95199 0.108479 0
M  V30 640 H 67.2735 -4.07898 -0.452503 0
M  V30 641 H 66.8045 -3.38132 -2.01073 0
M  V30 642 H 68.8195 -3.7872 -3.20602 0
M  V30 643 N 67.9926 0.231505 -1.5589 0
M  V30 644 C 69.2386 0.954429 -1.79617 0
M  V30 645 C 69.5936 1.82367 -0.613199 0
M  V30 646 O 68.8866 1.87524 0.393094 0
M  V30 647 C 69.0806 1.83577 -3.0665 0
M  V30 648 C 68.9096 1.05334 -4.3719 0
M  V30 649 C 67.6796 0.75225 -4.99669 0
M  V30 650 C 69.8776 0.423444 -5.12554 0
M  V30 651 N 67.8596 -0.052627 -6.13877 0
M  V30 652 C 69.2306 -0.245287 -6.19515 0
M  V30 653 C 71.2856 0.335466 -4.96769 0
M  V30 654 C 69.9886 -0.993566 -7.12405 0
M  V30 655 C 72.0146 -0.399321 -5.9005 0
M  V30 656 C 71.3766 -1.05663 -6.9643 0
M  V30 657 H 67.4756 0.329846 -0.709031 0
M  V30 658 H 70.0596 0.226172 -1.93382 0
M  V30 659 H 68.2306 2.53592 -2.94186 0
M  V30 660 H 69.9626 2.49541 -3.18608 0
M  V30 661 H 66.7176 1.06783 -4.61405 0
M  V30 662 H 67.1416 -0.443609 -6.75545 0
M  V30 663 H 71.7836 0.829311 -4.14587 0
M  V30 664 H 69.5016 -1.49896 -7.94076 0
M  V30 665 H 73.0876 -0.468265 -5.79913 0
M  V30 666 H 71.9676 -1.61612 -7.67366 0
M  V30 667 N 69.4707 1.49531 0.497807 0
M  V30 668 C 70.7187 1.58865 1.24926 0
M  V30 669 C 71.0397 0.278721 1.92998 0
M  V30 670 O 70.3097 -0.702144 1.82885 0
M  V30 671 H 68.8897 0.585343 0.464094 0
M  V30 672 H 71.5517 1.86174 0.57666 0
M  V30 673 H 70.6477 2.38633 2.01149 0
M  V30 674 N 70.9488 -0.749086 1.3866 0
M  V30 675 C 72.2258 -1.4992 1.25632 0
M  V30 676 C 72.6058 -2.10633 -0.140317 0
M  V30 677 O 71.9538 -1.97437 -1.15025 0
M  V30 678 C 72.1638 -2.56195 2.36992 0
M  V30 679 C 73.5118 -3.22972 2.75634 0
M  V30 680 O 74.5358 -2.66502 2.36337 0
M  V30 681 O 73.3948 -4.25122 3.43415 0
M  V30 682 H 70.4888 -0.665067 0.491544 0
M  V30 683 H 73.0348 -0.784113 1.50498 0
M  V30 684 H 71.8068 -2.09612 3.30422 0
M  V30 685 H 71.4298 -3.35279 2.13714 0
M  V30 686 N 72.4269 -1.23603 -0.977757 0
M  V30 687 C 73.3569 -1.04401 -2.0886 0
M  V30 688 C 74.3379 0.0399052 -1.70053 0
M  V30 689 O 75.5229 -0.125246 -1.93796 0
M  V30 690 C 72.6529 -0.637269 -3.41403 0
M  V30 691 C 71.6069 -1.66883 -3.94124 0
M  V30 692 C 70.9329 -1.11745 -5.22893 0
M  V30 693 C 72.2329 -3.06247 -4.23096 0
M  V30 694 H 73.9269 -1.97316 -2.25182 0
M  V30 695 H 71.4729 -0.950096 -1.08209 0
M  V30 696 H 73.4259 -0.48998 -4.18542 0
M  V30 697 H 72.1499 0.327557 -3.24953 0
M  V30 698 H 70.8089 -1.80416 -3.19133 0
M  V30 699 H 70.4569 -0.143527 -5.02795 0
M  V30 700 H 70.1569 -1.80672 -5.59134 0
M  V30 701 H 71.6809 -0.982067 -6.02651 0
M  V30 702 H 73.0949 -2.96001 -4.90975 0
M  V30 703 H 71.4919 -3.72436 -4.70544 0
M  V30 704 H 72.5619 -3.55041 -3.30263 0
M  V30 705 N 73.905 1.17692 -1.04816 0
M  V30 706 C 75.151 1.88137 -0.75711 0
M  V30 707 C 75.484 1.80604 0.713841 0
M  V30 708 O 74.759 1.21146 1.52164 0
M  V30 709 C 75.042 3.38318 -1.2334 0
M  V30 710 C 74.895 3.54622 -2.76701 0
M  V30 711 C 76.214 4.32214 -0.829415 0
M  V30 712 H 73.333 0.683163 -0.27651 0
M  V30 713 H 75.975 1.38424 -1.30149 0
M  V30 714 H 74.125 3.80787 -0.770286 0
M  V30 715 H 75.797 3.21194 -3.31107 0
M  V30 716 H 74.04 2.97026 -3.16161 0
M  V30 717 H 74.711 4.60028 -3.05088 0
M  V30 718 H 77.187 3.97565 -1.22805 0
M  V30 719 H 76.063 5.35838 -1.19033 0
M  V30 720 H 76.324 4.41294 0.266891 0
M  V30 721 N 75.3831 0.828654 1.34056 0
M  V30 722 C 76.3131 0.269443 2.3194 0
M  V30 723 C 77.2941 -0.617247 1.58506 0
M  V30 724 O 78.4791 -0.542931 1.86456 0
M  V30 725 C 75.6091 -0.564793 3.42677 0
M  V30 726 C 74.5631 0.225241 4.27407 0
M  V30 727 C 73.8891 -0.7321 5.29664 0
M  V30 728 C 75.1891 1.43663 5.02154 0
M  V30 729 H 76.8831 1.08728 2.7896 0
M  V30 730 H 74.4291 0.524283 1.34117 0
M  V30 731 H 76.3821 -0.966233 4.10173 0
M  V30 732 H 75.1061 -1.41574 2.9432 0
M  V30 733 H 73.7651 0.608117 3.61521 0
M  V30 734 H 73.4131 -1.57916 4.77568 0
M  V30 735 H 73.1131 -0.20767 5.87233 0
M  V30 736 H 74.6371 -1.13128 6.00029 0
M  V30 737 H 76.0511 1.1089 5.62473 0
M  V30 738 H 74.4481 1.89711 5.69324 0
M  V30 739 H 75.5181 2.21181 4.31517 0
M  V30 740 N 76.8612 -1.46375 0.584142 0
M  V30 741 C 77.7932 -2.28443 -0.186119 0
M  V30 742 C 78.8062 -1.38596 -0.854115 0
M  V30 743 O 79.9952 -1.63183 -0.723438 0
M  V30 744 C 77.0952 -3.13671 -1.28311 0
M  V30 745 C 76.2682 -4.31652 -0.706758 0
M  V30 746 C 75.3272 -4.98267 -1.69163 0
M  V30 747 O 74.3532 -5.55815 -1.22712 0
M  V30 748 N 75.5552 -4.95408 -3.02575 0
M  V30 749 H 78.3202 -2.9519 0.517986 0
M  V30 750 H 75.8812 -1.56303 0.42201 0
M  V30 751 H 77.8732 -3.55101 -1.94128 0
M  V30 752 H 76.4432 -2.48989 -1.89005 0
M  V30 753 H 75.6632 -3.93989 0.128908 0
M  V30 754 H 76.9512 -5.07906 -0.301506 0
M  V30 755 H 76.3492 -4.49902 -3.42936 0
M  V30 756 H 74.9062 -5.40774 -3.63877 0
M  V30 757 N 78.3393 -0.321999 -1.54275 0
M  V30 758 C 79.7503 0.166384 -1.85957 0
M  V30 759 C 80.1013 1.51747 -1.24367 0
M  V30 760 O 79.2263 2.09317 -0.549124 0
M  V30 761 C 79.8213 0.308681 -3.37391 0
M  V30 762 C 78.3803 0.741286 -3.69028 0
M  V30 763 C 77.5273 -0.137937 -2.76957 0
M  V30 764 H 80.4783 -0.542335 -1.49146 0
M  V30 765 H 80.4993 1.13984 -3.63026 0
M  V30 766 H 80.0113 -0.674809 -3.82188 0
M  V30 767 H 78.1123 1.73458 -3.29762 0
M  V30 768 H 78.2253 0.546118 -4.75977 0
M  V30 769 H 76.5893 0.386251 -2.51754 0
M  V30 770 H 77.3723 -1.11816 -3.2458 0
M  V30 771 N 79.8174 1.5752 -0.0501392 0
M  V30 772 C 80.7474 2.14502 0.922566 0
M  V30 773 C 81.7284 1.06642 1.3252 0
M  V30 774 O 82.9134 1.34577 1.4001 0
M  V30 775 C 80.0434 2.68916 2.19776 0
M  V30 776 C 78.9974 3.8175 1.93523 0
M  V30 777 C 78.3234 4.22677 3.27487 0
M  V30 778 C 79.6234 5.06932 1.25765 0
M  V30 779 H 81.3174 2.9603 0.447952 0
M  V30 780 H 78.8634 1.42401 0.214024 0
M  V30 781 H 80.8164 3.07419 2.88222 0
M  V30 782 H 79.5404 1.84578 2.69441 0
M  V30 783 H 78.1994 3.43718 1.27489 0
M  V30 784 H 77.8474 3.35291 3.74952 0
M  V30 785 H 77.5474 4.98725 3.1072 0
M  V30 786 H 79.0714 4.63779 3.97166 0
M  V30 787 H 80.4854 5.42888 1.84244 0
M  V30 788 H 78.8824 5.88116 1.19328 0
M  V30 789 H 79.9524 4.84337 0.233536 0
M  V30 790 N 81.2955 -0.223234 1.56011 0
M  V30 791 C 82.7115 -0.572856 1.48965 0
M  V30 792 C 82.9115 -1.87225 0.74492 0
M  V30 793 O 81.9675 -2.50899 0.283896 0
M  V30 794 C 83.2805 -0.653646 2.9351 0
M  V30 795 C 84.8285 -0.744386 3.0402 0
M  V30 796 C 85.3035 -0.856535 4.49919 0
M  V30 797 N 86.7945 -0.9208 4.53955 0
M  V30 798 C 87.5295 -1.02726 5.64123 0
M  V30 799 N 87.0255 -1.09777 6.84047 0
M  V30 800 N 88.8185 -1.06226 5.51971 0
M  V30 801 H 80.9695 0.629462 2.02858 0
M  V30 802 H 83.2325 0.220621 0.921971 0
M  V30 803 H 82.9385 0.231518 3.50937 0
M  V30 804 H 82.8125 -1.51781 3.45315 0
M  V30 805 H 85.1995 -1.61999 2.46658 0
M  V30 806 H 85.2805 0.14541 2.55386 0
M  V30 807 H 84.9245 0.0146069 5.07898 0
M  V30 808 H 84.8545 -1.76172 4.96257 0
M  V30 809 H 87.3455 -0.876694 3.6759 0
M  V30 810 H 87.6585 -1.17872 7.63758 0
M  V30 811 H 86.0035 -1.06693 6.86762 0
M  V30 812 H 89.1945 -1.00382 4.5721 0
M  V30 813 H 89.3675 -1.14177 6.37862 0
M  V30 814 N 82.7736 -1.49793 -0.48987 0
M  V30 815 C 83.9986 -1.63836 -1.27172 0
M  V30 816 C 84.4236 -0.31402 -1.8546 0
M  V30 817 O 83.7816 0.719803 -1.66399 0
M  V30 818 C 83.8296 -2.71797 -2.36978 0
M  V30 819 O 82.9336 -2.31744 -3.41128 0
M  V30 820 H 82.2746 -0.547997 -0.37496 0
M  V30 821 H 84.8046 -1.96053 -0.585191 0
M  V30 822 H 84.8146 -2.94305 -2.82575 0
M  V30 823 H 83.4896 -3.67923 -1.93921 0
M  V30 824 H 82.0666 -2.1961 -3.01373 0
M  V30 825 N 84.2517 0.741722 -1.39055 0
M  V30 826 C 85.4767 1.53607 -1.39354 0
M  V30 827 C 85.9017 1.88096 0.0116905 0
M  V30 828 O 85.2597 1.5143 0.996924 0
M  V30 829 C 85.3077 2.80441 -2.26682 0
M  V30 830 O 84.4117 3.76088 -1.69208 0
M  V30 831 H 83.7527 0.464142 -0.474835 0
M  V30 832 H 86.2827 0.915665 -1.82967 0
M  V30 833 H 86.2927 3.29246 -2.40959 0
M  V30 834 H 84.9677 2.5467 -3.2881 0
M  V30 835 H 83.5447 3.34833 -1.64138 0
M  V30 836 N 85.7298 1.2412 0.971189 0
M  V30 837 C 87.1458 1.00584 1.23916 0
M  V30 838 C 87.3458 -0.287481 1.99439 0
M  V30 839 O 86.4018 -1.00454 2.31658 0
M  V30 840 C 87.7148 2.21864 2.0297 0
M  V30 841 C 89.2628 2.26452 2.16076 0
M  V30 842 C 89.7378 3.47343 2.98524 0
M  V30 843 N 91.2288 3.47639 3.06107 0
M  V30 844 C 91.9638 4.37837 3.70251 0
M  V30 845 N 91.4598 5.38286 4.36142 0
M  V30 846 N 93.2528 4.25558 3.67228 0
M  V30 847 H 85.4038 2.07236 0.465499 0
M  V30 848 H 87.6668 0.909236 0.268315 0
M  V30 849 H 87.3728 3.15771 1.54861 0
M  V30 850 H 87.2468 2.23698 3.03709 0
M  V30 851 H 89.6338 1.33078 2.6339 0
M  V30 852 H 89.7148 2.28645 1.14696 0
M  V30 853 H 89.3588 4.41029 2.51905 0
M  V30 854 H 89.2888 3.42393 4.00093 0
M  V30 855 H 91.7798 2.74966 2.59233 0
M  V30 856 H 92.0928 6.03352 4.82894 0
M  V30 857 H 90.4378 5.42176 4.34822 0
M  V30 858 H 93.6288 3.46322 3.14927 0
M  V30 859 H 93.8018 4.96054 4.16935 0
M  V30 860 N 87.2079 -1.17134 1.05439 0
M  V30 861 C 88.1549 -2.21235 0.657539 0
M  V30 862 C 89.1249 -1.62551 -0.341543 0
M  V30 863 O 90.3099 -1.89379 -0.232393 0
M  V30 864 C 87.4499 -3.45076 0.0410575 0
M  V30 865 C 86.5629 -4.18042 1.08927 0
M  V30 866 C 85.6979 -5.29376 0.439848 0
M  V30 867 C 84.7369 -5.94132 1.4722 0
M  V30 868 N 83.8739 -6.96975 0.846756 0
M  V30 869 H 88.7139 -2.54534 1.54972 0
M  V30 870 H 86.2509 -1.25028 0.775006 0
M  V30 871 H 88.2089 -4.15862 -0.33383 0
M  V30 872 H 86.8389 -3.12353 -0.814568 0
M  V30 873 H 85.8909 -3.45945 1.58196 0
M  V30 874 H 87.2029 -4.62306 1.87282 0
M  V30 875 H 86.3569 -6.06699 0.0115125 0
M  V30 876 H 85.0959 -4.86251 -0.375656 0
M  V30 877 H 84.1009 -5.15538 1.91052 0
M  V30 878 H 85.3259 -6.39337 2.28965 0
M  V30 879 H 83.2719 -6.5598 0.0518075 0
M  V30 880 H 83.1889 -7.39565 1.5678 0
M  V30 881 H 84.4569 -7.78239 0.443277 0
M  V30 882 N 88.686 -0.835752 -1.33615 0
M  V30 883 C 89.616 -0.281739 -2.31794 0
M  V30 884 C 90.597 0.608833 -1.58831 0
M  V30 885 O 91.782 0.533035 -1.86741 0
M  V30 886 C 88.912 0.546612 -3.42971 0
M  V30 887 C 87.866 -0.247904 -4.27281 0
M  V30 888 C 87.192 0.704001 -5.30045 0
M  V30 889 C 88.492 -1.46324 -5.01385 0
M  V30 890 H 90.186 -1.10206 -2.78379 0
M  V30 891 H 87.732 -0.531388 -1.33837 0
M  V30 892 H 89.685 0.944467 -4.1068 0
M  V30 893 H 88.409 1.40011 -2.95067 0
M  V30 894 H 87.068 -0.627281 -3.61194 0
M  V30 895 H 86.716 1.55381 -4.78399 0
M  V30 896 H 86.416 0.176524 -5.87335 0
M  V30 897 H 87.94 1.09944 -6.0062 0
M  V30 898 H 89.354 -1.13871 -5.61877 0
M  V30 899 H 87.751 -1.92728 -5.6831 0
M  V30 900 H 88.821 -2.23467 -4.30338 0
M  V30 901 N 90.1641 1.46063 -0.591896 0
M  V30 902 C 91.3891 2.07226 -0.0850314 0
M  V30 903 C 91.8141 1.43625 1.21463 0
M  V30 904 O 91.1721 0.523305 1.73583 0
M  V30 905 C 91.2201 3.60554 0.0576567 0
M  V30 906 O 90.3241 3.97128 1.11188 0
M  V30 907 H 89.6651 0.660615 -0.0669568 0
M  V30 908 H 92.1951 1.8756 -0.81745 0
M  V30 909 H 92.2051 4.07165 0.2609 0
M  V30 910 H 90.8801 4.06235 -0.891416 0
M  V30 911 H 89.4571 3.62213 0.886356 0
M  V30 912 N 91.6422 0.330177 1.54103 0
M  V30 913 C 92.8672 -0.274893 2.0557 0
M  V30 914 C 93.2922 -1.44487 1.20437 0
M  V30 915 O 92.6502 -1.80021 0.214991 0
M  V30 916 C 92.6982 -0.68079 3.54115 0
M  V30 917 O 91.8022 -1.7824 3.71893 0
M  V30 918 H 91.1432 -0.0483849 0.662235 0
M  V30 919 H 93.6732 0.480508 1.98878 0
M  V30 920 H 93.6832 -0.961635 3.96505 0
M  V30 921 H 92.3582 0.174903 4.15532 0
M  V30 922 H 90.9352 -1.49985 3.41407 0
M  V30 923 N 93.1203 -1.57491 0.0584922 0
M  V30 924 C 94.0833 -2.1085 -0.898617 0
M  V30 925 C 95.0833 -1.02964 -1.23511 0
M  V30 926 O 96.2733 -1.29007 -1.17059 0
M  V30 927 C 93.4053 -2.59881 -2.20623 0
M  V30 928 H 94.5983 -2.96715 -0.435936 0
M  V30 929 H 92.1513 -1.55141 -0.190023 0
M  V30 930 H 92.8863 -1.77431 -2.71457 0
M  V30 931 H 92.6713 -3.38727 -1.97501 0
M  V30 932 H 94.1613 -3.01285 -2.89166 0
M  V30 933 N 94.5984 0.214957 -1.56127 0
M  V30 934 C 95.5284 1.2695 -1.95974 0
M  V30 935 C 96.5094 1.48539 -0.828868 0
M  V30 936 O 97.6944 1.60611 -1.09168 0
M  V30 937 C 94.8244 2.61794 -2.28214 0
M  V30 938 C 93.7784 2.54851 -3.43853 0
M  V30 939 C 93.1044 3.93785 -3.61715 0
M  V30 940 C 94.4044 2.09065 -4.78632 0
M  V30 941 H 96.0984 0.93846 -2.84312 0
M  V30 942 H 93.6444 0.449996 -1.36788 0
M  V30 943 H 95.5974 3.35731 -2.54682 0
M  V30 944 H 94.3214 2.96599 -1.36736 0
M  V30 945 H 92.9804 1.8337 -3.17444 0
M  V30 946 H 92.6284 4.25908 -2.67602 0
M  V30 947 H 92.3284 3.90019 -4.39498 0
M  V30 948 H 93.8524 4.69374 -3.90539 0
M  V30 949 H 95.2664 2.7275 -5.04262 0
M  V30 950 H 93.6634 2.16346 -5.59745 0
M  V30 951 H 94.7334 1.04315 -4.73547 0
M  V30 952 N 96.0765 1.50051 0.48192 0
M  V30 953 C 97.3165 1.62128 1.24474 0
M  V30 954 C 97.6805 0.309742 1.89485 0
M  V30 955 O 98.8815 0.305854 2.67054 0
M  V30 956 C 97.1525 2.76151 2.26882 0
M  V30 957 S 98.7115 3.08297 3.12247 0
M  V30 958 H 95.5295 0.571661 0.422759 0
M  V30 959 H 98.1315 1.87791 0.54359 0
M  V30 960 H 96.8355 3.69942 1.77683 0
M  V30 961 H 96.3665 2.52541 3.0164 0
M  V30 962 H 98.3815 2.51287 4.27866 0
M  V30 963 N 97.5546 -0.734337 1.39446 0
M  V30 964 C 98.5176 -1.83004 1.37994 0
M  V30 965 C 99.5176 -1.58397 0.276938 0
M  V30 966 O 100.708 -1.65785 0.534875 0
M  V30 967 C 97.8396 -3.20802 1.1532 0
M  V30 968 H 99.0326 -1.85694 2.35494 0
M  V30 969 H 96.5856 -0.938059 1.25021 0
M  V30 970 H 97.3206 -3.23772 0.185036 0
M  V30 971 H 97.1056 -3.4006 1.95197 0
M  V30 972 H 98.5956 -4.00862 1.17046 0
M  V30 973 N 99.0327 -1.24633 -0.964593 0
M  V30 974 C 100.281 -1.08573 -1.70459 0
M  V30 975 C 100.602 0.375655 -1.91347 0
M  V30 976 O 99.8717 1.26779 -1.49345 0
M  V30 977 H 98.4517 -0.398784 -0.631649 0
M  V30 978 H 101.114 -1.56601 -1.16026 0
M  V30 979 H 100.21 -1.58623 -2.68785 0
M  V30 980 N 100.511 1.16574 -1.06058 0
M  V30 981 C 101.736 1.91493 -0.796562 0
M  V30 982 C 102.161 1.76773 0.642868 0
M  V30 983 O 101.519 1.09142 1.44768 0
M  V30 984 C 101.567 3.40293 -1.19303 0
M  V30 985 O 100.671 4.11074 -0.330394 0
M  V30 986 H 100.012 0.596678 -0.291326 0
M  V30 987 H 102.542 1.47708 -1.41575 0
M  V30 988 H 102.552 3.91057 -1.16356 0
M  V30 989 H 101.227 3.50326 -2.24153 0
M  V30 990 H 99.8038 3.70513 -0.421225 0
M  V30 991 N 101.989 0.842826 1.3317 0
M  V30 992 C 102.919 0.294028 2.31641 0
M  V30 993 C 103.9 -0.600401 1.59151 0
M  V30 994 O 105.085 -0.523124 1.87022 0
M  V30 995 C 102.215 -0.528416 3.43257 0
M  V30 996 C 101.169 0.27056 4.27144 0
M  V30 997 C 100.495 -0.675881 5.30411 0
M  V30 998 C 101.795 1.48981 5.00602 0
M  V30 999 H 103.489 1.11681 2.77791 0
M  V30 1000 H 101.035 0.538478 1.33553 0
M  V30 1001 H 102.988 -0.922674 4.11175 0
M  V30 1002 H 101.712 -1.38445 2.95805 0
M  V30 1003 H 100.371 0.646427 3.60856 0
M  V30 1004 H 100.019 -1.52842 4.79216 0
M  V30 1005 H 99.7189 -0.145374 5.8742 0
M  V30 1006 H 101.243 -1.06757 6.01195 0
M  V30 1007 H 102.657 1.16849 5.61266 0
M  V30 1008 H 101.054 1.95739 5.6728 0
M  V30 1009 H 102.124 2.25746 4.29147 0
M  V30 1010 N 103.467 -1.45747 0.599634 0
M  V30 1011 C 104.692 -2.07178 0.0960198 0
M  V30 1012 C 105.117 -1.44268 -1.207 0
M  V30 1013 O 104.475 -0.532503 -1.73303 0
M  V30 1014 C 104.523 -3.60579 -0.0385348 0
M  V30 1015 O 103.627 -3.97713 -1.0908 0
M  V30 1016 H 102.968 -0.660251 0.0704593 0
M  V30 1017 H 105.498 -1.87124 0.827385 0
M  V30 1018 H 105.508 -4.07298 -0.239304 0
M  V30 1019 H 104.183 -4.05756 0.912947 0
M  V30 1020 H 102.76 -3.62678 -0.867135 0
M  V30 1021 N 104.945 -0.338344 -1.53925 0
M  V30 1022 C 106.192 0.259758 -2.00827 0
M  V30 1023 C 106.52 1.50973 -1.22628 0
M  V30 1024 O 105.775 1.93379 -0.300509 0
M  V30 1025 C 106.074 0.62448 -3.51902 0
M  V30 1026 C 105.74 -0.528006 -4.47798 0
M  V30 1027 C 104.402 -0.844298 -4.73735 0
M  V30 1028 C 106.754 -1.30143 -5.0469 0
M  V30 1029 C 104.082 -1.93648 -5.53821 0
M  V30 1030 C 106.434 -2.38382 -5.85967 0
M  V30 1031 C 105.098 -2.70576 -6.10201 0
M  V30 1032 H 104.368 0.0950523 -0.734878 0
M  V30 1033 H 107.015 -0.465182 -1.85764 0
M  V30 1034 H 105.32 1.43006 -3.64769 0
M  V30 1035 H 107.017 1.09905 -3.85645 0
M  V30 1036 H 103.607 -0.271421 -4.2774 0
M  V30 1037 H 107.791 -1.07033 -4.84621 0
M  V30 1038 H 103.047 -2.19021 -5.70824 0
M  V30 1039 H 107.221 -2.98746 -6.29066 0
M  V30 1040 H 104.848 -3.55333 -6.72044 0
M  V30 1041 N 106.423 1.57458 -0.0668435 0
M  V30 1042 C 107.353 2.15468 0.899764 0
M  V30 1043 C 108.334 1.08042 1.31381 0
M  V30 1044 O 109.519 1.36054 1.38574 0
M  V30 1045 C 106.649 2.71232 2.16911 0
M  V30 1046 C 105.603 3.83781 1.89463 0
M  V30 1047 C 104.929 4.26127 3.22986 0
M  V30 1048 C 106.229 5.08238 1.20381 0
M  V30 1049 H 107.923 2.96488 0.416529 0
M  V30 1050 H 105.469 1.4262 0.198908 0
M  V30 1051 H 107.422 3.10458 2.84945 0
M  V30 1052 H 106.146 1.87426 2.67468 0
M  V30 1053 H 104.805 3.45051 1.23836 0
M  V30 1054 H 104.453 3.39249 3.71374 0
M  V30 1055 H 104.153 5.01993 3.05413 0
M  V30 1056 H 105.677 4.67966 3.92225 0
M  V30 1057 H 107.091 5.44811 1.78475 0
M  V30 1058 H 105.488 5.89349 1.13083 0
M  V30 1059 H 106.558 4.84558 0.182153 0
M  V30 1060 N 107.901 -0.206675 1.56239 0
M  V30 1061 C 108.831 -1.25909 1.96645 0
M  V30 1062 C 109.812 -1.48097 0.836734 0
M  V30 1063 O 110.997 -1.6003 1.10019 0
M  V30 1064 C 108.127 -2.6058 2.29599 0
M  V30 1065 C 107.081 -2.53024 3.452 0
M  V30 1066 C 106.407 -3.91861 3.63798 0
M  V30 1067 C 107.707 -2.06524 4.79734 0
M  V30 1068 H 109.401 -0.923369 2.84806 0
M  V30 1069 H 106.947 -0.442735 1.37025 0
M  V30 1070 H 108.9 -3.34375 2.56459 0
M  V30 1071 H 107.624 -2.95869 1.38307 0
M  V30 1072 H 106.283 -1.81684 3.18412 0
M  V30 1073 H 105.931 -4.24483 2.69857 0
M  V30 1074 H 105.631 -3.87683 4.4156 0
M  V30 1075 H 107.155 -4.67296 3.93022 0
M  V30 1076 H 108.569 -2.70072 5.05702 0
M  V30 1077 H 106.966 -2.13374 5.60885 0
M  V30 1078 H 108.036 -1.01802 4.74093 0
M  V30 1079 N 109.379 -1.50304 -0.473955 0
M  V30 1080 C 110.342 -1.6841 -1.55469 0
M  V30 1081 C 111.342 -0.554905 -1.50922 0
M  V30 1082 O 112.532 -0.821882 -1.53593 0
M  V30 1083 C 109.664 -1.70667 -2.95102 0
M  V30 1084 H 110.857 -2.64828 -1.40733 0
M  V30 1085 H 108.41 -1.39742 -0.700132 0
M  V30 1086 H 109.145 -0.75932 -3.15285 0
M  V30 1087 H 108.93 -2.52698 -2.9981 0
M  V30 1088 H 110.42 -1.8664 -3.73571 0
M  V30 1089 N 110.857 0.726932 -1.39834 0
M  V30 1090 C 111.787 1.85405 -1.41941 0
M  V30 1091 C 112.768 1.67751 -0.281728 0
M  V30 1092 O 113.953 1.8795 -0.488717 0
M  V30 1093 C 111.083 3.23243 -1.2701 0
M  V30 1094 C 110.037 3.55549 -2.38262 0
M  V30 1095 C 109.363 4.9241 -2.08415 0
M  V30 1096 C 110.663 3.577 -3.80589 0
M  V30 1097 H 112.357 1.83899 -2.36266 0
M  V30 1098 H 109.903 0.883349 -1.13723 0
M  V30 1099 H 111.856 4.01775 -1.27103 0
M  V30 1100 H 110.58 3.25296 -0.291564 0
M  V30 1101 H 109.239 2.79351 -2.37399 0
M  V30 1102 H 108.887 4.91052 -1.0898 0
M  V30 1103 H 108.587 5.14992 -2.82943 0
M  V30 1104 H 110.111 5.73289 -2.10171 0
M  V30 1105 H 111.525 4.26293 -3.83337 0
M  V30 1106 H 109.922 3.91804 -4.54543 0
M  V30 1107 H 110.992 2.57328 -4.10987 0
M  V30 1108 N 112.336 1.25143 0.95797 0
M  V30 1109 C 113.266 1.07711 2.07173 0
M  V30 1110 C 114.247 -0.0128462 1.70095 0
M  V30 1111 O 115.432 0.156061 1.93572 0
M  V30 1112 C 112.562 0.691503 3.40346 0
M  V30 1113 C 111.516 1.73132 3.9142 0
M  V30 1114 C 110.842 1.20049 5.21049 0
M  V30 1115 C 112.142 3.1294 4.1817 0
M  V30 1116 H 113.836 2.00873 2.22014 0
M  V30 1117 H 111.382 0.967191 1.06684 0
M  V30 1118 H 113.335 0.556505 4.17709 0
M  V30 1119 H 112.059 -0.275819 3.25433 0
M  V30 1120 H 110.718 1.8547 3.16222 0
M  V30 1121 H 110.366 0.223499 5.02503 0
M  V30 1122 H 110.066 1.89545 5.56189 0
M  V30 1123 H 111.59 1.07782 6.01012 0
M  V30 1124 H 113.004 3.03775 4.86203 0
M  V30 1125 H 111.401 3.79875 4.64559 0
M  V30 1126 H 112.471 3.6025 3.24573 0
M  V30 1127 N 113.814 -1.1601 1.06675 0
M  V30 1128 C 115.06 -1.86909 0.786945 0
M  V30 1129 C 115.393 -1.81717 -0.685018 0
M  V30 1130 O 114.668 -1.23551 -1.50218 0
M  V30 1131 C 114.951 -3.36313 1.28707 0
M  V30 1132 C 114.804 -3.50175 2.82308 0
M  V30 1133 C 116.123 -4.3084 0.898071 0
M  V30 1134 H 113.242 -0.678677 0.287343 0
M  V30 1135 H 115.884 -1.36336 1.32334 0
M  V30 1136 H 114.034 -3.79513 0.830768 0
M  V30 1137 H 115.706 -3.15886 3.36175 0
M  V30 1138 H 113.949 -2.91959 3.20847 0
M  V30 1139 H 114.62 -4.55116 3.12368 0
M  V30 1140 H 117.096 -3.95561 1.29114 0
M  V30 1141 H 115.972 -5.33876 1.27543 0
M  V30 1142 H 116.233 -4.41662 -0.196651 0
M  V30 1143 N 115.292 -0.849877 -1.32721 0
M  V30 1144 C 116.708 -0.539102 -1.50219 0
M  V30 1145 C 116.908 0.931271 -1.78689 0
M  V30 1146 O 115.964 1.71455 -1.85363 0
M  V30 1147 C 117.277 -1.42196 -2.64954 0
M  V30 1148 C 118.825 -1.42189 -2.78839 0
M  V30 1149 C 119.3 -2.28985 -3.96648 0
M  V30 1150 N 120.791 -2.26754 -4.03902 0
M  V30 1151 C 121.526 -2.90644 -4.94281 0
M  V30 1152 N 121.022 -3.63629 -5.897 0
M  V30 1153 N 122.815 -2.80057 -4.87365 0
M  V30 1154 H 114.966 -1.80156 -1.12506 0
M  V30 1155 H 117.229 -0.769217 -0.554085 0
M  V30 1156 H 116.935 -2.46733 -2.50631 0
M  V30 1157 H 116.809 -1.10591 -3.60624 0
M  V30 1158 H 119.196 -0.38419 -2.92588 0
M  V30 1159 H 119.277 -1.77807 -1.83898 0
M  V30 1160 H 118.921 -3.32819 -3.83658 0
M  V30 1161 H 118.851 -1.90702 -4.90857 0
M  V30 1162 H 121.342 -1.73688 -3.3562 0
M  V30 1163 H 121.655 -4.09558 -6.55349 0
M  V30 1164 H 120 -3.67737 -5.89741 0
M  V30 1165 H 123.191 -2.22593 -4.11789 0
M  V30 1166 H 123.364 -3.30132 -5.57599 0
M  V30 1167 N 116.77 1.45427 -0.607355 0
M  V30 1168 C 117.7 2.3329 0.0989352 0
M  V30 1169 C 118.681 1.46816 0.859007 0
M  V30 1170 O 119.866 1.75588 0.829604 0
M  V30 1171 C 116.996 3.29518 1.09705 0
M  V30 1172 C 115.95 4.25626 0.450206 0
M  V30 1173 C 115.276 5.11542 1.55655 0
M  V30 1174 C 116.576 5.18505 -0.628455 0
M  V30 1175 H 118.27 2.92595 -0.634716 0
M  V30 1176 H 115.816 1.40696 -0.306681 0
M  V30 1177 H 117.769 3.89855 1.59971 0
M  V30 1178 H 116.493 2.68372 1.86129 0
M  V30 1179 H 115.152 3.66586 -0.0315886 0
M  V30 1180 H 114.8 4.46765 2.31107 0
M  V30 1181 H 114.5 5.76647 1.12925 0
M  V30 1182 H 116.024 5.74748 2.06148 0
M  V30 1183 H 117.438 5.72916 -0.209877 0
M  V30 1184 H 115.835 5.92085 -0.977489 0
M  V30 1185 H 116.905 4.60948 -1.50514 0
M  V30 1186 N 118.248 0.346503 1.53744 0
M  V30 1187 C 119.494 -0.249473 2.0126 0
M  V30 1188 C 119.827 -1.49965 1.23386 0
M  V30 1189 O 119.102 -1.91811 0.32229 0
M  V30 1190 C 119.385 -0.560643 3.55709 0
M  V30 1191 C 119.238 0.701836 4.44291 0
M  V30 1192 C 120.557 -1.36905 4.18264 0
M  V30 1193 H 117.676 -0.0891987 0.731582 0
M  V30 1194 H 120.318 0.467624 1.84156 0
M  V30 1195 H 118.468 -1.17156 3.70414 0
M  V30 1196 H 120.14 1.33974 4.41417 0
M  V30 1197 H 118.383 1.32612 4.13033 0
M  V30 1198 H 119.054 0.43933 5.50249 0
M  V30 1199 H 121.53 -0.852448 4.07275 0
M  V30 1200 H 120.406 -1.55553 5.26398 0
M  V30 1201 H 120.667 -2.37203 3.73078 0
M  V30 1202 N 119.726 -1.57421 0.075193 0
M  V30 1203 C 121.142 -1.57099 -0.281444 0
M  V30 1204 C 121.342 -1.08486 -1.69803 0
M  V30 1205 O 120.398 -0.752279 -2.41033 0
M  V30 1206 C 121.711 -3.00571 -0.0880041 0
M  V30 1207 C 123.259 -3.12605 -0.157281 0
M  V30 1208 C 123.734 -4.57999 0.0079207 0
M  V30 1209 N 125.225 -4.63176 -0.0475725 0
M  V30 1210 C 125.96 -5.73373 0.0557876 0
M  V30 1211 N 125.456 -6.92473 0.21286 0
M  V30 1212 N 127.249 -5.621 -0.00152098 0
M  V30 1213 H 119.4 -1.87335 1.00098 0
M  V30 1214 H 121.663 -0.86377 0.390646 0
M  V30 1215 H 121.369 -3.40262 0.889629 0
M  V30 1216 H 121.243 -3.67754 -0.838875 0
M  V30 1217 H 123.63 -2.72798 -1.1254 0
M  V30 1218 H 123.711 -2.48053 0.62475 0
M  V30 1219 H 123.355 -4.98496 0.972824 0
M  V30 1220 H 123.285 -5.20586 -0.793556 0
M  V30 1221 H 125.776 -3.7753 -0.167244 0
M  V30 1222 H 126.089 -7.72279 0.283781 0
M  V30 1223 H 124.434 -6.94556 0.248267 0
M  V30 1224 H 127.625 -4.67938 -0.122958 0
M  V30 1225 H 127.798 -6.47948 0.0824844 0
M  V30 1226 N 121.204 0.198386 -1.56346 0
M  V30 1227 C 122.452 0.91747 -1.80075 0
M  V30 1228 C 122.773 1.83929 -0.647692 0
M  V30 1229 O 122.043 1.93029 0.334166 0
M  V30 1230 H 120.623 0.341774 -0.664228 0
M  V30 1231 H 123.285 0.204684 -1.93822 0
M  V30 1232 H 122.381 1.51055 -2.7311 0
M  V30 1233 N 122.682 1.50554 0.465978 0
M  V30 1234 C 123.592 1.72585 1.58907 0
M  V30 1235 C 124.608 0.60911 1.6299 0
M  V30 1236 O 125.784 0.88804 1.80765 0
M  V30 1237 C 122.849 1.81995 2.95091 0
M  V30 1238 C 121.91 3.05751 3.01355 0
M  V30 1239 C 121.143 3.14702 4.31043 0
M  V30 1240 O 121.366 2.30313 5.21835 0
M  V30 1241 O 120.3 4.07468 4.43005 0
M  V30 1242 H 124.126 2.67799 1.43239 0
M  V30 1243 H 121.711 1.34711 0.646013 0
M  V30 1244 H 123.593 1.90335 3.75966 0
M  V30 1245 H 122.268 0.899659 3.10947 0
M  V30 1246 H 121.175 3.02908 2.19539 0
M  V30 1247 H 122.508 3.97375 2.90437 0
M  V30 1248 N 124.16 -0.719506 1.40217 0
M  V30 1249 C 125.406 -1.48152 1.38488 0
M  V30 1250 C 125.739 -1.94195 -0.0141867 0
M  V30 1251 O 125.014 -1.67884 -0.982096 0
M  V30 1252 C 125.297 -2.71035 2.37091 0
M  V30 1253 C 125.15 -2.30912 3.86005 0
M  V30 1254 C 126.469 -3.73182 2.33288 0
M  V30 1255 H 123.588 -0.537395 0.504357 0
M  V30 1256 H 126.23 -0.821472 1.71324 0
M  V30 1257 H 124.38 -3.27352 2.0922 0
M  V30 1258 H 126.052 -1.80107 4.24687 0
M  V30 1259 H 124.295 -1.62958 4.02029 0
M  V30 1260 H 124.966 -3.18978 4.50508 0
M  V30 1261 H 127.442 -3.26485 2.57966 0
M  V30 1262 H 126.318 -4.56806 3.04334 0
M  V30 1263 H 126.579 -4.21202 1.34317 0
M  V30 1264 N 125.638 -1.25649 -0.95132 0
M  V30 1265 C 126.886 -1.10375 -1.69298 0
M  V30 1266 C 127.207 0.355339 -1.91735 0
M  V30 1267 O 126.477 1.25188 -1.50681 0
M  V30 1268 H 125.057 -0.405461 -0.627384 0
M  V30 1269 H 127.719 -1.57823 -1.14358 0
M  V30 1270 H 126.815 -1.61465 -2.67087 0
M  V30 1271 N 127.117 1.15442 -1.07289 0
M  V30 1272 C 128.357 1.8788 -0.805012 0
M  V30 1273 C 128.721 1.80413 0.656907 0
M  V30 1274 O 129.922 2.47874 1.0398 0
M  V30 1275 C 128.193 3.3298 -1.29843 0
M  V30 1276 S 129.752 4.23158 -1.16114 0
M  V30 1277 H 126.57 0.64839 -0.291739 0
M  V30 1278 H 129.172 1.39285 -1.37186 0
M  V30 1279 H 127.876 3.35958 -2.35712 0
M  V30 1280 H 127.407 3.86629 -0.726767 0
M  V30 1281 H 129.422 4.96103 -0.0982778 0
M  V30 1282 N 128.595 0.856903 1.32268 0
M  V30 1283 C 129.872 0.382583 1.91822 0
M  V30 1284 C 130.252 -1.13407 1.78051 0
M  V30 1285 O 129.6 -1.95673 1.18001 0
M  V30 1286 C 129.81 0.849446 3.38505 0
M  V30 1287 C 131.158 0.867936 4.15634 0
M  V30 1288 O 132.182 0.794232 3.47232 0
M  V30 1289 O 131.041 0.972286 5.37781 0
M  V30 1290 H 128.135 0.112014 0.819379 0
M  V30 1291 H 130.681 0.943952 1.41024 0
M  V30 1292 H 129.453 1.89267 3.42482 0
M  V30 1293 H 129.076 0.265652 3.96712 0
M  V30 1294 N 130.073 -1.45103 0.615059 0
M  V30 1295 C 131.003 -2.33339 -0.0865619 0
M  V30 1296 C 131.984 -1.4727 -0.851209 0
M  V30 1297 O 133.169 -1.76026 -0.820281 0
M  V30 1298 C 130.299 -3.30095 -1.07956 0
M  V30 1299 C 129.253 -4.25858 -0.427628 0
M  V30 1300 C 128.579 -5.12361 -1.5294 0
M  V30 1301 C 129.879 -5.18165 0.655944 0
M  V30 1302 H 131.573 -2.92254 0.650224 0
M  V30 1303 H 129.119 -1.40532 0.314138 0
M  V30 1304 H 131.072 -3.90698 -1.57901 0
M  V30 1305 H 129.796 -2.69355 -1.84703 0
M  V30 1306 H 128.455 -3.66564 0.0510292 0
M  V30 1307 H 128.103 -4.47984 -2.28734 0
M  V30 1308 H 127.803 -5.77238 -1.09865 0
M  V30 1309 H 129.327 -5.75833 -2.03098 0
M  V30 1310 H 130.741 -5.72796 0.240257 0
M  V30 1311 H 129.138 -5.91559 1.00888 0
M  V30 1312 H 130.208 -4.60144 1.52957 0
M  V30 1313 N 131.551 -0.354651 -1.53558 0
M  V30 1314 C 132.461 0.50515 -2.29097 0
M  V30 1315 C 133.477 1.10223 -1.34636 0
M  V30 1316 O 134.653 1.11553 -1.67684 0
M  V30 1317 C 131.718 1.63479 -3.05738 0
M  V30 1318 C 130.779 1.06636 -4.15845 0
M  V30 1319 C 130.012 2.14217 -4.88822 0
M  V30 1320 O 130.235 3.35137 -4.61562 0
M  V30 1321 O 129.169 1.77887 -5.75013 0
M  V30 1322 H 132.995 -0.109237 -3.03503 0
M  V30 1323 H 130.58 -0.119357 -1.48922 0
M  V30 1324 H 132.462 2.2918 -3.5363 0
M  V30 1325 H 131.137 2.23478 -2.34178 0
M  V30 1326 H 130.044 0.373565 -3.7223 0
M  V30 1327 H 131.377 0.511081 -4.89539 0
M  V30 1328 N 133.029 1.57378 -0.0835403 0
M  V30 1329 C 133.961 2.10389 0.909338 0
M  V30 1330 C 134.974 1.03858 1.25369 0
M  V30 1331 O 136.163 1.31338 1.20882 0
M  V30 1332 C 133.263 2.55908 2.2218 0
M  V30 1333 C 132.436 3.86145 2.05453 0
M  V30 1334 C 131.495 4.17633 3.20108 0
M  V30 1335 O 130.521 4.87043 2.94581 0
M  V30 1336 N 131.723 3.72113 4.45547 0
M  V30 1337 H 134.488 2.962 0.456657 0
M  V30 1338 H 132.049 1.61579 0.101877 0
M  V30 1339 H 134.041 2.74027 2.97811 0
M  V30 1340 H 132.611 1.75171 2.58909 0
M  V30 1341 H 131.831 3.7729 1.1422 0
M  V30 1342 H 133.119 4.7137 1.91541 0
M  V30 1343 H 132.517 3.16062 4.69171 0
M  V30 1344 H 131.074 3.95409 5.18165 0
M  V30 1345 N 134.507 -0.190092 1.56449 0
M  V30 1346 C 135.747 -0.916414 1.82705 0
M  V30 1347 C 136.111 -1.80235 0.661763 0
M  V30 1348 O 137.312 -2.56484 0.80433 0
M  V30 1349 C 135.583 -1.70691 3.14005 0
M  V30 1350 S 137.142 -2.48457 3.61683 0
M  V30 1351 H 133.96 -0.307281 0.64117 0
M  V30 1352 H 136.562 -0.179433 1.94675 0
M  V30 1353 H 135.266 -1.04677 3.96826 0
M  V30 1354 H 134.797 -2.48562 3.04927 0
M  V30 1355 H 136.812 -3.72756 3.27517 0
M  V30 1356 N 135.985 -1.50799 -0.457987 0
M  V30 1357 C 136.932 -1.70617 -1.5543 0
M  V30 1358 C 137.902 -0.547562 -1.56815 0
M  V30 1359 O 139.087 -0.779647 -1.74144 0
M  V30 1360 C 136.227 -1.81831 -2.93311 0
M  V30 1361 C 135.34 -3.09278 -3.01615 0
M  V30 1362 C 134.475 -3.11209 -4.30491 0
M  V30 1363 C 133.514 -4.33055 -4.32585 0
M  V30 1364 N 132.651 -4.32652 -5.52952 0
M  V30 1365 H 137.491 -2.64207 -1.37836 0
M  V30 1366 H 135.028 -1.30959 -0.669937 0
M  V30 1367 H 136.986 -1.86314 -3.73287 0
M  V30 1368 H 135.616 -0.916685 -3.0951 0
M  V30 1369 H 134.668 -3.14203 -2.1443 0
M  V30 1370 H 135.98 -3.99233 -2.99022 0
M  V30 1371 H 135.134 -3.14494 -5.18824 0
M  V30 1372 H 133.873 -2.19106 -4.35711 0
M  V30 1373 H 132.878 -4.29969 -3.42647 0
M  V30 1374 H 134.103 -5.264 -4.29046 0
M  V30 1375 H 132.049 -3.43409 -5.58933 0
M  V30 1376 H 131.966 -5.16392 -5.52155 0
M  V30 1377 H 133.234 -4.40101 -6.43375 0
M  V30 1378 N 137.463 0.71206 -1.40597 0
M  V30 1379 C 138.373 1.8562 -1.43466 0
M  V30 1380 C 139.389 1.70902 -0.326902 0
M  V30 1381 O 140.565 1.93105 -0.572043 0
M  V30 1382 C 137.63 3.21451 -1.29884 0
M  V30 1383 C 136.691 3.48398 -2.50833 0
M  V30 1384 C 135.924 4.77749 -2.3789 0
M  V30 1385 O 136.147 5.53089 -1.39459 0
M  V30 1386 O 135.081 5.05111 -3.27333 0
M  V30 1387 H 138.907 1.86155 -2.39958 0
M  V30 1388 H 136.492 0.86295 -1.21957 0
M  V30 1389 H 138.374 4.02579 -1.24531 0
M  V30 1390 H 137.049 3.21636 -0.364997 0
M  V30 1391 H 135.956 2.67265 -2.61763 0
M  V30 1392 H 137.289 3.53014 -3.4299 0
M  V30 1393 N 138.941 1.26152 0.944643 0
M  V30 1394 C 139.904 1.07474 2.0244 0
M  V30 1395 C 140.904 0.0242064 1.60782 0
M  V30 1396 O 142.094 0.267302 1.72137 0
M  V30 1397 C 139.226 0.633956 3.34953 0
M  V30 1398 H 140.419 2.03336 2.20442 0
M  V30 1399 H 137.972 1.087 1.12312 0
M  V30 1400 H 138.707 -0.326811 3.22649 0
M  V30 1401 H 138.492 1.39247 3.66542 0
M  V30 1402 H 139.982 0.52501 4.14287 0
M  V30 1403 N 140.419 -1.14872 1.07899 0
M  V30 1404 C 141.382 -2.17986 0.708161 0
M  V30 1405 C 142.382 -1.58775 -0.25442 0
M  V30 1406 O 143.572 -1.74166 -0.034645 0
M  V30 1407 C 140.704 -3.40871 0.0446929 0
M  V30 1408 H 141.897 -2.52306 1.62116 0
M  V30 1409 H 139.45 -1.2943 0.876218 0
M  V30 1410 H 140.185 -3.12124 -0.880281 0
M  V30 1411 H 139.97 -3.8511 0.737091 0
M  V30 1412 H 141.46 -4.17121 -0.19991 0
M  V30 1413 N 141.898 -0.863906 -1.31812 0
M  V30 1414 C 142.861 -0.320212 -2.26952 0
M  V30 1415 C 143.861 0.525369 -1.51975 0
M  V30 1416 O 145.051 0.335547 -1.70938 0
M  V30 1417 C 142.183 0.545919 -3.365 0
M  V30 1418 H 143.376 -1.16004 -2.76556 0
M  V30 1419 H 140.929 -0.638995 -1.42641 0
M  V30 1420 H 141.664 1.40718 -2.92179 0
M  V30 1421 H 141.449 -0.0594674 -3.92055 0
M  V30 1422 H 142.939 0.918796 -4.07367 0
M  V30 1423 N 143.376 1.44774 -0.622745 0
M  V30 1424 C 144.339 2.29069 0.0774015 0
M  V30 1425 C 145.339 1.4059 0.780461 0
M  V30 1426 O 146.529 1.62551 0.626322 0
M  V30 1427 C 143.661 3.21974 1.12006 0
M  V30 1428 H 144.854 2.92459 -0.663901 0
M  V30 1429 H 142.407 1.51548 -0.382486 0
M  V30 1430 H 143.142 2.63417 1.89162 0
M  V30 1431 H 142.927 3.87168 0.619951 0
M  V30 1432 H 144.417 3.85318 1.60995 0
M  V30 1433 N 144.854 0.36279 1.53368 0
M  V30 1434 C 145.764 -0.492994 2.29362 0
M  V30 1435 C 146.78 -1.09507 1.35219 0
M  V30 1436 O 147.956 -1.10662 1.68273 0
M  V30 1437 C 145.021 -1.61855 3.066 0
M  V30 1438 C 144.082 -1.04429 4.16405 0
M  V30 1439 C 143.315 -2.11621 4.89951 0
M  V30 1440 O 143.538 -3.32684 4.63333 0
M  V30 1441 O 142.472 -1.74835 5.75948 0
M  V30 1442 H 146.298 0.125331 3.03441 0
M  V30 1443 H 143.883 0.127253 1.48857 0
M  V30 1444 H 145.765 -2.27302 3.54841 0
M  V30 1445 H 144.44 -2.22233 2.3536 0
M  V30 1446 H 143.347 -0.353819 3.72423 0
M  V30 1447 H 144.68 -0.485113 4.89804 0
M  V30 1448 N 146.332 -1.57332 0.0918853 0
M  V30 1449 C 147.242 -2.17368 -0.882505 0
M  V30 1450 C 148.258 -1.14226 -1.31257 0
M  V30 1451 O 149.434 -1.46582 -1.38115 0
M  V30 1452 C 146.499 -2.73962 -2.12476 0
M  V30 1453 C 145.56 -3.92048 -1.7492 0
M  V30 1454 C 144.793 -4.45933 -2.93223 0
M  V30 1455 O 145.016 -3.98764 -4.07852 0
M  V30 1456 O 143.95 -5.36999 -2.71875 0
M  V30 1457 H 147.776 -3.01031 -0.40172 0
M  V30 1458 H 145.361 -1.48813 -0.132291 0
M  V30 1459 H 147.243 -3.10147 -2.85283 0
M  V30 1460 H 145.918 -1.93347 -2.59613 0
M  V30 1461 H 144.825 -3.6068 -0.993025 0
M  V30 1462 H 146.158 -4.74017 -1.32548 0
M  V30 1463 N 147.81 0.181792 -1.56548 0
M  V30 1464 C 148.72 1.24538 -1.98815 0
M  V30 1465 C 149.736 1.49045 -0.897861 0
M  V30 1466 O 150.912 1.61399 -1.20467 0
M  V30 1467 C 147.977 2.56683 -2.33055 0
M  V30 1468 C 147.038 2.40131 -3.55859 0
M  V30 1469 C 146.271 3.65975 -3.88456 0
M  V30 1470 O 146.494 4.70711 -3.22161 0
M  V30 1471 O 145.428 3.6071 -4.81842 0
M  V30 1472 H 149.254 0.916647 -2.89536 0
M  V30 1473 H 146.839 0.387842 -1.44278 0
M  V30 1474 H 148.721 3.34655 -2.56094 0
M  V30 1475 H 147.396 2.89157 -1.45498 0
M  V30 1476 H 146.303 1.60226 -3.38051 0
M  V30 1477 H 147.636 2.12585 -4.43924 0
M  V30 1478 N 149.288 1.51039 0.449983 0
M  V30 1479 C 150.198 1.74261 1.57067 0
M  V30 1480 C 151.214 0.626363 1.62335 0
M  V30 1481 O 152.39 0.907162 1.79812 0
M  V30 1482 C 149.455 1.85114 2.93144 0
M  V30 1483 C 148.516 3.0893 2.98095 0
M  V30 1484 C 147.749 3.19256 4.27681 0
M  V30 1485 O 147.972 2.35835 5.19363 0
M  V30 1486 O 146.906 4.12144 4.38658 0
M  V30 1487 H 150.732 2.69303 1.40391 0
M  V30 1488 H 148.317 1.35389 0.631688 0
M  V30 1489 H 150.199 1.94311 3.73926 0
M  V30 1490 H 148.874 0.932588 3.09975 0
M  V30 1491 H 147.781 3.0522 2.16314 0
M  V30 1492 H 149.114 4.00433 2.86206 0
M  V30 1493 N 150.766 -0.704594 1.40972 0
M  V30 1494 C 151.729 -1.80035 1.41845 0
M  V30 1495 C 152.729 -1.57774 0.310474 0
M  V30 1496 O 153.919 -1.64613 0.56992 0
M  V30 1497 C 151.051 -3.18284 1.22098 0
M  V30 1498 H 152.244 -1.80658 2.3938 0
M  V30 1499 H 149.797 -0.911329 1.26982 0
M  V30 1500 H 150.532 -3.23306 0.253672 0
M  V30 1501 H 150.317 -3.35843 2.02366 0
M  V30 1502 H 151.807 -3.98289 1.25522 0
M  V30 1503 N 152.244 -1.26651 -0.937939 0
M  V30 1504 C 153.207 -1.08546 -2.01867 0
M  V30 1505 C 154.207 -0.0327327 -1.60767 0
M  V30 1506 O 155.397 -0.276427 -1.71993 0
M  V30 1507 C 152.529 -0.651711 -3.34613 0
M  V30 1508 H 153.722 -2.04502 -2.1936 0
M  V30 1509 H 151.275 -1.09294 -1.11734 0
M  V30 1510 H 152.01 0.309696 -3.22818 0
M  V30 1511 H 151.795 -1.41189 -3.65798 0
M  V30 1512 H 153.285 -0.546973 -4.14002 0
M  V30 1513 N 153.722 1.14298 -1.08507 0
M  V30 1514 C 155.133 1.66926 -0.836227 0
M  V30 1515 C 155.484 1.85576 0.63686 0
M  V30 1516 O 154.609 1.56767 1.49175 0
M  V30 1517 C 155.204 3.03219 -1.51142 0
M  V30 1518 C 153.763 3.52876 -1.30979 0
M  V30 1519 C 152.91 2.2833 -1.57356 0
M  V30 1520 H 155.861 0.983491 -1.24552 0
M  V30 1521 H 155.882 3.68726 -0.939211 0
M  V30 1522 H 155.394 2.89612 -2.58353 0
M  V30 1523 H 153.495 3.71703 -0.258429 0
M  V30 1524 H 153.608 4.33586 -2.03814 0
M  V30 1525 H 151.972 2.34454 -0.995164 0
M  V30 1526 H 152.755 2.17298 -2.65775 0
M  V30 1527 N 155.201 0.870884 1.31352 0
M  V30 1528 C 156.449 0.48132 1.96285 0
M  V30 1529 C 156.77 -0.969813 1.69173 0
M  V30 1530 O 156.04 -1.67998 1.00764 0
M  V30 1531 H 154.62 0.175002 0.726212 0
M  V30 1532 H 157.282 1.11087 1.60143 0
M  V30 1533 H 156.378 0.639825 3.05471 0
M  V30 1534 N 156.679 -1.44442 0.630414 0
M  V30 1535 C 157.642 -2.29107 -0.0652523 0
M  V30 1536 C 158.642 -1.41002 -0.772995 0
M  V30 1537 O 159.832 -1.62881 -0.617692 0
M  V30 1538 C 156.964 -3.22564 -1.10296 0
M  V30 1539 H 158.157 -2.92103 0.679401 0
M  V30 1540 H 155.71 -1.51343 0.390517 0
M  V30 1541 H 156.445 -2.64416 -1.87762 0
M  V30 1542 H 156.23 -3.87491 -0.59941 0
M  V30 1543 H 157.72 -3.86167 -1.5895 0
M  V30 1544 N 158.157 -0.370918 -1.53173 0
M  V30 1545 C 159.067 0.480823 -2.2962 0
M  V30 1546 C 160.083 1.08789 -1.35798 0
M  V30 1547 O 161.259 1.09768 -1.68858 0
M  V30 1548 C 158.324 1.60227 -3.07454 0
M  V30 1549 C 157.385 1.0222 -4.16953 0
M  V30 1550 C 156.618 2.0902 -4.91066 0
M  V30 1551 O 156.841 3.30222 -4.65091 0
M  V30 1552 O 155.775 1.71778 -5.76867 0
M  V30 1553 H 159.601 -0.141421 -3.03371 0
M  V30 1554 H 157.186 -0.135146 -1.48787 0
M  V30 1555 H 159.068 2.25417 -3.56041 0
M  V30 1556 H 157.743 2.20982 -2.36535 0
M  V30 1557 H 156.65 0.334064 -3.72605 0
M  V30 1558 H 157.983 0.459131 -4.90054 0
M  V30 1559 N 159.635 1.57281 -0.100228 0
M  V30 1560 C 160.883 1.94153 0.561157 0
M  V30 1561 C 161.204 0.983157 1.68401 0
M  V30 1562 O 160.474 0.0361132 1.95867 0
M  V30 1563 H 159.054 0.716791 0.210283 0
M  V30 1564 H 161.716 1.94202 -0.164765 0
M  V30 1565 H 160.812 2.96709 0.968008 0
M  V30 1566 N 161.113 -0.173488 1.56642 0
M  V30 1567 C 162.361 -0.888706 1.81512 0
M  V30 1568 C 162.682 -1.82875 0.676872 0
M  V30 1569 O 161.952 -1.93536 -0.303414 0
M  V30 1570 H 160.532 -0.331164 0.669582 0
M  V30 1571 H 163.194 -0.173823 1.94123 0
M  V30 1572 H 162.29 -1.46691 2.75478 0
M  V30 1573 N 162.591 -1.51276 -0.441967 0
M  V30 1574 C 163.837 -1.63958 -1.19355 0
M  V30 1575 C 164.17 -0.352543 -1.90973 0
M  V30 1576 O 163.445 0.647627 -1.83401 0
M  V30 1577 C 163.728 -2.83979 -2.21422 0
M  V30 1578 C 163.581 -4.22646 -1.53918 0
M  V30 1579 C 164.9 -2.99521 -3.22451 0
M  V30 1580 H 162.019 -0.596709 -0.432559 0
M  V30 1581 H 164.661 -1.83748 -0.483398 0
M  V30 1582 H 162.811 -2.67237 -2.81987 0
M  V30 1583 H 164.483 -4.51045 -0.967256 0
M  V30 1584 H 162.726 -4.25558 -0.841615 0
M  V30 1585 H 163.397 -5.02609 -2.28229 0
M  V30 1586 H 165.873 -3.14944 -2.71937 0
M  V30 1587 H 164.749 -3.85072 -3.91166 0
M  V30 1588 H 165.01 -2.11391 -3.88287 0
M  V30 1589 N 164.069 0.697108 -1.41344 0
M  V30 1590 C 165.316 1.45714 -1.40619 0
M  V30 1591 C 165.644 1.94494 -0.0147907 0
M  V30 1592 O 164.899 1.69794 0.973066 0
M  V30 1593 C 165.198 2.68553 -2.35826 0
M  V30 1594 C 164.864 2.38438 -3.82698 0
M  V30 1595 C 163.526 2.29936 -4.22709 0
M  V30 1596 C 165.878 2.13567 -4.75435 0
M  V30 1597 C 163.206 1.94656 -5.53467 0
M  V30 1598 C 165.558 1.79797 -6.06511 0
M  V30 1599 C 164.222 1.69789 -6.45545 0
M  V30 1600 H 163.492 0.533206 -0.51456 0
M  V30 1601 H 166.139 0.796901 -1.74131 0
M  V30 1602 H 164.444 3.39503 -1.95563 0
M  V30 1603 H 166.141 3.2669 -2.32539 0
M  V30 1604 H 162.731 2.4595 -3.51008 0
M  V30 1605 H 166.915 2.19082 -4.45328 0
M  V30 1606 H 162.171 1.8546 -5.82593 0
M  V30 1607 H 166.345 1.59572 -6.77872 0
M  V30 1608 H 163.972 1.4222 -7.46778 0
M  V30 1609 N 165.547 1.27147 0.931209 0
M  V30 1610 C 166.958 1.12044 1.49342 0
M  V30 1611 C 167.309 -0.295795 1.93957 0
M  V30 1612 O 166.434 -1.18835 1.80852 0
M  V30 1613 C 167.029 2.02781 2.71414 0
M  V30 1614 C 165.588 1.91794 3.2387 0
M  V30 1615 C 164.735 1.95543 1.96617 0
M  V30 1616 H 167.686 1.40091 0.745672 0
M  V30 1617 H 167.707 1.58156 3.46074 0
M  V30 1618 H 167.219 3.05848 2.38911 0
M  V30 1619 H 165.32 0.916992 3.6114 0
M  V30 1620 H 165.433 2.77852 3.90302 0
M  V30 1621 H 163.797 1.39722 2.12955 0
M  V30 1622 H 164.58 3.00259 1.66432 0
M  V30 1623 N 167.025 -1.13721 1.09112 0
M  V30 1624 C 168.273 -1.84559 0.823562 0
M  V30 1625 C 168.594 -1.83754 -0.652658 0
M  V30 1626 O 167.864 -1.29102 -1.47342 0
M  V30 1627 H 166.444 -0.683376 0.301673 0
M  V30 1628 H 169.106 -1.37771 1.37859 0
M  V30 1629 H 168.202 -2.8917 1.17419 0
M  V30 1630 N 168.503 -0.877838 -1.30888 0
M  V30 1631 C 169.914 -0.544193 -1.78593 0
M  V30 1632 C 170.265 0.939301 -1.72254 0
M  V30 1633 O 169.39 1.7337 -1.29505 0
M  V30 1634 C 169.985 -0.98105 -3.24285 0
M  V30 1635 C 168.544 -0.698935 -3.69854 0
M  V30 1636 C 167.691 -1.168 -2.51502 0
M  V30 1637 H 170.642 -1.06278 -1.17859 0
M  V30 1638 H 170.663 -0.307009 -3.79259 0
M  V30 1639 H 170.175 -2.06079 -3.28866 0
M  V30 1640 H 168.276 0.369112 -3.70767 0
M  V30 1641 H 168.389 -1.28148 -4.61644 0
M  V30 1642 H 166.753 -0.587535 -2.47831 0
M  V30 1643 H 167.536 -2.25533 -2.58824 0
M  V30 1644 N 169.982 1.44106 -0.638065 0
M  V30 1645 C 171.398 1.56672 -0.304286 0
M  V30 1646 C 171.598 1.6244 1.19228 0
M  V30 1647 O 170.654 1.57121 1.9766 0
M  V30 1648 C 171.967 2.83503 -1.00231 0
M  V30 1649 C 173.515 2.97226 -0.981116 0
M  V30 1650 C 173.99 4.26868 -1.65974 0
M  V30 1651 N 175.481 4.33698 -1.62666 0
M  V30 1652 C 176.216 5.32745 -2.12063 0
M  V30 1653 N 175.712 6.38157 -2.6968 0
M  V30 1654 N 177.505 5.24299 -2.02651 0
M  V30 1655 H 169.656 1.38605 -1.60942 0
M  V30 1656 H 171.919 0.664661 -0.675965 0
M  V30 1657 H 171.625 2.85251 -2.0573 0
M  V30 1658 H 171.499 3.73251 -0.54439 0
M  V30 1659 H 173.886 2.95027 0.0654188 0
M  V30 1660 H 173.967 2.08808 -1.47759 0
M  V30 1661 H 173.611 4.29826 -2.70576 0
M  V30 1662 H 173.541 5.14156 -1.13804 0
M  V30 1663 H 176.032 3.58138 -1.20606 0
M  V30 1664 H 176.345 7.10029 -3.05087 0
M  V30 1665 H 174.69 6.38823 -2.73734 0
M  V30 1666 H 177.881 4.4086 -1.57353 0
M  V30 1667 H 178.054 6.01334 -2.41457 0
M  V30 1668 N 171.46 0.379036 1.52974 0
M  V30 1669 C 172.708 -0.206014 2.01047 0
M  V30 1670 C 173.029 -1.48175 1.26765 0
M  V30 1671 O 172.299 -1.92085 0.384743 0
M  V30 1672 H 170.879 -0.0791184 0.742798 0
M  V30 1673 H 173.541 0.508366 1.88153 0
M  V30 1674 H 172.637 -0.423501 3.09213 0
M  V30 1675 N 172.938 -1.57226 0.108567 0
M  V30 1676 C 174.186 -1.94448 -0.550853 0
M  V30 1677 C 174.507 -0.992074 -1.67878 0
M  V30 1678 O 173.777 -0.0465 -1.95845 0
M  V30 1679 H 172.357 -0.717897 -0.206479 0
M  V30 1680 H 175.019 -1.94112 0.175062 0
M  V30 1681 H 174.115 -2.97218 -0.952259 0
M  V30 1682 N 174.416 0.165178 -1.56732 0
M  V30 1683 C 175.379 1.18822 -1.95995 0
M  V30 1684 C 176.379 1.3685 -0.84431 0
M  V30 1685 O 177.569 1.34152 -1.11126 0
M  V30 1686 C 174.701 2.5521 -2.26011 0
M  V30 1687 H 175.894 0.851825 -2.87548 0
M  V30 1688 H 173.447 0.407857 -1.50885 0
M  V30 1689 H 174.182 2.93852 -1.37191 0
M  V30 1690 H 173.967 2.43489 -3.07336 0
M  V30 1691 H 175.457 3.28927 -2.57288 0
M  V30 1692 N 175.894 1.51508 0.433938 0
M  V30 1693 C 177.305 1.56784 1.01369 0
M  V30 1694 C 177.656 0.393349 1.92217 0
M  V30 1695 O 176.781 -0.489441 2.10792 0
M  V30 1696 C 177.376 2.84144 1.8452 0
M  V30 1697 C 175.935 2.9198 2.37539 0
M  V30 1698 C 175.082 2.51482 1.16843 0
M  V30 1699 H 178.033 1.57236 0.215081 0
M  V30 1700 H 178.054 2.68098 2.70007 0
M  V30 1701 H 177.566 3.69607 1.18373 0
M  V30 1702 H 175.667 2.10955 3.0713 0
M  V30 1703 H 175.78 3.95704 2.70103 0
M  V30 1704 H 174.144 2.04758 1.51481 0
M  V30 1705 H 174.927 3.39293 0.523015 0
M  V30 1706 N 177.372 -0.689602 1.41712 0
M  V30 1707 C 178.62 -1.4468 1.4111 0
M  V30 1708 C 178.941 -1.94986 0.0232196 0
M  V30 1709 O 178.211 -1.72097 -0.935913 0
M  V30 1710 H 176.791 -0.536847 0.519427 0
M  V30 1711 H 179.453 -0.815825 1.77004 0
M  V30 1712 H 178.549 -2.30706 2.10193 0
M  V30 1713 N 178.85 -1.27639 -0.924453 0
M  V30 1714 C 180.098 -1.13941 -1.66918 0
M  V30 1715 C 180.419 0.314589 -1.92446 0
M  V30 1716 O 179.689 1.21964 -1.53303 0
M  V30 1717 H 178.269 -0.418678 -0.618642 0
M  V30 1718 H 180.931 -1.60213 -1.10985 0
M  V30 1719 H 180.027 -1.67094 -2.63602 0
M  V30 1720 N 180.328 1.1314 -1.09713 0
M  V30 1721 C 181.576 1.84119 -0.833338 0
M  V30 1722 C 181.897 1.84097 0.642904 0
M  V30 1723 O 181.167 1.29881 1.46655 0
M  V30 1724 H 179.747 0.681766 -0.305293 0
M  V30 1725 H 182.409 1.37038 -1.38588 0
M  V30 1726 H 181.505 2.88543 -1.18951 0
M  V30 1727 N 181.806 0.884767 1.30421 0
M  V30 1728 C 182.769 0.356277 2.26414 0
M  V30 1729 C 183.769 -0.501124 1.52792 0
M  V30 1730 O 184.959 -0.30831 1.7145 0
M  V30 1731 C 182.091 -0.492316 3.37326 0
M  V30 1732 H 183.284 1.20389 2.74675 0
M  V30 1733 H 180.837 0.661607 1.41607 0
M  V30 1734 H 181.572 -1.36052 2.94381 0
M  V30 1735 H 181.357 0.121832 3.91911 0
M  V30 1736 H 182.847 -0.853871 4.08777 0
M  V30 1737 N 183.284 -1.43765 0.645699 0
M  V30 1738 C 184.7 -1.56509 0.312591 0
M  V30 1739 C 184.9 -1.6307 -1.18365 0
M  V30 1740 O 183.956 -1.58167 -1.96824 0
M  V30 1741 C 185.269 -2.82968 1.01733 0
M  V30 1742 C 186.817 -2.96701 0.996865 0
M  V30 1743 C 187.292 -4.25982 1.68236 0
M  V30 1744 N 188.783 -4.32829 1.64964 0
M  V30 1745 C 189.518 -5.31613 2.14885 0
M  V30 1746 N 189.014 -6.36718 2.73061 0
M  V30 1747 N 190.807 -5.23217 2.05428 0
M  V30 1748 H 182.958 -1.3775 1.61675 0
M  V30 1749 H 185.221 -0.661067 0.679481 0
M  V30 1750 H 184.927 -2.84156 2.0724 0
M  V30 1751 H 184.801 -3.72957 0.564177 0
M  V30 1752 H 187.188 -2.95058 -0.0497719 0
M  V30 1753 H 187.269 -2.08022 1.48865 0
M  V30 1754 H 186.913 -4.28386 2.72852 0
M  V30 1755 H 186.843 -5.13545 1.16529 0
M  V30 1756 H 189.334 -3.57493 1.22503 0
M  V30 1757 H 189.647 -7.08401 3.08848 0
M  V30 1758 H 187.992 -6.37362 2.77118 0
M  V30 1759 H 191.183 -4.40019 1.59689 0
M  V30 1760 H 191.356 -6.00045 2.44643 0
M  V30 1761 N 184.763 -0.387143 -1.52771 0
M  V30 1762 C 185.693 0.440551 -2.29306 0
M  V30 1763 C 186.674 1.06535 -1.32606 0
M  V30 1764 O 187.859 1.07853 -1.61497 0
M  V30 1765 C 184.989 1.56919 -3.09829 0
M  V30 1766 C 183.943 1.07054 -4.14395 0
M  V30 1767 C 183.269 2.29109 -4.83129 0
M  V30 1768 C 184.569 0.140015 -5.22112 0
M  V30 1769 H 186.263 -0.198026 -2.98744 0
M  V30 1770 H 183.809 -0.09668 -1.43675 0
M  V30 1771 H 185.762 2.15503 -3.62128 0
M  V30 1772 H 184.486 2.23532 -2.3812 0
M  V30 1773 H 183.145 0.507247 -3.63074 0
M  V30 1774 H 182.793 2.94227 -4.0797 0
M  V30 1775 H 182.493 1.96406 -5.53804 0
M  V30 1776 H 184.017 2.88339 -5.38231 0
M  V30 1777 H 185.431 0.633978 -5.69784 0
M  V30 1778 H 183.828 -0.0971485 -6.00021 0
M  V30 1779 H 184.898 -0.811711 -4.78058 0
M  V30 1780 N 186.241 1.57166 -0.116904 0
M  V30 1781 C 187.466 1.999 0.55271 0
M  V30 1782 C 187.891 0.996039 1.59564 0
M  V30 1783 O 187.249 -0.032556 1.81271 0
M  V30 1784 C 187.297 3.4152 1.15742 0
M  V30 1785 O 186.401 3.44106 2.27299 0
M  V30 1786 H 185.742 0.649447 0.138258 0
M  V30 1787 H 188.272 2.03573 -0.204759 0
M  V30 1788 H 188.282 3.79684 1.49346 0
M  V30 1789 H 186.957 4.14034 0.393493 0
M  V30 1790 H 185.534 3.17759 1.9515 0
M  V30 1791 N 187.719 -0.156864 1.56817 0
M  V30 1792 C 189.13 -0.717916 1.72345 0
M  V30 1793 C 189.481 -1.82124 0.729747 0
M  V30 1794 O 188.606 -2.16141 -0.105781 0
M  V30 1795 C 189.201 -1.30904 3.12489 0
M  V30 1796 C 187.76 -1.81676 3.29653 0
M  V30 1797 C 186.907 -0.701349 2.68284 0
M  V30 1798 H 189.858 0.0686989 1.58551 0
M  V30 1799 H 189.879 -2.17882 3.11942 0
M  V30 1800 H 189.391 -0.505796 3.8479 0
M  V30 1801 H 187.492 -2.64598 2.62333 0
M  V30 1802 H 187.605 -1.95226 4.3752 0
M  V30 1803 H 185.969 -1.12548 2.28484 0
M  V30 1804 H 186.752 0.0902846 3.43181 0
M  V30 1805 N 189.197 -1.51736 -0.425897 0
M  V30 1806 C 190.443 -1.66174 -1.17294 0
M  V30 1807 C 190.798 -0.37876 -1.88635 0
M  V30 1808 O 190.091 0.626021 -1.81084 0
M  V30 1809 C 190.285 -2.81103 -2.20717 0
M  V30 1810 C 190.114 -4.20453 -1.59529 0
M  V30 1811 C 188.884 -4.86225 -1.37525 0
M  V30 1812 C 191.082 -5.03146 -1.06528 0
M  V30 1813 N 189.064 -6.09657 -0.720537 0
M  V30 1814 C 190.435 -6.17674 -0.536506 0
M  V30 1815 C 192.49 -4.88594 -0.958127 0
M  V30 1816 C 191.193 -7.19245 0.0888917 0
M  V30 1817 C 193.219 -5.90383 -0.346608 0
M  V30 1818 C 192.581 -7.04191 0.171564 0
M  V30 1819 H 188.68 -0.661871 -0.416475 0
M  V30 1820 H 191.264 -1.88997 -0.467801 0
M  V30 1821 H 189.435 -2.59924 -2.88607 0
M  V30 1822 H 191.167 -2.84662 -2.87663 0
M  V30 1823 H 187.922 -4.44293 -1.64015 0
M  V30 1824 H 188.346 -6.75756 -0.410292 0
M  V30 1825 H 192.988 -4.0085 -1.34459 0
M  V30 1826 H 190.706 -8.06628 0.48746 0
M  V30 1827 H 194.292 -5.81194 -0.265451 0
M  V30 1828 H 193.172 -7.81606 0.637309 0
M  V30 1829 N 190.675 0.682077 -1.42076 0
M  V30 1830 C 191.605 1.80796 -1.47767 0
M  V30 1831 C 192.586 1.6677 -0.334954 0
M  V30 1832 O 193.771 1.863 -0.548264 0
M  V30 1833 C 190.901 3.19038 -1.37229 0
M  V30 1834 C 189.855 3.47789 -2.49453 0
M  V30 1835 C 189.181 4.8553 -2.23975 0
M  V30 1836 C 190.481 3.45411 -3.91776 0
M  V30 1837 H 192.175 1.7629 -2.41997 0
M  V30 1838 H 189.721 0.846721 -1.16476 0
M  V30 1839 H 191.674 3.97528 -1.39821 0
M  V30 1840 H 190.398 3.24204 -0.394907 0
M  V30 1841 H 189.057 2.71657 -2.46166 0
M  V30 1842 H 188.705 4.87337 -1.24547 0
M  V30 1843 H 188.405 5.0573 -2.99184 0
M  V30 1844 H 189.929 5.66312 -2.28304 0
M  V30 1845 H 191.343 4.13882 -3.96705 0
M  V30 1846 H 189.74 3.77145 -4.66778 0
M  V30 1847 H 190.81 2.44122 -4.18966 0
M  V30 1848 N 192.153 1.28127 0.917671 0
M  V30 1849 C 193.085 1.07517 2.02417 0
M  V30 1850 C 194.098 0.0281099 1.62776 0
M  V30 1851 O 195.287 0.270748 1.76435 0
M  V30 1852 C 192.387 0.610957 3.33347 0
M  V30 1853 C 191.56 1.73255 4.01624 0
M  V30 1854 C 190.619 1.26238 5.10833 0
M  V30 1855 O 189.645 1.96389 5.34247 0
M  V30 1856 N 190.847 0.123448 5.80369 0
M  V30 1857 H 193.612 2.02806 2.20658 0
M  V30 1858 H 191.173 1.19827 1.08871 0
M  V30 1859 H 193.165 0.280101 4.0373 0
M  V30 1860 H 191.735 -0.24898 3.11607 0
M  V30 1861 H 190.955 2.23319 3.24842 0
M  V30 1862 H 192.243 2.48503 4.43986 0
M  V30 1863 H 191.641 -0.461847 5.63812 0
M  V30 1864 H 190.198 -0.148158 6.51632 0
M  V30 1865 N 193.631 -1.12557 1.10312 0
M  V30 1866 C 195.042 -1.65574 0.862678 0
M  V30 1867 C 195.393 -1.86566 -0.607256 0
M  V30 1868 O 194.518 -1.59121 -1.46662 0
M  V30 1869 C 195.113 -3.00776 1.55947 0
M  V30 1870 C 193.672 -3.50748 1.36576 0
M  V30 1871 C 192.819 -2.25797 1.60968 0
M  V30 1872 H 195.77 -0.963552 1.26101 0
M  V30 1873 H 195.791 -3.67185 0.997753 0
M  V30 1874 H 195.303 -2.85465 2.62928 0
M  V30 1875 H 193.404 -3.71245 0.317531 0
M  V30 1876 H 193.517 -4.30289 2.10686 0
M  V30 1877 H 191.881 -2.32841 1.03234 0
M  V30 1878 H 192.664 -2.13043 2.69198 0
M  V30 1879 N 195.109 -0.891671 -1.2995 0
M  V30 1880 C 196.334 -0.527932 -2.00568 0
M  V30 1881 C 196.759 0.877969 -1.66353 0
M  V30 1882 O 196.117 1.58301 -0.883762 0
M  V30 1883 C 196.165 -0.717745 -3.53385 0
M  V30 1884 O 195.269 0.233376 -4.11739 0
M  V30 1885 H 194.61 -0.20722 -0.630837 0
M  V30 1886 H 197.14 -1.20105 -1.65638 0
M  V30 1887 H 197.15 -0.619307 -4.03272 0
M  V30 1888 H 195.825 -1.74276 -3.77625 0
M  V30 1889 H 194.402 0.0880706 -3.72796 0
M  V30 1890 N 196.587 1.43421 -0.653314 0
M  V30 1891 C 197.55 2.29182 0.0287951 0
M  V30 1892 C 198.55 1.42213 0.750465 0
M  V30 1893 O 199.74 1.63843 0.591701 0
M  V30 1894 C 196.872 3.24278 1.05151 0
M  V30 1895 H 198.065 2.90985 -0.725786 0
M  V30 1896 H 195.618 1.50702 -0.414545 0
M  V30 1897 H 196.353 2.6737 1.83532 0
M  V30 1898 H 196.138 3.88396 0.537687 0
M  V30 1899 H 197.628 3.88647 1.52786 0
M  V30 1900 N 198.065 0.39524 1.52563 0
M  V30 1901 C 198.995 -0.428384 2.29537 0
M  V30 1902 C 199.976 -1.05831 1.33169 0
M  V30 1903 O 201.161 -1.06995 1.62067 0
M  V30 1904 C 198.291 -1.55274 3.10656 0
M  V30 1905 C 197.245 -1.04855 4.14957 0
M  V30 1906 C 196.571 -2.26543 4.84337 0
M  V30 1907 C 197.871 -0.112324 5.22179 0
M  V30 1908 H 199.565 0.213867 2.98635 0
M  V30 1909 H 197.111 0.104298 1.43622 0
M  V30 1910 H 199.064 -2.1358 3.63265 0
M  V30 1911 H 197.788 -2.22266 2.39302 0
M  V30 1912 H 196.447 -0.487985 3.63338 0
M  V30 1913 H 196.095 -2.92059 4.09525 0
M  V30 1914 H 195.795 -1.93466 5.54837 0
M  V30 1915 H 197.319 -2.85481 5.39753 0
M  V30 1916 H 198.733 -0.603752 5.70112 0
M  V30 1917 H 197.13 0.128968 5.99961 0
M  V30 1918 H 198.2 0.837052 4.77621 0
M  V30 1919 N 199.544 -1.57102 0.125237 0
M  V30 1920 C 200.474 -2.18659 -0.819174 0
M  V30 1921 C 201.455 -1.12843 -1.27281 0
M  V30 1922 O 202.64 -1.41104 -1.33429 0
M  V30 1923 C 199.77 -2.79096 -2.06695 0
M  V30 1924 C 198.724 -3.90548 -1.75088 0
M  V30 1925 C 198.05 -4.37821 -3.06948 0
M  V30 1926 C 199.35 -5.12356 -1.01435 0
M  V30 1927 H 201.044 -2.9783 -0.306202 0
M  V30 1928 H 198.59 -1.4326 -0.145839 0
M  V30 1929 H 200.543 -3.2082 -2.73226 0
M  V30 1930 H 199.267 -1.97223 -2.60328 0
M  V30 1931 H 197.926 -3.49409 -1.10944 0
M  V30 1932 H 197.574 -3.52799 -3.58527 0
M  V30 1933 H 197.274 -5.12982 -2.86571 0
M  V30 1934 H 198.798 -4.822 -3.74587 0
M  V30 1935 H 200.212 -5.5106 -1.58132 0
M  V30 1936 H 198.609 -5.9314 -0.911319 0
M  V30 1937 H 199.679 -4.849 -0.00218681 0
M  V30 1938 N 201.022 0.148545 -1.56898 0
M  V30 1939 C 202.269 0.861418 -1.83264 0
M  V30 1940 C 202.597 1.81239 -0.705883 0
M  V30 1941 O 201.852 1.93305 0.305212 0
M  V30 1942 C 202.151 1.67064 -3.1595 0
M  V30 1943 C 201.817 0.866591 -4.42494 0
M  V30 1944 C 200.479 0.644762 -4.76861 0
M  V30 1945 C 202.831 0.30418 -5.20312 0
M  V30 1946 C 200.159 -0.15021 -5.86508 0
M  V30 1947 C 202.511 -0.477824 -6.30793 0
M  V30 1948 C 201.175 -0.710244 -6.63711 0
M  V30 1949 H 200.445 0.315215 -0.670612 0
M  V30 1950 H 203.092 0.125142 -1.91091 0
M  V30 1951 H 201.397 2.47698 -3.03567 0
M  V30 1952 H 203.094 2.22566 -3.33565 0
M  V30 1953 H 199.684 1.04955 -4.15551 0
M  V30 1954 H 203.868 0.462844 -4.94137 0
M  V30 1955 H 199.124 -0.339796 -6.10455 0
M  V30 1956 H 203.298 -0.92076 -6.90286 0
M  V30 1957 H 200.925 -1.3281 -7.48509 0
M  V30 1958 N 202.5 1.5196 0.417844 0
M  V30 1959 C 203.725 1.69717 1.1921 0
M  V30 1960 C 204.15 0.402148 1.83751 0
M  V30 1961 O 203.508 -0.639593 1.69643 0
M  V30 1962 C 203.556 2.82794 2.2374 0
M  V30 1963 O 202.66 2.47756 3.29683 0
M  V30 1964 H 202.001 0.565263 0.348387 0
M  V30 1965 H 204.531 1.98621 0.490985 0
M  V30 1966 H 204.541 3.07452 2.68212 0
M  V30 1967 H 203.216 3.76756 1.76146 0
M  V30 1968 H 201.793 2.33739 2.90552 0
M  V30 1969 N 203.978 -0.674533 1.42435 0
M  V30 1970 C 204.908 -1.80009 1.48724 0
M  V30 1971 C 205.889 -1.6659 0.343793 0
M  V30 1972 O 207.074 -1.86007 0.558137 0
M  V30 1973 C 204.204 -3.18306 1.38919 0
M  V30 1974 C 203.158 -3.46461 2.51294 0
M  V30 1975 C 202.484 -4.84335 2.26547 0
M  V30 1976 C 203.784 -3.43328 3.93603 0
M  V30 1977 H 205.478 -1.75004 2.42928 0
M  V30 1978 H 203.024 -0.840533 1.16923 0
M  V30 1979 H 204.977 -3.9678 1.41927 0
M  V30 1980 H 203.701 -3.2399 0.412094 0
M  V30 1981 H 202.36 -2.70348 2.47604 0
M  V30 1982 H 202.008 -4.86669 1.2713 0
M  V30 1983 H 201.708 -5.04136 3.01861 0
M  V30 1984 H 203.232 -5.65094 2.31304 0
M  V30 1985 H 204.646 -4.11772 3.98894 0
M  V30 1986 H 203.043 -3.74664 4.68771 0
M  V30 1987 H 204.113 -2.41897 4.20255 0
M  V30 1988 N 205.456 -1.28612 -0.910864 0
M  V30 1989 C 206.386 -1.15326 -2.03032 0
M  V30 1990 C 207.367 -0.0502924 -1.70026 0
M  V30 1991 O 208.552 -0.227797 -1.92859 0
M  V30 1992 C 205.682 -0.817343 -3.37545 0
M  V30 1993 C 204.636 -1.8754 -3.84724 0
M  V30 1994 C 203.962 -1.39305 -5.16235 0
M  V30 1995 C 205.262 -3.28244 -4.06267 0
M  V30 1996 H 206.956 -2.08975 -2.14406 0
M  V30 1997 H 204.502 -1.00612 -1.03021 0
M  V30 1998 H 206.455 -0.711151 -4.15356 0
M  V30 1999 H 205.179 0.154846 -3.26233 0
M  V30 2000 H 203.838 -1.97079 -3.09121 0
M  V30 2001 H 203.486 -0.409846 -5.01328 0
M  V30 2002 H 203.186 -2.10057 -5.48771 0
M  V30 2003 H 204.71 -1.30014 -5.96598 0
M  V30 2004 H 206.124 -3.21611 -4.74594 0
M  V30 2005 H 204.521 -3.96855 -4.5014 0
M  V30 2006 H 205.591 -3.72048 -3.10979 0
M  V30 2007 N 206.934 1.1197 -1.10907 0
M  V30 2008 C 208.174 1.85224 -0.864378 0
M  V30 2009 C 208.538 1.82411 0.599178 0
M  V30 2010 O 209.739 2.51057 0.960416 0
M  V30 2011 C 208.01 3.2868 -1.40371 0
M  V30 2012 S 209.569 4.1925 -1.29518 0
M  V30 2013 H 206.387 0.63878 -0.312219 0
M  V30 2014 H 208.989 1.3485 -1.41548 0
M  V30 2015 H 207.693 3.28289 -2.46281 0
M  V30 2016 H 207.224 3.84121 -0.849402 0
M  V30 2017 H 209.239 4.95539 -0.256059 0
M  V30 2018 N 208.412 0.89855 1.29475 0
M  V30 2019 C 209.375 0.380272 2.26023 0
M  V30 2020 C 210.375 -0.484891 1.53315 0
M  V30 2021 O 211.565 -0.290108 1.71767 0
M  V30 2022 C 208.697 -0.45651 3.3783 0
M  V30 2023 H 209.89 1.23295 2.73383 0
M  V30 2024 H 207.443 0.676589 1.40897 0
M  V30 2025 H 208.178 -1.32922 2.95808 0
M  V30 2026 H 207.963 0.163393 3.91759 0
M  V30 2027 H 209.453 -0.810466 4.0966 0
M  V30 2028 N 209.89 -1.43072 0.660911 0
M  V30 2029 C 211.137 -2.01721 0.177445 0
M  V30 2030 C 211.465 -1.5218 -1.21126 0
M  V30 2031 O 210.72 -0.708659 -1.82419 0
M  V30 2032 C 211.019 -3.57103 0.145563 0
M  V30 2033 C 210.685 -4.26021 1.47705 0
M  V30 2034 C 209.347 -4.44563 1.84165 0
M  V30 2035 C 211.699 -4.64983 2.35458 0
M  V30 2036 C 209.027 -4.99334 3.0803 0
M  V30 2037 C 211.379 -5.21127 3.58622 0
M  V30 2038 C 210.043 -5.37884 3.95268 0
M  V30 2039 H 209.313 -0.73815 0.0649317 0
M  V30 2040 H 211.96 -1.71446 0.853144 0
M  V30 2041 H 210.265 -3.86965 -0.61361 0
M  V30 2042 H 211.962 -4.00248 -0.2455 0
M  V30 2043 H 208.552 -4.11939 1.18339 0
M  V30 2044 H 212.736 -4.50343 2.08579 0
M  V30 2045 H 207.992 -5.10493 3.36462 0
M  V30 2046 H 212.166 -5.50262 4.26831 0
M  V30 2047 H 209.793 -5.80089 4.91325 0
M  V30 2048 N 211.368 -0.403325 -1.52352 0
M  V30 2049 C 212.615 0.174347 -2.01748 0
M  V30 2050 C 212.943 1.45636 -1.2892 0
M  V30 2051 O 212.198 1.9193 -0.382258 0
M  V30 2052 C 212.497 0.474665 -3.54234 0
M  V30 2053 C 212.163 -0.717458 -4.45155 0
M  V30 2054 C 210.825 -1.04447 -4.69728 0
M  V30 2055 C 213.177 -1.51432 -4.98716 0
M  V30 2056 C 210.505 -2.16963 -5.45109 0
M  V30 2057 C 212.857 -2.6302 -5.75329 0
M  V30 2058 C 211.521 -2.96213 -5.98175 0
M  V30 2059 H 210.791 0.0637981 -0.738248 0
M  V30 2060 H 213.438 -0.543553 -1.83624 0
M  V30 2061 H 211.743 1.27406 -3.70506 0
M  V30 2062 H 213.44 0.934496 -3.89959 0
M  V30 2063 H 210.03 -0.452596 -4.26204 0
M  V30 2064 H 214.214 -1.27491 -4.79645 0
M  V30 2065 H 209.47 -2.43034 -5.61021 0
M  V30 2066 H 213.644 -3.25158 -6.15829 0
M  V30 2067 H 211.271 -3.83516 -6.56368 0
M  V30 2068 N 212.846 1.57033 -0.133567 0
M  V30 2069 C 214.092 1.96764 0.515326 0
M  V30 2070 C 214.447 1.01653 1.63353 0
M  V30 2071 O 213.74 0.0491374 1.91537 0
M  V30 2072 C 213.934 3.40674 1.08057 0
M  V30 2073 C 213.763 4.49696 0.0186522 0
M  V30 2074 C 212.533 5.03567 -0.418174 0
M  V30 2075 C 214.731 5.08536 -0.767809 0
M  V30 2076 N 212.713 5.9618 -1.46434 0
M  V30 2077 C 214.084 5.97231 -1.6648 0
M  V30 2078 C 216.139 4.9115 -0.817087 0
M  V30 2079 C 214.842 6.70401 -2.60681 0
M  V30 2080 C 216.868 5.65012 -1.74687 0
M  V30 2081 C 216.23 6.53403 -2.63141 0
M  V30 2082 H 212.329 0.765919 0.157771 0
M  V30 2083 H 214.913 1.93395 -0.22506 0
M  V30 2084 H 213.084 3.44662 1.79061 0
M  V30 2085 H 214.816 3.67495 1.69497 0
M  V30 2086 H 211.571 4.73594 -0.0229803 0
M  V30 2087 H 211.995 6.47191 -1.98678 0
M  V30 2088 H 216.637 4.22543 -0.147326 0
M  V30 2089 H 214.355 7.38245 -3.28664 0
M  V30 2090 H 217.941 5.53559 -1.79063 0
M  V30 2091 H 216.821 7.09556 -3.33917 0
M  V30 2092 N 214.325 -0.140222 1.56975 0
M  V30 2093 C 215.258 -1.20266 1.93936 0
M  V30 2094 C 216.236 -1.41212 0.806099 0
M  V30 2095 O 217.42 -1.55713 1.06234 0
M  V30 2096 C 214.547 -2.56037 2.21726 0
M  V30 2097 C 213.593 -2.51646 3.44349 0
M  V30 2098 S 214.426 -1.97678 4.97678 0
M  V30 2099 C 215.582 -3.35165 5.28597 0
M  V30 2100 H 215.815 -0.887358 2.83749 0
M  V30 2101 H 213.348 -0.346119 1.50471 0
M  V30 2102 H 215.306 -3.34167 2.38416 0
M  V30 2103 H 213.967 -2.84755 1.32566 0
M  V30 2104 H 213.16 -3.51608 3.61092 0
M  V30 2105 H 212.762 -1.81628 3.26936 0
M  V30 2106 H 215.054 -4.31302 5.2248 0
M  V30 2107 H 215.997 -3.23269 6.30002 0
M  V30 2108 H 216.405 -3.32614 4.56101 0
M  V30 2109 N 215.803 -1.52179 -0.40978 0
M  V30 2110 C 217.051 -1.65878 -1.15451 0
M  V30 2111 C 217.372 -0.390771 -1.91044 0
M  V30 2112 O 216.642 0.594323 -1.86667 0
M  V30 2113 H 215.222 -0.611405 -0.429177 0
M  V30 2114 H 217.884 -1.89219 -0.467134 0
M  V30 2115 H 216.98 -2.49954 -1.86894 0
M  V30 2116 N 217.281 0.66697 -1.42791 0
M  V30 2117 C 218.211 1.79218 -1.49677 0
M  V30 2118 C 219.192 1.66405 -0.352623 0
M  V30 2119 O 220.377 1.85708 -0.567993 0
M  V30 2120 C 217.507 3.17565 -1.40605 0
M  V30 2121 C 216.461 3.45124 -2.53127 0
M  V30 2122 C 215.787 4.83127 -2.29112 0
M  V30 2123 C 217.087 3.41236 -3.95418 0
M  V30 2124 H 218.781 1.73713 -2.43853 0
M  V30 2125 H 216.327 0.83432 -1.17367 0
M  V30 2126 H 218.28 3.96022 -1.44029 0
M  V30 2127 H 217.004 3.23767 -0.429271 0
M  V30 2128 H 215.663 2.69031 -2.49034 0
M  V30 2129 H 215.311 4.85988 -1.29709 0
M  V30 2130 H 215.011 5.02528 -3.04531 0
M  V30 2131 H 216.535 5.63859 -2.34297 0
M  V30 2132 H 217.949 4.09651 -4.01073 0
M  V30 2133 H 216.346 3.72173 -4.70752 0
M  V30 2134 H 217.416 2.39665 -4.21532 0
M  V30 2135 N 218.759 1.29093 0.90403 0
M  V30 2136 C 219.989 1.19516 1.68522 0
M  V30 2137 C 220.397 -0.24738 1.87576 0
M  V30 2138 O 219.74 -1.17798 1.40959 0
M  V30 2139 C 219.802 1.83249 3.0929 0
M  V30 2140 C 219.466 3.32531 3.13484 0
M  V30 2141 C 220.463 4.28821 2.93953 0
M  V30 2142 C 218.148 3.73656 3.35688 0
M  V30 2143 C 220.142 5.64212 2.96553 0
M  V30 2144 C 217.829 5.0917 3.37919 0
M  V30 2145 C 218.827 6.04258 3.18373 0
M  V30 2146 O 218.515 7.37298 3.20385 0
M  V30 2147 H 218.247 0.415467 0.533257 0
M  V30 2148 H 220.801 1.70912 1.13922 0
M  V30 2149 H 219.031 1.26358 3.65473 0
M  V30 2150 H 220.72 1.68054 3.69476 0
M  V30 2151 H 221.486 3.98382 2.76616 0
M  V30 2152 H 217.365 3.00101 3.49943 0
M  V30 2153 H 220.909 6.38407 2.81216 0
M  V30 2154 H 216.806 5.39256 3.54787 0
M  V30 2155 H 217.574 7.46048 3.36681 0
M  V30 2156 N 220.237 -1.11381 1.11499 0
M  V30 2157 C 221.167 -2.19509 0.796125 0
M  V30 2158 C 222.148 -1.68458 -0.235796 0
M  V30 2159 O 223.333 -1.93947 -0.0991344 0
M  V30 2160 C 220.463 -3.46475 0.239205 0
M  V30 2161 C 219.417 -4.10744 1.20307 0
M  V30 2162 C 218.743 -5.32293 0.50683 0
M  V30 2163 C 220.043 -4.55597 2.55399 0
M  V30 2164 H 221.737 -2.46439 1.70024 0
M  V30 2165 H 219.283 -1.18446 0.818935 0
M  V30 2166 H 221.236 -4.214 0.00392006 0
M  V30 2167 H 219.96 -3.19006 -0.700206 0
M  V30 2168 H 218.619 -3.37813 1.42399 0
M  V30 2169 H 218.267 -5.01095 -0.437408 0
M  V30 2170 H 217.967 -5.76243 1.1497 0
M  V30 2171 H 219.491 -6.09956 0.280351 0
M  V30 2172 H 220.905 -5.21841 2.37391 0
M  V30 2173 H 219.302 -5.10363 3.15673 0
M  V30 2174 H 220.372 -3.69013 3.14575 0
M  V30 2175 N 221.715 -0.905404 -1.28997 0
M  V30 2176 C 222.645 -0.404212 -2.29975 0
M  V30 2177 C 223.626 0.523784 -1.61835 0
M  V30 2178 O 224.811 0.433298 -1.89304 0
M  V30 2179 C 221.941 0.364042 -3.45387 0
M  V30 2180 C 220.895 -0.474048 -4.25367 0
M  V30 2181 C 220.221 0.422045 -5.33032 0
M  V30 2182 C 221.521 -1.72696 -4.92923 0
M  V30 2183 H 223.215 -1.24807 -2.72146 0
M  V30 2184 H 220.761 -0.601585 -1.30832 0
M  V30 2185 H 222.714 0.725447 -4.15109 0
M  V30 2186 H 221.438 1.24174 -3.02074 0
M  V30 2187 H 220.097 -0.81786 -3.57361 0
M  V30 2188 H 219.745 1.29804 -4.85963 0
M  V30 2189 H 219.445 -0.135057 -5.87445 0
M  V30 2190 H 220.969 0.779517 -6.05604 0
M  V30 2191 H 222.383 -1.43495 -5.55051 0
M  V30 2192 H 220.78 -2.22582 -5.57295 0
M  V30 2193 H 221.85 -2.45964 -4.17887 0
M  V30 2194 N 223.193 1.4272 -0.668489 0
M  V30 2195 C 224.609 1.55992 -0.33745 0
M  V30 2196 C 224.809 1.64933 1.15756 0
M  V30 2197 O 223.865 1.61278 1.94282 0
M  V30 2198 C 225.178 2.81314 -1.06222 0
M  V30 2199 C 226.726 2.95078 -1.04394 0
M  V30 2200 C 227.201 4.23252 -1.74991 0
M  V30 2201 N 228.692 4.3015 -1.71829 0
M  V30 2202 C 229.427 5.28127 -2.23315 0
M  V30 2203 N 228.923 6.32293 -2.83156 0
M  V30 2204 N 230.716 5.19882 -2.13726 0
M  V30 2205 H 222.867 1.3516 -1.63846 0
M  V30 2206 H 225.13 0.650174 -0.689912 0
M  V30 2207 H 224.836 2.80823 -2.11734 0
M  V30 2208 H 224.71 3.72012 -0.62344 0
M  V30 2209 H 227.097 2.951 0.0028244 0
M  V30 2210 H 227.178 2.05627 -1.52155 0
M  V30 2211 H 226.822 4.2399 -2.79633 0
M  V30 2212 H 226.752 5.11626 -1.24685 0
M  V30 2213 H 229.243 3.55499 -1.28175 0
M  V30 2214 H 229.556 7.03398 -3.20079 0
M  V30 2215 H 227.901 6.32873 -2.87223 0
M  V30 2216 H 231.092 4.37423 -1.66669 0
M  V30 2217 H 231.265 5.96077 -2.54158 0
M  V30 2218 N 224.671 0.411399 1.52136 0
M  V30 2219 C 225.634 -0.401089 2.25663 0
M  V30 2220 C 226.634 -0.971732 1.28117 0
M  V30 2221 O 227.824 -0.850254 1.52041 0
M  V30 2222 C 224.956 -1.56483 3.02863 0
M  V30 2223 H 226.149 0.24295 2.98914 0
M  V30 2224 H 223.702 0.163968 1.55438 0
M  V30 2225 H 224.437 -2.24567 2.33967 0
M  V30 2226 H 224.222 -1.16211 3.74483 0
M  V30 2227 H 225.712 -2.13951 3.58629 0
M  V30 2228 N 226.149 -1.5696 0.141893 0
M  V30 2229 C 227.397 -1.95573 -0.509484 0
M  V30 2230 C 227.718 -1.02746 -1.65736 0
M  V30 2231 O 226.988 -0.0880311 -1.95702 0
M  V30 2232 H 225.568 -0.722115 -0.191205 0
M  V30 2233 H 228.23 -1.93697 0.216196 0
M  V30 2234 H 227.326 -2.99171 -0.889 0
M  V30 2235 N 227.627 0.131896 -1.57047 0
M  V30 2236 C 228.873 0.843179 -1.84441 0
M  V30 2237 C 229.206 1.80129 -0.725749 0
M  V30 2238 O 228.481 1.92624 0.269469 0
M  V30 2239 C 228.764 1.60442 -3.22382 0
M  V30 2240 C 228.617 0.666782 -4.4483 0
M  V30 2241 C 229.936 2.56354 -3.5773 0
M  V30 2242 H 227.055 0.305081 -0.670891 0
M  V30 2243 H 229.697 0.107839 -1.89694 0
M  V30 2244 H 227.847 2.23128 -3.18035 0
M  V30 2245 H 229.519 0.0497646 -4.61273 0
M  V30 2246 H 227.762 -0.022609 -4.33794 0
M  V30 2247 H 228.433 1.23579 -5.37989 0
M  V30 2248 H 230.909 2.0378 -3.62785 0
M  V30 2249 H 229.785 3.06657 -4.5525 0
M  V30 2250 H 230.046 3.38419 -2.84473 0
M  V30 2251 N 229.106 1.52395 0.401703 0
M  V30 2252 C 230.522 1.41363 0.740864 0
M  V30 2253 C 230.722 0.523982 1.94568 0
M  V30 2254 O 229.778 -0.00741204 2.52499 0
M  V30 2255 C 231.091 2.84011 0.987847 0
M  V30 2256 C 232.639 2.93404 1.09011 0
M  V30 2257 C 233.114 4.37036 1.3698 0
M  V30 2258 N 234.605 4.40304 1.43829 0
M  V30 2259 C 235.34 5.48508 1.67112 0
M  V30 2260 N 234.836 6.66819 1.87949 0
M  V30 2261 N 236.629 5.36034 1.69187 0
M  V30 2262 H 228.78 2.08765 -0.391262 0
M  V30 2263 H 231.043 0.941265 -0.112798 0
M  V30 2264 H 230.749 3.51265 0.174835 0
M  V30 2265 H 230.623 3.25502 1.906 0
M  V30 2266 H 233.01 2.26325 1.8937 0
M  V30 2267 H 233.091 2.55359 0.15015 0
M  V30 2268 H 232.735 5.04676 0.571353 0
M  V30 2269 H 232.665 4.72623 2.3224 0
M  V30 2270 H 235.156 3.55024 1.29486 0
M  V30 2271 H 235.469 7.45063 2.05185 0
M  V30 2272 H 233.814 6.6987 1.85199 0
M  V30 2273 H 237.005 4.42579 1.52451 0
M  V30 2274 H 237.178 6.20434 1.86993 0
M  V30 2275 N 230.584 -0.659388 1.43143 0
M  V30 2276 C 231.514 -1.78422 1.50625 0
M  V30 2277 C 232.495 -1.66216 0.361443 0
M  V30 2278 O 233.68 -1.85404 0.577834 0
M  V30 2279 C 230.81 -3.16815 1.42287 0
M  V30 2280 C 229.764 -3.43777 2.54954 0
M  V30 2281 C 229.09 -4.81905 2.31671 0
M  V30 2282 C 230.39 -3.39134 3.97222 0
M  V30 2283 H 232.084 -1.72417 2.44771 0
M  V30 2284 H 229.63 -0.828084 1.17808 0
M  V30 2285 H 231.583 -3.95253 1.46127 0
M  V30 2286 H 230.307 -3.23534 0.446435 0
M  V30 2287 H 228.966 -2.67707 2.50457 0
M  V30 2288 H 228.614 -4.85294 1.32284 0
M  V30 2289 H 228.314 -5.00906 3.07192 0
M  V30 2290 H 229.838 -5.62609 2.37284 0
M  V30 2291 H 231.252 -4.07518 4.03239 0
M  V30 2292 H 229.649 -3.69671 4.72719 0
M  V30 2293 H 230.719 -2.37426 4.22797 0
M  V30 2294 N 232.062 -1.29571 -0.897171 0
M  V30 2295 C 233.473 -1.15964 -1.46319 0
M  V30 2296 C 233.824 0.244267 -1.94674 0
M  V30 2297 O 232.949 1.13998 -1.83939 0
M  V30 2298 C 233.544 -2.09906 -2.65942 0
M  V30 2299 C 232.103 -2.00314 -3.18671 0
M  V30 2300 C 231.25 -2.00687 -1.91363 0
M  V30 2301 H 234.201 -1.42019 -0.708268 0
M  V30 2302 H 234.222 -1.67276 -3.41759 0
M  V30 2303 H 233.734 -3.12075 -2.30718 0
M  V30 2304 H 231.835 -1.01242 -3.58582 0
M  V30 2305 H 231.948 -2.88102 -3.82798 0
M  V30 2306 H 230.312 -1.45319 -2.09175 0
M  V30 2307 H 231.095 -3.04566 -1.58413 0
M  V30 2308 N 233.54 1.10788 -1.12088 0
M  V30 2309 C 234.47 2.19083 -0.807755 0
M  V30 2310 C 235.451 1.6858 0.226859 0
M  V30 2311 O 236.636 1.93997 0.0888475 0
M  V30 2312 C 233.766 3.46344 -0.257576 0
M  V30 2313 C 232.72 4.101 -1.22483 0
M  V30 2314 C 232.046 5.32016 -0.535052 0
M  V30 2315 C 233.346 4.54236 -2.57811 0
M  V30 2316 H 235.04 2.45534 -1.71328 0
M  V30 2317 H 232.586 1.1801 -0.825205 0
M  V30 2318 H 234.539 4.21392 -0.0262679 0
M  V30 2319 H 233.263 3.19373 0.683278 0
M  V30 2320 H 231.922 3.37054 -1.44189 0
M  V30 2321 H 231.57 5.01319 0.410827 0
M  V30 2322 H 231.27 5.75625 -1.18024 0
M  V30 2323 H 232.794 6.09799 -0.312695 0
M  V30 2324 H 234.208 5.20575 -2.40155 0
M  V30 2325 H 232.605 5.08682 -3.18375 0
M  V30 2326 H 233.675 3.6734 -3.16528 0
M  V30 2327 N 235.018 0.912232 1.28515 0
M  V30 2328 C 235.981 0.404223 2.25607 0
M  V30 2329 C 236.981 -0.468602 1.53821 0
M  V30 2330 O 238.171 -0.271873 1.72065 0
M  V30 2331 C 235.303 -0.420653 3.38295 0
M  V30 2332 H 236.496 1.26188 2.7206 0
M  V30 2333 H 234.049 0.691495 1.40171 0
M  V30 2334 H 234.784 -1.29777 2.97201 0
M  V30 2335 H 234.569 0.204935 3.91564 0
M  V30 2336 H 236.059 -0.766971 4.10496 0
M  V30 2337 N 236.496 -1.42363 0.676048 0
M  V30 2338 C 237.742 -2.0182 0.199125 0
M  V30 2339 C 238.075 -1.53339 -1.19168 0
M  V30 2340 O 237.35 -0.736124 -1.80032 0
M  V30 2341 C 237.633 -3.59331 0.235144 0
M  V30 2342 C 237.486 -4.17989 1.66149 0
M  V30 2343 C 238.805 -4.3813 -0.41595 0
M  V30 2344 H 235.924 -0.733293 0.0738311 0
M  V30 2345 H 238.566 -1.69368 0.86107 0
M  V30 2346 H 236.716 -3.87109 -0.328487 0
M  V30 2347 H 238.388 -4.0116 2.27747 0
M  V30 2348 H 236.631 -3.7377 2.20178 0
M  V30 2349 H 237.302 -5.27126 1.63837 0
M  V30 2350 H 239.778 -4.16051 0.0638529 0
M  V30 2351 H 238.654 -5.47717 -0.360115 0
M  V30 2352 H 238.915 -4.16101 -1.49373 0
M  V30 2353 N 237.974 -0.419461 -1.51915 0
M  V30 2354 C 238.937 0.389116 -2.25873 0
M  V30 2355 C 239.937 0.964924 -1.28631 0
M  V30 2356 O 241.127 0.842179 -1.52489 0
M  V30 2357 C 238.259 1.54874 -3.03689 0
M  V30 2358 H 239.452 -0.258799 -2.98781 0
M  V30 2359 H 237.005 -0.172209 -1.55348 0
M  V30 2360 H 237.74 2.23323 -2.35154 0
M  V30 2361 H 237.525 1.14223 -3.75094 0
M  V30 2362 H 239.015 2.12046 -3.59759 0
M  V30 2363 N 239.452 1.56882 -0.150215 0
M  V30 2364 C 240.382 2.19935 0.784284 0
M  V30 2365 C 241.363 1.14854 1.25469 0
M  V30 2366 O 242.548 1.43209 1.31168 0
M  V30 2367 C 239.678 2.82349 2.02229 0
M  V30 2368 C 238.632 3.93285 1.68853 0
M  V30 2369 C 237.958 4.42649 2.99944 0
M  V30 2370 C 239.258 5.13904 0.932714 0
M  V30 2371 H 240.952 2.9828 0.258781 0
M  V30 2372 H 238.498 1.43473 0.123029 0
M  V30 2373 H 240.451 3.25126 2.68088 0
M  V30 2374 H 239.175 2.0134 2.57157 0
M  V30 2375 H 237.834 3.5113 1.05371 0
M  V30 2376 H 237.482 3.58458 3.52869 0
M  V30 2377 H 237.182 5.17476 2.78374 0
M  V30 2378 H 238.706 4.88099 3.66868 0
M  V30 2379 H 240.12 5.53506 1.49345 0
M  V30 2380 H 238.517 5.94515 0.81684 0
M  V30 2381 H 239.587 4.84842 -0.0749568 0
M  V30 2382 N 240.93 -0.123565 1.57115 0
M  V30 2383 C 241.86 -1.15309 2.03042 0
M  V30 2384 C 242.841 -1.43454 0.914061 0
M  V30 2385 O 244.026 -1.53973 1.18347 0
M  V30 2386 C 241.156 -2.48043 2.43089 0
M  V30 2387 C 240.11 -2.3437 3.58127 0
M  V30 2388 C 239.436 -3.72026 3.84059 0
M  V30 2389 C 240.736 -1.80804 4.90007 0
M  V30 2390 H 242.43 -0.771102 2.893 0
M  V30 2391 H 239.976 -0.369479 1.39179 0
M  V30 2392 H 241.929 -3.20311 2.73823 0
M  V30 2393 H 240.653 -2.88122 1.53796 0
M  V30 2394 H 239.312 -1.64551 3.27595 0
M  V30 2395 H 238.96 -4.09582 2.91979 0
M  V30 2396 H 238.66 -3.63732 4.6149 0
M  V30 2397 H 240.184 -4.45806 4.1724 0
M  V30 2398 H 241.598 -2.42886 5.19307 0
M  V30 2399 H 239.995 -1.83343 5.71407 0
M  V30 2400 H 241.065 -0.76528 4.78823 0
M  V30 2401 N 242.408 -1.52605 -0.393616 0
M  V30 2402 C 243.371 -1.76415 -1.46323 0
M  V30 2403 C 244.371 -0.634126 -1.47768 0
M  V30 2404 O 245.561 -0.902142 -1.4902 0
M  V30 2405 C 242.693 -1.8607 -2.85641 0
M  V30 2406 H 243.886 -2.71916 -1.26498 0
M  V30 2407 H 241.439 -1.43257 -0.625073 0
M  V30 2408 H 242.174 -0.925378 -3.10817 0
M  V30 2409 H 241.959 -2.68235 -2.85993 0
M  V30 2410 H 243.449 -2.06179 -3.63153 0
M  V30 2411 N 243.887 0.651787 -1.4349 0
M  V30 2412 C 244.85 1.74647 -1.48429 0
M  V30 2413 C 245.85 1.56513 -0.368817 0
M  V30 2414 O 247.04 1.62385 -0.630623 0
M  V30 2415 C 244.172 3.13533 -1.33827 0
M  V30 2416 H 245.365 1.71649 -2.4592 0
M  V30 2417 H 242.918 0.863573 -1.30277 0
M  V30 2418 H 243.653 3.22142 -0.37349 0
M  V30 2419 H 243.438 3.28101 -2.14691 0
M  V30 2420 H 244.928 3.93356 -1.40218 0
M  V30 2421 N 245.365 1.30045 0.890287 0
M  V30 2422 C 246.605 1.19839 1.65584 0
M  V30 2423 C 246.969 -0.244175 1.90441 0
M  V30 2424 O 248.17 -0.469378 2.6467 0
M  V30 2425 C 246.441 1.99876 2.96284 0
M  V30 2426 S 248 2.06309 3.87275 0
M  V30 2427 H 244.818 0.427157 0.568382 0
M  V30 2428 H 247.42 1.64453 1.05715 0
M  V30 2429 H 246.124 3.03809 2.75913 0
M  V30 2430 H 245.655 1.55903 3.61189 0
M  V30 2431 H 247.67 1.18661 4.81803 0
M  V30 2432 N 246.843 -1.10192 1.12674 0
M  V30 2433 C 248.083 -1.83825 0.893736 0
M  V30 2434 C 248.447 -1.83341 -0.570082 0
M  V30 2435 O 249.648 -2.52553 -0.920354 0
M  V30 2436 C 247.919 -3.26405 1.45582 0
M  V30 2437 S 249.478 -4.17136 1.36171 0
M  V30 2438 H 246.296 -0.633732 0.322342 0
M  V30 2439 H 248.898 -1.32581 1.43675 0
M  V30 2440 H 247.602 -3.24329 2.51473 0
M  V30 2441 H 247.133 -3.82721 0.910405 0
M  V30 2442 H 249.148 -4.95069 0.334863 0
M  V30 2443 N 248.321 -0.919034 -1.28029 0
M  V30 2444 C 249.569 -0.553838 -1.94363 0
M  V30 2445 C 249.89 0.906357 -1.72656 0
M  V30 2446 O 249.16 1.64143 -1.0693 0
M  V30 2447 H 247.74 -0.201834 -0.719216 0
M  V30 2448 H 250.402 -1.16954 -1.55909 0
M  V30 2449 H 249.498 -0.752758 -3.02886 0
M  V30 2450 N 249.799 1.42003 -0.683588 0
M  V30 2451 C 251.047 2.01015 -0.209101 0
M  V30 2452 C 251.368 1.54365 1.19149 0
M  V30 2453 O 250.638 0.769083 1.80172 0
M  V30 2454 H 249.218 0.743294 -0.074315 0
M  V30 2455 H 251.88 1.73798 -0.882066 0
M  V30 2456 H 250.976 3.11343 -0.2172 0
M  V30 2457 N 251.277 0.427512 1.51691 0
M  V30 2458 C 252.187 -0.39527 2.31246 0
M  V30 2459 C 253.203 -1.03674 1.39742 0
M  V30 2460 O 254.379 -1.03425 1.72816 0
M  V30 2461 C 251.444 -1.48706 3.13189 0
M  V30 2462 C 250.505 -0.866743 4.20459 0
M  V30 2463 C 249.738 -1.90651 4.98486 0
M  V30 2464 O 249.961 -3.12733 4.77026 0
M  V30 2465 O 248.895 -1.5025 5.82845 0
M  V30 2466 H 252.721 0.253918 3.02637 0
M  V30 2467 H 250.306 0.190274 1.48183 0
M  V30 2468 H 252.188 -2.12047 3.64162 0
M  V30 2469 H 250.863 -2.12051 2.44573 0
M  V30 2470 H 249.77 -0.195544 3.73589 0
M  V30 2471 H 251.103 -0.276934 4.9142 0
M  V30 2472 N 252.755 -1.56801 0.158532 0
M  V30 2473 C 253.718 -2.16138 -0.762705 0
M  V30 2474 C 254.718 -1.1061 -1.16713 0
M  V30 2475 O 255.908 -1.36191 -1.08617 0
M  V30 2476 C 253.04 -2.73386 -2.03649 0
M  V30 2477 H 254.233 -2.98886 -0.246354 0
M  V30 2478 H 251.786 -1.56035 -0.0909744 0
M  V30 2479 H 252.521 -1.94335 -2.59623 0
M  V30 2480 H 252.306 -3.50601 -1.75559 0
M  V30 2481 H 253.796 -3.19065 -2.6942 0
M  V30 2482 N 254.233 0.115231 -1.57178 0
M  V30 2483 C 255.163 1.1423 -2.03651 0
M  V30 2484 C 256.144 1.42967 -0.921655 0
M  V30 2485 O 257.329 1.53343 -1.19162 0
M  V30 2486 C 254.459 2.4675 -2.44401 0
M  V30 2487 C 253.413 2.32467 -3.59365 0
M  V30 2488 C 252.739 3.69984 -3.86026 0
M  V30 2489 C 254.039 1.78203 -4.90959 0
M  V30 2490 H 255.733 0.755749 -2.89705 0
M  V30 2491 H 253.279 0.362093 -1.39373 0
M  V30 2492 H 255.232 3.18854 -2.75517 0
M  V30 2493 H 253.956 2.87302 -1.55322 0
M  V30 2494 H 252.615 1.62811 -3.28463 0
M  V30 2495 H 252.263 4.08028 -2.94147 0
M  V30 2496 H 251.963 3.61279 -4.63412 0
M  V30 2497 H 253.487 4.43587 -4.19599 0
M  V30 2498 H 254.901 2.40128 -5.20587 0
M  V30 2499 H 253.298 1.8031 -5.72371 0
M  V30 2500 H 254.368 0.739876 -4.79222 0
M  V30 2501 N 255.711 1.52812 0.385517 0
M  V30 2502 C 256.957 1.68275 1.13188 0
M  V30 2503 C 257.29 0.423179 1.89533 0
M  V30 2504 O 256.565 -0.579113 1.85679 0
M  V30 2505 C 256.848 2.92001 2.1073 0
M  V30 2506 C 256.701 4.28067 1.38125 0
M  V30 2507 C 258.02 3.11283 3.11113 0
M  V30 2508 H 255.139 0.612352 0.410115 0
M  V30 2509 H 257.781 1.85415 0.414869 0
M  V30 2510 H 255.931 2.77519 2.71874 0
M  V30 2511 H 257.603 4.54324 0.799187 0
M  V30 2512 H 255.846 4.28388 0.683092 0
M  V30 2513 H 256.517 5.10733 2.09417 0
M  V30 2514 H 258.993 3.2482 2.6006 0
M  V30 2515 H 257.869 3.99325 3.76605 0
M  V30 2516 H 258.13 2.25656 3.80173 0
M  V30 2517 N 257.189 -0.644168 1.43834 0
M  V30 2518 C 258.121 -1.76955 1.45669 0
M  V30 2519 C 259.134 -1.58956 0.351666 0
M  V30 2520 O 260.323 -1.6751 0.616644 0
M  V30 2521 C 257.423 -3.14507 1.26248 0
M  V30 2522 C 256.596 -3.59083 2.49757 0
M  V30 2523 C 255.655 -4.75467 2.25427 0
M  V30 2524 O 254.681 -4.84444 2.98836 0
M  V30 2525 N 255.883 -5.66289 1.27661 0
M  V30 2526 H 258.648 -1.75856 2.42682 0
M  V30 2527 H 256.209 -0.828312 1.39106 0
M  V30 2528 H 258.201 -3.90067 1.0784 0
M  V30 2529 H 256.771 -3.10325 0.376478 0
M  V30 2530 H 255.991 -2.7387 2.8353 0
M  V30 2531 H 257.279 -3.85613 3.31934 0
M  V30 2532 H 256.677 -5.61718 0.670064 0
M  V30 2533 H 255.234 -6.41533 1.15234 0
M  V30 2534 N 258.668 -1.30515 -0.883378 0
M  V30 2535 C 259.917 -1.18795 -1.63005 0
M  V30 2536 C 260.23 0.255923 -1.93919 0
M  V30 2537 O 261.436 0.494654 -2.66956 0
M  V30 2538 C 259.892 -2.07878 -2.93794 0
M  V30 2539 C 259.5 -3.57184 -2.70414 0
M  V30 2540 C 261.244 -2.04924 -3.71761 0
M  V30 2541 C 259.151 -4.38317 -3.97029 0
M  V30 2542 H 258.081 -0.441031 -0.611562 0
M  V30 2543 H 260.732 -1.55275 -0.977854 0
M  V30 2544 H 259.114 -1.64283 -3.60315 0
M  V30 2545 H 260.288 -4.08937 -2.12384 0
M  V30 2546 H 258.603 -3.61976 -2.0582 0
M  V30 2547 H 261.2 -2.62792 -4.65665 0
M  V30 2548 H 261.543 -1.0331 -4.03277 0
M  V30 2549 H 262.076 -2.46649 -3.12104 0
M  V30 2550 H 258.815 -5.40632 -3.70671 0
M  V30 2551 H 258.335 -3.91326 -4.54559 0
M  V30 2552 H 260.014 -4.49834 -4.65036 0
M  V30 2553 N 260.146 1.09593 -1.13257 0
M  V30 2554 C 261.394 1.81375 -0.891492 0
M  V30 2555 C 261.715 1.86049 0.584009 0
M  V30 2556 O 260.985 1.34481 1.42449 0
M  V30 2557 H 259.565 0.671708 -0.326828 0
M  V30 2558 H 262.227 1.3256 -1.42877 0
M  V30 2559 H 261.323 2.84612 -1.28071 0
M  V30 2560 N 261.624 0.925811 1.2754 0
M  V30 2561 C 262.554 0.440748 2.29303 0
M  V30 2562 C 263.535 -0.497971 1.62648 0
M  V30 2563 O 264.72 -0.403126 1.8997 0
M  V30 2564 C 261.85 -0.309048 3.45922 0
M  V30 2565 C 260.804 0.54166 4.24559 0
M  V30 2566 C 260.13 -0.337191 5.33636 0
M  V30 2567 C 261.43 1.80516 4.90114 0
M  V30 2568 H 263.124 1.29121 2.70126 0
M  V30 2569 H 260.67 0.622323 1.29858 0
M  V30 2570 H 262.623 -0.659315 4.1621 0
M  V30 2571 H 261.347 -1.19352 3.04011 0
M  V30 2572 H 260.006 0.874609 3.56014 0
M  V30 2573 H 259.654 -1.22056 4.87966 0
M  V30 2574 H 259.354 0.228497 5.87156 0
M  V30 2575 H 260.878 -0.683072 6.06767 0
M  V30 2576 H 262.292 1.52307 5.52698 0
M  V30 2577 H 260.689 2.3142 5.53683 0
M  V30 2578 H 261.759 2.52581 4.13921 0
M  V30 2579 N 263.102 -1.41638 0.69111 0
M  V30 2580 C 264.35 -2.00902 0.219758 0
M  V30 2581 C 264.671 -1.54994 -1.18329 0
M  V30 2582 O 263.941 -0.778628 -1.79762 0
M  V30 2583 H 262.521 -0.74289 0.0782558 0
M  V30 2584 H 265.183 -1.73327 0.891271 0
M  V30 2585 H 264.279 -3.11224 0.233708 0
M  V30 2586 N 264.58 -0.43555 -1.51462 0
M  V30 2587 C 265.826 0.131709 -2.02372 0
M  V30 2588 C 266.159 1.42516 -1.3192 0
M  V30 2589 O 265.434 1.89606 -0.433573 0
M  V30 2590 C 265.717 0.352301 -3.58373 0
M  V30 2591 C 265.57 -0.959676 -4.39443 0
M  V30 2592 C 266.889 1.12286 -4.25535 0
M  V30 2593 H 264.008 0.0463936 -0.735538 0
M  V30 2594 H 266.65 -0.574197 -1.81116 0
M  V30 2595 H 264.8 0.9536 -3.76615 0
M  V30 2596 H 266.472 -1.59482 -4.32855 0
M  V30 2597 H 264.715 -1.56468 -4.04599 0
M  V30 2598 H 265.386 -0.759394 -5.46752 0
M  V30 2599 H 267.862 0.613545 -4.11552 0
M  V30 2600 H 266.738 1.24598 -5.34571 0
M  V30 2601 H 266.999 2.15048 -3.86273 0
M  V30 2602 N 266.058 1.56714 -0.166846 0
M  V30 2603 C 267.306 1.96358 0.478305 0
M  V30 2604 C 267.627 1.0537 1.6408 0
M  V30 2605 O 266.897 0.119154 1.95537 0
M  V30 2606 H 265.477 0.725065 0.179692 0
M  V30 2607 H 268.139 1.93329 -0.246985 0
M  V30 2608 H 267.235 3.00547 0.841292 0
M  V30 2609 N 267.536 -0.106894 1.57237 0
M  V30 2610 C 268.446 -1.14911 2.0453 0
M  V30 2611 C 269.462 -1.44592 0.96795 0
M  V30 2612 O 270.638 -1.55468 1.2803 0
M  V30 2613 C 267.703 -2.45272 2.45036 0
M  V30 2614 C 266.764 -2.22879 3.66911 0
M  V30 2615 C 265.997 -3.47024 4.05475 0
M  V30 2616 O 266.22 -4.54804 3.44252 0
M  V30 2617 O 265.154 -3.3731 4.98504 0
M  V30 2618 H 268.98 -0.777461 2.9358 0
M  V30 2619 H 266.565 -0.318563 1.45964 0
M  V30 2620 H 268.447 -3.22055 2.71769 0
M  V30 2621 H 267.122 -2.81886 1.59129 0
M  V30 2622 H 266.029 -1.43915 3.45311 0
M  V30 2623 H 267.362 -1.91163 4.53561 0
M  V30 2624 N 269.014 -1.53014 -0.377408 0
M  V30 2625 C 270.291 -1.59215 -1.13622 0
M  V30 2626 C 270.671 -0.392407 -2.07421 0
M  V30 2627 O 270.019 0.618342 -2.19975 0
M  V30 2628 C 270.229 -2.93669 -1.88573 0
M  V30 2629 C 271.577 -3.47822 -2.43526 0
M  V30 2630 O 272.601 -2.9562 -1.98715 0
M  V30 2631 O 271.46 -4.39055 -3.25412 0
M  V30 2632 H 268.554 -0.642625 -0.52054 0
M  V30 2633 H 271.1 -1.65353 -0.381625 0
M  V30 2634 H 269.872 -3.7243 -1.20048 0
M  V30 2635 H 269.495 -2.90968 -2.70968 0
M  V30 2636 N 270.492 0.636531 -1.44174 0
M  V30 2637 C 271.442 1.74233 -1.47061 0
M  V30 2638 C 272.426 1.57331 -0.337034 0
M  V30 2639 O 273.618 1.67159 -0.581973 0
M  V30 2640 C 270.747 3.12897 -1.41246 0
M  V30 2641 C 269.833 3.35288 -2.59698 0
M  V30 2642 N 270.224 3.2807 -3.84972 0
M  V30 2643 C 268.522 3.66065 -2.54778 0
M  V30 2644 C 269.223 3.51001 -4.63867 0
M  V30 2645 N 268.199 3.73616 -3.94857 0
M  V30 2646 H 272.001 1.67103 -2.41773 0
M  V30 2647 H 269.515 0.838806 -1.3906 0
M  V30 2648 H 271.512 3.92189 -1.41398 0
M  V30 2649 H 270.172 3.21197 -0.47569 0
M  V30 2650 H 271.183 3.07109 -4.17019 0
M  V30 2651 H 267.86 3.81379 -1.6987 0
M  V30 2652 H 269.25 3.51059 -5.72894 0
M  V30 2653 N 271.97 1.30982 0.876444 0
M  V30 2654 C 272.9 1.20668 1.99903 0
M  V30 2655 C 273.881 0.095354 1.69833 0
M  V30 2656 O 275.066 0.27885 1.92188 0
M  V30 2657 C 272.196 0.90655 3.3526 0
M  V30 2658 C 271.15 1.97675 3.79617 0
M  V30 2659 C 270.476 1.52943 5.1236 0
M  V30 2660 C 271.776 3.389 3.97422 0
M  V30 2661 H 273.47 2.14586 2.0879 0
M  V30 2662 H 271.016 1.03308 1.00317 0
M  V30 2663 H 272.969 0.821025 4.13324 0
M  V30 2664 H 271.693 -0.0682969 3.26529 0
M  V30 2665 H 270.352 2.05205 3.03787 0
M  V30 2666 H 270 0.54262 5.00065 0
M  V30 2667 H 269.7 2.24532 5.43009 0
M  V30 2668 H 271.224 1.45786 5.92941 0
M  V30 2669 H 272.638 3.34081 4.659 0
M  V30 2670 H 271.035 4.0865 4.3946 0
M  V30 2671 H 272.105 3.80163 3.01006 0
M  V30 2672 N 273.449 -1.08991 1.13837 0
M  V30 2673 C 274.379 -2.17771 0.842507 0
M  V30 2674 C 275.36 -1.6892 -0.20001 0
M  V30 2675 O 276.545 -1.94113 -0.0579731 0
M  V30 2676 C 273.675 -3.4589 0.312644 0
M  V30 2677 C 272.629 -4.08099 1.28992 0
M  V30 2678 C 271.955 -5.31098 0.619623 0
M  V30 2679 C 273.255 -4.50077 2.65005 0
M  V30 2680 H 274.949 -2.42777 1.75213 0
M  V30 2681 H 272.495 -1.16682 0.843875 0
M  V30 2682 H 274.448 -4.21297 0.0933043 0
M  V30 2683 H 273.172 -3.20419 -0.632382 0
M  V30 2684 H 271.831 -3.34717 1.49533 0
M  V30 2685 H 271.479 -5.0191 -0.33102 0
M  V30 2686 H 271.179 -5.73674 1.27167 0
M  V30 2687 H 272.703 -6.09224 0.409669 0
M  V30 2688 H 274.117 -5.16688 2.48407 0
M  V30 2689 H 272.514 -5.03553 3.26427 0
M  V30 2690 H 273.584 -3.62257 3.22332 0
M  V30 2691 N 274.927 -0.932562 -1.27047 0
M  V30 2692 C 276.152 -0.591474 -1.98787 0
M  V30 2693 C 276.577 0.824601 -1.69062 0
M  V30 2694 O 275.935 1.5541 -0.933677 0
M  V30 2695 C 275.983 -0.829808 -3.50922 0
M  V30 2696 O 275.087 0.102266 -4.12273 0
M  V30 2697 H 274.428 -0.227185 -0.623926 0
M  V30 2698 H 276.958 -1.25314 -1.61733 0
M  V30 2699 H 276.968 -0.747292 -4.01098 0
M  V30 2700 H 275.643 -1.86201 -3.7189 0
M  V30 2701 H 274.22 -0.0305761 -3.72887 0
M  V30 2702 N 276.405 1.4127 -0.698611 0
M  V30 2703 C 277.335 2.33447 -0.049629 0
M  V30 2704 C 278.316 1.51982 0.763898 0
M  V30 2705 O 279.501 1.80509 0.716257 0
M  V30 2706 C 276.631 3.35828 0.885267 0
M  V30 2707 C 275.585 4.27627 0.178613 0
M  V30 2708 C 274.911 5.20406 1.22807 0
M  V30 2709 C 276.211 5.13459 -0.956933 0
M  V30 2710 H 277.905 2.87966 -0.81951 0
M  V30 2711 H 275.451 1.38461 -0.395538 0
M  V30 2712 H 277.404 3.9924 1.34854 0
M  V30 2713 H 276.128 2.79666 1.68685 0
M  V30 2714 H 274.787 3.65643 -0.26466 0
M  V30 2715 H 274.435 4.60558 2.02226 0
M  V30 2716 H 274.135 5.82661 0.760239 0
M  V30 2717 H 275.659 5.86695 1.69179 0
M  V30 2718 H 277.073 5.70421 -0.573805 0
M  V30 2719 H 275.47 5.8467 -1.35205 0
M  V30 2720 H 276.54 4.50443 -1.79524 0
M  V30 2721 N 277.883 0.443576 1.51229 0
M  V30 2722 C 279.294 -0.0180867 1.86691 0
M  V30 2723 C 279.645 -1.41384 1.36033 0
M  V30 2724 O 278.77 -2.04291 0.713722 0
M  V30 2725 C 279.365 -0.039597 3.38777 0
M  V30 2726 C 277.924 -0.445692 3.73752 0
M  V30 2727 C 277.071 0.357584 2.74985 0
M  V30 2728 H 280.022 0.659138 1.44364 0
M  V30 2729 H 280.043 -0.847761 3.70936 0
M  V30 2730 H 279.555 0.976382 3.75617 0
M  V30 2731 H 277.656 -1.46704 3.42503 0
M  V30 2732 H 277.769 -0.166155 4.78812 0
M  V30 2733 H 276.133 -0.184973 2.54027 0
M  V30 2734 H 276.916 1.37256 3.14668 0
M  V30 2735 N 279.361 -1.56624 0.175154 0
M  V30 2736 C 280.324 -2.16934 -0.739738 0
M  V30 2737 C 281.324 -1.11842 -1.15533 0
M  V30 2738 O 282.514 -1.37335 -1.07167 0
M  V30 2739 C 279.646 -2.75531 -2.00738 0
M  V30 2740 H 280.839 -2.99131 -0.214639 0
M  V30 2741 H 278.392 -1.56123 -0.0744197 0
M  V30 2742 H 279.127 -1.97078 -2.57548 0
M  V30 2743 H 278.912 -3.52444 -1.71831 0
M  V30 2744 H 280.402 -3.21904 -2.66021 0
M  V30 2745 N 280.839 0.0985539 -1.57292 0
M  V30 2746 C 281.802 1.10402 -2.00858 0
M  V30 2747 C 282.802 1.33146 -0.901593 0
M  V30 2748 O 283.992 1.29318 -1.16716 0
M  V30 2749 C 281.124 2.45394 -2.36632 0
M  V30 2750 H 282.317 0.729099 -2.90902 0
M  V30 2751 H 279.87 0.343495 -1.52479 0
M  V30 2752 H 280.605 2.87769 -1.49531 0
M  V30 2753 H 280.39 2.30235 -3.17387 0
M  V30 2754 H 281.88 3.17718 -2.71007 0
M  V30 2755 N 282.317 1.53212 0.369288 0
M  V30 2756 C 283.565 1.68881 1.11012 0
M  V30 2757 C 283.886 0.441285 1.89941 0
M  V30 2758 O 283.156 -0.544623 1.88177 0
M  V30 2759 H 281.736 0.622569 0.412816 0
M  V30 2760 H 284.398 1.90391 0.416802 0
M  V30 2761 H 283.494 2.54822 1.80201 0
M  V30 2762 N 283.795 -0.628877 1.44509 0
M  V30 2763 C 285.041 -1.39045 1.47629 0
M  V30 2764 C 285.374 -1.93892 0.109343 0
M  V30 2765 O 284.649 -1.7379 -0.87334 0
M  V30 2766 C 284.932 -2.55408 2.53848 0
M  V30 2767 C 284.785 -2.05896 3.99909 0
M  V30 2768 C 286.104 -3.5759 2.56549 0
M  V30 2769 H 283.223 -0.504232 0.537512 0
M  V30 2770 H 285.865 -0.710854 1.76201 0
M  V30 2771 H 284.015 -3.13384 2.29615 0
M  V30 2772 H 285.687 -1.52734 4.35282 0
M  V30 2773 H 283.93 -1.37061 4.11578 0
M  V30 2774 H 284.601 -2.89681 4.69882 0
M  V30 2775 H 287.077 -3.09419 2.78207 0
M  V30 2776 H 285.953 -4.36527 3.32769 0
M  V30 2777 H 286.214 -4.11808 1.60832 0
M  V30 2778 N 285.273 -1.31445 -0.869486 0
M  V30 2779 C 286.519 -1.21337 -1.62496 0
M  V30 2780 C 286.852 0.227872 -1.92858 0
M  V30 2781 O 286.127 1.16094 -1.56053 0
M  V30 2782 C 286.41 -2.05814 -2.95487 0
M  V30 2783 C 286.263 -3.5824 -2.72 0
M  V30 2784 C 287.582 -1.9079 -3.96594 0
M  V30 2785 H 284.701 -0.442135 -0.589649 0
M  V30 2786 H 287.343 -1.6124 -1.00507 0
M  V30 2787 H 285.493 -1.71913 -3.48394 0
M  V30 2788 H 287.165 -4.0228 -2.25762 0
M  V30 2789 H 285.408 -3.81647 -2.06224 0
M  V30 2790 H 286.079 -4.12657 -3.66631 0
M  V30 2791 H 288.555 -2.20459 -3.52898 0
M  V30 2792 H 287.431 -2.52199 -4.87531 0
M  V30 2793 H 287.692 -0.871341 -4.33428 0
M  V30 2794 N 286.751 1.08385 -1.14413 0
M  V30 2795 C 287.681 2.17321 -0.854044 0
M  V30 2796 C 288.662 1.69024 0.191049 0
M  V30 2797 O 289.847 1.94141 0.0476779 0
M  V30 2798 C 286.977 3.45719 -0.330983 0
M  V30 2799 C 285.931 4.07409 -1.31155 0
M  V30 2800 C 285.257 5.30762 -0.64778 0
M  V30 2801 C 286.557 4.48665 -2.67388 0
M  V30 2802 H 288.251 2.41845 -1.76498 0
M  V30 2803 H 285.797 1.16233 -0.850051 0
M  V30 2804 H 287.75 4.21241 -0.115645 0
M  V30 2805 H 286.474 3.2075 0.615381 0
M  V30 2806 H 285.133 3.33919 -1.51306 0
M  V30 2807 H 284.781 5.02078 0.304398 0
M  V30 2808 H 284.481 5.72992 -1.30207 0
M  V30 2809 H 286.005 6.08998 -0.441972 0
M  V30 2810 H 287.419 5.15364 -2.51143 0
M  V30 2811 H 285.816 5.01814 -3.29093 0
M  V30 2812 H 286.886 3.60543 -3.24248 0
M  V30 2813 N 288.23 0.939286 1.26551 0
M  V30 2814 C 289.455 0.602008 1.98471 0
M  V30 2815 C 289.88 -0.815624 1.69497 0
M  V30 2816 O 289.238 -1.54912 0.941905 0
M  V30 2817 C 289.286 0.848407 3.50477 0
M  V30 2818 O 288.39 -0.0804009 4.12322 0
M  V30 2819 H 287.731 0.23049 0.622712 0
M  V30 2820 H 290.261 1.2617 1.61066 0
M  V30 2821 H 290.271 0.768553 4.00696 0
M  V30 2822 H 288.946 1.88171 3.70897 0
M  V30 2823 H 287.523 0.0503508 3.72866 0
M  V30 2824 N 289.708 -1.40897 0.706093 0
M  V30 2825 C 290.948 -2.02916 0.245827 0
M  V30 2826 C 291.312 -1.54751 -1.13649 0
M  V30 2827 O 292.513 -2.08768 -1.69321 0
M  V30 2828 C 290.784 -3.56031 0.312537 0
M  V30 2829 S 292.343 -4.38741 -0.0721388 0
M  V30 2830 H 289.161 -0.704186 0.0982007 0
M  V30 2831 H 291.763 -1.72168 0.926207 0
M  V30 2832 H 290.467 -3.88579 1.32039 0
M  V30 2833 H 289.998 -3.91495 -0.386641 0
M  V30 2834 H 292.013 -4.78952 -1.29692 0
M  V30 2835 N 291.186 -0.45159 -1.50991 0
M  V30 2836 C 292.116 0.342898 -2.30969 0
M  V30 2837 C 293.097 1.00815 -1.37005 0
M  V30 2838 O 294.282 1.00907 -1.65926 0
M  V30 2839 C 291.412 1.43637 -3.16205 0
M  V30 2840 C 290.366 0.893818 -4.18563 0
M  V30 2841 C 289.692 2.08411 -4.92411 0
M  V30 2842 C 290.992 -0.0815568 -5.22236 0
M  V30 2843 H 292.686 -0.324556 -2.97636 0
M  V30 2844 H 290.232 -0.157531 -1.43136 0
M  V30 2845 H 292.185 1.9995 -3.70942 0
M  V30 2846 H 290.909 2.13232 -2.47386 0
M  V30 2847 H 289.568 0.352798 -3.64898 0
M  V30 2848 H 289.216 2.76658 -4.20082 0
M  V30 2849 H 288.916 1.72741 -5.61636 0
M  V30 2850 H 290.44 2.65251 -5.49976 0
M  V30 2851 H 291.854 0.391742 -5.7196 0
M  V30 2852 H 290.251 -0.351551 -5.99069 0
M  V30 2853 H 291.321 -1.01374 -4.74185 0
M  V30 2854 N 292.664 1.56529 -0.183458 0
M  V30 2855 C 293.627 2.17324 0.728223 0
M  V30 2856 C 294.627 1.12453 1.14939 0
M  V30 2857 O 295.817 1.37902 1.06437 0
M  V30 2858 C 292.949 2.76591 1.99274 0
M  V30 2859 H 294.142 2.99241 0.198772 0
M  V30 2860 H 291.695 1.5616 0.0661391 0
M  V30 2861 H 292.43 1.98441 2.56499 0
M  V30 2862 H 292.215 3.5335 1.69959 0
M  V30 2863 H 293.705 3.23311 2.6431 0
M  V30 2864 N 294.142 -0.090211 1.57342 0
M  V30 2865 C 295.105 -1.09335 2.01441 0
M  V30 2866 C 296.105 -1.32666 0.908641 0
M  V30 2867 O 297.295 -1.28697 1.174 0
M  V30 2868 C 294.427 -2.44136 2.3793 0
M  V30 2869 H 295.62 -0.713662 2.91285 0
M  V30 2870 H 293.173 -0.335404 1.52659 0
M  V30 2871 H 293.908 -2.86972 1.51055 0
M  V30 2872 H 293.693 -2.28548 3.18603 0
M  V30 2873 H 295.183 -3.16277 2.72688 0
M  V30 2874 N 295.62 -1.53406 -0.361157 0
M  V30 2875 C 296.583 -1.79479 -1.42548 0
M  V30 2876 C 297.583 -0.665327 -1.4639 0
M  V30 2877 O 298.773 -0.933549 -1.47073 0
M  V30 2878 C 295.905 -1.92087 -2.8163 0
M  V30 2879 H 297.098 -2.74538 -1.20701 0
M  V30 2880 H 294.651 -1.4455 -0.594546 0
M  V30 2881 H 295.386 -0.991099 -3.08784 0
M  V30 2882 H 295.171 -2.74241 -2.80239 0
M  V30 2883 H 296.661 -2.13836 -3.58697 0
M  V30 2884 N 297.098 0.621204 -1.44841 0
M  V30 2885 C 298.326 1.40752 -1.51646 0
M  V30 2886 C 298.741 1.88246 -0.144549 0
M  V30 2887 O 298.098 1.61422 0.851416 0
M  V30 2888 C 298.149 2.62119 -2.4895 0
M  V30 2889 O 297.87 2.16602 -3.80808 0
M  V30 2890 C 299.371 3.55135 -2.65319 0
M  V30 2891 H 296.591 0.431325 -0.514004 0
M  V30 2892 H 299.135 0.758835 -1.899 0
M  V30 2893 H 297.29 3.23058 -2.13805 0
M  V30 2894 H 297.704 2.95358 -4.33433 0
M  V30 2895 H 299.178 4.36874 -3.37409 0
M  V30 2896 H 299.655 4.04592 -1.70886 0
M  V30 2897 H 300.261 3.00058 -3.01405 0
M  V30 2898 N 298.576 1.31904 0.862503 0
M  V30 2899 C 299.822 1.23207 1.61838 0
M  V30 2900 C 300.177 -0.206062 1.91293 0
M  V30 2901 O 299.47 -1.14162 1.53875 0
M  V30 2902 C 299.664 2.01713 2.95037 0
M  V30 2903 C 299.493 3.53014 2.78588 0
M  V30 2904 C 298.263 4.22359 2.77382 0
M  V30 2905 C 300.461 4.47819 2.52909 0
M  V30 2906 N 298.443 5.59766 2.52062 0
M  V30 2907 C 299.814 5.72947 2.36922 0
M  V30 2908 C 301.869 4.37162 2.38314 0
M  V30 2909 C 300.572 6.88623 2.07823 0
M  V30 2910 C 302.598 5.5263 2.10604 0
M  V30 2911 C 301.96 6.76752 1.95411 0
M  V30 2912 H 298.059 0.505984 0.596242 0
M  V30 2913 H 300.643 1.66179 1.01452 0
M  V30 2914 H 298.814 1.61098 3.53415 0
M  V30 2915 H 300.546 1.84975 3.59953 0
M  V30 2916 H 297.301 3.74401 2.90036 0
M  V30 2917 H 297.725 6.32135 2.42352 0
M  V30 2918 H 302.367 3.41857 2.48784 0
M  V30 2919 H 300.085 7.83948 1.9609 0
M  V30 2920 H 303.671 5.46307 2.00101 0
M  V30 2921 H 302.551 7.6459 1.74274 0
M  V30 2922 N 300.054 -1.07777 1.14986 0
M  V30 2923 C 300.984 -2.16865 0.865557 0
M  V30 2924 C 301.965 -1.69123 -0.182083 0
M  V30 2925 O 303.15 -1.94164 -0.0373815 0
M  V30 2926 C 300.28 -3.45539 0.349313 0
M  V30 2927 C 299.234 -4.06708 1.33313 0
M  V30 2928 C 298.56 -5.30411 0.675918 0
M  V30 2929 C 299.86 -4.47241 2.69764 0
M  V30 2930 H 301.554 -2.40905 1.77778 0
M  V30 2931 H 299.1 -1.15781 0.856203 0
M  V30 2932 H 301.053 -4.21174 0.137983 0
M  V30 2933 H 299.777 -3.21072 -0.598362 0
M  V30 2934 H 298.436 -3.33112 1.53075 0
M  V30 2935 H 298.084 -5.02232 -0.277767 0
M  V30 2936 H 297.784 -5.72293 1.33244 0
M  V30 2937 H 299.308 -6.08755 0.474262 0
M  V30 2938 H 300.722 -5.14025 2.53873 0
M  V30 2939 H 299.119 -5.00062 3.3175 0
M  V30 2940 H 300.189 -3.58818 3.26156 0
M  V30 2941 N 301.532 -0.945985 -1.26051 0
M  V30 2942 C 302.778 -0.597002 -1.93814 0
M  V30 2943 C 303.111 0.862484 -1.73997 0
M  V30 2944 O 302.386 1.61769 -1.07986 0
M  V30 2945 C 302.669 -0.945937 -3.47454 0
M  V30 2946 C 302.522 -2.46052 -3.76535 0
M  V30 2947 C 303.841 -0.464785 -4.37639 0
M  V30 2948 H 300.96 -0.218366 -0.703907 0
M  V30 2949 H 303.602 -1.18107 -1.48831 0
M  V30 2950 H 301.752 -0.448902 -3.85898 0
M  V30 2951 H 303.424 -3.03065 -3.47778 0
M  V30 2952 H 301.667 -2.90194 -3.22444 0
M  V30 2953 H 302.338 -2.65517 -4.83947 0
M  V30 2954 H 304.814 -0.891016 -4.06448 0
M  V30 2955 H 303.69 -0.737712 -5.4392 0
M  V30 2956 H 303.951 0.635274 -4.37512 0
M  V30 2957 N 303.011 1.40521 -0.713556 0
M  V30 2958 C 303.941 2.33381 -0.0743864 0
M  V30 2959 C 304.922 1.52784 0.747735 0
M  V30 2960 O 306.107 1.81258 0.697071 0
M  V30 2961 C 303.237 3.36748 0.849598 0
M  V30 2962 C 302.191 4.27793 0.133247 0
M  V30 2963 C 301.517 5.21679 1.17281 0
M  V30 2964 C 302.817 5.12415 -1.01134 0
M  V30 2965 H 304.511 2.87081 -0.850007 0
M  V30 2966 H 302.057 1.38034 -0.410201 0
M  V30 2967 H 304.01 4.00648 1.30612 0
M  V30 2968 H 302.734 2.81439 1.65709 0
M  V30 2969 H 301.393 3.65342 -0.303426 0
M  V30 2970 H 301.041 4.62677 1.9733 0
M  V30 2971 H 300.741 5.83435 0.698397 0
M  V30 2972 H 302.265 5.88456 1.62947 0
M  V30 2973 H 303.679 5.69781 -0.634274 0
M  V30 2974 H 302.076 5.83203 -1.41399 0
M  V30 2975 H 303.146 4.48514 -1.84292 0
M  V30 2976 N 304.489 0.459591 1.5075 0
M  V30 2977 C 305.905 0.113092 1.59199 0
M  V30 2978 C 306.105 -1.37951 1.46874 0
M  V30 2979 O 305.161 -2.15168 1.32132 0
M  V30 2980 C 306.474 0.653043 2.93523 0
M  V30 2981 C 308.022 0.615449 3.0689 0
M  V30 2982 C 308.497 1.13275 4.43771 0
M  V30 2983 N 309.988 1.09167 4.50152 0
M  V30 2984 C 310.723 1.46256 5.54434 0
M  V30 2985 N 310.219 1.90739 6.66026 0
M  V30 2986 N 312.012 1.37932 5.44914 0
M  V30 2987 H 304.163 1.43049 1.57005 0
M  V30 2988 H 306.426 0.590861 0.741341 0
M  V30 2989 H 306.132 1.69822 3.07983 0
M  V30 2990 H 306.006 0.0902132 3.77092 0
M  V30 2991 H 308.393 -0.420793 2.92084 0
M  V30 2992 H 308.474 1.21495 2.25106 0
M  V30 2993 H 308.118 2.16757 4.59324 0
M  V30 2994 H 308.048 0.509576 5.24129 0
M  V30 2995 H 310.539 0.76528 3.7007 0
M  V30 2996 H 310.852 2.17218 7.41644 0
M  V30 2997 H 309.197 1.94683 6.67176 0
M  V30 2998 H 312.388 1.0303 4.56621 0
M  V30 2999 H 312.561 1.67164 6.26067 0
M  V30 3000 N 305.967 -1.56429 0.191757 0
M  V30 3001 C 306.897 -2.21937 -0.725696 0
M  V30 3002 C 307.878 -1.1814 -1.2238 0
M  V30 3003 O 309.063 -1.46636 -1.27325 0
M  V30 3004 C 306.193 -2.87611 -1.94672 0
M  V30 3005 C 305.147 -3.97623 -1.58366 0
M  V30 3006 C 304.473 -4.50446 -2.88102 0
M  V30 3007 C 305.773 -5.16197 -0.796133 0
M  V30 3008 H 307.467 -2.98861 -0.179606 0
M  V30 3009 H 305.013 -1.43749 -0.0849464 0
M  V30 3010 H 306.966 -3.3212 -2.59373 0
M  V30 3011 H 305.69 -2.08087 -2.51728 0
M  V30 3012 H 304.349 -3.53801 -0.960247 0
M  V30 3013 H 303.997 -3.67688 -3.43241 0
M  V30 3014 H 303.697 -5.24675 -2.64556 0
M  V30 3015 H 305.221 -4.97654 -3.53798 0
M  V30 3016 H 306.635 -5.57271 -1.34618 0
M  V30 3017 H 305.032 -5.96471 -0.658928 0
M  V30 3018 H 306.102 -4.84473 0.203478 0
M  V30 3019 N 307.445 0.0818655 -1.57387 0
M  V30 3020 C 308.861 0.436412 -1.53517 0
M  V30 3021 C 309.061 1.79758 -0.910459 0
M  V30 3022 O 308.117 2.47324 -0.508636 0
M  V30 3023 C 309.43 0.386734 -2.98203 0
M  V30 3024 C 310.978 0.467644 -3.09487 0
M  V30 3025 C 311.453 0.447978 -4.55804 0
M  V30 3026 N 312.944 0.508348 -4.60402 0
M  V30 3027 C 313.679 0.515184 -5.71081 0
M  V30 3028 N 313.175 0.477435 -6.91153 0
M  V30 3029 N 314.968 0.560988 -5.59294 0
M  V30 3030 H 307.119 -0.809546 -1.96367 0
M  V30 3031 H 309.382 -0.302733 -0.898363 0
M  V30 3032 H 309.088 -0.546539 -3.47427 0
M  V30 3033 H 308.962 1.20075 -3.57578 0
M  V30 3034 H 311.349 1.39134 -2.60242 0
M  V30 3035 H 311.43 -0.374753 -2.5304 0
M  V30 3036 H 311.074 -0.471826 -5.05704 0
M  V30 3037 H 311.004 1.30777 -5.10103 0
M  V30 3038 H 313.495 0.54218 -3.7399 0
M  V30 3039 H 313.808 0.486299 -7.71268 0
M  V30 3040 H 312.153 0.444278 -6.93579 0
M  V30 3041 H 315.344 0.5881 -4.64391 0
M  V30 3042 H 315.517 0.562846 -6.45551 0
M  V30 3043 N 308.923 1.53595 0.353017 0
M  V30 3044 C 309.853 1.83902 1.43883 0
M  V30 3045 C 310.834 0.693421 1.55324 0
M  V30 3046 O 312.019 0.944452 1.69687 0
M  V30 3047 C 309.149 2.04016 2.8106 0
M  V30 3048 C 308.103 3.19814 2.84434 0
M  V30 3049 C 307.429 3.25244 4.24406 0
M  V30 3050 C 308.729 4.58133 2.50822 0
M  V30 3051 H 310.423 2.74835 1.1877 0
M  V30 3052 H 307.969 1.32242 0.569917 0
M  V30 3053 H 309.922 2.238 3.57059 0
M  V30 3054 H 308.646 1.09804 3.07588 0
M  V30 3055 H 307.305 2.9987 2.10887 0
M  V30 3056 H 306.953 2.28646 4.48029 0
M  V30 3057 H 306.653 4.03054 4.27576 0
M  V30 3058 H 308.177 3.47228 5.0226 0
M  V30 3059 H 309.591 4.77995 3.16534 0
M  V30 3060 H 307.988 5.38276 2.6529 0
M  V30 3061 H 309.058 4.62387 1.46034 0
M  V30 3062 N 310.401 -0.613514 1.45168 0
M  V30 3063 C 311.649 -1.36997 1.48581 0
M  V30 3064 C 311.97 -1.94589 0.126545 0
M  V30 3065 O 311.24 -1.76816 -0.843372 0
M  V30 3066 H 309.82 -0.508558 0.547154 0
M  V30 3067 H 312.482 -0.720853 1.81079 0
M  V30 3068 H 311.578 -2.1924 2.22127 0
M  V30 3069 N 311.879 -1.3236 -0.855495 0
M  V30 3070 C 313.125 -1.23054 -1.612 0
M  V30 3071 C 313.458 0.207404 -1.93089 0
M  V30 3072 O 312.733 1.14432 -1.57275 0
M  V30 3073 C 313.016 -2.08937 -2.93287 0
M  V30 3074 C 312.869 -3.61105 -2.68185 0
M  V30 3075 C 314.188 -1.94986 -3.94549 0
M  V30 3076 H 311.307 -0.448364 -0.584926 0
M  V30 3077 H 313.949 -1.62297 -0.987917 0
M  V30 3078 H 312.099 -1.75599 -3.46551 0
M  V30 3079 H 313.771 -4.04652 -2.21483 0
M  V30 3080 H 312.014 -3.83813 -2.02164 0
M  V30 3081 H 312.685 -4.16522 -3.62234 0
M  V30 3082 H 315.161 -2.24189 -3.5054 0
M  V30 3083 H 314.037 -2.57356 -4.84829 0
M  V30 3084 H 314.298 -0.917263 -4.3248 0
M  V30 3085 N 313.357 1.07166 -1.15556 0
M  V30 3086 C 314.287 2.16403 -0.877046 0
M  V30 3087 C 315.268 1.69217 0.173111 0
M  V30 3088 O 316.453 1.94181 0.027084 0
M  V30 3089 C 313.583 3.45349 -0.367632 0
M  V30 3090 C 312.537 4.05995 -1.35468 0
M  V30 3091 C 311.863 5.30045 -0.704038 0
M  V30 3092 C 313.163 4.45804 -2.72132 0
M  V30 3093 H 314.857 2.39959 -1.79053 0
M  V30 3094 H 312.403 1.15325 -0.862331 0
M  V30 3095 H 314.356 4.21095 -0.160317 0
M  V30 3096 H 313.08 3.21385 0.581326 0
M  V30 3097 H 311.739 3.32296 -1.54839 0
M  V30 3098 H 311.387 5.02373 0.251128 0
M  V30 3099 H 311.087 5.71579 -1.36277 0
M  V30 3100 H 312.611 6.08495 -0.50654 0
M  V30 3101 H 314.025 5.12671 -2.56595 0
M  V30 3102 H 312.422 4.98296 -3.34397 0
M  V30 3103 H 313.492 3.57083 -3.28054 0
M  V30 3104 N 314.835 0.952656 1.25548 0
M  V30 3105 C 315.768 0.415525 2.24385 0
M  V30 3106 C 316.746 -0.502046 1.54655 0
M  V30 3107 O 317.93 -0.436875 1.83368 0
M  V30 3108 C 315.057 -0.401734 3.36309 0
M  V30 3109 C 314.103 0.455949 4.24056 0
M  V30 3110 S 314.936 1.88698 5.01152 0
M  V30 3111 C 316.092 1.07809 6.16545 0
M  V30 3112 H 316.325 1.25315 2.69599 0
M  V30 3113 H 313.858 0.756587 1.34592 0
M  V30 3114 H 315.816 -0.867329 4.01233 0
M  V30 3115 H 314.477 -1.21416 2.89684 0
M  V30 3116 H 313.67 -0.170776 5.03711 0
M  V30 3117 H 313.272 0.856675 3.64056 0
M  V30 3118 H 315.564 0.325816 6.76716 0
M  V30 3119 H 316.507 1.84849 6.83547 0
M  V30 3120 H 316.915 0.60909 5.61204 0
M  V30 3121 N 316.313 -1.40141 0.720998 0
M  V30 3122 C 317.562 -2.0002 0.259804 0
M  V30 3123 C 317.875 -1.57839 -1.15526 0
M  V30 3124 O 319.081 -2.10455 -1.71525 0
M  V30 3125 C 317.537 -3.57516 0.413566 0
M  V30 3126 C 317.145 -4.08667 1.83562 0
M  V30 3127 C 318.889 -4.24498 0.0134387 0
M  V30 3128 C 316.796 -5.58686 1.93968 0
M  V30 3129 H 315.726 -0.748195 0.0933806 0
M  V30 3130 H 318.377 -1.60313 0.892866 0
M  V30 3131 H 316.759 -3.9495 -0.288169 0
M  V30 3132 H 317.933 -3.82598 2.56817 0
M  V30 3133 H 316.248 -3.543 2.1877 0
M  V30 3134 H 318.845 -5.34654 0.0703954 0
M  V30 3135 H 319.188 -4.03375 -1.02927 0
M  V30 3136 H 319.721 -3.92188 0.665815 0
M  V30 3137 H 316.46 -5.8467 2.96379 0
M  V30 3138 H 315.98 -5.86602 1.25131 0
M  V30 3139 H 317.659 -6.23875 1.71431 0
M  V30 3140 N 317.792 -0.46758 -1.50504 0
M  V30 3141 C 318.755 0.317059 -2.26996 0
M  V30 3142 C 319.755 0.923513 -1.31635 0
M  V30 3143 O 320.945 0.793239 -1.55091 0
M  V30 3144 C 318.077 1.45134 -3.08462 0
M  V30 3145 H 319.27 -0.353723 -2.97807 0
M  V30 3146 H 316.823 -0.221545 -1.54722 0
M  V30 3147 H 317.558 2.15728 -2.4214 0
M  V30 3148 H 317.343 1.02232 -3.78538 0
M  V30 3149 H 318.833 2.00493 -3.66323 0
M  V30 3150 N 319.27 1.56325 -0.20005 0
M  V30 3151 C 320.2 2.22318 0.713916 0
M  V30 3152 C 321.181 1.18788 1.21752 0
M  V30 3153 O 322.366 1.47309 1.26545 0
M  V30 3154 C 319.496 2.88639 1.93144 0
M  V30 3155 C 318.45 3.98457 1.56255 0
M  V30 3156 C 317.776 4.51967 2.85709 0
M  V30 3157 C 319.076 5.16612 0.768747 0
M  V30 3158 H 320.77 2.98952 0.163755 0
M  V30 3159 H 318.316 1.43792 0.0773219 0
M  V30 3160 H 320.269 3.33491 2.57608 0
M  V30 3161 H 318.993 2.09419 2.50621 0
M  V30 3162 H 317.652 3.54305 0.941471 0
M  V30 3163 H 317.3 3.69503 3.41287 0
M  V30 3164 H 317 5.26071 2.6177 0
M  V30 3165 H 318.524 4.99523 3.51154 0
M  V30 3166 H 319.938 5.57977 1.3166 0
M  V30 3167 H 318.335 5.96812 0.627286 0
M  V30 3168 H 319.405 4.84358 -0.229168 0
M  V30 3169 N 320.748 -0.0735177 1.57428 0
M  V30 3170 C 321.976 -0.785969 1.9139 0
M  V30 3171 C 322.391 -1.71207 0.795847 0
M  V30 3172 O 321.748 -1.81033 -0.230915 0
M  V30 3173 C 321.799 -1.58107 3.25091 0
M  V30 3174 O 321.52 -0.6922 4.32597 0
M  V30 3175 C 323.021 -2.39467 3.73055 0
M  V30 3176 H 320.241 -0.223558 0.632663 0
M  V30 3177 H 322.785 -0.044302 2.04452 0
M  V30 3178 H 320.94 -2.27503 3.13562 0
M  V30 3179 H 321.354 -1.24504 5.09508 0
M  V30 3180 H 322.828 -2.90716 4.69242 0
M  V30 3181 H 323.305 -3.18913 3.01979 0
M  V30 3182 H 323.911 -1.7523 3.87523 0
M  V30 3183 N 322.226 -1.5378 -0.344866 0
M  V30 3184 C 323.451 -1.75211 -1.10977 0
M  V30 3185 C 323.876 -0.48936 -1.81623 0
M  V30 3186 O 323.234 0.557925 -1.72502 0
M  V30 3187 C 323.282 -2.93147 -2.09993 0
M  V30 3188 O 322.386 -2.63203 -3.17487 0
M  V30 3189 H 321.727 -0.581241 -0.321021 0
M  V30 3190 H 324.257 -2.00738 -0.395661 0
M  V30 3191 H 324.267 -3.19898 -2.53237 0
M  V30 3192 H 322.942 -3.84731 -1.5797 0
M  V30 3193 H 321.519 -2.47336 -2.79069 0
M  V30 3194 N 323.704 0.605807 -1.45491 0
M  V30 3195 C 324.667 1.69836 -1.5391 0
M  V30 3196 C 325.667 1.55261 -0.418424 0
M  V30 3197 O 326.857 1.60296 -0.681965 0
M  V30 3198 C 323.989 3.09117 -1.43734 0
M  V30 3199 H 325.182 1.63738 -2.51257 0
M  V30 3200 H 322.735 0.821689 -1.32959 0
M  V30 3201 H 323.47 3.20791 -0.475788 0
M  V30 3202 H 323.255 3.21104 -2.25021 0
M  V30 3203 H 324.745 3.88696 -1.52661 0
M  V30 3204 N 325.182 1.32811 0.848464 0
M  V30 3205 C 326.428 1.23907 1.60546 0
M  V30 3206 C 326.761 -0.197161 1.93197 0
M  V30 3207 O 326.036 -1.13596 1.5788 0
M  V30 3208 C 326.319 2.10489 2.92175 0
M  V30 3209 C 326.172 3.62522 2.66266 0
M  V30 3210 C 327.491 1.97075 3.93509 0
M  V30 3211 H 324.61 0.451459 0.58254 0
M  V30 3212 H 327.252 1.62818 0.979296 0
M  V30 3213 H 325.402 1.77434 3.45614 0
M  V30 3214 H 327.074 4.05821 2.19334 0
M  V30 3215 H 325.317 3.84879 2.00126 0
M  V30 3216 H 325.988 4.18437 3.6002 0
M  V30 3217 H 328.464 2.26045 3.49346 0
M  V30 3218 H 327.34 2.59923 4.83457 0
M  V30 3219 H 327.601 0.940186 4.31987 0
M  V30 3220 N 326.66 -1.06551 1.16123 0
M  V30 3221 C 328.076 -1.3142 0.905585 0
M  V30 3222 C 328.276 -1.96571 -0.442964 0
M  V30 3223 O 327.332 -2.23068 -1.18308 0
M  V30 3224 C 328.645 -2.19741 2.05267 0
M  V30 3225 C 330.193 -2.33165 2.08813 0
M  V30 3226 C 330.668 -3.24838 3.22868 0
M  V30 3227 N 332.159 -3.32421 3.22568 0
M  V30 3228 C 332.894 -4.0344 4.0746 0
M  V30 3229 N 332.39 -4.77003 5.02434 0
M  V30 3230 N 334.183 -3.99464 3.95456 0
M  V30 3231 H 326.334 -0.626548 2.02949 0
M  V30 3232 H 328.597 -0.338777 0.8854 0
M  V30 3233 H 328.303 -1.79142 3.02657 0
M  V30 3234 H 328.177 -3.20313 1.99198 0
M  V30 3235 H 330.564 -2.73013 1.12018 0
M  V30 3236 H 330.645 -1.3227 2.18948 0
M  V30 3237 H 330.289 -2.85708 4.19921 0
M  V30 3238 H 330.219 -4.25707 3.0997 0
M  V30 3239 H 332.71 -2.79994 2.53795 0
M  V30 3240 H 333.023 -5.28712 5.63634 0
M  V30 3241 H 331.368 -4.75992 5.06415 0
M  V30 3242 H 334.559 -3.4111 3.20564 0
M  V30 3243 H 334.732 -4.54544 4.61837 0
M  V30 3244 N 328.138 -0.959301 -1.25041 0
M  V30 3245 C 329.366 -0.633949 -1.96948 0
M  V30 3246 C 329.781 0.794916 -1.7125 0
M  V30 3247 O 329.138 1.53231 -0.991287 0
M  V30 3248 C 329.189 -0.888805 -3.50403 0
M  V30 3249 O 328.91 -2.26149 -3.75218 0
M  V30 3250 C 330.411 -0.576482 -4.39536 0
M  V30 3251 H 327.631 -0.237263 -0.627652 0
M  V30 3252 H 330.175 -1.28495 -1.59089 0
M  V30 3253 H 328.33 -0.284145 -3.86357 0
M  V30 3254 H 328.744 -2.33514 -4.6965 0
M  V30 3255 H 330.218 -0.805314 -5.46094 0
M  V30 3256 H 330.695 0.489075 -4.36468 0
M  V30 3257 H 331.301 -1.16067 -4.09156 0
M  V30 3258 N 329.616 1.39756 -0.72842 0
M  V30 3259 C 330.862 2.00942 -0.273892 0
M  V30 3260 C 331.195 1.57656 1.13394 0
M  V30 3261 O 330.47 0.802434 1.77176 0
M  V30 3262 C 330.753 3.58211 -0.368346 0
M  V30 3263 C 330.606 4.11534 -1.81548 0
M  V30 3264 C 331.925 4.39372 0.253054 0
M  V30 3265 H 329.044 0.730047 -0.100996 0
M  V30 3266 H 331.686 1.66056 -0.923337 0
M  V30 3267 H 329.836 3.88061 0.184588 0
M  V30 3268 H 331.508 3.92431 -2.42478 0
M  V30 3269 H 329.751 3.65341 -2.33898 0
M  V30 3270 H 330.422 5.20682 -1.83288 0
M  V30 3271 H 332.898 4.15527 -0.218224 0
M  V30 3272 H 331.774 5.48677 0.156585 0
M  V30 3273 H 332.035 4.21358 1.33826 0
M  V30 3274 N 331.094 0.475555 1.50254 0
M  V30 3275 C 332.319 -0.0777042 2.07254 0
M  V30 3276 C 332.744 -1.3235 1.3366 0
M  V30 3277 O 332.102 -1.77152 0.385597 0
M  V30 3278 C 332.15 -0.340169 3.58992 0
M  V30 3279 O 331.254 -1.41982 3.87188 0
M  V30 3280 H 330.595 0.0149556 0.663832 0
M  V30 3281 H 333.125 0.667878 1.93392 0
M  V30 3282 H 333.135 -0.579332 4.03866 0
M  V30 3283 H 331.81 0.570167 4.11973 0
M  V30 3284 H 330.387 -1.16762 3.54148 0
M  V30 3285 N 332.573 -1.56217 0.208337 0
M  V30 3286 C 333.503 -2.22694 -0.702116 0
M  V30 3287 C 334.484 -1.19432 -1.2112 0
M  V30 3288 O 335.669 -1.47978 -1.25762 0
M  V30 3289 C 332.799 -2.8966 -1.9161 0
M  V30 3290 C 331.753 -3.9928 -1.5414 0
M  V30 3291 C 331.079 -4.53476 -2.83308 0
M  V30 3292 C 332.379 -5.17012 -0.741339 0
M  V30 3293 H 334.073 -2.99034 -0.147898 0
M  V30 3294 H 331.619 -1.43831 -0.0696951 0
M  V30 3295 H 333.572 -3.34852 -2.55836 0
M  V30 3296 H 332.296 -2.10746 -2.49507 0
M  V30 3297 H 330.955 -3.54799 -0.922668 0
M  V30 3298 H 330.603 -3.71308 -3.39322 0
M  V30 3299 H 330.303 -5.27451 -2.58976 0
M  V30 3300 H 331.827 -5.01378 -3.485 0
M  V30 3301 H 333.241 -5.58667 -1.28699 0
M  V30 3302 H 331.638 -5.97137 -0.595627 0
M  V30 3303 H 332.708 -4.8423 0.254851 0
M  V30 3304 N 334.051 0.0651679 -1.57465 0
M  V30 3305 C 335.3 0.761916 -1.86756 0
M  V30 3306 C 335.613 1.78406 -0.801925 0
M  V30 3307 O 336.819 2.53084 -0.982885 0
M  V30 3308 C 335.275 1.40603 -3.31299 0
M  V30 3309 C 334.883 0.422115 -4.46007 0
M  V30 3310 C 336.627 2.08476 -3.69781 0
M  V30 3311 C 334.534 1.07252 -5.81593 0
M  V30 3312 H 333.464 0.288308 -0.696702 0
M  V30 3313 H 336.115 0.015344 -1.83494 0
M  V30 3314 H 334.497 2.20109 -3.29193 0
M  V30 3315 H 335.671 -0.343613 -4.59517 0
M  V30 3316 H 333.986 -0.152527 -4.16121 0
M  V30 3317 H 336.583 2.57925 -4.68379 0
M  V30 3318 H 336.926 2.88712 -2.99919 0
M  V30 3319 H 337.459 1.35792 -3.73905 0
M  V30 3320 H 334.198 0.310342 -6.54765 0
M  V30 3321 H 333.718 1.80895 -5.71872 0
M  V30 3322 H 335.397 1.59043 -6.27148 0
M  V30 3323 N 335.529 1.53961 0.336706 0
M  V30 3324 C 336.754 1.75797 1.10046 0
M  V30 3325 C 337.179 0.498985 1.81361 0
M  V30 3326 O 336.537 -0.548769 1.72795 0
M  V30 3327 C 336.585 2.94257 2.08436 0
M  V30 3328 O 335.689 2.64883 3.16087 0
M  V30 3329 H 335.03 0.582936 0.317934 0
M  V30 3330 H 337.56 2.00945 0.38501 0
M  V30 3331 H 337.57 3.21237 2.51537 0
M  V30 3332 H 336.245 3.85564 1.55927 0
M  V30 3333 H 334.822 2.48812 2.77753 0
M  V30 3334 N 337.007 -0.598083 1.45811 0
M  V30 3335 C 337.937 -1.71873 1.58057 0
M  V30 3336 C 338.918 -1.64533 0.431615 0
M  V30 3337 O 340.103 -1.82787 0.65595 0
M  V30 3338 C 337.233 -3.10495 1.55597 0
M  V30 3339 C 336.187 -3.32654 2.69305 0
M  V30 3340 C 335.513 -4.71646 2.51902 0
M  V30 3341 C 336.813 -3.21981 4.11248 0
M  V30 3342 H 338.507 -1.61881 2.51863 0
M  V30 3343 H 336.053 -0.777372 1.21214 0
M  V30 3344 H 338.006 -3.88699 1.6276 0
M  V30 3345 H 336.73 -3.2135 0.583255 0
M  V30 3346 H 335.389 -2.56843 2.61586 0
M  V30 3347 H 335.037 -4.79246 1.52748 0
M  V30 3348 H 334.737 -4.87426 3.2816 0
M  V30 3349 H 336.261 -5.52038 2.60933 0
M  V30 3350 H 337.675 -3.90049 4.20161 0
M  V30 3351 H 336.072 -3.49289 4.87972 0
M  V30 3352 H 337.142 -2.1928 4.32486 0
M  V30 3353 N 338.485 -1.33259 -0.841409 0
M  V30 3354 C 339.395 -1.25332 -1.98316 0
M  V30 3355 C 340.411 -0.164364 -1.73222 0
M  V30 3356 O 341.587 -0.387486 -1.97637 0
M  V30 3357 C 338.652 -0.990078 -3.32262 0
M  V30 3358 C 337.713 -2.16879 -3.70489 0
M  V30 3359 C 336.946 -1.91801 -4.98044 0
M  V30 3360 O 337.169 -0.867075 -5.63771 0
M  V30 3361 O 336.103 -2.78267 -5.33714 0
M  V30 3362 H 339.929 -2.21344 -2.07944 0
M  V30 3363 H 337.514 -1.1328 -0.974058 0
M  V30 3364 H 339.396 -0.860321 -4.12524 0
M  V30 3365 H 338.071 -0.0602155 -3.23644 0
M  V30 3366 H 336.978 -2.35407 -2.90748 0
M  V30 3367 H 338.311 -3.0819 -3.8377 0
M  V30 3368 N 339.963 1.05934 -1.16686 0
M  V30 3369 C 341.379 1.30938 -0.912542 0
M  V30 3370 C 341.579 1.96803 0.432533 0
M  V30 3371 O 340.635 2.23693 1.17123 0
M  V30 3372 C 341.948 2.18649 -2.06429 0
M  V30 3373 C 343.496 2.32055 -2.10047 0
M  V30 3374 C 343.971 3.23122 -3.24586 0
M  V30 3375 N 345.462 3.30706 -3.24327 0
M  V30 3376 C 346.197 4.01273 -4.09594 0
M  V30 3377 N 345.693 4.74332 -5.04956 0
M  V30 3378 N 347.486 3.97361 -3.97569 0
M  V30 3379 H 339.637 0.615777 -2.03278 0
M  V30 3380 H 341.9 0.334077 -0.887185 0
M  V30 3381 H 341.606 1.77534 -3.03603 0
M  V30 3382 H 341.48 3.19252 -2.00894 0
M  V30 3383 H 343.867 2.72415 -1.13464 0
M  V30 3384 H 343.948 1.31107 -2.19647 0
M  V30 3385 H 343.592 2.83477 -4.2143 0
M  V30 3386 H 343.522 4.24057 -3.12223 0
M  V30 3387 H 346.013 2.78644 -2.55276 0
M  V30 3388 H 346.326 5.25716 -5.6643 0
M  V30 3389 H 344.671 4.733 -5.08933 0
M  V30 3390 H 347.862 3.39405 -3.22369 0
M  V30 3391 H 348.035 4.52089 -4.64241 0
M  V30 3392 N 341.441 0.965919 1.2453 0
M  V30 3393 C 342.688 0.626831 1.92554 0
M  V30 3394 C 343.016 -0.837739 1.75534 0
M  V30 3395 O 342.271 -1.61793 1.10098 0
M  V30 3396 C 342.57 0.945428 3.44669 0
M  V30 3397 C 342.236 2.39785 3.81856 0
M  V30 3398 C 340.898 2.79483 3.91718 0
M  V30 3399 C 343.25 3.34055 4.00071 0
M  V30 3400 C 340.578 4.12496 4.1721 0
M  V30 3401 C 342.93 4.66694 4.27059 0
M  V30 3402 C 341.594 5.06172 4.3514 0
M  V30 3403 H 340.864 0.229374 0.704605 0
M  V30 3404 H 343.511 1.21707 1.4785 0
M  V30 3405 H 341.816 0.272926 3.90848 0
M  V30 3406 H 343.513 0.661484 3.95507 0
M  V30 3407 H 340.103 2.08003 3.74743 0
M  V30 3408 H 344.287 3.04571 3.91855 0
M  V30 3409 H 339.543 4.42709 4.21685 0
M  V30 3410 H 343.717 5.3971 4.40097 0
M  V30 3411 H 341.344 6.09262 4.54646 0
M  V30 3412 N 342.919 -1.39368 0.735821 0
M  V30 3413 C 343.866 -2.30599 0.0963825 0
M  V30 3414 C 344.836 -1.49257 -0.728794 0
M  V30 3415 O 346.021 -1.77941 -0.688588 0
M  V30 3416 C 343.161 -3.35596 -0.804305 0
M  V30 3417 C 342.274 -4.31987 0.0335761 0
M  V30 3418 C 341.409 -5.24053 -0.868461 0
M  V30 3419 C 340.448 -6.12095 -0.0258776 0
M  V30 3420 N 339.585 -6.96514 -0.883893 0
M  V30 3421 H 344.425 -2.8471 0.880002 0
M  V30 3422 H 341.962 -1.40188 0.445619 0
M  V30 3423 H 343.92 -3.95062 -1.34096 0
M  V30 3424 H 342.55 -2.82938 -1.55389 0
M  V30 3425 H 341.602 -3.74133 0.68766 0
M  V30 3426 H 342.914 -4.94074 0.685036 0
M  V30 3427 H 342.068 -5.88549 -1.47293 0
M  V30 3428 H 340.807 -4.62289 -1.5537 0
M  V30 3429 H 339.812 -5.4661 0.591386 0
M  V30 3430 H 341.037 -6.75923 0.656156 0
M  V30 3431 H 338.983 -6.37318 -1.55441 0
M  V30 3432 H 338.9 -7.55448 -0.288931 0
M  V30 3433 H 340.168 -7.65439 -1.4739 0
M  V30 3434 N 344.397 -0.483516 -1.5 0
M  V30 3435 C 345.643 0.0672592 -2.02688 0
M  V30 3436 C 345.976 1.38247 -1.36387 0
M  V30 3437 O 345.251 1.88131 -0.493675 0
M  V30 3438 C 345.534 0.238109 -3.59312 0
M  V30 3439 C 345.387 -1.099 -4.36168 0
M  V30 3440 C 346.706 0.986916 -4.28892 0
M  V30 3441 H 343.825 0.0229696 -0.736642 0
M  V30 3442 H 346.467 -0.631527 -1.79197 0
M  V30 3443 H 344.617 0.8333 -3.79458 0
M  V30 3444 H 346.289 -1.73172 -4.27562 0
M  V30 3445 H 344.532 -1.69261 -3.99416 0
M  V30 3446 H 345.203 -0.932954 -5.44059 0
M  V30 3447 H 347.679 0.482302 -4.13295 0
M  V30 3448 H 346.555 1.07527 -5.38265 0
M  V30 3449 H 346.816 2.0265 -3.92919 0
M  V30 3450 N 345.875 1.56104 -0.216619 0
M  V30 3451 C 346.838 2.18819 0.681962 0
M  V30 3452 C 347.838 1.14866 1.12528 0
M  V30 3453 O 349.028 1.40128 1.03488 0
M  V30 3454 C 346.16 2.80756 1.93362 0
M  V30 3455 H 347.353 2.99595 0.135254 0
M  V30 3456 H 344.906 1.56265 0.0330003 0
M  V30 3457 H 345.641 2.03837 2.52232 0
M  V30 3458 H 345.426 3.56876 1.62426 0
M  V30 3459 H 346.916 3.28844 2.57393 0
M  V30 3460 N 347.353 -0.0568162 1.57498 0
M  V30 3461 C 348.599 -0.748893 1.89111 0
M  V30 3462 C 348.954 -1.74422 0.81208 0
M  V30 3463 O 348.247 -1.90731 -0.182247 0
M  V30 3464 C 348.441 -1.48359 3.25153 0
M  V30 3465 C 348.27 -0.560924 4.46188 0
M  V30 3466 C 347.04 -0.192264 5.04934 0
M  V30 3467 C 349.238 0.148824 5.14085 0
M  V30 3468 N 347.22 0.734555 6.0949 0
M  V30 3469 C 348.591 0.932286 6.12951 0
M  V30 3470 C 350.646 0.218713 4.97419 0
M  V30 3471 C 349.349 1.77917 6.96949 0
M  V30 3472 C 351.375 1.05262 5.81957 0
M  V30 3473 C 350.737 1.82409 6.80372 0
M  V30 3474 H 346.836 -0.249002 0.741298 0
M  V30 3475 H 349.42 -0.00984926 1.94698 0
M  V30 3476 H 347.591 -2.19326 3.20547 0
M  V30 3477 H 349.323 -2.12586 3.44368 0
M  V30 3478 H 346.078 -0.548421 4.70414 0
M  V30 3479 H 346.502 1.19165 6.6643 0
M  V30 3480 H 351.144 -0.363407 4.21235 0
M  V30 3481 H 348.862 2.3722 7.72497 0
M  V30 3482 H 352.448 1.10987 5.71116 0
M  V30 3483 H 351.328 2.45895 7.44651 0
M  V30 3484 N 348.832 -1.54138 -0.328536 0
M  V30 3485 C 350.248 -1.44736 -0.672574 0
M  V30 3486 C 350.448 -0.616217 -1.91846 0
M  V30 3487 O 349.504 -0.113067 -2.52247 0
M  V30 3488 C 350.817 -2.884 -0.851217 0
M  V30 3489 C 352.365 -2.98271 -0.948877 0
M  V30 3490 C 352.84 -4.43074 -1.15973 0
M  V30 3491 N 354.331 -4.46665 -1.22658 0
M  V30 3492 C 355.066 -5.55857 -1.40751 0
M  V30 3493 N 354.562 -6.75026 -1.5592 0
M  V30 3494 N 356.355 -5.43495 -1.4342 0
M  V30 3495 H 348.506 -2.06661 0.490421 0
M  V30 3496 H 350.769 -0.934812 0.157579 0
M  V30 3497 H 350.475 -3.51699 -0.00704236 0
M  V30 3498 H 350.349 -3.34225 -1.74853 0
M  V30 3499 H 352.736 -2.35102 -1.78356 0
M  V30 3500 H 352.817 -2.55785 -0.0281435 0
M  V30 3501 H 352.461 -5.06827 -0.329915 0
M  V30 3502 H 352.391 -4.83165 -2.09426 0
M  V30 3503 H 354.882 -3.60797 -1.124 0
M  V30 3504 H 355.195 -7.54004 -1.69404 0
M  V30 3505 H 353.54 -6.77944 -1.53027 0
M  V30 3506 H 356.731 -4.49349 -1.31162 0
M  V30 3507 H 356.904 -6.28649 -1.57178 0
M  V30 3508 N 350.31 0.590341 -1.46126 0
M  V30 3509 C 351.721 1.17243 -1.45296 0
M  V30 3510 C 352.072 1.95281 -0.189723 0
M  V30 3511 O 351.197 2.04502 0.707674 0
M  V30 3512 C 351.792 2.13284 -2.6324 0
M  V30 3513 C 350.351 2.66832 -2.65476 0
M  V30 3514 C 349.498 1.42557 -2.3785 0
M  V30 3515 H 352.449 0.378692 -1.54116 0
M  V30 3516 H 352.47 2.96619 -2.38323 0
M  V30 3517 H 351.982 1.56459 -3.55165 0
M  V30 3518 H 350.083 3.27548 -1.77603 0
M  V30 3519 H 350.196 3.10088 -3.65215 0
M  V30 3520 H 348.56 1.72107 -1.87753 0
M  V30 3521 H 349.343 0.875741 -3.31942 0
M  V30 3522 N 351.788 1.33704 0.83433 0
M  V30 3523 C 353.018 1.28281 1.6195 0
M  V30 3524 C 353.426 -0.147603 1.88623 0
M  V30 3525 O 352.769 -1.1016 1.47005 0
M  V30 3526 C 352.831 1.99386 2.99141 0
M  V30 3527 C 352.495 3.48681 2.95416 0
M  V30 3528 C 353.492 4.438 2.70809 0
M  V30 3529 C 351.177 3.90925 3.15409 0
M  V30 3530 C 353.171 5.79138 2.66229 0
M  V30 3531 C 350.858 5.26366 3.10454 0
M  V30 3532 C 351.856 6.20284 2.85895 0
M  V30 3533 O 351.544 7.53245 2.80852 0
M  V30 3534 H 351.276 0.44315 0.510484 0
M  V30 3535 H 353.83 1.76711 1.04702 0
M  V30 3536 H 352.06 1.45554 3.58261 0
M  V30 3537 H 353.749 1.87403 3.60049 0
M  V30 3538 H 354.515 4.12485 2.5511 0
M  V30 3539 H 350.394 3.18229 3.33543 0
M  V30 3540 H 353.938 6.52416 2.4698 0
M  V30 3541 H 349.835 5.57304 3.25703 0
M  V30 3542 H 350.603 7.62846 2.96661 0
M  V30 3543 N 353.266 -1.05314 1.17247 0
M  V30 3544 C 354.196 -2.1498 0.911362 0
M  V30 3545 C 355.177 -1.69471 -0.146169 0
M  V30 3546 O 356.362 -1.942 0.003812 0
M  V30 3547 C 353.492 -3.4472 0.422528 0
M  V30 3548 C 352.446 -4.03789 1.4191 0
M  V30 3549 C 351.772 -5.28858 0.788274 0
M  V30 3550 C 353.072 -4.41418 2.7919 0
M  V30 3551 H 354.766 -2.3708 1.82848 0
M  V30 3552 H 352.312 -1.13938 0.880569 0
M  V30 3553 H 354.265 -4.20787 0.227289 0
M  V30 3554 H 352.989 -3.22269 -0.530123 0
M  V30 3555 H 351.648 -3.2979 1.60106 0
M  V30 3556 H 351.296 -5.02709 -0.171173 0
M  V30 3557 H 350.996 -5.69338 1.45353 0
M  V30 3558 H 352.52 -6.07612 0.603282 0
M  V30 3559 H 353.934 -5.08524 2.64719 0
M  V30 3560 H 352.331 -4.92913 3.42282 0
M  V30 3561 H 353.401 -3.51819 3.33693 0
M  V30 3562 N 354.744 -0.972509 -1.24016 0
M  V30 3563 C 355.707 -0.511403 -2.23422 0
M  V30 3564 C 356.707 0.394679 -1.55881 0
M  V30 3565 O 357.897 0.189469 -1.73167 0
M  V30 3566 C 355.029 0.258769 -3.39916 0
M  V30 3567 H 356.222 -1.39024 -2.6573 0
M  V30 3568 H 353.775 -0.757585 -1.36713 0
M  V30 3569 H 354.51 1.1545 -3.03054 0
M  V30 3570 H 354.295 -0.391522 -3.9014 0
M  V30 3571 H 355.785 0.570244 -4.13688 0
M  V30 3572 N 356.222 1.38976 -0.743202 0
M  V30 3573 C 357.452 2.04339 -0.304807 0
M  V30 3574 C 357.86 1.56162 1.06819 0
M  V30 3575 O 357.203 0.725284 1.68776 0
M  V30 3576 C 357.265 3.58716 -0.237369 0
M  V30 3577 C 356.929 4.29905 -1.55018 0
M  V30 3578 C 357.926 4.55987 -2.49744 0
M  V30 3579 C 355.611 4.68294 -1.81675 0
M  V30 3580 C 357.605 5.19478 -3.69353 0
M  V30 3581 C 355.292 5.31512 -3.0156 0
M  V30 3582 C 356.29 5.57037 -3.9522 0
M  V30 3583 O 355.978 6.18941 -5.12998 0
M  V30 3584 H 355.71 0.663439 -0.12971 0
M  V30 3585 H 358.264 1.78852 -1.01001 0
M  V30 3586 H 356.494 3.83133 0.524003 0
M  V30 3587 H 358.183 4.05543 0.170121 0
M  V30 3588 H 358.949 4.26767 -2.30423 0
M  V30 3589 H 354.828 4.47779 -1.09615 0
M  V30 3590 H 358.372 5.39318 -4.42473 0
M  V30 3591 H 354.269 5.60153 -3.20778 0
M  V30 3592 H 355.037 6.37433 -5.13441 0
M  V30 3593 N 357.7 0.491464 1.49741 0
M  V30 3594 C 358.63 -0.28154 2.31796 0
M  V30 3595 C 359.611 -0.971473 1.3963 0
M  V30 3596 O 360.796 -0.964719 1.68543 0
M  V30 3597 C 357.926 -1.35203 3.19902 0
M  V30 3598 C 356.88 -0.782529 4.20786 0
M  V30 3599 C 356.206 -1.95283 4.97764 0
M  V30 3600 C 357.506 0.21999 5.21837 0
M  V30 3601 H 359.2 0.403355 2.96671 0
M  V30 3602 H 356.746 0.195425 1.42668 0
M  V30 3603 H 358.699 -1.90045 3.76113 0
M  V30 3604 H 357.423 -2.06598 2.52953 0
M  V30 3605 H 356.082 -0.255928 3.65706 0
M  V30 3606 H 355.73 -2.65423 4.2727 0
M  V30 3607 H 355.43 -1.57789 5.66018 0
M  V30 3608 H 356.954 -2.50577 5.56816 0
M  V30 3609 H 358.368 -0.23996 5.72798 0
M  V30 3610 H 356.765 0.51026 5.97927 0
M  V30 3611 H 357.835 1.13911 4.7133 0
M  V30 3612 N 359.178 -1.55987 0.224894 0
M  V30 3613 C 360.141 -2.19178 -0.670348 0
M  V30 3614 C 361.141 -1.15461 -1.11917 0
M  V30 3615 O 362.331 -1.40675 -1.02743 0
M  V30 3616 C 359.463 -2.81777 -1.9187 0
M  V30 3617 H 360.656 -2.99662 -0.119364 0
M  V30 3618 H 358.209 -1.5628 -0.0247128 0
M  V30 3619 H 358.944 -2.05172 -2.51147 0
M  V30 3620 H 358.729 -3.57732 -1.60531 0
M  V30 3621 H 360.219 -3.30205 -2.55645 0
M  V30 3622 N 360.656 0.0484629 -1.57525 0
M  V30 3623 C 361.904 0.741657 -1.88 0
M  V30 3624 C 362.225 1.76918 -0.820054 0
M  V30 3625 O 361.495 1.95335 0.148661 0
M  V30 3626 H 360.075 0.276908 -0.69378 0
M  V30 3627 H 362.737 0.019013 -1.94891 0
M  V30 3628 H 361.833 1.24336 -2.86264 0
M  V30 3629 N 362.134 1.5431 0.320358 0
M  V30 3630 C 363.38 1.72924 1.05949 0
M  V30 3631 C 363.713 0.503185 1.87568 0
M  V30 3632 O 362.988 -0.499839 1.87968 0
M  V30 3633 C 363.271 3.00676 1.98156 0
M  V30 3634 C 363.124 4.3354 1.19845 0
M  V30 3635 C 364.443 3.24198 2.9763 0
M  V30 3636 H 361.562 0.629195 0.383774 0
M  V30 3637 H 364.204 1.87008 0.335854 0
M  V30 3638 H 362.354 2.888 2.59859 0
M  V30 3639 H 364.026 4.57305 0.605773 0
M  V30 3640 H 362.269 4.309 0.500784 0
M  V30 3641 H 362.94 5.19156 1.87567 0
M  V30 3642 H 365.416 3.35557 2.4605 0
M  V30 3643 H 364.292 4.14938 3.59329 0
M  V30 3644 H 364.553 2.41577 3.7026 0
M  V30 3645 N 363.613 -0.582584 1.46437 0
M  V30 3646 C 364.543 -1.70187 1.59871 0
M  V30 3647 C 365.524 -1.64066 0.449042 0
M  V30 3648 O 366.709 -1.82081 0.6753 0
M  V30 3649 C 363.839 -3.08827 1.58881 0
M  V30 3650 C 362.793 -3.29779 2.72819 0
M  V30 3651 C 362.119 -4.68947 2.5689 0
M  V30 3652 C 363.419 -3.17601 4.1464 0
M  V30 3653 H 365.113 -1.592 2.53566 0
M  V30 3654 H 362.659 -0.764472 1.22032 0
M  V30 3655 H 364.612 -3.86951 1.66873 0
M  V30 3656 H 363.336 -3.20713 0.617306 0
M  V30 3657 H 361.995 -2.54054 2.64296 0
M  V30 3658 H 361.643 -4.77599 1.57823 0
M  V30 3659 H 361.343 -4.83919 3.33312 0
M  V30 3660 H 362.867 -5.4924 2.66773 0
M  V30 3661 H 364.281 -3.8557 4.24274 0
M  V30 3662 H 362.678 -3.44094 4.9165 0
M  V30 3663 H 363.748 -2.14681 4.34788 0
M  V30 3664 N 365.091 -1.34144 -0.827227 0
M  V30 3665 C 366.339 -1.26009 -1.58007 0
M  V30 3666 C 366.66 0.170971 -1.94249 0
M  V30 3667 O 365.93 1.10256 -1.61927 0
M  V30 3668 H 364.51 -0.463414 -0.585881 0
M  V30 3669 H 367.172 -1.68005 -0.987951 0
M  V30 3670 H 366.268 -1.86187 -2.50481 0
M  V30 3671 N 366.569 1.04691 -1.17803 0
M  V30 3672 C 367.818 1.77176 -0.963931 0
M  V30 3673 C 368.131 1.88888 0.508015 0
M  V30 3674 O 369.337 2.58164 0.840465 0
M  V30 3675 C 367.793 3.18518 -1.67555 0
M  V30 3676 C 367.401 3.14919 -3.18637 0
M  V30 3677 C 369.145 3.95424 -1.54402 0
M  V30 3678 C 367.052 4.51081 -3.82466 0
M  V30 3679 H 365.982 0.664116 -0.357023 0
M  V30 3680 H 368.633 1.17303 -1.4111 0
M  V30 3681 H 367.015 3.78748 -1.15613 0
M  V30 3682 H 368.189 2.64178 -3.77554 0
M  V30 3683 H 366.504 2.51512 -3.31859 0
M  V30 3684 H 369.101 4.96106 -1.99456 0
M  V30 3685 H 369.444 4.13343 -0.495329 0
M  V30 3686 H 369.977 3.41754 -2.0359 0
M  V30 3687 H 366.716 4.38368 -4.87354 0
M  V30 3688 H 366.236 5.01951 -3.28337 0
M  V30 3689 H 367.915 5.2001 -3.84965 0
M  V30 3690 N 368.047 0.979072 1.23499 0
M  V30 3691 C 368.977 0.537606 2.27227 0
M  V30 3692 C 369.958 -0.428539 1.64613 0
M  V30 3693 O 371.143 -0.322191 1.91509 0
M  V30 3694 C 368.273 -0.162052 3.46922 0
M  V30 3695 C 367.227 0.721242 4.21879 0
M  V30 3696 C 366.553 -0.110555 5.34586 0
M  V30 3697 C 367.853 2.01141 4.82016 0
M  V30 3698 H 369.547 1.40462 2.64406 0
M  V30 3699 H 367.093 0.67684 1.27102 0
M  V30 3700 H 369.046 -0.482192 4.18632 0
M  V30 3701 H 367.77 -1.06351 3.08799 0
M  V30 3702 H 366.429 1.02482 3.51984 0
M  V30 3703 H 366.077 -1.0125 4.92704 0
M  V30 3704 H 365.777 0.477325 5.85658 0
M  V30 3705 H 367.301 -0.425107 6.09118 0
M  V30 3706 H 368.715 1.75612 5.45741 0
M  V30 3707 H 367.112 2.54695 5.43369 0
M  V30 3708 H 368.182 2.69909 4.02836 0
M  V30 3709 N 369.525 -1.3858 0.750561 0
M  V30 3710 C 370.455 -2.33102 0.136237 0
M  V30 3711 C 371.436 -1.54713 -0.706965 0
M  V30 3712 O 372.621 -1.83043 -0.648769 0
M  V30 3713 C 369.751 -3.38882 -0.760017 0
M  V30 3714 C 368.705 -4.27995 -0.0197785 0
M  V30 3715 C 368.031 -5.24605 -1.03408 0
M  V30 3716 C 369.331 -5.09554 1.14684 0
M  V30 3717 H 371.025 -2.84726 0.925822 0
M  V30 3718 H 368.571 -1.36898 0.446654 0
M  V30 3719 H 370.524 -4.0397 -1.19943 0
M  V30 3720 H 369.248 -2.85734 -1.58189 0
M  V30 3721 H 367.907 -3.64409 0.400184 0
M  V30 3722 H 367.555 -4.67746 -1.84994 0
M  V30 3723 H 367.255 -5.85081 -0.543464 0
M  V30 3724 H 368.779 -5.9257 -1.47288 0
M  V30 3725 H 370.193 -5.67899 0.785118 0
M  V30 3726 H 368.59 -5.7925 1.56812 0
M  V30 3727 H 369.66 -4.4347 1.96118 0
M  V30 3728 N 371.003 -0.499398 -1.49478 0
M  V30 3729 C 371.966 0.268838 -2.27618 0
M  V30 3730 C 372.966 0.895383 -1.33565 0
M  V30 3731 O 374.156 0.760164 -1.56739 0
M  V30 3732 C 371.288 1.38559 -3.11471 0
M  V30 3733 H 372.481 -0.416812 -2.96989 0
M  V30 3734 H 370.034 -0.254313 -1.54217 0
M  V30 3735 H 370.769 2.10544 -2.46661 0
M  V30 3736 H 370.554 0.941797 -3.80621 0
M  V30 3737 H 372.044 1.92678 -3.70493 0
M  V30 3738 N 372.481 1.55866 -0.233164 0
M  V30 3739 C 373.897 1.59133 0.121988 0
M  V30 3740 C 374.097 1.25016 1.58029 0
M  V30 3741 O 373.153 0.990922 2.32243 0
M  V30 3742 C 374.466 2.99932 -0.214792 0
M  V30 3743 C 376.014 3.12601 -0.157971 0
M  V30 3744 C 376.489 4.55597 -0.46859 0
M  V30 3745 N 377.98 4.61305 -0.418585 0
M  V30 3746 C 378.715 5.69903 -0.63227 0
M  V30 3747 N 378.211 6.86819 -0.90835 0
M  V30 3748 N 380.004 5.59264 -0.563913 0
M  V30 3749 H 372.155 1.76315 -1.18434 0
M  V30 3750 H 374.418 0.820093 -0.475553 0
M  V30 3751 H 374.124 3.29588 -1.22739 0
M  V30 3752 H 373.998 3.74327 0.464691 0
M  V30 3753 H 376.385 2.82735 0.845283 0
M  V30 3754 H 376.466 2.40511 -0.871102 0
M  V30 3755 H 376.11 4.86182 -1.46934 0
M  V30 3756 H 376.04 5.25928 0.265865 0
M  V30 3757 H 378.531 3.77297 -0.213368 0
M  V30 3758 H 378.844 7.65507 -1.05919 0
M  V30 3759 H 377.189 6.88536 -0.945673 0
M  V30 3760 H 380.38 4.66802 -0.348372 0
M  V30 3761 H 380.553 6.43831 -0.733847 0
M  V30 3762 N 373.959 -0.0401083 1.57549 0
M  V30 3763 C 375.189 -0.744115 1.92734 0
M  V30 3764 C 375.597 -1.70005 0.830348 0
M  V30 3765 O 374.94 -1.82576 -0.20286 0
M  V30 3766 C 375.002 -1.56516 3.2364 0
M  V30 3767 C 374.666 -0.7752 4.50377 0
M  V30 3768 C 375.663 -0.0803326 5.19838 0
M  V30 3769 C 373.348 -0.733002 4.96923 0
M  V30 3770 C 375.342 0.646154 6.34116 0
M  V30 3771 C 373.029 -0.00276321 6.111 0
M  V30 3772 C 374.027 0.685585 6.7955 0
M  V30 3773 O 373.715 1.40399 7.91545 0
M  V30 3774 H 373.447 -0.214861 0.640945 0
M  V30 3775 H 376.001 -0.00503675 2.05399 0
M  V30 3776 H 374.231 -2.3478 3.07271 0
M  V30 3777 H 375.92 -2.15076 3.44234 0
M  V30 3778 H 376.686 -0.104035 4.84888 0
M  V30 3779 H 372.565 -1.25827 4.43496 0
M  V30 3780 H 376.109 1.18398 6.87479 0
M  V30 3781 H 372.006 0.0229012 6.45496 0
M  V30 3782 H 372.774 1.31653 8.07843 0
M  V30 3783 N 375.437 -1.54477 -0.31217 0
M  V30 3784 C 376.683 -1.73483 -1.0503 0
M  V30 3785 C 377.016 -0.513125 -1.87298 0
M  V30 3786 O 376.291 0.489864 -1.8823 0
M  V30 3787 C 376.574 -3.01723 -1.96558 0
M  V30 3788 C 376.427 -4.3417 -1.17545 0
M  V30 3789 C 377.746 -3.25772 -2.95907 0
M  V30 3790 H 374.865 -0.631222 -0.380432 0
M  V30 3791 H 377.507 -1.87184 -0.325932 0
M  V30 3792 H 375.657 -2.90174 -2.58324 0
M  V30 3793 H 377.329 -4.5762 -0.581513 0
M  V30 3794 H 375.572 -4.31159 -0.477925 0
M  V30 3795 H 376.243 -5.20143 -1.84811 0
M  V30 3796 H 378.719 -3.36857 -2.44267 0
M  V30 3797 H 377.595 -4.16838 -3.57123 0
M  V30 3798 H 377.856 -2.43537 -3.68974 0
M  V30 3799 N 376.915 0.57481 -1.46744 0
M  V30 3800 C 377.825 1.711 -1.60505 0
M  V30 3801 C 378.841 1.67008 -0.488307 0
M  V30 3802 O 380.017 1.86774 -0.753495 0
M  V30 3803 C 377.082 3.07608 -1.59932 0
M  V30 3804 C 376.143 3.22904 -2.82898 0
M  V30 3805 C 375.376 4.529 -2.82343 0
M  V30 3806 O 375.599 5.37278 -1.91542 0
M  V30 3807 O 374.533 4.71611 -3.73987 0
M  V30 3808 H 378.359 1.62436 -2.56609 0
M  V30 3809 H 375.944 0.742779 -1.29627 0
M  V30 3810 H 377.826 3.88877 -1.62336 0
M  V30 3811 H 376.501 3.16692 -0.669898 0
M  V30 3812 H 375.408 2.41099 -2.86046 0
M  V30 3813 H 376.741 3.18715 -3.75076 0
M  V30 3814 N 378.394 1.34581 0.820102 0
M  V30 3815 C 379.326 1.22236 1.93884 0
M  V30 3816 C 380.339 0.148776 1.62119 0
M  V30 3817 O 381.528 0.400877 1.7394 0
M  V30 3818 C 378.628 0.856542 3.27897 0
M  V30 3819 C 377.801 2.02569 3.87666 0
M  V30 3820 C 376.86 1.63782 5.00062 0
M  V30 3821 O 375.886 2.35477 5.18208 0
M  V30 3822 N 377.088 0.553611 5.77854 0
M  V30 3823 H 379.853 2.18615 2.05006 0
M  V30 3824 H 377.414 1.27573 0.99683 0
M  V30 3825 H 379.406 0.578806 4.0054 0
M  V30 3826 H 377.976 -0.0171518 3.12595 0
M  V30 3827 H 377.196 2.468 3.07382 0
M  V30 3828 H 378.484 2.80752 4.24329 0
M  V30 3829 H 377.882 -0.0423528 5.65684 0
M  V30 3830 H 376.439 0.335614 6.50935 0
M  V30 3831 N 379.872 -1.04064 1.18357 0
M  V30 3832 C 381.121 -1.76662 0.973313 0
M  V30 3833 C 381.434 -1.89154 -0.497991 0
M  V30 3834 O 382.64 -2.58606 -0.826762 0
M  V30 3835 C 381.096 -3.17624 1.69242 0
M  V30 3836 C 380.704 -3.13225 3.20303 0
M  V30 3837 C 382.448 -3.946 1.56497 0
M  V30 3838 C 380.355 -4.49046 3.84853 0
M  V30 3839 H 379.285 -0.662214 0.36054 0
M  V30 3840 H 381.936 -1.16553 1.41731 0
M  V30 3841 H 380.318 -3.78129 1.1762 0
M  V30 3842 H 381.492 -2.62172 3.78949 0
M  V30 3843 H 379.807 -2.49749 3.33189 0
M  V30 3844 H 382.404 -4.95042 2.02084 0
M  V30 3845 H 382.747 -4.13074 0.517243 0
M  V30 3846 H 383.28 -3.4067 2.05399 0
M  V30 3847 H 380.019 -4.35777 4.89672 0
M  V30 3848 H 379.539 -5.00203 3.30994 0
M  V30 3849 H 381.218 -5.17961 3.87718 0
M  V30 3850 N 381.35 -0.985608 -1.22978 0
M  V30 3851 C 382.28 -0.549649 -2.26939 0
M  V30 3852 C 383.261 0.419803 -1.64838 0
M  V30 3853 O 384.446 0.31203 -1.91677 0
M  V30 3854 C 381.576 0.143652 -3.47003 0
M  V30 3855 C 380.53 -0.743606 -4.21491 0
M  V30 3856 C 379.856 0.0822027 -5.34637 0
M  V30 3857 C 381.156 -2.03694 -4.80943 0
M  V30 3858 H 382.85 -1.41862 -2.63658 0
M  V30 3859 H 380.396 -0.683571 -1.26741 0
M  V30 3860 H 382.349 0.459985 -4.18882 0
M  V30 3861 H 381.073 1.04711 -3.09359 0
M  V30 3862 H 379.732 -1.04347 -3.51436 0
M  V30 3863 H 379.38 0.986359 -4.93234 0
M  V30 3864 H 379.08 -0.508377 -5.85397 0
M  V30 3865 H 380.604 0.392797 -6.09335 0
M  V30 3866 H 382.018 -1.78504 -5.44802 0
M  V30 3867 H 380.415 -2.57573 -5.42011 0
M  V30 3868 H 381.485 -2.72042 -4.01399 0
M  V30 3869 N 382.828 1.3818 -0.7579 0
M  V30 3870 C 384.239 1.82726 -0.383134 0
M  V30 3871 C 384.59 1.63214 1.08884 0
M  V30 3872 O 383.715 1.13566 1.84205 0
M  V30 3873 C 384.31 3.31728 -0.688631 0
M  V30 3874 C 382.869 3.74606 -0.367091 0
M  V30 3875 C 382.016 2.60896 -0.939599 0
M  V30 3876 H 384.967 1.26847 -0.953699 0
M  V30 3877 H 384.988 3.80487 0.0316492 0
M  V30 3878 H 384.5 3.45898 -1.76001 0
M  V30 3879 H 382.601 3.66013 0.697532 0
M  V30 3880 H 382.714 4.71215 -0.865658 0
M  V30 3881 H 381.078 2.52075 -0.3647 0
M  V30 3882 H 381.861 2.77864 -2.0161 0
M  V30 3883 N 384.306 0.507319 1.49211 0
M  V30 3884 C 385.238 -0.304532 2.27168 0
M  V30 3885 C 386.251 -0.924956 1.33972 0
M  V30 3886 O 387.44 -0.807227 1.59205 0
M  V30 3887 C 384.54 -1.44431 3.06583 0
M  V30 3888 C 383.713 -0.930026 4.27398 0
M  V30 3889 C 382.772 -1.94817 4.88807 0
M  V30 3890 O 381.798 -1.51418 5.4869 0
M  V30 3891 N 383 -3.279 4.79022 0
M  V30 3892 H 385.765 0.36395 2.97482 0
M  V30 3893 H 383.326 0.340249 1.58284 0
M  V30 3894 H 385.318 -2.12311 3.44537 0
M  V30 3895 H 383.888 -2.01684 2.38835 0
M  V30 3896 H 383.108 -0.0759244 3.94127 0
M  V30 3897 H 384.396 -0.564932 5.05654 0
M  V30 3898 H 383.794 -3.65843 4.3148 0
M  V30 3899 H 382.351 -3.91476 5.21142 0
M  V30 3900 N 385.784 -1.5574 0.241426 0
M  V30 3901 C 387.009 -2.0366 -0.392111 0
M  V30 3902 C 387.434 -1.11969 -1.51144 0
M  V30 3903 O 386.792 -0.111594 -1.80956 0
M  V30 3904 C 386.84 -3.49638 -0.882371 0
M  V30 3905 O 385.944 -3.6108 -1.99235 0
M  V30 3906 H 385.285 -0.658379 -0.0862122 0
M  V30 3907 H 387.815 -2.01302 0.365881 0
M  V30 3908 H 387.825 -3.90351 -1.18702 0
M  V30 3909 H 386.5 -4.15852 -0.0632361 0
M  V30 3910 H 385.077 -3.32262 -1.69282 0
M  V30 3911 N 387.262 0.0317525 -1.57568 0
M  V30 3912 C 388.225 1.01783 -2.0536 0
M  V30 3913 C 389.225 1.29203 -0.957253 0
M  V30 3914 O 390.415 1.24251 -1.22095 0
M  V30 3915 C 387.547 2.35137 -2.46827 0
M  V30 3916 H 388.74 0.605062 -2.93733 0
M  V30 3917 H 386.293 0.278514 -1.53799 0
M  V30 3918 H 387.028 2.81168 -1.61602 0
M  V30 3919 H 386.813 2.16566 -3.26866 0
M  V30 3920 H 388.303 3.05938 -2.84239 0
M  V30 3921 N 388.74 1.54641 0.303973 0
M  V30 3922 C 389.65 1.88439 1.39743 0
M  V30 3923 C 390.666 0.778239 1.55626 0
M  V30 3924 O 391.842 1.07442 1.70347 0
M  V30 3925 C 388.907 2.12212 2.74166 0
M  V30 3926 C 387.968 3.35936 2.67293 0
M  V30 3927 C 387.201 3.58566 3.95305 0
M  V30 3928 O 387.424 2.84263 4.9452 0
M  V30 3929 O 386.358 4.52078 3.97378 0
M  V30 3930 H 390.184 2.81458 1.14083 0
M  V30 3931 H 387.769 1.40793 0.499768 0
M  V30 3932 H 389.651 2.29067 3.53704 0
M  V30 3933 H 388.326 1.22379 2.99675 0
M  V30 3934 H 387.233 3.24448 1.86237 0
M  V30 3935 H 388.566 4.2589 2.46736 0
M  V30 3936 N 390.218 -0.567019 1.47046 0
M  V30 3937 C 391.181 -1.65696 1.58359 0
M  V30 3938 C 392.181 -1.54097 0.459441 0
M  V30 3939 O 393.371 -1.58432 0.724225 0
M  V30 3940 C 390.503 -3.05197 1.51879 0
M  V30 3941 H 391.696 -1.57019 2.5551 0
M  V30 3942 H 389.249 -0.786148 1.3509 0
M  V30 3943 H 389.984 -3.19417 0.560673 0
M  V30 3944 H 389.769 -3.15025 2.33455 0
M  V30 3945 H 391.259 -3.84511 1.62913 0
M  V30 3946 N 391.696 -1.35014 -0.812953 0
M  V30 3947 C 392.659 -1.27292 -1.90602 0
M  V30 3948 C 393.659 -0.185817 -1.59723 0
M  V30 3949 O 394.849 -0.439102 -1.68575 0
M  V30 3950 C 391.981 -0.967676 -3.26877 0
M  V30 3951 H 393.174 -2.24479 -1.9887 0
M  V30 3952 H 390.727 -1.19446 -1.00808 0
M  V30 3953 H 391.462 0.0005954 -3.243 0
M  V30 3954 H 391.247 -1.75412 -3.50675 0
M  V30 3955 H 392.737 -0.939085 -4.06904 0
M  V30 3956 N 393.175 1.03435 -1.18907 0
M  V30 3957 C 394.586 1.58195 -0.991523 0
M  V30 3958 C 394.937 1.90801 0.457081 0
M  V30 3959 O 394.062 1.70272 1.33553 0
M  V30 3960 C 394.657 2.87432 -1.79355 0
M  V30 3961 C 393.216 3.38785 -1.64017 0
M  V30 3962 C 392.363 2.12292 -1.78402 0
M  V30 3963 H 395.314 0.860299 -1.33359 0
M  V30 3964 H 395.335 3.58096 -1.28638 0
M  V30 3965 H 394.847 2.63669 -2.84781 0
M  V30 3966 H 392.948 3.67547 -0.611536 0
M  V30 3967 H 393.061 4.12186 -2.44212 0
M  V30 3968 H 391.425 2.23901 -1.2141 0
M  V30 3969 H 392.208 1.90977 -2.85277 0
M  V30 3970 N 394.653 0.992116 1.22453 0
M  V30 3971 C 396.069 0.702713 1.43297 0
M  V30 3972 C 396.269 -0.726909 1.87932 0
M  V30 3973 O 395.325 -1.49792 2.0327 0
M  V30 3974 C 396.638 1.70762 2.47509 0
M  V30 3975 C 398.186 1.72298 2.61309 0
M  V30 3976 C 398.661 2.71649 3.68742 0
M  V30 3977 N 400.152 2.70239 3.76199 0
M  V30 3978 C 400.887 3.43778 4.58917 0
M  V30 3979 N 400.383 4.26914 5.45633 0
M  V30 3980 N 402.176 3.32487 4.5322 0
M  V30 3981 H 394.327 1.91543 0.917871 0
M  V30 3982 H 396.59 0.826031 0.465162 0
M  V30 3983 H 396.296 2.73059 2.21657 0
M  V30 3984 H 396.17 1.49985 3.46099 0
M  V30 3985 H 398.557 0.706989 2.86506 0
M  V30 3986 H 398.638 1.97143 1.62997 0
M  V30 3987 H 398.282 3.73397 3.44292 0
M  V30 3988 H 398.212 2.44074 4.66622 0
M  V30 3989 H 400.703 2.09912 3.14237 0
M  V30 3990 H 401.016 4.79855 6.05771 0
M  V30 3991 H 399.361 4.31002 5.45218 0
M  V30 3992 H 402.552 2.6698 3.84499 0
M  V30 3993 H 402.725 3.90058 5.17454 0
M  V30 3994 N 396.131 -1.37776 0.765217 0
M  V30 3995 C 397.041 -2.34135 0.147666 0
M  V30 3996 C 398.057 -1.59854 -0.687215 0
M  V30 3997 O 399.233 -1.91983 -0.608659 0
M  V30 3998 C 396.298 -3.3901 -0.72617 0
M  V30 3999 C 395.359 -4.2912 0.124417 0
M  V30 4000 C 394.592 -5.28986 -0.707807 0
M  V30 4001 O 394.815 -5.36205 -1.94525 0
M  V30 4002 O 393.749 -6.01779 -0.12046 0
M  V30 4003 H 397.575 -2.88664 0.943758 0
M  V30 4004 H 395.16 -1.39824 0.526277 0
M  V30 4005 H 397.042 -4.03195 -1.22524 0
M  V30 4006 H 395.717 -2.86819 -1.50056 0
M  V30 4007 H 394.624 -3.68057 0.669696 0
M  V30 4008 H 395.957 -4.84598 0.861736 0
M  V30 4009 N 397.609 -0.515225 -1.4894 0
M  V30 4010 C 398.559 0.275113 -2.26334 0
M  V30 4011 C 399.543 0.923007 -1.31793 0
M  V30 4012 O 400.735 0.828254 -1.56426 0
M  V30 4013 C 397.864 1.33041 -3.16473 0
M  V30 4014 C 396.95 0.688051 -4.18481 0
M  V30 4015 N 397.341 -0.217638 -5.05332 0
M  V30 4016 C 395.639 0.94699 -4.3583 0
M  V30 4017 C 396.34 -0.58676 -5.78733 0
M  V30 4018 N 395.316 0.0486966 -5.43578 0
M  V30 4019 H 399.118 -0.421876 -2.90856 0
M  V30 4020 H 396.632 -0.332249 -1.58965 0
M  V30 4021 H 398.629 1.9102 -3.70563 0
M  V30 4022 H 397.289 2.02894 -2.53504 0
M  V30 4023 H 398.3 -0.589343 -5.14536 0
M  V30 4024 H 394.977 1.63719 -3.8406 0
M  V30 4025 H 396.367 -1.32855 -6.58634 0
M  V30 4026 N 399.087 1.5561 -0.249682 0
M  V30 4027 C 400.017 2.24477 0.642826 0
M  V30 4028 C 400.998 1.22601 1.17911 0
M  V30 4029 O 402.183 1.5126 1.21795 0
M  V30 4030 C 399.313 2.94638 1.83863 0
M  V30 4031 C 398.267 4.03227 1.435 0
M  V30 4032 C 397.593 4.60828 2.71186 0
M  V30 4033 C 398.893 5.18796 0.604002 0
M  V30 4034 H 400.587 2.99321 0.0685625 0
M  V30 4035 H 398.133 1.43965 0.0315363 0
M  V30 4036 H 400.086 3.41517 2.46868 0
M  V30 4037 H 398.81 2.17287 2.43832 0
M  V30 4038 H 397.469 3.57121 0.828275 0
M  V30 4039 H 397.117 3.80174 3.29358 0
M  V30 4040 H 396.817 5.34132 2.44901 0
M  V30 4041 H 398.341 5.10442 3.35084 0
M  V30 4042 H 399.755 5.61883 1.13842 0
M  V30 4043 H 398.152 5.98506 0.437097 0
M  V30 4044 H 399.222 4.83384 -0.383147 0
M  V30 4045 N 400.565 -0.0233959 1.57583 0
M  V30 4046 C 401.813 -0.711654 1.89156 0
M  V30 4047 C 402.134 -1.75591 0.848096 0
M  V30 4048 O 401.404 -1.95547 -0.117566 0
M  V30 4049 H 399.984 -0.265835 0.698098 0
M  V30 4050 H 402.646 0.0119948 1.94896 0
M  V30 4051 H 401.742 -1.19766 2.88206 0
M  V30 4052 N 402.043 -1.548 -0.295768 0
M  V30 4053 C 403.268 -1.78653 -1.05346 0
M  V30 4054 C 403.693 -0.546894 -1.79974 0
M  V30 4055 O 403.051 0.502763 -1.7419 0
M  V30 4056 C 403.099 -2.99679 -2.00561 0
M  V30 4057 O 402.203 -2.7317 -3.08953 0
M  V30 4058 H 401.544 -0.59116 -0.302367 0
M  V30 4059 H 404.074 -2.01895 -0.331598 0
M  V30 4060 H 404.084 -3.27793 -2.42932 0
M  V30 4061 H 402.759 -3.89562 -1.4565 0
M  V30 4062 H 401.336 -2.56089 -2.71059 0
M  V30 4063 N 403.521 0.559213 -1.47345 0
M  V30 4064 C 404.453 1.68161 -1.55738 0
M  V30 4065 C 405.466 1.56636 -0.443744 0
M  V30 4066 O 406.655 1.6363 -0.713258 0
M  V30 4067 C 403.755 3.06611 -1.4437 0
M  V30 4068 C 402.928 3.4391 -2.70268 0
M  V30 4069 C 401.987 4.61515 -2.52765 0
M  V30 4070 O 401.013 4.66197 -3.26572 0
M  V30 4071 N 402.215 5.57883 -1.6046 0
M  V30 4072 H 404.98 1.61408 -2.52522 0
M  V30 4073 H 402.541 0.7458 -1.43699 0
M  V30 4074 H 404.533 3.83117 -1.30398 0
M  V30 4075 H 403.103 3.07602 -0.556766 0
M  V30 4076 H 402.323 2.56873 -2.99015 0
M  V30 4077 H 403.611 3.65605 -3.53851 0
M  V30 4078 H 403.009 5.56855 -0.996422 0
M  V30 4079 H 401.566 6.33723 -1.52441 0
M  V30 4080 N 404.999 1.35443 0.805782 0
M  V30 4081 C 405.929 1.31095 1.93226 0
M  V30 4082 C 406.91 0.185244 1.69088 0
M  V30 4083 O 408.095 0.380332 1.90439 0
M  V30 4084 C 405.225 1.08299 3.29983 0
M  V30 4085 C 404.179 2.17519 3.68605 0
M  V30 4086 C 403.505 1.79887 5.03532 0
M  V30 4087 C 404.805 3.5949 3.78898 0
M  V30 4088 H 406.499 2.25352 1.97122 0
M  V30 4089 H 404.045 1.0848 0.946996 0
M  V30 4090 H 405.998 1.03897 4.08391 0
M  V30 4091 H 404.722 0.104885 3.26432 0
M  V30 4092 H 403.381 2.2102 2.92482 0
M  V30 4093 H 403.029 0.80693 4.96485 0
M  V30 4094 H 402.729 2.53001 5.30344 0
M  V30 4095 H 404.253 1.77011 5.84379 0
M  V30 4096 H 405.667 3.58307 4.47536 0
M  V30 4097 H 404.064 4.31371 4.1718 0
M  V30 4098 H 405.134 3.95584 2.80431 0
M  V30 4099 N 406.477 -1.02803 1.19454 0
M  V30 4100 C 407.726 -1.7562 0.991996 0
M  V30 4101 C 408.039 -1.89672 -0.477901 0
M  V30 4102 O 409.245 -2.59468 -0.799287 0
M  V30 4103 C 407.701 -3.15812 1.72601 0
M  V30 4104 C 407.309 -3.0981 3.23607 0
M  V30 4105 C 409.053 -3.92918 1.60674 0
M  V30 4106 C 406.96 -4.44939 3.89594 0
M  V30 4107 H 405.89 -0.658352 0.367543 0
M  V30 4108 H 408.541 -1.15044 1.42959 0
M  V30 4109 H 406.923 -3.7686 1.21624 0
M  V30 4110 H 408.097 -2.58138 3.81709 0
M  V30 4111 H 406.412 -2.46201 3.35819 0
M  V30 4112 H 409.009 -4.9287 2.07323 0
M  V30 4113 H 409.352 -4.12502 0.561025 0
M  V30 4114 H 409.885 -3.38472 2.09001 0
M  V30 4115 H 406.624 -4.30559 4.94267 0
M  V30 4116 H 406.144 -4.96664 3.36281 0
M  V30 4117 H 407.823 -5.1382 3.93189 0
M  V30 4118 N 407.956 -0.998596 -1.21925 0
M  V30 4119 C 408.919 -0.558679 -2.22287 0
M  V30 4120 C 409.919 0.361525 -1.56683 0
M  V30 4121 O 411.109 0.152695 -1.73529 0
M  V30 4122 C 408.241 0.18661 -3.40389 0
M  V30 4123 H 409.434 -1.4463 -2.62721 0
M  V30 4124 H 406.987 -0.786413 -1.35075 0
M  V30 4125 H 407.722 1.08996 -3.05435 0
M  V30 4126 H 407.507 -0.474188 -3.89222 0
M  V30 4127 H 408.997 0.482367 -4.14805 0
M  V30 4128 N 409.434 1.37368 -0.772513 0
M  V30 4129 C 410.682 1.99279 -0.336516 0
M  V30 4130 C 411.003 1.6163 1.09091 0
M  V30 4131 O 410.273 0.882109 1.74916 0
M  V30 4132 H 408.853 0.737063 -0.121435 0
M  V30 4133 H 411.515 1.67836 -0.990809 0
M  V30 4134 H 410.611 3.09332 -0.414763 0
M  V30 4135 N 410.912 0.523116 1.48665 0
M  V30 4136 C 412.14 -0.0096312 2.06898 0
M  V30 4137 C 412.555 -1.28784 1.38059 0
M  V30 4138 O 411.912 -1.76453 0.465893 0
M  V30 4139 C 411.963 -0.244386 3.60673 0
M  V30 4140 O 411.684 0.983172 4.26925 0
M  V30 4141 C 413.185 -0.818289 4.35682 0
M  V30 4142 H 410.405 0.0304161 0.67031 0
M  V30 4143 H 412.949 0.726799 1.91149 0
M  V30 4144 H 411.104 -0.930847 3.76051 0
M  V30 4145 H 411.518 0.759653 5.1897 0
M  V30 4146 H 412.992 -0.93201 5.44075 0
M  V30 4147 H 413.469 -1.82153 3.99646 0
M  V30 4148 H 414.075 -0.168609 4.24966 0
M  V30 4149 N 412.39 -1.55475 0.257931 0
M  V30 4150 C 413.337 -2.21837 -0.636939 0
M  V30 4151 C 414.307 -1.18596 -1.16294 0
M  V30 4152 O 415.492 -1.47081 -1.21539 0
M  V30 4153 C 412.632 -2.9301 -1.82317 0
M  V30 4154 C 411.745 -4.10931 -1.33265 0
M  V30 4155 C 410.88 -4.69791 -2.47931 0
M  V30 4156 C 409.919 -5.7994 -1.95796 0
M  V30 4157 N 409.056 -6.32935 -3.0387 0
M  V30 4158 H 413.896 -2.9793 -0.0643591 0
M  V30 4159 H 411.433 -1.47086 -0.0200031 0
M  V30 4160 H 413.391 -3.3248 -2.52018 0
M  V30 4161 H 412.021 -2.1937 -2.36805 0
M  V30 4162 H 411.073 -3.76699 -0.52931 0
M  V30 4163 H 412.385 -4.90417 -0.910654 0
M  V30 4164 H 411.539 -5.11892 -3.25656 0
M  V30 4165 H 410.278 -3.89545 -2.93438 0
M  V30 4166 H 409.283 -5.37305 -1.16546 0
M  V30 4167 H 410.508 -6.62043 -1.51246 0
M  V30 4168 H 408.454 -5.55591 -3.48791 0
M  V30 4169 H 408.371 -7.07645 -2.66035 0
M  V30 4170 H 409.639 -6.79695 -3.81621 0
M  V30 4171 N 413.868 0.0150385 -1.57593 0
M  V30 4172 C 414.778 1.02791 -2.10882 0
M  V30 4173 C 415.794 1.38702 -1.0506 0
M  V30 4174 O 416.97 1.47739 -1.36877 0
M  V30 4175 C 414.035 2.30568 -2.58919 0
M  V30 4176 C 413.096 2.01108 -3.79281 0
M  V30 4177 C 412.329 3.22794 -4.25018 0
M  V30 4178 O 412.552 4.33959 -3.70183 0
M  V30 4179 O 411.486 3.07672 -5.17322 0
M  V30 4180 H 415.312 0.604973 -2.97613 0
M  V30 4181 H 412.897 0.23292 -1.47573 0
M  V30 4182 H 414.779 3.05662 -2.90084 0
M  V30 4183 H 413.454 2.72129 -1.75293 0
M  V30 4184 H 412.361 1.23537 -3.53114 0
M  V30 4185 H 413.694 1.64394 -4.63935 0
M  V30 4186 N 415.346 1.54954 0.287554 0
M  V30 4187 C 416.623 1.65569 1.04146 0
M  V30 4188 C 417.003 0.512672 2.0478 0
M  V30 4189 O 416.351 -0.489038 2.23205 0
M  V30 4190 C 416.561 3.04163 1.71131 0
M  V30 4191 C 417.909 3.61429 2.22832 0
M  V30 4192 O 418.933 3.06702 1.81141 0
M  V30 4193 O 417.792 4.57281 2.9926 0
M  V30 4194 H 414.886 0.671881 0.482188 0
M  V30 4195 H 417.432 1.67297 0.28457 0
M  V30 4196 H 416.204 3.78796 0.981303 0
M  V30 4197 H 415.827 3.06271 2.53543 0
M  V30 4198 N 416.824 -0.551391 1.4764 0
M  V30 4199 C 418.073 -1.30467 1.53822 0
M  V30 4200 C 418.386 -1.94495 0.207661 0
M  V30 4201 O 419.592 -2.71099 0.147533 0
M  V30 4202 C 418.048 -2.36616 2.71184 0
M  V30 4203 C 417.656 -1.78754 4.10793 0
M  V30 4204 C 419.4 -3.13088 2.86663 0
M  V30 4205 C 417.307 -2.82717 5.19447 0
M  V30 4206 H 416.237 -0.490584 0.572576 0
M  V30 4207 H 418.888 -0.58494 1.73927 0
M  V30 4208 H 417.27 -3.11529 2.4447 0
M  V30 4209 H 418.444 -1.10173 4.47435 0
M  V30 4210 H 416.759 -1.14846 4.00249 0
M  V30 4211 H 419.356 -3.90736 3.65007 0
M  V30 4212 H 419.699 -3.67635 1.95321 0
M  V30 4213 H 420.232 -2.45288 3.13175 0
M  V30 4214 H 416.971 -2.33018 6.12685 0
M  V30 4215 H 416.491 -3.4969 4.87316 0
M  V30 4216 H 418.17 -3.46102 5.46646 0
M  V30 4217 N 418.302 -1.35869 -0.798587 0
M  V30 4218 C 419.713 -1.26498 -1.37314 0
M  V30 4219 C 420.064 0.0991899 -1.95949 0
M  V30 4220 O 419.189 1.0004 -1.91888 0
M  V30 4221 C 419.784 -2.29054 -2.49639 0
M  V30 4222 C 418.343 -2.234 -3.02935 0
M  V30 4223 C 417.49 -2.14329 -1.75949 0
M  V30 4224 H 420.441 -1.46881 -0.600971 0
M  V30 4225 H 420.462 -1.92166 -3.28409 0
M  V30 4226 H 419.974 -3.2833 -2.06933 0
M  V30 4227 H 418.075 -1.27562 -3.50084 0
M  V30 4228 H 418.188 -3.15703 -3.60372 0
M  V30 4229 H 416.552 -1.60435 -1.9782 0
M  V30 4230 H 417.335 -3.15477 -1.35384 0
M  V30 4231 N 419.78 1.02168 -1.19998 0
M  V30 4232 C 421.026 1.75945 -1.00852 0
M  V30 4233 C 421.359 1.88702 0.458828 0
M  V30 4234 O 420.634 1.40911 1.34069 0
M  V30 4235 C 420.917 3.18154 -1.68671 0
M  V30 4236 C 420.77 3.13224 -3.22817 0
M  V30 4237 C 422.089 4.16711 -1.41561 0
M  V30 4238 H 419.208 0.638673 -0.367785 0
M  V30 4239 H 421.85 1.19222 -1.4794 0
M  V30 4240 H 420 3.66586 -1.28636 0
M  V30 4241 H 421.672 2.72635 -3.72112 0
M  V30 4242 H 419.915 2.50751 -3.53986 0
M  V30 4243 H 420.586 4.13728 -3.65422 0
M  V30 4244 H 423.062 3.76913 -1.76284 0
M  V30 4245 H 421.938 5.14391 -1.91553 0
M  V30 4246 H 422.199 4.40774 -0.342193 0
M  V30 4247 N 421.258 1.00505 1.21394 0
M  V30 4248 C 422.505 0.687774 1.90462 0
M  V30 4249 C 422.833 -0.78147 1.7811 0
M  V30 4250 O 422.088 -1.58208 1.1519 0
M  V30 4251 C 422.387 1.0546 3.41486 0
M  V30 4252 C 422.053 2.51812 3.74034 0
M  V30 4253 C 420.715 2.91804 3.82628 0
M  V30 4254 C 423.067 3.46614 3.8924 0
M  V30 4255 C 420.395 4.2556 4.03876 0
M  V30 4256 C 422.747 4.80044 4.11995 0
M  V30 4257 C 421.411 5.19759 4.18816 0
M  V30 4258 H 420.681 0.251674 0.696951 0
M  V30 4259 H 423.328 1.26349 1.43903 0
M  V30 4260 H 421.633 0.397133 3.89782 0
M  V30 4261 H 423.33 0.786976 3.93202 0
M  V30 4262 H 419.92 2.1982 3.67936 0
M  V30 4263 H 424.104 3.16883 3.81967 0
M  V30 4264 H 419.36 4.55901 4.07387 0
M  V30 4265 H 423.534 5.53439 4.22704 0
M  V30 4266 H 421.161 6.23418 4.35033 0
M  V30 4267 N 422.737 -1.36956 0.779787 0
M  V30 4268 C 423.684 -2.30175 0.169697 0
M  V30 4269 C 424.654 -1.51501 -0.68094 0
M  V30 4270 O 425.839 -1.80042 -0.631629 0
M  V30 4271 C 422.979 -3.37985 -0.697131 0
M  V30 4272 C 422.092 -4.31661 0.170992 0
M  V30 4273 C 421.227 -5.2655 -0.701298 0
M  V30 4274 C 420.266 -6.11867 0.168869 0
M  V30 4275 N 419.403 -6.98973 -0.661855 0
M  V30 4276 H 424.243 -2.81767 0.970135 0
M  V30 4277 H 421.78 -1.38699 0.489994 0
M  V30 4278 H 423.738 -3.99128 -1.2146 0
M  V30 4279 H 422.368 -2.87739 -1.46309 0
M  V30 4280 H 421.42 -3.71756 0.80634 0
M  V30 4281 H 422.732 -4.91644 0.841875 0
M  V30 4282 H 421.886 -5.92937 -1.28494 0
M  V30 4283 H 420.625 -4.66998 -1.40584 0
M  V30 4284 H 419.63 -5.44452 0.764986 0
M  V30 4285 H 420.855 -6.73493 0.870863 0
M  V30 4286 H 418.801 -6.41941 -1.35086 0
M  V30 4287 H 418.718 -7.55984 -0.0484447 0
M  V30 4288 H 419.986 -7.6974 -1.22963 0
M  V30 4289 N 424.215 -0.530993 -1.48385 0
M  V30 4290 C 425.631 -0.188919 -1.58478 0
M  V30 4291 C 425.831 1.30786 -1.53288 0
M  V30 4292 O 424.887 2.08619 -1.42248 0
M  V30 4293 C 426.2 -0.792343 -2.90073 0
M  V30 4294 C 427.748 -0.76117 -3.03604 0
M  V30 4295 C 428.223 -1.34319 -4.37861 0
M  V30 4296 N 429.714 -1.3052 -4.44431 0
M  V30 4297 C 430.449 -1.72543 -5.46824 0
M  V30 4298 N 429.945 -2.22299 -6.56167 0
M  V30 4299 N 431.738 -1.63773 -5.37712 0
M  V30 4300 H 423.889 -1.50377 -1.50002 0
M  V30 4301 H 426.152 -0.625559 -0.712306 0
M  V30 4302 H 425.858 -1.84323 -2.99529 0
M  V30 4303 H 425.732 -0.270026 -3.76232 0
M  V30 4304 H 428.119 0.280957 -2.93759 0
M  V30 4305 H 428.2 -1.32097 -2.19053 0
M  V30 4306 H 427.844 -2.38425 -4.4846 0
M  V30 4307 H 427.774 -0.759064 -5.21101 0
M  V30 4308 H 430.265 -0.940973 -3.65997 0
M  V30 4309 H 430.578 -2.52356 -7.30436 0
M  V30 4310 H 428.923 -2.26293 -6.57127 0
M  V30 4311 H 432.114 -1.24698 -4.51185 0
M  V30 4312 H 432.287 -1.96844 -6.17379 0
M  V30 4313 N 425.693 1.55336 -0.266172 0
M  V30 4314 C 427.109 1.59356 0.0882065 0
M  V30 4315 C 427.309 1.2834 1.55342 0
M  V30 4316 O 426.365 1.03996 2.30089 0
M  V30 4317 C 427.678 2.99409 -0.278364 0
M  V30 4318 C 429.226 3.12196 -0.224243 0
M  V30 4319 C 429.701 4.545 -0.565123 0
M  V30 4320 N 431.192 4.60313 -0.51634 0
M  V30 4321 C 431.927 5.68434 -0.753013 0
M  V30 4322 N 431.423 6.84738 -1.05383 0
M  V30 4323 N 433.216 5.57942 -0.682414 0
M  V30 4324 H 425.367 1.73764 -1.22147 0
M  V30 4325 H 427.63 0.809822 -0.492841 0
M  V30 4326 H 427.336 3.2691 -1.29703 0
M  V30 4327 H 427.21 3.75228 0.385186 0
M  V30 4328 H 429.597 2.84464 0.78512 0
M  V30 4329 H 429.678 2.38609 -0.921922 0
M  V30 4330 H 429.322 4.82956 -1.57213 0
M  V30 4331 H 429.252 5.26374 0.154248 0
M  V30 4332 H 431.743 3.7676 -0.29335 0
M  V30 4333 H 432.056 7.63088 -1.22133 0
M  V30 4334 H 430.401 6.86375 -1.09151 0
M  V30 4335 H 433.592 4.65958 -0.44731 0
M  V30 4336 H 433.765 6.4213 -0.870248 0
M  V30 4337 N 427.171 -0.0066808 1.57599 0
M  V30 4338 C 428.587 -0.36267 1.55425 0
M  V30 4339 C 428.787 -1.75209 0.995187 0
M  V30 4340 O 427.843 -2.44616 0.626058 0
M  V30 4341 C 429.156 -0.244017 2.99708 0
M  V30 4342 C 430.704 -0.319451 3.11366 0
M  V30 4343 C 431.179 -0.229998 4.57422 0
M  V30 4344 N 432.67 -0.288105 4.62303 0
M  V30 4345 C 433.405 -0.242127 5.72889 0
M  V30 4346 N 432.901 -0.147133 6.92644 0
M  V30 4347 N 434.694 -0.293502 5.61333 0
M  V30 4348 H 426.845 0.902314 1.92281 0
M  V30 4349 H 429.108 0.34525 0.882896 0
M  V30 4350 H 428.814 0.711678 3.44424 0
M  V30 4351 H 428.688 -1.02877 3.629 0
M  V30 4352 H 431.075 -1.26559 2.66584 0
M  V30 4353 H 431.156 0.495055 2.50964 0
M  V30 4354 H 430.8 0.712566 5.02877 0
M  V30 4355 H 430.73 -1.0629 5.15761 0
M  V30 4356 H 433.221 -0.363126 3.76151 0
M  V30 4357 H 433.534 -0.117763 7.7271 0
M  V30 4358 H 431.879 -0.112857 6.94908 0
M  V30 4359 H 435.07 -0.365864 4.66668 0
M  V30 4360 H 435.243 -0.254204 6.47501 0
M  V30 4361 N 428.649 -1.55105 -0.279332 0
M  V30 4362 C 430.065 -1.46803 -0.626187 0
M  V30 4363 C 430.265 -0.676939 -1.89789 0
M  V30 4364 O 429.321 -0.19326 -2.51759 0
M  V30 4365 C 430.634 -2.90962 -0.759034 0
M  V30 4366 C 432.182 -3.01138 -0.853504 0
M  V30 4367 C 432.657 -4.46539 -1.01818 0
M  V30 4368 N 434.148 -4.50341 -1.08386 0
M  V30 4369 C 434.883 -5.60053 -1.22996 0
M  V30 4370 N 434.379 -6.79645 -1.34366 0
M  V30 4371 N 436.172 -5.47783 -1.26056 0
M  V30 4372 H 428.323 -2.04996 0.555921 0
M  V30 4373 H 430.586 -0.929325 0.187239 0
M  V30 4374 H 430.292 -3.51544 0.104852 0
M  V30 4375 H 430.166 -3.39619 -1.64131 0
M  V30 4376 H 432.553 -2.40658 -1.70786 0
M  V30 4377 H 432.634 -2.55745 0.0532466 0
M  V30 4378 H 432.278 -5.0762 -0.168504 0
M  V30 4379 H 432.208 -4.89583 -1.93948 0
M  V30 4380 H 434.699 -3.64191 -1.00864 0
M  V30 4381 H 435.012 -7.59012 -1.4533 0
M  V30 4382 H 433.357 -6.82469 -1.31382 0
M  V30 4383 H 436.548 -4.53294 -1.168 0
M  V30 4384 H 436.721 -6.33331 -1.37098 0
M  V30 4385 N 430.127 0.543554 -1.4793 0
M  V30 4386 C 431.352 1.32995 -1.59145 0
M  V30 4387 C 431.777 1.86472 -0.246956 0
M  V30 4388 O 431.135 1.63696 0.779324 0
M  V30 4389 C 431.183 2.46623 -2.63077 0
M  V30 4390 O 430.287 3.49261 -2.19295 0
M  V30 4391 H 429.628 0.394472 -0.534124 0
M  V30 4392 H 432.158 0.655489 -1.93816 0
M  V30 4393 H 432.168 2.93001 -2.83926 0
M  V30 4394 H 430.843 2.07059 -3.60693 0
M  V30 4395 H 429.42 3.09094 -2.08603 0
M  V30 4396 N 431.605 1.3629 0.791371 0
M  V30 4397 C 432.83 1.33726 1.58531 0
M  V30 4398 C 433.255 -0.0794933 1.87932 0
M  V30 4399 O 432.613 -1.05087 1.47738 0
M  V30 4400 C 432.661 2.16425 2.88431 0
M  V30 4401 O 431.765 1.5554 3.81944 0
M  V30 4402 H 431.106 0.457793 0.480959 0
M  V30 4403 H 433.636 1.79547 0.981031 0
M  V30 4404 H 433.646 2.28933 3.37718 0
M  V30 4405 H 432.321 3.19415 2.66359 0
M  V30 4406 H 430.898 1.51961 3.40532 0
M  V30 4407 N 433.083 -1.0153 1.20538 0
M  V30 4408 C 434.308 -1.79283 1.04271 0
M  V30 4409 C 434.733 -1.8372 -0.403544 0
M  V30 4410 O 434.091 -1.27321 -1.2907 0
M  V30 4411 C 434.139 -3.21535 1.63241 0
M  V30 4412 O 433.243 -4.03099 0.870908 0
M  V30 4413 H 432.584 -0.55293 0.367647 0
M  V30 4414 H 435.114 -1.27696 1.59859 0
M  V30 4415 H 435.124 -3.72243 1.6703 0
M  V30 4416 H 433.799 -3.1762 2.68497 0
M  V30 4417 H 432.376 -3.61693 0.907323 0
M  V30 4418 N 434.561 -1.01147 -1.20859 0
M  V30 4419 C 435.807 -0.698899 -1.90377 0
M  V30 4420 C 436.14 0.76904 -1.78324 0
M  V30 4421 O 435.415 1.55817 -1.16409 0
M  V30 4422 C 435.698 -1.12878 -3.41951 0
M  V30 4423 C 435.551 -2.65665 -3.62963 0
M  V30 4424 C 436.87 -0.696114 -4.3456 0
M  V30 4425 H 433.989 -0.255372 -0.691342 0
M  V30 4426 H 436.631 -1.25831 -1.42361 0
M  V30 4427 H 434.781 -0.652827 -3.82976 0
M  V30 4428 H 436.453 -3.21074 -3.31224 0
M  V30 4429 H 434.696 -3.06878 -3.06608 0
M  V30 4430 H 435.367 -2.90797 -4.69192 0
M  V30 4431 H 437.843 -1.10521 -4.01154 0
M  V30 4432 H 436.719 -1.025 -5.39245 0
M  V30 4433 H 436.98 0.402465 -4.40264 0
M  V30 4434 N 436.039 1.36541 -0.78704 0
M  V30 4435 C 437.285 1.99599 -0.358872 0
M  V30 4436 C 437.618 1.62323 1.06606 0
M  V30 4437 O 436.893 0.876858 1.73613 0
M  V30 4438 C 437.176 3.56327 -0.519944 0
M  V30 4439 C 437.029 4.03464 -1.98839 0
M  V30 4440 C 438.348 4.4005 0.0664737 0
M  V30 4441 H 435.467 0.725107 -0.131869 0
M  V30 4442 H 438.109 1.6199 -0.992936 0
M  V30 4443 H 436.259 3.88495 0.0198321 0
M  V30 4444 H 437.931 3.81793 -2.58905 0
M  V30 4445 H 436.174 3.55092 -2.49183 0
M  V30 4446 H 436.845 5.12439 -2.05207 0
M  V30 4447 H 439.321 4.14228 -0.394267 0
M  V30 4448 H 438.197 5.48847 -0.0762682 0
M  V30 4449 H 438.458 4.26655 1.15835 0
M  V30 4450 N 437.518 0.538854 1.48102 0
M  V30 4451 C 438.743 0.0102694 2.07397 0
M  V30 4452 C 439.168 -1.26562 1.39153 0
M  V30 4453 O 438.526 -1.75357 0.460387 0
M  V30 4454 C 438.574 -0.187602 3.60112 0
M  V30 4455 O 437.678 -1.25432 3.92862 0
M  V30 4456 H 437.019 0.0430975 0.6626 0
M  V30 4457 H 439.549 0.749301 1.90385 0
M  V30 4458 H 439.559 -0.407517 4.0596 0
M  V30 4459 H 438.234 0.744386 4.09184 0
M  V30 4460 H 436.811 -1.01636 3.58782 0
M  V30 4461 N 438.996 -1.55193 0.274407 0
M  V30 4462 C 439.959 -2.212 -0.600279 0
M  V30 4463 C 440.959 -1.18963 -1.08187 0
M  V30 4464 O 442.149 -1.43873 -0.982158 0
M  V30 4465 C 439.281 -2.87739 -1.82809 0
M  V30 4466 H 440.474 -2.9989 -0.0239682 0
M  V30 4467 H 438.027 -1.5628 0.0250192 0
M  V30 4468 H 438.762 -2.13058 -2.44493 0
M  V30 4469 H 438.547 -3.62658 -1.49069 0
M  V30 4470 H 440.037 -3.38171 -2.45011 0
M  V30 4471 N 440.474 -0.00167713 -1.576 0
M  V30 4472 C 441.384 1.00548 -2.1196 0
M  V30 4473 C 442.4 1.3758 -1.06526 0
M  V30 4474 O 443.576 1.46278 -1.38436 0
M  V30 4475 C 440.641 2.27809 -2.6135 0
M  V30 4476 C 439.702 1.97074 -3.81393 0
M  V30 4477 C 438.935 3.18267 -4.28417 0
M  V30 4478 O 439.158 4.30009 -3.74765 0
M  V30 4479 O 438.092 3.02167 -5.20556 0
M  V30 4480 H 441.918 0.573373 -2.98238 0
M  V30 4481 H 439.503 0.217255 -1.47812 0
M  V30 4482 H 441.385 3.02568 -2.93309 0
M  V30 4483 H 440.06 2.70254 -1.78169 0
M  V30 4484 H 438.967 1.19785 -3.54404 0
M  V30 4485 H 440.3 1.59464 -4.65652 0
M  V30 4486 N 441.952 1.55251 0.271103 0
M  V30 4487 C 442.885 1.83191 1.36075 0
M  V30 4488 C 443.863 0.685091 1.47463 0
M  V30 4489 O 445.047 0.928292 1.64058 0
M  V30 4490 C 442.174 1.99521 2.73696 0
M  V30 4491 C 441.22 3.22081 2.79582 0
M  V30 4492 S 442.053 4.79388 2.38636 0
M  V30 4493 C 443.209 4.98693 3.78228 0
M  V30 4494 H 443.442 2.75327 1.12171 0
M  V30 4495 H 440.975 1.47046 0.470833 0
M  V30 4496 H 442.933 2.09613 3.52948 0
M  V30 4497 H 441.594 1.0827 2.9485 0
M  V30 4498 H 440.787 3.304 3.80594 0
M  V30 4499 H 440.389 3.10589 2.08352 0
M  V30 4500 H 442.681 4.84551 4.73515 0
M  V30 4501 H 443.624 6.00738 3.7486 0
M  V30 4502 H 444.032 4.26665 3.69618 0
M  V30 4503 N 443.43 -0.535701 1.48216 0
M  V30 4504 C 444.655 -1.32149 1.59848 0
M  V30 4505 C 445.08 -1.86338 0.256842 0
M  V30 4506 O 444.438 -1.64107 -0.770632 0
M  V30 4507 C 444.486 -2.45224 2.64381 0
M  V30 4508 O 443.59 -3.48093 2.21144 0
M  V30 4509 H 442.931 -0.391634 0.536208 0
M  V30 4510 H 445.461 -0.645202 1.94161 0
M  V30 4511 H 445.471 -2.91491 2.85476 0
M  V30 4512 H 444.146 -2.05143 3.61786 0
M  V30 4513 H 442.723 -3.07984 2.10239 0
M  V30 4514 N 444.908 -1.36708 -0.784132 0
M  V30 4515 C 446.156 -1.30972 -1.53918 0
M  V30 4516 C 446.477 0.109086 -1.94695 0
M  V30 4517 O 445.747 1.05048 -1.65353 0
M  V30 4518 H 444.327 -0.481819 -0.570841 0
M  V30 4519 H 446.989 -1.71063 -0.934002 0
M  V30 4520 H 446.085 -1.94061 -2.44431 0
M  V30 4521 N 446.386 1.0089 -1.21074 0
M  V30 4522 C 447.626 1.76142 -1.03699 0
M  V30 4523 C 447.99 1.87292 0.422587 0
M  V30 4524 O 449.191 2.59068 0.716752 0
M  V30 4525 C 447.462 3.13805 -1.7106 0
M  V30 4526 S 449.021 4.04996 -1.68889 0
M  V30 4527 H 445.839 0.606113 -0.371683 0
M  V30 4528 H 448.441 1.20744 -1.53756 0
M  V30 4529 H 447.145 3.0332 -2.76451 0
M  V30 4530 H 446.676 3.74276 -1.21166 0
M  V30 4531 H 448.691 4.90842 -0.727211 0
M  V30 4532 N 447.864 1.01787 1.20321 0
M  V30 4533 C 449.089 0.727009 1.9424 0
M  V30 4534 C 449.514 -0.706179 1.74341 0
M  V30 4535 O 448.872 -1.48609 1.03852 0
M  V30 4536 C 448.92 1.06958 3.44372 0
M  V30 4537 O 448.024 0.181983 4.11998 0
M  V30 4538 H 447.365 0.269626 0.606793 0
M  V30 4539 H 449.895 1.36158 1.52716 0
M  V30 4540 H 449.905 1.02182 3.94997 0
M  V30 4541 H 448.58 2.11378 3.58179 0
M  V30 4542 H 447.157 0.287378 3.71791 0
M  V30 4543 N 449.342 -1.36122 0.79427 0
M  V30 4544 C 450.567 -2.03891 0.379871 0
M  V30 4545 C 450.992 -1.59488 -0.997251 0
M  V30 4546 O 450.35 -0.765652 -1.64339 0
M  V30 4547 C 450.398 -3.57687 0.457442 0
M  V30 4548 O 449.502 -4.08931 -0.5338 0
M  V30 4549 H 448.843 -0.6443 0.160541 0
M  V30 4550 H 451.373 -1.73976 1.07673 0
M  V30 4551 H 451.383 -4.06721 0.322792 0
M  V30 4552 H 450.058 -3.89357 1.46199 0
M  V30 4553 H 448.635 -3.71154 -0.360409 0
M  V30 4554 N 450.82 -0.546701 -1.47814 0
M  V30 4555 C 451.767 0.206854 -2.29871 0
M  V30 4556 C 452.737 0.918235 -1.38411 0
M  V30 4557 O 453.922 0.915991 -1.67375 0
M  V30 4558 C 451.062 1.23746 -3.22151 0
M  V30 4559 C 450.175 0.533216 -4.28697 0
M  V30 4560 C 449.31 1.5482 -5.08138 0
M  V30 4561 C 448.349 0.828347 -6.06469 0
M  V30 4562 N 447.486 1.78966 -6.78908 0
M  V30 4563 H 452.326 -0.499037 -2.93792 0
M  V30 4564 H 449.863 -0.25793 -1.44821 0
M  V30 4565 H 451.821 1.84746 -3.74065 0
M  V30 4566 H 450.451 1.91151 -2.60117 0
M  V30 4567 H 449.503 -0.191089 -3.7992 0
M  V30 4568 H 450.815 -0.0311987 -4.9879 0
M  V30 4569 H 449.969 2.23202 -5.6415 0
M  V30 4570 H 448.708 2.14652 -4.37922 0
M  V30 4571 H 447.713 0.130539 -5.49645 0
M  V30 4572 H 448.938 0.235907 -6.7869 0
M  V30 4573 H 446.884 2.37675 -6.1143 0
M  V30 4574 H 446.801 1.27712 -7.45135 0
M  V30 4575 H 448.069 2.46496 -7.395 0
M  V30 4576 N 452.299 1.55045 -0.282633 0
M  V30 4577 C 453.524 2.04628 0.337977 0
M  V30 4578 C 453.949 1.15937 1.48123 0
M  V30 4579 O 453.307 0.159532 1.80597 0
M  V30 4580 C 453.355 3.51854 0.78936 0
M  V30 4581 O 452.459 3.66236 1.89592 0
M  V30 4582 H 451.8 0.660434 0.0687261 0
M  V30 4583 H 454.33 2.00261 -0.419124 0
M  V30 4584 H 454.34 3.93361 1.08311 0
M  V30 4585 H 453.015 4.15873 -0.0470419 0
M  V30 4586 H 451.592 3.36633 1.60413 0
M  V30 4587 N 453.777 0.010035 1.57597 0
M  V30 4588 C 454.727 -0.986858 2.05536 0
M  V30 4589 C 455.711 -1.29711 0.952042 0
M  V30 4590 O 456.903 -1.28641 1.21575 0
M  V30 4591 C 454.032 -2.2756 2.57043 0
M  V30 4592 C 453.118 -1.99455 3.74271 0
M  V30 4593 N 453.509 -1.41546 4.85591 0
M  V30 4594 C 451.807 -2.29547 3.82393 0
M  V30 4595 C 452.508 -1.3014 5.66956 0
M  V30 4596 N 451.484 -1.79044 5.13268 0
M  V30 4597 H 455.286 -0.533778 2.89012 0
M  V30 4598 H 452.8 -0.195432 1.6122 0
M  V30 4599 H 454.797 -2.99829 2.89669 0
M  V30 4600 H 453.457 -2.73512 1.7499 0
M  V30 4601 H 454.468 -1.09294 5.06236 0
M  V30 4602 H 451.145 -2.78304 3.11213 0
M  V30 4603 H 452.535 -0.855237 6.66435 0
M  V30 4604 N 455.255 -1.55392 -0.262866 0
M  V30 4605 C 456.671 -1.47459 -0.610582 0
M  V30 4606 C 456.871 -0.697031 -1.8906 0
M  V30 4607 O 455.927 -0.219952 -2.5154 0
M  V30 4608 C 457.24 -2.91751 -0.728131 0
M  V30 4609 C 458.788 -3.02027 -0.821517 0
M  V30 4610 C 459.263 -4.47594 -0.97076 0
M  V30 4611 N 460.754 -4.51465 -1.03603 0
M  V30 4612 C 461.489 -5.61326 -1.17049 0
M  V30 4613 N 460.985 -6.81032 -1.2715 0
M  V30 4614 N 462.778 -5.49089 -1.20239 0
M  V30 4615 H 454.929 -2.04395 0.577632 0
M  V30 4616 H 457.192 -0.927287 0.197086 0
M  V30 4617 H 456.898 -3.51413 0.142132 0
M  V30 4618 H 456.772 -3.4134 -1.6052 0
M  V30 4619 H 459.159 -2.42456 -1.68224 0
M  V30 4620 H 459.24 -2.55674 0.0803688 0
M  V30 4621 H 458.884 -5.07771 -0.114655 0
M  V30 4622 H 458.814 -4.91613 -1.88745 0
M  V30 4623 H 461.305 -3.6524 -0.96996 0
M  V30 4624 H 461.618 -7.60511 -1.37271 0
M  V30 4625 H 459.963 -6.83824 -1.24136 0
M  V30 4626 H 463.154 -4.54507 -1.11985 0
M  V30 4627 H 463.327 -6.34749 -1.30373 0
M  V30 4628 N 456.733 0.527833 -1.48498 0
M  V30 4629 C 458.149 0.856571 -1.34666 0
M  V30 4630 C 458.349 1.98271 -0.35931 0
M  V30 4631 O 457.405 2.51551 0.218703 0
M  V30 4632 C 458.718 1.22207 -2.74747 0
M  V30 4633 C 460.266 1.33183 -2.83251 0
M  V30 4634 C 460.741 1.73075 -4.24039 0
M  V30 4635 N 462.232 1.80174 -4.26722 0
M  V30 4636 C 462.967 2.1243 -5.32598 0
M  V30 4637 N 462.463 2.43096 -6.4875 0
M  V30 4638 N 464.256 2.13454 -5.19994 0
M  V30 4639 H 456.407 -0.215174 -2.11307 0
M  V30 4640 H 458.67 -0.0336281 -0.947403 0
M  V30 4641 H 458.376 0.468195 -3.4857 0
M  V30 4642 H 458.25 2.17173 -3.08409 0
M  V30 4643 H 460.637 2.07647 -2.09683 0
M  V30 4644 H 460.718 0.363333 -2.53206 0
M  V30 4645 H 460.362 0.991712 -4.98124 0
M  V30 4646 H 460.292 2.70979 -4.51529 0
M  V30 4647 H 462.783 1.58744 -3.42942 0
M  V30 4648 H 463.096 2.6682 -7.25277 0
M  V30 4649 H 461.441 2.40611 -6.52021 0
M  V30 4650 H 464.632 1.88956 -4.28268 0
M  V30 4651 H 464.805 2.38261 -6.02608 0
M  V30 4652 N 458.211 1.37122 0.776871 0
M  V30 4653 C 459.439 1.3523 1.5659 0
M  V30 4654 C 459.854 -0.0635518 1.88693 0
M  V30 4655 O 459.211 -1.02394 1.51069 0
M  V30 4656 C 459.262 2.18583 2.8793 0
M  V30 4657 O 458.983 3.5465 2.57206 0
M  V30 4658 C 460.484 2.24612 3.82183 0
M  V30 4659 H 457.704 0.4634 0.485285 0
M  V30 4660 H 460.248 1.80392 0.963266 0
M  V30 4661 H 458.403 1.76943 3.4463 0
M  V30 4662 H 458.817 3.98286 3.41275 0
M  V30 4663 H 460.291 2.87267 4.71361 0
M  V30 4664 H 460.768 1.25309 4.20944 0
M  V30 4665 H 461.374 2.66543 3.31414 0
M  V30 4666 N 459.689 -1.00246 1.21608 0
M  V30 4667 C 460.914 -1.78167 1.06167 0
M  V30 4668 C 461.339 -1.84138 -0.384035 0
M  V30 4669 O 460.697 -1.28683 -1.27712 0
M  V30 4670 C 460.745 -3.19786 1.66642 0
M  V30 4671 O 459.849 -4.02153 0.913613 0
M  V30 4672 H 459.19 -0.549 0.37349 0
M  V30 4673 H 461.72 -1.25994 1.61204 0
M  V30 4674 H 461.73 -3.70451 1.70969 0
M  V30 4675 H 460.405 -3.14754 2.7185 0
M  V30 4676 H 458.982 -3.60711 0.945635 0
M  V30 4677 N 461.167 -1.02423 -1.1978 0
M  V30 4678 C 462.097 -0.62157 -2.25075 0
M  V30 4679 C 463.078 0.367148 -1.6609 0
M  V30 4680 O 464.263 0.250892 -1.92573 0
M  V30 4681 C 461.393 0.0331826 -3.47284 0
M  V30 4682 C 460.347 -0.877323 -4.18912 0
M  V30 4683 C 459.673 -0.0879296 -5.34628 0
M  V30 4684 C 460.973 -2.18892 -4.74219 0
M  V30 4685 H 462.667 -1.50179 -2.59011 0
M  V30 4686 H 460.213 -0.723547 -1.24502 0
M  V30 4687 H 462.166 0.326488 -4.20133 0
M  V30 4688 H 460.89 0.948164 -3.12534 0
M  V30 4689 H 459.549 -1.15475 -3.47938 0
M  V30 4690 H 459.197 0.828941 -4.96123 0
M  V30 4691 H 458.897 -0.694359 -5.83483 0
M  V30 4692 H 460.421 0.198743 -6.10276 0
M  V30 4693 H 461.835 -1.95746 -5.38847 0
M  V30 4694 H 460.232 -2.74686 -5.33542 0
M  V30 4695 H 461.302 -2.84674 -3.92541 0
M  V30 4696 N 462.645 1.35699 -0.801477 0
M  V30 4697 C 464.056 1.81415 -0.441073 0
M  V30 4698 C 464.407 1.66595 1.03636 0
M  V30 4699 O 463.532 1.19369 1.80499 0
M  V30 4700 C 464.127 3.29369 -0.793819 0
M  V30 4701 C 462.686 3.73248 -0.486083 0
M  V30 4702 C 461.833 2.57775 -1.02213 0
M  V30 4703 H 464.784 1.23749 -0.993572 0
M  V30 4704 H 464.805 3.80395 -0.0894158 0
M  V30 4705 H 464.317 3.40123 -1.86917 0
M  V30 4706 H 462.418 3.68046 0.580735 0
M  V30 4707 H 462.531 4.68222 -1.01513 0
M  V30 4708 H 460.895 2.50788 -0.444712 0
M  V30 4709 H 461.678 2.71309 -2.10348 0
M  V30 4710 N 464.123 0.554532 1.47522 0
M  V30 4711 C 465.363 0.0317994 2.04375 0
M  V30 4712 C 465.727 -1.29242 1.41988 0
M  V30 4713 O 466.928 -1.90269 1.89872 0
M  V30 4714 C 465.199 -0.0623344 3.57346 0
M  V30 4715 S 466.758 -0.531578 4.35568 0
M  V30 4716 H 463.576 0.0238553 0.7106 0
M  V30 4717 H 466.178 0.74066 1.80927 0
M  V30 4718 H 464.882 0.905857 4.00278 0
M  V30 4719 H 464.413 -0.794831 3.85287 0
M  V30 4720 H 466.428 -1.79175 4.62721 0
M  V30 4721 N 465.601 -1.54893 0.290851 0
M  V30 4722 C 466.85 -1.99111 -0.322113 0
M  V30 4723 C 467.163 -1.18283 -1.55784 0
M  V30 4724 O 468.369 -1.5272 -2.24475 0
M  V30 4725 C 466.825 -3.54442 -0.624438 0
M  V30 4726 C 466.433 -4.44066 0.592373 0
M  V30 4727 C 468.177 -4.07211 -1.19916 0
M  V30 4728 C 466.084 -5.90812 0.263762 0
M  V30 4729 H 465.014 -0.743712 -0.124133 0
M  V30 4730 H 467.665 -1.79132 0.39797 0
M  V30 4731 H 466.047 -3.70281 -1.40384 0
M  V30 4732 H 467.221 -4.39999 1.36886 0
M  V30 4733 H 465.536 -4.02015 1.08502 0
M  V30 4734 H 468.133 -5.14407 -1.45909 0
M  V30 4735 H 468.476 -3.57196 -2.13815 0
M  V30 4736 H 469.009 -3.94873 -0.481687 0
M  V30 4737 H 465.748 -6.44955 1.17105 0
M  V30 4738 H 465.268 -5.97911 -0.475655 0
M  V30 4739 H 466.947 -6.46852 -0.138354 0
M  V30 4740 N 467.08 -0.0183926 -1.57589 0
M  V30 4741 C 468.491 0.521927 -1.79256 0
M  V30 4742 C 468.842 1.72885 -0.927636 0
M  V30 4743 O 467.967 2.15978 -0.135091 0
M  V30 4744 C 468.562 0.953632 -3.25102 0
M  V30 4745 C 467.121 1.43913 -3.47801 0
M  V30 4746 C 466.268 0.398837 -2.74417 0
M  V30 4747 H 469.219 -0.244485 -1.56805 0
M  V30 4748 H 469.24 1.81863 -3.34224 0
M  V30 4749 H 468.752 0.0750123 -3.88028 0
M  V30 4750 H 466.853 2.33804 -2.90115 0
M  V30 4751 H 466.966 1.45391 -4.56507 0
M  V30 4752 H 465.33 0.864572 -2.39577 0
M  V30 4753 H 466.113 -0.471132 -3.40052 0
M  V30 4754 N 468.558 1.5553 0.254621 0
M  V30 4755 C 469.974 1.4778 0.602753 0
M  V30 4756 C 470.174 0.707047 1.88688 0
M  V30 4757 O 469.23 0.233288 2.5142 0
M  V30 4758 C 470.543 2.92133 0.712648 0
M  V30 4759 C 472.091 3.02458 0.805488 0
M  V30 4760 C 472.566 4.48102 0.947009 0
M  V30 4761 N 474.057 4.52008 1.01207 0
M  V30 4762 C 474.792 5.61939 1.1407 0
M  V30 4763 N 474.288 6.81697 1.23536 0
M  V30 4764 N 476.081 5.49719 1.17325 0
M  V30 4765 H 468.232 2.04085 -0.588463 0
M  V30 4766 H 470.495 0.926229 -0.202001 0
M  V30 4767 H 470.201 3.51332 -0.160766 0
M  V30 4768 H 470.075 3.42187 1.58707 0
M  V30 4769 H 472.462 2.43344 1.66936 0
M  V30 4770 H 472.543 2.55627 -0.0939266 0
M  V30 4771 H 472.187 5.07824 0.087725 0
M  V30 4772 H 472.117 4.92607 1.86135 0
M  V30 4773 H 474.608 3.65749 0.950577 0
M  V30 4774 H 474.921 7.61228 1.33236 0
M  V30 4775 H 473.266 6.84473 1.20508 0
M  V30 4776 H 476.457 4.55095 1.09573 0
M  V30 4777 H 476.63 6.35432 1.27005 0
M  V30 4778 N 470.036 -0.519951 1.48776 0
M  V30 4779 C 470.946 -1.65025 1.66745 0
M  V30 4780 C 471.962 -1.6508 0.549954 0
M  V30 4781 O 473.138 -1.83848 0.822295 0
M  V30 4782 C 470.203 -3.0146 1.71238 0
M  V30 4783 C 469.264 -3.12182 2.94688 0
M  V30 4784 C 468.497 -4.42109 2.98958 0
M  V30 4785 O 468.72 -5.29799 2.1135 0
M  V30 4786 O 467.654 -4.57406 3.91233 0
M  V30 4787 H 471.48 -1.52801 2.62461 0
M  V30 4788 H 469.065 -0.694157 1.32294 0
M  V30 4789 H 470.947 -3.82584 1.76657 0
M  V30 4790 H 469.622 -3.13988 0.786975 0
M  V30 4791 H 468.529 -2.30316 2.94797 0
M  V30 4792 H 469.862 -3.04574 3.86646 0
M  V30 4793 N 471.514 -1.37532 -0.769588 0
M  V30 4794 C 472.446 -1.29347 -1.89214 0
M  V30 4795 C 473.459 -0.208842 -1.61455 0
M  V30 4796 O 474.648 -0.465158 -1.72333 0
M  V30 4797 C 471.748 -0.977649 -3.24492 0
M  V30 4798 C 470.921 -2.16817 -3.7988 0
M  V30 4799 C 469.98 -1.82229 -4.93639 0
M  V30 4800 O 469.006 -2.54548 -5.09111 0
M  V30 4801 N 470.208 -0.767696 -5.75401 0
M  V30 4802 H 472.973 -2.26073 -1.96751 0
M  V30 4803 H 470.534 -1.31185 -0.948795 0
M  V30 4804 H 472.526 -0.727065 -3.98115 0
M  V30 4805 H 471.096 -0.0988777 -3.12444 0
M  V30 4806 H 470.316 -2.58038 -2.9801 0
M  V30 4807 H 471.604 -2.96308 -4.13617 0
M  V30 4808 H 471.002 -0.167626 -5.65452 0
M  V30 4809 H 469.559 -0.576973 -6.49241 0
M  V30 4810 N 472.992 0.995999 -1.22138 0
M  V30 4811 C 473.922 2.10387 -1.01289 0
M  V30 4812 C 474.903 1.69975 0.0651454 0
M  V30 4813 O 476.088 1.9396 -0.0964628 0
M  V30 4814 C 473.218 3.42312 -0.586517 0
M  V30 4815 C 472.172 3.96558 -1.61014 0
M  V30 4816 C 471.498 5.24494 -1.0397 0
M  V30 4817 C 472.798 4.27595 -2.99933 0
M  V30 4818 H 474.492 2.28086 -1.93951 0
M  V30 4819 H 472.038 1.09607 -0.933928 0
M  V30 4820 H 473.991 4.19223 -0.427793 0
M  V30 4821 H 472.715 3.24431 0.375761 0
M  V30 4822 H 471.374 3.21776 -1.75658 0
M  V30 4823 H 471.022 5.02953 -0.0688703 0
M  V30 4824 H 470.722 5.61755 -1.72352 0
M  V30 4825 H 472.246 6.04042 -0.892494 0
M  V30 4826 H 473.66 4.95315 -2.8868 0
M  V30 4827 H 472.057 4.76021 -3.6541 0
M  V30 4828 H 473.127 3.35498 -3.50099 0
M  V30 4829 N 474.47 1.03057 1.19235 0
M  V30 4830 C 475.403 0.557384 2.21288 0
M  V30 4831 C 476.381 -0.402675 1.57535 0
M  V30 4832 O 477.565 -0.319376 1.85775 0
M  V30 4833 C 474.692 -0.187041 3.38183 0
M  V30 4834 C 473.738 0.72471 4.20298 0
M  V30 4835 S 474.571 2.20187 4.88137 0
M  V30 4836 C 475.727 1.46801 6.08441 0
M  V30 4837 H 475.96 1.42207 2.61083 0
M  V30 4838 H 473.493 0.840651 1.29508 0
M  V30 4839 H 475.451 -0.610405 4.05936 0
M  V30 4840 H 474.112 -1.02748 2.96819 0
M  V30 4841 H 473.305 0.149911 5.03777 0
M  V30 4842 H 472.907 1.08647 3.57871 0
M  V30 4843 H 475.199 0.755522 6.73274 0
M  V30 4844 H 476.142 2.27946 6.70407 0
M  V30 4845 H 476.55 0.964762 5.56195 0
M  V30 4846 N 475.948 -1.35272 0.808662 0
M  V30 4847 C 477.196 -1.98316 0.389233 0
M  V30 4848 C 477.517 -1.64465 -1.04767 0
M  V30 4849 O 476.787 -0.928175 -1.72516 0
M  V30 4850 H 475.367 -0.733585 0.140935 0
M  V30 4851 H 478.029 -1.6515 1.03496 0
M  V30 4852 H 477.125 -3.08123 0.496631 0
M  V30 4853 N 477.426 -0.562348 -1.47226 0
M  V30 4854 C 478.376 0.202967 -2.27095 0
M  V30 4855 C 479.36 0.880611 -1.34663 0
M  V30 4856 O 480.552 0.778069 -1.58981 0
M  V30 4857 C 477.681 1.22906 -3.20545 0
M  V30 4858 C 476.767 0.554566 -4.20459 0
M  V30 4859 N 477.158 -0.378295 -5.04383 0
M  V30 4860 C 475.456 0.807854 -4.38623 0
M  V30 4861 C 476.157 -0.770583 -5.76573 0
M  V30 4862 N 475.133 -0.124263 -5.43458 0
M  V30 4863 H 478.935 -0.514196 -2.89367 0
M  V30 4864 H 476.449 -0.382655 -1.57827 0
M  V30 4865 H 478.446 1.79134 -3.76453 0
M  V30 4866 H 477.106 1.94726 -2.59831 0
M  V30 4867 H 478.117 -0.75274 -5.124 0
M  V30 4868 H 474.794 1.51418 -3.89075 0
M  V30 4869 H 476.184 -1.53742 -6.54074 0
M  V30 4870 N 478.904 1.54736 -0.299062 0
M  V30 4871 C 480.129 2.04975 0.316254 0
M  V30 4872 C 480.554 1.17501 1.46885 0
M  V30 4873 O 479.912 0.178678 1.80417 0
M  V30 4874 C 479.96 3.52672 0.751997 0
M  V30 4875 O 479.064 3.68226 1.85697 0
M  V30 4876 H 478.405 0.661126 0.0617175 0
M  V30 4877 H 480.935 1.99805 -0.440341 0
M  V30 4878 H 480.945 3.94488 1.04133 0
M  V30 4879 H 479.62 4.158 -0.0911482 0
M  V30 4880 H 478.197 3.38316 1.56834 0
M  V30 4881 N 480.382 0.0267497 1.57577 0
M  V30 4882 C 481.292 -0.971633 2.13533 0
M  V30 4883 C 482.308 -1.35868 1.08701 0
M  V30 4884 O 483.484 -1.44058 1.40746 0
M  V30 4885 C 480.549 -2.23622 2.64941 0
M  V30 4886 C 479.61 -1.90982 3.8448 0
M  V30 4887 C 478.843 -3.11411 4.33427 0
M  V30 4888 O 479.066 -4.23992 3.81558 0
M  V30 4889 O 478 -2.93848 5.25297 0
M  V30 4890 H 481.826 -0.525853 2.99113 0
M  V30 4891 H 479.411 -0.193712 1.48139 0
M  V30 4892 H 481.293 -2.97864 2.98086 0
M  V30 4893 H 479.968 -2.67386 1.82446 0
M  V30 4894 H 478.875 -1.14132 3.56265 0
M  V30 4895 H 480.208 -1.52036 4.6813 0
M  V30 4896 N 481.861 -1.55662 -0.24637 0
M  V30 4897 C 483.107 -1.78698 -0.971525 0
M  V30 4898 C 483.462 -0.59577 -1.82944 0
M  V30 4899 O 482.755 0.41097 -1.87141 0
M  V30 4900 C 482.949 -3.04885 -1.86494 0
M  V30 4901 C 482.778 -4.36165 -1.09501 0
M  V30 4902 C 481.548 -4.98929 -0.799895 0
M  V30 4903 C 483.746 -5.12126 -0.472334 0
M  V30 4904 N 481.728 -6.139 -0.00595299 0
M  V30 4905 C 483.099 -6.1972 0.18616 0
M  V30 4906 C 485.154 -4.96426 -0.382854 0
M  V30 4907 C 483.857 -7.13321 0.925542 0
M  V30 4908 C 485.883 -5.90405 0.342999 0
M  V30 4909 C 485.245 -6.97407 0.990128 0
M  V30 4910 H 481.344 -0.705852 -0.336597 0
M  V30 4911 H 483.928 -1.93157 -0.244615 0
M  V30 4912 H 482.099 -2.91753 -2.56388 0
M  V30 4913 H 483.831 -3.16212 -2.5257 0
M  V30 4914 H 480.586 -4.60365 -1.11181 0
M  V30 4915 H 481.01 -6.75938 0.379127 0
M  V30 4916 H 485.652 -4.13777 -0.868834 0
M  V30 4917 H 483.37 -7.9547 1.42312 0
M  V30 4918 H 486.956 -5.80333 0.412907 0
M  V30 4919 H 485.836 -7.68874 1.54282 0
M  V30 4920 N 483.339 0.512053 -1.4905 0
M  V30 4921 C 484.616 1.27337 -1.48474 0
M  V30 4922 C 484.996 2.1009 -0.206301 0
M  V30 4923 O 484.344 2.136 0.811609 0
M  V30 4924 C 484.554 2.13954 -2.75726 0
M  V30 4925 C 485.902 2.73507 -3.24776 0
M  V30 4926 O 486.926 2.24229 -2.76767 0
M  V30 4927 O 485.785 3.63186 -4.08361 0
M  V30 4928 H 482.879 0.575652 -0.593762 0
M  V30 4929 H 485.425 0.527232 -1.61302 0
M  V30 4930 H 484.197 1.52709 -3.60272 0
M  V30 4931 H 483.82 2.95782 -2.65705 0
M  V30 4932 N 484.817 1.37938 0.762283 0
M  V30 4933 C 485.767 1.30976 1.86626 0
M  V30 4934 C 486.751 0.195714 1.59705 0
M  V30 4935 O 487.943 0.430937 1.71674 0
M  V30 4936 C 485.072 1.12847 3.24223 0
M  V30 4937 C 484.158 2.28836 3.57064 0
M  V30 4938 N 484.549 3.54256 3.61022 0
M  V30 4939 C 482.847 2.21198 3.87282 0
M  V30 4940 C 483.548 4.30798 3.90881 0
M  V30 4941 N 482.524 3.60049 4.07266 0
M  V30 4942 H 486.326 2.25946 1.87951 0
M  V30 4943 H 483.84 1.31046 0.959206 0
M  V30 4944 H 485.837 1.05943 4.03214 0
M  V30 4945 H 484.497 0.188024 3.24155 0
M  V30 4946 H 485.508 3.8804 3.42995 0
M  V30 4947 H 482.185 1.35264 3.94981 0
M  V30 4948 H 483.575 5.39386 4.00639 0
M  V30 4949 N 486.295 -0.989507 1.22664 0
M  V30 4950 C 487.242 -2.08024 0.999733 0
M  V30 4951 C 488.212 -1.65909 -0.0797047 0
M  V30 4952 O 489.397 -1.90669 0.0705715 0
M  V30 4953 C 486.537 -3.40067 0.587234 0
M  V30 4954 C 485.65 -3.95505 1.73781 0
M  V30 4955 C 484.785 -5.15722 1.27297 0
M  V30 4956 C 483.824 -5.63305 2.39488 0
M  V30 4957 N 482.961 -6.74758 1.94026 0
M  V30 4958 H 487.801 -2.26768 1.9334 0
M  V30 4959 H 485.338 -1.11171 0.963297 0
M  V30 4960 H 487.296 -4.15899 0.329227 0
M  V30 4961 H 485.926 -3.21314 -0.309426 0
M  V30 4962 H 484.978 -3.16513 2.11006 0
M  V30 4963 H 486.29 -4.26797 2.58158 0
M  V30 4964 H 485.444 -5.98854 0.972546 0
M  V30 4965 H 484.183 -4.86061 0.399445 0
M  V30 4966 H 483.188 -4.78759 2.70315 0
M  V30 4967 H 484.413 -5.94988 3.27362 0
M  V30 4968 H 482.359 -6.46874 1.09041 0
M  V30 4969 H 482.276 -7.05386 2.71968 0
M  V30 4970 H 483.544 -7.61387 1.67062 0
M  V30 4971 N 487.773 -1.03688 -1.18687 0
M  V30 4972 C 489.189 -0.755413 -1.4059 0
M  V30 4973 C 489.389 0.656659 -1.905 0
M  V30 4974 O 488.445 1.42144 -2.08689 0
M  V30 4975 C 489.758 -1.7983 -2.41001 0
M  V30 4976 C 491.306 -1.81877 -2.54735 0
M  V30 4977 C 491.781 -2.85148 -3.58406 0
M  V30 4978 N 493.272 -2.84015 -3.6591 0
M  V30 4979 C 494.007 -3.60573 -4.45841 0
M  V30 4980 N 493.503 -4.46871 -5.29413 0
M  V30 4981 N 495.296 -3.49079 -4.40568 0
M  V30 4982 H 487.447 -1.94818 -0.846148 0
M  V30 4983 H 489.71 -0.842727 -0.434184 0
M  V30 4984 H 489.416 -2.81097 -2.1137 0
M  V30 4985 H 489.29 -1.62727 -3.40294 0
M  V30 4986 H 491.677 -0.812836 -2.83685 0
M  V30 4987 H 491.758 -2.03057 -1.55568 0
M  V30 4988 H 491.402 -3.85918 -3.30197 0
M  V30 4989 H 491.332 -2.61224 -4.57241 0
M  V30 4990 H 493.823 -2.21431 -3.0623 0
M  V30 4991 H 494.136 -5.02007 -5.87545 0
M  V30 4992 H 492.481 -4.5094 -5.28846 0
M  V30 4993 H 495.672 -2.81066 -3.74325 0
M  V30 4994 H 495.845 -4.08994 -5.02621 0
M  V30 4995 N 489.251 1.34841 -0.815825 0
M  V30 4996 C 490.499 1.98107 -0.399744 0
M  V30 4997 C 490.82 1.65019 1.03894 0
M  V30 4998 O 490.09 0.937311 1.72021 0
M  V30 4999 H 488.67 0.732827 -0.144823 0
M  V30 5000 H 491.332 1.64599 -1.0437 0
M  V30 5001 H 490.428 3.07856 -0.512965 0
M  V30 5002 N 490.729 0.570148 1.46925 0
M  V30 5003 C 492.14 0.1402 1.86173 0
M  V30 5004 C 492.491 -1.29347 1.47526 0
M  V30 5005 O 491.616 -1.97508 0.884292 0
M  V30 5006 C 492.211 0.247661 3.37894 0
M  V30 5007 C 490.77 -0.127332 3.76185 0
M  V30 5008 C 489.917 0.589349 2.70965 0
M  V30 5009 H 492.868 0.779117 1.38259 0
M  V30 5010 H 492.889 -0.530341 3.76786 0
M  V30 5011 H 492.401 1.29121 3.65991 0
M  V30 5012 H 490.502 -1.17149 3.53704 0
M  V30 5013 H 490.615 0.240238 4.78497 0
M  V30 5014 H 488.979 0.0309824 2.54681 0
M  V30 5015 H 489.762 1.6343 3.01903 0
M  V30 5016 N 492.207 -1.54576 0.307264 0
M  V30 5017 C 493.623 -1.59534 -0.0459251 0
M  V30 5018 C 493.823 -1.32414 -1.51884 0
M  V30 5019 O 492.879 -1.1006 -2.27251 0
M  V30 5020 C 494.192 -2.98566 0.357649 0
M  V30 5021 C 495.74 -3.11491 0.306937 0
M  V30 5022 C 496.215 -4.52842 0.685427 0
M  V30 5023 N 497.706 -4.58782 0.638203 0
M  V30 5024 C 498.441 -5.66238 0.903458 0
M  V30 5025 N 497.937 -6.81703 1.23501 0
M  V30 5026 N 499.73 -5.55937 0.830102 0
M  V30 5027 H 491.881 -1.70464 1.26712 0
M  V30 5028 H 494.144 -0.79647 0.514139 0
M  V30 5029 H 493.85 -3.23356 1.38325 0
M  V30 5030 H 493.724 -3.76117 -0.285565 0
M  V30 5031 H 496.111 -2.86446 -0.709424 0
M  V30 5032 H 496.192 -2.36081 0.984861 0
M  V30 5033 H 495.836 -4.78618 1.69963 0
M  V30 5034 H 495.766 -5.26598 -0.0146346 0
M  V30 5035 H 498.257 -3.75849 0.393138 0
M  V30 5036 H 498.57 -7.59582 1.42322 0
M  V30 5037 H 496.915 -6.8324 1.27311 0
M  V30 5038 H 500.106 -4.64608 0.570693 0
M  V30 5039 H 500.279 -6.39597 1.04019 0
M  V30 5040 N 493.685 -0.035106 -1.57561 0
M  V30 5041 C 494.933 0.64096 -1.91667 0
M  V30 5042 C 495.254 1.72323 -0.912681 0
M  V30 5043 O 494.524 1.95849 0.0449089 0
M  V30 5044 H 493.104 0.239743 -0.707483 0
M  V30 5045 H 495.766 -0.084321 -1.94718 0
M  V30 5046 H 494.862 1.08987 -2.92452 0
M  V30 5047 N 495.163 1.55791 0.238111 0
M  V30 5048 C 496.388 1.8244 0.986432 0
M  V30 5049 C 496.813 0.613314 1.7782 0
M  V30 5050 O 496.171 -0.437767 1.75935 0
M  V30 5051 C 496.219 3.06917 1.893 0
M  V30 5052 O 495.323 2.84449 2.98601 0
M  V30 5053 H 494.664 0.601975 0.280218 0
M  V30 5054 H 497.194 2.02987 0.256437 0
M  V30 5055 H 497.204 3.36583 2.30598 0
M  V30 5056 H 495.879 3.947 1.31091 0
M  V30 5057 H 494.456 2.65972 2.61368 0
M  V30 5058 N 496.642 -0.504142 1.49319 0
M  V30 5059 C 497.574 -1.62265 1.61872 0
M  V30 5060 C 498.587 -1.54881 0.501573 0
M  V30 5061 O 499.776 -1.6087 0.773497 0
M  V30 5062 C 496.876 -3.01042 1.55651 0
M  V30 5063 C 496.049 -3.33642 2.82845 0
M  V30 5064 C 495.108 -4.51816 2.69719 0
M  V30 5065 O 494.134 -4.53755 3.4365 0
M  V30 5066 N 495.336 -5.51543 1.81055 0
M  V30 5067 H 498.101 -1.51924 2.58339 0
M  V30 5068 H 495.662 -0.691954 1.46368 0
M  V30 5069 H 497.654 -3.78013 1.44528 0
M  V30 5070 H 496.224 -3.05323 0.670546 0
M  V30 5071 H 495.444 -2.45598 3.08343 0
M  V30 5072 H 496.732 -3.5222 3.67177 0
M  V30 5073 H 496.13 -5.52774 1.20241 0
M  V30 5074 H 494.687 -6.27629 1.75856 0
M  V30 5075 N 498.12 -1.38341 -0.754957 0
M  V30 5076 C 499.345 -1.37882 -1.5493 0
M  V30 5077 C 499.77 0.0296385 -1.88077 0
M  V30 5078 O 499.128 1.01133 -1.50472 0
M  V30 5079 C 499.176 -2.23996 -2.82592 0
M  V30 5080 O 498.28 -1.65612 -3.77686 0
M  V30 5081 H 497.621 -0.470384 -0.468652 0
M  V30 5082 H 500.151 -1.82084 -0.933082 0
M  V30 5083 H 500.161 -2.37806 -3.3153 0
M  V30 5084 H 498.836 -3.26365 -2.57796 0
M  V30 5085 H 497.413 -1.60936 -3.36384 0
M  V30 5086 N 499.598 0.982988 -1.23187 0
M  V30 5087 C 500.823 1.76455 -1.08988 0
M  V30 5088 C 501.248 1.84726 0.354691 0
M  V30 5089 O 500.606 1.30699 1.25649 0
M  V30 5090 C 500.654 3.17094 -1.71708 0
M  V30 5091 O 499.758 4.00648 -0.977477 0
M  V30 5092 H 499.099 0.542988 -0.382177 0
M  V30 5093 H 501.629 1.23413 -1.63188 0
M  V30 5094 H 501.639 3.67684 -1.76841 0
M  V30 5095 H 500.314 3.10389 -2.76823 0
M  V30 5096 H 498.891 3.59161 -1.0029 0
M  V30 5097 N 501.076 1.04316 1.18135 0
M  V30 5098 C 502.324 0.746542 1.87806 0
M  V30 5099 C 502.645 -0.728082 1.80898 0
M  V30 5100 O 501.915 -1.52554 1.22899 0
M  V30 5101 H 500.495 0.273157 0.695265 0
M  V30 5102 H 503.157 1.32044 1.43354 0
M  V30 5103 H 502.253 1.05362 2.93778 0
M  V30 5104 N 502.554 -1.34406 0.822964 0
M  V30 5105 C 503.782 -2.02508 0.424039 0
M  V30 5106 C 504.197 -1.61975 -0.970022 0
M  V30 5107 O 503.554 -0.825228 -1.62777 0
M  V30 5108 C 503.605 -3.57789 0.516657 0
M  V30 5109 O 503.326 -3.96853 1.85577 0
M  V30 5110 C 504.827 -4.43157 0.112637 0
M  V30 5111 H 502.047 -0.649063 0.170173 0
M  V30 5112 H 504.591 -1.7168 1.11113 0
M  V30 5113 H 502.746 -3.87207 -0.122353 0
M  V30 5114 H 503.16 -4.91538 1.83005 0
M  V30 5115 H 504.634 -5.51527 0.228526 0
M  V30 5116 H 505.111 -4.28939 -0.943837 0
M  V30 5117 H 505.717 -4.19067 0.725449 0
M  V30 5118 N 504.032 -0.577932 -1.46621 0
M  V30 5119 C 505.257 -0.0652536 -2.07297 0
M  V30 5120 C 505.682 1.22828 -1.4246 0
M  V30 5121 O 505.04 1.74075 -0.506718 0
M  V30 5122 C 505.088 0.0920589 -3.60482 0
M  V30 5123 O 504.192 1.14972 -3.96049 0
M  V30 5124 H 503.533 -0.06065 -0.661224 0
M  V30 5125 H 506.063 -0.799515 -1.88332 0
M  V30 5126 H 506.073 0.299741 -4.06897 0
M  V30 5127 H 504.748 -0.852612 -4.07067 0
M  V30 5128 H 503.325 0.920879 -3.61351 0
M  V30 5129 N 505.51 1.54411 -0.315457 0
M  V30 5130 C 506.759 1.99599 0.290395 0
M  V30 5131 C 507.072 1.20746 1.53882 0
M  V30 5132 O 508.278 1.56272 2.22017 0
M  V30 5133 C 506.734 3.5539 0.56797 0
M  V30 5134 C 506.342 4.43068 -0.662945 0
M  V30 5135 C 508.086 4.09067 1.13422 0
M  V30 5136 C 505.993 5.90317 -0.357722 0
M  V30 5137 H 504.923 0.745592 0.112286 0
M  V30 5138 H 507.574 1.78477 -0.426418 0
M  V30 5139 H 505.956 3.72468 1.34476 0
M  V30 5140 H 507.13 4.37765 -1.43869 0
M  V30 5141 H 505.445 4.00238 -1.14884 0
M  V30 5142 H 508.042 5.16663 1.37707 0
M  V30 5143 H 508.385 3.60552 2.08106 0
M  V30 5144 H 508.918 3.95589 0.418805 0
M  V30 5145 H 505.657 6.4301 -1.27351 0
M  V30 5146 H 505.177 5.98592 0.380472 0
M  V30 5147 H 506.856 6.4699 0.0354284 0
M  V30 5148 N 506.988 0.0434614 1.5754 0
M  V30 5149 C 508.216 -0.641835 1.96693 0
M  V30 5150 C 508.631 -1.64832 0.920652 0
M  V30 5151 O 507.988 -1.82247 -0.095993 0
M  V30 5152 C 508.039 -1.33557 3.35924 0
M  V30 5153 O 507.76 -0.369403 4.3654 0
M  V30 5154 C 509.261 -2.11135 3.89791 0
M  V30 5155 H 506.481 -0.176013 0.647503 0
M  V30 5156 H 509.025 0.107478 2.04217 0
M  V30 5157 H 507.18 -2.03617 3.29574 0
M  V30 5158 H 507.594 -0.863674 5.1734 0
M  V30 5159 H 509.068 -2.55107 4.89514 0
M  V30 5160 H 509.545 -2.95634 3.24803 0
M  V30 5161 H 510.151 -1.46002 3.99454 0
M  V30 5162 N 508.466 -1.55915 -0.229846 0
M  V30 5163 C 509.712 -1.78807 -0.956868 0
M  V30 5164 C 510.045 -0.611687 -1.84315 0
M  V30 5165 O 509.32 0.389398 -1.90562 0
M  V30 5166 C 509.603 -3.11718 -1.80288 0
M  V30 5167 C 509.456 -4.3979 -0.943649 0
M  V30 5168 C 510.775 -3.40999 -2.78222 0
M  V30 5169 H 507.894 -0.6505 -0.346437 0
M  V30 5170 H 510.536 -1.88648 -0.226252 0
M  V30 5171 H 508.686 -3.03459 -2.42579 0
M  V30 5172 H 510.358 -4.60059 -0.338121 0
M  V30 5173 H 508.601 -4.33086 -0.248705 0
M  V30 5174 H 509.272 -5.29208 -1.5698 0
M  V30 5175 H 511.748 -3.49332 -2.26067 0
M  V30 5176 H 510.624 -4.35183 -3.34526 0
M  V30 5177 H 510.885 -2.62754 -3.55546 0
M  V30 5178 N 509.944 0.496216 -1.49584 0
M  V30 5179 C 511.221 1.25755 -1.49816 0
M  V30 5180 C 511.601 2.09859 -0.228572 0
M  V30 5181 O 510.949 2.14449 0.788908 0
M  V30 5182 C 511.159 2.11017 -2.7798 0
M  V30 5183 C 512.507 2.70047 -3.27658 0
M  V30 5184 O 513.531 2.21281 -2.79129 0
M  V30 5185 O 512.39 3.58834 -4.1219 0
M  V30 5186 H 509.484 0.569322 -0.599834 0
M  V30 5187 H 512.03 0.510094 -1.61852 0
M  V30 5188 H 510.802 1.48879 -3.61871 0
M  V30 5189 H 510.425 2.92947 -2.68827 0
M  V30 5190 N 511.423 1.38739 0.74761 0
M  V30 5191 C 512.672 1.3459 1.50228 0
M  V30 5192 C 512.985 -0.0595592 1.95509 0
M  V30 5193 O 514.191 -0.22361 2.70578 0
M  V30 5194 C 512.647 2.36377 2.71393 0
M  V30 5195 C 512.255 3.82573 2.33113 0
M  V30 5196 C 513.999 2.41281 3.49262 0
M  V30 5197 C 511.906 4.76032 3.50924 0
M  V30 5198 H 510.836 0.500312 0.564096 0
M  V30 5199 H 513.487 1.64324 0.8167 0
M  V30 5200 H 511.869 1.99694 3.41962 0
M  V30 5201 H 513.043 4.28227 1.70171 0
M  V30 5202 H 511.358 3.80844 1.68365 0
M  V30 5203 H 513.955 3.08301 4.36869 0
M  V30 5204 H 514.298 1.43353 3.9084 0
M  V30 5205 H 514.831 2.76793 2.85711 0
M  V30 5206 H 511.57 5.75177 3.14408 0
M  V30 5207 H 511.09 4.35066 4.12889 0
M  V30 5208 H 512.769 4.94331 4.17427 0
M  V30 5209 N 512.901 -0.976442 1.23707 0
M  V30 5210 C 513.864 -2.0511 1.02287 0
M  V30 5211 C 514.864 -1.60791 -0.0167195 0
M  V30 5212 O 516.054 -1.72761 0.223408 0
M  V30 5213 C 513.186 -3.36458 0.548507 0
M  V30 5214 H 514.379 -2.25545 1.9766 0
M  V30 5215 H 511.932 -1.15042 1.05806 0
M  V30 5216 H 512.667 -3.21713 -0.408818 0
M  V30 5217 H 512.452 -3.69967 1.29874 0
M  V30 5218 H 513.942 -4.15489 0.419406 0
M  V30 5219 N 514.379 -1.04941 -1.1758 0
M  V30 5220 C 515.625 -0.759112 -1.88057 0
M  V30 5221 C 515.958 0.711918 -1.8068 0
M  V30 5222 O 515.233 1.52035 -1.21308 0
M  V30 5223 C 515.516 -1.237 -3.38187 0
M  V30 5224 C 515.369 -2.77078 -3.54327 0
M  V30 5225 C 516.688 -0.834014 -4.32125 0
M  V30 5226 H 513.807 -0.277237 -0.682868 0
M  V30 5227 H 516.449 -1.30296 -1.38286 0
M  V30 5228 H 514.599 -0.774337 -3.80705 0
M  V30 5229 H 516.271 -3.31449 -3.20842 0
M  V30 5230 H 514.514 -3.16477 -2.96689 0
M  V30 5231 H 515.185 -3.05577 -4.59703 0
M  V30 5232 H 517.661 -1.23228 -3.97434 0
M  V30 5233 H 516.537 -1.19603 -5.35711 0
M  V30 5234 H 516.798 0.262195 -4.41322 0
M  V30 5235 N 515.857 1.33968 -0.830081 0
M  V30 5236 C 516.79 2.27303 -0.202182 0
M  V30 5237 C 517.768 1.49235 0.645581 0
M  V30 5238 O 518.952 1.78433 0.607762 0
M  V30 5239 C 516.079 3.31025 0.716932 0
M  V30 5240 C 515.125 4.26466 -0.0542271 0
M  V30 5241 S 515.958 5.16707 -1.40622 0
M  V30 5242 C 517.114 6.23962 -0.492167 0
M  V30 5243 H 517.347 2.8021 -0.99346 0
M  V30 5244 H 514.88 1.41124 -0.626359 0
M  V30 5245 H 516.838 3.91271 1.24165 0
M  V30 5246 H 515.499 2.76951 1.4818 0
M  V30 5247 H 514.692 4.99858 0.644785 0
M  V30 5248 H 514.294 3.7051 -0.509722 0
M  V30 5249 H 516.586 6.76774 0.31347 0
M  V30 5250 H 517.529 6.97927 -1.19599 0
M  V30 5251 H 517.937 5.64447 -0.0774176 0
M  V30 5252 N 517.335 0.585699 1.46312 0
M  V30 5253 C 518.583 0.072278 2.01971 0
M  V30 5254 C 518.904 -1.29345 1.45928 0
M  V30 5255 O 518.174 -1.84973 0.645109 0
M  V30 5256 H 516.754 0.023729 0.746623 0
M  V30 5257 H 519.416 0.762155 1.7938 0
M  V30 5258 H 518.512 0.00552767 3.121 0
M  V30 5259 N 518.813 -1.54241 0.323641 0
M  V30 5260 C 519.723 -2.28033 -0.551205 0
M  V30 5261 C 520.739 -1.32388 -1.12913 0
M  V30 5262 O 521.915 -1.65403 -1.14908 0
M  V30 5263 C 518.98 -3.02382 -1.69606 0
M  V30 5264 C 518.041 -4.13612 -1.14993 0
M  V30 5265 C 517.274 -4.84407 -2.24022 0
M  V30 5266 O 517.497 -4.54716 -3.44368 0
M  V30 5267 O 516.431 -5.71312 -1.89436 0
M  V30 5268 H 520.257 -3.03662 0.048066 0
M  V30 5269 H 517.842 -1.49133 0.0893289 0
M  V30 5270 H 519.724 -3.48941 -2.36259 0
M  V30 5271 H 518.399 -2.29628 -2.28151 0
M  V30 5272 H 517.306 -3.71402 -0.448484 0
M  V30 5273 H 518.639 -4.8841 -0.609608 0
M  V30 5274 N 520.291 -0.0518155 -1.57515 0
M  V30 5275 C 521.254 0.907547 -2.10467 0
M  V30 5276 C 522.254 1.23947 -1.02439 0
M  V30 5277 O 523.444 1.17604 -1.2851 0
M  V30 5278 C 520.576 2.21723 -2.58944 0
M  V30 5279 H 521.769 0.44851 -2.96527 0
M  V30 5280 H 519.322 0.196598 -1.55059 0
M  V30 5281 H 520.057 2.72206 -1.76279 0
M  V30 5282 H 519.842 1.98935 -3.37886 0
M  V30 5283 H 521.332 2.90441 -3.00056 0
M  V30 5284 N 521.769 1.56035 0.221574 0
M  V30 5285 C 522.719 1.8881 1.27807 0
M  V30 5286 C 523.703 0.751177 1.42289 0
M  V30 5287 O 524.895 1.01359 1.45104 0
M  V30 5288 C 522.024 2.20828 2.6285 0
M  V30 5289 C 521.11 3.40912 2.52269 0
M  V30 5290 N 521.501 4.59531 2.1134 0
M  V30 5291 C 519.799 3.44526 2.83228 0
M  V30 5292 C 520.5 5.41689 2.1201 0
M  V30 5293 N 519.476 4.814 2.52497 0
M  V30 5294 H 523.278 2.78036 0.952529 0
M  V30 5295 H 520.792 1.566 0.430134 0
M  V30 5296 H 522.789 2.42483 3.39127 0
M  V30 5297 H 521.449 1.32914 2.9625 0
M  V30 5298 H 522.46 4.8469 1.82472 0
M  V30 5299 H 519.137 2.66956 3.21 0
M  V30 5300 H 520.527 6.46643 1.82491 0
M  V30 5301 N 523.247 -0.488276 1.49845 0
M  V30 5302 C 524.495 -1.23911 1.59657 0
M  V30 5303 C 524.816 -1.92816 0.291005 0
M  V30 5304 O 524.086 -1.83328 -0.690485 0
M  V30 5305 H 522.666 -0.460357 0.588286 0
M  V30 5306 H 525.328 -0.564794 1.86537 0
M  V30 5307 H 524.424 -1.99625 2.39909 0
M  V30 5308 N 524.725 -1.39134 -0.740242 0
M  V30 5309 C 525.655 -1.40165 -1.86751 0
M  V30 5310 C 526.636 -0.265708 -1.68012 0
M  V30 5311 O 527.821 -0.47076 -1.88408 0
M  V30 5312 C 524.951 -1.2392 -3.2444 0
M  V30 5313 C 523.905 -2.34858 -3.57807 0
M  V30 5314 C 523.231 -2.03707 -4.94376 0
M  V30 5315 C 524.531 -3.77159 -3.61315 0
M  V30 5316 H 526.225 -2.345 -1.86145 0
M  V30 5317 H 523.771 -1.12875 -0.89416 0
M  V30 5318 H 525.724 -1.23263 -4.02969 0
M  V30 5319 H 524.448 -0.26051 -3.25559 0
M  V30 5320 H 523.107 -2.34723 -2.81604 0
M  V30 5321 H 522.755 -1.04289 -4.9207 0
M  V30 5322 H 522.455 -2.78016 -5.17669 0
M  V30 5323 H 523.979 -2.04691 -5.75268 0
M  V30 5324 H 525.393 -3.79252 -4.29931 0
M  V30 5325 H 523.79 -4.50784 -3.96124 0
M  V30 5326 H 524.86 -4.08513 -2.61238 0
M  V30 5327 N 526.204 0.969867 -1.24223 0
M  V30 5328 C 527.453 1.70687 -1.07466 0
M  V30 5329 C 527.766 1.91736 0.386861 0
M  V30 5330 O 528.972 2.62986 0.674581 0
M  V30 5331 C 527.428 3.07217 -1.87472 0
M  V30 5332 C 527.036 2.94018 -3.3802 0
M  V30 5333 C 528.78 3.84804 -1.79237 0
M  V30 5334 C 526.687 4.25844 -4.10379 0
M  V30 5335 H 525.617 0.640067 -0.398536 0
M  V30 5336 H 528.268 1.08092 -1.48285 0
M  V30 5337 H 526.65 3.70628 -1.39466 0
M  V30 5338 H 527.824 2.39632 -3.9359 0
M  V30 5339 H 526.139 2.29898 -3.47183 0
M  V30 5340 H 528.736 4.82417 -2.30603 0
M  V30 5341 H 529.079 4.09356 -0.757197 0
M  V30 5342 H 529.612 3.28115 -2.24912 0
M  V30 5343 H 526.351 4.06486 -5.14246 0
M  V30 5344 H 525.871 4.80054 -3.59594 0
M  V30 5345 H 527.55 4.94475 -4.17257 0
M  V30 5346 N 527.682 1.05563 1.17022 0
M  V30 5347 C 528.91 0.78845 1.91288 0
M  V30 5348 C 529.325 -0.656318 1.77025 0
M  V30 5349 O 528.682 -1.44869 1.10992 0
M  V30 5350 C 528.733 1.16444 3.42232 0
M  V30 5351 O 528.454 2.5525 3.5606 0
M  V30 5352 C 529.955 0.923937 4.33565 0
M  V30 5353 H 527.175 0.286389 0.606813 0
M  V30 5354 H 529.719 1.4073 1.48375 0
M  V30 5355 H 527.874 0.590266 3.82877 0
M  V30 5356 H 528.288 2.70097 4.49609 0
M  V30 5357 H 529.762 1.23672 5.37968 0
M  V30 5358 H 530.239 -0.140688 4.38975 0
M  V30 5359 H 530.845 1.48214 3.98639 0
M  V30 5360 N 529.16 -1.33526 0.837174 0
M  V30 5361 C 530.437 -1.92369 0.354065 0
M  V30 5362 C 530.817 -1.76348 -1.16038 0
M  V30 5363 O 530.165 -1.15083 -1.97403 0
M  V30 5364 C 530.375 -3.39728 0.799101 0
M  V30 5365 C 531.723 -4.16877 0.806139 0
M  V30 5366 O 532.747 -3.48373 0.742597 0
M  V30 5367 O 531.606 -5.39166 0.892345 0
M  V30 5368 H 528.7 -0.820952 0.0998378 0
M  V30 5369 H 531.246 -1.42409 0.922913 0
M  V30 5370 H 530.018 -3.45254 1.84162 0
M  V30 5371 H 529.641 -3.97062 0.206731 0
M  V30 5372 N 530.638 -0.59345 -1.46 0
M  V30 5373 C 531.568 0.121192 -2.33185 0
M  V30 5374 C 532.549 0.872977 -1.4599 0
M  V30 5375 O 533.734 0.846321 -1.74789 0
M  V30 5376 C 530.864 1.12844 -3.28456 0
M  V30 5377 C 529.818 0.4908 -4.25177 0
M  V30 5378 C 529.144 1.60529 -5.10034 0
M  V30 5379 C 530.444 -0.578949 -5.19081 0
M  V30 5380 H 532.138 -0.606767 -2.93187 0
M  V30 5381 H 529.684 -0.293242 -1.40983 0
M  V30 5382 H 531.637 1.63684 -3.88311 0
M  V30 5383 H 530.361 1.88681 -2.66584 0
M  V30 5384 H 529.02 0.00339328 -3.666 0
M  V30 5385 H 528.668 2.35359 -4.44539 0
M  V30 5386 H 528.368 1.18422 -5.75543 0
M  V30 5387 H 529.892 2.11623 -5.72755 0
M  V30 5388 H 531.306 -0.155199 -5.7309 0
M  V30 5389 H 529.703 -0.920947 -5.92991 0
M  V30 5390 H 530.773 -1.46109 -4.62364 0
M  V30 5391 N 532.116 1.54067 -0.331816 0
M  V30 5392 C 533.046 2.27569 0.522932 0
M  V30 5393 C 534.027 1.28679 1.11247 0
M  V30 5394 O 535.212 1.57504 1.13605 0
M  V30 5395 C 532.342 3.0397 1.67987 0
M  V30 5396 C 531.296 4.10267 1.21924 0
M  V30 5397 C 530.622 4.74555 2.46377 0
M  V30 5398 C 531.922 5.21268 0.32815 0
M  V30 5399 H 533.616 2.99264 -0.0901977 0
M  V30 5400 H 531.162 1.4393 -0.044821 0
M  V30 5401 H 533.115 3.54123 2.28418 0
M  V30 5402 H 531.839 2.29906 2.31971 0
M  V30 5403 H 530.498 3.61009 0.637809 0
M  V30 5404 H 530.146 3.97098 3.08743 0
M  V30 5405 H 529.846 5.46363 2.16243 0
M  V30 5406 H 531.37 5.27487 3.07555 0
M  V30 5407 H 532.784 5.67128 0.838978 0
M  V30 5408 H 531.181 5.99982 0.119228 0
M  V30 5409 H 532.251 4.80673 -0.638839 0
M  V30 5410 N 533.594 0.0601682 1.57485 0
M  V30 5411 C 534.557 -0.896373 2.10945 0
M  V30 5412 C 535.557 -1.23402 1.03095 0
M  V30 5413 O 536.747 -1.16921 1.29132 0
M  V30 5414 C 533.879 -2.20346 2.60116 0
M  V30 5415 H 535.072 -0.432778 2.96761 0
M  V30 5416 H 532.625 -0.188372 1.55161 0
M  V30 5417 H 533.36 -2.71268 1.7772 0
M  V30 5418 H 533.145 -1.9714 3.38937 0
M  V30 5419 H 534.635 -2.88846 3.01592 0
M  V30 5420 N 535.072 -1.5615 -0.213296 0
M  V30 5421 C 536.349 -1.70349 -0.961281 0
M  V30 5422 C 536.729 -0.609791 -2.02101 0
M  V30 5423 O 536.077 0.381987 -2.25285 0
M  V30 5424 C 536.287 -3.11982 -1.56424 0
M  V30 5425 C 537.635 -3.71649 -2.05334 0
M  V30 5426 O 538.659 -3.14995 -1.66302 0
M  V30 5427 O 537.518 -4.71038 -2.77102 0
M  V30 5428 H 534.612 -0.694121 -0.449582 0
M  V30 5429 H 537.158 -1.68464 -0.204426 0
M  V30 5430 H 535.93 -3.83046 -0.799457 0
M  V30 5431 H 535.553 -3.18019 -2.38641 0
M  V30 5432 N 536.55 0.480323 -1.50102 0
M  V30 5433 C 537.961 1.06142 -1.53593 0
M  V30 5434 C 538.312 1.93335 -0.334055 0
M  V30 5435 O 537.437 2.09188 0.55403 0
M  V30 5436 C 538.032 1.9317 -2.78336 0
M  V30 5437 C 536.591 2.46405 -2.84538 0
M  V30 5438 C 535.738 1.24521 -2.4777 0
M  V30 5439 H 538.689 0.26333 -1.565 0
M  V30 5440 H 538.71 2.78123 -2.59669 0
M  V30 5441 H 538.222 1.29683 -3.65792 0
M  V30 5442 H 536.323 3.13472 -2.01411 0
M  V30 5443 H 536.436 2.82143 -3.87211 0
M  V30 5444 H 534.8 1.57706 -2.00003 0
M  V30 5445 H 535.583 0.627102 -3.37524 0
M  V30 5446 N 538.028 1.39524 0.732853 0
M  V30 5447 C 539.253 1.40329 1.52717 0
M  V30 5448 C 539.678 0.000286574 1.881 0
M  V30 5449 O 539.036 -0.987262 1.52062 0
M  V30 5450 C 539.084 2.28464 2.78992 0
M  V30 5451 O 538.188 1.716 3.75003 0
M  V30 5452 H 537.529 0.47778 0.461109 0
M  V30 5453 H 540.059 1.83546 0.903996 0
M  V30 5454 H 540.069 2.43051 3.27705 0
M  V30 5455 H 538.744 3.30425 2.52572 0
M  V30 5456 H 537.321 1.66267 3.33781 0
M  V30 5457 N 539.506 -0.963266 1.24736 0
M  V30 5458 C 540.436 -2.07628 1.06832 0
M  V30 5459 C 541.417 -1.70088 -0.0200566 0
M  V30 5460 O 542.602 -1.93636 0.147854 0
M  V30 5461 C 539.732 -3.40636 0.677069 0
M  V30 5462 C 538.686 -3.9215 1.71471 0
M  V30 5463 C 538.012 -5.21553 1.1784 0
M  V30 5464 C 539.312 -4.19493 3.11164 0
M  V30 5465 H 541.006 -2.22864 1.9993 0
M  V30 5466 H 538.552 -1.07093 0.96266 0
M  V30 5467 H 540.505 -4.17941 0.538792 0
M  V30 5468 H 539.229 -3.25313 -0.289612 0
M  V30 5469 H 537.888 -3.17005 1.84128 0
M  V30 5470 H 537.536 -5.02593 0.202195 0
M  V30 5471 H 537.236 -5.56988 1.87185 0
M  V30 5472 H 538.76 -6.01463 1.05233 0
M  V30 5473 H 540.174 -4.87487 3.01711 0
M  V30 5474 H 538.571 -4.66165 3.77902 0
M  V30 5475 H 539.641 -3.26097 3.58871 0
M  V30 5476 N 540.985 -1.06182 -1.16461 0
M  V30 5477 C 542.396 -0.802426 -1.68576 0
M  V30 5478 C 542.747 0.67412 -1.84255 0
M  V30 5479 O 541.872 1.52303 -1.5373 0
M  V30 5480 C 542.467 -1.45002 -3.06202 0
M  V30 5481 C 541.026 -1.23843 -3.55443 0
M  V30 5482 C 540.173 -1.52724 -2.31454 0
M  V30 5483 H 543.124 -1.22545 -1.00839 0
M  V30 5484 H 543.145 -0.864731 -3.70544 0
M  V30 5485 H 542.657 -2.52466 -2.94759 0
M  V30 5486 H 540.758 -0.183487 -3.72148 0
M  V30 5487 H 540.871 -1.95036 -4.37604 0
M  V30 5488 H 539.235 -0.947726 -2.36411 0
M  V30 5489 H 540.018 -2.61343 -2.22609 0
M  V30 5490 N 542.463 1.3308 -0.844243 0
M  V30 5491 C 543.874 1.7992 -0.498566 0
M  V30 5492 C 544.225 1.69808 0.982834 0
M  V30 5493 O 543.35 1.25051 1.7661 0
M  V30 5494 C 543.945 3.26677 -0.898204 0
M  V30 5495 C 542.504 3.71513 -0.604583 0
M  V30 5496 C 541.651 2.54393 -1.10362 0
M  V30 5497 H 544.602 1.20526 -1.03244 0
M  V30 5498 H 544.623 3.79918 -0.21039 0
M  V30 5499 H 544.135 3.34004 -1.97643 0
M  V30 5500 H 542.236 3.69708 0.46335 0
M  V30 5501 H 542.349 4.64755 -1.16358 0
M  V30 5502 H 540.713 2.49246 -0.524273 0
M  V30 5503 H 541.496 2.6448 -2.18873 0
M  V30 5504 N 543.941 0.601185 1.45683 0
M  V30 5505 C 544.889 -0.133955 2.32214 0
M  V30 5506 C 545.883 -0.866034 1.45589 0
M  V30 5507 O 547.089 -0.782326 1.6211 0
M  V30 5508 H 543.464 -0.0620613 0.749435 0
M  V30 5509 H 545.435 0.614389 2.92007 0
M  V30 5510 C 544.184 -1.12216 3.29094 0
M  V30 5511 H 543.507 -0.568273 3.95741 0
M  V30 5512 H 544.947 -1.60659 3.92383 0
M  V30 5513 C 543.406 -2.19251 2.55794 0
M  V30 5514 O 543.936 -3.26894 2.33459 0
M  V30 5515 N 542.142 -1.9436 2.16039 0
M  V30 5516 H 541.689 -1.06829 2.34404 0
M  V30 5517 H 541.647 -2.66181 1.67318 0
M  V30 5518 N 545.419 -1.53889 0.339982 0
M  V30 5519 C 546.665 -2.01152 -0.258003 0
M  V30 5520 C 546.998 -1.22749 -1.50487 0
M  V30 5521 O 546.273 -0.314156 -1.91946 0
M  V30 5522 C 546.556 -3.55468 -0.575717 0
M  V30 5523 C 546.409 -4.44584 0.682996 0
M  V30 5524 C 547.728 -4.1768 -1.38677 0
M  V30 5525 H 544.847 -0.731198 -0.0922992 0
M  V30 5526 H 547.489 -1.84352 0.459814 0
M  V30 5527 H 545.639 -3.69914 -1.18725 0
M  V30 5528 H 547.311 -4.41981 1.32102 0
M  V30 5529 H 545.554 -4.13592 1.3086 0
M  V30 5530 H 546.225 -5.5043 0.416001 0
M  V30 5531 H 548.701 -4.0691 -0.869705 0
M  V30 5532 H 547.577 -5.25734 -1.57783 0
M  V30 5533 H 547.838 -3.72069 -2.38782 0
M  V30 5534 N 546.897 -0.0685191 -1.57451 0
M  V30 5535 C 548.137 0.605038 -1.9524 0
M  V30 5536 C 548.501 1.66974 -0.947816 0
M  V30 5537 O 549.702 2.39862 -1.21325 0
M  V30 5538 C 547.973 1.16999 -3.37707 0
M  V30 5539 S 549.532 1.85913 -3.97469 0
M  V30 5540 H 546.35 0.198203 -0.682815 0
M  V30 5541 H 548.952 -0.141594 -1.94987 0
M  V30 5542 H 547.656 0.383205 -4.08607 0
M  V30 5543 H 547.187 1.95305 -3.41496 0
M  V30 5544 H 549.202 3.14128 -3.84107 0
M  V30 5545 N 548.375 1.56261 0.205012 0
M  V30 5546 C 549.603 1.84141 0.943386 0
M  V30 5547 C 550.018 0.649772 1.77266 0
M  V30 5548 O 549.375 -0.381612 1.78466 0
M  V30 5549 C 549.426 3.10719 1.84759 0
M  V30 5550 O 549.147 4.25286 1.05181 0
M  V30 5551 C 550.648 3.51706 2.69848 0
M  V30 5552 H 547.868 0.611734 0.275721 0
M  V30 5553 H 550.412 2.03364 0.215253 0
M  V30 5554 H 548.567 2.93422 2.52947 0
M  V30 5555 H 548.981 4.97301 1.66709 0
M  V30 5556 H 550.455 4.43266 3.28967 0
M  V30 5557 H 550.932 2.7423 3.43067 0
M  V30 5558 H 551.538 3.71499 2.07047 0
M  V30 5559 N 549.853 -0.472356 1.50355 0
M  V30 5560 C 551.078 -1.25251 1.65309 0
M  V30 5561 C 551.503 -1.85081 0.335643 0
M  V30 5562 O 550.861 -1.67227 -0.700335 0
M  V30 5563 C 550.909 -2.3379 2.74544 0
M  V30 5564 O 550.013 -3.38401 2.35709 0
M  V30 5565 H 549.354 -0.368539 0.552336 0
M  V30 5566 H 551.884 -0.562271 1.96722 0
M  V30 5567 H 551.894 -2.79121 2.97583 0
M  V30 5568 H 550.569 -1.89614 3.70161 0
M  V30 5569 H 549.146 -2.9879 2.23112 0
M  V30 5570 N 551.331 -1.39911 -0.725443 0
M  V30 5571 C 552.261 -1.42138 -1.85254 0
M  V30 5572 C 553.242 -0.283513 -1.67721 0
M  V30 5573 O 554.427 -0.490717 -1.87898 0
M  V30 5574 C 551.557 -1.27354 -3.23107 0
M  V30 5575 C 550.511 -2.3864 -3.55296 0
M  V30 5576 C 549.837 -2.08939 -4.92188 0
M  V30 5577 C 551.137 -3.8097 -3.57295 0
M  V30 5578 H 552.831 -2.36461 -1.83648 0
M  V30 5579 H 550.377 -1.13817 -0.882138 0
M  V30 5580 H 552.33 -1.2753 -4.01639 0
M  V30 5581 H 551.054 -0.295025 -3.25265 0
M  V30 5582 H 549.713 -2.37696 -2.79099 0
M  V30 5583 H 549.361 -1.09502 -4.90936 0
M  V30 5584 H 549.061 -2.83491 -5.14691 0
M  V30 5585 H 550.585 -2.10781 -5.73065 0
M  V30 5586 H 551.999 -3.8379 -4.25885 0
M  V30 5587 H 550.396 -4.5496 -3.9132 0
M  V30 5588 H 551.466 -4.11261 -2.5689 0
M  V30 5589 N 552.809 0.956637 -1.25245 0
M  V30 5590 C 554.225 1.22733 -1.02023 0
M  V30 5591 C 554.425 1.99761 0.264186 0
M  V30 5592 O 553.481 2.32814 0.977436 0
M  V30 5593 C 554.794 2.00367 -2.24217 0
M  V30 5594 C 556.342 2.13418 -2.28958 0
M  V30 5595 C 556.817 2.9445 -3.50803 0
M  V30 5596 N 558.308 3.02029 -3.51187 0
M  V30 5597 C 559.043 3.65116 -4.42129 0
M  V30 5598 N 558.539 4.2983 -5.43339 0
M  V30 5599 N 560.332 3.62237 -4.29815 0
M  V30 5600 H 552.483 0.441282 -2.07765 0
M  V30 5601 H 554.746 0.257686 -0.912306 0
M  V30 5602 H 554.452 1.51165 -3.17556 0
M  V30 5603 H 554.326 3.01077 -2.27228 0
M  V30 5604 H 556.713 2.61819 -1.36143 0
M  V30 5605 H 556.794 1.1202 -2.29968 0
M  V30 5606 H 556.438 2.46741 -4.43939 0
M  V30 5607 H 556.368 3.9607 -3.47039 0
M  V30 5608 H 558.859 2.56007 -2.77973 0
M  V30 5609 H 559.172 4.75819 -6.08947 0
M  V30 5610 H 557.517 4.28465 -5.47214 0
M  V30 5611 H 560.708 3.10863 -3.49974 0
M  V30 5612 H 560.881 4.11117 -5.00886 0
M  V30 5613 N 554.287 1.06798 1.15896 0
M  V30 5614 C 555.25 0.687328 2.18651 0
M  V30 5615 C 556.25 -0.269559 1.58524 0
M  V30 5616 O 557.44 -0.0512627 1.74125 0
M  V30 5617 C 554.572 0.0121642 3.40898 0
M  V30 5618 H 555.765 1.59701 2.53842 0
M  V30 5619 H 553.318 0.863828 1.3026 0
M  V30 5620 H 554.053 -0.910025 3.1127 0
M  V30 5621 H 553.838 0.700309 3.85795 0
M  V30 5622 H 555.328 -0.239703 4.16911 0
M  V30 5623 N 555.766 -1.3263 0.851289 0
M  V30 5624 C 557.012 -1.9766 0.453694 0
M  V30 5625 C 557.345 -1.67225 -0.987396 0
M  V30 5626 O 556.62 -0.958693 -1.69232 0
M  V30 5627 C 556.903 -3.5344 0.68936 0
M  V30 5628 C 556.756 -3.93517 2.17862 0
M  V30 5629 C 558.075 -4.39866 0.143555 0
M  V30 5630 H 555.194 -0.717989 0.166314 0
M  V30 5631 H 557.836 -1.57068 1.06909 0
M  V30 5632 H 555.986 -3.88147 0.165546 0
M  V30 5633 H 557.658 -3.69006 2.76826 0
M  V30 5634 H 555.901 -3.42798 2.65841 0
M  V30 5635 H 556.572 -5.02065 2.29422 0
M  V30 5636 H 559.048 -4.11875 0.591451 0
M  V30 5637 H 557.924 -5.47858 0.338043 0
M  V30 5638 H 558.185 -4.31696 -0.953466 0
M  V30 5639 N 557.244 -0.608902 -1.45362 0
M  V30 5640 C 558.469 -0.10921 -2.07112 0
M  V30 5641 C 558.894 1.19779 -1.45033 0
M  V30 5642 O 558.252 1.72961 -0.543527 0
M  V30 5643 C 558.3 0.0155745 -3.60597 0
M  V30 5644 O 557.404 1.06546 -3.98399 0
M  V30 5645 H 556.745 -0.0746619 -0.659789 0
M  V30 5646 H 559.275 -0.839283 -1.86594 0
M  V30 5647 H 559.285 0.213364 -4.07442 0
M  V30 5648 H 557.96 -0.938765 -4.05167 0
M  V30 5649 H 556.537 0.844024 -3.63223 0
M  V30 5650 N 558.722 1.53707 -0.348139 0
M  V30 5651 C 559.67 2.26671 0.521808 0
M  V30 5652 C 560.664 1.28988 1.09811 0
M  V30 5653 O 561.87 1.4668 1.04332 0
M  V30 5654 H 558.245 0.728387 0.186968 0
M  V30 5655 H 560.216 2.98176 -0.115563 0
M  V30 5656 C 558.965 3.05591 1.6586 0
M  V30 5657 H 558.288 3.80589 1.22443 0
M  V30 5658 H 559.728 3.59851 2.24239 0
M  V30 5659 C 558.187 2.15366 2.59073 0
M  V30 5660 O 558.717 1.7528 3.61441 0
M  V30 5661 N 556.923 1.80352 2.27863 0
M  V30 5662 H 556.47 2.13149 1.44656 0
M  V30 5663 H 556.428 1.20268 2.90488 0
M  V30 5664 N 560.2 0.0768682 1.57412 0
M  V30 5665 C 561.13 -0.886026 2.16037 0
M  V30 5666 C 562.111 -1.30691 1.08876 0
M  V30 5667 O 563.296 -1.37705 1.36934 0
M  V30 5668 C 560.426 -2.1518 2.72608 0
M  V30 5669 C 559.38 -1.87015 3.8498 0
M  V30 5670 C 558.706 -3.20266 4.28175 0
M  V30 5671 C 560.006 -1.17143 5.08994 0
M  V30 5672 H 561.7 -0.397642 2.96748 0
M  V30 5673 H 559.246 -0.189823 1.42743 0
M  V30 5674 H 561.199 -2.82962 3.12266 0
M  V30 5675 H 559.923 -2.66269 1.89125 0
M  V30 5676 H 558.582 -1.21636 3.45833 0
M  V30 5677 H 558.23 -3.69207 3.41607 0
M  V30 5678 H 557.93 -3.0221 5.03927 0
M  V30 5679 H 559.454 -3.89237 4.70454 0
M  V30 5680 H 560.868 -1.75003 5.45937 0
M  V30 5681 H 559.265 -1.09328 5.90057 0
M  V30 5682 H 560.335 -0.151295 4.84664 0
M  V30 5683 N 561.678 -1.56367 -0.196722 0
M  V30 5684 C 562.608 -1.97442 -1.24655 0
M  V30 5685 C 563.589 -0.846147 -1.47561 0
M  V30 5686 O 564.774 -1.11035 -1.59326 0
M  V30 5687 C 561.904 -2.31253 -2.59112 0
M  V30 5688 C 560.858 -3.46804 -2.50821 0
M  V30 5689 C 560.184 -3.66286 -3.89536 0
M  V30 5690 C 561.484 -4.8104 -2.03465 0
M  V30 5691 H 563.178 -2.85388 -0.905216 0
M  V30 5692 H 560.724 -1.37304 -0.434002 0
M  V30 5693 H 562.677 -2.58583 -3.32736 0
M  V30 5694 H 561.401 -1.40188 -2.94983 0
M  V30 5695 H 560.06 -3.19563 -1.79653 0
M  V30 5696 H 559.708 -2.72555 -4.22756 0
M  V30 5697 H 559.408 -4.4402 -3.84864 0
M  V30 5698 H 560.932 -3.9599 -4.64784 0
M  V30 5699 H 562.346 -5.07411 -2.66846 0
M  V30 5700 H 560.743 -5.62232 -2.09798 0
M  V30 5701 H 561.813 -4.74732 -0.98781 0
M  V30 5702 N 563.156 0.464375 -1.50603 0
M  V30 5703 C 564.381 1.24372 -1.65971 0
M  V30 5704 C 564.806 1.84901 -0.345453 0
M  V30 5705 O 564.164 1.67596 0.691457 0
M  V30 5706 C 564.212 2.32331 -2.7578 0
M  V30 5707 O 563.316 3.37146 -2.375 0
M  V30 5708 H 562.657 0.365604 -0.554283 0
M  V30 5709 H 565.187 0.55183 -1.97018 0
M  V30 5710 H 565.197 2.77539 -2.99059 0
M  V30 5711 H 563.872 1.87648 -3.71162 0
M  V30 5712 H 562.449 2.97602 -2.24694 0
M  V30 5713 N 564.634 1.40294 0.718013 0
M  V30 5714 C 565.862 1.4175 1.50714 0
M  V30 5715 C 566.277 0.0165366 1.88793 0
M  V30 5716 O 565.634 -0.958942 1.55276 0
M  V30 5717 C 565.685 2.30598 2.784 0
M  V30 5718 O 565.406 3.6524 2.41932 0
M  V30 5719 C 566.907 2.4062 3.72313 0
M  V30 5720 H 564.127 0.483565 0.465194 0
M  V30 5721 H 566.671 1.84316 0.885889 0
M  V30 5722 H 564.826 1.91401 3.36815 0
M  V30 5723 H 565.24 4.12402 3.24076 0
M  V30 5724 H 566.714 3.07001 4.58753 0
M  V30 5725 H 567.191 1.4305 4.15251 0
M  V30 5726 H 567.797 2.80359 3.19811 0
M  V30 5727 N 566.112 -0.949982 1.2575 0
M  V30 5728 C 567.044 -2.05088 1.02331 0
M  V30 5729 C 568.057 -1.62795 -0.0133247 0
M  V30 5730 O 569.246 -1.77067 0.225759 0
M  V30 5731 C 566.346 -3.34794 0.525924 0
M  V30 5732 C 565.519 -4.05903 1.62978 0
M  V30 5733 C 564.578 -5.1388 1.13196 0
M  V30 5734 O 563.604 -5.39072 1.82729 0
M  V30 5735 N 564.806 -5.80495 -0.0242926 0
M  V30 5736 H 567.571 -2.25747 1.97125 0
M  V30 5737 H 565.132 -1.11886 1.17018 0
M  V30 5738 H 567.124 -4.04312 0.177263 0
M  V30 5739 H 565.694 -3.10872 -0.328202 0
M  V30 5740 H 564.914 -3.3042 2.1498 0
M  V30 5741 H 566.202 -4.50166 2.37124 0
M  V30 5742 H 565.6 -5.62454 -0.605184 0
M  V30 5743 H 564.157 -6.51043 -0.313947 0
M  V30 5744 N 567.59 -1.07411 -1.15328 0
M  V30 5745 C 568.52 -0.716472 -2.22236 0
M  V30 5746 C 569.501 0.296373 -1.67498 0
M  V30 5747 O 570.686 0.168989 -1.93463 0
M  V30 5748 C 567.816 -0.114142 -3.47112 0
M  V30 5749 C 566.77 -1.05421 -4.14814 0
M  V30 5750 C 566.096 -0.314604 -5.33774 0
M  V30 5751 C 567.396 -2.38808 -4.64508 0
M  V30 5752 H 569.09 -1.61029 -2.52408 0
M  V30 5753 H 566.636 -0.775702 -1.21321 0
M  V30 5754 H 568.589 0.148001 -4.2114 0
M  V30 5755 H 567.313 0.814755 -3.16274 0
M  V30 5756 H 565.972 -1.30128 -3.42728 0
M  V30 5757 H 565.62 0.617772 -4.99192 0
M  V30 5758 H 565.32 -0.941209 -5.80013 0
M  V30 5759 H 566.844 -0.0602747 -6.1057 0
M  V30 5760 H 568.258 -2.18424 -5.3006 0
M  V30 5761 H 566.655 -2.97069 -5.21412 0
M  V30 5762 H 567.725 -3.01067 -3.80114 0
M  V30 5763 N 569.068 1.32177 -0.85831 0
M  V30 5764 C 570.296 2.01313 -0.477582 0
M  V30 5765 C 570.711 1.6449 0.926736 0
M  V30 5766 O 570.068 0.868096 1.60531 0
M  V30 5767 C 570.119 3.56293 -0.611337 0
M  V30 5768 O 569.84 3.91794 -1.96034 0
M  V30 5769 C 571.341 4.42702 -0.230093 0
M  V30 5770 H 568.561 0.644323 -0.187322 0
M  V30 5771 H 571.105 1.68674 -1.15626 0
M  V30 5772 H 569.26 3.87395 0.0196494 0
M  V30 5773 H 569.674 4.86513 -1.95973 0
M  V30 5774 H 571.148 5.50727 -0.374674 0
M  V30 5775 H 571.625 4.3129 0.829779 0
M  V30 5776 H 572.231 4.16997 -0.836302 0
M  V30 5777 N 570.547 0.616602 1.45037 0
M  V30 5778 C 571.794 0.115331 2.02171 0
M  V30 5779 C 572.122 -1.25748 1.48383 0
M  V30 5780 O 571.377 -1.84511 0.652229 0
M  V30 5781 C 571.676 0.0356829 3.57382 0
M  V30 5782 C 571.342 1.34535 4.30362 0
M  V30 5783 C 570.004 1.70408 4.50016 0
M  V30 5784 C 572.356 2.21049 4.72003 0
M  V30 5785 C 569.684 2.92529 5.0857 0
M  V30 5786 C 572.036 3.42427 5.31908 0
M  V30 5787 C 570.7 3.78541 5.49784 0
M  V30 5788 H 569.97 0.0422024 0.739797 0
M  V30 5789 H 572.617 0.80002 1.73988 0
M  V30 5790 H 570.922 -0.732314 3.84895 0
M  V30 5791 H 572.619 -0.368463 3.99304 0
M  V30 5792 H 569.209 1.05615 4.15383 0
M  V30 5793 H 573.393 1.94632 4.56544 0
M  V30 5794 H 568.649 3.20605 5.20598 0
M  V30 5795 H 572.823 4.09709 5.63127 0
M  V30 5796 H 570.45 4.73255 5.94923 0
M  V30 5797 N 572.025 -1.5352 0.356285 0
M  V30 5798 C 572.957 -2.23009 -0.529127 0
M  V30 5799 C 573.97 -1.241 -1.05371 0
M  V30 5800 O 575.159 -1.50379 -0.961679 0
M  V30 5801 C 572.259 -2.90685 -1.74229 0
M  V30 5802 C 571.432 -4.16019 -1.35081 0
M  V30 5803 C 570.491 -4.66989 -2.42502 0
M  V30 5804 O 569.517 -5.30895 -2.05279 0
M  V30 5805 N 570.719 -4.44006 -3.7395 0
M  V30 5806 H 573.484 -2.99627 0.0660501 0
M  V30 5807 H 571.045 -1.60885 0.181014 0
M  V30 5808 H 573.037 -3.21695 -2.4555 0
M  V30 5809 H 571.607 -2.17575 -2.24454 0
M  V30 5810 H 570.827 -3.91414 -0.467833 0
M  V30 5811 H 572.115 -4.9752 -1.06542 0
M  V30 5812 H 571.513 -3.92924 -4.06973 0
M  V30 5813 H 570.07 -4.7959 -4.41403 0
M  V30 5814 N 573.503 -0.0852151 -1.57369 0
M  V30 5815 C 574.466 0.8627 -2.12344 0
M  V30 5816 C 575.466 1.21746 -1.05046 0
M  V30 5817 O 576.656 1.14852 -1.30976 0
M  V30 5818 C 573.788 2.1618 -2.63589 0
M  V30 5819 H 574.981 0.385511 -2.97412 0
M  V30 5820 H 572.534 0.163663 -1.55441 0
M  V30 5821 H 573.269 2.68406 -1.82013 0
M  V30 5822 H 573.054 1.91723 -3.4203 0
M  V30 5823 H 574.544 2.84011 -3.06149 0
M  V30 5824 N 574.981 1.5647 0.188427 0
M  V30 5825 C 576.23 1.80207 0.905995 0
M  V30 5826 C 576.543 0.659579 1.84144 0
M  V30 5827 O 577.749 0.781431 2.60011 0
M  V30 5828 C 576.205 3.19255 1.66145 0
M  V30 5829 C 575.813 4.41324 0.770504 0
M  V30 5830 C 577.557 3.52298 2.36826 0
M  V30 5831 C 575.464 5.71394 1.52521 0
M  V30 5832 H 574.394 0.671953 0.342045 0
M  V30 5833 H 577.045 1.82808 0.159164 0
M  V30 5834 H 575.427 3.10922 2.45242 0
M  V30 5835 H 576.601 4.60797 0.0177261 0
M  V30 5836 H 574.916 4.16035 0.174199 0
M  V30 5837 H 577.513 4.46715 2.93854 0
M  V30 5838 H 577.856 2.76359 3.11338 0
M  V30 5839 H 578.389 3.62108 1.6469 0
M  V30 5840 H 575.128 6.50316 0.82275 0
M  V30 5841 H 574.648 5.55928 2.25175 0
M  V30 5842 H 576.327 6.12747 2.07725 0
M  V30 5843 N 576.459 -0.456382 1.50847 0
M  V30 5844 C 577.409 -1.55045 1.67168 0
M  V30 5845 C 578.393 -1.52061 0.525958 0
M  V30 5846 O 579.585 -1.58836 0.781036 0
M  V30 5847 C 576.714 -2.93386 1.78268 0
M  V30 5848 C 575.8 -3.01198 2.98564 0
M  V30 5849 N 576.191 -2.78792 4.22029 0
M  V30 5850 C 574.489 -3.32346 2.97426 0
M  V30 5851 C 575.19 -2.91953 5.03128 0
M  V30 5852 N 574.166 -3.22797 4.37382 0
M  V30 5853 H 577.968 -1.36444 2.60308 0
M  V30 5854 H 575.482 -0.663375 1.48233 0
M  V30 5855 H 577.479 -3.72071 1.88067 0
M  V30 5856 H 576.139 -3.13022 0.862965 0
M  V30 5857 H 577.15 -2.54087 4.51287 0
M  V30 5858 H 573.827 -3.57877 2.15012 0
M  V30 5859 H 575.217 -2.78745 6.11351 0
M  V30 5860 N 577.937 -1.40673 -0.710563 0
M  V30 5861 C 578.884 -1.41336 -1.82463 0
M  V30 5862 C 579.854 -0.269648 -1.63897 0
M  V30 5863 O 581.039 -0.468463 -1.8496 0
M  V30 5864 C 578.179 -1.28665 -3.20218 0
M  V30 5865 C 577.292 -2.52784 -3.5032 0
M  V30 5866 C 576.427 -2.32517 -4.77608 0
M  V30 5867 C 575.466 -3.52187 -5.0063 0
M  V30 5868 N 574.603 -3.31084 -6.19135 0
M  V30 5869 H 579.443 -2.36558 -1.8123 0
M  V30 5870 H 576.98 -1.17483 -0.885226 0
M  V30 5871 H 578.938 -1.19324 -3.99772 0
M  V30 5872 H 577.568 -0.370602 -3.20666 0
M  V30 5873 H 576.62 -2.72634 -2.65283 0
M  V30 5874 H 577.932 -3.41845 -3.63241 0
M  V30 5875 H 577.086 -2.20558 -5.65189 0
M  V30 5876 H 575.825 -1.40889 -4.66906 0
M  V30 5877 H 574.83 -3.64617 -4.11502 0
M  V30 5878 H 576.055 -4.44749 -5.13201 0
M  V30 5879 H 574.001 -2.42143 -6.09674 0
M  V30 5880 H 573.918 -4.13713 -6.32754 0
M  V30 5881 H 575.186 -3.22868 -7.0949 0
M  V30 5882 N 579.415 0.9433 -1.26252 0
M  V30 5883 C 580.826 1.50404 -1.10614 0
M  V30 5884 C 581.177 1.93666 0.31429 0
M  V30 5885 O 580.302 1.79709 1.20555 0
M  V30 5886 C 580.897 2.73336 -2.00182 0
M  V30 5887 C 579.456 3.25686 -1.88695 0
M  V30 5888 C 578.603 1.98474 -1.93658 0
M  V30 5889 H 581.554 0.759006 -1.39373 0
M  V30 5890 H 581.575 3.47567 -1.54847 0
M  V30 5891 H 581.087 2.41818 -3.03555 0
M  V30 5892 H 579.188 3.61998 -0.882489 0
M  V30 5893 H 579.301 3.92935 -2.74115 0
M  V30 5894 H 577.665 2.14278 -1.37684 0
M  V30 5895 H 578.448 1.6929 -2.98657 0
M  V30 5896 N 580.893 1.08022 1.14757 0
M  V30 5897 C 582.309 0.807072 1.3769 0
M  V30 5898 C 582.509 -0.585504 1.92806 0
M  V30 5899 O 581.565 -1.34301 2.13821 0
M  V30 5900 C 582.878 1.88651 2.34161 0
M  V30 5901 C 584.426 1.91206 2.47809 0
M  V30 5902 C 584.901 2.98253 3.47576 0
M  V30 5903 N 586.392 2.974 3.55117 0
M  V30 5904 C 587.127 3.76872 4.32152 0
M  V30 5905 N 586.623 4.66212 5.12463 0
M  V30 5906 N 588.416 3.6519 4.27309 0
M  V30 5907 H 580.567 1.97824 0.77326 0
M  V30 5908 H 582.83 0.85826 0.402608 0
M  V30 5909 H 582.536 2.88749 2.00791 0
M  V30 5910 H 582.41 1.75244 3.3402 0
M  V30 5911 H 584.797 0.917564 2.80472 0
M  V30 5912 H 584.878 2.08691 1.47925 0
M  V30 5913 H 584.522 3.97907 3.15646 0
M  V30 5914 H 584.452 2.78014 4.47231 0
M  V30 5915 H 586.943 2.32643 2.97801 0
M  V30 5916 H 587.256 5.23468 5.68508 0
M  V30 5917 H 585.601 4.70257 5.11745 0
M  V30 5918 H 588.792 2.94765 3.63636 0
M  V30 5919 H 588.965 4.27366 4.87095 0
M  V30 5920 N 582.371 -1.3172 0.865308 0
M  V30 5921 C 583.617 -1.97168 0.474633 0
M  V30 5922 C 583.95 -1.68263 -0.969604 0
M  V30 5923 O 583.225 -0.976588 -1.68205 0
M  V30 5924 C 583.508 -3.52689 0.726808 0
M  V30 5925 C 583.361 -3.91185 2.22024 0
M  V30 5926 C 584.68 -4.39689 0.190201 0
M  V30 5927 H 581.799 -0.716185 0.17392 0
M  V30 5928 H 584.441 -1.55925 1.08569 0
M  V30 5929 H 582.591 -3.8795 0.206705 0
M  V30 5930 H 584.263 -3.66049 2.80724 0
M  V30 5931 H 582.506 -3.3996 2.69462 0
M  V30 5932 H 583.177 -4.99604 2.34735 0
M  V30 5933 H 585.653 -4.11225 0.635103 0
M  V30 5934 H 584.529 -5.47469 0.396132 0
M  V30 5935 H 584.79 -4.32683 -0.907625 0
M  V30 5936 N 583.85 -0.624285 -1.44708 0
M  V30 5937 C 584.798 0.0969952 -2.32398 0
M  V30 5938 C 585.792 0.842762 -1.46949 0
M  V30 5939 O 586.998 0.756436 -1.63334 0
M  V30 5940 H 583.373 0.0501306 -0.750327 0
M  V30 5941 H 585.344 -0.660767 -2.90992 0
M  V30 5942 C 584.093 1.06967 -3.30837 0
M  V30 5943 H 583.416 0.505242 -3.96595 0
M  V30 5944 H 584.856 1.54397 -3.94889 0
M  V30 5945 C 583.315 2.15153 -2.5925 0
M  V30 5946 O 583.845 3.23139 -2.3863 0
M  V30 5947 N 582.051 1.90898 -2.19103 0
M  V30 5948 H 581.598 1.03086 -2.36074 0
M  V30 5949 H 581.556 2.63485 -1.71531 0
M  V30 5950 N 585.328 1.53329 -0.364422 0
M  V30 5951 C 586.739 1.86345 0.115039 0
M  V30 5952 C 587.09 1.28505 1.4826 0
M  V30 5953 O 586.215 0.606639 2.07723 0
M  V30 5954 C 586.81 3.38114 0.215522 0
M  V30 5955 C 585.369 3.70932 0.639237 0
M  V30 5956 C 584.516 2.76471 -0.214261 0
M  V30 5957 H 587.467 1.47593 -0.583258 0
M  V30 5958 H 587.488 3.66031 1.0393 0
M  V30 5959 H 587 3.80182 -0.779948 0
M  V30 5960 H 585.101 3.3442 1.64298 0
M  V30 5961 H 585.214 4.77302 0.41465 0
M  V30 5962 H 583.578 2.52724 0.316678 0
M  V30 5963 H 584.361 3.21373 -1.20725 0
M  V30 5964 N 586.806 0.0935595 1.57322 0
M  V30 5965 C 588.052 -0.571355 1.94585 0
M  V30 5966 C 588.385 -1.67929 0.975366 0
M  V30 5967 O 587.66 -1.94498 0.00816206 0
M  V30 5968 C 587.943 -1.12797 3.41978 0
M  V30 5969 C 587.796 -0.0251881 4.49793 0
M  V30 5970 C 589.115 -2.02682 3.90651 0
M  V30 5971 H 586.234 -0.206223 0.70756 0
M  V30 5972 H 588.876 0.163956 1.89291 0
M  V30 5973 H 587.026 -1.75461 3.4662 0
M  V30 5974 H 588.698 0.608979 4.57263 0
M  V30 5975 H 586.941 0.641399 4.29032 0
M  V30 5976 H 587.612 -0.455433 5.50118 0
M  V30 5977 H 590.088 -1.49925 3.88152 0
M  V30 5978 H 588.964 -2.38555 4.94351 0
M  V30 5979 H 589.225 -2.94362 3.29854 0
M  V30 5980 N 588.284 -1.56567 -0.180126 0
M  V30 5981 C 589.512 -1.85618 -0.913972 0
M  V30 5982 C 589.927 -0.677892 -1.7621 0
M  V30 5983 O 589.284 0.353171 -1.7905 0
M  V30 5984 C 589.335 -3.13619 -1.79793 0
M  V30 5985 O 589.056 -4.26906 -0.98402 0
M  V30 5986 C 590.557 -3.55954 -2.64219 0
M  V30 5987 H 587.777 -0.616043 -0.265954 0
M  V30 5988 H 590.321 -2.03681 -0.182872 0
M  V30 5989 H 588.476 -2.97409 -2.48247 0
M  V30 5990 H 588.89 -4.9989 -1.58776 0
M  V30 5991 H 590.364 -4.48444 -3.21873 0
M  V30 5992 H 590.841 -2.79653 -3.38661 0
M  V30 5993 H 591.447 -3.74746 -2.01111 0
M  V30 5994 N 589.762 0.448376 -1.51087 0
M  V30 5995 C 590.987 1.22605 -1.6728 0
M  V30 5996 C 591.412 1.84524 -0.365045 0
M  V30 5997 O 590.77 1.6832 0.673642 0
M  V30 5998 C 590.818 2.29393 -2.78229 0
M  V30 5999 O 589.922 3.34608 -2.41063 0
M  V30 6000 H 589.263 0.359705 -0.558129 0
M  V30 6001 H 591.793 0.530903 -1.97592 0
M  V30 6002 H 591.803 2.74352 -3.01986 0
M  V30 6003 H 590.478 1.83701 -3.73131 0
M  V30 6004 H 589.055 2.95202 -2.27838 0
M  V30 6005 N 591.24 1.41047 0.703093 0
M  V30 6006 C 592.17 1.45067 1.82969 0
M  V30 6007 C 593.151 0.31016 1.67248 0
M  V30 6008 O 594.336 0.520548 1.87093 0
M  V30 6009 C 591.466 1.32478 3.2104 0
M  V30 6010 C 590.42 2.44262 3.51454 0
M  V30 6011 C 589.746 2.16742 4.88801 0
M  V30 6012 C 591.046 3.86606 3.51189 0
M  V30 6013 H 592.74 2.39353 1.79863 0
M  V30 6014 H 590.286 1.15206 0.863919 0
M  V30 6015 H 592.239 1.33904 3.99559 0
M  V30 6016 H 590.963 0.346735 3.24754 0
M  V30 6017 H 589.622 2.42107 2.75282 0
M  V30 6018 H 589.27 1.17299 4.89132 0
M  V30 6019 H 588.97 2.91643 5.10116 0
M  V30 6020 H 590.494 2.19872 5.69639 0
M  V30 6021 H 591.908 3.90517 4.19725 0
M  V30 6022 H 590.305 4.61128 3.84033 0
M  V30 6023 H 591.375 4.15296 2.50315 0
M  V30 6024 N 592.718 -0.936591 1.26751 0
M  V30 6025 C 593.943 -1.72288 1.15462 0
M  V30 6026 C 594.368 -1.85915 -0.285887 0
M  V30 6027 O 593.726 -1.35272 -1.20711 0
M  V30 6028 C 593.774 -3.10503 1.83359 0
M  V30 6029 O 592.878 -3.96745 1.1255 0
M  V30 6030 H 592.219 -0.52843 0.402067 0
M  V30 6031 H 594.749 -1.17271 1.67656 0
M  V30 6032 H 594.759 -3.60867 1.90365 0
M  V30 6033 H 593.434 -2.99901 2.88153 0
M  V30 6034 H 592.011 -3.55191 1.13551 0
M  V30 6035 N 594.196 -1.08629 -1.14182 0
M  V30 6036 C 595.106 -0.730126 -2.22949 0
M  V30 6037 C 596.122 0.26436 -1.7198 0
M  V30 6038 O 597.298 0.107742 -2.01112 0
M  V30 6039 C 594.363 -0.147227 -3.46387 0
M  V30 6040 C 593.424 -1.19662 -4.12286 0
M  V30 6041 C 592.657 -0.641437 -5.29831 0
M  V30 6042 O 592.88 0.538351 -5.67854 0
M  V30 6043 O 591.814 -1.39257 -5.85569 0
M  V30 6044 H 595.64 -1.63753 -2.55771 0
M  V30 6045 H 593.225 -0.860118 -1.22157 0
M  V30 6046 H 595.107 0.174923 -4.21037 0
M  V30 6047 H 593.782 0.733304 -3.15285 0
M  V30 6048 H 592.689 -1.57133 -3.395 0
M  V30 6049 H 594.022 -2.0495 -4.475 0
M  V30 6050 N 595.674 1.31259 -0.872281 0
M  V30 6051 C 596.622 2.30404 -0.318897 0
M  V30 6052 C 597.616 1.5962 0.567267 0
M  V30 6053 O 598.822 1.74204 0.453111 0
M  V30 6054 H 595.197 0.747243 -0.0844474 0
M  V30 6055 H 597.168 2.74549 -1.16899 0
M  V30 6056 C 595.917 3.44608 0.462683 0
M  V30 6057 H 595.24 3.99248 -0.209936 0
M  V30 6058 H 596.68 4.1609 0.815187 0
M  V30 6059 C 595.139 2.93456 1.65485 0
M  V30 6060 O 595.669 2.92418 2.75417 0
M  V30 6061 N 593.875 2.49628 1.48776 0
M  V30 6062 H 593.422 2.50671 0.593452 0
M  V30 6063 H 593.38 2.15759 2.28682 0
M  V30 6064 N 597.152 0.631951 1.44375 0
M  V30 6065 C 598.382 0.143658 2.061 0
M  V30 6066 C 598.79 -1.18733 1.47306 0
M  V30 6067 O 598.133 -1.73943 0.590724 0
M  V30 6068 C 598.195 -0.0446102 3.59472 0
M  V30 6069 C 597.859 1.20835 4.40736 0
M  V30 6070 C 598.856 2.13224 4.74164 0
M  V30 6071 C 596.541 1.44399 4.81097 0
M  V30 6072 C 598.535 3.27487 5.46838 0
M  V30 6073 C 596.222 2.58959 5.53519 0
M  V30 6074 C 597.22 3.50329 5.86309 0
M  V30 6075 O 596.908 4.62891 6.57257 0
M  V30 6076 H 596.64 0.0772939 0.671567 0
M  V30 6077 H 599.194 0.866677 1.8622 0
M  V30 6078 H 597.424 -0.822783 3.77845 0
M  V30 6079 H 599.113 -0.487561 4.02961 0
M  V30 6080 H 599.879 1.96253 4.4352 0
M  V30 6081 H 595.758 0.741696 4.54994 0
M  V30 6082 H 599.302 3.98826 5.72349 0
M  V30 6083 H 595.199 2.75873 5.83579 0
M  V30 6084 H 595.967 4.61883 6.75726 0
M  V30 6085 N 598.631 -1.53133 0.372548 0
M  V30 6086 C 599.859 -2.05774 -0.215515 0
M  V30 6087 C 600.274 -1.24555 -1.41886 0
M  V30 6088 O 599.631 -0.287951 -1.80214 0
M  V30 6089 C 599.682 -3.5645 -0.602161 0
M  V30 6090 O 599.403 -4.34591 0.553359 0
M  V30 6091 C 600.904 -4.25374 -1.24787 0
M  V30 6092 H 598.124 -0.670009 -0.0364529 0
M  V30 6093 H 600.668 -1.97434 0.532934 0
M  V30 6094 H 598.823 -3.64918 -1.30052 0
M  V30 6095 H 599.237 -5.23954 0.239336 0
M  V30 6096 H 600.711 -5.32097 -1.46891 0
M  V30 6097 H 601.188 -3.79531 -2.21026 0
M  V30 6098 H 601.794 -4.21177 -0.590752 0
M  V30 6099 N 600.109 -0.101901 -1.5727 0
M  V30 6100 C 601.349 0.563489 -1.96479 0
M  V30 6101 C 601.713 1.64926 -0.983021 0
M  V30 6102 O 602.914 2.37234 -1.26386 0
M  V30 6103 C 601.185 1.09809 -3.40113 0
M  V30 6104 S 602.744 1.7744 -4.01323 0
M  V30 6105 H 599.562 0.183675 -0.686866 0
M  V30 6106 H 602.164 -0.182922 -1.94642 0
M  V30 6107 H 600.868 0.296447 -4.09328 0
M  V30 6108 H 600.399 1.88018 -3.45562 0
M  V30 6109 H 602.414 3.0591 -3.90683 0
M  V30 6110 N 601.587 1.56661 0.17182 0
M  V30 6111 C 602.812 1.86459 0.908165 0
M  V30 6112 C 603.237 0.688181 1.75059 0
M  V30 6113 O 602.595 -0.362753 1.77634 0
M  V30 6114 C 602.643 3.14669 1.76112 0
M  V30 6115 O 601.747 2.96858 2.86268 0
M  V30 6116 H 601.088 0.613318 0.254434 0
M  V30 6117 H 603.618 2.03892 0.170113 0
M  V30 6118 H 603.628 3.46061 2.16115 0
M  V30 6119 H 602.303 3.99905 1.14233 0
M  V30 6120 H 600.88 2.76819 2.49852 0
M  V30 6121 N 603.065 -0.440357 1.51323 0
M  V30 6122 C 604.342 -1.20109 1.5438 0
M  V30 6123 C 604.722 -2.08866 0.306303 0
M  V30 6124 O 604.07 -2.1723 -0.708773 0
M  V30 6125 C 604.28 -2.00555 2.8562 0
M  V30 6126 C 605.628 -2.577 3.37455 0
M  V30 6127 O 606.652 -2.10769 2.8715 0
M  V30 6128 O 605.511 -3.43289 4.25224 0
M  V30 6129 H 602.605 -0.546668 0.620551 0
M  V30 6130 H 605.151 -0.449672 1.63634 0
M  V30 6131 H 603.923 -1.35346 3.67147 0
M  V30 6132 H 603.546 -2.82768 2.79514 0
M  V30 6133 N 604.543 -1.41418 -0.695603 0
M  V30 6134 C 605.768 -1.44329 -1.48942 0
M  V30 6135 C 606.193 -0.0501579 -1.88033 0
M  V30 6136 O 605.551 0.946598 -1.54626 0
M  V30 6137 C 605.599 -2.3578 -2.72837 0
M  V30 6138 O 604.703 -1.81482 -3.70322 0
M  V30 6139 H 604.044 -0.489838 -0.44828 0
M  V30 6140 H 606.574 -1.85878 -0.855014 0
M  V30 6141 H 606.584 -2.51654 -3.21145 0
M  V30 6142 H 605.259 -3.37005 -2.43722 0
M  V30 6143 H 603.836 -1.75058 -3.29255 0
M  V30 6144 N 606.021 0.929856 -1.27246 0
M  V30 6145 C 606.931 2.0636 -1.11592 0
M  V30 6146 C 607.947 1.73938 -0.046496 0
M  V30 6147 O 609.123 1.9981 -0.252544 0
M  V30 6148 C 606.188 3.38213 -0.762437 0
M  V30 6149 C 605.249 3.84346 -1.9125 0
M  V30 6150 C 604.482 5.09906 -1.57579 0
M  V30 6151 O 604.705 5.68354 -0.482694 0
M  V30 6152 O 603.639 5.51359 -2.41426 0
M  V30 6153 H 607.465 2.22478 -2.0673 0
M  V30 6154 H 605.05 1.04865 -1.06413 0
M  V30 6155 H 606.932 4.1741 -0.57854 0
M  V30 6156 H 605.607 3.23307 0.159439 0
M  V30 6157 H 604.514 3.06045 -2.15144 0
M  V30 6158 H 605.847 4.0379 -2.81451 0
M  V30 6159 N 607.499 1.09233 1.13605 0
M  V30 6160 C 608.409 0.741939 2.22559 0
M  V30 6161 C 609.425 -0.255236 1.72118 0
M  V30 6162 O 610.601 -0.0970747 2.01166 0
M  V30 6163 C 607.666 0.165595 3.46304 0
M  V30 6164 C 606.727 1.21846 4.11645 0
M  V30 6165 C 605.96 0.669526 5.29484 0
M  V30 6166 O 606.183 -0.508228 5.68131 0
M  V30 6167 O 605.117 1.42361 5.84822 0
M  V30 6168 H 608.943 1.65107 2.54899 0
M  V30 6169 H 606.528 0.866584 1.21699 0
M  V30 6170 H 608.41 -0.152592 4.21124 0
M  V30 6171 H 607.085 -0.716573 3.15669 0
M  V30 6172 H 605.992 1.58931 3.38662 0
M  V30 6173 H 607.325 2.07321 4.46407 0
M  V30 6174 N 608.977 -1.30795 0.87923 0
M  V30 6175 C 610.202 -2.01063 0.508769 0
M  V30 6176 C 610.627 -1.65508 -0.893803 0
M  V30 6177 O 609.985 -0.868616 -1.59138 0
M  V30 6178 C 610.033 -3.54054 0.683991 0
M  V30 6179 O 609.137 -4.11498 -0.272654 0
M  V30 6180 H 608.478 -0.632786 0.201191 0
M  V30 6181 H 611.008 -1.66776 1.18519 0
M  V30 6182 H 611.018 -4.03845 0.580798 0
M  V30 6183 H 609.693 -3.79271 1.70665 0
M  V30 6184 H 608.27 -3.72695 -0.12364 0
M  V30 6185 N 610.455 -0.639598 -1.44038 0
M  V30 6186 C 611.68 -0.153117 -2.06834 0
M  V30 6187 C 612.105 1.16676 -1.47541 0
M  V30 6188 O 611.463 1.71769 -0.580093 0
M  V30 6189 C 611.511 -0.0609169 -3.60549 0
M  V30 6190 O 610.615 0.98071 -4.00569 0
M  V30 6191 H 609.956 -0.0886402 -0.658057 0
M  V30 6192 H 612.486 -0.878674 -1.84771 0
M  V30 6193 H 612.496 0.126892 -4.07803 0
M  V30 6194 H 611.171 -1.0245 -4.03084 0
M  V30 6195 H 609.748 0.766789 -3.64931 0
M  V30 6196 N 611.933 1.52934 -0.380664 0
M  V30 6197 C 612.843 2.29921 0.466192 0
M  V30 6198 C 613.859 1.36488 1.07922 0
M  V30 6199 O 615.035 1.69553 1.0869 0
M  V30 6200 C 612.1 3.08468 1.58266 0
M  V30 6201 C 611.161 4.17595 0.995627 0
M  V30 6202 C 610.394 4.92387 2.05889 0
M  V30 6203 O 610.617 4.67184 3.27254 0
M  V30 6204 O 609.551 5.77949 1.68102 0
M  V30 6205 H 613.377 3.03274 -0.160735 0
M  V30 6206 H 610.962 1.48698 -0.144617 0
M  V30 6207 H 612.844 3.57469 2.23145 0
M  V30 6208 H 611.519 2.37937 2.19471 0
M  V30 6209 H 610.426 3.72811 0.310332 0
M  V30 6210 H 611.759 4.90336 0.427918 0
M  V30 6211 N 613.412 0.11024 1.57214 0
M  V30 6212 C 614.359 -0.843195 2.14846 0
M  V30 6213 C 615.329 -1.26954 1.07107 0
M  V30 6214 O 616.514 -1.34861 1.34971 0
M  V30 6215 C 613.654 -2.09123 2.74521 0
M  V30 6216 C 612.767 -1.71404 3.96541 0
M  V30 6217 C 611.902 -2.91107 4.44331 0
M  V30 6218 C 610.941 -2.49586 5.58903 0
M  V30 6219 N 610.078 -3.62175 6.01477 0
M  V30 6220 H 614.918 -0.344886 2.95998 0
M  V30 6221 H 612.455 -0.15855 1.46243 0
M  V30 6222 H 614.413 -2.82234 3.07246 0
M  V30 6223 H 613.043 -2.56427 1.96074 0
M  V30 6224 H 612.095 -0.88201 3.70033 0
M  V30 6225 H 613.407 -1.36884 4.7965 0
M  V30 6226 H 612.561 -3.72454 4.78919 0
M  V30 6227 H 611.3 -3.28848 3.60153 0
M  V30 6228 H 610.305 -1.6667 5.23929 0
M  V30 6229 H 611.53 -2.12973 6.4484 0
M  V30 6230 H 609.476 -3.99605 5.20242 0
M  V30 6231 H 609.393 -3.3155 6.79419 0
M  V30 6232 H 610.661 -4.43987 6.407 0
M  V30 6233 N 614.89 -1.56749 -0.16351 0
M  V30 6234 C 616.167 -1.73321 -0.906599 0
M  V30 6235 C 616.547 -0.673779 -2.00059 0
M  V30 6236 O 615.895 0.310121 -2.26386 0
M  V30 6237 C 616.105 -3.168 -1.46419 0
M  V30 6238 C 617.453 -3.77993 -1.93407 0
M  V30 6239 O 618.477 -3.20127 -1.56196 0
M  V30 6240 O 617.336 -4.79615 -2.61976 0
M  V30 6241 H 614.43 -0.708073 -0.427272 0
M  V30 6242 H 616.976 -1.69029 -0.150727 0
M  V30 6243 H 615.748 -3.85396 -0.677189 0
M  V30 6244 H 615.371 -3.2545 -2.28403 0
M  V30 6245 N 616.368 0.432326 -1.51554 0
M  V30 6246 C 617.315 1.52512 -1.7323 0
M  V30 6247 C 618.285 1.55863 -0.5741 0
M  V30 6248 O 619.47 1.72796 -0.809093 0
M  V30 6249 C 616.61 2.90183 -1.86783 0
M  V30 6250 C 615.723 2.96322 -3.14352 0
M  V30 6251 C 614.858 4.25147 -3.18471 0
M  V30 6252 C 613.897 4.25172 -4.40335 0
M  V30 6253 N 613.034 5.45529 -4.41975 0
M  V30 6254 H 617.874 1.33332 -2.66508 0
M  V30 6255 H 615.411 0.647613 -1.32077 0
M  V30 6256 H 617.369 3.70071 -1.92623 0
M  V30 6257 H 615.999 3.0791 -0.969087 0
M  V30 6258 H 615.051 2.09066 -3.17798 0
M  V30 6259 H 616.363 2.92203 -4.04251 0
M  V30 6260 H 615.517 5.13411 -3.23255 0
M  V30 6261 H 614.256 4.31929 -2.2647 0
M  V30 6262 H 613.261 3.353 -4.35723 0
M  V30 6263 H 614.486 4.20049 -5.33606 0
M  V30 6264 H 612.432 5.53024 -3.52847 0
M  V30 6265 H 612.349 5.43311 -5.25689 0
M  V30 6266 H 613.617 6.35812 -4.50958 0
M  V30 6267 N 617.846 1.41785 0.688094 0
M  V30 6268 C 618.776 1.47 1.8142 0
M  V30 6269 C 619.757 0.327881 1.6691 0
M  V30 6270 O 620.942 0.540362 1.86531 0
M  V30 6271 C 618.072 1.35876 3.19617 0
M  V30 6272 C 617.026 2.47976 3.48844 0
M  V30 6273 C 616.352 2.21915 4.86475 0
M  V30 6274 C 617.652 3.90309 3.47068 0
M  V30 6275 H 619.346 2.41247 1.77314 0
M  V30 6276 H 616.892 1.16116 0.851651 0
M  V30 6277 H 618.845 1.38134 3.98117 0
M  V30 6278 H 617.569 0.38116 3.24368 0
M  V30 6279 H 616.228 2.45013 2.72698 0
M  V30 6280 H 615.876 1.2248 4.8786 0
M  V30 6281 H 615.576 2.97037 5.06994 0
M  V30 6282 H 617.1 2.25901 5.67275 0
M  V30 6283 H 618.514 3.94947 4.1556 0
M  V30 6284 H 616.911 4.65175 3.7912 0
M  V30 6285 H 617.981 4.17927 2.45896 0
M  V30 6286 N 619.324 -0.923095 1.27737 0
M  V30 6287 C 620.287 -2.00587 1.10894 0
M  V30 6288 C 621.287 -1.60718 0.0514927 0
M  V30 6289 O 622.477 -1.71658 0.296481 0
M  V30 6290 C 619.609 -3.33829 0.690717 0
M  V30 6291 H 620.802 -2.16959 2.07048 0
M  V30 6292 H 618.355 -1.10451 1.1059 0
M  V30 6293 H 619.09 -3.23157 -0.272 0
M  V30 6294 H 618.875 -3.64125 1.45448 0
M  V30 6295 H 620.365 -4.13336 0.595252 0
M  V30 6296 N 620.802 -1.09834 -1.13024 0
M  V30 6297 C 622.051 -0.831806 -1.83749 0
M  V30 6298 C 622.364 0.644763 -1.84668 0
M  V30 6299 O 623.57 1.02697 -2.51327 0
M  V30 6300 C 622.026 -1.43817 -3.29916 0
M  V30 6301 C 621.634 -2.94759 -3.37374 0
M  V30 6302 C 623.378 -1.25077 -4.05655 0
M  V30 6303 C 621.285 -3.48461 -4.77838 0
M  V30 6304 H 620.215 -0.30751 -0.688443 0
M  V30 6305 H 622.866 -1.32156 -1.27307 0
M  V30 6306 H 621.248 -0.876106 -3.86187 0
M  V30 6307 H 622.422 -3.57228 -2.91076 0
M  V30 6308 H 620.737 -3.12581 -2.75103 0
M  V30 6309 H 623.334 -1.62649 -5.09362 0
M  V30 6310 H 623.677 -0.191782 -4.15858 0
M  V30 6311 H 624.21 -1.78057 -3.55725 0
M  V30 6312 H 620.949 -4.53998 -4.72828 0
M  V30 6313 H 620.469 -2.90757 -5.24615 0
M  V30 6314 H 622.148 -3.45914 -5.46766 0
M  V30 6315 N 622.28 1.30327 -0.886154 0
M  V30 6316 C 623.691 1.78243 -0.555554 0
M  V30 6317 C 624.042 1.72849 0.928314 0
M  V30 6318 O 623.167 1.30607 1.72542 0
M  V30 6319 C 623.762 3.23654 -1.00168 0
M  V30 6320 C 622.321 3.69401 -0.722471 0
M  V30 6321 C 621.468 2.50753 -1.18399 0
M  V30 6322 H 624.419 1.1718 -1.07026 0
M  V30 6323 H 624.44 3.79056 -0.331152 0
M  V30 6324 H 623.952 3.27548 -2.08169 0
M  V30 6325 H 622.053 3.70995 0.345496 0
M  V30 6326 H 622.166 4.60818 -1.31085 0
M  V30 6327 H 620.53 2.47452 -0.603303 0
M  V30 6328 H 621.313 2.57383 -2.27176 0
M  V30 6329 N 623.758 0.647228 1.43697 0
M  V30 6330 C 624.705 -0.0480092 2.3075 0
M  V30 6331 C 625.675 -0.820705 1.44408 0
M  V30 6332 O 626.86 -0.798515 1.73287 0
M  V30 6333 C 624 -1.01259 3.2991 0
M  V30 6334 C 623.113 -0.236629 4.31351 0
M  V30 6335 C 622.248 -1.19447 5.17596 0
M  V30 6336 C 621.287 -0.408595 6.10735 0
M  V30 6337 N 620.424 -1.31772 6.89623 0
M  V30 6338 H 625.264 0.700238 2.89656 0
M  V30 6339 H 622.801 0.357082 1.427 0
M  V30 6340 H 624.759 -1.58538 3.85903 0
M  V30 6341 H 623.389 -1.72778 2.72667 0
M  V30 6342 H 622.441 0.452353 3.77701 0
M  V30 6343 H 623.753 0.374731 4.9739 0
M  V30 6344 H 622.907 -1.83809 5.78186 0
M  V30 6345 H 621.646 -1.83975 4.51669 0
M  V30 6346 H 620.651 0.24841 5.49239 0
M  V30 6347 H 621.876 0.232188 6.78703 0
M  V30 6348 H 619.822 -1.94991 6.2635 0
M  V30 6349 H 619.739 -0.760779 7.52162 0
M  V30 6350 H 621.007 -1.94967 7.54724 0
M  V30 6351 N 625.236 -1.5273 0.388769 0
M  V30 6352 C 626.652 -1.59553 0.0387049 0
M  V30 6353 C 626.852 -1.40278 -1.44652 0
M  V30 6354 O 625.908 -1.21951 -2.21098 0
M  V30 6355 C 627.221 -2.9625 0.515409 0
M  V30 6356 C 628.769 -3.09426 0.471621 0
M  V30 6357 C 629.244 -4.48572 0.924505 0
M  V30 6358 N 630.735 -4.54754 0.880496 0
M  V30 6359 C 631.47 -5.60653 1.20234 0
M  V30 6360 N 630.966 -6.74198 1.59463 0
M  V30 6361 N 632.759 -5.50755 1.12363 0
M  V30 6362 H 624.91 -1.63508 1.35569 0
M  V30 6363 H 627.173 -0.768097 0.555636 0
M  V30 6364 H 626.879 -3.15569 1.5527 0
M  V30 6365 H 626.753 -3.77102 -0.085792 0
M  V30 6366 H 629.14 -2.89804 -0.556588 0
M  V30 6367 H 629.221 -2.30528 1.10862 0
M  V30 6368 H 628.865 -4.68936 1.95094 0
M  V30 6369 H 628.795 -5.25935 0.264524 0
M  V30 6370 H 631.286 -3.73237 0.591815 0
M  V30 6371 H 631.599 -7.5097 1.82385 0
M  V30 6372 H 629.944 -6.75531 1.63349 0
M  V30 6373 H 633.135 -4.6093 0.816169 0
M  V30 6374 H 633.308 -6.33184 1.37777 0
M  V30 6375 N 626.714 -0.118576 -1.57153 0
M  V30 6376 C 627.644 0.828436 -2.1831 0
M  V30 6377 C 628.625 1.27758 -1.12303 0
M  V30 6378 O 629.81 1.34026 -1.40537 0
M  V30 6379 C 626.94 2.07876 -2.78217 0
M  V30 6380 C 625.894 1.76742 -3.89803 0
M  V30 6381 C 625.22 3.08801 -4.36516 0
M  V30 6382 C 626.52 1.03606 -5.11921 0
M  V30 6383 H 628.214 0.318824 -2.97698 0
M  V30 6384 H 625.76 0.151911 -1.43196 0
M  V30 6385 H 627.713 2.74584 -3.19659 0
M  V30 6386 H 626.437 2.61161 -1.96118 0
M  V30 6387 H 625.096 1.12424 -3.48936 0
M  V30 6388 H 624.744 3.6002 -3.51276 0
M  V30 6389 H 624.444 2.88743 -5.11763 0
M  V30 6390 H 625.968 3.76627 -4.80608 0
M  V30 6391 H 627.382 1.60467 -5.50385 0
M  V30 6392 H 625.779 0.936454 -5.92748 0
M  V30 6393 H 626.849 0.0227421 -4.84895 0
M  V30 6394 N 628.193 1.56834 0.155195 0
M  V30 6395 C 629.609 1.51315 0.50755 0
M  V30 6396 C 629.809 0.825614 1.83809 0
M  V30 6397 O 628.865 0.39271 2.49427 0
M  V30 6398 C 630.178 2.96074 0.52542 0
M  V30 6399 C 631.726 3.06968 0.611505 0
M  V30 6400 C 632.201 4.53218 0.660115 0
M  V30 6401 N 633.692 4.5753 0.722564 0
M  V30 6402 C 634.427 5.68056 0.781023 0
M  V30 6403 N 633.923 6.88173 0.799327 0
M  V30 6404 N 635.716 5.56068 0.821278 0
M  V30 6405 H 627.867 1.9993 -0.717063 0
M  V30 6406 H 630.13 0.911507 -0.260496 0
M  V30 6407 H 629.836 3.49599 -0.383875 0
M  V30 6408 H 629.71 3.51587 1.36624 0
M  V30 6409 H 632.097 2.53468 1.51122 0
M  V30 6410 H 632.178 2.54513 -0.256306 0
M  V30 6411 H 631.822 5.07354 -0.23541 0
M  V30 6412 H 631.752 5.03447 1.5443 0
M  V30 6413 H 634.243 3.71054 0.716049 0
M  V30 6414 H 634.556 7.6816 0.845553 0
M  V30 6415 H 632.901 6.90751 0.767337 0
M  V30 6416 H 636.092 4.61142 0.804091 0
M  V30 6417 H 636.265 6.42223 0.863372 0
M  V30 6418 N 629.671 -0.424282 1.51781 0
M  V30 6419 C 631.087 -0.761768 1.40247 0
M  V30 6420 C 631.287 -1.95324 0.495041 0
M  V30 6421 O 630.343 -2.5246 -0.0448949 0
M  V30 6422 C 631.656 -1.0299 2.82513 0
M  V30 6423 C 633.204 -1.13354 2.91753 0
M  V30 6424 C 633.679 -1.43453 4.34954 0
M  V30 6425 N 635.17 -1.5035 4.3812 0
M  V30 6426 C 635.905 -1.75236 5.45967 0
M  V30 6427 N 635.401 -1.97827 6.63955 0
M  V30 6428 N 637.194 -1.77126 5.33463 0
M  V30 6429 H 629.345 0.360228 2.09323 0
M  V30 6430 H 631.608 0.0988128 0.942836 0
M  V30 6431 H 631.314 -0.226961 3.50967 0
M  V30 6432 H 631.188 -1.95411 3.22637 0
M  V30 6433 H 633.575 -1.92709 2.23489 0
M  V30 6434 H 633.656 -0.188041 2.55108 0
M  V30 6435 H 633.3 -0.646209 5.03772 0
M  V30 6436 H 633.23 -2.3923 4.69123 0
M  V30 6437 H 635.721 -1.34742 3.53062 0
M  V30 6438 H 636.034 -2.16223 7.41935 0
M  V30 6439 H 634.379 -1.95123 6.67047 0
M  V30 6440 H 637.57 -1.59005 4.40267 0
M  V30 6441 H 637.743 -1.96182 6.17589 0
M  V30 6442 N 631.149 -1.42148 -0.680565 0
M  V30 6443 C 632.374 -1.45901 -1.47403 0
M  V30 6444 C 632.799 -0.0700985 -1.87969 0
M  V30 6445 O 632.157 0.930145 -1.55621 0
M  V30 6446 C 632.205 -2.38661 -2.70321 0
M  V30 6447 O 631.309 -1.85399 -3.68376 0
M  V30 6448 H 630.65 -0.494565 -0.443059 0
M  V30 6449 H 633.18 -1.86774 -0.835251 0
M  V30 6450 H 633.19 -2.55046 -3.18458 0
M  V30 6451 H 631.865 -3.39571 -2.40134 0
M  V30 6452 H 630.442 -1.78541 -3.2738 0
M  V30 6453 N 632.627 0.916307 -1.28225 0
M  V30 6454 C 633.557 2.0352 -1.14464 0
M  V30 6455 C 634.538 1.70045 -0.0430844 0
M  V30 6456 O 635.723 1.92954 -0.219619 0
M  V30 6457 C 632.853 3.37889 -0.803027 0
M  V30 6458 C 631.807 3.85516 -1.85908 0
M  V30 6459 C 631.133 5.1682 -1.37116 0
M  V30 6460 C 632.433 4.07655 -3.26519 0
M  V30 6461 H 634.127 2.1529 -2.08064 0
M  V30 6462 H 631.673 1.03446 -1.00174 0
M  V30 6463 H 633.626 4.15654 -0.693537 0
M  V30 6464 H 632.35 3.26164 0.168674 0
M  V30 6465 H 631.009 3.09953 -1.95767 0
M  V30 6466 H 630.657 5.01497 -0.38859 0
M  V30 6467 H 630.357 5.49657 -2.07728 0
M  V30 6468 H 631.881 5.97143 -1.27484 0
M  V30 6469 H 633.295 4.75953 -3.19596 0
M  V30 6470 H 631.692 4.51818 -3.94943 0
M  V30 6471 H 632.762 3.12553 -3.70727 0
M  V30 6472 N 634.105 1.10431 1.1244 0
M  V30 6473 C 635.516 0.864439 1.65482 0
M  V30 6474 C 635.867 -0.60527 1.8663 0
M  V30 6475 O 634.992 -1.46492 1.59276 0
M  V30 6476 C 635.587 1.56267 3.0061 0
M  V30 6477 C 634.146 1.3695 3.50602 0
M  V30 6478 C 633.293 1.61209 2.25626 0
M  V30 6479 H 636.244 1.26203 0.962209 0
M  V30 6480 H 636.265 1.00166 3.67079 0
M  V30 6481 H 635.777 2.63231 2.85186 0
M  V30 6482 H 633.878 0.321481 3.71211 0
M  V30 6483 H 633.991 2.11143 4.30064 0
M  V30 6484 H 632.355 1.03482 2.32731 0
M  V30 6485 H 633.138 2.69425 2.12756 0
M  V30 6486 N 635.583 -1.29855 0.893053 0
M  V30 6487 C 636.994 -1.77946 0.564998 0
M  V30 6488 C 637.345 -1.73339 -0.919134 0
M  V30 6489 O 636.47 -1.3152 -1.71847 0
M  V30 6490 C 637.065 -3.23118 1.01883 0
M  V30 6491 C 635.624 -3.69013 0.742051 0
M  V30 6492 C 634.771 -2.50121 1.19727 0
M  V30 6493 H 637.722 -1.16611 1.07646 0
M  V30 6494 H 637.743 -3.78875 0.351249 0
M  V30 6495 H 637.255 -3.26439 2.09903 0
M  V30 6496 H 635.356 -3.71173 -0.325816 0
M  V30 6497 H 635.469 -4.60117 1.33527 0
M  V30 6498 H 633.833 -2.47128 0.616418 0
M  V30 6499 H 634.616 -2.56174 2.28538 0
M  V30 6500 N 637.061 -0.65484 -1.43351 0
M  V30 6501 C 638.309 -0.168559 -2.01396 0
M  V30 6502 C 638.63 1.22235 -1.51933 0
M  V30 6503 O 637.9 1.81685 -0.732627 0
M  V30 6504 H 636.48 -0.0593244 -0.744641 0
M  V30 6505 H 639.142 -0.846871 -1.75539 0
M  V30 6506 H 638.238 -0.154428 -3.11718 0
M  V30 6507 N 638.539 1.52521 -0.396863 0
M  V30 6508 C 639.469 2.29582 0.425941 0
M  V30 6509 C 640.45 1.33281 1.05689 0
M  V30 6510 O 641.635 1.62181 1.06823 0
M  V30 6511 C 638.765 3.10821 1.54943 0
M  V30 6512 C 637.719 4.15069 1.04413 0
M  V30 6513 C 637.045 4.84578 2.26028 0
M  V30 6514 C 638.345 5.22191 0.106767 0
M  V30 6515 H 640.039 2.98612 -0.217045 0
M  V30 6516 H 637.585 1.43611 -0.105826 0
M  V30 6517 H 639.538 3.63492 2.13193 0
M  V30 6518 H 638.262 2.39538 2.22011 0
M  V30 6519 H 636.921 3.63389 0.484118 0
M  V30 6520 H 636.569 4.09835 2.91623 0
M  V30 6521 H 636.269 5.55043 1.92876 0
M  V30 6522 H 637.793 5.40056 2.84906 0
M  V30 6523 H 639.207 5.70176 0.597685 0
M  V30 6524 H 637.604 5.99947 -0.135352 0
M  V30 6525 H 638.674 4.77531 -0.842134 0
M  V30 6526 N 640.017 0.126909 1.57088 0
M  V30 6527 C 640.947 -0.816847 2.18746 0
M  V30 6528 C 641.928 -1.27161 1.12979 0
M  V30 6529 O 643.113 -1.33279 1.41246 0
M  V30 6530 C 640.243 -2.06398 2.79315 0
M  V30 6531 C 639.197 -1.74673 3.90735 0
M  V30 6532 C 638.523 -3.06482 4.38147 0
M  V30 6533 C 639.823 -1.0089 5.12463 0
M  V30 6534 H 641.517 -0.303032 2.97863 0
M  V30 6535 H 639.063 -0.144314 1.43275 0
M  V30 6536 H 641.016 -2.72885 3.2111 0
M  V30 6537 H 639.74 -2.60118 1.975 0
M  V30 6538 H 638.399 -1.10572 3.49527 0
M  V30 6539 H 638.047 -3.58152 3.5318 0
M  V30 6540 H 637.747 -2.86025 5.13287 0
M  V30 6541 H 639.271 -3.74073 4.82599 0
M  V30 6542 H 640.685 -1.57546 5.51228 0
M  V30 6543 H 639.082 -0.905006 5.93237 0
M  V30 6544 H 640.152 0.00297335 4.849 0
M  V30 6545 N 641.495 -1.56914 -0.146875 0
M  V30 6546 C 642.911 -1.51582 -0.499518 0
M  V30 6547 C 643.111 -0.83535 -1.83369 0
M  V30 6548 O 642.167 -0.405932 -2.49216 0
M  V30 6549 C 643.48 -2.96349 -0.509711 0
M  V30 6550 C 645.028 -3.07288 -0.595217 0
M  V30 6551 C 645.503 -4.53562 -0.636071 0
M  V30 6552 N 646.994 -4.57906 -0.69829 0
M  V30 6553 C 647.729 -5.68462 -0.750886 0
M  V30 6554 N 647.225 -6.88588 -0.76282 0
M  V30 6555 N 649.018 -5.56496 -0.791777 0
M  V30 6556 H 641.169 -1.99547 0.727656 0
M  V30 6557 H 643.432 -0.910113 0.265327 0
M  V30 6558 H 643.138 -3.4939 0.402409 0
M  V30 6559 H 643.012 -3.52307 -1.34758 0
M  V30 6560 H 645.399 -2.54266 -1.49776 0
M  V30 6561 H 645.48 -2.54373 0.2698 0
M  V30 6562 H 645.124 -5.07222 0.262313 0
M  V30 6563 H 645.054 -5.04259 -1.51758 0
M  V30 6564 H 647.545 -3.71429 -0.696362 0
M  V30 6565 H 647.858 -7.68598 -0.804804 0
M  V30 6566 H 646.203 -6.91148 -0.730694 0
M  V30 6567 H 649.394 -4.61562 -0.779624 0
M  V30 6568 H 649.567 -6.42671 -0.829301 0
M  V30 6569 N 642.974 0.416227 -1.52004 0
M  V30 6570 C 644.39 0.754319 -1.40649 0
M  V30 6571 C 644.59 1.95059 -0.505392 0
M  V30 6572 O 643.646 2.5248 0.0315057 0
M  V30 6573 C 644.959 1.0149 -2.83055 0
M  V30 6574 C 646.507 1.11805 -2.9235 0
M  V30 6575 C 646.982 1.41144 -4.35709 0
M  V30 6576 N 648.473 1.48024 -4.38911 0
M  V30 6577 C 649.208 1.72338 -5.46889 0
M  V30 6578 N 648.704 1.94303 -6.64995 0
M  V30 6579 N 650.497 1.74294 -5.34395 0
M  V30 6580 H 642.648 -0.371324 -2.09129 0
M  V30 6581 H 644.911 -0.103811 -0.942299 0
M  V30 6582 H 644.617 0.208345 -3.51082 0
M  V30 6583 H 644.491 1.93697 -3.23668 0
M  V30 6584 H 646.878 1.91521 -2.24508 0
M  V30 6585 H 646.959 0.17451 -2.55204 0
M  V30 6586 H 646.603 0.619484 -5.04108 0
M  V30 6587 H 646.533 2.36739 -4.70385 0
M  V30 6588 H 649.024 1.32868 -3.53772 0
M  V30 6589 H 649.337 2.12286 -7.43071 0
M  V30 6590 H 647.682 1.91582 -6.68073 0
M  V30 6591 H 650.873 1.56667 -4.41104 0
M  V30 6592 H 651.046 1.92904 -6.18621 0
M  V30 6593 N 644.452 1.42507 0.673017 0
M  V30 6594 C 645.698 1.43284 1.43519 0
M  V30 6595 C 646.031 0.049668 1.94136 0
M  V30 6596 O 645.306 -0.926369 1.71022 0
M  V30 6597 C 645.589 2.45874 2.63093 0
M  V30 6598 C 645.442 3.93388 2.18096 0
M  V30 6599 C 646.761 2.45431 3.6531 0
M  V30 6600 H 643.88 0.521752 0.520522 0
M  V30 6601 H 646.522 1.73932 0.764701 0
M  V30 6602 H 644.672 2.19869 3.20296 0
M  V30 6603 H 646.344 4.30379 1.66046 0
M  V30 6604 H 644.587 4.07169 1.49652 0
M  V30 6605 H 645.258 4.60752 3.03993 0
M  V30 6606 H 647.734 2.68561 3.17827 0
M  V30 6607 H 646.61 3.19189 4.46553 0
M  V30 6608 H 646.871 1.48092 4.16559 0
M  V30 6609 N 645.93 -0.909495 1.28709 0
M  V30 6610 C 647.155 -1.69801 1.1909 0
M  V30 6611 C 647.58 -1.86479 -0.246388 0
M  V30 6612 O 646.938 -1.37802 -1.17815 0
M  V30 6613 C 646.986 -3.06543 1.89904 0
M  V30 6614 O 646.09 -3.94268 1.2094 0
M  V30 6615 H 645.431 -0.519783 0.413185 0
M  V30 6616 H 647.961 -1.13689 1.70106 0
M  V30 6617 H 647.971 -3.56748 1.97977 0
M  V30 6618 H 646.646 -2.93722 2.94449 0
M  V30 6619 H 645.223 -3.52702 1.2106 0
M  V30 6620 N 647.408 -1.11026 -1.11852 0
M  V30 6621 C 648.633 -0.879064 -1.87849 0
M  V30 6622 C 649.058 0.565406 -1.79401 0
M  V30 6623 O 648.416 1.39886 -1.15333 0
M  V30 6624 C 648.464 -1.33985 -3.34784 0
M  V30 6625 O 647.568 -0.508803 -4.09249 0
M  V30 6626 H 646.909 -0.316992 -0.583448 0
M  V30 6627 H 649.439 -1.47863 -1.41413 0
M  V30 6628 H 649.449 -1.33248 -3.85628 0
M  V30 6629 H 648.124 -2.39172 -3.40249 0
M  V30 6630 H 646.701 -0.581913 -3.68332 0
M  V30 6631 N 648.886 1.2938 -0.899927 0
M  V30 6632 C 650.114 1.99691 -0.541386 0
M  V30 6633 C 650.529 1.67355 0.873936 0
M  V30 6634 O 649.886 0.918728 1.57688 0
M  V30 6635 C 649.937 3.54168 -0.72438 0
M  V30 6636 O 649.658 3.85359 -2.08399 0
M  V30 6637 C 651.159 4.41746 -0.370819 0
M  V30 6638 H 648.379 0.638037 -0.207726 0
M  V30 6639 H 650.923 1.6491 -1.20934 0
M  V30 6640 H 649.078 3.87261 -0.103607 0
M  V30 6641 H 649.492 4.80032 -2.11352 0
M  V30 6642 H 650.966 5.49256 -0.549693 0
M  V30 6643 H 651.443 4.33712 0.692148 0
M  V30 6644 H 652.049 4.14125 -0.968543 0
M  V30 6645 N 650.364 0.662433 1.43002 0
M  V30 6646 C 651.61 0.188492 2.02525 0
M  V30 6647 C 651.965 -1.18752 1.51379 0
M  V30 6648 O 651.258 -1.78313 0.701065 0
M  V30 6649 C 651.452 0.149363 3.57088 0
M  V30 6650 C 651.281 1.52004 4.23231 0
M  V30 6651 C 650.051 2.11473 4.5892 0
M  V30 6652 C 652.249 2.46028 4.51635 0
M  V30 6653 N 650.231 3.4145 5.10181 0
M  V30 6654 C 651.602 3.60647 5.04315 0
M  V30 6655 C 653.657 2.44715 4.33612 0
M  V30 6656 C 652.36 4.74189 5.40867 0
M  V30 6657 C 654.386 3.57344 4.71232 0
M  V30 6658 C 653.748 4.70689 5.24053 0
M  V30 6659 H 649.847 0.113615 0.773703 0
M  V30 6660 H 652.431 0.872738 1.74044 0
M  V30 6661 H 650.602 -0.504255 3.85113 0
M  V30 6662 H 652.334 -0.336307 4.033 0
M  V30 6663 H 649.089 1.64087 4.44266 0
M  V30 6664 H 649.513 4.07987 5.40255 0
M  V30 6665 H 654.155 1.58318 3.9204 0
M  V30 6666 H 651.873 5.61271 5.81378 0
M  V30 6667 H 655.459 3.5754 4.58973 0
M  V30 6668 H 654.339 5.56398 5.52621 0
M  V30 6669 N 651.842 -1.52309 0.404946 0
M  V30 6670 C 653.07 -2.06185 -0.171818 0
M  V30 6671 C 653.485 -1.27536 -1.39212 0
M  V30 6672 O 652.842 -0.326112 -1.79563 0
M  V30 6673 C 652.893 -3.57647 -0.526417 0
M  V30 6674 O 652.614 -4.3332 0.645417 0
M  V30 6675 C 654.115 -4.27925 -1.15736 0
M  V30 6676 H 651.335 -0.670632 -0.0222328 0
M  V30 6677 H 653.879 -1.96259 0.574692 0
M  V30 6678 H 652.034 -3.67595 -1.22282 0
M  V30 6679 H 652.448 -5.23328 0.35042 0
M  V30 6680 H 653.922 -5.35093 -1.35572 0
M  V30 6681 H 654.399 -3.84134 -2.12926 0
M  V30 6682 H 655.005 -4.22335 -0.501281 0
M  V30 6683 N 653.32 -0.135238 -1.57019 0
M  V30 6684 C 654.548 0.526066 -2.001 0
M  V30 6685 C 654.963 1.59184 -1.01519 0
M  V30 6686 O 654.32 1.82497 -0.0104258 0
M  V30 6687 C 654.371 1.13744 -3.43139 0
M  V30 6688 O 654.092 0.114259 -4.37951 0
M  V30 6689 C 655.593 1.8805 -4.01438 0
M  V30 6690 H 652.813 0.137962 -0.656664 0
M  V30 6691 H 655.357 -0.226359 -2.03243 0
M  V30 6692 H 653.512 1.84056 -3.40885 0
M  V30 6693 H 653.926 0.56058 -5.21496 0
M  V30 6694 H 655.4 2.26133 -5.03555 0
M  V30 6695 H 655.877 2.76194 -3.41487 0
M  V30 6696 H 656.483 1.22464 -4.07287 0
M  V30 6697 N 654.798 1.5699 0.138552 0
M  V30 6698 C 656.026 1.87976 0.864437 0
M  V30 6699 C 656.441 0.724372 1.74351 0
M  V30 6700 O 655.798 -0.305575 1.79924 0
M  V30 6701 C 655.849 3.18276 1.71414 0
M  V30 6702 O 655.57 4.29365 0.870487 0
M  V30 6703 C 657.071 3.62834 2.54688 0
M  V30 6704 H 654.291 0.622878 0.249528 0
M  V30 6705 H 656.835 2.04094 0.128805 0
M  V30 6706 H 654.99 3.03886 2.40274 0
M  V30 6707 H 655.404 5.03924 1.45466 0
M  V30 6708 H 656.878 4.5682 3.0987 0
M  V30 6709 H 657.355 2.88533 3.31127 0
M  V30 6710 H 657.961 3.79946 1.91105 0
M  V30 6711 N 656.276 -0.40816 1.52223 0
M  V30 6712 C 657.504 -1.17672 1.70179 0
M  V30 6713 C 657.919 -1.84257 0.411696 0
M  V30 6714 O 657.276 -1.7192 -0.612354 0
M  V30 6715 C 657.327 -2.23911 2.83806 0
M  V30 6716 O 657.048 -1.60044 4.0782 0
M  V30 6717 C 658.549 -3.1364 3.13281 0
M  V30 6718 H 655.769 -0.353562 0.570293 0
M  V30 6719 H 658.313 -0.480083 1.98785 0
M  V30 6720 H 656.468 -2.89242 2.57717 0
M  V30 6721 H 656.882 -2.30484 4.71145 0
M  V30 6722 H 658.356 -3.84255 3.96298 0
M  V30 6723 H 658.833 -3.76066 2.26872 0
M  V30 6724 H 659.439 -2.53977 3.41139 0
M  V30 6725 N 657.755 -1.42862 -0.66545 0
M  V30 6726 C 658.98 -1.47456 -1.45848 0
M  V30 6727 C 659.405 -0.0900312 -1.87884 0
M  V30 6728 O 658.763 0.913587 -1.56599 0
M  V30 6729 C 658.811 -2.41514 -2.67774 0
M  V30 6730 O 657.915 -1.89296 -3.66389 0
M  V30 6731 H 657.256 -0.499236 -0.437789 0
M  V30 6732 H 659.786 -1.8765 -0.815394 0
M  V30 6733 H 659.796 -2.58409 -3.15735 0
M  V30 6734 H 658.471 -3.42099 -2.36519 0
M  V30 6735 H 657.048 -1.82003 -3.25468 0
M  V30 6736 N 659.233 0.902656 -1.29189 0
M  V30 6737 C 660.196 1.98797 -1.14071 0
M  V30 6738 C 661.196 1.60615 -0.0770549 0
M  V30 6739 O 662.386 1.71165 -0.323753 0
M  V30 6740 C 659.518 3.32688 -0.743739 0
M  V30 6741 H 660.711 2.13637 -2.10473 0
M  V30 6742 H 658.264 1.08678 -1.12334 0
M  V30 6743 H 658.999 3.23549 0.220554 0
M  V30 6744 H 658.784 3.61765 -1.51223 0
M  V30 6745 H 660.274 4.12337 -0.660935 0
M  V30 6746 N 660.711 1.11618 1.11262 0
M  V30 6747 C 661.939 0.888739 1.8684 0
M  V30 6748 C 662.354 -0.561558 1.80255 0
M  V30 6749 O 661.711 -1.38782 1.18515 0
M  V30 6750 C 661.762 1.34422 3.35579 0
M  V30 6751 O 661.483 2.73766 3.42029 0
M  V30 6752 C 662.984 1.15246 4.28058 0
M  V30 6753 H 660.204 0.318152 0.590779 0
M  V30 6754 H 662.748 1.48398 1.40707 0
M  V30 6755 H 660.903 0.79239 3.7921 0
M  V30 6756 H 661.317 2.9355 4.34659 0
M  V30 6757 H 662.791 1.52015 5.30656 0
M  V30 6758 H 663.268 0.0922007 4.39103 0
M  V30 6759 H 663.874 1.69136 3.90222 0
M  V30 6760 N 662.189 -1.289 0.906776 0
M  V30 6761 C 663.437 -1.94883 0.535266 0
M  V30 6762 C 663.758 -1.71784 -0.922791 0
M  V30 6763 O 663.028 -1.05359 -1.65156 0
M  V30 6764 H 661.608 -0.721109 0.194962 0
M  V30 6765 H 664.27 -1.57018 1.15461 0
M  V30 6766 H 663.366 -3.03591 0.723821 0
M  V30 6767 N 663.667 -0.670007 -1.42649 0
M  V30 6768 C 664.597 -0.00258501 -2.335 0
M  V30 6769 C 665.578 0.794364 -1.50412 0
M  V30 6770 O 666.763 0.75248 -1.79029 0
M  V30 6771 C 663.893 0.952748 -3.33976 0
M  V30 6772 C 662.847 0.264733 -4.2718 0
M  V30 6773 C 662.173 1.33267 -5.17826 0
M  V30 6774 C 663.473 -0.853289 -5.15283 0
M  V30 6775 H 665.167 -0.761326 -2.89559 0
M  V30 6776 H 662.713 -0.367561 -1.3923 0
M  V30 6777 H 664.666 1.4287 -3.96442 0
M  V30 6778 H 663.39 1.74285 -2.7621 0
M  V30 6779 H 662.049 -0.190938 -3.66102 0
M  V30 6780 H 661.697 2.11464 -4.5639 0
M  V30 6781 H 661.397 0.877476 -5.81011 0
M  V30 6782 H 662.921 1.80965 -5.83167 0
M  V30 6783 H 664.335 -0.458763 -5.71462 0
M  V30 6784 H 662.732 -1.23398 -5.87276 0
M  V30 6785 H 663.802 -1.70412 -4.53969 0
M  V30 6786 N 665.145 1.52092 -0.413018 0
M  V30 6787 C 666.556 1.86617 0.0556967 0
M  V30 6788 C 666.907 1.33156 1.44097 0
M  V30 6789 O 666.032 0.672417 2.05688 0
M  V30 6790 C 666.627 3.38628 0.107844 0
M  V30 6791 C 665.186 3.72778 0.520904 0
M  V30 6792 C 664.333 2.75649 -0.302109 0
M  V30 6793 H 667.284 1.45663 -0.629919 0
M  V30 6794 H 667.305 3.69152 0.922324 0
M  V30 6795 H 666.817 3.77508 -0.900506 0
M  V30 6796 H 664.918 3.39478 1.53575 0
M  V30 6797 H 665.031 4.7838 0.262591 0
M  V30 6798 H 663.395 2.53603 0.236115 0
M  V30 6799 H 664.178 3.17369 -1.30888 0
M  V30 6800 N 666.623 0.143563 1.56945 0
M  V30 6801 C 667.851 -0.515447 2.00377 0
M  V30 6802 C 668.266 -1.58643 1.02361 0
M  V30 6803 O 667.623 -1.82489 0.0201039 0
M  V30 6804 C 667.674 -1.11923 3.43737 0
M  V30 6805 O 667.395 -0.0910318 4.38005 0
M  V30 6806 C 668.896 -1.85918 4.02429 0
M  V30 6807 H 666.116 -0.134478 0.657386 0
M  V30 6808 H 668.66 0.237135 2.0312 0
M  V30 6809 H 666.815 -1.82245 3.41856 0
M  V30 6810 H 667.229 -0.532916 5.21786 0
M  V30 6811 H 668.703 -2.2346 5.04747 0
M  V30 6812 H 669.18 -2.7438 3.42947 0
M  V30 6813 H 669.786 -1.20303 4.07931 0
M  V30 6814 N 668.101 -1.57061 -0.130224 0
M  V30 6815 C 669.031 -2.02552 -1.16168 0
M  V30 6816 C 670.012 -0.907971 -1.4384 0
M  V30 6817 O 671.197 -1.17693 -1.54473 0
M  V30 6818 C 668.327 -2.42035 -2.49071 0
M  V30 6819 C 667.281 -3.5713 -2.35886 0
M  V30 6820 C 666.607 -3.82478 -3.7365 0
M  V30 6821 C 667.907 -4.89236 -1.8288 0
M  V30 6822 H 669.601 -2.8897 -0.783359 0
M  V30 6823 H 667.147 -1.39021 -0.375376 0
M  V30 6824 H 669.1 -2.72462 -3.21469 0
M  V30 6825 H 667.824 -1.52573 -2.88771 0
M  V30 6826 H 666.483 -3.26895 -1.65938 0
M  V30 6827 H 666.131 -2.9024 -4.10816 0
M  V30 6828 H 665.831 -4.59944 -3.65685 0
M  V30 6829 H 667.355 -4.15347 -4.47571 0
M  V30 6830 H 668.769 -5.18272 -2.45085 0
M  V30 6831 H 667.166 -5.70624 -1.85763 0
M  V30 6832 H 668.236 -4.78494 -0.785571 0
M  V30 6833 N 669.579 0.400081 -1.52437 0
M  V30 6834 C 670.489 1.51253 -1.79331 0
M  V30 6835 C 671.505 1.60188 -0.679396 0
M  V30 6836 O 672.681 1.76733 -0.965791 0
M  V30 6837 C 669.746 2.869 -1.94652 0
M  V30 6838 C 668.807 2.87777 -3.18564 0
M  V30 6839 C 668.04 4.16954 -3.33145 0
M  V30 6840 O 668.263 5.11329 -2.52783 0
M  V30 6841 O 667.197 4.2487 -4.26343 0
M  V30 6842 H 671.023 1.31461 -2.73773 0
M  V30 6843 H 668.608 0.586834 -1.37392 0
M  V30 6844 H 670.49 3.67336 -2.065 0
M  V30 6845 H 669.165 3.06741 -1.034 0
M  V30 6846 H 668.072 2.06162 -3.12167 0
M  V30 6847 H 669.405 2.72886 -4.09627 0
M  V30 6848 N 671.057 1.43213 0.657864 0
M  V30 6849 C 672.468 1.39669 1.23893 0
M  V30 6850 C 672.819 0.0984217 1.95953 0
M  V30 6851 O 671.944 -0.8023 2.00978 0
M  V30 6852 C 672.539 2.53004 2.25332 0
M  V30 6853 C 671.098 2.5274 2.78926 0
M  V30 6854 C 670.245 2.30941 1.53497 0
M  V30 6855 H 673.196 1.52181 0.450172 0
M  V30 6856 H 673.217 2.24226 3.07413 0
M  V30 6857 H 672.729 3.4748 1.72856 0
M  V30 6858 H 670.83 1.6213 3.35477 0
M  V30 6859 H 670.943 3.50352 3.26787 0
M  V30 6860 H 669.307 1.7952 1.80678 0
M  V30 6861 H 670.09 3.27496 1.02963 0
M  V30 6862 N 672.536 -0.895792 1.29666 0
M  V30 6863 C 673.499 -1.98189 1.15124 0
M  V30 6864 C 674.499 -1.60572 0.0855717 0
M  V30 6865 O 675.689 -1.70991 0.332826 0
M  V30 6866 C 672.821 -3.32289 0.761372 0
M  V30 6867 H 674.014 -2.12518 2.11603 0
M  V30 6868 H 671.567 -1.0808 1.12908 0
M  V30 6869 H 672.302 -3.23662 -0.203393 0
M  V30 6870 H 672.087 -3.60958 1.53139 0
M  V30 6871 H 673.577 -4.1198 0.682792 0
M  V30 6872 N 674.014 -1.12206 -1.10668 0
M  V30 6873 C 675.425 -0.890657 -1.64086 0
M  V30 6874 C 675.776 0.575502 -1.8757 0
M  V30 6875 O 674.901 1.4394 -1.61587 0
M  V30 6876 C 675.496 -1.61029 -2.98085 0
M  V30 6877 C 674.055 -1.4251 -3.48379 0
M  V30 6878 C 673.202 -1.64778 -2.23033 0
M  V30 6879 H 676.153 -1.27718 -0.94201 0
M  V30 6880 H 676.174 -1.05993 -3.65439 0
M  V30 6881 H 675.686 -2.67735 -2.80962 0
M  V30 6882 H 673.787 -0.380497 -3.70652 0
M  V30 6883 H 673.9 -2.17959 -4.26651 0
M  V30 6884 H 672.264 -1.07171 -2.31055 0
M  V30 6885 H 673.047 -2.72776 -2.08443 0
M  V30 6886 N 675.492 1.28418 -0.913599 0
M  V30 6887 C 676.738 1.9527 -0.547484 0
M  V30 6888 C 677.071 1.71745 0.906486 0
M  V30 6889 O 676.346 1.03834 1.64465 0
M  V30 6890 C 676.629 3.49748 -0.857205 0
M  V30 6891 C 676.482 3.82675 -2.3639 0
M  V30 6892 C 677.801 4.3868 -0.353258 0
M  V30 6893 H 674.92 0.709236 -0.200381 0
M  V30 6894 H 677.562 1.51789 -1.14281 0
M  V30 6895 H 675.712 3.86915 -0.350548 0
M  V30 6896 H 677.384 3.55378 -2.94116 0
M  V30 6897 H 675.627 3.29724 -2.81894 0
M  V30 6898 H 676.298 4.90547 -2.53115 0
M  V30 6899 H 678.774 4.08584 -0.787288 0
M  V30 6900 H 677.65 5.45621 -0.599049 0
M  V30 6901 H 677.911 4.35753 0.746413 0
M  V30 6902 N 676.97 0.677563 1.42291 0
M  V30 6903 C 678.386 0.347376 1.55774 0
M  V30 6904 C 678.586 -1.14703 1.65667 0
M  V30 6905 O 677.642 -1.93252 1.62512 0
M  V30 6906 C 678.955 1.08011 2.80631 0
M  V30 6907 C 680.503 1.06271 2.94407 0
M  V30 6908 C 680.978 1.77683 4.22129 0
M  V30 6909 N 682.469 1.74564 4.29047 0
M  V30 6910 C 683.204 2.26673 5.26694 0
M  V30 6911 N 682.7 2.87176 6.30477 0
M  V30 6912 N 684.493 2.17032 5.18511 0
M  V30 6913 H 676.644 1.64703 1.34114 0
M  V30 6914 H 678.907 0.694038 0.645768 0
M  V30 6915 H 678.613 2.13518 2.79469 0
M  V30 6916 H 678.487 0.647115 3.71608 0
M  V30 6917 H 680.874 0.0159658 2.95096 0
M  V30 6918 H 680.955 1.53461 2.04654 0
M  V30 6919 H 680.599 2.82327 4.22201 0
M  V30 6920 H 680.529 1.2794 5.10822 0
M  V30 6921 H 683.02 1.30436 3.54676 0
M  V30 6922 H 683.333 3.24551 7.01346 0
M  V30 6923 H 681.678 2.91247 6.31031 0
M  V30 6924 H 684.869 1.69451 4.36353 0
M  V30 6925 H 685.042 2.57948 5.94446 0
M  V30 6926 N 678.448 -1.51871 0.421078 0
M  V30 6927 C 679.864 -1.59435 0.0725398 0
M  V30 6928 C 680.064 -1.43315 -1.41644 0
M  V30 6929 O 679.12 -1.26614 -2.18461 0
M  V30 6930 C 680.433 -2.9509 0.578132 0
M  V30 6931 C 681.981 -3.08356 0.537149 0
M  V30 6932 C 682.456 -4.4651 1.01945 0
M  V30 6933 N 683.947 -4.52784 0.976758 0
M  V30 6934 C 684.682 -5.57976 1.32099 0
M  V30 6935 N 684.178 -6.70664 1.73727 0
M  V30 6936 N 685.971 -5.48248 1.2402 0
M  V30 6937 H 678.122 -1.60595 1.39007 0
M  V30 6938 H 680.385 -0.756138 0.571803 0
M  V30 6939 H 680.091 -3.12205 1.61929 0
M  V30 6940 H 679.965 -3.772 -0.00578374 0
M  V30 6941 H 682.352 -2.90919 -0.494991 0
M  V30 6942 H 682.433 -2.28125 1.15727 0
M  V30 6943 H 682.077 -4.64692 2.04997 0
M  V30 6944 H 682.007 -5.25256 0.376023 0
M  V30 6945 H 684.498 -3.71898 0.670851 0
M  V30 6946 H 684.811 -7.46932 1.98274 0
M  V30 6947 H 683.156 -6.71914 1.77641 0
M  V30 6948 H 686.347 -4.59095 0.913756 0
M  V30 6949 H 686.52 -6.30119 1.51176 0
M  V30 6950 N 679.926 -0.151884 -1.56866 0
M  V30 6951 C 681.203 0.543328 -1.87902 0
M  V30 6952 C 681.583 1.82636 -1.05864 0
M  V30 6953 O 680.931 2.28028 -0.146868 0
M  V30 6954 C 681.141 0.804056 -3.39611 0
M  V30 6955 C 682.489 1.14267 -4.08935 0
M  V30 6956 O 683.513 0.893248 -3.44818 0
M  V30 6957 O 682.372 1.61229 -5.22176 0
M  V30 6958 H 679.466 0.277724 -0.778973 0
M  V30 6959 H 682.012 -0.188862 -1.68646 0
M  V30 6960 H 680.784 -0.103772 -3.91162 0
M  V30 6961 H 680.407 1.59025 -3.64413 0
M  V30 6962 N 681.404 1.57128 0.121893 0
M  V30 6963 C 682.82 1.52357 0.47534 0
M  V30 6964 C 683.02 0.864417 1.82017 0
M  V30 6965 O 682.076 0.445529 2.48538 0
M  V30 6966 C 683.389 2.97122 0.4625 0
M  V30 6967 C 684.937 3.08196 0.546255 0
M  V30 6968 C 685.412 4.54516 0.563833 0
M  V30 6969 N 686.903 4.58959 0.625353 0
M  V30 6970 C 687.638 5.69585 0.660354 0
M  V30 6971 N 687.134 6.89714 0.653175 0
M  V30 6972 N 688.927 5.57685 0.703143 0
M  V30 6973 H 681.078 1.98364 -0.75931 0
M  V30 6974 H 683.341 0.905777 -0.279772 0
M  V30 6975 H 683.047 3.48706 -0.457943 0
M  V30 6976 H 682.921 3.54406 1.29136 0
M  V30 6977 H 685.308 2.56617 1.45712 0
M  V30 6978 H 685.389 2.53912 -0.310234 0
M  V30 6979 H 685.033 5.06741 -0.342974 0
M  V30 6980 H 684.963 5.06609 1.43716 0
M  V30 6981 H 687.454 3.72489 0.637182 0
M  V30 6982 H 687.767 7.69781 0.682425 0
M  V30 6983 H 686.112 6.92223 0.620646 0
M  V30 6984 H 689.303 4.62744 0.706095 0
M  V30 6985 H 689.476 6.43909 0.726952 0
M  V30 6986 N 682.882 -0.391992 1.52647 0
M  V30 6987 C 684.107 -1.16312 1.71716 0
M  V30 6988 C 684.532 -1.83042 0.433279 0
M  V30 6989 O 683.89 -1.70705 -0.610707 0
M  V30 6990 C 683.938 -2.18908 2.86551 0
M  V30 6991 O 683.042 -3.2543 2.53316 0
M  V30 6992 H 682.383 -0.338743 0.571095 0
M  V30 6993 H 684.913 -0.457202 1.99426 0
M  V30 6994 H 684.923 -2.62954 3.1196 0
M  V30 6995 H 683.598 -1.69726 3.79692 0
M  V30 6996 H 682.175 -2.86543 2.38637 0
M  V30 6997 N 684.36 -1.4356 -0.65026 0
M  V30 6998 C 685.588 -1.48779 -1.43779 0
M  V30 6999 C 686.003 -0.106593 -1.88499 0
M  V30 7000 O 685.36 0.883766 -1.59674 0
M  V30 7001 C 685.411 -2.43618 -2.67081 0
M  V30 7002 O 685.132 -3.76367 -2.24231 0
M  V30 7003 C 686.633 -2.5811 -3.60409 0
M  V30 7004 H 683.853 -0.50521 -0.441593 0
M  V30 7005 H 686.397 -1.88332 -0.796941 0
M  V30 7006 H 684.552 -2.07253 -3.273 0
M  V30 7007 H 684.966 -4.27394 -3.0403 0
M  V30 7008 H 686.44 -3.28539 -4.43583 0
M  V30 7009 H 686.917 -1.627 -4.07953 0
M  V30 7010 H 687.523 -2.95298 -3.0607 0
M  V30 7011 N 685.838 0.888903 -1.30139 0
M  V30 7012 C 687.063 1.67884 -1.21777 0
M  V30 7013 C 687.488 1.86848 0.216689 0
M  V30 7014 O 686.846 1.39659 1.15608 0
M  V30 7015 C 686.894 3.03483 -1.94757 0
M  V30 7016 O 685.998 3.92294 -1.27198 0
M  V30 7017 H 685.339 0.513144 -0.421402 0
M  V30 7018 H 687.869 1.10968 -1.71893 0
M  V30 7019 H 687.879 3.53553 -2.03627 0
M  V30 7020 H 686.554 2.89 -2.99085 0
M  V30 7021 H 685.131 3.50732 -1.26655 0
M  V30 7022 N 687.317 1.12792 1.10072 0
M  V30 7023 C 688.566 0.880232 1.81479 0
M  V30 7024 C 688.879 -0.595575 1.86312 0
M  V30 7025 O 690.085 -0.959979 2.53962 0
M  V30 7026 C 688.541 1.52514 3.25987 0
M  V30 7027 C 688.149 3.036 3.29441 0
M  V30 7028 C 689.893 1.35788 4.02196 0
M  V30 7029 C 687.8 3.61007 4.68431 0
M  V30 7030 H 686.73 0.325654 0.680048 0
M  V30 7031 H 689.381 1.35485 1.23758 0
M  V30 7032 H 687.763 0.978188 3.83728 0
M  V30 7033 H 688.937 3.64819 2.81502 0
M  V30 7034 H 687.252 3.19765 2.66719 0
M  V30 7035 H 689.849 1.76096 5.0487 0
M  V30 7036 H 690.192 0.301972 4.15203 0
M  V30 7037 H 690.725 1.87426 3.50879 0
M  V30 7038 H 687.464 4.66375 4.60625 0
M  V30 7039 H 686.984 3.04564 5.16721 0
M  V30 7040 H 688.663 3.60289 5.37402 0
M  V30 7041 N 688.795 -1.27931 0.920396 0
M  V30 7042 C 689.742 -2.27085 0.412422 0
M  V30 7043 C 690.712 -1.57858 -0.516725 0
M  V30 7044 O 691.897 -1.85717 -0.437475 0
M  V30 7045 C 689.037 -3.43466 -0.335399 0
M  V30 7046 C 688.15 -4.27425 0.627017 0
M  V30 7047 C 687.285 -5.31016 -0.139916 0
M  V30 7048 C 686.324 -6.06641 0.815683 0
M  V30 7049 N 685.461 -7.02052 0.0818439 0
M  V30 7050 H 690.301 -2.69913 1.26298 0
M  V30 7051 H 687.838 -1.32732 0.634076 0
M  V30 7052 H 689.796 -4.09744 -0.785226 0
M  V30 7053 H 688.426 -3.01611 -1.15025 0
M  V30 7054 H 687.478 -3.6113 1.19537 0
M  V30 7055 H 688.79 -4.79969 1.35763 0
M  V30 7056 H 687.944 -6.03208 -0.649998 0
M  V30 7057 H 686.683 -4.79257 -0.903543 0
M  V30 7058 H 685.688 -5.33294 1.33708 0
M  V30 7059 H 686.913 -6.60489 1.57897 0
M  V30 7060 H 684.859 -6.52634 -0.663671 0
M  V30 7061 H 684.776 -7.52249 0.752163 0
M  V30 7062 H 686.044 -7.78432 -0.407825 0
M  V30 7063 N 690.273 -0.685099 -1.4193 0
M  V30 7064 C 691.203 -0.0273506 -2.33484 0
M  V30 7065 C 692.184 0.778366 -1.51246 0
M  V30 7066 O 693.369 0.733449 -1.79817 0
M  V30 7067 C 690.499 0.917272 -3.34968 0
M  V30 7068 C 689.453 0.21941 -4.27437 0
M  V30 7069 C 688.779 1.27768 -5.1921 0
M  V30 7070 C 690.079 -0.907894 -5.14349 0
M  V30 7071 H 691.773 -0.791994 -2.88735 0
M  V30 7072 H 689.319 -0.382308 -1.38832 0
M  V30 7073 H 691.272 1.38657 -3.97935 0
M  V30 7074 H 689.996 1.71346 -2.78043 0
M  V30 7075 H 688.655 -0.229757 -3.65879 0
M  V30 7076 H 688.303 2.06612 -4.58607 0
M  V30 7077 H 688.003 0.815803 -5.81909 0
M  V30 7078 H 689.527 1.7477 -5.85054 0
M  V30 7079 H 690.941 -0.519348 -5.70943 0
M  V30 7080 H 689.338 -1.2962 -5.85934 0
M  V30 7081 H 690.408 -1.75218 -4.52136 0
M  V30 7082 N 691.751 1.51645 -0.429126 0
M  V30 7083 C 692.683 2.25279 0.422124 0
M  V30 7084 C 693.696 1.28986 0.993299 0
M  V30 7085 O 694.885 1.54797 0.888836 0
M  V30 7086 C 691.985 2.98666 1.60162 0
M  V30 7087 C 691.158 4.2199 1.15078 0
M  V30 7088 C 690.217 4.78028 2.19946 0
M  V30 7089 O 689.243 5.40084 1.79716 0
M  V30 7090 N 690.445 4.61342 3.5234 0
M  V30 7091 H 693.21 2.98971 -0.208931 0
M  V30 7092 H 690.771 1.59838 -0.257568 0
M  V30 7093 H 692.763 3.33044 2.29922 0
M  V30 7094 H 691.333 2.28036 2.13818 0
M  V30 7095 H 690.553 3.932 0.280552 0
M  V30 7096 H 691.841 5.02037 0.826831 0
M  V30 7097 H 691.239 4.11894 3.87763 0
M  V30 7098 H 689.796 5.00104 4.18019 0
M  V30 7099 N 693.229 0.160201 1.56784 0
M  V30 7100 C 694.139 -0.787167 2.21 0
M  V30 7101 C 695.155 -1.26167 1.19825 0
M  V30 7102 O 696.331 -1.31611 1.52448 0
M  V30 7103 C 693.396 -2.00364 2.8294 0
M  V30 7104 C 692.457 -1.5771 3.99282 0
M  V30 7105 C 691.69 -2.73558 4.58259 0
M  V30 7106 O 691.913 -3.90129 4.16119 0
M  V30 7107 O 690.847 -2.48271 5.48311 0
M  V30 7108 H 694.673 -0.270462 3.02493 0
M  V30 7109 H 692.258 -0.0674666 1.49248 0
M  V30 7110 H 694.14 -2.71529 3.22257 0
M  V30 7111 H 692.815 -2.50961 2.04451 0
M  V30 7112 H 691.722 -0.835274 3.64656 0
M  V30 7113 H 693.055 -1.11815 4.79331 0
M  V30 7114 N 694.707 -1.5719 -0.113559 0
M  V30 7115 C 695.67 -1.99796 -1.12314 0
M  V30 7116 C 696.67 -0.888847 -1.34001 0
M  V30 7117 O 697.86 -1.15476 -1.30426 0
M  V30 7118 C 694.992 -2.34279 -2.47641 0
M  V30 7119 H 696.185 -2.90193 -0.756825 0
M  V30 7120 H 693.738 -1.52144 -0.358029 0
M  V30 7121 H 694.473 -1.46778 -2.89183 0
M  V30 7122 H 694.258 -3.15175 -2.33253 0
M  V30 7123 H 695.748 -2.67963 -3.2029 0
M  V30 7124 N 696.185 0.383891 -1.52853 0
M  V30 7125 C 697.596 0.961591 -1.60032 0
M  V30 7126 C 697.947 1.90819 -0.456333 0
M  V30 7127 O 697.072 2.12288 0.419873 0
M  V30 7128 C 697.667 1.75078 -2.90057 0
M  V30 7129 C 696.226 2.2781 -2.99632 0
M  V30 7130 C 695.373 1.08512 -2.55187 0
M  V30 7131 H 698.324 0.163269 -1.57858 0
M  V30 7132 H 698.345 2.61046 -2.7683 0
M  V30 7133 H 697.857 1.06157 -3.73299 0
M  V30 7134 H 695.958 3.00028 -2.20939 0
M  V30 7135 H 696.071 2.56947 -4.0437 0
M  V30 7136 H 694.435 1.44667 -2.09627 0
M  V30 7137 H 695.218 0.41118 -3.40829 0
M  V30 7138 N 697.663 1.43903 0.642637 0
M  V30 7139 C 698.888 1.49758 1.43483 0
M  V30 7140 C 699.313 0.119911 1.87717 0
M  V30 7141 O 698.671 -0.888558 1.58033 0
M  V30 7142 C 698.719 2.45744 2.63898 0
M  V30 7143 O 697.823 1.95101 3.63331 0
M  V30 7144 H 697.164 0.506138 0.429791 0
M  V30 7145 H 699.694 1.88923 0.785438 0
M  V30 7146 H 699.704 2.63399 3.11584 0
M  V30 7147 H 698.379 3.45818 2.31046 0
M  V30 7148 H 696.956 1.87158 3.22531 0
M  V30 7149 N 699.141 -0.881989 1.30609 0
M  V30 7150 C 700.366 -1.67236 1.22665 0
M  V30 7151 C 700.791 -1.8696 -0.206777 0
M  V30 7152 O 700.149 -1.4027 -1.14865 0
M  V30 7153 C 700.197 -3.02446 1.96363 0
M  V30 7154 O 699.301 -3.91614 1.29276 0
M  V30 7155 H 698.642 -0.510902 0.424117 0
M  V30 7156 H 701.172 -1.10055 1.72479 0
M  V30 7157 H 701.182 -3.52468 2.055 0
M  V30 7158 H 699.857 -2.8741 3.00613 0
M  V30 7159 H 698.434 -3.50055 1.28514 0
M  V30 7160 N 700.619 -1.13374 -1.09472 0
M  V30 7161 C 701.844 -0.918711 -1.85942 0
M  V30 7162 C 702.269 0.527225 -1.8056 0
M  V30 7163 O 701.627 1.37408 -1.18274 0
M  V30 7164 C 701.675 -1.41056 -3.31867 0
M  V30 7165 O 700.779 -0.595496 -4.08078 0
M  V30 7166 H 700.12 -0.329297 -0.576593 0
M  V30 7167 H 702.65 -1.50829 -1.38245 0
M  V30 7168 H 702.66 -1.41398 -3.82715 0
M  V30 7169 H 701.335 -2.46335 -3.35099 0
M  V30 7170 H 699.912 -0.659911 -3.67014 0
M  V30 7171 N 702.098 1.27442 -0.927168 0
M  V30 7172 C 703.509 1.76385 -0.611979 0
M  V30 7173 C 703.86 1.75715 0.872853 0
M  V30 7174 O 702.985 1.3603 1.683 0
M  V30 7175 C 703.58 3.20303 -1.10414 0
M  V30 7176 C 702.139 3.66916 -0.839628 0
M  V30 7177 C 701.286 2.46859 -1.26317 0
M  V30 7178 H 704.237 1.13716 -1.107 0
M  V30 7179 H 704.258 3.77811 -0.451578 0
M  V30 7180 H 703.77 3.20759 -2.18484 0
M  V30 7181 H 701.871 3.71906 0.227292 0
M  V30 7182 H 701.984 4.56415 -1.45679 0
M  V30 7183 H 700.348 2.45407 -0.681723 0
M  V30 7184 H 701.131 2.50025 -2.3525 0
M  V30 7185 N 703.576 0.692616 1.41565 0
M  V30 7186 C 704.853 0.150496 1.9502 0
M  V30 7187 C 705.233 -1.33881 1.63215 0
M  V30 7188 O 704.581 -2.08378 0.937598 0
M  V30 7189 C 704.791 0.438636 3.46233 0
M  V30 7190 C 706.139 0.364777 4.2303 0
M  V30 7191 O 707.163 0.373383 3.54238 0
M  V30 7192 O 706.022 0.32234 5.45549 0
M  V30 7193 H 703.116 0.0132454 0.826894 0
M  V30 7194 H 705.662 0.768574 1.51298 0
M  V30 7195 H 704.434 1.46962 3.62654 0
M  V30 7196 H 704.057 -0.210562 3.97042 0
M  V30 7197 N 705.054 -1.51416 0.437162 0
M  V30 7198 C 706.279 -2.0699 -0.130424 0
M  V30 7199 C 706.704 -1.30249 -1.35709 0
M  V30 7200 O 706.062 -0.340388 -1.78076 0
M  V30 7201 C 706.11 -3.5801 -0.43142 0
M  V30 7202 O 705.214 -3.8345 -1.5179 0
M  V30 7203 H 704.555 -0.663997 -0.00194339 0
M  V30 7204 H 707.085 -1.95029 0.618445 0
M  V30 7205 H 707.095 -4.02261 -0.681926 0
M  V30 7206 H 705.77 -4.13291 0.465137 0
M  V30 7207 H 704.347 -3.51062 -1.25737 0
M  V30 7208 N 706.532 -0.168513 -1.56696 0
M  V30 7209 C 707.778 0.471368 -1.97863 0
M  V30 7210 C 708.133 1.61049 -1.05267 0
M  V30 7211 O 707.426 1.9138 -0.0917908 0
M  V30 7212 C 707.62 1.00441 -3.42996 0
M  V30 7213 C 707.449 -0.081524 -4.49626 0
M  V30 7214 C 706.219 -0.530242 -5.0251 0
M  V30 7215 C 708.417 -0.880897 -5.067 0
M  V30 7216 N 706.399 -1.59678 -5.9277 0
M  V30 7217 C 707.77 -1.79742 -5.93374 0
M  V30 7218 C 709.825 -0.92629 -4.89208 0
M  V30 7219 C 708.528 -2.7555 -6.64428 0
M  V30 7220 C 710.554 -1.8723 -5.6098 0
M  V30 7221 C 709.916 -2.77631 -6.4738 0
M  V30 7222 H 706.015 0.140671 -0.769244 0
M  V30 7223 H 708.599 -0.268084 -1.92846 0
M  V30 7224 H 706.77 1.71339 -3.48565 0
M  V30 7225 H 708.502 1.61269 -3.7118 0
M  V30 7226 H 705.257 -0.12847 -4.73426 0
M  V30 7227 H 705.681 -2.13045 -6.42605 0
M  V30 7228 H 710.323 -0.241412 -4.2211 0
M  V30 7229 H 708.041 -3.45027 -7.30741 0
M  V30 7230 H 711.627 -1.91349 -5.49433 0
M  V30 7231 H 710.507 -3.4964 -7.01941 0
M  V30 7232 N 708.01 1.57248 0.105221 0
M  V30 7233 C 708.958 2.02337 1.14728 0
M  V30 7234 C 709.952 0.922652 1.42069 0
M  V30 7235 O 711.158 1.10785 1.41869 0
M  V30 7236 H 707.533 0.644682 0.387155 0
M  V30 7237 H 709.504 2.89063 0.740607 0
M  V30 7238 C 708.253 2.45513 2.46209 0
M  V30 7239 H 707.576 3.29785 2.26013 0
M  V30 7240 H 709.016 2.80846 3.1765 0
M  V30 7241 C 707.475 1.3243 3.09781 0
M  V30 7242 O 708.005 0.647841 3.96442 0
M  V30 7243 N 706.211 1.07785 2.69872 0
M  V30 7244 H 705.758 1.62973 1.99493 0
M  V30 7245 H 705.716 0.323204 3.12734 0
M  V30 7246 N 709.488 -0.375779 1.53054 0
M  V30 7247 C 710.436 -1.48015 1.79428 0
M  V30 7248 C 711.43 -1.55893 0.662854 0
M  V30 7249 O 712.636 -1.58901 0.845599 0
M  V30 7250 H 709.011 -0.492887 0.56795 0
M  V30 7251 H 710.982 -1.22971 2.71884 0
M  V30 7252 C 709.731 -2.84984 1.99197 0
M  V30 7253 H 709.054 -2.79677 2.85693 0
M  V30 7254 H 710.494 -3.61462 2.21633 0
M  V30 7255 C 708.953 -3.28025 0.768183 0
M  V30 7256 O 709.483 -4.01671 -0.0480482 0
M  V30 7257 N 707.689 -2.84454 0.594521 0
M  V30 7258 H 707.236 -2.24688 1.25988 0
M  V30 7259 H 707.194 -3.13609 -0.222916 0
M  V30 7260 N 710.966 -1.44241 -0.634997 0
M  V30 7261 C 712.377 -1.41622 -1.21655 0
M  V30 7262 C 712.728 -0.129584 -1.95772 0
M  V30 7263 O 711.853 0.770225 -2.02229 0
M  V30 7264 C 712.448 -2.56557 -2.21278 0
M  V30 7265 C 711.007 -2.57145 -2.7487 0
M  V30 7266 C 710.154 -2.33354 -1.49804 0
M  V30 7267 H 713.105 -1.52878 -0.425905 0
M  V30 7268 H 713.126 -2.29089 -3.03807 0
M  V30 7269 H 712.638 -3.50186 -1.67306 0
M  V30 7270 H 710.739 -1.67447 -3.32855 0
M  V30 7271 H 710.852 -3.55507 -3.21172 0
M  V30 7272 H 709.216 -1.82372 -1.77799 0
M  V30 7273 H 709.999 -3.29092 -0.977402 0
M  V30 7274 N 712.444 0.87505 -1.31075 0
M  V30 7275 C 713.69 1.63009 -1.20647 0
M  V30 7276 C 714.023 1.9276 0.236045 0
M  V30 7277 O 713.298 1.55559 1.16754 0
M  V30 7278 C 713.581 2.96357 -2.0456 0
M  V30 7279 C 713.434 2.73516 -3.57084 0
M  V30 7280 C 714.753 3.974 -1.89107 0
M  V30 7281 H 711.872 0.591518 -0.439631 0
M  V30 7282 H 714.514 1.0119 -1.60812 0
M  V30 7283 H 712.664 3.49119 -1.70435 0
M  V30 7284 H 714.336 2.27465 -4.01319 0
M  V30 7285 H 712.579 2.0784 -3.80769 0
M  V30 7286 H 713.25 3.68377 -4.11099 0
M  V30 7287 H 715.726 3.5383 -2.18961 0
M  V30 7288 H 714.602 4.88596 -2.5013 0
M  V30 7289 H 714.863 4.33794 -0.85296 0
M  V30 7290 N 713.922 1.13953 1.08869 0
M  V30 7291 C 714.855 0.765765 2.14968 0
M  V30 7292 C 715.833 -0.250689 1.60656 0
M  V30 7293 O 717.017 -0.140852 1.87973 0
M  V30 7294 C 714.144 0.136146 3.38426 0
M  V30 7295 C 713.19 1.12201 4.11477 0
M  V30 7296 S 714.023 2.65711 4.64928 0
M  V30 7297 C 715.179 2.04125 5.91679 0
M  V30 7298 H 715.412 1.66444 2.46341 0
M  V30 7299 H 712.945 0.960263 1.20906 0
M  V30 7300 H 714.903 -0.220712 4.09906 0
M  V30 7301 H 713.564 -0.739887 3.05261 0
M  V30 7302 H 712.757 0.629398 5.00055 0
M  V30 7303 H 712.359 1.42262 3.45886 0
M  V30 7304 H 714.651 1.39381 6.63008 0
M  V30 7305 H 715.594 2.90808 6.45629 0
M  V30 7306 H 716.002 1.4905 5.44467 0
M  V30 7307 N 715.4 -1.26948 0.933913 0
M  V30 7308 C 716.333 -2.24977 0.382169 0
M  V30 7309 C 717.311 -1.53893 -0.524949 0
M  V30 7310 O 718.495 -1.82699 -0.464048 0
M  V30 7311 C 715.622 -3.35676 -0.451615 0
M  V30 7312 C 714.668 -4.24686 0.392947 0
M  V30 7313 S 715.501 -5.03898 1.81237 0
M  V30 7314 C 716.657 -6.18078 0.986443 0
M  V30 7315 H 716.89 -2.71429 1.21299 0
M  V30 7316 H 714.423 -1.35701 0.736523 0
M  V30 7317 H 716.381 -3.99901 -0.926797 0
M  V30 7318 H 715.042 -2.8785 -1.25703 0
M  V30 7319 H 714.235 -5.03402 -0.245533 0
M  V30 7320 H 713.837 -3.65288 0.802537 0
M  V30 7321 H 716.129 -6.77125 0.225321 0
M  V30 7322 H 717.072 -6.86216 1.74682 0
M  V30 7323 H 717.48 -5.62047 0.525711 0
M  V30 7324 N 716.879 -0.700114 -1.41195 0
M  V30 7325 C 718.107 -0.242179 -2.05478 0
M  V30 7326 C 718.522 1.11029 -1.52702 0
M  V30 7327 O 717.879 1.69473 -0.677127 0
M  V30 7328 C 717.93 -0.196271 -3.60967 0
M  V30 7329 O 717.651 -1.49532 -4.11791 0
M  V30 7330 C 719.152 0.282102 -4.42401 0
M  V30 7331 H 716.372 -0.111749 -0.661629 0
M  V30 7332 H 718.916 -0.953975 -1.80885 0
M  V30 7333 H 717.071 0.46638 -3.84582 0
M  V30 7334 H 717.485 -1.38545 -5.05871 0
M  V30 7335 H 718.959 0.263093 -5.51373 0
M  V30 7336 H 719.436 1.32174 -4.1884 0
M  V30 7337 H 720.042 -0.349712 -4.2386 0
M  V30 7338 N 718.357 1.51182 -0.445186 0
M  V30 7339 C 719.287 2.30821 0.352686 0
M  V30 7340 C 720.268 1.36576 1.01395 0
M  V30 7341 O 721.453 1.65497 1.01609 0
M  V30 7342 C 718.583 3.15593 1.44976 0
M  V30 7343 C 717.537 4.1818 0.911553 0
M  V30 7344 C 716.863 4.91523 2.10497 0
M  V30 7345 C 718.163 5.22266 -0.059418 0
M  V30 7346 H 719.857 2.97771 -0.311936 0
M  V30 7347 H 717.403 1.43201 -0.151461 0
M  V30 7348 H 719.356 3.70091 2.01521 0
M  V30 7349 H 718.08 2.4648 2.14278 0
M  V30 7350 H 716.739 3.64746 0.368264 0
M  V30 7351 H 716.387 4.18906 2.78437 0
M  V30 7352 H 716.087 5.60898 1.7512 0
M  V30 7353 H 717.611 5.48847 2.6758 0
M  V30 7354 H 719.025 5.71789 0.415985 0
M  V30 7355 H 717.422 5.99213 -0.326152 0
M  V30 7356 H 718.492 4.7461 -0.993631 0
M  V30 7357 N 719.835 0.176821 1.56605 0
M  V30 7358 C 721.063 -0.472828 2.01425 0
M  V30 7359 C 721.478 -1.56436 1.05703 0
M  V30 7360 O 720.835 -1.82405 0.058808 0
M  V30 7361 C 720.886 -1.04607 3.46034 0
M  V30 7362 O 720.607 0.00189608 4.381 0
M  V30 7363 C 722.108 -1.7734 4.06282 0
M  V30 7364 H 719.328 -0.120503 0.660091 0
M  V30 7365 H 721.872 0.280166 2.02572 0
M  V30 7366 H 720.027 -1.74953 3.45645 0
M  V30 7367 H 720.441 -0.422118 5.22799 0
M  V30 7368 H 721.915 -2.12703 5.09374 0
M  V30 7369 H 722.392 -2.67043 3.4869 0
M  V30 7370 H 722.998 -1.11623 4.10391 0
M  V30 7371 N 721.313 -1.57302 -0.09688 0
M  V30 7372 C 722.26 -2.01933 -1.11766 0
M  V30 7373 C 723.23 -0.895329 -1.39904 0
M  V30 7374 O 724.415 -1.16119 -1.51397 0
M  V30 7375 C 721.555 -2.44726 -2.43317 0
M  V30 7376 C 720.668 -3.70639 -2.21925 0
M  V30 7377 C 719.803 -4.02318 -3.46862 0
M  V30 7378 C 718.842 -5.21346 -3.20725 0
M  V30 7379 N 717.979 -5.48787 -4.37924 0
M  V30 7380 H 722.819 -2.88919 -0.730075 0
M  V30 7381 H 720.356 -1.42901 -0.348962 0
M  V30 7382 H 722.314 -2.6758 -3.20088 0
M  V30 7383 H 720.944 -1.60753 -2.79926 0
M  V30 7384 H 719.996 -3.55271 -1.35965 0
M  V30 7385 H 721.308 -4.57557 -1.98603 0
M  V30 7386 H 720.462 -4.25939 -4.32042 0
M  V30 7387 H 719.201 -3.13918 -3.73238 0
M  V30 7388 H 718.206 -4.97547 -2.33938 0
M  V30 7389 H 719.431 -6.11343 -2.95697 0
M  V30 7390 H 717.377 -4.63346 -4.64378 0
M  V30 7391 H 717.294 -6.30073 -4.17785 0
M  V30 7392 H 718.562 -5.76943 -5.24173 0
M  V30 7393 N 722.791 0.367657 -1.53252 0
M  V30 7394 C 724.016 1.13566 -1.73544 0
M  V30 7395 C 724.441 1.82329 -0.462344 0
M  V30 7396 O 723.799 1.71655 0.583472 0
M  V30 7397 C 723.847 2.14322 -2.89997 0
M  V30 7398 O 722.951 3.21359 -2.58461 0
M  V30 7399 H 722.292 0.329614 -0.576412 0
M  V30 7400 H 724.822 0.425417 -2.00128 0
M  V30 7401 H 724.832 2.57958 -3.16104 0
M  V30 7402 H 723.507 1.63664 -3.82344 0
M  V30 7403 H 722.084 2.8271 -2.43165 0
M  V30 7404 N 724.269 1.44576 0.627338 0
M  V30 7405 C 725.685 1.28546 0.945938 0
M  V30 7406 C 725.885 0.224003 2.00251 0
M  V30 7407 O 724.941 -0.388817 2.49488 0
M  V30 7408 C 726.254 2.65825 1.40561 0
M  V30 7409 C 727.802 2.73566 1.52088 0
M  V30 7410 C 728.277 4.11323 2.01438 0
M  V30 7411 N 729.768 4.13519 2.08702 0
M  V30 7412 C 730.503 5.16964 2.48065 0
M  V30 7413 N 729.999 6.30768 2.86538 0
M  V30 7414 N 731.792 5.04319 2.48232 0
M  V30 7415 H 723.943 2.1228 -0.0713567 0
M  V30 7416 H 726.206 0.947503 0.0307081 0
M  V30 7417 H 725.912 3.44591 0.703539 0
M  V30 7418 H 725.786 2.92969 2.37591 0
M  V30 7419 H 728.173 1.95116 2.21391 0
M  V30 7420 H 728.254 2.50159 0.534237 0
M  V30 7421 H 727.898 4.9025 1.32729 0
M  V30 7422 H 727.828 4.32109 3.0098 0
M  V30 7423 H 730.319 3.31385 1.81638 0
M  V30 7424 H 730.632 7.0551 3.15398 0
M  V30 7425 H 728.977 6.342 2.84281 0
M  V30 7426 H 732.168 4.14465 2.17569 0
M  V30 7427 H 732.341 5.85059 2.78585 0
M  V30 7428 N 725.747 -0.868086 1.31537 0
M  V30 7429 C 726.972 -1.65926 1.24432 0
M  V30 7430 C 727.397 -1.87169 -0.186936 0
M  V30 7431 O 726.755 -1.4148 -1.13371 0
M  V30 7432 C 726.803 -3.00347 1.9956 0
M  V30 7433 O 725.907 -3.90221 1.33422 0
M  V30 7434 H 725.248 -0.506375 0.429512 0
M  V30 7435 H 727.778 -1.0822 1.73637 0
M  V30 7436 H 727.788 -3.50269 2.09226 0
M  V30 7437 H 726.463 -2.84205 3.03645 0
M  V30 7438 H 725.04 -3.48672 1.32219 0
M  V30 7439 N 727.225 -1.14528 -1.08264 0
M  V30 7440 C 728.472 -0.914405 -1.80679 0
M  V30 7441 C 728.8 0.558952 -1.86295 0
M  V30 7442 O 728.055 1.43017 -1.33584 0
M  V30 7443 C 728.354 -1.46226 -3.26117 0
M  V30 7444 C 728.02 -2.95451 -3.40616 0
M  V30 7445 C 726.682 -3.36191 -3.4428 0
M  V30 7446 C 729.034 -3.91399 -3.44175 0
M  V30 7447 C 726.362 -4.71539 -3.49096 0
M  V30 7448 C 728.714 -5.26606 -3.50526 0
M  V30 7449 C 727.378 -5.66856 -3.52464 0
M  V30 7450 H 726.648 -0.334604 -0.661151 0
M  V30 7451 H 729.295 -1.4292 -1.27461 0
M  V30 7452 H 727.6 -0.868442 -3.82054 0
M  V30 7453 H 729.297 -1.25955 -3.80705 0
M  V30 7454 H 725.887 -2.62955 -3.38456 0
M  V30 7455 H 730.071 -3.61004 -3.40573 0
M  V30 7456 H 725.327 -5.02082 -3.4889 0
M  V30 7457 H 729.501 -6.00758 -3.52225 0
M  V30 7458 H 727.128 -6.71718 -3.55948 0
M  V30 7459 N 728.703 1.26451 -0.940633 0
M  V30 7460 C 729.931 1.97868 -0.604642 0
M  V30 7461 C 730.346 1.70051 0.820251 0
M  V30 7462 O 729.703 0.96843 1.54686 0
M  V30 7463 C 729.754 3.51684 -0.836689 0
M  V30 7464 O 729.475 3.78533 -2.20554 0
M  V30 7465 C 730.976 4.40343 -0.511169 0
M  V30 7466 H 728.196 0.631105 -0.227919 0
M  V30 7467 H 730.74 1.60979 -1.26119 0
M  V30 7468 H 728.895 3.86736 -0.226759 0
M  V30 7469 H 729.309 4.73065 -2.26517 0
M  V30 7470 H 730.783 5.47229 -0.724157 0
M  V30 7471 H 731.26 4.35694 0.553815 0
M  V30 7472 H 731.866 4.10834 -1.0998 0
M  V30 7473 N 730.181 0.707592 1.40822 0
M  V30 7474 C 731.406 0.251626 2.05868 0
M  V30 7475 C 731.831 -1.09503 1.5294 0
M  V30 7476 O 731.189 -1.68806 0.661385 0
M  V30 7477 C 731.237 0.23287 3.59847 0
M  V30 7478 O 730.341 -0.788477 4.04792 0
M  V30 7479 H 729.682 0.119936 0.653078 0
M  V30 7480 H 732.212 0.96583 1.80369 0
M  V30 7481 H 732.222 0.0678204 4.07944 0
M  V30 7482 H 730.897 1.21565 3.97737 0
M  V30 7483 H 729.474 -0.591802 3.68174 0
M  V30 7484 N 731.66 -1.50943 0.453197 0
M  V30 7485 C 732.885 -2.07116 -0.108463 0
M  V30 7486 C 733.31 -1.31681 -1.3432 0
M  V30 7487 O 732.668 -0.359256 -1.77705 0
M  V30 7488 C 732.716 -3.58447 -0.393424 0
M  V30 7489 O 731.82 -3.85038 -1.47714 0
M  V30 7490 H 731.161 -0.66398 0.0050993 0
M  V30 7491 H 733.691 -1.94362 0.639095 0
M  V30 7492 H 733.701 -4.02961 -0.639222 0
M  V30 7493 H 732.376 -4.12774 0.508946 0
M  V30 7494 H 730.953 -3.52376 -1.22006 0
M  V30 7495 N 733.138 -0.185124 -1.56509 0
M  V30 7496 C 734.368 0.461469 -2.0138 0
M  V30 7497 C 734.776 1.56417 -1.06445 0
M  V30 7498 O 734.119 1.83603 -0.0597515 0
M  V30 7499 C 734.181 1.08731 -3.42663 0
M  V30 7500 C 733.845 0.124581 -4.5683 0
M  V30 7501 C 734.842 -0.662295 -5.15664 0
M  V30 7502 C 732.527 0.0163947 -5.02297 0
M  V30 7503 C 734.521 -1.54442 -6.18406 0
M  V30 7504 C 732.208 -0.869301 -6.04885 0
M  V30 7505 C 733.206 -1.64828 -6.62813 0
M  V30 7506 O 732.894 -2.51915 -7.63409 0
M  V30 7507 H 732.626 0.1212 -0.665046 0
M  V30 7508 H 735.18 -0.288119 -2.03369 0
M  V30 7509 H 733.41 1.8853 -3.37629 0
M  V30 7510 H 735.099 1.63753 -3.71403 0
M  V30 7511 H 735.865 -0.588963 -4.81411 0
M  V30 7512 H 731.744 0.61253 -4.56913 0
M  V30 7513 H 735.288 -2.15289 -6.63548 0
M  V30 7514 H 731.185 -0.943786 -6.38563 0
M  V30 7515 H 731.953 -2.45584 -7.80789 0
M  V30 7516 N 734.616 1.57351 0.0885366 0
M  V30 7517 C 735.579 2.01557 1.09121 0
M  V30 7518 C 736.579 0.910052 1.3257 0
M  V30 7519 O 737.769 1.17537 1.28572 0
M  V30 7520 C 734.901 2.38189 2.43883 0
M  V30 7521 H 736.094 2.91361 0.710562 0
M  V30 7522 H 733.647 1.52694 0.333779 0
M  V30 7523 H 734.382 1.5136 2.86811 0
M  V30 7524 H 734.167 3.18846 2.28209 0
M  V30 7525 H 735.657 2.73025 3.15986 0
M  V30 7526 N 736.094 -0.359525 1.53444 0
M  V30 7527 C 737.343 -1.09886 1.69139 0
M  V30 7528 C 737.656 -1.90285 0.452863 0
M  V30 7529 O 738.862 -2.67033 0.490459 0
M  V30 7530 C 737.318 -2.0028 2.99025 0
M  V30 7531 C 736.926 -1.25164 4.30161 0
M  V30 7532 C 738.67 -2.74168 3.24086 0
M  V30 7533 C 736.577 -2.14494 5.51132 0
M  V30 7534 H 735.507 -0.413936 0.630217 0
M  V30 7535 H 738.158 -0.359434 1.79945 0
M  V30 7536 H 736.54 -2.77978 2.82036 0
M  V30 7537 H 737.714 -0.524867 4.57801 0
M  V30 7538 H 736.029 -0.631116 4.11589 0
M  V30 7539 H 738.626 -3.41243 4.11652 0
M  V30 7540 H 738.969 -3.39868 2.40407 0
M  V30 7541 H 739.502 -2.0355 3.41778 0
M  V30 7542 H 736.241 -1.53362 6.37307 0
M  V30 7543 H 735.761 -2.85004 5.27762 0
M  V30 7544 H 737.44 -2.73914 5.86157 0
M  V30 7545 N 737.572 -1.44907 -0.619662 0
M  V30 7546 C 738.797 -1.52021 -1.41083 0
M  V30 7547 C 739.222 -0.14976 -1.87503 0
M  V30 7548 O 738.58 0.863303 -1.59426 0
M  V30 7549 C 738.628 -2.49911 -2.59955 0
M  V30 7550 O 737.732 -2.00857 -3.60181 0
M  V30 7551 H 737.073 -0.512912 -0.421684 0
M  V30 7552 H 739.603 -1.90149 -0.755282 0
M  V30 7553 H 739.613 -2.68323 -3.07354 0
M  V30 7554 H 738.288 -3.4945 -2.25516 0
M  V30 7555 H 736.865 -1.92265 -3.19513 0
M  V30 7556 N 739.05 0.861098 -1.31996 0
M  V30 7557 C 740.013 1.95068 -1.20338 0
M  V30 7558 C 741.013 1.60289 -0.128114 0
M  V30 7559 O 742.203 1.70048 -0.378044 0
M  V30 7560 C 739.335 3.30153 -0.849205 0
M  V30 7561 H 740.528 2.06833 -2.17164 0
M  V30 7562 H 738.081 1.05049 -1.15734 0
M  V30 7563 H 738.816 3.24087 0.117508 0
M  V30 7564 H 738.601 3.56771 -1.62655 0
M  V30 7565 H 740.091 4.10025 -0.791782 0
M  V30 7566 N 740.528 1.15101 1.07655 0
M  V30 7567 C 741.491 0.847625 2.12951 0
M  V30 7568 C 742.491 -0.151227 1.60087 0
M  V30 7569 O 743.681 0.0780399 1.74025 0
M  V30 7570 C 740.813 0.265 3.39868 0
M  V30 7571 H 742.006 1.7809 2.41296 0
M  V30 7572 H 739.559 0.958072 1.23494 0
M  V30 7573 H 740.294 -0.676625 3.17163 0
M  V30 7574 H 740.079 0.984554 3.79538 0
M  V30 7575 H 741.569 0.0702121 4.17541 0
M  V30 7576 N 742.006 -1.2595 0.947325 0
M  V30 7577 C 742.954 -2.28152 0.452687 0
M  V30 7578 C 743.948 -1.62655 -0.473239 0
M  V30 7579 O 745.154 -1.76549 -0.350774 0
M  V30 7580 H 741.529 -0.741049 0.12787 0
M  V30 7581 H 743.5 -2.67267 1.32707 0
M  V30 7582 C 742.249 -3.46719 -0.26098 0
M  V30 7583 H 741.572 -3.97345 0.442352 0
M  V30 7584 H 743.012 -4.20135 -0.571208 0
M  V30 7585 C 741.471 -3.02605 -1.48094 0
M  V30 7586 O 742.001 -3.07979 -2.57899 0
M  V30 7587 N 740.207 -2.57877 -1.33969 0
M  V30 7588 H 739.754 -2.53704 -0.446295 0
M  V30 7589 H 739.712 -2.28725 -2.15713 0
M  V30 7590 N 743.484 -0.715051 -1.40445 0
M  V30 7591 C 744.434 -0.038591 -2.27967 0
M  V30 7592 C 745.418 0.733099 -1.43229 0
M  V30 7593 O 746.61 0.605388 -1.66325 0
M  V30 7594 C 743.739 0.882801 -3.31755 0
M  V30 7595 C 742.825 0.106325 -4.23967 0
M  V30 7596 N 743.216 -0.910143 -4.97544 0
M  V30 7597 C 741.514 0.33896 -4.4471 0
M  V30 7598 C 742.215 -1.37665 -5.65175 0
M  V30 7599 N 741.191 -0.698905 -5.39088 0
M  V30 7600 H 744.993 -0.81765 -2.82297 0
M  V30 7601 H 742.507 -0.547591 -1.5289 0
M  V30 7602 H 744.504 1.38273 -3.93302 0
M  V30 7603 H 743.164 1.66124 -2.78985 0
M  V30 7604 H 744.175 -1.29097 -5.01552 0
M  V30 7605 H 740.852 1.09377 -4.02918 0
M  V30 7606 H 742.242 -2.22122 -6.34123 0
M  V30 7607 N 744.962 1.50701 -0.461195 0
M  V30 7608 C 746.208 2.02566 0.0973411 0
M  V30 7609 C 746.541 1.3432 1.40257 0
M  V30 7610 O 745.816 0.465692 1.88843 0
M  V30 7611 C 746.099 3.58919 0.291423 0
M  V30 7612 C 745.952 4.37751 -1.03413 0
M  V30 7613 C 747.271 4.27379 1.05048 0
M  V30 7614 H 744.39 0.73622 0.0339026 0
M  V30 7615 H 747.032 1.80115 -0.604855 0
M  V30 7616 H 745.182 3.78179 0.889539 0
M  V30 7617 H 746.854 4.30085 -1.66806 0
M  V30 7618 H 745.097 4.01885 -1.63313 0
M  V30 7619 H 745.768 5.45384 -0.852085 0
M  V30 7620 H 748.244 4.12534 0.543603 0
M  V30 7621 H 747.12 5.36609 1.15506 0
M  V30 7622 H 747.381 3.89868 2.0846 0
M  V30 7623 N 746.441 0.193421 1.56409 0
M  V30 7624 C 747.388 -0.728124 2.19014 0
M  V30 7625 C 748.358 -1.21098 1.13686 0
M  V30 7626 O 749.543 -1.27517 1.4193 0
M  V30 7627 C 746.683 -1.94277 2.8522 0
M  V30 7628 C 745.796 -1.50143 4.05069 0
M  V30 7629 C 744.931 -2.67145 4.59137 0
M  V30 7630 C 743.97 -2.19609 5.71348 0
M  V30 7631 N 743.107 -3.29782 6.19829 0
M  V30 7632 H 747.947 -0.187499 2.9741 0
M  V30 7633 H 745.484 -0.0808064 1.46878 0
M  V30 7634 H 747.442 -2.65551 3.21774 0
M  V30 7635 H 746.072 -2.45673 2.09391 0
M  V30 7636 H 745.124 -0.684624 3.74189 0
M  V30 7637 H 746.436 -1.11266 4.86232 0
M  V30 7638 H 745.59 -3.46544 4.97988 0
M  V30 7639 H 744.329 -3.09295 3.77078 0
M  V30 7640 H 743.334 -1.38664 5.32027 0
M  V30 7641 H 744.559 -1.78492 6.55223 0
M  V30 7642 H 742.505 -3.71466 5.40693 0
M  V30 7643 H 742.422 -2.95069 6.96039 0
M  V30 7644 H 743.69 -4.094 6.63334 0
M  V30 7645 N 747.919 -1.57396 -0.0801906 0
M  V30 7646 C 748.882 -2.02133 -1.0805 0
M  V30 7647 C 749.882 -0.91707 -1.32085 0
M  V30 7648 O 751.072 -1.18217 -1.27947 0
M  V30 7649 C 748.204 -2.39479 -2.42616 0
M  V30 7650 H 749.397 -2.91733 -0.6951 0
M  V30 7651 H 746.95 -1.52869 -0.325677 0
M  V30 7652 H 747.685 -1.52879 -2.86004 0
M  V30 7653 H 747.47 -3.20052 -2.26515 0
M  V30 7654 H 748.96 -2.74697 -3.14534 0
M  V30 7655 N 749.397 0.351382 -1.53633 0
M  V30 7656 C 750.344 1.43115 -1.81071 0
M  V30 7657 C 751.314 1.52601 -0.655913 0
M  V30 7658 O 752.499 1.68264 -0.89955 0
M  V30 7659 C 749.639 2.79874 -2.01903 0
M  V30 7660 C 748.752 2.79242 -3.29618 0
M  V30 7661 C 747.887 4.07667 -3.40559 0
M  V30 7662 C 746.926 4.01233 -4.62254 0
M  V30 7663 N 746.063 5.21334 -4.70271 0
M  V30 7664 H 750.903 1.19017 -2.73201 0
M  V30 7665 H 748.44 0.576691 -1.35324 0
M  V30 7666 H 750.398 3.5934 -2.11969 0
M  V30 7667 H 749.028 3.0234 -1.13094 0
M  V30 7668 H 748.08 1.91927 -3.28433 0
M  V30 7669 H 749.392 2.70363 -4.19172 0
M  V30 7670 H 748.546 4.95555 -3.50015 0
M  V30 7671 H 747.285 4.19317 -2.49047 0
M  V30 7672 H 746.29 3.11732 -4.52884 0
M  V30 7673 H 747.515 3.91173 -5.55122 0
M  V30 7674 H 745.461 5.33543 -3.81665 0
M  V30 7675 H 745.378 5.14681 -5.5375 0
M  V30 7676 H 746.646 6.11014 -4.84027 0
M  V30 7677 N 750.875 1.45233 0.611969 0
M  V30 7678 C 751.822 1.5357 1.72293 0
M  V30 7679 C 752.792 0.381912 1.6165 0
M  V30 7680 O 753.977 0.594765 1.81293 0
M  V30 7681 C 751.117 1.50419 3.10593 0
M  V30 7682 C 750.23 2.76316 3.32074 0
M  V30 7683 C 749.365 2.64866 4.60456 0
M  V30 7684 C 748.404 3.85838 4.7518 0
M  V30 7685 N 747.541 3.72949 5.94856 0
M  V30 7686 H 752.381 2.4848 1.64504 0
M  V30 7687 H 749.918 1.23302 0.802191 0
M  V30 7688 H 751.876 1.4658 3.90602 0
M  V30 7689 H 750.506 0.590621 3.17351 0
M  V30 7690 H 749.558 2.90261 2.45872 0
M  V30 7691 H 750.87 3.66055 3.38829 0
M  V30 7692 H 750.024 2.58969 5.48653 0
M  V30 7693 H 748.763 1.72719 4.56092 0
M  V30 7694 H 747.768 3.92099 3.85407 0
M  V30 7695 H 748.993 4.79045 4.81344 0
M  V30 7696 H 746.939 2.83567 5.91545 0
M  V30 7697 H 746.856 4.56319 6.02751 0
M  V30 7698 H 748.124 3.70976 6.85563 0
M  V30 7699 N 752.353 -0.854086 1.3245 0
M  V30 7700 C 753.285 -1.96932 1.17262 0
M  V30 7701 C 754.298 -1.62445 0.107469 0
M  V30 7702 O 755.487 -1.74904 0.356481 0
M  V30 7703 C 752.587 -3.29971 0.772817 0
M  V30 7704 C 751.76 -3.92695 1.92638 0
M  V30 7705 C 750.819 -5.04068 1.51003 0
M  V30 7706 O 749.845 -5.24032 2.22213 0
M  V30 7707 N 751.047 -5.79076 0.406371 0
M  V30 7708 H 753.812 -2.10503 2.13327 0
M  V30 7709 H 751.373 -1.02897 1.24995 0
M  V30 7710 H 753.365 -4.01883 0.476684 0
M  V30 7711 H 751.935 -3.1245 -0.0967 0
M  V30 7712 H 751.155 -3.13563 2.38897 0
M  V30 7713 H 752.443 -4.31337 2.69863 0
M  V30 7714 H 751.841 -5.65393 -0.186302 0
M  V30 7715 H 750.398 -6.51579 0.169846 0
M  V30 7716 N 753.831 -1.1567 -1.07043 0
M  V30 7717 C 755.056 -0.957946 -1.83952 0
M  V30 7718 C 755.481 0.488807 -1.81638 0
M  V30 7719 O 754.839 1.34869 -1.21162 0
M  V30 7720 C 754.887 -1.48064 -3.288 0
M  V30 7721 O 753.991 -0.681921 -4.06723 0
M  V30 7722 H 753.332 -0.341453 -0.569479 0
M  V30 7723 H 755.862 -1.53728 -1.35015 0
M  V30 7724 H 755.872 -1.49484 -3.7963 0
M  V30 7725 H 754.547 -2.53388 -3.29799 0
M  V30 7726 H 753.124 -0.737612 -3.65532 0
M  V30 7727 N 755.309 1.25446 -0.953992 0
M  V30 7728 C 756.725 1.4539 -0.658316 0
M  V30 7729 C 756.925 1.85607 0.784356 0
M  V30 7730 O 755.981 1.98568 1.55972 0
M  V30 7731 C 757.294 2.52643 -1.6307 0
M  V30 7732 C 758.842 2.66484 -1.64181 0
M  V30 7733 C 759.317 3.76921 -2.60182 0
M  V30 7734 N 760.808 3.84331 -2.58542 0
M  V30 7735 C 761.543 4.69271 -3.29503 0
M  V30 7736 N 761.039 5.58503 -4.09934 0
M  V30 7737 N 762.832 4.6323 -3.18393 0
M  V30 7738 H 754.983 0.976337 -1.8863 0
M  V30 7739 H 757.246 0.490343 -0.811337 0
M  V30 7740 H 756.952 2.29949 -2.66114 0
M  V30 7741 H 756.826 3.50547 -1.39271 0
M  V30 7742 H 759.213 2.88545 -0.618552 0
M  V30 7743 H 759.294 1.68982 -1.92038 0
M  V30 7744 H 758.938 3.55612 -3.62633 0
M  V30 7745 H 758.868 4.73906 -2.29609 0
M  V30 7746 H 761.359 3.20544 -2.0015 0
M  V30 7747 H 761.672 6.20241 -4.61 0
M  V30 7748 H 760.017 5.58214 -4.14032 0
M  V30 7749 H 763.208 3.92527 -2.5503 0
M  V30 7750 H 763.381 5.29204 -3.73961 0
M  V30 7751 N 756.787 0.722489 1.40064 0
M  V30 7752 C 758.198 0.336507 1.83642 0
M  V30 7753 C 758.549 -1.13002 1.6039 0
M  V30 7754 O 757.674 -1.87036 1.08842 0
M  V30 7755 C 758.269 0.603985 3.33373 0
M  V30 7756 C 756.828 0.271637 3.75419 0
M  V30 7757 C 755.975 0.872898 2.63203 0
M  V30 7758 H 758.926 0.921108 1.29233 0
M  V30 7759 H 758.947 -0.128471 3.80283 0
M  V30 7760 H 758.459 1.67141 3.50265 0
M  V30 7761 H 756.56 -0.790455 3.64119 0
M  V30 7762 H 756.673 0.745457 4.73265 0
M  V30 7763 H 755.037 0.300431 2.52922 0
M  V30 7764 H 755.82 1.94473 2.82905 0
M  V30 7765 N 758.265 -1.50454 0.469181 0
M  V30 7766 C 759.513 -2.01916 -0.0862982 0
M  V30 7767 C 759.834 -1.35337 -1.40388 0
M  V30 7768 O 759.104 -0.498096 -1.89462 0
M  V30 7769 H 757.684 -0.746185 -0.0348825 0
M  V30 7770 H 760.346 -1.84804 0.619167 0
M  V30 7771 H 759.442 -3.11182 -0.239189 0
M  V30 7772 N 759.743 -0.201713 -1.56304 0
M  V30 7773 C 760.706 0.702811 -2.18159 0
M  V30 7774 C 761.706 1.13619 -1.13787 0
M  V30 7775 O 762.896 1.0482 -1.39134 0
M  V30 7776 C 760.028 1.96032 -2.78898 0
M  V30 7777 H 761.221 0.163836 -2.99452 0
M  V30 7778 H 758.774 0.04791 -1.56227 0
M  V30 7779 H 759.509 2.54165 -2.01421 0
M  V30 7780 H 759.294 1.65824 -3.55309 0
M  V30 7781 H 760.784 2.60519 -3.26373 0
M  V30 7782 N 761.222 1.57436 0.0718424 0
M  V30 7783 C 762.152 2.06724 1.08571 0
M  V30 7784 C 763.133 0.960731 1.40371 0
M  V30 7785 O 764.318 1.23345 1.49999 0
M  V30 7786 C 761.448 2.51112 2.39916 0
M  V30 7787 C 760.402 3.65639 2.22469 0
M  V30 7788 C 759.728 3.96082 3.59198 0
M  V30 7789 C 761.028 4.95687 1.64596 0
M  V30 7790 H 762.722 2.91679 0.675569 0
M  V30 7791 H 760.268 1.40319 0.32352 0
M  V30 7792 H 762.221 2.84206 3.11135 0
M  V30 7793 H 760.945 1.63186 2.8291 0
M  V30 7794 H 759.604 3.32828 1.53691 0
M  V30 7795 H 759.252 3.05287 3.99761 0
M  V30 7796 H 758.952 4.73199 3.48362 0
M  V30 7797 H 760.476 4.31672 4.31847 0
M  V30 7798 H 761.89 5.27011 2.25681 0
M  V30 7799 H 760.287 5.77126 1.64457 0
M  V30 7800 H 761.357 4.8108 0.60744 0
M  V30 7801 N 762.7 -0.34323 1.53817 0
M  V30 7802 C 763.663 -1.40444 1.8113 0
M  V30 7803 C 764.663 -1.45604 0.682366 0
M  V30 7804 O 765.853 -1.45974 0.950649 0
M  V30 7805 C 762.985 -2.79369 1.95361 0
M  V30 7806 H 764.178 -1.17489 2.75928 0
M  V30 7807 H 761.731 -0.577636 1.45234 0
M  V30 7808 H 762.466 -3.07607 1.02707 0
M  V30 7809 H 762.251 -2.7702 2.77493 0
M  V30 7810 H 763.741 -3.56178 2.18008 0
M  V30 7811 N 764.178 -1.45556 -0.604258 0
M  V30 7812 C 765.125 -1.54482 -1.71476 0
M  V30 7813 C 766.095 -0.390479 -1.61445 0
M  V30 7814 O 767.28 -0.604371 -1.80975 0
M  V30 7815 C 764.42 -1.52064 -3.09791 0
M  V30 7816 C 763.533 -2.78073 -3.30604 0
M  V30 7817 C 762.668 -2.67304 -4.59044 0
M  V30 7818 C 761.707 -3.88352 -4.73127 0
M  V30 7819 N 760.844 -3.76098 -5.9287 0
M  V30 7820 H 765.684 -2.49349 -1.63184 0
M  V30 7821 H 763.221 -1.23725 -0.795641 0
M  V30 7822 H 765.179 -1.48649 -3.89819 0
M  V30 7823 H 763.809 -0.607442 -3.17033 0
M  V30 7824 H 762.861 -2.91561 -2.44329 0
M  V30 7825 H 764.173 -3.67847 -3.36883 0
M  V30 7826 H 763.327 -2.61875 -5.47272 0
M  V30 7827 H 762.066 -1.75135 -4.55169 0
M  V30 7828 H 761.071 -3.94137 -3.83322 0
M  V30 7829 H 762.296 -4.81591 -4.78797 0
M  V30 7830 H 760.242 -2.867 -5.90033 0
M  V30 7831 H 760.159 -4.59509 -6.00323 0
M  V30 7832 H 761.427 -3.74607 -6.83586 0
M  V30 7833 N 765.656 0.84705 -1.32902 0
M  V30 7834 C 766.905 1.59667 -1.23245 0
M  V30 7835 C 767.218 1.94551 0.202349 0
M  V30 7836 O 768.424 2.68218 0.420847 0
M  V30 7837 C 766.88 2.8795 -2.15901 0
M  V30 7838 C 766.488 2.60461 -3.64505 0
M  V30 7839 C 768.232 3.65968 -2.15098 0
M  V30 7840 C 766.139 3.84791 -4.49099 0
M  V30 7841 H 765.069 0.599167 -0.457728 0
M  V30 7842 H 767.72 0.934662 -1.57912 0
M  V30 7843 H 766.102 3.55648 -1.74157 0
M  V30 7844 H 767.276 2.01026 -4.14639 0
M  V30 7845 H 765.591 1.9576 -3.67515 0
M  V30 7846 H 768.188 4.58241 -2.75534 0
M  V30 7847 H 768.531 4.00275 -1.14392 0
M  V30 7848 H 769.064 3.05184 -2.55162 0
M  V30 7849 H 765.803 3.55621 -5.50649 0
M  V30 7850 H 765.323 4.43594 -4.03713 0
M  V30 7851 H 767.002 4.52454 -4.62487 0
M  V30 7852 N 767.134 1.16236 1.06428 0
M  V30 7853 C 768.359 0.967688 1.83441 0
M  V30 7854 C 768.784 -0.479167 1.81894 0
M  V30 7855 O 768.142 -1.34224 1.21875 0
M  V30 7856 C 768.19 1.49806 3.2801 0
M  V30 7857 O 767.294 0.703481 4.06356 0
M  V30 7858 H 766.635 0.344468 0.56766 0
M  V30 7859 H 769.165 1.54442 1.34197 0
M  V30 7860 H 769.175 1.51495 3.78831 0
M  V30 7861 H 767.85 2.55133 3.2845 0
M  V30 7862 H 766.427 0.756986 3.65136 0
M  V30 7863 N 768.612 -1.24939 0.960631 0
M  V30 7864 C 770.023 -1.74701 0.658529 0
M  V30 7865 C 770.374 -1.77967 -0.825959 0
M  V30 7866 O 769.499 -1.40444 -1.64634 0
M  V30 7867 C 770.094 -3.17263 1.18867 0
M  V30 7868 C 768.653 -3.64561 0.936614 0
M  V30 7869 C 767.8 -2.43423 1.32817 0
M  V30 7870 H 770.751 -1.10741 1.13676 0
M  V30 7871 H 770.772 -3.76481 0.551589 0
M  V30 7872 H 770.284 -3.14854 2.26912 0
M  V30 7873 H 768.385 -3.72378 -0.128608 0
M  V30 7874 H 768.498 -4.52392 1.57729 0
M  V30 7875 H 766.862 -2.43513 0.746548 0
M  V30 7876 H 767.645 -2.437 2.41796 0
M  V30 7877 N 770.09 -0.729906 -1.39679 0
M  V30 7878 C 771.02 -0.101618 -2.33279 0
M  V30 7879 C 772.001 0.729854 -1.53646 0
M  V30 7880 O 773.186 0.67587 -1.82059 0
M  V30 7881 C 770.316 0.81024 -3.37716 0
M  V30 7882 C 769.27 0.0833126 -4.27919 0
M  V30 7883 C 768.596 1.11185 -5.23012 0
M  V30 7884 C 769.896 -1.07107 -5.112 0
M  V30 7885 H 771.59 -0.883452 -2.86069 0
M  V30 7886 H 769.136 -0.426283 -1.37546 0
M  V30 7887 H 771.089 1.25927 -4.02145 0
M  V30 7888 H 769.813 1.62413 -2.83354 0
M  V30 7889 H 768.472 -0.346043 -3.64963 0
M  V30 7890 H 768.12 1.91917 -4.64948 0
M  V30 7891 H 767.82 0.63026 -5.8421 0
M  V30 7892 H 769.344 1.56068 -5.90318 0
M  V30 7893 H 770.758 -0.700726 -5.69002 0
M  V30 7894 H 769.155 -1.48196 -5.81514 0
M  V30 7895 H 770.225 -1.89513 -4.46332 0
M  V30 7896 N 771.568 1.50203 -0.477153 0
M  V30 7897 C 772.793 2.07263 0.0754986 0
M  V30 7898 C 773.218 1.33801 1.32208 0
M  V30 7899 O 772.576 0.387482 1.77111 0
M  V30 7900 C 772.624 3.59028 0.336348 0
M  V30 7901 O 771.728 3.87339 1.4157 0
M  V30 7902 H 771.069 0.663815 -0.015662 0
M  V30 7903 H 773.599 1.93321 -0.669936 0
M  V30 7904 H 773.609 4.03927 0.575034 0
M  V30 7905 H 772.284 4.11912 -0.574551 0
M  V30 7906 H 770.861 3.54272 1.16385 0
M  V30 7907 N 773.046 0.209999 1.56195 0
M  V30 7908 C 774.271 -0.433064 2.02828 0
M  V30 7909 C 774.696 -1.5337 1.08901 0
M  V30 7910 O 774.054 -1.81144 0.0751132 0
M  V30 7911 C 774.102 -0.952635 3.47789 0
M  V30 7912 O 773.206 -2.0647 3.56993 0
M  V30 7913 H 772.547 -0.0994594 0.656509 0
M  V30 7914 H 775.077 0.32525 2.01998 0
M  V30 7915 H 775.087 -1.26542 3.8788 0
M  V30 7916 H 773.762 -0.147007 4.1564 0
M  V30 7917 H 772.339 -1.75942 3.28784 0
M  V30 7918 N 774.524 -1.57472 -0.0634922 0
M  V30 7919 C 775.935 -1.76303 -0.614337 0
M  V30 7920 C 776.286 -0.836578 -1.77471 0
M  V30 7921 O 775.411 -0.0227184 -2.16388 0
M  V30 7922 C 776.006 -3.19709 -1.12122 0
M  V30 7923 C 774.565 -3.39856 -1.61786 0
M  V30 7924 C 773.712 -2.71975 -0.540845 0
M  V30 7925 H 776.663 -1.57864 0.162702 0
M  V30 7926 H 776.684 -3.24326 -1.98979 0
M  V30 7927 H 776.196 -3.87114 -0.276472 0
M  V30 7928 H 774.297 -2.77578 -2.48558 0
M  V30 7929 H 774.41 -4.48338 -1.68908 0
M  V30 7930 H 772.774 -2.34763 -0.987854 0
M  V30 7931 H 773.557 -3.4204 0.293856 0
M  V30 7932 N 776.003 0.335068 -1.53997 0
M  V30 7933 C 777.243 1.0827 -1.7337 0
M  V30 7934 C 777.607 1.85618 -0.490913 0
M  V30 7935 O 778.808 2.62864 -0.561799 0
M  V30 7936 C 777.079 1.99212 -2.96731 0
M  V30 7937 S 778.638 2.81083 -3.36954 0
M  V30 7938 H 775.456 0.365698 -0.609743 0
M  V30 7939 H 778.058 0.360079 -1.92155 0
M  V30 7940 H 776.762 1.41204 -3.85344 0
M  V30 7941 H 776.293 2.75898 -2.80436 0
M  V30 7942 H 778.308 4.01657 -2.91352 0
M  V30 7943 N 777.481 1.45874 0.596531 0
M  V30 7944 C 778.706 1.54247 1.38646 0
M  V30 7945 C 779.131 0.179571 1.87241 0
M  V30 7946 O 778.489 -0.837831 1.6078 0
M  V30 7947 C 778.537 2.54015 2.55946 0
M  V30 7948 O 777.641 2.06561 3.5694 0
M  V30 7949 H 776.982 0.519555 0.413471 0
M  V30 7950 H 779.512 1.91327 0.724936 0
M  V30 7951 H 779.522 2.73179 3.03047 0
M  V30 7952 H 778.197 3.52994 2.19928 0
M  V30 7953 H 776.774 1.97324 3.16414 0
M  V30 7954 N 778.959 -0.83999 1.33349 0
M  V30 7955 C 780.184 -1.63249 1.27924 0
M  V30 7956 C 780.609 -1.87523 -0.147193 0
M  V30 7957 O 779.967 -1.43853 -1.10345 0
M  V30 7958 C 780.015 -2.96046 2.05886 0
M  V30 7959 O 779.119 -3.87303 1.4167 0
M  V30 7960 H 778.46 -0.49715 0.440157 0
M  V30 7961 H 780.99 -1.04512 1.75893 0
M  V30 7962 H 781 -3.45752 2.16609 0
M  V30 7963 H 779.675 -2.77701 3.09605 0
M  V30 7964 H 778.252 -3.45789 1.39585 0
M  V30 7965 N 780.437 -1.16799 -1.0581 0
M  V30 7966 C 781.848 -0.95945 -1.60161 0
M  V30 7967 C 782.199 0.49543 -1.89842 0
M  V30 7968 O 781.324 1.36957 -1.67546 0
M  V30 7969 C 781.919 -1.73527 -2.90987 0
M  V30 7970 C 780.478 -1.57158 -3.42021 0
M  V30 7971 C 779.625 -1.74089 -2.15843 0
M  V30 7972 H 782.576 -1.31598 -0.886992 0
M  V30 7973 H 782.597 -1.21397 -3.60615 0
M  V30 7974 H 782.109 -2.79411 -2.69353 0
M  V30 7975 H 780.21 -0.537361 -3.68705 0
M  V30 7976 H 780.323 -2.35858 -4.17022 0
M  V30 7977 H 778.687 -1.16874 -2.26302 0
M  V30 7978 H 779.47 -2.81371 -1.96686 0
M  V30 7979 N 781.915 1.24427 -0.967243 0
M  V30 7980 C 782.845 2.2773 -0.515899 0
M  V30 7981 C 783.826 1.64197 0.444227 0
M  V30 7982 O 785.011 1.91193 0.340451 0
M  V30 7983 C 782.141 3.46751 0.195149 0
M  V30 7984 C 781.095 4.22548 -0.680953 0
M  V30 7985 C 780.421 5.34456 0.161561 0
M  V30 7986 C 781.721 4.83914 -1.96532 0
M  V30 7987 H 783.415 2.65735 -1.37933 0
M  V30 7988 H 780.961 1.27742 -0.664681 0
M  V30 7989 H 782.914 4.18153 0.522117 0
M  V30 7990 H 781.638 3.07771 1.09292 0
M  V30 7991 H 780.297 3.52946 -0.991186 0
M  V30 7992 H 779.945 4.91716 1.05947 0
M  V30 7993 H 779.645 5.86087 -0.421418 0
M  V30 7994 H 781.169 6.08685 0.483211 0
M  V30 7995 H 782.583 5.47392 -1.70396 0
M  V30 7996 H 780.98 5.45775 -2.49499 0
M  V30 7997 H 782.05 4.05393 -2.66053 0
M  V30 7998 N 783.393 0.737304 1.3929 0
M  V30 7999 C 784.325 0.0592106 2.29124 0
M  V30 8000 C 785.338 -0.701026 1.46934 0
M  V30 8001 O 786.527 -0.544808 1.69983 0
M  V30 8002 C 783.627 -0.940358 3.25592 0
M  V30 8003 C 782.8 -0.241163 4.36735 0
M  V30 8004 C 781.859 -1.14916 5.13498 0
M  V30 8005 O 780.885 -0.625783 5.6575 0
M  V30 8006 N 782.087 -2.47869 5.2492 0
M  V30 8007 H 784.852 0.830647 2.87959 0
M  V30 8008 H 782.413 0.586718 1.50895 0
M  V30 8009 H 784.405 -1.55046 3.73822 0
M  V30 8010 H 782.975 -1.61299 2.67771 0
M  V30 8011 H 782.195 0.549441 3.90352 0
M  V30 8012 H 783.483 0.243299 5.08218 0
M  V30 8013 H 782.881 -2.92864 4.83991 0
M  V30 8014 H 781.438 -3.03969 5.76581 0
M  V30 8015 N 784.871 -1.49948 0.485112 0
M  V30 8016 C 786.119 -2.01996 -0.0648775 0
M  V30 8017 C 786.44 -1.36819 -1.38945 0
M  V30 8018 O 785.71 -0.518163 -1.88923 0
M  V30 8019 H 784.29 -0.746513 -0.0269662 0
M  V30 8020 H 786.952 -1.84136 0.638733 0
M  V30 8021 H 786.048 -3.11418 -0.20617 0
M  V30 8022 N 786.349 -0.21828 -1.56081 0
M  V30 8023 C 787.577 0.419258 -2.02608 0
M  V30 8024 C 787.992 1.53578 -1.09814 0
M  V30 8025 O 787.349 1.82185 -0.107149 0
M  V30 8026 C 787.4 0.953955 -3.48686 0
M  V30 8027 O 787.121 -0.11805 -4.37941 0
M  V30 8028 C 788.622 1.66506 -4.10841 0
M  V30 8029 H 785.842 0.10296 -0.663054 0
M  V30 8030 H 788.386 -0.333776 -2.01758 0
M  V30 8031 H 786.541 1.65727 -3.50162 0
M  V30 8032 H 786.955 0.283359 -5.23734 0
M  V30 8033 H 788.429 1.99123 -5.14834 0
M  V30 8034 H 788.906 2.57705 -3.55647 0
M  V30 8035 H 789.512 1.00703 -4.13206 0
M  V30 8036 N 787.827 1.57504 0.0551401 0
M  V30 8037 C 789.238 1.76626 0.604979 0
M  V30 8038 C 789.589 0.845978 1.77024 0
M  V30 8039 O 788.714 0.0341936 2.16373 0
M  V30 8040 C 789.309 3.203 1.10425 0
M  V30 8041 C 787.868 3.4071 1.59981 0
M  V30 8042 C 787.015 2.72258 0.526414 0
M  V30 8043 H 789.966 1.57775 -0.171072 0
M  V30 8044 H 789.987 3.25377 1.97256 0
M  V30 8045 H 789.499 3.87255 0.255939 0
M  V30 8046 H 787.6 2.78892 2.47083 0
M  V30 8047 H 787.713 4.49227 1.66528 0
M  V30 8048 H 786.077 2.35283 0.97539 0
M  V30 8049 H 786.86 3.41879 -0.311991 0
M  V30 8050 N 789.305 -0.326896 1.54172 0
M  V30 8051 C 790.268 -1.38515 1.8261 0
M  V30 8052 C 791.268 -1.44872 0.697771 0
M  V30 8053 O 792.458 -1.44957 0.966078 0
M  V30 8054 C 789.59 -2.77281 1.98313 0
M  V30 8055 H 790.783 -1.14556 2.77159 0
M  V30 8056 H 788.336 -0.562199 1.45839 0
M  V30 8057 H 789.071 -3.065 1.05964 0
M  V30 8058 H 788.856 -2.74061 2.80416 0
M  V30 8059 H 790.346 -3.53845 2.21773 0
M  V30 8060 N 790.784 -1.46188 -0.588786 0
M  V30 8061 C 792.009 -1.5498 -1.37826 0
M  V30 8062 C 792.434 -0.189498 -1.87143 0
M  V30 8063 O 791.792 0.829293 -1.61222 0
M  V30 8064 C 791.84 -2.55369 -2.54596 0
M  V30 8065 O 790.944 -2.08452 -3.55839 0
M  V30 8066 H 790.285 -0.521741 -0.41071 0
M  V30 8067 H 792.815 -1.91708 -0.714779 0
M  V30 8068 H 792.825 -2.74782 -3.01594 0
M  V30 8069 H 791.5 -3.54155 -2.18052 0
M  V30 8070 H 790.077 -1.98999 -3.15363 0
M  V30 8071 N 792.262 0.832906 -1.33792 0
M  V30 8072 C 793.487 1.62568 -1.28788 0
M  V30 8073 C 793.912 1.87599 0.137246 0
M  V30 8074 O 793.27 1.44436 1.0958 0
M  V30 8075 C 793.318 2.9495 -2.07453 0
M  V30 8076 O 792.422 3.86546 -1.43722 0
M  V30 8077 H 791.763 0.494809 -0.442787 0
M  V30 8078 H 794.293 1.03578 -1.76445 0
M  V30 8079 H 794.303 3.44599 -2.1844 0
M  V30 8080 H 792.978 2.76055 -3.11073 0
M  V30 8081 H 791.555 3.45044 -1.41417 0
M  V30 8082 N 793.74 1.17359 1.05189 0
M  V30 8083 C 794.67 0.91365 2.14883 0
M  V30 8084 C 795.651 -0.144365 1.69486 0
M  V30 8085 O 796.836 0.00587861 1.94199 0
M  V30 8086 C 793.966 0.426196 3.44675 0
M  V30 8087 C 792.92 1.4234 4.03638 0
M  V30 8088 C 792.246 0.793902 5.28773 0
M  V30 8089 C 793.546 2.7966 4.41121 0
M  V30 8090 H 795.24 1.831 2.36885 0
M  V30 8091 H 792.786 0.881781 1.13845 0
M  V30 8092 H 794.739 0.231767 4.20762 0
M  V30 8093 H 793.463 -0.526693 3.22325 0
M  V30 8094 H 792.122 1.60457 3.2962 0
M  V30 8095 H 791.77 -0.165824 5.02727 0
M  V30 8096 H 791.47 1.45959 5.69183 0
M  V30 8097 H 792.994 0.609747 6.07548 0
M  V30 8098 H 794.408 2.6526 5.08242 0
M  V30 8099 H 792.805 3.42807 4.92548 0
M  V30 8100 H 793.875 3.34068 3.51464 0
M  V30 8101 N 795.218 -1.23913 0.973828 0
M  V30 8102 C 796.464 -1.92436 0.640026 0
M  V30 8103 C 796.797 -1.75875 -0.823512 0
M  V30 8104 O 796.072 -1.11563 -1.59323 0
M  V30 8105 C 796.355 -3.4526 1.0231 0
M  V30 8106 C 796.208 -3.70961 2.54378 0
M  V30 8107 C 797.527 -4.36495 0.562155 0
M  V30 8108 H 794.646 -0.698868 0.233992 0
M  V30 8109 H 797.288 -1.46163 1.21393 0
M  V30 8110 H 795.438 -3.84802 0.534751 0
M  V30 8111 H 797.11 -3.40941 3.10737 0
M  V30 8112 H 795.353 -3.15899 2.97305 0
M  V30 8113 H 796.024 -4.77912 2.76232 0
M  V30 8114 H 798.5 -4.04363 0.981333 0
M  V30 8115 H 797.376 -5.42142 0.858689 0
M  V30 8116 H 797.637 -4.38818 -0.537659 0
M  V30 8117 N 796.696 -0.74468 -1.38897 0
M  V30 8118 C 797.921 -0.306119 -2.05128 0
M  V30 8119 C 798.346 1.0541 -1.55789 0
M  V30 8120 O 797.704 1.66993 -0.705909 0
M  V30 8121 C 797.752 -0.328195 -3.59103 0
M  V30 8122 O 796.856 0.680876 -4.06741 0
M  V30 8123 H 796.197 -0.137209 -0.649669 0
M  V30 8124 H 798.727 -1.01331 -1.77745 0
M  V30 8125 H 798.737 -0.175956 -4.0762 0
M  V30 8126 H 797.412 -1.32067 -3.94374 0
M  V30 8127 H 795.989 0.49398 -3.69614 0
M  V30 8128 N 798.174 1.49689 -0.493057 0
M  V30 8129 C 799.121 2.28976 0.28959 0
M  V30 8130 C 800.091 1.35011 0.967536 0
M  V30 8131 O 801.276 1.63964 0.975736 0
M  V30 8132 C 798.416 3.1748 1.35279 0
M  V30 8133 C 797.529 4.26496 0.687418 0
M  V30 8134 C 796.664 5.02226 1.73038 0
M  V30 8135 C 795.703 6.03089 1.04645 0
M  V30 8136 N 794.84 6.72014 2.03325 0
M  V30 8137 H 799.68 2.954 -0.392798 0
M  V30 8138 H 797.217 1.45657 -0.205554 0
M  V30 8139 H 799.175 3.67162 1.98111 0
M  V30 8140 H 797.805 2.53057 2.00405 0
M  V30 8141 H 796.857 3.80362 -0.0540001 0
M  V30 8142 H 798.169 4.98578 0.14864 0
M  V30 8143 H 797.323 5.55737 2.43395 0
M  V30 8144 H 796.062 4.29899 2.303 0
M  V30 8145 H 795.067 5.48817 0.328606 0
M  V30 8146 H 796.292 6.77398 0.480428 0
M  V30 8147 H 794.238 6.02464 2.59564 0
M  V30 8148 H 794.155 7.40046 1.54492 0
M  V30 8149 H 795.423 7.30133 2.72995 0
M  V30 8150 N 799.652 0.226554 1.55963 0
M  V30 8151 C 800.901 -0.40417 1.97609 0
M  V30 8152 C 801.214 -1.60541 1.1174 0
M  V30 8153 O 802.42 -2.30598 1.43307 0
M  V30 8154 C 800.876 -0.770466 3.51556 0
M  V30 8155 C 800.484 0.408244 4.46136 0
M  V30 8156 C 802.228 -1.36651 4.01904 0
M  V30 8157 C 800.135 0.0192347 5.91397 0
M  V30 8158 H 799.065 -0.15478 0.737943 0
M  V30 8159 H 801.716 0.323558 1.80625 0
M  V30 8160 H 800.098 -1.55575 3.6416 0
M  V30 8161 H 801.272 1.18575 4.45283 0
M  V30 8162 H 799.587 0.917859 4.06158 0
M  V30 8163 H 802.184 -1.67055 5.07934 0
M  V30 8164 H 802.527 -2.28403 3.48049 0
M  V30 8165 H 803.06 -0.644556 3.92543 0
M  V30 8166 H 799.799 0.90336 6.49245 0
M  V30 8167 H 799.319 -0.722485 5.95433 0
M  V30 8168 H 800.998 -0.405711 6.45727 0
M  V30 8169 N 801.13 -1.57531 -0.0467866 0
M  V30 8170 C 802.355 -1.93087 -0.757123 0
M  V30 8171 C 802.78 -0.825116 -1.69037 0
M  V30 8172 O 802.138 0.220449 -1.79955 0
M  V30 8173 C 802.186 -3.27669 -1.5055 0
M  V30 8174 O 801.29 -3.18667 -2.61773 0
M  V30 8175 H 800.631 -0.631597 -0.204892 0
M  V30 8176 H 803.161 -2.04599 -0.00755232 0
M  V30 8177 H 803.171 -3.6214 -1.87932 0
M  V30 8178 H 801.846 -4.07717 -0.820931 0
M  V30 8179 H 800.423 -2.95798 -2.27064 0
M  V30 8180 N 802.608 0.318715 -1.54344 0
M  V30 8181 C 803.571 1.37545 -1.83342 0
M  V30 8182 C 804.571 1.445 -0.705444 0
M  V30 8183 O 805.761 1.44443 -0.973752 0
M  V30 8184 C 802.893 2.76225 -1.99781 0
M  V30 8185 H 804.086 1.13084 -2.77762 0
M  V30 8186 H 801.639 0.554457 -1.46135 0
M  V30 8187 H 802.374 3.05934 -1.07588 0
M  V30 8188 H 802.159 2.7257 -2.81865 0
M  V30 8189 H 803.649 3.52664 -2.23647 0
M  V30 8190 N 804.086 1.46499 0.581025 0
M  V30 8191 C 805.332 1.52121 1.34116 0
M  V30 8192 C 805.665 0.173031 1.93428 0
M  V30 8193 O 804.94 -0.815729 1.76568 0
M  V30 8194 C 805.223 2.62108 2.46924 0
M  V30 8195 C 805.076 4.06462 1.92636 0
M  V30 8196 C 806.395 2.68167 3.48962 0
M  V30 8197 H 803.514 0.5538 0.486287 0
M  V30 8198 H 806.156 1.78443 0.652538 0
M  V30 8199 H 804.306 2.39794 3.05665 0
M  V30 8200 H 805.978 4.40068 1.3834 0
M  V30 8201 H 804.221 4.15862 1.23455 0
M  V30 8202 H 804.892 4.79152 2.74076 0
M  V30 8203 H 807.368 2.8823 3.00104 0
M  V30 8204 H 806.244 3.46942 4.2535 0
M  V30 8205 H 806.505 1.74284 4.06297 0
M  V30 8206 N 805.565 -0.825799 1.34232 0
M  V30 8207 C 806.497 -1.94401 1.21413 0
M  V30 8208 C 807.51 -1.6218 0.141902 0
M  V30 8209 O 808.699 -1.74109 0.3935 0
M  V30 8210 C 805.799 -3.28257 0.842635 0
M  V30 8211 C 804.972 -3.88521 2.00924 0
M  V30 8212 C 804.031 -5.00752 1.61661 0
M  V30 8213 O 803.057 -5.19201 2.33279 0
M  V30 8214 N 804.259 -5.78084 0.52911 0
M  V30 8215 H 807.024 -2.05931 2.17744 0
M  V30 8216 H 804.585 -1.00223 1.27149 0
M  V30 8217 H 806.577 -4.00781 0.561822 0
M  V30 8218 H 805.147 -3.12585 -0.0304029 0
M  V30 8219 H 804.367 -3.08425 2.45495 0
M  V30 8220 H 805.655 -4.25516 2.78951 0
M  V30 8221 H 805.053 -5.65661 -0.0663322 0
M  V30 8222 H 803.61 -6.51072 0.308017 0
M  V30 8223 N 807.043 -1.17915 -1.04565 0
M  V30 8224 C 808.29 -0.971424 -1.77678 0
M  V30 8225 C 808.618 0.499401 -1.87979 0
M  V30 8226 O 807.873 1.38695 -1.38066 0
M  V30 8227 C 808.172 -1.56528 -3.213 0
M  V30 8228 C 807.838 -3.06138 -3.31044 0
M  V30 8229 C 806.5 -3.46974 -3.33411 0
M  V30 8230 C 808.852 -4.02151 -3.31548 0
M  V30 8231 C 806.18 -4.82406 -3.33918 0
M  V30 8232 C 808.532 -5.37492 -3.33595 0
M  V30 8233 C 807.196 -5.77782 -3.34251 0
M  V30 8234 H 806.466 -0.355469 -0.650171 0
M  V30 8235 H 809.113 -1.46902 -1.22849 0
M  V30 8236 H 807.418 -0.98955 -3.79098 0
M  V30 8237 H 809.115 -1.38003 -3.76505 0
M  V30 8238 H 805.705 -2.73589 -3.29919 0
M  V30 8239 H 809.889 -3.71656 -3.28916 0
M  V30 8240 H 805.145 -5.12927 -3.3274 0
M  V30 8241 H 809.319 -6.1166 -3.32934 0
M  V30 8242 H 806.946 -6.82702 -3.34397 0
M  V30 8243 N 808.521 1.23394 -0.980386 0
M  V30 8244 C 809.932 1.73631 -0.686239 0
M  V30 8245 C 810.283 1.79259 0.797541 0
M  V30 8246 O 809.408 1.43046 1.62379 0
M  V30 8247 C 810.003 3.15332 -1.239 0
M  V30 8248 C 808.562 3.63024 -0.994494 0
M  V30 8249 C 807.709 2.41279 -1.36673 0
M  V30 8250 H 810.66 1.08918 -1.15423 0
M  V30 8251 H 810.681 3.75556 -0.611414 0
M  V30 8252 H 810.193 3.11204 -2.31892 0
M  V30 8253 H 808.294 3.72535 0.0693492 0
M  V30 8254 H 808.407 4.49825 -1.64906 0
M  V30 8255 H 806.771 2.42295 -0.785195 0
M  V30 8256 H 807.554 2.39822 -2.45642 0
M  V30 8257 N 809.999 0.752036 1.385 0
M  V30 8258 C 810.909 0.125318 2.34265 0
M  V30 8259 C 811.925 -0.702437 1.59191 0
M  V30 8260 O 813.101 -0.626951 1.91393 0
M  V30 8261 C 810.166 -0.758486 3.38301 0
M  V30 8262 C 809.227 0.0834636 4.29219 0
M  V30 8263 C 808.46 -0.758252 5.28286 0
M  V30 8264 O 808.683 -1.99632 5.34325 0
M  V30 8265 O 807.617 -0.177878 6.01637 0
M  V30 8266 H 811.443 0.91617 2.89551 0
M  V30 8267 H 809.028 0.512911 1.4032 0
M  V30 8268 H 810.91 -1.26365 4.02007 0
M  V30 8269 H 809.585 -1.52786 2.85374 0
M  V30 8270 H 808.492 0.634545 3.68679 0
M  V30 8271 H 809.825 0.815455 4.85398 0
M  V30 8272 N 811.477 -1.49425 0.500989 0
M  V30 8273 C 812.702 -2.07356 -0.0425154 0
M  V30 8274 C 813.127 -1.35887 -1.30063 0
M  V30 8275 O 812.485 -0.41561 -1.76472 0
M  V30 8276 C 812.533 -3.59518 -0.279188 0
M  V30 8277 O 811.637 -3.89542 -1.3539 0
M  V30 8278 H 810.978 -0.663482 0.0262207 0
M  V30 8279 H 813.508 -1.92231 0.700607 0
M  V30 8280 H 813.518 -4.04791 -0.5107 0
M  V30 8281 H 812.193 -4.10946 0.640009 0
M  V30 8282 H 810.77 -3.56079 -1.10734 0
M  V30 8283 N 812.955 -0.234822 -1.55841 0
M  V30 8284 C 813.918 0.656378 -2.196 0
M  V30 8285 C 814.918 1.11179 -1.16171 0
M  V30 8286 O 816.108 1.01845 -1.41326 0
M  V30 8287 C 813.24 1.90072 -2.82993 0
M  V30 8288 H 814.433 0.100281 -2.99732 0
M  V30 8289 H 811.986 0.0147613 -1.56293 0
M  V30 8290 H 812.721 2.49836 -2.06767 0
M  V30 8291 H 812.506 1.5825 -3.58747 0
M  V30 8292 H 813.996 2.53538 -3.31826 0
M  V30 8293 N 814.433 1.57553 0.0384317 0
M  V30 8294 C 815.71 1.79977 0.766002 0
M  V30 8295 C 816.09 0.830625 1.94072 0
M  V30 8296 O 815.438 -0.129243 2.28134 0
M  V30 8297 C 815.648 3.27434 1.20781 0
M  V30 8298 C 816.996 3.92167 1.62758 0
M  V30 8299 O 818.02 3.31527 1.30263 0
M  V30 8300 O 816.879 4.98917 2.23035 0
M  V30 8301 H 813.973 0.739787 0.369654 0
M  V30 8302 H 816.519 1.69693 0.0159312 0
M  V30 8303 H 815.291 3.89558 0.368792 0
M  V30 8304 H 814.914 3.42571 2.01819 0
M  V30 8305 N 815.911 -0.310526 1.54511 0
M  V30 8306 C 817.139 -1.06611 1.77318 0
M  V30 8307 C 817.554 -1.81265 0.528043 0
M  V30 8308 O 816.911 -1.75466 -0.50178 0
M  V30 8309 C 816.962 -2.05409 2.97472 0
M  V30 8310 O 816.683 -1.33785 4.17173 0
M  V30 8311 C 818.184 -2.93082 3.32593 0
M  V30 8312 H 815.404 -0.316578 0.591624 0
M  V30 8313 H 817.948 -0.352691 2.01436 0
M  V30 8314 H 816.103 -2.72266 2.7559 0
M  V30 8315 H 816.517 -2.00055 4.84849 0
M  V30 8316 H 817.991 -3.58274 4.19933 0
M  V30 8317 H 818.468 -3.60877 2.50329 0
M  V30 8318 H 819.074 -2.31768 3.566 0
M  V30 8319 N 817.389 -1.46805 -0.573248 0
M  V30 8320 C 818.617 -1.56191 -1.3569 0
M  V30 8321 C 819.032 -0.206362 -1.87669 0
M  V30 8322 O 818.389 0.797883 -1.64134 0
M  V30 8323 C 818.44 -2.57433 -2.53792 0
M  V30 8324 O 818.161 -3.87724 -2.03965 0
M  V30 8325 C 819.662 -2.76851 -3.4622 0
M  V30 8326 H 816.882 -0.527907 -0.414192 0
M  V30 8327 H 819.426 -1.92292 -0.695989 0
M  V30 8328 H 817.581 -2.24311 -3.15854 0
M  V30 8329 H 817.995 -4.42909 -2.80948 0
M  V30 8330 H 819.469 -3.5159 -4.25545 0
M  V30 8331 H 819.946 -1.84095 -3.98755 0
M  V30 8332 H 820.552 -3.11107 -2.89987 0
M  V30 8333 N 818.867 0.818669 -1.34668 0
M  V30 8334 C 819.83 1.9114 -1.26483 0
M  V30 8335 C 820.83 1.598 -0.179044 0
M  V30 8336 O 822.02 1.6876 -0.431952 0
M  V30 8337 C 819.152 3.27285 -0.95381 0
M  V30 8338 H 820.345 1.9982 -2.23634 0
M  V30 8339 H 817.898 1.01314 -1.19018 0
M  V30 8340 H 818.633 3.24297 0.0143428 0
M  V30 8341 H 818.418 3.51416 -1.73924 0
M  V30 8342 H 819.908 4.07299 -0.921827 0
M  V30 8343 N 820.346 1.18468 1.03938 0
M  V30 8344 C 821.293 0.912859 2.1198 0
M  V30 8345 C 822.263 -0.14824 1.65437 0
M  V30 8346 O 823.448 -0.008331 1.90798 0
M  V30 8347 C 820.588 0.446114 3.42204 0
M  V30 8348 C 819.701 1.57278 4.02353 0
M  V30 8349 C 818.836 1.05863 5.20544 0
M  V30 8350 C 817.875 2.1599 5.72726 0
M  V30 8351 N 817.012 1.65959 6.82204 0
M  V30 8352 H 821.852 1.83798 2.34569 0
M  V30 8353 H 819.389 0.916504 1.15059 0
M  V30 8354 H 821.347 0.15697 4.16905 0
M  V30 8355 H 819.977 -0.442025 3.19759 0
M  V30 8356 H 819.029 1.97737 3.24968 0
M  V30 8357 H 820.341 2.40289 4.37107 0
M  V30 8358 H 819.495 0.724087 6.02364 0
M  V30 8359 H 818.234 0.198116 4.87297 0
M  V30 8360 H 817.239 2.50287 4.89527 0
M  V30 8361 H 818.464 3.02479 6.08016 0
M  V30 8362 H 816.41 0.82199 6.5083 0
M  V30 8363 H 816.327 2.42567 7.16029 0
M  V30 8364 H 817.595 1.35436 7.67644 0
M  V30 8365 N 821.824 -1.22873 0.986916 0
M  V30 8366 C 822.756 -2.23889 0.490537 0
M  V30 8367 C 823.769 -1.57523 -0.411144 0
M  V30 8368 O 824.958 -1.7721 -0.214236 0
M  V30 8369 C 822.058 -3.37488 -0.30902 0
M  V30 8370 C 821.231 -4.33438 0.587354 0
M  V30 8371 C 820.29 -5.25958 -0.159467 0
M  V30 8372 O 819.316 -5.67394 0.453115 0
M  V30 8373 N 820.518 -5.62265 -1.44355 0
M  V30 8374 H 823.283 -2.67109 1.35914 0
M  V30 8375 H 820.844 -1.37111 0.860937 0
M  V30 8376 H 822.836 -3.96365 -0.817139 0
M  V30 8377 H 821.406 -2.934 -1.07868 0
M  V30 8378 H 820.626 -3.72969 1.27622 0
M  V30 8379 H 821.914 -4.94495 1.19801 0
M  V30 8380 H 821.312 -5.30562 -1.96266 0
M  V30 8381 H 819.869 -6.23585 -1.89698 0
M  V30 8382 N 823.302 -0.75937 -1.38099 0
M  V30 8383 C 824.527 -0.327859 -2.04792 0
M  V30 8384 C 824.952 1.03752 -1.56899 0
M  V30 8385 O 824.31 1.66235 -0.723581 0
M  V30 8386 C 824.358 -0.366264 -3.58735 0
M  V30 8387 O 823.462 0.637697 -4.0744 0
M  V30 8388 H 822.803 -0.144092 -0.648177 0
M  V30 8389 H 825.333 -1.03211 -1.7666 0
M  V30 8390 H 825.343 -0.219179 -4.07411 0
M  V30 8391 H 824.018 -1.36243 -3.92951 0
M  V30 8392 H 822.595 0.454749 -3.70117 0
M  V30 8393 N 824.78 1.49157 -0.508906 0
M  V30 8394 C 825.71 2.32109 0.254469 0
M  V30 8395 C 826.691 1.40754 0.955111 0
M  V30 8396 O 827.876 1.69658 0.944983 0
M  V30 8397 C 825.006 3.21458 1.3146 0
M  V30 8398 C 823.96 4.2167 0.733368 0
M  V30 8399 C 823.286 5.00009 1.8946 0
M  V30 8400 C 824.586 5.21544 -0.280875 0
M  V30 8401 H 826.28 2.9618 -0.43795 0
M  V30 8402 H 823.826 1.4243 -0.212062 0
M  V30 8403 H 825.779 3.78305 1.85643 0
M  V30 8404 H 824.503 2.55346 2.03632 0
M  V30 8405 H 823.162 3.65979 0.213231 0
M  V30 8406 H 822.81 4.30338 2.60419 0
M  V30 8407 H 822.51 5.67821 1.51173 0
M  V30 8408 H 824.034 5.59702 2.44061 0
M  V30 8409 H 825.448 5.73039 0.173095 0
M  V30 8410 H 823.845 5.97291 -0.580006 0
M  V30 8411 H 824.915 4.69969 -1.19404 0
M  V30 8412 N 826.258 0.243083 1.55714 0
M  V30 8413 C 827.506 -0.381964 1.98458 0
M  V30 8414 C 827.827 -1.58745 1.13247 0
M  V30 8415 O 827.097 -1.94723 0.214384 0
M  V30 8416 H 825.677 -0.144114 0.732967 0
M  V30 8417 H 828.339 0.340985 1.91894 0
M  V30 8418 H 827.435 -0.693702 3.04293 0
M  V30 8419 N 827.736 -1.57571 -0.0300757 0
M  V30 8420 C 828.961 -1.93879 -0.736601 0
M  V30 8421 C 829.386 -0.842998 -1.68152 0
M  V30 8422 O 828.744 0.20135 -1.80178 0
M  V30 8423 C 828.792 -3.29247 -1.47066 0
M  V30 8424 O 827.896 -3.21426 -2.58378 0
M  V30 8425 H 827.237 -0.633735 -0.198181 0
M  V30 8426 H 829.767 -2.04595 0.0141485 0
M  V30 8427 H 829.777 -3.64113 -1.84081 0
M  V30 8428 H 828.452 -4.08565 -0.77764 0
M  V30 8429 H 827.029 -2.98189 -2.23914 0
M  V30 8430 N 829.214 0.302327 -1.54673 0
M  V30 8431 C 830.164 1.37443 -1.81916 0
M  V30 8432 C 831.148 1.45999 -0.676251 0
M  V30 8433 O 832.34 1.50174 -0.93685 0
M  V30 8434 C 829.469 2.73966 -2.06876 0
M  V30 8435 C 828.555 2.69637 -3.27348 0
M  V30 8436 N 828.946 2.34926 -4.47933 0
M  V30 8437 C 827.244 3.00742 -3.29348 0
M  V30 8438 C 827.945 2.39862 -5.29944 0
M  V30 8439 N 826.921 2.77163 -4.67634 0
M  V30 8440 H 830.723 1.09567 -2.72713 0
M  V30 8441 H 828.237 0.5109 -1.54154 0
M  V30 8442 H 830.234 3.51265 -2.2454 0
M  V30 8443 H 828.894 3.02754 -1.17346 0
M  V30 8444 H 829.905 2.07403 -4.74557 0
M  V30 8445 H 826.582 3.34434 -2.49921 0
M  V30 8446 H 827.972 2.15835 -6.3629 0
M  V30 8447 N 830.692 1.47107 0.565454 0
M  V30 8448 C 832.108 1.32443 0.890566 0
M  V30 8449 C 832.308 0.308735 1.99121 0
M  V30 8450 O 831.364 -0.28265 2.50913 0
M  V30 8451 C 832.677 2.71548 1.2916 0
M  V30 8452 C 834.225 2.7977 1.40349 0
M  V30 8453 C 834.7 4.19497 1.83811 0
M  V30 8454 N 836.191 4.21998 1.90975 0
M  V30 8455 C 836.926 5.2702 2.25916 0
M  V30 8456 N 836.422 6.42353 2.59527 0
M  V30 8457 N 838.215 5.14393 2.26619 0
M  V30 8458 H 830.366 2.11786 -0.161328 0
M  V30 8459 H 832.629 0.947952 -0.00950631 0
M  V30 8460 H 832.335 3.47265 0.556753 0
M  V30 8461 H 832.209 3.02782 2.24951 0
M  V30 8462 H 834.596 2.0433 2.12916 0
M  V30 8463 H 834.677 2.522 0.427655 0
M  V30 8464 H 834.321 4.95439 1.11816 0
M  V30 8465 H 834.251 4.44486 2.82382 0
M  V30 8466 H 836.742 3.38791 1.6742 0
M  V30 8467 H 837.055 7.18252 2.85191 0
M  V30 8468 H 835.4 6.45687 2.57126 0
M  V30 8469 H 838.591 4.2332 1.99794 0
M  V30 8470 H 838.764 5.96349 2.5352 0
M  V30 8471 N 832.17 -0.811516 1.35101 0
M  V30 8472 C 833.133 -1.90467 1.27495 0
M  V30 8473 C 834.133 -1.59703 0.187516 0
M  V30 8474 O 835.323 -1.68528 0.440896 0
M  V30 8475 C 832.455 -3.26774 0.971154 0
M  V30 8476 H 833.648 -1.98631 2.2469 0
M  V30 8477 H 831.201 -1.00681 1.19553 0
M  V30 8478 H 831.936 -3.243 0.0028557 0
M  V30 8479 H 831.721 -3.50488 1.75785 0
M  V30 8480 H 833.211 -4.06804 0.943414 0
M  V30 8481 N 833.648 -1.19017 -1.03309 0
M  V30 8482 C 834.578 -0.94772 -2.13402 0
M  V30 8483 C 835.559 0.117383 -1.69694 0
M  V30 8484 O 836.744 -0.0367733 -1.94165 0
M  V30 8485 C 833.874 -0.480977 -3.43953 0
M  V30 8486 C 832.828 -1.48743 -4.01322 0
M  V30 8487 C 832.154 -0.877924 -5.27443 0
M  V30 8488 C 833.454 -2.86642 -4.36616 0
M  V30 8489 H 835.148 -1.86846 -2.33942 0
M  V30 8490 H 832.694 -0.899781 -1.12427 0
M  V30 8491 H 834.647 -0.298677 -4.2034 0
M  V30 8492 H 833.371 0.475348 -3.23122 0
M  V30 8493 H 832.03 -1.65681 -3.27025 0
M  V30 8494 H 831.678 0.0858232 -5.02927 0
M  V30 8495 H 831.378 -1.54996 -5.66789 0
M  V30 8496 H 832.902 -0.706326 -6.06501 0
M  V30 8497 H 834.316 -2.73312 -5.03958 0
M  V30 8498 H 832.713 -3.50599 -4.87032 0
M  V30 8499 H 833.783 -3.39617 -3.46105 0
M  V30 8500 N 835.127 1.22348 -0.993418 0
M  V30 8501 C 836.355 1.95125 -0.688021 0
M  V30 8502 C 836.77 1.73377 0.747388 0
M  V30 8503 O 836.127 1.03317 1.50439 0
M  V30 8504 C 836.178 3.47819 -0.985097 0
M  V30 8505 O 835.899 3.68838 -2.3641 0
M  V30 8506 C 837.4 4.37779 -0.697474 0
M  V30 8507 H 834.62 0.62087 -0.254481 0
M  V30 8508 H 837.164 1.55485 -1.32833 0
M  V30 8509 H 835.319 3.85426 -0.390583 0
M  V30 8510 H 835.733 4.63032 -2.46377 0
M  V30 8511 H 837.207 5.43666 -0.955604 0
M  V30 8512 H 837.684 4.37651 0.368524 0
M  V30 8513 H 838.29 4.05799 -1.27306 0
M  V30 8514 N 836.605 0.766683 1.37694 0
M  V30 8515 C 837.835 0.339446 2.03792 0
M  V30 8516 C 838.243 -1.04153 1.57952 0
M  V30 8517 O 837.586 -1.67521 0.753826 0
M  V30 8518 C 837.648 0.29822 3.58261 0
M  V30 8519 C 837.312 1.62293 4.27212 0
M  V30 8520 C 838.309 2.57447 4.51682 0
M  V30 8521 C 835.994 1.89597 4.65143 0
M  V30 8522 C 837.988 3.78117 5.13134 0
M  V30 8523 C 835.675 3.10538 5.26317 0
M  V30 8524 C 836.673 4.04617 5.50249 0
M  V30 8525 O 836.361 5.23429 6.10145 0
M  V30 8526 H 836.093 0.140952 0.661142 0
M  V30 8527 H 838.647 1.04022 1.77111 0
M  V30 8528 H 836.877 -0.458897 3.83967 0
M  V30 8529 H 838.566 -0.101263 4.05774 0
M  V30 8530 H 839.332 2.37633 4.22795 0
M  V30 8531 H 835.211 1.17199 4.45854 0
M  V30 8532 H 838.755 4.51563 5.3173 0
M  V30 8533 H 834.652 3.3024 5.54628 0
M  V30 8534 H 835.42 5.24187 6.28626 0
M  V30 8535 N 838.083 -1.48885 0.516809 0
M  V30 8536 C 839.311 -2.06892 -0.0184017 0
M  V30 8537 C 839.726 -1.37511 -1.29368 0
M  V30 8538 O 839.083 -0.458409 -1.76649 0
M  V30 8539 C 839.134 -3.60566 -0.259673 0
M  V30 8540 O 838.855 -4.27338 0.965065 0
M  V30 8541 C 840.356 -4.35331 -0.836751 0
M  V30 8542 H 837.576 -0.670433 0.0275743 0
M  V30 8543 H 840.12 -1.91455 0.718689 0
M  V30 8544 H 838.275 -3.75653 -0.94678 0
M  V30 8545 H 838.689 -5.19287 0.737647 0
M  V30 8546 H 840.163 -5.43675 -0.955065 0
M  V30 8547 H 840.64 -3.9887 -1.83845 0
M  V30 8548 H 841.246 -4.2489 -0.186622 0
M  V30 8549 N 839.561 -0.251338 -1.55583 0
M  V30 8550 C 840.493 0.679167 -2.18906 0
M  V30 8551 C 841.506 1.13545 -1.16667 0
M  V30 8552 O 842.695 1.06146 -1.4351 0
M  V30 8553 C 839.795 1.93544 -2.78198 0
M  V30 8554 C 838.968 1.62987 -4.05899 0
M  V30 8555 C 838.027 2.73618 -4.49466 0
M  V30 8556 O 837.053 2.40815 -5.15749 0
M  V30 8557 N 838.255 4.03204 -4.1762 0
M  V30 8558 H 841.02 0.137328 -2.99385 0
M  V30 8559 H 838.581 -0.0714754 -1.61742 0
M  V30 8560 H 840.573 2.66804 -3.04299 0
M  V30 8561 H 839.143 2.38695 -2.0185 0
M  V30 8562 H 838.363 0.732237 -3.8734 0
M  V30 8563 H 839.651 1.40041 -4.89148 0
M  V30 8564 H 839.049 4.32686 -3.64416 0
M  V30 8565 H 837.606 4.72916 -4.48547 0
M  V30 8566 N 841.039 1.57585 0.0217189 0
M  V30 8567 C 842.264 1.94267 0.726309 0
M  V30 8568 C 842.689 0.851904 1.67703 0
M  V30 8569 O 842.047 -0.191792 1.80283 0
M  V30 8570 C 842.095 3.30023 1.45318 0
M  V30 8571 O 841.199 3.22791 2.5667 0
M  V30 8572 H 840.54 0.634777 0.194818 0
M  V30 8573 H 843.07 2.04585 -0.0249985 0
M  V30 8574 H 843.08 3.65084 1.82147 0
M  V30 8575 H 841.755 4.08972 0.755962 0
M  V30 8576 H 840.332 2.99373 2.2233 0
M  V30 8577 N 842.517 -0.29412 1.54831 0
M  V30 8578 C 843.48 -1.3461 1.85507 0
M  V30 8579 C 844.48 -1.43359 0.728343 0
M  V30 8580 O 845.67 -1.42875 0.996609 0
M  V30 8581 C 842.802 -2.73012 2.0415 0
M  V30 8582 H 843.995 -1.08651 2.79526 0
M  V30 8583 H 841.548 -0.531138 1.46999 0
M  V30 8584 H 842.283 -3.04183 1.12441 0
M  V30 8585 H 842.068 -2.68051 2.86166 0
M  V30 8586 H 843.558 -3.49061 2.29229 0
M  V30 8587 N 843.995 -1.47404 -0.557645 0
M  V30 8588 C 845.406 -1.47872 -1.13977 0
M  V30 8589 C 845.757 -0.233176 -1.94809 0
M  V30 8590 O 844.882 0.661945 -2.06027 0
M  V30 8591 C 845.477 -2.67926 -2.07368 0
M  V30 8592 C 844.036 -2.71354 -2.60852 0
M  V30 8593 C 843.183 -2.40967 -1.37223 0
M  V30 8594 H 846.134 -1.54921 -0.344268 0
M  V30 8595 H 846.155 -2.44871 -2.91236 0
M  V30 8596 H 845.667 -3.58562 -1.48509 0
M  V30 8597 H 843.768 -1.84855 -3.23511 0
M  V30 8598 H 843.881 -3.72032 -3.01876 0
M  V30 8599 H 842.245 -1.91541 -1.67882 0
M  V30 8600 H 843.028 -3.33811 -0.801583 0
M  V30 8601 N 845.473 0.80434 -1.35529 0
M  V30 8602 C 846.75 1.5486 -1.1949 0
M  V30 8603 C 847.13 2.09897 0.22506 0
M  V30 8604 O 846.478 1.92643 1.22886 0
M  V30 8605 C 846.688 2.65535 -2.26478 0
M  V30 8606 C 848.036 3.33814 -2.62399 0
M  V30 8607 O 849.06 2.75807 -2.25409 0
M  V30 8608 O 847.919 4.38612 -3.26009 0
M  V30 8609 H 845.013 0.68433 -0.464351 0
M  V30 8610 H 847.559 0.844107 -1.47217 0
M  V30 8611 H 846.331 2.22754 -3.21709 0
M  V30 8612 H 845.954 3.43617 -2.00033 0
M  V30 8613 N 846.951 1.19563 1.02676 0
M  V30 8614 C 847.881 0.959024 2.12897 0
M  V30 8615 C 848.862 -0.108382 1.69754 0
M  V30 8616 O 850.047 0.0470698 1.94143 0
M  V30 8617 C 847.177 0.499211 3.43693 0
M  V30 8618 C 846.131 1.5087 4.00528 0
M  V30 8619 C 845.457 0.905884 5.2697 0
M  V30 8620 C 846.757 2.88954 4.3509 0
M  V30 8621 H 848.451 1.88084 2.32948 0
M  V30 8622 H 845.997 0.905731 1.11949 0
M  V30 8623 H 847.95 0.320965 4.20176 0
M  V30 8624 H 846.674 -0.458205 3.2337 0
M  V30 8625 H 845.333 1.67413 3.26142 0
M  V30 8626 H 844.981 -0.0591506 5.02965 0
M  V30 8627 H 844.681 1.58 5.65959 0
M  V30 8628 H 846.205 0.73848 6.06118 0
M  V30 8629 H 847.619 2.75981 5.02501 0
M  V30 8630 H 846.016 3.53177 4.85166 0
M  V30 8631 H 847.086 3.41447 3.44299 0
M  V30 8632 N 848.429 -1.21819 0.999893 0
M  V30 8633 C 849.654 -1.95298 0.698094 0
M  V30 8634 C 850.079 -1.73273 -0.731982 0
M  V30 8635 O 849.437 -1.01634 -1.50134 0
M  V30 8636 C 849.485 -3.45922 1.01834 0
M  V30 8637 O 848.589 -4.12223 0.120801 0
M  V30 8638 H 847.93 -0.610729 0.260588 0
M  V30 8639 H 850.46 -1.5472 1.33876 0
M  V30 8640 H 850.47 -3.96471 0.963074 0
M  V30 8641 H 849.145 -3.61278 2.06037 0
M  V30 8642 H 847.722 -3.72177 0.232153 0
M  V30 8643 N 849.908 -0.773975 -1.37286 0
M  V30 8644 C 851.319 -0.404433 -1.82267 0
M  V30 8645 C 851.67 1.06971 -1.64474 0
M  V30 8646 O 850.795 1.82867 -1.15708 0
M  V30 8647 C 851.39 -0.727298 -3.30902 0
M  V30 8648 C 849.949 -0.410784 -3.74152 0
M  V30 8649 C 849.096 -0.969983 -2.59782 0
M  V30 8650 H 852.047 -0.968437 -1.25726 0
M  V30 8651 H 852.068 -0.0127575 -3.80498 0
M  V30 8652 H 851.58 -1.80026 -3.4382 0
M  V30 8653 H 849.681 0.65477 -3.66802 0
M  V30 8654 H 849.794 -0.920592 -4.70172 0
M  V30 8655 H 848.158 -0.394094 -2.51633 0
M  V30 8656 H 848.941 -2.04839 -2.75492 0
M  V30 8657 N 851.386 1.48609 -0.524698 0
M  V30 8658 C 852.318 2.27508 0.278 0
M  V30 8659 C 853.331 1.35042 0.909258 0
M  V30 8660 O 854.52 1.60136 0.788592 0
M  V30 8661 C 851.62 3.08247 1.40843 0
M  V30 8662 C 850.793 4.28455 0.880083 0
M  V30 8663 C 849.852 4.91048 1.891 0
M  V30 8664 O 848.878 5.5042 1.45005 0
M  V30 8665 N 850.08 4.82816 3.22288 0
M  V30 8666 H 852.845 2.97037 -0.398642 0
M  V30 8667 H 850.406 1.57876 -0.358698 0
M  V30 8668 H 852.398 3.46992 2.08276 0
M  V30 8669 H 850.968 2.41173 1.98883 0
M  V30 8670 H 850.188 3.94189 0.0299228 0
M  V30 8671 H 851.476 5.06279 0.505881 0
M  V30 8672 H 850.874 4.3572 3.60783 0
M  V30 8673 H 849.431 5.25676 3.85368 0
M  V30 8674 N 852.864 0.259585 1.55447 0
M  V30 8675 C 854.113 -0.362163 1.98422 0
M  V30 8676 C 854.426 -1.58135 1.1512 0
M  V30 8677 O 855.632 -2.27506 1.48166 0
M  V30 8678 C 854.088 -0.695722 3.53111 0
M  V30 8679 C 853.696 0.502784 4.4517 0
M  V30 8680 C 855.44 -1.28096 4.04712 0
M  V30 8681 C 853.347 0.144674 5.91223 0
M  V30 8682 H 852.277 -0.139092 0.74106 0
M  V30 8683 H 854.928 0.361798 1.79898 0
M  V30 8684 H 853.31 -1.47816 3.67378 0
M  V30 8685 H 854.484 1.27994 4.42667 0
M  V30 8686 H 852.799 1.0038 4.0412 0
M  V30 8687 H 855.396 -1.56243 5.11363 0
M  V30 8688 H 855.739 -2.20969 3.52815 0
M  V30 8689 H 856.272 -0.561146 3.93822 0
M  V30 8690 H 853.011 1.04087 6.47183 0
M  V30 8691 H 852.531 -0.596023 5.96831 0
M  V30 8692 H 854.21 -0.268651 6.46442 0
M  V30 8693 N 854.342 -1.57594 -0.0133615 0
M  V30 8694 C 855.272 -2.10611 -1.00823 0
M  V30 8695 C 856.253 -1.01217 -1.36708 0
M  V30 8696 O 857.438 -1.28827 -1.45318 0
M  V30 8697 C 854.568 -2.59844 -2.30431 0
M  V30 8698 C 853.522 -3.73644 -2.08745 0
M  V30 8699 C 852.848 -4.09141 -3.4425 0
M  V30 8700 C 854.148 -5.01454 -1.46086 0
M  V30 8701 H 855.842 -2.93985 -0.566849 0
M  V30 8702 H 853.388 -1.41423 -0.271219 0
M  V30 8703 H 855.341 -2.95557 -3.00373 0
M  V30 8704 H 854.065 -1.73573 -2.76658 0
M  V30 8705 H 852.724 -3.38303 -1.41232 0
M  V30 8706 H 852.372 -3.19914 -3.88155 0
M  V30 8707 H 852.072 -4.85802 -3.3056 0
M  V30 8708 H 853.596 -4.47402 -4.15528 0
M  V30 8709 H 855.01 -5.35024 -2.05966 0
M  V30 8710 H 853.407 -5.82832 -1.42924 0
M  V30 8711 H 854.477 -4.83003 -0.428471 0
M  V30 8712 N 855.82 0.285905 -1.54985 0
M  V30 8713 C 857.048 1.03776 -1.78992 0
M  V30 8714 C 857.463 1.80402 -0.556814 0
M  V30 8715 O 856.82 1.76242 0.473801 0
M  V30 8716 C 856.871 2.0065 -3.00702 0
M  V30 8717 O 856.592 1.27131 -4.19249 0
M  V30 8718 C 858.093 2.87753 -3.37214 0
M  V30 8719 H 855.313 0.307126 -0.596586 0
M  V30 8720 H 857.857 0.3206 -2.01971 0
M  V30 8721 H 856.012 2.67847 -2.79887 0
M  V30 8722 H 856.426 1.92316 -4.8797 0
M  V30 8723 H 857.9 3.51548 -4.2558 0
M  V30 8724 H 858.377 3.56848 -2.56039 0
M  V30 8725 H 858.983 2.26065 -3.60242 0
M  V30 8726 N 857.298 1.47698 0.54982 0
M  V30 8727 C 858.709 1.48474 1.13191 0
M  V30 8728 C 859.06 0.243504 1.94683 0
M  V30 8729 O 858.185 -0.651009 2.06375 0
M  V30 8730 C 858.78 2.69022 2.05944 0
M  V30 8731 C 857.339 2.72733 2.5941 0
M  V30 8732 C 856.486 2.41691 1.35944 0
M  V30 8733 H 859.437 1.55101 0.336048 0
M  V30 8734 H 859.458 2.46412 2.89934 0
M  V30 8735 H 858.97 3.59345 1.46605 0
M  V30 8736 H 857.071 1.86568 3.22526 0
M  V30 8737 H 857.184 3.73628 2.99899 0
M  V30 8738 H 855.548 1.92428 1.66864 0
M  V30 8739 H 856.331 3.34231 0.783869 0
M  V30 8740 N 858.776 -0.797141 1.35954 0
M  V30 8741 C 860.187 -1.37179 1.26644 0
M  V30 8742 C 860.538 -1.9596 -0.0971046 0
M  V30 8743 O 859.663 -1.91994 -0.998355 0
M  V30 8744 C 860.258 -2.49395 2.2932 0
M  V30 8745 C 858.817 -3.02697 2.23722 0
M  V30 8746 C 857.964 -1.75721 2.14517 0
M  V30 8747 H 860.915 -0.599407 1.46945 0
M  V30 8748 H 860.936 -3.28204 1.92515 0
M  V30 8749 H 860.448 -2.06584 3.2855 0
M  V30 8750 H 858.549 -3.49948 1.27934 0
M  V30 8751 H 858.662 -3.60036 3.16087 0
M  V30 8752 H 857.026 -1.97649 1.60646 0
M  V30 8753 H 857.809 -1.35049 3.15621 0
M  V30 8754 N 860.254 -1.20106 -1.0204 0
M  V30 8755 C 861.5 -1.01039 -1.75838 0
M  V30 8756 C 861.833 0.456819 -1.88751 0
M  V30 8757 O 861.108 1.33919 -1.41053 0
M  V30 8758 C 861.391 -1.69009 -3.17975 0
M  V30 8759 C 861.244 -3.2315 -3.1288 0
M  V30 8760 C 862.563 -1.42005 -4.16561 0
M  V30 8761 H 859.682 -0.368465 -0.638281 0
M  V30 8762 H 862.324 -1.48066 -1.19064 0
M  V30 8763 H 860.474 -1.29026 -3.66449 0
M  V30 8764 H 862.146 -3.72402 -2.72239 0
M  V30 8765 H 860.389 -3.54253 -2.50374 0
M  V30 8766 H 861.06 -3.65862 -4.13339 0
M  V30 8767 H 863.536 -1.76685 -3.76725 0
M  V30 8768 H 862.412 -1.92101 -5.14187 0
M  V30 8769 H 862.673 -0.346884 -4.40737 0
M  V30 8770 N 861.732 1.21287 -1.00634 0
M  V30 8771 C 862.981 1.89706 -0.685178 0
M  V30 8772 C 863.294 1.79044 0.787566 0
M  V30 8773 O 864.5 2.42502 1.22086 0
M  V30 8774 C 862.956 3.40176 -1.17508 0
M  V30 8775 C 862.564 3.59446 -2.674 0
M  V30 8776 C 864.308 4.14213 -0.928869 0
M  V30 8777 C 862.215 5.03688 -3.09923 0
M  V30 8778 H 861.145 0.710434 -0.252586 0
M  V30 8779 H 863.796 1.37277 -1.21768 0
M  V30 8780 H 862.178 3.91867 -0.570622 0
M  V30 8781 H 863.352 3.18188 -3.33306 0
M  V30 8782 H 861.667 2.98764 -2.9005 0
M  V30 8783 H 864.264 5.20546 -1.22212 0
M  V30 8784 H 864.607 4.16082 0.134859 0
M  V30 8785 H 865.14 3.68591 -1.49619 0
M  V30 8786 H 861.879 5.06968 -4.15529 0
M  V30 8787 H 861.399 5.45796 -2.4873 0
M  V30 8788 H 863.078 5.72204 -3.0198 0
M  V30 8789 N 863.21 0.781244 1.36873 0
M  V30 8790 C 864.45 0.355185 2.0129 0
M  V30 8791 C 864.814 -1.05115 1.6067 0
M  V30 8792 O 866.015 -1.57785 2.17618 0
M  V30 8793 C 864.286 0.504587 3.5382 0
M  V30 8794 S 865.845 0.165196 4.38489 0
M  V30 8795 H 862.663 0.136133 0.697846 0
M  V30 8796 H 865.265 1.01794 1.66908 0
M  V30 8797 H 863.969 1.52857 3.80871 0
M  V30 8798 H 863.5 -0.174392 3.93013 0
M  V30 8799 H 865.515 -1.03605 4.85263 0
M  V30 8800 N 864.689 -1.48329 0.532571 0
M  V30 8801 C 865.914 -2.074 0.00147755 0
M  V30 8802 C 866.339 -1.38615 -1.27151 0
M  V30 8803 O 865.697 -0.452949 -1.75551 0
M  V30 8804 C 865.745 -3.60029 -0.202866 0
M  V30 8805 O 864.849 -3.92327 -1.27097 0
M  V30 8806 H 864.19 -0.662777 0.0402883 0
M  V30 8807 H 866.72 -1.90701 0.741224 0
M  V30 8808 H 866.73 -4.05783 -0.424722 0
M  V30 8809 H 865.405 -4.09496 0.727033 0
M  V30 8810 H 863.982 -3.58348 -1.03156 0
M  V30 8811 N 866.167 -0.267825 -1.55308 0
M  V30 8812 C 867.392 0.357487 -2.04296 0
M  V30 8813 C 867.817 1.49222 -1.14518 0
M  V30 8814 O 867.175 1.80741 -0.142292 0
M  V30 8815 C 867.223 0.822899 -3.51085 0
M  V30 8816 O 866.327 1.93078 -3.6441 0
M  V30 8817 H 865.668 0.075025 -0.659748 0
M  V30 8818 H 868.198 -0.399996 -2.00652 0
M  V30 8819 H 868.208 1.12059 -3.92309 0
M  V30 8820 H 866.883 -0.0073562 -4.15899 0
M  V30 8821 H 865.46 1.63618 -3.35087 0
M  V30 8822 N 867.645 1.57599 0.00500368 0
M  V30 8823 C 868.885 1.92205 0.695456 0
M  V30 8824 C 869.249 0.868894 1.71214 0
M  V30 8825 O 870.45 1.10004 2.4526 0
M  V30 8826 C 868.721 3.31882 1.32625 0
M  V30 8827 S 870.28 3.88364 2.04252 0
M  V30 8828 H 867.098 0.672826 0.22984 0
M  V30 8829 H 869.7 1.95435 -0.0504824 0
M  V30 8830 H 868.404 4.06375 0.573396 0
M  V30 8831 H 867.935 3.32013 2.11023 0
M  V30 8832 H 869.95 3.69035 3.31704 0
M  V30 8833 N 869.123 -0.277682 1.55134 0
M  V30 8834 C 870.371 -1.00791 1.75173 0
M  V30 8835 C 870.692 -1.86987 0.553266 0
M  V30 8836 O 869.962 -1.91079 -0.43195 0
M  V30 8837 H 868.542 -0.375129 0.645978 0
M  V30 8838 H 871.204 -0.303041 1.9253 0
M  V30 8839 H 870.3 -1.64756 2.6507 0
M  V30 8840 N 870.601 -1.47988 -0.541979 0
M  V30 8841 C 872.017 -1.33843 -0.869383 0
M  V30 8842 C 872.217 -0.340374 -1.98604 0
M  V30 8843 O 871.273 0.242696 -2.51331 0
M  V30 8844 C 872.586 -2.73568 -1.24823 0
M  V30 8845 C 874.134 -2.81967 -1.3588 0
M  V30 8846 C 874.609 -4.22368 -1.77114 0
M  V30 8847 N 876.1 -4.24983 -1.84237 0
M  V30 8848 C 876.835 -5.30547 -2.17503 0
M  V30 8849 N 876.331 -6.46401 -2.49275 0
M  V30 8850 N 878.124 -5.17933 -2.18406 0
M  V30 8851 H 870.275 -2.11503 0.195001 0
M  V30 8852 H 872.538 -0.947681 0.0245862 0
M  V30 8853 H 872.244 -3.48107 -0.501435 0
M  V30 8854 H 872.118 -3.06322 -2.20106 0
M  V30 8855 H 874.505 -2.07692 -2.09638 0
M  V30 8856 H 874.586 -2.52848 -0.387478 0
M  V30 8857 H 874.23 -4.97155 -1.0392 0
M  V30 8858 H 874.16 -4.48922 -2.75275 0
M  V30 8859 H 876.651 -3.41411 -1.62009 0
M  V30 8860 H 876.964 -7.22698 -2.73729 0
M  V30 8861 H 875.309 -6.49696 -2.46821 0
M  V30 8862 H 878.5 -4.26445 -1.93034 0
M  V30 8863 H 878.673 -6.00307 -2.44 0
M  V30 8864 N 872.079 0.78992 -1.36375 0
M  V30 8865 C 873.49 1.36506 -1.2737 0
M  V30 8866 C 873.841 1.96008 0.086711 0
M  V30 8867 O 872.966 1.92521 0.988159 0
M  V30 8868 C 873.561 2.48175 -2.30639 0
M  V30 8869 C 872.12 3.01506 -2.25325 0
M  V30 8870 C 871.267 1.74581 -2.15445 0
M  V30 8871 H 874.218 0.591606 -1.47261 0
M  V30 8872 H 874.239 3.27179 -1.94253 0
M  V30 8873 H 873.751 2.04838 -3.2964 0
M  V30 8874 H 871.852 3.49265 -1.29788 0
M  V30 8875 H 871.965 3.58355 -3.17992 0
M  V30 8876 H 870.329 1.96794 -1.61692 0
M  V30 8877 H 871.112 1.33373 -3.16333 0
M  V30 8878 N 873.557 1.20646 1.01402 0
M  V30 8879 C 874.787 1.04238 1.78376 0
M  V30 8880 C 875.195 -0.411327 1.84675 0
M  V30 8881 O 874.538 -1.29734 1.30057 0
M  V30 8882 C 874.6 1.55349 3.24202 0
M  V30 8883 C 874.264 3.03684 3.41504 0
M  V30 8884 C 875.261 4.01318 3.30514 0
M  V30 8885 C 872.946 3.42698 3.67237 0
M  V30 8886 C 874.94 5.35956 3.45007 0
M  V30 8887 C 872.627 4.77491 3.81373 0
M  V30 8888 C 873.625 5.73929 3.70263 0
M  V30 8889 O 873.313 7.06277 3.83963 0
M  V30 8890 H 873.045 0.366978 0.567718 0
M  V30 8891 H 875.599 1.60235 1.28506 0
M  V30 8892 H 873.829 0.93739 3.75166 0
M  V30 8893 H 875.518 1.34921 3.8282 0
M  V30 8894 H 876.284 3.72522 3.10568 0
M  V30 8895 H 872.163 2.68175 3.74971 0
M  V30 8896 H 875.707 6.11212 3.36252 0
M  V30 8897 H 871.604 5.05977 4.00821 0
M  V30 8898 H 872.372 7.13561 4.00965 0
M  V30 8899 N 875.035 -1.20752 1.01276 0
M  V30 8900 C 876.26 -1.94547 0.718769 0
M  V30 8901 C 876.685 -1.7404 -0.713563 0
M  V30 8902 O 876.043 -1.03221 -1.49047 0
M  V30 8903 C 876.091 -3.44823 1.05497 0
M  V30 8904 O 875.195 -4.12072 0.164516 0
M  V30 8905 H 874.536 -0.607931 0.267051 0
M  V30 8906 H 877.066 -1.53292 1.35509 0
M  V30 8907 H 877.076 -3.95427 1.00507 0
M  V30 8908 H 875.751 -3.59072 2.09858 0
M  V30 8909 H 874.328 -3.71909 0.271615 0
M  V30 8910 N 876.513 -0.788492 -1.36457 0
M  V30 8911 C 877.445 -0.144208 -2.28746 0
M  V30 8912 C 878.458 0.646009 -1.49434 0
M  V30 8913 O 879.647 0.481344 -1.71888 0
M  V30 8914 C 876.747 0.818869 -3.28858 0
M  V30 8915 C 875.92 0.0789055 -4.37329 0
M  V30 8916 C 874.979 0.957791 -5.1741 0
M  V30 8917 O 874.005 0.415378 -5.67682 0
M  V30 8918 N 875.207 2.28216 -5.33758 0
M  V30 8919 H 877.972 -0.936949 -2.84678 0
M  V30 8920 H 875.533 -0.642317 -1.48613 0
M  V30 8921 H 877.525 1.41065 -3.79319 0
M  V30 8922 H 876.095 1.51249 -2.73573 0
M  V30 8923 H 875.315 -0.693939 -3.88044 0
M  V30 8924 H 876.603 -0.431753 -5.06965 0
M  V30 8925 H 876.001 2.747 -4.94527 0
M  V30 8926 H 874.558 2.8236 -5.87466 0
M  V30 8927 N 877.991 1.48044 -0.54043 0
M  V30 8928 C 879.239 2.02097 -0.0101367 0
M  V30 8929 C 879.56 1.41881 1.33771 0
M  V30 8930 O 878.83 0.587923 1.8687 0
M  V30 8931 H 877.41 0.747 -0.000758716 0
M  V30 8932 H 880.072 1.81639 -0.706634 0
M  V30 8933 H 879.168 3.11969 0.0904474 0
M  V30 8934 N 879.47 0.276058 1.55163 0
M  V30 8935 C 880.418 -0.626978 2.2399 0
M  V30 8936 C 881.412 -1.15708 1.23725 0
M  V30 8937 O 882.618 -1.1106 1.41653 0
M  V30 8938 H 878.993 -0.220742 0.718872 0
M  V30 8939 H 880.964 -0.0236569 2.98391 0
M  V30 8940 C 879.713 -1.79935 2.97521 0
M  V30 8941 H 879.036 -1.40064 3.74463 0
M  V30 8942 H 880.476 -2.40781 3.48999 0
M  V30 8943 C 878.935 -2.68838 2.03046 0
M  V30 8944 O 879.465 -3.69224 1.58229 0
M  V30 8945 N 877.671 -2.36028 1.69527 0
M  V30 8946 H 877.218 -1.54442 2.06169 0
M  V30 8947 H 877.176 -2.95782 1.06586 0
M  V30 8948 N 880.948 -1.576 0.00335426 0
M  V30 8949 C 882.359 -1.7875 -0.539008 0
M  V30 8950 C 882.71 -0.911097 -1.73763 0
M  V30 8951 O 881.835 -0.114476 -2.16097 0
M  V30 8952 C 882.43 -3.24177 -0.984611 0
M  V30 8953 C 880.989 -3.46412 -1.47226 0
M  V30 8954 C 880.136 -2.74024 -0.425004 0
M  V30 8955 H 883.087 -1.57032 0.229511 0
M  V30 8956 H 883.108 -3.32474 -1.85044 0
M  V30 8957 H 882.62 -3.87938 -0.112035 0
M  V30 8958 H 880.721 -2.8787 -2.36562 0
M  V30 8959 H 880.834 -4.55098 -1.49741 0
M  V30 8960 H 879.198 -2.38741 -0.887394 0
M  V30 8961 H 879.981 -3.40486 0.438662 0
M  V30 8962 N 882.426 0.269451 -1.5528 0
M  V30 8963 C 883.389 1.31642 -1.87625 0
M  V30 8964 C 884.389 1.42182 -0.751058 0
M  V30 8965 O 885.579 1.41272 -1.01921 0
M  V30 8966 C 882.711 2.6973 -2.08467 0
M  V30 8967 H 883.904 1.0419 -2.81219 0
M  V30 8968 H 881.457 0.507685 -1.47825 0
M  V30 8969 H 882.192 3.02356 -1.17266 0
M  V30 8970 H 881.977 2.63465 -2.90394 0
M  V30 8971 H 883.467 3.4537 -2.34753 0
M  V30 8972 N 883.904 1.48273 0.534124 0
M  V30 8973 C 885.181 1.46567 1.29528 0
M  V30 8974 C 885.561 0.17509 2.10373 0
M  V30 8975 O 884.909 -0.843228 2.12372 0
M  V30 8976 C 885.119 2.72519 2.18023 0
M  V30 8977 C 886.467 3.2068 2.78298 0
M  V30 8978 O 887.491 2.73408 2.28313 0
M  V30 8979 O 886.35 4.02924 3.69208 0
M  V30 8980 H 883.444 0.585151 0.584403 0
M  V30 8981 H 885.99 1.60502 0.551119 0
M  V30 8982 H 884.762 3.57965 1.5804 0
M  V30 8983 H 884.385 2.61285 2.99693 0
M  V30 8984 N 885.382 -0.782676 1.36792 0
M  V30 8985 C 886.292 -1.92679 1.33835 0
M  V30 8986 C 887.308 -1.72344 0.23952 0
M  V30 8987 O 888.484 -1.95766 0.473045 0
M  V30 8988 C 885.549 -3.27644 1.1336 0
M  V30 8989 C 884.61 -3.6071 2.32781 0
M  V30 8990 C 883.843 -4.89234 2.13273 0
M  V30 8991 O 884.066 -5.59468 1.11136 0
M  V30 8992 O 883 -5.21112 3.01208 0
M  V30 8993 H 886.826 -1.98124 2.30175 0
M  V30 8994 H 884.411 -0.923887 1.17408 0
M  V30 8995 H 886.293 -4.08394 1.03886 0
M  V30 8996 H 884.968 -3.23076 0.200868 0
M  V30 8997 H 883.875 -2.80238 2.47825 0
M  V30 8998 H 885.208 -3.70008 3.24584 0
M  V30 8999 N 886.86 -1.21182 -1.00761 0
M  V30 9000 C 888.271 -1.02652 -1.55947 0
M  V30 9001 C 888.622 0.414466 -1.91772 0
M  V30 9002 O 887.747 1.29727 -1.73204 0
M  V30 9003 C 888.342 -1.85713 -2.83366 0
M  V30 9004 C 886.901 -1.71523 -3.35048 0
M  V30 9005 C 886.048 -1.83087 -2.08265 0
M  V30 9006 H 888.999 -1.35242 -0.830379 0
M  V30 9007 H 889.02 -1.36583 -3.55141 0
M  V30 9008 H 888.532 -2.90584 -2.5726 0
M  V30 9009 H 886.633 -0.693257 -3.66094 0
M  V30 9010 H 886.746 -2.53333 -4.06644 0
M  V30 9011 H 885.11 -1.26367 -2.21141 0
M  V30 9012 H 885.893 -2.8946 -1.84575 0
M  V30 9013 N 888.338 1.20213 -1.01915 0
M  V30 9014 C 889.268 2.25336 -0.612023 0
M  V30 9015 C 890.249 1.65933 0.374186 0
M  V30 9016 O 891.434 1.92464 0.259053 0
M  V30 9017 C 888.564 3.47267 0.047904 0
M  V30 9018 C 887.518 4.1928 -0.859557 0
M  V30 9019 C 886.844 5.3466 -0.0652655 0
M  V30 9020 C 888.144 4.75143 -2.1688 0
M  V30 9021 H 889.838 2.59645 -1.49079 0
M  V30 9022 H 887.384 1.24808 -0.718263 0
M  V30 9023 H 889.337 4.19991 0.344294 0
M  V30 9024 H 888.061 3.12129 0.961404 0
M  V30 9025 H 886.72 3.48425 -1.13999 0
M  V30 9026 H 886.368 4.95767 0.849964 0
M  V30 9027 H 886.068 5.83772 -0.669618 0
M  V30 9028 H 887.592 6.10187 0.224612 0
M  V30 9029 H 889.006 5.39672 -1.9346 0
M  V30 9030 H 887.403 5.34702 -2.72422 0
M  V30 9031 H 888.473 3.93744 -2.83008 0
M  V30 9032 N 889.816 0.795718 1.36037 0
M  V30 9033 C 890.726 0.199784 2.33748 0
M  V30 9034 C 891.742 -0.651436 1.61345 0
M  V30 9035 O 892.918 -0.565743 1.93291 0
M  V30 9036 C 889.983 -0.650475 3.40543 0
M  V30 9037 C 889.044 0.219974 4.28736 0
M  V30 9038 C 888.277 -0.589798 5.30431 0
M  V30 9039 O 888.5 -1.82532 5.40406 0
M  V30 9040 O 887.434 0.0136187 6.01898 0
M  V30 9041 H 891.26 1.00782 2.8649 0
M  V30 9042 H 888.845 0.557293 1.38617 0
M  V30 9043 H 890.727 -1.13512 4.05824 0
M  V30 9044 H 889.402 -1.4363 2.9009 0
M  V30 9045 H 888.309 0.751516 3.66474 0
M  V30 9046 H 889.642 0.969468 4.82558 0
M  V30 9047 N 891.294 -1.47756 0.548274 0
M  V30 9048 C 892.71 -1.58247 0.207401 0
M  V30 9049 C 892.91 -1.54804 -1.28988 0
M  V30 9050 O 891.966 -1.44673 -2.06944 0
M  V30 9051 C 893.279 -2.89129 0.826142 0
M  V30 9052 C 894.827 -3.02695 0.79655 0
M  V30 9053 C 895.302 -4.36264 1.3942 0
M  V30 9054 N 896.793 -4.42877 1.35698 0
M  V30 9055 C 897.528 -5.44773 1.78913 0
M  V30 9056 N 897.024 -6.53528 2.29942 0
M  V30 9057 N 898.817 -5.35765 1.70038 0
M  V30 9058 H 890.968 -1.48236 1.52117 0
M  V30 9059 H 893.231 -0.704957 0.633829 0
M  V30 9060 H 892.937 -2.97358 1.87806 0
M  V30 9061 H 892.811 -3.75891 0.313916 0
M  V30 9062 H 895.198 -2.94067 -0.246655 0
M  V30 9063 H 895.279 -2.17496 1.34644 0
M  V30 9064 H 894.923 -4.45646 2.43642 0
M  V30 9065 H 894.853 -5.20179 0.819827 0
M  V30 9066 H 897.344 -3.64874 0.983623 0
M  V30 9067 H 897.657 -7.27441 2.60863 0
M  V30 9068 H 896.002 -6.54442 2.33947 0
M  V30 9069 H 899.193 -4.49699 1.29955 0
M  V30 9070 H 899.366 -6.1504 2.04035 0
M  V30 9071 N 892.772 -0.284283 -1.55015 0
M  V30 9072 C 893.997 0.335799 -2.04664 0
M  V30 9073 C 894.422 1.47999 -1.16094 0
M  V30 9074 O 893.78 1.8058 -0.161454 0
M  V30 9075 C 893.828 0.785615 -3.51938 0
M  V30 9076 O 892.932 1.89202 -3.66437 0
M  V30 9077 H 892.273 0.0680233 -0.660506 0
M  V30 9078 H 894.803 -0.421255 -2.00216 0
M  V30 9079 H 894.813 1.07892 -3.93476 0
M  V30 9080 H 893.488 -0.0514675 -4.15868 0
M  V30 9081 H 892.065 1.60055 -3.36804 0
M  V30 9082 N 894.251 1.57596 -0.0117121 0
M  V30 9083 C 895.499 1.90694 0.669342 0
M  V30 9084 C 895.82 0.886999 1.73659 0
M  V30 9085 O 895.09 -0.0739779 1.9576 0
M  V30 9086 H 893.67 0.703846 0.250219 0
M  V30 9087 H 896.332 1.94821 -0.0554057 0
M  V30 9088 H 895.428 2.90802 1.13316 0
M  V30 9089 N 895.729 -0.261212 1.5542 0
M  V30 9090 C 896.975 -0.992699 1.76843 0
M  V30 9091 C 897.308 -1.8551 0.574428 0
M  V30 9092 O 896.583 -1.89739 -0.427713 0
M  V30 9093 C 896.866 -1.86532 3.08022 0
M  V30 9094 C 896.719 -1.03206 4.378 0
M  V30 9095 C 898.038 -2.85036 3.35324 0
M  V30 9096 H 895.157 -0.359473 0.643388 0
M  V30 9097 H 897.799 -0.264214 1.88154 0
M  V30 9098 H 895.949 -2.48644 2.9851 0
M  V30 9099 H 897.621 -0.430743 4.59285 0
M  V30 9100 H 895.864 -0.335911 4.32497 0
M  V30 9101 H 896.535 -1.6761 5.25938 0
M  V30 9102 H 899.011 -2.3306 3.44706 0
M  V30 9103 H 897.887 -3.43226 4.28354 0
M  V30 9104 H 898.148 -3.60768 2.55537 0
M  V30 9105 N 897.207 -1.48554 -0.526253 0
M  V30 9106 C 898.17 -1.62868 -1.61266 0
M  V30 9107 C 899.17 -0.501762 -1.52771 0
M  V30 9108 O 900.36 -0.76764 -1.56374 0
M  V30 9109 C 897.492 -1.60238 -3.00893 0
M  V30 9110 H 898.685 -2.59742 -1.49913 0
M  V30 9111 H 896.238 -1.37207 -0.748595 0
M  V30 9112 H 896.973 -0.648545 -3.17749 0
M  V30 9113 H 896.758 -2.42054 -3.08468 0
M  V30 9114 H 898.248 -1.73455 -3.79872 0
M  V30 9115 N 898.685 0.775411 -1.37205 0
M  V30 9116 C 899.913 1.56446 -1.35397 0
M  V30 9117 C 900.328 1.887 0.0615437 0
M  V30 9118 O 899.685 1.51178 1.02233 0
M  V30 9119 C 899.736 2.87697 -2.18889 0
M  V30 9120 O 899.457 2.56828 -3.54924 0
M  V30 9121 C 900.958 3.81944 -2.25019 0
M  V30 9122 H 898.178 0.484792 -0.463916 0
M  V30 9123 H 900.722 0.961346 -1.80495 0
M  V30 9124 H 898.877 3.44442 -1.7731 0
M  V30 9125 H 899.291 3.40851 -3.98649 0
M  V30 9126 H 900.765 4.71055 -2.87769 0
M  V30 9127 H 901.242 4.20811 -1.25757 0
M  V30 9128 H 901.848 3.3113 -2.66895 0
M  V30 9129 N 900.163 1.21714 1.00117 0
M  V30 9130 C 901.579 0.97532 1.26332 0
M  V30 9131 C 901.779 -0.336029 1.98678 0
M  V30 9132 O 900.835 -1.06073 2.29139 0
M  V30 9133 C 902.148 2.16848 2.0832 0
M  V30 9134 C 903.696 2.21115 2.21533 0
M  V30 9135 C 904.171 3.3996 3.06906 0
M  V30 9136 N 905.662 3.40071 3.14494 0
M  V30 9137 C 906.397 4.28678 3.80818 0
M  V30 9138 N 905.893 5.2749 4.49139 0
M  V30 9139 N 907.686 4.16476 3.77497 0
M  V30 9140 H 899.837 2.06039 0.515897 0
M  V30 9141 H 902.1 0.902423 0.290408 0
M  V30 9142 H 901.806 3.119 1.62515 0
M  V30 9143 H 901.68 2.16226 3.09073 0
M  V30 9144 H 904.067 1.26616 2.66557 0
M  V30 9145 H 904.148 2.2578 1.20238 0
M  V30 9146 H 903.792 4.34755 2.62585 0
M  V30 9147 H 903.722 3.32534 4.08324 0
M  V30 9148 H 906.213 2.68563 2.65861 0
M  V30 9149 H 906.526 5.91397 4.97463 0
M  V30 9150 H 904.871 5.31412 4.47914 0
M  V30 9151 H 908.062 3.38539 3.23278 0
M  V30 9152 H 908.235 4.85739 4.28908 0
M  V30 9153 N 901.641 -1.19671 1.02551 0
M  V30 9154 C 902.869 -1.93233 0.739513 0
M  V30 9155 C 903.284 -1.75298 -0.701158 0
M  V30 9156 O 902.641 -1.07269 -1.47647 0
M  V30 9157 C 902.692 -3.45085 1.07697 0
M  V30 9158 O 902.413 -3.62441 2.46106 0
M  V30 9159 C 903.914 -4.35776 0.813298 0
M  V30 9160 H 901.134 -0.613905 0.270853 0
M  V30 9161 H 903.678 -1.51909 1.36909 0
M  V30 9162 H 901.833 -3.84255 0.492635 0
M  V30 9163 H 902.247 -4.56337 2.58567 0
M  V30 9164 H 903.721 -5.40941 1.09941 0
M  V30 9165 H 904.198 -4.38474 -0.252359 0
M  V30 9166 H 904.804 -4.02282 1.38021 0
M  V30 9167 N 903.119 -0.802921 -1.35613 0
M  V30 9168 C 904.53 -0.443004 -1.81368 0
M  V30 9169 C 904.881 1.03459 -1.66706 0
M  V30 9170 O 904.006 1.80372 -1.19561 0
M  V30 9171 C 904.601 -0.797324 -3.29284 0
M  V30 9172 C 903.16 -0.490055 -3.73196 0
M  V30 9173 C 902.307 -1.02487 -2.57666 0
M  V30 9174 H 905.258 -0.994888 -1.23643 0
M  V30 9175 H 905.279 -0.0934638 -3.80385 0
M  V30 9176 H 904.791 -1.87278 -3.39924 0
M  V30 9177 H 902.892 0.576818 -3.68108 0
M  V30 9178 H 903.005 -1.02012 -4.68114 0
M  V30 9179 H 901.369 -0.44738 -2.5074 0
M  V30 9180 H 902.152 -2.10636 -2.71085 0
M  V30 9181 N 904.597 1.47463 -0.556102 0
M  V30 9182 C 905.822 2.07371 -0.0344729 0
M  V30 9183 C 906.247 1.40621 1.2493 0
M  V30 9184 O 905.605 0.48082 1.74808 0
M  V30 9185 C 905.653 3.60306 0.145563 0
M  V30 9186 O 904.757 3.94299 1.20839 0
M  V30 9187 H 904.098 0.662052 -0.0508274 0
M  V30 9188 H 906.628 1.89498 -0.771469 0
M  V30 9189 H 906.638 4.06408 0.360112 0
M  V30 9190 H 905.313 4.08288 -0.792089 0
M  V30 9191 H 903.89 3.59944 0.97442 0
M  V30 9192 N 906.075 0.2925 1.54862 0
M  V30 9193 C 907.491 -0.0611461 1.59483 0
M  V30 9194 C 907.691 -1.53141 1.30958 0
M  V30 9195 O 906.747 -2.28291 1.07887 0
M  V30 9196 C 908.06 0.329143 2.98893 0
M  V30 9197 C 909.608 0.2772 3.1177 0
M  V30 9198 C 910.083 0.642185 4.53475 0
M  V30 9199 N 911.574 0.594396 4.5937 0
M  V30 9200 C 912.309 0.849385 5.67074 0
M  V30 9201 N 911.805 1.1699 6.82851 0
M  V30 9202 N 913.598 0.777016 5.56704 0
M  V30 9203 H 905.749 1.25079 1.71665 0
M  V30 9204 H 908.012 0.506516 0.80134 0
M  V30 9205 H 907.718 1.35233 3.24661 0
M  V30 9206 H 907.592 -0.321442 3.75828 0
M  V30 9207 H 909.979 -0.736725 2.85756 0
M  V30 9208 H 910.06 0.962289 2.3701 0
M  V30 9209 H 909.704 1.65388 4.80218 0
M  V30 9210 H 909.634 -0.0648831 5.2656 0
M  V30 9211 H 912.125 0.357256 3.76208 0
M  V30 9212 H 912.438 1.35067 7.60905 0
M  V30 9213 H 910.783 1.20785 6.84424 0
M  V30 9214 H 913.974 0.526333 4.65132 0
M  V30 9215 H 914.147 0.979113 6.4056 0
M  V30 9216 N 907.553 -1.57587 0.0200696 0
M  V30 9217 C 908.781 -1.95718 -0.670964 0
M  V30 9218 C 909.196 -0.896081 -1.6618 0
M  V30 9219 O 908.553 0.123037 -1.82085 0
M  V30 9220 C 908.604 -3.33904 -1.38529 0
M  V30 9221 O 908.325 -4.35943 -0.434167 0
M  V30 9222 C 909.826 -3.86614 -2.16898 0
M  V30 9223 H 907.046 -0.644819 -0.185606 0
M  V30 9224 H 909.59 -2.04354 0.0771495 0
M  V30 9225 H 907.745 -3.26515 -2.08487 0
M  V30 9226 H 908.159 -5.16001 -0.940378 0
M  V30 9227 H 909.633 -4.85673 -2.62346 0
M  V30 9228 H 910.11 -3.20379 -3.00423 0
M  V30 9229 H 910.716 -3.97243 -1.51916 0
M  V30 9230 N 909.032 0.252966 -1.55557 0
M  V30 9231 C 910.309 1.00432 -1.67847 0
M  V30 9232 C 910.689 2.03587 -0.55816 0
M  V30 9233 O 910.037 2.24239 0.439197 0
M  V30 9234 C 910.247 1.64313 -3.079 0
M  V30 9235 C 911.595 2.14726 -3.66303 0
M  V30 9236 O 912.619 1.74264 -3.10661 0
M  V30 9237 O 911.478 2.89 -4.63833 0
M  V30 9238 H 908.572 0.467102 -0.682455 0
M  V30 9239 H 911.118 0.247233 -1.67889 0
M  V30 9240 H 909.89 0.896681 -3.80888 0
M  V30 9241 H 909.513 2.46657 -3.11843 0
M  V30 9242 N 910.51 1.48831 0.518367 0
M  V30 9243 C 911.787 1.47933 1.27966 0
M  V30 9244 C 912.167 0.197393 2.10175 0
M  V30 9245 O 911.515 -0.820656 2.13255 0
M  V30 9246 C 911.725 2.74816 2.15121 0
M  V30 9247 C 913.073 3.23613 2.74881 0
M  V30 9248 O 914.097 2.75814 2.254 0
M  V30 9249 O 912.956 4.06818 3.64913 0
M  V30 9250 H 910.05 0.591316 0.578164 0
M  V30 9251 H 912.596 1.61077 0.534065 0
M  V30 9252 H 911.368 3.59621 1.54234 0
M  V30 9253 H 910.991 2.64449 2.96905 0
M  V30 9254 N 911.988 -0.768124 1.37614 0
M  V30 9255 C 913.216 -1.55726 1.36224 0
M  V30 9256 C 913.631 -1.8873 -0.0515357 0
M  V30 9257 O 912.988 -1.51718 -1.0143 0
M  V30 9258 C 913.039 -2.86533 2.20412 0
M  V30 9259 O 912.76 -2.54942 3.56281 0
M  V30 9260 C 914.261 -3.80745 2.27041 0
M  V30 9261 H 911.481 -0.482325 0.46648 0
M  V30 9262 H 914.025 -0.95176 1.81002 0
M  V30 9263 H 912.18 -3.43496 1.79134 0
M  V30 9264 H 912.594 -3.38732 4.00451 0
M  V30 9265 H 914.068 -4.69523 2.90263 0
M  V30 9266 H 914.545 -4.20138 1.27987 0
M  V30 9267 H 915.151 -3.2971 2.68647 0
M  V30 9268 N 913.466 -1.22244 -0.994698 0
M  V30 9269 C 914.429 -0.992308 -2.06606 0
M  V30 9270 C 915.429 0.0405872 -1.60749 0
M  V30 9271 O 916.619 -0.197737 -1.73074 0
M  V30 9272 C 913.751 -0.498499 -3.37236 0
M  V30 9273 H 914.944 -1.9429 -2.28455 0
M  V30 9274 H 912.497 -1.04087 -1.166 0
M  V30 9275 H 913.232 0.456531 -3.21071 0
M  V30 9276 H 913.017 -1.24367 -3.71854 0
M  V30 9277 H 914.507 -0.35768 -4.16065 0
M  V30 9278 N 914.944 1.19125 -1.03184 0
M  V30 9279 C 915.876 2.21914 -0.573294 0
M  V30 9280 C 916.889 1.5894 0.352397 0
M  V30 9281 O 918.078 1.77883 0.148318 0
M  V30 9282 C 915.178 3.38403 0.18355 0
M  V30 9283 C 914.351 4.3096 -0.747817 0
M  V30 9284 C 913.41 5.26188 -0.0358489 0
M  V30 9285 O 912.436 5.65321 -0.663388 0
M  V30 9286 N 913.638 5.67235 1.23387 0
M  V30 9287 H 916.403 2.61881 -1.45734 0
M  V30 9288 H 913.964 1.33821 -0.911231 0
M  V30 9289 H 915.956 3.99124 0.669468 0
M  V30 9290 H 914.526 2.97201 0.969043 0
M  V30 9291 H 913.746 3.67976 -1.41377 0
M  V30 9292 H 915.034 4.89708 -1.38071 0
M  V30 9293 H 914.432 5.37481 1.76439 0
M  V30 9294 H 912.989 6.30196 1.66423 0
M  V30 9295 N 916.422 0.810101 1.35185 0
M  V30 9296 C 917.668 0.392698 1.98962 0
M  V30 9297 C 918.001 -1.03835 1.64109 0
M  V30 9298 O 917.276 -1.721 0.9062 0
M  V30 9299 C 917.559 0.580349 3.55393 0
M  V30 9300 C 917.412 2.05658 4.00031 0
M  V30 9301 C 918.731 0.00822618 4.40099 0
M  V30 9302 H 915.85 0.144157 0.722764 0
M  V30 9303 H 918.492 1.02029 1.60281 0
M  V30 9304 H 916.642 0.0461106 3.88473 0
M  V30 9305 H 918.314 2.65348 3.77344 0
M  V30 9306 H 916.557 2.55174 3.50811 0
M  V30 9307 H 917.228 2.13875 5.08883 0
M  V30 9308 H 919.704 0.464517 4.13499 0
M  V30 9309 H 918.58 0.169414 5.48638 0
M  V30 9310 H 918.841 -1.08576 4.2856 0
M  V30 9311 N 917.9 -1.47166 0.563914 0
M  V30 9312 C 919.128 -2.06846 0.0474287 0
M  V30 9313 C 919.543 -1.41557 -1.24928 0
M  V30 9314 O 918.9 -0.514376 -1.75101 0
M  V30 9315 C 918.951 -3.6121 -0.144831 0
M  V30 9316 O 918.672 -4.24052 1.10053 0
M  V30 9317 C 920.173 -4.37773 -0.69783 0
M  V30 9318 H 917.393 -0.669217 0.0488896 0
M  V30 9319 H 919.937 -1.89072 0.779235 0
M  V30 9320 H 918.092 -3.78474 -0.82679 0
M  V30 9321 H 918.506 -5.16677 0.902481 0
M  V30 9322 H 919.98 -5.46438 -0.781616 0
M  V30 9323 H 920.457 -4.04517 -1.71063 0
M  V30 9324 H 921.063 -4.25269 -0.0513516 0
M  V30 9325 N 919.378 -0.300708 -1.54705 0
M  V30 9326 C 920.603 0.314073 -2.05008 0
M  V30 9327 C 921.028 1.46759 -1.17657 0
M  V30 9328 O 920.386 1.80398 -0.180598 0
M  V30 9329 C 920.434 0.748243 -3.52752 0
M  V30 9330 O 919.538 1.85305 -3.68424 0
M  V30 9331 H 918.879 0.0610139 -0.661191 0
M  V30 9332 H 921.409 -0.442467 -1.99758 0
M  V30 9333 H 921.419 1.03713 -3.94598 0
M  V30 9334 H 920.094 -0.095573 -4.1579 0
M  V30 9335 H 918.671 1.56473 -3.38483 0
M  V30 9336 N 920.856 1.57574 -0.0284266 0
M  V30 9337 C 922.133 1.83064 0.688979 0
M  V30 9338 C 922.513 0.91219 1.90374 0
M  V30 9339 O 921.861 -0.0323672 2.28477 0
M  V30 9340 C 922.071 3.32262 1.06785 0
M  V30 9341 C 923.419 3.98717 1.45978 0
M  V30 9342 O 924.443 3.36753 1.16085 0
M  V30 9343 O 923.302 5.07927 2.01673 0
M  V30 9344 H 920.396 0.7548 0.337944 0
M  V30 9345 H 922.942 1.69607 -0.0560555 0
M  V30 9346 H 921.714 3.90772 0.203235 0
M  V30 9347 H 921.337 3.50823 1.87107 0
M  V30 9348 N 922.334 -0.244713 1.55689 0
M  V30 9349 C 923.564 -0.988508 1.81417 0
M  V30 9350 C 923.972 -1.79362 0.602143 0
M  V30 9351 O 923.315 -1.78386 -0.438639 0
M  V30 9352 C 923.377 -1.97287 3.0053 0
M  V30 9353 C 923.041 -1.35448 4.36466 0
M  V30 9354 C 924.038 -0.755874 5.14376 0
M  V30 9355 C 921.723 -1.37319 4.83165 0
M  V30 9356 C 923.717 -0.184218 6.37134 0
M  V30 9357 C 921.404 -0.797681 6.05871 0
M  V30 9358 C 922.402 -0.204224 6.82695 0
M  V30 9359 O 922.09 0.362392 8.03083 0
M  V30 9360 H 921.822 -0.296412 0.607549 0
M  V30 9361 H 924.376 -0.272185 2.03589 0
M  V30 9362 H 922.606 -2.72756 2.74119 0
M  V30 9363 H 924.295 -2.58028 3.13331 0
M  V30 9364 H 925.061 -0.733912 4.79415 0
M  V30 9365 H 920.94 -1.8245 4.23359 0
M  V30 9366 H 924.484 0.279624 6.97039 0
M  V30 9367 H 920.381 -0.816978 6.40309 0
M  V30 9368 H 921.149 0.254467 8.18104 0
M  V30 9369 N 923.813 -1.49104 -0.510467 0
M  V30 9370 C 924.723 -1.67792 -1.6396 0
M  V30 9371 C 925.739 -0.560454 -1.64727 0
M  V30 9372 O 926.915 -0.833985 -1.83321 0
M  V30 9373 C 923.98 -1.73154 -3.00364 0
M  V30 9374 C 923.041 -2.9667 -3.10299 0
M  V30 9375 C 922.274 -3.01767 -4.40196 0
M  V30 9376 O 922.497 -2.1472 -5.28443 0
M  V30 9377 O 921.431 -3.94137 -4.54906 0
M  V30 9378 H 925.257 -2.63428 -1.51126 0
M  V30 9379 H 922.842 -1.32734 -0.685719 0
M  V30 9380 H 924.724 -1.79089 -3.81451 0
M  V30 9381 H 923.399 -0.806952 -3.1348 0
M  V30 9382 H 922.306 -2.96257 -2.28435 0
M  V30 9383 H 923.639 -3.88578 -3.02106 0
M  V30 9384 N 925.291 0.760815 -1.38019 0
M  V30 9385 C 926.519 1.55001 -1.37048 0
M  V30 9386 C 926.934 1.88754 0.0415261 0
M  V30 9387 O 926.291 1.52254 1.00624 0
M  V30 9388 C 926.342 2.8536 -2.21928 0
M  V30 9389 O 926.063 2.53049 -3.57628 0
M  V30 9390 C 927.564 3.79536 -2.29057 0
M  V30 9391 H 924.784 0.479844 -0.469032 0
M  V30 9392 H 927.328 0.942148 -1.81504 0
M  V30 9393 H 925.483 3.42542 -1.80953 0
M  V30 9394 H 925.897 3.36604 -4.02241 0
M  V30 9395 H 927.371 4.67977 -2.92749 0
M  V30 9396 H 927.848 4.19453 -1.30213 0
M  V30 9397 H 928.454 3.28281 -2.70392 0
M  V30 9398 N 926.769 1.22769 0.988202 0
M  V30 9399 C 927.717 0.999271 2.10041 0
M  V30 9400 C 928.711 -0.0591767 1.69297 0
M  V30 9401 O 929.917 0.0936653 1.79756 0
M  V30 9402 H 926.292 0.30599 0.686931 0
M  V30 9403 H 928.263 1.94294 2.26478 0
M  V30 9404 C 927.012 0.59873 3.42506 0
M  V30 9405 H 926.335 1.40487 3.74304 0
M  V30 9406 H 927.775 0.478353 4.21293 0
M  V30 9407 C 926.234 -0.692216 3.29712 0
M  V30 9408 O 926.764 -1.74342 3.61895 0
M  V30 9409 N 924.97 -0.665163 2.82885 0
M  V30 9410 H 924.517 0.190604 2.56894 0
M  V30 9411 H 924.475 -1.52917 2.74706 0
M  V30 9412 N 928.247 -1.18576 1.03814 0
M  V30 9413 C 929.195 -2.24166 0.620678 0
M  V30 9414 C 930.189 -1.65718 -0.351282 0
M  V30 9415 O 931.395 -1.78665 -0.218848 0
M  V30 9416 H 927.77 -0.729522 0.182487 0
M  V30 9417 H 929.741 -2.56686 1.52166 0
M  V30 9418 C 928.49 -3.477 -0.00307331 0
M  V30 9419 H 927.813 -3.92969 0.735874 0
M  V30 9420 H 929.253 -4.23214 -0.257988 0
M  V30 9421 C 927.712 -3.12757 -1.2524 0
M  V30 9422 O 928.242 -3.26261 -2.34344 0
M  V30 9423 N 926.448 -2.67104 -1.14471 0
M  V30 9424 H 925.995 -2.56316 -0.256873 0
M  V30 9425 H 925.953 -2.44096 -1.98153 0
M  V30 9426 N 929.725 -0.817259 -1.34754 0
M  V30 9427 C 930.673 -0.223352 -2.31525 0
M  V30 9428 C 931.667 0.632785 -1.57137 0
M  V30 9429 O 932.873 0.524757 -1.72181 0
M  V30 9430 H 929.248 -0.0534765 -0.750096 0
M  V30 9431 H 931.219 -1.05446 -2.79148 0
M  V30 9432 C 929.968 0.604784 -3.424 0
M  V30 9433 H 929.291 -0.0446664 -3.99775 0
M  V30 9434 H 930.731 0.986543 -4.12363 0
M  V30 9435 C 929.19 1.77478 -2.86362 0
M  V30 9436 O 929.72 2.87273 -2.8078 0
M  V30 9437 N 927.926 1.58971 -2.43263 0
M  V30 9438 H 927.473 0.696598 -2.48003 0
M  V30 9439 H 927.431 2.37408 -2.06119 0
M  V30 9440 N 931.203 1.46865 -0.571711 0
M  V30 9441 C 932.428 2.07323 -0.0564655 0
M  V30 9442 C 932.853 1.41938 1.23431 0
M  V30 9443 O 932.211 0.499334 1.74288 0
M  V30 9444 C 932.259 3.6044 0.107339 0
M  V30 9445 O 931.363 3.95558 1.1665 0
M  V30 9446 H 930.704 0.661475 -0.0578465 0
M  V30 9447 H 933.234 1.88669 -0.791524 0
M  V30 9448 H 933.244 4.06767 0.316987 0
M  V30 9449 H 931.919 4.07425 -0.835348 0
M  V30 9450 H 930.496 3.60957 0.936189 0
M  V30 9451 N 932.681 0.308908 1.54543 0
M  V30 9452 C 933.958 -0.351558 1.92415 0
M  V30 9453 C 934.338 -1.71061 1.23699 0
M  V30 9454 O 933.686 -2.25394 0.3755 0
M  V30 9455 C 933.896 -0.458357 3.45977 0
M  V30 9456 C 935.244 -0.725524 4.18355 0
M  V30 9457 O 936.268 -0.541859 3.52054 0
M  V30 9458 O 935.127 -1.07884 5.35745 0
M  V30 9459 H 932.221 -0.197957 0.802958 0
M  V30 9460 H 934.767 0.357548 1.65891 0
M  V30 9461 H 933.539 0.496723 3.88134 0
M  V30 9462 H 933.162 -1.21562 3.78561 0
M  V30 9463 N 934.159 -1.57557 0.0367827 0
M  V30 9464 C 935.384 -1.96828 -0.653707 0
M  V30 9465 C 935.809 -0.913559 -1.64425 0
M  V30 9466 O 935.167 0.124749 -1.8087 0
M  V30 9467 C 935.215 -3.35189 -1.32969 0
M  V30 9468 O 934.319 -3.32095 -2.44513 0
M  V30 9469 H 933.66 -0.64157 -0.171124 0
M  V30 9470 H 936.19 -2.04351 0.100912 0
M  V30 9471 H 936.2 -3.71593 -1.68472 0
M  V30 9472 H 934.875 -4.11496 -0.603654 0
M  V30 9473 H 933.452 -3.07418 -2.11065 0
M  V30 9474 N 935.637 0.236453 -1.55816 0
M  V30 9475 C 936.862 0.98449 -1.82545 0
M  V30 9476 C 937.287 1.77755 -0.615206 0
M  V30 9477 O 936.645 1.75982 0.435895 0
M  V30 9478 C 936.693 1.88973 -3.07118 0
M  V30 9479 O 935.797 2.98298 -2.84766 0
M  V30 9480 H 935.138 0.279577 -0.602273 0
M  V30 9481 H 937.668 0.254277 -2.03014 0
M  V30 9482 H 937.678 2.3024 -3.36829 0
M  V30 9483 H 936.353 1.30671 -3.94839 0
M  V30 9484 H 934.93 2.61085 -2.6625 0
M  V30 9485 N 937.115 1.49373 0.502552 0
M  V30 9486 C 938.392 1.49282 1.26389 0
M  V30 9487 C 938.772 0.219674 2.09954 0
M  V30 9488 O 938.12 -0.797991 2.14113 0
M  V30 9489 C 938.33 2.77083 2.12194 0
M  V30 9490 C 939.678 3.26511 2.71433 0
M  V30 9491 O 940.702 2.78189 2.22462 0
M  V30 9492 O 939.561 4.10665 3.60578 0
M  V30 9493 H 936.655 0.597415 0.57186 0
M  V30 9494 H 939.201 1.61634 0.516951 0
M  V30 9495 H 937.973 3.61237 1.50411 0
M  V30 9496 H 937.596 2.67583 2.94084 0
M  V30 9497 N 938.594 -0.753485 1.38421 0
M  V30 9498 C 939.843 -1.50797 1.33952 0
M  V30 9499 C 940.156 -1.95482 -0.0678464 0
M  V30 9500 O 941.362 -2.7048 -0.235078 0
M  V30 9501 C 939.818 -2.72393 2.35224 0
M  V30 9502 C 939.426 -2.34733 3.81582 0
M  V30 9503 C 941.17 -3.50281 2.39798 0
M  V30 9504 C 939.077 -3.52939 4.7454 0
M  V30 9505 H 938.007 -0.566211 0.497916 0
M  V30 9506 H 940.658 -0.823659 1.63976 0
M  V30 9507 H 939.04 -3.42806 1.98243 0
M  V30 9508 H 940.214 -1.71985 4.27502 0
M  V30 9509 H 938.529 -1.69978 3.80127 0
M  V30 9510 H 941.126 -4.38172 3.06447 0
M  V30 9511 H 941.469 -3.91444 1.41695 0
M  V30 9512 H 942.002 -2.86881 2.75579 0
M  V30 9513 H 938.741 -3.16843 5.73839 0
M  V30 9514 H 938.261 -4.1473 4.33312 0
M  V30 9515 H 939.94 -4.19519 4.92557 0
M  V30 9516 N 940.072 -1.23292 -0.981677 0
M  V30 9517 C 941.318 -1.06582 -1.72535 0
M  V30 9518 C 941.651 0.396538 -1.90108 0
M  V30 9519 O 940.926 1.29363 -1.45243 0
M  V30 9520 C 941.209 -1.7904 -3.12437 0
M  V30 9521 C 941.062 -3.32941 -3.02441 0
M  V30 9522 C 942.381 -1.55185 -4.11832 0
M  V30 9523 H 939.5 -0.388585 -0.626236 0
M  V30 9524 H 942.142 -1.51779 -1.14293 0
M  V30 9525 H 940.292 -1.40619 -3.62158 0
M  V30 9526 H 941.964 -3.80875 -2.60254 0
M  V30 9527 H 940.207 -3.62039 -2.38977 0
M  V30 9528 H 940.878 -3.78827 -4.0149 0
M  V30 9529 H 943.354 -1.88581 -3.70913 0
M  V30 9530 H 942.23 -2.08362 -5.07815 0
M  V30 9531 H 942.491 -0.486925 -4.3941 0
M  V30 9532 N 941.55 1.18024 -1.04442 0
M  V30 9533 C 942.482 2.21294 -0.596799 0
M  V30 9534 C 943.495 1.59305 0.33552 0
M  V30 9535 O 944.684 1.7803 0.129443 0
M  V30 9536 C 941.784 3.38578 0.147648 0
M  V30 9537 C 940.957 4.30143 -0.793484 0
M  V30 9538 C 940.016 5.2612 -0.0916561 0
M  V30 9539 O 939.042 5.64586 -0.72331 0
M  V30 9540 N 940.244 5.68512 1.17364 0
M  V30 9541 H 943.009 2.6032 -1.48504 0
M  V30 9542 H 940.57 1.32847 -0.925374 0
M  V30 9543 H 942.562 3.99812 0.627098 0
M  V30 9544 H 941.132 2.98212 0.937466 0
M  V30 9545 H 940.352 3.66456 -1.45272 0
M  V30 9546 H 941.64 4.88216 -1.43258 0
M  V30 9547 H 941.038 5.39322 1.70729 0
M  V30 9548 H 939.595 6.31925 1.5973 0
M  V30 9549 N 943.028 0.824394 1.34319 0
M  V30 9550 C 943.976 0.235628 2.31403 0
M  V30 9551 C 944.97 -0.624443 1.57471 0
M  V30 9552 O 946.176 -0.515618 1.72457 0
M  V30 9553 H 942.551 0.0574537 0.749802 0
M  V30 9554 H 944.522 1.06925 2.78585 0
M  V30 9555 C 943.271 -0.586617 3.42716 0
M  V30 9556 H 942.594 0.0658669 3.99746 0
M  V30 9557 H 944.034 -0.964661 4.1288 0
M  V30 9558 C 942.493 -1.75957 2.87299 0
M  V30 9559 O 943.023 -2.8578 2.82299 0
M  V30 9560 N 941.229 -1.57678 2.44102 0
M  V30 9561 H 940.776 -0.683436 2.48369 0
M  V30 9562 H 940.734 -2.36311 2.07375 0
M  V30 9563 N 944.506 -1.46559 0.579492 0
M  V30 9564 C 945.416 -2.34066 -0.15816 0
M  V30 9565 C 946.432 -1.49556 -0.88932 0
M  V30 9566 O 947.608 -1.82434 -0.853226 0
M  V30 9567 C 944.673 -3.26683 -1.161 0
M  V30 9568 C 943.734 -4.27092 -0.434855 0
M  V30 9569 C 942.967 -5.15283 -1.38992 0
M  V30 9570 O 943.19 -5.06345 -2.62623 0
M  V30 9571 O 942.124 -5.95099 -0.902253 0
M  V30 9572 H 945.95 -2.98488 0.560234 0
M  V30 9573 H 943.535 -1.45482 0.339918 0
M  V30 9574 H 945.417 -3.8383 -1.73932 0
M  V30 9575 H 944.092 -2.64862 -1.86091 0
M  V30 9576 H 942.999 -3.73641 0.185224 0
M  V30 9577 H 944.332 -4.9169 0.224031 0
M  V30 9578 N 945.984 -0.3171 -1.54377 0
M  V30 9579 C 947.261 0.341348 -1.92598 0
M  V30 9580 C 947.641 1.70402 -1.24605 0
M  V30 9581 O 946.989 2.25191 -0.387448 0
M  V30 9582 C 947.199 0.440003 -3.46215 0
M  V30 9583 C 948.547 0.703327 -4.18734 0
M  V30 9584 O 949.571 0.523181 -3.52337 0
M  V30 9585 O 948.43 1.05042 -5.3631 0
M  V30 9586 H 945.524 0.193696 -0.803997 0
M  V30 9587 H 948.07 -0.366341 -1.65699 0
M  V30 9588 H 946.842 -0.517299 -3.87866 0
M  V30 9589 H 946.465 1.19553 -3.792 0
M  V30 9590 N 947.462 1.57535 -0.0451378 0
M  V30 9591 C 948.372 2.14653 0.946646 0
M  V30 9592 C 949.388 1.10279 1.3459 0
M  V30 9593 O 950.564 1.42417 1.42405 0
M  V30 9594 C 947.629 2.67533 2.20515 0
M  V30 9595 C 946.69 3.86682 1.86481 0
M  V30 9596 C 945.923 4.37031 3.06332 0
M  V30 9597 O 946.146 3.86481 4.1951 0
M  V30 9598 O 945.08 5.28691 2.87697 0
M  V30 9599 H 948.906 2.99706 0.49091 0
M  V30 9600 H 946.491 1.48355 0.17641 0
M  V30 9601 H 948.373 3.01542 2.94365 0
M  V30 9602 H 947.048 1.85554 2.65238 0
M  V30 9603 H 945.955 3.57573 1.09966 0
M  V30 9604 H 947.288 4.69873 1.46562 0
M  V30 9605 N 948.94 -0.228186 1.55939 0
M  V30 9606 C 950.168 -0.970618 1.8272 0
M  V30 9607 C 950.583 -1.78212 0.623385 0
M  V30 9608 O 949.94 -1.77879 -0.408063 0
M  V30 9609 C 949.991 -1.89352 3.07942 0
M  V30 9610 O 949.712 -1.11483 4.23678 0
M  V30 9611 C 951.213 -2.75039 3.47661 0
M  V30 9612 H 948.433 -0.284772 0.607574 0
M  V30 9613 H 950.977 -0.245419 2.03022 0
M  V30 9614 H 949.132 -2.57275 2.89635 0
M  V30 9615 H 949.546 -1.74073 4.94772 0
M  V30 9616 H 951.02 -3.35511 4.38334 0
M  V30 9617 H 951.497 -3.471 2.69106 0
M  V30 9618 H 952.103 -2.1254 3.68384 0
M  V30 9619 N 950.418 -1.49637 -0.494624 0
M  V30 9620 C 951.328 -1.69522 -1.62172 0
M  V30 9621 C 952.344 -0.577894 -1.64123 0
M  V30 9622 O 953.52 -0.853382 -1.82426 0
M  V30 9623 C 950.585 -1.7633 -2.9851 0
M  V30 9624 C 949.646 -2.99944 -3.07135 0
M  V30 9625 C 948.879 -3.06419 -4.36971 0
M  V30 9626 O 949.102 -2.20312 -5.26136 0
M  V30 9627 O 948.036 -3.9894 -4.507 0
M  V30 9628 H 951.862 -2.65017 -1.48324 0
M  V30 9629 H 949.447 -1.33454 -0.671603 0
M  V30 9630 H 951.329 -1.83125 -3.7953 0
M  V30 9631 H 950.004 -0.840155 -3.12607 0
M  V30 9632 H 948.911 -2.98664 -2.2528 0
M  V30 9633 H 950.244 -3.9176 -2.97968 0
M  V30 9634 N 951.896 0.746133 -1.38819 0
M  V30 9635 C 953.136 1.51821 -1.36857 0
M  V30 9636 C 953.5 1.9196 0.0391461 0
M  V30 9637 O 954.701 2.68172 0.183689 0
M  V30 9638 C 952.972 2.73214 -2.3041 0
M  V30 9639 S 954.531 3.62995 -2.46536 0
M  V30 9640 H 951.349 0.51945 -0.485482 0
M  V30 9641 H 953.951 0.875244 -1.74813 0
M  V30 9642 H 952.655 2.41847 -3.31569 0
M  V30 9643 H 952.186 3.42449 -1.9363 0
M  V30 9644 H 954.201 4.66353 -1.69498 0
M  V30 9645 N 953.375 1.23811 0.975125 0
M  V30 9646 C 954.305 1.04846 2.08638 0
M  V30 9647 C 955.286 -0.0362859 1.70061 0
M  V30 9648 O 956.471 0.12937 1.93769 0
M  V30 9649 C 953.601 0.644534 3.41267 0
M  V30 9650 C 952.555 1.67722 3.93768 0
M  V30 9651 C 951.881 1.12857 5.22654 0
M  V30 9652 C 953.181 3.07147 4.22443 0
M  V30 9653 H 954.875 1.97795 2.24761 0
M  V30 9654 H 952.421 0.952397 1.08006 0
M  V30 9655 H 954.374 0.498887 4.18436 0
M  V30 9656 H 953.098 -0.320641 3.25022 0
M  V30 9657 H 951.757 1.81095 3.18748 0
M  V30 9658 H 951.405 0.154227 5.02764 0
M  V30 9659 H 951.105 1.81862 5.58749 0
M  V30 9660 H 952.629 0.994891 6.0244 0
M  V30 9661 H 954.043 2.97045 4.90344 0
M  V30 9662 H 952.44 3.73437 4.6975 0
M  V30 9663 H 953.51 3.55743 3.29507 0
M  V30 9664 N 954.853 -1.17469 1.05066 0
M  V30 9665 C 956.269 -1.39699 0.771769 0
M  V30 9666 C 956.469 -1.91253 -0.634382 0
M  V30 9667 O 955.525 -2.10334 -1.39699 0
M  V30 9668 C 956.838 -2.38886 1.82631 0
M  V30 9669 C 958.386 -2.52595 1.84838 0
M  V30 9670 C 958.861 -3.55054 2.89311 0
M  V30 9671 N 960.352 -3.6257 2.88266 0
M  V30 9672 C 961.087 -4.41603 3.65752 0
M  V30 9673 N 960.583 -5.24162 4.53019 0
M  V30 9674 N 962.376 -4.36464 3.54197 0
M  V30 9675 H 954.527 -0.823355 1.95792 0
M  V30 9676 H 956.79 -0.42432 0.847736 0
M  V30 9677 H 956.496 -2.08075 2.83545 0
M  V30 9678 H 956.37 -3.38371 1.66687 0
M  V30 9679 H 958.757 -2.82717 0.845888 0
M  V30 9680 H 958.838 -1.53188 2.04859 0
M  V30 9681 H 958.482 -3.2567 3.89745 0
M  V30 9682 H 958.412 -4.54162 2.66542 0
M  V30 9683 H 960.903 -3.03625 2.24989 0
M  V30 9684 H 961.216 -5.81646 5.0883 0
M  V30 9685 H 959.561 -5.23547 4.57081 0
M  V30 9686 H 962.752 -3.7102 2.85416 0
M  V30 9687 H 962.925 -4.97814 4.14832 0
M  V30 9688 N 956.331 -0.831506 -1.3388 0
M  V30 9689 C 957.241 -0.261688 -2.33136 0
M  V30 9690 C 958.257 0.608429 -1.63016 0
M  V30 9691 O 959.433 0.514297 -1.94723 0
M  V30 9692 C 956.498 0.559957 -3.42148 0
M  V30 9693 C 955.559 -0.333569 -4.28002 0
M  V30 9694 C 954.792 0.448956 -5.31808 0
M  V30 9695 O 955.015 1.6814 -5.45055 0
M  V30 9696 O 953.949 -0.173197 -6.01651 0
M  V30 9697 H 957.775 -1.08343 -2.83717 0
M  V30 9698 H 955.36 -0.593849 -1.3709 0
M  V30 9699 H 957.242 1.02712 -4.08691 0
M  V30 9700 H 955.917 1.35888 -2.93796 0
M  V30 9701 H 954.824 -0.848416 -3.64352 0
M  V30 9702 H 956.157 -1.09707 -4.79818 0
M  V30 9703 N 957.809 1.4625 -0.587256 0
M  V30 9704 C 959.22 1.85997 -0.161918 0
M  V30 9705 C 959.571 1.49025 1.27616 0
M  V30 9706 O 958.696 0.907282 1.96462 0
M  V30 9707 C 959.291 3.37582 -0.287077 0
M  V30 9708 C 957.85 3.76308 0.0834211 0
M  V30 9709 C 956.997 2.70259 -0.620932 0
M  V30 9710 H 959.948 1.3734 -0.795199 0
M  V30 9711 H 959.969 3.77379 0.486333 0
M  V30 9712 H 959.481 3.64459 -1.33383 0
M  V30 9713 H 957.582 3.55047 1.13013 0
M  V30 9714 H 957.695 4.78184 -0.296064 0
M  V30 9715 H 956.059 2.54628 -0.0607027 0
M  V30 9716 H 956.842 2.99975 -1.66942 0
M  V30 9717 N 959.287 0.325282 1.54207 0
M  V30 9718 C 960.217 -0.532574 2.27345 0
M  V30 9719 C 961.198 -1.11791 1.28206 0
M  V30 9720 O 962.383 -1.14272 1.57021 0
M  V30 9721 C 959.513 -1.69274 3.03255 0
M  V30 9722 C 958.467 -1.23662 4.09746 0
M  V30 9723 C 957.793 -2.48386 4.73506 0
M  V30 9724 C 959.093 -0.350244 5.21124 0
M  V30 9725 H 960.787 0.0775108 2.993 0
M  V30 9726 H 958.333 0.0387193 1.43948 0
M  V30 9727 H 960.286 -2.29917 3.53152 0
M  V30 9728 H 959.01 -2.32944 2.28921 0
M  V30 9729 H 957.669 -0.653106 3.60735 0
M  V30 9730 H 957.317 -3.10424 3.95786 0
M  V30 9731 H 957.017 -2.18558 5.45441 0
M  V30 9732 H 958.541 -3.09789 5.26178 0
M  V30 9733 H 959.955 -0.863011 5.66767 0
M  V30 9734 H 958.352 -0.14466 5.99926 0
M  V30 9735 H 959.422 0.618457 4.8094 0
M  V30 9736 N 960.765 -1.57509 0.0534917 0
M  V30 9737 C 962.181 -1.56696 -0.303067 0
M  V30 9738 C 962.381 -1.06135 -1.71282 0
M  V30 9739 O 961.437 -0.71899 -2.42047 0
M  V30 9740 C 962.75 -3.00421 -0.129418 0
M  V30 9741 C 964.298 -3.12358 -0.200346 0
M  V30 9742 C 964.773 -4.57967 -0.0551971 0
M  V30 9743 N 966.264 -4.63066 -0.111398 0
M  V30 9744 C 966.999 -5.73395 -0.0232344 0
M  V30 9745 N 966.495 -6.92701 0.11741 0
M  V30 9746 N 968.288 -5.62045 -0.078984 0
M  V30 9747 H 960.439 -1.88696 0.975064 0
M  V30 9748 H 962.702 -0.869072 0.378706 0
M  V30 9749 H 962.408 -3.41456 0.842653 0
M  V30 9750 H 962.282 -3.66563 -0.889476 0
M  V30 9751 H 964.669 -2.71221 -1.16289 0
M  V30 9752 H 964.75 -2.48891 0.590506 0
M  V30 9753 H 964.394 -4.9979 0.904034 0
M  V30 9754 H 964.324 -5.19443 -0.865223 0
M  V30 9755 H 966.815 -3.77263 -0.219256 0
M  V30 9756 H 967.128 -7.72597 0.177326 0
M  V30 9757 H 965.473 -6.94833 0.152526 0
M  V30 9758 H 968.664 -4.67725 -0.187434 0
M  V30 9759 H 968.837 -6.48 -0.00681731 0
M  V30 9760 N 962.243 0.219913 -1.56058 0
M  V30 9761 C 963.19 1.27254 -1.92549 0
M  V30 9762 C 964.16 1.46493 -0.782883 0
M  V30 9763 O 965.345 1.60035 -1.03892 0
M  V30 9764 C 962.485 2.61756 -2.24896 0
M  V30 9765 C 961.598 2.50302 -3.52098 0
M  V30 9766 C 960.733 3.77338 -3.73884 0
M  V30 9767 C 959.772 3.60613 -4.94595 0
M  V30 9768 N 958.909 4.79603 -5.12763 0
M  V30 9769 H 963.749 0.954352 -2.82305 0
M  V30 9770 H 961.286 0.459928 -1.39725 0
M  V30 9771 H 963.244 3.40082 -2.4166 0
M  V30 9772 H 961.874 2.91668 -1.38311 0
M  V30 9773 H 960.926 1.63401 -3.43517 0
M  V30 9774 H 962.238 2.33866 -4.40577 0
M  V30 9775 H 961.392 4.64108 -3.90754 0
M  V30 9776 H 960.131 3.96702 -2.83689 0
M  V30 9777 H 959.136 2.72228 -4.77674 0
M  V30 9778 H 960.361 3.42719 -5.86277 0
M  V30 9779 H 958.307 4.99277 -4.2551 0
M  V30 9780 H 958.224 4.65899 -5.95377 0
M  V30 9781 H 959.492 5.67794 -5.34069 0
M  V30 9782 N 963.721 1.49897 0.486681 0
M  V30 9783 C 964.684 1.67086 1.56891 0
M  V30 9784 C 965.684 0.54209 1.51387 0
M  V30 9785 O 966.874 0.80883 1.54284 0
M  V30 9786 C 964.006 1.68159 2.96539 0
M  V30 9787 H 965.199 2.63626 1.42974 0
M  V30 9788 H 962.752 1.39143 0.711954 0
M  V30 9789 H 963.487 0.732562 3.15918 0
M  V30 9790 H 963.272 2.50147 3.01942 0
M  V30 9791 H 964.762 1.83466 3.7514 0
M  V30 9792 N 965.199 -0.738761 1.39212 0
M  V30 9793 C 966.424 -1.5331 1.39681 0
M  V30 9794 C 966.849 -1.88098 -0.00768715 0
M  V30 9795 O 966.207 -1.51642 -0.993699 0
M  V30 9796 C 966.255 -2.79958 2.27279 0
M  V30 9797 O 965.359 -3.75727 1.70008 0
M  V30 9798 H 964.7 -0.463131 0.475821 0
M  V30 9799 H 967.23 -0.911768 1.83161 0
M  V30 9800 H 967.24 -3.28732 2.41659 0
M  V30 9801 H 965.915 -2.5397 3.29351 0
M  V30 9802 H 964.492 -3.34483 1.64851 0
M  V30 9803 N 966.677 -1.24326 -0.968545 0
M  V30 9804 C 967.64 -1.03591 -2.04454 0
M  V30 9805 C 968.64 0.0064809 -1.60799 0
M  V30 9806 O 969.83 -0.234404 -1.72616 0
M  V30 9807 C 966.962 -0.56992 -3.36102 0
M  V30 9808 H 968.155 -1.99092 -2.24282 0
M  V30 9809 H 965.708 -1.06537 -1.14366 0
M  V30 9810 H 966.443 0.388325 -3.21967 0
M  V30 9811 H 966.228 -1.32227 -3.69132 0
M  V30 9812 H 967.718 -0.445854 -4.15213 0
M  V30 9813 N 968.156 1.1691 -1.05688 0
M  V30 9814 C 969.396 1.88972 -0.779044 0
M  V30 9815 C 969.76 1.7949 0.681708 0
M  V30 9816 O 970.961 2.46418 1.07386 0
M  V30 9817 C 969.232 3.34737 -1.25242 0
M  V30 9818 S 970.791 4.24718 -1.10272 0
M  V30 9819 H 967.609 0.652349 -0.282776 0
M  V30 9820 H 970.211 1.41162 -1.35254 0
M  V30 9821 H 968.915 3.39175 -2.3106 0
M  V30 9822 H 968.446 3.87593 -0.673417 0
M  V30 9823 H 970.461 4.96191 -0.0299004 0
M  V30 9824 N 969.634 0.838594 1.33437 0
M  V30 9825 C 970.859 0.446701 2.02532 0
M  V30 9826 C 971.284 -0.944275 1.62681 0
M  V30 9827 O 970.642 -1.61733 0.81927 0
M  V30 9828 C 970.69 0.574794 3.55989 0
M  V30 9829 O 969.794 -0.399063 4.10465 0
M  V30 9830 H 969.135 0.181637 0.638674 0
M  V30 9831 H 971.665 1.13335 1.70342 0
M  V30 9832 H 971.675 0.456339 4.0544 0
M  V30 9833 H 970.35 1.58921 3.8434 0
M  V30 9834 H 968.927 -0.238187 3.72139 0
M  V30 9835 N 971.112 -1.45937 0.595003 0
M  V30 9836 C 972.34 -2.06698 0.091293 0
M  V30 9837 C 972.755 -1.44176 -1.21897 0
M  V30 9838 O 972.112 -0.551402 -1.73971 0
M  V30 9839 C 972.163 -3.61436 -0.0681801 0
M  V30 9840 O 971.884 -4.21622 1.19023 0
M  V30 9841 C 973.385 -4.39155 -0.604814 0
M  V30 9842 H 970.605 -0.668029 0.0630737 0
M  V30 9843 H 973.149 -1.87376 0.819165 0
M  V30 9844 H 971.304 -3.80143 -0.746324 0
M  V30 9845 H 971.718 -5.14647 1.01187 0
M  V30 9846 H 973.192 -5.47973 -0.665532 0
M  V30 9847 H 973.669 -4.08055 -1.62444 0
M  V30 9848 H 974.275 -4.25282 0.0388658 0
M  V30 9849 N 972.59 -0.333456 -1.54032 0
M  V30 9850 C 973.82 0.267425 -2.04862 0
M  V30 9851 C 974.228 1.45559 -1.20869 0
M  V30 9852 O 973.571 1.82197 -0.234478 0
M  V30 9853 C 973.633 0.755759 -3.51466 0
M  V30 9854 C 973.297 -0.311409 -4.55938 0
M  V30 9855 C 974.294 -1.15078 -5.07004 0
M  V30 9856 C 971.979 -0.462439 -5.00167 0
M  V30 9857 C 973.973 -2.12682 -6.0087 0
M  V30 9858 C 971.66 -1.44188 -5.93846 0
M  V30 9859 C 972.658 -2.27253 -6.44085 0
M  V30 9860 O 972.346 -3.23532 -7.35923 0
M  V30 9861 H 972.078 0.0572596 -0.673571 0
M  V30 9862 H 974.632 -0.480646 -1.99697 0
M  V30 9863 H 972.862 1.55491 -3.54062 0
M  V30 9864 H 974.551 1.27607 -3.8532 0
M  V30 9865 H 975.317 -1.04513 -4.73605 0
M  V30 9866 H 971.196 0.17424 -4.60671 0
M  V30 9867 H 974.74 -2.77555 -6.40007 0
M  V30 9868 H 970.637 -1.54813 -6.2666 0
M  V30 9869 H 971.405 -3.18886 -7.53826 0
M  V30 9870 N 974.068 1.57479 -0.061844 0
M  V30 9871 C 975.031 2.1104 0.894127 0
M  V30 9872 C 976.031 1.03227 1.23292 0
M  V30 9873 O 977.221 1.29256 1.16784 0
M  V30 9874 C 974.353 2.6035 2.20069 0
M  V30 9875 H 975.546 2.96807 0.429619 0
M  V30 9876 H 973.099 1.55181 0.18672 0
M  V30 9877 H 973.834 1.78008 2.71079 0
M  V30 9878 H 973.619 3.39146 1.9678 0
M  V30 9879 H 975.109 3.019 2.88525 0
M  V30 9880 N 975.546 -0.211634 1.56173 0
M  V30 9881 C 976.957 -0.777776 1.69728 0
M  V30 9882 C 977.308 -1.84566 0.66558 0
M  V30 9883 O 976.433 -2.15639 -0.181338 0
M  V30 9884 C 977.028 -1.41757 3.07718 0
M  V30 9885 C 975.587 -1.93098 3.23094 0
M  V30 9886 C 974.734 -0.794785 2.65666 0
M  V30 9887 H 977.685 0.0131839 1.58695 0
M  V30 9888 H 977.706 -2.28662 3.04128 0
M  V30 9889 H 977.218 -0.640114 3.82785 0
M  V30 9890 H 975.319 -2.73615 2.52914 0
M  V30 9891 H 975.432 -2.10414 4.30422 0
M  V30 9892 H 973.796 -1.20473 2.24407 0
M  V30 9893 H 974.579 -0.0298408 3.43287 0
M  V30 9894 N 977.024 -1.50153 -0.478725 0
M  V30 9895 C 977.934 -1.71232 -1.60364 0
M  V30 9896 C 978.95 -0.595269 -1.63501 0
M  V30 9897 O 980.126 -0.872683 -1.81511 0
M  V30 9898 C 977.191 -1.79487 -2.96623 0
M  V30 9899 C 976.252 -3.03185 -3.03937 0
M  V30 9900 C 975.485 -3.11036 -4.33696 0
M  V30 9901 O 975.708 -2.2588 -5.23769 0
M  V30 9902 O 974.642 -4.03698 -4.46443 0
M  V30 9903 H 978.468 -2.66575 -1.45505 0
M  V30 9904 H 976.053 -1.34158 -0.65741 0
M  V30 9905 H 977.935 -1.8714 -3.77567 0
M  V30 9906 H 976.61 -0.873264 -3.11698 0
M  V30 9907 H 975.517 -3.01036 -2.22099 0
M  V30 9908 H 976.85 -3.94898 -2.93796 0
M  V30 9909 N 978.502 0.731368 -1.39602 0
M  V30 9910 C 979.73 1.52059 -1.40305 0
M  V30 9911 C 980.145 1.888 0.00147921 0
M  V30 9912 O 979.502 1.54354 0.973715 0
M  V30 9913 C 979.553 2.80588 -2.27931 0
M  V30 9914 O 979.274 2.45406 -3.62915 0
M  V30 9915 C 980.775 3.74592 -2.37056 0
M  V30 9916 H 977.995 0.469787 -0.479104 0
M  V30 9917 H 980.539 0.903436 -1.83462 0
M  V30 9918 H 978.694 3.38626 -1.88178 0
M  V30 9919 H 979.108 3.27996 -4.09291 0
M  V30 9920 H 980.582 4.61662 -3.02609 0
M  V30 9921 H 981.059 4.16597 -1.39081 0
M  V30 9922 H 981.665 3.22471 -2.77295 0
M  V30 9923 N 979.98 1.24838 0.961938 0
M  V30 9924 C 980.913 0.989041 2.05653 0
M  V30 9925 C 981.891 -0.079199 1.62407 0
M  V30 9926 O 983.075 0.0589397 1.88408 0
M  V30 9927 C 980.202 0.493661 3.35083 0
M  V30 9928 C 979.248 1.55132 3.97286 0
M  V30 9929 S 980.081 3.13438 4.34185 0
M  V30 9930 C 981.237 2.65617 5.66744 0
M  V30 9931 H 981.47 1.91588 2.27335 0
M  V30 9932 H 979.003 1.08287 1.10061 0
M  V30 9933 H 980.961 0.214482 4.09939 0
M  V30 9934 H 979.622 -0.412559 3.11379 0
M  V30 9935 H 978.815 1.15525 4.90581 0
M  V30 9936 H 978.417 1.78081 3.28882 0
M  V30 9937 H 980.709 2.08788 6.44526 0
M  V30 9938 H 981.652 3.57524 6.11214 0
M  V30 9939 H 982.06 2.05853 5.25628 0
M  V30 9940 N 981.458 -1.16348 1.06306 0
M  V30 9941 C 982.391 -2.19667 0.618197 0
M  V30 9942 C 983.369 -1.58586 -0.359078 0
M  V30 9943 O 984.553 -1.86585 -0.268023 0
M  V30 9944 C 981.68 -3.3857 -0.0937091 0
M  V30 9945 C 980.726 -4.18139 0.840339 0
M  V30 9946 S 981.559 -4.81879 2.33565 0
M  V30 9947 C 982.715 -6.04161 1.63524 0
M  V30 9948 H 982.948 -2.57063 1.49352 0
M  V30 9949 H 980.481 -1.27141 0.876046 0
M  V30 9950 H 982.439 -4.07465 -0.498227 0
M  V30 9951 H 981.1 -2.9954 -0.94523 0
M  V30 9952 H 980.293 -5.03172 0.288781 0
M  V30 9953 H 979.895 -3.54739 1.18474 0
M  V30 9954 H 982.187 -6.70935 0.940904 0
M  V30 9955 H 983.13 -6.63866 2.46347 0
M  V30 9956 H 983.538 -5.53323 1.11778 0
M  V30 9957 N 982.937 -0.845659 -1.3299 0
M  V30 9958 C 984.184 -0.444653 -1.97558 0
M  V30 9959 C 984.512 0.997682 -1.66963 0
M  V30 9960 O 983.767 1.71349 -0.94541 0
M  V30 9961 C 984.066 -0.6201 -3.51979 0
M  V30 9962 C 983.732 -2.03155 -4.02541 0
M  V30 9963 C 982.394 -2.4176 -4.16059 0
M  V30 9964 C 984.746 -2.95317 -4.29462 0
M  V30 9965 C 982.074 -3.71818 -4.53837 0
M  V30 9966 C 984.426 -4.24863 -4.68694 0
M  V30 9967 C 983.09 -4.63416 -4.80419 0
M  V30 9968 H 982.36 -0.16271 -0.722915 0
M  V30 9969 H 985.007 -1.07399 -1.58549 0
M  V30 9970 H 983.312 0.092513 -3.91691 0
M  V30 9971 H 985.009 -0.290012 -3.9995 0
M  V30 9972 H 981.599 -1.72174 -3.92497 0
M  V30 9973 H 985.783 -2.66726 -4.18534 0
M  V30 9974 H 981.039 -4.01484 -4.61108 0
M  V30 9975 H 985.213 -4.96347 -4.8848 0
M  V30 9976 H 982.84 -5.6424 -5.09448 0
M  V30 9977 N 984.415 1.45619 -0.602734 0
M  V30 9978 C 985.345 2.33258 0.106342 0
M  V30 9979 C 986.326 1.46543 0.863664 0
M  V30 9980 O 987.511 1.75324 0.835175 0
M  V30 9981 C 984.641 3.29168 1.10751 0
M  V30 9982 C 983.595 4.25481 0.463717 0
M  V30 9983 C 982.921 5.11046 1.57278 0
M  V30 9984 C 984.221 5.18702 -0.61199 0
M  V30 9985 H 985.915 2.92795 -0.625423 0
M  V30 9986 H 983.461 1.40793 -0.302213 0
M  V30 9987 H 985.414 3.89346 1.61208 0
M  V30 9988 H 984.138 2.6778 1.8698 0
M  V30 9989 H 982.797 3.66595 -0.0199496 0
M  V30 9990 H 982.445 4.46029 2.32524 0
M  V30 9991 H 982.145 5.76286 1.14755 0
M  V30 9992 H 983.669 5.74091 2.07972 0
M  V30 9993 H 985.083 5.72979 -0.191686 0
M  V30 9994 H 983.48 5.92393 -0.958686 0
M  V30 9995 H 984.55 4.61424 -1.4905 0
M  V30 9996 N 985.893 0.34162 1.53853 0
M  V30 9997 C 987.17 -0.310664 1.93117 0
M  V30 9998 C 987.55 -1.68398 1.273 0
M  V30 9999 O 986.898 -2.24546 0.423225 0
M  V30 10000 C 987.108 -0.384867 3.46871 0
M  V30 10001 C 988.456 -0.636621 4.198 0
M  V30 10002 O 989.48 -0.467061 3.53125 0
M  V30 10003 O 988.339 -0.964962 5.37913 0
M  V30 10004 H 985.433 -0.180881 0.806977 0
M  V30 10005 H 987.979 0.392656 1.65095 0
M  V30 10006 H 986.751 0.57894 3.86994 0
M  V30 10007 H 986.374 -1.13505 3.81054 0
M  V30 10008 N 987.371 -1.57444 0.0701946 0
M  V30 10009 C 988.318 -2.12631 -0.897599 0
M  V30 10010 C 989.288 -1.03841 -1.29639 0
M  V30 10011 O 990.473 -1.31495 -1.38253 0
M  V30 10012 C 987.613 -2.6911 -2.16041 0
M  V30 10013 C 986.726 -3.9205 -1.8144 0
M  V30 10014 C 985.861 -4.36778 -3.02321 0
M  V30 10015 C 984.9 -5.52371 -2.63729 0
M  V30 10016 N 984.037 -5.92065 -3.77364 0
M  V30 10017 H 988.877 -2.95024 -0.420104 0
M  V30 10018 H 986.414 -1.45792 -0.195716 0
M  V30 10019 H 988.372 -2.99963 -2.89962 0
M  V30 10020 H 987.002 -1.89484 -2.61334 0
M  V30 10021 H 986.054 -3.67669 -0.975896 0
M  V30 10022 H 987.366 -4.76011 -1.49046 0
M  V30 10023 H 986.52 -4.69285 -3.84521 0
M  V30 10024 H 985.259 -3.51668 -3.37907 0
M  V30 10025 H 984.264 -5.19517 -1.7995 0
M  V30 10026 H 985.489 -6.39212 -2.29315 0
M  V30 10027 H 983.435 -5.09904 -4.12715 0
M  V30 10028 H 983.352 -6.70762 -3.48733 0
M  V30 10029 H 984.62 -6.29193 -4.60148 0
M  V30 10030 N 988.849 0.203349 -1.56283 0
M  V30 10031 C 990.26 0.768764 -1.70138 0
M  V30 10032 C 990.611 1.8421 -0.675358 0
M  V30 10033 O 989.736 2.15732 0.1699 0
M  V30 10034 C 990.331 1.40123 -3.08466 0
M  V30 10035 C 988.89 1.91382 -3.24114 0
M  V30 10036 C 988.037 0.780685 -2.66084 0
M  V30 10037 H 990.988 -0.0215997 -1.58685 0
M  V30 10038 H 991.009 2.27046 -3.05336 0
M  V30 10039 H 990.521 0.619805 -3.83119 0
M  V30 10040 H 988.622 2.7227 -2.54362 0
M  V30 10041 H 988.735 2.08128 -4.31531 0
M  V30 10042 H 987.099 1.19281 -2.25042 0
M  V30 10043 H 987.882 0.0116351 -3.43298 0
M  V30 10044 N 990.327 1.50405 0.470755 0
M  V30 10045 C 991.576 1.60652 1.21959 0
M  V30 10046 C 991.889 0.312521 1.93087 0
M  V30 10047 O 993.095 0.293901 2.69905 0
M  V30 10048 C 991.551 2.83581 2.21607 0
M  V30 10049 C 991.159 4.19858 1.5628 0
M  V30 10050 C 992.903 3.03173 2.9713 0
M  V30 10051 C 990.81 5.33974 2.54217 0
M  V30 10052 H 989.74 0.598264 0.458907 0
M  V30 10053 H 992.391 1.76836 0.490041 0
M  V30 10054 H 990.773 2.60957 2.97855 0
M  V30 10055 H 991.947 4.52738 0.85819 0
M  V30 10056 H 990.262 4.05873 0.930366 0
M  V30 10057 H 992.859 3.856 3.70428 0
M  V30 10058 H 993.202 2.14914 3.56536 0
M  V30 10059 H 993.735 3.2598 2.27995 0
M  V30 10060 H 990.474 6.24388 1.99549 0
M  V30 10061 H 989.994 5.05511 3.22829 0
M  V30 10062 H 991.673 5.64561 3.16039 0
M  V30 10063 N 991.805 -0.723954 1.39988 0
M  V30 10064 C 992.735 -1.85103 1.42335 0
M  V30 10065 C 993.716 -1.6769 0.285297 0
M  V30 10066 O 994.901 -1.87846 0.492716 0
M  V30 10067 C 992.031 -3.22972 1.27697 0
M  V30 10068 C 990.985 -3.55041 2.39018 0
M  V30 10069 C 990.311 -4.91965 2.09462 0
M  V30 10070 C 991.611 -3.56889 3.8135 0
M  V30 10071 H 993.305 -1.83396 2.36656 0
M  V30 10072 H 990.851 -0.880926 1.13911 0
M  V30 10073 H 992.804 -4.01503 1.27958 0
M  V30 10074 H 991.528 -3.25233 0.298487 0
M  V30 10075 H 990.187 -2.78845 2.37993 0
M  V30 10076 H 989.835 -4.90819 1.10025 0
M  V30 10077 H 989.535 -5.14389 2.84038 0
M  V30 10078 H 991.059 -5.7284 2.11391 0
M  V30 10079 H 992.473 -4.25476 3.84243 0
M  V30 10080 H 990.87 -3.90836 4.55376 0
M  V30 10081 H 991.94 -2.56452 4.11534 0
M  V30 10082 N 993.283 -1.25346 -0.955304 0
M  V30 10083 C 994.246 -1.05754 -2.03344 0
M  V30 10084 C 995.246 -0.0105743 -1.60797 0
M  V30 10085 O 996.436 -0.252699 -1.72357 0
M  V30 10086 C 993.568 -0.605536 -3.35479 0
M  V30 10087 H 994.761 -2.01459 -2.22158 0
M  V30 10088 H 992.314 -1.07744 -1.1323 0
M  V30 10089 H 993.049 0.354154 -3.2236 0
M  V30 10090 H 992.834 -1.36134 -3.67709 0
M  V30 10091 H 994.324 -0.489867 -4.14717 0
M  V30 10092 N 994.761 1.15782 -1.06922 0
M  V30 10093 C 996.172 1.68062 -0.813144 0
M  V30 10094 C 996.523 1.84681 0.662374 0
M  V30 10095 O 995.648 1.54696 1.51321 0
M  V30 10096 C 996.243 3.05273 -1.46949 0
M  V30 10097 C 994.802 3.54647 -1.26104 0
M  V30 10098 C 993.949 2.30477 -1.54194 0
M  V30 10099 H 996.9 1.00056 -1.23185 0
M  V30 10100 H 996.921 3.69986 -0.888308 0
M  V30 10101 H 996.433 2.93145 -2.54337 0
M  V30 10102 H 994.534 3.72024 -0.20718 0
M  V30 10103 H 994.647 4.36354 -1.97819 0
M  V30 10104 H 993.011 2.35803 -0.96276 0
M  V30 10105 H 993.794 2.2094 -2.62755 0
M  V30 10106 N 996.239 0.8527 1.3254 0
M  V30 10107 C 997.149 0.298744 2.3269 0
M  V30 10108 C 998.165 -0.582418 1.63963 0
M  V30 10109 O 999.341 -0.483253 1.95516 0
M  V30 10110 C 996.406 -0.505453 3.42996 0
M  V30 10111 C 995.467 0.401618 4.27417 0
M  V30 10112 C 994.7 -0.364294 5.32455 0
M  V30 10113 O 994.923 -1.59448 5.47661 0
M  V30 10114 O 993.857 0.268892 6.01299 0
M  V30 10115 H 997.683 1.12843 2.81958 0
M  V30 10116 H 995.268 0.615584 1.36128 0
M  V30 10117 H 997.15 -0.961974 4.10273 0
M  V30 10118 H 995.825 -1.31197 2.95921 0
M  V30 10119 H 994.732 0.906274 3.62957 0
M  V30 10120 H 996.065 1.17327 4.78012 0
M  V30 10121 N 997.718 -1.45297 0.610449 0
M  V30 10122 C 999.129 -1.85715 0.191488 0
M  V30 10123 C 999.48 -1.51036 -1.25229 0
M  V30 10124 O 998.605 -0.938422 -1.94994 0
M  V30 10125 C 999.2 -3.37082 0.340747 0
M  V30 10126 C 997.759 -3.76393 -0.0235433 0
M  V30 10127 C 996.906 -2.69237 0.663849 0
M  V30 10128 H 999.857 -1.36058 0.816948 0
M  V30 10129 H 999.878 -3.78105 -0.426233 0
M  V30 10130 H 999.39 -3.62291 1.39164 0
M  V30 10131 H 997.491 -3.56801 -1.07351 0
M  V30 10132 H 997.604 -4.77653 0.372102 0
M  V30 10133 H 995.968 -2.54499 0.101204 0
M  V30 10134 H 996.751 -2.97281 1.71694 0
M  V30 10135 N 999.196 -0.349774 -1.5367 0
M  V30 10136 C 1000.13 0.496338 -2.28164 0
M  V30 10137 C 1001.11 1.09737 -1.29968 0
M  V30 10138 O 1002.29 1.11759 -1.58819 0
M  V30 10139 C 999.422 1.64428 -3.0591 0
M  V30 10140 C 998.376 1.17127 -4.11661 0
M  V30 10141 C 997.702 2.40822 -4.77398 0
M  V30 10142 C 999.002 0.267293 -5.21616 0
M  V30 10143 H 1000.7 -0.125117 -2.99138 0
M  V30 10144 H 998.242 -0.0616152 -1.43868 0
M  V30 10145 H 1000.19 2.2427 -3.56765 0
M  V30 10146 H 998.919 2.29272 -2.32598 0
M  V30 10147 H 997.578 0.595634 -3.61729 0
M  V30 10148 H 997.226 3.04088 -4.00674 0
M  V30 10149 H 996.926 2.09852 -5.48849 0
M  V30 10150 H 998.45 3.01378 -5.3104 0
M  V30 10151 H 999.864 0.772734 -5.68068 0
M  V30 10152 H 998.261 0.0491991 -6.0008 0
M  V30 10153 H 999.331 -0.694892 -4.79895 0
M  V30 10154 N 1000.67 1.57404 -0.0785433 0
M  V30 10155 C 1001.92 1.94031 0.589896 0
M  V30 10156 C 1002.25 0.959297 1.68852 0
M  V30 10157 O 1001.53 -0.0103978 1.94497 0
M  V30 10158 C 1001.81 3.40886 1.16055 0
M  V30 10159 C 1001.66 4.49748 0.0681072 0
M  V30 10160 C 1002.98 3.88699 2.06401 0
M  V30 10161 H 1000.1 0.70556 0.212965 0
M  V30 10162 H 1002.74 1.89439 -0.145886 0
M  V30 10163 H 1000.89 3.4493 1.78761 0
M  V30 10164 H 1002.57 4.57823 -0.565318 0
M  V30 10165 H 1000.81 4.29625 -0.600431 0
M  V30 10166 H 1001.48 5.49658 0.507906 0
M  V30 10167 H 1003.96 3.86703 1.53622 0
M  V30 10168 H 1002.83 4.92052 2.43261 0
M  V30 10169 H 1003.09 3.2703 2.97496 0
M  V30 10170 N 1002.15 -0.195058 1.56388 0
M  V30 10171 C 1003.08 -1.26978 1.8961 0
M  V30 10172 C 1004.06 -1.43946 0.756199 0
M  V30 10173 O 1005.25 -1.59335 1.0072 0
M  V30 10174 C 1002.37 -2.63638 2.12632 0
M  V30 10175 C 1001.42 -2.6354 3.35334 0
M  V30 10176 S 1002.25 -2.1497 4.90457 0
M  V30 10177 C 1003.41 -3.53454 5.16547 0
M  V30 10178 H 1003.64 -0.986091 2.8047 0
M  V30 10179 H 1001.17 -0.398552 1.49167 0
M  V30 10180 H 1003.13 -3.42304 2.26579 0
M  V30 10181 H 1001.79 -2.89218 1.22522 0
M  V30 10182 H 1000.99 -3.64027 3.48569 0
M  V30 10183 H 1000.59 -1.92956 3.20381 0
M  V30 10184 H 1002.88 -4.49318 5.0707 0
M  V30 10185 H 1003.82 -3.45113 6.18306 0
M  V30 10186 H 1004.23 -3.48368 4.44185 0
M  V30 10187 N 1003.63 -1.50653 -0.462772 0
M  V30 10188 C 1004.91 -1.5258 -1.22387 0
M  V30 10189 C 1005.29 -0.275263 -2.09298 0
M  V30 10190 O 1004.63 0.740943 -2.16153 0
M  V30 10191 C 1004.84 -2.82611 -2.04773 0
M  V30 10192 C 1006.19 -3.33592 -2.62681 0
M  V30 10193 O 1007.22 -2.83989 -2.15008 0
M  V30 10194 O 1006.08 -4.20081 -3.49563 0
M  V30 10195 H 1003.17 -0.612367 -0.55582 0
M  V30 10196 H 1005.72 -1.62948 -0.473914 0
M  V30 10197 H 1004.49 -3.65098 -1.40781 0
M  V30 10198 H 1004.11 -2.75286 -2.86886 0
M  V30 10199 N 1005.11 0.71652 -1.4037 0
M  V30 10200 C 1006.06 1.85194 -1.40734 0
M  V30 10201 C 1007.05 1.66934 -0.287969 0
M  V30 10202 O 1008.26 1.74051 -0.458957 0
M  V30 10203 H 1004.63 0.609922 -0.439885 0
M  V30 10204 H 1006.6 1.82003 -2.36468 0
M  V30 10205 C 1005.35 3.23048 -1.28589 0
M  V30 10206 H 1004.67 3.37704 -2.13999 0
M  V30 10207 H 1006.11 4.02633 -1.32902 0
M  V30 10208 C 1004.57 3.369 0.00396512 0
M  V30 10209 O 1005.1 3.89881 0.967243 0
M  V30 10210 N 1003.31 2.90508 0.0731565 0
M  V30 10211 H 1002.86 2.4758 -0.711454 0
M  V30 10212 H 1002.81 3.00155 0.935652 0
M  V30 10213 N 1006.59 1.25851 0.948643 0
M  V30 10214 C 1007.52 1.09248 2.06367 0
M  V30 10215 C 1008.5 -0.000205168 1.701 0
M  V30 10216 O 1009.68 0.170442 1.93451 0
M  V30 10217 C 1006.81 0.716777 3.39823 0
M  V30 10218 C 1005.77 1.76036 3.90122 0
M  V30 10219 C 1005.09 1.23918 5.20143 0
M  V30 10220 C 1006.39 3.16039 4.15833 0
M  V30 10221 H 1008.09 2.02518 2.20515 0
M  V30 10222 H 1005.63 0.975093 1.05962 0
M  V30 10223 H 1007.59 0.587531 4.17284 0
M  V30 10224 H 1006.31 -0.251626 3.25629 0
M  V30 10225 H 1004.97 1.87815 3.14835 0
M  V30 10226 H 1004.62 0.260836 5.02323 0
M  V30 10227 H 1004.32 1.93673 5.54765 0
M  V30 10228 H 1005.84 1.12245 6.00194 0
M  V30 10229 H 1007.25 3.0738 4.83933 0
M  V30 10230 H 1005.65 3.83317 4.61723 0
M  V30 10231 H 1006.72 3.62652 3.21887 0
M  V30 10232 N 1008.06 -1.15214 1.07534 0
M  V30 10233 C 1009.34 -1.82155 0.71267 0
M  V30 10234 C 1009.72 -1.95163 -0.804655 0
M  V30 10235 O 1009.07 -1.50451 -1.71979 0
M  V30 10236 C 1009.28 -3.18392 1.42925 0
M  V30 10237 C 1010.63 -3.94005 1.58256 0
M  V30 10238 O 1011.65 -3.27952 1.39018 0
M  V30 10239 O 1010.51 -5.12436 1.89925 0
M  V30 10240 H 1007.6 -0.78709 0.253808 0
M  V30 10241 H 1010.15 -1.22309 1.17638 0
M  V30 10242 H 1008.92 -3.04034 2.46331 0
M  V30 10243 H 1008.55 -3.85925 0.956439 0
M  V30 10244 N 1009.54 -0.859717 -1.32086 0
M  V30 10245 C 1010.77 -0.478865 -2.01796 0
M  V30 10246 C 1011.19 0.918274 -1.64163 0
M  V30 10247 O 1010.55 1.60409 -0.844896 0
M  V30 10248 C 1010.6 -0.631356 -3.5503 0
M  V30 10249 O 1009.7 0.333712 -4.11048 0
M  V30 10250 H 1009.04 -0.191775 -0.635703 0
M  V30 10251 H 1011.57 -1.16031 -1.68517 0
M  V30 10252 H 1011.58 -0.520783 -4.04663 0
M  V30 10253 H 1010.26 -1.65015 -3.81763 0
M  V30 10254 H 1008.84 0.178953 -3.7247 0
M  V30 10255 N 1011.02 1.44971 -0.618145 0
M  V30 10256 C 1012.27 2.01372 -0.115004 0
M  V30 10257 C 1012.58 1.49104 1.26599 0
M  V30 10258 O 1013.79 1.97549 1.86244 0
M  V30 10259 C 1012.24 3.59567 -0.154883 0
M  V30 10260 C 1011.85 4.20832 -1.53639 0
M  V30 10261 C 1013.6 4.23491 0.292468 0
M  V30 10262 C 1011.5 5.7121 -1.53208 0
M  V30 10263 H 1010.43 0.752979 -0.0392267 0
M  V30 10264 H 1013.08 1.66329 -0.775032 0
M  V30 10265 H 1011.47 3.91847 0.572001 0
M  V30 10266 H 1012.64 4.00109 -2.28582 0
M  V30 10267 H 1010.96 3.69143 -1.92672 0
M  V30 10268 H 1013.55 5.33771 0.315032 0
M  V30 10269 H 1013.9 3.9491 1.31725 0
M  V30 10270 H 1014.43 3.95967 -0.381493 0
M  V30 10271 H 1011.17 6.04506 -2.53481 0
M  V30 10272 H 1010.69 5.94094 -0.825387 0
M  V30 10273 H 1012.37 6.34606 -1.26032 0
M  V30 10274 N 1012.5 0.357919 1.53482 0
M  V30 10275 C 1013.43 -0.535553 2.21827 0
M  V30 10276 C 1014.41 -1.08904 1.20742 0
M  V30 10277 O 1015.59 -1.14661 1.49616 0
M  V30 10278 C 1012.72 -1.73817 2.90698 0
M  V30 10279 C 1011.77 -1.31283 4.05792 0
M  V30 10280 S 1012.6 -0.320548 5.3454 0
M  V30 10281 C 1013.76 -1.52967 6.0692 0
M  V30 10282 H 1013.99 0.0449045 2.97266 0
M  V30 10283 H 1011.52 0.142009 1.53746 0
M  V30 10284 H 1013.48 -2.42803 3.30994 0
M  V30 10285 H 1012.14 -2.28987 2.14998 0
M  V30 10286 H 1011.33 -2.20989 4.52968 0
M  V30 10287 H 1010.94 -0.702275 3.67347 0
M  V30 10288 H 1013.23 -2.46191 6.31186 0
M  V30 10289 H 1014.17 -1.09943 6.99513 0
M  V30 10290 H 1014.58 -1.73224 5.37265 0
M  V30 10291 N 1013.98 -1.5736 0.0868897 0
M  V30 10292 C 1014.89 -2.17087 -0.889402 0
M  V30 10293 C 1015.9 -1.13809 -1.31619 0
M  V30 10294 O 1017.08 -1.46143 -1.38579 0
M  V30 10295 C 1014.14 -2.73286 -2.13344 0
M  V30 10296 C 1013.2 -3.91491 -1.76164 0
M  V30 10297 C 1012.44 -4.45 -2.94637 0
M  V30 10298 O 1012.66 -3.97467 -4.09116 0
M  V30 10299 O 1011.59 -5.36133 -2.73579 0
M  V30 10300 H 1015.42 -3.00902 -0.411275 0
M  V30 10301 H 1013.01 -1.4877 -0.137015 0
M  V30 10302 H 1014.89 -3.0924 -2.86266 0
M  V30 10303 H 1013.56 -1.92521 -2.60225 0
M  V30 10304 H 1012.47 -3.60363 -1.00447 0
M  V30 10305 H 1013.8 -4.73593 -1.34053 0
M  V30 10306 N 1015.45 0.186762 -1.56489 0
M  V30 10307 C 1016.39 1.25565 -1.91745 0
M  V30 10308 C 1017.4 1.4128 -0.80894 0
M  V30 10309 O 1018.59 1.41558 -1.08737 0
M  V30 10310 C 1015.69 2.62662 -2.14154 0
M  V30 10311 C 1014.86 2.68448 -3.45333 0
M  V30 10312 C 1013.92 3.86798 -3.56754 0
M  V30 10313 O 1012.95 3.73514 -4.29507 0
M  V30 10314 N 1014.15 5.02607 -2.90459 0
M  V30 10315 H 1016.91 0.956351 -2.84032 0
M  V30 10316 H 1014.47 0.376631 -1.57458 0
M  V30 10317 H 1016.47 3.40277 -2.19075 0
M  V30 10318 H 1015.04 2.85046 -1.28326 0
M  V30 10319 H 1014.26 1.77044 -3.52206 0
M  V30 10320 H 1015.54 2.69311 -4.31682 0
M  V30 10321 H 1014.94 5.163 -2.31194 0
M  V30 10322 H 1013.5 5.78139 -3.00996 0
M  V30 10323 N 1016.93 1.50896 0.454776 0
M  V30 10324 C 1017.86 1.73885 1.5584 0
M  V30 10325 C 1018.84 0.588172 1.59607 0
M  V30 10326 O 1020.03 0.829054 1.75614 0
M  V30 10327 C 1017.16 1.84796 2.94054 0
M  V30 10328 C 1016.11 3.00111 3.05152 0
M  V30 10329 C 1015.44 2.96183 4.45174 0
M  V30 10330 C 1016.74 4.40365 2.80849 0
M  V30 10331 H 1018.43 2.66292 1.36854 0
M  V30 10332 H 1015.98 1.28142 0.656936 0
M  V30 10333 H 1017.93 1.99462 3.71204 0
M  V30 10334 H 1016.66 0.890235 3.14233 0
M  V30 10335 H 1015.31 2.85121 2.30438 0
M  V30 10336 H 1014.96 1.98224 4.62295 0
M  V30 10337 H 1014.66 3.73608 4.53532 0
M  V30 10338 H 1016.19 3.1292 5.24322 0
M  V30 10339 H 1017.6 4.55795 3.47741 0
M  V30 10340 H 1016 5.19363 3.00636 0
M  V30 10341 H 1017.07 4.51606 1.76579 0
M  V30 10342 N 1018.41 -0.709066 1.40748 0
M  V30 10343 C 1019.36 -1.84445 1.41714 0
M  V30 10344 C 1020.35 -1.66779 0.296818 0
M  V30 10345 O 1021.56 -1.73805 0.468181 0
M  V30 10346 H 1017.93 -0.607581 0.443114 0
M  V30 10347 H 1019.9 -1.80747 2.3743 0
M  V30 10348 C 1018.65 -3.22362 1.303 0
M  V30 10349 H 1017.98 -3.36565 2.15787 0
M  V30 10350 H 1019.42 -4.01922 1.35036 0
M  V30 10351 C 1017.88 -3.36897 0.0139015 0
M  V30 10352 O 1018.41 -3.90389 -0.946553 0
M  V30 10353 N 1016.61 -2.90543 -0.0577491 0
M  V30 10354 H 1016.16 -2.472 0.724574 0
M  V30 10355 H 1016.12 -3.00647 -0.919721 0
M  V30 10356 N 1019.89 -1.26353 -0.941956 0
M  V30 10357 C 1021.12 -1.14626 -1.72245 0
M  V30 10358 C 1021.53 0.298588 -1.86424 0
M  V30 10359 O 1020.89 1.2045 -1.37106 0
M  V30 10360 C 1020.94 -1.80933 -3.12963 0
M  V30 10361 O 1020.66 -3.19771 -2.99463 0
M  V30 10362 C 1022.16 -1.7515 -4.07231 0
M  V30 10363 H 1019.38 -0.3992 -0.539333 0
M  V30 10364 H 1021.93 -1.66958 -1.1809 0
M  V30 10365 H 1020.08 -1.32541 -3.64021 0
M  V30 10366 H 1020.5 -3.52571 -3.88322 0
M  V30 10367 H 1021.97 -2.26183 -5.03533 0
M  V30 10368 H 1022.45 -0.717855 -4.33294 0
M  V30 10369 H 1023.05 -2.2309 -3.62093 0
M  V30 10370 N 1021.37 1.14642 -1.08144 0
M  V30 10371 C 1022.61 1.86115 -0.820533 0
M  V30 10372 C 1022.97 1.81208 0.646635 0
M  V30 10373 O 1022.26 1.22997 1.46909 0
M  V30 10374 C 1022.46 3.33953 -1.2732 0
M  V30 10375 C 1022.28 3.53254 -2.78283 0
M  V30 10376 C 1021.05 3.68259 -3.45996 0
M  V30 10377 C 1023.25 3.504 -3.76463 0
M  V30 10378 N 1021.23 3.75692 -4.85519 0
M  V30 10379 C 1022.61 3.64045 -5.01868 0
M  V30 10380 C 1024.66 3.33722 -3.69505 0
M  V30 10381 C 1023.36 3.62734 -6.21141 0
M  V30 10382 C 1025.39 3.33713 -4.88251 0
M  V30 10383 C 1024.75 3.47896 -6.12493 0
M  V30 10384 H 1020.85 0.697829 -0.352929 0
M  V30 10385 H 1023.43 1.3742 -1.37927 0
M  V30 10386 H 1021.61 3.81245 -0.742066 0
M  V30 10387 H 1023.34 3.93174 -0.958991 0
M  V30 10388 H 1020.09 3.69376 -2.96409 0
M  V30 10389 H 1020.52 3.83133 -5.58156 0
M  V30 10390 H 1025.16 3.2167 -2.74387 0
M  V30 10391 H 1022.88 3.73563 -7.16573 0
M  V30 10392 H 1026.46 3.22025 -4.84553 0
M  V30 10393 H 1025.34 3.47833 -7.02838 0
M  V30 10394 N 1022.85 0.866709 1.31628 0
M  V30 10395 C 1023.79 0.309128 2.30537 0
M  V30 10396 C 1024.79 -0.574028 1.59378 0
M  V30 10397 O 1025.99 -0.460491 1.7401 0
M  V30 10398 H 1022.37 0.081279 0.747595 0
M  V30 10399 H 1024.34 1.15734 2.75042 0
M  V30 10400 C 1023.09 -0.477287 3.44409 0
M  V30 10401 H 1022.41 0.19301 3.99334 0
M  V30 10402 H 1023.85 -0.832818 4.1574 0
M  V30 10403 C 1022.31 -1.66727 2.92752 0
M  V30 10404 O 1022.84 -2.76654 2.91248 0
M  V30 10405 N 1021.05 -1.49833 2.48995 0
M  V30 10406 H 1020.59 -0.604073 2.50417 0
M  V30 10407 H 1020.55 -2.29594 2.14788 0
M  V30 10408 N 1024.32 -1.44642 0.625825 0
M  V30 10409 C 1025.57 -2.02094 0.128201 0
M  V30 10410 C 1025.9 -1.49181 -1.24801 0
M  V30 10411 O 1025.15 -0.663965 -1.84092 0
M  V30 10412 C 1025.45 -3.57352 0.0584381 0
M  V30 10413 C 1025.12 -4.29496 1.37272 0
M  V30 10414 C 1023.78 -4.48922 1.7327 0
M  V30 10415 C 1026.13 -4.70586 2.2405 0
M  V30 10416 C 1023.46 -5.06697 2.95762 0
M  V30 10417 C 1025.81 -5.29717 3.45807 0
M  V30 10418 C 1024.48 -5.47363 3.82034 0
M  V30 10419 H 1023.75 -0.739514 0.0469122 0
M  V30 10420 H 1026.39 -1.73475 0.811083 0
M  V30 10421 H 1024.7 -3.85354 -0.707791 0
M  V30 10422 H 1026.4 -3.9953 -0.34303 0
M  V30 10423 H 1022.99 -4.14702 1.08258 0
M  V30 10424 H 1027.17 -4.55295 1.97535 0
M  V30 10425 H 1022.43 -5.18546 3.23913 0
M  V30 10426 H 1026.6 -5.60507 4.13286 0
M  V30 10427 H 1024.23 -5.91898 4.77033 0
M  V30 10428 N 1025.8 -0.366053 -1.5329 0
M  V30 10429 C 1027.21 0.113056 -1.86357 0
M  V30 10430 C 1027.56 1.48123 -1.28662 0
M  V30 10431 O 1026.69 2.07658 -0.608849 0
M  V30 10432 C 1027.28 0.211923 -3.38137 0
M  V30 10433 C 1025.84 0.635289 -3.71 0
M  V30 10434 C 1024.99 -0.217203 -2.76448 0
M  V30 10435 H 1027.94 -0.584829 -1.47531 0
M  V30 10436 H 1027.96 1.0354 -3.66142 0
M  V30 10437 H 1027.47 -0.783994 -3.80099 0
M  V30 10438 H 1025.57 1.63942 -3.34595 0
M  V30 10439 H 1025.69 0.409571 -4.77346 0
M  V30 10440 H 1024.05 0.313988 -2.52757 0
M  V30 10441 H 1024.83 -1.21067 -3.21244 0
M  V30 10442 N 1027.28 1.57312 -0.0952337 0
M  V30 10443 C 1028.53 1.93533 0.568131 0
M  V30 10444 C 1028.84 0.979121 1.6933 0
M  V30 10445 O 1030.05 1.23506 2.41782 0
M  V30 10446 C 1028.5 3.43875 1.06198 0
M  V30 10447 C 1028.11 4.47988 -0.0334397 0
M  V30 10448 C 1029.86 3.89057 1.69807 0
M  V30 10449 C 1027.76 5.89483 0.475774 0
M  V30 10450 H 1026.69 0.7224 0.215995 0
M  V30 10451 H 1029.34 1.82699 -0.171257 0
M  V30 10452 H 1027.73 3.49862 1.85506 0
M  V30 10453 H 1028.9 4.53644 -0.808934 0
M  V30 10454 H 1027.21 4.12415 -0.574725 0
M  V30 10455 H 1029.81 4.92171 2.08978 0
M  V30 10456 H 1030.15 3.27713 2.5673 0
M  V30 10457 H 1030.69 3.85772 0.970815 0
M  V30 10458 H 1027.43 6.54528 -0.356837 0
M  V30 10459 H 1026.95 5.87297 1.21827 0
M  V30 10460 H 1028.63 6.40066 0.944697 0
M  V30 10461 N 1028.76 -0.17846 1.56586 0
M  V30 10462 C 1030 -0.896235 1.81587 0
M  V30 10463 C 1030.33 -1.82553 0.671168 0
M  V30 10464 O 1029.59 -1.92688 -0.342046 0
M  V30 10465 C 1029.89 -1.73063 3.12704 0
M  V30 10466 C 1029.55 -0.950877 4.4076 0
M  V30 10467 C 1028.21 -0.735647 4.75544 0
M  V30 10468 C 1030.57 -0.403419 5.19636 0
M  V30 10469 C 1027.89 0.0382562 5.86688 0
M  V30 10470 C 1030.25 0.357359 6.3159 0
M  V30 10471 C 1028.91 0.583455 6.64945 0
M  V30 10472 H 1028.18 -0.327956 0.664474 0
M  V30 10473 H 1030.83 -0.161586 1.90817 0
M  V30 10474 H 1029.13 -2.53446 2.98785 0
M  V30 10475 H 1030.83 -2.28891 3.29257 0
M  V30 10476 H 1027.42 -1.12866 4.13472 0
M  V30 10477 H 1031.6 -0.557059 4.93164 0
M  V30 10478 H 1026.86 0.223237 6.10992 0
M  V30 10479 H 1031.03 0.788861 6.91918 0
M  V30 10480 H 1028.66 1.18502 7.50907 0
M  V30 10481 N 1030.24 -1.51135 -0.446768 0
M  V30 10482 C 1031.51 -1.5387 -1.20762 0
M  V30 10483 C 1031.89 -0.297446 -2.08994 0
M  V30 10484 O 1031.24 0.717975 -2.16927 0
M  V30 10485 C 1031.45 -2.84767 -2.01764 0
M  V30 10486 C 1032.8 -3.3636 -2.59128 0
M  V30 10487 O 1033.82 -2.86254 -2.11984 0
M  V30 10488 O 1032.68 -4.23765 -3.45088 0
M  V30 10489 H 1029.78 -0.618228 -0.549293 0
M  V30 10490 H 1032.32 -1.63442 -0.456605 0
M  V30 10491 H 1031.09 -3.6657 -1.36901 0
M  V30 10492 H 1030.72 -2.78313 -2.8395 0
M  V30 10493 N 1031.71 0.701592 -1.41122 0
M  V30 10494 C 1032.64 1.82815 -1.45262 0
M  V30 10495 C 1033.62 1.67215 -0.311939 0
M  V30 10496 O 1034.81 1.87038 -0.522538 0
M  V30 10497 C 1031.94 3.20899 -1.32819 0
M  V30 10498 C 1030.89 3.51194 -2.44636 0
M  V30 10499 C 1030.22 4.8857 -2.17263 0
M  V30 10500 C 1031.52 3.50777 -3.86979 0
M  V30 10501 H 1033.21 1.79608 -2.39544 0
M  V30 10502 H 1030.76 0.862693 -1.15298 0
M  V30 10503 H 1032.71 3.99417 -1.34329 0
M  V30 10504 H 1031.44 3.24717 -0.350191 0
M  V30 10505 H 1030.1 2.75024 -2.42399 0
M  V30 10506 H 1029.74 4.89007 -1.17819 0
M  V30 10507 H 1029.44 5.09805 -2.92186 0
M  V30 10508 H 1030.97 5.69405 -2.20478 0
M  V30 10509 H 1032.38 4.19309 -3.90964 0
M  V30 10510 H 1030.78 3.83542 -4.61536 0
M  V30 10511 H 1031.85 2.49873 -4.15562 0
M  V30 10512 N 1033.19 1.2685 0.935242 0
M  V30 10513 C 1034.44 1.12912 1.6846 0
M  V30 10514 C 1034.77 -0.325708 1.91449 0
M  V30 10515 O 1034.05 -1.23884 1.49944 0
M  V30 10516 C 1034.33 1.90513 3.05576 0
M  V30 10517 C 1034.18 3.43936 2.89876 0
M  V30 10518 C 1035.5 1.70363 4.05789 0
M  V30 10519 H 1032.62 0.411559 0.611382 0
M  V30 10520 H 1035.26 1.55917 1.08582 0
M  V30 10521 H 1033.41 1.53963 3.5669 0
M  V30 10522 H 1035.08 3.90272 2.45939 0
M  V30 10523 H 1033.33 3.70659 2.25376 0
M  V30 10524 H 1034 3.93467 3.87153 0
M  V30 10525 H 1036.47 2.02217 3.63659 0
M  V30 10526 H 1035.35 2.27066 4.99732 0
M  V30 10527 H 1035.61 0.649674 4.373 0
M  V30 10528 N 1034.67 -1.14067 1.0875 0
M  V30 10529 C 1035.58 -2.22871 0.732498 0
M  V30 10530 C 1036.6 -1.72008 -0.26253 0
M  V30 10531 O 1037.77 -2.01123 -0.105601 0
M  V30 10532 C 1034.84 -3.46371 0.150913 0
M  V30 10533 C 1033.9 -4.12158 1.201 0
M  V30 10534 C 1033.13 -5.29763 0.647075 0
M  V30 10535 O 1033.35 -5.67911 -0.532307 0
M  V30 10536 O 1032.29 -5.8542 1.3988 0
M  V30 10537 H 1036.11 -2.55596 1.64025 0
M  V30 10538 H 1033.7 -1.22065 0.861417 0
M  V30 10539 H 1035.58 -4.21055 -0.170442 0
M  V30 10540 H 1034.26 -3.15362 -0.729948 0
M  V30 10541 H 1033.16 -3.39332 1.57494 0
M  V30 10542 H 1034.5 -4.47282 2.05426 0
M  V30 10543 N 1036.15 -0.873678 -1.31166 0
M  V30 10544 C 1037.1 -0.321349 -2.3037 0
M  V30 10545 C 1038.09 0.565568 -1.5968 0
M  V30 10546 O 1039.3 0.451257 -1.74252 0
M  V30 10547 H 1035.67 -0.0852425 -0.747153 0
M  V30 10548 H 1037.64 -1.17191 -2.74425 0
M  V30 10549 C 1036.39 0.459016 -3.44657 0
M  V30 10550 H 1035.71 -0.214185 -3.99226 0
M  V30 10551 H 1037.15 0.810758 -4.16176 0
M  V30 10552 C 1035.61 1.65173 -2.93632 0
M  V30 10553 O 1036.14 2.75105 -2.92711 0
M  V30 10554 N 1034.35 1.4851 -2.49786 0
M  V30 10555 H 1033.9 0.590785 -2.50734 0
M  V30 10556 H 1033.85 2.28452 -2.16002 0
M  V30 10557 N 1037.63 1.44308 -0.633487 0
M  V30 10558 C 1038.88 2.01239 -0.136356 0
M  V30 10559 C 1039.19 1.50438 1.25011 0
M  V30 10560 O 1040.39 1.99513 1.84138 0
M  V30 10561 C 1038.85 3.59382 -0.193011 0
M  V30 10562 C 1038.46 4.19178 -1.58093 0
M  V30 10563 C 1040.2 4.23778 0.247534 0
M  V30 10564 C 1038.11 5.69553 -1.59258 0
M  V30 10565 H 1037.04 0.752521 -0.0472109 0
M  V30 10566 H 1039.69 1.65498 -0.79263 0
M  V30 10567 H 1038.07 3.92432 0.530408 0
M  V30 10568 H 1039.25 3.97662 -2.32813 0
M  V30 10569 H 1037.56 3.67079 -1.96576 0
M  V30 10570 H 1040.16 5.34075 0.258401 0
M  V30 10571 H 1040.5 3.96285 1.27529 0
M  V30 10572 H 1041.03 3.9554 -0.423469 0
M  V30 10573 H 1037.77 6.01784 -2.59878 0
M  V30 10574 H 1037.29 5.93185 -0.888352 0
M  V30 10575 H 1038.97 6.33234 -1.32756 0
M  V30 10576 N 1039.1 0.374177 1.53094 0
M  V30 10577 C 1040.35 -0.212396 2.00981 0
M  V30 10578 C 1040.67 -1.48576 1.26293 0
M  V30 10579 O 1039.94 -1.92206 0.378642 0
M  V30 10580 H 1038.52 -0.0814763 0.742543 0
M  V30 10581 H 1041.19 0.502389 1.88314 0
M  V30 10582 H 1040.28 -0.433316 3.09077 0
M  V30 10583 N 1040.58 -1.57259 0.103575 0
M  V30 10584 C 1042 -1.57581 -0.253062 0
M  V30 10585 C 1042.2 -1.11531 -1.67819 0
M  V30 10586 O 1041.25 -0.795632 -2.39637 0
M  V30 10587 C 1042.57 -3.00681 -0.0337753 0
M  V30 10588 C 1044.12 -3.12837 -0.10087 0
M  V30 10589 C 1044.59 -4.57911 0.0905295 0
M  V30 10590 N 1046.08 -4.63186 0.0359789 0
M  V30 10591 C 1046.82 -5.73179 0.159199 0
M  V30 10592 N 1046.31 -6.91976 0.337728 0
M  V30 10593 N 1048.11 -5.62011 0.0998662 0
M  V30 10594 H 1040.26 -1.85499 1.0346 0
M  V30 10595 H 1042.52 -0.856584 0.406163 0
M  V30 10596 H 1042.23 -3.38602 0.950858 0
M  V30 10597 H 1042.1 -3.69207 -0.772406 0
M  V30 10598 H 1044.49 -2.74783 -1.07601 0
M  V30 10599 H 1044.57 -2.46886 0.66939 0
M  V30 10600 H 1044.21 -4.9666 1.06258 0
M  V30 10601 H 1044.14 -5.21933 -0.699528 0
M  V30 10602 H 1046.63 -3.7777 -0.099121 0
M  V30 10603 H 1046.95 -7.71641 0.423032 0
M  V30 10604 H 1045.29 -6.93996 0.373504 0
M  V30 10605 H 1048.48 -4.68084 -0.0385356 0
M  V30 10606 H 1048.65 -6.47693 0.199342 0
M  V30 10607 N 1042.06 0.170153 -1.56679 0
M  V30 10608 C 1043.01 1.21064 -1.965 0
M  V30 10609 C 1043.98 1.43928 -0.829092 0
M  V30 10610 O 1045.16 1.56649 -1.08931 0
M  V30 10611 C 1042.3 2.54468 -2.33109 0
M  V30 10612 C 1041.42 2.38974 -3.59883 0
M  V30 10613 C 1040.55 3.65252 -3.857 0
M  V30 10614 C 1039.59 3.44696 -5.05817 0
M  V30 10615 N 1038.73 4.63047 -5.27761 0
M  V30 10616 H 1043.57 0.864055 -2.85198 0
M  V30 10617 H 1041.1 0.415243 -1.41117 0
M  V30 10618 H 1043.06 3.32222 -2.52358 0
M  V30 10619 H 1041.69 2.8712 -1.4752 0
M  V30 10620 H 1040.74 1.5239 -3.48542 0
M  V30 10621 H 1042.06 2.19731 -4.47794 0
M  V30 10622 H 1041.21 4.51441 -4.05322 0
M  V30 10623 H 1039.95 3.87475 -2.96166 0
M  V30 10624 H 1038.95 2.56893 -4.86092 0
M  V30 10625 H 1040.18 3.23894 -5.96883 0
M  V30 10626 H 1038.12 4.85487 -4.41179 0
M  V30 10627 H 1038.04 4.46722 -6.09898 0
M  V30 10628 H 1039.31 5.50516 -5.51863 0
M  V30 10629 N 1043.54 1.5137 0.438746 0
M  V30 10630 C 1044.78 1.65627 1.19779 0
M  V30 10631 C 1045.14 0.363885 1.8852 0
M  V30 10632 O 1046.34 0.382215 2.66069 0
M  V30 10633 C 1044.61 2.82536 2.18879 0
M  V30 10634 S 1046.17 3.17113 3.0329 0
M  V30 10635 H 1042.99 0.583535 0.406212 0
M  V30 10636 H 1045.59 1.89271 0.489582 0
M  V30 10637 H 1044.3 3.74879 1.67015 0
M  V30 10638 H 1043.83 2.61077 2.94283 0
M  V30 10639 H 1045.84 2.63439 4.20493 0
M  V30 10640 N 1045.02 -0.694098 1.41492 0
M  V30 10641 C 1046.26 -1.45127 1.4065 0
M  V30 10642 C 1046.59 -1.94993 0.0170289 0
M  V30 10643 O 1045.86 -1.71799 -0.941372 0
M  V30 10644 H 1044.44 -0.538493 0.51772 0
M  V30 10645 H 1047.1 -0.821441 1.76744 0
M  V30 10646 H 1046.19 -2.31372 2.0946 0
M  V30 10647 N 1046.49 -1.27344 -0.928501 0
M  V30 10648 C 1047.91 -1.04732 -1.2043 0
M  V30 10649 C 1048.11 0.219623 -2.003 0
M  V30 10650 O 1047.17 0.925333 -2.34934 0
M  V30 10651 C 1048.48 -2.28625 -1.95323 0
M  V30 10652 C 1050.03 -2.33655 -2.08265 0
M  V30 10653 C 1050.5 -3.57275 -2.86563 0
M  V30 10654 N 1051.99 -3.57828 -2.94132 0
M  V30 10655 C 1052.73 -4.50152 -3.55177 0
M  V30 10656 N 1052.22 -5.52779 -4.17621 0
M  V30 10657 N 1054.02 -4.37777 -3.52573 0
M  V30 10658 H 1046.17 -2.08697 -0.394892 0
M  V30 10659 H 1048.43 -0.91782 -0.2373 0
M  V30 10660 H 1048.14 -3.20845 -1.44054 0
M  V30 10661 H 1048.01 -2.33878 -2.95941 0
M  V30 10662 H 1050.4 -1.41942 -2.58721 0
M  V30 10663 H 1050.48 -2.32406 -1.0687 0
M  V30 10664 H 1050.12 -4.49325 -2.3679 0
M  V30 10665 H 1050.05 -3.55775 -3.88242 0
M  V30 10666 H 1052.54 -2.83607 -2.49751 0
M  V30 10667 H 1052.86 -6.19394 -4.62137 0
M  V30 10668 H 1051.2 -5.56622 -4.16169 0
M  V30 10669 H 1054.39 -3.56811 -3.02991 0
M  V30 10670 H 1054.57 -5.09919 -3.99858 0
M  V30 10671 N 1047.97 1.13488 -1.09353 0
M  V30 10672 C 1049.22 1.841 -0.82401 0
M  V30 10673 C 1049.53 1.84393 0.652586 0
M  V30 10674 O 1050.74 2.5089 1.03762 0
M  V30 10675 C 1049.2 3.30523 -1.42418 0
M  V30 10676 C 1048.8 3.38621 -2.93326 0
M  V30 10677 C 1050.55 4.06182 -1.23356 0
M  V30 10678 C 1048.46 4.79311 -3.46432 0
M  V30 10679 H 1047.39 0.68974 -0.304589 0
M  V30 10680 H 1050.04 1.27866 -1.31615 0
M  V30 10681 H 1048.42 3.86555 -0.859727 0
M  V30 10682 H 1049.59 2.92587 -3.5599 0
M  V30 10683 H 1047.91 2.76426 -3.11412 0
M  V30 10684 H 1050.5 5.10047 -1.60488 0
M  V30 10685 H 1050.85 4.15936 -0.174152 0
M  V30 10686 H 1051.38 3.56477 -1.76547 0
M  V30 10687 H 1048.12 4.74748 -4.5199 0
M  V30 10688 H 1047.64 5.25842 -2.8853 0
M  V30 10689 H 1049.32 5.48227 -3.43593 0
M  V30 10690 N 1049.45 0.880621 1.30701 0
M  V30 10691 C 1050.38 0.360251 2.30704 0
M  V30 10692 C 1051.36 -0.554572 1.60806 0
M  V30 10693 O 1052.55 -0.469345 1.88443 0
M  V30 10694 C 1049.68 -0.429888 3.44629 0
M  V30 10695 C 1048.63 0.392786 4.26194 0
M  V30 10696 C 1047.96 -0.52369 5.32129 0
M  V30 10697 C 1049.26 1.63258 4.96129 0
M  V30 10698 H 1050.95 1.19591 2.74478 0
M  V30 10699 H 1048.5 0.576508 1.31956 0
M  V30 10700 H 1050.45 -0.804532 4.13649 0
M  V30 10701 H 1049.17 -1.29916 2.99649 0
M  V30 10702 H 1047.83 0.749514 3.58856 0
M  V30 10703 H 1047.48 -1.39054 4.83397 0
M  V30 10704 H 1047.18 0.0229272 5.87596 0
M  V30 10705 H 1048.71 -0.894946 6.04006 0
M  V30 10706 H 1050.12 1.32877 5.57689 0
M  V30 10707 H 1048.52 2.11906 5.61441 0
M  V30 10708 H 1049.59 2.37944 4.22505 0
M  V30 10709 N 1050.93 -1.4397 0.641131 0
M  V30 10710 C 1052.15 -2.06818 0.155318 0
M  V30 10711 C 1052.58 -1.47665 -1.16519 0
M  V30 10712 O 1051.94 -0.58192 -1.71707 0
M  V30 10713 C 1051.99 -3.60542 0.0647537 0
M  V30 10714 O 1051.09 -4.00674 -0.976447 0
M  V30 10715 H 1050.43 -0.657962 0.0893404 0
M  V30 10716 H 1052.96 -1.84678 0.88064 0
M  V30 10717 H 1052.97 -4.07816 -0.122552 0
M  V30 10718 H 1051.65 -4.02975 1.02878 0
M  V30 10719 H 1050.22 -3.65013 -0.762905 0
M  V30 10720 N 1052.41 -0.382291 -1.52893 0
M  V30 10721 C 1053.34 0.491199 -2.23875 0
M  V30 10722 C 1054.35 1.03249 -1.25871 0
M  V30 10723 O 1055.54 0.936016 -1.5199 0
M  V30 10724 C 1052.64 1.6927 -2.936 0
M  V30 10725 C 1051.81 1.28 -4.18252 0
M  V30 10726 C 1050.87 2.34541 -4.71038 0
M  V30 10727 O 1049.9 1.96239 -5.34302 0
M  V30 10728 N 1051.1 3.6636 -4.50289 0
M  V30 10729 H 1053.87 -0.116897 -2.99472 0
M  V30 10730 H 1051.43 -0.208296 -1.60554 0
M  V30 10731 H 1053.42 2.40054 -3.25816 0
M  V30 10732 H 1051.99 2.20729 -2.21354 0
M  V30 10733 H 1051.21 0.40133 -3.92152 0
M  V30 10734 H 1052.5 0.98082 -4.99257 0
M  V30 10735 H 1051.9 4.00245 -3.99775 0
M  V30 10736 H 1050.45 4.332 -4.87013 0
M  V30 10737 N 1053.89 1.57202 -0.111913 0
M  V30 10738 C 1055.13 1.95239 0.548607 0
M  V30 10739 C 1055.46 0.994897 1.6678 0
M  V30 10740 O 1054.74 0.0308603 1.94476 0
M  V30 10741 C 1055.02 3.43271 1.08798 0
M  V30 10742 C 1054.88 4.49792 -0.0273064 0
M  V30 10743 C 1056.19 3.92989 1.98109 0
M  V30 10744 H 1053.31 0.709919 0.197951 0
M  V30 10745 H 1055.96 1.89087 -0.186036 0
M  V30 10746 H 1054.11 3.48644 1.71404 0
M  V30 10747 H 1055.78 4.56521 -0.662302 0
M  V30 10748 H 1054.02 4.28254 -0.691426 0
M  V30 10749 H 1054.69 5.50612 0.391201 0
M  V30 10750 H 1057.17 3.89875 1.45385 0
M  V30 10751 H 1056.04 4.97101 2.32769 0
M  V30 10752 H 1056.3 3.33267 2.90492 0
M  V30 10753 N 1055.36 -0.161842 1.56767 0
M  V30 10754 C 1056.59 -0.896274 1.87034 0
M  V30 10755 C 1057.01 -1.74617 0.699314 0
M  V30 10756 O 1056.37 -1.77861 -0.351435 0
M  V30 10757 C 1056.42 -1.74105 3.15784 0
M  V30 10758 O 1055.52 -2.84372 2.98674 0
M  V30 10759 H 1054.86 -0.250523 0.614926 0
M  V30 10760 H 1057.39 -0.157127 2.03996 0
M  V30 10761 H 1057.4 -2.13907 3.4743 0
M  V30 10762 H 1056.08 -1.11684 4.00624 0
M  V30 10763 H 1054.66 -2.48084 2.78404 0
M  V30 10764 N 1056.84 -1.516 -0.430713 0
M  V30 10765 C 1058.07 -1.68169 -1.20011 0
M  V30 10766 C 1058.48 -0.381406 -1.85316 0
M  V30 10767 O 1057.82 0.6506 -1.71793 0
M  V30 10768 C 1057.88 -2.7454 -2.32095 0
M  V30 10769 C 1057.55 -4.16942 -1.87104 0
M  V30 10770 C 1058.55 -5.01503 -1.37078 0
M  V30 10771 C 1056.23 -4.63075 -1.94594 0
M  V30 10772 C 1058.22 -6.3026 -0.951362 0
M  V30 10773 C 1055.91 -5.91827 -1.52264 0
M  V30 10774 C 1056.91 -6.75247 -1.02618 0
M  V30 10775 O 1056.6 -8.01591 -0.608905 0
M  V30 10776 H 1056.33 -0.567361 -0.367528 0
M  V30 10777 H 1058.88 -1.98819 -0.515759 0
M  V30 10778 H 1057.11 -2.39219 -3.03828 0
M  V30 10779 H 1058.8 -2.79921 -2.93937 0
M  V30 10780 H 1059.57 -4.67063 -1.30681 0
M  V30 10781 H 1055.45 -3.98262 -2.32182 0
M  V30 10782 H 1058.99 -6.95323 -0.563163 0
M  V30 10783 H 1054.89 -6.2578 -1.58333 0
M  V30 10784 H 1055.66 -8.15201 -0.73416 0
M  V30 10785 N 1058.32 0.686584 -1.41858 0
M  V30 10786 C 1059.74 0.998283 -1.24525 0
M  V30 10787 C 1059.94 2.01006 -0.141007 0
M  V30 10788 O 1058.99 2.47667 0.491648 0
M  V30 10789 C 1060.3 1.51432 -2.59786 0
M  V30 10790 C 1061.85 1.6327 -2.67043 0
M  V30 10791 C 1062.33 2.18274 -4.02642 0
M  V30 10792 N 1063.82 2.25622 -4.04535 0
M  V30 10793 C 1064.55 2.69229 -5.06264 0
M  V30 10794 N 1064.05 3.12375 -6.1838 0
M  V30 10795 N 1065.84 2.68873 -4.93623 0
M  V30 10796 H 1057.99 0.0164825 -2.12394 0
M  V30 10797 H 1060.26 0.0698613 -0.945422 0
M  V30 10798 H 1059.96 0.845426 -3.41388 0
M  V30 10799 H 1059.84 2.49502 -2.82894 0
M  V30 10800 H 1062.22 2.29269 -1.85794 0
M  V30 10801 H 1062.3 0.637221 -2.47736 0
M  V30 10802 H 1061.95 1.52887 -4.84343 0
M  V30 10803 H 1061.88 3.18591 -4.19294 0
M  V30 10804 H 1064.37 1.95186 -3.23591 0
M  V30 10805 H 1064.68 3.44301 -6.91864 0
M  V30 10806 H 1063.03 3.10262 -6.21902 0
M  V30 10807 H 1066.22 2.34521 -4.05114 0
M  V30 10808 H 1066.39 3.02539 -5.7304 0
M  V30 10809 N 1059.8 1.27835 0.921735 0
M  V30 10810 C 1060.73 1.136 2.04003 0
M  V30 10811 C 1061.71 0.0358756 1.70062 0
M  V30 10812 O 1062.89 0.211438 1.93046 0
M  V30 10813 C 1060.02 0.788697 3.38226 0
M  V30 10814 C 1058.98 1.84272 3.863 0
M  V30 10815 C 1058.3 1.34923 5.17397 0
M  V30 10816 C 1059.6 3.24788 4.09035 0
M  V30 10817 H 1061.3 2.07149 2.1617 0
M  V30 10818 H 1058.84 0.997349 1.0387 0
M  V30 10819 H 1060.8 0.675911 4.15944 0
M  V30 10820 H 1059.52 -0.182499 3.2609 0
M  V30 10821 H 1058.18 1.94451 3.1078 0
M  V30 10822 H 1057.83 0.367328 5.01657 0
M  V30 10823 H 1057.53 2.05397 5.50532 0
M  V30 10824 H 1059.05 1.24951 5.97678 0
M  V30 10825 H 1060.47 3.17575 4.77304 0
M  V30 10826 H 1058.86 3.93025 4.53488 0
M  V30 10827 H 1059.93 3.69398 3.14122 0
M  V30 10828 N 1061.28 -1.12907 1.09954 0
M  V30 10829 C 1062.52 -1.84306 0.838912 0
M  V30 10830 C 1062.85 -1.83825 -0.635508 0
M  V30 10831 O 1062.11 -1.27556 -1.48418 0
M  V30 10832 C 1062.4 -3.31885 1.32616 0
M  V30 10833 C 1062.07 -3.52542 2.81114 0
M  V30 10834 C 1060.73 -3.57888 3.21667 0
M  V30 10835 C 1063.08 -3.60065 3.76833 0
M  V30 10836 C 1060.41 -3.68296 4.567 0
M  V30 10837 C 1062.76 -3.72001 5.11662 0
M  V30 10838 C 1061.43 -3.75602 5.51797 0
M  V30 10839 H 1060.7 -0.674422 0.30698 0
M  V30 10840 H 1063.35 -1.33261 1.37527 0
M  V30 10841 H 1061.65 -3.85318 0.709719 0
M  V30 10842 H 1063.35 -3.85588 1.10105 0
M  V30 10843 H 1059.94 -3.4904 2.48735 0
M  V30 10844 H 1064.12 -3.55209 3.46612 0
M  V30 10845 H 1059.38 -3.69352 4.87226 0
M  V30 10846 H 1063.55 -3.76765 5.8568 0
M  V30 10847 H 1061.18 -3.83419 6.56425 0
M  V30 10848 N 1062.75 -0.88754 -1.30232 0
M  V30 10849 C 1063.66 -0.360333 -2.31816 0
M  V30 10850 C 1064.68 0.538741 -1.6545 0
M  V30 10851 O 1065.86 0.431246 -1.96729 0
M  V30 10852 C 1062.92 0.414336 -3.44215 0
M  V30 10853 C 1061.98 -0.514799 -4.26202 0
M  V30 10854 C 1061.21 0.222994 -5.33234 0
M  V30 10855 O 1061.44 1.44871 -5.51696 0
M  V30 10856 O 1060.37 -0.428221 -6.00375 0
M  V30 10857 H 1064.2 -1.20279 -2.78867 0
M  V30 10858 H 1061.78 -0.651459 -1.34448 0
M  V30 10859 H 1063.66 0.852859 -4.12679 0
M  V30 10860 H 1062.34 1.23305 -2.99295 0
M  V30 10861 H 1061.25 -1.00219 -3.60426 0
M  V30 10862 H 1062.58 -1.29959 -4.74733 0
M  V30 10863 N 1064.23 1.43628 -0.648757 0
M  V30 10864 C 1065.51 1.95391 -0.0904551 0
M  V30 10865 C 1065.89 1.59021 1.38837 0
M  V30 10866 O 1065.24 0.873078 2.11163 0
M  V30 10867 C 1065.45 3.47418 -0.33196 0
M  V30 10868 C 1066.8 4.23952 -0.234521 0
M  V30 10869 O 1067.82 3.55218 -0.264276 0
M  V30 10870 O 1066.68 5.46282 -0.154428 0
M  V30 10871 H 1063.77 0.82691 0.0121884 0
M  V30 10872 H 1066.32 1.5359 -0.721685 0
M  V30 10873 H 1065.09 3.67001 -1.35741 0
M  V30 10874 H 1064.71 3.96207 0.332556 0
M  V30 10875 N 1065.71 0.390394 1.52688 0
M  V30 10876 C 1066.64 -0.48838 2.22913 0
M  V30 10877 C 1067.62 -1.06319 1.23025 0
M  V30 10878 O 1068.81 -1.11462 1.52015 0
M  V30 10879 C 1065.93 -1.67612 2.9432 0
M  V30 10880 C 1064.98 -1.22646 4.08485 0
M  V30 10881 S 1065.81 -0.207092 5.35099 0
M  V30 10882 C 1066.97 -1.40058 6.10028 0
M  V30 10883 H 1067.2 0.107949 2.97104 0
M  V30 10884 H 1064.73 0.174588 1.5341 0
M  V30 10885 H 1066.69 -2.35728 3.36069 0
M  V30 10886 H 1065.35 -2.24375 2.19806 0
M  V30 10887 H 1064.55 -2.11331 4.57554 0
M  V30 10888 H 1064.15 -0.624197 3.68754 0
M  V30 10889 H 1066.44 -2.32747 6.36266 0
M  V30 10890 H 1067.38 -0.950804 7.01687 0
M  V30 10891 H 1067.79 -1.61789 5.40818 0
M  V30 10892 N 1067.19 -1.57141 0.120249 0
M  V30 10893 C 1068.44 -1.94852 -0.536387 0
M  V30 10894 C 1068.76 -1.00452 -1.67136 0
M  V30 10895 O 1068.03 -0.061053 -1.95805 0
M  V30 10896 H 1066.61 -0.719411 -0.201138 0
M  V30 10897 H 1069.27 -1.93977 0.189482 0
M  V30 10898 H 1068.37 -2.97917 -0.930145 0
M  V30 10899 N 1068.67 0.153526 -1.5685 0
M  V30 10900 C 1069.6 1.19162 -2.00805 0
M  V30 10901 C 1070.58 1.45172 -0.886518 0
M  V30 10902 O 1071.76 1.56203 -1.15387 0
M  V30 10903 C 1068.89 2.52637 -2.38311 0
M  V30 10904 C 1067.85 2.41161 -3.53589 0
M  V30 10905 C 1067.17 3.79287 -3.76889 0
M  V30 10906 C 1068.47 1.90122 -4.86468 0
M  V30 10907 H 1070.17 0.82617 -2.87776 0
M  V30 10908 H 1067.71 0.395972 -1.38449 0
M  V30 10909 H 1069.67 3.25478 -2.6766 0
M  V30 10910 H 1068.39 2.91005 -1.4827 0
M  V30 10911 H 1067.05 1.70772 -3.24395 0
M  V30 10912 H 1066.7 4.15079 -2.84109 0
M  V30 10913 H 1066.4 3.72472 -4.54465 0
M  V30 10914 H 1067.92 4.53687 -4.08657 0
M  V30 10915 H 1069.33 2.52752 -5.14577 0
M  V30 10916 H 1067.73 1.94214 -5.67804 0
M  V30 10917 H 1068.8 0.856517 -4.77275 0
M  V30 10918 N 1070.14 1.51827 0.422667 0
M  V30 10919 C 1071.39 1.6522 1.17084 0
M  V30 10920 C 1071.72 0.375508 1.90841 0
M  V30 10921 O 1070.97 -0.641029 1.84903 0
M  V30 10922 C 1071.27 2.81572 2.20119 0
M  V30 10923 C 1070.94 4.20303 1.63268 0
M  V30 10924 C 1069.6 4.5804 1.47488 0
M  V30 10925 C 1071.95 5.06812 1.21618 0
M  V30 10926 C 1069.28 5.79979 0.885531 0
M  V30 10927 C 1071.63 6.29343 0.641071 0
M  V30 10928 C 1070.3 6.65841 0.470286 0
M  V30 10929 H 1069.57 0.604581 0.428442 0
M  V30 10930 H 1072.21 1.85896 0.459874 0
M  V30 10931 H 1070.52 2.55175 2.97309 0
M  V30 10932 H 1072.22 2.89132 2.77856 0
M  V30 10933 H 1068.81 3.90557 1.76531 0
M  V30 10934 H 1072.99 4.78251 1.32624 0
M  V30 10935 H 1068.25 6.06892 0.741105 0
M  V30 10936 H 1072.42 6.9571 0.309888 0
M  V30 10937 H 1070.05 7.60199 0.0115038 0
M  V30 10938 N 1071.62 -0.679052 1.4222 0
M  V30 10939 C 1072.53 -1.82221 1.47759 0
M  V30 10940 C 1073.55 -1.70092 0.3667 0
M  V30 10941 O 1074.72 -1.91718 0.616957 0
M  V30 10942 C 1071.79 -3.18332 1.37351 0
M  V30 10943 C 1070.85 -3.42449 2.58896 0
M  V30 10944 C 1070.08 -4.72067 2.48976 0
M  V30 10945 O 1070.31 -5.49683 1.5233 0
M  V30 10946 O 1069.24 -4.97333 3.39033 0
M  V30 10947 H 1073.07 -1.80504 2.44238 0
M  V30 10948 H 1070.65 -0.834251 1.23938 0
M  V30 10949 H 1072.53 -3.99563 1.33893 0
M  V30 10950 H 1071.21 -3.20696 0.439965 0
M  V30 10951 H 1070.12 -2.61083 2.6793 0
M  V30 10952 H 1071.45 -3.44912 3.51136 0
M  V30 10953 N 1073.1 -1.28322 -0.914942 0
M  V30 10954 C 1074.06 -1.12169 -1.99877 0
M  V30 10955 C 1075.06 -0.0617252 -1.60681 0
M  V30 10956 O 1076.25 -0.307405 -1.71466 0
M  V30 10957 C 1073.39 -0.711959 -3.33383 0
M  V30 10958 H 1074.58 -2.08425 -2.15636 0
M  V30 10959 H 1072.13 -1.11291 -1.09745 0
M  V30 10960 H 1072.87 0.251418 -3.23324 0
M  V30 10961 H 1072.65 -1.47764 -3.63192 0
M  V30 10962 H 1074.14 -0.621558 -4.12948 0
M  V30 10963 N 1074.58 1.12322 -1.10551 0
M  V30 10964 C 1075.83 1.83858 -0.848674 0
M  V30 10965 C 1076.15 1.84159 0.62575 0
M  V30 10966 O 1075.41 1.28341 1.4774 0
M  V30 10967 C 1075.71 3.31177 -1.34375 0
M  V30 10968 C 1075.37 3.51046 -2.8298 0
M  V30 10969 C 1074.04 3.56177 -3.23561 0
M  V30 10970 C 1076.39 3.58061 -3.78737 0
M  V30 10971 C 1073.72 3.65868 -4.58647 0
M  V30 10972 C 1076.07 3.69283 -5.13627 0
M  V30 10973 C 1074.73 3.7267 -5.53781 0
M  V30 10974 H 1074 0.672784 -0.310552 0
M  V30 10975 H 1076.65 1.3253 -1.38232 0
M  V30 10976 H 1074.95 3.84937 -0.730144 0
M  V30 10977 H 1076.65 3.84998 -1.12148 0
M  V30 10978 H 1073.24 3.47716 -2.50582 0
M  V30 10979 H 1077.42 3.53366 -3.48491 0
M  V30 10980 H 1072.68 3.66763 -4.89178 0
M  V30 10981 H 1076.85 3.73654 -5.8767 0
M  V30 10982 H 1074.48 3.79932 -6.58449 0
M  V30 10983 N 1076.06 0.894434 1.2976 0
M  V30 10984 C 1077 0.366586 2.2787 0
M  V30 10985 C 1077.97 -0.548425 1.56785 0
M  V30 10986 O 1079.16 -0.474804 1.84798 0
M  V30 10987 C 1076.3 -0.404531 3.42721 0
M  V30 10988 C 1075.41 0.540774 4.28602 0
M  V30 10989 C 1074.55 -0.246875 5.30626 0
M  V30 10990 C 1073.59 0.693294 6.08161 0
M  V30 10991 N 1072.72 -0.059619 7.02075 0
M  V30 10992 H 1077.56 1.20834 2.72402 0
M  V30 10993 H 1075.1 0.607205 1.33983 0
M  V30 10994 H 1077.06 -0.86762 4.08079 0
M  V30 10995 H 1075.69 -1.21078 2.99232 0
M  V30 10996 H 1074.74 1.12237 3.63465 0
M  V30 10997 H 1076.05 1.26065 4.82606 0
M  V30 10998 H 1075.21 -0.771398 6.01776 0
M  V30 10999 H 1073.94 -0.999918 4.77339 0
M  V30 11000 H 1072.95 1.22936 5.35879 0
M  V30 11001 H 1074.17 1.44558 6.63536 0
M  V30 11002 H 1072.12 -0.795026 6.51165 0
M  V30 11003 H 1072.04 0.60045 7.53612 0
M  V30 11004 H 1073.31 -0.564577 7.77453 0
M  V30 11005 N 1077.53 -1.43282 0.656365 0
M  V30 11006 C 1078.78 -2.00996 0.168354 0
M  V30 11007 C 1079.1 -1.52408 -1.22601 0
M  V30 11008 O 1080.3 -2.02417 -1.80941 0
M  V30 11009 C 1078.76 -3.5903 0.250161 0
M  V30 11010 C 1078.37 -4.1661 1.64742 0
M  V30 11011 C 1080.11 -4.24118 -0.180084 0
M  V30 11012 C 1078.02 -5.66948 1.68299 0
M  V30 11013 H 1076.95 -0.751674 0.0591769 0
M  V30 11014 H 1079.6 -1.64216 0.818859 0
M  V30 11015 H 1077.98 -3.93226 -0.467908 0
M  V30 11016 H 1079.15 -3.93908 2.3911 0
M  V30 11017 H 1077.47 -3.63905 2.02391 0
M  V30 11018 H 1080.07 -5.34419 -0.173401 0
M  V30 11019 H 1080.41 -3.98264 -1.21208 0
M  V30 11020 H 1080.94 -3.94816 0.486343 0
M  V30 11021 H 1077.68 -5.97573 2.69419 0
M  V30 11022 H 1077.2 -5.91697 0.98261 0
M  V30 11023 H 1078.88 -6.31041 1.42813 0
M  V30 11024 N 1079.01 -0.398486 -1.52479 0
M  V30 11025 C 1080.42 0.0735015 -1.86555 0
M  V30 11026 C 1080.78 1.45361 -1.31775 0
M  V30 11027 O 1079.9 2.0632 -0.652759 0
M  V30 11028 C 1080.5 0.140152 -3.3851 0
M  V30 11029 C 1079.05 0.556451 -3.72264 0
M  V30 11030 C 1078.2 -0.275792 -2.75925 0
M  V30 11031 H 1081.15 -0.615991 -1.46257 0
M  V30 11032 H 1081.17 0.957507 -3.68255 0
M  V30 11033 H 1080.69 -0.864442 -3.7835 0
M  V30 11034 H 1078.79 1.56808 -3.37997 0
M  V30 11035 H 1078.9 0.308227 -4.78107 0
M  V30 11036 H 1077.26 0.260304 -2.53366 0
M  V30 11037 H 1078.05 -1.27854 -3.18604 0
M  V30 11038 N 1080.49 1.57075 -0.12858 0
M  V30 11039 C 1081.74 1.94695 0.526952 0
M  V30 11040 C 1082.05 1.01482 1.67215 0
M  V30 11041 O 1083.26 1.28606 2.39108 0
M  V30 11042 C 1081.72 3.4605 0.988801 0
M  V30 11043 C 1081.32 4.47816 -0.128457 0
M  V30 11044 C 1083.07 3.92572 1.61517 0
M  V30 11045 C 1080.97 5.9036 0.350628 0
M  V30 11046 H 1079.9 0.726819 0.200623 0
M  V30 11047 H 1082.56 1.82295 -0.209972 0
M  V30 11048 H 1080.94 3.53718 1.78043 0
M  V30 11049 H 1082.11 4.51826 -0.904976 0
M  V30 11050 H 1080.43 4.11103 -0.662075 0
M  V30 11051 H 1083.02 4.96493 1.98491 0
M  V30 11052 H 1083.37 3.33085 2.49721 0
M  V30 11053 H 1083.9 3.87744 0.888768 0
M  V30 11054 H 1080.64 6.53624 -0.495592 0
M  V30 11055 H 1080.16 5.89749 1.09342 0
M  V30 11056 H 1081.84 6.41926 0.808717 0
M  V30 11057 N 1081.97 -0.145205 1.5693 0
M  V30 11058 C 1083.39 -0.497905 1.51635 0
M  V30 11059 C 1083.59 -1.8328 0.837301 0
M  V30 11060 O 1082.64 -2.49172 0.408584 0
M  V30 11061 C 1083.95 -0.506557 2.96403 0
M  V30 11062 C 1085.5 -0.591947 3.07352 0
M  V30 11063 C 1085.98 -0.631244 4.53629 0
M  V30 11064 N 1087.47 -0.693417 4.5798 0
M  V30 11065 C 1088.2 -0.744836 5.68542 0
M  V30 11066 N 1087.7 -0.755492 6.88668 0
M  V30 11067 N 1089.49 -0.785854 5.5658 0
M  V30 11068 H 1081.64 0.729779 1.99469 0
M  V30 11069 H 1083.91 0.266295 0.90983 0
M  V30 11070 H 1083.61 0.406127 3.49347 0
M  V30 11071 H 1083.49 -1.34383 3.5245 0
M  V30 11072 H 1085.87 -1.49505 2.54425 0
M  V30 11073 H 1085.95 0.272507 2.54344 0
M  V30 11074 H 1085.6 0.26771 5.07194 0
M  V30 11075 H 1085.53 -1.51221 5.0442 0
M  V30 11076 H 1088.02 -0.692408 3.71503 0
M  V30 11077 H 1088.33 -0.796624 7.68683 0
M  V30 11078 H 1086.68 -0.723339 6.91226 0
M  V30 11079 H 1089.87 -0.774712 4.61645 0
M  V30 11080 H 1090.04 -0.822461 6.42759 0
M  V30 11081 N 1083.45 -1.52049 -0.414609 0
M  V30 11082 C 1084.36 -1.7788 -1.52958 0
M  V30 11083 C 1085.37 -0.66408 -1.60829 0
M  V30 11084 O 1086.55 -0.948882 -1.77646 0
M  V30 11085 C 1083.61 -1.91906 -2.88744 0
M  V30 11086 C 1082.68 -3.15803 -2.90804 0
M  V30 11087 C 1081.91 -3.29151 -4.20114 0
M  V30 11088 O 1082.13 -2.47892 -5.13718 0
M  V30 11089 O 1081.07 -4.2227 -4.28919 0
M  V30 11090 H 1084.89 -2.72506 -1.34067 0
M  V30 11091 H 1082.48 -1.36826 -0.599918 0
M  V30 11092 H 1084.36 -2.02986 -3.6929 0
M  V30 11093 H 1083.03 -1.00468 -3.07714 0
M  V30 11094 H 1081.94 -3.10185 -2.09131 0
M  V30 11095 H 1083.27 -4.07004 -2.76783 0
M  V30 11096 N 1084.93 0.6715 -1.42579 0
M  V30 11097 C 1086.17 1.43154 -1.43224 0
M  V30 11098 C 1086.5 1.94436 -0.0498695 0
M  V30 11099 O 1085.76 1.71521 0.942282 0
M  V30 11100 C 1086.05 2.64256 -2.40632 0
M  V30 11101 C 1085.72 2.31497 -3.86937 0
M  V30 11102 C 1084.38 2.22274 -4.26788 0
M  V30 11103 C 1086.73 2.04957 -4.7921 0
M  V30 11104 C 1084.06 1.84642 -5.56888 0
M  V30 11105 C 1086.41 1.68828 -6.09656 0
M  V30 11106 C 1085.08 1.58118 -6.48502 0
M  V30 11107 H 1084.35 0.523838 -0.524094 0
M  V30 11108 H 1087 0.765363 -1.7554 0
M  V30 11109 H 1085.3 3.35921 -2.01654 0
M  V30 11110 H 1087 3.22443 -2.38394 0
M  V30 11111 H 1083.59 2.39578 -3.55387 0
M  V30 11112 H 1087.77 2.11014 -4.49207 0
M  V30 11113 H 1083.03 1.74921 -5.85843 0
M  V30 11114 H 1087.2 1.47319 -6.8064 0
M  V30 11115 H 1084.83 1.28728 -7.49222 0
M  V30 11116 N 1086.4 1.28806 0.908124 0
M  V30 11117 C 1087.34 1.07538 2.01273 0
M  V30 11118 C 1088.31 -0.0102454 1.62597 0
M  V30 11119 O 1089.5 0.138797 1.87988 0
M  V30 11120 C 1086.63 0.635337 3.32688 0
M  V30 11121 C 1085.67 1.71843 3.90349 0
M  V30 11122 S 1086.5 3.31571 4.20501 0
M  V30 11123 C 1087.66 2.89416 5.54968 0
M  V30 11124 H 1087.89 2.01058 2.19005 0
M  V30 11125 H 1085.43 1.12857 1.05369 0
M  V30 11126 H 1087.38 0.388159 4.08661 0
M  V30 11127 H 1086.05 -0.280122 3.12848 0
M  V30 11128 H 1085.24 1.36228 4.8524 0
M  V30 11129 H 1084.84 1.91869 3.21033 0
M  V30 11130 H 1087.13 2.35936 6.35091 0
M  V30 11131 H 1088.08 3.83126 5.955 0
M  V30 11132 H 1088.48 2.27962 5.16424 0
M  V30 11133 N 1087.88 -1.11734 1.11145 0
M  V30 11134 C 1088.83 -2.19765 0.761982 0
M  V30 11135 C 1089.82 -1.67616 -0.24518 0
M  V30 11136 O 1091.03 -1.79695 -0.104781 0
M  V30 11137 H 1087.4 -0.71644 0.228513 0
M  V30 11138 H 1089.38 -2.4649 1.68183 0
M  V30 11139 C 1088.12 -3.47016 0.218057 0
M  V30 11140 H 1087.45 -3.87494 0.984299 0
M  V30 11141 H 1088.89 -4.23998 0.0116825 0
M  V30 11142 C 1087.35 -3.20088 -1.05096 0
M  V30 11143 O 1087.88 -3.40503 -2.1312 0
M  V30 11144 N 1086.08 -2.73844 -0.972523 0
M  V30 11145 H 1085.63 -2.57431 -0.0933459 0
M  V30 11146 H 1085.59 -2.56204 -1.82228 0
M  V30 11147 N 1089.36 -0.901303 -1.29284 0
M  V30 11148 C 1090.59 -0.542723 -1.99344 0
M  V30 11149 C 1091 0.877357 -1.67628 0
M  V30 11150 O 1090.34 1.59088 -0.918515 0
M  V30 11151 C 1090.4 -0.657088 -3.53444 0
M  V30 11152 C 1090.07 -2.04444 -4.0872 0
M  V30 11153 C 1091.06 -3.01577 -4.23494 0
M  V30 11154 C 1088.75 -2.35425 -4.43712 0
M  V30 11155 C 1090.74 -4.27816 -4.72496 0
M  V30 11156 C 1088.43 -3.61906 -4.9241 0
M  V30 11157 C 1089.43 -4.57916 -5.06757 0
M  V30 11158 O 1089.12 -5.8215 -5.54397 0
M  V30 11159 H 1088.85 -0.206742 -0.64361 0
M  V30 11160 H 1091.4 -1.21311 -1.65749 0
M  V30 11161 H 1089.63 0.0703305 -3.86636 0
M  V30 11162 H 1091.32 -0.307425 -4.04734 0
M  V30 11163 H 1092.09 -2.78957 -3.96747 0
M  V30 11164 H 1087.97 -1.61454 -4.31803 0
M  V30 11165 H 1091.51 -5.0276 -4.83609 0
M  V30 11166 H 1087.41 -3.84356 -5.18595 0
M  V30 11167 H 1088.17 -5.84762 -5.72709 0
M  V30 11168 N 1090.84 1.42931 -0.663954 0
M  V30 11169 C 1092.08 2.01683 -0.181738 0
M  V30 11170 C 1092.41 1.52437 1.20802 0
M  V30 11171 O 1091.67 0.71254 1.82267 0
M  V30 11172 C 1091.97 3.57072 -0.153163 0
M  V30 11173 C 1091.63 4.25706 -1.48612 0
M  V30 11174 C 1090.29 4.4417 -1.85111 0
M  V30 11175 C 1092.65 4.6448 -2.36448 0
M  V30 11176 C 1089.97 4.98677 -3.09092 0
M  V30 11177 C 1092.33 5.20362 -3.5973 0
M  V30 11178 C 1090.99 5.37041 -3.96412 0
M  V30 11179 H 1090.26 0.73801 -0.0665026 0
M  V30 11180 H 1092.91 1.71264 -0.856791 0
M  V30 11181 H 1091.21 3.87095 0.605372 0
M  V30 11182 H 1092.91 4.00299 0.236981 0
M  V30 11183 H 1089.5 4.11686 -1.19215 0
M  V30 11184 H 1093.68 4.49898 -2.09537 0
M  V30 11185 H 1088.94 5.09776 -3.37547 0
M  V30 11186 H 1093.11 5.49352 -4.28001 0
M  V30 11187 H 1090.74 5.79042 -4.92559 0
M  V30 11188 N 1092.32 0.406567 1.52266 0
M  V30 11189 C 1093.27 -0.437483 2.23763 0
M  V30 11190 C 1094.25 -1.01557 1.248 0
M  V30 11191 O 1095.44 -0.938813 1.50051 0
M  V30 11192 C 1092.57 -1.55499 3.06064 0
M  V30 11193 C 1091.66 -0.987799 4.12436 0
M  V30 11194 N 1092.05 -0.147044 5.05586 0
M  V30 11195 C 1090.35 -1.25857 4.27874 0
M  V30 11196 C 1091.05 0.168229 5.81457 0
M  V30 11197 N 1090.02 -0.440245 5.41814 0
M  V30 11198 H 1093.82 0.211203 2.9314 0
M  V30 11199 H 1091.34 0.216843 1.60946 0
M  V30 11200 H 1093.34 -2.17224 3.55836 0
M  V30 11201 H 1092 -2.20632 2.38226 0
M  V30 11202 H 1093.01 0.217062 5.17445 0
M  V30 11203 H 1089.68 -1.90967 3.71265 0
M  V30 11204 H 1091.07 0.850516 6.66495 0
M  V30 11205 N 1093.79 -1.57004 0.136909 0
M  V30 11206 C 1094.76 -2.15066 -0.792419 0
M  V30 11207 C 1095.76 -1.08991 -1.18226 0
M  V30 11208 O 1096.95 -1.34681 -1.10484 0
M  V30 11209 C 1094.08 -2.70554 -2.07397 0
M  V30 11210 H 1095.27 -2.98519 -0.28752 0
M  V30 11211 H 1092.83 -1.55895 -0.112469 0
M  V30 11212 H 1093.56 -1.90739 -2.62277 0
M  V30 11213 H 1093.35 -3.48149 -1.80374 0
M  V30 11214 H 1094.84 -3.15322 -2.73792 0
M  V30 11215 N 1095.27 0.136881 -1.57004 0
M  V30 11216 C 1096.2 1.17026 -2.02057 0
M  V30 11217 C 1097.18 1.44223 -0.901866 0
M  V30 11218 O 1098.37 1.54971 -1.17037 0
M  V30 11219 C 1095.5 2.50095 -2.40977 0
M  V30 11220 C 1094.45 2.37398 -3.56127 0
M  V30 11221 C 1093.78 3.75268 -3.80891 0
M  V30 11222 C 1095.08 1.84952 -4.88457 0
M  V30 11223 H 1096.77 0.795601 -2.88636 0
M  V30 11224 H 1094.32 0.381266 -1.38861 0
M  V30 11225 H 1096.27 3.22621 -2.71097 0
M  V30 11226 H 1095 2.89416 -1.51348 0
M  V30 11227 H 1093.65 1.67322 -3.26188 0
M  V30 11228 H 1093.3 4.12043 -2.88496 0
M  V30 11229 H 1093 3.67631 -4.5839 0
M  V30 11230 H 1094.53 4.49327 -4.13446 0
M  V30 11231 H 1095.94 2.4728 -5.17229 0
M  V30 11232 H 1094.34 1.88181 -5.69832 0
M  V30 11233 H 1095.41 0.805848 -4.78157 0
M  V30 11234 N 1096.75 1.52266 0.40654 0
M  V30 11235 C 1097.66 1.78688 1.52012 0
M  V30 11236 C 1098.68 0.6726 1.60475 0
M  V30 11237 O 1099.85 0.95829 1.77141 0
M  V30 11238 C 1096.92 1.93434 2.87722 0
M  V30 11239 C 1095.98 3.17341 2.89125 0
M  V30 11240 C 1095.21 3.31374 4.18362 0
M  V30 11241 O 1095.43 2.50613 5.12396 0
M  V30 11242 O 1094.37 4.24539 4.26674 0
M  V30 11243 H 1098.19 2.73213 1.3262 0
M  V30 11244 H 1095.78 1.37142 0.592653 0
M  V30 11245 H 1097.66 2.04941 3.68208 0
M  V30 11246 H 1096.34 1.02099 3.07177 0
M  V30 11247 H 1095.24 3.1129 2.07483 0
M  V30 11248 H 1096.58 4.08466 2.7462 0
M  V30 11249 N 1098.23 -0.663929 1.42933 0
M  V30 11250 C 1099.48 -1.41973 1.43271 0
M  V30 11251 C 1099.79 -1.95518 0.0566103 0
M  V30 11252 O 1101 -2.71428 -0.0625862 0
M  V30 11253 C 1099.45 -2.56882 2.52071 0
M  V30 11254 C 1099.06 -2.0999 3.95737 0
M  V30 11255 C 1100.8 -3.34322 2.61589 0
M  V30 11256 C 1098.71 -3.22046 4.96025 0
M  V30 11257 H 1097.64 -0.5334 0.532917 0
M  V30 11258 H 1100.29 -0.717709 1.68882 0
M  V30 11259 H 1098.67 -3.29504 2.19643 0
M  V30 11260 H 1099.85 -1.44449 4.37574 0
M  V30 11261 H 1098.16 -1.45459 3.90168 0
M  V30 11262 H 1100.76 -4.17796 3.33692 0
M  V30 11263 H 1101.1 -3.8164 1.66302 0
M  V30 11264 H 1101.64 -2.68775 2.93266 0
M  V30 11265 H 1098.38 -2.79708 5.92827 0
M  V30 11266 H 1097.9 -3.86333 4.5881 0
M  V30 11267 H 1099.57 -3.87345 5.1824 0
M  V30 11268 N 1099.71 -1.29285 -0.901281 0
M  V30 11269 C 1100.95 -1.16934 -1.64836 0
M  V30 11270 C 1101.28 0.279826 -1.92982 0
M  V30 11271 O 1100.55 1.19179 -1.55478 0
M  V30 11272 H 1099.13 -0.429768 -0.61099 0
M  V30 11273 H 1101.79 -1.62189 -1.08077 0
M  V30 11274 H 1100.88 -1.71821 -2.60545 0
M  V30 11275 N 1101.18 1.11143 -1.11736 0
M  V30 11276 C 1102.41 1.86474 -0.889435 0
M  V30 11277 C 1102.82 1.80584 0.564438 0
M  V30 11278 O 1102.17 1.18743 1.40163 0
M  V30 11279 C 1102.23 3.36066 -1.27671 0
M  V30 11280 C 1101.89 3.65721 -2.74038 0
M  V30 11281 C 1102.89 3.62941 -3.7225 0
M  V30 11282 C 1100.57 3.94629 -3.10762 0
M  V30 11283 C 1102.57 3.88651 -5.05202 0
M  V30 11284 C 1100.25 4.19997 -4.43899 0
M  V30 11285 C 1101.25 4.16996 -5.40928 0
M  V30 11286 O 1100.94 4.41724 -6.71666 0
M  V30 11287 H 1100.67 0.596438 -0.318178 0
M  V30 11288 H 1103.23 1.41465 -1.48918 0
M  V30 11289 H 1101.46 3.81695 -0.620124 0
M  V30 11290 H 1103.15 3.92769 -1.02409 0
M  V30 11291 H 1103.91 3.40655 -3.45223 0
M  V30 11292 H 1099.79 3.96099 -2.35853 0
M  V30 11293 H 1103.33 3.86224 -5.80927 0
M  V30 11294 H 1099.23 4.4176 -4.70657 0
M  V30 11295 H 1100 4.59276 -6.77501 0
M  V30 11296 N 1102.66 0.908147 1.28804 0
M  V30 11297 C 1104.08 0.605474 1.47669 0
M  V30 11298 C 1104.28 -0.850759 1.82659 0
M  V30 11299 O 1103.33 -1.63029 1.92816 0
M  V30 11300 C 1104.65 1.53856 2.58358 0
M  V30 11301 C 1106.2 1.54467 2.7223 0
M  V30 11302 C 1106.67 2.46424 3.86056 0
M  V30 11303 N 1108.16 2.44519 3.93402 0
M  V30 11304 C 1108.9 3.12371 4.80845 0
M  V30 11305 N 1108.39 3.89533 5.72919 0
M  V30 11306 N 1110.19 3.01486 4.74407 0
M  V30 11307 H 1102.34 1.84988 1.04371 0
M  V30 11308 H 1104.6 0.793132 0.519274 0
M  V30 11309 H 1104.31 2.57651 2.39393 0
M  V30 11310 H 1104.18 1.26543 3.5534 0
M  V30 11311 H 1106.57 0.514127 2.90587 0
M  V30 11312 H 1106.65 1.85821 1.75796 0
M  V30 11313 H 1106.29 3.49577 3.68454 0
M  V30 11314 H 1106.22 2.12375 4.81876 0
M  V30 11315 H 1108.71 1.88464 3.27551 0
M  V30 11316 H 1109.03 4.3834 6.36457 0
M  V30 11317 H 1107.37 3.93639 5.72777 0
M  V30 11318 H 1110.56 2.40713 4.01466 0
M  V30 11319 H 1110.73 3.5464 5.42342 0
M  V30 11320 N 1104.14 -1.42577 0.671525 0
M  V30 11321 C 1105.42 -1.95222 0.121529 0
M  V30 11322 C 1105.8 -1.61209 -1.36289 0
M  V30 11323 O 1105.15 -0.906561 -2.09747 0
M  V30 11324 C 1105.36 -3.46846 0.387189 0
M  V30 11325 C 1106.7 -4.23525 0.301938 0
M  V30 11326 O 1107.73 -3.54753 0.320755 0
M  V30 11327 O 1106.59 -5.45967 0.241317 0
M  V30 11328 H 1103.68 -0.826999 0.000968615 0
M  V30 11329 H 1106.23 -1.52422 0.746029 0
M  V30 11330 H 1105 -3.64795 1.41563 0
M  V30 11331 H 1104.62 -3.96686 -0.26948 0
M  V30 11332 N 1105.62 -0.414636 -1.52048 0
M  V30 11333 C 1106.87 0.16073 -2.01059 0
M  V30 11334 C 1107.18 1.45753 -1.30443 0
M  V30 11335 O 1108.39 2.11448 -1.703 0
M  V30 11336 C 1106.84 0.336993 -3.58319 0
M  V30 11337 C 1106.45 -0.948037 -4.37854 0
M  V30 11338 C 1108.19 0.867353 -4.15545 0
M  V30 11339 C 1106.1 -0.738662 -5.86769 0
M  V30 11340 H 1105.03 0.0638419 -0.751292 0
M  V30 11341 H 1107.68 -0.540925 -1.75346 0
M  V30 11342 H 1106.06 1.10111 -3.80383 0
M  V30 11343 H 1107.24 -1.71873 -4.27547 0
M  V30 11344 H 1105.55 -1.40522 -3.91972 0
M  V30 11345 H 1108.15 1.04012 -5.24486 0
M  V30 11346 H 1108.49 1.84358 -3.73253 0
M  V30 11347 H 1109.03 0.162148 -3.97469 0
M  V30 11348 H 1105.77 -1.6866 -6.3343 0
M  V30 11349 H 1105.29 -0.00736294 -5.998 0
M  V30 11350 H 1106.96 -0.382978 -6.45866 0
M  V30 11351 N 1107.1 1.56929 -0.145233 0
M  V30 11352 C 1108.51 1.82877 0.375884 0
M  V30 11353 C 1108.86 1.06384 1.64854 0
M  V30 11354 O 1107.98 0.30857 2.14189 0
M  V30 11355 C 1108.58 3.31725 0.688744 0
M  V30 11356 C 1107.14 3.58261 1.15439 0
M  V30 11357 C 1106.28 2.76737 0.176565 0
M  V30 11358 H 1109.24 1.54328 -0.36996 0
M  V30 11359 H 1109.26 3.47784 1.54359 0
M  V30 11360 H 1108.77 3.87371 -0.237694 0
M  V30 11361 H 1106.87 3.08 2.09683 0
M  V30 11362 H 1106.98 4.66732 1.08158 0
M  V30 11363 H 1105.35 2.45761 0.668843 0
M  V30 11364 H 1106.13 3.35154 -0.743432 0
M  V30 11365 N 1108.58 -0.128553 1.57075 0
M  V30 11366 C 1109.81 -0.851214 1.8825 0
M  V30 11367 C 1110.21 -1.74402 0.733531 0
M  V30 11368 O 1109.56 -1.81149 -0.305108 0
M  V30 11369 C 1109.62 -1.74451 3.14336 0
M  V30 11370 C 1109.28 -1.02699 4.45311 0
M  V30 11371 C 1110.28 -0.37224 5.18566 0
M  V30 11372 C 1107.96 -1.01101 4.9202 0
M  V30 11373 C 1109.96 0.2889 6.36745 0
M  V30 11374 C 1107.65 -0.346063 6.10119 0
M  V30 11375 C 1108.64 0.302744 6.82329 0
M  V30 11376 O 1108.33 0.9571 7.98182 0
M  V30 11377 H 1108.06 -0.250529 0.627863 0
M  V30 11378 H 1110.62 -0.120418 2.05047 0
M  V30 11379 H 1108.85 -2.51671 2.93596 0
M  V30 11380 H 1110.54 -2.34075 3.31608 0
M  V30 11381 H 1111.3 -0.376271 4.83538 0
M  V30 11382 H 1107.18 -1.50543 4.35727 0
M  V30 11383 H 1110.73 0.795901 6.93045 0
M  V30 11384 H 1106.62 -0.339762 6.44605 0
M  V30 11385 H 1107.39 0.860616 8.13963 0
M  V30 11386 N 1110.05 -1.5248 -0.398459 0
M  V30 11387 C 1111 -1.72965 -1.4855 0
M  V30 11388 C 1111.99 -0.583628 -1.49942 0
M  V30 11389 O 1113.18 -0.841106 -1.55738 0
M  V30 11390 C 1110.31 -1.89339 -2.86366 0
M  V30 11391 C 1109.39 -3.09845 -2.8958 0
M  V30 11392 N 1109.79 -4.32365 -2.62477 0
M  V30 11393 C 1108.08 -3.09897 -3.20749 0
M  V30 11394 C 1108.78 -5.13908 -2.72532 0
M  V30 11395 N 1107.76 -4.49387 -3.05864 0
M  V30 11396 H 1111.56 -2.65327 -1.26406 0
M  V30 11397 H 1109.08 -1.50658 -0.606299 0
M  V30 11398 H 1111.07 -2.02134 -3.64619 0
M  V30 11399 H 1109.73 -0.981841 -3.095 0
M  V30 11400 H 1110.74 -4.60659 -2.36673 0
M  V30 11401 H 1107.42 -2.28518 -3.49408 0
M  V30 11402 H 1108.81 -6.21548 -2.55202 0
M  V30 11403 N 1111.53 0.65634 -1.43283 0
M  V30 11404 C 1112.48 1.79058 -1.48462 0
M  V30 11405 C 1113.47 1.65563 -0.358512 0
M  V30 11406 O 1114.68 1.71947 -0.532365 0
M  V30 11407 H 1111.05 0.590716 -0.465358 0
M  V30 11408 H 1113.03 1.7181 -2.43975 0
M  V30 11409 C 1111.77 3.17304 -1.42175 0
M  V30 11410 H 1111.1 3.28324 -2.2813 0
M  V30 11411 H 1112.54 3.96633 -1.4986 0
M  V30 11412 C 1111 3.36613 -0.138929 0
M  V30 11413 O 1111.53 3.93633 0.80101 0
M  V30 11414 N 1109.73 2.90557 -0.0501237 0
M  V30 11415 H 1109.28 2.4434 -0.815821 0
M  V30 11416 H 1109.24 3.03853 0.807504 0
M  V30 11417 N 1113.01 1.29761 0.894412 0
M  V30 11418 C 1114.43 1.07888 1.17611 0
M  V30 11419 C 1114.63 -0.16644 2.00811 0
M  V30 11420 O 1113.68 -0.86272 2.37304 0
M  V30 11421 C 1114.99 2.33723 1.89193 0
M  V30 11422 C 1116.54 2.39095 2.01997 0
M  V30 11423 C 1117.02 3.64747 2.7699 0
M  V30 11424 N 1118.51 3.65501 2.84541 0
M  V30 11425 C 1119.24 4.59411 3.43117 0
M  V30 11426 N 1118.74 5.63657 4.02818 0
M  V30 11427 N 1120.53 4.46971 3.40842 0
M  V30 11428 H 1112.68 2.0967 0.339421 0
M  V30 11429 H 1114.95 0.923788 0.212882 0
M  V30 11430 H 1114.65 3.24551 1.35496 0
M  V30 11431 H 1114.53 2.41642 2.89636 0
M  V30 11432 H 1116.91 1.48751 2.54867 0
M  V30 11433 H 1116.99 2.35158 1.0067 0
M  V30 11434 H 1116.64 4.55445 2.24794 0
M  V30 11435 H 1116.57 3.65944 3.78672 0
M  V30 11436 H 1119.06 2.90129 2.42144 0
M  V30 11437 H 1119.37 6.31429 4.45552 0
M  V30 11438 H 1117.72 5.67461 4.01265 0
M  V30 11439 H 1120.91 3.64719 2.93424 0
M  V30 11440 H 1121.08 5.20341 3.86198 0
M  V30 11441 N 1114.49 -1.10549 1.12324 0
M  V30 11442 C 1115.74 -1.81851 0.872531 0
M  V30 11443 C 1116.05 -1.86058 -0.603468 0
M  V30 11444 O 1117.26 -2.53553 -0.970736 0
M  V30 11445 C 1115.71 -3.26631 1.51131 0
M  V30 11446 C 1115.32 -3.30725 3.02201 0
M  V30 11447 C 1117.06 -4.02768 1.34082 0
M  V30 11448 C 1114.97 -4.69957 3.59018 0
M  V30 11449 H 1113.9 -0.681422 0.322769 0
M  V30 11450 H 1116.55 -1.24332 1.34959 0
M  V30 11451 H 1114.93 -3.8414 0.961913 0
M  V30 11452 H 1116.11 -2.83046 3.63623 0
M  V30 11453 H 1114.42 -2.68072 3.18632 0
M  V30 11454 H 1117.02 -5.05612 1.73955 0
M  V30 11455 H 1117.36 -4.15328 0.284369 0
M  V30 11456 H 1117.9 -3.51671 1.85937 0
M  V30 11457 H 1114.63 -4.62597 4.64418 0
M  V30 11458 H 1114.15 -5.18008 3.02371 0
M  V30 11459 H 1115.83 -5.38925 3.58007 0
M  V30 11460 N 1115.97 -0.914965 -1.28321 0
M  V30 11461 C 1116.92 -0.375436 -2.24888 0
M  V30 11462 C 1117.9 0.51313 -1.52498 0
M  V30 11463 O 1119.09 0.352654 -1.73451 0
M  V30 11464 C 1116.22 0.382266 -3.41165 0
M  V30 11465 C 1115.31 -0.522089 -4.20874 0
M  V30 11466 N 1115.7 -1.63623 -4.78603 0
M  V30 11467 C 1114 -0.322703 -4.44831 0
M  V30 11468 C 1114.7 -2.19766 -5.38589 0
M  V30 11469 N 1113.67 -1.48878 -5.22816 0
M  V30 11470 H 1117.47 -1.2263 -2.67094 0
M  V30 11471 H 1114.99 -0.767759 -1.43106 0
M  V30 11472 H 1116.99 0.785641 -4.0943 0
M  V30 11473 H 1115.65 1.23021 -3.00493 0
M  V30 11474 H 1116.66 -2.01879 -4.76933 0
M  V30 11475 H 1113.33 0.485627 -4.14666 0
M  V30 11476 H 1114.72 -3.13494 -5.94282 0
M  V30 11477 N 1117.44 1.42219 -0.679077 0
M  V30 11478 C 1118.41 2.29197 -0.0125475 0
M  V30 11479 C 1119.41 1.43544 0.724691 0
M  V30 11480 O 1120.6 1.64884 0.562052 0
M  V30 11481 C 1117.73 3.26122 0.992846 0
M  V30 11482 H 1118.92 2.89629 -0.778154 0
M  V30 11483 H 1116.47 1.4993 -0.44166 0
M  V30 11484 H 1117.21 2.70637 1.78679 0
M  V30 11485 H 1116.99 3.89302 0.467544 0
M  V30 11486 H 1118.48 3.91339 1.45751 0
M  V30 11487 N 1118.92 0.422693 1.51826 0
M  V30 11488 C 1120.15 -0.147744 2.06372 0
M  V30 11489 C 1120.56 -1.37714 1.29152 0
M  V30 11490 O 1119.92 -1.7917 0.347046 0
M  V30 11491 C 1119.97 -0.484642 3.58237 0
M  V30 11492 O 1119.69 0.695944 4.32537 0
M  V30 11493 C 1121.19 -1.10734 4.29247 0
M  V30 11494 H 1118.41 -0.0144047 0.670845 0
M  V30 11495 H 1120.96 0.597558 1.95575 0
M  V30 11496 H 1119.11 -1.17984 3.68997 0
M  V30 11497 H 1119.53 0.411471 5.22884 0
M  V30 11498 H 1121 -1.29318 5.36639 0
M  V30 11499 H 1121.48 -2.08429 3.86593 0
M  V30 11500 H 1122.08 -0.451958 4.22892 0
M  V30 11501 N 1120.4 -1.5685 0.153553 0
M  V30 11502 C 1121.68 -1.8796 -0.541328 0
M  V30 11503 C 1122.06 -1.06059 -1.82523 0
M  V30 11504 O 1121.4 -0.149295 -2.28012 0
M  V30 11505 C 1121.61 -3.39697 -0.800442 0
M  V30 11506 C 1122.96 -4.09057 -1.13832 0
M  V30 11507 O 1123.99 -3.44913 -0.889578 0
M  V30 11508 O 1122.85 -5.22347 -1.60673 0
M  V30 11509 H 1119.94 -0.779268 -0.276895 0
M  V30 11510 H 1122.49 -1.68626 0.190657 0
M  V30 11511 H 1121.26 -3.91151 0.107935 0
M  V30 11512 H 1120.88 -3.64582 -1.58638 0
M  V30 11513 N 1121.88 0.120221 -1.57141 0
M  V30 11514 C 1123.12 0.829449 -1.85062 0
M  V30 11515 C 1123.46 1.79585 -0.739116 0
M  V30 11516 O 1122.73 1.92819 0.255147 0
M  V30 11517 C 1123.01 1.58042 -3.23566 0
M  V30 11518 C 1122.87 0.633706 -4.45314 0
M  V30 11519 C 1124.19 2.53688 -3.59625 0
M  V30 11520 H 1121.31 0.300086 -0.67314 0
M  V30 11521 H 1123.95 0.0937393 -1.89769 0
M  V30 11522 H 1122.1 2.20758 -3.19684 0
M  V30 11523 H 1123.77 0.0154836 -4.61297 0
M  V30 11524 H 1122.01 -0.054846 -4.33765 0
M  V30 11525 H 1122.68 1.19577 -5.38893 0
M  V30 11526 H 1125.16 2.01078 -3.6429 0
M  V30 11527 H 1124.04 3.03265 -4.57516 0
M  V30 11528 H 1124.3 3.36296 -2.8698 0
M  V30 11529 N 1123.36 1.52689 0.390367 0
M  V30 11530 C 1124.29 1.80338 1.48325 0
M  V30 11531 C 1125.27 0.655338 1.56969 0
M  V30 11532 O 1126.45 0.902792 1.7194 0
M  V30 11533 C 1123.58 1.97101 2.85952 0
M  V30 11534 C 1122.54 3.12783 2.92148 0
M  V30 11535 C 1121.86 3.14798 4.32211 0
M  V30 11536 C 1123.16 4.5188 2.61919 0
M  V30 11537 H 1124.86 2.71857 1.25437 0
M  V30 11538 H 1122.4 1.30813 0.601995 0
M  V30 11539 H 1124.36 2.15027 3.62411 0
M  V30 11540 H 1123.08 1.02271 3.10174 0
M  V30 11541 H 1121.74 2.94638 2.18137 0
M  V30 11542 H 1121.39 2.17653 4.53471 0
M  V30 11543 H 1121.09 3.92507 4.37278 0
M  V30 11544 H 1122.61 3.34877 5.10578 0
M  V30 11545 H 1124.02 4.70134 3.28096 0
M  V30 11546 H 1122.42 5.31647 2.78337 0
M  V30 11547 H 1123.49 4.58689 1.57266 0
M  V30 11548 N 1124.83 -0.648732 1.43629 0
M  V30 11549 C 1125.78 -1.75473 1.45579 0
M  V30 11550 C 1126.77 -1.57611 0.323683 0
M  V30 11551 O 1127.96 -1.67646 0.56778 0
M  V30 11552 C 1125.09 -3.14083 1.38589 0
M  V30 11553 C 1124.18 -3.37477 2.56846 0
M  V30 11554 N 1124.57 -3.31322 3.82177 0
M  V30 11555 C 1122.86 -3.68212 2.51666 0
M  V30 11556 C 1123.57 -3.54921 4.60875 0
M  V30 11557 N 1122.54 -3.76951 3.91675 0
M  V30 11558 H 1126.34 -1.69146 2.40347 0
M  V30 11559 H 1123.86 -0.850566 1.38344 0
M  V30 11560 H 1125.85 -3.93374 1.38068 0
M  V30 11561 H 1124.51 -3.21588 0.448442 0
M  V30 11562 H 1125.53 -3.10633 4.144 0
M  V30 11563 H 1122.2 -3.82806 1.66631 0
M  V30 11564 H 1123.59 -3.55904 5.69897 0
M  V30 11565 N 1126.31 -1.30234 -0.887518 0
M  V30 11566 C 1127.28 -1.16384 -1.97452 0
M  V30 11567 C 1128.28 -0.0957942 -1.60514 0
M  V30 11568 O 1129.47 -0.343706 -1.70776 0
M  V30 11569 C 1126.6 -0.782514 -3.31797 0
M  V30 11570 H 1127.79 -2.12952 -2.11167 0
M  V30 11571 H 1125.34 -1.13594 -1.07359 0
M  V30 11572 H 1126.08 0.18278 -3.23785 0
M  V30 11573 H 1125.86 -1.55434 -3.59976 0
M  V30 11574 H 1127.35 -0.709011 -4.11537 0
M  V30 11575 N 1127.79 1.09952 -1.12909 0
M  V30 11576 C 1129.04 1.82286 -0.888797 0
M  V30 11577 C 1129.37 1.85218 0.58379 0
M  V30 11578 O 1128.64 1.31645 1.43177 0
M  V30 11579 C 1128.93 3.28706 -1.47053 0
M  V30 11580 C 1128.78 3.34078 -3.01184 0
M  V30 11581 C 1130.1 4.25233 -1.13424 0
M  V30 11582 H 1127.22 0.661803 -0.324324 0
M  V30 11583 H 1129.86 1.28833 -1.3965 0
M  V30 11584 H 1128.01 3.74356 -1.03874 0
M  V30 11585 H 1129.68 2.96871 -3.5308 0
M  V30 11586 H 1127.93 2.73825 -3.36455 0
M  V30 11587 H 1128.6 4.37202 -3.36984 0
M  V30 11588 H 1131.07 3.87841 -1.50726 0
M  V30 11589 H 1129.95 5.26033 -1.56783 0
M  V30 11590 H 1130.21 4.42075 -0.0471496 0
M  V30 11591 N 1129.27 0.921757 1.27833 0
M  V30 11592 C 1130.51 0.569378 1.95268 0
M  V30 11593 C 1130.87 -0.878685 1.71163 0
M  V30 11594 O 1130.16 -1.6177 1.02669 0
M  V30 11595 C 1130.36 0.824259 3.47765 0
M  V30 11596 C 1130.19 2.29555 3.86697 0
M  V30 11597 C 1128.96 2.94715 4.10452 0
M  V30 11598 C 1131.15 3.27261 3.96743 0
M  V30 11599 N 1129.14 4.32058 4.36118 0
M  V30 11600 C 1130.51 4.49793 4.26715 0
M  V30 11601 C 1132.56 3.2255 3.79296 0
M  V30 11602 C 1131.26 5.68208 4.41057 0
M  V30 11603 C 1133.29 4.40272 3.9486 0
M  V30 11604 C 1132.65 5.61581 4.25213 0
M  V30 11605 H 1128.75 0.258368 0.738085 0
M  V30 11606 H 1131.34 1.18715 1.54321 0
M  V30 11607 H 1129.51 0.235697 3.87684 0
M  V30 11608 H 1131.24 0.435106 4.02354 0
M  V30 11609 H 1127.99 2.4541 4.05057 0
M  V30 11610 H 1128.42 5.03092 4.5302 0
M  V30 11611 H 1133.06 2.29835 3.54875 0
M  V30 11612 H 1130.78 6.61396 4.64308 0
M  V30 11613 H 1134.36 4.38138 3.82787 0
M  V30 11614 H 1133.24 6.51154 4.36998 0
M  V30 11615 N 1130.75 -1.41857 0.686609 0
M  V30 11616 C 1131.98 -2.05401 0.222238 0
M  V30 11617 C 1132.38 -1.51731 -1.13023 0
M  V30 11618 O 1131.73 -0.656701 -1.71561 0
M  V30 11619 C 1131.79 -3.59381 0.0926608 0
M  V30 11620 C 1131.45 -4.35801 1.37573 0
M  V30 11621 C 1132.45 -4.65678 2.31171 0
M  V30 11622 C 1130.14 -4.75233 1.62661 0
M  V30 11623 C 1132.13 -5.33936 3.48125 0
M  V30 11624 C 1129.82 -5.43229 2.79902 0
M  V30 11625 C 1130.81 -5.72507 3.72458 0
M  V30 11626 O 1130.5 -6.39106 4.87646 0
M  V30 11627 H 1130.23 -0.668126 0.102876 0
M  V30 11628 H 1132.79 -1.82775 0.93714 0
M  V30 11629 H 1131.02 -3.80711 -0.67793 0
M  V30 11630 H 1132.71 -4.04529 -0.333364 0
M  V30 11631 H 1133.47 -4.35704 2.13042 0
M  V30 11632 H 1129.35 -4.51831 0.914862 0
M  V30 11633 H 1132.9 -5.56706 4.20386 0
M  V30 11634 H 1128.79 -5.72621 2.97951 0
M  V30 11635 H 1129.56 -6.576 4.87344 0
M  V30 11636 N 1132.22 -0.430739 -1.51599 0
M  V30 11637 C 1133.15 0.374695 -2.30474 0
M  V30 11638 C 1134.14 1.02694 -1.35602 0
M  V30 11639 O 1135.32 1.03184 -1.6452 0
M  V30 11640 C 1132.45 1.47981 -3.14196 0
M  V30 11641 C 1131.4 0.951415 -4.17291 0
M  V30 11642 C 1130.73 2.15177 -4.89492 0
M  V30 11643 C 1132.03 -0.00957951 -5.22299 0
M  V30 11644 H 1133.72 -0.283508 -2.98055 0
M  V30 11645 H 1131.27 -0.13779 -1.43339 0
M  V30 11646 H 1133.22 2.05043 -3.68151 0
M  V30 11647 H 1131.95 2.16621 -2.44424 0
M  V30 11648 H 1130.61 0.403052 -3.64378 0
M  V30 11649 H 1130.25 2.82421 -4.1623 0
M  V30 11650 H 1129.95 1.80464 -5.59202 0
M  V30 11651 H 1131.48 2.72806 -5.46269 0
M  V30 11652 H 1132.89 0.470527 -5.71366 0
M  V30 11653 H 1131.29 -0.268959 -5.99497 0
M  V30 11654 H 1132.36 -0.948297 -4.75537 0
M  V30 11655 N 1133.7 1.56767 -0.161869 0
M  V30 11656 C 1134.93 2.00964 0.492027 0
M  V30 11657 C 1135.35 1.04206 1.57437 0
M  V30 11658 O 1134.7 0.0413998 1.82453 0
M  V30 11659 C 1134.75 3.4502 1.07904 0
M  V30 11660 O 1134.47 4.38082 0.0399085 0
M  V30 11661 C 1135.98 4.04572 1.81209 0
M  V30 11662 H 1133.2 0.658911 0.126797 0
M  V30 11663 H 1135.74 2.0283 -0.260824 0
M  V30 11664 H 1133.89 3.43959 1.78243 0
M  V30 11665 H 1134.31 5.22372 0.471985 0
M  V30 11666 H 1135.78 5.07321 2.17554 0
M  V30 11667 H 1136.26 3.46126 2.70359 0
M  V30 11668 H 1136.87 4.09307 1.15534 0
M  V30 11669 N 1135.18 -0.111886 1.57202 0
M  V30 11670 C 1136.41 -0.832407 1.89416 0
M  V30 11671 C 1136.82 -1.73096 0.753861 0
M  V30 11672 O 1136.18 -1.80416 -0.274992 0
M  V30 11673 C 1136.23 -1.65988 3.21139 0
M  V30 11674 O 1135.95 -0.797485 4.3078 0
M  V30 11675 C 1137.45 -2.48493 3.67105 0
M  V30 11676 H 1134.67 -0.238919 0.627024 0
M  V30 11677 H 1137.22 -0.0941456 2.04283 0
M  V30 11678 H 1135.37 -2.35082 3.07921 0
M  V30 11679 H 1135.79 -1.36892 5.06321 0
M  V30 11680 H 1137.26 -3.02072 4.62014 0
M  V30 11681 H 1137.74 -3.26182 2.94112 0
M  V30 11682 H 1138.34 -1.84628 3.83135 0
M  V30 11683 N 1136.66 -1.52894 -0.382264 0
M  V30 11684 C 1137.59 -1.74413 -1.48703 0
M  V30 11685 C 1138.6 -0.624663 -1.50339 0
M  V30 11686 O 1139.79 -0.900527 -1.54119 0
M  V30 11687 C 1136.89 -1.79387 -2.8753 0
M  V30 11688 C 1136.07 -3.08794 -3.09783 0
M  V30 11689 C 1135.12 -3.05226 -4.2863 0
M  V30 11690 O 1134.15 -3.79073 -4.24609 0
M  V30 11691 N 1135.35 -2.2488 -5.35172 0
M  V30 11692 H 1138.12 -2.69734 -1.30628 0
M  V30 11693 H 1135.68 -1.51465 -0.571842 0
M  V30 11694 H 1137.67 -1.74498 -3.65147 0
M  V30 11695 H 1136.24 -0.914233 -2.98932 0
M  V30 11696 H 1135.46 -3.27118 -2.19971 0
M  V30 11697 H 1136.75 -3.94347 -3.21509 0
M  V30 11698 H 1136.15 -1.64363 -5.41296 0
M  V30 11699 H 1134.7 -2.25825 -6.1143 0
M  V30 11700 N 1138.14 0.641106 -1.43971 0
M  V30 11701 C 1139.55 1.22254 -1.41106 0
M  V30 11702 C 1139.9 1.95825 -0.121284 0
M  V30 11703 O 1139.02 2.01901 0.77879 0
M  V30 11704 C 1139.62 2.22364 -2.55617 0
M  V30 11705 C 1138.18 2.75957 -2.55978 0
M  V30 11706 C 1137.33 1.50792 -2.32717 0
M  V30 11707 H 1140.28 0.432381 -1.52696 0
M  V30 11708 H 1140.3 3.04775 -2.27799 0
M  V30 11709 H 1139.81 1.68789 -3.49474 0
M  V30 11710 H 1137.91 3.33562 -1.66034 0
M  V30 11711 H 1138.02 3.22676 -3.54142 0
M  V30 11712 H 1136.39 1.7857 -1.81617 0
M  V30 11713 H 1137.17 0.991343 -3.28675 0
M  V30 11714 N 1139.62 1.30703 0.880598 0
M  V30 11715 C 1140.86 1.19142 1.62752 0
M  V30 11716 C 1141.18 -0.251795 1.93973 0
M  V30 11717 O 1142.38 -0.488971 2.67061 0
M  V30 11718 C 1140.84 2.08503 2.93351 0
M  V30 11719 C 1140.45 3.57758 2.69653 0
M  V30 11720 C 1142.19 2.05715 3.71324 0
M  V30 11721 C 1140.1 4.39161 3.96096 0
M  V30 11722 H 1139.03 0.442332 0.610622 0
M  V30 11723 H 1141.68 1.55483 0.974547 0
M  V30 11724 H 1140.06 1.65049 3.59965 0
M  V30 11725 H 1141.24 4.09388 2.11513 0
M  V30 11726 H 1139.55 3.62414 2.0505 0
M  V30 11727 H 1142.15 2.63783 4.65105 0
M  V30 11728 H 1142.49 1.04168 4.03057 0
M  V30 11729 H 1143.02 2.47313 3.11579 0
M  V30 11730 H 1139.76 5.4142 3.69519 0
M  V30 11731 H 1139.28 3.92293 4.53725 0
M  V30 11732 H 1140.96 4.50823 4.64077 0
M  V30 11733 N 1141.09 -1.09351 1.1349 0
M  V30 11734 C 1142.5 -1.63035 0.909746 0
M  V30 11735 C 1142.86 -1.88229 -0.553573 0
M  V30 11736 O 1141.98 -1.63256 -1.42044 0
M  V30 11737 C 1142.58 -2.96186 1.64497 0
M  V30 11738 C 1141.13 -3.46692 1.46566 0
M  V30 11739 C 1140.28 -2.21095 1.67369 0
M  V30 11740 H 1143.23 -0.92704 1.28809 0
M  V30 11741 H 1143.25 -3.64177 1.10251 0
M  V30 11742 H 1142.77 -2.77818 2.70996 0
M  V30 11743 H 1140.87 -3.70183 0.423728 0
M  V30 11744 H 1140.98 -4.24078 2.22923 0
M  V30 11745 H 1139.34 -2.29789 1.0986 0
M  V30 11746 H 1140.13 -2.05245 2.7519 0
M  V30 11747 N 1142.57 -0.928524 -1.27343 0
M  V30 11748 C 1143.82 -0.568267 -1.93946 0
M  V30 11749 C 1144.14 0.893501 -1.73325 0
M  V30 11750 O 1143.41 1.63344 -1.08147 0
M  V30 11751 H 1141.99 -0.207173 -0.717696 0
M  V30 11752 H 1144.65 -1.1811 -1.55036 0
M  V30 11753 H 1143.75 -0.775246 -3.02318 0
M  V30 11754 N 1144.05 1.41491 -0.694123 0
M  V30 11755 C 1144.98 2.33462 -0.0422169 0
M  V30 11756 C 1145.96 1.51739 0.76872 0
M  V30 11757 O 1147.15 1.8028 0.721985 0
M  V30 11758 C 1144.28 3.35545 0.895925 0
M  V30 11759 C 1143.23 4.27568 0.192188 0
M  V30 11760 C 1142.56 5.20014 1.24459 0
M  V30 11761 C 1143.86 5.1376 -0.940626 0
M  V30 11762 H 1145.55 2.88225 -0.810363 0
M  V30 11763 H 1143.1 1.38586 -0.39114 0
M  V30 11764 H 1145.05 3.9881 1.36121 0
M  V30 11765 H 1143.77 2.79129 1.69572 0
M  V30 11766 H 1142.43 3.65726 -0.25305 0
M  V30 11767 H 1142.08 4.59913 2.03687 0
M  V30 11768 H 1141.78 5.82417 0.778734 0
M  V30 11769 H 1143.3 5.86155 1.71041 0
M  V30 11770 H 1144.72 5.70601 -0.555692 0
M  V30 11771 H 1143.11 5.85097 -1.33349 0
M  V30 11772 H 1144.18 4.51011 -1.78093 0
M  V30 11773 N 1145.53 0.438773 1.51369 0
M  V30 11774 C 1146.75 -0.128221 2.07003 0
M  V30 11775 C 1147.18 -1.3557 1.30393 0
M  V30 11776 O 1146.54 -1.7804 0.342283 0
M  V30 11777 C 1146.58 -0.42761 3.58056 0
M  V30 11778 O 1145.69 -1.51382 3.83611 0
M  V30 11779 H 1145.03 -0.00123679 0.663999 0
M  V30 11780 H 1147.56 0.62052 1.94963 0
M  V30 11781 H 1147.57 -0.677645 4.02333 0
M  V30 11782 H 1146.24 0.469535 4.13241 0
M  V30 11783 H 1144.82 -1.25363 3.51196 0
M  V30 11784 N 1147.01 -1.56678 0.170181 0
M  V30 11785 C 1148.23 -2.01223 -0.481362 0
M  V30 11786 C 1148.65 -1.05039 -1.56883 0
M  V30 11787 O 1148.01 -0.0510751 -1.82429 0
M  V30 11788 C 1148.06 -3.45588 -1.06073 0
M  V30 11789 O 1147.78 -4.38097 -0.0166754 0
M  V30 11790 C 1149.28 -4.05527 -1.79061 0
M  V30 11791 H 1146.5 -0.659574 -0.1233 0
M  V30 11792 H 1149.04 -2.02689 0.271576 0
M  V30 11793 H 1147.2 -3.449 -1.76417 0
M  V30 11794 H 1147.61 -5.22615 -0.444276 0
M  V30 11795 H 1149.09 -5.08467 -2.1486 0
M  V30 11796 H 1149.56 -3.47554 -2.68519 0
M  V30 11797 H 1150.17 -4.09914 -1.13361 0
M  V30 11798 N 1148.48 0.103547 -1.57259 0
M  V30 11799 C 1149.73 0.809774 -1.85931 0
M  V30 11800 C 1150.06 1.78791 -0.758122 0
M  V30 11801 O 1149.34 1.93079 0.234682 0
M  V30 11802 C 1149.62 1.54601 -3.25224 0
M  V30 11803 C 1149.47 0.586439 -4.45961 0
M  V30 11804 C 1150.79 2.4986 -3.62296 0
M  V30 11805 H 1147.91 0.29293 -0.676285 0
M  V30 11806 H 1150.55 0.0736065 -1.89857 0
M  V30 11807 H 1148.7 2.17355 -3.22008 0
M  V30 11808 H 1150.38 -0.0334441 -4.61288 0
M  V30 11809 H 1148.62 -0.10085 -4.33683 0
M  V30 11810 H 1149.29 1.13855 -5.40131 0
M  V30 11811 H 1151.77 1.97203 -3.66402 0
M  V30 11812 H 1150.64 2.98396 -4.60707 0
M  V30 11813 H 1150.9 3.33233 -2.90531 0
M  V30 11814 N 1149.96 1.53094 0.37415 0
M  V30 11815 C 1151.21 1.68082 1.11495 0
M  V30 11816 C 1151.52 0.434685 1.90709 0
M  V30 11817 O 1152.73 0.464956 2.67489 0
M  V30 11818 C 1151.19 2.97101 2.03124 0
M  V30 11819 C 1150.79 4.28947 1.29262 0
M  V30 11820 C 1152.54 3.21456 2.77248 0
M  V30 11821 C 1150.44 5.4906 2.19743 0
M  V30 11822 H 1149.37 0.626238 0.419931 0
M  V30 11823 H 1152.03 1.79594 0.376588 0
M  V30 11824 H 1150.41 2.79371 2.80656 0
M  V30 11825 H 1151.58 4.57279 0.568528 0
M  V30 11826 H 1149.9 4.10968 0.670362 0
M  V30 11827 H 1152.49 4.08377 3.45155 0
M  V30 11828 H 1152.84 2.37153 3.42146 0
M  V30 11829 H 1153.37 3.3982 2.06803 0
M  V30 11830 H 1150.11 6.35815 1.59437 0
M  V30 11831 H 1149.63 5.25019 2.90027 0
M  V30 11832 H 1151.31 5.83517 2.79495 0
M  V30 11833 N 1151.44 -0.633461 1.44309 0
M  V30 11834 C 1152.39 -1.76674 1.51292 0
M  V30 11835 C 1153.38 -1.64972 0.384807 0
M  V30 11836 O 1154.59 -1.71079 0.559653 0
M  V30 11837 H 1150.96 -0.583238 0.474697 0
M  V30 11838 H 1152.93 -1.67907 2.46678 0
M  V30 11839 C 1151.68 -3.15002 1.47205 0
M  V30 11840 H 1151.01 -3.24653 2.33325 0
M  V30 11841 H 1152.45 -3.94199 1.56151 0
M  V30 11842 C 1150.9 -3.3635 0.192464 0
M  V30 11843 O 1151.43 -3.94857 -0.738285 0
M  V30 11844 N 1149.64 -2.9044 0.0963424 0
M  V30 11845 H 1149.19 -2.43011 0.85459 0
M  V30 11846 H 1149.15 -3.05099 -0.759061 0
M  V30 11847 N 1152.92 -1.31168 -0.873655 0
M  V30 11848 C 1154.2 -1.11285 -1.60857 0
M  V30 11849 C 1154.58 0.333788 -2.08444 0
M  V30 11850 O 1153.92 1.32726 -1.86 0
M  V30 11851 C 1154.13 -2.12379 -2.7694 0
M  V30 11852 C 1155.48 -2.44704 -3.46994 0
M  V30 11853 O 1156.51 -2.10778 -2.87143 0
M  V30 11854 O 1155.36 -3.02786 -4.54954 0
M  V30 11855 H 1152.46 -0.428177 -0.707526 0
M  V30 11856 H 1155 -1.42634 -0.91944 0
M  V30 11857 H 1153.78 -3.09703 -2.39164 0
M  V30 11858 H 1153.4 -1.81914 -3.53544 0
M  V30 11859 N 1154.4 1.08748 -1.14068 0
M  V30 11860 C 1155.35 2.13762 -0.793087 0
M  V30 11861 C 1156.33 1.59442 0.216123 0
M  V30 11862 O 1157.52 1.7699 0.0189888 0
M  V30 11863 C 1154.65 3.42249 -0.268432 0
M  V30 11864 C 1153.74 4.03459 -1.30696 0
M  V30 11865 N 1154.13 4.39126 -2.51002 0
M  V30 11866 C 1152.43 4.30748 -1.15637 0
M  V30 11867 C 1153.13 4.87438 -3.17457 0
M  V30 11868 N 1152.1 4.85326 -2.44866 0
M  V30 11869 H 1155.91 2.39152 -1.70831 0
M  V30 11870 H 1153.42 1.26046 -1.02403 0
M  V30 11871 H 1155.42 4.169 -0.00113254 0
M  V30 11872 H 1154.08 3.18309 0.641032 0
M  V30 11873 H 1155.09 4.30266 -2.88256 0
M  V30 11874 H 1151.76 4.1638 -0.305636 0
M  V30 11875 H 1153.15 5.24443 -4.20011 0
M  V30 11876 N 1155.87 0.935264 1.26849 0
M  V30 11877 C 1157.12 0.578545 1.93642 0
M  V30 11878 C 1157.44 -0.884296 1.73796 0
M  V30 11879 O 1156.71 -1.62768 1.09011 0
M  V30 11880 H 1155.29 0.210976 0.716588 0
M  V30 11881 H 1157.96 1.1893 1.54407 0
M  V30 11882 H 1157.05 0.791268 3.01903 0
M  V30 11883 N 1157.35 -1.41121 0.701616 0
M  V30 11884 C 1158.58 -2.05973 0.242896 0
M  V30 11885 C 1159 -1.52474 -1.10151 0
M  V30 11886 O 1158.36 -0.654224 -1.69085 0
M  V30 11887 C 1158.41 -3.59943 0.217614 0
M  V30 11888 O 1157.51 -4.04454 -0.805629 0
M  V30 11889 H 1156.85 -0.653581 0.117166 0
M  V30 11890 H 1159.38 -1.80777 0.958175 0
M  V30 11891 H 1159.39 -4.07969 0.0505267 0
M  V30 11892 H 1158.07 -3.98249 1.19877 0
M  V30 11893 H 1156.65 -3.6792 -0.607404 0
M  V30 11894 N 1158.83 -0.446794 -1.51134 0
M  V30 11895 C 1160.06 0.114893 -2.06581 0
M  V30 11896 C 1160.47 1.35642 -1.31327 0
M  V30 11897 O 1159.83 1.78595 -0.375506 0
M  V30 11898 C 1159.88 0.427589 -3.58962 0
M  V30 11899 O 1159.6 -0.764669 -4.31375 0
M  V30 11900 C 1161.1 1.03891 -4.30954 0
M  V30 11901 H 1158.32 0.00373031 -0.67099 0
M  V30 11902 H 1160.87 -0.628596 -1.94599 0
M  V30 11903 H 1159.02 1.12099 -3.70827 0
M  V30 11904 H 1159.44 -0.494605 -5.22163 0
M  V30 11905 H 1160.91 1.20764 -5.38628 0
M  V30 11906 H 1161.39 2.02252 -3.8986 0
M  V30 11907 H 1161.99 0.384623 -4.23557 0
M  V30 11908 N 1160.31 1.56586 -0.178487 0
M  V30 11909 C 1161.53 2.01915 0.473841 0
M  V30 11910 C 1161.96 1.05789 1.55533 0
M  V30 11911 O 1161.32 0.0386018 1.81259 0
M  V30 11912 C 1161.36 3.45799 1.02251 0
M  V30 11913 O 1160.47 3.52761 2.1362 0
M  V30 11914 H 1159.81 0.654372 0.112666 0
M  V30 11915 H 1162.34 2.02613 -0.284486 0
M  V30 11916 H 1162.35 3.85252 1.34332 0
M  V30 11917 H 1161.02 4.1526 0.230719 0
M  V30 11918 H 1159.6 3.25172 1.8253 0
M  V30 11919 N 1161.79 -0.095206 1.57312 0
M  V30 11920 C 1163.06 -0.830388 1.77099 0
M  V30 11921 C 1163.44 -1.9694 0.760121 0
M  V30 11922 O 1162.79 -2.2752 -0.211403 0
M  V30 11923 C 1163 -1.32507 3.22867 0
M  V30 11924 C 1164.35 -1.7679 3.86045 0
M  V30 11925 O 1165.37 -1.42131 3.26615 0
M  V30 11926 O 1164.23 -2.40876 4.90552 0
M  V30 11927 H 1161.33 -0.396083 0.72598 0
M  V30 11928 H 1163.87 -0.0770965 1.69525 0
M  V30 11929 H 1162.64 -0.508992 3.87975 0
M  V30 11930 H 1162.27 -2.14037 3.35073 0
M  V30 11931 N 1163.26 -1.53291 -0.366026 0
M  V30 11932 C 1164.49 -1.73665 -1.13381 0
M  V30 11933 C 1164.91 -0.464284 -1.8228 0
M  V30 11934 O 1164.27 0.581645 -1.71717 0
M  V30 11935 C 1164.32 -2.90225 -2.14013 0
M  V30 11936 O 1163.42 -2.58803 -3.21084 0
M  V30 11937 H 1162.77 -0.576762 -0.329 0
M  V30 11938 H 1165.3 -2.00174 -0.423287 0
M  V30 11939 H 1165.31 -3.16378 -2.57622 0
M  V30 11940 H 1163.98 -3.82518 -1.63257 0
M  V30 11941 H 1162.56 -2.43466 -2.82451 0
M  V30 11942 N 1164.74 0.6258 -1.44643 0
M  V30 11943 C 1166.02 1.38439 -1.38181 0
M  V30 11944 C 1166.4 2.11056 -0.0431928 0
M  V30 11945 O 1165.75 2.06683 0.974383 0
M  V30 11946 C 1165.96 2.34639 -2.58352 0
M  V30 11947 C 1167.31 2.97807 -3.02649 0
M  V30 11948 O 1168.33 2.44963 -2.58595 0
M  V30 11949 O 1167.19 3.93682 -3.79048 0
M  V30 11950 H 1164.28 0.619852 -0.54746 0
M  V30 11951 H 1166.83 0.650409 -1.56741 0
M  V30 11952 H 1165.6 1.80116 -3.47382 0
M  V30 11953 H 1165.22 3.15446 -2.42032 0
M  V30 11954 N 1166.22 1.31629 0.866686 0
M  V30 11955 C 1167.45 1.24609 1.65793 0
M  V30 11956 C 1167.87 -0.184944 1.87189 0
M  V30 11957 O 1167.23 -1.1322 1.41601 0
M  V30 11958 C 1167.28 1.9988 3.00134 0
M  V30 11959 O 1166.38 1.33838 3.90079 0
M  V30 11960 H 1165.72 0.430051 0.505917 0
M  V30 11961 H 1168.25 1.73752 1.08035 0
M  V30 11962 H 1168.26 2.09599 3.50046 0
M  V30 11963 H 1166.94 3.03947 2.83882 0
M  V30 11964 H 1165.51 1.3259 3.48532 0
M  V30 11965 N 1167.7 -1.08142 1.14644 0
M  V30 11966 C 1168.98 -1.77254 0.827071 0
M  V30 11967 C 1169.36 -1.99885 -0.67891 0
M  V30 11968 O 1168.7 -1.61084 -1.62062 0
M  V30 11969 C 1168.91 -3.08658 1.62884 0
M  V30 11970 C 1170.26 -3.83143 1.82993 0
M  V30 11971 O 1171.29 -3.18447 1.59593 0
M  V30 11972 O 1170.15 -4.9932 2.2213 0
M  V30 11973 H 1167.24 -0.769356 0.30335 0
M  V30 11974 H 1169.79 -1.1458 1.25178 0
M  V30 11975 H 1168.56 -2.87753 2.65168 0
M  V30 11976 H 1168.18 -3.79061 1.19994 0
M  V30 11977 N 1169.18 -0.941978 -1.26351 0
M  V30 11978 C 1170.4 -0.606231 -1.98342 0
M  V30 11979 C 1170.83 0.812014 -1.6967 0
M  V30 11980 O 1170.19 1.54712 -0.9452 0
M  V30 11981 C 1170.23 -0.855864 -3.50296 0
M  V30 11982 O 1169.34 0.0716251 -4.12338 0
M  V30 11983 H 1168.68 -0.231815 -0.62222 0
M  V30 11984 H 1171.21 -1.26513 -1.60797 0
M  V30 11985 H 1171.22 -0.777079 -4.00531 0
M  V30 11986 H 1169.89 -1.8896 -3.70496 0
M  V30 11987 H 1168.47 -0.0582866 -3.72854 0
M  V30 11988 N 1170.66 1.40747 -0.709091 0
M  V30 11989 C 1171.9 2.00606 -0.245324 0
M  V30 11990 C 1172.22 1.56489 1.16346 0
M  V30 11991 O 1171.49 0.801456 1.78755 0
M  V30 11992 H 1170.07 0.741833 -0.0877098 0
M  V30 11993 H 1172.74 1.72178 -0.913271 0
M  V30 11994 H 1171.83 3.10901 -0.273322 0
M  V30 11995 N 1172.13 0.454803 1.50895 0
M  V30 11996 C 1173.38 -0.10577 2.02224 0
M  V30 11997 C 1173.71 -1.41176 1.33789 0
M  V30 11998 O 1172.96 -1.90522 0.447181 0
M  V30 11999 C 1173.26 -0.354159 3.55641 0
M  V30 12000 C 1172.93 0.868136 4.42464 0
M  V30 12001 C 1171.59 1.2033 4.65912 0
M  V30 12002 C 1173.94 1.68272 4.93289 0
M  V30 12003 C 1171.27 2.3534 5.37431 0
M  V30 12004 C 1173.62 2.82396 5.6607 0
M  V30 12005 C 1172.29 3.16346 5.87777 0
M  V30 12006 H 1171.56 -0.0387041 0.739989 0
M  V30 12007 H 1174.2 0.605564 1.81673 0
M  V30 12008 H 1172.51 -1.14757 3.74617 0
M  V30 12009 H 1174.21 -0.8016 3.92906 0
M  V30 12010 H 1170.8 0.596995 4.24422 0
M  V30 12011 H 1174.98 1.43698 4.75042 0
M  V30 12012 H 1170.24 2.61936 5.52449 0
M  V30 12013 H 1174.41 3.45873 6.04438 0
M  V30 12014 H 1172.04 4.05574 6.42973 0
M  V30 12015 N 1173.61 -1.56489 0.186789 0
M  V30 12016 C 1174.84 -2.01722 -0.459993 0
M  V30 12017 C 1175.25 -1.06697 -1.5576 0
M  V30 12018 O 1174.61 -0.0704212 -1.82364 0
M  V30 12019 C 1174.66 -3.46693 -1.02401 0
M  V30 12020 O 1174.38 -4.3809 0.0297916 0
M  V30 12021 C 1175.88 -4.07403 -1.7475 0
M  V30 12022 H 1173.1 -0.660845 -0.116298 0
M  V30 12023 H 1175.65 -2.02389 0.293059 0
M  V30 12024 H 1173.8 -3.46752 -1.72749 0
M  V30 12025 H 1174.22 -5.23057 -0.388821 0
M  V30 12026 H 1175.69 -5.10718 -2.09455 0
M  V30 12027 H 1176.17 -3.50383 -2.64818 0
M  V30 12028 H 1176.77 -4.11093 -1.09007 0
M  V30 12029 N 1175.09 0.086862 -1.5736 0
M  V30 12030 C 1176.04 1.11134 -1.99081 0
M  V30 12031 C 1177.02 1.35318 -0.870506 0
M  V30 12032 O 1178.22 1.35871 -1.13437 0
M  V30 12033 C 1175.34 2.42931 -2.42569 0
M  V30 12034 C 1174.43 2.22085 -3.61302 0
M  V30 12035 N 1174.82 1.71128 -4.75971 0
M  V30 12036 C 1173.12 2.52619 -3.67559 0
M  V30 12037 C 1173.82 1.64745 -5.57883 0
M  V30 12038 N 1172.8 2.10257 -5.01291 0
M  V30 12039 H 1176.6 0.710431 -2.85184 0
M  V30 12040 H 1174.11 0.294168 -1.59714 0
M  V30 12041 H 1176.11 3.17069 -2.7069 0
M  V30 12042 H 1174.77 2.83751 -1.57846 0
M  V30 12043 H 1175.78 1.40207 -4.9856 0
M  V30 12044 H 1172.46 2.96908 -2.93516 0
M  V30 12045 H 1173.85 1.26329 -6.59917 0
M  V30 12046 N 1176.57 1.53483 0.357892 0
M  V30 12047 C 1177.82 1.69701 1.09754 0
M  V30 12048 C 1178.14 0.455389 1.89608 0
M  V30 12049 O 1177.41 -0.530623 1.88577 0
M  V30 12050 H 1175.99 0.62562 0.408178 0
M  V30 12051 H 1178.65 1.90696 0.402641 0
M  V30 12052 H 1177.74 2.56154 1.78302 0
M  V30 12053 N 1178.05 -0.61812 1.44973 0
M  V30 12054 C 1179 -1.72346 1.49268 0
M  V30 12055 C 1179.98 -1.56889 0.357042 0
M  V30 12056 O 1181.17 -1.66404 0.603212 0
M  V30 12057 C 1178.3 -3.11073 1.4522 0
M  V30 12058 C 1177.39 -3.31953 2.63947 0
M  V30 12059 N 1177.78 -3.23141 3.89119 0
M  V30 12060 C 1176.08 -3.62791 2.59419 0
M  V30 12061 C 1176.78 -3.45066 4.683 0
M  V30 12062 N 1175.75 -3.68558 3.99582 0
M  V30 12063 H 1179.55 -1.6401 2.43881 0
M  V30 12064 H 1177.07 -0.821029 1.40117 0
M  V30 12065 H 1179.07 -3.90356 1.46381 0
M  V30 12066 H 1177.73 -3.20565 0.516555 0
M  V30 12067 H 1178.74 -3.01773 4.20896 0
M  V30 12068 H 1175.41 -3.79185 1.74713 0
M  V30 12069 H 1176.8 -3.43735 5.77318 0
M  V30 12070 N 1179.52 -1.32087 -0.859693 0
M  V30 12071 C 1180.46 -1.14934 -1.97143 0
M  V30 12072 C 1181.43 -0.0501084 -1.62523 0
M  V30 12073 O 1182.62 -0.208472 -1.87344 0
M  V30 12074 C 1179.75 -0.758374 -3.30101 0
M  V30 12075 C 1178.79 -1.86212 -3.83702 0
M  V30 12076 S 1179.62 -3.46949 -4.07905 0
M  V30 12077 C 1180.78 -3.09813 -5.43844 0
M  V30 12078 H 1181.01 -2.09047 -2.11392 0
M  V30 12079 H 1178.55 -1.1669 -1.01108 0
M  V30 12080 H 1180.5 -0.539563 -4.06939 0
M  V30 12081 H 1179.17 0.163817 -3.13673 0
M  V30 12082 H 1178.36 -1.54144 -4.7985 0
M  V30 12083 H 1177.96 -2.03652 -3.13691 0
M  V30 12084 H 1180.25 -2.59345 -6.25897 0
M  V30 12085 H 1181.2 -4.04963 -5.8087 0
M  V30 12086 H 1181.6 -2.46971 -5.07607 0
M  V30 12087 N 1181 1.07532 -1.15215 0
M  V30 12088 C 1182.25 1.79737 -0.924062 0
M  V30 12089 C 1182.57 1.87072 0.550356 0
M  V30 12090 O 1181.84 1.37029 1.4 0
M  V30 12091 H 1180.42 0.665704 -0.338891 0
M  V30 12092 H 1183.08 1.29961 -1.45245 0
M  V30 12093 H 1182.18 2.82256 -1.33184 0
M  V30 12094 N 1182.48 0.948665 1.2585 0
M  V30 12095 C 1183.71 0.616334 1.97193 0
M  V30 12096 C 1184.12 -0.814538 1.70769 0
M  V30 12097 O 1183.46 -1.55569 0.976926 0
M  V30 12098 C 1183.52 0.787814 3.50762 0
M  V30 12099 C 1183.19 2.19472 4.0085 0
M  V30 12100 C 1184.18 3.17087 4.12009 0
M  V30 12101 C 1181.87 2.51731 4.34669 0
M  V30 12102 C 1183.86 4.45058 4.56292 0
M  V30 12103 C 1181.55 3.79932 4.78639 0
M  V30 12104 C 1182.55 4.76408 4.89412 0
M  V30 12105 O 1182.24 6.02325 5.32409 0
M  V30 12106 H 1181.97 0.230487 0.635493 0
M  V30 12107 H 1184.52 1.27379 1.61133 0
M  V30 12108 H 1182.75 0.0732154 3.86631 0
M  V30 12109 H 1184.44 0.457427 4.03314 0
M  V30 12110 H 1185.21 2.9349 3.8612 0
M  V30 12111 H 1181.09 1.77369 4.25513 0
M  V30 12112 H 1184.63 5.20363 4.64616 0
M  V30 12113 H 1180.53 4.03338 5.03973 0
M  V30 12114 H 1181.3 6.05615 5.50611 0
M  V30 12115 N 1183.96 -1.40369 0.716545 0
M  V30 12116 C 1185.2 -2.01167 0.256846 0
M  V30 12117 C 1185.54 -1.56689 -1.14727 0
M  V30 12118 O 1184.81 -0.787384 -1.7785 0
M  V30 12119 C 1185.1 -3.58511 0.337963 0
M  V30 12120 C 1184.95 -4.13059 1.78052 0
M  V30 12121 C 1186.27 -4.39142 -0.290295 0
M  V30 12122 H 1183.39 -0.730877 0.0948028 0
M  V30 12123 H 1186.03 -1.66833 0.909225 0
M  V30 12124 H 1184.18 -3.87891 -0.217482 0
M  V30 12125 H 1185.85 -3.94472 2.39143 0
M  V30 12126 H 1184.09 -3.67311 2.30793 0
M  V30 12127 H 1184.76 -5.22217 1.78867 0
M  V30 12128 H 1187.24 -4.15697 0.182987 0
M  V30 12129 H 1186.12 -5.48524 -0.203097 0
M  V30 12130 H 1186.38 -4.20209 -1.37394 0
M  V30 12131 N 1185.44 -0.462799 -1.50652 0
M  V30 12132 C 1186.68 0.0950445 -2.02277 0
M  V30 12133 C 1187.01 1.40465 -1.34536 0
M  V30 12134 O 1186.27 1.90283 -0.457279 0
M  V30 12135 C 1186.57 0.335294 -3.55824 0
M  V30 12136 C 1186.23 -0.891589 -4.41997 0
M  V30 12137 C 1184.89 -1.22799 -4.65268 0
M  V30 12138 C 1187.25 -1.70885 -4.9239 0
M  V30 12139 C 1184.57 -2.38186 -5.36175 0
M  V30 12140 C 1186.93 -2.85394 -5.64564 0
M  V30 12141 C 1185.59 -3.19458 -5.86091 0
M  V30 12142 H 1184.86 0.0347793 -0.740183 0
M  V30 12143 H 1187.51 -0.61519 -1.8135 0
M  V30 12144 H 1185.81 1.12769 -3.7522 0
M  V30 12145 H 1187.51 0.780752 -3.93326 0
M  V30 12146 H 1184.1 -0.619495 -4.24099 0
M  V30 12147 H 1188.28 -1.46215 -4.74273 0
M  V30 12148 H 1183.54 -2.64862 -5.51052 0
M  V30 12149 H 1187.71 -3.49073 -6.02595 0
M  V30 12150 H 1185.34 -4.08978 -6.40813 0
M  V30 12151 N 1186.91 1.56388 -0.195085 0
M  V30 12152 C 1188.14 2.02406 0.452399 0
M  V30 12153 C 1188.56 1.07432 1.54402 0
M  V30 12154 O 1187.92 0.0578246 1.81208 0
M  V30 12155 C 1187.97 3.46864 0.985778 0
M  V30 12156 O 1187.07 3.55007 2.09867 0
M  V30 12157 H 1186.42 0.65553 0.105719 0
M  V30 12158 H 1188.95 2.02299 -0.30596 0
M  V30 12159 H 1188.96 3.86655 1.30238 0
M  V30 12160 H 1187.63 4.15481 0.186662 0
M  V30 12161 H 1186.21 3.2709 1.79071 0
M  V30 12162 N 1188.39 -0.0785156 1.57404 0
M  V30 12163 C 1189.34 -1.09402 2.03224 0
M  V30 12164 C 1190.31 -1.38849 0.911596 0
M  V30 12165 O 1191.49 -1.50031 1.17878 0
M  V30 12166 C 1188.63 -2.40444 2.47549 0
M  V30 12167 C 1187.75 -2.17585 3.73203 0
M  V30 12168 C 1186.88 -3.42143 4.06339 0
M  V30 12169 C 1185.92 -3.14619 5.25054 0
M  V30 12170 N 1185.06 -4.31489 5.5386 0
M  V30 12171 H 1189.9 -0.696307 2.89751 0
M  V30 12172 H 1187.44 -0.332261 1.43298 0
M  V30 12173 H 1189.39 -3.16944 2.71298 0
M  V30 12174 H 1188.02 -2.78031 1.64009 0
M  V30 12175 H 1187.08 -1.3181 3.56834 0
M  V30 12176 H 1188.39 -1.93249 4.59844 0
M  V30 12177 H 1187.54 -4.27042 4.30953 0
M  V30 12178 H 1186.28 -3.69549 3.18253 0
M  V30 12179 H 1185.29 -2.28116 5.00243 0
M  V30 12180 H 1186.51 -2.88543 6.14752 0
M  V30 12181 H 1184.46 -4.58939 4.68734 0
M  V30 12182 H 1184.37 -4.10403 6.34906 0
M  V30 12183 H 1185.64 -5.17404 5.83021 0
M  V30 12184 N 1189.87 -1.5367 -0.349747 0
M  V30 12185 C 1191.1 -1.74547 -1.11089 0
M  V30 12186 C 1191.51 -0.481741 -1.82551 0
M  V30 12187 O 1190.87 0.546272 -1.74132 0
M  V30 12188 C 1190.92 -2.92148 -2.12913 0
M  V30 12189 O 1190.64 -4.13633 -1.44358 0
M  V30 12190 C 1192.14 -3.25027 -3.01451 0
M  V30 12191 H 1189.36 -0.583376 -0.331532 0
M  V30 12192 H 1191.91 -2.00473 -0.403841 0
M  V30 12193 H 1190.06 -2.68572 -2.79192 0
M  V30 12194 H 1190.48 -4.79601 -2.12329 0
M  V30 12195 H 1191.95 -4.10679 -3.68845 0
M  V30 12196 H 1192.43 -2.41064 -3.67131 0
M  V30 12197 H 1193.03 -3.50586 -2.40768 0
M  V30 12198 N 1191.35 0.610423 -1.45298 0
M  V30 12199 C 1192.58 1.39419 -1.52466 0
M  V30 12200 C 1192.99 1.88563 -0.1551 0
M  V30 12201 O 1192.33 1.62692 0.853061 0
M  V30 12202 C 1192.39 2.63515 -2.44541 0
M  V30 12203 C 1192.06 2.36028 -3.91331 0
M  V30 12204 C 1193.05 1.96567 -4.81308 0
M  V30 12205 C 1190.74 2.49028 -4.36223 0
M  V30 12206 C 1192.73 1.70461 -6.14184 0
M  V30 12207 C 1190.42 2.22536 -5.6914 0
M  V30 12208 C 1191.42 1.83314 -6.5794 0
M  V30 12209 O 1191.1 1.57131 -7.88394 0
M  V30 12210 H 1190.84 0.433278 -0.518889 0
M  V30 12211 H 1193.39 0.751803 -1.91147 0
M  V30 12212 H 1191.62 3.30463 -2.00826 0
M  V30 12213 H 1193.31 3.25554 -2.42424 0
M  V30 12214 H 1194.08 1.86062 -4.4789 0
M  V30 12215 H 1189.95 2.78524 -3.67349 0
M  V30 12216 H 1193.5 1.39773 -6.83454 0
M  V30 12217 H 1189.4 2.32657 -6.02114 0
M  V30 12218 H 1190.16 1.71207 -8.00394 0
M  V30 12219 N 1192.83 1.32541 0.852676 0
M  V30 12220 C 1193.77 1.21602 1.98282 0
M  V30 12221 C 1194.77 0.120384 1.68972 0
M  V30 12222 O 1195.97 0.283441 1.77754 0
M  V30 12223 H 1192.35 0.376994 0.650676 0
M  V30 12224 H 1194.32 2.17179 2.04636 0
M  V30 12225 C 1193.07 0.957965 3.34243 0
M  V30 12226 H 1192.39 1.79324 3.57327 0
M  V30 12227 H 1193.83 0.921673 4.13861 0
M  V30 12228 C 1192.29 -0.339271 3.35187 0
M  V30 12229 O 1192.82 -1.3505 3.78318 0
M  V30 12230 N 1191.03 -0.361944 2.88337 0
M  V30 12231 H 1190.57 0.461497 2.53432 0
M  V30 12232 H 1190.53 -1.22976 2.89352 0
M  V30 12233 N 1194.3 -1.0692 1.15784 0
M  V30 12234 C 1195.55 -1.79866 0.936815 0
M  V30 12235 C 1195.88 -1.867 -0.534477 0
M  V30 12236 O 1195.16 -1.35395 -1.39637 0
M  V30 12237 C 1195.44 -3.24691 1.55717 0
M  V30 12238 C 1195.29 -3.25975 3.09936 0
M  V30 12239 C 1196.61 -4.22076 1.24658 0
M  V30 12240 H 1193.73 -0.652971 0.341756 0
M  V30 12241 H 1196.37 -1.25085 1.43016 0
M  V30 12242 H 1194.52 -3.7147 1.13763 0
M  V30 12243 H 1196.2 -2.87405 3.60827 0
M  V30 12244 H 1194.44 -2.64808 3.43597 0
M  V30 12245 H 1195.11 -4.28114 3.48458 0
M  V30 12246 H 1197.59 -3.83709 1.60956 0
M  V30 12247 H 1196.46 -5.21691 1.70675 0
M  V30 12248 H 1196.72 -4.41794 0.164341 0
M  V30 12249 N 1195.78 -0.955326 -1.25345 0
M  V30 12250 C 1197.01 -0.627693 -1.97149 0
M  V30 12251 C 1197.43 0.800349 -1.70997 0
M  V30 12252 O 1196.78 1.53545 -0.986417 0
M  V30 12253 C 1196.83 -0.877675 -3.50684 0
M  V30 12254 O 1196.55 -2.24957 -3.75934 0
M  V30 12255 C 1198.06 -0.562524 -4.39716 0
M  V30 12256 H 1195.28 -0.235269 -0.628402 0
M  V30 12257 H 1197.82 -1.27989 -1.59496 0
M  V30 12258 H 1195.97 -0.271878 -3.86445 0
M  V30 12259 H 1196.39 -2.32022 -4.70389 0
M  V30 12260 H 1197.86 -0.787972 -5.46347 0
M  V30 12261 H 1198.34 0.50293 -4.36311 0
M  V30 12262 H 1198.95 -1.14767 -4.09522 0
M  V30 12263 N 1197.26 1.39987 -0.723979 0
M  V30 12264 C 1198.54 1.94637 -0.1939 0
M  V30 12265 C 1198.92 1.66156 1.30212 0
M  V30 12266 O 1198.27 0.983783 2.06238 0
M  V30 12267 C 1198.48 3.4517 -0.515652 0
M  V30 12268 C 1199.82 4.22113 -0.458919 0
M  V30 12269 O 1200.85 3.53318 -0.452198 0
M  V30 12270 O 1199.71 5.44695 -0.443783 0
M  V30 12271 H 1196.8 0.826394 -0.0316615 0
M  V30 12272 H 1199.35 1.49548 -0.802085 0
M  V30 12273 H 1198.12 3.5929 -1.55004 0
M  V30 12274 H 1197.74 3.97413 0.122067 0
M  V30 12275 N 1198.74 0.470782 1.50404 0
M  V30 12276 C 1200.02 -0.145879 1.95055 0
M  V30 12277 C 1200.4 -1.57004 1.41114 0
M  V30 12278 O 1199.74 -2.20152 0.612006 0
M  V30 12279 C 1199.95 -0.0895071 3.48885 0
M  V30 12280 C 1201.3 -0.278548 4.23685 0
M  V30 12281 O 1202.33 -0.166105 3.55812 0
M  V30 12282 O 1201.19 -0.505606 5.44156 0
M  V30 12283 H 1198.28 -0.111838 0.819403 0
M  V30 12284 H 1200.83 0.531162 1.61173 0
M  V30 12285 H 1199.6 0.904836 3.80695 0
M  V30 12286 H 1199.22 -0.808019 3.89303 0
M  V30 12287 N 1200.22 -1.56282 0.203376 0
M  V30 12288 C 1201.16 -2.19473 -0.714164 0
M  V30 12289 C 1202.13 -1.14454 -1.20372 0
M  V30 12290 O 1203.32 -1.42739 -1.26611 0
M  V30 12291 C 1200.46 -2.86451 -1.92457 0
M  V30 12292 C 1199.57 -4.06017 -1.47561 0
M  V30 12293 C 1198.71 -4.60829 -2.64216 0
M  V30 12294 C 1197.75 -5.72734 -2.15967 0
M  V30 12295 N 1196.88 -6.21916 -3.25829 0
M  V30 12296 H 1201.72 -2.97523 -0.168558 0
M  V30 12297 H 1199.26 -1.46926 -0.0714525 0
M  V30 12298 H 1201.22 -3.23459 -2.63496 0
M  V30 12299 H 1199.85 -2.10951 -2.44335 0
M  V30 12300 H 1198.9 -3.74617 -0.660784 0
M  V30 12301 H 1200.21 -4.8693 -1.08168 0
M  V30 12302 H 1199.37 -5.00185 -3.43366 0
M  V30 12303 H 1198.11 -3.7904 -3.06887 0
M  V30 12304 H 1197.11 -5.32899 -1.35273 0
M  V30 12305 H 1198.34 -6.56346 -1.74316 0
M  V30 12306 H 1196.28 -5.43047 -3.68016 0
M  V30 12307 H 1196.2 -6.97904 -2.90631 0
M  V30 12308 H 1197.47 -6.65927 -4.05168 0
M  V30 12309 N 1201.7 0.070167 -1.57444 0
M  V30 12310 C 1202.93 0.78076 -1.91279 0
M  V30 12311 C 1203.33 1.71559 -0.797754 0
M  V30 12312 O 1202.68 1.82156 0.237665 0
M  V30 12313 C 1202.74 1.62664 -3.20594 0
M  V30 12314 C 1202.4 0.861007 -4.48816 0
M  V30 12315 C 1203.4 0.179522 -5.1959 0
M  V30 12316 C 1201.08 0.8277 -4.95434 0
M  V30 12317 C 1203.08 -0.525024 -6.35234 0
M  V30 12318 C 1200.77 0.119382 -6.10983 0
M  V30 12319 C 1201.76 -0.555778 -6.80735 0
M  V30 12320 O 1201.45 -1.25268 -7.9408 0
M  V30 12321 H 1201.18 0.227053 -0.636728 0
M  V30 12322 H 1203.74 0.0442334 -2.05352 0
M  V30 12323 H 1201.97 2.40601 -3.02734 0
M  V30 12324 H 1203.66 2.21606 -3.40067 0
M  V30 12325 H 1204.42 0.19655 -4.84602 0
M  V30 12326 H 1200.3 1.34268 -4.41014 0
M  V30 12327 H 1203.85 -1.05257 -6.89613 0
M  V30 12328 H 1199.74 0.100287 -6.45422 0
M  V30 12329 H 1200.51 -1.16212 -8.10208 0
M  V30 12330 N 1203.17 1.53854 0.341593 0
M  V30 12331 C 1204.42 1.70856 1.07948 0
M  V30 12332 C 1204.74 0.475474 1.89114 0
M  V30 12333 O 1204.01 -0.510592 1.89129 0
M  V30 12334 H 1202.59 0.629914 0.401519 0
M  V30 12335 H 1205.25 1.91112 0.382393 0
M  V30 12336 H 1204.35 2.5803 1.75575 0
M  V30 12337 N 1204.65 -0.602709 1.4562 0
M  V30 12338 C 1205.89 -1.37284 1.51435 0
M  V30 12339 C 1206.26 -1.9138 0.154148 0
M  V30 12340 O 1207.46 -2.68659 0.0870009 0
M  V30 12341 C 1205.73 -2.48651 2.56724 0
M  V30 12342 S 1207.29 -3.36354 2.818 0
M  V30 12343 H 1204.1 -0.46798 0.535272 0
M  V30 12344 H 1206.71 -0.694957 1.82731 0
M  V30 12345 H 1205.41 -2.07267 3.54215 0
M  V30 12346 H 1204.94 -3.21234 2.27095 0
M  V30 12347 H 1206.96 -4.46937 2.15549 0
M  V30 12348 N 1206.13 -1.32992 -0.845635 0
M  V30 12349 C 1207.06 -1.25301 -1.97033 0
M  V30 12350 C 1208.04 -0.134966 -1.69564 0
M  V30 12351 O 1209.23 -0.323629 -1.91484 0
M  V30 12352 C 1206.36 -0.984551 -3.33052 0
M  V30 12353 C 1205.31 -2.06481 -3.749 0
M  V30 12354 C 1204.64 -1.6486 -5.08651 0
M  V30 12355 C 1205.94 -3.48083 -3.89404 0
M  V30 12356 H 1207.63 -2.194 -2.03725 0
M  V30 12357 H 1205.18 -1.05621 -0.978783 0
M  V30 12358 H 1207.13 -0.917269 -4.11296 0
M  V30 12359 H 1205.85 -0.00793116 -3.26599 0
M  V30 12360 H 1204.51 -2.1224 -2.98915 0
M  V30 12361 H 1204.16 -0.659183 -4.98662 0
M  V30 12362 H 1203.86 -2.37145 -5.37621 0
M  V30 12363 H 1205.38 -1.59585 -5.89377 0
M  V30 12364 H 1206.8 -3.44863 -4.57976 0
M  V30 12365 H 1205.19 -4.18796 -4.29802 0
M  V30 12366 H 1206.26 -3.87084 -2.92051 0
M  V30 12367 N 1207.61 1.06304 -1.1635 0
M  V30 12368 C 1208.83 1.83338 -0.969639 0
M  V30 12369 C 1209.26 1.81945 0.477231 0
M  V30 12370 O 1208.62 1.22018 1.34094 0
M  V30 12371 C 1208.66 3.2785 -1.50155 0
M  V30 12372 O 1207.77 4.06281 -0.707805 0
M  V30 12373 H 1207.11 0.567293 -0.345072 0
M  V30 12374 H 1209.64 1.34033 -1.54584 0
M  V30 12375 H 1209.65 3.7867 -1.51898 0
M  V30 12376 H 1208.32 3.28179 -2.55483 0
M  V30 12377 H 1206.9 3.65055 -0.760872 0
M  V30 12378 N 1209.09 0.96196 1.24836 0
M  V30 12379 C 1210.33 0.619489 1.92371 0
M  V30 12380 C 1210.65 -0.847233 1.75633 0
M  V30 12381 O 1209.92 -1.60419 1.12439 0
M  V30 12382 H 1208.5 0.226129 0.711951 0
M  V30 12383 H 1211.17 1.22179 1.5185 0
M  V30 12384 H 1210.26 0.855128 3.00157 0
M  V30 12385 N 1210.56 -1.39601 0.731392 0
M  V30 12386 C 1211.51 -2.32469 0.0781328 0
M  V30 12387 C 1212.51 -1.52873 -0.729811 0
M  V30 12388 O 1213.71 -1.68563 -0.631402 0
M  V30 12389 H 1210.09 -0.751972 0.00646515 0
M  V30 12390 H 1212.06 -2.85196 0.877833 0
M  V30 12391 C 1210.81 -3.37948 -0.817717 0
M  V30 12392 H 1210.13 -3.99272 -0.205417 0
M  V30 12393 H 1211.57 -4.05387 -1.24248 0
M  V30 12394 C 1210.03 -2.74703 -1.95038 0
M  V30 12395 O 1210.56 -2.62266 -3.04269 0
M  V30 12396 N 1208.76 -2.32845 -1.73872 0
M  V30 12397 H 1208.31 -2.43161 -0.850321 0
M  V30 12398 H 1208.27 -1.90869 -2.49833 0
M  V30 12399 N 1212.04 -0.478751 -1.50152 0
M  V30 12400 C 1213.29 0.07531 -2.01559 0
M  V30 12401 C 1213.6 1.40089 -1.36508 0
M  V30 12402 O 1214.81 2.04035 -1.79115 0
M  V30 12403 C 1213.27 0.184714 -3.59426 0
M  V30 12404 C 1212.87 -1.13289 -4.33439 0
M  V30 12405 C 1214.62 0.690326 -4.18849 0
M  V30 12406 C 1212.53 -0.986866 -5.83108 0
M  V30 12407 H 1211.46 0.0319196 -0.753324 0
M  V30 12408 H 1214.11 -0.614809 -1.72894 0
M  V30 12409 H 1212.49 0.938788 -3.84711 0
M  V30 12410 H 1213.66 -1.89852 -4.19872 0
M  V30 12411 H 1211.98 -1.57021 -3.8566 0
M  V30 12412 H 1214.57 0.816733 -5.28426 0
M  V30 12413 H 1214.92 1.68361 -3.80737 0
M  V30 12414 H 1215.45 -0.00657846 -3.97799 0
M  V30 12415 H 1212.19 -1.95375 -6.25707 0
M  V30 12416 H 1211.71 -0.261752 -5.99229 0
M  V30 12417 H 1213.39 -0.656567 -6.4366 0
M  V30 12418 N 1213.52 1.56172 -0.211661 0
M  V30 12419 C 1214.93 1.84307 0.297982 0
M  V30 12420 C 1215.28 1.1328 1.60194 0
M  V30 12421 O 1214.41 0.399137 2.12687 0
M  V30 12422 C 1215 3.34348 0.547428 0
M  V30 12423 C 1213.56 3.62835 1.0014 0
M  V30 12424 C 1212.71 2.77237 0.0590326 0
M  V30 12425 H 1215.66 1.5262 -0.435083 0
M  V30 12426 H 1215.68 3.54018 1.39469 0
M  V30 12427 H 1215.19 3.86015 -0.401778 0
M  V30 12428 H 1213.29 3.16616 1.96431 0
M  V30 12429 H 1213.41 4.70899 0.882653 0
M  V30 12430 H 1211.77 2.48377 0.564005 0
M  V30 12431 H 1212.55 3.31699 -0.884913 0
M  V30 12432 N 1215 -0.0618163 1.57479 0
M  V30 12433 C 1215.96 -1.05684 2.0338 0
M  V30 12434 C 1216.96 -1.31006 0.932423 0
M  V30 12435 O 1218.15 -1.26559 1.19702 0
M  V30 12436 C 1215.28 -2.39805 2.42294 0
M  V30 12437 H 1216.48 -0.661006 2.92525 0
M  V30 12438 H 1214.03 -0.307814 1.53239 0
M  V30 12439 H 1214.76 -2.84201 1.56207 0
M  V30 12440 H 1214.55 -2.22764 3.22674 0
M  V30 12441 H 1216.04 -3.11307 2.78349 0
M  V30 12442 N 1216.48 -1.54033 -0.333429 0
M  V30 12443 C 1217.41 -1.85719 -1.4153 0
M  V30 12444 C 1218.39 -0.713144 -1.54429 0
M  V30 12445 O 1219.57 -0.965984 -1.68471 0
M  V30 12446 C 1216.7 -2.07578 -2.78439 0
M  V30 12447 C 1215.66 -3.23411 -2.80338 0
M  V30 12448 C 1214.98 -3.30622 -4.2023 0
M  V30 12449 C 1216.28 -4.6129 -2.44968 0
M  V30 12450 H 1217.98 -2.76325 -1.15261 0
M  V30 12451 H 1215.52 -1.32957 -0.55303 0
M  V30 12452 H 1217.48 -2.28329 -3.5418 0
M  V30 12453 H 1216.2 -1.13713 -3.06165 0
M  V30 12454 H 1214.86 -3.02531 -2.07052 0
M  V30 12455 H 1214.51 -2.34333 -4.45081 0
M  V30 12456 H 1214.21 -4.08466 -4.22409 0
M  V30 12457 H 1215.73 -3.53596 -4.97798 0
M  V30 12458 H 1217.14 -4.81987 -3.10421 0
M  V30 12459 H 1215.54 -5.41611 -2.58414 0
M  V30 12460 H 1216.61 -4.6421 -1.40134 0
M  V30 12461 N 1217.95 0.594978 -1.45938 0
M  V30 12462 C 1218.86 1.73296 -1.58132 0
M  V30 12463 C 1219.88 1.67665 -0.465245 0
M  V30 12464 O 1221.06 1.87794 -0.727684 0
M  V30 12465 C 1218.12 3.09783 -1.55677 0
M  V30 12466 C 1217.18 3.26772 -2.78422 0
M  V30 12467 C 1216.42 4.56748 -2.76075 0
M  V30 12468 O 1216.64 5.39867 -1.84119 0
M  V30 12469 O 1215.57 4.76721 -3.67452 0
M  V30 12470 H 1219.4 1.65957 -2.54346 0
M  V30 12471 H 1216.98 0.760572 -1.28591 0
M  V30 12472 H 1218.87 3.91077 -1.56961 0
M  V30 12473 H 1217.54 3.17585 -0.626191 0
M  V30 12474 H 1216.45 2.45018 -2.82696 0
M  V30 12475 H 1217.78 3.23853 -3.70648 0
M  V30 12476 N 1219.43 1.33438 0.838571 0
M  V30 12477 C 1220.36 1.26344 1.96365 0
M  V30 12478 C 1221.34 0.143956 1.6949 0
M  V30 12479 O 1222.53 0.333779 1.9131 0
M  V30 12480 C 1219.66 1.0022 3.32526 0
M  V30 12481 C 1218.61 2.08466 3.73799 0
M  V30 12482 C 1217.94 1.67555 5.07769 0
M  V30 12483 C 1219.24 3.50144 3.87552 0
M  V30 12484 H 1220.93 2.20478 2.02558 0
M  V30 12485 H 1218.48 1.06139 0.973168 0
M  V30 12486 H 1220.43 0.939068 4.10803 0
M  V30 12487 H 1219.16 0.0252514 3.2659 0
M  V30 12488 H 1217.81 2.13822 2.97785 0
M  V30 12489 H 1217.46 0.685619 4.98305 0
M  V30 12490 H 1217.16 2.39993 5.36356 0
M  V30 12491 H 1218.69 1.62708 5.88522 0
M  V30 12492 H 1220.1 3.47287 4.56141 0
M  V30 12493 H 1218.5 4.21069 4.27575 0
M  V30 12494 H 1219.57 3.88628 2.89994 0
M  V30 12495 N 1220.91 -1.05686 1.16912 0
M  V30 12496 C 1221.84 -2.12775 0.824755 0
M  V30 12497 C 1222.82 -1.61286 -0.206289 0
M  V30 12498 O 1224.01 -1.8829 -0.0889616 0
M  V30 12499 C 1221.13 -3.37922 0.229422 0
M  V30 12500 C 1220.18 -4.08226 1.23506 0
M  V30 12501 S 1221.01 -4.57424 2.78431 0
M  V30 12502 C 1222.17 -5.85825 2.20364 0
M  V30 12503 H 1222.4 -2.41657 1.73174 0
M  V30 12504 H 1219.93 -1.18212 0.99324 0
M  V30 12505 H 1221.89 -4.10359 -0.107588 0
M  V30 12506 H 1220.55 -3.07186 -0.655424 0
M  V30 12507 H 1219.75 -4.98129 0.767059 0
M  V30 12508 H 1219.35 -3.41832 1.51747 0
M  V30 12509 H 1221.64 -6.58912 1.57611 0
M  V30 12510 H 1222.58 -6.37364 3.08501 0
M  V30 12511 H 1222.99 -5.4015 1.64008 0
M  V30 12512 N 1222.39 -0.968567 -1.24324 0
M  V30 12513 C 1223.35 -0.504307 -2.23583 0
M  V30 12514 C 1224.35 0.399626 -1.55755 0
M  V30 12515 O 1225.54 0.194966 -1.73106 0
M  V30 12516 C 1222.67 0.26956 -3.39833 0
M  V30 12517 H 1223.87 -1.3818 -2.6617 0
M  V30 12518 H 1221.42 -0.753241 -1.36952 0
M  V30 12519 H 1222.15 1.16411 -3.02686 0
M  V30 12520 H 1221.94 -0.379133 -3.90263 0
M  V30 12521 H 1223.43 0.583376 -4.13505 0
M  V30 12522 N 1223.87 1.39211 -0.738786 0
M  V30 12523 C 1224.8 2.33209 -0.11647 0
M  V30 12524 C 1225.78 1.54108 0.720056 0
M  V30 12525 O 1226.96 1.82486 0.664264 0
M  V30 12526 C 1224.09 3.38226 0.78872 0
M  V30 12527 C 1223.05 4.27963 0.0560636 0
M  V30 12528 C 1222.37 5.2371 1.07852 0
M  V30 12529 C 1223.67 5.10508 -1.1036 0
M  V30 12530 H 1225.37 2.85501 -0.901649 0
M  V30 12531 H 1222.91 1.37272 -0.435032 0
M  V30 12532 H 1224.87 4.02938 1.23364 0
M  V30 12533 H 1223.59 2.84382 1.60606 0
M  V30 12534 H 1222.25 3.64735 -0.369274 0
M  V30 12535 H 1221.9 4.66161 1.88953 0
M  V30 12536 H 1221.6 5.846 0.593048 0
M  V30 12537 H 1223.12 5.91299 1.52307 0
M  V30 12538 H 1224.53 5.68544 -0.736943 0
M  V30 12539 H 1222.93 5.80558 -1.51895 0
M  V30 12540 H 1224 4.45117 -1.92352 0
M  V30 12541 N 1225.34 0.486708 1.49896 0
M  V30 12542 C 1226.57 -0.0599944 2.06513 0
M  V30 12543 C 1226.98 -1.32662 1.34898 0
M  V30 12544 O 1226.33 -1.78915 0.416565 0
M  V30 12545 C 1226.39 -0.39838 3.57286 0
M  V30 12546 C 1226.05 0.768465 4.50493 0
M  V30 12547 C 1227.05 1.65495 4.92856 0
M  V30 12548 C 1224.73 0.96322 4.92978 0
M  V30 12549 C 1226.73 2.72046 5.76429 0
M  V30 12550 C 1224.41 2.03193 5.7633 0
M  V30 12551 C 1225.41 2.9089 6.17958 0
M  V30 12552 O 1225.1 3.95919 6.99645 0
M  V30 12553 H 1224.83 0.0107865 0.675914 0
M  V30 12554 H 1227.39 0.679087 1.93849 0
M  V30 12555 H 1225.62 -1.19086 3.67907 0
M  V30 12556 H 1227.31 -0.882003 3.96201 0
M  V30 12557 H 1228.07 1.51624 4.6069 0
M  V30 12558 H 1223.95 0.29004 4.60087 0
M  V30 12559 H 1227.49 3.40526 6.08841 0
M  V30 12560 H 1223.39 2.17064 6.07909 0
M  V30 12561 H 1224.16 3.93097 7.17925 0
M  V30 12562 N 1226.82 -1.56058 0.219941 0
M  V30 12563 C 1228.07 -1.98554 -0.412808 0
M  V30 12564 C 1228.4 -1.10742 -1.5953 0
M  V30 12565 O 1227.68 -0.164757 -1.93801 0
M  V30 12566 C 1227.96 -3.4995 -0.848923 0
M  V30 12567 C 1227.81 -4.48535 0.337094 0
M  V30 12568 C 1229.13 -4.05703 -1.70567 0
M  V30 12569 H 1226.25 -0.721869 -0.148576 0
M  V30 12570 H 1228.89 -1.87356 0.315852 0
M  V30 12571 H 1227.04 -3.59624 -1.46979 0
M  V30 12572 H 1228.72 -4.50874 0.975216 0
M  V30 12573 H 1226.96 -4.22474 0.984798 0
M  V30 12574 H 1227.63 -5.51999 -0.0109665 0
M  V30 12575 H 1230.11 -3.98964 -1.18182 0
M  V30 12576 H 1228.98 -5.11955 -1.97972 0
M  V30 12577 H 1229.24 -3.52487 -2.66844 0
M  V30 12578 N 1228.3 0.053464 -1.57509 0
M  V30 12579 C 1229.26 1.04604 -2.03938 0
M  V30 12580 C 1230.26 1.30509 -0.939357 0
M  V30 12581 O 1231.45 1.25922 -1.20371 0
M  V30 12582 C 1228.59 2.38516 -2.43563 0
M  V30 12583 H 1229.78 0.645484 -2.92871 0
M  V30 12584 H 1227.33 0.299683 -1.534 0
M  V30 12585 H 1228.07 2.83368 -1.57712 0
M  V30 12586 H 1227.85 2.2105 -3.23851 0
M  V30 12587 H 1229.34 3.09826 -2.79996 0
M  V30 12588 N 1229.78 1.54207 0.325255 0
M  V30 12589 C 1230.74 1.82757 1.38321 0
M  V30 12590 C 1231.74 0.699312 1.44797 0
M  V30 12591 O 1232.93 0.96762 1.44854 0
M  V30 12592 C 1230.06 1.98608 2.7707 0
M  V30 12593 H 1231.26 2.7728 1.14261 0
M  V30 12594 H 1228.81 1.45899 0.560647 0
M  V30 12595 H 1229.55 1.0629 3.06387 0
M  V30 12596 H 1229.33 2.80707 2.73763 0
M  V30 12597 H 1230.82 2.2215 3.53609 0
M  V30 12598 N 1231.26 -0.58723 1.46251 0
M  V30 12599 C 1232.22 -1.67863 1.5606 0
M  V30 12600 C 1233.22 -1.54715 0.438162 0
M  V30 12601 O 1234.41 -1.59415 0.702323 0
M  V30 12602 C 1231.54 -3.07262 1.47659 0
M  V30 12603 H 1232.74 -1.60525 2.53321 0
M  V30 12604 H 1230.29 -0.804691 1.33994 0
M  V30 12605 H 1231.02 -3.20159 0.5166 0
M  V30 12606 H 1230.81 -3.18213 2.29092 0
M  V30 12607 H 1232.3 -3.8672 1.57599 0
M  V30 12608 N 1232.74 -1.33881 -0.831482 0
M  V30 12609 C 1233.67 -1.19089 -1.94661 0
M  V30 12610 C 1234.65 -0.0845706 -1.6238 0
M  V30 12611 O 1235.83 -0.248163 -1.86859 0
M  V30 12612 C 1232.96 -0.828223 -3.28418 0
M  V30 12613 C 1232 -1.94309 -3.79666 0
M  V30 12614 S 1232.84 -3.55524 -4.00454 0
M  V30 12615 C 1233.99 -3.21279 -5.3715 0
M  V30 12616 H 1234.23 -2.13484 -2.0691 0
M  V30 12617 H 1231.76 -1.18809 -0.986098 0
M  V30 12618 H 1233.72 -0.625759 -4.05702 0
M  V30 12619 H 1232.38 0.0972457 -3.13949 0
M  V30 12620 H 1231.57 -1.64288 -4.76472 0
M  V30 12621 H 1231.17 -2.1026 -3.093 0
M  V30 12622 H 1233.46 -2.72563 -6.20255 0
M  V30 12623 H 1234.41 -4.17193 -5.7215 0
M  V30 12624 H 1234.82 -2.57683 -5.02255 0
M  V30 12625 N 1234.21 1.05064 -1.1747 0
M  V30 12626 C 1235.16 2.11131 -0.860692 0
M  V30 12627 C 1236.15 1.60049 0.165288 0
M  V30 12628 O 1237.34 1.76961 -0.0373288 0
M  V30 12629 C 1234.47 3.41222 -0.37718 0
M  V30 12630 C 1233.55 3.99097 -1.43466 0
M  V30 12631 N 1233.95 4.30918 -2.64846 0
M  V30 12632 C 1232.24 4.26851 -1.29282 0
M  V30 12633 C 1232.94 4.77092 -3.32804 0
M  V30 12634 N 1231.92 4.77291 -2.60182 0
M  V30 12635 H 1235.72 2.33597 -1.78353 0
M  V30 12636 H 1233.24 1.22724 -1.06361 0
M  V30 12637 H 1235.23 4.16685 -0.133766 0
M  V30 12638 H 1233.89 3.20188 0.53944 0
M  V30 12639 H 1234.9 4.20877 -3.01799 0
M  V30 12640 H 1231.58 4.15197 -0.437949 0
M  V30 12641 H 1232.97 5.10815 -4.36483 0
M  V30 12642 N 1235.69 0.975146 1.23809 0
M  V30 12643 C 1236.97 0.557725 1.8748 0
M  V30 12644 C 1237.35 -0.965164 1.87744 0
M  V30 12645 O 1236.7 -1.83966 1.35531 0
M  V30 12646 C 1236.91 1.15777 3.29236 0
M  V30 12647 C 1238.25 1.24726 4.05868 0
M  V30 12648 O 1239.28 1.11084 3.38436 0
M  V30 12649 O 1238.14 1.46373 5.26533 0
M  V30 12650 H 1235.23 0.187045 0.80557 0
M  V30 12651 H 1237.78 1.06989 1.31725 0
M  V30 12652 H 1236.55 2.20023 3.23583 0
M  V30 12653 H 1236.17 0.630103 3.92575 0
M  V30 12654 N 1237.17 -1.38817 0.746158 0
M  V30 12655 C 1238.4 -2.04274 0.309156 0
M  V30 12656 C 1238.81 -1.56389 -1.06486 0
M  V30 12657 O 1238.15 -0.728875 -1.68621 0
M  V30 12658 C 1238.21 -3.58664 0.245003 0
M  V30 12659 C 1237.88 -4.29574 1.55933 0
M  V30 12660 C 1238.87 -4.55454 2.50714 0
M  V30 12661 C 1236.56 -4.67907 1.82671 0
M  V30 12662 C 1238.55 -5.18691 3.70458 0
M  V30 12663 C 1236.24 -5.30869 3.0269 0
M  V30 12664 C 1237.24 -5.56195 3.96404 0
M  V30 12665 O 1236.93 -6.17848 5.14314 0
M  V30 12666 H 1236.66 -0.663162 0.131121 0
M  V30 12667 H 1239.21 -1.78636 1.01382 0
M  V30 12668 H 1237.44 -3.83244 -0.515847 0
M  V30 12669 H 1239.13 -4.05579 -0.16149 0
M  V30 12670 H 1239.9 -4.26276 2.3133 0
M  V30 12671 H 1235.78 -4.47544 1.10568 0
M  V30 12672 H 1239.32 -5.38375 4.4362 0
M  V30 12673 H 1235.22 -5.59469 3.2197 0
M  V30 12674 H 1235.98 -6.36338 5.14797 0
M  V30 12675 N 1238.65 -0.49465 -1.49636 0
M  V30 12676 C 1239.92 0.114829 -1.95263 0
M  V30 12677 C 1240.3 1.54739 -1.43593 0
M  V30 12678 O 1239.65 2.1915 -0.646953 0
M  V30 12679 C 1239.86 0.0339912 -3.48983 0
M  V30 12680 C 1241.21 0.211108 -4.24075 0
M  V30 12681 O 1242.23 0.109478 -3.56032 0
M  V30 12682 O 1241.09 0.418971 -5.44892 0
M  V30 12683 H 1238.19 0.0987883 -0.821078 0
M  V30 12684 H 1240.73 -0.556736 -1.60308 0
M  V30 12685 H 1239.51 -0.965287 -3.79207 0
M  V30 12686 H 1239.13 0.745982 -3.90539 0
M  V30 12687 N 1240.13 1.55939 -0.228214 0
M  V30 12688 C 1241.08 2.17223 0.692674 0
M  V30 12689 C 1242.06 1.12252 1.15275 0
M  V30 12690 O 1243.25 1.3822 1.10563 0
M  V30 12691 C 1240.38 2.86084 1.89766 0
M  V30 12692 C 1239.47 3.98288 1.45695 0
M  V30 12693 N 1239.86 5.00515 0.729258 0
M  V30 12694 C 1238.16 4.105 1.74372 0
M  V30 12695 C 1238.86 5.79516 0.503606 0
M  V30 12696 N 1237.83 5.33119 1.06229 0
M  V30 12697 H 1241.63 2.9362 0.128345 0
M  V30 12698 H 1239.15 1.62373 -0.0297445 0
M  V30 12699 H 1241.15 3.28404 2.5682 0
M  V30 12700 H 1239.81 2.11185 2.46639 0
M  V30 12701 H 1240.82 5.16495 0.381261 0
M  V30 12702 H 1237.49 3.46759 2.32518 0
M  V30 12703 H 1238.88 6.71857 -0.0760344 0
M  V30 12704 N 1241.6 -0.0451101 1.57535 0
M  V30 12705 C 1243.02 -0.59372 1.77008 0
M  V30 12706 C 1243.37 -1.76482 0.857233 0
M  V30 12707 O 1242.49 -2.16347 0.0479703 0
M  V30 12708 C 1243.09 -1.08383 3.20996 0
M  V30 12709 C 1241.65 -1.57808 3.41721 0
M  V30 12710 C 1240.79 -0.509067 2.72587 0
M  V30 12711 H 1243.74 0.181114 1.57663 0
M  V30 12712 H 1243.76 -1.95181 3.26626 0
M  V30 12713 H 1243.28 -0.231276 3.8741 0
M  V30 12714 H 1241.38 -2.45302 2.8046 0
M  V30 12715 H 1241.49 -1.63664 4.50279 0
M  V30 12716 H 1239.85 -0.960389 2.359 0
M  V30 12717 H 1240.64 0.333753 3.41674 0
M  V30 12718 N 1243.08 -1.54377 -0.317073 0
M  V30 12719 C 1244.33 -1.72551 -1.05216 0
M  V30 12720 C 1244.65 -0.5055 -1.88334 0
M  V30 12721 O 1243.92 0.480439 -1.89917 0
M  V30 12722 H 1242.5 -0.636222 -0.391447 0
M  V30 12723 H 1245.16 -1.91696 -0.35194 0
M  V30 12724 H 1244.26 -2.60791 -1.71448 0
M  V30 12725 N 1244.56 0.579466 -1.4656 0
M  V30 12726 C 1245.98 0.903163 -1.31587 0
M  V30 12727 C 1246.18 1.99406 -0.28972 0
M  V30 12728 O 1245.23 2.50632 0.30658 0
M  V30 12729 C 1246.55 1.31745 -2.70303 0
M  V30 12730 C 1248.09 1.43012 -2.78418 0
M  V30 12731 C 1248.57 1.87805 -4.17724 0
M  V30 12732 N 1250.06 1.94993 -4.20157 0
M  V30 12733 C 1250.79 2.30934 -5.2484 0
M  V30 12734 N 1250.29 2.65645 -6.39847 0
M  V30 12735 N 1252.08 2.31517 -5.12207 0
M  V30 12736 H 1244.23 -0.141111 -2.11931 0
M  V30 12737 H 1246.5 -0.000460304 -0.948 0
M  V30 12738 H 1246.2 0.589864 -3.46718 0
M  V30 12739 H 1246.08 2.2783 -3.00622 0
M  V30 12740 H 1248.46 2.14856 -2.02289 0
M  V30 12741 H 1248.55 0.451701 -2.5178 0
M  V30 12742 H 1248.19 1.16539 -4.94349 0
M  V30 12743 H 1248.12 2.86611 -4.41771 0
M  V30 12744 H 1250.61 1.70645 -3.37178 0
M  V30 12745 H 1250.92 2.92032 -7.15498 0
M  V30 12746 H 1249.27 2.63276 -6.43204 0
M  V30 12747 H 1252.46 2.03824 -4.21394 0
M  V30 12748 H 1252.63 2.59199 -5.93902 0
M  V30 12749 N 1246.04 1.3432 0.824371 0
M  V30 12750 C 1247.27 1.29669 1.61226 0
M  V30 12751 C 1247.68 -0.129532 1.88355 0
M  V30 12752 O 1247.04 -1.07616 1.47394 0
M  V30 12753 C 1247.09 2.08375 2.95402 0
M  V30 12754 O 1246.81 3.45434 2.69456 0
M  V30 12755 C 1248.31 2.11103 3.89808 0
M  V30 12756 H 1245.53 0.446137 0.501201 0
M  V30 12757 H 1248.08 1.76912 1.02579 0
M  V30 12758 H 1246.23 1.64777 3.5061 0
M  V30 12759 H 1246.64 3.86101 3.55001 0
M  V30 12760 H 1248.12 2.706 4.81124 0
M  V30 12761 H 1248.6 1.10505 4.25071 0
M  V30 12762 H 1249.2 2.54784 3.40537 0
M  V30 12763 N 1247.52 -1.0444 1.18026 0
M  V30 12764 C 1248.46 -2.14474 0.900202 0
M  V30 12765 C 1249.46 -1.68836 -0.138086 0
M  V30 12766 O 1250.66 -1.79997 0.00971011 0
M  V30 12767 H 1247.04 -0.700457 0.273613 0
M  V30 12768 H 1249.01 -2.35295 1.83518 0
M  V30 12769 C 1247.76 -3.44926 0.438305 0
M  V30 12770 H 1247.08 -3.8045 1.22874 0
M  V30 12771 H 1248.52 -4.23066 0.281306 0
M  V30 12772 C 1246.98 -3.26124 -0.845268 0
M  V30 12773 O 1247.51 -3.53368 -1.91034 0
M  V30 12774 N 1245.72 -2.79474 -0.7964 0
M  V30 12775 H 1245.26 -2.57503 0.0705595 0
M  V30 12776 H 1245.22 -2.67274 -1.65566 0
M  V30 12777 N 1248.99 -0.981699 -1.2329 0
M  V30 12778 C 1249.96 -0.527992 -2.23036 0
M  V30 12779 C 1250.96 0.383083 -1.5617 0
M  V30 12780 O 1252.15 0.176595 -1.73303 0
M  V30 12781 C 1249.28 0.233501 -3.40099 0
M  V30 12782 H 1250.47 -1.40995 -2.64689 0
M  V30 12783 H 1248.03 -0.767724 -1.36146 0
M  V30 12784 H 1248.76 1.13194 -3.03904 0
M  V30 12785 H 1248.55 -0.420505 -3.89839 0
M  V30 12786 H 1250.04 0.539485 -4.14101 0
M  V30 12787 N 1250.47 1.3842 -0.753509 0
M  V30 12788 C 1251.72 2.00119 -0.309633 0
M  V30 12789 C 1252.05 1.59811 1.10863 0
M  V30 12790 O 1251.3 0.827013 1.77367 0
M  V30 12791 C 1251.6 3.55375 -0.379937 0
M  V30 12792 C 1251.27 4.15393 -1.75384 0
M  V30 12793 C 1249.93 4.31499 -2.12984 0
M  V30 12794 C 1252.28 4.48503 -2.65508 0
M  V30 12795 C 1249.61 4.78011 -3.4018 0
M  V30 12796 C 1251.96 4.96431 -3.92095 0
M  V30 12797 C 1250.63 5.10744 -4.29764 0
M  V30 12798 H 1249.9 0.732286 -0.113303 0
M  V30 12799 H 1252.54 1.65468 -0.963975 0
M  V30 12800 H 1250.85 3.90161 0.357969 0
M  V30 12801 H 1252.54 4.00996 -0.0180738 0
M  V30 12802 H 1249.13 4.03271 -1.45156 0
M  V30 12803 H 1253.32 4.35661 -2.37724 0
M  V30 12804 H 1248.57 4.87277 -3.69284 0
M  V30 12805 H 1252.75 5.21021 -4.62072 0
M  V30 12806 H 1250.38 5.46545 -5.28387 0
M  V30 12807 N 1251.95 0.502579 1.49372 0
M  V30 12808 C 1252.88 -0.264307 2.31999 0
M  V30 12809 C 1253.86 -0.96107 1.40348 0
M  V30 12810 O 1255.05 -0.952167 1.69255 0
M  V30 12811 C 1252.18 -1.32822 3.20898 0
M  V30 12812 C 1251.13 -0.751236 4.21355 0
M  V30 12813 C 1250.46 -1.91578 4.99201 0
M  V30 12814 C 1251.76 0.258764 5.21659 0
M  V30 12815 H 1253.45 0.425391 2.96363 0
M  V30 12816 H 1251 0.206022 1.42519 0
M  V30 12817 H 1252.95 -1.87245 3.77515 0
M  V30 12818 H 1251.67 -2.04712 2.54481 0
M  V30 12819 H 1250.33 -0.228743 3.65886 0
M  V30 12820 H 1249.98 -2.62241 4.2923 0
M  V30 12821 H 1249.68 -1.53578 5.67175 0
M  V30 12822 H 1251.2 -2.46432 5.58663 0
M  V30 12823 H 1252.62 -0.197385 5.7296 0
M  V30 12824 H 1251.02 0.554681 5.97531 0
M  V30 12825 H 1252.09 1.1741 4.70471 0
M  V30 12826 N 1253.43 -1.55816 0.23648 0
M  V30 12827 C 1254.67 -1.98981 -0.391725 0
M  V30 12828 C 1255.01 -1.12428 -1.58346 0
M  V30 12829 O 1254.28 -0.185303 -1.93615 0
M  V30 12830 C 1254.57 -3.50831 -0.811759 0
M  V30 12831 C 1254.42 -4.48152 0.384648 0
M  V30 12832 C 1255.74 -4.07489 -1.66254 0
M  V30 12833 H 1252.86 -0.723404 -0.140911 0
M  V30 12834 H 1255.5 -1.87011 0.335706 0
M  V30 12835 H 1253.65 -3.61162 -1.43157 0
M  V30 12836 H 1255.32 -4.49814 1.02298 0
M  V30 12837 H 1253.56 -4.21406 1.02955 0
M  V30 12838 H 1254.23 -5.51979 0.0475809 0
M  V30 12839 H 1256.71 -4.00195 -1.13944 0
M  V30 12840 H 1255.59 -5.14026 -1.92531 0
M  V30 12841 H 1255.85 -3.55297 -2.6309 0
M  V30 12842 N 1254.91 0.036755 -1.57557 0
M  V30 12843 C 1255.87 1.02435 -2.05036 0
M  V30 12844 C 1256.87 1.29506 -0.953146 0
M  V30 12845 O 1258.06 1.24638 -1.217 0
M  V30 12846 C 1255.19 2.3592 -2.46079 0
M  V30 12847 H 1256.38 0.614384 -2.93539 0
M  V30 12848 H 1253.94 0.283396 -1.53709 0
M  V30 12849 H 1254.67 2.8168 -1.60708 0
M  V30 12850 H 1254.46 2.17603 -3.26177 0
M  V30 12851 H 1255.95 3.06839 -2.83266 0
M  V30 12852 N 1256.39 1.54543 0.308881 0
M  V30 12853 C 1257.61 1.77431 1.06422 0
M  V30 12854 C 1258.03 0.529972 1.81209 0
M  V30 12855 O 1257.39 -0.499912 1.7552 0
M  V30 12856 C 1257.44 2.9769 2.05092 0
M  V30 12857 O 1257.16 4.17315 1.33341 0
M  V30 12858 C 1258.66 3.32905 2.92727 0
M  V30 12859 H 1255.88 0.591961 0.315948 0
M  V30 12860 H 1258.42 2.01473 0.350547 0
M  V30 12861 H 1256.58 2.7588 2.71973 0
M  V30 12862 H 1256.99 4.85061 1.99539 0
M  V30 12863 H 1258.47 4.20314 3.57827 0
M  V30 12864 H 1258.94 2.50713 3.6061 0
M  V30 12865 H 1259.55 3.56847 2.31388 0
M  V30 12866 N 1257.86 -0.571685 1.46866 0
M  V30 12867 C 1259.09 -1.36008 1.56578 0
M  V30 12868 C 1259.51 -1.86909 0.211326 0
M  V30 12869 O 1258.87 -1.62179 -0.810421 0
M  V30 12870 C 1258.92 -2.51598 2.58323 0
M  V30 12871 O 1258.02 -3.53383 2.1259 0
M  V30 12872 H 1257.36 -0.404593 0.526498 0
M  V30 12873 H 1259.89 -0.692357 1.92529 0
M  V30 12874 H 1259.9 -2.98366 2.78283 0
M  V30 12875 H 1258.58 -2.13904 3.56676 0
M  V30 12876 H 1257.16 -3.13019 2.02666 0
M  V30 12877 N 1259.34 -1.34755 -0.817236 0
M  V30 12878 C 1260.3 -1.26687 -1.91006 0
M  V30 12879 C 1261.3 -0.180745 -1.59781 0
M  V30 12880 O 1262.49 -0.433748 -1.68714 0
M  V30 12881 C 1259.63 -0.957293 -3.27183 0
M  V30 12882 H 1260.82 -2.23846 -1.99582 0
M  V30 12883 H 1258.37 -1.19125 -1.01187 0
M  V30 12884 H 1259.11 0.0108917 -3.24298 0
M  V30 12885 H 1258.89 -1.74297 -3.5123 0
M  V30 12886 H 1260.38 -0.926161 -4.072 0
M  V30 12887 N 1260.82 1.03812 -1.18578 0
M  V30 12888 C 1262.23 1.58509 -0.986496 0
M  V30 12889 C 1262.58 1.90655 0.463136 0
M  V30 12890 O 1261.71 1.69847 1.34093 0
M  V30 12891 C 1262.3 2.88 -1.78441 0
M  V30 12892 C 1260.86 3.39304 -1.6294 0
M  V30 12893 C 1260.01 2.12857 -1.77727 0
M  V30 12894 H 1262.96 0.864528 -1.33085 0
M  V30 12895 H 1262.98 3.58502 -1.27501 0
M  V30 12896 H 1262.49 2.64572 -2.83942 0
M  V30 12897 H 1260.59 3.6774 -0.599864 0
M  V30 12898 H 1260.71 4.12959 -2.42902 0
M  V30 12899 H 1259.07 2.24285 -1.20699 0
M  V30 12900 H 1259.85 1.91882 -2.84669 0
M  V30 12901 N 1262.3 0.988223 1.22768 0
M  V30 12902 C 1263.23 0.492919 2.23837 0
M  V30 12903 C 1264.24 -0.409467 1.57567 0
M  V30 12904 O 1265.43 -0.21235 1.77232 0
M  V30 12905 C 1262.53 -0.305428 3.37521 0
M  V30 12906 C 1261.7 0.591966 4.33376 0
M  V30 12907 C 1260.76 -0.15387 5.25975 0
M  V30 12908 O 1259.79 0.459153 5.67345 0
M  V30 12909 N 1260.99 -1.43756 5.62418 0
M  V30 12910 H 1263.76 1.36199 2.66965 0
M  V30 12911 H 1261.32 0.862395 1.3702 0
M  V30 12912 H 1263.31 -0.812921 3.96451 0
M  V30 12913 H 1261.88 -1.07556 2.93514 0
M  V30 12914 H 1261.1 1.28019 3.72833 0
M  V30 12915 H 1262.39 1.20327 4.94367 0
M  V30 12916 H 1261.79 -1.95701 5.30771 0
M  V30 12917 H 1260.34 -1.89034 6.23786 0
M  V30 12918 N 1263.78 -1.38018 0.760839 0
M  V30 12919 C 1264.74 -2.28734 0.146154 0
M  V30 12920 C 1265.74 -1.47525 -0.639768 0
M  V30 12921 O 1266.93 -1.6788 -0.464964 0
M  V30 12922 C 1264.06 -3.31356 -0.801019 0
M  V30 12923 H 1265.25 -2.84599 0.945692 0
M  V30 12924 H 1262.81 -1.471 0.528323 0
M  V30 12925 H 1263.54 -2.80594 -1.62597 0
M  V30 12926 H 1263.33 -3.91366 -0.239775 0
M  V30 12927 H 1264.82 -3.99171 -1.22687 0
M  V30 12928 N 1265.25 -0.510493 -1.49103 0
M  V30 12929 C 1266.5 0.030689 -2.02777 0
M  V30 12930 C 1266.83 1.35765 -1.38858 0
M  V30 12931 O 1266.11 1.87209 -0.527528 0
M  V30 12932 C 1266.39 0.173261 -3.59683 0
M  V30 12933 C 1266.24 -1.17749 -4.34114 0
M  V30 12934 C 1267.56 0.909395 -4.30602 0
M  V30 12935 H 1264.68 0.0096789 -0.736936 0
M  V30 12936 H 1267.32 -0.663746 -1.78029 0
M  V30 12937 H 1265.47 0.764721 -3.80899 0
M  V30 12938 H 1267.15 -1.80856 -4.24369 0
M  V30 12939 H 1265.39 -1.76438 -3.96298 0
M  V30 12940 H 1266.06 -1.03094 -5.42287 0
M  V30 12941 H 1268.54 0.407677 -4.14098 0
M  V30 12942 H 1267.41 0.978012 -5.40117 0
M  V30 12943 H 1267.67 1.9553 -3.96511 0
M  V30 12944 N 1266.73 1.55688 -0.24474 0
M  V30 12945 C 1267.66 2.24272 0.64995 0
M  V30 12946 C 1268.64 1.22226 1.183 0
M  V30 12947 O 1269.83 1.50873 1.22274 0
M  V30 12948 C 1266.96 2.94053 1.84798 0
M  V30 12949 C 1265.91 4.02769 1.44779 0
M  V30 12950 C 1265.24 4.59965 2.72647 0
M  V30 12951 C 1266.54 5.18601 0.62047 0
M  V30 12952 H 1268.23 2.99298 0.0780654 0
M  V30 12953 H 1265.78 1.43955 0.0361069 0
M  V30 12954 H 1267.73 3.40732 2.47951 0
M  V30 12955 H 1266.45 2.16511 2.44521 0
M  V30 12956 H 1265.11 3.56856 0.839609 0
M  V30 12957 H 1264.76 3.79126 3.30564 0
M  V30 12958 H 1264.46 5.33352 2.46596 0
M  V30 12959 H 1265.99 5.09376 3.36703 0
M  V30 12960 H 1267.4 5.61519 1.15625 0
M  V30 12961 H 1265.8 5.98364 0.456097 0
M  V30 12962 H 1266.87 4.83503 -0.367798 0
M  V30 12963 N 1268.21 -0.0283989 1.57574 0
M  V30 12964 C 1269.44 -0.729772 1.93282 0
M  V30 12965 C 1269.85 -1.69384 0.842959 0
M  V30 12966 O 1269.19 -1.82722 -0.189286 0
M  V30 12967 C 1269.25 -1.54107 3.24794 0
M  V30 12968 C 1268.92 -0.741709 4.50941 0
M  V30 12969 C 1269.91 -0.0416985 5.19883 0
M  V30 12970 C 1267.6 -0.696053 4.97454 0
M  V30 12971 C 1269.59 0.693261 6.33619 0
M  V30 12972 C 1267.28 0.042651 6.11085 0
M  V30 12973 C 1268.28 0.736067 6.79022 0
M  V30 12974 O 1267.97 1.46278 7.9048 0
M  V30 12975 H 1267.7 -0.210092 0.642524 0
M  V30 12976 H 1270.25 0.0102277 2.05397 0
M  V30 12977 H 1268.48 -2.3249 3.09007 0
M  V30 12978 H 1270.17 -2.12512 3.45823 0
M  V30 12979 H 1270.94 -0.0679975 4.84952 0
M  V30 12980 H 1266.82 -1.22528 4.44419 0
M  V30 12981 H 1270.36 1.23504 6.8658 0
M  V30 12982 H 1266.26 0.0708708 6.45461 0
M  V30 12983 H 1267.02 1.37652 8.06842 0
M  V30 12984 N 1269.69 -1.54705 -0.300681 0
M  V30 12985 C 1270.64 -1.86433 -1.39087 0
M  V30 12986 C 1271.63 -0.738101 -1.52474 0
M  V30 12987 O 1272.84 -0.922096 -1.54588 0
M  V30 12988 H 1269.21 -0.591314 -0.464599 0
M  V30 12989 H 1271.18 -2.77558 -1.09563 0
M  V30 12990 C 1269.93 -2.1286 -2.74929 0
M  V30 12991 H 1269.25 -2.98994 -2.6541 0
M  V30 12992 H 1270.69 -2.39 -3.50222 0
M  V30 12993 C 1269.15 -0.92726 -3.23888 0
M  V30 12994 O 1269.68 -0.147921 -4.01428 0
M  V30 12995 N 1267.89 -0.732553 -2.81215 0
M  V30 12996 H 1267.44 -1.36797 -2.18276 0
M  V30 12997 H 1267.39 0.0696902 -3.14323 0
M  V30 12998 N 1271.17 0.563888 -1.47167 0
M  V30 12999 C 1272.44 1.32454 -1.43928 0
M  V30 13000 C 1272.82 2.10683 -0.13267 0
M  V30 13001 O 1272.17 2.1063 0.885845 0
M  V30 13002 C 1272.38 2.2347 -2.68071 0
M  V30 13003 C 1273.73 2.84702 -3.15008 0
M  V30 13004 O 1274.75 2.33775 -2.68752 0
M  V30 13005 O 1273.61 3.77251 -3.95404 0
M  V30 13006 H 1270.71 0.596074 -0.573258 0
M  V30 13007 H 1273.25 0.583345 -1.59359 0
M  V30 13008 H 1272.02 1.6522 -3.54708 0
M  V30 13009 H 1271.65 3.04897 -2.55193 0
M  V30 13010 N 1272.64 1.35187 0.810078 0
M  V30 13011 C 1274.06 1.15149 1.10512 0
M  V30 13012 C 1274.26 -0.038394 2.01463 0
M  V30 13013 O 1273.32 -0.710056 2.42311 0
M  V30 13014 C 1274.63 2.45282 1.73946 0
M  V30 13015 C 1276.18 2.51457 1.86382 0
M  V30 13016 C 1276.65 3.81625 2.53232 0
M  V30 13017 N 1278.14 3.82856 2.6072 0
M  V30 13018 C 1278.88 4.80302 3.13206 0
M  V30 13019 N 1278.37 5.88134 3.66156 0
M  V30 13020 N 1280.17 4.67743 3.11726 0
M  V30 13021 H 1272.32 2.11405 0.205391 0
M  V30 13022 H 1274.58 0.935457 0.153702 0
M  V30 13023 H 1274.29 3.32512 1.14582 0
M  V30 13024 H 1274.16 2.59573 2.73682 0
M  V30 13025 H 1276.55 1.64659 2.44891 0
M  V30 13026 H 1276.63 2.41084 0.855113 0
M  V30 13027 H 1276.27 4.68819 1.95375 0
M  V30 13028 H 1276.2 3.89285 3.54633 0
M  V30 13029 H 1278.69 3.04941 2.23203 0
M  V30 13030 H 1279.01 6.58487 4.04494 0
M  V30 13031 H 1277.35 5.91831 3.64364 0
M  V30 13032 H 1280.54 3.82642 2.69635 0
M  V30 13033 H 1280.72 5.43849 3.52324 0
M  V30 13034 N 1274.12 -1.03182 1.19127 0
M  V30 13035 C 1275.35 -1.80703 1.01791 0
M  V30 13036 C 1275.77 -1.83147 -0.428824 0
M  V30 13037 O 1275.13 -1.2553 -1.30812 0
M  V30 13038 C 1275.18 -3.23754 1.58794 0
M  V30 13039 O 1274.28 -4.04261 0.815274 0
M  V30 13040 H 1273.62 -0.557944 0.359992 0
M  V30 13041 H 1276.15 -1.29887 1.58084 0
M  V30 13042 H 1276.16 -3.7451 1.61884 0
M  V30 13043 H 1274.84 -3.2129 2.64094 0
M  V30 13044 H 1273.42 -3.62909 0.857392 0
M  V30 13045 N 1275.6 -0.99472 -1.22242 0
M  V30 13046 C 1276.85 -0.672596 -1.91322 0
M  V30 13047 C 1277.18 0.793542 -1.77247 0
M  V30 13048 O 1276.45 1.57407 -1.14251 0
M  V30 13049 C 1276.74 -1.08155 -3.43474 0
M  V30 13050 C 1276.59 -2.60638 -3.6659 0
M  V30 13051 C 1277.91 -0.636161 -4.35478 0
M  V30 13052 H 1275.03 -0.24582 -0.694796 0
M  V30 13053 H 1277.67 -1.23857 -1.44082 0
M  V30 13054 H 1275.82 -0.599987 -3.83839 0
M  V30 13055 H 1277.49 -3.16479 -3.35617 0
M  V30 13056 H 1275.74 -3.02624 -3.10808 0
M  V30 13057 H 1276.41 -2.84304 -4.73155 0
M  V30 13058 H 1278.88 -1.04982 -4.02639 0
M  V30 13059 H 1277.76 -0.950584 -5.40606 0
M  V30 13060 H 1278.02 0.4631 -4.39668 0
M  V30 13061 N 1277.08 1.37613 -0.768148 0
M  V30 13062 C 1278.01 2.3291 -0.165911 0
M  V30 13063 C 1278.99 1.556 0.687205 0
M  V30 13064 O 1280.17 1.83854 0.625407 0
M  V30 13065 C 1277.3 3.39822 0.7168 0
M  V30 13066 C 1276.26 4.27986 -0.0347264 0
M  V30 13067 C 1275.58 5.2588 0.967192 0
M  V30 13068 C 1276.88 5.08052 -1.21164 0
M  V30 13069 H 1278.58 2.83524 -0.962006 0
M  V30 13070 H 1276.12 1.36318 -0.464051 0
M  V30 13071 H 1278.08 4.05464 1.14789 0
M  V30 13072 H 1276.8 2.87725 1.54538 0
M  V30 13073 H 1275.46 3.6387 -0.446557 0
M  V30 13074 H 1275.11 4.70064 1.79022 0
M  V30 13075 H 1274.81 5.85726 0.468913 0
M  V30 13076 H 1276.33 5.94397 1.3973 0
M  V30 13077 H 1277.75 5.66853 -0.857373 0
M  V30 13078 H 1276.14 5.77206 -1.64176 0
M  V30 13079 H 1277.21 4.40936 -2.0175 0
M  V30 13080 N 1278.56 0.518393 1.4883 0
M  V30 13081 C 1279.47 -0.254811 2.33212 0
M  V30 13082 C 1280.48 -0.950401 1.45751 0
M  V30 13083 O 1281.66 -0.927932 1.78749 0
M  V30 13084 C 1278.72 -1.29509 3.21603 0
M  V30 13085 C 1277.78 -0.611086 4.24928 0
M  V30 13086 C 1277.02 -1.6018 5.09095 0
M  V30 13087 O 1277.24 -2.83336 4.95052 0
M  V30 13088 O 1276.17 -1.14756 5.90859 0
M  V30 13089 H 1280 0.436329 3.00549 0
M  V30 13090 H 1277.59 0.27947 1.46763 0
M  V30 13091 H 1279.47 -1.89654 3.7631 0
M  V30 13092 H 1278.14 -1.96884 2.5694 0
M  V30 13093 H 1277.05 0.0305638 3.74088 0
M  V30 13094 H 1278.38 0.0205249 4.92196 0
M  V30 13095 N 1280.03 -1.55556 0.252993 0
M  V30 13096 C 1280.98 -2.23035 -0.660161 0
M  V30 13097 C 1281.98 -1.21994 -1.17532 0
M  V30 13098 O 1283.18 -1.39989 -1.13151 0
M  V30 13099 H 1279.56 -0.715516 -0.23139 0
M  V30 13100 H 1281.53 -2.98323 -0.0679506 0
M  V30 13101 C 1280.28 -2.94817 -1.84332 0
M  V30 13102 H 1279.6 -3.72342 -1.45607 0
M  V30 13103 H 1281.04 -3.45386 -2.45936 0
M  V30 13104 C 1279.5 -1.99033 -2.71822 0
M  V30 13105 O 1280.03 -1.5273 -3.71533 0
M  V30 13106 N 1278.24 -1.66004 -2.38518 0
M  V30 13107 H 1277.78 -2.03853 -1.57485 0
M  V30 13108 H 1277.74 -1.02183 -2.97331 0
M  V30 13109 N 1281.51 0.0200419 -1.57587 0
M  V30 13110 C 1282.46 1.0259 -2.03615 0
M  V30 13111 C 1283.45 1.31504 -0.927116 0
M  V30 13112 O 1284.64 1.30938 -1.19098 0
M  V30 13113 C 1281.77 2.32424 -2.52654 0
M  V30 13114 C 1280.85 2.06561 -3.70396 0
M  V30 13115 N 1281.24 1.50787 -4.82801 0
M  V30 13116 C 1279.54 2.36802 -3.77943 0
M  V30 13117 C 1280.24 1.40935 -5.64369 0
M  V30 13118 N 1279.22 1.88806 -5.09758 0
M  V30 13119 H 1283.02 0.588835 -2.87941 0
M  V30 13120 H 1280.54 0.226163 -1.60817 0
M  V30 13121 H 1282.53 3.05303 -2.83894 0
M  V30 13122 H 1281.19 2.76801 -1.69738 0
M  V30 13123 H 1282.2 1.18935 -5.04058 0
M  V30 13124 H 1278.88 2.84192 -3.05845 0
M  V30 13125 H 1280.27 0.982261 -6.64681 0
M  V30 13126 N 1282.99 1.54862 0.292472 0
M  V30 13127 C 1283.94 1.82788 1.36281 0
M  V30 13128 C 1284.92 0.685534 1.45565 0
M  V30 13129 O 1286.12 0.946393 1.49574 0
M  V30 13130 C 1283.25 2.08616 2.72643 0
M  V30 13131 C 1282.33 3.29058 2.67548 0
M  V30 13132 N 1282.72 4.49419 2.32069 0
M  V30 13133 C 1281.02 3.31257 2.98639 0
M  V30 13134 C 1281.72 5.31461 2.36483 0
M  V30 13135 N 1280.7 4.69389 2.7418 0
M  V30 13136 H 1284.5 2.73405 1.07828 0
M  V30 13137 H 1282.01 1.54477 0.501074 0
M  V30 13138 H 1284.01 2.26772 3.49829 0
M  V30 13139 H 1282.67 1.19272 3.02001 0
M  V30 13140 H 1283.68 4.75868 2.04377 0
M  V30 13141 H 1280.36 2.52045 3.32836 0
M  V30 13142 H 1281.75 6.37651 2.11779 0
M  V30 13143 N 1284.47 -0.556076 1.47464 0
M  V30 13144 C 1285.43 -1.64515 1.59586 0
M  V30 13145 C 1286.43 -1.53751 0.470881 0
M  V30 13146 O 1287.62 -1.57889 0.735979 0
M  V30 13147 C 1284.75 -3.0406 1.54143 0
M  V30 13148 H 1285.95 -1.55116 2.56669 0
M  V30 13149 H 1283.5 -0.776087 1.35671 0
M  V30 13150 H 1284.23 -3.18991 0.584395 0
M  V30 13151 H 1284.02 -3.13282 2.3579 0
M  V30 13152 H 1285.51 -3.8329 1.65766 0
M  V30 13153 N 1285.95 -1.35615 -0.802897 0
M  V30 13154 C 1286.91 -1.28705 -1.89651 0
M  V30 13155 C 1287.91 -0.197681 -1.5958 0
M  V30 13156 O 1289.1 -0.451618 -1.68244 0
M  V30 13157 C 1286.23 -0.991941 -3.26149 0
M  V30 13158 H 1287.43 -2.25951 -1.97196 0
M  V30 13159 H 1284.98 -1.20192 -0.999179 0
M  V30 13160 H 1285.71 -0.0235051 -3.24291 0
M  V30 13161 H 1285.5 -1.78013 -3.49362 0
M  V30 13162 H 1286.99 -0.969298 -4.06195 0
M  V30 13163 N 1287.43 1.02549 -1.19673 0
M  V30 13164 C 1288.39 2.09064 -0.939407 0
M  V30 13165 C 1289.39 1.60593 0.0814837 0
M  V30 13166 O 1290.58 1.73521 -0.153626 0
M  V30 13167 C 1287.71 3.38395 -0.412513 0
M  V30 13168 H 1288.9 2.33325 -1.88413 0
M  V30 13169 H 1286.46 1.19211 -1.01086 0
M  V30 13170 H 1287.19 3.19805 0.538094 0
M  V30 13171 H 1286.98 3.74898 -1.14863 0
M  V30 13172 H 1288.47 4.16841 -0.251678 0
M  V30 13173 N 1288.9 1.00119 1.21713 0
M  V30 13174 C 1289.87 0.563409 2.22167 0
M  V30 13175 C 1290.87 -0.35819 1.5676 0
M  V30 13176 O 1292.06 -0.149001 1.73562 0
M  V30 13177 C 1289.19 -0.179365 3.40428 0
M  V30 13178 H 1290.38 1.45189 2.62412 0
M  V30 13179 H 1287.93 0.789286 1.34907 0
M  V30 13180 H 1288.67 -1.08345 3.05666 0
M  V30 13181 H 1288.45 0.482471 3.8912 0
M  V30 13182 H 1289.94 -0.473537 4.14906 0
M  V30 13183 N 1290.38 -1.37203 0.775435 0
M  V30 13184 C 1291.63 -2.00349 0.350965 0
M  V30 13185 C 1291.98 -1.6045 -1.06176 0
M  V30 13186 O 1291.28 -0.842377 -1.72089 0
M  V30 13187 C 1291.47 -3.54725 0.436426 0
M  V30 13188 C 1291.3 -4.09617 1.85591 0
M  V30 13189 C 1290.07 -4.404 2.47741 0
M  V30 13190 C 1292.27 -4.30357 2.81598 0
M  V30 13191 N 1290.25 -4.81029 3.81424 0
M  V30 13192 C 1291.62 -4.73636 4.00087 0
M  V30 13193 C 1293.67 -4.12498 2.78837 0
M  V30 13194 C 1292.38 -5.00926 5.16203 0
M  V30 13195 C 1294.4 -4.40926 3.9413 0
M  V30 13196 C 1293.77 -4.84448 5.1136 0
M  V30 13197 H 1289.86 -0.762041 0.175549 0
M  V30 13198 H 1292.45 -1.66451 1.01005 0
M  V30 13199 H 1290.62 -3.87923 -0.192502 0
M  V30 13200 H 1292.35 -4.04699 -0.0104534 0
M  V30 13201 H 1289.11 -4.2961 1.9933 0
M  V30 13202 H 1289.53 -5.05648 4.50166 0
M  V30 13203 H 1294.17 -3.78018 1.89373 0
M  V30 13204 H 1291.89 -5.34293 6.06265 0
M  V30 13205 H 1295.48 -4.28692 3.93338 0
M  V30 13206 H 1294.36 -5.06022 5.99092 0
M  V30 13207 N 1291.86 -0.526279 -1.48553 0
M  V30 13208 C 1292.81 0.251938 -2.31232 0
M  V30 13209 C 1293.8 0.938991 -1.40994 0
M  V30 13210 O 1295.01 0.863798 -1.57919 0
M  V30 13211 H 1291.38 0.100114 -0.745306 0
M  V30 13212 H 1293.35 -0.465013 -2.94754 0
M  V30 13213 C 1292.1 1.28816 -3.22958 0
M  V30 13214 H 1291.43 0.768899 -3.92337 0
M  V30 13215 H 1292.87 1.80417 -3.837 0
M  V30 13216 C 1291.32 2.31982 -2.44307 0
M  V30 13217 O 1291.85 3.3835 -2.16523 0
M  V30 13218 N 1290.06 2.051 -2.05869 0
M  V30 13219 H 1289.61 1.18618 -2.28665 0
M  V30 13220 H 1289.57 2.74349 -1.53557 0
M  V30 13221 N 1293.34 1.5542 -0.261239 0
M  V30 13222 C 1294.27 2.24949 0.626126 0
M  V30 13223 C 1295.25 1.23474 1.16997 0
M  V30 13224 O 1296.43 1.52161 1.20667 0
M  V30 13225 C 1293.56 2.95996 1.81669 0
M  V30 13226 C 1292.52 4.04282 1.40499 0
M  V30 13227 C 1291.84 4.62831 2.67753 0
M  V30 13228 C 1293.14 5.1923 0.56543 0
M  V30 13229 H 1294.84 2.99364 0.0463164 0
M  V30 13230 H 1292.38 1.43985 0.0208366 0
M  V30 13231 H 1294.34 3.43343 2.44323 0
M  V30 13232 H 1293.06 2.19093 2.42211 0
M  V30 13233 H 1291.72 3.57726 0.801712 0
M  V30 13234 H 1291.37 3.82611 3.26524 0
M  V30 13235 H 1291.07 5.35938 2.40925 0
M  V30 13236 H 1292.59 5.12918 3.31281 0
M  V30 13237 H 1294.01 5.62714 1.09663 0
M  V30 13238 H 1292.4 5.98814 0.392607 0
M  V30 13239 H 1293.47 4.83086 -0.419059 0
M  V30 13240 N 1294.82 -0.0116844 1.57596 0
M  V30 13241 C 1296.06 -0.698958 1.90055 0
M  V30 13242 C 1296.39 -1.74422 0.860659 0
M  V30 13243 O 1295.65 -1.95226 -0.136132 0
M  V30 13244 C 1295.94 -1.38985 3.29269 0
M  V30 13245 C 1295.61 -0.478916 4.48349 0
M  V30 13246 C 1294.27 -0.228071 4.80659 0
M  V30 13247 C 1296.62 0.14897 5.20987 0
M  V30 13248 C 1293.95 0.659147 5.82986 0
M  V30 13249 C 1296.3 1.02399 6.24257 0
M  V30 13250 C 1294.97 1.28413 6.55032 0
M  V30 13251 H 1294.24 -0.255767 0.69546 0
M  V30 13252 H 1296.89 0.0413339 1.91455 0
M  V30 13253 H 1295.19 -2.2039 3.23937 0
M  V30 13254 H 1296.89 -1.92747 3.51638 0
M  V30 13255 H 1293.48 -0.68459 4.23097 0
M  V30 13256 H 1297.66 -0.0318326 4.9629 0
M  V30 13257 H 1292.92 0.86882 6.05195 0
M  V30 13258 H 1297.09 1.51694 6.79678 0
M  V30 13259 H 1294.72 1.97332 7.34142 0
M  V30 13260 N 1296.29 -1.55015 -0.284256 0
M  V30 13261 C 1297.23 -1.82031 -1.37623 0
M  V30 13262 C 1298.2 -0.672564 -1.48038 0
M  V30 13263 O 1299.39 -0.914349 -1.64839 0
M  V30 13264 C 1296.52 -1.97193 -2.75377 0
M  V30 13265 C 1295.56 -3.19699 -2.82303 0
M  V30 13266 S 1296.39 -4.77348 -2.42691 0
M  V30 13267 C 1297.55 -4.95468 -3.82442 0
M  V30 13268 H 1297.78 -2.74366 -1.14502 0
M  V30 13269 H 1295.32 -1.46642 -0.483283 0
M  V30 13270 H 1297.27 -2.06614 -3.54713 0
M  V30 13271 H 1295.94 -1.05766 -2.95757 0
M  V30 13272 H 1295.13 -3.27161 -3.83382 0
M  V30 13273 H 1294.73 -3.08811 -2.10978 0
M  V30 13274 H 1297.02 -4.80519 -4.77606 0
M  V30 13275 H 1297.97 -5.97538 -3.7994 0
M  V30 13276 H 1298.37 -4.23516 -3.73222 0
M  V30 13277 N 1297.77 0.548248 -1.47757 0
M  V30 13278 C 1299 1.335 -1.58722 0
M  V30 13279 C 1299.42 1.86549 -0.241034 0
M  V30 13280 O 1298.78 1.63447 0.784517 0
M  V30 13281 C 1298.83 2.47457 -2.62293 0
M  V30 13282 O 1297.93 3.49956 -2.18185 0
M  V30 13283 H 1297.27 0.396166 -0.532868 0
M  V30 13284 H 1299.8 0.66164 -1.93607 0
M  V30 13285 H 1299.81 2.93901 -2.82995 0
M  V30 13286 H 1298.49 2.08203 -3.60034 0
M  V30 13287 H 1297.06 3.09755 -2.0762 0
M  V30 13288 N 1299.25 1.36039 0.795694 0
M  V30 13289 C 1300.67 1.16315 1.09284 0
M  V30 13290 C 1300.87 -0.017024 2.01493 0
M  V30 13291 O 1299.92 -0.684316 2.4305 0
M  V30 13292 C 1301.23 2.47113 1.71335 0
M  V30 13293 C 1302.78 2.5342 1.83705 0
M  V30 13294 C 1303.26 3.84289 2.49171 0
M  V30 13295 N 1304.75 3.856 2.56645 0
M  V30 13296 C 1305.48 4.83597 3.08094 0
M  V30 13297 N 1304.98 5.91985 3.59897 0
M  V30 13298 N 1306.77 4.71023 3.06748 0
M  V30 13299 H 1298.92 2.11611 0.182957 0
M  V30 13300 H 1301.19 0.937035 0.143771 0
M  V30 13301 H 1300.89 3.33708 1.11049 0
M  V30 13302 H 1300.77 2.62461 2.70914 0
M  V30 13303 H 1303.15 1.67247 2.43131 0
M  V30 13304 H 1303.23 2.41977 0.829495 0
M  V30 13305 H 1302.88 4.70865 1.90391 0
M  V30 13306 H 1302.81 3.93025 3.50484 0
M  V30 13307 H 1305.3 3.07291 2.19956 0
M  V30 13308 H 1305.61 6.6274 3.97487 0
M  V30 13309 H 1303.96 5.95662 3.58066 0
M  V30 13310 H 1307.15 3.8548 2.65561 0
M  V30 13311 H 1307.32 5.47555 3.46536 0
M  V30 13312 N 1300.73 -1.01913 1.20215 0
M  V30 13313 C 1302.14 -1.5692 1.01159 0
M  V30 13314 C 1302.49 -1.91368 -0.432746 0
M  V30 13315 O 1301.62 -1.71959 -1.31374 0
M  V30 13316 C 1302.21 -2.85125 1.83001 0
M  V30 13317 C 1300.77 -3.36669 1.68318 0
M  V30 13318 C 1299.92 -2.10003 1.81091 0
M  V30 13319 H 1302.87 -0.843246 1.34443 0
M  V30 13320 H 1302.89 -3.56428 1.33188 0
M  V30 13321 H 1302.4 -2.60021 2.88116 0
M  V30 13322 H 1300.5 -3.66739 0.658292 0
M  V30 13323 H 1300.61 -4.09042 2.49442 0
M  V30 13324 H 1298.98 -2.22337 1.24252 0
M  V30 13325 H 1299.76 -1.87329 2.87685 0
M  V30 13326 N 1302.21 -1.00763 -1.2118 0
M  V30 13327 C 1303.12 -0.579646 -2.27326 0
M  V30 13328 C 1304.13 0.378592 -1.69831 0
M  V30 13329 O 1305.31 0.241772 -1.99944 0
M  V30 13330 C 1302.37 0.0843648 -3.46597 0
M  V30 13331 C 1301.43 -0.918685 -4.19355 0
M  V30 13332 C 1300.67 -0.286267 -5.32932 0
M  V30 13333 O 1300.89 0.916274 -5.62993 0
M  V30 13334 O 1299.82 -0.998513 -5.9356 0
M  V30 13335 H 1303.65 -1.46311 -2.66133 0
M  V30 13336 H 1301.24 -0.776641 -1.27627 0
M  V30 13337 H 1303.12 0.455636 -4.18929 0
M  V30 13338 H 1301.79 0.942166 -3.09685 0
M  V30 13339 H 1300.7 -1.34116 -3.49233 0
M  V30 13340 H 1302.03 -1.74616 -4.60185 0
M  V30 13341 N 1303.68 1.3679 -0.7827 0
M  V30 13342 C 1304.91 2.03382 -0.363207 0
M  V30 13343 C 1305.32 1.59157 1.02302 0
M  V30 13344 O 1304.67 0.773325 1.66629 0
M  V30 13345 C 1304.73 3.57889 -0.34001 0
M  V30 13346 C 1304.39 4.25289 -1.67268 0
M  V30 13347 C 1305.39 4.48647 -2.62701 0
M  V30 13348 C 1303.07 4.62899 -1.95013 0
M  V30 13349 C 1305.07 5.08686 -3.8408 0
M  V30 13350 C 1302.75 5.22657 -3.16659 0
M  V30 13351 C 1303.75 5.45489 -4.11012 0
M  V30 13352 O 1303.44 6.03995 -5.30515 0
M  V30 13353 H 1303.17 0.659452 -0.148658 0
M  V30 13354 H 1305.73 1.75885 -1.06082 0
M  V30 13355 H 1303.96 3.84477 0.414055 0
M  V30 13356 H 1305.65 4.05864 0.0539009 0
M  V30 13357 H 1306.41 4.19993 -2.42551 0
M  V30 13358 H 1302.29 4.44455 -1.22395 0
M  V30 13359 H 1305.83 5.26423 -4.57738 0
M  V30 13360 H 1301.73 5.50736 -3.3669 0
M  V30 13361 H 1302.5 6.22466 -5.31487 0
M  V30 13362 N 1305.16 0.53415 1.48272 0
M  V30 13363 C 1306.11 -0.239672 2.31362 0
M  V30 13364 C 1307.1 -0.931501 1.4149 0
M  V30 13365 O 1308.31 -0.855411 1.58375 0
M  V30 13366 H 1304.69 -0.09616 0.745827 0
M  V30 13367 H 1306.66 0.480638 2.94504 0
M  V30 13368 C 1305.41 -1.27102 3.23636 0
M  V30 13369 H 1304.73 -0.748082 3.92739 0
M  V30 13370 H 1306.17 -1.78379 3.84652 0
M  V30 13371 C 1304.63 -2.30683 2.45534 0
M  V30 13372 O 1305.16 -3.37197 2.18314 0
M  V30 13373 N 1303.36 -2.04006 2.06954 0
M  V30 13374 H 1302.91 -1.17403 2.29291 0
M  V30 13375 H 1302.87 -2.73531 1.5501 0
M  V30 13376 N 1306.64 -1.55279 0.269478 0
M  V30 13377 C 1307.89 -1.99471 -0.348913 0
M  V30 13378 C 1308.22 -1.15784 -1.56283 0
M  V30 13379 O 1307.47 -0.214115 -1.94525 0
M  V30 13380 C 1307.77 -3.48773 -0.780535 0
M  V30 13381 C 1307.44 -4.49705 0.328113 0
M  V30 13382 C 1306.1 -4.77024 0.632544 0
M  V30 13383 C 1308.45 -5.09984 1.07544 0
M  V30 13384 C 1305.78 -5.61893 1.68798 0
M  V30 13385 C 1308.13 -5.95999 2.12057 0
M  V30 13386 C 1306.79 -6.21642 2.4314 0
M  V30 13387 H 1306.06 -0.729918 -0.127676 0
M  V30 13388 H 1308.71 -1.87651 0.382015 0
M  V30 13389 H 1307.02 -3.5804 -1.59105 0
M  V30 13390 H 1308.71 -3.80369 -1.26966 0
M  V30 13391 H 1305.3 -4.28524 0.0807131 0
M  V30 13392 H 1309.49 -4.88906 0.853506 0
M  V30 13393 H 1304.74 -5.80009 1.93389 0
M  V30 13394 H 1308.92 -6.41743 2.70442 0
M  V30 13395 H 1306.54 -6.87198 3.25059 0
M  V30 13396 N 1308.12 0.00332656 -1.576 0
M  V30 13397 C 1309.05 0.994803 -2.11248 0
M  V30 13398 C 1310.03 1.36061 -1.02085 0
M  V30 13399 O 1311.21 1.44494 -1.2975 0
M  V30 13400 C 1308.34 2.28772 -2.61306 0
M  V30 13401 C 1307.3 2.06362 -3.74965 0
M  V30 13402 C 1306.62 3.41638 -4.11324 0
M  V30 13403 C 1307.92 1.4289 -5.02374 0
M  V30 13404 H 1309.62 0.548119 -2.9434 0
M  V30 13405 H 1307.16 0.262208 -1.41593 0
M  V30 13406 H 1309.12 2.98485 -2.97464 0
M  V30 13407 H 1307.84 2.75547 -1.75332 0
M  V30 13408 H 1306.5 1.39076 -3.39195 0
M  V30 13409 H 1306.15 3.8611 -3.22379 0
M  V30 13410 H 1305.85 3.2746 -4.87897 0
M  V30 13411 H 1307.37 4.12671 -4.50039 0
M  V30 13412 H 1308.79 2.02555 -5.36325 0
M  V30 13413 H 1307.18 1.3921 -5.8373 0
M  V30 13414 H 1308.25 0.397708 -4.83266 0
M  V30 13415 N 1309.6 1.55164 0.276031 0
M  V30 13416 C 1310.85 1.74833 1.0058 0
M  V30 13417 C 1311.16 0.555089 1.87558 0
M  V30 13418 O 1312.36 0.634127 2.63991 0
M  V30 13419 C 1310.82 3.09417 1.83818 0
M  V30 13420 C 1310.43 4.36299 1.01721 0
M  V30 13421 C 1312.17 3.38437 2.56244 0
M  V30 13422 C 1310.08 5.61923 1.8438 0
M  V30 13423 H 1309.01 0.651676 0.379254 0
M  V30 13424 H 1311.66 1.81626 0.26161 0
M  V30 13425 H 1310.04 2.96654 2.62321 0
M  V30 13426 H 1311.22 4.59969 0.276565 0
M  V30 13427 H 1309.53 4.144 0.407645 0
M  V30 13428 H 1312.13 4.29501 3.18485 0
M  V30 13429 H 1312.47 2.58432 3.26372 0
M  V30 13430 H 1313 3.52284 1.84773 0
M  V30 13431 H 1309.74 6.44667 1.18679 0
M  V30 13432 H 1309.26 5.424 2.56051 0
M  V30 13433 H 1310.94 6.0011 2.4182 0
M  V30 13434 N 1311.07 -0.540404 1.48045 0
M  V30 13435 C 1312.02 -1.66695 1.62221 0
M  V30 13436 C 1313.02 -1.6219 0.488943 0
M  V30 13437 O 1314.22 -1.67173 0.66732 0
M  V30 13438 H 1310.6 -0.551868 0.510828 0
M  V30 13439 H 1312.57 -1.51879 2.56856 0
M  V30 13440 C 1311.32 -3.05002 1.6694 0
M  V30 13441 H 1310.64 -3.09157 2.53499 0
M  V30 13442 H 1312.08 -3.8347 1.80904 0
M  V30 13443 C 1310.54 -3.34445 0.40598 0
M  V30 13444 O 1311.07 -3.98753 -0.485676 0
M  V30 13445 N 1309.28 -2.8924 0.280857 0
M  V30 13446 H 1308.82 -2.37085 1.00741 0
M  V30 13447 H 1308.78 -3.09309 -0.563493 0
M  V30 13448 N 1312.55 -1.36459 -0.788468 0
M  V30 13449 C 1313.48 -1.33545 -1.91541 0
M  V30 13450 C 1314.46 -0.206762 -1.68839 0
M  V30 13451 O 1315.65 -0.404553 -1.89939 0
M  V30 13452 C 1312.78 -1.12492 -3.28577 0
M  V30 13453 C 1311.73 -2.22196 -3.65805 0
M  V30 13454 C 1311.06 -1.86285 -5.01201 0
M  V30 13455 C 1312.36 -3.64286 -3.7429 0
M  V30 13456 H 1314.05 -2.27844 -1.94236 0
M  V30 13457 H 1311.6 -1.09677 -0.933105 0
M  V30 13458 H 1313.55 -1.09089 -4.07035 0
M  V30 13459 H 1312.28 -0.146446 -3.26272 0
M  V30 13460 H 1310.93 -2.24727 -2.89644 0
M  V30 13461 H 1310.58 -0.87009 -4.95417 0
M  V30 13462 H 1310.28 -2.59734 -5.27079 0
M  V30 13463 H 1311.81 -1.84439 -5.82078 0
M  V30 13464 H 1313.22 -3.63977 -4.42937 0
M  V30 13465 H 1311.62 -4.36648 -4.11653 0
M  V30 13466 H 1312.69 -3.99123 -2.75371 0
M  V30 13467 N 1314.03 1.01274 -1.20754 0
M  V30 13468 C 1315.31 1.7213 -0.929008 0
M  V30 13469 C 1315.69 2.03503 0.561217 0
M  V30 13470 O 1315.04 1.70259 1.52395 0
M  V30 13471 C 1315.25 2.98636 -1.80603 0
M  V30 13472 C 1316.59 3.71823 -2.0502 0
M  V30 13473 O 1317.62 3.08601 -1.77888 0
M  V30 13474 O 1316.48 4.8552 -2.50864 0
M  V30 13475 H 1313.57 0.750361 -0.347689 0
M  V30 13476 H 1316.12 1.07086 -1.31646 0
M  V30 13477 H 1314.89 2.71803 -2.81494 0
M  V30 13478 H 1314.51 3.7142 -1.4189 0
M  V30 13479 N 1315.51 1.01404 1.20644 0
M  V30 13480 C 1316.46 0.552956 2.21193 0
M  V30 13481 C 1317.44 -0.390324 1.56094 0
M  V30 13482 O 1318.64 -0.213705 1.75705 0
M  V30 13483 C 1315.76 -0.10995 3.43124 0
M  V30 13484 C 1314.85 0.854886 4.15394 0
M  V30 13485 N 1315.24 2.01137 4.64088 0
M  V30 13486 C 1313.54 0.675168 4.4086 0
M  V30 13487 C 1314.24 2.6187 5.19422 0
M  V30 13488 N 1313.22 1.89952 5.09332 0
M  V30 13489 H 1317.02 1.43467 2.56504 0
M  V30 13490 H 1314.53 0.87905 1.36552 0
M  V30 13491 H 1316.53 -0.457802 4.14379 0
M  V30 13492 H 1315.19 -0.987534 3.09318 0
M  V30 13493 H 1316.2 2.3914 4.59383 0
M  V30 13494 H 1312.88 -0.154577 4.17214 0
M  V30 13495 H 1314.27 3.59727 5.67491 0
M  V30 13496 N 1316.99 -1.36373 0.789944 0
M  V30 13497 C 1318.23 -1.99523 0.363119 0
M  V30 13498 C 1318.57 -1.6255 -1.0626 0
M  V30 13499 O 1317.84 -0.880551 -1.73426 0
M  V30 13500 C 1318.12 -3.56215 0.527526 0
M  V30 13501 C 1317.98 -4.0304 1.99697 0
M  V30 13502 C 1319.3 -4.40063 -0.0571079 0
M  V30 13503 H 1316.42 -0.724824 0.133412 0
M  V30 13504 H 1319.06 -1.61778 0.996381 0
M  V30 13505 H 1317.21 -3.88498 -0.0115636 0
M  V30 13506 H 1318.88 -3.81241 2.59717 0
M  V30 13507 H 1317.12 -3.54561 2.49939 0
M  V30 13508 H 1317.79 -5.12001 2.06297 0
M  V30 13509 H 1320.27 -4.14143 0.403082 0
M  V30 13510 H 1319.15 -5.4883 0.0879494 0
M  V30 13511 H 1319.41 -4.26901 -1.14926 0
M  V30 13512 N 1318.47 -0.542005 -1.47987 0
M  V30 13513 C 1319.38 0.217677 -2.33588 0
M  V30 13514 C 1320.39 0.927093 -1.47245 0
M  V30 13515 O 1321.57 0.899378 -1.80203 0
M  V30 13516 C 1318.63 1.24376 -3.23622 0
M  V30 13517 C 1317.69 0.543407 -4.25847 0
M  V30 13518 C 1316.93 1.5206 -5.11579 0
M  V30 13519 O 1317.15 2.75425 -4.99497 0
M  V30 13520 O 1316.08 1.05341 -5.9261 0
M  V30 13521 H 1319.91 -0.484089 -2.99817 0
M  V30 13522 H 1317.49 -0.302783 -1.463 0
M  V30 13523 H 1319.38 1.83644 -3.7928 0
M  V30 13524 H 1318.05 1.92772 -2.6004 0
M  V30 13525 H 1316.96 -0.090074 -3.73992 0
M  V30 13526 H 1318.29 -0.0988264 -4.92101 0
M  V30 13527 N 1319.94 1.55134 -0.277709 0
M  V30 13528 C 1321.19 1.99654 0.33833 0
M  V30 13529 C 1321.52 1.16612 1.55666 0
M  V30 13530 O 1320.77 0.224428 1.94409 0
M  V30 13531 C 1321.07 3.49182 0.762028 0
M  V30 13532 C 1320.74 4.49524 -0.351958 0
M  V30 13533 C 1319.4 4.76682 -0.657833 0
M  V30 13534 C 1321.75 5.09406 -1.10247 0
M  V30 13535 C 1319.08 5.6099 -1.71776 0
M  V30 13536 C 1321.43 5.94866 -2.15214 0
M  V30 13537 C 1320.1 6.20344 -2.46434 0
M  V30 13538 H 1319.37 0.730584 0.123804 0
M  V30 13539 H 1322.01 1.87446 -0.391961 0
M  V30 13540 H 1320.32 3.58879 1.57204 0
M  V30 13541 H 1322.02 3.81037 1.24947 0
M  V30 13542 H 1318.61 4.28475 -0.103438 0
M  V30 13543 H 1322.79 4.88446 -0.879422 0
M  V30 13544 H 1318.05 5.78975 -1.96463 0
M  V30 13545 H 1322.22 6.403 -2.73842 0
M  V30 13546 H 1319.85 6.85464 -3.28699 0
M  V30 13547 N 1321.42 0.00503138 1.57599 0
M  V30 13548 C 1322.37 -0.984754 2.08737 0
M  V30 13549 C 1323.34 -1.33822 0.983915 0
M  V30 13550 O 1324.52 -1.43572 1.25665 0
M  V30 13551 C 1321.66 -2.26984 2.59946 0
M  V30 13552 C 1320.78 -1.97496 3.84212 0
M  V30 13553 C 1319.91 -3.20123 4.23904 0
M  V30 13554 C 1318.95 -2.86344 5.40993 0
M  V30 13555 N 1318.09 -4.01524 5.75954 0
M  V30 13556 H 1322.93 -0.541737 2.93034 0
M  V30 13557 H 1320.46 -0.255834 1.44858 0
M  V30 13558 H 1322.42 -3.02117 2.87717 0
M  V30 13559 H 1321.05 -2.68946 1.78516 0
M  V30 13560 H 1320.1 -1.12709 3.63319 0
M  V30 13561 H 1321.42 -1.68602 4.69441 0
M  V30 13562 H 1320.57 -4.03598 4.52983 0
M  V30 13563 H 1319.31 -3.5216 3.37394 0
M  V30 13564 H 1318.31 -2.01278 5.11632 0
M  V30 13565 H 1319.54 -2.5555 6.29183 0
M  V30 13566 H 1317.49 -4.33447 4.92402 0
M  V30 13567 H 1317.4 -3.76171 6.55768 0
M  V30 13568 H 1318.67 -4.85772 6.09628 0
M  V30 13569 N 1322.9 -1.55308 -0.267798 0
M  V30 13570 C 1323.85 -1.84933 -1.33356 0
M  V30 13571 C 1324.83 -0.708605 -1.44456 0
M  V30 13572 O 1326.03 -0.970069 -1.4805 0
M  V30 13573 C 1323.15 -2.12927 -2.69289 0
M  V30 13574 C 1322.24 -3.33273 -2.62279 0
M  V30 13575 N 1322.63 -4.53055 -2.24889 0
M  V30 13576 C 1320.93 -3.35966 -2.93331 0
M  V30 13577 C 1321.63 -5.35156 -2.27998 0
M  V30 13578 N 1320.61 -4.73692 -2.66677 0
M  V30 13579 H 1324.41 -2.75086 -1.03465 0
M  V30 13580 H 1321.92 -1.55254 -0.476435 0
M  V30 13581 H 1323.92 -2.32309 -3.46177 0
M  V30 13582 H 1322.58 -1.24061 -3.00065 0
M  V30 13583 H 1323.59 -4.79059 -1.9678 0
M  V30 13584 H 1320.27 -2.57308 -3.28784 0
M  V30 13585 H 1321.66 -6.4094 -2.01608 0
M  V30 13586 N 1324.38 0.532545 -1.4833 0
M  V30 13587 C 1325.62 1.28851 -1.56217 0
M  V30 13588 C 1325.95 1.93076 -0.234967 0
M  V30 13589 O 1325.21 1.79722 0.774508 0
M  V30 13590 C 1325.51 2.40117 -2.64724 0
M  V30 13591 C 1325.17 1.93562 -4.0724 0
M  V30 13592 C 1323.83 1.80583 -4.46031 0
M  V30 13593 C 1326.19 1.58349 -4.96563 0
M  V30 13594 C 1323.51 1.30722 -5.71952 0
M  V30 13595 C 1325.87 1.09951 -6.22972 0
M  V30 13596 C 1324.53 0.955866 -6.60621 0
M  V30 13597 H 1323.8 0.4715 -0.571637 0
M  V30 13598 H 1326.45 0.594564 -1.82036 0
M  V30 13599 H 1324.75 3.15171 -2.32754 0
M  V30 13600 H 1326.45 2.98252 -2.68042 0
M  V30 13601 H 1323.04 2.04614 -3.76605 0
M  V30 13602 H 1327.22 1.67237 -4.67274 0
M  V30 13603 H 1322.48 1.18286 -5.99849 0
M  V30 13604 H 1326.65 0.817736 -6.91582 0
M  V30 13605 H 1324.28 0.567302 -7.5808 0
M  V30 13606 N 1325.86 1.36875 0.78122 0
M  V30 13607 C 1327.27 1.17467 1.08044 0
M  V30 13608 C 1327.47 0.00434799 2.015 0
M  V30 13609 O 1326.53 -0.658499 2.43762 0
M  V30 13610 C 1327.84 2.48917 1.68704 0
M  V30 13611 C 1329.39 2.55354 1.81007 0
M  V30 13612 C 1329.86 3.8691 2.45081 0
M  V30 13613 N 1331.35 3.88301 2.52541 0
M  V30 13614 C 1332.09 4.86837 3.02947 0
M  V30 13615 N 1331.59 5.95768 3.53598 0
M  V30 13616 N 1333.38 4.74249 3.01735 0
M  V30 13617 H 1325.53 2.11793 0.160503 0
M  V30 13618 H 1327.79 0.938507 0.133825 0
M  V30 13619 H 1327.5 3.34867 1.07503 0
M  V30 13620 H 1327.37 2.65319 2.68115 0
M  V30 13621 H 1329.76 1.69816 2.41343 0
M  V30 13622 H 1329.84 2.42843 0.803783 0
M  V30 13623 H 1329.48 4.72858 1.85386 0
M  V30 13624 H 1329.41 3.9672 3.46296 0
M  V30 13625 H 1331.91 3.09607 2.16684 0
M  V30 13626 H 1332.22 6.66918 3.90435 0
M  V30 13627 H 1330.56 5.99426 3.51728 0
M  V30 13628 H 1333.75 3.88275 2.61458 0
M  V30 13629 H 1333.93 5.512 3.40709 0
M  V30 13630 N 1327.33 -1.00632 1.21289 0
M  V30 13631 C 1328.58 -1.74388 1.02932 0
M  V30 13632 C 1328.91 -1.8952 -0.437327 0
M  V30 13633 O 1328.16 -1.42551 -1.3408 0
M  V30 13634 C 1328.46 -3.1598 1.67007 0
M  V30 13635 C 1328.13 -3.208 3.16857 0
M  V30 13636 C 1326.79 -3.21823 3.57748 0
M  V30 13637 C 1329.14 -3.18147 4.12834 0
M  V30 13638 C 1326.47 -3.17877 4.93124 0
M  V30 13639 C 1328.82 -3.15743 5.48169 0
M  V30 13640 C 1327.49 -3.15074 5.88459 0
M  V30 13641 H 1326.76 -0.638133 0.376653 0
M  V30 13642 H 1329.4 -1.17953 1.50862 0
M  V30 13643 H 1327.71 -3.75639 1.11365 0
M  V30 13644 H 1329.41 -3.71764 1.50307 0
M  V30 13645 H 1326 -3.20746 2.84289 0
M  V30 13646 H 1330.18 -3.16519 3.82269 0
M  V30 13647 H 1325.44 -3.15696 5.2359 0
M  V30 13648 H 1329.61 -3.12644 6.22275 0
M  V30 13649 H 1327.24 -3.11771 6.93327 0
M  V30 13650 N 1328.81 -1.02043 -1.20104 0
M  V30 13651 C 1329.74 -0.614421 -2.25271 0
M  V30 13652 C 1330.72 0.37242 -1.65973 0
M  V30 13653 O 1331.91 0.257005 -1.92492 0
M  V30 13654 C 1329.04 0.0442085 -3.47272 0
M  V30 13655 C 1327.99 -0.864019 -4.19188 0
M  V30 13656 C 1327.32 -0.0709551 -5.34653 0
M  V30 13657 C 1328.62 -2.17385 -4.74912 0
M  V30 13658 H 1330.31 -1.49355 -2.59487 0
M  V30 13659 H 1327.86 -0.719591 -1.24731 0
M  V30 13660 H 1329.81 0.339825 -4.20028 0
M  V30 13661 H 1328.53 0.958082 -3.12231 0
M  V30 13662 H 1327.19 -1.1437 -3.48303 0
M  V30 13663 H 1326.84 0.844688 -4.95857 0
M  V30 13664 H 1326.54 -0.67583 -5.83701 0
M  V30 13665 H 1328.07 0.218118 -6.1021 0
M  V30 13666 H 1329.48 -1.94034 -5.39466 0
M  V30 13667 H 1327.88 -2.72991 -5.34412 0
M  V30 13668 H 1328.95 -2.83427 -3.93443 0
M  V30 13669 N 1330.29 1.35952 -0.797165 0
M  V30 13670 C 1331.54 1.99327 -0.373695 0
M  V30 13671 C 1331.87 1.63111 1.05396 0
M  V30 13672 O 1331.14 0.889736 1.72956 0
M  V30 13673 C 1331.43 3.5593 -0.54641 0
M  V30 13674 C 1331.28 4.01975 -2.01832 0
M  V30 13675 C 1332.6 4.40087 0.0337694 0
M  V30 13676 H 1329.72 0.724107 -0.137254 0
M  V30 13677 H 1332.36 1.61248 -1.00495 0
M  V30 13678 H 1330.51 3.88499 -0.00903959 0
M  V30 13679 H 1332.18 3.79859 -2.61735 0
M  V30 13680 H 1330.43 3.5323 -2.51815 0
M  V30 13681 H 1331.1 5.109 -2.09009 0
M  V30 13682 H 1333.57 4.13923 -0.425039 0
M  V30 13683 H 1332.45 5.48775 -0.117054 0
M  V30 13684 H 1332.71 4.27504 1.12661 0
M  V30 13685 N 1331.77 0.549846 1.47697 0
M  V30 13686 C 1333.02 0.0209424 2.01689 0
M  V30 13687 C 1333.33 -1.33417 1.43036 0
M  V30 13688 O 1334.54 -1.95257 1.88646 0
M  V30 13689 C 1332.99 -0.0130171 3.59898 0
M  V30 13690 C 1332.6 1.3384 4.2754 0
M  V30 13691 C 1334.34 -0.489701 4.21666 0
M  V30 13692 C 1332.25 1.26395 5.77735 0
M  V30 13693 H 1331.18 0.00405885 0.753989 0
M  V30 13694 H 1333.83 0.696599 1.69764 0
M  V30 13695 H 1332.21 -0.754168 3.88752 0
M  V30 13696 H 1333.39 2.09668 4.10336 0
M  V30 13697 H 1331.7 1.75242 3.77729 0
M  V30 13698 H 1334.3 -0.563684 5.31721 0
M  V30 13699 H 1334.64 -1.50004 3.88336 0
M  V30 13700 H 1335.18 0.196366 3.97315 0
M  V30 13701 H 1331.92 2.25005 6.15673 0
M  V30 13702 H 1331.44 0.547353 5.97297 0
M  V30 13703 H 1333.11 0.962918 6.39794 0
M  V30 13704 N 1333.25 -1.54984 0.285932 0
M  V30 13705 C 1334.16 -2.26621 -0.606648 0
M  V30 13706 C 1335.17 -1.29595 -1.16108 0
M  V30 13707 O 1336.35 -1.62551 -1.18908 0
M  V30 13708 C 1333.41 -2.98156 -1.76929 0
M  V30 13709 C 1332.47 -4.10685 -1.25045 0
M  V30 13710 C 1331.71 -4.788 -2.35768 0
M  V30 13711 O 1331.93 -4.46183 -3.55354 0
M  V30 13712 O 1330.86 -5.66523 -2.03312 0
M  V30 13713 H 1334.69 -3.03689 -0.0259981 0
M  V30 13714 H 1332.28 -1.49306 0.0529355 0
M  V30 13715 H 1334.16 -3.43076 -2.44697 0
M  V30 13716 H 1332.83 -2.23996 -2.33683 0
M  V30 13717 H 1331.74 -3.70198 -0.538919 0
M  V30 13718 H 1333.07 -4.86778 -0.728528 0
M  V30 13719 N 1334.72 -0.0133892 -1.57594 0
M  V30 13720 C 1335.69 0.958601 -2.08191 0
M  V30 13721 C 1336.69 1.26408 -0.993865 0
M  V30 13722 O 1337.88 1.20703 -1.25604 0
M  V30 13723 C 1335.01 2.27971 -2.5346 0
M  V30 13724 H 1336.2 0.520686 -2.95345 0
M  V30 13725 H 1333.76 0.234351 -1.54533 0
M  V30 13726 H 1334.49 2.76424 -1.69588 0
M  V30 13727 H 1334.28 2.07116 -3.32935 0
M  V30 13728 H 1335.77 2.97672 -2.92884 0
M  V30 13729 N 1336.2 1.55448 0.259558 0
M  V30 13730 C 1337.45 1.7589 0.987201 0
M  V30 13731 C 1337.76 0.574951 1.86959 0
M  V30 13732 O 1338.97 0.662091 2.63303 0
M  V30 13733 C 1337.43 3.11349 1.80526 0
M  V30 13734 C 1337.03 4.37353 0.970882 0
M  V30 13735 C 1338.78 3.41136 2.5264 0
M  V30 13736 C 1336.69 5.63847 1.7841 0
M  V30 13737 H 1335.62 0.655662 0.372321 0
M  V30 13738 H 1338.27 1.81893 0.242332 0
M  V30 13739 H 1336.65 2.9942 2.5916 0
M  V30 13740 H 1337.82 4.60237 0.227763 0
M  V30 13741 H 1336.14 4.14809 0.363669 0
M  V30 13742 H 1338.73 4.32855 3.13912 0
M  V30 13743 H 1339.08 2.61879 3.23612 0
M  V30 13744 H 1339.61 3.54224 1.81026 0
M  V30 13745 H 1336.35 6.4589 1.11834 0
M  V30 13746 H 1335.87 5.45086 2.50283 0
M  V30 13747 H 1337.55 6.02641 2.35441 0
M  V30 13748 N 1337.68 -0.524672 1.4861 0
M  V30 13749 C 1338.61 -1.63782 1.66426 0
M  V30 13750 C 1339.59 -1.62177 0.513077 0
M  V30 13751 O 1340.78 -1.7929 0.74623 0
M  V30 13752 C 1337.91 -3.02354 1.70877 0
M  V30 13753 C 1336.86 -3.18819 2.85549 0
M  V30 13754 C 1336.19 -4.58506 2.75094 0
M  V30 13755 C 1337.49 -3.01086 4.26784 0
M  V30 13756 H 1339.18 -1.49127 2.59618 0
M  V30 13757 H 1336.73 -0.715997 1.24938 0
M  V30 13758 H 1338.68 -3.80105 1.81929 0
M  V30 13759 H 1337.4 -3.18044 0.742682 0
M  V30 13760 H 1336.06 -2.43487 2.74061 0
M  V30 13761 H 1335.71 -4.71038 1.76443 0
M  V30 13762 H 1335.41 -4.70466 3.52044 0
M  V30 13763 H 1336.93 -5.38348 2.88121 0
M  V30 13764 H 1338.35 -3.68624 4.39077 0
M  V30 13765 H 1336.75 -3.24536 5.04774 0
M  V30 13766 H 1337.82 -1.97454 4.42877 0
M  V30 13767 N 1339.16 -1.37287 -0.77395 0
M  V30 13768 C 1340.12 -1.32699 -1.86878 0
M  V30 13769 C 1341.12 -0.231486 -1.59125 0
M  V30 13770 O 1342.31 -0.487203 -1.67248 0
M  V30 13771 C 1339.44 -1.0609 -3.23972 0
M  V30 13772 H 1340.64 -2.30083 -1.92359 0
M  V30 13773 H 1338.19 -1.22284 -0.973459 0
M  V30 13774 H 1338.92 -0.0922868 -3.24169 0
M  V30 13775 H 1338.71 -1.85383 -3.45508 0
M  V30 13776 H 1340.2 -1.05524 -4.04048 0
M  V30 13777 N 1340.64 0.999871 -1.21821 0
M  V30 13778 C 1341.86 1.77405 -1.06467 0
M  V30 13779 C 1342.28 1.84828 0.385227 0
M  V30 13780 O 1341.64 1.31338 1.26714 0
M  V30 13781 C 1341.69 3.21062 -1.66137 0
M  V30 13782 O 1341.41 3.14054 -3.05454 0
M  V30 13783 C 1342.91 4.14958 -1.55963 0
M  V30 13784 H 1340.13 0.557368 -0.373607 0
M  V30 13785 H 1342.67 1.2575 -1.61267 0
M  V30 13786 H 1340.83 3.69808 -1.15416 0
M  V30 13787 H 1341.24 4.04346 -3.34073 0
M  V30 13788 H 1342.72 5.13536 -2.02448 0
M  V30 13789 H 1343.19 4.36171 -0.514949 0
M  V30 13790 H 1343.8 3.72105 -2.05956 0
M  V30 13791 N 1342.11 1.02678 1.19562 0
M  V30 13792 C 1343.39 0.63674 1.84946 0
M  V30 13793 C 1343.77 -0.884667 1.91669 0
M  V30 13794 O 1343.12 -1.78053 1.43211 0
M  V30 13795 C 1343.33 1.29637 3.2403 0
M  V30 13796 C 1344.68 1.41828 4.00212 0
M  V30 13797 O 1345.7 1.25338 3.3342 0
M  V30 13798 O 1344.56 1.68573 5.19851 0
M  V30 13799 H 1341.65 0.221044 0.796912 0
M  V30 13800 H 1344.2 1.1248 1.27068 0
M  V30 13801 H 1342.97 2.33549 3.1396 0
M  V30 13802 H 1342.6 0.796041 3.8955 0
M  V30 13803 N 1343.59 -1.35528 0.804364 0
M  V30 13804 C 1344.52 -2.32388 0.227604 0
M  V30 13805 C 1345.5 -1.57368 -0.645709 0
M  V30 13806 O 1346.69 -1.85448 -0.576441 0
M  V30 13807 C 1343.82 -3.41603 -0.62645 0
M  V30 13808 C 1342.77 -4.27743 0.148187 0
M  V30 13809 C 1342.1 -5.28259 -0.827425 0
M  V30 13810 C 1343.4 -5.04661 1.34591 0
M  V30 13811 H 1345.09 -2.80874 1.03684 0
M  V30 13812 H 1342.64 -1.3504 0.500031 0
M  V30 13813 H 1344.59 -4.08365 -1.03999 0
M  V30 13814 H 1343.32 -2.91721 -1.46855 0
M  V30 13815 H 1341.97 -3.62558 0.542874 0
M  V30 13816 H 1341.62 -4.74645 -1.66496 0
M  V30 13817 H 1341.32 -5.86763 -0.313453 0
M  V30 13818 H 1342.85 -5.97893 -1.23921 0
M  V30 13819 H 1344.26 -5.6438 1.00736 0
M  V30 13820 H 1342.66 -5.7265 1.79422 0
M  V30 13821 H 1343.73 -4.35432 2.1337 0
M  V30 13822 N 1345.07 -0.557671 -1.47404 0
M  V30 13823 C 1346.02 0.189765 -2.30019 0
M  V30 13824 C 1346.99 0.907923 -1.3909 0
M  V30 13825 O 1348.17 0.903528 -1.68051 0
M  V30 13826 C 1345.31 1.21348 -3.23061 0
M  V30 13827 C 1344.43 0.501343 -4.29081 0
M  V30 13828 C 1343.56 1.51039 -5.09275 0
M  V30 13829 C 1342.6 0.783254 -6.07068 0
M  V30 13830 N 1341.74 1.73916 -6.80219 0
M  V30 13831 H 1346.58 -0.520856 -2.93413 0
M  V30 13832 H 1344.11 -0.268686 -1.44625 0
M  V30 13833 H 1346.07 1.81961 -3.75428 0
M  V30 13834 H 1344.7 1.89213 -2.61531 0
M  V30 13835 H 1343.75 -0.219317 -3.79767 0
M  V30 13836 H 1345.07 -0.0682656 -4.98753 0
M  V30 13837 H 1344.22 2.19004 -5.65793 0
M  V30 13838 H 1342.96 2.11392 -4.39505 0
M  V30 13839 H 1341.96 0.0896883 -5.49727 0
M  V30 13840 H 1343.19 0.185464 -6.78847 0
M  V30 13841 H 1341.14 2.33125 -6.13179 0
M  V30 13842 H 1341.05 1.22171 -7.46063 0
M  V30 13843 H 1342.32 2.40993 -7.41311 0
M  V30 13844 N 1346.55 1.54831 -0.294147 0
M  V30 13845 C 1347.5 2.23263 0.58499 0
M  V30 13846 C 1348.47 1.21278 1.13494 0
M  V30 13847 O 1349.65 1.49878 1.18073 0
M  V30 13848 C 1346.79 2.97185 1.75429 0
M  V30 13849 C 1345.9 4.1393 1.23638 0
M  V30 13850 C 1345.04 4.7545 2.36899 0
M  V30 13851 C 1344.08 5.84352 1.82207 0
M  V30 13852 N 1343.22 6.39855 2.89015 0
M  V30 13853 H 1348.06 2.98 -0.00519329 0
M  V30 13854 H 1345.59 1.47093 -0.0143313 0
M  V30 13855 H 1347.55 3.38271 2.4419 0
M  V30 13856 H 1346.18 2.24837 2.3162 0
M  V30 13857 H 1345.23 3.77832 0.441247 0
M  V30 13858 H 1346.54 4.92409 0.795946 0
M  V30 13859 H 1345.7 5.19353 3.1362 0
M  V30 13860 H 1344.44 3.96288 2.84266 0
M  V30 13861 H 1343.44 5.39879 1.03974 0
M  V30 13862 H 1344.67 6.65393 1.35753 0
M  V30 13863 H 1342.61 5.6358 3.35729 0
M  V30 13864 H 1342.53 7.13661 2.49447 0
M  V30 13865 H 1343.8 6.88417 3.65654 0
M  V30 13866 N 1348.03 0.0217466 1.57585 0
M  V30 13867 C 1348.98 -0.971557 2.06264 0
M  V30 13868 C 1349.96 -1.29 0.961656 0
M  V30 13869 O 1351.15 -1.27734 1.22527 0
M  V30 13870 C 1348.28 -2.25643 2.58728 0
M  V30 13871 C 1347.37 -1.96668 3.75743 0
M  V30 13872 N 1347.76 -1.37933 4.86629 0
M  V30 13873 C 1346.06 -2.26698 3.84088 0
M  V30 13874 C 1346.76 -1.25923 5.67907 0
M  V30 13875 N 1345.73 -1.75224 5.14585 0
M  V30 13876 H 1349.54 -0.512285 2.89401 0
M  V30 13877 H 1347.05 -0.183446 1.61361 0
M  V30 13878 H 1349.05 -2.97668 2.91889 0
M  V30 13879 H 1347.71 -2.72204 1.77018 0
M  V30 13880 H 1348.72 -1.05529 5.07034 0
M  V30 13881 H 1345.4 -2.75983 3.13272 0
M  V30 13882 H 1346.79 -0.805687 6.67052 0
M  V30 13883 N 1349.51 -1.55583 -0.251311 0
M  V30 13884 C 1350.75 -1.77209 -0.979966 0
M  V30 13885 C 1351.08 -0.585279 -1.85485 0
M  V30 13886 O 1350.34 0.431559 -1.90882 0
M  V30 13887 C 1350.63 -3.04291 -1.87461 0
M  V30 13888 C 1350.3 -4.35844 -1.15545 0
M  V30 13889 C 1348.96 -4.71594 -0.956679 0
M  V30 13890 C 1351.31 -5.17189 -0.645381 0
M  V30 13891 C 1348.64 -5.86227 -0.235465 0
M  V30 13892 C 1350.99 -6.32569 0.0623441 0
M  V30 13893 C 1349.66 -6.66943 0.272634 0
M  V30 13894 H 1348.93 -0.648452 -0.358595 0
M  V30 13895 H 1351.58 -1.89856 -0.250423 0
M  V30 13896 H 1349.88 -2.86637 -2.67108 0
M  V30 13897 H 1351.58 -3.18221 -2.44001 0
M  V30 13898 H 1348.17 -4.07757 -1.32031 0
M  V30 13899 H 1352.35 -4.90028 -0.786505 0
M  V30 13900 H 1347.61 -6.11369 -0.0620232 0
M  V30 13901 H 1351.78 -6.94844 0.465234 0
M  V30 13902 H 1349.41 -7.55617 0.833442 0
M  V30 13903 N 1350.98 0.516783 -1.48886 0
M  V30 13904 C 1352.26 1.27808 -1.48069 0
M  V30 13905 C 1352.64 2.10154 -0.19963 0
M  V30 13906 O 1351.99 2.13342 0.818386 0
M  V30 13907 C 1352.2 2.14828 -2.75045 0
M  V30 13908 C 1353.55 2.74536 -3.23906 0
M  V30 13909 O 1354.57 2.25107 -2.76053 0
M  V30 13910 O 1353.43 3.6448 -4.07206 0
M  V30 13911 H 1350.52 0.577535 -0.591931 0
M  V30 13912 H 1353.07 0.532351 -1.61134 0
M  V30 13913 H 1351.84 1.53852 -3.59785 0
M  V30 13914 H 1351.46 2.96624 -2.64764 0
M  V30 13915 N 1352.46 1.37696 0.766659 0
M  V30 13916 C 1353.71 1.33185 1.52539 0
M  V30 13917 C 1354.04 -0.0821239 1.94327 0
M  V30 13918 O 1353.29 -1.05645 1.64735 0
M  V30 13919 C 1353.59 2.22154 2.79968 0
M  V30 13920 C 1353.26 3.70344 2.57208 0
M  V30 13921 C 1351.92 4.10729 2.50709 0
M  V30 13922 C 1354.27 4.64205 2.36988 0
M  V30 13923 C 1351.6 5.43082 2.21988 0
M  V30 13924 C 1353.95 5.96801 2.0979 0
M  V30 13925 C 1352.61 6.36284 2.01739 0
M  V30 13926 H 1351.88 0.487357 0.558179 0
M  V30 13927 H 1354.53 1.69945 0.882662 0
M  V30 13928 H 1352.84 1.78406 3.48825 0
M  V30 13929 H 1354.53 2.15975 3.37869 0
M  V30 13930 H 1351.12 3.38319 2.63131 0
M  V30 13931 H 1355.31 4.3386 2.40996 0
M  V30 13932 H 1350.56 5.7263 2.14254 0
M  V30 13933 H 1354.74 6.6908 1.93145 0
M  V30 13934 H 1352.36 7.38765 1.79248 0
M  V30 13935 N 1353.94 -0.993397 1.22349 0
M  V30 13936 C 1355.19 -1.73544 1.04931 0
M  V30 13937 C 1355.52 -1.89721 -0.414661 0
M  V30 13938 O 1354.79 -1.44001 -1.30743 0
M  V30 13939 C 1355.08 -3.14131 1.7605 0
M  V30 13940 C 1354.93 -3.05604 3.30039 0
M  V30 13941 C 1356.25 -4.13294 1.51249 0
M  V30 13942 H 1353.37 -0.629915 0.382591 0
M  V30 13943 H 1356.01 -1.15737 1.50682 0
M  V30 13944 H 1354.16 -3.63483 1.37157 0
M  V30 13945 H 1355.83 -2.63876 3.78374 0
M  V30 13946 H 1354.07 -2.42421 3.59742 0
M  V30 13947 H 1354.75 -4.05086 3.74979 0
M  V30 13948 H 1357.22 -3.72696 1.85033 0
M  V30 13949 H 1356.1 -5.09781 2.03507 0
M  V30 13950 H 1356.36 -4.39855 0.444973 0
M  V30 13951 N 1355.42 -1.03311 -1.19015 0
M  V30 13952 C 1356.38 -0.622114 -2.20596 0
M  V30 13953 C 1357.38 0.316502 -1.57654 0
M  V30 13954 O 1358.57 0.102932 -1.73896 0
M  V30 13955 C 1355.7 0.0890432 -3.40784 0
M  V30 13956 H 1356.9 -1.52095 -2.58471 0
M  V30 13957 H 1354.45 -0.824777 -1.32767 0
M  V30 13958 H 1355.18 1.00203 -3.08431 0
M  V30 13959 H 1354.97 -0.58547 -3.87704 0
M  V30 13960 H 1356.46 0.363366 -4.16016 0
M  V30 13961 N 1356.9 1.35099 -0.81154 0
M  V30 13962 C 1357.84 2.29717 -0.223372 0
M  V30 13963 C 1358.81 1.53049 0.645396 0
M  V30 13964 O 1360 1.81467 0.589436 0
M  V30 13965 C 1357.14 3.3952 0.618057 0
M  V30 13966 C 1356.25 4.31145 -0.271693 0
M  V30 13967 C 1355.39 5.28044 0.578214 0
M  V30 13968 C 1354.42 6.11306 -0.311628 0
M  V30 13969 N 1353.56 7.00328 0.498539 0
M  V30 13970 H 1358.4 2.79426 -1.03563 0
M  V30 13971 H 1355.94 1.37518 -0.522231 0
M  V30 13972 H 1357.9 4.01854 1.12111 0
M  V30 13973 H 1356.53 2.91075 1.39554 0
M  V30 13974 H 1355.58 3.69773 -0.892885 0
M  V30 13975 H 1356.89 4.89545 -0.956392 0
M  V30 13976 H 1356.04 5.95774 1.1462 0
M  V30 13977 H 1354.78 4.70152 1.29646 0
M  V30 13978 H 1353.79 5.42518 -0.891849 0
M  V30 13979 H 1355.01 6.71277 -1.02781 0
M  V30 13980 H 1352.96 6.44919 1.20067 0
M  V30 13981 H 1352.88 7.55892 -0.12801 0
M  V30 13982 H 1354.14 7.72401 1.04965 0
M  V30 13983 N 1358.37 0.56548 1.47106 0
M  V30 13984 C 1359.62 0.0445255 2.02451 0
M  V30 13985 C 1359.95 -1.30863 1.43893 0
M  V30 13986 O 1359.2 -1.8668 0.587274 0
M  V30 13987 C 1359.5 -0.0893776 3.57288 0
M  V30 13988 C 1359.17 1.19395 4.34805 0
M  V30 13989 C 1357.83 1.54558 4.55703 0
M  V30 13990 C 1360.18 2.04399 4.79448 0
M  V30 13991 C 1357.51 2.74557 5.18494 0
M  V30 13992 C 1359.86 3.23608 5.43563 0
M  V30 13993 C 1358.53 3.59074 5.62692 0
M  V30 13994 H 1357.8 0.016293 0.740821 0
M  V30 13995 H 1360.44 0.738657 1.76681 0
M  V30 13996 H 1358.75 -0.86653 3.82097 0
M  V30 13997 H 1360.45 -0.507943 3.9777 0
M  V30 13998 H 1357.04 0.910176 4.18824 0
M  V30 13999 H 1361.22 1.78539 4.63074 0
M  V30 14000 H 1356.48 3.02194 5.31497 0
M  V30 14001 H 1360.65 3.89755 5.77117 0
M  V30 14002 H 1358.28 4.5215 6.11117 0
M  V30 14003 N 1359.85 -1.54672 0.302354 0
M  V30 14004 C 1360.8 -2.25022 -0.58887 0
M  V30 14005 C 1361.79 -1.25671 -1.13592 0
M  V30 14006 O 1363 -1.43518 -1.0864 0
M  V30 14007 H 1359.38 -0.722515 -0.208509 0
M  V30 14008 H 1361.35 -2.98388 0.0269928 0
M  V30 14009 C 1360.1 -3.00532 -1.74859 0
M  V30 14010 H 1359.42 -3.76786 -1.33688 0
M  V30 14011 H 1360.86 -3.53036 -2.34823 0
M  V30 14012 C 1359.32 -2.0758 -2.65353 0
M  V30 14013 O 1359.85 -1.64473 -3.66485 0
M  V30 14014 N 1358.05 -1.73508 -2.33116 0
M  V30 14015 H 1357.6 -2.0876 -1.5092 0
M  V30 14016 H 1357.56 -1.11591 -2.9393 0
M  V30 14017 N 1361.33 -0.0301034 -1.57571 0
M  V30 14018 C 1362.58 0.647042 -1.91462 0
M  V30 14019 C 1362.9 1.72612 -0.907206 0
M  V30 14020 O 1362.17 1.95833 0.0511268 0
M  V30 14021 H 1360.75 0.241988 -0.706718 0
M  V30 14022 H 1363.41 -0.0781385 -1.94743 0
M  V30 14023 H 1362.51 1.09915 -2.92105 0
M  V30 14024 N 1362.81 1.55714 0.243056 0
M  V30 14025 C 1363.76 1.90638 1.30099 0
M  V30 14026 C 1364.73 0.761049 1.47639 0
M  V30 14027 O 1365.91 1.01505 1.61559 0
M  V30 14028 C 1363.05 2.20985 2.65065 0
M  V30 14029 C 1362.16 3.48343 2.55501 0
M  V30 14030 C 1361.3 3.68241 3.82847 0
M  V30 14031 C 1360.34 4.89187 3.67916 0
M  V30 14032 N 1359.47 5.05586 4.87162 0
M  V30 14033 H 1364.31 2.80857 0.996155 0
M  V30 14034 H 1361.85 1.39027 0.480619 0
M  V30 14035 H 1363.81 2.36585 3.43632 0
M  V30 14036 H 1362.44 1.33966 2.93689 0
M  V30 14037 H 1361.49 3.41054 1.68483 0
M  V30 14038 H 1362.8 4.37057 2.4038 0
M  V30 14039 H 1361.96 3.83822 4.69857 0
M  V30 14040 H 1360.7 2.77768 4.00869 0
M  V30 14041 H 1359.7 4.7358 2.79289 0
M  V30 14042 H 1360.93 5.81124 3.51385 0
M  V30 14043 H 1358.87 4.18051 5.05538 0
M  V30 14044 H 1358.79 5.88395 4.74686 0
M  V30 14045 H 1360.06 5.25582 5.7566 0
M  V30 14046 N 1364.29 -0.50888 1.49158 0
M  V30 14047 C 1365.53 -1.26537 1.58481 0
M  V30 14048 C 1365.87 -1.92353 0.267168 0
M  V30 14049 O 1365.14 -1.80336 -0.728639 0
M  V30 14050 C 1365.42 -2.33846 2.73839 0
M  V30 14051 C 1365.28 -1.72582 4.15374 0
M  V30 14052 C 1366.6 -3.35467 2.84868 0
M  V30 14053 H 1363.71 -0.458697 0.576859 0
M  V30 14054 H 1366.36 -0.564728 1.81413 0
M  V30 14055 H 1364.51 -2.93605 2.54417 0
M  V30 14056 H 1366.18 -1.16711 4.46292 0
M  V30 14057 H 1364.42 -1.03025 4.21389 0
M  V30 14058 H 1365.09 -2.5038 4.91949 0
M  V30 14059 H 1367.57 -2.85689 3.02524 0
M  V30 14060 H 1366.44 -4.07922 3.67275 0
M  V30 14061 H 1366.71 -3.97313 1.93894 0
M  V30 14062 N 1365.76 -1.381 -0.759346 0
M  V30 14063 C 1366.71 -1.34972 -1.89434 0
M  V30 14064 C 1367.71 -0.236499 -1.67741 0
M  V30 14065 O 1368.91 -0.405218 -1.7538 0
M  V30 14066 H 1365.29 -0.420922 -0.62316 0
M  V30 14067 H 1367.26 -2.3076 -1.89189 0
M  V30 14068 C 1366.01 -1.18594 -3.2685 0
M  V30 14069 H 1365.33 -2.03514 -3.44125 0
M  V30 14070 H 1366.77 -1.20458 -4.06529 0
M  V30 14071 C 1365.23 0.107562 -3.36728 0
M  V30 14072 O 1365.76 1.08668 -3.86722 0
M  V30 14073 N 1363.97 0.162455 -2.90146 0
M  V30 14074 H 1363.51 -0.634985 -2.49651 0
M  V30 14075 H 1363.47 1.02751 -2.97136 0
M  V30 14076 N 1367.24 0.986894 -1.22875 0
M  V30 14077 C 1368.52 1.70121 -0.965311 0
M  V30 14078 C 1368.9 2.04648 0.517924 0
M  V30 14079 O 1368.25 1.73453 1.48749 0
M  V30 14080 C 1368.46 2.94738 -1.86897 0
M  V30 14081 C 1369.81 3.6739 -2.12861 0
M  V30 14082 O 1370.83 3.04758 -1.84394 0
M  V30 14083 O 1369.69 4.8009 -2.61106 0
M  V30 14084 H 1366.78 0.742817 -0.363527 0
M  V30 14085 H 1369.33 1.0427 -1.33887 0
M  V30 14086 H 1368.1 2.65771 -2.87196 0
M  V30 14087 H 1367.72 3.68327 -1.49736 0
M  V30 14088 N 1368.72 1.0394 1.18466 0
M  V30 14089 C 1370 0.65632 1.8426 0
M  V30 14090 C 1370.38 -0.864288 1.92596 0
M  V30 14091 O 1369.73 -1.76524 1.45092 0
M  V30 14092 C 1369.94 1.33067 3.22636 0
M  V30 14093 C 1371.28 1.46065 3.98686 0
M  V30 14094 O 1372.31 1.28867 3.32072 0
M  V30 14095 O 1371.17 1.74078 5.18034 0
M  V30 14096 H 1368.26 0.229484 0.794523 0
M  V30 14097 H 1370.81 1.13821 1.25868 0
M  V30 14098 H 1369.58 2.36866 3.11465 0
M  V30 14099 H 1369.2 0.837313 3.88683 0
M  V30 14100 N 1370.2 -1.34667 0.818693 0
M  V30 14101 C 1371.44 -1.98708 0.405359 0
M  V30 14102 C 1371.78 -1.64767 -1.02788 0
M  V30 14103 O 1371.05 -0.91714 -1.71519 0
M  V30 14104 C 1371.34 -3.55016 0.602966 0
M  V30 14105 C 1371.19 -3.98713 2.08201 0
M  V30 14106 C 1372.51 -4.40085 0.0362489 0
M  V30 14107 H 1369.63 -0.721831 0.148756 0
M  V30 14108 H 1372.27 -1.59628 1.03047 0
M  V30 14109 H 1370.42 -3.88435 0.0708453 0
M  V30 14110 H 1372.09 -3.75647 2.67745 0
M  V30 14111 H 1370.33 -3.49179 2.57403 0
M  V30 14112 H 1371 -5.0751 2.17111 0
M  V30 14113 H 1373.48 -4.13195 0.490837 0
M  V30 14114 H 1372.36 -5.4852 0.204344 0
M  V30 14115 H 1372.62 -4.29243 -1.05845 0
M  V30 14116 N 1371.68 -0.573274 -1.46804 0
M  V30 14117 C 1372.92 -0.0551522 -2.02025 0
M  V30 14118 C 1373.25 1.30577 -1.44826 0
M  V30 14119 O 1372.52 1.85514 -0.629403 0
M  V30 14120 H 1371.1 -0.0173982 -0.746797 0
M  V30 14121 H 1373.76 -0.746919 -1.8002 0
M  V30 14122 H 1372.85 0.0209326 -3.12093 0
M  V30 14123 N 1373.15 1.5451 -0.310553 0
M  V30 14124 C 1374.4 1.99505 0.296731 0
M  V30 14125 C 1374.72 1.20257 1.54265 0
M  V30 14126 O 1375.92 1.55566 2.22512 0
M  V30 14127 C 1374.38 3.55208 0.579251 0
M  V30 14128 C 1373.99 4.43276 -0.648874 0
M  V30 14129 C 1375.73 4.08705 1.1472 0
M  V30 14130 C 1373.64 5.90428 -0.338978 0
M  V30 14131 H 1372.57 0.745232 0.114652 0
M  V30 14132 H 1375.22 1.78611 -0.420749 0
M  V30 14133 H 1373.6 3.72039 1.35658 0
M  V30 14134 H 1374.77 4.3822 -1.42478 0
M  V30 14135 H 1373.09 4.00601 -1.13613 0
M  V30 14136 H 1375.69 5.16223 1.39346 0
M  V30 14137 H 1376.03 3.59889 2.09249 0
M  V30 14138 H 1376.56 3.95454 0.431363 0
M  V30 14139 H 1373.3 6.43411 -1.25309 0
M  V30 14140 H 1372.82 5.98468 0.399475 0
M  V30 14141 H 1374.5 6.46976 0.0559696 0
M  V30 14142 N 1374.63 0.0384594 1.57553 0
M  V30 14143 C 1375.91 -0.677308 1.83499 0
M  V30 14144 C 1376.29 -1.89789 0.924294 0
M  V30 14145 O 1375.64 -2.28493 -0.0178185 0
M  V30 14146 C 1375.85 -1.04667 3.32935 0
M  V30 14147 C 1377.2 -1.43436 3.99639 0
M  V30 14148 O 1378.22 -1.13938 3.37486 0
M  V30 14149 O 1377.08 -1.98435 5.09201 0
M  V30 14150 H 1374.17 -0.333131 0.756936 0
M  V30 14151 H 1376.72 0.066854 1.69568 0
M  V30 14152 H 1375.49 -0.178349 3.90893 0
M  V30 14153 H 1375.11 -1.8487 3.52007 0
M  V30 14154 N 1376.11 -1.55841 -0.234795 0
M  V30 14155 C 1377.36 -1.79415 -0.958219 0
M  V30 14156 C 1377.71 -0.609349 -1.82496 0
M  V30 14157 O 1377.01 0.397051 -1.87441 0
M  V30 14158 C 1377.2 -3.06262 -1.84223 0
M  V30 14159 C 1377.03 -4.36966 -1.06256 0
M  V30 14160 C 1375.8 -4.99509 -0.762795 0
M  V30 14161 C 1378 -5.12463 -0.434262 0
M  V30 14162 N 1375.98 -6.13887 0.0396694 0
M  V30 14163 C 1377.35 -6.19565 0.232209 0
M  V30 14164 C 1379.4 -4.96697 -0.345951 0
M  V30 14165 C 1378.11 -7.12613 0.978527 0
M  V30 14166 C 1380.13 -5.90133 0.386865 0
M  V30 14167 C 1379.5 -6.96651 1.04193 0
M  V30 14168 H 1375.59 -0.708334 -0.331342 0
M  V30 14169 H 1378.18 -1.93334 -0.230254 0
M  V30 14170 H 1376.35 -2.9365 -2.54213 0
M  V30 14171 H 1378.08 -3.18081 -2.50213 0
M  V30 14172 H 1374.84 -4.61178 -1.07757 0
M  V30 14173 H 1375.26 -6.75637 0.429349 0
M  V30 14174 H 1379.9 -4.14411 -0.83806 0
M  V30 14175 H 1377.62 -7.94391 1.4822 0
M  V30 14176 H 1381.21 -5.8001 0.456023 0
M  V30 14177 H 1380.09 -7.67706 1.59992 0
M  V30 14178 N 1377.59 0.500963 -1.49426 0
M  V30 14179 C 1378.82 1.27911 -1.62624 0
M  V30 14180 C 1379.23 1.86439 -0.297651 0
M  V30 14181 O 1378.59 1.67831 0.716879 0
M  V30 14182 C 1378.64 2.40934 -2.69505 0
M  V30 14183 O 1378.36 1.84811 -3.97211 0
M  V30 14184 C 1379.86 3.32305 -2.93408 0
M  V30 14185 H 1377.08 0.387951 -0.547481 0
M  V30 14186 H 1379.63 0.601372 -1.95458 0
M  V30 14187 H 1377.78 3.04537 -2.39449 0
M  V30 14188 H 1378.2 2.59011 -4.56085 0
M  V30 14189 H 1379.67 4.0789 -3.71927 0
M  V30 14190 H 1380.15 3.89301 -2.03325 0
M  V30 14191 H 1380.75 2.74467 -3.24881 0
M  V30 14192 N 1379.07 1.38501 0.752011 0
M  V30 14193 C 1380.02 1.35975 1.88716 0
M  V30 14194 C 1381.01 0.245392 1.67613 0
M  V30 14195 O 1382.22 0.414514 1.75162 0
M  V30 14196 H 1378.59 0.424221 0.620919 0
M  V30 14197 H 1380.56 2.3176 1.87962 0
M  V30 14198 C 1379.31 1.20326 3.26216 0
M  V30 14199 H 1378.63 2.05336 3.43041 0
M  V30 14200 H 1380.07 1.22613 4.05884 0
M  V30 14201 C 1378.53 -0.0897029 3.36781 0
M  V30 14202 O 1379.06 -1.06615 3.87293 0
M  V30 14203 N 1377.27 -0.147065 2.90228 0
M  V30 14204 H 1376.82 0.648216 2.49311 0
M  V30 14205 H 1376.77 -1.01174 2.97676 0
M  V30 14206 N 1380.55 -0.980364 1.23396 0
M  V30 14207 C 1381.46 -2.10688 1.03188 0
M  V30 14208 C 1382.47 -1.73984 -0.0236159 0
M  V30 14209 O 1383.65 -2.00666 0.171841 0
M  V30 14210 C 1380.71 -3.4101 0.625563 0
M  V30 14211 C 1379.77 -3.91739 1.75611 0
M  V30 14212 C 1379.01 -5.15841 1.36908 0
M  V30 14213 O 1379.23 -5.69837 0.253329 0
M  V30 14214 O 1378.16 -5.60638 2.19018 0
M  V30 14215 H 1381.99 -2.30626 1.97599 0
M  V30 14216 H 1379.57 -1.09067 1.02102 0
M  V30 14217 H 1381.46 -4.19402 0.409909 0
M  V30 14218 H 1380.13 -3.22402 -0.28956 0
M  V30 14219 H 1379.04 -3.14464 2.0264 0
M  V30 14220 H 1380.37 -4.14801 2.64955 0
M  V30 14221 N 1382.02 -1.04567 -1.17913 0
M  V30 14222 C 1382.97 -0.634939 -2.23766 0
M  V30 14223 C 1383.97 0.340723 -1.65938 0
M  V30 14224 O 1385.17 0.207467 -1.788 0
M  V30 14225 H 1381.55 -0.187129 -0.728345 0
M  V30 14226 H 1383.52 -1.53798 -2.55712 0
M  V30 14227 C 1382.27 -0.0190662 -3.47695 0
M  V30 14228 H 1381.59 -0.760881 -3.92493 0
M  V30 14229 H 1383.03 0.231035 -4.2337 0
M  V30 14230 C 1381.49 1.23246 -3.13548 0
M  V30 14231 O 1382.02 2.32262 -3.27746 0
M  V30 14232 N 1380.22 1.12768 -2.67828 0
M  V30 14233 H 1379.77 0.240547 -2.56474 0
M  V30 14234 H 1379.73 1.96594 -2.45353 0
M  V30 14235 N 1383.5 1.34231 -0.825823 0
M  V30 14236 C 1384.78 1.92662 -0.337743 0
M  V30 14237 C 1385.16 1.75358 1.17529 0
M  V30 14238 O 1384.51 1.13405 1.98372 0
M  V30 14239 C 1384.72 3.40394 -0.770269 0
M  V30 14240 C 1386.06 4.17546 -0.770767 0
M  V30 14241 O 1387.09 3.4899 -0.713035 0
M  V30 14242 O 1385.95 5.39903 -0.846602 0
M  V30 14243 H 1383.04 0.821768 -0.0928741 0
M  V30 14244 H 1385.59 1.43187 -0.910807 0
M  V30 14245 H 1384.36 3.46802 -1.81228 0
M  V30 14246 H 1383.98 3.97223 -0.17306 0
M  V30 14247 N 1384.98 0.581051 1.46498 0
M  V30 14248 C 1386.4 0.242599 1.57745 0
M  V30 14249 C 1386.6 -1.25508 1.57639 0
M  V30 14250 O 1385.65 -2.0367 1.49247 0
M  V30 14251 C 1386.96 0.890342 2.87217 0
M  V30 14252 C 1388.51 0.863778 3.00845 0
M  V30 14253 C 1388.99 1.49103 4.3305 0
M  V30 14254 N 1390.48 1.4553 4.39745 0
M  V30 14255 C 1391.21 1.91003 5.40653 0
M  V30 14256 N 1390.71 2.44442 6.48244 0
M  V30 14257 N 1392.5 1.8193 5.31844 0
M  V30 14258 H 1384.65 1.55382 1.44811 0
M  V30 14259 H 1386.92 0.649375 0.690664 0
M  V30 14260 H 1386.62 1.94383 2.93101 0
M  V30 14261 H 1386.5 0.397569 3.75099 0
M  V30 14262 H 1388.88 -0.181089 2.94544 0
M  V30 14263 H 1388.96 1.39455 2.14443 0
M  V30 14264 H 1388.61 2.53509 4.40109 0
M  V30 14265 H 1388.54 0.935496 5.18224 0
M  V30 14266 H 1391.03 1.06466 3.62593 0
M  V30 14267 H 1391.34 2.77002 7.2145 0
M  V30 14268 H 1389.69 2.48467 6.49068 0
M  V30 14269 H 1392.88 1.3994 4.46693 0
M  V30 14270 H 1393.05 2.17685 6.10342 0
M  V30 14271 N 1386.46 -1.54343 0.318742 0
M  V30 14272 C 1387.39 -2.27118 -0.542206 0
M  V30 14273 C 1388.37 -1.27731 -1.12334 0
M  V30 14274 O 1389.55 -1.56535 -1.14937 0
M  V30 14275 C 1386.68 -3.02535 -1.70558 0
M  V30 14276 C 1385.64 -4.09218 -1.25398 0
M  V30 14277 C 1384.96 -4.72449 -2.50391 0
M  V30 14278 C 1386.26 -5.20971 -0.372332 0
M  V30 14279 H 1387.96 -2.9933 0.0648226 0
M  V30 14280 H 1385.5 -1.43963 0.0326168 0
M  V30 14281 H 1387.46 -3.52174 -2.31412 0
M  V30 14282 H 1386.18 -2.27931 -2.33912 0
M  V30 14283 H 1384.84 -3.60455 -0.668392 0
M  V30 14284 H 1384.49 -3.94466 -3.12099 0
M  V30 14285 H 1384.19 -5.4451 -2.20868 0
M  V30 14286 H 1385.71 -5.2486 -3.12016 0
M  V30 14287 H 1387.13 -5.66396 -0.887029 0
M  V30 14288 H 1385.52 -5.99859 -0.17009 0
M  V30 14289 H 1386.59 -4.81198 0.598064 0
M  V30 14290 N 1387.94 -0.0468143 -1.5753 0
M  V30 14291 C 1388.87 0.927092 -2.14306 0
M  V30 14292 C 1389.85 1.32745 -1.06362 0
M  V30 14293 O 1391.03 1.40293 -1.34281 0
M  V30 14294 C 1388.16 2.20343 -2.68452 0
M  V30 14295 C 1387.12 1.94328 -3.81341 0
M  V30 14296 C 1386.44 3.28379 -4.21985 0
M  V30 14297 C 1387.74 1.26835 -5.06666 0
M  V30 14298 H 1389.44 0.454199 -2.95935 0
M  V30 14299 H 1386.98 0.217029 -1.42355 0
M  V30 14300 H 1388.93 2.8887 -3.0681 0
M  V30 14301 H 1387.66 2.6983 -1.84009 0
M  V30 14302 H 1386.32 1.28214 -3.43448 0
M  V30 14303 H 1385.97 3.75658 -3.34499 0
M  V30 14304 H 1385.67 3.11772 -4.98068 0
M  V30 14305 H 1387.19 3.98145 -4.6294 0
M  V30 14306 H 1388.6 1.85389 -5.42498 0
M  V30 14307 H 1387 1.20569 -5.87863 0
M  V30 14308 H 1388.07 0.243759 -4.84287 0
M  V30 14309 N 1389.41 1.55964 0.226527 0
M  V30 14310 C 1390.66 1.7901 0.95306 0
M  V30 14311 C 1390.99 0.615608 1.84184 0
M  V30 14312 O 1390.27 -0.385341 1.90645 0
M  V30 14313 C 1390.55 3.12101 1.79624 0
M  V30 14314 C 1390.4 4.3999 0.934286 0
M  V30 14315 C 1391.72 3.4159 2.77496 0
M  V30 14316 H 1388.84 0.651236 0.345052 0
M  V30 14317 H 1391.48 1.88696 0.222236 0
M  V30 14318 H 1389.63 3.03975 2.41933 0
M  V30 14319 H 1391.31 4.6013 0.328328 0
M  V30 14320 H 1389.55 4.33138 0.239487 0
M  V30 14321 H 1390.22 5.29541 1.55853 0
M  V30 14322 H 1392.7 3.49812 2.25323 0
M  V30 14323 H 1391.57 4.35894 3.33599 0
M  V30 14324 H 1391.83 2.6351 3.54986 0
M  V30 14325 N 1390.89 -0.493031 1.4969 0
M  V30 14326 C 1392.13 -1.25673 1.61201 0
M  V30 14327 C 1392.5 -1.8971 0.295685 0
M  V30 14328 O 1393.7 -2.67274 0.286046 0
M  V30 14329 C 1391.97 -2.28923 2.74462 0
M  V30 14330 S 1393.53 -3.14525 3.05973 0
M  V30 14331 H 1390.35 -0.426985 0.568511 0
M  V30 14332 H 1392.95 -0.557497 1.87383 0
M  V30 14333 H 1391.65 -1.80421 3.68614 0
M  V30 14334 H 1391.18 -3.03504 2.50298 0
M  V30 14335 H 1393.2 -4.29717 2.48108 0
M  V30 14336 N 1392.37 -1.38898 -0.744656 0
M  V30 14337 C 1393.3 -1.32739 -1.8685 0
M  V30 14338 C 1394.32 -0.23793 -1.61052 0
M  V30 14339 O 1395.5 -0.496166 -1.71466 0
M  V30 14340 C 1392.6 -1.03602 -3.22676 0
M  V30 14341 C 1391.78 -2.23634 -3.75908 0
M  V30 14342 C 1390.84 -1.91103 -4.90271 0
M  V30 14343 O 1389.86 -2.6369 -5.04437 0
M  V30 14344 N 1391.06 -0.871358 -5.73923 0
M  V30 14345 H 1393.83 -2.29585 -1.92641 0
M  V30 14346 H 1391.39 -1.32875 -0.924979 0
M  V30 14347 H 1393.38 -0.798755 -3.96739 0
M  V30 14348 H 1391.95 -0.155218 -3.12214 0
M  V30 14349 H 1391.17 -2.63371 -2.93307 0
M  V30 14350 H 1392.46 -3.0372 -4.08205 0
M  V30 14351 H 1391.86 -0.269591 -5.65057 0
M  V30 14352 H 1390.42 -0.693984 -6.48095 0
M  V30 14353 N 1393.85 0.973806 -1.23914 0
M  V30 14354 C 1394.78 2.06588 -0.969372 0
M  V30 14355 C 1395.76 1.62324 0.0946926 0
M  V30 14356 O 1396.94 1.88455 -0.0409587 0
M  V30 14357 C 1394.07 3.35539 -0.461665 0
M  V30 14358 C 1393.12 3.98748 -1.51334 0
M  V30 14359 S 1393.95 4.37156 -3.09281 0
M  V30 14360 C 1395.11 5.69252 -2.60197 0
M  V30 14361 H 1395.34 2.29153 -1.8941 0
M  V30 14362 H 1392.87 1.11089 -1.07231 0
M  V30 14363 H 1394.83 4.10125 -0.175355 0
M  V30 14364 H 1393.49 3.10971 0.442253 0
M  V30 14365 H 1392.68 4.91661 -1.10839 0
M  V30 14366 H 1392.29 3.30566 -1.74934 0
M  V30 14367 H 1394.58 6.46489 -2.02628 0
M  V30 14368 H 1395.52 6.14598 -3.51675 0
M  V30 14369 H 1395.93 5.27568 -2.00828 0
M  V30 14370 N 1395.33 1.05191 1.17357 0
M  V30 14371 C 1396.57 0.771027 1.893 0
M  V30 14372 C 1396.93 -0.68931 1.792 0
M  V30 14373 O 1398.13 -1.0843 2.4596 0
M  V30 14374 C 1396.4 1.23822 3.35265 0
M  V30 14375 S 1397.96 1.0847 4.25182 0
M  V30 14376 H 1394.78 0.280008 0.653542 0
M  V30 14377 H 1397.38 1.34654 1.41734 0
M  V30 14378 H 1396.09 2.2962 3.40151 0
M  V30 14379 H 1395.62 0.656981 3.87875 0
M  V30 14380 H 1397.63 0.00886614 4.96199 0
M  V30 14381 N 1396.8 -1.33791 0.83293 0
M  V30 14382 C 1398.05 -1.97233 0.422127 0
M  V30 14383 C 1398.37 -1.66738 -1.02264 0
M  V30 14384 O 1399.57 -2.23747 -1.53783 0
M  V30 14385 C 1398.03 -3.5295 0.703872 0
M  V30 14386 C 1397.64 -3.92329 2.16292 0
M  V30 14387 C 1399.38 -4.22973 0.359727 0
M  V30 14388 C 1397.29 -5.40999 2.38903 0
M  V30 14389 H 1396.22 -0.738082 0.154112 0
M  V30 14390 H 1398.87 -1.52494 1.02068 0
M  V30 14391 H 1397.25 -3.95985 0.0350184 0
M  V30 14392 H 1398.42 -3.6037 2.87176 0
M  V30 14393 H 1396.74 -3.35271 2.46947 0
M  V30 14394 H 1399.34 -5.32297 0.506366 0
M  V30 14395 H 1399.68 -4.10428 -0.696743 0
M  V30 14396 H 1400.21 -3.85449 0.983568 0
M  V30 14397 H 1396.95 -5.58541 3.43093 0
M  V30 14398 H 1396.47 -5.74438 1.72573 0
M  V30 14399 H 1398.15 -6.07809 2.2176 0
M  V30 14400 N 1398.28 -0.588812 -1.46187 0
M  V30 14401 C 1399.23 0.140932 -2.30369 0
M  V30 14402 C 1400.2 0.878216 -1.40984 0
M  V30 14403 O 1401.38 0.867678 -1.69929 0
M  V30 14404 C 1398.52 1.14468 -3.25563 0
M  V30 14405 C 1397.64 0.410215 -4.30048 0
M  V30 14406 C 1396.77 1.40203 -5.12364 0
M  V30 14407 C 1395.81 0.65431 -6.08593 0
M  V30 14408 N 1394.95 1.59448 -6.83755 0
M  V30 14409 H 1399.79 -0.582976 -2.92242 0
M  V30 14410 H 1397.33 -0.299302 -1.44023 0
M  V30 14411 H 1399.28 1.73957 -3.79203 0
M  V30 14412 H 1397.91 1.83623 -2.65485 0
M  V30 14413 H 1396.97 -0.299822 -3.79217 0
M  V30 14414 H 1398.28 -0.174043 -4.98496 0
M  V30 14415 H 1397.43 2.06953 -5.70312 0
M  V30 14416 H 1396.17 2.02022 -4.4389 0
M  V30 14417 H 1395.18 -0.0269371 -5.49793 0
M  V30 14418 H 1396.4 0.0414285 -6.79087 0
M  V30 14419 H 1394.35 2.20066 -6.17986 0
M  V30 14420 H 1394.26 1.06318 -7.48487 0
M  V30 14421 H 1395.53 2.25215 -7.46256 0
M  V30 14422 N 1399.76 1.54172 -0.326923 0
M  V30 14423 C 1400.69 2.27402 0.530154 0
M  V30 14424 C 1401.67 1.28325 1.11655 0
M  V30 14425 O 1402.86 1.57142 1.14105 0
M  V30 14426 C 1399.99 3.03435 1.68951 0
M  V30 14427 C 1398.94 4.09877 1.23226 0
M  V30 14428 C 1398.27 4.7377 2.47882 0
M  V30 14429 C 1399.57 5.21161 0.344698 0
M  V30 14430 H 1401.26 2.99291 -0.0806959 0
M  V30 14431 H 1398.81 1.43944 -0.0402511 0
M  V30 14432 H 1400.76 3.53396 2.29541 0
M  V30 14433 H 1399.48 2.29169 2.327 0
M  V30 14434 H 1398.14 3.60805 0.649267 0
M  V30 14435 H 1397.79 3.96116 3.10002 0
M  V30 14436 H 1397.49 5.45674 2.17977 0
M  V30 14437 H 1399.01 5.26507 3.09229 0
M  V30 14438 H 1400.43 5.66859 0.856979 0
M  V30 14439 H 1398.83 5.99941 0.138276 0
M  V30 14440 H 1399.9 4.80874 -0.623575 0
M  V30 14441 N 1401.24 0.0551678 1.57503 0
M  V30 14442 C 1402.2 -0.903065 2.10659 0
M  V30 14443 C 1403.2 -1.23728 1.02703 0
M  V30 14444 O 1404.39 -1.17331 1.2876 0
M  V30 14445 C 1401.52 -2.21171 2.59415 0
M  V30 14446 H 1402.72 -0.442197 2.96622 0
M  V30 14447 H 1400.27 -0.193297 1.551 0
M  V30 14448 H 1401 -2.71831 1.76858 0
M  V30 14449 H 1400.79 -1.98216 3.38309 0
M  V30 14450 H 1402.28 -2.89802 3.00674 0
M  V30 14451 N 1402.72 -1.56081 -0.218252 0
M  V30 14452 C 1403.99 -1.70043 -0.966684 0
M  V30 14453 C 1404.37 -0.603372 -2.02293 0
M  V30 14454 O 1403.72 0.389138 -2.25162 0
M  V30 14455 C 1403.93 -3.11484 -1.57413 0
M  V30 14456 C 1405.28 -3.70995 -2.06513 0
M  V30 14457 O 1406.3 -3.14466 -1.67301 0
M  V30 14458 O 1405.16 -4.70156 -2.78596 0
M  V30 14459 H 1402.26 -0.692691 -0.451784 0
M  V30 14460 H 1404.8 -1.68398 -0.209774 0
M  V30 14461 H 1403.57 -3.8279 -0.811614 0
M  V30 14462 H 1403.2 -3.1726 -2.3965 0
M  V30 14463 N 1404.2 0.485086 -1.49949 0
M  V30 14464 C 1405.44 1.23486 -1.5948 0
M  V30 14465 C 1405.76 1.93377 -0.294082 0
M  V30 14466 O 1406.96 2.70173 -0.268133 0
M  V30 14467 C 1405.42 2.24303 -2.81454 0
M  V30 14468 C 1405.03 1.60279 -4.18347 0
M  V30 14469 C 1406.77 3.0001 -3.00324 0
M  V30 14470 C 1404.68 2.593 -5.31524 0
M  V30 14471 H 1403.61 0.464595 -0.593858 0
M  V30 14472 H 1406.26 0.506893 -1.7636 0
M  V30 14473 H 1404.64 3.00332 -2.58102 0
M  V30 14474 H 1405.82 0.901352 -4.51899 0
M  V30 14475 H 1404.13 0.969053 -4.04967 0
M  V30 14476 H 1406.73 3.74091 -3.82048 0
M  V30 14477 H 1407.07 3.5857 -2.11502 0
M  V30 14478 H 1407.6 2.31095 -3.2379 0
M  V30 14479 H 1404.34 2.05498 -6.22455 0
M  V30 14480 H 1403.86 3.27638 -5.02408 0
M  V30 14481 H 1405.54 3.21411 -5.61519 0
M  V30 14482 N 1405.67 1.39291 0.737279 0
M  V30 14483 C 1406.62 1.37969 1.87263 0
M  V30 14484 C 1407.62 0.263156 1.67344 0
M  V30 14485 O 1408.82 0.433069 1.74713 0
M  V30 14486 H 1405.2 0.430782 0.616385 0
M  V30 14487 H 1407.17 2.33741 1.85494 0
M  V30 14488 C 1405.92 1.23779 3.24922 0
M  V30 14489 H 1405.24 2.08963 3.40844 0
M  V30 14490 H 1406.68 1.26911 4.04561 0
M  V30 14491 C 1405.14 -0.0539778 3.36857 0
M  V30 14492 O 1405.67 -1.02501 3.88402 0
M  V30 14493 N 1403.87 -0.116275 2.90367 0
M  V30 14494 H 1403.42 0.674622 2.48609 0
M  V30 14495 H 1403.38 -0.980107 2.98733 0
M  V30 14496 N 1407.15 -0.967221 1.24429 0
M  V30 14497 C 1408.4 -1.70688 1.08213 0
M  V30 14498 C 1408.72 -1.91268 -0.379693 0
M  V30 14499 O 1407.99 -1.49077 -1.27094 0
M  V30 14500 H 1406.57 -0.632489 0.39745 0
M  V30 14501 H 1409.23 -1.16356 1.56356 0
M  V30 14502 H 1408.33 -2.69119 1.58055 0
M  V30 14503 N 1408.63 -1.05812 -1.16797 0
M  V30 14504 C 1410.04 -0.79707 -1.6883 0
M  V30 14505 C 1410.39 0.679967 -1.8404 0
M  V30 14506 O 1409.52 1.5279 -1.53245 0
M  V30 14507 C 1410.11 -1.44029 -3.06661 0
M  V30 14508 C 1408.67 -1.22714 -3.55835 0
M  V30 14509 C 1407.82 -1.51988 -2.31937 0
M  V30 14510 H 1410.77 -1.22224 -1.01227 0
M  V30 14511 H 1410.79 -0.852962 -3.70816 0
M  V30 14512 H 1410.3 -2.51529 -2.95559 0
M  V30 14513 H 1408.4 -0.171671 -3.72204 0
M  V30 14514 H 1408.52 -1.93646 -4.38221 0
M  V30 14515 H 1406.88 -0.940215 -2.36711 0
M  V30 14516 H 1407.66 -2.60635 -2.23438 0
M  V30 14517 N 1410.11 1.33347 -0.840014 0
M  V30 14518 C 1411.07 2.27492 -0.279264 0
M  V30 14519 C 1412.07 1.51004 0.552669 0
M  V30 14520 O 1413.26 1.70305 0.366295 0
M  V30 14521 C 1410.39 3.35462 0.606466 0
M  V30 14522 H 1411.59 2.78601 -1.11001 0
M  V30 14523 H 1409.14 1.4377 -0.613187 0
M  V30 14524 H 1409.87 2.89596 1.45961 0
M  V30 14525 H 1409.66 3.92098 0.0111889 0
M  V30 14526 H 1411.15 4.05645 0.992052 0
M  V30 14527 N 1411.59 0.596556 1.45873 0
M  V30 14528 C 1412.53 -0.128713 2.30441 0
M  V30 14529 C 1413.5 -0.870727 1.41448 0
M  V30 14530 O 1414.69 -0.858654 1.70387 0
M  V30 14531 C 1411.83 -1.1274 3.26165 0
M  V30 14532 C 1410.94 -0.387403 4.30259 0
M  V30 14533 C 1410.08 -1.37484 5.131 0
M  V30 14534 C 1409.11 -0.622025 6.08931 0
M  V30 14535 N 1408.25 -1.5582 6.84591 0
M  V30 14536 H 1413.09 0.598466 2.91929 0
M  V30 14537 H 1410.63 0.306936 1.43862 0
M  V30 14538 H 1412.59 -1.71943 3.8012 0
M  V30 14539 H 1411.22 -1.82213 2.66455 0
M  V30 14540 H 1410.27 0.319929 3.79052 0
M  V30 14541 H 1411.58 0.200477 4.98397 0
M  V30 14542 H 1410.73 -2.03926 5.71401 0
M  V30 14543 H 1409.47 -1.99665 4.44955 0
M  V30 14544 H 1408.48 0.0560936 5.49771 0
M  V30 14545 H 1409.7 -0.00541426 6.791 0
M  V30 14546 H 1407.65 -2.16786 6.19145 0
M  V30 14547 H 1407.57 -1.02347 7.4904 0
M  V30 14548 H 1408.83 -2.21254 7.4744 0
M  V30 14549 N 1413.06 -1.53996 0.335095 0
M  V30 14550 C 1414.3 -2.02682 -0.264447 0
M  V30 14551 C 1414.67 -1.21779 -1.48438 0
M  V30 14552 O 1415.87 -1.60322 -2.15755 0
M  V30 14553 C 1414.14 -3.52678 -0.579072 0
M  V30 14554 S 1415.7 -4.23282 -1.15663 0
M  V30 14555 H 1412.52 -0.706566 -0.0792826 0
M  V30 14556 H 1415.12 -1.89744 0.470895 0
M  V30 14557 H 1413.82 -4.09176 0.316756 0
M  V30 14558 H 1413.35 -3.69719 -1.34431 0
M  V30 14559 H 1415.37 -4.31903 -2.44284 0
M  V30 14560 N 1414.54 -0.0635198 -1.57472 0
M  V30 14561 C 1415.49 0.906604 -2.12248 0
M  V30 14562 C 1416.46 1.30078 -1.0329 0
M  V30 14563 O 1417.64 1.38809 -1.30907 0
M  V30 14564 C 1414.78 2.1718 -2.68192 0
M  V30 14565 C 1413.9 1.831 -3.91278 0
M  V30 14566 C 1413.03 3.0417 -4.35493 0
M  V30 14567 C 1412.07 2.66069 -5.51248 0
M  V30 14568 N 1411.21 3.79871 -5.9046 0
M  V30 14569 H 1416.05 0.432606 -2.94843 0
M  V30 14570 H 1413.58 0.201895 -1.45708 0
M  V30 14571 H 1415.54 2.91231 -2.98732 0
M  V30 14572 H 1414.17 2.62135 -1.88375 0
M  V30 14573 H 1413.22 0.991473 -3.67252 0
M  V30 14574 H 1414.54 1.51063 -4.75375 0
M  V30 14575 H 1413.69 3.86507 -4.6765 0
M  V30 14576 H 1412.43 3.39395 -3.50232 0
M  V30 14577 H 1411.43 1.82151 -5.1875 0
M  V30 14578 H 1412.66 2.32023 -6.38234 0
M  V30 14579 H 1410.61 4.14873 -5.0815 0
M  V30 14580 H 1410.52 3.51573 -6.69277 0
M  V30 14581 H 1411.79 4.62811 -6.27237 0
M  V30 14582 N 1416.02 1.56195 0.209972 0
M  V30 14583 C 1416.93 1.96539 1.28101 0
M  V30 14584 C 1417.95 0.870858 1.50639 0
M  V30 14585 O 1419.12 1.17539 1.63544 0
M  V30 14586 C 1416.19 2.28392 2.60841 0
M  V30 14587 C 1415.25 3.51474 2.46505 0
M  V30 14588 C 1414.48 3.81798 3.72915 0
M  V30 14589 O 1414.7 3.13627 4.76439 0
M  V30 14590 O 1413.64 4.75264 3.69334 0
M  V30 14591 H 1417.46 2.87838 0.968671 0
M  V30 14592 H 1415.05 1.43556 0.413777 0
M  V30 14593 H 1416.93 2.50022 3.39215 0
M  V30 14594 H 1415.61 1.40264 2.91732 0
M  V30 14595 H 1414.51 3.35109 1.66292 0
M  V30 14596 H 1415.85 4.40021 2.2055 0
M  V30 14597 N 1417.5 -0.477127 1.50204 0
M  V30 14598 C 1418.43 -1.58405 1.71552 0
M  V30 14599 C 1419.41 -1.60463 0.564413 0
M  V30 14600 O 1420.59 -1.76826 0.802893 0
M  V30 14601 C 1417.72 -2.96765 1.8041 0
M  V30 14602 C 1416.68 -3.09573 2.95548 0
M  V30 14603 C 1416 -4.49522 2.89542 0
M  V30 14604 C 1417.3 -2.87356 4.36147 0
M  V30 14605 H 1419 -1.40792 2.64231 0
M  V30 14606 H 1416.54 -0.675886 1.27153 0
M  V30 14607 H 1418.5 -3.74125 1.9393 0
M  V30 14608 H 1417.22 -3.1552 0.843489 0
M  V30 14609 H 1415.88 -2.34645 2.81669 0
M  V30 14610 H 1415.53 -4.65186 1.91339 0
M  V30 14611 H 1415.23 -4.59028 3.66834 0
M  V30 14612 H 1416.75 -5.28909 3.05102 0
M  V30 14613 H 1418.17 -3.54469 4.50583 0
M  V30 14614 H 1416.56 -3.08313 5.14843 0
M  V30 14615 H 1417.63 -1.83264 4.48935 0
M  V30 14616 N 1418.98 -1.3968 -0.729882 0
M  V30 14617 C 1419.93 -1.35296 -1.83518 0
M  V30 14618 C 1420.91 -0.232935 -1.59205 0
M  V30 14619 O 1422.1 -0.470887 -1.70621 0
M  V30 14620 C 1419.23 -1.20383 -3.21501 0
M  V30 14621 C 1418.32 -2.37108 -3.51626 0
M  V30 14622 N 1418.71 -3.62585 -3.52655 0
M  V30 14623 C 1417.01 -2.30177 -3.82014 0
M  V30 14624 C 1417.71 -4.39803 -3.8072 0
M  V30 14625 N 1416.68 -3.69456 -3.98752 0
M  V30 14626 H 1420.49 -2.30271 -1.82627 0
M  V30 14627 H 1418 -1.33249 -0.92836 0
M  V30 14628 H 1420 -1.15325 -4.00632 0
M  V30 14629 H 1418.66 -0.263628 -3.23628 0
M  V30 14630 H 1419.67 -3.9594 -3.33845 0
M  V30 14631 H 1416.34 -1.44446 -3.91716 0
M  V30 14632 H 1417.73 -5.4859 -3.87941 0
M  V30 14633 N 1420.45 0.960609 -1.2494 0
M  V30 14634 C 1421.38 2.074 -1.07274 0
M  V30 14635 C 1422.37 1.70092 0.0164365 0
M  V30 14636 O 1423.55 1.93604 -0.151975 0
M  V30 14637 C 1420.68 3.40491 -0.684317 0
M  V30 14638 C 1419.63 3.91784 -1.72306 0
M  V30 14639 C 1418.96 5.21301 -1.18949 0
M  V30 14640 C 1420.26 4.18829 -3.12056 0
M  V30 14641 H 1421.95 2.22438 -2.00404 0
M  V30 14642 H 1419.5 1.06888 -0.964937 0
M  V30 14643 H 1421.45 4.17826 -0.547686 0
M  V30 14644 H 1420.18 3.25374 0.282687 0
M  V30 14645 H 1418.84 3.16613 -1.84802 0
M  V30 14646 H 1418.48 5.02549 -0.212892 0
M  V30 14647 H 1418.18 5.56588 -1.8837 0
M  V30 14648 H 1419.71 6.01238 -1.06513 0
M  V30 14649 H 1421.12 4.86844 -3.02748 0
M  V30 14650 H 1419.52 4.6536 -3.78894 0
M  V30 14651 H 1420.59 3.25333 -3.59564 0
M  V30 14652 N 1421.93 1.0643 1.16234 0
M  V30 14653 C 1422.86 0.634274 2.20249 0
M  V30 14654 C 1423.88 -0.308432 1.59852 0
M  V30 14655 O 1425.07 -0.0992067 1.78224 0
M  V30 14656 C 1422.17 -0.0901593 3.3878 0
M  V30 14657 C 1421.34 0.866379 4.28734 0
M  V30 14658 C 1420.4 0.180942 5.25889 0
M  V30 14659 O 1419.42 0.819034 5.63277 0
M  V30 14660 N 1420.63 -1.07698 5.70422 0
M  V30 14661 H 1423.39 1.52901 2.57762 0
M  V30 14662 H 1420.95 0.947789 1.31258 0
M  V30 14663 H 1422.94 -0.559147 4.00819 0
M  V30 14664 H 1421.51 -0.886715 2.9976 0
M  V30 14665 H 1420.73 1.51471 3.63937 0
M  V30 14666 H 1422.02 1.51524 4.85714 0
M  V30 14667 H 1421.42 -1.6155 5.42142 0
M  V30 14668 H 1419.98 -1.48981 6.34545 0
M  V30 14669 N 1423.41 -1.329 0.847073 0
M  V30 14670 C 1424.66 -1.98207 0.456672 0
M  V30 14671 C 1425.01 -1.65853 -0.975219 0
M  V30 14672 O 1424.3 -0.932413 -1.67382 0
M  V30 14673 C 1424.5 -3.51913 0.623845 0
M  V30 14674 C 1424.33 -3.99203 2.07043 0
M  V30 14675 C 1423.1 -4.26649 2.70737 0
M  V30 14676 C 1425.3 -4.14825 3.04014 0
M  V30 14677 N 1423.28 -4.60134 4.06386 0
M  V30 14678 C 1424.65 -4.51762 4.2463 0
M  V30 14679 C 1426.7 -3.97137 3.0031 0
M  V30 14680 C 1425.41 -4.72859 5.4203 0
M  V30 14681 C 1427.43 -4.19414 4.16948 0
M  V30 14682 C 1426.79 -4.56661 5.36321 0
M  V30 14683 H 1422.89 -0.751664 0.215696 0
M  V30 14684 H 1425.48 -1.60863 1.09687 0
M  V30 14685 H 1423.65 -3.88398 0.0133985 0
M  V30 14686 H 1425.38 -4.04185 0.204083 0
M  V30 14687 H 1422.14 -4.1844 2.21822 0
M  V30 14688 H 1422.56 -4.81074 4.76337 0
M  V30 14689 H 1427.2 -3.67449 2.09144 0
M  V30 14690 H 1424.92 -5.01405 6.33734 0
M  V30 14691 H 1428.51 -4.07239 4.15509 0
M  V30 14692 H 1427.39 -4.73554 6.25073 0
M  V30 14693 N 1424.89 -0.604284 -1.45555 0
M  V30 14694 C 1426.12 -0.104452 -2.06636 0
M  V30 14695 C 1426.53 1.20976 -1.44949 0
M  V30 14696 O 1425.89 1.73616 -0.562468 0
M  V30 14697 C 1425.94 0.0451646 -3.61472 0
M  V30 14698 O 1425.66 -1.21705 -4.20856 0
M  V30 14699 C 1427.16 0.57684 -4.39531 0
M  V30 14700 H 1424.38 -0.067326 -0.667614 0
M  V30 14701 H 1426.93 -0.831079 -1.86851 0
M  V30 14702 H 1425.08 0.722104 -3.80611 0
M  V30 14703 H 1425.49 -1.04462 -5.13992 0
M  V30 14704 H 1426.97 0.630627 -5.48386 0
M  V30 14705 H 1427.45 1.59842 -4.09081 0
M  V30 14706 H 1428.05 -0.0659444 -4.25249 0
M  V30 14707 N 1426.37 1.53816 -0.343257 0
M  V30 14708 C 1427.64 1.9315 0.308609 0
M  V30 14709 C 1428.02 1.27479 1.68263 0
M  V30 14710 O 1427.37 0.425614 2.24501 0
M  V30 14711 C 1427.58 3.46912 0.381176 0
M  V30 14712 C 1428.93 4.19868 0.632153 0
M  V30 14713 O 1429.95 3.53174 0.463303 0
M  V30 14714 O 1428.81 5.38016 0.959237 0
M  V30 14715 H 1425.91 0.807169 0.180022 0
M  V30 14716 H 1428.45 1.65053 -0.394412 0
M  V30 14717 H 1427.22 3.86932 -0.583058 0
M  V30 14718 H 1426.85 3.81175 1.13099 0
M  V30 14719 N 1427.84 0.0718701 1.57436 0
M  V30 14720 C 1429.09 -0.596052 1.9311 0
M  V30 14721 C 1429.41 -1.70146 0.952652 0
M  V30 14722 O 1428.68 -1.959 0.000812941 0
M  V30 14723 H 1427.26 -0.223165 0.712886 0
M  V30 14724 H 1429.93 0.129744 1.94468 0
M  V30 14725 H 1429.02 -1.02132 2.94916 0
M  V30 14726 N 1429.32 -1.56304 -0.201686 0
M  V30 14727 C 1430.57 -1.79433 -0.921241 0
M  V30 14728 C 1430.88 -0.643943 -1.84696 0
M  V30 14729 O 1432.09 -0.759359 -2.60665 0
M  V30 14730 C 1430.55 -3.17835 -1.68846 0
M  V30 14731 C 1430.15 -4.40655 -0.807892 0
M  V30 14732 C 1431.9 -3.50277 -2.39805 0
M  V30 14733 C 1429.81 -5.7008 -1.5736 0
M  V30 14734 H 1428.74 -0.669029 -0.34773 0
M  V30 14735 H 1431.39 -1.82667 -0.174657 0
M  V30 14736 H 1429.77 -3.08832 -2.47869 0
M  V30 14737 H 1430.94 -4.60765 -0.0567923 0
M  V30 14738 H 1429.26 -4.15873 -0.209465 0
M  V30 14739 H 1431.85 -4.44207 -2.97631 0
M  V30 14740 H 1432.2 -2.7371 -3.1367 0
M  V30 14741 H 1432.73 -3.60698 -1.67754 0
M  V30 14742 H 1429.47 -6.49595 -0.877855 0
M  V30 14743 H 1428.99 -5.53999 -2.2988 0
M  V30 14744 H 1430.67 -6.10964 -2.12912 0
M  V30 14745 N 1430.8 0.469154 -1.50455 0
M  V30 14746 C 1432.05 1.2229 -1.6178 0
M  V30 14747 C 1432.38 1.91577 -0.318073 0
M  V30 14748 O 1431.65 1.82205 0.68057 0
M  V30 14749 C 1431.94 2.26504 -2.79943 0
M  V30 14750 C 1431.79 1.61509 -4.19804 0
M  V30 14751 C 1433.11 3.27796 -2.93662 0
M  V30 14752 H 1430.23 0.443241 -0.588817 0
M  V30 14753 H 1432.87 0.516431 -1.82847 0
M  V30 14754 H 1431.02 2.86757 -2.62112 0
M  V30 14755 H 1432.69 1.04838 -4.49229 0
M  V30 14756 H 1430.94 0.918162 -4.23972 0
M  V30 14757 H 1431.61 2.37248 -4.98415 0
M  V30 14758 H 1434.08 2.77568 -3.09992 0
M  V30 14759 H 1432.96 3.98041 -3.77961 0
M  V30 14760 H 1433.22 3.92033 -2.04359 0
M  V30 14761 N 1432.28 1.40065 0.722464 0
M  V30 14762 C 1433.23 1.39947 1.85789 0
M  V30 14763 C 1434.22 0.28089 1.67055 0
M  V30 14764 O 1435.43 0.451575 1.74244 0
M  V30 14765 H 1431.8 0.437296 0.611781 0
M  V30 14766 H 1433.77 2.35695 1.83004 0
M  V30 14767 C 1432.52 1.27218 3.2359 0
M  V30 14768 H 1431.84 2.12566 3.38609 0
M  V30 14769 H 1433.28 1.31194 4.03192 0
M  V30 14770 C 1431.74 -0.0182466 3.36895 0
M  V30 14771 O 1432.27 -0.983761 3.89468 0
M  V30 14772 N 1430.48 -0.0854707 2.90474 0
M  V30 14773 H 1430.03 0.700953 2.4788 0
M  V30 14774 H 1429.98 -0.948367 2.99755 0
M  V30 14775 N 1433.76 -0.95397 1.25448 0
M  V30 14776 C 1434.67 -2.08452 1.07634 0
M  V30 14777 C 1435.68 -1.73995 0.013294 0
M  V30 14778 O 1436.86 -2.00256 0.214367 0
M  V30 14779 C 1433.92 -3.39606 0.697756 0
M  V30 14780 C 1432.99 -3.87926 1.83881 0
M  V30 14781 C 1432.22 -5.12821 1.47819 0
M  V30 14782 O 1432.44 -5.69172 0.374143 0
M  V30 14783 O 1431.38 -5.55866 2.3086 0
M  V30 14784 H 1435.2 -2.26382 2.02447 0
M  V30 14785 H 1432.79 -1.06877 1.04392 0
M  V30 14786 H 1434.67 -4.18438 0.498778 0
M  V30 14787 H 1433.34 -3.22944 -0.221108 0
M  V30 14788 H 1432.25 -3.10095 2.09265 0
M  V30 14789 H 1433.58 -4.09087 2.73694 0
M  V30 14790 N 1435.24 -1.07045 -1.15668 0
M  V30 14791 C 1436.48 -0.791735 -1.86381 0
M  V30 14792 C 1436.81 0.682084 -1.82148 0
M  V30 14793 O 1436.07 1.51617 -1.23737 0
M  V30 14794 C 1436.36 -1.24127 -3.35153 0
M  V30 14795 C 1436.03 -2.72051 -3.59582 0
M  V30 14796 C 1434.69 -3.12455 -3.65958 0
M  V30 14797 C 1437.04 -3.67547 -3.69538 0
M  V30 14798 C 1434.37 -4.4718 -3.79799 0
M  V30 14799 C 1436.72 -5.02029 -3.84902 0
M  V30 14800 C 1435.39 -5.42059 -3.89523 0
M  V30 14801 H 1434.66 -0.289717 -0.682016 0
M  V30 14802 H 1437.31 -1.34091 -1.36718 0
M  V30 14803 H 1435.61 -0.611428 -3.87 0
M  V30 14804 H 1437.31 -1.00256 -3.88265 0
M  V30 14805 H 1433.9 -2.39771 -3.55257 0
M  V30 14806 H 1438.08 -3.3746 -3.63915 0
M  V30 14807 H 1433.34 -4.77668 -3.81632 0
M  V30 14808 H 1437.51 -5.75902 -3.91548 0
M  V30 14809 H 1435.14 -6.46455 -4 0
M  V30 14810 N 1436.71 1.32449 -0.85411 0
M  V30 14811 C 1437.94 2.01171 -0.470505 0
M  V30 14812 C 1438.35 1.64356 0.937218 0
M  V30 14813 O 1437.69 0.860565 1.62296 0
M  V30 14814 C 1437.76 3.55583 -0.529241 0
M  V30 14815 C 1437.42 4.15824 -1.89576 0
M  V30 14816 C 1438.42 4.34091 -2.86114 0
M  V30 14817 C 1436.1 4.51911 -2.19276 0
M  V30 14818 C 1438.1 4.87612 -4.10504 0
M  V30 14819 C 1435.78 5.05137 -3.43919 0
M  V30 14820 C 1436.78 5.22936 -4.39349 0
M  V30 14821 O 1436.47 5.75024 -5.61785 0
M  V30 14822 H 1436.2 0.650645 -0.183405 0
M  V30 14823 H 1438.76 1.70015 -1.15257 0
M  V30 14824 H 1436.99 3.86131 0.209671 0
M  V30 14825 H 1438.67 4.05579 -0.161315 0
M  V30 14826 H 1439.44 4.06545 -2.64473 0
M  V30 14827 H 1435.32 4.37343 -1.45782 0
M  V30 14828 H 1438.86 5.0142 -4.84999 0
M  V30 14829 H 1434.76 5.32114 -3.6541 0
M  V30 14830 H 1435.53 5.93418 -5.63736 0
M  V30 14831 N 1438.19 0.611994 1.45232 0
M  V30 14832 C 1439.1 -0.105981 2.3436 0
M  V30 14833 C 1440.12 -0.855785 1.515 0
M  V30 14834 O 1441.29 -0.812376 1.84289 0
M  V30 14835 C 1438.36 -1.08794 3.29188 0
M  V30 14836 C 1437.42 -0.339611 4.27955 0
M  V30 14837 C 1436.65 -1.27479 5.18252 0
M  V30 14838 O 1436.88 -2.51279 5.12069 0
M  V30 14839 O 1435.81 -0.769469 5.96961 0
M  V30 14840 H 1439.64 0.626584 2.97166 0
M  V30 14841 H 1437.22 0.37224 1.44688 0
M  V30 14842 H 1439.1 -1.65338 3.8761 0
M  V30 14843 H 1437.78 -1.80145 2.68941 0
M  V30 14844 H 1436.68 0.268408 3.73136 0
M  V30 14845 H 1438.02 0.333501 4.91069 0
M  V30 14846 N 1439.67 -1.53632 0.351409 0
M  V30 14847 C 1440.6 -2.2284 -0.536204 0
M  V30 14848 C 1441.61 -1.23765 -1.05764 0
M  V30 14849 O 1442.8 -1.50073 -0.966449 0
M  V30 14850 C 1439.9 -2.9013 -1.75151 0
M  V30 14851 C 1439.08 -4.15588 -1.36401 0
M  V30 14852 C 1438.14 -4.66217 -2.43984 0
M  V30 14853 O 1437.16 -5.3024 -2.06964 0
M  V30 14854 N 1438.36 -4.42817 -3.75358 0
M  V30 14855 H 1441.13 -2.99647 0.0565368 0
M  V30 14856 H 1438.69 -1.60942 0.175905 0
M  V30 14857 H 1440.68 -3.20913 -2.4657 0
M  V30 14858 H 1439.25 -2.16862 -2.25144 0
M  V30 14859 H 1438.47 -3.91264 -0.480258 0
M  V30 14860 H 1439.76 -4.97179 -1.08121 0
M  V30 14861 H 1439.16 -3.9163 -4.08218 0
M  V30 14862 H 1437.71 -4.78186 -4.42924 0
M  V30 14863 N 1441.15 -0.0802183 -1.57396 0
M  V30 14864 C 1442.4 0.585802 -1.93424 0
M  V30 14865 C 1442.72 1.69638 -0.961662 0
M  V30 14866 O 1441.99 1.95897 -0.011202 0
M  V30 14867 H 1440.57 0.219382 -0.714059 0
M  V30 14868 H 1443.23 -0.140055 -1.94396 0
M  V30 14869 H 1442.32 1.00566 -2.95454 0
M  V30 14870 N 1442.63 1.56409 0.193394 0
M  V30 14871 C 1443.9 1.71559 0.93951 0
M  V30 14872 C 1444.28 0.635478 2.01308 0
M  V30 14873 O 1443.63 -0.353267 2.25753 0
M  V30 14874 C 1443.84 3.13948 1.52438 0
M  V30 14875 C 1445.19 3.74234 2.00585 0
M  V30 14876 O 1446.21 3.17088 1.62277 0
M  V30 14877 O 1445.07 4.74529 2.71081 0
M  V30 14878 H 1442.17 0.69979 0.440707 0
M  V30 14879 H 1444.71 1.68711 0.182957 0
M  V30 14880 H 1443.48 3.84033 0.750613 0
M  V30 14881 H 1443.11 3.21032 2.34572 0
M  V30 14882 N 1444.1 -0.461169 1.50702 0
M  V30 14883 C 1445.01 -1.58355 1.73092 0
M  V30 14884 C 1446.03 -1.62795 0.61431 0
M  V30 14885 O 1447.21 -1.8048 0.893806 0
M  V30 14886 C 1444.27 -2.94509 1.82936 0
M  V30 14887 C 1443.33 -3.00378 3.06711 0
M  V30 14888 C 1442.56 -4.30037 3.16076 0
M  V30 14889 O 1442.79 -5.21097 2.31978 0
M  V30 14890 O 1441.72 -4.41702 4.08881 0
M  V30 14891 H 1445.55 -1.42384 2.68255 0
M  V30 14892 H 1443.13 -0.641709 1.34916 0
M  V30 14893 H 1445.01 -3.75357 1.91534 0
M  V30 14894 H 1443.69 -3.10658 0.909581 0
M  V30 14895 H 1442.6 -2.18571 3.03608 0
M  V30 14896 H 1443.93 -2.89167 3.983 0
M  V30 14897 N 1445.58 -1.40446 -0.715026 0
M  V30 14898 C 1446.49 -1.43074 -1.85922 0
M  V30 14899 C 1447.51 -0.323294 -1.7097 0
M  V30 14900 O 1448.68 -0.567966 -1.93226 0
M  V30 14901 C 1445.75 -1.29206 -3.21725 0
M  V30 14902 C 1444.81 -2.50097 -3.48927 0
M  V30 14903 C 1444.04 -2.36881 -4.7825 0
M  V30 14904 O 1444.27 -1.38292 -5.53382 0
M  V30 14905 O 1443.2 -3.26266 -5.058 0
M  V30 14906 H 1447.03 -2.39565 -1.86661 0
M  V30 14907 H 1444.61 -1.21775 -0.865522 0
M  V30 14908 H 1446.49 -1.23681 -4.02841 0
M  V30 14909 H 1445.17 -0.358207 -3.21712 0
M  V30 14910 H 1444.07 -2.61199 -2.67817 0
M  V30 14911 H 1445.41 -3.42244 -3.53737 0
M  V30 14912 N 1447.06 0.947303 -1.25952 0
M  V30 14913 C 1448.02 2.02667 -1.07046 0
M  V30 14914 C 1449.02 1.60787 -0.0208127 0
M  V30 14915 O 1450.21 1.72193 -0.263668 0
M  V30 14916 C 1447.34 3.35087 -0.626885 0
M  V30 14917 H 1448.54 2.20871 -2.0287 0
M  V30 14918 H 1446.09 1.12541 -1.08462 0
M  V30 14919 H 1446.83 3.22579 0.333621 0
M  V30 14920 H 1446.61 3.66835 -1.38473 0
M  V30 14921 H 1448.1 4.14397 -0.516264 0
M  V30 14922 N 1448.54 1.07657 1.15099 0
M  V30 14923 C 1449.76 0.82291 1.90376 0
M  V30 14924 C 1450.19 -0.618415 1.77644 0
M  V30 14925 O 1449.55 -1.43248 1.11129 0
M  V30 14926 C 1449.59 1.23988 3.38614 0
M  V30 14927 O 1448.7 0.387085 4.10579 0
M  V30 14928 H 1448.04 0.299532 0.592602 0
M  V30 14929 H 1450.57 1.436 1.4574 0
M  V30 14930 H 1450.58 1.21741 3.89414 0
M  V30 14931 H 1449.25 2.28966 3.472 0
M  V30 14932 H 1447.83 0.472311 3.69897 0
M  V30 14933 N 1450.02 -1.31994 0.861122 0
M  V30 14934 C 1450.95 -2.31214 0.325963 0
M  V30 14935 C 1451.93 -1.59965 -0.578383 0
M  V30 14936 O 1453.11 -1.87726 -0.497268 0
M  V30 14937 C 1450.24 -3.43953 -0.481001 0
M  V30 14938 C 1449.2 -4.2673 0.329474 0
M  V30 14939 C 1448.52 -5.31293 -0.602627 0
M  V30 14940 C 1449.82 -4.98498 1.55874 0
M  V30 14941 H 1451.52 -2.76223 1.15503 0
M  V30 14942 H 1449.06 -1.32797 0.556856 0
M  V30 14943 H 1451.02 -4.12409 -0.86585 0
M  V30 14944 H 1449.74 -2.97687 -1.3435 0
M  V30 14945 H 1448.4 -3.59929 0.696159 0
M  V30 14946 H 1448.05 -4.8128 -1.46215 0
M  V30 14947 H 1447.75 -5.87565 -0.0643044 0
M  V30 14948 H 1449.27 -6.02611 -0.984512 0
M  V30 14949 H 1450.68 -5.596 1.24583 0
M  V30 14950 H 1449.08 -5.64525 2.03548 0
M  V30 14951 H 1450.15 -4.25991 2.31646 0
M  V30 14952 N 1451.49 -0.619688 -1.44906 0
M  V30 14953 C 1452.74 -0.119397 -2.01747 0
M  V30 14954 C 1453.06 1.25904 -1.48907 0
M  V30 14955 O 1452.33 1.83417 -0.688104 0
M  V30 14956 H 1450.91 -0.0411482 -0.745866 0
M  V30 14957 H 1453.58 -0.803813 -1.77552 0
M  V30 14958 H 1452.67 -0.078368 -3.12002 0
M  V30 14959 N 1452.97 1.53444 -0.359552 0
M  V30 14960 C 1453.9 2.28475 0.4818 0
M  V30 14961 C 1454.88 1.30664 1.08908 0
M  V30 14962 O 1456.07 1.59527 1.10746 0
M  V30 14963 C 1453.2 3.06951 1.62477 0
M  V30 14964 C 1452.15 4.12399 1.14504 0
M  V30 14965 C 1451.48 4.78922 2.37777 0
M  V30 14966 C 1452.78 5.21775 0.234075 0
M  V30 14967 H 1454.47 2.99053 -0.144162 0
M  V30 14968 H 1452.02 1.43826 -0.0707746 0
M  V30 14969 H 1453.97 3.58186 2.21993 0
M  V30 14970 H 1452.7 2.34053 2.27787 0
M  V30 14971 H 1451.35 3.62101 0.572589 0
M  V30 14972 H 1451 4.02602 3.0153 0
M  V30 14973 H 1450.7 5.50175 2.06353 0
M  V30 14974 H 1452.23 5.32948 2.97991 0
M  V30 14975 H 1453.64 5.68549 0.736548 0
M  V30 14976 H 1452.04 6.00099 0.0109887 0
M  V30 14977 H 1453.11 4.79443 -0.725435 0
M  V30 14978 N 1454.45 0.0885642 1.57351 0
M  V30 14979 C 1455.86 -0.441569 1.81403 0
M  V30 14980 C 1456.21 -1.68582 1.00372 0
M  V30 14981 O 1455.34 -2.15162 0.231153 0
M  V30 14982 C 1455.93 -0.807886 3.29027 0
M  V30 14983 C 1454.49 -1.2828 3.53866 0
M  V30 14984 C 1453.64 -0.276217 2.75921 0
M  V30 14985 H 1456.59 0.314083 1.55561 0
M  V30 14986 H 1456.61 -1.66797 3.41993 0
M  V30 14987 H 1456.12 0.0978886 3.87977 0
M  V30 14988 H 1454.22 -2.2065 3.0024 0
M  V30 14989 H 1454.34 -1.24914 4.62529 0
M  V30 14990 H 1452.7 -0.757007 2.4319 0
M  V30 14991 H 1453.48 0.622123 3.37616 0
M  V30 14992 N 1455.93 -1.56509 -0.185096 0
M  V30 14993 C 1457.18 -1.804 -0.902158 0
M  V30 14994 C 1457.49 -0.663496 -1.84003 0
M  V30 14995 O 1458.7 -0.786963 -2.59844 0
M  V30 14996 C 1457.15 -3.19608 -1.65466 0
M  V30 14997 C 1456.76 -4.41487 -0.761109 0
M  V30 14998 C 1458.5 -3.52801 -2.36076 0
M  V30 14999 C 1456.41 -5.71717 -1.51305 0
M  V30 15000 H 1455.34 -0.67268 -0.340614 0
M  V30 15001 H 1457.99 -1.82842 -0.155273 0
M  V30 15002 H 1456.37 -3.11443 -2.44579 0
M  V30 15003 H 1457.55 -4.60799 -0.00791878 0
M  V30 15004 H 1455.86 -4.16072 -0.165344 0
M  V30 15005 H 1458.46 -4.47339 -2.92902 0
M  V30 15006 H 1458.8 -2.77021 -3.10749 0
M  V30 15007 H 1459.34 -3.62457 -1.63919 0
M  V30 15008 H 1456.08 -6.5049 -0.808907 0
M  V30 15009 H 1455.6 -5.56406 -2.23992 0
M  V30 15010 H 1457.27 -6.13188 -2.0642 0
M  V30 15011 N 1457.41 0.45317 -1.50944 0
M  V30 15012 C 1458.63 1.23136 -1.6689 0
M  V30 15013 C 1459.06 1.84639 -0.359185 0
M  V30 15014 O 1458.41 1.68106 0.678983 0
M  V30 15015 C 1458.46 2.30275 -2.77499 0
M  V30 15016 O 1457.57 3.35371 -2.39999 0
M  V30 15017 H 1456.91 0.361475 -0.556984 0
M  V30 15018 H 1459.44 0.537174 -1.97422 0
M  V30 15019 H 1459.45 2.75309 -3.01113 0
M  V30 15020 H 1458.12 1.84885 -3.72546 0
M  V30 15021 H 1456.7 2.95924 -2.26899 0
M  V30 15022 N 1458.88 1.40823 0.707568 0
M  V30 15023 C 1460.3 1.35249 1.28704 0
M  V30 15024 C 1460.65 0.0298026 1.96177 0
M  V30 15025 O 1459.77 -0.872126 1.98048 0
M  V30 15026 C 1460.37 2.44965 2.34046 0
M  V30 15027 C 1458.93 2.42826 2.87598 0
M  V30 15028 C 1458.07 2.25429 1.61483 0
M  V30 15029 H 1461.02 1.50513 0.503141 0
M  V30 15030 H 1461.04 2.13334 3.1507 0
M  V30 15031 H 1460.56 3.41219 1.84908 0
M  V30 15032 H 1458.66 1.50294 3.40944 0
M  V30 15033 H 1458.77 3.38704 3.38845 0
M  V30 15034 H 1457.13 1.73089 1.86848 0
M  V30 15035 H 1457.92 3.23693 1.14359 0
M  V30 15036 N 1460.36 -0.94061 1.26453 0
M  V30 15037 C 1461.61 -1.68687 1.12031 0
M  V30 15038 C 1461.94 -1.91571 -0.336252 0
M  V30 15039 O 1461.19 -1.49458 -1.26336 0
M  V30 15040 C 1461.49 -3.06683 1.83521 0
M  V30 15041 C 1461.16 -3.03553 3.33416 0
M  V30 15042 C 1459.82 -3.02407 3.74304 0
M  V30 15043 C 1462.17 -2.95817 4.29118 0
M  V30 15044 C 1459.5 -2.9129 5.09281 0
M  V30 15045 C 1461.85 -2.86242 5.64135 0
M  V30 15046 C 1460.52 -2.83438 6.04333 0
M  V30 15047 H 1459.79 -0.61727 0.40995 0
M  V30 15048 H 1462.43 -1.0979 1.56902 0
M  V30 15049 H 1460.74 -3.69208 1.31121 0
M  V30 15050 H 1462.43 -3.63274 1.69802 0
M  V30 15051 H 1459.02 -3.05226 3.00891 0
M  V30 15052 H 1463.21 -2.9581 3.9851 0
M  V30 15053 H 1458.46 -2.87498 5.39588 0
M  V30 15054 H 1462.64 -2.79219 6.37973 0
M  V30 15055 H 1460.27 -2.74581 7.08879 0
M  V30 15056 N 1461.84 -1.08266 -1.14527 0
M  V30 15057 C 1462.77 -0.655392 -2.18586 0
M  V30 15058 C 1463.75 0.332109 -1.59172 0
M  V30 15059 O 1464.94 0.236315 -1.87013 0
M  V30 15060 C 1462.06 0.0362295 -3.38681 0
M  V30 15061 C 1461.11 -0.91119 -4.16653 0
M  V30 15062 S 1461.94 -2.4171 -4.77846 0
M  V30 15063 C 1463.1 -1.73755 -6.01299 0
M  V30 15064 H 1463.33 -1.53694 -2.54491 0
M  V30 15065 H 1460.86 -0.897499 -1.25636 0
M  V30 15066 H 1462.82 0.428996 -4.08252 0
M  V30 15067 H 1461.48 0.894253 -3.01101 0
M  V30 15068 H 1460.68 -0.374143 -5.02609 0
M  V30 15069 H 1460.28 -1.24478 -3.52677 0
M  V30 15070 H 1462.57 -1.05465 -6.69241 0
M  V30 15071 H 1463.51 -2.5758 -6.59589 0
M  V30 15072 H 1463.92 -1.21153 -5.51346 0
M  V30 15073 N 1463.32 1.31536 -0.86811 0
M  V30 15074 C 1464.6 1.9149 -0.398866 0
M  V30 15075 C 1464.98 1.79008 1.1189 0
M  V30 15076 O 1464.32 1.19659 1.94664 0
M  V30 15077 C 1464.53 3.37771 -0.878173 0
M  V30 15078 C 1465.88 4.14882 -0.903216 0
M  V30 15079 O 1466.91 3.46545 -0.823703 0
M  V30 15080 O 1465.77 5.36936 -1.01794 0
M  V30 15081 H 1462.86 0.818398 -0.118971 0
M  V30 15082 H 1465.41 1.40216 -0.955899 0
M  V30 15083 H 1464.18 3.40861 -1.9217 0
M  V30 15084 H 1463.8 3.96472 -0.299346 0
M  V30 15085 N 1464.8 0.627364 1.44575 0
M  V30 15086 C 1466.21 0.292662 1.56894 0
M  V30 15087 C 1466.41 -1.20429 1.61552 0
M  V30 15088 O 1465.47 -1.98819 1.55651 0
M  V30 15089 C 1466.78 0.981267 2.84239 0
M  V30 15090 C 1468.33 0.959053 2.97945 0
M  V30 15091 C 1468.81 1.62805 4.28087 0
M  V30 15092 N 1470.3 1.59446 4.34892 0
M  V30 15093 C 1471.03 2.08107 5.34302 0
M  V30 15094 N 1470.53 2.64942 6.40139 0
M  V30 15095 N 1472.32 1.98758 5.25787 0
M  V30 15096 H 1464.47 1.5991 1.39795 0
M  V30 15097 H 1466.73 0.671019 0.669655 0
M  V30 15098 H 1466.44 2.0361 2.86768 0
M  V30 15099 H 1466.31 0.516703 3.73644 0
M  V30 15100 H 1468.7 -0.0872902 2.94971 0
M  V30 15101 H 1468.78 1.46207 2.09898 0
M  V30 15102 H 1468.43 2.67382 4.31821 0
M  V30 15103 H 1468.36 1.09989 5.14985 0
M  V30 15104 H 1470.85 1.17947 3.59022 0
M  V30 15105 H 1471.16 2.99814 7.12272 0
M  V30 15106 H 1469.51 2.68991 6.40835 0
M  V30 15107 H 1472.7 1.54081 4.42014 0
M  V30 15108 H 1472.87 2.36992 6.03107 0
M  V30 15109 N 1466.28 -1.53251 0.367684 0
M  V30 15110 C 1467.5 -2.0618 -0.224645 0
M  V30 15111 C 1467.93 -1.23927 -1.41505 0
M  V30 15112 O 1467.28 -0.258858 -1.79443 0
M  V30 15113 C 1467.33 -3.55671 -0.594171 0
M  V30 15114 O 1466.44 -3.76132 -1.69112 0
M  V30 15115 H 1465.78 -0.663218 -0.0322099 0
M  V30 15116 H 1468.31 -1.97646 0.528897 0
M  V30 15117 H 1468.32 -3.98734 -0.864589 0
M  V30 15118 H 1466.99 -4.14982 0.276254 0
M  V30 15119 H 1465.57 -3.44965 -1.41609 0
M  V30 15120 N 1467.75 -0.0969077 -1.57302 0
M  V30 15121 C 1468.72 0.846895 -2.1298 0
M  V30 15122 C 1469.72 1.20962 -1.05947 0
M  V30 15123 O 1470.91 1.13876 -1.31826 0
M  V30 15124 C 1468.04 2.14215 -2.65188 0
M  V30 15125 H 1469.23 0.363398 -2.9769 0
M  V30 15126 H 1466.78 0.152107 -1.55558 0
M  V30 15127 H 1467.52 2.67046 -1.84002 0
M  V30 15128 H 1467.3 1.89176 -3.43445 0
M  V30 15129 H 1468.79 2.81728 -3.08252 0
M  V30 15130 N 1469.23 1.56605 0.176793 0
M  V30 15131 C 1470.64 1.71418 0.739775 0
M  V30 15132 C 1470.99 0.706527 1.83037 0
M  V30 15133 O 1470.12 -0.133259 2.15989 0
M  V30 15134 C 1470.71 3.10799 1.34867 0
M  V30 15135 C 1469.27 3.27315 1.85854 0
M  V30 15136 C 1468.42 2.67371 0.73541 0
M  V30 15137 H 1471.37 1.58626 -0.0485305 0
M  V30 15138 H 1471.39 3.09146 2.21831 0
M  V30 15139 H 1470.9 3.84116 0.554688 0
M  V30 15140 H 1469 2.58947 2.67913 0
M  V30 15141 H 1469.12 4.35002 2.00774 0
M  V30 15142 H 1467.48 2.27035 1.15444 0
M  V30 15143 H 1468.26 3.43268 -0.0466351 0
M  V30 15144 N 1470.71 -0.445159 1.51182 0
M  V30 15145 C 1471.64 -1.55788 1.68115 0
M  V30 15146 C 1472.65 -1.52793 0.561964 0
M  V30 15147 O 1473.84 -1.57711 0.836029 0
M  V30 15148 C 1470.94 -2.94702 1.67344 0
M  V30 15149 C 1470.12 -3.22286 2.9572 0
M  V30 15150 C 1469.18 -4.40884 2.87241 0
M  V30 15151 O 1468.2 -4.3992 3.61191 0
M  V30 15152 N 1469.4 -5.44013 2.02558 0
M  V30 15153 H 1472.17 -1.4167 2.64102 0
M  V30 15154 H 1469.73 -0.633984 1.48971 0
M  V30 15155 H 1471.72 -3.7205 1.5925 0
M  V30 15156 H 1470.29 -3.02457 0.789842 0
M  V30 15157 H 1469.51 -2.33309 3.17743 0
M  V30 15158 H 1470.8 -3.3754 3.80715 0
M  V30 15159 H 1470.2 -5.47629 1.4184 0
M  V30 15160 H 1468.75 -6.20245 2.0035 0
M  V30 15161 N 1472.19 -1.41197 -0.700089 0
M  V30 15162 C 1473.12 -1.45456 -1.8266 0
M  V30 15163 C 1474.1 -0.313719 -1.67182 0
M  V30 15164 O 1475.28 -0.524528 -1.86982 0
M  V30 15165 C 1472.41 -1.33161 -3.20758 0
M  V30 15166 C 1471.37 -2.4501 -3.50933 0
M  V30 15167 C 1470.69 -2.17782 -4.88339 0
M  V30 15168 C 1471.99 -3.87352 -3.50365 0
M  V30 15169 H 1473.69 -2.39735 -1.79353 0
M  V30 15170 H 1471.23 -1.1539 -0.861465 0
M  V30 15171 H 1473.19 -1.34754 -3.99274 0
M  V30 15172 H 1471.91 -0.353646 -3.2468 0
M  V30 15173 H 1470.57 -2.42692 -2.74766 0
M  V30 15174 H 1470.22 -1.1834 -4.88881 0
M  V30 15175 H 1469.92 -2.92728 -5.09494 0
M  V30 15176 H 1471.44 -2.21083 -5.6917 0
M  V30 15177 H 1472.86 -3.9141 -4.18893 0
M  V30 15178 H 1471.25 -4.61944 -3.83051 0
M  V30 15179 H 1472.32 -4.15827 -2.4943 0
M  V30 15180 N 1473.67 0.933891 -1.2695 0
M  V30 15181 C 1474.63 2.0152 -1.0919 0
M  V30 15182 C 1475.63 1.60755 -0.037865 0
M  V30 15183 O 1476.82 1.71904 -0.281917 0
M  V30 15184 C 1473.95 3.34403 -0.66239 0
M  V30 15185 H 1475.14 2.18706 -2.05201 0
M  V30 15186 H 1472.7 1.11385 -1.0965 0
M  V30 15187 H 1473.43 3.22915 0.299388 0
M  V30 15188 H 1473.22 3.65345 -1.42356 0
M  V30 15189 H 1474.71 4.13826 -0.560187 0
M  V30 15190 N 1475.14 1.08871 1.13951 0
M  V30 15191 C 1476.09 0.71755 2.21255 0
M  V30 15192 C 1477.09 -0.278901 1.67088 0
M  V30 15193 O 1478.29 -0.140964 1.79447 0
M  V30 15194 H 1474.67 0.214032 0.720898 0
M  V30 15195 H 1476.64 1.63182 2.49828 0
M  V30 15196 C 1475.39 0.148098 3.47384 0
M  V30 15197 H 1474.71 0.906028 3.89398 0
M  V30 15198 H 1476.15 -0.0737451 4.23936 0
M  V30 15199 C 1474.61 -1.11524 3.17906 0
M  V30 15200 O 1475.14 -2.19937 3.3614 0
M  V30 15201 N 1473.34 -1.0275 2.71829 0
M  V30 15202 H 1472.89 -0.145193 2.5719 0
M  V30 15203 H 1472.85 -1.87353 2.5248 0
M  V30 15204 N 1476.62 -1.31073 0.875073 0
M  V30 15205 C 1477.55 -2.30855 0.350468 0
M  V30 15206 C 1478.53 -1.60569 -0.561384 0
M  V30 15207 O 1479.72 -1.88242 -0.477329 0
M  V30 15208 C 1476.85 -3.44444 -0.444493 0
M  V30 15209 C 1475.8 -4.26357 0.374716 0
M  V30 15210 C 1475.13 -5.31903 -0.546243 0
M  V30 15211 C 1476.43 -4.96817 1.61153 0
M  V30 15212 H 1478.12 -2.74983 1.18427 0
M  V30 15213 H 1475.67 -1.32199 0.570909 0
M  V30 15214 H 1477.62 -4.13304 -0.82206 0
M  V30 15215 H 1476.34 -2.99096 -1.31185 0
M  V30 15216 H 1475 -3.59171 0.734295 0
M  V30 15217 H 1474.65 -4.82803 -1.41102 0
M  V30 15218 H 1474.35 -5.876 -0.00198173 0
M  V30 15219 H 1475.88 -6.03621 -0.920542 0
M  V30 15220 H 1477.29 -5.58247 1.30511 0
M  V30 15221 H 1475.69 -5.62334 2.09524 0
M  V30 15222 H 1476.76 -4.2351 2.36151 0
M  V30 15223 N 1478.1 -0.635022 -1.4424 0
M  V30 15224 C 1479.03 0.106038 -2.28955 0
M  V30 15225 C 1480.05 0.805076 -1.415 0
M  V30 15226 O 1481.23 0.665872 -1.65615 0
M  V30 15227 C 1478.33 1.17252 -3.1797 0
M  V30 15228 C 1477.51 0.555225 -4.33862 0
M  V30 15229 C 1476.57 1.51618 -5.03883 0
M  V30 15230 O 1475.59 1.03181 -5.5977 0
M  V30 15231 N 1476.79 2.85048 -5.05696 0
M  V30 15232 H 1479.56 -0.620999 -2.93196 0
M  V30 15233 H 1477.12 -0.476466 -1.5473 0
M  V30 15234 H 1479.11 1.81578 -3.61679 0
M  V30 15235 H 1477.68 1.80174 -2.55453 0
M  V30 15236 H 1476.9 -0.266745 -3.93296 0
M  V30 15237 H 1478.19 0.123529 -5.0865 0
M  V30 15238 H 1477.59 3.26977 -4.6163 0
M  V30 15239 H 1476.15 3.44724 -5.5318 0
M  V30 15240 N 1479.58 1.53054 -0.375806 0
M  V30 15241 C 1480.49 2.29772 0.47349 0
M  V30 15242 C 1481.5 1.36144 1.08355 0
M  V30 15243 O 1482.68 1.69208 1.09228 0
M  V30 15244 C 1479.75 3.07964 1.59245 0
M  V30 15245 C 1478.81 4.17277 1.00888 0
M  V30 15246 C 1478.04 4.91731 2.07451 0
M  V30 15247 O 1478.26 4.66143 3.28736 0
M  V30 15248 O 1477.2 5.77413 1.69936 0
M  V30 15249 H 1481.02 3.03324 -0.151105 0
M  V30 15250 H 1478.61 1.48744 -0.139895 0
M  V30 15251 H 1480.49 3.56759 2.24279 0
M  V30 15252 H 1479.16 2.37239 2.20226 0
M  V30 15253 H 1478.07 3.7271 0.322167 0
M  V30 15254 H 1479.4 4.90198 0.443483 0
M  V30 15255 N 1481.06 0.105248 1.57248 0
M  V30 15256 C 1482.28 -0.567515 1.99484 0
M  V30 15257 C 1482.71 -1.60298 0.984182 0
M  V30 15258 O 1482.06 -1.81242 -0.0459944 0
M  V30 15259 C 1482.11 -1.18271 3.40653 0
M  V30 15260 O 1481.22 -2.29843 3.42412 0
M  V30 15261 H 1480.56 -0.143069 0.648404 0
M  V30 15262 H 1483.09 0.189661 2.03719 0
M  V30 15263 H 1483.1 -1.52157 3.78566 0
M  V30 15264 H 1481.77 -0.424179 4.13731 0
M  V30 15265 H 1480.35 -1.975 3.16304 0
M  V30 15266 N 1482.53 -1.56697 -0.168486 0
M  V30 15267 C 1483.78 -1.82154 -0.884654 0
M  V30 15268 C 1484.11 -0.682778 -1.82122 0
M  V30 15269 O 1483.36 0.32977 -1.92902 0
M  V30 15270 C 1483.66 -3.138 -1.71068 0
M  V30 15271 C 1483.33 -4.41356 -0.922793 0
M  V30 15272 C 1481.99 -4.76002 -0.705352 0
M  V30 15273 C 1484.34 -5.19883 -0.370323 0
M  V30 15274 C 1481.67 -5.86651 0.0756121 0
M  V30 15275 C 1484.02 -6.31349 0.397568 0
M  V30 15276 C 1482.69 -6.6456 0.625782 0
M  V30 15277 H 1481.96 -0.666549 -0.323718 0
M  V30 15278 H 1484.6 -1.90916 -0.149432 0
M  V30 15279 H 1482.91 -3.00393 -2.51538 0
M  V30 15280 H 1484.61 -3.30708 -2.2679 0
M  V30 15281 H 1481.2 -4.14182 -1.10231 0
M  V30 15282 H 1485.38 -4.93509 -0.525646 0
M  V30 15283 H 1480.64 -6.10838 0.262137 0
M  V30 15284 H 1484.81 -6.91401 0.832902 0
M  V30 15285 H 1482.44 -7.50137 1.23281 0
M  V30 15286 N 1484.01 0.437135 -1.51416 0
M  V30 15287 C 1485.26 1.1835 -1.63328 0
M  V30 15288 C 1485.57 1.92343 -0.355455 0
M  V30 15289 O 1486.78 2.69183 -0.353951 0
M  V30 15290 C 1485.24 2.15235 -2.88447 0
M  V30 15291 C 1484.84 1.46889 -4.23235 0
M  V30 15292 C 1486.59 2.90303 -3.09716 0
M  V30 15293 C 1484.5 2.42259 -5.39504 0
M  V30 15294 H 1483.43 0.445467 -0.608338 0
M  V30 15295 H 1486.08 0.450528 -1.77883 0
M  V30 15296 H 1484.46 2.91968 -2.67527 0
M  V30 15297 H 1485.63 0.757128 -4.54537 0
M  V30 15298 H 1483.95 0.839725 -4.07845 0
M  V30 15299 H 1486.54 3.61747 -3.93756 0
M  V30 15300 H 1486.89 3.5166 -2.22802 0
M  V30 15301 H 1487.42 2.20677 -3.30978 0
M  V30 15302 H 1484.16 1.85591 -6.28678 0
M  V30 15303 H 1483.68 3.11488 -5.12577 0
M  V30 15304 H 1485.36 3.03384 -5.7146 0
M  V30 15305 N 1485.49 1.41566 0.692592 0
M  V30 15306 C 1486.72 1.44646 1.48635 0
M  V30 15307 C 1487.14 0.0541597 1.88022 0
M  V30 15308 O 1486.5 -0.943305 1.54827 0
M  V30 15309 C 1486.55 2.3636 2.72335 0
M  V30 15310 O 1485.65 1.8227 3.69934 0
M  V30 15311 H 1484.99 0.490791 0.447236 0
M  V30 15312 H 1487.52 1.8606 0.851056 0
M  V30 15313 H 1487.53 2.52337 3.20609 0
M  V30 15314 H 1486.21 3.37523 2.43004 0
M  V30 15315 H 1484.78 1.75759 3.28882 0
M  V30 15316 N 1486.97 -0.927146 1.27443 0
M  V30 15317 C 1487.92 -2.01402 1.06871 0
M  V30 15318 C 1488.9 -1.609 -0.00345395 0
M  V30 15319 O 1490.09 -1.75688 0.215147 0
M  V30 15320 C 1487.22 -3.35697 0.718508 0
M  V30 15321 C 1486.31 -3.82641 1.82884 0
M  V30 15322 N 1486.7 -4.02091 3.06849 0
M  V30 15323 C 1485 -4.11682 1.71564 0
M  V30 15324 C 1485.7 -4.41195 3.79107 0
M  V30 15325 N 1484.68 -4.48697 3.06874 0
M  V30 15326 H 1488.48 -2.14471 2.00946 0
M  V30 15327 H 1485.99 -1.11402 1.18166 0
M  V30 15328 H 1487.99 -4.13226 0.552238 0
M  V30 15329 H 1486.65 -3.2399 -0.214622 0
M  V30 15330 H 1487.66 -3.88384 3.42605 0
M  V30 15331 H 1484.34 -4.08685 0.853381 0
M  V30 15332 H 1485.73 -4.64318 4.85653 0
M  V30 15333 N 1488.45 -1.09474 -1.13372 0
M  V30 15334 C 1489.7 -0.825968 -1.84013 0
M  V30 15335 C 1490.01 0.650623 -1.84462 0
M  V30 15336 O 1491.21 1.03495 -2.51 0
M  V30 15337 C 1489.67 -1.42769 -3.30371 0
M  V30 15338 C 1489.28 -2.93686 -3.38308 0
M  V30 15339 C 1491.02 -1.23788 -4.0605 0
M  V30 15340 C 1488.93 -3.46942 -4.78942 0
M  V30 15341 H 1487.86 -0.305322 -0.689416 0
M  V30 15342 H 1490.51 -1.31751 -1.27726 0
M  V30 15343 H 1488.89 -0.86384 -3.86463 0
M  V30 15344 H 1490.07 -3.56302 -2.92208 0
M  V30 15345 H 1488.38 -3.11706 -2.76094 0
M  V30 15346 H 1490.98 -1.61031 -5.09876 0
M  V30 15347 H 1491.32 -0.178578 -4.15917 0
M  V30 15348 H 1491.85 -1.76927 -3.56289 0
M  V30 15349 H 1488.59 -4.52495 -4.74267 0
M  V30 15350 H 1488.11 -2.8909 -5.25535 0
M  V30 15351 H 1489.79 -3.44176 -5.47861 0
M  V30 15352 N 1489.92 1.30607 -0.882012 0
M  V30 15353 C 1491.17 1.96547 -0.499703 0
M  V30 15354 C 1491.5 1.69484 0.948098 0
M  V30 15355 O 1490.78 0.997929 1.66948 0
M  V30 15356 C 1491.06 3.51735 -0.771662 0
M  V30 15357 C 1490.91 3.88326 -2.26987 0
M  V30 15358 C 1492.23 4.39411 -0.246178 0
M  V30 15359 H 1489.35 0.713912 -0.183026 0
M  V30 15360 H 1491.99 1.5453 -1.10546 0
M  V30 15361 H 1490.14 3.87655 -0.256092 0
M  V30 15362 H 1491.82 3.62444 -2.85362 0
M  V30 15363 H 1490.06 3.36501 -2.7377 0
M  V30 15364 H 1490.73 4.96574 -2.41078 0
M  V30 15365 H 1493.21 4.10382 -0.687419 0
M  V30 15366 H 1492.08 5.4692 -0.465817 0
M  V30 15367 H 1492.34 4.33804 0.852452 0
M  V30 15368 N 1491.4 0.642663 1.43901 0
M  V30 15369 C 1492.65 0.151478 2.01532 0
M  V30 15370 C 1492.97 -1.23519 1.50891 0
M  V30 15371 O 1492.24 -1.82299 0.717197 0
M  V30 15372 H 1490.82 0.0530091 0.745117 0
M  V30 15373 H 1493.48 0.831958 1.76251 0
M  V30 15374 H 1492.58 0.127995 3.11837 0
M  V30 15375 N 1492.88 -1.52852 0.383918 0
M  V30 15376 C 1494.29 -1.86477 -0.0912997 0
M  V30 15377 C 1494.64 -1.30382 -1.46611 0
M  V30 15378 O 1493.77 -0.633042 -2.06934 0
M  V30 15379 C 1494.36 -3.38361 -0.172447 0
M  V30 15380 C 1492.92 -3.71716 -0.591948 0
M  V30 15381 C 1492.07 -2.76176 0.24945 0
M  V30 15382 H 1495.02 -1.46839 0.602006 0
M  V30 15383 H 1495.04 -3.67325 -0.992603 0
M  V30 15384 H 1494.55 -3.79158 0.8283 0
M  V30 15385 H 1492.65 -3.36486 -1.60026 0
M  V30 15386 H 1492.77 -4.77792 -0.353835 0
M  V30 15387 H 1491.13 -2.53106 -0.284469 0
M  V30 15388 H 1491.91 -3.19809 1.24808 0
M  V30 15389 N 1494.36 -0.113586 -1.5719 0
M  V30 15390 C 1495.29 0.835363 -2.18046 0
M  V30 15391 C 1496.27 1.28114 -1.11897 0
M  V30 15392 O 1497.46 1.34472 -1.40111 0
M  V30 15393 C 1494.59 2.08759 -2.77556 0
M  V30 15394 C 1493.54 1.77979 -3.8924 0
M  V30 15395 C 1492.87 3.10185 -4.35533 0
M  V30 15396 C 1494.17 1.05231 -5.11589 0
M  V30 15397 H 1495.86 0.328275 -2.97595 0
M  V30 15398 H 1493.41 0.156456 -1.43148 0
M  V30 15399 H 1495.36 2.75597 -3.18785 0
M  V30 15400 H 1494.08 2.61783 -1.95288 0
M  V30 15401 H 1492.74 1.13532 -3.48577 0
M  V30 15402 H 1492.39 3.61133 -3.50131 0
M  V30 15403 H 1492.09 2.90367 -5.10843 0
M  V30 15404 H 1493.61 3.78151 -4.7941 0
M  V30 15405 H 1495.03 1.62213 -5.49872 0
M  V30 15406 H 1493.42 0.955269 -5.92448 0
M  V30 15407 H 1494.49 0.038137 -4.84885 0
M  V30 15408 N 1495.84 1.56784 0.160173 0
M  V30 15409 C 1497.08 1.84422 0.881348 0
M  V30 15410 C 1497.44 0.696069 1.78938 0
M  V30 15411 O 1498.64 0.853174 2.54901 0
M  V30 15412 C 1496.91 3.17208 1.64662 0
M  V30 15413 S 1498.47 3.66363 2.41503 0
M  V30 15414 H 1495.29 0.646923 0.294978 0
M  V30 15415 H 1497.89 1.94982 0.142215 0
M  V30 15416 H 1496.6 3.98753 0.970782 0
M  V30 15417 H 1496.13 3.0962 2.42692 0
M  V30 15418 H 1498.14 3.34577 3.66432 0
M  V30 15419 N 1497.32 -0.429099 1.51646 0
M  V30 15420 C 1498.26 -1.54202 1.74139 0
M  V30 15421 C 1499.26 -1.58117 0.607905 0
M  V30 15422 O 1500.46 -1.61763 0.789486 0
M  V30 15423 H 1496.84 -0.512456 0.550357 0
M  V30 15424 H 1498.81 -1.32408 2.67415 0
M  V30 15425 C 1497.56 -2.91779 1.89104 0
M  V30 15426 H 1496.88 -2.89502 2.75733 0
M  V30 15427 H 1498.32 -3.68995 2.08851 0
M  V30 15428 C 1496.78 -3.30512 0.652945 0
M  V30 15429 O 1497.31 -4.01257 -0.188553 0
M  V30 15430 N 1495.52 -2.86359 0.494634 0
M  V30 15431 H 1495.06 -2.28959 1.18049 0
M  V30 15432 H 1495.02 -3.12637 -0.332503 0
M  V30 15433 N 1498.79 -1.41931 -0.685074 0
M  V30 15434 C 1500.02 -1.45432 -1.47866 0
M  V30 15435 C 1500.44 -0.0641302 -1.87991 0
M  V30 15436 O 1499.8 0.935081 -1.55325 0
M  V30 15437 C 1499.85 -2.37801 -2.71077 0
M  V30 15438 O 1498.95 -1.84229 -3.68963 0
M  V30 15439 H 1498.29 -0.493156 -0.444627 0
M  V30 15440 H 1500.82 -1.86508 -0.841177 0
M  V30 15441 H 1500.83 -2.54033 -3.19266 0
M  V30 15442 H 1499.51 -3.38807 -2.41211 0
M  V30 15443 H 1498.09 -1.775 -3.27945 0
M  V30 15444 N 1500.27 0.920374 -1.27933 0
M  V30 15445 C 1501.5 1.70028 -1.17363 0
M  V30 15446 C 1501.91 1.87246 0.271214 0
M  V30 15447 O 1501.25 1.39449 1.19581 0
M  V30 15448 C 1501.31 3.11595 -1.79301 0
M  V30 15449 C 1500.98 3.17687 -3.28518 0
M  V30 15450 C 1501.98 2.99383 -4.25048 0
M  V30 15451 C 1499.66 3.40412 -3.69357 0
M  V30 15452 C 1501.65 3.03704 -5.60395 0
M  V30 15453 C 1499.34 3.44367 -5.04832 0
M  V30 15454 C 1500.34 3.26032 -6.0016 0
M  V30 15455 O 1500.03 3.29735 -7.33164 0
M  V30 15456 H 1499.76 0.538497 -0.408652 0
M  V30 15457 H 1502.31 1.16086 -1.6945 0
M  V30 15458 H 1500.54 3.6705 -1.217 0
M  V30 15459 H 1502.23 3.71584 -1.63341 0
M  V30 15460 H 1503 2.8166 -3.94833 0
M  V30 15461 H 1498.88 3.53731 -2.95627 0
M  V30 15462 H 1502.42 2.89312 -6.34779 0
M  V30 15463 H 1498.32 3.61616 -5.347 0
M  V30 15464 H 1499.09 3.46141 -7.41707 0
M  V30 15465 N 1501.75 1.10074 1.1279 0
M  V30 15466 C 1503.03 0.753069 1.80522 0
M  V30 15467 C 1503.41 -0.760982 1.96907 0
M  V30 15468 O 1502.75 -1.68584 1.54245 0
M  V30 15469 C 1502.96 1.49982 3.15129 0
M  V30 15470 C 1504.31 1.66993 3.90382 0
M  V30 15471 O 1505.34 1.46289 3.24774 0
M  V30 15472 O 1504.2 2.01293 5.08078 0
M  V30 15473 H 1501.29 0.271277 0.781241 0
M  V30 15474 H 1503.84 1.20333 1.19658 0
M  V30 15475 H 1502.61 2.53043 2.98471 0
M  V30 15476 H 1502.23 1.04217 3.83699 0
M  V30 15477 N 1503.23 -1.30138 0.888926 0
M  V30 15478 C 1504.45 -2.00679 0.523697 0
M  V30 15479 C 1504.88 -1.66167 -0.881479 0
M  V30 15480 O 1504.24 -0.880418 -1.58488 0
M  V30 15481 C 1504.28 -3.53535 0.710284 0
M  V30 15482 O 1503.39 -4.11689 -0.242066 0
M  V30 15483 H 1502.73 -0.631273 0.205888 0
M  V30 15484 H 1505.26 -1.65891 1.19756 0
M  V30 15485 H 1505.27 -4.03402 0.610794 0
M  V30 15486 H 1503.94 -3.77992 1.73478 0
M  V30 15487 H 1502.52 -3.72777 -0.0959393 0
M  V30 15488 N 1504.71 -0.650285 -1.43559 0
M  V30 15489 C 1505.67 0.0336325 -2.29175 0
M  V30 15490 C 1506.67 0.753465 -1.42055 0
M  V30 15491 O 1507.86 0.595158 -1.63718 0
M  V30 15492 C 1504.99 1.05835 -3.24055 0
M  V30 15493 H 1506.18 -0.719643 -2.91138 0
M  V30 15494 H 1503.74 -0.411363 -1.5079 0
M  V30 15495 H 1504.47 1.84096 -2.66982 0
M  V30 15496 H 1504.26 0.545884 -3.88281 0
M  V30 15497 H 1505.75 1.53606 -3.88323 0
M  V30 15498 N 1506.18 1.52647 -0.392018 0
M  V30 15499 C 1507.43 2.01215 0.188926 0
M  V30 15500 C 1507.75 1.28019 1.47092 0
M  V30 15501 O 1507.02 0.401048 1.91751 0
M  V30 15502 H 1505.6 0.743444 0.0728049 0
M  V30 15503 H 1508.26 1.87715 -0.524332 0
M  V30 15504 H 1507.36 3.09562 0.397216 0
M  V30 15505 N 1507.66 0.121921 1.57128 0
M  V30 15506 C 1508.59 -0.823788 2.18486 0
M  V30 15507 C 1509.57 -1.27519 1.12574 0
M  V30 15508 O 1510.76 -1.33727 1.40822 0
M  V30 15509 C 1507.89 -2.07284 2.78659 0
M  V30 15510 C 1506.84 -1.75912 3.90178 0
M  V30 15511 C 1506.17 -3.07871 4.37172 0
M  V30 15512 C 1507.47 -1.02517 5.1214 0
M  V30 15513 H 1509.16 -0.312488 2.97765 0
M  V30 15514 H 1506.71 -0.148862 1.43228 0
M  V30 15515 H 1508.66 -2.73903 3.20242 0
M  V30 15516 H 1507.39 -2.60743 1.96673 0
M  V30 15517 H 1506.04 -1.11681 3.49174 0
M  V30 15518 H 1505.69 -3.59271 3.52041 0
M  V30 15519 H 1505.39 -2.87653 5.12376 0
M  V30 15520 H 1506.92 -3.75604 4.81409 0
M  V30 15521 H 1508.33 -1.59295 5.50725 0
M  V30 15522 H 1506.73 -0.923836 5.92946 0
M  V30 15523 H 1507.8 -0.0124219 4.84898 0
M  V30 15524 N 1509.14 -1.56867 -0.151857 0
M  V30 15525 C 1510.07 -1.93039 -1.21701 0
M  V30 15526 C 1511.05 -0.795607 -1.41806 0
M  V30 15527 O 1512.24 -1.05076 -1.56497 0
M  V30 15528 C 1509.36 -2.19822 -2.57674 0
M  V30 15529 C 1508.41 -3.42474 -2.54192 0
M  V30 15530 S 1509.24 -4.96199 -2.01363 0
M  V30 15531 C 1510.4 -5.26098 -3.39075 0
M  V30 15532 H 1510.63 -2.83083 -0.90837 0
M  V30 15533 H 1508.16 -1.5021 -0.357265 0
M  V30 15534 H 1510.12 -2.35932 -3.35926 0
M  V30 15535 H 1508.78 -1.30451 -2.8573 0
M  V30 15536 H 1507.98 -3.58476 -3.54276 0
M  V30 15537 H 1507.58 -3.25581 -1.84047 0
M  V30 15538 H 1509.87 -5.19268 -4.35163 0
M  V30 15539 H 1510.81 -6.27588 -3.27931 0
M  V30 15540 H 1511.22 -4.53623 -3.35986 0
M  V30 15541 N 1510.62 0.421051 -1.51871 0
M  V30 15542 C 1512.03 1.00033 -1.5764 0
M  V30 15543 C 1512.38 1.91875 -0.409665 0
M  V30 15544 O 1511.51 2.11201 0.471516 0
M  V30 15545 C 1512.1 1.82099 -2.85701 0
M  V30 15546 C 1510.66 2.35049 -2.93988 0
M  V30 15547 C 1509.81 1.14703 -2.52465 0
M  V30 15548 H 1512.76 0.201715 -1.57413 0
M  V30 15549 H 1512.78 2.67719 -2.70382 0
M  V30 15550 H 1512.29 1.15229 -3.706 0
M  V30 15551 H 1510.39 3.05327 -2.13556 0
M  V30 15552 H 1510.5 2.66731 -3.97984 0
M  V30 15553 H 1508.87 1.49736 -2.06037 0
M  V30 15554 H 1509.65 0.494171 -3.39725 0
M  V30 15555 N 1512.1 1.42293 0.677538 0
M  V30 15556 C 1513.34 1.42334 1.43476 0
M  V30 15557 C 1513.67 0.0397842 1.94959 0
M  V30 15558 O 1512.94 -0.921258 1.72886 0
M  V30 15559 H 1511.52 0.523969 0.532415 0
M  V30 15560 H 1514.18 1.7769 0.800758 0
M  V30 15561 H 1513.27 2.12146 2.28912 0
M  V30 15562 N 1513.57 -0.913576 1.28419 0
M  V30 15563 C 1514.52 -2.01603 1.12361 0
M  V30 15564 C 1515.49 -1.66087 0.0206953 0
M  V30 15565 O 1516.68 -1.89895 0.185659 0
M  V30 15566 C 1513.82 -3.35897 0.791655 0
M  V30 15567 C 1512.93 -3.84281 1.97363 0
M  V30 15568 C 1512.06 -5.07087 1.58228 0
M  V30 15569 C 1511.1 -5.47804 2.73089 0
M  V30 15570 N 1510.24 -6.618 2.34446 0
M  V30 15571 H 1515.08 -2.1467 2.0669 0
M  V30 15572 H 1512.62 -1.05147 1.02871 0
M  V30 15573 H 1514.58 -4.13149 0.579943 0
M  V30 15574 H 1513.21 -3.22596 -0.114699 0
M  V30 15575 H 1512.26 -3.03184 2.29746 0
M  V30 15576 H 1513.57 -4.10417 2.83477 0
M  V30 15577 H 1512.72 -5.91883 1.33264 0
M  V30 15578 H 1511.46 -4.82759 0.692429 0
M  V30 15579 H 1510.47 -4.61549 2.98751 0
M  V30 15580 H 1511.69 -5.74119 3.62717 0
M  V30 15581 H 1509.64 -6.39103 1.4793 0
M  V30 15582 H 1509.56 -6.87663 3.14096 0
M  V30 15583 H 1510.82 -7.49901 2.12766 0
M  V30 15584 N 1515.05 -1.1067 -1.12204 0
M  V30 15585 C 1516.3 -0.861787 -1.84241 0
M  V30 15586 C 1516.65 0.60611 -1.82604 0
M  V30 15587 O 1515.95 1.44133 -1.26239 0
M  V30 15588 C 1516.14 -1.34727 -3.31034 0
M  V30 15589 C 1515.97 -2.86083 -3.46968 0
M  V30 15590 C 1514.74 -3.54113 -3.6046 0
M  V30 15591 C 1516.94 -3.84175 -3.41927 0
M  V30 15592 N 1514.92 -4.93767 -3.64784 0
M  V30 15593 C 1516.29 -5.09853 -3.52775 0
M  V30 15594 C 1518.35 -3.76847 -3.25408 0
M  V30 15595 C 1517.05 -6.29067 -3.48808 0
M  V30 15596 C 1519.07 -4.95564 -3.22755 0
M  V30 15597 C 1518.44 -6.20091 -3.34166 0
M  V30 15598 H 1514.54 -0.368386 -0.689794 0
M  V30 15599 H 1517.12 -1.40954 -1.34314 0
M  V30 15600 H 1515.29 -0.826806 -3.79498 0
M  V30 15601 H 1517.02 -1.04633 -3.9094 0
M  V30 15602 H 1513.78 -3.04564 -3.62682 0
M  V30 15603 H 1514.2 -5.66552 -3.70604 0
M  V30 15604 H 1518.84 -2.81485 -3.15478 0
M  V30 15605 H 1516.56 -7.24716 -3.57509 0
M  V30 15606 H 1520.15 -4.91606 -3.11151 0
M  V30 15607 H 1519.03 -7.10412 -3.32091 0
M  V30 15608 N 1516.53 1.29665 -0.895815 0
M  V30 15609 C 1517.78 1.96006 -0.520522 0
M  V30 15610 C 1518.11 1.7048 0.930068 0
M  V30 15611 O 1517.38 1.01558 1.6588 0
M  V30 15612 C 1517.67 3.50897 -0.808925 0
M  V30 15613 C 1517.52 3.85896 -2.31093 0
M  V30 15614 C 1518.84 4.39125 -0.292769 0
M  V30 15615 H 1515.96 0.711931 -0.190588 0
M  V30 15616 H 1518.6 1.53349 -1.12179 0
M  V30 15617 H 1516.75 3.87362 -0.297194 0
M  V30 15618 H 1518.42 3.59397 -2.89191 0
M  V30 15619 H 1516.67 3.33578 -2.77323 0
M  V30 15620 H 1517.34 4.93989 -2.46331 0
M  V30 15621 H 1519.81 4.0963 -0.730906 0
M  V30 15622 H 1518.69 5.46395 -0.523799 0
M  V30 15623 H 1518.95 4.34683 0.806393 0
M  V30 15624 N 1518.01 0.657889 1.43212 0
M  V30 15625 C 1518.92 -0.0313677 2.34579 0
M  V30 15626 C 1519.93 -0.807153 1.54146 0
M  V30 15627 O 1521.11 -0.753335 1.8678 0
M  V30 15628 C 1518.18 -0.982659 3.32483 0
M  V30 15629 C 1517.24 -0.203288 4.28818 0
M  V30 15630 C 1516.47 -1.10927 5.22045 0
M  V30 15631 O 1516.69 -2.34861 5.19804 0
M  V30 15632 O 1515.63 -0.57916 5.99107 0
M  V30 15633 H 1519.45 0.720808 2.95022 0
M  V30 15634 H 1517.04 0.418083 1.43431 0
M  V30 15635 H 1518.92 -1.52923 3.92673 0
M  V30 15636 H 1517.59 -1.71498 2.74536 0
M  V30 15637 H 1516.5 0.386982 3.72093 0
M  V30 15638 H 1517.83 0.489562 4.89759 0
M  V30 15639 N 1519.49 -1.52437 0.400108 0
M  V30 15640 C 1520.76 -1.94162 -0.23671 0
M  V30 15641 C 1521.14 -1.33636 -1.63416 0
M  V30 15642 O 1520.49 -0.508643 -2.22767 0
M  V30 15643 C 1520.7 -3.48088 -0.252159 0
M  V30 15644 C 1522.05 -4.21925 -0.475887 0
M  V30 15645 O 1523.07 -3.5465 -0.331905 0
M  V30 15646 O 1521.93 -5.41205 -0.758895 0
M  V30 15647 H 1519.03 -0.813294 -0.14994 0
M  V30 15648 H 1521.57 -1.63475 0.455399 0
M  V30 15649 H 1520.34 -3.84501 0.726263 0
M  V30 15650 H 1519.97 -3.8511 -0.988742 0
M  V30 15651 N 1520.96 -0.130252 -1.57061 0
M  V30 15652 C 1522.19 0.535707 -2.00362 0
M  V30 15653 C 1522.61 1.58712 -1.00956 0
M  V30 15654 O 1521.97 1.81292 0.0171546 0
M  V30 15655 C 1522.02 1.12836 -3.42491 0
M  V30 15656 O 1521.12 2.24367 -3.46025 0
M  V30 15657 H 1520.47 0.132735 -0.650598 0
M  V30 15658 H 1523 -0.222047 -2.03392 0
M  V30 15659 H 1523.01 1.46115 -3.80939 0
M  V30 15660 H 1521.68 0.358304 -4.14354 0
M  V30 15661 H 1520.26 1.92443 -3.19406 0
M  V30 15662 N 1522.44 1.56945 0.143535 0
M  V30 15663 C 1523.72 1.74461 0.884454 0
M  V30 15664 C 1524.1 0.699201 1.99184 0
M  V30 15665 O 1523.45 -0.281267 2.26762 0
M  V30 15666 C 1523.66 3.18639 1.42373 0
M  V30 15667 C 1525.01 3.80426 1.88577 0
M  V30 15668 O 1526.03 3.2209 1.52107 0
M  V30 15669 O 1524.89 4.82913 2.55847 0
M  V30 15670 H 1521.98 0.713457 0.41822 0
M  V30 15671 H 1524.53 1.69208 0.12919 0
M  V30 15672 H 1523.3 3.86227 0.628056 0
M  V30 15673 H 1522.92 3.28332 2.2424 0
M  V30 15674 N 1523.92 -0.412991 1.52093 0
M  V30 15675 C 1524.83 -1.52768 1.78042 0
M  V30 15676 C 1525.85 -1.60758 0.665791 0
M  V30 15677 O 1527.02 -1.77545 0.950772 0
M  V30 15678 C 1524.09 -2.8854 1.92213 0
M  V30 15679 C 1523.15 -2.90468 3.16112 0
M  V30 15680 C 1522.38 -4.19763 3.29598 0
M  V30 15681 O 1522.61 -5.13454 2.48438 0
M  V30 15682 O 1521.54 -4.2847 4.22726 0
M  V30 15683 H 1525.37 -1.33777 2.72649 0
M  V30 15684 H 1522.95 -0.598461 1.3689 0
M  V30 15685 H 1524.83 -3.69073 2.03379 0
M  V30 15686 H 1523.51 -3.07607 1.00795 0
M  V30 15687 H 1522.41 -2.08801 3.10408 0
M  V30 15688 H 1523.75 -2.76349 4.07298 0
M  V30 15689 N 1525.4 -1.4265 -0.669982 0
M  V30 15690 C 1526.62 -1.46992 -1.46315 0
M  V30 15691 C 1527.05 -0.0840655 -1.87912 0
M  V30 15692 O 1526.41 0.918554 -1.56308 0
M  V30 15693 C 1526.46 -2.40663 -2.6854 0
M  V30 15694 O 1525.56 -1.88132 -3.66988 0
M  V30 15695 H 1524.9 -0.497844 -0.439372 0
M  V30 15696 H 1527.43 -1.8739 -0.821348 0
M  V30 15697 H 1527.44 -2.57405 -3.16554 0
M  V30 15698 H 1526.12 -3.41346 -2.37604 0
M  V30 15699 H 1524.69 -1.80969 -3.26044 0
M  V30 15700 N 1526.88 0.906753 -1.28902 0
M  V30 15701 C 1528.13 1.6533 -1.16234 0
M  V30 15702 C 1528.45 1.92861 0.288004 0
M  V30 15703 O 1527.72 1.54971 1.19837 0
M  V30 15704 H 1526.3 0.612806 -0.427174 0
M  V30 15705 H 1528.96 1.08764 -1.6173 0
M  V30 15706 H 1528.05 2.61271 -1.70715 0
M  V30 15707 N 1528.36 1.11264 1.11616 0
M  V30 15708 C 1529.63 0.772174 1.79713 0
M  V30 15709 C 1530.01 -0.740055 1.97703 0
M  V30 15710 O 1529.36 -1.66939 1.56024 0
M  V30 15711 C 1529.57 1.53316 3.13521 0
M  V30 15712 C 1530.92 1.71124 3.88589 0
M  V30 15713 O 1531.94 1.49725 3.23204 0
M  V30 15714 O 1530.8 2.0667 5.05915 0
M  V30 15715 H 1527.9 0.279548 0.77832 0
M  V30 15716 H 1530.44 1.21596 1.18375 0
M  V30 15717 H 1529.21 2.56194 2.95771 0
M  V30 15718 H 1528.84 1.08281 3.82572 0
M  V30 15719 N 1529.83 -1.29188 0.902679 0
M  V30 15720 C 1531.06 -1.99576 0.545635 0
M  V30 15721 C 1531.48 -1.67541 -0.870372 0
M  V30 15722 O 1530.83 -0.922082 -1.57493 0
M  V30 15723 C 1530.88 -3.54013 0.731916 0
M  V30 15724 O 1530.61 -3.84914 2.09219 0
M  V30 15725 C 1532.11 -4.41666 0.38022 0
M  V30 15726 H 1529.33 -0.637593 0.209083 0
M  V30 15727 H 1531.87 -1.64652 1.21284 0
M  V30 15728 H 1530.03 -3.87239 0.111849 0
M  V30 15729 H 1530.44 -4.79581 2.12373 0
M  V30 15730 H 1531.91 -5.49138 0.561382 0
M  V30 15731 H 1532.39 -4.33858 -0.682915 0
M  V30 15732 H 1533 -4.13918 0.977354 0
M  V30 15733 N 1531.31 -0.665475 -1.42861 0
M  V30 15734 C 1532.59 -0.113252 -1.95272 0
M  V30 15735 C 1532.97 1.36972 -1.6063 0
M  V30 15736 O 1532.32 2.10129 -0.897662 0
M  V30 15737 C 1532.53 -0.372482 -3.47007 0
M  V30 15738 C 1533.87 -0.283982 -4.23649 0
M  V30 15739 O 1534.9 -0.305714 -3.54886 0
M  V30 15740 O 1533.76 -0.218171 -5.46064 0
M  V30 15741 H 1530.85 0.00253712 -0.826996 0
M  V30 15742 H 1533.4 -0.739561 -1.52737 0
M  V30 15743 H 1532.17 -1.40015 -3.65392 0
M  V30 15744 H 1531.79 0.286294 -3.96568 0
M  V30 15745 N 1532.79 1.52222 -0.408187 0
M  V30 15746 C 1534.07 1.94285 0.22641 0
M  V30 15747 C 1534.45 1.34501 1.62705 0
M  V30 15748 O 1533.79 0.52045 2.22494 0
M  V30 15749 C 1534 3.48217 0.233695 0
M  V30 15750 C 1535.35 4.22171 0.453504 0
M  V30 15751 O 1536.38 3.54821 0.313093 0
M  V30 15752 O 1535.24 5.416 0.730183 0
M  V30 15753 H 1532.33 0.814078 0.145625 0
M  V30 15754 H 1534.88 1.63232 -0.464062 0
M  V30 15755 H 1533.65 3.84111 -0.746644 0
M  V30 15756 H 1533.27 3.85629 0.968305 0
M  V30 15757 N 1534.27 0.138579 1.5699 0
M  V30 15758 C 1535.68 -0.383633 1.82716 0
M  V30 15759 C 1536.03 -1.65304 1.05684 0
M  V30 15760 O 1535.15 -2.14318 0.299488 0
M  V30 15761 C 1535.75 -0.7028 3.3143 0
M  V30 15762 C 1534.31 -1.16957 3.57768 0
M  V30 15763 C 1533.46 -0.188295 2.7666 0
M  V30 15764 H 1536.41 0.363415 1.54483 0
M  V30 15765 H 1536.43 -1.55832 3.47126 0
M  V30 15766 H 1535.94 0.221271 3.87469 0
M  V30 15767 H 1534.04 -2.10987 3.07108 0
M  V30 15768 H 1534.15 -1.10136 4.66269 0
M  V30 15769 H 1532.52 -0.679255 2.45475 0
M  V30 15770 H 1533.3 0.729218 3.35466 0
M  V30 15771 N 1535.75 -1.57019 -0.13521 0
M  V30 15772 C 1536.66 -2.02427 -1.18578 0
M  V30 15773 C 1537.67 -0.941738 -1.46312 0
M  V30 15774 O 1538.85 -1.25208 -1.57749 0
M  V30 15775 C 1535.91 -2.40577 -2.49647 0
M  V30 15776 C 1534.97 -3.62835 -2.29455 0
M  V30 15777 C 1534.21 -3.99156 -3.54274 0
M  V30 15778 O 1534.43 -3.36001 -4.60933 0
M  V30 15779 O 1533.36 -4.92345 -3.46238 0
M  V30 15780 H 1537.19 -2.92131 -0.830237 0
M  V30 15781 H 1534.77 -1.45366 -0.344814 0
M  V30 15782 H 1536.66 -2.65922 -3.269 0
M  V30 15783 H 1535.33 -1.54023 -2.84708 0
M  V30 15784 H 1534.24 -3.42661 -1.50114 0
M  V30 15785 H 1535.57 -4.50043 -1.99305 0
M  V30 15786 N 1537.22 0.404919 -1.52309 0
M  V30 15787 C 1538.13 1.51822 -1.7885 0
M  V30 15788 C 1539.15 1.60403 -0.674307 0
M  V30 15789 O 1540.33 1.77038 -0.960175 0
M  V30 15790 C 1537.39 2.87516 -1.9374 0
M  V30 15791 C 1536.45 2.88787 -3.17648 0
M  V30 15792 C 1535.69 4.18009 -3.31819 0
M  V30 15793 O 1535.91 5.12129 -2.51158 0
M  V30 15794 O 1534.84 4.26222 -4.24992 0
M  V30 15795 H 1538.67 1.32329 -2.73354 0
M  V30 15796 H 1536.25 0.591193 -1.37205 0
M  V30 15797 H 1538.14 3.6799 -2.05333 0
M  V30 15798 H 1536.81 3.07068 -1.02425 0
M  V30 15799 H 1535.72 2.07152 -3.11511 0
M  V30 15800 H 1537.05 2.74185 -4.08758 0
M  V30 15801 N 1538.7 1.43003 0.662408 0
M  V30 15802 C 1539.61 1.49876 1.80484 0
M  V30 15803 C 1540.63 0.386526 1.69653 0
M  V30 15804 O 1541.8 0.639289 1.90984 0
M  V30 15805 C 1538.87 1.41057 3.16708 0
M  V30 15806 C 1537.93 2.62875 3.39404 0
M  V30 15807 C 1537.16 2.54468 4.69129 0
M  V30 15808 O 1537.39 1.58735 5.47868 0
M  V30 15809 O 1536.32 3.44814 4.93343 0
M  V30 15810 H 1540.15 2.46327 1.77641 0
M  V30 15811 H 1537.73 1.24903 0.81973 0
M  V30 15812 H 1539.61 1.38547 3.97973 0
M  V30 15813 H 1538.29 0.477361 3.20161 0
M  V30 15814 H 1537.2 2.70958 2.57939 0
M  V30 15815 H 1538.53 3.55137 3.40791 0
M  V30 15816 N 1540.18 -0.899904 1.29381 0
M  V30 15817 C 1541.09 -2.03699 1.16378 0
M  V30 15818 C 1542.11 -1.73782 0.0870792 0
M  V30 15819 O 1543.28 -1.99167 0.299109 0
M  V30 15820 C 1540.35 -3.36341 0.841166 0
M  V30 15821 C 1539.41 -3.79778 2.00168 0
M  V30 15822 C 1538.64 -5.0609 1.69437 0
M  V30 15823 O 1538.86 -5.67073 0.615212 0
M  V30 15824 O 1537.8 -5.45574 2.54229 0
M  V30 15825 H 1541.62 -2.17592 2.11866 0
M  V30 15826 H 1539.21 -1.02353 1.08831 0
M  V30 15827 H 1541.09 -4.15946 0.675803 0
M  V30 15828 H 1539.77 -3.23591 -0.0839376 0
M  V30 15829 H 1538.67 -3.00941 2.22229 0
M  V30 15830 H 1540.01 -3.97111 2.90798 0
M  V30 15831 N 1541.66 -1.11854 -1.11024 0
M  V30 15832 C 1542.57 -0.79368 -2.20767 0
M  V30 15833 C 1543.58 0.214996 -1.72667 0
M  V30 15834 O 1544.76 0.0500976 -2.01338 0
M  V30 15835 C 1541.83 -0.246375 -3.45823 0
M  V30 15836 C 1540.89 -1.31421 -4.0869 0
M  V30 15837 C 1540.12 -0.792922 -5.27777 0
M  V30 15838 O 1540.34 0.375492 -5.69163 0
M  V30 15839 O 1539.28 -1.55971 -5.8134 0
M  V30 15840 H 1543.1 -1.71011 -2.50976 0
M  V30 15841 H 1540.69 -0.894752 -1.19643 0
M  V30 15842 H 1542.57 0.0542632 -4.21365 0
M  V30 15843 H 1541.24 0.642703 -3.17255 0
M  V30 15844 H 1540.15 -1.66792 -3.3486 0
M  V30 15845 H 1541.48 -2.17683 -4.41446 0
M  V30 15846 N 1543.14 1.28707 -0.909517 0
M  V30 15847 C 1544.05 2.31171 -0.399628 0
M  V30 15848 C 1545.06 1.6634 0.510582 0
M  V30 15849 O 1546.24 1.97432 0.397792 0
M  V30 15850 C 1543.3 3.44869 0.355852 0
M  V30 15851 C 1542.36 4.25267 -0.587065 0
M  V30 15852 C 1541.6 5.33536 0.132456 0
M  V30 15853 O 1541.82 5.54075 1.35486 0
M  V30 15854 O 1540.75 5.99561 -0.530062 0
M  V30 15855 H 1544.58 2.76785 -1.24995 0
M  V30 15856 H 1542.17 1.33323 -0.674186 0
M  V30 15857 H 1544.05 4.14068 0.782692 0
M  V30 15858 H 1542.72 3.01345 1.18207 0
M  V30 15859 H 1541.63 3.58673 -1.06322 0
M  V30 15860 H 1542.96 4.72459 -1.37998 0
M  V30 15861 N 1544.61 0.673042 1.42506 0
M  V30 15862 C 1545.58 0.00283156 2.292 0
M  V30 15863 C 1546.58 -0.73077 1.43235 0
M  V30 15864 O 1547.77 -0.569037 1.64644 0
M  V30 15865 C 1544.9 -1.00666 3.25698 0
M  V30 15866 H 1546.09 0.765869 2.89956 0
M  V30 15867 H 1543.65 0.435301 1.50116 0
M  V30 15868 H 1544.38 -1.79825 2.69877 0
M  V30 15869 H 1544.17 -0.484043 3.89101 0
M  V30 15870 H 1545.66 -1.47409 3.90718 0
M  V30 15871 N 1546.09 -1.52004 0.416254 0
M  V30 15872 C 1547.5 -1.86628 -0.0517247 0
M  V30 15873 C 1547.85 -1.33463 -1.43813 0
M  V30 15874 O 1546.98 -0.676793 -2.05544 0
M  V30 15875 C 1547.57 -3.38651 -0.100637 0
M  V30 15876 C 1546.13 -3.72888 -0.512969 0
M  V30 15877 C 1545.28 -2.75584 0.307975 0
M  V30 15878 H 1548.23 -1.45529 0.633018 0
M  V30 15879 H 1548.25 -3.69348 -0.914465 0
M  V30 15880 H 1547.76 -3.77316 0.908538 0
M  V30 15881 H 1545.87 -3.39804 -1.52852 0
M  V30 15882 H 1545.98 -4.78435 -0.252408 0
M  V30 15883 H 1544.34 -2.53653 -0.230717 0
M  V30 15884 H 1545.13 -3.1709 1.31563 0
M  V30 15885 N 1547.57 -0.146903 -1.56914 0
M  V30 15886 C 1548.53 0.778709 -2.15566 0
M  V30 15887 C 1549.53 1.1753 -1.09742 0
M  V30 15888 O 1550.72 1.09624 -1.35382 0
M  V30 15889 C 1547.86 2.0567 -2.71869 0
M  V30 15890 H 1549.05 0.268506 -2.98696 0
M  V30 15891 H 1546.6 0.10254 -1.55963 0
M  V30 15892 H 1547.34 2.61057 -1.92405 0
M  V30 15893 H 1547.12 1.78154 -3.4929 0
M  V30 15894 H 1548.61 2.71779 -3.17059 0
M  V30 15895 N 1549.05 1.57088 0.126881 0
M  V30 15896 C 1550.46 1.73685 0.684865 0
M  V30 15897 C 1550.81 0.764401 1.80697 0
M  V30 15898 O 1549.94 -0.0644761 2.16304 0
M  V30 15899 C 1550.53 3.14933 1.24911 0
M  V30 15900 C 1549.09 3.33063 1.75346 0
M  V30 15901 C 1548.24 2.69575 0.649976 0
M  V30 15902 H 1551.19 1.58391 -0.0989715 0
M  V30 15903 H 1551.21 3.16047 2.11884 0
M  V30 15904 H 1550.72 3.85686 0.432204 0
M  V30 15905 H 1548.82 2.67339 2.59539 0
M  V30 15906 H 1548.93 4.41169 1.86833 0
M  V30 15907 H 1547.3 2.30592 1.08163 0
M  V30 15908 H 1548.08 3.42946 -0.15582 0
M  V30 15909 N 1550.53 -0.396836 1.52522 0
M  V30 15910 C 1551.47 -1.50474 1.77371 0
M  V30 15911 C 1552.47 -1.56792 0.641307 0
M  V30 15912 O 1553.67 -1.60052 0.823621 0
M  V30 15913 H 1550.05 -0.500667 0.561103 0
M  V30 15914 H 1552.02 -1.26706 2.70163 0
M  V30 15915 C 1550.77 -2.87702 1.95251 0
M  V30 15916 H 1550.09 -2.83588 2.81812 0
M  V30 15917 H 1551.53 -3.64482 2.16631 0
M  V30 15918 C 1549.99 -3.29053 0.722904 0
M  V30 15919 O 1550.52 -4.01567 -0.103398 0
M  V30 15920 N 1548.73 -2.85246 0.555263 0
M  V30 15921 H 1548.27 -2.26403 1.22879 0
M  V30 15922 H 1548.23 -3.13272 -0.266113 0
M  V30 15923 N 1552.01 -1.43353 -0.654814 0
M  V30 15924 C 1552.92 -1.50831 -1.79687 0
M  V30 15925 C 1553.93 -0.395518 -1.69445 0
M  V30 15926 O 1555.11 -0.649408 -1.90643 0
M  V30 15927 C 1552.17 -1.42735 -3.15955 0
M  V30 15928 C 1551.23 -2.64671 -3.38005 0
M  V30 15929 C 1550.47 -2.56952 -4.67773 0
M  V30 15930 O 1550.69 -1.61638 -5.47019 0
M  V30 15931 O 1549.62 -3.47425 -4.91507 0
M  V30 15932 H 1553.45 -2.47266 -1.76333 0
M  V30 15933 H 1551.03 -1.25336 -0.813095 0
M  V30 15934 H 1552.92 -1.40656 -3.97233 0
M  V30 15935 H 1551.59 -0.494334 -3.19903 0
M  V30 15936 H 1550.5 -2.72323 -2.56498 0
M  V30 15937 H 1551.83 -3.5694 -3.38903 0
M  V30 15938 N 1553.48 0.89303 -1.29857 0
M  V30 15939 C 1554.39 2.03079 -1.17457 0
M  V30 15940 C 1555.41 1.73733 -0.0962941 0
M  V30 15941 O 1556.59 1.99005 -0.309667 0
M  V30 15942 C 1553.65 3.3589 -0.858991 0
M  V30 15943 C 1552.71 3.78711 -2.0218 0
M  V30 15944 C 1551.94 5.05184 -1.72118 0
M  V30 15945 O 1552.17 5.66738 -0.645276 0
M  V30 15946 O 1551.1 5.44218 -2.57119 0
M  V30 15947 H 1554.93 2.16465 -2.13017 0
M  V30 15948 H 1552.51 1.01774 -1.09373 0
M  V30 15949 H 1554.39 4.15582 -0.697852 0
M  V30 15950 H 1553.07 3.23631 0.0667756 0
M  V30 15951 H 1551.98 2.99758 -2.23822 0
M  V30 15952 H 1553.31 3.95563 -2.929 0
M  V30 15953 N 1554.96 1.12442 1.10429 0
M  V30 15954 C 1555.87 0.805377 2.20343 0
M  V30 15955 C 1556.89 -0.205836 1.72778 0
M  V30 15956 O 1558.06 -0.0394195 2.01361 0
M  V30 15957 C 1555.13 0.264711 3.45688 0
M  V30 15958 C 1554.19 1.33586 4.07987 0
M  V30 15959 C 1553.42 0.8209 5.27349 0
M  V30 15960 O 1553.65 -0.345303 5.69354 0
M  V30 15961 O 1552.58 1.59052 5.80505 0
M  V30 15962 H 1556.41 1.7234 2.50065 0
M  V30 15963 H 1553.99 0.901084 1.19167 0
M  V30 15964 H 1555.87 -0.0319164 4.21388 0
M  V30 15965 H 1554.55 -0.625869 3.17592 0
M  V30 15966 H 1553.45 1.68566 3.33971 0
M  V30 15967 H 1554.79 2.20021 4.40286 0
M  V30 15968 N 1556.44 -1.28223 0.91633 0
M  V30 15969 C 1557.67 -1.98986 0.566772 0
M  V30 15970 C 1558.08 -1.68455 -0.852553 0
M  V30 15971 O 1557.44 -0.938734 -1.56506 0
M  V30 15972 C 1557.49 -3.53217 0.769423 0
M  V30 15973 O 1557.21 -3.82674 2.1329 0
M  V30 15974 C 1558.71 -4.41238 0.427043 0
M  V30 15975 H 1555.93 -0.63534 0.215834 0
M  V30 15976 H 1558.48 -1.63357 1.23024 0
M  V30 15977 H 1556.63 -3.87098 0.152915 0
M  V30 15978 H 1557.05 -4.77302 2.17448 0
M  V30 15979 H 1558.52 -5.48512 0.619594 0
M  V30 15980 H 1559 -4.34558 -0.63686 0
M  V30 15981 H 1559.6 -4.12858 1.0212 0
M  V30 15982 N 1557.92 -0.68059 -1.42147 0
M  V30 15983 C 1559.16 -0.209222 -2.03326 0
M  V30 15984 C 1559.52 1.16419 -1.52678 0
M  V30 15985 O 1560.72 1.73055 -2.05683 0
M  V30 15986 C 1558.99 -0.248331 -3.56536 0
M  V30 15987 S 1560.55 0.151186 -4.38539 0
M  V30 15988 H 1557.37 -0.0854956 -0.705841 0
M  V30 15989 H 1559.97 -0.895033 -1.73809 0
M  V30 15990 H 1558.68 -1.25016 -3.90895 0
M  V30 15991 H 1558.21 0.457124 -3.90735 0
M  V30 15992 H 1560.22 1.38301 -4.76537 0
M  V30 15993 N 1559.4 1.51781 -0.424309 0
M  V30 15994 C 1560.31 2.31162 0.40015 0
M  V30 15995 C 1561.32 1.39523 1.03969 0
M  V30 15996 O 1562.5 1.72597 1.0379 0
M  V30 15997 C 1559.56 3.12875 1.49366 0
M  V30 15998 C 1558.62 4.20275 0.875616 0
M  V30 15999 C 1557.86 4.98082 1.91702 0
M  V30 16000 O 1558.08 4.76365 3.13739 0
M  V30 16001 O 1557.01 5.82527 1.5148 0
M  V30 16002 H 1560.84 3.0269 -0.247529 0
M  V30 16003 H 1558.42 1.48223 -0.187146 0
M  V30 16004 H 1560.31 3.63714 2.12815 0
M  V30 16005 H 1558.98 2.44125 2.12567 0
M  V30 16006 H 1557.89 3.73546 0.203429 0
M  V30 16007 H 1559.22 4.91361 0.287306 0
M  V30 16008 N 1560.87 0.155222 1.56834 0
M  V30 16009 C 1561.82 -0.798342 2.1847 0
M  V30 16010 C 1562.82 -1.24931 1.14405 0
M  V30 16011 O 1564.02 -1.21684 1.32639 0
M  V30 16012 H 1560.4 -0.275681 0.699646 0
M  V30 16013 H 1562.37 -0.254371 2.97314 0
M  V30 16014 C 1561.12 -2.02407 2.82713 0
M  V30 16015 H 1560.44 -1.68606 3.62508 0
M  V30 16016 H 1561.88 -2.67053 3.29331 0
M  V30 16017 C 1560.34 -2.83737 1.81645 0
M  V30 16018 O 1560.87 -3.80356 1.29198 0
M  V30 16019 N 1559.07 -2.48433 1.50764 0
M  V30 16020 H 1558.62 -1.69925 1.93606 0
M  V30 16021 H 1558.58 -3.03139 0.833899 0
M  V30 16022 N 1562.35 -1.57153 -0.118549 0
M  V30 16023 C 1563.3 -2.01357 -1.1644 0
M  V30 16024 C 1564.29 -0.910574 -1.42846 0
M  V30 16025 O 1565.5 -1.09578 -1.42803 0
M  V30 16026 H 1561.87 -0.641376 -0.392607 0
M  V30 16027 H 1563.85 -2.88425 -0.765087 0
M  V30 16028 C 1562.59 -2.43416 -2.48282 0
M  V30 16029 H 1561.92 -3.27857 -2.288 0
M  V30 16030 H 1563.36 -2.78143 -3.20019 0
M  V30 16031 C 1561.82 -1.29799 -3.10892 0
M  V30 16032 O 1562.35 -0.614207 -3.96977 0
M  V30 16033 N 1560.55 -1.05493 -2.70776 0
M  V30 16034 H 1560.1 -1.61276 -2.00868 0
M  V30 16035 H 1560.06 -0.296678 -3.12997 0
M  V30 16036 N 1563.83 0.388742 -1.5273 0
M  V30 16037 C 1564.74 1.49916 -1.8045 0
M  V30 16038 C 1565.76 1.59679 -0.691282 0
M  V30 16039 O 1566.93 1.7601 -0.978898 0
M  V30 16040 C 1564 2.85445 -1.96779 0
M  V30 16041 C 1563.06 2.85402 -3.20693 0
M  V30 16042 C 1562.29 4.14466 -3.36234 0
M  V30 16043 O 1562.51 5.09436 -2.56576 0
M  V30 16044 O 1561.45 4.2169 -4.29489 0
M  V30 16045 H 1565.27 1.29423 -2.74743 0
M  V30 16046 H 1562.86 0.576607 -1.37825 0
M  V30 16047 H 1564.74 3.65791 -2.09224 0
M  V30 16048 H 1563.42 3.05964 -1.05676 0
M  V30 16049 H 1562.32 2.03836 -3.1369 0
M  V30 16050 H 1563.66 2.69835 -4.11643 0
M  V30 16051 N 1565.31 1.43698 0.647203 0
M  V30 16052 C 1566.53 1.49301 1.43958 0
M  V30 16053 C 1566.96 0.11395 1.87755 0
M  V30 16054 O 1566.32 -0.893571 1.5775 0
M  V30 16055 C 1566.36 2.44905 2.64677 0
M  V30 16056 O 1565.47 1.93947 3.63948 0
M  V30 16057 H 1564.81 0.504771 0.431396 0
M  V30 16058 H 1567.34 1.88673 0.791432 0
M  V30 16059 H 1567.35 2.62409 3.12419 0
M  V30 16060 H 1566.02 3.45083 2.32143 0
M  V30 16061 H 1564.6 1.86133 3.23124 0
M  V30 16062 N 1566.79 -0.886131 1.30328 0
M  V30 16063 C 1568.2 -1.45328 1.17203 0
M  V30 16064 C 1568.55 -1.94874 -0.227719 0
M  V30 16065 O 1567.67 -1.84901 -1.12431 0
M  V30 16066 C 1568.27 -2.64149 2.12157 0
M  V30 16067 C 1566.83 -3.16958 2.03014 0
M  V30 16068 C 1565.97 -1.89651 2.02306 0
M  V30 16069 H 1568.93 -0.696177 1.42615 0
M  V30 16070 H 1568.95 -3.40325 1.70173 0
M  V30 16071 H 1568.46 -2.28058 3.14024 0
M  V30 16072 H 1566.56 -3.57709 1.04285 0
M  V30 16073 H 1566.67 -3.80336 2.91344 0
M  V30 16074 H 1565.04 -2.07933 1.47091 0
M  V30 16075 H 1565.82 -1.5582 3.05901 0
M  V30 16076 N 1568.26 -1.13026 -1.09832 0
M  V30 16077 C 1569.21 -0.803817 -2.1635 0
M  V30 16078 C 1570.18 0.232226 -1.64469 0
M  V30 16079 O 1571.37 0.105403 -1.90509 0
M  V30 16080 C 1568.51 -0.271414 -3.44031 0
M  V30 16081 C 1567.62 -1.36602 -4.09834 0
M  V30 16082 C 1566.75 -0.792393 -5.25257 0
M  V30 16083 C 1565.79 -1.86569 -5.82974 0
M  V30 16084 N 1564.93 -1.31032 -6.89764 0
M  V30 16085 H 1569.77 -1.71624 -2.43617 0
M  V30 16086 H 1567.31 -0.856772 -1.19574 0
M  V30 16087 H 1569.27 0.0553638 -4.17163 0
M  V30 16088 H 1567.9 0.604154 -3.17096 0
M  V30 16089 H 1566.95 -1.80946 -3.34608 0
M  V30 16090 H 1568.26 -2.17737 -4.48767 0
M  V30 16091 H 1567.41 -0.416652 -6.05268 0
M  V30 16092 H 1566.15 0.0500894 -4.87674 0
M  V30 16093 H 1565.16 -2.25054 -5.01628 0
M  V30 16094 H 1566.38 -2.7115 -6.22619 0
M  V30 16095 H 1564.33 -0.489768 -6.54169 0
M  V30 16096 H 1564.25 -2.0582 -7.27444 0
M  V30 16097 H 1565.51 -0.962011 -7.73541 0
M  V30 16098 N 1569.74 1.27735 -0.923117 0
M  V30 16099 C 1570.69 2.26997 -0.417254 0
M  V30 16100 C 1571.66 1.57968 0.513364 0
M  V30 16101 O 1572.84 1.8581 0.433521 0
M  V30 16102 C 1569.98 3.43537 0.328089 0
M  V30 16103 C 1569.1 4.27291 -0.636112 0
M  V30 16104 C 1568.23 5.31044 0.128614 0
M  V30 16105 C 1567.27 6.06466 -0.828592 0
M  V30 16106 N 1566.41 7.02033 -0.0967858 0
M  V30 16107 H 1571.25 2.69643 -1.26872 0
M  V30 16108 H 1568.79 1.32597 -0.6369 0
M  V30 16109 H 1570.74 4.0991 0.776504 0
M  V30 16110 H 1569.37 3.01855 1.14383 0
M  V30 16111 H 1568.43 3.60875 -1.20306 0
M  V30 16112 H 1569.74 4.79679 -1.36784 0
M  V30 16113 H 1568.89 6.03345 0.637159 0
M  V30 16114 H 1567.63 4.79448 0.893341 0
M  V30 16115 H 1566.64 5.33008 -1.34843 0
M  V30 16116 H 1567.86 6.60151 -1.59303 0
M  V30 16117 H 1565.81 6.52774 0.649779 0
M  V30 16118 H 1565.72 7.52087 -0.768171 0
M  V30 16119 H 1566.99 7.78517 0.391257 0
M  V30 16120 N 1571.22 0.688118 1.41784 0
M  V30 16121 C 1572.17 0.018099 2.30793 0
M  V30 16122 C 1573.14 -0.779009 1.46699 0
M  V30 16123 O 1574.32 -0.748556 1.75503 0
M  V30 16124 C 1571.46 -0.91769 3.32675 0
M  V30 16125 C 1570.58 -0.11299 4.31852 0
M  V30 16126 C 1569.71 -1.04574 5.20805 0
M  V30 16127 C 1568.75 -0.233509 6.11654 0
M  V30 16128 N 1567.89 -1.11967 6.93115 0
M  V30 16129 H 1572.73 0.782911 2.87532 0
M  V30 16130 H 1570.26 0.397806 1.41619 0
M  V30 16131 H 1572.22 -1.47421 3.90286 0
M  V30 16132 H 1570.85 -1.64898 2.77504 0
M  V30 16133 H 1569.9 0.560344 3.7625 0
M  V30 16134 H 1571.22 0.517033 4.96113 0
M  V30 16135 H 1570.37 -1.67174 5.83213 0
M  V30 16136 H 1569.11 -1.70963 4.56753 0
M  V30 16137 H 1568.11 0.405614 5.48302 0
M  V30 16138 H 1569.34 0.426479 6.7776 0
M  V30 16139 H 1567.28 -1.76972 6.31678 0
M  V30 16140 H 1567.2 -0.545042 7.54033 0
M  V30 16141 H 1568.47 -1.73272 7.59998 0
M  V30 16142 N 1572.7 -1.51554 0.432352 0
M  V30 16143 C 1573.93 -2.06462 -0.1346 0
M  V30 16144 C 1574.34 -1.30027 -1.36889 0
M  V30 16145 O 1573.7 -0.358447 -1.78945 0
M  V30 16146 C 1573.75 -3.58538 -0.461822 0
M  V30 16147 O 1573.47 -4.32085 0.723471 0
M  V30 16148 C 1574.97 -4.29943 -1.07999 0
M  V30 16149 H 1572.19 -0.670923 -0.0101329 0
M  V30 16150 H 1574.74 -1.9519 0.609999 0
M  V30 16151 H 1572.89 -3.6974 -1.15632 0
M  V30 16152 H 1573.3 -5.22611 0.444757 0
M  V30 16153 H 1574.78 -5.37451 -1.25898 0
M  V30 16154 H 1575.26 -3.87912 -2.05963 0
M  V30 16155 H 1575.86 -4.23171 -0.425022 0
M  V30 16156 N 1574.18 -0.163538 -1.56749 0
M  V30 16157 C 1575.42 0.483404 -1.96646 0
M  V30 16158 C 1575.75 1.63776 -1.04918 0
M  V30 16159 O 1575.01 1.95529 -0.0816828 0
M  V30 16160 C 1575.31 1.0153 -3.42675 0
M  V30 16161 C 1574.97 -0.0223402 -4.50894 0
M  V30 16162 C 1573.63 -0.30754 -4.80216 0
M  V30 16163 C 1575.99 -0.727064 -5.16104 0
M  V30 16164 C 1573.31 -1.30299 -5.72048 0
M  V30 16165 C 1575.67 -1.71144 -6.09009 0
M  V30 16166 C 1574.33 -2.00417 -6.36702 0
M  V30 16167 H 1573.6 0.17689 -0.719577 0
M  V30 16168 H 1576.25 -0.253859 -1.8981 0
M  V30 16169 H 1574.55 1.83023 -3.46425 0
M  V30 16170 H 1576.25 1.52472 -3.70882 0
M  V30 16171 H 1572.84 0.210124 -4.28085 0
M  V30 16172 H 1577.02 -0.519934 -4.93569 0
M  V30 16173 H 1572.28 -1.53604 -5.9179 0
M  V30 16174 H 1576.45 -2.26292 -6.58608 0
M  V30 16175 H 1574.08 -2.77701 -7.07663 0
M  V30 16176 N 1575.65 1.57214 0.110213 0
M  V30 16177 C 1576.6 2.00978 1.13474 0
M  V30 16178 C 1577.57 0.883436 1.40658 0
M  V30 16179 O 1578.76 1.14832 1.52376 0
M  V30 16180 C 1575.9 2.42654 2.45383 0
M  V30 16181 C 1575.01 3.68744 2.2506 0
M  V30 16182 C 1574.14 3.99363 3.50261 0
M  V30 16183 C 1573.18 5.18608 3.25133 0
M  V30 16184 N 1572.32 5.45055 4.42561 0
M  V30 16185 H 1577.16 2.88289 0.754543 0
M  V30 16186 H 1574.7 1.426 0.361064 0
M  V30 16187 H 1576.66 2.64857 3.22345 0
M  V30 16188 H 1575.29 1.58374 2.81278 0
M  V30 16189 H 1574.34 3.54106 1.38972 0
M  V30 16190 H 1575.65 4.55857 2.02475 0
M  V30 16191 H 1574.8 4.22261 4.35638 0
M  V30 16192 H 1573.54 3.10743 3.75886 0
M  V30 16193 H 1572.55 4.95546 2.38148 0
M  V30 16194 H 1573.77 6.08814 3.0087 0
M  V30 16195 H 1571.72 4.59392 4.6829 0
M  V30 16196 H 1571.64 6.26508 4.23111 0
M  V30 16197 H 1572.9 5.72478 5.29046 0
M  V30 16198 N 1577.13 -0.380637 1.52934 0
M  V30 16199 C 1578.55 -0.721287 1.42371 0
M  V30 16200 C 1578.75 -1.93826 0.55078 0
M  V30 16201 O 1577.8 -2.52485 0.02743 0
M  V30 16202 C 1579.12 -0.948564 2.85347 0
M  V30 16203 C 1580.67 -1.04952 2.9488 0
M  V30 16204 C 1581.14 -1.30937 4.38885 0
M  V30 16205 N 1582.63 -1.3774 4.42246 0
M  V30 16206 C 1583.37 -1.59527 5.50762 0
M  V30 16207 N 1582.86 -1.7873 6.69349 0
M  V30 16208 N 1584.66 -1.61774 5.38317 0
M  V30 16209 H 1576.81 0.420032 2.08205 0
M  V30 16210 H 1579.07 0.125776 0.939619 0
M  V30 16211 H 1578.78 -0.126348 3.51473 0
M  V30 16212 H 1578.65 -1.8609 3.28101 0
M  V30 16213 H 1581.04 -1.86229 2.28917 0
M  V30 16214 H 1581.12 -0.114899 2.55542 0
M  V30 16215 H 1580.76 -0.50166 5.05416 0
M  V30 16216 H 1580.69 -2.25696 4.75782 0
M  V30 16217 H 1583.18 -1.24575 3.56777 0
M  V30 16218 H 1583.5 -1.94885 7.47823 0
M  V30 16219 H 1581.84 -1.75938 6.72362 0
M  V30 16220 H 1585.03 -1.4633 4.44641 0
M  V30 16221 H 1585.2 -1.78414 6.22955 0
M  V30 16222 N 1578.61 -1.44039 -0.639573 0
M  V30 16223 C 1580.03 -1.2774 -0.956802 0
M  V30 16224 C 1580.23 -0.207018 -2.00434 0
M  V30 16225 O 1579.28 0.409954 -2.4915 0
M  V30 16226 C 1580.6 -2.64624 -1.42809 0
M  V30 16227 C 1582.14 -2.72266 -1.54402 0
M  V30 16228 C 1582.62 -4.09601 -2.04918 0
M  V30 16229 N 1584.11 -4.11735 -2.122 0
M  V30 16230 C 1584.84 -5.14842 -2.52439 0
M  V30 16231 N 1584.34 -6.28316 -2.91875 0
M  V30 16232 N 1586.13 -5.02196 -2.52499 0
M  V30 16233 H 1578.28 -2.12333 0.0533569 0
M  V30 16234 H 1580.55 -0.947208 -0.0387401 0
M  V30 16235 H 1580.25 -3.43983 -0.732728 0
M  V30 16236 H 1580.13 -2.90944 -2.40066 0
M  V30 16237 H 1582.51 -1.93232 -2.23037 0
M  V30 16238 H 1582.6 -2.49697 -0.555426 0
M  V30 16239 H 1582.24 -4.89108 -1.3688 0
M  V30 16240 H 1582.17 -4.29542 -3.04633 0
M  V30 16241 H 1584.66 -3.29833 -1.84441 0
M  V30 16242 H 1584.97 -7.0281 -3.21368 0
M  V30 16243 H 1583.32 -6.31767 -2.89647 0
M  V30 16244 H 1586.51 -4.12606 -2.21075 0
M  V30 16245 H 1586.68 -5.82677 -2.83535 0
M  V30 16246 N 1580.09 0.879207 -1.30796 0
M  V30 16247 C 1581.04 1.98553 -1.17667 0
M  V30 16248 C 1582.01 1.65974 -0.0647231 0
M  V30 16249 O 1583.19 1.89336 -0.235941 0
M  V30 16250 C 1580.33 3.3368 -0.880434 0
M  V30 16251 C 1579.44 3.78913 -2.07482 0
M  V30 16252 C 1578.58 5.02714 -1.71617 0
M  V30 16253 C 1577.62 5.40371 -2.87517 0
M  V30 16254 N 1576.75 6.55352 -2.5191 0
M  V30 16255 H 1581.59 2.09115 -2.12309 0
M  V30 16256 H 1579.13 1.02382 -1.05623 0
M  V30 16257 H 1581.09 4.11467 -0.689278 0
M  V30 16258 H 1579.72 3.22787 0.0291283 0
M  V30 16259 H 1578.77 2.96987 -2.37704 0
M  V30 16260 H 1580.08 4.02757 -2.94259 0
M  V30 16261 H 1579.24 5.88142 -1.4891 0
M  V30 16262 H 1577.98 4.80754 -0.820181 0
M  V30 16263 H 1576.98 4.53466 -3.10883 0
M  V30 16264 H 1578.21 5.64301 -3.77811 0
M  V30 16265 H 1576.15 6.34956 -1.64823 0
M  V30 16266 H 1576.07 6.79093 -3.32217 0
M  V30 16267 H 1577.34 7.43996 -2.32573 0
M  V30 16268 N 1581.57 1.13606 1.09231 0
M  V30 16269 C 1582.82 0.893694 1.8082 0
M  V30 16270 C 1583.13 -0.581713 1.8675 0
M  V30 16271 O 1584.34 -0.941079 2.54668 0
M  V30 16272 C 1582.79 1.54932 3.24845 0
M  V30 16273 C 1582.4 3.0604 3.27175 0
M  V30 16274 C 1584.14 1.38773 4.01176 0
M  V30 16275 C 1582.05 3.64478 4.65735 0
M  V30 16276 H 1580.98 0.330699 0.677609 0
M  V30 16277 H 1583.63 1.36401 1.22748 0
M  V30 16278 H 1582.01 1.00668 3.82991 0
M  V30 16279 H 1583.19 3.66901 2.78783 0
M  V30 16280 H 1581.5 3.21739 2.64335 0
M  V30 16281 H 1584.1 1.79843 5.03548 0
M  V30 16282 H 1584.44 0.33282 4.14967 0
M  V30 16283 H 1584.98 1.90028 3.49477 0
M  V30 16284 H 1581.71 4.69785 4.57146 0
M  V30 16285 H 1581.23 3.08396 5.14444 0
M  V30 16286 H 1582.91 3.64272 5.3471 0
M  V30 16287 N 1583.05 -1.27244 0.929878 0
M  V30 16288 C 1584.28 -1.98086 0.586993 0
M  V30 16289 C 1584.68 -1.69541 -0.839799 0
M  V30 16290 O 1584.03 -0.953724 -1.57003 0
M  V30 16291 C 1584.09 -3.51893 0.735656 0
M  V30 16292 C 1583.75 -4.04064 2.13497 0
M  V30 16293 C 1584.75 -4.16671 3.10936 0
M  V30 16294 C 1582.43 -4.38358 2.4525 0
M  V30 16295 C 1584.43 -4.62849 4.38235 0
M  V30 16296 C 1582.12 -4.84226 3.72785 0
M  V30 16297 C 1583.11 -4.96431 4.6909 0
M  V30 16298 O 1582.8 -5.41292 5.94355 0
M  V30 16299 H 1582.53 -0.638845 0.221027 0
M  V30 16300 H 1585.09 -1.63006 1.24973 0
M  V30 16301 H 1583.32 -3.86697 0.0158117 0
M  V30 16302 H 1585.01 -4.03949 0.397505 0
M  V30 16303 H 1585.77 -3.90434 2.87726 0
M  V30 16304 H 1581.65 -4.28099 1.71032 0
M  V30 16305 H 1585.2 -4.7229 5.13408 0
M  V30 16306 H 1581.09 -5.09905 3.95812 0
M  V30 16307 H 1581.86 -5.59541 5.97375 0
M  V30 16308 N 1584.52 -0.695628 -1.41417 0
M  V30 16309 C 1585.76 -0.230776 -2.03093 0
M  V30 16310 C 1586.13 1.14793 -1.53904 0
M  V30 16311 O 1587.33 1.70864 -2.07507 0
M  V30 16312 C 1585.6 -0.286132 -3.56253 0
M  V30 16313 S 1587.16 0.104665 -4.38675 0
M  V30 16314 H 1583.98 -0.0929772 -0.704894 0
M  V30 16315 H 1586.58 -0.913417 -1.72849 0
M  V30 16316 H 1585.28 -1.29155 -3.89547 0
M  V30 16317 H 1584.81 0.415655 -3.91198 0
M  V30 16318 H 1586.83 1.33239 -4.77977 0
M  V30 16319 N 1586 1.51322 -0.440383 0
M  V30 16320 C 1586.93 2.25587 0.40537 0
M  V30 16321 C 1587.95 1.29721 0.983686 0
M  V30 16322 O 1589.14 1.55453 0.877308 0
M  V30 16323 C 1586.24 2.99848 1.57938 0
M  V30 16324 C 1585.41 4.22834 1.11939 0
M  V30 16325 C 1584.47 4.79649 2.16387 0
M  V30 16326 O 1583.49 5.41405 1.75697 0
M  V30 16327 N 1584.7 4.63948 3.48902 0
M  V30 16328 H 1587.46 2.98807 -0.231143 0
M  V30 16329 H 1585.02 1.59642 -0.26944 0
M  V30 16330 H 1587.01 3.34743 2.2744 0
M  V30 16331 H 1585.58 2.29619 2.12117 0
M  V30 16332 H 1584.8 3.93398 0.251323 0
M  V30 16333 H 1586.09 5.02637 0.7895 0
M  V30 16334 H 1585.49 4.14764 3.84691 0
M  V30 16335 H 1584.05 5.03196 4.14291 0
M  V30 16336 N 1587.48 0.171848 1.5666 0
M  V30 16337 C 1588.73 -0.473061 1.96074 0
M  V30 16338 C 1589.04 -1.64353 1.06054 0
M  V30 16339 O 1590.25 -2.35471 1.35151 0
M  V30 16340 C 1588.7 -0.892995 3.48645 0
M  V30 16341 C 1588.31 0.251902 4.47291 0
M  V30 16342 C 1590.06 -1.50629 3.96877 0
M  V30 16343 C 1587.96 -0.187691 5.91102 0
M  V30 16344 H 1586.89 -0.180503 0.732075 0
M  V30 16345 H 1589.54 0.260164 1.81646 0
M  V30 16346 H 1587.93 -1.68221 3.58494 0
M  V30 16347 H 1589.1 1.02923 4.49159 0
M  V30 16348 H 1587.41 0.775193 4.09121 0
M  V30 16349 H 1590.01 -1.84724 5.01778 0
M  V30 16350 H 1590.35 -2.4044 3.39844 0
M  V30 16351 H 1590.89 -0.781502 3.90048 0
M  V30 16352 H 1587.63 0.675653 6.52009 0
M  V30 16353 H 1587.15 -0.93037 5.9254 0
M  V30 16354 H 1588.83 -0.631385 6.43912 0
M  V30 16355 N 1588.96 -1.5727 -0.101874 0
M  V30 16356 C 1590.19 -1.89943 -0.820329 0
M  V30 16357 C 1590.6 -0.764867 -1.72613 0
M  V30 16358 O 1589.96 0.263499 -1.80588 0
M  V30 16359 C 1590.01 -3.2219 -1.63939 0
M  V30 16360 O 1589.73 -4.31279 -0.770039 0
M  V30 16361 C 1591.23 -3.6868 -2.46151 0
M  V30 16362 H 1588.45 -0.628532 -0.234922 0
M  V30 16363 H 1590.99 -2.04339 -0.0811362 0
M  V30 16364 H 1589.15 -3.09411 -2.33117 0
M  V30 16365 H 1589.56 -5.07182 -1.33665 0
M  V30 16366 H 1591.04 -4.63928 -2.99124 0
M  V30 16367 H 1591.51 -2.96183 -3.24303 0
M  V30 16368 H 1592.12 -3.84303 -1.82185 0
M  V30 16369 N 1590.44 0.372521 -1.53134 0
M  V30 16370 C 1591.37 1.4759 -1.75357 0
M  V30 16371 C 1592.38 1.49938 -0.634223 0
M  V30 16372 O 1593.57 1.53543 -0.910322 0
M  V30 16373 C 1590.67 2.86382 -1.81214 0
M  V30 16374 C 1589.84 3.0781 -3.1076 0
M  V30 16375 C 1588.9 4.26677 -3.07949 0
M  V30 16376 O 1587.93 4.22186 -3.81769 0
M  V30 16377 N 1589.13 5.33729 -2.28283 0
M  V30 16378 H 1591.89 1.28908 -2.7056 0
M  V30 16379 H 1589.46 0.562186 -1.51826 0
M  V30 16380 H 1591.45 3.64029 -1.7682 0
M  V30 16381 H 1590.02 2.98344 -0.933249 0
M  V30 16382 H 1589.24 2.17884 -3.28512 0
M  V30 16383 H 1590.53 3.18991 -3.96386 0
M  V30 16384 H 1589.92 5.40238 -1.67806 0
M  V30 16385 H 1588.48 6.09979 -2.29714 0
M  V30 16386 N 1591.91 1.44376 0.631925 0
M  V30 16387 C 1592.86 1.47617 1.73762 0
M  V30 16388 C 1593.85 0.342055 1.57222 0
M  V30 16389 O 1595.04 0.587306 1.66972 0
M  V30 16390 C 1592.17 1.42245 3.12444 0
M  V30 16391 C 1591.25 2.60767 3.34457 0
M  V30 16392 N 1591.65 3.86017 3.2684 0
M  V30 16393 C 1589.94 2.55946 3.6525 0
M  V30 16394 C 1590.64 4.64986 3.49519 0
M  V30 16395 N 1589.62 3.96047 3.72354 0
M  V30 16396 H 1593.42 2.42305 1.6633 0
M  V30 16397 H 1590.94 1.39328 0.834362 0
M  V30 16398 H 1592.93 1.4265 3.91735 0
M  V30 16399 H 1591.59 0.485942 3.21043 0
M  V30 16400 H 1592.6 4.17997 3.05776 0
M  V30 16401 H 1589.28 1.71087 3.80835 0
M  V30 16402 H 1590.67 5.74011 3.49229 0
M  V30 16403 N 1593.39 -0.872258 1.31261 0
M  V30 16404 C 1594.32 -1.99517 1.21306 0
M  V30 16405 C 1595.3 -1.69801 0.100775 0
M  V30 16406 O 1596.49 -1.92098 0.284984 0
M  V30 16407 C 1593.62 -3.34968 0.917249 0
M  V30 16408 C 1592.57 -3.78984 1.98885 0
M  V30 16409 C 1591.9 -5.11869 1.54578 0
M  V30 16410 C 1593.2 -3.96338 3.40167 0
M  V30 16411 H 1594.89 -2.08104 2.15251 0
M  V30 16412 H 1592.44 -0.999865 1.03628 0
M  V30 16413 H 1594.39 -4.1306 0.834217 0
M  V30 16414 H 1593.11 -3.26549 -0.0578721 0
M  V30 16415 H 1591.77 -3.0313 2.06174 0
M  V30 16416 H 1591.42 -4.99889 0.558581 0
M  V30 16417 H 1591.12 -5.4229 2.26265 0
M  V30 16418 H 1592.65 -5.92472 1.47678 0
M  V30 16419 H 1594.06 -4.64831 3.35566 0
M  V30 16420 H 1592.46 -4.38153 4.10051 0
M  V30 16421 H 1593.53 -2.9979 3.81122 0
M  V30 16422 N 1594.87 -1.14184 -1.08627 0
M  V30 16423 C 1595.8 -0.849455 -2.17501 0
M  V30 16424 C 1596.78 0.194617 -1.68983 0
M  V30 16425 O 1597.97 0.0517757 -1.94131 0
M  V30 16426 C 1595.1 -0.323685 -3.45788 0
M  V30 16427 C 1594.05 -1.30294 -4.07685 0
M  V30 16428 C 1593.38 -0.636575 -5.30897 0
M  V30 16429 C 1594.68 -2.66441 -4.49229 0
M  V30 16430 H 1596.37 -1.75987 -2.42217 0
M  V30 16431 H 1593.92 -0.847595 -1.16412 0
M  V30 16432 H 1595.87 -0.106754 -4.21265 0
M  V30 16433 H 1594.59 0.62215 -3.20619 0
M  V30 16434 H 1593.25 -1.50601 -3.34238 0
M  V30 16435 H 1592.9 0.314995 -5.02013 0
M  V30 16436 H 1592.6 -1.28998 -5.73266 0
M  V30 16437 H 1594.12 -0.429117 -6.0909 0
M  V30 16438 H 1595.54 -2.50055 -5.15893 0
M  V30 16439 H 1593.93 -3.28033 -5.02508 0
M  V30 16440 H 1595 -3.23486 -3.61226 0
M  V30 16441 N 1596.35 1.26749 -0.936613 0
M  V30 16442 C 1597.28 2.25684 -0.399941 0
M  V30 16443 C 1598.29 1.55739 0.474271 0
M  V30 16444 O 1599.48 1.76203 0.285454 0
M  V30 16445 C 1596.58 3.35969 0.444733 0
M  V30 16446 C 1595.76 4.35453 -0.412258 0
M  V30 16447 C 1594.81 5.24889 0.37123 0
M  V30 16448 O 1593.84 5.68758 -0.224162 0
M  V30 16449 N 1595.04 5.55993 1.66889 0
M  V30 16450 H 1597.81 2.72368 -1.25043 0
M  V30 16451 H 1595.37 1.40468 -0.805 0
M  V30 16452 H 1597.36 3.92751 0.976159 0
M  V30 16453 H 1595.93 2.88816 1.196 0
M  V30 16454 H 1595.15 3.77808 -1.12493 0
M  V30 16455 H 1596.44 4.9892 -0.997822 0
M  V30 16456 H 1595.84 5.22224 2.17481 0
M  V30 16457 H 1594.39 6.15436 2.14666 0
M  V30 16458 N 1597.83 0.703118 1.41046 0
M  V30 16459 C 1598.77 0.0312802 2.32579 0
M  V30 16460 C 1599.77 -0.760463 1.51371 0
M  V30 16461 O 1600.97 -0.665235 1.67256 0
M  V30 16462 H 1597.35 -0.00868655 0.75195 0
M  V30 16463 H 1599.32 0.820195 2.86907 0
M  V30 16464 C 1598.07 -0.885639 3.36232 0
M  V30 16465 H 1597.39 -0.285819 3.98777 0
M  V30 16466 H 1598.83 -1.3239 4.02801 0
M  V30 16467 C 1597.29 -2.00533 2.70718 0
M  V30 16468 O 1597.82 -3.09491 2.56082 0
M  V30 16469 N 1596.03 -1.78528 2.29295 0
M  V30 16470 H 1595.57 -0.899139 2.41399 0
M  V30 16471 H 1595.53 -2.53627 1.85797 0
M  V30 16472 N 1599.3 -1.51086 0.448402 0
M  V30 16473 C 1600.25 -2.24885 -0.375609 0
M  V30 16474 C 1601.24 -1.27553 -0.980769 0
M  V30 16475 O 1602.43 -1.52583 -0.897076 0
M  V30 16476 C 1599.56 -3.10235 -1.47 0
M  V30 16477 C 1598.65 -4.15003 -0.873686 0
M  V30 16478 N 1599.04 -5.05799 -0.00756268 0
M  V30 16479 C 1597.33 -4.31182 -1.14009 0
M  V30 16480 C 1598.04 -5.80772 0.328514 0
M  V30 16481 N 1597.01 -5.42822 -0.290661 0
M  V30 16482 H 1600.81 -2.92446 0.291962 0
M  V30 16483 H 1598.33 -1.60287 0.261145 0
M  V30 16484 H 1600.32 -3.61691 -2.07328 0
M  V30 16485 H 1598.98 -2.44219 -2.13979 0
M  V30 16486 H 1600 -5.1665 0.359676 0
M  V30 16487 H 1596.67 -3.7639 -1.80656 0
M  V30 16488 H 1598.06 -6.63896 1.03399 0
M  V30 16489 N 1600.78 -0.180154 -1.56567 0
M  V30 16490 C 1601.73 0.746666 -2.18389 0
M  V30 16491 C 1602.7 1.22058 -1.12655 0
M  V30 16492 O 1603.88 1.28716 -1.40843 0
M  V30 16493 C 1601.02 1.96688 -2.83563 0
M  V30 16494 C 1600.14 1.53572 -4.03782 0
M  V30 16495 C 1599.27 2.71028 -4.56856 0
M  V30 16496 C 1598.31 2.24445 -5.69465 0
M  V30 16497 N 1597.45 3.35026 -6.17011 0
M  V30 16498 H 1602.29 0.212707 -2.9724 0
M  V30 16499 H 1599.83 0.093256 -1.46804 0
M  V30 16500 H 1601.78 2.68269 -3.19511 0
M  V30 16501 H 1600.41 2.4744 -2.073 0
M  V30 16502 H 1599.47 0.716323 -3.73595 0
M  V30 16503 H 1600.78 1.15385 -4.85271 0
M  V30 16504 H 1599.93 3.50753 -4.95032 0
M  V30 16505 H 1598.67 3.1248 -3.74443 0
M  V30 16506 H 1597.68 1.43169 -5.30832 0
M  V30 16507 H 1598.9 1.84041 -6.53686 0
M  V30 16508 H 1596.85 3.76037 -5.37524 0
M  V30 16509 H 1596.76 3.0096 -6.93512 0
M  V30 16510 H 1598.03 4.15009 -6.59839 0
M  V30 16511 N 1602.26 1.57322 0.0935319 0
M  V30 16512 C 1603.19 1.97423 1.14452 0
M  V30 16513 C 1604.17 0.84769 1.38755 0
M  V30 16514 O 1605.36 1.10812 1.52489 0
M  V30 16515 C 1602.48 2.29234 2.49338 0
M  V30 16516 C 1601.53 3.51672 2.41306 0
M  V30 16517 S 1602.36 5.0333 1.82808 0
M  V30 16518 C 1603.52 5.3832 3.19315 0
M  V30 16519 H 1603.75 2.86259 0.80268 0
M  V30 16520 H 1601.28 1.51432 0.301269 0
M  V30 16521 H 1603.24 2.48237 3.26938 0
M  V30 16522 H 1601.9 1.40966 2.80691 0
M  V30 16523 H 1601.1 3.71377 3.40727 0
M  V30 16524 H 1600.7 3.32187 1.71837 0
M  V30 16525 H 1602.99 5.35061 4.15591 0
M  V30 16526 H 1603.93 6.39327 3.04413 0
M  V30 16527 H 1604.34 4.6578 3.18919 0
M  V30 16528 N 1603.74 -0.364395 1.53329 0
M  V30 16529 C 1604.98 -1.10501 1.70766 0
M  V30 16530 C 1605.34 -1.86955 0.45448 0
M  V30 16531 O 1604.63 -1.8346 -0.552528 0
M  V30 16532 C 1604.83 -2.09208 2.8977 0
M  V30 16533 C 1604.66 -1.42453 4.26541 0
M  V30 16534 C 1603.43 -1.17816 4.91373 0
M  V30 16535 C 1605.62 -0.861619 5.07031 0
M  V30 16536 N 1603.61 -0.474233 6.12066 0
M  V30 16537 C 1604.98 -0.28712 6.19335 0
M  V30 16538 C 1607.03 -0.760424 4.92059 0
M  V30 16539 C 1605.73 0.378707 7.18302 0
M  V30 16540 C 1607.76 -0.108375 5.91301 0
M  V30 16541 C 1607.12 0.455245 7.02927 0
M  V30 16542 H 1603.22 -0.38946 0.678119 0
M  V30 16543 H 1605.81 -0.391247 1.90728 0
M  V30 16544 H 1603.98 -2.77897 2.71345 0
M  V30 16545 H 1605.71 -2.75956 2.96024 0
M  V30 16546 H 1602.46 -1.45975 4.50542 0
M  V30 16547 H 1602.89 -0.137599 6.7686 0
M  V30 16548 H 1607.53 -1.18194 4.05943 0
M  V30 16549 H 1605.25 0.812171 8.04008 0
M  V30 16550 H 1608.83 -0.0309878 5.81792 0
M  V30 16551 H 1607.71 0.951813 7.78402 0
M  V30 16552 N 1605.22 -1.44709 -0.62426 0
M  V30 16553 C 1606.16 -1.52104 -1.73589 0
M  V30 16554 C 1607.13 -0.368193 -1.61968 0
M  V30 16555 O 1608.32 -0.579374 -1.81791 0
M  V30 16556 C 1605.46 -1.4778 -3.11857 0
M  V30 16557 C 1604.57 -2.73491 -3.34405 0
M  V30 16558 C 1603.71 -2.60953 -4.62685 0
M  V30 16559 C 1602.75 -3.81795 -4.78434 0
M  V30 16560 N 1601.88 -3.67892 -5.97997 0
M  V30 16561 H 1606.72 -2.47077 -1.66604 0
M  V30 16562 H 1604.26 -1.22617 -0.812616 0
M  V30 16563 H 1606.22 -1.43263 -3.91831 0
M  V30 16564 H 1604.85 -0.563694 -3.1784 0
M  V30 16565 H 1603.9 -2.88166 -2.48324 0
M  V30 16566 H 1605.21 -3.6317 -3.4192 0
M  V30 16567 H 1604.37 -2.54308 -5.50829 0
M  V30 16568 H 1603.1 -1.68846 -4.57539 0
M  V30 16569 H 1602.11 -3.88817 -3.88717 0
M  V30 16570 H 1603.33 -4.74947 -4.85388 0
M  V30 16571 H 1601.28 -2.78541 -5.93928 0
M  V30 16572 H 1601.2 -4.51193 -6.06598 0
M  V30 16573 H 1602.47 -3.6515 -6.88684 0
M  V30 16574 N 1606.69 0.865285 -1.31722 0
M  V30 16575 C 1607.64 1.97294 -1.19766 0
M  V30 16576 C 1608.61 1.65896 -0.0823232 0
M  V30 16577 O 1609.8 1.89075 -0.256009 0
M  V30 16578 C 1606.94 3.32727 -0.915776 0
M  V30 16579 C 1606.05 3.76691 -2.11489 0
M  V30 16580 C 1605.18 5.00865 -1.76939 0
M  V30 16581 C 1604.22 5.37291 -2.93232 0
M  V30 16582 N 1603.36 6.52643 -2.58846 0
M  V30 16583 H 1608.2 2.06851 -2.14515 0
M  V30 16584 H 1605.74 1.01256 -1.06703 0
M  V30 16585 H 1607.7 4.10712 -0.732881 0
M  V30 16586 H 1606.33 3.228 -0.00510917 0
M  V30 16587 H 1605.38 2.94449 -2.4084 0
M  V30 16588 H 1606.69 3.99613 -2.98514 0
M  V30 16589 H 1605.84 5.86529 -1.5514 0
M  V30 16590 H 1604.58 4.79857 -0.871125 0
M  V30 16591 H 1603.59 4.50143 -3.15675 0
M  V30 16592 H 1604.81 5.60262 -3.83775 0
M  V30 16593 H 1602.76 6.33172 -1.71548 0
M  V30 16594 H 1602.68 6.75531 -3.39401 0
M  V30 16595 H 1603.94 7.41487 -2.40451 0
M  V30 16596 N 1608.17 1.14759 1.0802 0
M  V30 16597 C 1609.42 0.919609 1.80751 0
M  V30 16598 C 1609.75 -0.552268 1.86182 0
M  V30 16599 O 1609.03 -1.40922 1.34057 0
M  V30 16600 C 1609.31 1.52611 3.26162 0
M  V30 16601 C 1609.16 3.06811 3.28918 0
M  V30 16602 C 1610.48 1.20625 4.23246 0
M  V30 16603 H 1607.6 0.33551 0.656203 0
M  V30 16604 H 1610.24 1.41816 1.26444 0
M  V30 16605 H 1608.39 1.10213 3.72539 0
M  V30 16606 H 1610.06 3.58068 2.90835 0
M  V30 16607 H 1608.31 3.41055 2.68075 0
M  V30 16608 H 1608.98 3.44357 4.31419 0
M  V30 16609 H 1611.45 1.57287 3.85227 0
M  V30 16610 H 1610.33 1.65689 5.23296 0
M  V30 16611 H 1610.59 0.122177 4.41931 0
M  V30 16612 N 1609.65 -1.26251 0.943322 0
M  V30 16613 C 1610.9 -1.92946 0.587764 0
M  V30 16614 C 1611.21 -1.74805 -0.877647 0
M  V30 16615 O 1612.42 -2.35976 -1.34267 0
M  V30 16616 C 1610.87 -3.45715 1.00047 0
M  V30 16617 C 1610.48 -3.72586 2.48764 0
M  V30 16618 C 1612.23 -4.18403 0.716905 0
M  V30 16619 C 1610.13 -5.18805 2.83893 0
M  V30 16620 H 1609.06 -0.722366 0.21611 0
M  V30 16621 H 1611.71 -1.43295 1.14625 0
M  V30 16622 H 1610.1 -3.94263 0.370491 0
M  V30 16623 H 1611.27 -3.34735 3.16684 0
M  V30 16624 H 1609.59 -3.13136 2.74472 0
M  V30 16625 H 1612.18 -5.2609 0.955669 0
M  V30 16626 H 1612.53 -4.14856 -0.346396 0
M  V30 16627 H 1613.06 -3.75726 1.3067 0
M  V30 16628 H 1609.8 -5.27454 3.89195 0
M  V30 16629 H 1609.32 -5.57745 2.20636 0
M  V30 16630 H 1611 -5.86828 2.72474 0
M  V30 16631 N 1611.13 -0.710588 -1.40671 0
M  V30 16632 C 1612.04 -0.0557164 -2.34534 0
M  V30 16633 C 1613.06 0.749387 -1.57036 0
M  V30 16634 O 1614.23 0.683493 -1.89447 0
M  V30 16635 C 1611.3 0.858583 -3.35901 0
M  V30 16636 C 1610.36 0.043995 -4.29277 0
M  V30 16637 C 1609.59 0.91475 -5.25802 0
M  V30 16638 O 1609.81 2.15407 -5.28163 0
M  V30 16639 O 1608.75 0.356407 -6.00844 0
M  V30 16640 H 1612.57 -0.829807 -2.92144 0
M  V30 16641 H 1610.16 -0.471028 -1.4178 0
M  V30 16642 H 1612.04 1.38244 -3.98079 0
M  V30 16643 H 1610.72 1.61191 -2.80712 0
M  V30 16644 H 1609.62 -0.524815 -3.704 0
M  V30 16645 H 1610.96 -0.670996 -4.87605 0
M  V30 16646 N 1612.61 1.50847 -0.456408 0
M  V30 16647 C 1613.52 2.31959 0.351027 0
M  V30 16648 C 1614.53 1.41697 1.00986 0
M  V30 16649 O 1615.71 1.7476 1.00105 0
M  V30 16650 C 1612.77 3.15973 1.42696 0
M  V30 16651 C 1611.84 4.22038 0.786272 0
M  V30 16652 C 1611.07 5.02036 1.81094 0
M  V30 16653 O 1611.29 4.82913 3.03564 0
M  V30 16654 O 1610.23 5.85609 1.3909 0
M  V30 16655 H 1614.05 3.02096 -0.311678 0
M  V30 16656 H 1611.64 1.47793 -0.218544 0
M  V30 16657 H 1613.52 3.68146 2.05053 0
M  V30 16658 H 1612.19 2.48579 2.0734 0
M  V30 16659 H 1611.1 3.73894 0.124148 0
M  V30 16660 H 1612.43 4.9186 0.183016 0
M  V30 16661 N 1614.09 0.188454 1.56469 0
M  V30 16662 C 1615 -0.747176 2.22384 0
M  V30 16663 C 1616.01 -1.23985 1.22081 0
M  V30 16664 O 1617.19 -1.2884 1.54797 0
M  V30 16665 C 1614.25 -1.95228 2.86508 0
M  V30 16666 C 1613.31 -1.50482 4.02062 0
M  V30 16667 C 1612.55 -2.65248 4.63119 0
M  V30 16668 O 1612.77 -3.8256 4.23088 0
M  V30 16669 O 1611.7 -2.38341 5.527 0
M  V30 16670 H 1615.53 -0.215857 3.02932 0
M  V30 16671 H 1613.11 -0.0405356 1.49345 0
M  V30 16672 H 1615 -2.65673 3.27103 0
M  V30 16673 H 1613.67 -2.47233 2.08944 0
M  V30 16674 H 1612.58 -0.769365 3.66103 0
M  V30 16675 H 1613.91 -1.03151 4.8127 0
M  V30 16676 N 1615.56 -1.5737 -0.0851874 0
M  V30 16677 C 1616.5 -1.99462 -1.12905 0
M  V30 16678 C 1617.51 -0.898597 -1.35754 0
M  V30 16679 O 1618.7 -1.17662 -1.34231 0
M  V30 16680 C 1615.8 -2.30689 -2.48266 0
M  V30 16681 C 1614.97 -3.61967 -2.45557 0
M  V30 16682 C 1614.03 -3.81017 -3.62922 0
M  V30 16683 O 1613.06 -4.52759 -3.44961 0
M  V30 16684 N 1614.26 -3.22348 -4.82775 0
M  V30 16685 H 1617.02 -2.89621 -0.7707 0
M  V30 16686 H 1614.58 -1.59564 -0.274033 0
M  V30 16687 H 1616.58 -2.40618 -3.254 0
M  V30 16688 H 1615.15 -1.46488 -2.76152 0
M  V30 16689 H 1614.37 -3.62916 -1.539 0
M  V30 16690 H 1615.65 -4.48191 -2.40836 0
M  V30 16691 H 1615.05 -2.64093 -5.00271 0
M  V30 16692 H 1613.61 -3.37747 -5.57468 0
M  V30 16693 N 1617.04 0.356258 -1.53521 0
M  V30 16694 C 1618.46 0.698546 -1.43501 0
M  V30 16695 C 1618.66 1.92926 -0.581547 0
M  V30 16696 O 1617.71 2.5241 -0.0675947 0
M  V30 16697 C 1619.03 0.903047 -2.8682 0
M  V30 16698 C 1620.57 1.00247 -2.96512 0
M  V30 16699 C 1621.05 1.23938 -4.40912 0
M  V30 16700 N 1622.54 1.30687 -4.44382 0
M  V30 16701 C 1623.28 1.50745 -5.5323 0
M  V30 16702 N 1622.77 1.68058 -6.72107 0
M  V30 16703 N 1624.56 1.5319 -5.40823 0
M  V30 16704 H 1616.72 -0.453102 -2.07511 0
M  V30 16705 H 1618.98 -0.140708 -0.937499 0
M  V30 16706 H 1618.68 0.070416 -3.5163 0
M  V30 16707 H 1618.56 1.80847 -3.3102 0
M  V30 16708 H 1620.95 1.82564 -2.3185 0
M  V30 16709 H 1621.03 0.0742303 -2.55692 0
M  V30 16710 H 1620.67 0.421189 -5.06151 0
M  V30 16711 H 1620.6 2.18098 -4.79313 0
M  V30 16712 H 1623.09 1.18883 -3.58713 0
M  V30 16713 H 1623.4 1.82963 -7.50829 0
M  V30 16714 H 1621.75 1.65219 -6.75076 0
M  V30 16715 H 1624.94 1.39237 -4.46912 0
M  V30 16716 H 1625.11 1.6848 -6.25714 0
M  V30 16717 N 1618.52 1.45038 0.616577 0
M  V30 16718 C 1619.45 1.55858 1.73869 0
M  V30 16719 C 1620.43 0.410657 1.65069 0
M  V30 16720 O 1621.62 0.632652 1.83606 0
M  V30 16721 C 1618.75 1.51635 3.12448 0
M  V30 16722 C 1617.7 2.65053 3.36052 0
M  V30 16723 C 1617.03 2.45883 4.74811 0
M  V30 16724 C 1618.33 4.07121 3.27185 0
M  V30 16725 H 1620.02 2.49784 1.6507 0
M  V30 16726 H 1617.57 1.20216 0.792724 0
M  V30 16727 H 1619.52 1.57803 3.90738 0
M  V30 16728 H 1618.24 0.542342 3.22066 0
M  V30 16729 H 1616.9 2.58299 2.60149 0
M  V30 16730 H 1616.55 1.46641 4.8115 0
M  V30 16731 H 1616.25 3.21935 4.9156 0
M  V30 16732 H 1617.77 2.53892 5.55312 0
M  V30 16733 H 1619.19 4.15167 3.9536 0
M  V30 16734 H 1617.58 4.83491 3.55466 0
M  V30 16735 H 1618.65 4.29663 2.24762 0
M  V30 16736 N 1620 -0.858287 1.32179 0
M  V30 16737 C 1620.96 -1.94811 1.20753 0
M  V30 16738 C 1621.96 -1.60261 0.131526 0
M  V30 16739 O 1623.15 -1.69968 0.381662 0
M  V30 16740 C 1620.28 -3.29972 0.856229 0
M  V30 16741 H 1621.48 -2.06371 2.17603 0
M  V30 16742 H 1619.03 -1.04802 1.15958 0
M  V30 16743 H 1619.76 -3.24111 -0.11061 0
M  V30 16744 H 1619.55 -3.56424 1.63414 0
M  V30 16745 H 1621.04 -4.09856 0.800507 0
M  V30 16746 N 1621.48 -1.1533 -1.07409 0
M  V30 16747 C 1622.72 -0.925974 -1.79639 0
M  V30 16748 C 1623.04 0.548365 -1.87131 0
M  V30 16749 O 1622.31 1.39854 -1.37178 0
M  V30 16750 H 1620.89 -0.339599 -0.665343 0
M  V30 16751 H 1623.56 -1.45383 -1.29806 0
M  V30 16752 H 1622.65 -1.33484 -2.82114 0
M  V30 16753 N 1622.95 1.25748 -0.950004 0
M  V30 16754 C 1624.2 1.92632 -0.597988 0
M  V30 16755 C 1624.52 1.75268 0.868365 0
M  V30 16756 O 1625.72 2.36684 1.33014 0
M  V30 16757 C 1624.18 3.45179 -1.01879 0
M  V30 16758 C 1623.79 3.71262 -2.50736 0
M  V30 16759 C 1625.53 4.18017 -0.739084 0
M  V30 16760 C 1623.44 5.17292 -2.8664 0
M  V30 16761 H 1622.37 0.72121 -0.219938 0
M  V30 16762 H 1625.02 1.42685 -1.15383 0
M  V30 16763 H 1623.4 3.94061 -0.391395 0
M  V30 16764 H 1624.57 3.33051 -3.18455 0
M  V30 16765 H 1622.89 3.11676 -2.76129 0
M  V30 16766 H 1625.49 5.25576 -0.983555 0
M  V30 16767 H 1625.83 4.15034 0.32439 0
M  V30 16768 H 1626.36 3.75028 -1.32661 0
M  V30 16769 H 1623.1 5.25383 -3.91987 0
M  V30 16770 H 1622.62 5.56567 -2.23591 0
M  V30 16771 H 1624.3 5.85375 -2.75582 0
M  V30 16772 N 1624.43 0.718038 1.40292 0
M  V30 16773 C 1625.34 0.0681535 2.34501 0
M  V30 16774 C 1626.36 -0.741048 1.57431 0
M  V30 16775 O 1627.53 -0.673437 1.89807 0
M  V30 16776 C 1624.6 -0.840758 3.36351 0
M  V30 16777 C 1623.66 -0.0212287 4.29295 0
M  V30 16778 C 1622.89 -0.886852 5.2628 0
M  V30 16779 O 1623.12 -2.12603 5.29298 0
M  V30 16780 O 1622.05 -0.324537 6.01024 0
M  V30 16781 H 1625.88 0.845288 2.91699 0
M  V30 16782 H 1623.46 0.478541 1.41529 0
M  V30 16783 H 1625.34 -1.36131 3.98806 0
M  V30 16784 H 1624.02 -1.597 2.81563 0
M  V30 16785 H 1622.92 0.544451 3.70117 0
M  V30 16786 H 1624.26 0.696846 4.87242 0
M  V30 16787 N 1625.91 -1.50602 0.464402 0
M  V30 16788 C 1626.86 -2.29992 -0.347337 0
M  V30 16789 C 1627.85 -1.36991 -0.996489 0
M  V30 16790 O 1629.06 -1.54213 -0.928359 0
M  V30 16791 H 1625.43 -0.740529 -0.130847 0
M  V30 16792 H 1627.4 -2.96425 0.342734 0
M  V30 16793 C 1626.15 -3.17355 -1.4206 0
M  V30 16794 H 1625.48 -3.88822 -0.930473 0
M  V30 16795 H 1626.92 -3.75912 -1.96129 0
M  V30 16796 C 1625.38 -2.34506 -2.41886 0
M  V30 16797 O 1625.91 -2.02347 -3.47014 0
M  V30 16798 N 1624.11 -1.97212 -2.13438 0
M  V30 16799 H 1623.66 -2.23564 -1.27971 0
M  V30 16800 H 1623.62 -1.42081 -2.80464 0
M  V30 16801 N 1627.39 -0.19675 -1.56367 0
M  V30 16802 C 1628.32 0.75534 -2.16396 0
M  V30 16803 C 1629.33 1.17558 -1.12623 0
M  V30 16804 O 1630.52 1.11102 -1.39709 0
M  V30 16805 C 1627.62 2.03159 -2.71256 0
M  V30 16806 C 1626.8 1.77088 -3.99948 0
M  V30 16807 C 1625.85 2.89176 -4.39618 0
M  V30 16808 O 1624.88 2.58712 -5.07007 0
M  V30 16809 N 1626.08 4.17569 -4.03257 0
M  V30 16810 H 1628.85 0.241991 -2.98721 0
M  V30 16811 H 1626.41 -0.0148423 -1.61893 0
M  V30 16812 H 1628.4 2.77287 -2.94778 0
M  V30 16813 H 1626.97 2.45611 -1.93375 0
M  V30 16814 H 1626.19 0.867309 -3.84541 0
M  V30 16815 H 1627.48 1.5707 -4.83949 0
M  V30 16816 H 1626.88 4.45171 -3.49054 0
M  V30 16817 H 1625.43 4.88319 -4.31726 0
M  V30 16818 N 1628.87 1.57413 0.0768405 0
M  V30 16819 C 1630.09 1.91607 0.793833 0
M  V30 16820 C 1630.52 0.792708 1.70581 0
M  V30 16821 O 1629.87 -0.25475 1.79501 0
M  V30 16822 C 1629.92 3.24736 1.56776 0
M  V30 16823 O 1629.03 3.13613 2.67807 0
M  V30 16824 H 1628.37 0.627572 0.216908 0
M  V30 16825 H 1630.9 2.04547 0.0465957 0
M  V30 16826 H 1630.91 3.58488 1.94809 0
M  V30 16827 H 1629.58 4.06077 0.898588 0
M  V30 16828 H 1628.16 2.91411 2.32668 0
M  V30 16829 N 1630.34 -0.348112 1.53707 0
M  V30 16830 C 1631.27 -1.43296 1.8436 0
M  V30 16831 C 1632.26 -1.55102 0.698376 0
M  V30 16832 O 1633.44 -1.69385 0.949864 0
M  V30 16833 C 1630.57 -2.80407 2.04912 0
M  V30 16834 C 1629.52 -2.83412 3.20721 0
M  V30 16835 C 1628.85 -4.23365 3.26597 0
M  V30 16836 C 1630.15 -2.49358 4.58931 0
M  V30 16837 H 1631.84 -1.17892 2.75212 0
M  V30 16838 H 1629.39 -0.565692 1.32423 0
M  V30 16839 H 1631.34 -3.56343 2.24939 0
M  V30 16840 H 1630.07 -3.07236 1.10786 0
M  V30 16841 H 1628.73 -2.09929 3.00542 0
M  V30 16842 H 1628.37 -4.47297 2.30076 0
M  V30 16843 H 1628.07 -4.26287 4.04417 0
M  V30 16844 H 1629.6 -5.01149 3.4883 0
M  V30 16845 H 1631.01 -3.15006 4.79003 0
M  V30 16846 H 1629.41 -2.6357 5.3912 0
M  V30 16847 H 1630.48 -1.44557 4.62851 0
M  V30 16848 N 1631.82 -1.45363 -0.608876 0
M  V30 16849 C 1633.1 -1.39787 -1.36817 0
M  V30 16850 C 1633.48 -0.067821 -2.10991 0
M  V30 16851 O 1632.83 0.950196 -2.07806 0
M  V30 16852 C 1633.04 -2.61073 -2.31608 0
M  V30 16853 C 1634.39 -3.06104 -2.94254 0
M  V30 16854 O 1635.41 -2.61436 -2.41929 0
M  V30 16855 O 1634.27 -3.83616 -3.89231 0
M  V30 16856 H 1631.36 -0.554657 -0.61342 0
M  V30 16857 H 1633.91 -1.57489 -0.632073 0
M  V30 16858 H 1632.68 -3.4946 -1.76049 0
M  V30 16859 H 1632.3 -2.45697 -3.126 0
M  V30 16860 N 1633.3 0.851265 -1.32632 0
M  V30 16861 C 1634.23 1.96682 -1.17681 0
M  V30 16862 C 1635.25 1.62422 -0.110926 0
M  V30 16863 O 1636.43 1.74828 -0.360202 0
M  V30 16864 C 1633.53 3.29806 -0.779838 0
M  V30 16865 C 1632.71 3.92284 -1.93473 0
M  V30 16866 C 1631.77 5.03745 -1.52075 0
M  V30 16867 O 1630.79 5.23558 -2.23328 0
M  V30 16868 N 1631.99 5.78988 -0.418695 0
M  V30 16869 H 1634.76 2.10049 -2.13775 0
M  V30 16870 H 1632.32 1.02631 -1.25214 0
M  V30 16871 H 1634.31 4.0178 -0.485236 0
M  V30 16872 H 1632.88 3.1247 0.0900498 0
M  V30 16873 H 1632.1 3.13054 -2.39564 0
M  V30 16874 H 1633.39 4.30762 -2.7078 0
M  V30 16875 H 1632.79 5.65432 0.174269 0
M  V30 16876 H 1631.35 6.51541 -0.183714 0
M  V30 16877 N 1634.78 1.15898 1.06796 0
M  V30 16878 C 1636.01 0.961372 1.83208 0
M  V30 16879 C 1636.42 -0.490392 1.8232 0
M  V30 16880 O 1635.78 -1.34025 1.2387 0
M  V30 16881 C 1635.83 1.47486 3.30045 0
M  V30 16882 O 1635.55 2.86976 3.31023 0
M  V30 16883 C 1637.05 1.31955 4.23205 0
M  V30 16884 H 1634.27 0.34109 0.57784 0
M  V30 16885 H 1636.82 1.53805 1.34775 0
M  V30 16886 H 1634.97 0.940586 3.75808 0
M  V30 16887 H 1635.38 3.1038 4.22805 0
M  V30 16888 H 1636.86 1.72721 5.24282 0
M  V30 16889 H 1637.34 0.264439 4.38403 0
M  V30 16890 H 1637.94 1.84319 3.83284 0
M  V30 16891 N 1636.26 -1.25243 0.956659 0
M  V30 16892 C 1637.67 -1.74909 0.652979 0
M  V30 16893 C 1638.02 -1.77704 -0.831605 0
M  V30 16894 O 1637.14 -1.39921 -1.65079 0
M  V30 16895 C 1637.74 -3.17639 1.1786 0
M  V30 16896 C 1636.3 -3.64856 0.925034 0
M  V30 16897 C 1635.44 -2.43844 1.32044 0
M  V30 16898 H 1638.4 -1.11101 1.13324 0
M  V30 16899 H 1638.42 -3.76654 0.539633 0
M  V30 16900 H 1637.93 -3.15572 2.25911 0
M  V30 16901 H 1636.03 -3.72335 -0.14043 0
M  V30 16902 H 1636.14 -4.5289 1.56292 0
M  V30 16903 H 1634.51 -2.43749 0.738813 0
M  V30 16904 H 1635.29 -2.44466 2.41021 0
M  V30 16905 N 1637.73 -0.725468 -1.3991 0
M  V30 16906 C 1638.67 -0.0397832 -2.29165 0
M  V30 16907 C 1639.68 0.713458 -1.46334 0
M  V30 16908 O 1640.87 0.559199 -1.69515 0
M  V30 16909 C 1637.97 0.967929 -3.24784 0
M  V30 16910 C 1637.14 0.278181 -4.36515 0
M  V30 16911 C 1636.2 1.19266 -5.12506 0
M  V30 16912 O 1635.23 0.673726 -5.65199 0
M  V30 16913 N 1636.43 2.5231 -5.228 0
M  V30 16914 H 1639.19 -0.806204 -2.88653 0
M  V30 16915 H 1636.75 -0.573904 -1.51387 0
M  V30 16916 H 1638.75 1.58209 -3.72494 0
M  V30 16917 H 1637.32 1.63563 -2.66394 0
M  V30 16918 H 1636.54 -0.516326 -3.90804 0
M  V30 16919 H 1637.82 -0.200203 -5.08406 0
M  V30 16920 H 1637.22 2.96957 -4.8149 0
M  V30 16921 H 1635.78 3.08846 -5.73984 0
M  V30 16922 N 1639.21 1.50354 -0.472382 0
M  V30 16923 C 1640.44 2.07238 0.0820787 0
M  V30 16924 C 1640.86 1.3338 1.32632 0
M  V30 16925 O 1640.22 0.381857 1.77233 0
M  V30 16926 C 1640.27 3.58919 0.347746 0
M  V30 16927 O 1639.37 3.86888 1.42799 0
M  V30 16928 H 1638.71 0.663862 -0.0135544 0
M  V30 16929 H 1641.24 1.93533 -0.663795 0
M  V30 16930 H 1641.25 4.03743 0.587855 0
M  V30 16931 H 1639.93 4.12093 -0.56147 0
M  V30 16932 H 1638.51 3.53901 1.17509 0
M  V30 16933 N 1640.69 0.205039 1.56261 0
M  V30 16934 C 1641.64 -0.724845 2.16171 0
M  V30 16935 C 1642.63 -1.16929 1.10528 0
M  V30 16936 O 1643.82 -1.12603 1.36564 0
M  V30 16937 C 1640.95 -1.93992 2.83235 0
M  V30 16938 C 1640.03 -1.51592 3.96082 0
M  V30 16939 N 1640.42 -0.80348 4.99377 0
M  V30 16940 C 1638.72 -1.80447 4.07866 0
M  V30 16941 C 1639.42 -0.58958 5.78704 0
M  V30 16942 N 1638.4 -1.14132 5.31484 0
M  V30 16943 H 1642.2 -0.171919 2.93397 0
M  V30 16944 H 1639.71 0.00563679 1.62399 0
M  V30 16945 H 1641.71 -2.61667 3.24555 0
M  V30 16946 H 1640.37 -2.49747 2.07501 0
M  V30 16947 H 1641.38 -0.457893 5.15872 0
M  V30 16948 H 1638.06 -2.3764 3.43269 0
M  V30 16949 H 1639.45 -0.0237117 6.71896 0
M  V30 16950 N 1642.17 -1.57451 -0.0684915 0
M  V30 16951 C 1643.39 -1.92025 -0.78366 0
M  V30 16952 C 1643.82 -0.801743 -1.70158 0
M  V30 16953 O 1643.18 0.245227 -1.79634 0
M  V30 16954 C 1643.23 -3.25563 -1.55051 0
M  V30 16955 O 1642.33 -3.15029 -2.6614 0
M  V30 16956 H 1641.67 -0.628714 -0.213576 0
M  V30 16957 H 1644.2 -2.04569 -0.0357474 0
M  V30 16958 H 1644.21 -3.59516 -1.92905 0
M  V30 16959 H 1642.89 -4.06547 -0.87704 0
M  V30 16960 H 1641.46 -2.9264 -2.31119 0
M  V30 16961 N 1643.65 0.339955 -1.5389 0
M  V30 16962 C 1644.87 1.10417 -1.75564 0
M  V30 16963 C 1645.3 1.81466 -0.495156 0
M  V30 16964 O 1644.66 1.72679 0.552415 0
M  V30 16965 C 1644.7 2.09056 -2.93816 0
M  V30 16966 O 1643.81 3.16645 -2.64215 0
M  V30 16967 H 1643.15 0.319164 -0.582263 0
M  V30 16968 H 1645.68 0.389251 -2.00863 0
M  V30 16969 H 1645.69 2.52215 -3.20705 0
M  V30 16970 H 1644.36 1.56741 -3.85234 0
M  V30 16971 H 1642.94 2.78278 -2.48225 0
M  V30 16972 N 1645.13 1.45684 0.601159 0
M  V30 16973 C 1646.04 1.57396 1.73965 0
M  V30 16974 C 1647.05 0.458133 1.6786 0
M  V30 16975 O 1648.23 0.719717 1.88101 0
M  V30 16976 C 1645.29 1.54363 3.1044 0
M  V30 16977 C 1644.35 2.77034 3.27949 0
M  V30 16978 C 1643.59 2.74136 4.57914 0
M  V30 16979 O 1643.81 1.81829 5.40643 0
M  V30 16980 O 1642.74 3.65428 4.78274 0
M  V30 16981 H 1646.57 2.5364 1.67034 0
M  V30 16982 H 1644.15 1.28267 0.766017 0
M  V30 16983 H 1646.04 1.55302 3.91739 0
M  V30 16984 H 1644.71 0.612723 3.17848 0
M  V30 16985 H 1643.62 2.81655 2.46214 0
M  V30 16986 H 1644.95 3.69272 3.25422 0
M  V30 16987 N 1646.6 -0.84422 1.33082 0
M  V30 16988 C 1647.54 -1.96055 1.18722 0
M  V30 16989 C 1648.55 -1.62361 0.119538 0
M  V30 16990 O 1649.74 -1.74634 0.369469 0
M  V30 16991 C 1646.84 -3.29387 0.797318 0
M  V30 16992 C 1646.01 -3.91253 1.95551 0
M  V30 16993 C 1645.07 -5.02932 1.54745 0
M  V30 16994 O 1644.1 -5.22367 2.26101 0
M  V30 16995 N 1645.3 -5.78758 0.449394 0
M  V30 16996 H 1648.06 -2.08912 2.14886 0
M  V30 16997 H 1645.62 -1.01966 1.25756 0
M  V30 16998 H 1647.62 -4.01517 0.506536 0
M  V30 16999 H 1646.19 -3.12514 -0.0734775 0
M  V30 17000 H 1645.41 -3.11779 2.41221 0
M  V30 17001 H 1646.69 -4.2932 2.73061 0
M  V30 17002 H 1646.09 -5.65516 -0.14428 0
M  V30 17003 H 1644.65 -6.51434 0.218264 0
M  V30 17004 N 1648.08 -1.16463 -1.0618 0
M  V30 17005 C 1649.33 -0.941322 -1.78387 0
M  V30 17006 C 1649.64 0.531995 -1.88226 0
M  V30 17007 O 1650.85 0.873227 -2.57074 0
M  V30 17008 C 1649.31 -1.63491 -3.20623 0
M  V30 17009 C 1648.91 -3.14607 -3.18946 0
M  V30 17010 C 1650.66 -1.49361 -3.97356 0
M  V30 17011 C 1648.56 -3.76698 -4.55908 0
M  V30 17012 H 1647.49 -0.348549 -0.668603 0
M  V30 17013 H 1650.15 -1.39607 -1.19088 0
M  V30 17014 H 1648.53 -1.10787 -3.80187 0
M  V30 17015 H 1649.7 -3.74164 -2.68957 0
M  V30 17016 H 1648.02 -3.28634 -2.55712 0
M  V30 17017 H 1650.61 -1.93131 -4.98603 0
M  V30 17018 H 1650.96 -0.442724 -4.13939 0
M  V30 17019 H 1651.49 -1.99227 -3.44316 0
M  V30 17020 H 1648.23 -4.8174 -4.4453 0
M  V30 17021 H 1647.75 -3.21927 -5.06086 0
M  V30 17022 H 1649.43 -3.78321 -5.24864 0
M  V30 17023 N 1649.56 1.24734 -0.963288 0
M  V30 17024 C 1650.49 2.24785 -0.447722 0
M  V30 17025 C 1651.5 1.5671 0.44113 0
M  V30 17026 O 1652.69 1.76769 0.248015 0
M  V30 17027 C 1649.79 3.36837 0.373368 0
M  V30 17028 C 1648.97 4.3448 -0.504532 0
M  V30 17029 C 1648.03 5.25558 0.25981 0
M  V30 17030 O 1647.05 5.68155 -0.344754 0
M  V30 17031 N 1648.25 5.59408 1.55058 0
M  V30 17032 H 1651.02 2.69654 -1.30792 0
M  V30 17033 H 1648.58 1.38729 -0.834614 0
M  V30 17034 H 1650.57 3.94733 0.892631 0
M  V30 17035 H 1649.14 2.91288 1.13447 0
M  V30 17036 H 1648.36 3.75337 -1.20481 0
M  V30 17037 H 1649.65 4.96691 -1.10343 0
M  V30 17038 H 1649.05 5.2672 2.06355 0
M  V30 17039 H 1647.6 6.19851 2.01563 0
M  V30 17040 N 1651.04 0.732878 1.39523 0
M  V30 17041 C 1652 0.10004 2.28982 0
M  V30 17042 C 1653 -0.669361 1.46206 0
M  V30 17043 O 1654.19 -0.498694 1.66909 0
M  V30 17044 C 1651.32 -0.867616 3.29674 0
M  V30 17045 H 1652.52 0.88816 2.86447 0
M  V30 17046 H 1650.07 0.498578 1.48135 0
M  V30 17047 H 1650.8 -1.68217 2.77261 0
M  V30 17048 H 1650.59 -0.318577 3.90804 0
M  V30 17049 H 1652.08 -1.30704 3.96618 0
M  V30 17050 N 1652.52 -1.50101 0.480349 0
M  V30 17051 C 1653.76 -2.01567 -0.073165 0
M  V30 17052 C 1654.08 -1.36657 -1.39944 0
M  V30 17053 O 1655.28 -1.79332 -2.03844 0
M  V30 17054 C 1653.74 -3.59445 -0.180889 0
M  V30 17055 C 1653.35 -4.33318 1.1375 0
M  V30 17056 C 1655.09 -4.18923 -0.685868 0
M  V30 17057 C 1653 -5.83003 0.99307 0
M  V30 17058 H 1651.93 -0.753358 -0.0311179 0
M  V30 17059 H 1654.58 -1.72829 0.616648 0
M  V30 17060 H 1652.96 -3.84811 -0.934693 0
M  V30 17061 H 1654.14 -4.1967 1.90299 0
M  V30 17062 H 1652.45 -3.85492 1.57431 0
M  V30 17063 H 1655.05 -5.28512 -0.811109 0
M  V30 17064 H 1655.39 -3.80916 -1.67955 0
M  V30 17065 H 1655.92 -3.97799 0.0108117 0
M  V30 17066 H 1652.66 -6.25499 1.9604 0
M  V30 17067 H 1652.18 -5.992 0.268128 0
M  V30 17068 H 1653.86 -6.4359 0.663417 0
M  V30 17069 N 1653.99 -0.213323 -1.5615 0
M  V30 17070 C 1654.94 0.700175 -2.19923 0
M  V30 17071 C 1655.91 1.19641 -1.15218 0
M  V30 17072 O 1657.1 1.257 -1.43542 0
M  V30 17073 C 1654.24 1.90629 -2.87671 0
M  V30 17074 C 1653.35 1.44973 -4.06948 0
M  V30 17075 C 1652.48 2.61277 -4.62502 0
M  V30 17076 C 1651.52 2.12316 -5.74098 0
M  V30 17077 N 1650.66 3.21862 -6.23978 0
M  V30 17078 H 1655.5 0.14961 -2.97624 0
M  V30 17079 H 1653.04 0.0620957 -1.46969 0
M  V30 17080 H 1654.99 2.61431 -3.2513 0
M  V30 17081 H 1653.62 2.42987 -2.12502 0
M  V30 17082 H 1652.68 0.636917 -3.7503 0
M  V30 17083 H 1653.99 1.05065 -4.87609 0
M  V30 17084 H 1653.14 3.40174 -5.02361 0
M  V30 17085 H 1651.88 3.04468 -3.80987 0
M  V30 17086 H 1650.89 1.31877 -5.33749 0
M  V30 17087 H 1652.11 1.70134 -6.57443 0
M  V30 17088 H 1650.06 3.64551 -5.45379 0
M  V30 17089 H 1649.97 2.86181 -6.9974 0
M  V30 17090 H 1651.24 4.0092 -6.68493 0
M  V30 17091 N 1655.47 1.57485 0.0601405 0
M  V30 17092 C 1656.38 2.07853 1.08785 0
M  V30 17093 C 1657.4 1.01047 1.41653 0
M  V30 17094 O 1658.57 1.32592 1.51596 0
M  V30 17095 C 1655.64 2.52214 2.37885 0
M  V30 17096 C 1654.7 3.73369 2.11882 0
M  V30 17097 C 1653.93 4.15604 3.34827 0
M  V30 17098 O 1654.16 3.5761 4.44377 0
M  V30 17099 O 1653.09 5.08303 3.22353 0
M  V30 17100 H 1656.92 2.9576 0.689912 0
M  V30 17101 H 1654.5 1.46846 0.275065 0
M  V30 17102 H 1656.38 2.81216 3.1384 0
M  V30 17103 H 1655.06 1.67432 2.77035 0
M  V30 17104 H 1653.97 3.49433 1.33594 0
M  V30 17105 H 1655.3 4.59039 1.77606 0
M  V30 17106 N 1656.95 -0.331789 1.54068 0
M  V30 17107 C 1657.86 -1.43116 1.8589 0
M  V30 17108 C 1658.88 -1.57003 0.75007 0
M  V30 17109 O 1660.05 -1.72256 1.04355 0
M  V30 17110 C 1657.12 -2.77945 2.07238 0
M  V30 17111 C 1656.18 -2.73303 3.31065 0
M  V30 17112 C 1655.41 -4.01702 3.51385 0
M  V30 17113 O 1655.63 -4.99562 2.75306 0
M  V30 17114 O 1654.57 -4.0546 4.44844 0
M  V30 17115 H 1658.39 -1.19137 2.79357 0
M  V30 17116 H 1655.98 -0.525057 1.3987 0
M  V30 17117 H 1657.86 -3.57774 2.22656 0
M  V30 17118 H 1656.54 -3.01831 1.16959 0
M  V30 17119 H 1655.44 -1.92054 3.21039 0
M  V30 17120 H 1656.78 -2.54371 4.21374 0
M  V30 17121 N 1658.43 -1.46001 -0.593424 0
M  V30 17122 C 1659.34 -1.58316 -1.73128 0
M  V30 17123 C 1660.35 -0.467029 -1.67615 0
M  V30 17124 O 1661.53 -0.729682 -1.87717 0
M  V30 17125 C 1658.6 -1.56007 -3.09617 0
M  V30 17126 C 1657.66 -2.78769 -3.26475 0
M  V30 17127 C 1656.89 -2.76561 -4.56453 0
M  V30 17128 O 1657.11 -1.84694 -5.39671 0
M  V30 17129 O 1656.05 -3.67959 -4.76329 0
M  V30 17130 H 1659.87 -2.54522 -1.65686 0
M  V30 17131 H 1657.46 -1.28672 -0.759204 0
M  V30 17132 H 1659.34 -1.57377 -3.9091 0
M  V30 17133 H 1658.01 -0.629571 -3.17519 0
M  V30 17134 H 1656.92 -2.82956 -2.44717 0
M  V30 17135 H 1658.25 -3.70992 -3.23459 0
M  V30 17136 N 1659.91 0.83715 -1.33527 0
M  V30 17137 C 1660.82 1.97915 -1.25964 0
M  V30 17138 C 1661.83 1.73169 -0.169894 0
M  V30 17139 O 1663.01 1.97513 -0.393793 0
M  V30 17140 C 1660.07 3.31945 -1.00068 0
M  V30 17141 C 1659.13 3.69795 -2.1806 0
M  V30 17142 C 1658.37 4.97429 -1.9339 0
M  V30 17143 O 1658.59 5.63492 -0.885069 0
M  V30 17144 O 1657.52 5.32823 -2.79969 0
M  V30 17145 H 1661.35 2.07236 -2.22007 0
M  V30 17146 H 1658.94 0.970437 -1.13591 0
M  V30 17147 H 1660.82 4.12248 -0.873487 0
M  V30 17148 H 1659.49 3.23623 -0.0705475 0
M  V30 17149 H 1658.4 2.89995 -2.36334 0
M  V30 17150 H 1659.73 3.82784 -3.09414 0
M  V30 17151 N 1661.38 1.17024 1.05561 0
M  V30 17152 C 1662.29 0.898107 2.16728 0
M  V30 17153 C 1663.31 -0.132369 1.73496 0
M  V30 17154 O 1664.49 0.0460203 2.01347 0
M  V30 17155 C 1661.55 0.411091 3.44254 0
M  V30 17156 C 1660.61 1.5077 4.01954 0
M  V30 17157 C 1659.85 1.04383 5.23393 0
M  V30 17158 O 1660.07 -0.10351 5.70306 0
M  V30 17159 O 1659 1.8353 5.73237 0
M  V30 17160 H 1662.83 1.82791 2.42531 0
M  V30 17161 H 1660.41 0.950816 1.15238 0
M  V30 17162 H 1662.3 0.146837 4.21144 0
M  V30 17163 H 1660.97 -0.490605 3.19961 0
M  V30 17164 H 1659.88 1.82579 3.26521 0
M  V30 17165 H 1661.21 2.38497 4.30558 0
M  V30 17166 N 1662.86 -1.24221 0.969889 0
M  V30 17167 C 1663.81 -2.25292 0.501215 0
M  V30 17168 C 1664.78 -1.59764 -0.454382 0
M  V30 17169 O 1665.96 -1.87291 -0.364261 0
M  V30 17170 C 1663.1 -3.44518 -0.200361 0
M  V30 17171 C 1662.22 -4.24636 0.79426 0
M  V30 17172 C 1661.35 -5.31156 0.068568 0
M  V30 17173 C 1660.39 -6.02973 1.05311 0
M  V30 17174 N 1659.53 -7.0119 0.357274 0
M  V30 17175 H 1664.37 -2.64749 1.36792 0
M  V30 17176 H 1661.91 -1.30142 0.685673 0
M  V30 17177 H 1663.86 -4.1251 -0.623833 0
M  V30 17178 H 1662.49 -3.05892 -1.03101 0
M  V30 17179 H 1661.55 -3.56161 1.33616 0
M  V30 17180 H 1662.86 -4.74271 1.54493 0
M  V30 17181 H 1662.01 -6.05294 -0.412792 0
M  V30 17182 H 1660.75 -4.82434 -0.714781 0
M  V30 17183 H 1659.76 -5.27636 1.54532 0
M  V30 17184 H 1660.98 -6.53784 1.83694 0
M  V30 17185 H 1658.93 -6.54736 -0.407059 0
M  V30 17186 H 1658.84 -7.48718 1.04677 0
M  V30 17187 H 1660.11 -7.79433 -0.102045 0
M  V30 17188 N 1664.34 -0.740267 -1.39132 0
M  V30 17189 C 1665.59 -0.289949 -2.00009 0
M  V30 17190 C 1665.91 1.12831 -1.59042 0
M  V30 17191 O 1665.18 1.76926 -0.841076 0
M  V30 17192 H 1663.76 -0.104213 -0.739695 0
M  V30 17193 H 1666.42 -0.951398 -1.70101 0
M  V30 17194 H 1665.52 -0.342509 -3.10215 0
M  V30 17195 N 1665.82 1.49844 -0.488302 0
M  V30 17196 C 1666.77 2.28883 0.296859 0
M  V30 17197 C 1667.74 1.34703 0.971818 0
M  V30 17198 O 1668.92 1.63653 0.980937 0
M  V30 17199 C 1666.06 3.17049 1.36286 0
M  V30 17200 C 1665.17 4.26275 0.700956 0
M  V30 17201 C 1664.31 5.01674 1.74632 0
M  V30 17202 C 1663.35 6.02753 1.06559 0
M  V30 17203 N 1662.48 6.71366 2.05457 0
M  V30 17204 H 1667.32 2.95523 -0.383417 0
M  V30 17205 H 1664.86 1.45721 -0.200928 0
M  V30 17206 H 1666.82 3.66531 1.99276 0
M  V30 17207 H 1665.45 2.52419 2.01207 0
M  V30 17208 H 1664.5 3.80377 -0.0419236 0
M  V30 17209 H 1665.81 4.98529 0.164469 0
M  V30 17210 H 1664.97 5.54961 2.45159 0
M  V30 17211 H 1663.71 4.29166 2.31664 0
M  V30 17212 H 1662.71 5.4871 0.346029 0
M  V30 17213 H 1663.94 6.77243 0.501932 0
M  V30 17214 H 1661.88 6.01637 2.61475 0
M  V30 17215 H 1661.8 7.39552 1.56841 0
M  V30 17216 H 1663.07 7.29262 2.75312 0
M  V30 17217 N 1667.3 0.221601 1.56034 0
M  V30 17218 C 1668.71 -0.28624 1.84493 0
M  V30 17219 C 1669.06 -1.59469 1.14298 0
M  V30 17220 O 1668.18 -2.12429 0.412672 0
M  V30 17221 C 1668.78 -0.526128 3.3469 0
M  V30 17222 C 1667.34 -0.978278 3.63465 0
M  V30 17223 C 1666.48 -0.0413786 2.77269 0
M  V30 17224 H 1669.44 0.444792 1.52339 0
M  V30 17225 H 1669.46 -1.37212 3.54899 0
M  V30 17226 H 1668.97 0.426348 3.85751 0
M  V30 17227 H 1667.07 -1.94411 3.1786 0
M  V30 17228 H 1667.18 -0.852651 4.71452 0
M  V30 17229 H 1665.55 -0.548179 2.48731 0
M  V30 17230 H 1666.33 0.906016 3.31129 0
M  V30 17231 N 1668.77 -1.57515 -0.0517878 0
M  V30 17232 C 1670.19 -1.54323 -0.407009 0
M  V30 17233 C 1670.39 -0.944629 -1.77986 0
M  V30 17234 O 1669.45 -0.555785 -2.46307 0
M  V30 17235 C 1670.76 -2.98887 -0.329703 0
M  V30 17236 C 1672.31 -3.10324 -0.408443 0
M  V30 17237 C 1672.78 -4.56576 -0.360833 0
M  V30 17238 N 1674.27 -4.61289 -0.420313 0
M  V30 17239 C 1675.01 -5.71961 -0.406007 0
M  V30 17240 N 1674.5 -6.91939 -0.34533 0
M  V30 17241 N 1676.3 -5.60263 -0.454054 0
M  V30 17242 H 1668.45 -1.94785 0.846907 0
M  V30 17243 H 1670.71 -0.892417 0.319838 0
M  V30 17244 H 1670.42 -3.4632 0.612802 0
M  V30 17245 H 1670.29 -3.59806 -1.13222 0
M  V30 17246 H 1672.68 -2.62852 -1.34138 0
M  V30 17247 H 1672.76 -2.52278 0.423018 0
M  V30 17248 H 1672.4 -5.0471 0.568335 0
M  V30 17249 H 1672.33 -5.12508 -1.2101 0
M  V30 17250 H 1674.82 -3.74958 -0.470644 0
M  V30 17251 H 1675.14 -7.72057 -0.338889 0
M  V30 17252 H 1673.48 -6.94301 -0.311715 0
M  V30 17253 H 1676.67 -4.6543 -0.499289 0
M  V30 17254 H 1676.85 -6.46508 -0.439435 0
M  V30 17255 N 1670.25 0.323614 -1.54242 0
M  V30 17256 C 1671.5 1.05947 -1.72104 0
M  V30 17257 C 1671.82 1.88547 -0.497512 0
M  V30 17258 O 1671.09 1.89712 0.488485 0
M  V30 17259 H 1669.67 0.394141 -0.634557 0
M  V30 17260 H 1672.33 0.360063 -1.91545 0
M  V30 17261 H 1671.43 1.72552 -2.60062 0
M  V30 17262 N 1671.73 1.46313 0.585673 0
M  V30 17263 C 1672.64 1.59232 1.72286 0
M  V30 17264 C 1673.66 0.475912 1.67365 0
M  V30 17265 O 1674.83 0.739627 1.87327 0
M  V30 17266 C 1671.9 1.57647 3.08785 0
M  V30 17267 C 1670.96 2.80497 3.24992 0
M  V30 17268 C 1670.19 2.78978 4.5498 0
M  V30 17269 O 1670.42 1.87553 5.38684 0
M  V30 17270 O 1669.35 3.7048 4.74371 0
M  V30 17271 H 1673.18 2.55398 1.64334 0
M  V30 17272 H 1670.76 1.29073 0.752369 0
M  V30 17273 H 1672.64 1.59448 3.90069 0
M  V30 17274 H 1671.32 0.6464 3.1718 0
M  V30 17275 H 1670.22 2.8425 2.43213 0
M  V30 17276 H 1671.56 3.72703 3.21487 0
M  V30 17277 N 1673.21 -0.830057 1.33969 0
M  V30 17278 C 1674.12 -1.97244 1.27012 0
M  V30 17279 C 1675.14 -1.73076 0.179075 0
M  V30 17280 O 1676.31 -1.97301 0.404262 0
M  V30 17281 C 1673.38 -3.31409 1.01827 0
M  V30 17282 C 1672.44 -3.68633 2.20018 0
M  V30 17283 C 1671.67 -4.96397 1.96025 0
M  V30 17284 O 1671.89 -5.63014 0.91494 0
M  V30 17285 O 1670.83 -5.31331 2.82791 0
M  V30 17286 H 1674.65 -2.06056 2.23103 0
M  V30 17287 H 1672.24 -0.964399 1.14104 0
M  V30 17288 H 1674.12 -4.11779 0.895337 0
M  V30 17289 H 1672.8 -3.23581 0.0877091 0
M  V30 17290 H 1671.7 -2.88738 2.37869 0
M  V30 17291 H 1673.04 -3.81138 3.11439 0
M  V30 17292 N 1674.69 -1.17582 -1.04939 0
M  V30 17293 C 1675.94 -0.960189 -1.77379 0
M  V30 17294 C 1676.25 0.512001 -1.8878 0
M  V30 17295 O 1677.46 0.845912 -2.57986 0
M  V30 17296 C 1675.91 -1.66882 -3.18871 0
M  V30 17297 C 1675.52 -3.17972 -3.15591 0
M  V30 17298 C 1677.26 -1.53567 -3.95749 0
M  V30 17299 C 1675.17 -3.81513 -4.51887 0
M  V30 17300 H 1674.1 -0.35562 -0.664869 0
M  V30 17301 H 1676.75 -1.40863 -1.17601 0
M  V30 17302 H 1675.13 -1.14813 -3.78991 0
M  V30 17303 H 1676.31 -3.76995 -2.64974 0
M  V30 17304 H 1674.62 -3.31328 -2.52212 0
M  V30 17305 H 1677.22 -1.98408 -4.96526 0
M  V30 17306 H 1677.56 -0.486603 -4.13446 0
M  V30 17307 H 1678.1 -2.02868 -3.42183 0
M  V30 17308 H 1674.83 -4.86428 -4.39395 0
M  V30 17309 H 1674.35 -3.27276 -5.02643 0
M  V30 17310 H 1676.03 -3.83867 -5.20822 0
M  V30 17311 N 1676.17 1.23705 -0.976463 0
M  V30 17312 C 1677.58 1.73848 -0.680723 0
M  V30 17313 C 1677.93 1.79005 0.803228 0
M  V30 17314 O 1677.05 1.42529 1.62832 0
M  V30 17315 C 1677.65 3.15724 -1.22898 0
M  V30 17316 C 1676.21 3.63338 -0.982963 0
M  V30 17317 C 1675.35 2.41712 -1.35906 0
M  V30 17318 H 1678.3 1.09284 -1.15077 0
M  V30 17319 H 1678.33 3.75748 -0.599487 0
M  V30 17320 H 1677.84 3.11938 -2.30903 0
M  V30 17321 H 1675.94 3.72512 0.0811766 0
M  V30 17322 H 1676.05 4.50347 -1.63477 0
M  V30 17323 H 1674.42 2.42543 -0.777498 0
M  V30 17324 H 1675.2 2.40601 -2.4488 0
M  V30 17325 N 1677.64 0.747635 1.38738 0
M  V30 17326 C 1678.87 0.311781 2.04537 0
M  V30 17327 C 1679.29 -1.05782 1.56383 0
M  V30 17328 O 1678.64 -1.67077 0.734259 0
M  V30 17329 C 1678.69 0.318675 3.60093 0
M  V30 17330 O 1678.42 1.63423 4.06478 0
M  V30 17331 C 1679.92 -0.131782 4.43104 0
M  V30 17332 H 1677.14 0.134141 0.657455 0
M  V30 17333 H 1679.68 1.01482 1.77543 0
M  V30 17334 H 1677.84 -0.335578 3.85944 0
M  V30 17335 H 1678.25 1.55636 5.00877 0
M  V30 17336 H 1679.72 -0.0757978 5.51948 0
M  V30 17337 H 1680.2 -1.17881 4.23085 0
M  V30 17338 H 1680.81 0.493375 4.22429 0
M  V30 17339 N 1679.12 -1.49583 0.496242 0
M  V30 17340 C 1680.05 -2.26936 -0.321366 0
M  V30 17341 C 1681.07 -1.33282 -0.934863 0
M  V30 17342 O 1682.26 -1.58602 -0.819008 0
M  V30 17343 C 1679.36 -3.05503 -1.467 0
M  V30 17344 C 1678.53 -4.26697 -0.961687 0
M  V30 17345 C 1677.59 -4.8735 -1.98436 0
M  V30 17346 O 1676.61 -5.47553 -1.55482 0
M  V30 17347 N 1677.82 -4.76577 -3.31443 0
M  V30 17348 H 1680.58 -2.97744 0.341884 0
M  V30 17349 H 1678.14 -1.58532 0.328504 0
M  V30 17350 H 1680.13 -3.42954 -2.1486 0
M  V30 17351 H 1678.7 -2.37334 -2.03449 0
M  V30 17352 H 1677.92 -3.9406 -0.105143 0
M  V30 17353 H 1679.21 -5.05221 -0.602405 0
M  V30 17354 H 1678.61 -4.28756 -3.69032 0
M  V30 17355 H 1677.17 -5.18226 -3.95329 0
M  V30 17356 N 1680.6 -0.229873 -1.55915 0
M  V30 17357 C 1681.55 0.676809 -2.20653 0
M  V30 17358 C 1682.52 1.18412 -1.16481 0
M  V30 17359 O 1683.7 1.2417 -1.44867 0
M  V30 17360 C 1680.84 1.87567 -2.89677 0
M  V30 17361 C 1679.95 1.40648 -4.08463 0
M  V30 17362 C 1679.09 2.56356 -4.65247 0
M  V30 17363 C 1678.13 2.06215 -5.76318 0
M  V30 17364 N 1677.27 3.15226 -6.27357 0
M  V30 17365 H 1682.11 0.118035 -2.97766 0
M  V30 17366 H 1679.64 0.0465042 -1.47026 0
M  V30 17367 H 1681.6 2.57968 -3.27884 0
M  V30 17368 H 1680.23 2.40719 -2.15067 0
M  V30 17369 H 1679.28 0.597104 -3.75684 0
M  V30 17370 H 1680.59 0.998877 -4.88696 0
M  V30 17371 H 1679.75 3.34827 -5.05941 0
M  V30 17372 H 1678.49 3.0041 -3.84194 0
M  V30 17373 H 1677.49 1.26209 -5.35118 0
M  V30 17374 H 1678.72 1.63151 -6.59211 0
M  V30 17375 H 1676.66 3.58746 -5.49215 0
M  V30 17376 H 1676.58 2.78744 -7.02736 0
M  V30 17377 H 1677.85 3.93807 -6.72708 0
M  V30 17378 N 1682.08 1.5754 0.0434337 0
M  V30 17379 C 1683.49 1.77071 0.591836 0
M  V30 17380 C 1683.84 0.85911 1.76391 0
M  V30 17381 O 1682.96 0.0502725 2.16342 0
M  V30 17382 C 1683.56 3.21111 1.08041 0
M  V30 17383 C 1682.12 3.41889 1.57445 0
M  V30 17384 C 1681.27 2.72641 0.506166 0
M  V30 17385 H 1684.22 1.57644 -0.182792 0
M  V30 17386 H 1684.24 3.26834 1.94833 0
M  V30 17387 H 1683.75 3.87435 0.227153 0
M  V30 17388 H 1681.85 2.80721 2.45003 0
M  V30 17389 H 1681.96 4.50452 1.63185 0
M  V30 17390 H 1680.33 2.36002 0.957878 0
M  V30 17391 H 1681.11 3.41638 -0.337389 0
M  V30 17392 N 1683.56 -0.31543 1.54411 0
M  V30 17393 C 1684.83 -1.07113 1.63665 0
M  V30 17394 C 1685.21 -2.05671 0.475688 0
M  V30 17395 O 1684.56 -2.22288 -0.52918 0
M  V30 17396 C 1684.77 -1.76584 3.0103 0
M  V30 17397 C 1686.12 -2.29309 3.57355 0
M  V30 17398 O 1687.14 -1.86638 3.03388 0
M  V30 17399 O 1686 -3.07452 4.51814 0
M  V30 17400 H 1683.1 -0.494217 0.663083 0
M  V30 17401 H 1685.64 -0.31467 1.66757 0
M  V30 17402 H 1684.41 -1.0494 3.76966 0
M  V30 17403 H 1684.04 -2.5902 3.01653 0
M  V30 17404 N 1685.03 -1.46622 -0.577906 0
M  V30 17405 C 1685.97 -1.53587 -1.70128 0
M  V30 17406 C 1686.98 -0.423789 -1.57187 0
M  V30 17407 O 1688.17 -0.692392 -1.64524 0
M  V30 17408 C 1685.27 -1.40459 -3.08422 0
M  V30 17409 C 1684.44 -2.65872 -3.47319 0
M  V30 17410 C 1683.5 -2.46875 -4.64693 0
M  V30 17411 O 1682.53 -3.20617 -4.70312 0
M  V30 17412 N 1683.73 -1.53352 -5.59878 0
M  V30 17413 H 1686.49 -2.50449 -1.64606 0
M  V30 17414 H 1684.05 -1.42739 -0.764014 0
M  V30 17415 H 1686.05 -1.25516 -3.84744 0
M  V30 17416 H 1684.62 -0.517603 -3.08285 0
M  V30 17417 H 1683.84 -2.95724 -2.60655 0
M  V30 17418 H 1685.12 -3.49173 -3.70075 0
M  V30 17419 H 1684.52 -0.925526 -5.58078 0
M  V30 17420 H 1683.08 -1.4437 -6.3561 0
M  V30 17421 O 1686.55 0.722259 -1.4445 0
M  V30 17422 H 1687.24 1.37275 -1.36657 0
M  V30 END ATOM
M  V30 BEGIN BOND
M  V30 END BOND
M  V30 END CTAB
M  END
$$$$
